drugbank_target|Q9P0Z9 Peroxisomal sarcosine oxidase (DB00145)
 OpenBabel12092120083D

  0  0  0     0  0            999 V3000
M  V30 BEGIN CTAB
M  V30 COUNTS 6218 6296 0 0 0
M  V30 BEGIN ATOM
M  V30 1 H -0.908 1.98254 -0.117106 0
M  V30 2 N 0 1.576 0 0
M  V30 3 C 0.933 2.03868 1.02534 0
M  V30 4 C 1.911 0.928543 1.3348 0
M  V30 5 O 3.095 1.19667 1.45644 0
M  V30 6 C 0.222 2.43627 2.35294 0
M  V30 7 C -0.732 3.65373 2.2001 0
M  V30 8 S 0.101 5.13292 1.52614 0
M  V30 9 C 1.257 5.56322 2.86805 0
M  V30 10 H 1.49 2.90518 0.631377 0
M  V30 11 H -0.977 1.52953 0.210867 0
M  V30 12 H 0.981 2.67203 3.11629 0
M  V30 13 H -0.358 1.57376 2.7183 0
M  V30 14 H -1.165 3.90944 3.18086 0
M  V30 15 H -1.563 3.418 1.51819 0
M  V30 16 H 0.729 5.58782 3.83104 0
M  V30 17 H 1.672 6.56266 2.65933 0
M  V30 18 H 2.08 4.83886 2.90714 0
M  V30 19 N 1.4781 -0.272755 1.55222 0
M  V30 20 C 2.4411 -1.32041 1.87344 0
M  V30 21 C 3.4411 -1.42342 0.74803 0
M  V30 22 O 4.6311 -1.41488 1.0162 0
M  V30 23 C 1.7631 -2.70173 2.07893 0
M  V30 24 H 2.9561 -1.04789 2.80997 0
M  V30 25 H 0.5091 -0.51083 1.47717 0
M  V30 26 H 1.2441 -3.02605 1.16622 0
M  V30 27 H 1.0291 -2.64082 2.89833 0
M  V30 28 H 2.5191 -3.45869 2.34017 0
M  V30 29 N 2.9562 -1.48159 -0.537278 0
M  V30 30 C 3.9192 -1.61665 -1.62472 0
M  V30 31 C 4.9192 -0.490395 -1.5314 0
M  V30 32 O 6.1092 -0.755998 -1.5694 0
M  V30 33 C 3.2412 -1.57997 -3.02076 0
M  V30 34 H 4.4342 -2.58621 -1.51839 0
M  V30 35 H 1.9872 -1.36647 -0.758771 0
M  V30 36 H 2.7222 -0.624913 -3.18222 0
M  V30 37 H 2.5072 -2.39755 -3.10258 0
M  V30 38 H 3.9972 -1.70627 -3.81151 0
M  V30 39 N 4.4343 0.785586 -1.36625 0
M  V30 40 C 5.3663 1.90711 -1.2713 0
M  V30 41 C 6.3793 1.61688 -0.189986 0
M  V30 42 O 7.5683 1.72864 -0.445014 0
M  V30 43 C 4.6683 3.25611 -0.939713 0
M  V30 44 C 3.8413 3.82385 -2.12369 0
M  V30 45 C 2.9003 4.95732 -1.76456 0
M  V30 46 O 1.9263 5.12047 -2.48589 0
M  V30 47 N 3.1283 5.76258 -0.700492 0
M  V30 48 H 5.8933 1.99376 -2.23762 0
M  V30 49 H 3.4543 0.964041 -1.30069 0
M  V30 50 H 5.4463 3.98937 -0.680554 0
M  V30 51 H 4.0163 3.12538 -0.0624074 0
M  V30 52 H 3.2363 3.01001 -2.54543 0
M  V30 53 H 4.5243 4.17047 -2.9146 0
M  V30 54 H 3.9223 5.65609 -0.101624 0
M  V30 55 H 2.4793 6.4987 -0.501165 0
M  V30 56 N 5.9124 1.20967 1.01018 0
M  V30 57 C 6.8594 0.964281 2.09691 0
M  V30 58 C 7.8294 -0.107853 1.65749 0
M  V30 59 O 9.0144 0.0381987 1.90762 0
M  V30 60 C 6.1544 0.52943 3.41015 0
M  V30 61 C 5.2674 1.67043 3.98398 0
M  V30 62 C 4.4024 1.18525 5.17808 0
M  V30 63 C 3.4414 2.29892 5.67288 0
M  V30 64 N 2.5784 1.82546 6.77954 0
M  V30 65 H 7.4184 1.89463 2.30017 0
M  V30 66 H 4.9554 0.944289 1.1279 0
M  V30 67 H 6.9134 0.258588 4.16398 0
M  V30 68 H 5.5434 -0.363919 3.20742 0
M  V30 69 H 4.5954 2.05603 3.20049 0
M  V30 70 H 5.9074 2.50877 4.31117 0
M  V30 71 H 5.0614 0.870762 6.00419 0
M  V30 72 H 3.8004 0.316887 4.86669 0
M  V30 73 H 2.8054 2.6215 4.83278 0
M  V30 74 H 4.0304 3.17216 6.00459 0
M  V30 75 H 1.9764 0.980454 6.48632 0
M  V30 76 H 1.8934 2.59956 7.09901 0
M  V30 77 H 3.1614 1.54115 7.64113 0
M  V30 78 N 7.3905 -1.2043 1.01659 0
M  V30 79 C 8.6675 -1.8548 0.621004 0
M  V30 80 C 9.0475 -1.9091 -0.900919 0
M  V30 81 O 8.3955 -1.41694 -1.79263 0
M  V30 82 C 8.6055 -3.25119 1.2688 0
M  V30 83 C 9.9535 -4.01403 1.38423 0
M  V30 84 O 10.9775 -3.34473 1.22501 0
M  V30 85 O 9.8365 -5.21265 1.64151 0
M  V30 86 H 6.9305 -0.798761 0.214266 0
M  V30 87 H 9.4765 -1.28019 1.11396 0
M  V30 88 H 8.2485 -3.15932 2.30873 0
M  V30 89 H 7.8715 -3.90212 0.762917 0
M  V30 90 N 8.8686 -0.792821 -1.36206 0
M  V30 91 C 9.7986 -0.207853 -2.32573 0
M  V30 92 C 10.7796 0.659055 -1.56813 0
M  V30 93 O 11.9646 0.592176 -1.84951 0
M  V30 94 C 9.0946 0.655449 -3.41059 0
M  V30 95 C 8.0486 -0.111842 -4.27854 0
M  V30 96 C 7.3746 0.872274 -5.27537 0
M  V30 97 C 8.6746 -1.30299 -5.05786 0
M  V30 98 H 10.3686 -1.01294 -2.81744 0
M  V30 99 H 7.9146 -0.48854 -1.3546 0
M  V30 100 H 9.8676 1.07464 -4.07467 0
M  V30 101 H 8.5916 1.49328 -2.90463 0
M  V30 102 H 7.2506 -0.512053 -3.63006 0
M  V30 103 H 6.8986 1.70523 -4.73214 0
M  V30 104 H 6.5986 0.363291 -5.86476 0
M  V30 105 H 8.1226 1.28996 -5.96818 0
M  V30 106 H 9.5366 -0.959379 -5.65216 0
M  V30 107 H 7.9336 -1.7455 -5.74154 0
M  V30 108 H 9.0036 -2.09663 -4.37229 0
M  V30 109 N 10.3467 1.47872 -0.545128 0
M  V30 110 C 11.5927 2.03385 -0.0247951 0
M  V30 111 C 11.9477 1.41325 1.30556 0
M  V30 112 O 11.2407 0.5552 1.8338 0
M  V30 113 C 11.4347 3.57131 0.13867 0
M  V30 114 C 11.2637 4.34097 -1.17429 0
M  V30 115 C 10.0337 4.74458 -1.73831 0
M  V30 116 C 12.2317 4.6998 -2.08861 0
M  V30 117 N 10.2137 5.3602 -2.99258 0
M  V30 118 C 11.5847 5.31719 -3.18866 0
M  V30 119 C 13.6397 4.5191 -2.09003 0
M  V30 120 C 12.3427 5.77295 -4.29096 0
M  V30 121 C 14.3687 4.98477 -3.18237 0
M  V30 122 C 13.7307 5.60253 -4.26961 0
M  V30 123 H 9.8297 0.780339 -0.050943 0
M  V30 124 H 12.4137 1.80507 -0.729753 0
M  V30 125 H 10.5847 3.79802 0.812733 0
M  V30 126 H 12.3167 3.99282 0.659976 0
M  V30 127 H 9.0717 4.56037 -1.2778 0
M  V30 128 H 9.4957 5.71355 -3.63157 0
M  V30 129 H 14.1377 4.03516 -1.26234 0
M  V30 130 H 11.8557 6.24687 -5.12633 0
M  V30 131 H 15.4417 4.86274 -3.1942 0
M  V30 132 H 14.3217 5.95631 -5.10091 0
M  V30 133 N 11.8248 0.280983 1.55075 0
M  V30 134 C 13.1018 -0.386207 1.91749 0
M  V30 135 C 13.4818 -1.73264 1.20594 0
M  V30 136 O 12.8298 -2.26034 0.334784 0
M  V30 137 C 13.0398 -0.520687 3.45094 0
M  V30 138 C 14.3878 -0.800865 4.16979 0
M  V30 139 O 15.4118 -0.605271 3.5102 0
M  V30 140 O 14.2708 -1.1753 5.33712 0
M  V30 141 H 11.3648 -0.212408 0.799257 0
M  V30 142 H 13.9108 0.327568 1.66509 0
M  V30 143 H 12.6828 0.426633 3.88967 0
M  V30 144 H 12.3058 -1.2837 3.76307 0
M  V30 145 N 13.3029 -1.57598 0.00835791 0
M  V30 146 C 14.2659 -2.07884 -0.965242 0
M  V30 147 C 15.2659 -0.989825 -1.26725 0
M  V30 148 O 16.4559 -1.25218 -1.21104 0
M  V30 149 C 13.5879 -2.52731 -2.28779 0
M  V30 150 H 14.7809 -2.95178 -0.530112 0
M  V30 151 H 12.3339 -1.54458 -0.239283 0
M  V30 152 H 13.0689 -1.68705 -2.76964 0
M  V30 153 H 12.8539 -3.32272 -2.08177 0
M  V30 154 H 14.3439 -2.91933 -2.98605 0
M  V30 155 N 14.781 0.264519 -1.55364 0
M  V30 156 C 16.03 0.992812 -1.75574 0
M  V30 157 C 16.343 1.87142 -0.568979 0
M  V30 158 O 17.549 2.63513 -0.653682 0
M  V30 159 C 16.005 1.81519 -3.10771 0
M  V30 160 C 15.613 0.984839 -4.37041 0
M  V30 161 C 17.357 2.53727 -3.40327 0
M  V30 162 C 15.264 1.80209 -5.63275 0
M  V30 163 H 14.194 0.374412 -0.65447 0
M  V30 164 H 16.845 0.248138 -1.81815 0
M  V30 165 H 15.227 2.60115 -2.98591 0
M  V30 166 H 16.401 0.242455 -4.60162 0
M  V30 167 H 14.716 0.37691 -4.14691 0
M  V30 168 H 17.313 3.15292 -4.3185 0
M  V30 169 H 17.656 3.24447 -2.60845 0
M  V30 170 H 18.189 1.82156 -3.53644 0
M  V30 171 H 14.928 1.13896 -6.45529 0
M  V30 172 H 14.448 2.52022 -5.44284 0
M  V30 173 H 16.127 2.37364 -6.01887 0
M  V30 174 N 16.2591 1.48442 0.529413 0
M  V30 175 C 17.5051 1.5672 1.28711 0
M  V30 176 C 17.8381 0.2406 1.92704 0
M  V30 177 O 17.1131 -0.753454 1.79313 0
M  V30 178 C 17.3961 2.70587 2.37603 0
M  V30 179 C 17.2491 4.12953 1.78297 0
M  V30 180 C 18.5681 2.80212 3.39366 0
M  V30 181 H 15.6871 0.570474 0.466613 0
M  V30 182 H 18.3291 1.80617 0.589706 0
M  V30 183 H 16.4791 2.50342 2.97088 0
M  V30 184 H 18.1511 4.44639 1.22858 0
M  V30 185 H 16.3941 4.19927 1.0883 0
M  V30 186 H 17.0651 4.88448 2.57144 0
M  V30 187 H 19.5411 2.98553 2.89836 0
M  V30 188 H 18.4171 3.61611 4.12951 0
M  V30 189 H 18.6781 1.88393 3.99951 0
M  V30 190 N 17.7372 -0.778329 1.37039 0
M  V30 191 C 18.9862 -1.53189 1.3121 0
M  V30 192 C 19.2992 -1.95328 -0.103095 0
M  V30 193 O 20.5052 -2.70012 -0.283826 0
M  V30 194 C 18.9612 -2.76591 2.30272 0
M  V30 195 C 18.5692 -2.41577 3.77286 0
M  V30 196 C 20.3132 -3.5455 2.33441 0
M  V30 197 C 18.2202 -3.61441 4.68096 0
M  V30 198 H 17.1502 -0.5751 0.487622 0
M  V30 199 H 19.8012 -0.853101 1.62464 0
M  V30 200 H 18.1832 -3.46326 1.92027 0
M  V30 201 H 19.3572 -1.79668 4.2433 0
M  V30 202 H 17.6722 -1.76806 3.76999 0
M  V30 203 H 20.2692 -4.43628 2.98493 0
M  V30 204 H 20.6122 -3.93936 1.34611 0
M  V30 205 H 21.1452 -2.91805 2.7036 0
M  V30 206 H 17.8842 -3.27142 5.6803 0
M  V30 207 H 17.4042 -4.22478 4.25761 0
M  V30 208 H 19.0832 -4.28335 4.8491 0
M  V30 209 N 19.2153 -1.21501 -1.00376 0
M  V30 210 C 20.4633 -1.03095 -1.73827 0
M  V30 211 C 20.7843 0.436341 -1.90055 0
M  V30 212 O 20.0543 1.31466 -1.45236 0
M  V30 213 H 18.6343 -0.378487 -0.644016 0
M  V30 214 H 21.2963 -1.52831 -1.20949 0
M  V30 215 H 20.3923 -1.49991 -2.73695 0
M  V30 216 N 20.6934 1.19889 -1.02296 0
M  V30 217 C 21.6564 2.21116 -0.603351 0
M  V30 218 C 22.6564 1.5738 0.329884 0
M  V30 219 O 23.8464 1.73802 0.117702 0
M  V30 220 C 20.9784 3.40696 0.117992 0
M  V30 221 H 22.1714 2.59754 -1.49893 0
M  V30 222 H 19.7244 1.33463 -0.813468 0
M  V30 223 H 20.4594 3.07569 1.0282 0
M  V30 224 H 20.2444 3.88188 -0.552511 0
M  V30 225 H 21.7344 4.15692 0.398696 0
M  V30 226 N 22.1715 0.800033 1.35784 0
M  V30 227 C 23.4195 0.376597 1.9856 0
M  V30 228 C 23.7405 -1.05812 1.63795 0
M  V30 229 O 23.0105 -1.73103 0.917171 0
M  V30 230 H 21.5905 0.136261 0.734467 0
M  V30 231 H 24.2525 1.02442 1.65806 0
M  V30 232 H 23.3485 0.477002 3.08433 0
M  V30 233 N 23.6496 -1.47581 0.552962 0
M  V30 234 C 24.8986 -2.01684 0.0251995 0
M  V30 235 C 25.2116 -1.43317 -1.33115 0
M  V30 236 O 26.4176 -1.89057 -1.94858 0
M  V30 237 C 24.8736 -3.599 -0.00542052 0
M  V30 238 C 24.4816 -4.27257 1.34742 0
M  V30 239 C 26.2256 -4.21768 -0.4808 0
M  V30 240 C 24.1326 -5.77467 1.27614 0
M  V30 241 H 23.0626 -0.753979 0.00565033 0
M  V30 242 H 25.7136 -1.69616 0.70018 0
M  V30 243 H 24.0956 -3.88911 -0.745961 0
M  V30 244 H 25.2696 -4.09893 2.10534 0
M  V30 245 H 23.5846 -3.77358 1.76039 0
M  V30 246 H 26.1816 -5.31838 -0.55246 0
M  V30 247 H 26.5246 -3.88651 -1.49184 0
M  V30 248 H 27.0576 -3.97273 0.204752 0
M  V30 249 H 23.7966 -6.15196 2.26304 0
M  V30 250 H 23.3166 -5.9718 0.55996 0
M  V30 251 H 24.9956 -6.3959 0.976421 0
M  V30 252 N 25.1277 -0.289203 -1.54924 0
M  V30 253 C 26.0597 0.625583 -2.20497 0
M  V30 254 C 27.0727 1.10667 -1.19402 0
M  V30 255 O 28.2617 1.02615 -1.46056 0
M  V30 256 C 25.3617 1.86702 -2.82835 0
M  V30 257 C 24.5347 1.5304 -4.09753 0
M  V30 258 C 23.5937 2.62576 -4.56005 0
M  V30 259 O 22.6197 2.28167 -5.21468 0
M  V30 260 N 23.8217 3.92901 -4.27328 0
M  V30 261 H 26.5867 0.0642801 -2.99631 0
M  V30 262 H 24.1477 -0.110896 -1.6152 0
M  V30 263 H 26.1397 2.59304 -3.10715 0
M  V30 264 H 24.7097 2.33702 -2.07611 0
M  V30 265 H 23.9297 0.637564 -3.8901 0
M  V30 266 H 25.2177 1.28072 -4.92418 0
M  V30 267 H 24.6157 4.23671 -3.74859 0
M  V30 268 H 23.1727 4.61837 -4.59946 0
M  V30 269 N 26.6058 1.57591 -0.0167156 0
M  V30 270 C 27.8538 1.90906 0.663285 0
M  V30 271 C 28.1748 0.892509 1.73376 0
M  V30 272 O 27.4448 -0.0677623 1.95783 0
M  V30 273 H 26.0248 0.704637 0.247983 0
M  V30 274 H 28.6868 1.94803 -0.0615909 0
M  V30 275 H 27.7828 2.9116 1.12393 0
M  V30 276 N 28.0839 -0.256276 1.55502 0
M  V30 277 C 29.3239 -0.993081 1.78654 0
M  V30 278 C 29.6879 -1.8288 0.584724 0
M  V30 279 O 30.8889 -2.59665 0.694822 0
M  V30 280 C 29.1599 -1.83856 3.06483 0
M  V30 281 S 30.7189 -2.63573 3.5082 0
M  V30 282 H 27.5369 -0.334199 0.62756 0
M  V30 283 H 30.1389 -0.26184 1.93739 0
M  V30 284 H 28.8429 -1.21414 3.92029 0
M  V30 285 H 28.3739 -2.61271 2.94111 0
M  V30 286 H 30.3889 -3.86312 3.11412 0
M  V30 287 N 29.562 -1.4872 -0.521534 0
M  V30 288 C 30.809 -1.57168 -1.27689 0
M  V30 289 C 31.137 -0.249275 -1.92896 0
M  V30 290 O 30.392 0.761162 -1.80291 0
M  V30 291 C 30.691 -2.66497 -2.38148 0
M  V30 292 C 30.357 -4.08664 -1.90538 0
M  V30 293 C 29.019 -4.47357 -1.77271 0
M  V30 294 C 31.371 -4.97724 -1.54663 0
M  V30 295 C 28.699 -5.72905 -1.26478 0
M  V30 296 C 31.051 -6.2377 -1.05329 0
M  V30 297 C 29.715 -6.61311 -0.906861 0
M  V30 298 H 28.985 -0.575117 -0.467249 0
M  V30 299 H 31.632 -1.82472 -0.581051 0
M  V30 300 H 29.937 -2.35085 -3.13437 0
M  V30 301 H 31.634 -2.70246 -2.96257 0
M  V30 302 H 28.224 -3.78111 -2.01816 0
M  V30 303 H 32.408 -4.68501 -1.63768 0
M  V30 304 H 27.664 -6.00709 -1.13835 0
M  V30 305 H 31.838 -6.9217 -0.76644 0
M  V30 306 H 29.465 -7.5848 -0.511083 0
M  V30 307 N 31.0401 0.771051 -1.3745 0
M  V30 308 C 32.2681 1.56015 -1.35893 0
M  V30 309 C 32.6831 1.88718 0.0555523 0
M  V30 310 O 32.0401 1.51502 1.01752 0
M  V30 311 C 32.0911 2.87001 -2.19801 0
M  V30 312 O 31.8121 2.557 -3.55738 0
M  V30 313 C 33.3131 3.81228 -2.26231 0
M  V30 314 H 30.5331 0.483317 -0.465453 0
M  V30 315 H 33.0771 0.955611 -1.80799 0
M  V30 316 H 31.2321 3.43877 -1.78402 0
M  V30 317 H 31.6461 3.39584 -3.99729 0
M  V30 318 H 33.1201 4.70139 -2.89263 0
M  V30 319 H 33.5971 4.20409 -1.27093 0
M  V30 320 H 34.2031 3.30281 -2.67945 0
M  V30 321 N 32.5182 1.22032 0.997298 0
M  V30 322 C 33.4812 0.987909 2.06816 0
M  V30 323 C 34.4812 -0.0440084 1.6074 0
M  V30 324 O 35.6712 0.194053 1.73116 0
M  V30 325 C 32.8032 0.49132 3.37341 0
M  V30 326 H 33.9962 1.93803 2.28868 0
M  V30 327 H 31.5492 1.03838 1.16822 0
M  V30 328 H 32.2842 -0.463364 3.20973 0
M  V30 329 H 32.0692 1.23575 3.72118 0
M  V30 330 H 33.5592 0.348824 4.16141 0
M  V30 331 N 33.9963 -1.19345 1.0293 0
M  V30 332 C 35.2263 -1.92717 0.744563 0
M  V30 333 C 35.6343 -1.75751 -0.700579 0
M  V30 334 O 34.9773 -1.07703 -1.48815 0
M  V30 335 C 35.0393 -3.44828 1.01657 0
M  V30 336 C 34.7033 -3.85564 2.45335 0
M  V30 337 C 35.7003 -3.90286 3.43472 0
M  V30 338 C 33.3853 -4.1719 2.79746 0
M  V30 339 C 35.3793 -4.26065 4.74075 0
M  V30 340 C 33.0663 -4.52642 4.10559 0
M  V30 341 C 34.0643 -4.57054 5.07534 0
M  V30 342 O 33.7523 -4.91685 6.36004 0
M  V30 343 H 33.4843 -0.618977 0.271742 0
M  V30 344 H 36.0383 -1.52415 1.37691 0
M  V30 345 H 34.2683 -3.85314 0.327084 0
M  V30 346 H 35.9573 -3.99437 0.721427 0
M  V30 347 H 36.7233 -3.66002 3.18225 0
M  V30 348 H 32.6023 -4.1294 2.04943 0
M  V30 349 H 36.1463 -4.29423 5.49765 0
M  V30 350 H 32.0433 -4.76383 4.35579 0
M  V30 351 H 32.8113 -5.09631 6.40483 0
M  V30 352 N 35.4744 -0.807222 -1.35358 0
M  V30 353 C 36.4244 -0.190706 -2.27201 0
M  V30 354 C 37.4084 0.635838 -1.47804 0
M  V30 355 O 38.6004 0.492991 -1.69996 0
M  V30 356 C 35.7294 0.659337 -3.36909 0
M  V30 357 C 34.8154 -0.176971 -4.23731 0
M  V30 358 N 35.2064 -1.24029 -4.90357 0
M  V30 359 C 33.5044 0.0412953 -4.45981 0
M  V30 360 C 34.2054 -1.75092 -5.54723 0
M  V30 361 N 33.1814 -1.05727 -5.33219 0
M  V30 362 H 36.9834 -1.0043 -2.76208 0
M  V30 363 H 34.4974 -0.648445 -1.48892 0
M  V30 364 H 36.4944 1.11706 -4.01656 0
M  V30 365 H 35.1544 1.47127 -2.89454 0
M  V30 366 H 36.1654 -1.62295 -4.91814 0
M  V30 367 H 32.8424 0.82232 -4.09322 0
M  V30 368 H 34.2324 -2.63963 -6.17878 0
M  V30 369 N 36.9525 1.47285 -0.560781 0
M  V30 370 C 37.8825 2.32857 0.173105 0
M  V30 371 C 38.8635 1.44009 0.905281 0
M  V30 372 O 40.0485 1.7286 0.885046 0
M  V30 373 C 37.1785 3.25861 1.20133 0
M  V30 374 C 36.1325 4.23978 0.585388 0
M  V30 375 C 35.4585 5.06332 1.7185 0
M  V30 376 C 36.7585 5.20242 -0.463178 0
M  V30 377 H 38.4525 2.94466 -0.541307 0
M  V30 378 H 35.9985 1.41601 -0.261764 0
M  V30 379 H 37.9515 3.84569 1.72293 0
M  V30 380 H 36.6755 2.62315 1.94573 0
M  V30 381 H 35.3345 3.66501 0.085054 0
M  V30 382 H 34.9825 4.39186 2.45203 0
M  V30 383 H 34.6825 5.72762 1.31213 0
M  V30 384 H 36.2065 5.67899 2.24329 0
M  V30 385 H 37.6205 5.73293 -0.027502 0
M  V30 386 H 36.0175 5.94896 -0.788627 0
M  V30 387 H 37.0875 4.65504 -1.35773 0
M  V30 388 N 38.4306 0.297415 1.54768 0
M  V30 389 C 39.3936 -0.567375 2.22066 0
M  V30 390 C 40.3936 -1.06409 1.20556 0
M  V30 391 O 41.5836 -0.960691 1.45315 0
M  V30 392 C 38.7156 -1.78517 2.90421 0
M  V30 393 H 39.9086 0.0205534 2.99893 0
M  V30 394 H 37.4616 0.0482163 1.56226 0
M  V30 395 H 38.1966 -2.41303 2.16664 0
M  V30 396 H 37.9816 -1.43669 3.64831 0
M  V30 397 H 39.4716 -2.39964 3.41771 0
M  V30 398 N 39.9087 -1.5758 0.0250728 0
M  V30 399 C 40.8557 -2.09973 -0.958129 0
M  V30 400 C 41.8257 -1.00085 -1.3256 0
M  V30 401 O 43.0107 -1.27481 -1.41962 0
M  V30 402 C 40.1507 -2.62812 -2.2366 0
M  V30 403 C 39.2637 -3.86693 -1.92594 0
M  V30 404 C 38.3987 -4.27941 -3.14707 0
M  V30 405 C 37.4377 -5.44591 -2.79442 0
M  V30 406 N 36.5747 -5.81014 -3.94167 0
M  V30 407 H 41.4147 -2.937 -0.504428 0
M  V30 408 H 38.9517 -1.45172 -0.237392 0
M  V30 409 H 40.9097 -2.91536 -2.98434 0
M  V30 410 H 39.5397 -1.81922 -2.66654 0
M  V30 411 H 38.5917 -3.64723 -1.0808 0
M  V30 412 H 39.9037 -4.71547 -1.62619 0
M  V30 413 H 39.0577 -4.58079 -3.97804 0
M  V30 414 H 37.7967 -3.41845 -3.4784 0
M  V30 415 H 36.8017 -5.1415 -1.94755 0
M  V30 416 H 38.0267 -6.32382 -2.47528 0
M  V30 417 H 35.9727 -4.97874 -4.2715 0
M  V30 418 H 35.8897 -6.60498 -3.67801 0
M  V30 419 H 37.1577 -6.15756 -4.7798 0
M  V30 420 N 41.3868 0.248026 -1.55636 0
M  V30 421 C 42.3368 1.30994 -1.86614 0
M  V30 422 C 43.3208 1.43543 -0.726918 0
M  V30 423 O 44.5128 1.46804 -0.988818 0
M  V30 424 C 41.6418 2.6656 -2.16335 0
M  V30 425 C 40.7278 2.58019 -3.36581 0
M  V30 426 N 41.1188 2.1911 -4.55878 0
M  V30 427 C 39.4168 2.89035 -3.39669 0
M  V30 428 C 40.1178 2.21174 -5.38012 0
M  V30 429 N 39.0938 2.60632 -4.77045 0
M  V30 430 H 42.8958 0.999583 -2.76379 0
M  V30 431 H 40.4098 0.456652 -1.55848 0
M  V30 432 H 42.4068 3.43194 -2.36692 0
M  V30 433 H 41.0668 2.98463 -1.27867 0
M  V30 434 H 42.0778 1.90672 -4.81523 0
M  V30 435 H 38.7548 3.25485 -2.61469 0
M  V30 436 H 40.1448 1.9344 -6.43452 0
M  V30 437 N 42.8649 1.48995 0.513639 0
M  V30 438 C 44.2809 1.35478 0.843682 0
M  V30 439 C 44.4809 0.378213 1.97919 0
M  V30 440 O 43.5369 -0.194689 2.51748 0
M  V30 441 C 44.8499 2.75901 1.1958 0
M  V30 442 C 46.3979 2.84509 1.30474 0
M  V30 443 C 46.8729 4.25671 1.69021 0
M  V30 444 N 48.3639 4.28422 1.76094 0
M  V30 445 C 49.0989 5.34601 2.07338 0
M  V30 446 N 48.5949 6.5104 2.36894 0
M  V30 447 N 50.3879 5.22007 2.08483 0
M  V30 448 H 42.5389 2.11092 -0.235328 0
M  V30 449 H 44.8019 0.947039 -0.0426669 0
M  V30 450 H 44.5079 3.49001 0.434913 0
M  V30 451 H 44.3819 3.10467 2.1422 0
M  V30 452 H 46.7689 2.11655 2.05637 0
M  V30 453 H 46.8499 2.53542 0.339155 0
M  V30 454 H 46.4939 4.99048 0.944135 0
M  V30 455 H 46.4239 4.54094 2.66658 0
M  V30 456 H 48.9149 3.44441 1.55464 0
M  V30 457 H 49.2279 7.2779 2.59887 0
M  V30 458 H 47.5729 6.54287 2.34378 0
M  V30 459 H 50.7639 4.30051 1.84861 0
M  V30 460 H 50.9369 6.04854 2.325 0
M  V30 461 N 44.343 -0.763751 1.37857 0
M  V30 462 C 45.29 -1.87726 1.34267 0
M  V30 463 C 46.26 -1.64807 0.206879 0
M  V30 464 O 47.445 -1.86613 0.397508 0
M  V30 465 C 44.585 -3.24896 1.16346 0
M  V30 466 C 43.698 -3.59716 2.39225 0
M  V30 467 C 42.833 -4.86137 2.14114 0
M  V30 468 C 41.872 -5.13711 3.32817 0
M  V30 469 N 41.009 -6.31323 3.07206 0
M  V30 470 H 45.849 -1.90129 2.29466 0
M  V30 471 H 43.386 -0.929433 1.14017 0
M  V30 472 H 45.344 -4.04036 1.03975 0
M  V30 473 H 43.974 -3.21847 0.247909 0
M  V30 474 H 43.026 -2.75498 2.62307 0
M  V30 475 H 44.338 -3.76027 3.27728 0
M  V30 476 H 43.492 -5.73198 1.9882 0
M  V30 477 H 42.231 -4.71945 1.22961 0
M  V30 478 H 41.236 -4.25123 3.48641 0
M  V30 479 H 42.461 -5.29807 4.24832 0
M  V30 480 H 40.407 -6.18474 2.1869 0
M  V30 481 H 40.324 -6.48087 3.89254 0
M  V30 482 H 41.592 -7.213 2.95546 0
M  V30 483 N 45.8211 -1.22559 -0.990812 0
M  V30 484 C 47.2371 -0.985996 -1.255 0
M  V30 485 C 47.4371 0.319173 -1.98956 0
M  V30 486 O 46.4931 1.04127 -2.3003 0
M  V30 487 C 47.8061 -2.18607 -2.06474 0
M  V30 488 C 49.3541 -2.22985 -2.19651 0
M  V30 489 C 49.8291 -3.4255 -3.04012 0
M  V30 490 N 51.3201 -3.42725 -3.11599 0
M  V30 491 C 52.0551 -4.31892 -3.7717 0
M  V30 492 N 51.5511 -5.31279 -4.44651 0
M  V30 493 N 53.3441 -4.19662 -3.73952 0
M  V30 494 H 45.4951 -2.06469 -0.49841 0
M  V30 495 H 47.7581 -0.904853 -0.282747 0
M  V30 496 H 47.4641 -3.13267 -1.59865 0
M  V30 497 H 47.3381 -2.18838 -3.07229 0
M  V30 498 H 49.7251 -1.28871 -2.65474 0
M  V30 499 H 49.8061 -2.26791 -1.18319 0
M  V30 500 H 49.4501 -4.36965 -2.58889 0
M  V30 501 H 49.3801 -3.35984 -4.0549 0
M  V30 502 H 51.8711 -2.70807 -2.63575 0
M  V30 503 H 52.1841 -5.95593 -4.92431 0
M  V30 504 H 50.5291 -5.3519 -4.43392 0
M  V30 505 H 53.7201 -3.41268 -3.20396 0
M  V30 506 H 53.8931 -4.89358 -4.24774 0
M  V30 507 N 47.2992 1.18797 -1.03562 0
M  V30 508 C 48.5482 1.87978 -0.731235 0
M  V30 509 C 48.8612 1.80911 0.743671 0
M  V30 510 O 50.0672 2.45407 1.16137 0
M  V30 511 C 48.5232 3.3721 -1.25768 0
M  V30 512 C 48.1312 3.52818 -2.76085 0
M  V30 513 C 49.8752 4.11825 -1.0296 0
M  V30 514 C 47.7822 4.9598 -3.22114 0
M  V30 515 H 46.7122 0.704063 -0.269835 0
M  V30 516 H 49.3632 1.34266 -1.25079 0
M  V30 517 H 47.7452 3.90359 -0.666011 0
M  V30 518 H 48.9192 3.09965 -3.40966 0
M  V30 519 H 47.2342 2.91602 -2.97249 0
M  V30 520 H 49.8312 5.17411 -1.34869 0
M  V30 521 H 50.1742 4.16287 0.0333546 0
M  V30 522 H 50.7072 3.64833 -1.58562 0
M  V30 523 H 47.4462 4.96684 -4.27768 0
M  V30 524 H 46.9662 5.39569 -2.61965 0
M  V30 525 H 48.6452 5.6467 -3.15844 0
M  V30 526 N 48.7773 0.814389 1.34928 0
M  V30 527 C 49.7073 0.244827 2.32213 0
M  V30 528 C 50.6883 -0.634024 1.57842 0
M  V30 529 O 51.8733 -0.562676 1.8587 0
M  V30 530 C 49.0033 -0.601106 3.42058 0
M  V30 531 C 47.9573 0.179896 4.27622 0
M  V30 532 C 47.2833 -0.788237 5.28858 0
M  V30 533 C 48.5833 1.38329 5.03649 0
M  V30 534 H 50.2773 1.05763 2.80097 0
M  V30 535 H 47.8233 0.510029 1.34665 0
M  V30 536 H 49.7763 -1.00968 4.09125 0
M  V30 537 H 48.5003 -1.44688 2.92802 0
M  V30 538 H 47.1593 0.569739 3.62146 0
M  V30 539 H 46.8073 -1.62973 4.75866 0
M  V30 540 H 46.5073 -0.269942 5.8698 0
M  V30 541 H 48.0313 -1.19485 5.98795 0
M  V30 542 H 49.4453 1.04918 5.63618 0
M  V30 543 H 47.8423 1.83662 5.71304 0
M  V30 544 H 48.9123 2.16592 4.33839 0
M  V30 545 N 50.2554 -1.46986 0.568584 0
M  V30 546 C 51.1854 -2.32946 -0.160753 0
M  V30 547 C 52.1664 -1.44487 -0.897631 0
M  V30 548 O 53.3514 -1.73327 -0.875867 0
M  V30 549 C 50.4814 -3.26494 -1.18403 0
M  V30 550 C 49.4354 -4.24282 -0.562895 0
M  V30 551 C 48.7614 -5.07236 -1.69163 0
M  V30 552 C 50.0614 -5.19989 0.490761 0
M  V30 553 H 51.7554 -2.94175 0.556916 0
M  V30 554 H 49.3014 -1.4146 0.26927 0
M  V30 555 H 51.2544 -3.85477 -1.70251 0
M  V30 556 H 49.9784 -2.63343 -1.93179 0
M  V30 557 H 48.6374 -3.66541 -0.0656164 0
M  V30 558 H 48.2854 -4.4048 -2.42871 0
M  V30 559 H 47.9854 -5.7345 -1.28174 0
M  V30 560 H 49.5094 -5.6908 -2.21314 0
M  V30 561 H 50.9234 -5.73271 0.0579047 0
M  V30 562 H 49.3204 -5.94469 0.820165 0
M  V30 563 H 50.3904 -4.64777 1.3824 0
M  V30 564 N 51.7335 -0.305618 -1.54608 0
M  V30 565 C 52.6635 0.561482 -2.26649 0
M  V30 566 C 53.6445 1.13415 -1.26772 0
M  V30 567 O 54.8295 1.16262 -1.55553 0
M  V30 568 C 51.9595 1.73122 -3.01075 0
M  V30 569 C 50.9135 1.2887 -4.08138 0
M  V30 570 C 50.2395 2.54396 -4.70305 0
M  V30 571 C 51.5395 0.416578 -5.20636 0
M  V30 572 H 53.2335 -0.0393902 -2.99374 0
M  V30 573 H 50.7795 -0.020385 -1.43986 0
M  V30 574 H 52.7325 2.34396 -3.50195 0
M  V30 575 H 51.4565 2.3584 -2.25936 0
M  V30 576 H 50.1155 0.698991 -3.59875 0
M  V30 577 H 49.7635 3.15439 -3.918 0
M  V30 578 H 49.4635 2.25486 -5.42614 0
M  V30 579 H 50.9875 3.16464 -5.2219 0
M  V30 580 H 52.4015 0.935116 -5.65622 0
M  V30 581 H 50.7985 0.221046 -5.99693 0
M  V30 582 H 51.8685 -0.557162 -4.81688 0
M  V30 583 N 53.2116 1.57565 -0.0334293 0
M  V30 584 C 54.1216 2.13943 0.962572 0
M  V30 585 C 55.1376 1.09276 1.35406 0
M  V30 586 O 56.3136 1.41355 1.4346 0
M  V30 587 C 53.3786 2.65887 2.22497 0
M  V30 588 C 52.4396 3.85286 1.8935 0
M  V30 589 C 51.6726 4.34743 3.09571 0
M  V30 590 O 51.8956 3.83352 4.22371 0
M  V30 591 O 50.8296 5.26538 2.91618 0
M  V30 592 H 54.6556 2.99333 0.513169 0
M  V30 593 H 52.2406 1.4822 0.18743 0
M  V30 594 H 54.1226 2.99346 2.96598 0
M  V30 595 H 52.7976 1.83578 2.6661 0
M  V30 596 H 51.7046 3.56746 1.1262 0
M  V30 597 H 53.0376 4.68771 1.5005 0
M  V30 598 N 54.6897 -0.239769 1.55765 0
M  V30 599 C 55.6217 -1.32001 1.87372 0
M  V30 600 C 56.6347 -1.43944 0.760522 0
M  V30 601 O 57.8237 -1.45167 1.0387 0
M  V30 602 C 54.9237 -2.69779 2.05115 0
M  V30 603 C 54.0967 -2.80014 3.36022 0
M  V30 604 C 53.1557 -3.98684 3.4342 0
M  V30 605 O 52.1817 -3.87877 4.16582 0
M  V30 606 N 53.3837 -5.12176 2.73232 0
M  V30 607 H 56.1487 -1.0522 2.80622 0
M  V30 608 H 53.7097 -0.429857 1.56089 0
M  V30 609 H 55.7017 -3.47517 2.07399 0
M  V30 610 H 54.2717 -2.89237 1.18577 0
M  V30 611 H 53.4917 -1.88896 3.45994 0
M  V30 612 H 54.7797 -2.83808 4.22292 0
M  V30 613 H 54.1777 -5.2385 2.13536 0
M  V30 614 H 52.7347 -5.88022 2.81199 0
M  V30 615 N 56.1678 -1.49265 -0.50573 0
M  V30 616 C 57.4148 -1.58513 -1.26015 0
M  V30 617 C 57.7428 -0.26972 -1.92621 0
M  V30 618 O 56.9978 0.741997 -1.81088 0
M  V30 619 C 57.2968 -2.69008 -2.35308 0
M  V30 620 C 56.9628 -4.10662 -1.86192 0
M  V30 621 C 55.6248 -4.49212 -1.72516 0
M  V30 622 C 57.9768 -4.99336 -1.49375 0
M  V30 623 C 55.3048 -5.74214 -1.20394 0
M  V30 624 C 57.6568 -6.24852 -0.987072 0
M  V30 625 C 56.3208 -6.62236 -0.836669 0
M  V30 626 H 55.5908 -0.580041 -0.461122 0
M  V30 627 H 58.2378 -1.83078 -0.561665 0
M  V30 628 H 56.5428 -2.38396 -3.10926 0
M  V30 629 H 58.2398 -2.73373 -2.93374 0
M  V30 630 H 54.8298 -3.8023 -1.97795 0
M  V30 631 H 59.0138 -4.70212 -1.5879 0
M  V30 632 H 54.2698 -6.01883 -1.07458 0
M  V30 633 H 58.4438 -6.92944 -0.692983 0
M  V30 634 H 56.0708 -7.58979 -0.430607 0
M  V30 635 N 57.6459 0.756429 -1.3826 0
M  V30 636 C 58.8929 1.51547 -1.34312 0
M  V30 637 C 59.2209 1.94382 0.0677144 0
M  V30 638 O 58.4759 1.65514 1.04421 0
M  V30 639 C 58.7749 2.78313 -2.24224 0
M  V30 640 C 58.4409 2.54455 -3.72241 0
M  V30 641 C 57.1029 2.47657 -4.12576 0
M  V30 642 C 59.4549 2.3354 -4.65949 0
M  V30 643 C 56.7829 2.17956 -5.44713 0
M  V30 644 C 59.1349 2.05359 -5.9834 0
M  V30 645 C 57.7989 1.97016 -6.37762 0
M  V30 646 H 57.0689 0.55455 -0.491482 0
M  V30 647 H 59.7159 0.870039 -1.70595 0
M  V30 648 H 58.0209 3.47492 -1.80987 0
M  V30 649 H 59.7179 3.36259 -2.18474 0
M  V30 650 H 56.3079 2.60616 -3.40261 0
M  V30 651 H 60.4919 2.37772 -4.35635 0
M  V30 652 H 55.7479 2.10003 -5.74203 0
M  V30 653 H 59.9219 1.88179 -6.70494 0
M  V30 654 H 57.5489 1.73766 -7.40074 0
M  V30 655 N 59.124 1.23083 0.984299 0
M  V30 656 C 60.054 1.03292 2.09411 0
M  V30 657 C 61.035 -0.048923 1.7003 0
M  V30 658 O 62.22 0.114967 1.93859 0
M  V30 659 C 59.35 0.619155 3.41736 0
M  V30 660 C 58.304 1.64791 3.95004 0
M  V30 661 C 57.63 1.0897 5.23478 0
M  V30 662 C 58.93 3.03999 4.24714 0
M  V30 663 H 60.624 1.96119 2.26225 0
M  V30 664 H 58.17 0.944344 1.08711 0
M  V30 665 H 60.123 0.467777 4.18796 0
M  V30 666 H 58.847 -0.344786 3.24775 0
M  V30 667 H 57.506 1.78721 3.20085 0
M  V30 668 H 57.154 0.11686 5.02864 0
M  V30 669 H 56.854 1.77704 5.60085 0
M  V30 670 H 58.378 0.950093 6.03163 0
M  V30 671 H 59.792 2.93393 4.92538 0
M  V30 672 H 58.189 3.69936 4.72512 0
M  V30 673 H 59.259 3.53285 3.32142 0
M  V30 674 N 60.6021 -1.18246 1.0419 0
M  V30 675 C 62.0131 -1.69914 0.773698 0
M  V30 676 C 62.3641 -1.83085 -0.705297 0
M  V30 677 O 61.4891 -1.51123 -1.5489 0
M  V30 678 C 62.0841 -3.08619 1.39784 0
M  V30 679 C 60.6431 -3.57494 1.17792 0
M  V30 680 C 59.7901 -2.34013 1.48773 0
M  V30 681 H 62.7411 -1.02904 1.20816 0
M  V30 682 H 62.7621 -3.71958 0.801714 0
M  V30 683 H 62.2741 -2.99001 2.47426 0
M  V30 684 H 60.3751 -3.72406 0.120295 0
M  V30 685 H 60.4881 -4.40852 1.87581 0
M  V30 686 H 58.8521 -2.37986 0.907463 0
M  V30 687 H 59.6351 -2.27013 2.57527 0
M  V30 688 N 62.0802 -0.821533 -1.34494 0
M  V30 689 C 63.0302 -0.214793 -2.26986 0
M  V30 690 C 64.0142 0.620125 -1.4847 0
M  V30 691 O 65.2062 0.474933 -1.70509 0
M  V30 692 C 62.3352 0.623566 -3.37589 0
M  V30 693 C 61.4212 -0.221904 -4.23519 0
M  V30 694 N 61.8122 -1.29223 -4.89014 0
M  V30 695 C 60.1102 -0.00600922 -4.46 0
M  V30 696 C 60.8112 -1.80965 -5.52835 0
M  V30 697 N 59.7872 -1.11376 -5.32068 0
M  V30 698 H 63.5892 -1.03354 -2.75128 0
M  V30 699 H 61.1032 -0.6642 -1.48196 0
M  V30 700 H 63.1002 1.0744 -4.02818 0
M  V30 701 H 61.7602 1.44049 -2.90998 0
M  V30 702 H 62.7712 -1.67502 -4.90065 0
M  V30 703 H 59.4482 0.77886 -4.10171 0
M  V30 704 H 60.8382 -2.70502 -6.15043 0
M  V30 705 N 63.5583 1.46682 -0.576371 0
M  V30 706 C 64.7833 2.07304 -0.0630475 0
M  V30 707 C 65.2083 1.42329 1.2298 0
M  V30 708 O 64.5663 0.504865 1.74129 0
M  V30 709 C 64.6143 3.60472 0.095895 0
M  V30 710 O 63.7183 3.95927 1.15394 0
M  V30 711 H 63.0593 0.661288 -0.0599463 0
M  V30 712 H 65.5893 1.88417 -0.797511 0
M  V30 713 H 65.5993 4.06865 0.304071 0
M  V30 714 H 64.2743 4.07157 -0.84828 0
M  V30 715 H 62.8513 3.61252 0.924724 0
M  V30 716 N 65.0364 0.313813 1.54444 0
M  V30 717 C 66.4524 -0.0391619 1.59552 0
M  V30 718 C 66.6524 -1.51322 1.33056 0
M  V30 719 O 65.7084 -2.26782 1.11022 0
M  V30 720 C 67.0214 0.370302 2.98411 0
M  V30 721 C 68.5694 0.320139 3.11358 0
M  V30 722 C 69.0444 0.704617 4.52547 0
M  V30 723 N 70.5354 0.657645 4.58508 0
M  V30 724 C 71.2704 0.927453 5.6585 0
M  V30 725 N 70.7664 1.26389 6.81174 0
M  V30 726 N 72.5594 0.853662 5.5558 0
M  V30 727 H 64.7104 1.27433 1.69925 0
M  V30 728 H 66.9734 0.517511 0.794284 0
M  V30 729 H 66.6794 1.39694 3.22767 0
M  V30 730 H 66.5534 -0.269619 3.76235 0
M  V30 731 H 68.9404 -0.697275 2.86744 0
M  V30 732 H 69.0214 0.99486 2.35661 0
M  V30 733 H 68.6654 1.7199 4.77893 0
M  V30 734 H 68.5954 0.00768843 5.26599 0
M  V30 735 H 71.0864 0.409067 3.75679 0
M  V30 736 H 71.3994 1.4554 7.58972 0
M  V30 737 H 69.7444 1.30206 6.82694 0
M  V30 738 H 72.9354 0.590383 4.64362 0
M  V30 739 H 73.1084 1.0673 6.3915 0
M  V30 740 N 66.5145 -1.57545 0.0417849 0
M  V30 741 C 67.7625 -1.91937 -0.632829 0
M  V30 742 C 68.0835 -0.919978 -1.71934 0
M  V30 743 O 67.3535 0.0366064 -1.95866 0
M  V30 744 H 65.9335 -0.708493 -0.236742 0
M  V30 745 H 68.5955 -1.9468 0.0925745 0
M  V30 746 H 67.6915 -2.92912 -1.07746 0
M  V30 747 N 67.9926 0.231505 -1.5589 0
M  V30 748 C 69.2176 0.978689 -1.82856 0
M  V30 749 C 69.6426 1.77559 -0.620846 0
M  V30 750 O 69.0006 1.76119 0.430305 0
M  V30 751 C 69.0486 1.87997 -3.07716 0
M  V30 752 O 68.1526 2.97393 -2.85712 0
M  V30 753 H 67.4936 0.277663 -0.603158 0
M  V30 754 H 70.0236 0.24783 -2.03093 0
M  V30 755 H 70.0336 2.2917 -3.37558 0
M  V30 756 H 68.7086 1.29417 -3.95252 0
M  V30 757 H 67.2856 2.60238 -2.67078 0
M  V30 758 N 69.4707 1.49531 0.497807 0
M  V30 759 C 70.6957 1.63159 1.28039 0
M  V30 760 C 71.1207 0.30418 1.85624 0
M  V30 761 O 70.4787 -0.728618 1.66015 0
M  V30 762 C 70.5267 2.70537 2.38416 0
M  V30 763 O 69.6307 2.29931 3.42353 0
M  V30 764 H 68.9717 0.546001 0.377861 0
M  V30 765 H 71.5017 1.9574 0.59558 0
M  V30 766 H 71.5117 2.92802 2.84132 0
M  V30 767 H 70.1867 3.6689 1.95869 0
M  V30 768 H 68.7637 2.18009 3.02533 0
M  V30 769 N 70.9488 -0.749086 1.3866 0
M  V30 770 C 71.8988 -1.85368 1.32751 0
M  V30 771 C 72.8828 -1.59511 0.210945 0
M  V30 772 O 74.0748 -1.71255 0.447299 0
M  V30 773 C 71.2038 -3.23131 1.15935 0
M  V30 774 C 70.2898 -3.54864 2.32233 0
M  V30 775 N 70.6808 -3.57625 3.57684 0
M  V30 776 C 68.9788 -3.85154 2.24883 0
M  V30 777 C 69.6798 -3.86753 4.34508 0
M  V30 778 N 68.6558 -4.03812 3.63918 0
M  V30 779 H 72.4578 -1.85787 2.27729 0
M  V30 780 H 69.9718 -0.946658 1.31955 0
M  V30 781 H 71.9688 -4.02185 1.09786 0
M  V30 782 H 70.6288 -3.23961 0.218947 0
M  V30 783 H 71.6398 -3.39276 3.91295 0
M  V30 784 H 68.3168 -3.93672 1.39027 0
M  V30 785 H 69.7068 -3.95474 5.43185 0
M  V30 786 N 72.4269 -1.23603 -0.977757 0
M  V30 787 C 73.6749 -1.06759 -1.71601 0
M  V30 788 C 73.9959 0.395929 -1.90938 0
M  V30 789 O 73.2659 1.28356 -1.47992 0
M  V30 790 H 71.8459 -0.392062 -0.635843 0
M  V30 791 H 74.5079 -1.55362 -1.1768 0
M  V30 792 H 73.6039 -1.55763 -2.70452 0
M  V30 793 N 73.905 1.17692 -1.04816 0
M  V30 794 C 74.837 2.21103 -0.603822 0
M  V30 795 C 75.85 1.59411 0.33046 0
M  V30 796 O 77.039 1.7807 0.12379 0
M  V30 797 C 74.139 3.38623 0.136898 0
M  V30 798 C 73.312 4.29888 -0.807137 0
M  V30 799 C 72.371 5.26088 -0.10836 0
M  V30 800 O 71.397 5.64353 -0.741232 0
M  V30 801 N 72.599 5.68882 1.15558 0
M  V30 802 H 75.364 2.59848 -1.49329 0
M  V30 803 H 72.925 1.32553 -0.929587 0
M  V30 804 H 74.917 4.00009 0.614401 0
M  V30 805 H 73.487 2.98508 0.927993 0
M  V30 806 H 72.707 3.65993 -1.46434 0
M  V30 807 H 73.995 4.87759 -1.44807 0
M  V30 808 H 73.393 5.39861 1.69015 0
M  V30 809 H 71.95 6.32429 1.57722 0
M  V30 810 N 75.3831 0.828654 1.34056 0
M  V30 811 C 76.6081 0.431637 2.02859 0
M  V30 812 C 77.0331 -0.956339 1.61975 0
M  V30 813 O 76.3911 -1.62338 0.807228 0
M  V30 814 C 76.4391 0.548323 3.56407 0
M  V30 815 O 75.5431 -0.429556 4.10157 0
M  V30 816 H 74.8841 0.176886 0.640006 0
M  V30 817 H 77.4141 1.12066 1.71179 0
M  V30 818 H 77.4241 0.426196 4.05768 0
M  V30 819 H 76.0991 1.5606 3.8551 0
M  V30 820 H 74.6761 -0.265836 3.71951 0
M  V30 821 N 76.8612 -1.46375 0.584142 0
M  V30 822 C 78.2772 -1.57694 0.245929 0
M  V30 823 C 78.4772 -1.57903 -1.25175 0
M  V30 824 O 77.5332 -1.49676 -2.03355 0
M  V30 825 C 78.8462 -2.87028 0.896402 0
M  V30 826 C 80.3942 -3.00662 0.870127 0
M  V30 827 C 80.8692 -4.32734 1.50017 0
M  V30 828 N 82.3602 -4.39436 1.46458 0
M  V30 829 C 83.0952 -5.40248 1.92144 0
M  V30 830 N 82.5912 -6.47726 2.4581 0
M  V30 831 N 84.3842 -5.31459 1.83052 0
M  V30 832 H 76.5352 -1.44483 1.55687 0
M  V30 833 H 78.7982 -0.689291 0.650831 0
M  V30 834 H 78.5042 -2.9269 1.95002 0
M  V30 835 H 78.3782 -3.75014 0.405486 0
M  V30 836 H 80.7652 -2.94581 -0.174871 0
M  V30 837 H 80.8462 -2.14148 1.39908 0
M  V30 838 H 80.4902 -4.39573 2.54437 0
M  V30 839 H 80.4202 -5.18025 0.946432 0
M  V30 840 H 82.9112 -3.62367 1.07231 0
M  V30 841 H 83.2242 -7.20863 2.78525 0
M  V30 842 H 81.5692 -6.48542 2.49836 0
M  V30 843 H 84.7602 -4.46396 1.40883 0
M  V30 844 H 84.9332 -6.09881 2.18973 0
M  V30 845 N 78.3393 -0.321999 -1.54275 0
M  V30 846 C 79.5883 0.281931 -1.9972 0
M  V30 847 C 79.9013 1.53369 -1.21397 0
M  V30 848 O 81.1073 2.21352 -1.57211 0
M  V30 849 C 79.5633 0.5529 -3.55628 0
M  V30 850 C 79.1713 -0.681721 -4.42783 0
M  V30 851 C 80.9153 1.11687 -4.09544 0
M  V30 852 C 78.8223 -0.382742 -5.9016 0
M  V30 853 H 77.7523 0.109124 -0.746062 0
M  V30 854 H 80.4033 -0.43398 -1.78294 0
M  V30 855 H 78.7853 1.32896 -3.73035 0
M  V30 856 H 79.9593 -1.45723 -4.37151 0
M  V30 857 H 78.2743 -1.1658 -3.99748 0
M  V30 858 H 80.8713 1.35515 -5.17242 0
M  V30 859 H 81.2143 2.06575 -3.61431 0
M  V30 860 H 81.7473 0.402032 -3.95763 0
M  V30 861 H 78.4863 -1.30076 -6.42464 0
M  V30 862 H 78.0063 0.355094 -5.98748 0
M  V30 863 H 79.6853 0.00800157 -6.47 0
M  V30 864 N 79.8174 1.5752 -0.0501392 0
M  V30 865 C 81.0664 1.91827 0.623328 0
M  V30 866 C 81.3794 0.930222 1.72065 0
M  V30 867 O 82.5854 1.1653 2.4522 0
M  V30 868 C 81.0414 3.40692 1.16003 0
M  V30 869 C 80.6494 4.479 0.0948811 0
M  V30 870 C 82.3934 3.84034 1.80881 0
M  V30 871 C 80.3004 5.87879 0.644411 0
M  V30 872 H 79.2304 0.715918 0.236596 0
M  V30 873 H 81.8814 1.83115 -0.118861 0
M  V30 874 H 80.2634 3.44405 1.9545 0
M  V30 875 H 81.4374 4.55775 -0.678675 0
M  V30 876 H 79.7524 4.13892 -0.45637 0
M  V30 877 H 82.3494 4.85984 2.22988 0
M  V30 878 H 82.6924 3.20225 2.6601 0
M  V30 879 H 83.2254 3.82833 1.0809 0
M  V30 880 H 79.9644 6.55282 -0.169229 0
M  V30 881 H 79.4844 5.83567 1.38598 0
M  V30 882 H 81.1634 6.37098 1.12763 0
M  V30 883 N 81.2955 -0.223234 1.56011 0
M  V30 884 C 82.7115 -0.572856 1.48965 0
M  V30 885 C 82.9115 -1.87225 0.74492 0
M  V30 886 O 81.9675 -2.50899 0.283896 0
M  V30 887 C 83.2805 -0.653646 2.9351 0
M  V30 888 C 84.8285 -0.744386 3.0402 0
M  V30 889 C 85.3035 -0.856535 4.49919 0
M  V30 890 N 86.7945 -0.9208 4.53955 0
M  V30 891 C 87.5295 -1.02726 5.64123 0
M  V30 892 N 87.0255 -1.09777 6.84047 0
M  V30 893 N 88.8185 -1.06226 5.51971 0
M  V30 894 H 80.9695 0.629462 2.02858 0
M  V30 895 H 83.2325 0.220621 0.921971 0
M  V30 896 H 82.9385 0.231518 3.50937 0
M  V30 897 H 82.8125 -1.51781 3.45315 0
M  V30 898 H 85.1995 -1.61999 2.46658 0
M  V30 899 H 85.2805 0.14541 2.55386 0
M  V30 900 H 84.9245 0.0146069 5.07898 0
M  V30 901 H 84.8545 -1.76172 4.96257 0
M  V30 902 H 87.3455 -0.876694 3.6759 0
M  V30 903 H 87.6585 -1.17872 7.63758 0
M  V30 904 H 86.0035 -1.06693 6.86762 0
M  V30 905 H 89.1945 -1.00382 4.5721 0
M  V30 906 H 89.3675 -1.14177 6.37862 0
M  V30 907 N 82.7736 -1.49793 -0.48987 0
M  V30 908 C 83.7206 -1.67281 -1.59014 0
M  V30 909 C 84.6906 -0.514177 -1.57941 0
M  V30 910 O 85.8756 -0.742533 -1.75759 0
M  V30 911 C 83.0156 -1.75569 -2.97102 0
M  V30 912 C 82.1286 -3.0281 -3.08107 0
M  V30 913 C 81.2636 -3.02008 -4.36995 0
M  V30 914 C 80.3026 -4.23782 -4.41673 0
M  V30 915 N 79.4396 -4.20826 -5.62005 0
M  V30 916 H 84.2796 -2.61224 -1.43409 0
M  V30 917 H 81.8166 -1.29508 -0.697565 0
M  V30 918 H 83.7746 -1.78354 -3.77155 0
M  V30 919 H 82.4046 -0.850827 -3.11385 0
M  V30 920 H 81.4566 -3.09584 -2.21047 0
M  V30 921 H 82.7686 -3.92801 -3.07423 0
M  V30 922 H 81.9226 -3.03418 -5.25378 0
M  V30 923 H 80.6616 -2.09815 -4.4026 0
M  V30 924 H 79.6666 -4.22604 -3.5169 0
M  V30 925 H 80.8916 -5.17181 -4.40115 0
M  V30 926 H 78.8376 -3.31476 -5.66091 0
M  V30 927 H 78.7546 -5.04564 -5.62984 0
M  V30 928 H 80.0226 -4.26355 -6.52565 0
M  V30 929 N 84.2517 0.741722 -1.39055 0
M  V30 930 C 85.2147 1.83733 -1.37021 0
M  V30 931 C 86.2147 1.58542 -0.268534 0
M  V30 932 O 87.4047 1.66067 -0.526076 0
M  V30 933 C 84.5367 3.2141 -1.13617 0
M  V30 934 H 85.7297 1.86941 -2.34506 0
M  V30 935 H 83.2827 0.944676 -1.24521 0
M  V30 936 H 84.0177 3.23865 -0.167863 0
M  V30 937 H 83.8027 3.4109 -1.93391 0
M  V30 938 H 85.2927 4.01477 -1.14918 0
M  V30 939 N 85.7298 1.2412 0.971189 0
M  V30 940 C 86.9598 1.10415 1.7462 0
M  V30 941 C 87.3678 -0.346462 1.86001 0
M  V30 942 O 86.7108 -1.25104 1.34517 0
M  V30 943 C 86.7728 1.66596 3.18568 0
M  V30 944 C 86.4368 3.15446 3.3067 0
M  V30 945 C 87.4338 4.12636 3.16271 0
M  V30 946 C 85.1188 3.55337 3.55022 0
M  V30 947 C 87.1128 5.47699 3.26044 0
M  V30 948 C 84.7998 4.90542 3.64434 0
M  V30 949 C 85.7978 5.86532 3.49956 0
M  V30 950 O 85.4858 7.19279 3.59017 0
M  V30 951 H 85.2178 0.386616 0.55453 0
M  V30 952 H 87.7718 1.64633 1.22821 0
M  V30 953 H 86.0018 1.06808 3.71657 0
M  V30 954 H 87.6908 1.48232 3.77865 0
M  V30 955 H 88.4568 3.8316 2.97344 0
M  V30 956 H 84.3358 2.8113 3.65359 0
M  V30 957 H 87.8798 6.22603 3.14661 0
M  V30 958 H 83.7768 5.19691 3.82873 0
M  V30 959 H 84.5448 7.27153 3.75754 0
M  V30 960 N 87.2079 -1.17134 1.05439 0
M  V30 961 C 88.1379 -2.2342 0.678649 0
M  V30 962 C 89.1189 -1.66971 -0.32476 0
M  V30 963 O 90.3039 -1.93149 -0.201802 0
M  V30 964 C 87.4339 -3.47256 0.0552099 0
M  V30 965 C 86.3879 -4.16543 0.98365 0
M  V30 966 C 85.7139 -5.34231 0.223961 0
M  V30 967 C 87.0139 -4.68495 2.3089 0
M  V30 968 H 88.7079 -2.55105 1.56722 0
M  V30 969 H 86.2539 -1.2262 0.754998 0
M  V30 970 H 88.2069 -4.20828 -0.21946 0
M  V30 971 H 86.9309 -3.14846 -0.868319 0
M  V30 972 H 85.5899 -3.44887 1.24293 0
M  V30 973 H 85.2379 -4.98071 -0.702412 0
M  V30 974 H 84.9379 -5.81527 0.842627 0
M  V30 975 H 86.4619 -6.10585 -0.0433671 0
M  V30 976 H 87.8759 -5.33691 2.09396 0
M  V30 977 H 86.2729 -5.26379 2.88176 0
M  V30 978 H 87.3429 -3.85169 2.94572 0
M  V30 979 N 88.686 -0.835752 -1.33615 0
M  V30 980 C 89.596 -0.269088 -2.33052 0
M  V30 981 C 90.612 0.603251 -1.63208 0
M  V30 982 O 91.788 0.508112 -1.94885 0
M  V30 983 C 88.853 0.549091 -3.42324 0
M  V30 984 C 87.914 -0.347156 -4.27894 0
M  V30 985 C 87.147 0.43207 -5.31948 0
M  V30 986 O 87.37 1.66409 -5.45586 0
M  V30 987 O 86.304 -0.192298 -6.01593 0
M  V30 988 H 90.13 -1.09243 -2.83372 0
M  V30 989 H 87.715 -0.598198 -1.36901 0
M  V30 990 H 89.597 1.01414 -4.09015 0
M  V30 991 H 88.272 1.34955 -2.94226 0
M  V30 992 H 87.179 -0.859979 -3.64081 0
M  V30 993 H 88.512 -1.1123 -4.79467 0
M  V30 994 N 90.1641 1.46063 -0.591896 0
M  V30 995 C 91.4411 1.95595 -0.0137119 0
M  V30 996 C 91.8211 1.5345 1.4497 0
M  V30 997 O 91.1691 0.789543 2.14426 0
M  V30 998 C 91.3791 3.48453 -0.195373 0
M  V30 999 C 92.7271 4.24546 -0.0679765 0
M  V30 1000 O 93.7511 3.55982 -0.124681 0
M  V30 1001 O 92.6101 5.46467 0.0600579 0
M  V30 1002 H 89.7041 0.825795 0.0446279 0
M  V30 1003 H 92.2501 1.56303 -0.660859 0
M  V30 1004 H 91.0221 3.72045 -1.21235 0
M  V30 1005 H 90.6451 3.94597 0.487775 0
M  V30 1006 N 91.6422 0.330177 1.54103 0
M  V30 1007 C 92.8892 -0.270405 2.00686 0
M  V30 1008 C 93.2172 -1.51621 1.21825 0
M  V30 1009 O 92.4722 -1.93536 0.29025 0
M  V30 1010 C 92.7712 -0.643134 3.51566 0
M  V30 1011 C 92.4372 0.504251 4.48072 0
M  V30 1012 C 91.0992 0.819163 4.74176 0
M  V30 1013 C 93.4512 1.27465 5.05373 0
M  V30 1014 C 90.7792 1.90708 5.5484 0
M  V30 1015 C 93.1312 2.35271 5.87223 0
M  V30 1016 C 91.7952 2.67336 6.11627 0
M  V30 1017 H 91.0652 -0.0989482 0.734364 0
M  V30 1018 H 93.7122 0.455324 1.86008 0
M  V30 1019 H 92.0172 -1.44938 3.64006 0
M  V30 1020 H 93.7142 -1.11949 3.85056 0
M  V30 1021 H 90.3042 0.248733 4.27878 0
M  V30 1022 H 94.4882 1.04462 4.85182 0
M  V30 1023 H 89.7442 2.15991 5.71977 0
M  V30 1024 H 93.9182 2.95405 6.30641 0
M  V30 1025 H 91.5452 3.51763 6.73919 0
M  V30 1026 N 93.1203 -1.57491 0.0584922 0
M  V30 1027 C 94.3503 -1.9701 -0.622134 0
M  V30 1028 C 94.7583 -0.935034 -1.6448 0
M  V30 1029 O 94.1013 0.0882904 -1.83488 0
M  V30 1030 C 94.1633 -3.32794 -1.35972 0
M  V30 1031 C 93.8273 -4.54343 -0.492043 0
M  V30 1032 C 94.8243 -5.19323 0.244901 0
M  V30 1033 C 92.5093 -5.00534 -0.420821 0
M  V30 1034 C 94.5033 -6.28835 1.04143 0
M  V30 1035 C 92.1903 -6.09921 0.379389 0
M  V30 1036 C 93.1883 -6.73933 1.10919 0
M  V30 1037 O 92.8763 -7.81216 1.89623 0
M  V30 1038 H 92.6083 -0.653127 -0.174359 0
M  V30 1039 H 95.1623 -2.05029 0.123418 0
M  V30 1040 H 93.3923 -3.21351 -2.15105 0
M  V30 1041 H 95.0813 -3.5701 -1.93129 0
M  V30 1042 H 95.8473 -4.8459 0.19939 0
M  V30 1043 H 91.7263 -4.50496 -0.978474 0
M  V30 1044 H 95.2703 -6.7873 1.61157 0
M  V30 1045 H 91.1673 -6.44089 0.426512 0
M  V30 1046 H 91.9353 -7.98029 1.81913 0
M  V30 1047 N 94.5984 0.214957 -1.56127 0
M  V30 1048 C 95.8264 0.955092 -1.83536 0
M  V30 1049 C 96.2414 1.77677 -0.638472 0
M  V30 1050 O 95.5984 1.78219 0.392968 0
M  V30 1051 C 95.6494 1.86734 -3.09536 0
M  V30 1052 O 95.3704 1.07887 -4.24608 0
M  V30 1053 C 96.8714 2.72082 -3.4998 0
M  V30 1054 H 94.0914 0.279611 -0.609966 0
M  V30 1055 H 96.6354 0.228197 -2.03223 0
M  V30 1056 H 94.7904 2.5481 -2.91806 0
M  V30 1057 H 95.2044 1.69872 -4.9623 0
M  V30 1058 H 96.6784 3.31782 -4.41163 0
M  V30 1059 H 97.1554 3.44806 -2.7204 0
M  V30 1060 H 97.7614 2.09409 -3.70173 0
M  V30 1061 N 96.0765 1.50051 0.48192 0
M  V30 1062 C 97.4925 1.37237 0.814756 0
M  V30 1063 C 97.6925 0.420109 1.97072 0
M  V30 1064 O 96.7485 -0.141246 2.52105 0
M  V30 1065 C 98.0615 2.78375 1.13701 0
M  V30 1066 C 99.6095 2.87213 1.2441 0
M  V30 1067 C 100.084 4.29161 1.59954 0
M  V30 1068 N 101.575 4.32061 1.66967 0
M  V30 1069 C 102.31 5.38879 1.95952 0
M  V30 1070 N 101.806 6.55918 2.23031 0
M  V30 1071 N 103.599 5.26312 1.97363 0
M  V30 1072 H 95.7505 2.10546 -0.28005 0
M  V30 1073 H 98.0135 0.945921 -0.0627454 0
M  V30 1074 H 97.7195 3.49845 0.360787 0
M  V30 1075 H 97.5935 3.14941 2.07586 0
M  V30 1076 H 99.9805 2.15969 2.01101 0
M  V30 1077 H 100.061 2.54204 0.285299 0
M  V30 1078 H 99.7055 5.00938 0.838067 0
M  V30 1079 H 99.6355 4.59648 2.56966 0
M  V30 1080 H 102.126 3.47661 1.48123 0
M  V30 1081 H 102.439 7.33139 2.44391 0
M  V30 1082 H 100.784 6.59112 2.20447 0
M  V30 1083 H 103.975 4.33876 1.75697 0
M  V30 1084 H 104.148 6.09649 2.19618 0
M  V30 1085 N 97.5546 -0.734337 1.39446 0
M  V30 1086 C 98.4876 -1.85715 1.32609 0
M  V30 1087 C 99.4656 -1.6137 0.199636 0
M  V30 1088 O 100.65 -1.84626 0.380195 0
M  V30 1089 C 97.7766 -3.21709 1.05929 0
M  V30 1090 C 96.8226 -3.64913 2.20773 0
M  V30 1091 S 97.6556 -3.74203 3.83056 0
M  V30 1092 C 98.8116 -5.12986 3.58603 0
M  V30 1093 H 99.0446 -1.91232 2.27635 0
M  V30 1094 H 96.5776 -0.899263 1.25509 0
M  V30 1095 H 98.5356 -4.00236 0.912203 0
M  V30 1096 H 97.1966 -3.13848 0.125883 0
M  V30 1097 H 96.3896 -4.63606 1.97699 0
M  V30 1098 H 95.9916 -2.93593 2.31688 0
M  V30 1099 H 98.2836 -5.99339 3.15909 0
M  V30 1100 H 99.2266 -5.41088 4.5676 0
M  V30 1101 H 99.6346 -4.82694 2.9269 0
M  V30 1102 N 99.0327 -1.24633 -0.964593 0
M  V30 1103 C 99.9657 -0.984662 -2.05863 0
M  V30 1104 C 100.944 0.0826554 -1.6239 0
M  V30 1105 O 102.128 -0.0549296 -1.8842 0
M  V30 1106 C 99.2547 -0.486529 -3.35187 0
M  V30 1107 C 98.3007 -1.54286 -3.97615 0
M  V30 1108 S 99.1337 -3.12513 -4.34851 0
M  V30 1109 C 100.29 -2.6441 -5.67308 0
M  V30 1110 H 100.523 -1.91104 -2.27743 0
M  V30 1111 H 98.0557 -1.08052 -1.10291 0
M  V30 1112 H 100.014 -0.205757 -4.09984 0
M  V30 1113 H 98.6747 0.419186 -3.1129 0
M  V30 1114 H 97.8677 -1.14481 -4.90826 0
M  V30 1115 H 97.4697 -1.7738 -3.2926 0
M  V30 1116 H 99.7617 -2.07416 -6.44969 0
M  V30 1117 H 100.705 -3.56222 -6.11973 0
M  V30 1118 H 101.113 -2.04734 -5.26065 0
M  V30 1119 N 100.511 1.16574 -1.06058 0
M  V30 1120 C 101.461 2.18854 -0.63929 0
M  V30 1121 C 102.445 1.57505 0.328798 0
M  V30 1122 O 103.637 1.76408 0.144623 0
M  V30 1123 C 100.766 3.43291 -0.0247203 0
M  V30 1124 C 99.8518 4.11722 -1.01716 0
M  V30 1125 N 100.243 4.55841 -2.19186 0
M  V30 1126 C 98.5408 4.37872 -0.847569 0
M  V30 1127 C 99.2418 5.08751 -2.82042 0
M  V30 1128 N 98.2178 5.01489 -2.09784 0
M  V30 1129 H 102.02 2.5068 -1.53417 0
M  V30 1130 H 99.5338 1.32999 -0.931935 0
M  V30 1131 H 101.531 4.15856 0.294915 0
M  V30 1132 H 100.191 3.12954 0.865448 0
M  V30 1133 H 101.202 4.49649 -2.56975 0
M  V30 1134 H 97.8788 4.17499 -0.00918848 0
M  V30 1135 H 99.2688 5.52944 -3.81709 0
M  V30 1136 N 101.989 0.842826 1.3317 0
M  V30 1137 C 102.899 0.281444 2.32906 0
M  V30 1138 C 103.915 -0.594587 1.63526 0
M  V30 1139 O 105.091 -0.49777 1.95152 0
M  V30 1140 C 102.156 -0.530929 3.42611 0
M  V30 1141 C 101.217 0.369843 4.27704 0
M  V30 1142 C 100.45 -0.403853 5.3217 0
M  V30 1143 O 100.673 -1.63513 5.46461 0
M  V30 1144 O 99.6069 0.224199 6.01482 0
M  V30 1145 H 103.433 1.10744 2.82789 0
M  V30 1146 H 101.018 0.60545 1.36582 0
M  V30 1147 H 102.9 -0.992437 4.09547 0
M  V30 1148 H 101.575 -1.33392 2.94938 0
M  V30 1149 H 100.482 0.879275 3.6362 0
M  V30 1150 H 101.815 1.13771 4.78871 0
M  V30 1151 N 103.467 -1.45747 0.599634 0
M  V30 1152 C 104.707 -2.04181 0.0946309 0
M  V30 1153 C 105.071 -1.45895 -1.24815 0
M  V30 1154 O 106.272 -1.95633 -1.8434 0
M  V30 1155 C 104.543 -3.57368 0.047581 0
M  V30 1156 S 106.102 -4.36997 -0.397387 0
M  V30 1157 H 102.92 -0.70953 0.0456954 0
M  V30 1158 H 105.522 -1.78564 0.795946 0
M  V30 1159 H 104.226 -3.97303 1.02852 0
M  V30 1160 H 103.757 -3.87549 -0.675977 0
M  V30 1161 H 105.772 -4.68012 -1.64862 0
M  V30 1162 N 104.945 -0.338344 -1.53925 0
M  V30 1163 C 106.175 0.260919 -2.04946 0
M  V30 1164 C 106.583 1.45174 -1.2133 0
M  V30 1165 O 105.926 1.82122 -0.240262 0
M  V30 1166 C 105.988 0.744596 -3.51704 0
M  V30 1167 C 105.652 -0.325883 -4.55837 0
M  V30 1168 C 106.649 -1.16687 -5.06636 0
M  V30 1169 C 104.334 -0.478317 -5.00017 0
M  V30 1170 C 106.328 -2.14588 -6.00192 0
M  V30 1171 C 104.015 -1.46073 -5.93385 0
M  V30 1172 C 105.013 -2.29297 -6.4336 0
M  V30 1173 O 104.701 -3.25867 -7.34892 0
M  V30 1174 H 104.433 0.0551207 -0.673749 0
M  V30 1175 H 106.987 -0.486984 -1.99544 0
M  V30 1176 H 105.217 1.54366 -3.54553 0
M  V30 1177 H 106.906 1.26383 -3.85723 0
M  V30 1178 H 107.672 -1.06016 -4.73271 0
M  V30 1179 H 103.551 0.159613 -4.60724 0
M  V30 1180 H 107.095 -2.79585 -6.39123 0
M  V30 1181 H 102.992 -1.56802 -6.26166 0
M  V30 1182 H 103.76 -3.21278 -7.5281 0
M  V30 1183 N 106.423 1.57458 -0.0668435 0
M  V30 1184 C 107.355 2.09413 0.931601 0
M  V30 1185 C 108.368 1.02522 1.26464 0
M  V30 1186 O 109.557 1.30049 1.22269 0
M  V30 1187 C 106.657 2.53537 2.24882 0
M  V30 1188 C 105.83 3.83944 2.09537 0
M  V30 1189 C 104.889 4.14214 3.2452 0
M  V30 1190 O 103.915 4.83891 2.9973 0
M  V30 1191 N 105.117 3.67367 4.49469 0
M  V30 1192 H 107.882 2.95699 0.488048 0
M  V30 1193 H 105.443 1.61462 0.119009 0
M  V30 1194 H 107.435 2.70853 3.00701 0
M  V30 1195 H 106.005 1.72415 2.60753 0
M  V30 1196 H 105.225 3.76057 1.18215 0
M  V30 1197 H 106.513 4.69312 1.96529 0
M  V30 1198 H 105.911 3.11068 4.72497 0
M  V30 1199 H 104.468 3.89891 5.2233 0
M  V30 1200 N 107.901 -0.206675 1.56239 0
M  V30 1201 C 109.15 -0.926964 1.79138 0
M  V30 1202 C 109.463 -1.84901 0.638043 0
M  V30 1203 O 110.669 -2.60906 0.751033 0
M  V30 1204 C 109.125 -1.6986 3.17294 0
M  V30 1205 C 108.733 -0.821956 4.40395 0
M  V30 1206 C 110.477 -2.40922 3.4951 0
M  V30 1207 C 108.384 -1.59179 5.69575 0
M  V30 1208 H 107.314 -0.349864 0.667915 0
M  V30 1209 H 109.965 -0.180487 1.8261 0
M  V30 1210 H 108.347 -2.48853 3.08039 0
M  V30 1211 H 109.521 -0.0715019 4.60745 0
M  V30 1212 H 107.836 -0.222741 4.15804 0
M  V30 1213 H 110.433 -2.99047 4.43255 0
M  V30 1214 H 110.776 -3.14542 2.72707 0
M  V30 1215 H 111.309 -1.68905 3.60161 0
M  V30 1216 H 108.048 -0.898589 6.49312 0
M  V30 1217 H 107.568 -2.31648 5.53262 0
M  V30 1218 H 109.247 -2.14862 6.10281 0
M  V30 1219 N 109.379 -1.50304 -0.473955 0
M  V30 1220 C 110.625 -1.62358 -1.22521 0
M  V30 1221 C 110.98 -0.318555 -1.89745 0
M  V30 1222 O 110.273 0.683315 -1.79001 0
M  V30 1223 C 110.467 -2.73938 -2.29549 0
M  V30 1224 C 110.296 -4.15165 -1.72825 0
M  V30 1225 C 109.066 -4.81604 -1.52924 0
M  V30 1226 C 111.264 -4.99503 -1.22481 0
M  V30 1227 N 109.246 -6.07056 -0.91413 0
M  V30 1228 C 110.617 -6.15655 -0.732743 0
M  V30 1229 C 112.672 -4.85299 -1.11308 0
M  V30 1230 C 111.375 -7.19164 -0.139976 0
M  V30 1231 C 113.401 -5.88982 -0.534258 0
M  V30 1232 C 112.763 -7.0438 -0.0525562 0
M  V30 1233 H 108.862 -0.648286 -0.437321 0
M  V30 1234 H 111.446 -1.87413 -0.527692 0
M  V30 1235 H 109.617 -2.50611 -2.9673 0
M  V30 1236 H 111.349 -2.75366 -2.96573 0
M  V30 1237 H 108.104 -4.3885 -1.78067 0
M  V30 1238 H 108.528 -6.74108 -0.625071 0
M  V30 1239 H 113.17 -3.96369 -1.47144 0
M  V30 1240 H 110.888 -8.07771 0.230591 0
M  V30 1241 H 114.474 -5.80055 -0.450219 0
M  V30 1242 H 113.354 -7.83238 0.388324 0
M  V30 1243 N 110.857 0.726932 -1.39834 0
M  V30 1244 C 111.82 1.82269 -1.38962 0
M  V30 1245 C 112.82 1.58248 -0.285334 0
M  V30 1246 O 114.01 1.65499 -0.54366 0
M  V30 1247 C 111.142 3.20186 -1.17019 0
M  V30 1248 H 112.335 1.84443 -2.36476 0
M  V30 1249 H 109.888 0.931416 -1.25516 0
M  V30 1250 H 110.623 3.23669 -0.202204 0
M  V30 1251 H 110.408 3.3902 -1.96998 0
M  V30 1252 H 111.898 4.00235 -1.1917 0
M  V30 1253 N 112.336 1.25143 0.95797 0
M  V30 1254 C 113.268 1.01023 2.05735 0
M  V30 1255 C 114.281 -0.0236902 1.62783 0
M  V30 1256 O 115.47 0.21448 1.77207 0
M  V30 1257 C 112.57 0.504595 3.35122 0
M  V30 1258 C 111.743 1.6039 4.06932 0
M  V30 1259 C 110.802 1.09922 5.14591 0
M  V30 1260 O 109.828 1.79293 5.40225 0
M  V30 1261 N 111.03 -0.0612545 5.80468 0
M  V30 1262 H 113.795 1.95683 2.26998 0
M  V30 1263 H 111.356 1.16303 1.12629 0
M  V30 1264 H 113.348 0.151516 4.04416 0
M  V30 1265 H 111.918 -0.347989 3.10657 0
M  V30 1266 H 111.138 2.12872 3.31782 0
M  V30 1267 H 112.426 2.34252 4.51667 0
M  V30 1268 H 111.824 -0.640985 5.62057 0
M  V30 1269 H 110.381 -0.355395 6.5083 0
M  V30 1270 N 113.814 -1.1601 1.06675 0
M  V30 1271 C 114.744 -2.22688 0.702307 0
M  V30 1272 C 115.725 -1.67306 -0.307032 0
M  V30 1273 O 116.91 -1.93352 -0.181305 0
M  V30 1274 C 114.04 -3.47178 0.092038 0
M  V30 1275 C 112.994 -4.15477 1.02777 0
M  V30 1276 C 112.32 -5.33963 0.28061 0
M  V30 1277 C 113.62 -4.66019 2.35846 0
M  V30 1278 H 115.314 -2.53429 1.59419 0
M  V30 1279 H 112.86 -1.21813 0.767961 0
M  V30 1280 H 114.813 -4.21037 -0.174814 0
M  V30 1281 H 113.537 -3.15749 -0.834877 0
M  V30 1282 H 112.196 -3.43549 1.27944 0
M  V30 1283 H 111.844 -4.98788 -0.649545 0
M  V30 1284 H 111.544 -5.806 0.904258 0
M  V30 1285 H 113.068 -6.10596 0.021396 0
M  V30 1286 H 114.482 -5.3144 2.15045 0
M  V30 1287 H 112.879 -5.23293 2.93743 0
M  V30 1288 H 113.949 -3.82023 2.98641 0
M  V30 1289 N 115.292 -0.849877 -1.32721 0
M  V30 1290 C 116.202 -0.293791 -2.32753 0
M  V30 1291 C 117.218 0.585906 -1.63839 0
M  V30 1292 O 118.394 0.487413 -1.95413 0
M  V30 1293 C 115.459 0.512752 -3.42887 0
M  V30 1294 C 114.52 -0.39252 -4.27502 0
M  V30 1295 C 113.753 0.375625 -5.32377 0
M  V30 1296 O 113.976 1.60613 -5.4732 0
M  V30 1297 O 112.91 -0.256094 -6.01355 0
M  V30 1298 H 116.736 -1.12242 -2.82197 0
M  V30 1299 H 114.321 -0.612685 -1.36259 0
M  V30 1300 H 116.203 0.970704 -4.10067 0
M  V30 1301 H 114.878 1.31826 -2.95641 0
M  V30 1302 H 113.785 -0.898547 -3.63149 0
M  V30 1303 H 115.118 -1.16309 -4.7826 0
M  V30 1304 N 116.77 1.45427 -0.607355 0
M  V30 1305 C 117.72 2.27612 0.133038 0
M  V30 1306 C 118.704 1.37307 0.838785 0
M  V30 1307 O 119.896 1.61299 0.728813 0
M  V30 1308 C 117.025 3.24173 1.12991 0
M  V30 1309 C 116.111 4.21965 0.425011 0
M  V30 1310 N 116.502 5.02982 -0.533217 0
M  V30 1311 C 114.8 4.40899 0.672593 0
M  V30 1312 C 115.501 5.73931 -0.947518 0
M  V30 1313 N 114.477 5.42819 -0.291321 0
M  V30 1314 H 118.279 2.87649 -0.602935 0
M  V30 1315 H 115.793 1.56576 -0.431006 0
M  V30 1316 H 117.79 3.81783 1.67473 0
M  V30 1317 H 116.45 2.65696 1.86644 0
M  V30 1318 H 117.461 5.09843 -0.90995 0
M  V30 1319 H 114.138 3.93547 1.39382 0
M  V30 1320 H 115.528 6.49037 -1.73782 0
M  V30 1321 N 118.248 0.346503 1.53744 0
M  V30 1322 C 119.158 -0.517293 2.28826 0
M  V30 1323 C 120.174 -1.10935 1.3405 0
M  V30 1324 O 121.35 -1.1244 1.6709 0
M  V30 1325 C 118.415 -1.65098 3.04866 0
M  V30 1326 C 117.476 -1.0884 4.15274 0
M  V30 1327 C 116.709 -2.16806 4.87679 0
M  V30 1328 O 116.932 -3.3758 4.59778 0
M  V30 1329 O 115.866 -1.80934 5.74061 0
M  V30 1330 H 119.692 0.0931396 3.03557 0
M  V30 1331 H 117.277 0.111458 1.48984 0
M  V30 1332 H 119.159 -2.31053 3.5241 0
M  V30 1333 H 117.834 -2.24717 2.32989 0
M  V30 1334 H 116.741 -0.3933 3.72027 0
M  V30 1335 H 118.074 -0.537036 4.89261 0
M  V30 1336 N 119.726 -1.57421 0.075193 0
M  V30 1337 C 120.689 -2.11791 -0.876203 0
M  V30 1338 C 121.689 -1.04268 -1.22412 0
M  V30 1339 O 122.879 -1.30242 -1.15684 0
M  V30 1340 C 120.011 -2.62207 -2.17854 0
M  V30 1341 H 121.204 -2.9716 -0.40444 0
M  V30 1342 H 118.757 -1.55333 -0.173557 0
M  V30 1343 H 119.492 -1.803 -2.6956 0
M  V30 1344 H 119.277 -3.40802 -1.93897 0
M  V30 1345 H 120.767 -3.04335 -2.85955 0
M  V30 1346 N 121.204 0.198386 -1.56346 0
M  V30 1347 C 122.452 0.91747 -1.80075 0
M  V30 1348 C 122.773 1.83929 -0.647692 0
M  V30 1349 O 122.043 1.93029 0.334166 0
M  V30 1350 H 120.623 0.341774 -0.664228 0
M  V30 1351 H 123.285 0.204684 -1.93822 0
M  V30 1352 H 122.381 1.51055 -2.7311 0
M  V30 1353 N 122.682 1.50554 0.465978 0
M  V30 1354 C 123.91 1.65563 1.24083 0
M  V30 1355 C 124.325 0.341051 1.85694 0
M  V30 1356 O 123.682 -0.677543 1.69457 0
M  V30 1357 C 123.733 2.75051 2.34583 0
M  V30 1358 O 123.454 4.01413 1.75497 0
M  V30 1359 C 124.955 3.01078 3.25372 0
M  V30 1360 H 122.175 0.55638 0.375077 0
M  V30 1361 H 124.719 1.96807 0.555624 0
M  V30 1362 H 122.874 2.46486 2.9887 0
M  V30 1363 H 123.288 4.62002 2.48303 0
M  V30 1364 H 124.762 3.81339 3.99105 0
M  V30 1365 H 125.239 2.12349 3.84453 0
M  V30 1366 H 125.845 3.31194 2.66816 0
M  V30 1367 N 124.16 -0.719506 1.40217 0
M  V30 1368 C 125.092 -1.84428 1.36084 0
M  V30 1369 C 126.105 -1.60597 0.266913 0
M  V30 1370 O 127.294 -1.70544 0.526983 0
M  V30 1371 C 124.394 -3.20757 1.094 0
M  V30 1372 C 123.567 -3.71817 2.30372 0
M  V30 1373 C 122.626 -4.86748 1.99907 0
M  V30 1374 O 121.652 -4.99603 2.72737 0
M  V30 1375 N 122.854 -5.7226 0.974635 0
M  V30 1376 H 125.619 -1.88473 2.33019 0
M  V30 1377 H 123.18 -0.900885 1.3452 0
M  V30 1378 H 125.172 -3.95235 0.870116 0
M  V30 1379 H 123.742 -3.11884 0.211452 0
M  V30 1380 H 122.962 -2.88514 2.68614 0
M  V30 1381 H 124.25 -4.02666 3.11026 0
M  V30 1382 H 123.648 -5.6448 0.371368 0
M  V30 1383 H 122.205 -6.46739 0.810656 0
M  V30 1384 N 125.638 -1.25649 -0.95132 0
M  V30 1385 C 126.568 -1.08808 -2.06599 0
M  V30 1386 C 127.549 0.00382547 -1.701 0
M  V30 1387 O 128.734 -0.166325 -1.93486 0
M  V30 1388 C 125.864 -0.709542 -3.39975 0
M  V30 1389 C 124.818 -1.75206 -3.90496 0
M  V30 1390 C 124.144 -1.22811 -5.20405 0
M  V30 1391 C 125.444 -3.15153 -4.16504 0
M  V30 1392 H 127.138 -2.02048 -2.20946 0
M  V30 1393 H 124.684 -0.972835 -1.06169 0
M  V30 1394 H 126.637 -0.578649 -4.17408 0
M  V30 1395 H 125.361 0.258556 -3.25575 0
M  V30 1396 H 124.02 -1.87145 -3.15234 0
M  V30 1397 H 123.668 -0.250145 -5.02378 0
M  V30 1398 H 123.368 -1.92492 -5.55176 0
M  V30 1399 H 124.892 -1.10968 -6.00432 0
M  V30 1400 H 126.306 -3.06349 -4.84586 0
M  V30 1401 H 124.703 -3.82333 -4.62538 0
M  V30 1402 H 125.773 -3.61966 -3.22658 0
M  V30 1403 N 127.117 1.15442 -1.07289 0
M  V30 1404 C 128.067 2.18164 -0.662467 0
M  V30 1405 C 129.051 1.57845 0.312074 0
M  V30 1406 O 130.243 1.76552 0.125905 0
M  V30 1407 C 127.372 3.43246 -0.0611295 0
M  V30 1408 C 126.458 4.1062 -1.06077 0
M  V30 1409 N 126.849 4.53491 -2.24008 0
M  V30 1410 C 125.147 4.36949 -0.893964 0
M  V30 1411 C 125.848 5.05731 -2.87422 0
M  V30 1412 N 124.824 4.99236 -2.15091 0
M  V30 1413 H 128.626 2.49038 -1.56068 0
M  V30 1414 H 126.14 1.32003 -0.945988 0
M  V30 1415 H 128.137 4.16145 0.250792 0
M  V30 1416 H 126.797 3.13854 0.832207 0
M  V30 1417 H 127.808 4.46898 -2.6173 0
M  V30 1418 H 124.485 4.17466 -0.0534693 0
M  V30 1419 H 125.875 5.48865 -3.87553 0
M  V30 1420 N 128.595 0.856903 1.32268 0
M  V30 1421 C 130.011 0.547061 1.49931 0
M  V30 1422 C 130.211 -0.921781 1.7918 0
M  V30 1423 O 129.267 -1.70469 1.8627 0
M  V30 1424 C 130.58 1.43599 2.64196 0
M  V30 1425 C 132.128 1.43665 2.78081 0
M  V30 1426 C 132.603 2.31085 3.95428 0
M  V30 1427 N 134.094 2.28893 4.02694 0
M  V30 1428 C 134.829 2.93262 4.92732 0
M  V30 1429 N 134.325 3.66751 5.87763 0
M  V30 1430 N 136.118 2.82638 4.85873 0
M  V30 1431 H 128.269 1.8075 1.11549 0
M  V30 1432 H 130.532 0.772144 0.549997 0
M  V30 1433 H 130.238 2.48058 2.49319 0
M  V30 1434 H 130.112 1.12502 3.60032 0
M  V30 1435 H 132.499 0.399701 2.92381 0
M  V30 1436 H 132.58 1.7878 1.82952 0
M  V30 1437 H 132.224 3.34849 3.81888 0
M  V30 1438 H 132.154 1.93302 4.89839 0
M  V30 1439 H 134.645 1.75466 3.34694 0
M  V30 1440 H 134.958 4.13027 6.53168 0
M  V30 1441 H 133.303 3.70859 5.87783 0
M  V30 1442 H 136.494 2.24774 4.10602 0
M  V30 1443 H 136.667 3.33084 5.55841 0
M  V30 1444 N 130.073 -1.45103 0.615059 0
M  V30 1445 C 131.005 -2.28786 -0.13762 0
M  V30 1446 C 132.018 -1.40376 -0.824525 0
M  V30 1447 O 133.207 -1.64681 -0.688662 0
M  V30 1448 C 130.307 -3.16322 -1.21628 0
M  V30 1449 C 129.48 -4.33054 -0.615039 0
M  V30 1450 C 128.539 -5.01743 -1.58556 0
M  V30 1451 O 127.565 -5.58293 -1.10895 0
M  V30 1452 N 128.767 -5.01714 -2.91998 0
M  V30 1453 H 131.532 -2.94025 0.580483 0
M  V30 1454 H 129.093 -1.55373 0.45507 0
M  V30 1455 H 131.085 -3.59139 -1.86552 0
M  V30 1456 H 129.655 -2.52943 -1.83681 0
M  V30 1457 H 128.875 -3.93627 0.21245 0
M  V30 1458 H 130.163 -5.08431 -0.193704 0
M  V30 1459 H 129.561 -4.57075 -3.33316 0
M  V30 1460 H 128.118 -5.48371 -3.52325 0
M  V30 1461 N 131.551 -0.354651 -1.53558 0
M  V30 1462 C 132.779 0.239515 -2.05509 0
M  V30 1463 C 133.194 1.4333 -1.2289 0
M  V30 1464 O 132.551 1.80538 -0.266899 0
M  V30 1465 C 132.602 0.643719 -3.55723 0
M  V30 1466 O 132.323 -0.502602 -4.35207 0
M  V30 1467 C 133.824 1.29743 -4.23889 0
M  V30 1468 H 131.044 0.0442697 -0.669538 0
M  V30 1469 H 133.588 -0.509856 -1.98042 0
M  V30 1470 H 131.743 1.34302 -3.63376 0
M  V30 1471 H 132.157 -0.178172 -5.24197 0
M  V30 1472 H 133.631 1.53091 -5.30346 0
M  V30 1473 H 134.108 2.25441 -3.76926 0
M  V30 1474 H 134.714 0.639865 -4.20459 0
M  V30 1475 N 133.029 1.57378 -0.0835403 0
M  V30 1476 C 134.277 1.93547 0.581718 0
M  V30 1477 C 134.598 0.96524 1.69435 0
M  V30 1478 O 133.868 0.0153369 1.95894 0
M  V30 1479 H 132.448 0.714521 0.217874 0
M  V30 1480 H 135.11 1.94366 -0.144158 0
M  V30 1481 H 134.206 2.95665 0.999423 0
M  V30 1482 N 134.507 -0.190092 1.56449 0
M  V30 1483 C 135.437 -1.23816 1.97969 0
M  V30 1484 C 136.418 -1.47201 0.852395 0
M  V30 1485 O 137.603 -1.58854 1.1171 0
M  V30 1486 C 134.733 -2.5813 2.3235 0
M  V30 1487 C 133.687 -2.49348 3.47864 0
M  V30 1488 C 133.013 -3.8798 3.67934 0
M  V30 1489 C 134.313 -2.01424 4.81898 0
M  V30 1490 H 136.007 -0.89311 2.85769 0
M  V30 1491 H 133.553 -0.428177 1.37487 0
M  V30 1492 H 135.506 -3.31637 2.59991 0
M  V30 1493 H 134.23 -2.94386 1.41438 0
M  V30 1494 H 132.889 -1.78297 3.20321 0
M  V30 1495 H 132.537 -4.21597 2.74344 0
M  V30 1496 H 132.237 -3.82978 4.45648 0
M  V30 1497 H 133.761 -4.63101 3.97957 0
M  V30 1498 H 135.175 -2.64693 5.08538 0
M  V30 1499 H 133.572 -2.07413 5.63116 0
M  V30 1500 H 134.642 -0.967677 4.75146 0
M  V30 1501 N 135.985 -1.50799 -0.457987 0
M  V30 1502 C 136.915 -1.73553 -1.5621 0
M  V30 1503 C 137.896 -0.584774 -1.59732 0
M  V30 1504 O 139.081 -0.825314 -1.7579 0
M  V30 1505 C 136.211 -1.84169 -2.94447 0
M  V30 1506 C 135.165 -2.99461 -3.0579 0
M  V30 1507 C 134.491 -2.95235 -4.45803 0
M  V30 1508 C 135.791 -4.39766 -2.81786 0
M  V30 1509 H 137.485 -2.66 -1.37421 0
M  V30 1510 H 135.031 -1.28002 -0.659662 0
M  V30 1511 H 136.984 -1.98672 -3.71628 0
M  V30 1512 H 135.708 -0.883545 -3.14422 0
M  V30 1513 H 134.367 -2.8463 -2.31044 0
M  V30 1514 H 134.015 -1.97239 -4.62715 0
M  V30 1515 H 133.715 -3.72642 -4.54326 0
M  V30 1516 H 135.239 -3.11803 -5.24987 0
M  V30 1517 H 136.653 -4.55054 -3.4871 0
M  V30 1518 H 135.05 -5.18722 -3.0174 0
M  V30 1519 H 136.12 -4.51229 -1.7754 0
M  V30 1520 N 137.463 0.71206 -1.40597 0
M  V30 1521 C 138.393 1.83889 -1.43899 0
M  V30 1522 C 139.374 1.67442 -0.299504 0
M  V30 1523 O 140.559 1.87421 -0.508624 0
M  V30 1524 C 137.689 3.21877 -1.30431 0
M  V30 1525 C 136.643 3.53002 -2.42019 0
M  V30 1526 C 135.969 4.90172 -2.13626 0
M  V30 1527 C 137.269 3.53643 -3.84362 0
M  V30 1528 H 138.963 1.81383 -2.38203 0
M  V30 1529 H 136.509 0.871237 -1.14654 0
M  V30 1530 H 138.462 4.00404 -1.31357 0
M  V30 1531 H 137.186 3.24968 -0.326049 0
M  V30 1532 H 135.845 2.76818 -2.40349 0
M  V30 1533 H 135.493 4.89869 -1.14182 0
M  V30 1534 H 135.193 5.11962 -2.88389 0
M  V30 1535 H 136.717 5.71028 -2.1624 0
M  V30 1536 H 138.131 4.22203 -3.87837 0
M  V30 1537 H 136.528 3.86961 -4.58673 0
M  V30 1538 H 137.598 2.52954 -4.13693 0
M  V30 1539 N 138.941 1.26152 0.944643 0
M  V30 1540 C 139.871 1.09902 2.06019 0
M  V30 1541 C 140.852 0.00519538 1.70099 0
M  V30 1542 O 142.037 0.176583 1.93396 0
M  V30 1543 C 139.167 0.727562 3.39594 0
M  V30 1544 C 138.121 1.77274 3.89561 0
M  V30 1545 C 137.447 1.25569 5.19747 0
M  V30 1546 C 138.747 3.17357 4.14827 0
M  V30 1547 H 140.441 2.03217 2.19871 0
M  V30 1548 H 137.987 0.978452 1.05652 0
M  V30 1549 H 139.94 0.600777 4.17095 0
M  V30 1550 H 138.664 -0.241287 3.25707 0
M  V30 1551 H 137.323 1.88814 3.14237 0
M  V30 1552 H 136.971 0.276783 5.02238 0
M  V30 1553 H 136.671 1.95433 5.54148 0
M  V30 1554 H 138.195 1.1415 5.99835 0
M  V30 1555 H 139.609 3.08914 4.82954 0
M  V30 1556 H 138.006 3.84781 4.60504 0
M  V30 1557 H 139.076 3.63673 3.20734 0
M  V30 1558 N 140.419 -1.14872 1.07899 0
M  V30 1559 C 141.667 -1.85422 0.803941 0
M  V30 1560 C 141.988 -1.83051 -0.67211 0
M  V30 1561 O 141.258 -1.27532 -1.48703 0
M  V30 1562 H 139.838 -0.686537 0.294408 0
M  V30 1563 H 142.5 -1.39226 1.3639 0
M  V30 1564 H 141.596 -2.90399 1.14346 0
M  V30 1565 N 141.898 -0.863906 -1.31812 0
M  V30 1566 C 142.831 -0.259963 -2.26714 0
M  V30 1567 C 143.809 0.607392 -1.50829 0
M  V30 1568 O 144.993 0.562155 -1.79922 0
M  V30 1569 C 142.12 0.632456 -3.32743 0
M  V30 1570 C 141.166 -0.162743 -4.26189 0
M  V30 1571 S 141.999 -1.53726 -5.12961 0
M  V30 1572 C 143.155 -0.650803 -6.22507 0
M  V30 1573 H 143.388 -1.06445 -2.77591 0
M  V30 1574 H 140.921 -0.662071 -1.39485 0
M  V30 1575 H 142.879 1.14167 -3.94305 0
M  V30 1576 H 141.54 1.41083 -2.80632 0
M  V30 1577 H 140.733 0.517366 -5.01338 0
M  V30 1578 H 140.335 -0.60385 -3.69093 0
M  V30 1579 H 142.627 0.141134 -6.77353 0
M  V30 1580 H 143.57 -1.37322 -6.94657 0
M  V30 1581 H 143.978 -0.221041 -5.64067 0
M  V30 1582 N 143.376 1.44774 -0.622745 0
M  V30 1583 C 144.323 2.30635 0.0871679 0
M  V30 1584 C 145.293 1.42994 0.845097 0
M  V30 1585 O 146.478 1.71907 0.827812 0
M  V30 1586 C 143.618 3.28144 1.06844 0
M  V30 1587 C 142.731 4.30888 0.309809 0
M  V30 1588 C 141.866 5.15494 1.28215 0
M  V30 1589 C 140.905 6.09953 0.512198 0
M  V30 1590 N 140.042 6.87287 1.43458 0
M  V30 1591 H 144.882 2.90803 -0.650974 0
M  V30 1592 H 142.419 1.43286 -0.33281 0
M  V30 1593 H 144.377 3.83157 1.65066 0
M  V30 1594 H 143.007 2.69695 1.77382 0
M  V30 1595 H 142.059 3.78414 -0.388181 0
M  V30 1596 H 143.371 4.97955 -0.290254 0
M  V30 1597 H 142.525 5.74983 1.93596 0
M  V30 1598 H 141.264 4.48481 1.91614 0
M  V30 1599 H 140.269 5.49581 -0.155151 0
M  V30 1600 H 141.494 6.78999 -0.116958 0
M  V30 1601 H 139.44 6.2295 2.05594 0
M  V30 1602 H 139.357 7.50763 0.888335 0
M  V30 1603 H 140.625 7.51306 2.07749 0
M  V30 1604 N 144.854 0.36279 1.53368 0
M  V30 1605 C 145.764 -0.492994 2.29362 0
M  V30 1606 C 146.78 -1.09507 1.35219 0
M  V30 1607 O 147.956 -1.10662 1.68273 0
M  V30 1608 C 145.021 -1.61855 3.066 0
M  V30 1609 C 144.082 -1.04429 4.16405 0
M  V30 1610 C 143.315 -2.11621 4.89951 0
M  V30 1611 O 143.538 -3.32684 4.63333 0
M  V30 1612 O 142.472 -1.74835 5.75948 0
M  V30 1613 H 146.298 0.125331 3.03441 0
M  V30 1614 H 143.883 0.127253 1.48857 0
M  V30 1615 H 145.765 -2.27302 3.54841 0
M  V30 1616 H 144.44 -2.22233 2.3536 0
M  V30 1617 H 143.347 -0.353819 3.72423 0
M  V30 1618 H 144.68 -0.485113 4.89804 0
M  V30 1619 N 146.332 -1.57332 0.0918853 0
M  V30 1620 C 147.28 -2.15075 -0.885747 0
M  V30 1621 C 148.274 -1.09277 -1.29441 0
M  V30 1622 O 149.48 -1.27627 -1.26931 0
M  V30 1623 H 145.855 -0.687966 -0.303656 0
M  V30 1624 H 147.826 -2.96047 -0.373995 0
M  V30 1625 C 146.575 -2.74325 -2.13638 0
M  V30 1626 H 145.898 -3.55418 -1.8308 0
M  V30 1627 H 147.338 -3.183 -2.80109 0
M  V30 1628 C 145.797 -1.70062 -2.90827 0
M  V30 1629 O 146.327 -1.13763 -3.85254 0
M  V30 1630 N 144.533 -1.40628 -2.54307 0
M  V30 1631 H 144.08 -1.866 -1.7759 0
M  V30 1632 H 144.038 -0.711043 -3.06254 0
M  V30 1633 N 147.81 0.181792 -1.56548 0
M  V30 1634 C 148.742 1.24956 -1.92142 0
M  V30 1635 C 149.755 1.41022 -0.813422 0
M  V30 1636 O 150.944 1.41212 -1.09186 0
M  V30 1637 C 148.044 2.61981 -2.14987 0
M  V30 1638 C 147.217 2.6735 -3.46183 0
M  V30 1639 C 146.276 3.85664 -3.5798 0
M  V30 1640 O 145.302 3.72148 -4.30691 0
M  V30 1641 N 146.504 5.01683 -2.92053 0
M  V30 1642 H 149.269 0.947329 -2.84334 0
M  V30 1643 H 146.83 0.371629 -1.57577 0
M  V30 1644 H 148.822 3.3958 -2.20154 0
M  V30 1645 H 147.392 2.84637 -1.2923 0
M  V30 1646 H 146.612 1.75925 -3.52766 0
M  V30 1647 H 147.9 2.67939 -4.32534 0
M  V30 1648 H 147.298 5.15564 -2.32832 0
M  V30 1649 H 145.855 5.77181 -3.0283 0
M  V30 1650 N 149.288 1.51039 0.449983 0
M  V30 1651 C 150.198 1.74261 1.57067 0
M  V30 1652 C 151.214 0.626363 1.62335 0
M  V30 1653 O 152.39 0.907162 1.79812 0
M  V30 1654 C 149.455 1.85114 2.93144 0
M  V30 1655 C 148.516 3.0893 2.98095 0
M  V30 1656 C 147.749 3.19256 4.27681 0
M  V30 1657 O 147.972 2.35835 5.19363 0
M  V30 1658 O 146.906 4.12144 4.38658 0
M  V30 1659 H 150.732 2.69303 1.40391 0
M  V30 1660 H 148.317 1.35389 0.631688 0
M  V30 1661 H 150.199 1.94311 3.73926 0
M  V30 1662 H 148.874 0.932588 3.09975 0
M  V30 1663 H 147.781 3.0522 2.16314 0
M  V30 1664 H 149.114 4.00433 2.86206 0
M  V30 1665 N 150.766 -0.704594 1.40972 0
M  V30 1666 C 151.696 -1.83124 1.44872 0
M  V30 1667 C 152.677 -1.67281 0.30838 0
M  V30 1668 O 153.862 -1.87149 0.518556 0
M  V30 1669 C 150.992 -3.21181 1.32136 0
M  V30 1670 C 149.946 -3.51714 2.43888 0
M  V30 1671 C 149.272 -4.89032 2.16222 0
M  V30 1672 C 150.572 -3.516 3.86232 0
M  V30 1673 H 152.266 -1.80117 2.39161 0
M  V30 1674 H 149.812 -0.865145 1.15114 0
M  V30 1675 H 151.765 -3.99702 1.33479 0
M  V30 1676 H 150.489 -3.24791 0.343279 0
M  V30 1677 H 149.148 -2.75539 2.41813 0
M  V30 1678 H 148.796 -4.89256 1.16778 0
M  V30 1679 H 148.496 -5.10426 2.911 0
M  V30 1680 H 150.02 -5.69873 2.19265 0
M  V30 1681 H 151.434 -4.2014 3.9007 0
M  V30 1682 H 149.831 -3.84523 4.60719 0
M  V30 1683 H 150.901 -2.50757 4.15029 0
M  V30 1684 N 152.244 -1.26651 -0.937939 0
M  V30 1685 C 153.191 -1.0849 -2.03712 0
M  V30 1686 C 154.161 0.011033 -1.66096 0
M  V30 1687 O 155.346 -0.149353 -1.90215 0
M  V30 1688 C 152.486 -0.72735 -3.37348 0
M  V30 1689 C 151.599 -1.89986 -3.87981 0
M  V30 1690 C 150.734 -1.48513 -5.10017 0
M  V30 1691 C 149.773 -2.62575 -5.5292 0
M  V30 1692 N 148.91 -2.21762 -6.66158 0
M  V30 1693 H 153.75 -2.02551 -2.18579 0
M  V30 1694 H 151.287 -1.00844 -1.07093 0
M  V30 1695 H 153.245 -0.50092 -4.14182 0
M  V30 1696 H 151.875 0.176298 -3.22318 0
M  V30 1697 H 150.927 -2.23913 -3.07518 0
M  V30 1698 H 152.239 -2.75586 -4.15757 0
M  V30 1699 H 151.393 -1.21934 -5.94321 0
M  V30 1700 H 150.132 -0.60009 -4.83994 0
M  V30 1701 H 149.137 -2.8988 -4.67172 0
M  V30 1702 H 150.362 -3.51685 -5.80943 0
M  V30 1703 H 148.308 -1.35696 -6.41812 0
M  V30 1704 H 148.225 -3.00903 -6.93537 0
M  V30 1705 H 149.493 -1.98403 -7.53828 0
M  V30 1706 N 153.722 1.14298 -1.08507 0
M  V30 1707 C 154.95 1.89219 -0.836876 0
M  V30 1708 C 155.365 1.78638 0.611054 0
M  V30 1709 O 154.722 1.14643 1.41998 0
M  V30 1710 C 154.773 3.39158 -1.25116 0
M  V30 1711 O 154.494 3.49449 -2.64229 0
M  V30 1712 C 155.995 4.31073 -1.03398 0
M  V30 1713 H 153.215 0.599328 -0.301739 0
M  V30 1714 H 155.759 1.44746 -1.44461 0
M  V30 1715 H 153.914 3.81251 -0.687514 0
M  V30 1716 H 154.328 4.42589 -2.81452 0
M  V30 1717 H 155.802 5.34646 -1.37323 0
M  V30 1718 H 156.279 4.3919 0.0289259 0
M  V30 1719 H 156.885 3.94738 -1.58311 0
M  V30 1720 N 155.201 0.870884 1.31352 0
M  V30 1721 C 156.45 0.478408 1.95944 0
M  V30 1722 C 156.763 -0.974493 1.69597 0
M  V30 1723 O 157.969 -1.47316 2.28058 0
M  V30 1724 C 156.425 0.804609 3.50791 0
M  V30 1725 C 156.033 2.27433 3.85977 0
M  V30 1726 C 157.777 0.480648 4.2177 0
M  V30 1727 C 155.684 2.5429 5.33939 0
M  V30 1728 H 154.614 0.175175 0.733369 0
M  V30 1729 H 157.265 1.06391 1.4951 0
M  V30 1730 H 155.647 0.148347 3.95722 0
M  V30 1731 H 156.821 2.97373 3.52002 0
M  V30 1732 H 155.136 2.56442 3.28065 0
M  V30 1733 H 157.733 0.658519 5.30629 0
M  V30 1734 H 158.076 -0.578979 4.12254 0
M  V30 1735 H 158.609 1.09349 3.82476 0
M  V30 1736 H 155.348 3.58939 5.48491 0
M  V30 1737 H 154.868 1.88945 5.69263 0
M  V30 1738 H 156.547 2.39066 6.01212 0
M  V30 1739 N 156.679 -1.44442 0.630414 0
M  V30 1740 C 157.611 -2.2892 -0.113347 0
M  V30 1741 C 158.624 -1.41243 -0.80959 0
M  V30 1742 O 159.813 -1.65402 -0.671156 0
M  V30 1743 C 156.913 -3.17594 -1.18266 0
M  V30 1744 C 156.086 -4.33682 -0.569073 0
M  V30 1745 C 155.145 -5.03397 -1.53226 0
M  V30 1746 O 154.171 -5.59438 -1.04967 0
M  V30 1747 N 155.373 -5.04783 -2.86661 0
M  V30 1748 H 158.138 -2.93392 0.611636 0
M  V30 1749 H 155.699 -1.54881 0.471523 0
M  V30 1750 H 157.691 -3.61097 -1.82732 0
M  V30 1751 H 156.261 -2.54876 -1.80988 0
M  V30 1752 H 155.481 -3.9338 0.254187 0
M  V30 1753 H 156.769 -5.08608 -0.139767 0
M  V30 1754 H 156.167 -4.60584 -3.28449 0
M  V30 1755 H 154.724 -5.52077 -3.46489 0
M  V30 1756 N 158.157 -0.370918 -1.53173 0
M  V30 1757 C 159.12 0.460778 -2.24521 0
M  V30 1758 C 160.12 1.00536 -1.25496 0
M  V30 1759 O 161.31 0.890266 -1.49733 0
M  V30 1760 C 158.442 1.64457 -2.98608 0
M  V30 1761 H 159.635 -0.163613 -2.99453 0
M  V30 1762 H 157.188 -0.122699 -1.55818 0
M  V30 1763 H 157.923 2.30691 -2.2793 0
M  V30 1764 H 157.708 1.26099 -3.7127 0
M  V30 1765 H 159.198 2.23384 -3.5283 0
M  V30 1766 N 159.635 1.57281 -0.100228 0
M  V30 1767 C 160.583 2.15542 0.874328 0
M  V30 1768 C 161.577 1.09962 1.28859 0
M  V30 1769 O 162.783 1.28298 1.26252 0
M  V30 1770 H 159.158 0.689567 0.300003 0
M  V30 1771 H 161.129 2.96241 0.35829 0
M  V30 1772 C 159.878 2.75454 2.1218 0
M  V30 1773 H 159.201 3.56384 1.81193 0
M  V30 1774 H 160.641 3.19781 2.78417 0
M  V30 1775 C 159.1 1.71602 2.89921 0
M  V30 1776 O 159.63 1.15804 3.84646 0
M  V30 1777 N 157.836 1.41975 2.53558 0
M  V30 1778 H 157.383 1.87539 1.76598 0
M  V30 1779 H 157.341 0.727274 3.05873 0
M  V30 1780 N 161.113 -0.173488 1.56642 0
M  V30 1781 C 162.043 -1.2171 1.99271 0
M  V30 1782 C 163.024 -1.46289 0.867959 0
M  V30 1783 O 164.209 -1.5766 1.13388 0
M  V30 1784 C 161.339 -2.55651 2.35074 0
M  V30 1785 C 160.293 -2.45645 3.50489 0
M  V30 1786 C 159.619 -3.84056 3.72028 0
M  V30 1787 C 160.919 -1.96302 4.84007 0
M  V30 1788 H 162.613 -0.86275 2.867 0
M  V30 1789 H 160.159 -0.413571 1.37933 0
M  V30 1790 H 162.112 -3.2886 2.63494 0
M  V30 1791 H 160.836 -2.92869 1.44552 0
M  V30 1792 H 159.495 -1.7489 3.22194 0
M  V30 1793 H 159.143 -4.18664 2.788 0
M  V30 1794 H 158.843 -3.7823 4.49684 0
M  V30 1795 H 160.367 -4.58854 4.02846 0
M  V30 1796 H 161.781 -2.59284 5.11317 0
M  V30 1797 H 160.178 -2.01429 5.65284 0
M  V30 1798 H 161.248 -0.917226 4.76146 0
M  V30 1799 N 162.591 -1.51276 -0.441967 0
M  V30 1800 C 163.816 -1.67799 -1.21895 0
M  V30 1801 C 164.241 -0.372864 -1.84367 0
M  V30 1802 O 163.599 0.666501 -1.68604 0
M  V30 1803 C 163.647 -2.79199 -2.28211 0
M  V30 1804 O 162.751 -2.42479 -3.33583 0
M  V30 1805 H 162.092 -0.559649 -0.357336 0
M  V30 1806 H 164.622 -1.97815 -0.522522 0
M  V30 1807 H 164.632 -3.03146 -2.73069 0
M  V30 1808 H 163.307 -3.73906 -1.82118 0
M  V30 1809 H 161.884 -2.29087 -2.94234 0
M  V30 1810 N 164.069 0.697108 -1.41344 0
M  V30 1811 C 165.485 1.00751 -1.2378 0
M  V30 1812 C 165.685 2.01105 -0.126066 0
M  V30 1813 O 164.741 2.47295 0.51004 0
M  V30 1814 C 166.054 1.53359 -2.58653 0
M  V30 1815 C 167.602 1.6525 -2.65822 0
M  V30 1816 C 168.077 2.2126 -4.01009 0
M  V30 1817 N 169.568 2.28622 -4.02847 0
M  V30 1818 C 170.303 2.72984 -5.04249 0
M  V30 1819 N 169.799 3.16962 -6.16041 0
M  V30 1820 N 171.592 2.72534 -4.91611 0
M  V30 1821 H 163.743 0.0322662 -2.12375 0
M  V30 1822 H 166.006 0.0768853 -0.944877 0
M  V30 1823 H 165.712 0.870773 -3.4075 0
M  V30 1824 H 165.586 2.51597 -2.81032 0
M  V30 1825 H 167.973 2.30644 -1.84086 0
M  V30 1826 H 168.054 0.655614 -2.47256 0
M  V30 1827 H 167.698 1.56482 -4.83193 0
M  V30 1828 H 167.628 3.21698 -4.16915 0
M  V30 1829 H 170.119 1.97585 -3.22131 0
M  V30 1830 H 170.432 3.49434 -6.89287 0
M  V30 1831 H 168.777 3.14875 -6.1958 0
M  V30 1832 H 171.968 2.37525 -4.0336 0
M  V30 1833 H 172.141 3.06789 -5.70775 0
M  V30 1834 N 165.547 1.27147 0.931209 0
M  V30 1835 C 166.479 1.05364 2.03546 0
M  V30 1836 C 167.492 0.0108438 1.62796 0
M  V30 1837 O 168.681 0.25202 1.76712 0
M  V30 1838 C 165.781 0.575566 3.33977 0
M  V30 1839 C 164.954 1.68985 4.03439 0
M  V30 1840 C 164.013 1.20813 5.12143 0
M  V30 1841 O 163.039 1.90712 5.363 0
M  V30 1842 N 164.241 0.0618851 5.80467 0
M  V30 1843 H 167.006 2.00454 2.22796 0
M  V30 1844 H 164.567 1.18666 1.10136 0
M  V30 1845 H 166.559 0.237264 4.04004 0
M  V30 1846 H 165.129 -0.282016 3.11325 0
M  V30 1847 H 164.349 2.19861 3.27192 0
M  V30 1848 H 165.637 2.4378 4.46597 0
M  V30 1849 H 165.035 -0.521621 5.6329 0
M  V30 1850 H 163.592 -0.217264 6.51438 0
M  V30 1851 N 167.025 -1.13721 1.09112 0
M  V30 1852 C 168.441 -1.36914 0.820174 0
M  V30 1853 C 168.641 -1.93356 -0.567079 0
M  V30 1854 O 167.697 -2.15093 -1.32255 0
M  V30 1855 C 169.01 -2.3235 1.90877 0
M  V30 1856 C 170.558 -2.45973 1.93562 0
M  V30 1857 C 171.033 -3.44714 3.01556 0
M  V30 1858 N 172.524 -3.52263 3.00775 0
M  V30 1859 C 173.259 -4.28536 3.80978 0
M  V30 1860 N 172.755 -5.07991 4.71081 0
M  V30 1861 N 174.548 -4.23804 3.69251 0
M  V30 1862 H 166.699 -0.754348 1.98553 0
M  V30 1863 H 168.962 -0.3944 0.862063 0
M  V30 1864 H 168.668 -1.98027 2.90651 0
M  V30 1865 H 168.542 -3.32332 1.78424 0
M  V30 1866 H 170.929 -2.79584 0.944286 0
M  V30 1867 H 171.01 -1.45926 2.10093 0
M  V30 1868 H 170.654 -3.11835 4.00901 0
M  V30 1869 H 170.584 -4.44558 2.82269 0
M  V30 1870 H 173.075 -2.95567 2.35475 0
M  V30 1871 H 173.388 -5.63487 5.28869 0
M  V30 1872 H 171.733 -5.07235 4.75119 0
M  V30 1873 H 174.924 -3.60806 2.98222 0
M  V30 1874 H 175.097 -4.82995 4.31995 0
M  V30 1875 N 168.503 -0.877838 -1.30888 0
M  V30 1876 C 169.749 -0.493426 -1.96706 0
M  V30 1877 C 170.082 0.953504 -1.6918 0
M  V30 1878 O 169.357 1.67266 -0.992594 0
M  V30 1879 C 169.64 -0.760429 -3.51979 0
M  V30 1880 C 169.493 -2.25747 -3.89048 0
M  V30 1881 C 170.812 -0.232148 -4.39487 0
M  V30 1882 H 167.931 -0.180746 -0.714493 0
M  V30 1883 H 170.573 -1.10052 -1.54882 0
M  V30 1884 H 168.723 -0.243715 -3.87735 0
M  V30 1885 H 170.395 -2.84204 -3.63354 0
M  V30 1886 H 168.638 -2.72694 -3.37373 0
M  V30 1887 H 169.309 -2.39491 -4.97341 0
M  V30 1888 H 171.785 -0.674314 -4.106 0
M  V30 1889 H 170.661 -0.448355 -5.47066 0
M  V30 1890 H 170.922 0.866297 -4.33529 0
M  V30 1891 N 169.982 1.44106 -0.638065 0
M  V30 1892 C 170.892 2.34513 0.0637334 0
M  V30 1893 C 171.908 1.53018 0.828346 0
M  V30 1894 O 173.084 1.85723 0.779036 0
M  V30 1895 C 170.149 3.31095 1.02844 0
M  V30 1896 C 169.21 4.28497 0.26244 0
M  V30 1897 C 168.443 5.20465 1.1812 0
M  V30 1898 O 168.666 5.16514 2.42011 0
M  V30 1899 O 167.6 5.98251 0.661774 0
M  V30 1900 H 171.426 2.95989 -0.68003 0
M  V30 1901 H 169.011 1.43994 -0.398252 0
M  V30 1902 H 170.893 3.90526 1.58327 0
M  V30 1903 H 169.568 2.72144 1.7527 0
M  V30 1904 H 168.475 3.72592 -0.335602 0
M  V30 1905 H 169.808 4.90388 -0.421936 0
M  V30 1906 N 171.46 0.379036 1.52974 0
M  V30 1907 C 172.41 -0.477772 2.22938 0
M  V30 1908 C 173.394 -1.03792 1.22948 0
M  V30 1909 O 174.586 -0.965725 1.48333 0
M  V30 1910 C 171.715 -1.60994 3.03209 0
M  V30 1911 C 170.801 -1.06203 4.10587 0
M  V30 1912 N 171.192 -0.238214 5.05239 0
M  V30 1913 C 169.49 -1.33554 4.25534 0
M  V30 1914 C 170.191 0.0633235 5.81666 0
M  V30 1915 N 169.167 -0.537901 5.40932 0
M  V30 1916 H 172.969 0.158295 2.93473 0
M  V30 1917 H 170.483 0.187778 1.61311 0
M  V30 1918 H 172.48 -2.23607 3.5186 0
M  V30 1919 H 171.14 -2.24893 2.34207 0
M  V30 1920 H 172.151 0.123695 5.17752 0
M  V30 1921 H 168.828 -1.97632 3.6776 0
M  V30 1922 H 170.218 0.730161 6.67921 0
M  V30 1923 N 172.938 -1.57226 0.108567 0
M  V30 1924 C 173.87 -2.11809 -0.875752 0
M  V30 1925 C 174.883 -1.05839 -1.23701 0
M  V30 1926 O 176.072 -1.33245 -1.18778 0
M  V30 1927 C 173.172 -2.59411 -2.18081 0
M  V30 1928 C 172.345 -3.89364 -1.99284 0
M  V30 1929 C 171.404 -4.22672 -3.13424 0
M  V30 1930 O 170.43 -4.91668 -2.86795 0
M  V30 1931 N 171.632 -3.79154 -4.3957 0
M  V30 1932 H 174.397 -2.9689 -0.409477 0
M  V30 1933 H 171.958 -1.61721 -0.076158 0
M  V30 1934 H 173.95 -2.7873 -2.93414 0
M  V30 1935 H 172.52 -1.79268 -2.5609 0
M  V30 1936 H 171.74 -3.79059 -1.08203 0
M  V30 1937 H 173.028 -4.74358 -1.84017 0
M  V30 1938 H 172.426 -3.23486 -4.64083 0
M  V30 1939 H 170.983 -4.03602 -5.11809 0
M  V30 1940 N 174.416 0.165178 -1.56732 0
M  V30 1941 C 175.656 0.887231 -1.8414 0
M  V30 1942 C 176.02 1.79159 -0.690353 0
M  V30 1943 O 177.221 2.55172 -0.845032 0
M  V30 1944 C 175.492 1.65674 -3.16681 0
M  V30 1945 S 177.051 2.42671 -3.6559 0
M  V30 1946 H 173.869 0.297042 -0.645978 0
M  V30 1947 H 176.471 0.148439 -1.94936 0
M  V30 1948 H 175.175 0.983507 -3.98441 0
M  V30 1949 H 174.706 2.43679 -3.08843 0
M  V30 1950 H 176.721 3.67499 -3.33406 0
M  V30 1951 N 175.894 1.51508 0.433938 0
M  V30 1952 C 176.824 1.76016 1.53429 0
M  V30 1953 C 177.805 0.610112 1.58782 0
M  V30 1954 O 178.99 0.853177 1.74455 0
M  V30 1955 C 176.12 1.88831 2.9148 0
M  V30 1956 C 175.074 3.04288 3.00987 0
M  V30 1957 C 174.4 3.0229 4.4105 0
M  V30 1958 C 175.7 4.44193 2.74754 0
M  V30 1959 H 177.394 2.68152 1.33171 0
M  V30 1960 H 174.94 1.29035 0.639214 0
M  V30 1961 H 176.893 2.04559 3.6842 0
M  V30 1962 H 175.617 0.933455 3.12976 0
M  V30 1963 H 174.276 2.8827 2.26486 0
M  V30 1964 H 173.924 2.04576 4.59519 0
M  V30 1965 H 173.624 3.79822 4.4834 0
M  V30 1966 H 175.148 3.20116 5.1996 0
M  V30 1967 H 176.562 4.60544 3.41426 0
M  V30 1968 H 174.959 5.23457 2.9345 0
M  V30 1969 H 176.029 4.53996 1.70339 0
M  V30 1970 N 177.372 -0.689602 1.41712 0
M  V30 1971 C 178.597 -1.48329 1.44959 0
M  V30 1972 C 179.022 -1.8801 0.0581283 0
M  V30 1973 O 178.38 -1.55026 -0.940035 0
M  V30 1974 C 178.428 -2.71835 2.36935 0
M  V30 1975 O 177.532 -3.69549 1.8305 0
M  V30 1976 H 176.873 -0.446199 0.491734 0
M  V30 1977 H 179.403 -0.847127 1.86239 0
M  V30 1978 H 179.413 -3.20076 2.53013 0
M  V30 1979 H 178.088 -2.42291 3.38035 0
M  V30 1980 H 176.665 -3.2851 1.76452 0
M  V30 1981 N 178.85 -1.27639 -0.924453 0
M  V30 1982 C 180.075 -1.17101 -1.71179 0
M  V30 1983 C 180.5 0.268134 -1.86179 0
M  V30 1984 O 179.858 1.19415 -1.36418 0
M  V30 1985 C 179.906 -1.86313 -3.08739 0
M  V30 1986 O 179.01 -1.16331 -3.95652 0
M  V30 1987 H 178.351 -0.407091 -0.524569 0
M  V30 1988 H 180.881 -1.68767 -1.15666 0
M  V30 1989 H 180.891 -1.938 -3.59034 0
M  V30 1990 H 179.566 -2.91001 -2.97138 0
M  V30 1991 H 178.143 -1.16935 -3.54091 0
M  V30 1992 N 180.328 1.1314 -1.09713 0
M  V30 1993 C 181.238 2.22242 -0.751367 0
M  V30 1994 C 182.254 1.72224 0.247938 0
M  V30 1995 O 183.43 2.01205 0.0885463 0
M  V30 1996 C 180.495 3.46231 -0.180274 0
M  V30 1997 C 179.556 4.11125 -1.2359 0
M  V30 1998 C 178.789 5.29195 -0.691966 0
M  V30 1999 O 179.012 5.68342 0.48414 0
M  V30 2000 O 177.946 5.84214 -1.44838 0
M  V30 2001 H 181.772 2.54197 -1.66186 0
M  V30 2002 H 179.357 1.21331 -0.871735 0
M  V30 2003 H 181.239 4.21185 0.134739 0
M  V30 2004 H 179.914 3.1597 0.703185 0
M  V30 2005 H 178.821 3.37985 -1.60366 0
M  V30 2006 H 180.154 4.45524 -2.09211 0
M  V30 2007 N 181.806 0.884767 1.30421 0
M  V30 2008 C 182.716 0.355398 2.31892 0
M  V30 2009 C 183.732 -0.542261 1.65335 0
M  V30 2010 O 184.908 -0.435432 1.96637 0
M  V30 2011 C 181.973 -0.421661 3.44126 0
M  V30 2012 C 181.034 0.505727 4.26311 0
M  V30 2013 C 180.267 -0.234343 5.33185 0
M  V30 2014 O 180.49 -1.46045 5.51386 0
M  V30 2015 O 179.424 0.415443 6.00465 0
M  V30 2016 H 183.25 1.19685 2.79122 0
M  V30 2017 H 180.835 0.648596 1.34587 0
M  V30 2018 H 182.717 -0.861641 4.12497 0
M  V30 2019 H 181.392 -1.23942 2.99032 0
M  V30 2020 H 180.299 0.994513 3.60639 0
M  V30 2021 H 181.632 1.28948 4.75009 0
M  V30 2022 N 183.284 -1.43765 0.645699 0
M  V30 2023 C 184.214 -2.33471 -0.0370477 0
M  V30 2024 C 185.195 -1.49042 -0.819779 0
M  V30 2025 O 186.38 -1.77726 -0.782758 0
M  V30 2026 C 183.51 -3.32311 -1.0093 0
M  V30 2027 C 182.464 -4.2667 -0.337201 0
M  V30 2028 C 181.79 -5.1549 -1.42037 0
M  V30 2029 C 183.09 -5.16657 0.765706 0
M  V30 2030 H 184.784 -2.90809 0.712069 0
M  V30 2031 H 182.33 -1.39834 0.343876 0
M  V30 2032 H 184.283 -3.9396 -1.49578 0
M  V30 2033 H 183.007 -2.73213 -1.78948 0
M  V30 2034 H 181.666 -3.66374 0.128771 0
M  V30 2035 H 181.314 -4.52735 -2.1918 0
M  V30 2036 H 181.014 -5.79438 -0.975966 0
M  V30 2037 H 182.538 -5.80012 -1.90838 0
M  V30 2038 H 183.952 -5.72158 0.361702 0
M  V30 2039 H 182.349 -5.89286 1.13413 0
M  V30 2040 H 183.419 -4.56796 1.62683 0
M  V30 2041 N 184.763 -0.387143 -1.52771 0
M  V30 2042 C 185.71 0.449048 -2.26389 0
M  V30 2043 C 186.68 1.05961 -1.27912 0
M  V30 2044 O 187.865 1.08804 -1.56737 0
M  V30 2045 C 185.005 1.57155 -3.0724 0
M  V30 2046 C 184.118 0.984066 -4.20643 0
M  V30 2047 C 183.253 2.07745 -4.88892 0
M  V30 2048 C 182.292 1.46574 -5.94292 0
M  V30 2049 N 181.429 2.49834 -6.56146 0
M  V30 2050 H 186.269 -0.185205 -2.97424 0
M  V30 2051 H 183.806 -0.103164 -1.46738 0
M  V30 2052 H 185.764 2.23309 -3.52405 0
M  V30 2053 H 184.394 2.17615 -2.38419 0
M  V30 2054 H 183.446 0.212193 -3.79808 0
M  V30 2055 H 184.758 0.497029 -4.96318 0
M  V30 2056 H 183.912 2.81673 -5.3735 0
M  V30 2057 H 182.651 2.59807 -4.12737 0
M  V30 2058 H 181.656 0.711696 -5.45174 0
M  V30 2059 H 182.881 0.953088 -6.72379 0
M  V30 2060 H 180.827 3.0107 -5.82832 0
M  V30 2061 H 180.744 2.05879 -7.27427 0
M  V30 2062 H 182.012 3.23399 -7.09249 0
M  V30 2063 N 186.241 1.57166 -0.116904 0
M  V30 2064 C 187.173 2.12271 0.864507 0
M  V30 2065 C 188.186 1.06494 1.23138 0
M  V30 2066 O 189.375 1.33873 1.18069 0
M  V30 2067 C 186.475 2.60564 2.16702 0
M  V30 2068 C 185.648 3.90416 1.97216 0
M  V30 2069 C 184.707 4.24329 3.11178 0
M  V30 2070 O 183.733 4.93182 2.84184 0
M  V30 2071 N 184.935 3.8148 4.37554 0
M  V30 2072 H 187.7 2.97102 0.393726 0
M  V30 2073 H 185.261 1.61759 0.0675805 0
M  V30 2074 H 187.253 2.80282 2.91932 0
M  V30 2075 H 185.823 1.80623 2.55135 0
M  V30 2076 H 185.043 3.79627 1.06192 0
M  V30 2077 H 186.331 4.75327 1.81499 0
M  V30 2078 H 185.729 3.25943 4.62361 0
M  V30 2079 H 184.286 4.06311 5.09661 0
M  V30 2080 N 187.719 -0.156864 1.56817 0
M  V30 2081 C 189.135 -0.50916 1.5126 0
M  V30 2082 C 189.335 -1.83897 0.823658 0
M  V30 2083 O 188.391 -2.49469 0.390055 0
M  V30 2084 C 189.704 -0.52857 2.96018 0
M  V30 2085 C 191.252 -0.614771 3.06903 0
M  V30 2086 C 191.727 -0.664938 4.53147 0
M  V30 2087 N 193.218 -0.727433 4.57452 0
M  V30 2088 C 193.953 -0.787067 5.67973 0
M  V30 2089 N 193.449 -0.806649 6.88088 0
M  V30 2090 N 195.242 -0.827195 5.5598 0
M  V30 2091 H 187.393 0.714935 2.00006 0
M  V30 2092 H 189.656 0.259526 0.911784 0
M  V30 2093 H 189.362 0.380154 3.49639 0
M  V30 2094 H 189.236 -1.36998 3.51442 0
M  V30 2095 H 191.623 -1.51392 2.53307 0
M  V30 2096 H 191.704 0.253597 2.5454 0
M  V30 2097 H 191.348 0.230011 5.07379 0
M  V30 2098 H 191.278 -1.54966 5.03282 0
M  V30 2099 H 193.769 -0.719998 3.70978 0
M  V30 2100 H 194.082 -0.853727 7.6807 0
M  V30 2101 H 192.427 -0.774687 6.90669 0
M  V30 2102 H 195.618 -0.808998 4.61056 0
M  V30 2103 H 195.791 -0.870206 6.4213 0
M  V30 2104 N 189.197 -1.51736 -0.425897 0
M  V30 2105 C 190.444 -1.6497 -1.17436 0
M  V30 2106 C 190.772 -0.371445 -1.9092 0
M  V30 2107 O 190.027 0.644963 -1.84767 0
M  V30 2108 C 190.326 -2.81103 -2.20717 0
M  V30 2109 C 189.992 -4.19954 -1.64162 0
M  V30 2110 C 188.654 -4.57725 -1.48462 0
M  V30 2111 C 191.006 -5.06552 -1.22696 0
M  V30 2112 C 188.334 -5.79789 -0.897873 0
M  V30 2113 C 190.686 -6.29205 -0.654464 0
M  V30 2114 C 189.35 -6.6574 -0.484456 0
M  V30 2115 H 188.62 -0.603668 -0.429727 0
M  V30 2116 H 191.267 -1.85798 -0.463829 0
M  V30 2117 H 189.572 -2.54542 -2.97852 0
M  V30 2118 H 191.269 -2.8854 -2.78471 0
M  V30 2119 H 187.859 -3.90181 -1.77361 0
M  V30 2120 H 192.043 -4.77968 -1.33642 0
M  V30 2121 H 187.299 -6.06733 -0.75402 0
M  V30 2122 H 191.473 -6.95643 -0.324694 0
M  V30 2123 H 189.1 -7.60195 -0.0276833 0
M  V30 2124 N 190.675 0.682077 -1.42076 0
M  V30 2125 C 192.086 1.26246 -1.37546 0
M  V30 2126 C 192.437 1.96092 -0.0651481 0
M  V30 2127 O 191.562 1.99587 0.836297 0
M  V30 2128 C 192.157 2.29594 -2.49143 0
M  V30 2129 C 190.716 2.83175 -2.47969 0
M  V30 2130 C 189.863 1.57395 -2.28303 0
M  V30 2131 H 192.814 0.475937 -1.51395 0
M  V30 2132 H 192.835 3.11175 -2.18976 0
M  V30 2133 H 192.347 1.78729 -3.44496 0
M  V30 2134 H 190.448 3.3818 -1.56413 0
M  V30 2135 H 190.561 3.32687 -3.44755 0
M  V30 2136 H 188.925 1.83699 -1.76428 0
M  V30 2137 H 189.708 1.08507 -3.25701 0
M  V30 2138 N 192.153 1.28127 0.917671 0
M  V30 2139 C 193.101 1.11569 2.04096 0
M  V30 2140 C 194.095 0.0360242 1.69362 0
M  V30 2141 O 195.301 0.194501 1.78946 0
M  V30 2142 H 191.676 0.344097 0.668656 0
M  V30 2143 H 193.647 2.06711 2.15205 0
M  V30 2144 C 192.396 0.790197 3.38602 0
M  V30 2145 H 191.719 1.61293 3.6582 0
M  V30 2146 H 193.159 0.714271 4.1794 0
M  V30 2147 C 191.618 -0.505897 3.3308 0
M  V30 2148 O 192.148 -1.53736 3.71117 0
M  V30 2149 N 190.354 -0.505193 2.86175 0
M  V30 2150 H 189.901 0.334621 2.55417 0
M  V30 2151 H 189.859 -1.37243 2.82863 0
M  V30 2152 N 193.631 -1.12557 1.10312 0
M  V30 2153 C 194.88 -1.83395 0.839588 0
M  V30 2154 C 195.193 -1.84939 -0.636929 0
M  V30 2155 O 196.399 -2.51761 -1.01631 0
M  V30 2156 C 194.855 -3.29303 1.45215 0
M  V30 2157 C 194.463 -3.36122 2.96186 0
M  V30 2158 C 196.207 -4.05121 1.26796 0
M  V30 2159 C 194.114 -4.76357 3.50483 0
M  V30 2160 H 193.044 -0.687133 0.310425 0
M  V30 2161 H 195.695 -1.26746 1.32694 0
M  V30 2162 H 194.077 -3.85812 0.892469 0
M  V30 2163 H 195.251 -2.89559 3.58458 0
M  V30 2164 H 193.566 -2.73776 3.13745 0
M  V30 2165 H 196.163 -5.08668 1.64806 0
M  V30 2166 H 196.506 -4.15773 0.209409 0
M  V30 2167 H 197.039 -3.54967 1.79563 0
M  V30 2168 H 193.778 -4.70899 4.55998 0
M  V30 2169 H 193.298 -5.23377 2.92978 0
M  V30 2170 H 194.977 -5.45294 3.48228 0
M  V30 2171 N 195.109 -0.891671 -1.2995 0
M  V30 2172 C 196.525 -0.58662 -1.48428 0
M  V30 2173 C 196.725 0.873951 -1.81561 0
M  V30 2174 O 195.781 1.65471 -1.90724 0
M  V30 2175 C 197.094 -1.50553 -2.60296 0
M  V30 2176 C 198.642 -1.50988 -2.74175 0
M  V30 2177 C 199.117 -2.41488 -3.89163 0
M  V30 2178 N 200.608 -2.39489 -3.96483 0
M  V30 2179 C 201.343 -3.06223 -4.84784 0
M  V30 2180 N 200.839 -3.82206 -5.77833 0
M  V30 2181 N 202.632 -2.95421 -4.78208 0
M  V30 2182 H 194.783 -1.83644 -1.06718 0
M  V30 2183 H 197.046 -0.786455 -0.529332 0
M  V30 2184 H 196.752 -2.54581 -2.42654 0
M  V30 2185 H 196.626 -1.22008 -3.56923 0
M  V30 2186 H 199.013 -0.47708 -2.91218 0
M  V30 2187 H 199.094 -1.83567 -1.78148 0
M  V30 2188 H 198.738 -3.44857 -3.72876 0
M  V30 2189 H 198.668 -2.06222 -4.84541 0
M  V30 2190 H 201.159 -1.84278 -3.29924 0
M  V30 2191 H 201.472 -4.302 -6.41988 0
M  V30 2192 H 199.817 -3.86313 -5.77743 0
M  V30 2193 H 203.008 -2.35581 -4.04499 0
M  V30 2194 H 203.181 -3.47704 -5.46814 0
M  V30 2195 N 196.587 1.43421 -0.653314 0
M  V30 2196 C 197.517 2.33487 0.0246656 0
M  V30 2197 C 198.498 1.49475 0.811863 0
M  V30 2198 O 199.683 1.78139 0.773322 0
M  V30 2199 C 196.813 3.32841 0.99166 0
M  V30 2200 C 195.767 4.26842 0.314568 0
M  V30 2201 C 195.093 5.16236 1.39302 0
M  V30 2202 C 196.393 5.16243 -0.793095 0
M  V30 2203 H 198.087 2.90427 -0.727481 0
M  V30 2204 H 195.633 1.39649 -0.351287 0
M  V30 2205 H 197.586 3.94747 1.47487 0
M  V30 2206 H 196.31 2.74158 1.77497 0
M  V30 2207 H 194.969 3.663 -0.148199 0
M  V30 2208 H 194.617 4.53891 2.16776 0
M  V30 2209 H 194.317 5.79948 0.945223 0
M  V30 2210 H 195.841 5.81015 1.87759 0
M  V30 2211 H 197.255 5.71958 -0.392039 0
M  V30 2212 H 195.652 5.88676 -1.16536 0
M  V30 2213 H 196.722 4.55927 -1.65103 0
M  V30 2214 N 198.065 0.39524 1.52563 0
M  V30 2215 C 199.476 -0.0774719 1.86539 0
M  V30 2216 C 199.827 -1.45641 1.31466 0
M  V30 2217 O 198.952 -2.06459 0.648367 0
M  V30 2218 C 199.547 -0.147356 3.38479 0
M  V30 2219 C 198.106 -0.564373 3.72145 0
M  V30 2220 C 197.253 0.269919 2.75983 0
M  V30 2221 H 200.204 0.612876 1.46388 0
M  V30 2222 H 200.225 -0.965343 3.68051 0
M  V30 2223 H 199.737 0.856387 3.78534 0
M  V30 2224 H 197.838 -1.57527 3.37663 0
M  V30 2225 H 197.951 -0.318402 4.78041 0
M  V30 2226 H 196.315 -0.265696 2.5331 0
M  V30 2227 H 197.098 1.27175 3.18875 0
M  V30 2228 N 199.544 -1.57102 0.125237 0
M  V30 2229 C 200.96 -1.57915 -0.231322 0
M  V30 2230 C 201.16 -1.13833 -1.66266 0
M  V30 2231 O 200.216 -0.828581 -2.38518 0
M  V30 2232 C 201.529 -3.00699 0.00766489 0
M  V30 2233 C 203.077 -3.12947 -0.0577483 0
M  V30 2234 C 203.552 -4.57742 0.153626 0
M  V30 2235 N 205.043 -4.63092 0.0998073 0
M  V30 2236 C 205.778 -5.72905 0.238174 0
M  V30 2237 N 205.274 -6.91445 0.433057 0
M  V30 2238 N 207.067 -5.6182 0.177308 0
M  V30 2239 H 199.218 -1.84055 1.06007 0
M  V30 2240 H 201.481 -0.850905 0.417929 0
M  V30 2241 H 201.187 -3.3726 0.997431 0
M  V30 2242 H 201.061 -3.70236 -0.721452 0
M  V30 2243 H 203.448 -2.7624 -1.03804 0
M  V30 2244 H 203.529 -2.4594 0.70335 0
M  V30 2245 H 203.173 -4.95149 1.13092 0
M  V30 2246 H 203.103 -5.22848 -0.627534 0
M  V30 2247 H 205.594 -3.77871 -0.047051 0
M  V30 2248 H 205.907 -7.70985 0.529332 0
M  V30 2249 H 204.252 -6.93415 0.469109 0
M  V30 2250 H 207.443 -4.68093 0.0259748 0
M  V30 2251 H 207.616 -6.47357 0.288582 0
M  V30 2252 N 201.022 0.148545 -1.56898 0
M  V30 2253 C 202.27 0.859717 -1.82902 0
M  V30 2254 C 202.591 1.81775 -0.70588 0
M  V30 2255 O 201.861 1.93994 0.272586 0
M  V30 2256 H 200.441 0.320469 -0.674766 0
M  V30 2257 H 203.103 0.142918 -1.94375 0
M  V30 2258 H 202.199 1.4229 -2.77777 0
M  V30 2259 N 202.5 1.5196 0.417844 0
M  V30 2260 C 203.41 1.77554 1.53336 0
M  V30 2261 C 204.426 0.660655 1.6097 0
M  V30 2262 O 205.602 0.945099 1.77848 0
M  V30 2263 C 202.667 1.91291 2.89152 0
M  V30 2264 C 201.728 3.15183 2.91475 0
M  V30 2265 C 200.961 3.28256 4.20813 0
M  V30 2266 O 201.184 2.46798 5.14244 0
M  V30 2267 O 200.118 4.21356 4.29817 0
M  V30 2268 H 203.944 2.7222 1.34647 0
M  V30 2269 H 201.529 1.36698 0.602828 0
M  V30 2270 H 203.411 2.02199 3.69721 0
M  V30 2271 H 202.086 0.998129 3.07927 0
M  V30 2272 H 200.993 3.09739 2.09791 0
M  V30 2273 H 202.326 4.06414 2.77648 0
M  V30 2274 N 203.978 -0.674533 1.42435 0
M  V30 2275 C 205.224 -1.43671 1.43131 0
M  V30 2276 C 205.557 -1.94142 0.0476021 0
M  V30 2277 O 204.832 -1.70924 -0.928188 0
M  V30 2278 C 205.115 -2.63355 2.45594 0
M  V30 2279 C 204.968 -2.18514 3.93156 0
M  V30 2280 C 206.287 -3.65571 2.45043 0
M  V30 2281 H 203.406 -0.521077 0.521198 0
M  V30 2282 H 206.048 -0.766551 1.7385 0
M  V30 2283 H 204.198 -3.2053 2.19528 0
M  V30 2284 H 205.87 -1.66504 4.30202 0
M  V30 2285 H 204.113 -1.50086 4.07009 0
M  V30 2286 H 204.784 -3.04484 4.60428 0
M  V30 2287 H 207.26 -3.18113 2.68223 0
M  V30 2288 H 206.136 -4.46893 3.18713 0
M  V30 2289 H 206.397 -4.16716 1.47649 0
M  V30 2290 N 205.456 -1.28612 -0.910864 0
M  V30 2291 C 206.704 -1.15705 -1.65701 0
M  V30 2292 C 207.025 0.29416 -1.92769 0
M  V30 2293 O 206.295 1.20331 -1.54588 0
M  V30 2294 H 204.875 -0.425216 -0.614167 0
M  V30 2295 H 207.537 -1.61381 -1.0928 0
M  V30 2296 H 206.633 -1.6988 -2.61815 0
M  V30 2297 N 206.934 1.1197 -1.10907 0
M  V30 2298 C 207.864 2.19928 -0.784473 0
M  V30 2299 C 208.845 1.6833 0.244726 0
M  V30 2300 O 210.03 1.93892 0.109418 0
M  V30 2301 C 207.16 3.46597 -0.220827 0
M  V30 2302 C 206.114 4.11376 -1.18127 0
M  V30 2303 C 205.44 5.32554 -0.478594 0
M  V30 2304 C 206.74 4.56945 -2.52979 0
M  V30 2305 H 208.434 2.47337 -1.68715 0
M  V30 2306 H 205.98 1.18879 -0.812642 0
M  V30 2307 H 207.933 4.21396 0.0184278 0
M  V30 2308 H 206.657 3.1863 0.717113 0
M  V30 2309 H 205.316 3.38564 -1.40606 0
M  V30 2310 H 204.964 5.00856 0.463976 0
M  V30 2311 H 204.664 5.76844 -1.11912 0
M  V30 2312 H 206.188 6.10096 -0.248 0
M  V30 2313 H 207.602 5.23093 -2.3462 0
M  V30 2314 H 205.999 5.1203 -3.12962 0
M  V30 2315 H 207.069 3.70676 -3.12614 0
M  V30 2316 N 208.412 0.89855 1.29475 0
M  V30 2317 C 209.342 0.39201 2.30186 0
M  V30 2318 C 210.323 -0.532359 1.61555 0
M  V30 2319 O 211.508 -0.443331 1.89072 0
M  V30 2320 C 208.638 -0.382353 3.45189 0
M  V30 2321 C 207.592 0.451483 4.25612 0
M  V30 2322 C 206.918 -0.450307 5.328 0
M  V30 2323 C 208.218 1.70079 4.93832 0
M  V30 2324 H 209.912 1.23362 2.72804 0
M  V30 2325 H 207.458 0.594638 1.31149 0
M  V30 2326 H 209.411 -0.747451 4.14718 0
M  V30 2327 H 208.135 -1.25774 3.01411 0
M  V30 2328 H 206.794 0.798897 3.57789 0
M  V30 2329 H 206.442 -1.32379 4.85268 0
M  V30 2330 H 206.142 0.103902 5.87508 0
M  V30 2331 H 207.666 -0.811623 6.05182 0
M  V30 2332 H 209.08 1.40549 5.55805 0
M  V30 2333 H 207.477 2.19623 5.58467 0
M  V30 2334 H 208.547 2.43744 4.19186 0
M  V30 2335 N 209.89 -1.43072 0.660911 0
M  V30 2336 C 211.167 -1.95307 0.107017 0
M  V30 2337 C 211.547 -1.60192 -1.37484 0
M  V30 2338 O 210.895 -0.890949 -2.10415 0
M  V30 2339 C 211.105 -3.47124 0.361402 0
M  V30 2340 C 212.453 -4.23738 0.270455 0
M  V30 2341 O 213.477 -3.54981 0.294382 0
M  V30 2342 O 212.336 -5.46131 0.200737 0
M  V30 2343 H 209.43 -0.826984 -0.00517729 0
M  V30 2344 H 211.976 -1.52972 0.734681 0
M  V30 2345 H 210.748 -3.65837 1.38848 0
M  V30 2346 H 210.371 -3.96475 -0.298953 0
M  V30 2347 N 211.368 -0.403325 -1.52352 0
M  V30 2348 C 212.316 0.439752 -2.28405 0
M  V30 2349 C 213.31 1.05089 -1.32863 0
M  V30 2350 O 214.516 0.989759 -1.50345 0
M  V30 2351 H 210.891 0.160587 -0.734653 0
M  V30 2352 H 212.862 -0.222983 -2.97566 0
M  V30 2353 C 211.611 1.54736 -3.11371 0
M  V30 2354 H 210.934 1.08643 -3.84755 0
M  V30 2355 H 212.374 2.1112 -3.67701 0
M  V30 2356 C 210.833 2.51141 -2.24566 0
M  V30 2357 O 211.363 3.54887 -1.88196 0
M  V30 2358 N 209.569 2.21213 -1.8845 0
M  V30 2359 H 209.116 1.36878 -2.18225 0
M  V30 2360 H 209.074 2.85963 -1.30662 0
M  V30 2361 N 212.846 1.57033 -0.133567 0
M  V30 2362 C 214.071 2.00475 0.531477 0
M  V30 2363 C 214.496 1.01291 1.58499 0
M  V30 2364 O 213.854 -0.0133279 1.81295 0
M  V30 2365 C 213.902 3.42729 1.12113 0
M  V30 2366 O 213.006 3.46498 2.23636 0
M  V30 2367 H 212.347 0.650876 0.131362 0
M  V30 2368 H 214.877 2.03344 -0.22634 0
M  V30 2369 H 214.887 3.81246 1.4531 0
M  V30 2370 H 213.562 4.14428 0.349557 0
M  V30 2371 H 212.139 3.19811 1.91769 0
M  V30 2372 N 214.325 -0.140222 1.56975 0
M  V30 2373 C 215.573 -0.850005 1.83356 0
M  V30 2374 C 215.894 -1.81399 0.71551 0
M  V30 2375 O 215.164 -1.94136 -0.262294 0
M  V30 2376 H 213.744 -0.316886 0.676456 0
M  V30 2377 H 216.406 -0.132608 1.94448 0
M  V30 2378 H 215.502 -1.40814 2.78528 0
M  V30 2379 N 215.803 -1.52179 -0.40978 0
M  V30 2380 C 217.051 -1.65878 -1.15451 0
M  V30 2381 C 217.372 -0.390771 -1.91044 0
M  V30 2382 O 216.642 0.594323 -1.86667 0
M  V30 2383 H 215.222 -0.611405 -0.429177 0
M  V30 2384 H 217.884 -1.89219 -0.467134 0
M  V30 2385 H 216.98 -2.49954 -1.86894 0
M  V30 2386 N 217.281 0.66697 -1.42791 0
M  V30 2387 C 218.527 1.4291 -1.43891 0
M  V30 2388 C 218.86 1.94114 -0.0578972 0
M  V30 2389 O 218.135 1.71414 0.91911 0
M  V30 2390 C 218.418 2.62049 -2.46987 0
M  V30 2391 C 218.271 2.16426 -3.94309 0
M  V30 2392 C 219.59 3.64266 -2.46978 0
M  V30 2393 H 216.709 0.518306 -0.523954 0
M  V30 2394 H 219.351 0.757321 -1.74255 0
M  V30 2395 H 217.501 3.19361 -2.21225 0
M  V30 2396 H 219.173 1.64221 -4.31079 0
M  V30 2397 H 217.416 1.47925 -4.078 0
M  V30 2398 H 218.087 3.02038 -4.62036 0
M  V30 2399 H 220.563 3.16686 -2.69906 0
M  V30 2400 H 219.439 4.45196 -3.21079 0
M  V30 2401 H 219.7 4.15927 -1.49857 0
M  V30 2402 N 218.759 1.29093 0.90403 0
M  V30 2403 C 220.008 1.16187 1.64874 0
M  V30 2404 C 220.321 -0.286742 1.93487 0
M  V30 2405 O 221.527 -0.537062 2.66135 0
M  V30 2406 C 219.983 2.03177 2.97064 0
M  V30 2407 C 219.591 3.52836 2.76062 0
M  V30 2408 C 221.335 1.98984 3.74974 0
M  V30 2409 C 219.242 4.31945 4.03952 0
M  V30 2410 H 218.172 0.431246 0.618501 0
M  V30 2411 H 220.823 1.53699 1.00243 0
M  V30 2412 H 219.205 1.5853 3.62883 0
M  V30 2413 H 220.379 4.05507 2.18863 0
M  V30 2414 H 218.694 3.58656 2.11553 0
M  V30 2415 H 221.291 2.55351 4.69787 0
M  V30 2416 H 221.634 0.968815 4.0487 0
M  V30 2417 H 222.167 2.41652 3.15989 0
M  V30 2418 H 218.906 5.34667 3.79225 0
M  V30 2419 H 218.426 3.84045 4.60727 0
M  V30 2420 H 220.105 4.42379 4.72133 0
M  V30 2421 N 220.237 -1.11381 1.11499 0
M  V30 2422 C 221.467 -1.86663 0.885464 0
M  V30 2423 C 221.875 -1.80464 -0.568281 0
M  V30 2424 O 221.218 -1.18445 -1.40415 0
M  V30 2425 C 221.28 -3.36337 1.26956 0
M  V30 2426 C 220.944 -3.66304 2.73259 0
M  V30 2427 C 221.941 -3.63733 3.71476 0
M  V30 2428 C 219.626 -3.9529 3.09921 0
M  V30 2429 C 221.62 -3.89725 5.04374 0
M  V30 2430 C 219.307 -4.20941 4.43004 0
M  V30 2431 C 220.305 -4.18147 5.40039 0
M  V30 2432 O 219.993 -4.43153 6.70724 0
M  V30 2433 H 219.725 -0.597114 0.316908 0
M  V30 2434 H 222.279 -1.41782 1.48617 0
M  V30 2435 H 220.509 -3.81826 0.611999 0
M  V30 2436 H 222.198 -3.92986 1.01573 0
M  V30 2437 H 222.964 -3.41389 3.44498 0
M  V30 2438 H 218.843 -3.966 2.35009 0
M  V30 2439 H 222.387 -3.8746 5.80104 0
M  V30 2440 H 218.284 -4.42761 4.69716 0
M  V30 2441 H 219.052 -4.60717 6.76522 0
M  V30 2442 N 221.715 -0.905404 -1.28997 0
M  V30 2443 C 222.678 -0.392253 -2.25819 0
M  V30 2444 C 223.678 0.476753 -1.5357 0
M  V30 2445 O 224.868 0.280994 -1.71919 0
M  V30 2446 C 222 0.438588 -3.38067 0
M  V30 2447 H 223.193 -1.24743 -2.72725 0
M  V30 2448 H 220.746 -0.684051 -1.40536 0
M  V30 2449 H 221.481 1.31352 -2.96508 0
M  V30 2450 H 221.266 -0.184167 -3.91667 0
M  V30 2451 H 222.756 0.78873 -4.10084 0
M  V30 2452 N 223.193 1.4272 -0.668489 0
M  V30 2453 C 224.423 2.05668 -0.196063 0
M  V30 2454 C 224.831 1.5028 1.14946 0
M  V30 2455 O 224.174 0.6348 1.72383 0
M  V30 2456 C 224.236 3.59469 -0.0468879 0
M  V30 2457 C 223.9 4.37518 -1.32012 0
M  V30 2458 C 224.897 4.68584 -2.25222 0
M  V30 2459 C 222.582 4.77266 -1.56596 0
M  V30 2460 C 224.576 5.38326 -3.41297 0
M  V30 2461 C 222.263 5.4675 -2.72962 0
M  V30 2462 C 223.261 5.77204 -3.65137 0
M  V30 2463 O 222.949 6.45264 -4.79468 0
M  V30 2464 H 222.681 0.669382 -0.0943599 0
M  V30 2465 H 225.235 1.83954 -0.913788 0
M  V30 2466 H 223.465 3.79817 0.726357 0
M  V30 2467 H 225.154 4.04071 0.384852 0
M  V30 2468 H 225.92 4.38382 -2.07477 0
M  V30 2469 H 221.799 4.52959 -0.857249 0
M  V30 2470 H 225.343 5.62014 -4.13263 0
M  V30 2471 H 221.24 5.76369 -2.90635 0
M  V30 2472 H 222.008 6.63753 -4.78931 0
M  V30 2473 N 224.671 0.411399 1.52136 0
M  V30 2474 C 225.618 -0.412975 2.27075 0
M  V30 2475 C 226.588 -1.03912 1.29582 0
M  V30 2476 O 227.773 -1.06296 1.58448 0
M  V30 2477 C 224.913 -1.52247 3.09701 0
M  V30 2478 C 224.026 -0.917021 4.22155 0
M  V30 2479 C 223.161 -1.9994 4.92135 0
M  V30 2480 C 222.2 -1.37101 5.96548 0
M  V30 2481 N 221.337 -2.39364 6.60038 0
M  V30 2482 H 226.177 0.232499 2.97092 0
M  V30 2483 H 223.714 0.126496 1.46555 0
M  V30 2484 H 225.672 -2.17674 3.55913 0
M  V30 2485 H 224.302 -2.13794 2.41851 0
M  V30 2486 H 223.354 -0.151742 3.80097 0
M  V30 2487 H 224.666 -0.418006 4.97045 0
M  V30 2488 H 223.82 -2.73088 5.41763 0
M  V30 2489 H 222.559 -2.53208 4.16818 0
M  V30 2490 H 221.564 -0.624873 5.46237 0
M  V30 2491 H 222.789 -0.845998 6.7381 0
M  V30 2492 H 220.735 -2.91759 5.87548 0
M  V30 2493 H 220.652 -1.9428 7.3061 0
M  V30 2494 H 221.92 -3.12074 7.14304 0
M  V30 2495 N 226.149 -1.5696 0.141893 0
M  V30 2496 C 227.112 -2.15316 -0.785587 0
M  V30 2497 C 228.112 -1.09366 -1.1788 0
M  V30 2498 O 229.302 -1.35031 -1.10056 0
M  V30 2499 C 226.434 -2.71211 -2.06537 0
M  V30 2500 H 227.627 -2.98608 -0.278041 0
M  V30 2501 H 225.18 -1.5593 -0.107519 0
M  V30 2502 H 225.915 -1.91571 -2.6167 0
M  V30 2503 H 225.7 -3.4872 -1.79268 0
M  V30 2504 H 227.19 -3.16189 -2.72789 0
M  V30 2505 N 227.627 0.131896 -1.57047 0
M  V30 2506 C 228.557 1.16384 -2.02428 0
M  V30 2507 C 229.538 1.43936 -0.90644 0
M  V30 2508 O 230.723 1.54599 -1.17528 0
M  V30 2509 C 227.853 2.49328 -2.4177 0
M  V30 2510 C 226.807 2.36266 -3.56879 0
M  V30 2511 C 226.133 3.74057 -3.8208 0
M  V30 2512 C 227.433 1.834 -4.89042 0
M  V30 2513 H 229.127 0.786433 -2.88887 0
M  V30 2514 H 226.673 0.376855 -1.38981 0
M  V30 2515 H 228.626 3.21759 -2.7212 0
M  V30 2516 H 227.35 2.88934 -1.52266 0
M  V30 2517 H 226.009 1.66286 -3.26718 0
M  V30 2518 H 225.657 4.11125 -2.89803 0
M  V30 2519 H 225.357 3.66174 -4.59554 0
M  V30 2520 H 226.881 4.48012 -4.1487 0
M  V30 2521 H 228.295 2.45636 -5.18011 0
M  V30 2522 H 226.692 1.8637 -5.70426 0
M  V30 2523 H 227.762 0.790662 -4.7841 0
M  V30 2524 N 229.106 1.52395 0.401703 0
M  V30 2525 C 230.522 1.41363 0.740864 0
M  V30 2526 C 230.722 0.523982 1.94568 0
M  V30 2527 O 229.778 -0.00741204 2.52499 0
M  V30 2528 C 231.091 2.84011 0.987847 0
M  V30 2529 C 232.639 2.93404 1.09011 0
M  V30 2530 C 233.114 4.37036 1.3698 0
M  V30 2531 N 234.605 4.40304 1.43829 0
M  V30 2532 C 235.34 5.48508 1.67112 0
M  V30 2533 N 234.836 6.66819 1.87949 0
M  V30 2534 N 236.629 5.36034 1.69187 0
M  V30 2535 H 228.78 2.08765 -0.391262 0
M  V30 2536 H 231.043 0.941265 -0.112798 0
M  V30 2537 H 230.749 3.51265 0.174835 0
M  V30 2538 H 230.623 3.25502 1.906 0
M  V30 2539 H 233.01 2.26325 1.8937 0
M  V30 2540 H 233.091 2.55359 0.15015 0
M  V30 2541 H 232.735 5.04676 0.571353 0
M  V30 2542 H 232.665 4.72623 2.3224 0
M  V30 2543 H 235.156 3.55024 1.29486 0
M  V30 2544 H 235.469 7.45063 2.05185 0
M  V30 2545 H 233.814 6.6987 1.85199 0
M  V30 2546 H 237.005 4.42579 1.52451 0
M  V30 2547 H 237.178 6.20434 1.86993 0
M  V30 2548 N 230.584 -0.659388 1.43143 0
M  V30 2549 C 231.547 -1.75432 1.47501 0
M  V30 2550 C 232.547 -1.56707 0.360512 0
M  V30 2551 O 233.737 -1.62717 0.622002 0
M  V30 2552 C 230.869 -3.14239 1.32162 0
M  V30 2553 H 232.062 -1.7295 2.45006 0
M  V30 2554 H 229.615 -0.870469 1.29817 0
M  V30 2555 H 230.35 -3.22336 0.356401 0
M  V30 2556 H 230.135 -3.29235 2.12948 0
M  V30 2557 H 231.625 -3.94094 1.3813 0
M  V30 2558 N 232.062 -1.29571 -0.897171 0
M  V30 2559 C 232.992 -1.17473 -2.01798 0
M  V30 2560 C 233.973 -0.068323 -1.69963 0
M  V30 2561 O 235.158 -0.248239 -1.92607 0
M  V30 2562 C 232.288 -0.853099 -3.36659 0
M  V30 2563 C 231.242 -1.9161 -3.82713 0
M  V30 2564 C 230.568 -1.44773 -5.14728 0
M  V30 2565 C 231.868 -3.32535 -4.02763 0
M  V30 2566 H 233.562 -2.11237 -2.12177 0
M  V30 2567 H 231.108 -1.01699 -1.01948 0
M  V30 2568 H 233.061 -0.755165 -4.14578 0
M  V30 2569 H 231.785 0.120236 -3.26379 0
M  V30 2570 H 230.444 -2.00346 -3.07013 0
M  V30 2571 H 230.092 -0.462995 -5.00865 0
M  V30 2572 H 229.792 -2.15865 -5.46513 0
M  V30 2573 H 231.316 -1.36334 -5.95185 0
M  V30 2574 H 232.73 -3.26626 -4.71156 0
M  V30 2575 H 231.127 -4.01607 -4.45905 0
M  V30 2576 H 232.197 -3.75326 -3.07016 0
M  V30 2577 N 233.54 1.10788 -1.12088 0
M  V30 2578 C 234.472 2.16816 -0.743213 0
M  V30 2579 C 235.485 1.6119 0.228412 0
M  V30 2580 O 236.674 1.78497 0.0102931 0
M  V30 2581 C 233.774 3.38809 -0.0787313 0
M  V30 2582 C 232.947 4.23885 -1.0789 0
M  V30 2583 C 232.006 5.24334 -0.442713 0
M  V30 2584 O 231.032 5.58497 -1.09864 0
M  V30 2585 N 232.234 5.75079 0.791457 0
M  V30 2586 H 234.999 2.49825 -1.65552 0
M  V30 2587 H 232.56 1.26373 -1.012 0
M  V30 2588 H 234.552 4.03107 0.358766 0
M  V30 2589 H 233.122 3.03805 0.736275 0
M  V30 2590 H 232.342 3.55939 -1.69414 0
M  V30 2591 H 233.63 4.77562 -1.75533 0
M  V30 2592 H 233.028 5.49517 1.3434 0
M  V30 2593 H 231.585 6.4118 1.17183 0
M  V30 2594 N 235.018 0.912232 1.28515 0
M  V30 2595 C 236.295 0.463597 1.90027 0
M  V30 2596 C 236.675 -1.05753 1.82701 0
M  V30 2597 O 236.023 -1.90492 1.26194 0
M  V30 2598 C 236.233 0.992253 3.34597 0
M  V30 2599 C 237.581 1.04344 4.11579 0
M  V30 2600 O 238.605 0.94079 3.43551 0
M  V30 2601 O 237.464 1.1995 5.33174 0
M  V30 2602 H 234.558 0.146666 0.813891 0
M  V30 2603 H 237.104 1.00292 1.36893 0
M  V30 2604 H 235.876 2.03623 3.34146 0
M  V30 2605 H 235.499 0.433672 3.95228 0
M  V30 2606 N 236.496 -1.42363 0.676048 0
M  V30 2607 C 237.459 -2.29199 0.00766941 0
M  V30 2608 C 238.459 -1.43389 -0.727745 0
M  V30 2609 O 239.649 -1.64764 -0.56556 0
M  V30 2610 C 236.781 -3.2591 -0.999785 0
M  V30 2611 H 237.974 -2.89794 0.771988 0
M  V30 2612 H 235.527 -1.50024 0.438468 0
M  V30 2613 H 236.262 -2.70256 -1.79255 0
M  V30 2614 H 236.047 -3.89202 -0.475829 0
M  V30 2615 H 237.537 -3.91028 -1.46583 0
M  V30 2616 N 237.974 -0.419461 -1.51915 0
M  V30 2617 C 239.223 0.154346 -2.01109 0
M  V30 2618 C 239.536 1.45338 -1.30905 0
M  V30 2619 O 240.742 2.10906 -1.7097 0
M  V30 2620 C 239.198 0.325615 -3.58424 0
M  V30 2621 C 238.806 -0.961934 -4.37551 0
M  V30 2622 C 240.55 0.854155 -4.15818 0
M  V30 2623 C 238.457 -0.757287 -5.86531 0
M  V30 2624 H 237.387 0.0614563 -0.751491 0
M  V30 2625 H 240.038 -0.54649 -1.75173 0
M  V30 2626 H 238.42 1.08903 -3.80731 0
M  V30 2627 H 239.594 -1.7323 -4.26999 0
M  V30 2628 H 237.909 -1.41766 -3.91524 0
M  V30 2629 H 240.506 1.02346 -5.24814 0
M  V30 2630 H 240.849 1.83172 -3.73837 0
M  V30 2631 H 241.382 0.149528 -3.97519 0
M  V30 2632 H 238.121 -1.70671 -6.32892 0
M  V30 2633 H 237.641 -0.0264061 -5.99794 0
M  V30 2634 H 239.32 -0.403482 -6.45741 0
M  V30 2635 N 239.452 1.56882 -0.150215 0
M  V30 2636 C 240.868 1.58263 0.20617 0
M  V30 2637 C 241.068 1.16464 1.64434 0
M  V30 2638 O 240.124 0.866422 2.3717 0
M  V30 2639 C 241.437 3.00649 -0.0555025 0
M  V30 2640 C 242.985 3.12999 0.00795388 0
M  V30 2641 C 243.46 4.5744 -0.226429 0
M  V30 2642 N 244.951 4.62875 -0.173469 0
M  V30 2643 C 245.686 5.72454 -0.329288 0
M  V30 2644 N 245.182 6.90669 -0.543005 0
M  V30 2645 N 246.975 5.61467 -0.266666 0
M  V30 2646 H 239.126 1.82345 -1.08922 0
M  V30 2647 H 241.389 0.844149 -0.431413 0
M  V30 2648 H 241.095 3.3563 -1.05096 0
M  V30 2649 H 240.969 3.71337 0.66246 0
M  V30 2650 H 243.356 2.77857 0.993966 0
M  V30 2651 H 243.437 2.4479 -0.742388 0
M  V30 2652 H 243.081 4.93287 -1.20956 0
M  V30 2653 H 243.011 5.2378 0.544274 0
M  V30 2654 H 245.502 3.77898 -0.0130709 0
M  V30 2655 H 245.815 7.70045 -0.651922 0
M  V30 2656 H 244.16 6.92581 -0.579366 0
M  V30 2657 H 247.351 4.67992 -0.100441 0
M  V30 2658 H 247.524 6.46816 -0.391535 0
M  V30 2659 N 240.93 -0.123565 1.57115 0
M  V30 2660 C 241.862 -1.17739 1.96648 0
M  V30 2661 C 242.875 -1.37906 0.865201 0
M  V30 2662 O 244.064 -1.37062 1.14351 0
M  V30 2663 C 241.164 -2.53821 2.24562 0
M  V30 2664 C 240.337 -2.54317 3.55867 0
M  V30 2665 C 239.396 -3.72112 3.72047 0
M  V30 2666 O 238.422 -3.55907 4.44206 0
M  V30 2667 N 239.624 -4.90498 3.10471 0
M  V30 2668 H 242.389 -0.841147 2.87654 0
M  V30 2669 H 239.95 -0.31289 1.58848 0
M  V30 2670 H 241.942 -3.31175 2.32606 0
M  V30 2671 H 240.512 -2.79645 1.39705 0
M  V30 2672 H 239.732 -1.62711 3.59053 0
M  V30 2673 H 241.02 -2.51701 4.42181 0
M  V30 2674 H 240.418 -5.06567 2.51806 0
M  V30 2675 H 238.975 -5.65544 3.24043 0
M  V30 2676 N 242.408 -1.52605 -0.393616 0
M  V30 2677 C 243.338 -1.80022 -1.48709 0
M  V30 2678 C 244.319 -0.651995 -1.57108 0
M  V30 2679 O 245.504 -0.89913 -1.72132 0
M  V30 2680 C 242.634 -1.96492 -2.86371 0
M  V30 2681 C 241.588 -3.12161 -2.92813 0
M  V30 2682 C 240.914 -3.13877 -4.3288 0
M  V30 2683 C 242.214 -4.51322 -2.6288 0
M  V30 2684 H 243.908 -2.71589 -1.26015 0
M  V30 2685 H 241.454 -1.30684 -0.604778 0
M  V30 2686 H 243.407 -2.14255 -3.62867 0
M  V30 2687 H 242.131 -1.01611 -3.10391 0
M  V30 2688 H 240.79 -2.94173 -2.18764 0
M  V30 2689 H 240.438 -2.16687 -4.53933 0
M  V30 2690 H 240.138 -3.91576 -4.38112 0
M  V30 2691 H 241.662 -3.33789 -5.1129 0
M  V30 2692 H 243.076 -4.69435 -3.29096 0
M  V30 2693 H 241.473 -5.31053 -2.79468 0
M  V30 2694 H 242.543 -4.58353 -1.58242 0
M  V30 2695 N 243.887 0.651787 -1.4349 0
M  V30 2696 C 245.135 1.40888 -1.44897 0
M  V30 2697 C 245.456 1.94856 -0.0749086 0
M  V30 2698 O 244.726 1.74518 0.889956 0
M  V30 2699 H 243.306 0.522887 -0.533478 0
M  V30 2700 H 245.968 0.768609 -1.79104 0
M  V30 2701 H 245.064 2.25052 -2.16236 0
M  V30 2702 N 245.365 1.30045 0.890287 0
M  V30 2703 C 246.613 1.18327 1.63839 0
M  V30 2704 C 246.934 -0.263455 1.93212 0
M  V30 2705 O 246.204 -1.17856 1.56482 0
M  V30 2706 H 244.784 0.434933 0.607324 0
M  V30 2707 H 247.446 1.631 1.06698 0
M  V30 2708 H 246.542 1.74024 2.59079 0
M  V30 2709 N 246.843 -1.10192 1.12674 0
M  V30 2710 C 248.092 -1.81573 0.8783 0
M  V30 2711 C 248.405 -1.86249 -0.597557 0
M  V30 2712 O 249.611 -2.5386 -0.962681 0
M  V30 2713 C 248.067 -3.26149 1.52167 0
M  V30 2714 C 247.675 -3.29763 3.03249 0
M  V30 2715 C 249.419 -4.0234 1.3536 0
M  V30 2716 C 247.326 -4.68815 3.60508 0
M  V30 2717 H 246.256 -0.680394 0.324931 0
M  V30 2718 H 248.907 -1.23902 1.35353 0
M  V30 2719 H 247.289 -3.83832 0.974104 0
M  V30 2720 H 248.463 -2.8189 3.6452 0
M  V30 2721 H 246.778 -2.67059 3.19481 0
M  V30 2722 H 249.375 -5.05058 1.75559 0
M  V30 2723 H 249.718 -4.15235 0.297554 0
M  V30 2724 H 250.251 -3.51079 1.87052 0
M  V30 2725 H 246.99 -4.61121 4.65884 0
M  V30 2726 H 246.51 -5.17045 3.04014 0
M  V30 2727 H 248.189 -5.37785 3.59717 0
M  V30 2728 N 248.321 -0.919034 -1.28029 0
M  V30 2729 C 249.567 -0.555757 -1.95036 0
M  V30 2730 C 249.9 0.899198 -1.72128 0
M  V30 2731 O 249.175 1.64023 -1.04531 0
M  V30 2732 C 249.458 -0.872024 -3.49382 0
M  V30 2733 C 249.311 -2.3801 -3.81669 0
M  V30 2734 C 250.63 -0.37185 -4.38526 0
M  V30 2735 H 247.749 -0.203386 -0.708381 0
M  V30 2736 H 250.391 -1.14924 -1.51303 0
M  V30 2737 H 248.541 -0.366946 -3.86763 0
M  V30 2738 H 250.213 -2.9562 -3.54128 0
M  V30 2739 H 248.456 -2.83289 -3.28526 0
M  V30 2740 H 249.127 -2.55192 -4.8947 0
M  V30 2741 H 251.603 -0.804602 -4.08247 0
M  V30 2742 H 250.479 -0.622173 -5.45362 0
M  V30 2743 H 250.74 0.727934 -4.36066 0
M  V30 2744 N 249.799 1.42003 -0.683588 0
M  V30 2745 C 251.215 1.55625 -0.353976 0
M  V30 2746 C 251.415 1.66151 1.14 0
M  V30 2747 O 250.471 1.63329 1.92561 0
M  V30 2748 C 251.784 2.80171 -1.092 0
M  V30 2749 C 253.332 2.93954 -1.07518 0
M  V30 2750 C 253.807 4.21372 -1.79471 0
M  V30 2751 N 255.298 4.28303 -1.76381 0
M  V30 2752 C 256.033 5.25729 -2.28904 0
M  V30 2753 N 255.529 6.29254 -2.89846 0
M  V30 2754 N 257.322 5.17586 -2.19228 0
M  V30 2755 H 249.473 1.33415 -1.6527 0
M  V30 2756 H 251.736 0.64282 -0.696769 0
M  V30 2757 H 251.442 2.78561 -2.14701 0
M  V30 2758 H 251.316 3.7133 -0.662862 0
M  V30 2759 H 253.703 2.95086 -0.028475 0
M  V30 2760 H 253.784 2.04002 -1.54328 0
M  V30 2761 H 253.428 4.21001 -2.84114 0
M  V30 2762 H 253.358 5.10275 -1.30104 0
M  V30 2763 H 255.849 3.54119 -1.31939 0
M  V30 2764 H 256.162 6.99964 -3.27522 0
M  V30 2765 H 254.507 6.29791 -2.93919 0
M  V30 2766 H 257.698 4.35631 -1.71299 0
M  V30 2767 H 257.871 5.93348 -2.60466 0
M  V30 2768 N 251.277 0.427512 1.51691 0
M  V30 2769 C 252.554 -0.201684 1.94557 0
M  V30 2770 C 252.934 -1.60981 1.36559 0
M  V30 2771 O 252.282 -2.21814 0.548702 0
M  V30 2772 C 252.492 -0.189394 3.48486 0
M  V30 2773 C 253.84 -0.39978 4.22714 0
M  V30 2774 O 254.864 -0.267945 3.55191 0
M  V30 2775 O 253.723 -0.661249 5.42485 0
M  V30 2776 H 250.817 -0.135261 0.815864 0
M  V30 2777 H 253.363 0.484782 1.62628 0
M  V30 2778 H 252.135 0.795431 3.8313 0
M  V30 2779 H 251.758 -0.919187 3.86829 0
M  V30 2780 N 252.755 -1.56801 0.158532 0
M  V30 2781 C 254.003 -1.96102 -0.488712 0
M  V30 2782 C 254.324 -1.04498 -1.64636 0
M  V30 2783 O 253.594 -0.108783 -1.95598 0
M  V30 2784 H 252.174 -0.724102 -0.183535 0
M  V30 2785 H 254.836 -1.93457 0.236728 0
M  V30 2786 H 253.932 -3.00097 -0.857219 0
M  V30 2787 N 254.233 0.115231 -1.57178 0
M  V30 2788 C 255.143 1.15994 -2.03918 0
M  V30 2789 C 256.159 1.45103 -0.960268 0
M  V30 2790 O 257.335 1.56144 -1.27204 0
M  V30 2791 C 254.4 2.46568 -2.43732 0
M  V30 2792 C 253.461 2.24822 -3.65723 0
M  V30 2793 C 252.694 3.4917 -4.03629 0
M  V30 2794 O 252.917 4.56623 -3.41835 0
M  V30 2795 O 251.851 3.39949 -4.96708 0
M  V30 2796 H 255.677 0.793019 -2.93164 0
M  V30 2797 H 253.262 0.3263 -1.45793 0
M  V30 2798 H 255.144 3.23492 -2.70057 0
M  V30 2799 H 253.819 2.82726 -1.57631 0
M  V30 2800 H 252.726 1.45744 -3.44542 0
M  V30 2801 H 254.059 1.93566 -4.52541 0
M  V30 2802 N 255.711 1.52812 0.385517 0
M  V30 2803 C 256.658 1.77838 1.47113 0
M  V30 2804 C 257.628 0.621757 1.54024 0
M  V30 2805 O 258.813 0.861846 1.70226 0
M  V30 2806 C 255.953 1.95618 2.84302 0
M  V30 2807 C 255.066 3.23316 2.86515 0
M  V30 2808 C 254.201 3.31394 4.15152 0
M  V30 2809 C 253.24 4.53201 4.1143 0
M  V30 2810 N 252.377 4.58542 5.3168 0
M  V30 2811 H 257.217 2.70482 1.25073 0
M  V30 2812 H 254.754 1.34006 0.606692 0
M  V30 2813 H 256.712 2.03912 3.63972 0
M  V30 2814 H 255.342 1.06331 3.04784 0
M  V30 2815 H 254.394 3.24076 1.99195 0
M  V30 2816 H 255.706 4.13045 2.79634 0
M  V30 2817 H 254.86 3.3889 5.03228 0
M  V30 2818 H 253.599 2.39645 4.24761 0
M  V30 2819 H 252.604 4.45827 3.21742 0
M  V30 2820 H 253.829 5.46271 4.03442 0
M  V30 2821 H 251.775 3.69686 5.41912 0
M  V30 2822 H 251.692 5.42148 5.26889 0
M  V30 2823 H 252.96 4.70296 6.21644 0
M  V30 2824 N 257.189 -0.644168 1.43834 0
M  V30 2825 C 258.435 -1.40603 1.46146 0
M  V30 2826 C 258.768 -1.93997 0.0887717 0
M  V30 2827 O 258.043 -1.72854 -0.891724 0
M  V30 2828 C 258.326 -2.58086 2.51124 0
M  V30 2829 C 258.179 -2.10126 3.97702 0
M  V30 2830 C 259.498 -3.60291 2.52742 0
M  V30 2831 H 256.617 -0.509905 0.532134 0
M  V30 2832 H 259.259 -0.729502 1.75437 0
M  V30 2833 H 257.409 -3.15801 2.26278 0
M  V30 2834 H 259.081 -1.57342 4.33637 0
M  V30 2835 H 257.324 -1.41419 4.10101 0
M  V30 2836 H 257.995 -2.94649 4.66783 0
M  V30 2837 H 260.471 -3.12352 2.7491 0
M  V30 2838 H 259.347 -4.40032 3.28121 0
M  V30 2839 H 259.608 -4.1349 1.56455 0
M  V30 2840 N 258.668 -1.30515 -0.883378 0
M  V30 2841 C 259.914 -1.19607 -1.63774 0
M  V30 2842 C 260.247 0.248314 -1.92606 0
M  V30 2843 O 259.522 1.17742 -1.54813 0
M  V30 2844 C 259.805 -2.02669 -2.97653 0
M  V30 2845 C 259.658 -3.55335 -2.75784 0
M  V30 2846 C 260.977 -1.86573 -3.98596 0
M  V30 2847 H 258.096 -0.435856 -0.594305 0
M  V30 2848 H 260.738 -1.60165 -1.02212 0
M  V30 2849 H 258.888 -1.68208 -3.50197 0
M  V30 2850 H 260.56 -3.99863 -2.30016 0
M  V30 2851 H 258.803 -3.79438 -2.1026 0
M  V30 2852 H 259.474 -4.08745 -3.70988 0
M  V30 2853 H 261.95 -2.16703 -3.55217 0
M  V30 2854 H 260.826 -2.47014 -4.90179 0
M  V30 2855 H 261.087 -0.825321 -4.34328 0
M  V30 2856 N 260.146 1.09593 -1.13257 0
M  V30 2857 C 261.056 2.19739 -0.821691 0
M  V30 2858 C 262.072 1.72926 0.19302 0
M  V30 2859 O 263.248 2.01385 0.0244895 0
M  V30 2860 C 260.313 3.45482 -0.290333 0
M  V30 2861 C 259.374 4.06985 -1.36607 0
M  V30 2862 C 258.607 5.26726 -0.859975 0
M  V30 2863 O 258.83 5.69594 0.303082 0
M  V30 2864 O 257.764 5.7931 -1.63351 0
M  V30 2865 H 261.59 2.48781 -1.74189 0
M  V30 2866 H 259.175 1.18496 -0.909894 0
M  V30 2867 H 261.057 4.214 0.000674022 0
M  V30 2868 H 259.732 3.18047 0.602306 0
M  V30 2869 H 258.639 3.32712 -1.71037 0
M  V30 2870 H 259.972 4.38643 -2.23279 0
M  V30 2871 N 261.624 0.925811 1.2754 0
M  V30 2872 C 262.873 0.561084 1.93739 0
M  V30 2873 C 263.186 -0.901685 1.73577 0
M  V30 2874 O 264.392 -1.37511 2.34101 0
M  V30 2875 C 262.848 0.952668 3.47062 0
M  V30 2876 C 262.456 2.43599 3.75983 0
M  V30 2877 C 264.2 0.659103 4.19352 0
M  V30 2878 C 262.107 2.76707 5.22673 0
M  V30 2879 H 261.037 0.206122 0.725279 0
M  V30 2880 H 263.688 1.12637 1.44863 0
M  V30 2881 H 262.07 0.316053 3.94737 0
M  V30 2882 H 263.244 3.12035 3.39073 0
M  V30 2883 H 261.559 2.70125 3.16893 0
M  V30 2884 H 264.156 0.882985 5.27359 0
M  V30 2885 H 264.499 -0.403607 4.14339 0
M  V30 2886 H 265.032 1.25473 3.77494 0
M  V30 2887 H 261.771 3.8188 5.32774 0
M  V30 2888 H 261.291 2.12919 5.60737 0
M  V30 2889 H 262.97 2.6435 5.90532 0
M  V30 2890 N 263.102 -1.41638 0.69111 0
M  V30 2891 C 264.05 -2.32597 0.0115199 0
M  V30 2892 C 265.044 -1.5072 -0.773296 0
M  V30 2893 O 266.25 -1.66685 -0.67942 0
M  V30 2894 H 262.625 -0.751849 -0.0150746 0
M  V30 2895 H 264.596 -2.87593 0.795791 0
M  V30 2896 C 263.345 -3.35467 -0.914172 0
M  V30 2897 H 262.668 -3.9852 -0.319687 0
M  V30 2898 H 264.108 -4.01662 -1.35808 0
M  V30 2899 C 262.567 -2.69004 -2.02826 0
M  V30 2900 O 263.097 -2.53444 -3.11655 0
M  V30 2901 N 261.303 -2.2777 -1.80469 0
M  V30 2902 H 260.85 -2.40626 -0.919615 0
M  V30 2903 H 260.808 -1.83635 -2.55197 0
M  V30 2904 N 264.58 -0.43555 -1.51462 0
M  V30 2905 C 265.991 0.0279871 -1.86679 0
M  V30 2906 C 266.342 1.42104 -1.35281 0
M  V30 2907 O 265.467 2.04667 -0.702878 0
M  V30 2908 C 266.062 0.0575626 -3.38751 0
M  V30 2909 C 264.621 0.465507 -3.7351 0
M  V30 2910 C 263.768 -0.342996 -2.75171 0
M  V30 2911 H 266.719 -0.651473 -1.44712 0
M  V30 2912 H 266.74 0.867421 -3.70481 0
M  V30 2913 H 266.252 -0.956448 -3.7613 0
M  V30 2914 H 264.353 1.48519 -3.41721 0
M  V30 2915 H 264.466 0.191546 -4.78717 0
M  V30 2916 H 262.83 0.198442 -2.53926 0
M  V30 2917 H 263.613 -1.35585 -3.15391 0
M  V30 2918 N 266.058 1.56714 -0.166846 0
M  V30 2919 C 267.306 1.96358 0.478305 0
M  V30 2920 C 267.627 1.0537 1.6408 0
M  V30 2921 O 266.897 0.119154 1.95537 0
M  V30 2922 H 265.477 0.725065 0.179692 0
M  V30 2923 H 268.139 1.93329 -0.246985 0
M  V30 2924 H 267.235 3.00547 0.841292 0
M  V30 2925 N 267.536 -0.106894 1.57237 0
M  V30 2926 C 268.466 -1.13148 2.04254 0
M  V30 2927 C 269.447 -1.42476 0.929224 0
M  V30 2928 O 270.632 -1.52709 1.19973 0
M  V30 2929 C 267.762 -2.4545 2.45706 0
M  V30 2930 C 266.716 -2.30558 3.60592 0
M  V30 2931 C 266.042 -3.67931 3.87983 0
M  V30 2932 C 267.342 -1.75597 4.91897 0
M  V30 2933 H 269.036 -0.740374 2.90101 0
M  V30 2934 H 266.582 -0.354696 1.39563 0
M  V30 2935 H 268.535 -3.17389 2.77205 0
M  V30 2936 H 267.259 -2.86475 1.56843 0
M  V30 2937 H 265.918 -1.61067 3.29322 0
M  V30 2938 H 265.566 -4.06462 2.96306 0
M  V30 2939 H 265.266 -3.58817 4.65322 0
M  V30 2940 H 266.79 -4.41356 4.21945 0
M  V30 2941 H 268.204 -2.37364 5.21854 0
M  V30 2942 H 266.601 -1.77272 5.73319 0
M  V30 2943 H 267.671 -0.714451 4.79608 0
M  V30 2944 N 269.014 -1.53014 -0.377408 0
M  V30 2945 C 269.944 -1.81589 -1.46791 0
M  V30 2946 C 270.925 -0.668622 -1.56408 0
M  V30 2947 O 272.11 -0.917337 -1.71168 0
M  V30 2948 C 269.24 -1.99519 -2.8427 0
M  V30 2949 C 268.194 -3.15249 -2.89486 0
M  V30 2950 C 267.52 -3.18451 -4.29527 0
M  V30 2951 C 268.82 -4.54084 -2.58079 0
M  V30 2952 H 270.514 -2.7291 -1.23127 0
M  V30 2953 H 268.06 -1.31319 -0.590883 0
M  V30 2954 H 270.013 -2.18092 -3.60575 0
M  V30 2955 H 268.737 -1.04897 -3.09296 0
M  V30 2956 H 267.396 -2.96477 -2.15631 0
M  V30 2957 H 267.044 -2.2149 -4.5161 0
M  V30 2958 H 266.744 -3.962 -4.33934 0
M  V30 2959 H 268.268 -3.39193 -5.07721 0
M  V30 2960 H 269.682 -4.72899 -3.24098 0
M  V30 2961 H 268.079 -5.33987 -2.7382 0
M  V30 2962 H 269.149 -4.60006 -1.53372 0
M  V30 2963 N 270.492 0.636531 -1.44174 0
M  V30 2964 C 271.738 1.39826 -1.4689 0
M  V30 2965 C 272.071 1.93947 -0.0990585 0
M  V30 2966 O 271.346 1.73325 0.882544 0
M  V30 2967 C 271.629 2.56751 -2.5249 0
M  V30 2968 C 271.482 2.08014 -3.98811 0
M  V30 2969 C 272.801 3.58946 -2.54649 0
M  V30 2970 H 269.92 0.507075 -0.53483 0
M  V30 2971 H 272.562 0.720188 -1.75822 0
M  V30 2972 H 270.712 3.14597 -2.2795 0
M  V30 2973 H 272.384 1.5504 -4.34466 0
M  V30 2974 H 270.627 1.39242 -4.10846 0
M  V30 2975 H 271.298 2.92169 -4.68339 0
M  V30 2976 H 273.774 3.1089 -2.76563 0
M  V30 2977 H 272.65 4.38286 -3.3045 0
M  V30 2978 H 272.911 4.12655 -1.58646 0
M  V30 2979 N 271.97 1.30982 0.876444 0
M  V30 2980 C 273.198 1.23242 1.6619 0
M  V30 2981 C 273.613 -0.203345 1.87702 0
M  V30 2982 O 272.97 -1.13317 1.43057 0
M  V30 2983 C 273.021 1.96623 3.03351 0
M  V30 2984 O 272.742 3.34594 2.82804 0
M  V30 2985 C 274.243 1.95644 3.97792 0
M  V30 2986 H 271.463 0.426126 0.518322 0
M  V30 2987 H 274.007 1.7275 1.09442 0
M  V30 2988 H 272.162 1.50892 3.56806 0
M  V30 2989 H 272.576 3.71873 3.69879 0
M  V30 2990 H 274.05 2.51511 4.91372 0
M  V30 2991 H 274.527 0.937395 4.2908 0
M  V30 2992 H 275.133 2.41225 3.50272 0
M  V30 2993 N 273.449 -1.08991 1.13837 0
M  V30 2994 C 274.695 -1.81526 0.90422 0
M  V30 2995 C 275.028 -1.85706 -0.568066 0
M  V30 2996 O 274.303 -1.32855 -1.42056 0
M  V30 2997 C 274.586 -3.27447 1.49835 0
M  V30 2998 C 274.439 -3.31512 3.04006 0
M  V30 2999 C 275.758 -4.24256 1.17025 0
M  V30 3000 H 272.877 -0.659029 0.329923 0
M  V30 3001 H 275.519 -1.27644 1.40737 0
M  V30 3002 H 273.669 -3.73462 1.07044 0
M  V30 3003 H 275.341 -2.93867 3.55584 0
M  V30 3004 H 273.584 -2.70963 3.38765 0
M  V30 3005 H 274.255 -4.34329 3.40679 0
M  V30 3006 H 276.731 -3.86549 1.54009 0
M  V30 3007 H 275.607 -5.24684 1.61237 0
M  V30 3008 H 275.868 -4.42019 0.0846274 0
M  V30 3009 N 274.927 -0.932562 -1.27047 0
M  V30 3010 C 275.874 -0.434072 -2.26681 0
M  V30 3011 C 276.844 0.501639 -1.58344 0
M  V30 3012 O 278.029 0.419734 -1.86126 0
M  V30 3013 C 275.169 0.30261 -3.43771 0
M  V30 3014 C 274.282 -0.667774 -4.26808 0
M  V30 3015 C 273.417 0.0892393 -5.31125 0
M  V30 3016 C 272.456 -0.873532 -6.05835 0
M  V30 3017 N 271.593 -0.148832 -7.01942 0
M  V30 3018 H 276.433 -1.28868 -2.68695 0
M  V30 3019 H 273.97 -0.646713 -1.32121 0
M  V30 3020 H 275.928 0.746092 -4.10474 0
M  V30 3021 H 274.558 1.12142 -3.02695 0
M  V30 3022 H 273.61 -1.22978 -3.59973 0
M  V30 3023 H 274.922 -1.40337 -4.78651 0
M  V30 3024 H 274.076 0.592409 -6.03801 0
M  V30 3025 H 272.815 0.85777 -4.80097 0
M  V30 3026 H 271.82 -1.38791 -5.31994 0
M  V30 3027 H 273.045 -1.64193 -6.58952 0
M  V30 3028 H 270.991 0.601365 -6.53238 0
M  V30 3029 H 270.908 -0.82391 -7.51497 0
M  V30 3030 H 272.176 0.333527 -7.78786 0
M  V30 3031 N 276.405 1.4127 -0.698611 0
M  V30 3032 C 277.633 2.05503 -0.239992 0
M  V30 3033 C 278.048 1.52584 1.11191 0
M  V30 3034 O 277.405 0.675323 1.69545 0
M  V30 3035 C 277.456 3.60987 -0.192429 0
M  V30 3036 O 277.177 4.1195 -1.49094 0
M  V30 3037 C 278.678 4.42371 0.28681 0
M  V30 3038 H 275.898 0.661748 -0.111045 0
M  V30 3039 H 278.442 1.80987 -0.95205 0
M  V30 3040 H 276.597 3.84533 0.470472 0
M  V30 3041 H 277.011 5.06018 -1.38007 0
M  V30 3042 H 278.485 5.51344 0.26896 0
M  V30 3043 H 278.962 4.18699 1.32619 0
M  V30 3044 H 279.568 4.23897 -0.345201 0
M  V30 3045 N 277.883 0.443576 1.51229 0
M  V30 3046 C 279.111 -0.11929 2.06556 0
M  V30 3047 C 279.526 -1.35921 1.31038 0
M  V30 3048 O 278.883 -1.78675 0.371704 0
M  V30 3049 C 278.934 -0.435228 3.5887 0
M  V30 3050 O 278.655 0.755486 4.31537 0
M  V30 3051 C 280.156 -1.04808 4.30732 0
M  V30 3052 H 277.376 -0.0051584 0.67098 0
M  V30 3053 H 279.92 0.624453 1.94733 0
M  V30 3054 H 278.075 -1.12887 3.70588 0
M  V30 3055 H 278.489 0.483491 5.22267 0
M  V30 3056 H 279.963 -1.2191 5.3837 0
M  V30 3057 H 280.44 -2.03081 3.89429 0
M  V30 3058 H 281.046 -0.393637 4.23474 0
M  V30 3059 N 279.361 -1.56624 0.175154 0
M  V30 3060 C 280.586 -2.01813 -0.478137 0
M  V30 3061 C 281.011 -1.05457 -1.55757 0
M  V30 3062 O 280.369 -0.0347439 -1.81267 0
M  V30 3063 C 280.417 -3.45581 -1.02987 0
M  V30 3064 O 279.521 -3.52305 -2.14371 0
M  V30 3065 H 278.862 -0.65413 -0.114059 0
M  V30 3066 H 281.392 -2.02673 0.280173 0
M  V30 3067 H 281.402 -3.84965 -1.35151 0
M  V30 3068 H 280.077 -4.1521 -0.239556 0
M  V30 3069 H 278.654 -3.24783 -1.83222 0
M  V30 3070 N 280.839 0.0985539 -1.57292 0
M  V30 3071 C 282.255 0.45267 -1.53046 0
M  V30 3072 C 282.455 1.80713 -0.891342 0
M  V30 3073 O 281.511 2.4785 -0.482375 0
M  V30 3074 C 282.824 0.418341 -2.97776 0
M  V30 3075 C 284.372 0.500443 -3.08973 0
M  V30 3076 C 284.847 0.496297 -4.55303 0
M  V30 3077 N 286.338 0.557151 -4.59837 0
M  V30 3078 C 287.073 0.575726 -5.70502 0
M  V30 3079 N 286.569 0.550714 -6.90608 0
M  V30 3080 N 288.362 0.620277 -5.58667 0
M  V30 3081 H 280.513 -0.788673 -1.97215 0
M  V30 3082 H 282.776 -0.293188 -0.901524 0
M  V30 3083 H 282.482 -0.509659 -3.47988 0
M  V30 3084 H 282.356 1.2386 -3.56284 0
M  V30 3085 H 284.743 1.41886 -2.58751 0
M  V30 3086 H 284.824 -0.347894 -2.53423 0
M  V30 3087 H 284.468 -0.418162 -5.06176 0
M  V30 3088 H 284.398 1.3618 -5.08687 0
M  V30 3089 H 286.889 0.581816 -3.73394 0
M  V30 3090 H 287.202 0.568075 -7.70709 0
M  V30 3091 H 285.547 0.517816 -6.93068 0
M  V30 3092 H 288.738 0.637322 -4.63741 0
M  V30 3093 H 288.911 0.631283 -6.44918 0
M  V30 3094 N 282.317 1.53212 0.369288 0
M  V30 3095 C 283.542 1.73423 1.1375 0
M  V30 3096 C 283.967 0.460404 1.82378 0
M  V30 3097 O 283.325 -0.585298 1.71592 0
M  V30 3098 C 283.373 2.89769 2.1463 0
M  V30 3099 O 282.477 2.58119 3.21634 0
M  V30 3100 H 281.818 0.576061 0.330227 0
M  V30 3101 H 284.348 2.00083 0.427547 0
M  V30 3102 H 284.358 3.15829 2.58294 0
M  V30 3103 H 283.033 3.8217 1.64071 0
M  V30 3104 H 281.61 2.42864 2.82969 0
M  V30 3105 N 283.795 -0.628877 1.44509 0
M  V30 3106 C 285.025 -1.41349 1.50678 0
M  V30 3107 C 285.433 -1.88745 0.131075 0
M  V30 3108 O 284.776 -1.61592 -0.87371 0
M  V30 3109 C 284.838 -2.66608 2.41165 0
M  V30 3110 C 284.502 -2.40993 3.88293 0
M  V30 3111 C 285.499 -2.0268 4.78766 0
M  V30 3112 C 283.184 -2.54563 4.33016 0
M  V30 3113 C 285.178 -1.78269 6.11963 0
M  V30 3114 C 282.865 -2.29766 5.6626 0
M  V30 3115 C 283.863 -1.91678 6.55552 0
M  V30 3116 O 283.551 -1.67158 7.86329 0
M  V30 3117 H 283.283 -0.439851 0.51333 0
M  V30 3118 H 285.837 -0.776084 1.90174 0
M  V30 3119 H 284.067 -3.32994 1.96601 0
M  V30 3120 H 285.756 -3.28615 2.38259 0
M  V30 3121 H 286.522 -1.91751 4.45485 0
M  V30 3122 H 282.401 -2.83179 3.63773 0
M  V30 3123 H 285.945 -1.48465 6.81619 0
M  V30 3124 H 281.842 -2.40306 5.99102 0
M  V30 3125 H 282.61 -1.81386 7.98149 0
M  V30 3126 N 285.273 -1.31445 -0.869486 0
M  V30 3127 C 286.205 -1.14955 -1.98287 0
M  V30 3128 C 287.218 -0.0885037 -1.62559 0
M  V30 3129 O 288.407 -0.336044 -1.75308 0
M  V30 3130 C 285.507 -0.734255 -3.3085 0
M  V30 3131 C 284.68 -1.88042 -3.94917 0
M  V30 3132 C 283.739 -1.4511 -5.05796 0
M  V30 3133 O 282.765 -2.16082 -5.2659 0
M  V30 3134 N 283.967 -0.338763 -5.79511 0
M  V30 3135 H 286.732 -2.10856 -2.12979 0
M  V30 3136 H 284.293 -1.23786 -1.04349 0
M  V30 3137 H 286.285 -0.42975 -4.02412 0
M  V30 3138 H 284.855 0.133158 -3.12316 0
M  V30 3139 H 284.075 -2.35222 -3.1633 0
M  V30 3140 H 285.363 -2.6481 -4.34457 0
M  V30 3141 H 284.761 0.252274 -5.65137 0
M  V30 3142 H 283.318 -0.0937925 -6.51733 0
M  V30 3143 N 286.751 1.08385 -1.14413 0
M  V30 3144 C 287.714 2.13486 -0.834048 0
M  V30 3145 C 288.714 1.59988 0.161418 0
M  V30 3146 O 289.904 1.74071 -0.0669575 0
M  V30 3147 C 287.036 3.4003 -0.243354 0
M  V30 3148 H 288.229 2.42425 -1.7655 0
M  V30 3149 H 285.782 1.24101 -0.950189 0
M  V30 3150 H 286.517 3.16726 0.696807 0
M  V30 3151 H 286.302 3.80157 -0.960367 0
M  V30 3152 H 287.792 4.17577 -0.0436242 0
M  V30 3153 N 288.23 0.939286 1.26551 0
M  V30 3154 C 289.177 0.446088 2.26448 0
M  V30 3155 C 290.147 -0.493234 1.58608 0
M  V30 3156 O 291.332 -0.409857 1.86346 0
M  V30 3157 C 288.472 -0.284375 3.43926 0
M  V30 3158 C 287.585 0.690399 4.26448 0
M  V30 3159 C 286.72 -0.0610712 5.31165 0
M  V30 3160 C 285.759 0.905649 6.05363 0
M  V30 3161 N 284.896 0.186055 7.01853 0
M  V30 3162 H 289.736 1.30291 2.68008 0
M  V30 3163 H 287.273 0.65371 1.31776 0
M  V30 3164 H 289.231 -0.724313 4.10864 0
M  V30 3165 H 287.861 -1.10535 3.03285 0
M  V30 3166 H 286.913 1.24885 3.59316 0
M  V30 3167 H 288.225 1.42873 4.779 0
M  V30 3168 H 287.379 -0.56038 6.04106 0
M  V30 3169 H 286.118 -0.832297 4.80546 0
M  V30 3170 H 285.123 1.4161 5.3125 0
M  V30 3171 H 286.348 1.67685 6.58072 0
M  V30 3172 H 284.294 -0.566714 6.53548 0
M  V30 3173 H 284.211 0.863752 7.51049 0
M  V30 3174 H 285.479 -0.292221 7.78952 0
M  V30 3175 N 289.708 -1.40897 0.706093 0
M  V30 3176 C 290.933 -2.05895 0.249435 0
M  V30 3177 C 291.358 -1.52823 -1.09666 0
M  V30 3178 O 290.716 -0.659589 -1.68876 0
M  V30 3179 C 290.764 -3.59872 0.22904 0
M  V30 3180 O 289.868 -4.04708 -0.792784 0
M  V30 3181 H 289.209 -0.653206 0.119241 0
M  V30 3182 H 291.739 -1.80471 0.96391 0
M  V30 3183 H 291.749 -4.07951 0.0634791 0
M  V30 3184 H 290.424 -3.97866 1.21141 0
M  V30 3185 H 289.001 -3.68111 -0.59572 0
M  V30 3186 N 291.186 -0.45159 -1.50991 0
M  V30 3187 C 292.116 0.342898 -2.30969 0
M  V30 3188 C 293.097 1.00815 -1.37005 0
M  V30 3189 O 294.282 1.00907 -1.65926 0
M  V30 3190 C 291.412 1.43637 -3.16205 0
M  V30 3191 C 290.366 0.893818 -4.18563 0
M  V30 3192 C 289.692 2.08411 -4.92411 0
M  V30 3193 C 290.992 -0.0815568 -5.22236 0
M  V30 3194 H 292.686 -0.324556 -2.97636 0
M  V30 3195 H 290.232 -0.157531 -1.43136 0
M  V30 3196 H 292.185 1.9995 -3.70942 0
M  V30 3197 H 290.909 2.13232 -2.47386 0
M  V30 3198 H 289.568 0.352798 -3.64898 0
M  V30 3199 H 289.216 2.76658 -4.20082 0
M  V30 3200 H 288.916 1.72741 -5.61636 0
M  V30 3201 H 290.44 2.65251 -5.49976 0
M  V30 3202 H 291.854 0.391742 -5.7196 0
M  V30 3203 H 290.251 -0.351551 -5.99069 0
M  V30 3204 H 291.321 -1.01374 -4.74185 0
M  V30 3205 N 292.664 1.56529 -0.183458 0
M  V30 3206 C 293.91 1.97537 0.459036 0
M  V30 3207 C 294.243 1.06989 1.62071 0
M  V30 3208 O 293.518 0.11948 1.94133 0
M  V30 3209 C 293.801 3.47874 0.930368 0
M  V30 3210 C 293.654 4.492 -0.232317 0
M  V30 3211 C 294.973 4.01612 1.79989 0
M  V30 3212 H 292.092 0.718204 0.165383 0
M  V30 3213 H 294.734 1.88042 -0.272038 0
M  V30 3214 H 292.884 3.56095 1.55333 0
M  V30 3215 H 294.556 4.53027 -0.86972 0
M  V30 3216 H 292.799 4.24657 -0.885928 0
M  V30 3217 H 293.47 5.51823 0.139796 0
M  V30 3218 H 295.946 3.96097 1.27461 0
M  V30 3219 H 294.822 5.07195 2.09867 0
M  V30 3220 H 295.083 3.46163 2.74998 0
M  V30 3221 N 294.142 -0.090211 1.57342 0
M  V30 3222 C 295.391 -0.791531 1.8552 0
M  V30 3223 C 295.704 -1.79659 0.773441 0
M  V30 3224 O 296.91 -2.54616 0.942497 0
M  V30 3225 C 295.366 -1.45856 3.2902 0
M  V30 3226 C 294.974 -0.493017 4.45279 0
M  V30 3227 C 296.718 -2.14332 3.66418 0
M  V30 3228 C 294.625 -1.16491 5.79814 0
M  V30 3229 H 293.555 -0.299356 0.692027 0
M  V30 3230 H 296.206 -0.0445343 1.83446 0
M  V30 3231 H 294.588 -2.25318 3.2565 0
M  V30 3232 H 295.762 0.270464 4.60006 0
M  V30 3233 H 294.077 0.0863061 4.16311 0
M  V30 3234 H 296.674 -2.65344 4.64216 0
M  V30 3235 H 297.017 -2.93447 2.95287 0
M  V30 3236 H 297.55 -1.41724 3.71698 0
M  V30 3237 H 294.289 -0.41447 6.54188 0
M  V30 3238 H 293.809 -1.8997 5.68921 0
M  V30 3239 H 295.488 -1.69001 6.24538 0
M  V30 3240 N 295.62 -1.53406 -0.361157 0
M  V30 3241 C 296.848 -1.73717 -1.12383 0
M  V30 3242 C 297.263 -0.468161 -1.82904 0
M  V30 3243 O 296.62 0.559198 -1.73722 0
M  V30 3244 C 296.671 -2.90558 -2.15078 0
M  V30 3245 O 296.392 -4.12549 -1.47428 0
M  V30 3246 C 297.893 -3.22777 -3.03858 0
M  V30 3247 H 295.113 -0.580896 -0.335858 0
M  V30 3248 H 297.657 -2.00167 -0.418728 0
M  V30 3249 H 295.812 -2.66489 -2.8118 0
M  V30 3250 H 296.226 -4.78009 -2.15887 0
M  V30 3251 H 297.7 -4.07927 -3.71887 0
M  V30 3252 H 298.177 -2.38329 -3.68912 0
M  V30 3253 H 298.783 -3.48787 -2.43367 0
M  V30 3254 N 297.098 0.621204 -1.44841 0
M  V30 3255 C 298.061 1.71459 -1.521 0
M  V30 3256 C 299.061 1.55696 -0.401933 0
M  V30 3257 O 300.251 1.61011 -0.664925 0
M  V30 3258 C 297.383 3.10624 -1.40447 0
M  V30 3259 H 298.576 1.66394 -2.49506 0
M  V30 3260 H 296.129 0.835745 -1.3208 0
M  V30 3261 H 296.864 3.21277 -0.441737 0
M  V30 3262 H 296.649 3.23473 -2.21602 0
M  V30 3263 H 298.139 3.90293 -1.4853 0
M  V30 3264 N 298.576 1.31904 0.862503 0
M  V30 3265 C 299.824 1.21776 1.61292 0
M  V30 3266 C 300.145 -0.222413 1.93727 0
M  V30 3267 O 299.415 -1.1451 1.58947 0
M  V30 3268 H 297.995 0.447717 0.597962 0
M  V30 3269 H 300.657 1.65326 1.03215 0
M  V30 3270 H 299.753 1.7948 2.5533 0
M  V30 3271 N 300.054 -1.07777 1.14986 0
M  V30 3272 C 301.465 -1.61766 0.932127 0
M  V30 3273 C 301.816 -1.88974 -0.527581 0
M  V30 3274 O 300.941 -1.65198 -1.39781 0
M  V30 3275 C 301.536 -2.93891 1.68563 0
M  V30 3276 C 300.095 -3.44639 1.5133 0
M  V30 3277 C 299.242 -2.18767 1.704 0
M  V30 3278 H 302.193 -0.909201 1.30074 0
M  V30 3279 H 302.214 -3.62623 1.15259 0
M  V30 3280 H 301.726 -2.74057 2.74799 0
M  V30 3281 H 299.827 -3.69564 0.474702 0
M  V30 3282 H 299.94 -4.20966 2.28746 0
M  V30 3283 H 298.304 -2.28253 1.13016 0
M  V30 3284 H 299.087 -2.01433 2.77992 0
M  V30 3285 N 301.532 -0.945985 -1.26051 0
M  V30 3286 C 302.778 -0.606539 -1.94146 0
M  V30 3287 C 303.133 0.84586 -1.72809 0
M  V30 3288 O 302.426 1.59781 -1.05738 0
M  V30 3289 C 302.62 -0.890475 -3.46129 0
M  V30 3290 C 302.449 -2.36892 -3.82246 0
M  V30 3291 C 301.219 -3.02494 -4.04753 0
M  V30 3292 C 303.417 -3.34772 -3.90425 0
M  V30 3293 N 301.399 -4.40302 -4.27794 0
M  V30 3294 C 302.77 -4.57855 -4.18054 0
M  V30 3295 C 304.825 -3.2973 -3.73072 0
M  V30 3296 C 303.528 -5.76522 -4.30134 0
M  V30 3297 C 305.554 -4.47727 -3.86386 0
M  V30 3298 C 304.916 -5.69593 -4.14419 0
M  V30 3299 H 301.015 -0.272407 -0.73302 0
M  V30 3300 H 303.599 -1.21638 -1.52027 0
M  V30 3301 H 301.77 -0.309638 -3.87164 0
M  V30 3302 H 303.502 -0.51181 -4.01451 0
M  V30 3303 H 300.257 -2.53095 -4.003 0
M  V30 3304 H 300.681 -5.11646 -4.43337 0
M  V30 3305 H 305.323 -2.36565 -3.50424 0
M  V30 3306 H 303.041 -6.70136 -4.51601 0
M  V30 3307 H 306.627 -4.45363 -3.74356 0
M  V30 3308 H 305.507 -6.59375 -4.24493 0
M  V30 3309 N 303.011 1.40521 -0.713556 0
M  V30 3310 C 304.239 2.05237 -0.261775 0
M  V30 3311 C 304.654 1.53755 1.09567 0
M  V30 3312 O 304.011 0.693268 1.6882 0
M  V30 3313 C 304.062 3.60763 -0.230706 0
M  V30 3314 O 303.783 4.10345 -1.53455 0
M  V30 3315 C 305.284 4.42651 0.239874 0
M  V30 3316 H 302.504 0.660533 -0.118057 0
M  V30 3317 H 305.048 1.79967 -0.971192 0
M  V30 3318 H 303.203 3.8501 0.429661 0
M  V30 3319 H 303.617 5.04526 -1.43366 0
M  V30 3320 H 305.091 5.51599 0.210468 0
M  V30 3321 H 305.568 4.20082 1.28171 0
M  V30 3322 H 306.174 4.23507 -0.390142 0
M  V30 3323 N 304.489 0.459591 1.5075 0
M  V30 3324 C 305.437 -0.354678 2.2988 0
M  V30 3325 C 306.431 -1.00086 1.36672 0
M  V30 3326 O 307.637 -0.933277 1.53915 0
M  V30 3327 H 304.012 -0.13321 0.740107 0
M  V30 3328 H 305.983 0.333269 2.96533 0
M  V30 3329 C 304.732 -1.43073 3.169 0
M  V30 3330 H 304.055 -0.942882 3.88523 0
M  V30 3331 H 305.495 -1.97328 3.75284 0
M  V30 3332 C 303.954 -2.42633 2.33732 0
M  V30 3333 O 304.484 -3.47658 2.01238 0
M  V30 3334 N 302.69 -2.14066 1.9653 0
M  V30 3335 H 302.237 -1.28685 2.23155 0
M  V30 3336 H 302.195 -2.80917 1.41185 0
M  V30 3337 N 305.967 -1.56429 0.191757 0
M  V30 3338 C 306.899 -2.16154 -0.762245 0
M  V30 3339 C 307.912 -1.12247 -1.17917 0
M  V30 3340 O 309.101 -1.39353 -1.11548 0
M  V30 3341 C 306.201 -2.70606 -2.04024 0
M  V30 3342 C 305.374 -3.99381 -1.78364 0
M  V30 3343 C 304.433 -4.38692 -2.90578 0
M  V30 3344 O 303.459 -5.06179 -2.6033 0
M  V30 3345 N 304.661 -4.01922 -4.18854 0
M  V30 3346 H 307.426 -2.98643 -0.251526 0
M  V30 3347 H 304.987 -1.61897 0.00967373 0
M  V30 3348 H 306.979 -2.93891 -2.78227 0
M  V30 3349 H 305.549 -1.9259 -2.46227 0
M  V30 3350 H 304.769 -3.84262 -0.879581 0
M  V30 3351 H 306.057 -4.83445 -1.58614 0
M  V30 3352 H 305.455 -3.47631 -4.46283 0
M  V30 3353 H 304.012 -4.30165 -4.89695 0
M  V30 3354 N 307.445 0.0818655 -1.57387 0
M  V30 3355 C 308.375 1.09885 -2.06028 0
M  V30 3356 C 309.356 1.4098 -0.951774 0
M  V30 3357 O 310.541 1.50781 -1.22387 0
M  V30 3358 C 307.671 2.4151 -2.4958 0
M  V30 3359 C 306.625 2.24792 -3.64215 0
M  V30 3360 C 305.951 3.61712 -3.93787 0
M  V30 3361 C 307.251 1.67749 -4.94629 0
M  V30 3362 H 308.945 0.694128 -2.91243 0
M  V30 3363 H 306.491 0.332448 -1.4011 0
M  V30 3364 H 308.444 3.12939 -2.82219 0
M  V30 3365 H 307.168 2.83943 -1.61381 0
M  V30 3366 H 305.827 1.55807 -3.31843 0
M  V30 3367 H 305.475 4.01697 -3.02735 0
M  V30 3368 H 305.175 3.51368 -4.70971 0
M  V30 3369 H 306.699 4.34587 -4.28913 0
M  V30 3370 H 308.113 2.29032 -5.25564 0
M  V30 3371 H 306.51 1.68128 -5.76067 0
M  V30 3372 H 307.58 0.638059 -4.80684 0
M  V30 3373 N 308.923 1.53595 0.353017 0
M  V30 3374 C 309.853 1.83902 1.43883 0
M  V30 3375 C 310.834 0.693421 1.55324 0
M  V30 3376 O 312.019 0.944452 1.69687 0
M  V30 3377 C 309.149 2.04016 2.8106 0
M  V30 3378 C 308.103 3.19814 2.84434 0
M  V30 3379 C 307.429 3.25244 4.24406 0
M  V30 3380 C 308.729 4.58133 2.50822 0
M  V30 3381 H 310.423 2.74835 1.1877 0
M  V30 3382 H 307.969 1.32242 0.569917 0
M  V30 3383 H 309.922 2.238 3.57059 0
M  V30 3384 H 308.646 1.09804 3.07588 0
M  V30 3385 H 307.305 2.9987 2.10887 0
M  V30 3386 H 306.953 2.28646 4.48029 0
M  V30 3387 H 306.653 4.03054 4.27576 0
M  V30 3388 H 308.177 3.47228 5.0226 0
M  V30 3389 H 309.591 4.77995 3.16534 0
M  V30 3390 H 307.988 5.38276 2.6529 0
M  V30 3391 H 309.058 4.62387 1.46034 0
M  V30 3392 N 310.401 -0.613514 1.45168 0
M  V30 3393 C 311.817 -0.933629 1.29443 0
M  V30 3394 C 312.017 -2.00028 0.243101 0
M  V30 3395 O 311.073 -2.49848 -0.364992 0
M  V30 3396 C 312.386 -1.38018 2.67155 0
M  V30 3397 C 313.934 -1.49471 2.75004 0
M  V30 3398 C 314.409 -1.97503 4.13227 0
M  V30 3399 N 315.9 -2.04746 4.15491 0
M  V30 3400 C 316.635 -2.43121 5.19307 0
M  V30 3401 N 316.131 -2.80506 6.33473 0
M  V30 3402 N 317.924 -2.43408 5.06664 0
M  V30 3403 H 310.075 0.0916097 2.12202 0
M  V30 3404 H 312.338 -0.0216655 0.947752 0
M  V30 3405 H 312.044 -0.670625 3.45247 0
M  V30 3406 H 311.918 -2.34784 2.95222 0
M  V30 3407 H 314.305 -2.19519 1.9722 0
M  V30 3408 H 314.386 -0.510342 2.50657 0
M  V30 3409 H 314.03 -1.28045 4.91495 0
M  V30 3410 H 313.96 -2.96843 4.34962 0
M  V30 3411 H 316.451 -1.78468 3.33103 0
M  V30 3412 H 316.764 -3.08652 7.08487 0
M  V30 3413 H 315.109 -2.78216 6.36884 0
M  V30 3414 H 318.3 -2.13604 4.16523 0
M  V30 3415 H 318.473 -2.72989 5.87691 0
M  V30 3416 N 311.879 -1.3236 -0.855495 0
M  V30 3417 C 313.29 -1.2056 -1.42556 0
M  V30 3418 C 313.641 0.182209 -1.95352 0
M  V30 3419 O 312.766 1.08088 -1.87472 0
M  V30 3420 C 313.361 -2.1826 -2.59129 0
M  V30 3421 C 311.92 -2.10351 -3.12137 0
M  V30 3422 C 311.067 -2.06674 -1.84882 0
M  V30 3423 H 314.018 -1.442 -0.662727 0
M  V30 3424 H 314.039 -1.78064 -3.36264 0
M  V30 3425 H 313.551 -3.19257 -2.20673 0
M  V30 3426 H 311.652 -1.12599 -3.55179 0
M  V30 3427 H 311.765 -3.00135 -3.73438 0
M  V30 3428 H 310.129 -1.51901 -2.04446 0
M  V30 3429 H 310.912 -3.09451 -1.48643 0
M  V30 3430 N 313.357 1.07166 -1.15556 0
M  V30 3431 C 314.287 2.16403 -0.877046 0
M  V30 3432 C 315.268 1.69217 0.173111 0
M  V30 3433 O 316.453 1.94181 0.027084 0
M  V30 3434 C 313.583 3.45349 -0.367632 0
M  V30 3435 C 312.537 4.05995 -1.35468 0
M  V30 3436 C 311.863 5.30045 -0.704038 0
M  V30 3437 C 313.163 4.45804 -2.72132 0
M  V30 3438 H 314.857 2.39959 -1.79053 0
M  V30 3439 H 312.403 1.15325 -0.862331 0
M  V30 3440 H 314.356 4.21095 -0.160317 0
M  V30 3441 H 313.08 3.21385 0.581326 0
M  V30 3442 H 311.739 3.32296 -1.54839 0
M  V30 3443 H 311.387 5.02373 0.251128 0
M  V30 3444 H 311.087 5.71579 -1.36277 0
M  V30 3445 H 312.611 6.08495 -0.50654 0
M  V30 3446 H 314.025 5.12671 -2.56595 0
M  V30 3447 H 312.422 4.98296 -3.34397 0
M  V30 3448 H 313.492 3.57083 -3.28054 0
M  V30 3449 N 314.835 0.952656 1.25548 0
M  V30 3450 C 316.083 0.605176 1.92826 0
M  V30 3451 C 316.404 -0.860261 1.74999 0
M  V30 3452 O 315.674 -1.6125 1.11244 0
M  V30 3453 H 314.254 0.220832 0.713612 0
M  V30 3454 H 316.916 1.21047 1.52754 0
M  V30 3455 H 316.012 0.832798 3.00784 0
M  V30 3456 N 316.313 -1.40141 0.720998 0
M  V30 3457 C 317.562 -2.0002 0.259804 0
M  V30 3458 C 317.875 -1.57839 -1.15526 0
M  V30 3459 O 319.081 -2.10455 -1.71525 0
M  V30 3460 C 317.537 -3.57516 0.413566 0
M  V30 3461 C 317.145 -4.08667 1.83562 0
M  V30 3462 C 318.889 -4.24498 0.0134387 0
M  V30 3463 C 316.796 -5.58686 1.93968 0
M  V30 3464 H 315.726 -0.748195 0.0933806 0
M  V30 3465 H 318.377 -1.60313 0.892866 0
M  V30 3466 H 316.759 -3.9495 -0.288169 0
M  V30 3467 H 317.933 -3.82598 2.56817 0
M  V30 3468 H 316.248 -3.543 2.1877 0
M  V30 3469 H 318.845 -5.34654 0.0703954 0
M  V30 3470 H 319.188 -4.03375 -1.02927 0
M  V30 3471 H 319.721 -3.92188 0.665815 0
M  V30 3472 H 316.46 -5.8467 2.96379 0
M  V30 3473 H 315.98 -5.86602 1.25131 0
M  V30 3474 H 317.659 -6.23875 1.71431 0
M  V30 3475 N 317.792 -0.46758 -1.50504 0
M  V30 3476 C 318.702 0.33382 -2.32213 0
M  V30 3477 C 319.718 0.999323 -1.42441 0
M  V30 3478 O 320.894 0.988068 -1.75497 0
M  V30 3479 C 317.959 1.4035 -3.17022 0
M  V30 3480 C 317.02 0.754961 -4.2261 0
M  V30 3481 C 316.253 1.77367 -5.03365 0
M  V30 3482 O 316.476 2.99976 -4.8515 0
M  V30 3483 O 315.41 1.34744 -5.86624 0
M  V30 3484 H 319.236 -0.334067 -3.01857 0
M  V30 3485 H 316.821 -0.229496 -1.47627 0
M  V30 3486 H 318.703 2.02318 -3.69656 0
M  V30 3487 H 317.378 2.05492 -2.5011 0
M  V30 3488 H 316.285 0.0964244 -3.73976 0
M  V30 3489 H 317.618 0.146545 -4.91982 0
M  V30 3490 N 319.27 1.56325 -0.20005 0
M  V30 3491 C 320.203 2.15234 0.758267 0
M  V30 3492 C 321.181 1.09046 1.20614 0
M  V30 3493 O 322.365 1.37186 1.29276 0
M  V30 3494 C 319.492 2.71524 2.02466 0
M  V30 3495 C 318.538 3.90345 1.71852 0
M  V30 3496 S 319.371 5.28513 0.862249 0
M  V30 3497 C 320.527 5.88227 2.13868 0
M  V30 3498 H 320.76 2.96183 0.2575 0
M  V30 3499 H 318.293 1.54393 0.0150099 0
M  V30 3500 H 320.251 3.04598 2.75191 0
M  V30 3501 H 318.912 1.90607 2.49655 0
M  V30 3502 H 318.105 4.28158 2.65888 0
M  V30 3503 H 317.707 3.58306 1.07205 0
M  V30 3504 H 319.999 6.02891 3.09076 0
M  V30 3505 H 320.942 6.84714 1.80479 0
M  V30 3506 H 321.35 5.16874 2.2694 0
M  V30 3507 N 320.748 -0.0735177 1.57428 0
M  V30 3508 C 322.159 -0.625551 1.75908 0
M  V30 3509 C 322.51 -1.78 0.825261 0
M  V30 3510 O 321.635 -2.16398 0.00893964 0
M  V30 3511 C 322.23 -1.14155 3.18989 0
M  V30 3512 C 320.789 -1.63946 3.38819 0
M  V30 3513 C 319.936 -0.558151 2.71625 0
M  V30 3514 H 322.887 0.152647 1.57964 0
M  V30 3515 H 322.908 -2.0104 3.23053 0
M  V30 3516 H 322.42 -0.301116 3.8693 0
M  V30 3517 H 320.521 -2.50321 2.7599 0
M  V30 3518 H 320.634 -1.71759 4.47253 0
M  V30 3519 H 318.998 -1.00278 2.34129 0
M  V30 3520 H 319.781 0.272071 3.4222 0
M  V30 3521 N 322.226 -1.5378 -0.344866 0
M  V30 3522 C 323.156 -1.84662 -1.42906 0
M  V30 3523 C 324.137 -0.701648 -1.54955 0
M  V30 3524 O 325.322 -0.953438 -1.69184 0
M  V30 3525 C 322.452 -2.05503 -2.79974 0
M  V30 3526 C 321.406 -3.21318 -2.82734 0
M  V30 3527 C 320.732 -3.2749 -4.22675 0
M  V30 3528 C 322.032 -4.59456 -2.48389 0
M  V30 3529 H 323.726 -2.75461 -1.17311 0
M  V30 3530 H 321.272 -1.32542 -0.562896 0
M  V30 3531 H 323.225 -2.25691 -3.55867 0
M  V30 3532 H 321.949 -1.11434 -3.07002 0
M  V30 3533 H 320.608 -3.00984 -2.09294 0
M  V30 3534 H 320.256 -2.31019 -4.4681 0
M  V30 3535 H 319.956 -4.05316 -4.25433 0
M  V30 3536 H 321.48 -3.49887 -5.00412 0
M  V30 3537 H 322.894 -4.79667 -3.13995 0
M  V30 3538 H 321.291 -5.39675 -2.62432 0
M  V30 3539 H 322.361 -4.63155 -1.4358 0
M  V30 3540 N 323.704 0.605807 -1.45491 0
M  V30 3541 C 324.636 1.73031 -1.5031 0
M  V30 3542 C 325.649 1.57968 -0.393687 0
M  V30 3543 O 326.838 1.65817 -0.660839 0
M  V30 3544 C 323.938 3.11049 -1.34543 0
M  V30 3545 C 323.111 3.52334 -2.59189 0
M  V30 3546 C 322.17 4.69323 -2.37954 0
M  V30 3547 O 321.196 4.7635 -3.11575 0
M  V30 3548 N 322.398 5.62705 -1.4263 0
M  V30 3549 H 325.163 1.6936 -2.4726 0
M  V30 3550 H 322.724 0.79114 -1.41254 0
M  V30 3551 H 324.716 3.87071 -1.18144 0
M  V30 3552 H 323.286 3.09217 -0.458623 0
M  V30 3553 H 322.506 2.66256 -2.90691 0
M  V30 3554 H 323.794 3.76677 -3.42041 0
M  V30 3555 H 323.192 5.59744 -0.818758 0
M  V30 3556 H 321.749 6.38252 -1.32202 0
M  V30 3557 N 325.182 1.32811 0.848464 0
M  V30 3558 C 326.41 1.26739 1.63538 0
M  V30 3559 C 326.825 -0.163484 1.88091 0
M  V30 3560 O 326.182 -1.10258 1.45429 0
M  V30 3561 C 326.233 2.03013 2.99112 0
M  V30 3562 O 325.954 3.40518 2.75643 0
M  V30 3563 C 327.455 2.04038 3.93552 0
M  V30 3564 H 324.675 0.437024 0.509167 0
M  V30 3565 H 327.219 1.75033 1.05753 0
M  V30 3566 H 325.374 1.58426 3.53525 0
M  V30 3567 H 325.788 3.79635 3.61908 0
M  V30 3568 H 327.262 2.61877 4.85926 0
M  V30 3569 H 327.739 1.0282 4.26995 0
M  V30 3570 H 328.345 2.486 3.45077 0
M  V30 3571 N 326.66 -1.06551 1.16123 0
M  V30 3572 C 327.59 -2.15935 0.88851 0
M  V30 3573 C 328.571 -1.69306 -0.164135 0
M  V30 3574 O 329.756 -1.94193 -0.0167857 0
M  V30 3575 C 326.886 -3.45149 0.385942 0
M  V30 3576 C 325.84 -4.05271 1.3762 0
M  V30 3577 C 325.166 -5.29664 0.732137 0
M  V30 3578 C 326.466 -4.44355 2.74493 0
M  V30 3579 H 328.16 -2.39006 1.80323 0
M  V30 3580 H 325.706 -1.14866 0.868435 0
M  V30 3581 H 327.659 -4.21004 0.182647 0
M  V30 3582 H 326.383 -3.21689 -0.564274 0
M  V30 3583 H 325.042 -3.3147 1.56599 0
M  V30 3584 H 324.69 -5.02499 -0.224483 0
M  V30 3585 H 324.39 -5.70848 1.39307 0
M  V30 3586 H 325.914 -6.08218 0.538802 0
M  V30 3587 H 327.328 -5.11303 2.59311 0
M  V30 3588 H 325.725 -4.96515 3.37035 0
M  V30 3589 H 326.795 -3.55339 3.29943 0
M  V30 3590 N 328.138 -0.959301 -1.25041 0
M  V30 3591 C 329.554 -0.664474 -1.4511 0
M  V30 3592 C 329.754 0.776481 -1.85938 0
M  V30 3593 O 328.81 1.55128 -1.99227 0
M  V30 3594 C 330.123 -1.64139 -2.5195 0
M  V30 3595 C 331.671 -1.65309 -2.65786 0
M  V30 3596 C 332.146 -2.61777 -3.75815 0
M  V30 3597 N 333.637 -2.60169 -3.83231 0
M  V30 3598 C 334.372 -3.31489 -4.6787 0
M  V30 3599 N 333.868 -4.12298 -5.56761 0
M  V30 3600 N 335.661 -3.20354 -4.61876 0
M  V30 3601 H 327.812 -1.89043 -0.968332 0
M  V30 3602 H 330.075 -0.813408 -0.4869 0
M  V30 3603 H 329.781 -2.67086 -2.28819 0
M  V30 3604 H 329.655 -1.40756 -3.49954 0
M  V30 3605 H 332.042 -0.630778 -2.8828 0
M  V30 3606 H 332.123 -1.92753 -1.68167 0
M  V30 3607 H 331.767 -3.64137 -3.54071 0
M  V30 3608 H 331.697 -2.31616 -4.72929 0
M  V30 3609 H 334.188 -2.01507 -3.19692 0
M  V30 3610 H 334.501 -4.63625 -6.18281 0
M  V30 3611 H 332.846 -4.16395 -5.56454 0
M  V30 3612 H 336.037 -2.56692 -3.91442 0
M  V30 3613 H 336.21 -3.76201 -5.27614 0
M  V30 3614 N 329.616 1.39756 -0.72842 0
M  V30 3615 C 330.865 1.99879 -0.270407 0
M  V30 3616 C 331.178 1.58449 1.14688 0
M  V30 3617 O 332.384 2.11362 1.70407 0
M  V30 3618 C 330.84 3.57292 -0.43252 0
M  V30 3619 C 330.448 4.07688 -1.85727 0
M  V30 3620 C 332.192 4.24485 -0.0359507 0
M  V30 3621 C 330.099 5.5765 -1.96928 0
M  V30 3622 H 329.029 0.747689 -0.0973472 0
M  V30 3623 H 331.68 1.59837 -0.901355 0
M  V30 3624 H 330.062 3.95097 0.267219 0
M  V30 3625 H 331.236 3.81231 -2.58843 0
M  V30 3626 H 329.551 3.53135 -2.20646 0
M  V30 3627 H 332.148 5.34609 -0.0987484 0
M  V30 3628 H 332.491 4.03915 1.00787 0
M  V30 3629 H 333.024 3.9183 -0.686604 0
M  V30 3630 H 329.763 5.8309 -2.99476 0
M  V30 3631 H 329.283 5.8593 -1.28241 0
M  V30 3632 H 330.962 6.22957 -1.74737 0
M  V30 3633 N 331.094 0.475555 1.50254 0
M  V30 3634 C 332.042 -0.330276 2.30243 0
M  V30 3635 C 333.036 -0.986306 1.37726 0
M  V30 3636 O 334.242 -0.9169 1.54897 0
M  V30 3637 H 330.617 -0.125353 0.741479 0
M  V30 3638 H 332.588 0.364702 2.96163 0
M  V30 3639 C 331.337 -1.39704 3.18399 0
M  V30 3640 H 330.66 -0.901621 3.89501 0
M  V30 3641 H 332.1 -1.93336 3.77355 0
M  V30 3642 C 330.559 -2.4014 2.36293 0
M  V30 3643 O 331.089 -3.45504 2.04914 0
M  V30 3644 N 329.295 -2.1197 1.98789 0
M  V30 3645 H 328.842 -1.2631 2.24507 0
M  V30 3646 H 328.8 -2.79403 1.44157 0
M  V30 3647 N 332.573 -1.56217 0.208337 0
M  V30 3648 C 333.819 -1.98242 -0.427552 0
M  V30 3649 C 334.152 -1.09554 -1.60348 0
M  V30 3650 O 333.427 -0.15035 -1.93918 0
M  V30 3651 C 333.71 -3.4931 -0.874907 0
M  V30 3652 C 333.563 -4.48773 0.303751 0
M  V30 3653 C 334.882 -4.04424 -1.73577 0
M  V30 3654 H 332.001 -0.720744 -0.153936 0
M  V30 3655 H 334.643 -1.87586 0.30192 0
M  V30 3656 H 332.793 -3.58522 -1.49648 0
M  V30 3657 H 334.465 -4.51586 0.941682 0
M  V30 3658 H 332.708 -4.23194 0.953375 0
M  V30 3659 H 333.379 -5.51976 -0.0519883 0
M  V30 3660 H 335.855 -3.98075 -1.21143 0
M  V30 3661 H 334.731 -5.1047 -2.01771 0
M  V30 3662 H 334.992 -3.50494 -2.69456 0
M  V30 3663 N 334.051 0.0651679 -1.57465 0
M  V30 3664 C 335.291 0.768329 -1.8941 0
M  V30 3665 C 335.655 1.74406 -0.802894 0
M  V30 3666 O 336.856 2.49281 -1.0056 0
M  V30 3667 C 335.127 1.45199 -3.26576 0
M  V30 3668 S 336.686 2.1893 -3.80283 0
M  V30 3669 H 333.504 0.255359 -0.663561 0
M  V30 3670 H 336.106 0.024167 -1.95485 0
M  V30 3671 H 334.81 0.728123 -4.03889 0
M  V30 3672 H 334.341 2.23545 -3.23715 0
M  V30 3673 H 336.356 3.45551 -3.56102 0
M  V30 3674 N 335.529 1.53961 0.336706 0
M  V30 3675 C 336.759 1.75229 1.09446 0
M  V30 3676 C 337.167 0.494602 1.82621 0
M  V30 3677 O 336.51 -0.543764 1.75468 0
M  V30 3678 C 336.572 2.88288 2.1478 0
M  V30 3679 C 336.236 4.27656 1.6112 0
M  V30 3680 C 337.233 5.08981 1.0599 0
M  V30 3681 C 334.918 4.74161 1.6576 0
M  V30 3682 C 336.912 6.34916 0.562129 0
M  V30 3683 C 334.599 6.00067 1.15595 0
M  V30 3684 C 335.597 6.80278 0.609147 0
M  V30 3685 O 335.285 8.03818 0.114999 0
M  V30 3686 H 335.017 0.588881 0.331956 0
M  V30 3687 H 337.571 2.01614 0.392566 0
M  V30 3688 H 335.801 2.57443 2.88548 0
M  V30 3689 H 337.49 2.97461 2.76174 0
M  V30 3690 H 338.256 4.74213 1.01722 0
M  V30 3691 H 334.135 4.11781 2.07261 0
M  V30 3692 H 337.679 6.9747 0.134668 0
M  V30 3693 H 333.576 6.3433 1.19566 0
M  V30 3694 H 334.344 8.18172 0.231651 0
M  V30 3695 N 337.007 -0.598083 1.45811 0
M  V30 3696 C 338.253 -1.35679 1.51535 0
M  V30 3697 C 338.608 -1.91745 0.15864 0
M  V30 3698 O 337.901 -1.72654 -0.830724 0
M  V30 3699 C 338.095 -2.51669 2.53766 0
M  V30 3700 C 337.924 -2.06963 3.99245 0
M  V30 3701 C 336.694 -1.92693 4.67116 0
M  V30 3702 C 338.892 -1.63855 4.875 0
M  V30 3703 N 336.874 -1.41897 5.97276 0
M  V30 3704 C 338.245 -1.24541 6.07363 0
M  V30 3705 C 340.3 -1.51533 4.74281 0
M  V30 3706 C 339.003 -0.741354 7.15469 0
M  V30 3707 C 341.029 -1.0253 5.82444 0
M  V30 3708 C 340.391 -0.641869 7.01469 0
M  V30 3709 H 336.49 -0.490042 0.609412 0
M  V30 3710 H 339.074 -0.682687 1.82339 0
M  V30 3711 H 337.245 -3.16663 2.24898 0
M  V30 3712 H 338.977 -3.18578 2.4958 0
M  V30 3713 H 335.732 -2.1417 4.22408 0
M  V30 3714 H 336.156 -1.18704 6.66512 0
M  V30 3715 H 340.798 -1.798 3.82664 0
M  V30 3716 H 338.516 -0.446243 8.06867 0
M  V30 3717 H 342.102 -0.934088 5.74253 0
M  V30 3718 H 340.982 -0.268531 7.8374 0
M  V30 3719 N 338.485 -1.33259 -0.841409 0
M  V30 3720 C 339.901 -1.12538 -1.13169 0
M  V30 3721 C 340.101 0.0854037 -2.01319 0
M  V30 3722 O 339.157 0.766417 -2.40587 0
M  V30 3723 C 340.47 -2.41156 -1.79623 0
M  V30 3724 C 342.018 -2.47038 -1.922 0
M  V30 3725 C 342.493 -3.7561 -2.6207 0
M  V30 3726 N 343.984 -3.76667 -2.69585 0
M  V30 3727 C 344.719 -4.72861 -3.2433 0
M  V30 3728 N 344.215 -5.79428 -3.79783 0
M  V30 3729 N 346.008 -4.6034 -3.22558 0
M  V30 3730 H 338.159 -2.10868 -0.254676 0
M  V30 3731 H 340.422 -0.931615 -0.175493 0
M  V30 3732 H 340.128 -3.29747 -1.22311 0
M  V30 3733 H 340.002 -2.53114 -2.79666 0
M  V30 3734 H 342.389 -1.58898 -2.48667 0
M  V30 3735 H 342.47 -2.39022 -0.911148 0
M  V30 3736 H 342.114 -4.64131 -2.06263 0
M  V30 3737 H 342.044 -3.80902 -3.63622 0
M  V30 3738 H 344.535 -2.99648 -2.30259 0
M  V30 3739 H 344.848 -6.48867 -4.19752 0
M  V30 3740 H 343.193 -5.83166 -3.78078 0
M  V30 3741 H 346.384 -3.76244 -2.78492 0
M  V30 3742 H 346.557 -5.35478 -3.64921 0
M  V30 3743 N 339.963 1.05934 -1.16686 0
M  V30 3744 C 340.873 2.17014 -0.891183 0
M  V30 3745 C 341.889 1.73453 0.137907 0
M  V30 3746 O 343.065 2.01361 -0.039592 0
M  V30 3747 C 340.13 3.44384 -0.400099 0
M  V30 3748 C 339.191 4.02433 -1.49486 0
M  V30 3749 C 338.424 5.23723 -1.02711 0
M  V30 3750 O 338.647 5.7027 0.121716 0
M  V30 3751 O 337.581 5.7382 -1.81699 0
M  V30 3752 H 341.407 2.43113 -1.82015 0
M  V30 3753 H 338.992 1.15541 -0.947132 0
M  V30 3754 H 340.874 4.21189 -0.133392 0
M  V30 3755 H 339.549 3.19802 0.500817 0
M  V30 3756 H 338.456 3.27102 -1.81535 0
M  V30 3757 H 339.789 4.31317 -2.37121 0
M  V30 3758 N 341.441 0.965919 1.2453 0
M  V30 3759 C 342.374 0.4393 2.23932 0
M  V30 3760 C 343.352 -0.485615 1.55179 0
M  V30 3761 O 344.536 -0.417402 1.83821 0
M  V30 3762 C 341.663 -0.366042 3.36716 0
M  V30 3763 C 340.709 0.5009 4.23548 0
M  V30 3764 S 341.542 1.94002 4.99123 0
M  V30 3765 C 342.698 1.14342 6.15367 0
M  V30 3766 H 342.931 1.28167 2.68254 0
M  V30 3767 H 340.464 0.770819 1.33782 0
M  V30 3768 H 342.422 -0.824724 4.0213 0
M  V30 3769 H 341.083 -1.18337 2.90956 0
M  V30 3770 H 340.276 -0.117341 5.03863 0
M  V30 3771 H 339.878 0.89524 3.63127 0
M  V30 3772 H 342.17 0.397572 6.76332 0
M  V30 3773 H 343.113 1.92089 6.81548 0
M  V30 3774 H 343.521 0.668579 5.60527 0
M  V30 3775 N 342.919 -1.39368 0.735821 0
M  V30 3776 C 344.165 -2.00794 0.284544 0
M  V30 3777 C 344.498 -1.58255 -1.12557 0
M  V30 3778 O 343.773 -0.811819 -1.76748 0
M  V30 3779 C 344.056 -3.58011 0.387337 0
M  V30 3780 C 343.909 -4.10566 1.83728 0
M  V30 3781 C 345.228 -4.395 -0.22975 0
M  V30 3782 H 342.347 -0.729501 0.104866 0
M  V30 3783 H 344.989 -1.65564 0.93213 0
M  V30 3784 H 343.139 -3.88154 -0.164006 0
M  V30 3785 H 344.811 -3.91139 2.44556 0
M  V30 3786 H 343.054 -3.64095 2.35833 0
M  V30 3787 H 343.725 -5.19702 1.86047 0
M  V30 3788 H 346.201 -4.15406 0.240257 0
M  V30 3789 H 345.077 -5.48752 -0.127485 0
M  V30 3790 H 345.338 -4.22062 -1.3159 0
M  V30 3791 N 344.397 -0.483516 -1.5 0
M  V30 3792 C 345.808 -0.0314176 -1.86674 0
M  V30 3793 C 346.159 1.37728 -1.39733 0
M  V30 3794 O 345.284 2.02327 -0.767635 0
M  V30 3795 C 345.879 -0.0502376 -3.38763 0
M  V30 3796 C 344.438 0.346442 -3.74802 0
M  V30 3797 C 343.585 -0.430366 -2.7394 0
M  V30 3798 H 346.536 -0.697182 -1.42566 0
M  V30 3799 H 346.557 0.749116 -3.73053 0
M  V30 3800 H 346.069 -1.07563 -3.72897 0
M  V30 3801 H 344.17 1.37572 -3.46273 0
M  V30 3802 H 344.283 0.0391486 -4.79084 0
M  V30 3803 H 342.647 0.117557 -2.54429 0
M  V30 3804 H 343.43 -1.4555 -3.10918 0
M  V30 3805 N 345.875 1.56104 -0.216619 0
M  V30 3806 C 347.123 1.97781 0.415593 0
M  V30 3807 C 347.444 1.10536 1.60645 0
M  V30 3808 O 346.714 0.181303 1.95059 0
M  V30 3809 H 345.294 0.730415 0.156534 0
M  V30 3810 H 347.956 1.92445 -0.308366 0
M  V30 3811 H 347.052 3.03072 0.74525 0
M  V30 3812 N 347.353 -0.0568162 1.57498 0
M  V30 3813 C 348.578 -0.769402 1.92601 0
M  V30 3814 C 349.003 -1.69559 0.814336 0
M  V30 3815 O 348.361 -1.79811 -0.231903 0
M  V30 3816 C 348.409 -1.52634 3.26704 0
M  V30 3817 O 347.513 -2.63797 3.16994 0
M  V30 3818 H 346.854 -0.208909 0.63028 0
M  V30 3819 H 349.384 -0.0205798 2.0459 0
M  V30 3820 H 349.394 -1.90234 3.60936 0
M  V30 3821 H 348.069 -0.846875 4.07186 0
M  V30 3822 H 346.646 -2.28943 2.94346 0
M  V30 3823 N 348.832 -1.54138 -0.328536 0
M  V30 3824 C 350.062 -1.75807 -1.08516 0
M  V30 3825 C 350.47 -0.50428 -1.82356 0
M  V30 3826 O 349.813 0.534451 -1.75754 0
M  V30 3827 C 349.875 -2.89423 -2.13248 0
M  V30 3828 C 349.539 -4.28504 -1.5885 0
M  V30 3829 C 350.536 -5.09536 -1.03289 0
M  V30 3830 C 348.221 -4.75034 -1.63243 0
M  V30 3831 C 350.215 -6.35206 -0.52845 0
M  V30 3832 C 347.902 -6.00672 -1.12411 0
M  V30 3833 C 348.9 -6.80592 -0.573062 0
M  V30 3834 O 348.588 -8.03867 -0.0723692 0
M  V30 3835 H 348.32 -0.590633 -0.328829 0
M  V30 3836 H 350.874 -2.01819 -0.381868 0
M  V30 3837 H 349.104 -2.5897 -2.87178 0
M  V30 3838 H 350.793 -2.98921 -2.74592 0
M  V30 3839 H 351.559 -4.74745 -0.99206 0
M  V30 3840 H 347.438 -4.12875 -2.05074 0
M  V30 3841 H 350.982 -6.97532 -0.0976774 0
M  V30 3842 H 346.879 -6.34955 -1.162 0
M  V30 3843 H 347.647 -8.18283 -0.188258 0
M  V30 3844 N 350.31 0.590341 -1.46126 0
M  V30 3845 C 351.558 1.34616 -1.50742 0
M  V30 3846 C 351.879 1.94363 -0.157486 0
M  V30 3847 O 351.149 1.78136 0.815136 0
M  V30 3848 H 349.729 0.499789 -0.555175 0
M  V30 3849 H 352.391 0.691953 -1.82203 0
M  V30 3850 H 351.487 2.15678 -2.25587 0
M  V30 3851 N 351.788 1.33704 0.83433 0
M  V30 3852 C 353.034 1.25603 1.59222 0
M  V30 3853 C 353.367 -0.176659 1.93395 0
M  V30 3854 O 352.642 -1.11915 1.59076 0
M  V30 3855 C 352.925 2.13576 2.89926 0
M  V30 3856 C 352.778 3.65326 2.62406 0
M  V30 3857 C 354.097 2.01238 3.91397 0
M  V30 3858 H 351.216 0.457613 0.577719 0
M  V30 3859 H 353.858 1.63848 0.961972 0
M  V30 3860 H 352.008 1.8109 3.43713 0
M  V30 3861 H 353.68 4.08124 2.15017 0
M  V30 3862 H 351.923 3.8698 1.96033 0
M  V30 3863 H 352.594 4.22232 3.55562 0
M  V30 3864 H 355.07 2.29738 3.46929 0
M  V30 3865 H 353.946 2.65036 4.80673 0
M  V30 3866 H 354.207 0.985951 4.30966 0
M  V30 3867 N 353.266 -1.05314 1.17247 0
M  V30 3868 C 354.491 -1.82509 0.985148 0
M  V30 3869 C 354.916 -1.82343 -0.461788 0
M  V30 3870 O 354.274 -1.23151 -1.33055 0
M  V30 3871 C 354.322 -3.26566 1.52929 0
M  V30 3872 O 353.426 -4.05666 0.742225 0
M  V30 3873 H 352.767 -0.564347 0.349869 0
M  V30 3874 H 355.297 -1.32718 1.55715 0
M  V30 3875 H 355.307 -3.77369 1.55103 0
M  V30 3876 H 353.982 -3.26001 2.58256 0
M  V30 3877 H 352.559 -3.64397 0.791794 0
M  V30 3878 N 354.744 -0.972509 -1.24016 0
M  V30 3879 C 355.676 -0.464375 -2.24446 0
M  V30 3880 C 356.689 0.4295 -1.57032 0
M  V30 3881 O 357.878 0.234902 -1.76948 0
M  V30 3882 C 354.978 0.348385 -3.37105 0
M  V30 3883 C 354.151 -0.53673 -4.34094 0
M  V30 3884 C 353.21 0.220838 -5.25736 0
M  V30 3885 O 352.236 -0.386867 -5.67884 0
M  V30 3886 N 353.438 1.50907 -5.60542 0
M  V30 3887 H 356.203 -1.32788 -2.68677 0
M  V30 3888 H 353.764 -0.844877 -1.38107 0
M  V30 3889 H 355.756 0.863341 -3.95384 0
M  V30 3890 H 354.326 1.11285 -2.92121 0
M  V30 3891 H 353.546 -1.23261 -3.74433 0
M  V30 3892 H 354.834 -1.14022 -4.95859 0
M  V30 3893 H 354.232 2.02444 -5.28236 0
M  V30 3894 H 352.789 1.96962 -6.21329 0
M  V30 3895 N 356.222 1.38976 -0.743202 0
M  V30 3896 C 357.185 2.28901 -0.117014 0
M  V30 3897 C 358.185 1.46698 0.658503 0
M  V30 3898 O 359.375 1.67274 0.486305 0
M  V30 3899 C 356.507 3.30309 0.84315 0
M  V30 3900 H 357.7 2.8578 -0.909373 0
M  V30 3901 H 355.253 1.47761 -0.509547 0
M  V30 3902 H 355.988 2.785 1.66157 0
M  V30 3903 H 355.773 3.91029 0.289594 0
M  V30 3904 H 357.263 3.97577 1.2776 0
M  V30 3905 N 357.7 0.491464 1.49741 0
M  V30 3906 C 358.947 -0.0564256 2.02421 0
M  V30 3907 C 359.275 -1.37872 1.37192 0
M  V30 3908 O 358.53 -1.89375 0.493508 0
M  V30 3909 C 358.829 -0.267329 3.56399 0
M  V30 3910 C 358.495 0.975775 4.40215 0
M  V30 3911 C 357.157 1.31655 4.62839 0
M  V30 3912 C 359.509 1.80251 4.89039 0
M  V30 3913 C 356.837 2.48375 5.31532 0
M  V30 3914 C 359.189 2.96116 5.59015 0
M  V30 3915 C 357.853 3.30585 5.79888 0
M  V30 3916 H 357.123 -0.0206476 0.740712 0
M  V30 3917 H 359.77 0.649686 1.80143 0
M  V30 3918 H 358.075 -1.05588 3.77304 0
M  V30 3919 H 359.772 -0.705549 3.94744 0
M  V30 3920 H 356.362 0.700315 4.2284 0
M  V30 3921 H 360.546 1.55239 4.71396 0
M  V30 3922 H 355.802 2.7533 5.45897 0
M  V30 3923 H 359.976 3.60509 5.95824 0
M  V30 3924 H 357.603 4.21132 6.32892 0
M  V30 3925 N 359.178 -1.55987 0.224894 0
M  V30 3926 C 360.589 -1.84553 -0.282345 0
M  V30 3927 C 360.94 -1.14634 -1.59227 0
M  V30 3928 O 360.065 -0.417155 -2.12341 0
M  V30 3929 C 360.66 -3.348 -0.519062 0
M  V30 3930 C 359.219 -3.63671 -0.970604 0
M  V30 3931 C 358.366 -2.77277 -0.0355261 0
M  V30 3932 H 361.317 -1.52245 0.448006 0
M  V30 3933 H 361.338 -3.55187 -1.36463 0
M  V30 3934 H 360.85 -3.8566 0.43449 0
M  V30 3935 H 358.951 -3.1827 -1.9374 0
M  V30 3936 H 359.064 -4.71631 -0.842698 0
M  V30 3937 H 357.428 -2.48846 -0.542927 0
M  V30 3938 H 358.211 -3.30937 0.913003 0
M  V30 3939 N 360.656 0.0484629 -1.57525 0
M  V30 3940 C 361.896 0.748196 -1.90214 0
M  V30 3941 C 362.26 1.73545 -0.821347 0
M  V30 3942 O 363.461 2.48201 -1.03198 0
M  V30 3943 C 361.732 1.41727 -3.28098 0
M  V30 3944 S 363.291 2.14884 -3.82584 0
M  V30 3945 H 360.109 0.248307 -0.666232 0
M  V30 3946 H 362.711 0.00343188 -1.955 0
M  V30 3947 H 361.415 0.685244 -4.04639 0
M  V30 3948 H 360.946 2.20099 -3.26068 0
M  V30 3949 H 362.961 3.41755 -3.59747 0
M  V30 3950 N 362.134 1.5431 0.320358 0
M  V30 3951 C 363.381 1.72668 1.05792 0
M  V30 3952 C 363.709 0.502084 1.87908 0
M  V30 3953 O 362.964 -0.516149 1.88771 0
M  V30 3954 C 363.263 2.95639 2.00828 0
M  V30 3955 C 362.929 4.30265 1.34843 0
M  V30 3956 C 361.591 4.66865 1.16578 0
M  V30 3957 C 363.943 5.13801 0.875095 0
M  V30 3958 C 361.271 5.84597 0.496336 0
M  V30 3959 C 363.623 6.32219 0.219463 0
M  V30 3960 C 362.287 6.67495 0.0246915 0
M  V30 3961 H 361.557 0.631837 0.387121 0
M  V30 3962 H 364.204 1.88552 0.334735 0
M  V30 3963 H 362.509 2.74456 2.79609 0
M  V30 3964 H 364.206 3.07038 2.57932 0
M  V30 3965 H 360.796 4.01472 1.50061 0
M  V30 3966 H 364.98 4.86039 1.00398 0
M  V30 3967 H 360.236 6.10486 0.334264 0
M  V30 3968 H 364.41 6.96227 -0.155291 0
M  V30 3969 H 362.037 7.5858 -0.496065 0
M  V30 3970 N 363.613 -0.582584 1.46437 0
M  V30 3971 C 364.543 -1.70187 1.59871 0
M  V30 3972 C 365.524 -1.64066 0.449042 0
M  V30 3973 O 366.709 -1.82081 0.6753 0
M  V30 3974 C 363.839 -3.08827 1.58881 0
M  V30 3975 C 362.793 -3.29779 2.72819 0
M  V30 3976 C 362.119 -4.68947 2.5689 0
M  V30 3977 C 363.419 -3.17601 4.1464 0
M  V30 3978 H 365.113 -1.592 2.53566 0
M  V30 3979 H 362.659 -0.764472 1.22032 0
M  V30 3980 H 364.612 -3.86951 1.66873 0
M  V30 3981 H 363.336 -3.20713 0.617306 0
M  V30 3982 H 361.995 -2.54054 2.64296 0
M  V30 3983 H 361.643 -4.77599 1.57823 0
M  V30 3984 H 361.343 -4.83919 3.33312 0
M  V30 3985 H 362.867 -5.4924 2.66773 0
M  V30 3986 H 364.281 -3.8557 4.24274 0
M  V30 3987 H 362.678 -3.44094 4.9165 0
M  V30 3988 H 363.748 -2.14681 4.34788 0
M  V30 3989 N 365.091 -1.34144 -0.827227 0
M  V30 3990 C 366.337 -1.27455 -1.58515 0
M  V30 3991 C 366.692 0.155271 -1.91772 0
M  V30 3992 O 365.985 1.10042 -1.56848 0
M  V30 3993 C 366.179 -2.09464 -2.89585 0
M  V30 3994 C 366.008 -3.60276 -2.69131 0
M  V30 3995 C 364.778 -4.29565 -2.66087 0
M  V30 3996 C 366.976 -4.54367 -2.40947 0
M  V30 3997 N 364.958 -5.66252 -2.37132 0
M  V30 3998 C 366.329 -5.79027 -2.21648 0
M  V30 3999 C 368.384 -4.43327 -2.26639 0
M  V30 4000 C 367.087 -6.93891 -1.89492 0
M  V30 4001 C 369.113 -5.58019 -1.95878 0
M  V30 4002 C 368.475 -6.81695 -1.774 0
M  V30 4003 H 364.574 -0.521614 -0.582617 0
M  V30 4004 H 367.158 -1.68811 -0.970105 0
M  V30 4005 H 365.329 -1.70411 -3.49019 0
M  V30 4006 H 367.061 -1.94453 -3.54923 0
M  V30 4007 H 363.816 -3.81959 -2.80008 0
M  V30 4008 H 364.24 -6.38338 -2.25507 0
M  V30 4009 H 368.882 -3.48333 -2.39633 0
M  V30 4010 H 366.6 -7.88871 -1.75236 0
M  V30 4011 H 370.186 -5.5142 -1.85546 0
M  V30 4012 H 369.066 -7.68942 -1.53941 0
M  V30 4013 N 366.569 1.04691 -1.17803 0
M  V30 4014 C 367.499 2.14494 -0.92275 0
M  V30 4015 C 368.48 1.69546 0.137179 0
M  V30 4016 O 369.665 1.94195 -0.0141108 0
M  V30 4017 C 366.795 3.44491 -0.440803 0
M  V30 4018 C 365.749 4.03031 -1.4405 0
M  V30 4019 C 365.075 5.28432 -0.81631 0
M  V30 4020 C 366.375 4.39932 -2.81527 0
M  V30 4021 H 368.069 2.36107 -1.84103 0
M  V30 4022 H 365.615 1.1347 -0.886599 0
M  V30 4023 H 367.568 4.2066 -0.249602 0
M  V30 4024 H 366.292 3.22546 0.513025 0
M  V30 4025 H 364.951 3.28937 -1.61853 0
M  V30 4026 H 364.599 5.02792 0.144511 0
M  V30 4027 H 364.299 5.68559 -1.48371 0
M  V30 4028 H 365.823 6.07284 -0.635496 0
M  V30 4029 H 367.237 5.07113 -2.67412 0
M  V30 4030 H 365.634 4.9109 -3.44892 0
M  V30 4031 H 366.704 3.50045 -3.35554 0
M  V30 4032 N 368.047 0.979072 1.23499 0
M  V30 4033 C 369.295 0.645941 1.91499 0
M  V30 4034 C 369.616 -0.822948 1.76784 0
M  V30 4035 O 368.886 -1.58854 1.14639 0
M  V30 4036 H 367.466 0.235919 0.708767 0
M  V30 4037 H 370.128 1.2426 1.50152 0
M  V30 4038 H 369.224 0.896411 2.9895 0
M  V30 4039 N 369.525 -1.3858 0.750561 0
M  V30 4040 C 370.455 -2.33102 0.136237 0
M  V30 4041 C 371.436 -1.54713 -0.706965 0
M  V30 4042 O 372.621 -1.83043 -0.648769 0
M  V30 4043 C 369.751 -3.38882 -0.760017 0
M  V30 4044 C 368.705 -4.27995 -0.0197785 0
M  V30 4045 C 368.031 -5.24605 -1.03408 0
M  V30 4046 C 369.331 -5.09554 1.14684 0
M  V30 4047 H 371.025 -2.84726 0.925822 0
M  V30 4048 H 368.571 -1.36898 0.446654 0
M  V30 4049 H 370.524 -4.0397 -1.19943 0
M  V30 4050 H 369.248 -2.85734 -1.58189 0
M  V30 4051 H 367.907 -3.64409 0.400184 0
M  V30 4052 H 367.555 -4.67746 -1.84994 0
M  V30 4053 H 367.255 -5.85081 -0.543464 0
M  V30 4054 H 368.779 -5.9257 -1.47288 0
M  V30 4055 H 370.193 -5.67899 0.785118 0
M  V30 4056 H 368.59 -5.7925 1.56812 0
M  V30 4057 H 369.66 -4.4347 1.96118 0
M  V30 4058 N 371.003 -0.499398 -1.49478 0
M  V30 4059 C 372.243 0.0440751 -2.04352 0
M  V30 4060 C 372.607 1.34423 -1.37093 0
M  V30 4061 O 373.808 1.97184 -1.82679 0
M  V30 4062 C 372.079 0.194918 -3.56868 0
M  V30 4063 S 373.638 0.69287 -4.33295 0
M  V30 4064 H 370.456 0.00253458 -0.710995 0
M  V30 4065 H 373.058 -0.673 -1.83551 0
M  V30 4066 H 371.762 -0.756672 -4.03364 0
M  V30 4067 H 371.293 0.93728 -3.82071 0
M  V30 4068 H 373.308 1.96226 -4.55752 0
M  V30 4069 N 372.481 1.55866 -0.233164 0
M  V30 4070 C 373.892 1.847 0.272554 0
M  V30 4071 C 374.243 1.15477 1.58617 0
M  V30 4072 O 373.368 0.42841 2.12117 0
M  V30 4073 C 373.963 3.35071 0.501299 0
M  V30 4074 C 372.522 3.6418 0.951304 0
M  V30 4075 C 371.669 2.77292 0.0208209 0
M  V30 4076 H 374.62 1.52005 -0.456074 0
M  V30 4077 H 374.641 3.55906 1.34577 0
M  V30 4078 H 374.153 3.85424 -0.454936 0
M  V30 4079 H 372.254 3.19293 1.92049 0
M  V30 4080 H 372.367 4.72071 0.817675 0
M  V30 4081 H 370.731 2.49131 0.529723 0
M  V30 4082 H 371.514 3.30448 -0.93054 0
M  V30 4083 N 373.959 -0.0401083 1.57549 0
M  V30 4084 C 374.909 -1.05175 2.02292 0
M  V30 4085 C 375.893 -1.32674 0.910294 0
M  V30 4086 O 377.085 -1.32444 1.17421 0
M  V30 4087 C 374.214 -2.35622 2.49674 0
M  V30 4088 C 373.3 -2.11261 3.67736 0
M  V30 4089 N 373.691 -1.56923 4.80842 0
M  V30 4090 C 371.989 -2.41596 3.74897 0
M  V30 4091 C 372.69 -1.48111 5.62528 0
M  V30 4092 N 371.666 -1.95282 5.07312 0
M  V30 4093 H 375.468 -0.625455 2.87168 0
M  V30 4094 H 372.982 -0.246624 1.60516 0
M  V30 4095 H 374.979 -3.08893 2.79983 0
M  V30 4096 H 373.639 -2.7894 1.662 0
M  V30 4097 H 374.65 -1.25345 5.02503 0
M  V30 4098 H 371.327 -2.88064 3.02201 0
M  V30 4099 H 372.717 -1.06683 6.63377 0
M  V30 4100 N 375.437 -1.54477 -0.31217 0
M  V30 4101 C 376.387 -1.81037 -1.38598 0
M  V30 4102 C 377.371 -0.666941 -1.46426 0
M  V30 4103 O 378.563 -0.927269 -1.50767 0
M  V30 4104 C 375.692 -2.05127 -2.75277 0
M  V30 4105 C 374.778 -3.25624 -2.71716 0
M  V30 4106 N 375.169 -4.46428 -2.37773 0
M  V30 4107 C 373.467 -3.27427 -3.02833 0
M  V30 4108 C 374.168 -5.28406 -2.43232 0
M  V30 4109 N 373.144 -4.6586 -2.80135 0
M  V30 4110 H 376.946 -2.7201 -1.11301 0
M  V30 4111 H 374.46 -1.53826 -0.520705 0
M  V30 4112 H 376.457 -2.22299 -3.52688 0
M  V30 4113 H 375.117 -1.15416 -3.03495 0
M  V30 4114 H 376.128 -4.73227 -2.1042 0
M  V30 4115 H 372.805 -2.47786 -3.36018 0
M  V30 4116 H 374.195 -6.34903 -2.19882 0
M  V30 4117 N 376.915 0.57481 -1.46744 0
M  V30 4118 C 378.164 1.32898 -1.51727 0
M  V30 4119 C 378.477 1.948 -0.176692 0
M  V30 4120 O 379.683 2.71299 -0.104385 0
M  V30 4121 C 378.139 2.40901 -2.67385 0
M  V30 4122 C 377.747 1.85266 -4.07898 0
M  V30 4123 C 379.491 3.17609 -2.81646 0
M  V30 4124 C 377.398 2.90945 -5.14883 0
M  V30 4125 H 376.328 0.499631 -0.564699 0
M  V30 4126 H 378.979 0.612536 -1.72975 0
M  V30 4127 H 377.361 3.15379 -2.39483 0
M  V30 4128 H 378.535 1.17278 -4.45626 0
M  V30 4129 H 376.85 1.21199 -3.98371 0
M  V30 4130 H 379.447 3.96493 -3.58744 0
M  V30 4131 H 379.79 3.70696 -1.89448 0
M  V30 4132 H 380.323 2.50239 -3.09233 0
M  V30 4133 H 377.062 2.42736 -6.089 0
M  V30 4134 H 376.582 3.57398 -4.81691 0
M  V30 4135 H 378.261 3.54755 -5.41071 0
M  V30 4136 N 378.394 1.34581 0.820102 0
M  V30 4137 C 379.624 1.29991 1.6058 0
M  V30 4138 C 380.032 -0.127588 1.88769 0
M  V30 4139 O 379.375 -1.08595 1.48165 0
M  V30 4140 C 379.437 2.02548 2.9701 0
M  V30 4141 C 379.101 3.51794 2.91701 0
M  V30 4142 C 380.098 4.46647 2.66087 0
M  V30 4143 C 377.783 3.94249 3.11245 0
M  V30 4144 C 379.777 5.81929 2.60071 0
M  V30 4145 C 377.464 5.2963 3.04853 0
M  V30 4146 C 378.462 6.23282 2.793 0
M  V30 4147 O 378.15 7.56181 2.72847 0
M  V30 4148 H 377.882 0.448539 0.505756 0
M  V30 4149 H 380.436 1.77811 1.02822 0
M  V30 4150 H 378.666 1.49345 3.56697 0
M  V30 4151 H 380.355 1.91211 3.58041 0
M  V30 4152 H 381.121 4.15168 2.5072 0
M  V30 4153 H 377 3.21749 3.30149 0
M  V30 4154 H 380.544 6.54999 2.40046 0
M  V30 4155 H 376.441 5.60727 3.19774 0
M  V30 4156 H 377.209 7.6595 2.88553 0
M  V30 4157 N 379.872 -1.04064 1.18357 0
M  V30 4158 C 381.12 -1.76915 0.977013 0
M  V30 4159 C 381.441 -1.88624 -0.494577 0
M  V30 4160 O 380.711 -1.41125 -1.3587 0
M  V30 4161 H 379.291 -0.65535 0.358504 0
M  V30 4162 H 381.953 -1.25592 1.49039 0
M  V30 4163 H 381.049 -2.78178 1.41504 0
M  V30 4164 N 381.35 -0.985608 -1.22978 0
M  V30 4165 C 382.28 -0.549649 -2.26939 0
M  V30 4166 C 383.261 0.419803 -1.64838 0
M  V30 4167 O 384.446 0.31203 -1.91677 0
M  V30 4168 C 381.576 0.143652 -3.47003 0
M  V30 4169 C 380.53 -0.743606 -4.21491 0
M  V30 4170 C 379.856 0.0822027 -5.34637 0
M  V30 4171 C 381.156 -2.03694 -4.80943 0
M  V30 4172 H 382.85 -1.41862 -2.63658 0
M  V30 4173 H 380.396 -0.683571 -1.26741 0
M  V30 4174 H 382.349 0.459985 -4.18882 0
M  V30 4175 H 381.073 1.04711 -3.09359 0
M  V30 4176 H 379.732 -1.04347 -3.51436 0
M  V30 4177 H 379.38 0.986359 -4.93234 0
M  V30 4178 H 379.08 -0.508377 -5.85397 0
M  V30 4179 H 380.604 0.392797 -6.09335 0
M  V30 4180 H 382.018 -1.78504 -5.44802 0
M  V30 4181 H 380.415 -2.57573 -5.42011 0
M  V30 4182 H 381.485 -2.72042 -4.01399 0
M  V30 4183 N 382.828 1.3818 -0.7579 0
M  V30 4184 C 384.239 1.82726 -0.383134 0
M  V30 4185 C 384.59 1.63214 1.08884 0
M  V30 4186 O 383.715 1.13566 1.84205 0
M  V30 4187 C 384.31 3.31728 -0.688631 0
M  V30 4188 C 382.869 3.74606 -0.367091 0
M  V30 4189 C 382.016 2.60896 -0.939599 0
M  V30 4190 H 384.967 1.26847 -0.953699 0
M  V30 4191 H 384.988 3.80487 0.0316492 0
M  V30 4192 H 384.5 3.45898 -1.76001 0
M  V30 4193 H 382.601 3.66013 0.697532 0
M  V30 4194 H 382.714 4.71215 -0.865658 0
M  V30 4195 H 381.078 2.52075 -0.3647 0
M  V30 4196 H 381.861 2.77864 -2.0161 0
M  V30 4197 N 384.306 0.507319 1.49211 0
M  V30 4198 C 385.534 -0.0315749 2.06876 0
M  V30 4199 C 385.949 -1.30241 1.36685 0
M  V30 4200 O 385.306 -1.76937 0.447152 0
M  V30 4201 C 385.357 -0.282627 3.60393 0
M  V30 4202 O 385.078 0.937835 4.27944 0
M  V30 4203 C 386.579 -0.864453 4.3479 0
M  V30 4204 H 383.799 0.0233048 0.670595 0
M  V30 4205 H 386.343 0.706484 1.91909 0
M  V30 4206 H 384.498 -0.97068 3.75042 0
M  V30 4207 H 384.912 0.704567 5.19746 0
M  V30 4208 H 386.386 -0.989664 5.43056 0
M  V30 4209 H 386.863 -1.86382 3.97692 0
M  V30 4210 H 387.469 -0.213672 4.24763 0
M  V30 4211 N 385.784 -1.5574 0.241426 0
M  V30 4212 C 387.032 -1.98417 -0.384075 0
M  V30 4213 C 387.353 -1.13078 -1.58866 0
M  V30 4214 O 386.623 -0.212312 -1.94746 0
M  V30 4215 H 385.203 -0.732813 -0.144894 0
M  V30 4216 H 387.865 -1.9193 0.338943 0
M  V30 4217 H 386.961 -3.04219 -0.696939 0
M  V30 4218 N 387.262 0.0317525 -1.57568 0
M  V30 4219 C 388.172 1.05021 -2.0978 0
M  V30 4220 C 389.188 1.39809 -1.03583 0
M  V30 4221 O 390.364 1.49182 -1.35302 0
M  V30 4222 C 387.429 2.33301 -2.56459 0
M  V30 4223 C 386.49 2.0512 -3.77127 0
M  V30 4224 C 385.723 3.27283 -4.2157 0
M  V30 4225 O 385.946 4.37861 -3.65559 0
M  V30 4226 O 384.88 3.13141 -5.14029 0
M  V30 4227 H 388.706 0.636505 -2.96955 0
M  V30 4228 H 386.291 0.248559 -1.47318 0
M  V30 4229 H 388.173 3.08722 -2.86825 0
M  V30 4230 H 386.848 2.73973 -1.72397 0
M  V30 4231 H 385.755 1.27276 -3.51784 0
M  V30 4232 H 387.088 1.69305 -4.62165 0
M  V30 4233 N 388.74 1.54641 0.303973 0
M  V30 4234 C 389.97 1.77511 1.05705 0
M  V30 4235 C 390.378 0.533228 1.81531 0
M  V30 4236 O 389.721 -0.506423 1.76582 0
M  V30 4237 C 389.783 2.92779 2.08617 0
M  V30 4238 C 389.447 4.30977 1.52013 0
M  V30 4239 C 390.444 5.11115 0.9517 0
M  V30 4240 C 388.129 4.77571 1.55665 0
M  V30 4241 C 390.123 6.35966 0.427327 0
M  V30 4242 C 387.81 6.02384 1.02841 0
M  V30 4243 C 388.808 6.81417 0.464713 0
M  V30 4244 O 388.496 8.03881 -0.0555283 0
M  V30 4245 H 388.228 0.59579 0.319391 0
M  V30 4246 H 390.782 2.02401 0.349712 0
M  V30 4247 H 389.012 2.63506 2.83022 0
M  V30 4248 H 390.701 3.03252 2.69802 0
M  V30 4249 H 391.467 4.76264 0.916407 0
M  V30 4250 H 387.346 4.16085 1.9848 0
M  V30 4251 H 390.89 6.97599 -0.0133062 0
M  V30 4252 H 386.787 6.36723 1.06084 0
M  V30 4253 H 387.555 8.18479 0.0580522 0
M  V30 4254 N 390.218 -0.567019 1.47046 0
M  V30 4255 C 391.629 -1.14916 1.47143 0
M  V30 4256 C 391.98 -1.94954 0.220767 0
M  V30 4257 O 391.105 -2.05602 -0.67505 0
M  V30 4258 C 391.7 -2.09069 2.666 0
M  V30 4259 C 390.259 -2.62575 2.69687 0
M  V30 4260 C 389.406 -1.38755 2.40088 0
M  V30 4261 H 392.357 -0.354126 1.54699 0
M  V30 4262 H 392.378 -2.92789 2.43011 0
M  V30 4263 H 391.89 -1.50789 3.57609 0
M  V30 4264 H 389.991 -3.24681 1.82792 0
M  V30 4265 H 390.104 -3.04239 3.70102 0
M  V30 4266 H 388.468 -1.69098 1.90468 0
M  V30 4267 H 389.251 -0.822822 3.33293 0
M  V30 4268 N 391.696 -1.35014 -0.812953 0
M  V30 4269 C 392.944 -1.27678 -1.56661 0
M  V30 4270 C 393.265 0.150359 -1.94419 0
M  V30 4271 O 392.535 1.08532 -1.63088 0
M  V30 4272 H 391.115 -0.469602 -0.580933 0
M  V30 4273 H 393.777 -1.69043 -0.970076 0
M  V30 4274 H 392.873 -1.88833 -2.48492 0
M  V30 4275 N 393.175 1.03435 -1.18907 0
M  V30 4276 C 394.105 2.13503 -0.945448 0
M  V30 4277 C 395.086 1.69682 0.119189 0
M  V30 4278 O 396.271 1.94169 -0.034707 0
M  V30 4279 C 393.401 3.44004 -0.477316 0
M  V30 4280 C 392.355 4.0148 -1.48316 0
M  V30 4281 C 391.681 5.27537 -0.872311 0
M  V30 4282 C 392.981 4.36921 -2.86177 0
M  V30 4283 H 394.675 2.34141 -1.86597 0
M  V30 4284 H 392.221 1.12523 -0.898584 0
M  V30 4285 H 394.174 4.20372 -0.294204 0
M  V30 4286 H 392.898 3.23072 0.478786 0
M  V30 4287 H 391.557 3.27201 -1.65332 0
M  V30 4288 H 391.205 5.02917 0.0911752 0
M  V30 4289 H 390.905 5.66954 -1.54393 0
M  V30 4290 H 392.429 6.06576 -0.699871 0
M  V30 4291 H 393.843 5.04248 -2.72776 0
M  V30 4292 H 392.24 4.87405 -3.50081 0
M  V30 4293 H 393.31 3.46466 -3.39248 0
M  V30 4294 N 394.653 0.992116 1.22453 0
M  V30 4295 C 395.586 0.486701 2.22949 0
M  V30 4296 C 396.564 -0.45259 1.56174 0
M  V30 4297 O 397.748 -0.378317 1.84665 0
M  V30 4298 C 394.875 -0.294537 3.37417 0
M  V30 4299 C 393.921 0.590628 4.22391 0
M  V30 4300 S 394.754 2.04546 4.94895 0
M  V30 4301 C 395.91 1.27369 6.12803 0
M  V30 4302 H 396.143 1.33828 2.65475 0
M  V30 4303 H 393.676 0.799023 1.32117 0
M  V30 4304 H 395.634 -0.739241 4.03789 0
M  V30 4305 H 394.295 -1.12139 2.934 0
M  V30 4306 H 393.488 -0.0104375 5.03999 0
M  V30 4307 H 393.09 0.972064 3.61147 0
M  V30 4308 H 395.382 0.540943 6.75337 0
M  V30 4309 H 396.325 2.06502 6.7732 0
M  V30 4310 H 396.733 0.787324 5.58983 0
M  V30 4311 N 396.131 -1.37776 0.765217 0
M  V30 4312 C 397.078 -2.30342 0.145274 0
M  V30 4313 C 398.048 -1.5077 -0.696971 0
M  V30 4314 O 399.233 -1.79362 -0.650689 0
M  V30 4315 C 396.373 -3.37227 -0.732939 0
M  V30 4316 C 395.486 -4.31819 0.125199 0
M  V30 4317 C 394.621 -5.25777 -0.757107 0
M  V30 4318 C 393.66 -6.12012 0.103963 0
M  V30 4319 N 392.797 -6.98232 -0.735953 0
M  V30 4320 H 397.637 -2.8278 0.940195 0
M  V30 4321 H 395.174 -1.39211 0.475255 0
M  V30 4322 H 397.132 -3.97818 -1.25686 0
M  V30 4323 H 395.762 -2.86171 -1.49353 0
M  V30 4324 H 394.814 -3.7259 0.766865 0
M  V30 4325 H 396.126 -4.92509 0.789683 0
M  V30 4326 H 395.28 -5.91541 -1.34776 0
M  V30 4327 H 394.019 -4.65481 -1.45529 0
M  V30 4328 H 393.024 -5.45233 0.707197 0
M  V30 4329 H 394.249 -6.74379 0.799381 0
M  V30 4330 H 392.195 -6.40472 -1.41887 0
M  V30 4331 H 392.112 -7.55891 -0.128624 0
M  V30 4332 H 393.38 -7.68393 -1.31121 0
M  V30 4333 N 397.609 -0.515225 -1.4894 0
M  V30 4334 C 398.855 0.0242508 -2.02785 0
M  V30 4335 C 399.188 1.35323 -1.39289 0
M  V30 4336 O 398.463 1.87041 -0.533469 0
M  V30 4337 C 398.746 0.16184 -3.59736 0
M  V30 4338 C 398.599 -1.19127 -4.33738 0
M  V30 4339 C 399.918 0.895719 -4.30888 0
M  V30 4340 H 397.037 0.00733914 -0.736963 0
M  V30 4341 H 399.679 -0.669395 -1.77818 0
M  V30 4342 H 397.829 0.752624 -3.8114 0
M  V30 4343 H 399.501 -1.82202 -4.23792 0
M  V30 4344 H 397.744 -1.77695 -3.95736 0
M  V30 4345 H 398.415 -1.04815 -5.41957 0
M  V30 4346 H 400.891 0.394528 -4.14225 0
M  V30 4347 H 399.767 0.960859 -5.40425 0
M  V30 4348 H 400.028 1.9427 -3.97129 0
M  V30 4349 N 399.087 1.5561 -0.249682 0
M  V30 4350 C 400.312 2.03865 0.381305 0
M  V30 4351 C 400.737 1.12769 1.50548 0
M  V30 4352 O 400.095 0.121189 1.80895 0
M  V30 4353 C 400.143 3.50101 0.863816 0
M  V30 4354 O 399.247 3.62132 1.97318 0
M  V30 4355 H 398.588 0.658827 0.0827194 0
M  V30 4356 H 401.118 2.01105 -0.376552 0
M  V30 4357 H 401.128 3.90975 1.1663 0
M  V30 4358 H 399.803 4.1588 0.0411816 0
M  V30 4359 H 398.38 3.33155 1.67517 0
M  V30 4360 N 400.565 -0.0233959 1.57583 0
M  V30 4361 C 401.795 -0.723631 1.93513 0
M  V30 4362 C 402.203 -1.69115 0.848333 0
M  V30 4363 O 401.546 -1.82781 -0.183484 0
M  V30 4364 C 401.608 -1.53075 3.25282 0
M  V30 4365 C 401.272 -0.727388 4.51174 0
M  V30 4366 C 402.269 -0.0251924 5.19894 0
M  V30 4367 C 399.954 -0.680256 4.97672 0
M  V30 4368 C 401.948 0.713374 6.33395 0
M  V30 4369 C 399.635 0.0620523 6.11068 0
M  V30 4370 C 400.633 0.757622 6.78785 0
M  V30 4371 O 400.321 1.48787 7.90011 0
M  V30 4372 H 400.053 -0.208051 0.643188 0
M  V30 4373 H 402.607 0.0167489 2.05393 0
M  V30 4374 H 400.837 -2.31508 3.09744 0
M  V30 4375 H 402.526 -2.11413 3.46496 0
M  V30 4376 H 403.292 -0.0526003 4.84971 0
M  V30 4377 H 399.171 -1.21116 4.44805 0
M  V30 4378 H 402.715 1.25683 6.86185 0
M  V30 4379 H 398.612 0.0913634 6.45435 0
M  V30 4380 H 399.38 1.40213 8.06401 0
M  V30 4381 N 402.043 -1.548 -0.295768 0
M  V30 4382 C 402.993 -1.82497 -1.3667 0
M  V30 4383 C 403.977 -0.682434 -1.45711 0
M  V30 4384 O 405.169 -0.943207 -1.49775 0
M  V30 4385 C 402.298 -2.08036 -2.73086 0
M  V30 4386 C 401.384 -3.28488 -2.68247 0
M  V30 4387 N 401.775 -4.48924 -2.33025 0
M  V30 4388 C 400.073 -3.3062 -2.99343 0
M  V30 4389 C 400.774 -5.30956 -2.37613 0
M  V30 4390 N 399.75 -4.68805 -2.75178 0
M  V30 4391 H 403.552 -2.73175 -1.0841 0
M  V30 4392 H 401.066 -1.5437 -0.504361 0
M  V30 4393 H 403.063 -2.26027 -3.5031 0
M  V30 4394 H 401.723 -1.18629 -3.02254 0
M  V30 4395 H 402.734 -4.75432 -2.05389 0
M  V30 4396 H 399.411 -2.51336 -3.33371 0
M  V30 4397 H 400.801 -6.37199 -2.13135 0
M  V30 4398 N 403.521 0.559213 -1.47345 0
M  V30 4399 C 404.471 1.66192 -1.5609 0
M  V30 4400 C 405.455 1.55323 -0.419957 0
M  V30 4401 O 406.647 1.63839 -0.669762 0
M  V30 4402 C 403.776 3.0497 -1.57634 0
M  V30 4403 C 402.862 3.2105 -2.77106 0
M  V30 4404 N 403.253 3.07203 -4.01821 0
M  V30 4405 C 401.551 3.52046 -2.73825 0
M  V30 4406 C 402.252 3.25919 -4.81821 0
M  V30 4407 N 401.228 3.52161 -4.14106 0
M  V30 4408 H 405.03 1.54052 -2.5029 0
M  V30 4409 H 402.544 0.763914 -1.43311 0
M  V30 4410 H 404.541 3.84142 -1.61989 0
M  V30 4411 H 403.201 3.18224 -0.645281 0
M  V30 4412 H 404.212 2.84572 -4.32711 0
M  V30 4413 H 400.889 3.71839 -1.89848 0
M  V30 4414 H 402.279 3.20198 -5.90697 0
M  V30 4415 N 404.999 1.35443 0.805782 0
M  V30 4416 C 406.247 1.28507 1.55982 0
M  V30 4417 C 406.568 -0.140046 1.94496 0
M  V30 4418 O 405.838 -1.07666 1.63661 0
M  V30 4419 H 404.418 0.472676 0.578434 0
M  V30 4420 H 407.08 1.69555 0.961098 0
M  V30 4421 H 406.176 1.90148 2.47488 0
M  V30 4422 N 406.477 -1.02803 1.19454 0
M  V30 4423 C 407.425 -2.13213 0.929673 0
M  V30 4424 C 408.419 -1.69011 -0.114806 0
M  V30 4425 O 409.625 -1.79967 0.0345147 0
M  V30 4426 H 406 -0.69662 0.28324 0
M  V30 4427 H 407.971 -2.32744 1.86743 0
M  V30 4428 C 406.72 -3.4429 0.485797 0
M  V30 4429 H 406.043 -3.7872 1.28105 0
M  V30 4430 H 407.483 -4.22638 0.339582 0
M  V30 4431 C 405.942 -3.27258 -0.800244 0
M  V30 4432 O 406.472 -3.55967 -1.86146 0
M  V30 4433 N 404.678 -2.80545 -0.75781 0
M  V30 4434 H 404.225 -2.57382 0.106039 0
M  V30 4435 H 404.183 -2.6953 -1.61867 0
M  V30 4436 N 407.956 -0.998596 -1.21925 0
M  V30 4437 C 408.906 -0.524743 -2.21879 0
M  V30 4438 C 409.89 0.41017 -1.55584 0
M  V30 4439 O 411.082 0.236063 -1.75419 0
M  V30 4440 C 408.211 0.153636 -3.42956 0
M  V30 4441 C 407.297 -0.801918 -4.16449 0
M  V30 4442 N 407.688 -1.95211 -4.66611 0
M  V30 4443 C 405.986 -0.618972 -4.41684 0
M  V30 4444 C 406.687 -2.55234 -5.22715 0
M  V30 4445 N 405.663 -1.83451 -5.1171 0
M  V30 4446 H 409.465 -1.40189 -2.58311 0
M  V30 4447 H 406.979 -0.86159 -1.3766 0
M  V30 4448 H 408.976 0.510534 -4.13762 0
M  V30 4449 H 407.636 1.02684 -3.08036 0
M  V30 4450 H 408.647 -2.33271 -4.62391 0
M  V30 4451 H 405.324 0.207694 -4.16983 0
M  V30 4452 H 406.714 -3.52471 -5.72026 0
M  V30 4453 N 409.434 1.37368 -0.772513 0
M  V30 4454 C 410.397 2.28601 -0.165541 0
M  V30 4455 C 411.397 1.48062 0.627238 0
M  V30 4456 O 412.587 1.68268 0.450715 0
M  V30 4457 C 409.719 3.32023 0.772897 0
M  V30 4458 H 410.912 2.83787 -0.969787 0
M  V30 4459 H 408.465 1.46647 -0.540775 0
M  V30 4460 H 409.2 2.81962 1.60212 0
M  V30 4461 H 408.985 3.91555 0.206585 0
M  V30 4462 H 410.475 4.00197 1.19298 0
M  V30 4463 N 410.912 0.523116 1.48665 0
M  V30 4464 C 412.189 -0.0775449 1.95446 0
M  V30 4465 C 412.569 -1.5197 1.4652 0
M  V30 4466 O 411.917 -2.17876 0.688657 0
M  V30 4467 C 412.127 0.0326135 3.48985 0
M  V30 4468 C 413.475 -0.130141 4.24401 0
M  V30 4469 O 414.499 -0.0415142 3.56176 0
M  V30 4470 O 413.358 -0.31491 5.45592 0
M  V30 4471 H 410.452 -0.0831012 0.822814 0
M  V30 4472 H 412.998 0.587227 1.59216 0
M  V30 4473 H 411.77 1.03748 3.77296 0
M  V30 4474 H 411.393 -0.671317 3.91892 0
M  V30 4475 N 412.39 -1.55475 0.257931 0
M  V30 4476 C 413.801 -1.8511 -0.243135 0
M  V30 4477 C 414.152 -1.17986 -1.5676 0
M  V30 4478 O 413.277 -0.462102 -2.11409 0
M  V30 4479 C 413.872 -3.35826 -0.447929 0
M  V30 4480 C 412.431 -3.65647 -0.893245 0
M  V30 4481 C 411.578 -2.7729 0.0232965 0
M  V30 4482 H 414.529 -1.51261 0.480199 0
M  V30 4483 H 414.55 -3.58002 -1.28898 0
M  V30 4484 H 414.062 -3.84652 0.516196 0
M  V30 4485 H 412.163 -3.22308 -1.86945 0
M  V30 4486 H 412.276 -4.73312 -0.742469 0
M  V30 4487 H 410.64 -2.49942 -0.490021 0
M  V30 4488 H 411.423 -3.28926 0.982994 0
M  V30 4489 N 413.868 0.0150385 -1.57593 0
M  V30 4490 C 414.778 1.02791 -2.10882 0
M  V30 4491 C 415.794 1.38702 -1.0506 0
M  V30 4492 O 416.97 1.47739 -1.36877 0
M  V30 4493 C 414.035 2.30568 -2.58919 0
M  V30 4494 C 413.096 2.01108 -3.79281 0
M  V30 4495 C 412.329 3.22794 -4.25018 0
M  V30 4496 O 412.552 4.33959 -3.70183 0
M  V30 4497 O 411.486 3.07672 -5.17322 0
M  V30 4498 H 415.312 0.604973 -2.97613 0
M  V30 4499 H 412.897 0.23292 -1.47573 0
M  V30 4500 H 414.779 3.05662 -2.90084 0
M  V30 4501 H 413.454 2.72129 -1.75293 0
M  V30 4502 H 412.361 1.23537 -3.53114 0
M  V30 4503 H 413.694 1.64394 -4.63935 0
M  V30 4504 N 415.346 1.54954 0.287554 0
M  V30 4505 C 416.256 1.8991 1.37736 0
M  V30 4506 C 417.272 0.794701 1.54792 0
M  V30 4507 O 418.448 1.09243 1.69198 0
M  V30 4508 C 415.513 2.15108 2.71899 0
M  V30 4509 C 414.574 3.38752 2.63715 0
M  V30 4510 C 413.807 3.62739 3.91479 0
M  V30 4511 O 414.03 2.89492 4.91478 0
M  V30 4512 O 412.964 4.56267 3.92561 0
M  V30 4513 H 416.79 2.82652 1.11092 0
M  V30 4514 H 414.375 1.41315 0.484807 0
M  V30 4515 H 416.257 2.32806 3.51254 0
M  V30 4516 H 414.932 1.25551 2.9836 0
M  V30 4517 H 413.839 3.26405 1.82786 0
M  V30 4518 H 415.172 4.28483 2.42205 0
M  V30 4519 N 416.824 -0.551391 1.4764 0
M  V30 4520 C 418.24 -0.877887 1.33287 0
M  V30 4521 C 418.44 -1.98817 0.327721 0
M  V30 4522 O 417.496 -2.51171 -0.258695 0
M  V30 4523 C 418.809 -1.26563 2.72768 0
M  V30 4524 C 420.357 -1.37673 2.81097 0
M  V30 4525 C 420.832 -1.79799 4.21232 0
M  V30 4526 N 422.323 -1.8694 4.23802 0
M  V30 4527 C 423.058 -2.20876 5.29151 0
M  V30 4528 N 422.554 -2.53386 6.448 0
M  V30 4529 N 424.347 -2.217 5.16532 0
M  V30 4530 H 416.498 0.18153 2.11623 0
M  V30 4531 H 418.761 0.0185514 0.947818 0
M  V30 4532 H 418.467 -0.523591 3.47781 0
M  V30 4533 H 418.341 -2.22052 3.04915 0
M  V30 4534 H 420.728 -2.10956 2.06353 0
M  V30 4535 H 420.809 -0.40357 2.52596 0
M  V30 4536 H 420.453 -1.07083 4.96483 0
M  V30 4537 H 420.383 -2.78128 4.4716 0
M  V30 4538 H 422.874 -1.64179 3.40373 0
M  V30 4539 H 423.187 -2.78325 7.20941 0
M  V30 4540 H 421.532 -2.50953 6.48111 0
M  V30 4541 H 424.723 -1.95745 4.25207 0
M  V30 4542 H 424.896 -2.47818 5.98741 0
M  V30 4543 N 418.302 -1.35869 -0.798587 0
M  V30 4544 C 419.579 -1.20145 -1.54352 0
M  V30 4545 C 419.959 0.216161 -2.0999 0
M  V30 4546 O 419.307 1.22068 -1.93162 0
M  V30 4547 C 419.517 -2.27602 -2.64572 0
M  V30 4548 C 420.865 -2.63811 -3.32699 0
M  V30 4549 O 421.889 -2.26576 -2.74849 0
M  V30 4550 O 420.748 -3.27866 -4.37226 0
M  V30 4551 H 417.842 -0.467248 -0.682355 0
M  V30 4552 H 420.388 -1.47574 -0.837859 0
M  V30 4553 H 419.16 -3.2265 -2.21388 0
M  V30 4554 H 418.783 -2.01488 -3.42766 0
M  V30 4555 N 419.78 1.02168 -1.19998 0
M  V30 4556 C 421.02 1.77232 -1.01825 0
M  V30 4557 C 421.384 1.86833 0.442428 0
M  V30 4558 O 422.585 2.58293 0.744189 0
M  V30 4559 C 420.856 3.15601 -1.67722 0
M  V30 4560 S 422.415 4.06765 -1.64584 0
M  V30 4561 H 419.233 0.610021 -0.365233 0
M  V30 4562 H 421.835 1.22368 -1.52467 0
M  V30 4563 H 420.539 3.06235 -2.73218 0
M  V30 4564 H 420.07 3.7554 -1.17189 0
M  V30 4565 H 422.085 4.91586 -0.67511 0
M  V30 4566 N 421.258 1.00505 1.21394 0
M  V30 4567 C 422.669 0.721082 1.72213 0
M  V30 4568 C 423.02 -0.761263 1.80829 0
M  V30 4569 O 422.145 -1.59464 1.46288 0
M  V30 4570 C 422.74 1.30228 3.12772 0
M  V30 4571 C 421.299 1.06743 3.60947 0
M  V30 4572 C 420.446 1.41507 2.38477 0
M  V30 4573 H 423.397 1.17594 1.06571 0
M  V30 4574 H 423.418 0.686955 3.74247 0
M  V30 4575 H 422.93 2.38115 3.06468 0
M  V30 4576 H 421.031 0.00572162 3.726 0
M  V30 4577 H 421.144 1.73936 4.46411 0
M  V30 4578 H 419.508 0.833852 2.40664 0
M  V30 4579 H 420.291 2.50424 2.34824 0
M  V30 4580 N 422.737 -1.36956 0.779787 0
M  V30 4581 C 423.965 -2.03755 0.359398 0
M  V30 4582 C 424.38 -1.58807 -1.02106 0
M  V30 4583 O 423.737 -0.773024 -1.6532 0
M  V30 4584 C 423.788 -3.59251 0.402568 0
M  V30 4585 O 423.509 -4.02557 1.72858 0
M  V30 4586 C 425.01 -4.43291 -0.0284068 0
M  V30 4587 H 422.23 -0.654148 0.149437 0
M  V30 4588 H 424.774 -1.75128 1.05595 0
M  V30 4589 H 422.929 -3.86621 -0.245478 0
M  V30 4590 H 423.343 -4.97111 1.67275 0
M  V30 4591 H 424.817 -5.51975 0.0529466 0
M  V30 4592 H 425.294 -4.25719 -1.07982 0
M  V30 4593 H 425.9 -4.21163 0.591758 0
M  V30 4594 N 424.215 -0.530993 -1.48385 0
M  V30 4595 C 425.178 0.220497 -2.28137 0
M  V30 4596 C 426.178 0.866851 -1.35434 0
M  V30 4597 O 427.368 0.726746 -1.58316 0
M  V30 4598 C 424.5 1.31921 -3.1434 0
M  V30 4599 H 425.693 -0.479714 -2.96038 0
M  V30 4600 H 423.246 -0.286968 -1.53643 0
M  V30 4601 H 423.981 2.05264 -2.51072 0
M  V30 4602 H 423.766 0.86085 -3.82533 0
M  V30 4603 H 425.256 1.84776 -3.74497 0
M  V30 4604 N 425.693 1.55336 -0.266172 0
M  V30 4605 C 427.109 1.59356 0.0882065 0
M  V30 4606 C 427.309 1.2834 1.55342 0
M  V30 4607 O 426.365 1.03996 2.30089 0
M  V30 4608 C 427.678 2.99409 -0.278364 0
M  V30 4609 C 429.226 3.12196 -0.224243 0
M  V30 4610 C 429.701 4.545 -0.565123 0
M  V30 4611 N 431.192 4.60313 -0.51634 0
M  V30 4612 C 431.927 5.68434 -0.753013 0
M  V30 4613 N 431.423 6.84738 -1.05383 0
M  V30 4614 N 433.216 5.57942 -0.682414 0
M  V30 4615 H 425.367 1.73764 -1.22147 0
M  V30 4616 H 427.63 0.809822 -0.492841 0
M  V30 4617 H 427.336 3.2691 -1.29703 0
M  V30 4618 H 427.21 3.75228 0.385186 0
M  V30 4619 H 429.597 2.84464 0.78512 0
M  V30 4620 H 429.678 2.38609 -0.921922 0
M  V30 4621 H 429.322 4.82956 -1.57213 0
M  V30 4622 H 429.252 5.26374 0.154248 0
M  V30 4623 H 431.743 3.7676 -0.29335 0
M  V30 4624 H 432.056 7.63088 -1.22133 0
M  V30 4625 H 430.401 6.86375 -1.09151 0
M  V30 4626 H 433.592 4.65958 -0.44731 0
M  V30 4627 H 433.765 6.4213 -0.870248 0
M  V30 4628 N 427.171 -0.0066808 1.57599 0
M  V30 4629 C 428.399 -0.704087 1.94551 0
M  V30 4630 C 428.814 -1.67677 0.867746 0
M  V30 4631 O 428.171 -1.8185 -0.153925 0
M  V30 4632 C 428.222 -1.44177 3.31505 0
M  V30 4633 O 427.943 -0.508097 4.35144 0
M  V30 4634 C 429.444 -2.23429 3.82876 0
M  V30 4635 H 426.664 -0.196523 0.641576 0
M  V30 4636 H 429.208 0.042453 2.04456 0
M  V30 4637 H 427.363 -2.13999 3.22929 0
M  V30 4638 H 427.777 -1.02782 5.14331 0
M  V30 4639 H 429.251 -2.70552 4.8115 0
M  V30 4640 H 429.728 -3.05818 3.15233 0
M  V30 4641 H 430.334 -1.58636 3.94607 0
M  V30 4642 N 428.649 -1.55105 -0.279332 0
M  V30 4643 C 429.926 -1.66119 -1.03267 0
M  V30 4644 C 430.306 -0.523525 -2.04505 0
M  V30 4645 O 429.654 0.477194 -2.23462 0
M  V30 4646 C 429.864 -3.05067 -1.69515 0
M  V30 4647 C 431.212 -3.62606 -2.20912 0
M  V30 4648 O 432.236 -3.07659 -1.79512 0
M  V30 4649 O 431.095 -4.58861 -2.96831 0
M  V30 4650 H 428.189 -0.674429 -0.478618 0
M  V30 4651 H 430.735 -1.67446 -0.275694 0
M  V30 4652 H 429.507 -3.79311 -0.9612 0
M  V30 4653 H 429.13 -3.07611 -2.51915 0
M  V30 4654 N 430.127 0.543554 -1.4793 0
M  V30 4655 C 431.376 1.29649 -1.54512 0
M  V30 4656 C 431.689 1.94382 -0.217973 0
M  V30 4657 O 432.895 2.71017 -0.161908 0
M  V30 4658 C 431.351 2.35175 -2.72435 0
M  V30 4659 C 430.959 1.76572 -4.11736 0
M  V30 4660 C 432.703 3.11564 -2.8832 0
M  V30 4661 C 430.61 2.79958 -5.20939 0
M  V30 4662 H 429.54 0.487541 -0.57517 0
M  V30 4663 H 432.191 0.575708 -1.74235 0
M  V30 4664 H 430.573 3.10229 -2.46118 0
M  V30 4665 H 431.747 1.07799 -4.48013 0
M  V30 4666 H 430.062 1.12722 -4.00852 0
M  V30 4667 H 432.659 3.88794 -3.67074 0
M  V30 4668 H 433.002 3.66594 -1.97268 0
M  V30 4669 H 433.535 2.43623 -3.14472 0
M  V30 4670 H 430.274 2.29766 -6.13912 0
M  V30 4671 H 429.794 3.47101 -4.89164 0
M  V30 4672 H 431.473 3.43198 -5.48474 0
M  V30 4673 N 431.605 1.3629 0.791371 0
M  V30 4674 C 432.853 1.30154 1.5461 0
M  V30 4675 C 433.174 -0.119409 1.94634 0
M  V30 4676 O 432.444 -1.05924 1.64794 0
M  V30 4677 H 431.024 0.478784 0.573389 0
M  V30 4678 H 433.686 1.70565 0.94306 0
M  V30 4679 H 432.782 1.92762 2.45457 0
M  V30 4680 N 433.083 -1.0153 1.20538 0
M  V30 4681 C 434.36 -1.72327 0.925343 0
M  V30 4682 C 434.74 -2.03383 -0.565547 0
M  V30 4683 O 434.088 -1.69934 -1.52757 0
M  V30 4684 C 434.298 -2.9902 1.79967 0
M  V30 4685 C 435.646 -3.72258 2.04228 0
M  V30 4686 O 436.67 -3.08979 1.77231 0
M  V30 4687 O 435.529 -4.86053 2.4983 0
M  V30 4688 H 432.623 -0.751099 0.346092 0
M  V30 4689 H 435.169 -1.07366 1.31417 0
M  V30 4690 H 433.941 -2.72402 2.80915 0
M  V30 4691 H 433.564 -3.71721 1.41099 0
M  V30 4692 N 434.561 -1.01147 -1.20859 0
M  V30 4693 C 435.807 -0.698899 -1.90377 0
M  V30 4694 C 436.14 0.76904 -1.78324 0
M  V30 4695 O 435.415 1.55817 -1.16409 0
M  V30 4696 C 435.698 -1.12878 -3.41951 0
M  V30 4697 C 435.551 -2.65665 -3.62963 0
M  V30 4698 C 436.87 -0.696114 -4.3456 0
M  V30 4699 H 433.989 -0.255372 -0.691342 0
M  V30 4700 H 436.631 -1.25831 -1.42361 0
M  V30 4701 H 434.781 -0.652827 -3.82976 0
M  V30 4702 H 436.453 -3.21074 -3.31224 0
M  V30 4703 H 434.696 -3.06878 -3.06608 0
M  V30 4704 H 435.367 -2.90797 -4.69192 0
M  V30 4705 H 437.843 -1.10521 -4.01154 0
M  V30 4706 H 436.719 -1.025 -5.39245 0
M  V30 4707 H 436.98 0.402465 -4.40264 0
M  V30 4708 N 436.039 1.36541 -0.78704 0
M  V30 4709 C 436.971 2.28761 -0.141773 0
M  V30 4710 C 437.984 1.49365 0.647599 0
M  V30 4711 O 439.173 1.71836 0.483173 0
M  V30 4712 C 436.273 3.28771 0.822368 0
M  V30 4713 C 435.446 4.3732 0.0835594 0
M  V30 4714 C 434.505 5.17307 0.963296 0
M  V30 4715 O 433.531 5.67638 0.421419 0
M  V30 4716 N 434.733 5.33515 2.28784 0
M  V30 4717 H 437.498 2.84777 -0.933919 0
M  V30 4718 H 435.059 1.48682 -0.640735 0
M  V30 4719 H 437.051 3.79169 1.41468 0
M  V30 4720 H 435.621 2.73412 1.5154 0
M  V30 4721 H 434.841 3.88118 -0.689809 0
M  V30 4722 H 436.129 5.0701 -0.426358 0
M  V30 4723 H 435.527 4.94234 2.75226 0
M  V30 4724 H 434.084 5.87165 2.82985 0
M  V30 4725 N 437.518 0.538854 1.48102 0
M  V30 4726 C 438.767 0.0059532 2.01699 0
M  V30 4727 C 439.08 -1.34476 1.42041 0
M  V30 4728 O 440.286 -1.96653 1.87189 0
M  V30 4729 C 438.742 -0.0397627 3.59878 0
M  V30 4730 C 438.35 1.30659 4.28523 0
M  V30 4731 C 440.094 -0.521024 4.2129 0
M  V30 4732 C 438.001 1.22098 5.78659 0
M  V30 4733 H 436.931 -0.00154456 0.753998 0
M  V30 4734 H 439.582 0.683963 1.70277 0
M  V30 4735 H 437.964 -0.783037 3.88181 0
M  V30 4736 H 439.138 2.06613 4.11883 0
M  V30 4737 H 437.453 1.7243 3.79021 0
M  V30 4738 H 440.05 -0.603184 5.31287 0
M  V30 4739 H 440.393 -1.52885 3.8721 0
M  V30 4740 H 440.926 0.166834 3.9745 0
M  V30 4741 H 437.665 2.20424 6.17328 0
M  V30 4742 H 437.185 0.50295 5.97688 0
M  V30 4743 H 438.864 0.915345 6.40492 0
M  V30 4744 N 438.996 -1.55193 0.274407 0
M  V30 4745 C 439.926 -2.25471 -0.607032 0
M  V30 4746 C 440.907 -1.24461 -1.15946 0
M  V30 4747 O 442.092 -1.53179 -1.19373 0
M  V30 4748 C 439.222 -2.97526 -1.79153 0
M  V30 4749 C 438.176 -4.05459 -1.37067 0
M  V30 4750 C 437.502 -4.65084 -2.6382 0
M  V30 4751 C 438.802 -5.19691 -0.521389 0
M  V30 4752 H 440.496 -2.99393 -0.0209343 0
M  V30 4753 H 438.042 -1.43997 -0.00862866 0
M  V30 4754 H 439.995 -3.45402 -2.41404 0
M  V30 4755 H 438.719 -2.21138 -2.40344 0
M  V30 4756 H 437.378 -3.58393 -0.771355 0
M  V30 4757 H 437.026 -3.85365 -3.23268 0
M  V30 4758 H 436.726 -5.37961 -2.36372 0
M  V30 4759 H 438.25 -5.15708 -3.26921 0
M  V30 4760 H 439.664 -5.63623 -1.04889 0
M  V30 4761 H 438.061 -5.99126 -0.341825 0
M  V30 4762 H 439.131 -4.82713 0.46 0
M  V30 4763 N 440.474 -0.00167713 -1.576 0
M  V30 4764 C 441.699 0.69739 -1.95323 0
M  V30 4765 C 442.124 1.6642 -0.876706 0
M  V30 4766 O 441.482 1.80548 0.165007 0
M  V30 4767 C 441.53 1.40403 -3.32144 0
M  V30 4768 O 440.634 2.5185 -3.26566 0
M  V30 4769 H 439.975 0.185373 -0.637599 0
M  V30 4770 H 442.505 -0.0553665 -2.04525 0
M  V30 4771 H 442.515 1.76707 -3.67748 0
M  V30 4772 H 441.19 0.695167 -4.10049 0
M  V30 4773 H 439.767 2.17861 -3.0264 0
M  V30 4774 N 441.952 1.55251 0.271103 0
M  V30 4775 C 443.177 1.80306 1.02491 0
M  V30 4776 C 443.602 0.575457 1.79081 0
M  V30 4777 O 442.96 -0.474987 1.74967 0
M  V30 4778 C 443.008 3.02832 1.95768 0
M  V30 4779 O 442.112 2.78051 3.04568 0
M  V30 4780 H 441.453 0.595896 0.292923 0
M  V30 4781 H 443.983 2.02397 0.299436 0
M  V30 4782 H 443.993 3.31616 2.37686 0
M  V30 4783 H 442.668 3.9183 1.39434 0
M  V30 4784 H 441.245 2.60369 2.66951 0
M  V30 4785 N 443.43 -0.535701 1.48216 0
M  V30 4786 C 444.677 -1.29183 1.55942 0
M  V30 4787 C 445.005 -1.93125 0.230857 0
M  V30 4788 O 444.26 -1.79556 -0.778331 0
M  V30 4789 C 444.559 -2.4068 2.64212 0
M  V30 4790 C 444.225 -1.94428 4.06827 0
M  V30 4791 C 442.887 -1.81532 4.45645 0
M  V30 4792 C 445.239 -1.59405 4.96225 0
M  V30 4793 C 442.567 -1.31939 5.71672 0
M  V30 4794 C 444.919 -1.11276 6.22736 0
M  V30 4795 C 443.583 -0.969924 6.60416 0
M  V30 4796 H 442.853 -0.472715 0.570632 0
M  V30 4797 H 445.5 -0.598437 1.81909 0
M  V30 4798 H 443.805 -3.15666 2.32083 0
M  V30 4799 H 445.502 -2.98822 2.67407 0
M  V30 4800 H 442.092 -2.05415 3.76168 0
M  V30 4801 H 446.276 -1.68231 4.66917 0
M  V30 4802 H 441.532 -1.19562 5.99596 0
M  V30 4803 H 445.706 -0.832453 6.91407 0
M  V30 4804 H 443.333 -0.583436 7.57958 0
M  V30 4805 N 444.908 -1.36708 -0.784132 0
M  V30 4806 C 446.154 -1.31426 -1.54451 0
M  V30 4807 C 446.487 0.10476 -1.93917 0
M  V30 4808 O 445.762 1.05934 -1.6312 0
M  V30 4809 C 446.045 -2.24189 -2.818 0
M  V30 4810 C 445.898 -3.74813 -2.48667 0
M  V30 4811 C 447.217 -2.15626 -3.83658 0
M  V30 4812 H 444.336 -0.478739 -0.560337 0
M  V30 4813 H 446.978 -1.67305 -0.900498 0
M  V30 4814 H 445.128 -1.93722 -3.36755 0
M  V30 4815 H 446.8 -4.15823 -1.99722 0
M  V30 4816 H 445.043 -3.93989 -1.81535 0
M  V30 4817 H 445.714 -4.35138 -3.39646 0
M  V30 4818 H 448.19 -2.42456 -3.38163 0
M  V30 4819 H 447.066 -2.82694 -4.70506 0
M  V30 4820 H 447.327 -1.14522 -4.27009 0
M  V30 4821 N 446.386 1.0089 -1.21074 0
M  V30 4822 C 447.802 1.2695 -0.967257 0
M  V30 4823 C 448.002 1.9846 0.348673 0
M  V30 4824 O 447.058 2.28459 1.0753 0
M  V30 4825 C 448.371 2.09697 -2.15517 0
M  V30 4826 C 449.919 2.22937 -2.197 0
M  V30 4827 C 450.394 3.09064 -3.37999 0
M  V30 4828 N 451.885 3.16653 -3.38061 0
M  V30 4829 C 452.62 3.8354 -4.26245 0
M  V30 4830 N 452.116 4.52488 -5.2462 0
M  V30 4831 N 453.909 3.80141 -4.14064 0
M  V30 4832 H 446.06 0.529005 -2.05707 0
M  V30 4833 H 448.323 0.296148 -0.900556 0
M  V30 4834 H 448.029 1.64497 -3.10859 0
M  V30 4835 H 447.903 3.10444 -2.14253 0
M  V30 4836 H 450.29 2.67357 -1.24916 0
M  V30 4837 H 450.371 1.21673 -2.2501 0
M  V30 4838 H 450.015 2.65347 -4.33074 0
M  V30 4839 H 449.945 4.10433 -3.29928 0
M  V30 4840 H 452.436 2.67566 -2.66865 0
M  V30 4841 H 452.749 5.01219 -5.88217 0
M  V30 4842 H 451.094 4.51288 -5.28549 0
M  V30 4843 H 454.285 3.25427 -3.36474 0
M  V30 4844 H 454.458 4.31992 -4.82998 0
M  V30 4845 N 447.864 1.01787 1.20321 0
M  V30 4846 C 449.141 0.622978 1.85414 0
M  V30 4847 C 449.521 -0.898887 1.91006 0
M  V30 4848 O 448.869 -1.79112 1.41884 0
M  V30 4849 C 449.079 1.27226 3.24984 0
M  V30 4850 C 450.427 1.3885 4.01255 0
M  V30 4851 O 451.451 1.22857 3.34342 0
M  V30 4852 O 450.31 1.64705 5.2109 0
M  V30 4853 H 447.404 0.215116 0.798533 0
M  V30 4854 H 449.95 1.11533 1.27901 0
M  V30 4855 H 448.722 2.31209 3.15687 0
M  V30 4856 H 448.345 0.767069 3.90131 0
M  V30 4857 N 449.342 -1.36122 0.79427 0
M  V30 4858 C 450.292 -2.27373 0.169017 0
M  V30 4859 C 451.276 -1.4719 -0.649913 0
M  V30 4860 O 452.468 -1.69518 -0.50919 0
M  V30 4861 C 449.597 -3.36264 -0.691455 0
M  V30 4862 C 448.683 -4.2388 0.13653 0
M  V30 4863 N 449.074 -4.91519 1.19345 0
M  V30 4864 C 447.372 -4.45921 -0.0838499 0
M  V30 4865 C 448.073 -5.56369 1.6979 0
M  V30 4866 N 447.049 -5.34204 1.00634 0
M  V30 4867 H 450.851 -2.77154 0.977897 0
M  V30 4868 H 448.365 -1.49504 0.634208 0
M  V30 4869 H 450.362 -4.00572 -1.15534 0
M  V30 4870 H 449.022 -2.88037 -1.49883 0
M  V30 4871 H 450.033 -4.9334 1.57594 0
M  V30 4872 H 446.71 -4.08518 -0.861341 0
M  V30 4873 H 448.1 -6.20368 2.58055 0
M  V30 4874 N 450.82 -0.546701 -1.47814 0
M  V30 4875 C 451.75 0.195317 -2.32682 0
M  V30 4876 C 452.731 0.918981 -1.43139 0
M  V30 4877 O 453.916 0.901501 -1.72008 0
M  V30 4878 C 451.046 1.23237 -3.247 0
M  V30 4879 C 450 0.625818 -4.234 0
M  V30 4880 C 449.326 1.76674 -5.04669 0
M  V30 4881 C 450.626 -0.413515 -5.2066 0
M  V30 4882 H 452.32 -0.513184 -2.94969 0
M  V30 4883 H 449.866 -0.248241 -1.41844 0
M  V30 4884 H 451.819 1.75955 -3.82907 0
M  V30 4885 H 450.543 1.97067 -2.60446 0
M  V30 4886 H 449.202 0.120023 -3.66403 0
M  V30 4887 H 448.85 2.49383 -4.36826 0
M  V30 4888 H 448.55 1.36673 -5.71484 0
M  V30 4889 H 450.074 2.29738 -5.65732 0
M  V30 4890 H 451.488 0.0272042 -5.73294 0
M  V30 4891 H 449.885 -0.731825 -5.95621 0
M  V30 4892 H 450.955 -1.31325 -4.66778 0
M  V30 4893 N 452.299 1.55045 -0.282633 0
M  V30 4894 C 453.71 1.85473 0.213655 0
M  V30 4895 C 454.061 1.20465 1.54863 0
M  V30 4896 O 453.186 0.495676 2.10647 0
M  V30 4897 C 453.781 3.36496 0.394445 0
M  V30 4898 C 452.34 3.67022 0.834961 0
M  V30 4899 C 451.487 2.77218 -0.0674081 0
M  V30 4900 H 454.438 1.50478 -0.504202 0
M  V30 4901 H 454.459 3.60007 1.23186 0
M  V30 4902 H 453.971 3.83782 -0.577326 0
M  V30 4903 H 452.072 3.25241 1.81794 0
M  V30 4904 H 452.185 4.74433 0.667075 0
M  V30 4905 H 450.549 2.5069 0.450196 0
M  V30 4906 H 451.332 3.2732 -1.0352 0
M  V30 4907 N 453.777 0.010035 1.57597 0
M  V30 4908 C 455.054 -0.710296 1.82248 0
M  V30 4909 C 455.434 -1.91426 0.889911 0
M  V30 4910 O 454.782 -2.28424 -0.0590292 0
M  V30 4911 C 454.992 -1.10655 3.30993 0
M  V30 4912 C 456.34 -1.50621 3.96987 0
M  V30 4913 O 457.364 -1.20007 3.35375 0
M  V30 4914 O 456.223 -2.07587 5.05539 0
M  V30 4915 H 453.317 -0.34673 0.750804 0
M  V30 4916 H 455.863 0.0362578 1.69661 0
M  V30 4917 H 454.635 -0.248826 3.90508 0
M  V30 4918 H 454.258 -1.91189 3.48615 0
M  V30 4919 N 455.255 -1.55392 -0.262866 0
M  V30 4920 C 456.185 -1.91978 -1.32917 0
M  V30 4921 C 457.166 -0.7828 -1.51017 0
M  V30 4922 O 458.351 -1.04178 -1.63892 0
M  V30 4923 C 455.481 -2.20055 -2.68687 0
M  V30 4924 C 454.435 -3.35854 -2.65304 0
M  V30 4925 C 453.761 -3.49435 -4.04721 0
M  V30 4926 C 455.061 -4.71977 -2.23685 0
M  V30 4927 H 456.755 -2.81292 -1.02544 0
M  V30 4928 H 454.301 -1.3534 -0.491846 0
M  V30 4929 H 456.254 -2.44237 -3.43404 0
M  V30 4930 H 454.978 -1.27551 -3.00663 0
M  V30 4931 H 453.637 -3.11655 -1.93045 0
M  V30 4932 H 453.285 -2.54379 -4.33936 0
M  V30 4933 H 452.985 -4.27297 -4.0335 0
M  V30 4934 H 454.509 -3.7592 -4.81161 0
M  V30 4935 H 455.923 -4.95637 -2.88127 0
M  V30 4936 H 454.32 -5.52828 -2.33456 0
M  V30 4937 H 455.39 -4.70115 -1.18827 0
M  V30 4938 N 456.733 0.527833 -1.48498 0
M  V30 4939 C 457.68 1.6322 -1.6318 0
M  V30 4940 C 458.65 1.59199 -0.473815 0
M  V30 4941 O 459.835 1.77591 -0.697563 0
M  V30 4942 C 456.975 3.01474 -1.67951 0
M  V30 4943 C 456.088 3.15713 -2.94871 0
M  V30 4944 C 455.223 4.44539 -2.90789 0
M  V30 4945 C 454.262 4.52315 -4.12404 0
M  V30 4946 N 453.399 5.72533 -4.06387 0
M  V30 4947 H 458.239 1.50011 -2.57489 0
M  V30 4948 H 455.776 0.730298 -1.27691 0
M  V30 4949 H 457.734 3.81572 -1.68698 0
M  V30 4950 H 456.364 3.1345 -0.771306 0
M  V30 4951 H 455.416 2.28854 -3.03859 0
M  V30 4952 H 456.728 3.1732 -3.8485 0
M  V30 4953 H 455.882 5.3293 -2.89949 0
M  V30 4954 H 454.621 4.45457 -1.98542 0
M  V30 4955 H 453.626 3.62331 -4.13517 0
M  V30 4956 H 454.851 4.53134 -5.05812 0
M  V30 4957 H 452.797 5.74344 -3.16962 0
M  V30 4958 H 452.714 5.75643 -4.90073 0
M  V30 4959 H 453.982 6.63204 -4.0961 0
M  V30 4960 N 458.211 1.37122 0.776871 0
M  V30 4961 C 459.622 1.28667 1.35284 0
M  V30 4962 C 459.973 -0.0680035 1.96082 0
M  V30 4963 O 459.098 -0.969743 1.93455 0
M  V30 4964 C 459.693 2.32997 2.45963 0
M  V30 4965 C 458.252 2.28191 2.99342 0
M  V30 4966 C 457.399 2.17101 1.72517 0
M  V30 4967 H 460.35 1.47819 0.577527 0
M  V30 4968 H 460.371 1.97366 3.2531 0
M  V30 4969 H 459.883 3.3158 2.01684 0
M  V30 4970 H 457.984 1.33115 3.4801 0
M  V30 4971 H 458.097 3.21397 3.55304 0
M  V30 4972 H 456.461 1.63562 1.95242 0
M  V30 4973 H 457.244 3.17591 1.30348 0
M  V30 4974 N 459.689 -1.00246 1.21608 0
M  V30 4975 C 460.599 -2.12515 0.993709 0
M  V30 4976 C 461.615 -1.73913 -0.0549939 0
M  V30 4977 O 462.791 -2.00943 0.135619 0
M  V30 4978 C 459.856 -3.42083 0.563953 0
M  V30 4979 C 458.917 -3.94843 1.68516 0
M  V30 4980 C 458.15 -5.18226 1.27582 0
M  V30 4981 O 458.373 -5.70201 0.150506 0
M  V30 4982 O 457.307 -5.64497 2.0887 0
M  V30 4983 H 461.133 -2.34152 1.93407 0
M  V30 4984 H 458.718 -1.10891 1.00118 0
M  V30 4985 H 460.6 -4.20073 0.334194 0
M  V30 4986 H 459.275 -3.21828 -0.347665 0
M  V30 4987 H 458.182 -3.18068 1.96935 0
M  V30 4988 H 459.515 -4.19512 2.5743 0
M  V30 4989 N 461.167 -1.02423 -1.1978 0
M  V30 4990 C 462.578 -0.748389 -1.71044 0
M  V30 4991 C 462.929 0.732398 -1.82017 0
M  V30 4992 O 462.054 1.57116 -1.48807 0
M  V30 4993 C 462.649 -1.35187 -3.1066 0
M  V30 4994 C 461.208 -1.12472 -3.59203 0
M  V30 4995 C 460.355 -1.45283 -2.36195 0
M  V30 4996 H 463.306 -1.19275 -1.04686 0
M  V30 4997 H 463.327 -0.746408 -3.73107 0
M  V30 4998 H 462.839 -2.4296 -3.02642 0
M  V30 4999 H 460.94 -0.0649983 -3.72543 0
M  V30 5000 H 461.053 -1.81016 -4.43588 0
M  V30 5001 H 459.417 -0.872034 -2.39307 0
M  V30 5002 H 460.2 -2.54129 -2.30811 0
M  V30 5003 N 462.645 1.35699 -0.801477 0
M  V30 5004 C 463.608 2.28199 -0.213994 0
M  V30 5005 C 464.608 1.49359 0.595691 0
M  V30 5006 O 465.798 1.69186 0.414921 0
M  V30 5007 C 462.93 3.33587 0.702297 0
M  V30 5008 H 464.123 2.81666 -1.02976 0
M  V30 5009 H 461.676 1.45467 -0.571759 0
M  V30 5010 H 462.411 2.85297 1.54195 0
M  V30 5011 H 462.196 3.91906 0.123484 0
M  V30 5012 H 463.686 4.02638 1.10783 0
M  V30 5013 N 464.123 0.554532 1.47522 0
M  V30 5014 C 465.369 0.0295227 2.02779 0
M  V30 5015 C 465.702 -1.31582 1.42828 0
M  V30 5016 O 464.977 -1.85561 0.582872 0
M  V30 5017 C 465.26 -0.0664057 3.60039 0
M  V30 5018 C 465.113 1.30585 4.30427 0
M  V30 5019 C 466.432 -0.781162 4.33112 0
M  V30 5020 H 463.551 0.0122027 0.736899 0
M  V30 5021 H 466.193 0.716305 1.7598 0
M  V30 5022 H 464.343 -0.651307 3.83002 0
M  V30 5023 H 466.015 1.93374 4.18813 0
M  V30 5024 H 464.258 1.88125 3.90886 0
M  V30 5025 H 464.929 1.19147 5.38988 0
M  V30 5026 H 467.405 -0.284565 4.15126 0
M  V30 5027 H 466.281 -0.817237 5.42782 0
M  V30 5028 H 466.542 -1.83672 4.0214 0
M  V30 5029 N 465.601 -1.54893 0.290851 0
M  V30 5030 C 466.85 -1.99111 -0.322113 0
M  V30 5031 C 467.163 -1.18283 -1.55784 0
M  V30 5032 O 468.369 -1.5272 -2.24475 0
M  V30 5033 C 466.825 -3.54442 -0.624438 0
M  V30 5034 C 466.433 -4.44066 0.592373 0
M  V30 5035 C 468.177 -4.07211 -1.19916 0
M  V30 5036 C 466.084 -5.90812 0.263762 0
M  V30 5037 H 465.014 -0.743712 -0.124133 0
M  V30 5038 H 467.665 -1.79132 0.39797 0
M  V30 5039 H 466.047 -3.70281 -1.40384 0
M  V30 5040 H 467.221 -4.39999 1.36886 0
M  V30 5041 H 465.536 -4.02015 1.08502 0
M  V30 5042 H 468.133 -5.14407 -1.45909 0
M  V30 5043 H 468.476 -3.57196 -2.13815 0
M  V30 5044 H 469.009 -3.94873 -0.481687 0
M  V30 5045 H 465.748 -6.44955 1.17105 0
M  V30 5046 H 465.268 -5.97911 -0.475655 0
M  V30 5047 H 466.947 -6.46852 -0.138354 0
M  V30 5048 N 467.08 -0.0183926 -1.57589 0
M  V30 5049 C 467.99 0.982943 -2.13015 0
M  V30 5050 C 469.006 1.36443 -1.07979 0
M  V30 5051 O 470.182 1.44802 -1.3998 0
M  V30 5052 C 467.247 2.25024 -2.63752 0
M  V30 5053 C 466.308 1.93018 -3.83461 0
M  V30 5054 C 465.541 3.13706 -4.31769 0
M  V30 5055 O 465.764 4.2601 -3.79305 0
M  V30 5056 O 464.698 2.96629 -5.23732 0
M  V30 5057 H 468.524 0.541709 -2.9883 0
M  V30 5058 H 466.109 0.201565 -1.48034 0
M  V30 5059 H 467.991 2.99441 -2.96502 0
M  V30 5060 H 466.666 2.68349 -1.81026 0
M  V30 5061 H 465.573 1.16019 -3.55655 0
M  V30 5062 H 466.906 1.54516 -4.67317 0
M  V30 5063 N 468.558 1.5553 0.254621 0
M  V30 5064 C 469.783 1.81383 1.00573 0
M  V30 5065 C 470.208 0.594419 1.78461 0
M  V30 5066 O 469.566 -0.456403 1.75461 0
M  V30 5067 C 469.614 3.04892 1.92545 0
M  V30 5068 O 468.718 2.81266 3.01601 0
M  V30 5069 H 468.059 0.598969 0.286587 0
M  V30 5070 H 470.589 2.02703 0.277952 0
M  V30 5071 H 470.599 3.34119 2.34155 0
M  V30 5072 H 469.274 3.93287 1.3527 0
M  V30 5073 H 467.851 2.63185 2.64174 0
M  V30 5074 N 470.036 -0.519951 1.48776 0
M  V30 5075 C 471.276 -1.2856 1.58908 0
M  V30 5076 C 471.64 -1.90212 0.261418 0
M  V30 5077 O 472.841 -2.67746 0.237791 0
M  V30 5078 C 471.112 -2.33836 2.70288 0
M  V30 5079 S 472.671 -3.19992 3.0025 0
M  V30 5080 H 469.489 -0.43717 0.560717 0
M  V30 5081 H 472.091 -0.591205 1.86346 0
M  V30 5082 H 470.795 -1.87041 3.653 0
M  V30 5083 H 470.326 -3.07969 2.44783 0
M  V30 5084 H 472.341 -4.34122 2.40317 0
M  V30 5085 N 471.514 -1.37532 -0.769588 0
M  V30 5086 C 472.447 -1.27839 -1.8903 0
M  V30 5087 C 473.425 -0.158504 -1.61826 0
M  V30 5088 O 474.609 -0.333086 -1.85534 0
M  V30 5089 C 471.736 -0.977072 -3.24301 0
M  V30 5090 C 470.782 -2.11414 -3.70414 0
M  V30 5091 S 471.615 -3.73409 -3.83831 0
M  V30 5092 C 472.771 -3.45432 -5.21946 0
M  V30 5093 H 473.004 -2.22694 -1.96963 0
M  V30 5094 H 470.537 -1.2318 -0.930914 0
M  V30 5095 H 472.495 -0.810049 -4.02428 0
M  V30 5096 H 471.156 -0.0459701 -3.14066 0
M  V30 5097 H 470.349 -1.85837 -4.68488 0
M  V30 5098 H 469.951 -2.24141 -2.99394 0
M  V30 5099 H 472.243 -3.00554 -6.07185 0
M  V30 5100 H 473.186 -4.42841 -5.52537 0
M  V30 5101 H 473.594 -2.80311 -4.89986 0
M  V30 5102 N 472.992 0.995999 -1.22138 0
M  V30 5103 C 474.222 1.76809 -1.06874 0
M  V30 5104 C 474.63 1.85265 0.383866 0
M  V30 5105 O 473.973 1.31969 1.27789 0
M  V30 5106 C 474.035 3.2186 -1.60144 0
M  V30 5107 C 473.699 3.36958 -3.0872 0
M  V30 5108 C 474.696 3.2452 -4.0618 0
M  V30 5109 C 472.381 3.62109 -3.48112 0
M  V30 5110 C 474.375 3.37013 -5.41019 0
M  V30 5111 C 472.062 3.74243 -4.831 0
M  V30 5112 C 473.06 3.61702 -5.79362 0
M  V30 5113 O 472.748 3.73436 -7.119 0
M  V30 5114 H 472.48 0.562207 -0.375365 0
M  V30 5115 H 475.034 1.26113 -1.62125 0
M  V30 5116 H 473.264 3.73734 -0.992981 0
M  V30 5117 H 474.953 3.80775 -1.40589 0
M  V30 5118 H 475.719 3.05004 -3.77091 0
M  V30 5119 H 471.598 3.70949 -2.73712 0
M  V30 5120 H 475.142 3.27141 -6.16137 0
M  V30 5121 H 471.039 3.93266 -5.11872 0
M  V30 5122 H 471.807 3.90328 -7.19435 0
M  V30 5123 N 474.47 1.03057 1.19235 0
M  V30 5124 C 475.698 0.747697 1.92917 0
M  V30 5125 C 476.113 -0.69372 1.75593 0
M  V30 5126 O 475.47 -1.47191 1.07894 0
M  V30 5127 C 475.521 1.09159 3.44625 0
M  V30 5128 O 475.242 2.47641 3.61394 0
M  V30 5129 C 476.743 0.831763 4.35427 0
M  V30 5130 H 473.963 0.273453 0.612751 0
M  V30 5131 H 476.507 1.37552 1.51327 0
M  V30 5132 H 474.662 0.508919 3.84043 0
M  V30 5133 H 475.076 2.60499 4.55237 0
M  V30 5134 H 476.55 1.12233 5.4047 0
M  V30 5135 H 477.027 -0.233769 4.38577 0
M  V30 5136 H 477.633 1.39725 4.01693 0
M  V30 5137 N 475.948 -1.35272 0.808662 0
M  V30 5138 C 476.896 -2.31663 0.208606 0
M  V30 5139 C 477.89 -1.56731 -0.642778 0
M  V30 5140 O 479.096 -1.71843 -0.53571 0
M  V30 5141 H 475.471 -0.750421 0.0486993 0
M  V30 5142 H 477.442 -2.79814 1.03666 0
M  V30 5143 C 476.191 -3.42008 -0.626573 0
M  V30 5144 H 475.514 -3.99795 0.0192103 0
M  V30 5145 H 476.954 -4.11727 -1.01278 0
M  V30 5146 C 475.413 -2.85226 -1.79298 0
M  V30 5147 O 475.943 -2.78945 -2.89055 0
M  V30 5148 N 474.149 -2.42245 -1.60516 0
M  V30 5149 H 473.696 -2.47554 -0.712375 0
M  V30 5150 H 473.654 -2.04603 -2.38715 0
M  V30 5151 N 477.426 -0.562348 -1.47226 0
M  V30 5152 C 478.654 -0.0452275 -2.06851 0
M  V30 5153 C 479.069 1.25078 -1.41424 0
M  V30 5154 O 478.426 1.75156 -0.512513 0
M  V30 5155 C 478.477 0.148674 -3.61194 0
M  V30 5156 O 478.198 -1.09602 -4.24169 0
M  V30 5157 C 479.699 0.702488 -4.37699 0
M  V30 5158 H 476.919 -0.0481775 -0.669268 0
M  V30 5159 H 479.463 -0.777223 -1.89155 0
M  V30 5160 H 477.618 0.830817 -3.78386 0
M  V30 5161 H 478.032 -0.896982 -5.16773 0
M  V30 5162 H 479.506 0.78743 -5.46355 0
M  V30 5163 H 479.983 1.71493 -4.04335 0
M  V30 5164 H 480.589 0.0558772 -4.25263 0
M  V30 5165 N 478.904 1.54736 -0.299062 0
M  V30 5166 C 480.315 1.8569 0.193971 0
M  V30 5167 C 480.666 1.22101 1.53577 0
M  V30 5168 O 479.791 0.51799 2.10109 0
M  V30 5169 C 480.386 3.36895 0.358733 0
M  V30 5170 C 478.945 3.67887 0.795986 0
M  V30 5171 C 478.092 2.77131 -0.096807 0
M  V30 5172 H 481.043 1.49934 -0.520134 0
M  V30 5173 H 481.064 3.61294 1.19361 0
M  V30 5174 H 480.576 3.83148 -0.617998 0
M  V30 5175 H 478.677 3.27151 1.78334 0
M  V30 5176 H 478.79 4.75114 0.616718 0
M  V30 5177 H 477.154 2.51153 0.423581 0
M  V30 5178 H 477.937 3.26204 -1.06986 0
M  V30 5179 N 480.382 0.0267497 1.57577 0
M  V30 5180 C 481.659 -0.690926 1.82991 0
M  V30 5181 C 482.039 -1.90471 0.910164 0
M  V30 5182 O 481.387 -2.28474 -0.0347985 0
M  V30 5183 C 481.597 -1.07139 3.32148 0
M  V30 5184 C 482.945 -1.46402 3.98562 0
M  V30 5185 O 483.969 -1.16443 3.36629 0
M  V30 5186 O 482.828 -2.02214 5.07712 0
M  V30 5187 H 479.922 -0.338747 0.75444 0
M  V30 5188 H 482.468 0.0542506 1.69613 0
M  V30 5189 H 481.24 -0.207394 3.9075 0
M  V30 5190 H 480.863 -1.87481 3.50623 0
M  V30 5191 N 481.861 -1.55662 -0.24637 0
M  V30 5192 C 482.771 -1.93495 -1.32653 0
M  V30 5193 C 483.787 -0.835462 -1.5263 0
M  V30 5194 O 484.963 -1.1369 -1.66242 0
M  V30 5195 C 482.028 -2.22242 -2.66101 0
M  V30 5196 C 481.089 -3.45625 -2.54641 0
M  V30 5197 C 480.322 -3.72991 -3.81724 0
M  V30 5198 O 480.545 -3.02421 -4.8363 0
M  V30 5199 O 479.479 -4.66515 -3.80325 0
M  V30 5200 H 483.305 -2.85498 -1.03559 0
M  V30 5201 H 480.89 -1.42551 -0.44717 0
M  V30 5202 H 482.772 -2.42037 -3.44958 0
M  V30 5203 H 481.447 -1.33417 -2.94926 0
M  V30 5204 H 480.354 -3.31136 -1.74067 0
M  V30 5205 H 481.687 -4.34754 -2.3076 0
M  V30 5206 N 483.339 0.512053 -1.4905 0
M  V30 5207 C 484.271 1.63121 -1.6101 0
M  V30 5208 C 485.284 1.55145 -0.493352 0
M  V30 5209 O 486.473 1.61278 -0.764955 0
M  V30 5210 C 483.573 3.01863 -1.54052 0
M  V30 5211 C 482.746 3.35138 -2.81072 0
M  V30 5212 C 481.805 4.5324 -2.67319 0
M  V30 5213 O 480.831 4.55571 -3.41238 0
M  V30 5214 N 482.033 5.52495 -1.78127 0
M  V30 5215 H 484.798 1.53292 -2.5753 0
M  V30 5216 H 482.359 0.699706 -1.45999 0
M  V30 5217 H 484.351 3.78774 -1.42521 0
M  V30 5218 H 482.921 3.05675 -0.654345 0
M  V30 5219 H 482.141 2.4723 -3.07036 0
M  V30 5220 H 483.429 3.54162 -3.65304 0
M  V30 5221 H 482.827 5.53403 -1.17308 0
M  V30 5222 H 481.384 6.28553 -1.72525 0
M  V30 5223 N 484.817 1.37938 0.762283 0
M  V30 5224 C 486.064 1.33668 1.52115 0
M  V30 5225 C 486.392 -0.0759538 1.94352 0
M  V30 5226 O 485.647 -1.05121 1.6507 0
M  V30 5227 C 485.946 2.23042 2.79261 0
M  V30 5228 C 485.612 3.71159 2.56031 0
M  V30 5229 C 484.274 4.11523 2.49404 0
M  V30 5230 C 486.626 4.64955 2.35513 0
M  V30 5231 C 483.954 5.43784 2.20263 0
M  V30 5232 C 486.306 5.97464 2.07894 0
M  V30 5233 C 484.97 6.36922 1.99718 0
M  V30 5234 H 484.24 0.489127 0.556629 0
M  V30 5235 H 486.887 1.70224 0.877262 0
M  V30 5236 H 485.192 1.79512 3.48256 0
M  V30 5237 H 486.889 2.17047 3.37182 0
M  V30 5238 H 483.479 3.39153 2.62056 0
M  V30 5239 H 487.663 4.34623 2.39617 0
M  V30 5240 H 482.919 5.73307 2.12435 0
M  V30 5241 H 487.093 6.6969 1.91019 0
M  V30 5242 H 484.72 7.39331 1.76902 0
M  V30 5243 N 486.295 -0.989507 1.22664 0
M  V30 5244 C 487.544 -1.72375 1.04737 0
M  V30 5245 C 487.857 -1.91096 -0.417316 0
M  V30 5246 O 489.063 -2.6188 -0.716334 0
M  V30 5247 C 487.519 -3.10161 1.82561 0
M  V30 5248 C 487.127 -2.99358 3.333 0
M  V30 5249 C 488.871 -3.87607 1.73093 0
M  V30 5250 C 486.778 -4.32319 4.03552 0
M  V30 5251 H 485.708 -0.646326 0.388302 0
M  V30 5252 H 488.359 -1.10437 1.46546 0
M  V30 5253 H 486.741 -3.728 1.33552 0
M  V30 5254 H 487.915 -2.45863 3.89728 0
M  V30 5255 H 486.23 -2.35392 3.43481 0
M  V30 5256 H 488.827 -4.86025 2.22899 0
M  V30 5257 H 489.17 -4.10509 0.691976 0
M  V30 5258 H 489.703 -3.31652 2.19663 0
M  V30 5259 H 486.442 -4.14616 5.07714 0
M  V30 5260 H 485.962 -4.85714 3.51911 0
M  V30 5261 H 487.641 -5.01051 4.09337 0
M  V30 5262 N 487.773 -1.03688 -1.18687 0
M  V30 5263 C 488.703 -0.645407 -2.24403 0
M  V30 5264 C 489.684 0.349511 -1.66471 0
M  V30 5265 O 490.869 0.230453 -1.92828 0
M  V30 5266 C 487.999 -0.00365337 -3.473 0
M  V30 5267 C 486.953 -0.921705 -4.17958 0
M  V30 5268 C 486.279 -0.144629 -5.34504 0
M  V30 5269 C 487.579 -2.23909 -4.71871 0
M  V30 5270 H 489.273 -1.52917 -2.57404 0
M  V30 5271 H 486.819 -0.736711 -1.23728 0
M  V30 5272 H 488.772 0.281908 -4.20456 0
M  V30 5273 H 487.496 0.914963 -3.13522 0
M  V30 5274 H 486.155 -1.19159 -3.46694 0
M  V30 5275 H 485.803 0.776274 -4.96974 0
M  V30 5276 H 485.503 -0.756206 -5.82714 0
M  V30 5277 H 487.027 0.134004 -6.10453 0
M  V30 5278 H 488.441 -2.0145 -5.36741 0
M  V30 5279 H 486.838 -2.8033 -5.30599 0
M  V30 5280 H 487.908 -2.88822 -3.895 0
M  V30 5281 N 489.251 1.34841 -0.815825 0
M  V30 5282 C 490.528 1.92908 -0.323416 0
M  V30 5283 C 490.908 1.74479 1.18828 0
M  V30 5284 O 490.256 1.11928 1.99209 0
M  V30 5285 C 490.466 3.40957 -0.744952 0
M  V30 5286 C 491.814 4.18107 -0.739716 0
M  V30 5287 O 492.838 3.49511 -0.68708 0
M  V30 5288 O 491.697 5.40517 -0.806456 0
M  V30 5289 H 488.791 0.822436 -0.0867646 0
M  V30 5290 H 491.337 1.4386 -0.90014 0
M  V30 5291 H 490.109 3.4814 -1.78646 0
M  V30 5292 H 489.732 3.97341 -0.143535 0
M  V30 5293 N 490.729 0.570148 1.46925 0
M  V30 5294 C 492.145 0.23087 1.57921 0
M  V30 5295 C 492.345 -1.26676 1.56702 0
M  V30 5296 O 491.401 -2.04774 1.47729 0
M  V30 5297 C 492.714 0.868973 2.8787 0
M  V30 5298 C 494.262 0.841397 3.01479 0
M  V30 5299 C 494.737 1.45881 4.34146 0
M  V30 5300 N 496.228 1.42258 4.40814 0
M  V30 5301 C 496.963 1.8698 5.42057 0
M  V30 5302 N 496.459 2.39618 6.50042 0
M  V30 5303 N 498.252 1.77972 5.33181 0
M  V30 5304 H 490.403 1.54301 1.45962 0
M  V30 5305 H 492.666 0.644224 0.69547 0
M  V30 5306 H 492.372 1.922 2.94537 0
M  V30 5307 H 492.246 0.369682 3.75384 0
M  V30 5308 H 494.633 -0.202973 2.94401 0
M  V30 5309 H 494.714 1.37858 2.15474 0
M  V30 5310 H 494.358 2.50231 4.4198 0
M  V30 5311 H 494.288 0.896958 5.18905 0
M  V30 5312 H 496.779 1.03768 3.63374 0
M  V30 5313 H 497.092 2.71633 7.23488 0
M  V30 5314 H 495.437 2.43636 6.50897 0
M  V30 5315 H 498.628 1.36617 4.4772 0
M  V30 5316 H 498.801 2.13143 6.11943 0
M  V30 5317 N 492.207 -1.54576 0.307264 0
M  V30 5318 C 493.157 -2.20467 -0.581249 0
M  V30 5319 C 494.141 -1.17972 -1.09414 0
M  V30 5320 O 495.333 -1.43667 -1.03387 0
M  V30 5321 C 492.462 -2.95369 -1.74963 0
M  V30 5322 C 491.548 -4.05186 -1.25241 0
M  V30 5323 N 491.939 -5.03577 -0.47364 0
M  V30 5324 C 490.237 -4.18841 -1.53259 0
M  V30 5325 C 490.938 -5.81328 -0.208083 0
M  V30 5326 N 489.914 -5.37834 -0.789651 0
M  V30 5327 H 493.716 -2.93892 0.0212221 0
M  V30 5328 H 491.23 -1.62011 0.112325 0
M  V30 5329 H 493.227 -3.41046 -2.39777 0
M  V30 5330 H 491.887 -2.23461 -2.35574 0
M  V30 5331 H 492.898 -5.17766 -0.117963 0
M  V30 5332 H 489.575 -3.58141 -2.14573 0
M  V30 5333 H 490.965 -6.706 0.417793 0
M  V30 5334 N 493.685 -0.035106 -1.57561 0
M  V30 5335 C 495.096 0.502885 -1.798 0
M  V30 5336 C 495.447 1.71892 -0.945921 0
M  V30 5337 O 494.572 2.15822 -0.157991 0
M  V30 5338 C 495.167 0.919097 -3.26095 0
M  V30 5339 C 493.726 1.40216 -3.49308 0
M  V30 5340 C 492.873 0.369709 -2.74824 0
M  V30 5341 H 495.824 -0.261102 -1.56537 0
M  V30 5342 H 495.845 1.78308 -3.36135 0
M  V30 5343 H 495.357 0.0338526 -3.88085 0
M  V30 5344 H 493.458 2.30714 -2.92578 0
M  V30 5345 H 493.571 1.40541 -4.58023 0
M  V30 5346 H 491.935 0.839113 -2.40481 0
M  V30 5347 H 492.718 -0.507173 -3.39533 0
M  V30 5348 N 495.163 1.55791 0.238111 0
M  V30 5349 C 496.11 1.9105 1.29493 0
M  V30 5350 C 497.08 0.765733 1.47397 0
M  V30 5351 O 498.265 1.02017 1.61236 0
M  V30 5352 C 495.405 2.21826 2.64362 0
M  V30 5353 C 494.518 3.49153 2.54394 0
M  V30 5354 C 493.653 3.69455 3.81676 0
M  V30 5355 C 492.692 4.90353 3.66361 0
M  V30 5356 N 491.829 5.07131 4.85554 0
M  V30 5357 H 496.669 2.81172 0.987233 0
M  V30 5358 H 494.206 1.39179 0.476203 0
M  V30 5359 H 496.164 2.37675 3.4288 0
M  V30 5360 H 494.794 1.34897 2.93262 0
M  V30 5361 H 493.846 3.41587 1.67399 0
M  V30 5362 H 495.158 4.37818 2.38991 0
M  V30 5363 H 494.312 3.85311 4.68636 0
M  V30 5364 H 493.051 2.7904 3.99985 0
M  V30 5365 H 492.056 4.74464 2.77784 0
M  V30 5366 H 493.281 5.82237 3.49538 0
M  V30 5367 H 491.227 4.19654 5.04209 0
M  V30 5368 H 491.144 5.89899 4.72816 0
M  V30 5369 H 492.412 5.27407 5.73988 0
M  V30 5370 N 496.642 -0.504142 1.49319 0
M  V30 5371 C 497.872 -1.28071 1.62116 0
M  V30 5372 C 498.28 -1.86955 0.290566 0
M  V30 5373 O 497.623 -1.68415 -0.733616 0
M  V30 5374 C 497.685 -2.4521 2.62893 0
M  V30 5375 C 497.349 -2.07218 4.0732 0
M  V30 5376 C 498.346 -1.61375 4.94221 0
M  V30 5377 C 496.031 -2.16949 4.53033 0
M  V30 5378 C 498.025 -1.25763 6.2487 0
M  V30 5379 C 495.712 -1.80949 5.83696 0
M  V30 5380 C 496.71 -1.3543 6.69438 0
M  V30 5381 O 496.398 -0.99915 7.97667 0
M  V30 5382 H 496.13 -0.394763 0.54876 0
M  V30 5383 H 498.684 -0.612118 1.96067 0
M  V30 5384 H 496.914 -3.15134 2.24115 0
M  V30 5385 H 498.603 -3.0724 2.65252 0
M  V30 5386 H 499.369 -1.53306 4.60133 0
M  V30 5387 H 495.248 -2.5133 3.86463 0
M  V30 5388 H 498.792 -0.901631 6.91749 0
M  V30 5389 H 494.689 -1.88667 6.17313 0
M  V30 5390 H 495.457 -1.13089 8.1065 0
M  V30 5391 N 498.12 -1.38341 -0.754957 0
M  V30 5392 C 499.397 -1.24995 -1.50451 0
M  V30 5393 C 499.777 0.149244 -2.10572 0
M  V30 5394 O 499.125 1.15861 -1.96948 0
M  V30 5395 C 499.335 -2.35904 -2.57197 0
M  V30 5396 C 500.683 -2.74262 -3.24138 0
M  V30 5397 O 501.707 -2.35205 -2.67501 0
M  V30 5398 O 500.566 -3.4161 -4.26574 0
M  V30 5399 H 497.66 -0.48872 -0.667144 0
M  V30 5400 H 500.206 -1.50165 -0.790486 0
M  V30 5401 H 498.978 -3.2953 -2.11011 0
M  V30 5402 H 498.601 -2.12291 -3.36182 0
M  V30 5403 N 499.598 0.982988 -1.23187 0
M  V30 5404 C 500.546 2.09616 -1.00817 0
M  V30 5405 C 501.54 1.6932 0.0519995 0
M  V30 5406 O 502.746 1.79715 -0.101284 0
M  V30 5407 H 499.121 0.685628 -0.308899 0
M  V30 5408 H 501.092 2.25652 -1.95253 0
M  V30 5409 C 499.841 3.42249 -0.613243 0
M  V30 5410 H 499.164 3.73705 -1.42073 0
M  V30 5411 H 500.604 4.21086 -0.496208 0
M  V30 5412 C 499.063 3.30002 0.678233 0
M  V30 5413 O 499.593 3.6263 1.72807 0
M  V30 5414 N 497.799 2.83164 0.653165 0
M  V30 5415 H 497.346 2.56811 -0.201492 0
M  V30 5416 H 497.304 2.75352 1.51752 0
M  V30 5417 N 501.076 1.04316 1.18135 0
M  V30 5418 C 502.325 0.74319 1.87509 0
M  V30 5419 C 502.638 -0.732136 1.81381 0
M  V30 5420 O 503.844 -1.14572 2.46141 0
M  V30 5421 C 502.3 1.27913 3.36402 0
M  V30 5422 C 501.908 2.78326 3.51053 0
M  V30 5423 C 503.652 1.0558 4.11161 0
M  V30 5424 C 501.559 3.25266 4.93919 0
M  V30 5425 H 500.489 0.274313 0.702331 0
M  V30 5426 H 503.14 1.25931 1.33467 0
M  V30 5427 H 501.522 0.690853 3.89927 0
M  V30 5428 H 502.696 3.42933 3.07788 0
M  V30 5429 H 501.011 2.991 2.89704 0
M  V30 5430 H 503.608 1.38161 5.16542 0
M  V30 5431 H 503.951 -0.00684729 4.16299 0
M  V30 5432 H 504.484 1.60882 3.63816 0
M  V30 5433 H 501.223 4.30922 4.9395 0
M  V30 5434 H 500.743 2.65396 5.3789 0
M  V30 5435 H 502.422 3.19433 5.62647 0
M  V30 5436 N 502.554 -1.34406 0.822964 0
M  V30 5437 C 503.8 -1.98578 0.411666 0
M  V30 5438 C 504.133 -1.65093 -1.02264 0
M  V30 5439 O 503.408 -0.92258 -1.71227 0
M  V30 5440 C 503.691 -3.54823 0.614235 0
M  V30 5441 C 503.544 -3.9805 2.09466 0
M  V30 5442 C 504.863 -4.40071 0.050221 0
M  V30 5443 H 501.982 -0.721355 0.151047 0
M  V30 5444 H 504.624 -1.59301 1.03554 0
M  V30 5445 H 502.774 -3.88411 0.0831774 0
M  V30 5446 H 504.446 -3.74795 2.68936 0
M  V30 5447 H 502.689 -3.4836 2.5851 0
M  V30 5448 H 503.36 -5.06819 2.18721 0
M  V30 5449 H 505.836 -4.13037 0.503953 0
M  V30 5450 H 504.712 -5.48452 0.221759 0
M  V30 5451 H 504.973 -4.29576 -1.04482 0
M  V30 5452 N 504.032 -0.577932 -1.46621 0
M  V30 5453 C 505.281 -0.0594281 -2.01612 0
M  V30 5454 C 505.594 1.30663 -1.45556 0
M  V30 5455 O 506.8 1.91621 -1.92337 0
M  V30 5456 C 505.256 -0.0556666 -3.59857 0
M  V30 5457 C 504.864 -1.41975 -4.24908 0
M  V30 5458 C 506.608 0.409143 -4.22524 0
M  V30 5459 C 504.515 -1.37397 -5.75218 0
M  V30 5460 H 503.445 -0.0184469 -0.753774 0
M  V30 5461 H 506.096 -0.728869 -1.68404 0
M  V30 5462 H 504.478 0.679843 -3.90121 0
M  V30 5463 H 505.652 -2.17461 -4.0626 0
M  V30 5464 H 503.967 -1.82419 -3.74316 0
M  V30 5465 H 506.564 0.46211 -5.32699 0
M  V30 5466 H 506.907 1.42565 -3.91128 0
M  V30 5467 H 507.44 -0.272152 -3.96868 0
M  V30 5468 H 504.179 -2.36714 -6.11267 0
M  V30 5469 H 503.699 -0.661239 -5.96144 0
M  V30 5470 H 505.378 -1.08484 -6.3784 0
M  V30 5471 N 505.51 1.54411 -0.315457 0
M  V30 5472 C 506.758 2.00023 0.288971 0
M  V30 5473 C 507.079 1.20529 1.5329 0
M  V30 5474 O 506.349 0.304986 1.93511 0
M  V30 5475 H 504.929 0.738891 0.109766 0
M  V30 5476 H 507.591 1.90094 -0.430129 0
M  V30 5477 H 506.687 3.07198 0.550999 0
M  V30 5478 N 506.988 0.0434614 1.5754 0
M  V30 5479 C 507.951 -0.918696 2.09982 0
M  V30 5480 C 508.951 -1.24488 1.01781 0
M  V30 5481 O 510.141 -1.18284 1.27885 0
M  V30 5482 C 507.273 -2.23093 2.57764 0
M  V30 5483 H 508.466 -0.464229 2.96285 0
M  V30 5484 H 506.019 -0.204818 1.54952 0
M  V30 5485 H 506.754 -2.73137 1.74832 0
M  V30 5486 H 506.539 -2.00724 3.36827 0
M  V30 5487 H 508.029 -2.92028 2.98512 0
M  V30 5488 N 508.466 -1.55915 -0.229846 0
M  V30 5489 C 509.714 -1.7819 -0.953565 0
M  V30 5490 C 510.035 -0.610504 -1.85197 0
M  V30 5491 O 509.305 0.372988 -1.92316 0
M  V30 5492 H 507.885 -0.657208 -0.355087 0
M  V30 5493 H 510.547 -1.9337 -0.243693 0
M  V30 5494 H 509.643 -2.70011 -1.56527 0
M  V30 5495 N 509.944 0.496216 -1.49584 0
M  V30 5496 C 511.191 1.25003 -1.59312 0
M  V30 5497 C 511.519 1.92445 -0.28198 0
M  V30 5498 O 510.774 1.81557 0.730452 0
M  V30 5499 C 511.073 2.3359 -2.705 0
M  V30 5500 C 510.739 1.83574 -4.11839 0
M  V30 5501 C 509.401 1.69653 -4.50302 0
M  V30 5502 C 511.753 1.46193 -5.00277 0
M  V30 5503 C 509.081 1.16736 -5.74969 0
M  V30 5504 C 511.433 0.947265 -6.25468 0
M  V30 5505 C 510.097 0.794485 -6.62755 0
M  V30 5506 H 509.367 0.45742 -0.582965 0
M  V30 5507 H 512.014 0.549996 -1.83432 0
M  V30 5508 H 510.319 3.09401 -2.40371 0
M  V30 5509 H 512.016 2.91627 -2.75235 0
M  V30 5510 H 508.606 1.9537 -3.81482 0
M  V30 5511 H 512.79 1.55793 -4.71214 0
M  V30 5512 H 508.046 1.03623 -6.02555 0
M  V30 5513 H 512.22 0.648846 -6.93371 0
M  V30 5514 H 509.847 0.382271 -7.59238 0
M  V30 5515 N 511.423 1.38739 0.74761 0
M  V30 5516 C 512.648 1.38702 1.54197 0
M  V30 5517 C 513.073 -0.019664 1.8809 0
M  V30 5518 O 512.431 -1.00333 1.51006 0
M  V30 5519 C 512.479 2.25492 2.814 0
M  V30 5520 O 511.583 1.67613 3.76802 0
M  V30 5521 H 510.924 0.472863 0.466151 0
M  V30 5522 H 513.454 1.82577 0.923413 0
M  V30 5523 H 513.464 2.39561 3.30264 0
M  V30 5524 H 512.139 3.27727 2.56062 0
M  V30 5525 H 510.716 1.62718 3.35526 0
M  V30 5526 N 512.901 -0.976442 1.23707 0
M  V30 5527 C 514.149 -1.71487 1.06942 0
M  V30 5528 C 514.47 -1.9098 -0.393897 0
M  V30 5529 O 513.74 -1.48128 -1.28198 0
M  V30 5530 H 512.32 -0.635425 0.392739 0
M  V30 5531 H 514.982 -1.17515 1.55487 0
M  V30 5532 H 514.078 -2.70286 1.56051 0
M  V30 5533 N 514.379 -1.04941 -1.1758 0
M  V30 5534 C 515.329 -0.618378 -2.19454 0
M  V30 5535 C 516.313 0.343813 -1.57184 0
M  V30 5536 O 517.505 0.16145 -1.76262 0
M  V30 5537 C 514.634 0.00803847 -3.43299 0
M  V30 5538 C 513.72 -0.977827 -4.12673 0
M  V30 5539 N 514.111 -2.14826 -4.57912 0
M  V30 5540 C 512.409 -0.805748 -4.38661 0
M  V30 5541 C 513.11 -2.77174 -5.11419 0
M  V30 5542 N 512.086 -2.04989 -5.03468 0
M  V30 5543 H 515.888 -1.51018 -2.52132 0
M  V30 5544 H 513.402 -0.919201 -1.33882 0
M  V30 5545 H 515.399 0.334584 -4.15555 0
M  V30 5546 H 514.059 0.895272 -3.12114 0
M  V30 5547 H 515.07 -2.52673 -4.52081 0
M  V30 5548 H 511.747 0.0306506 -4.17489 0
M  V30 5549 H 513.137 -3.76416 -5.56562 0
M  V30 5550 N 515.857 1.33968 -0.830081 0
M  V30 5551 C 517.105 1.97672 -0.420734 0
M  V30 5552 C 517.426 1.66111 1.02138 0
M  V30 5553 O 516.696 0.955503 1.71017 0
M  V30 5554 H 515.276 0.73125 -0.152587 0
M  V30 5555 H 517.938 1.63483 -1.0611 0
M  V30 5556 H 517.034 3.07294 -0.545588 0
M  V30 5557 N 517.335 0.585699 1.46312 0
M  V30 5558 C 518.582 0.0724211 2.0237 0
M  V30 5559 C 518.91 -1.28868 1.45683 0
M  V30 5560 O 518.165 -1.85853 0.612945 0
M  V30 5561 C 518.464 -0.0401312 3.57377 0
M  V30 5562 C 518.13 1.25376 4.33119 0
M  V30 5563 C 516.792 1.60824 4.5353 0
M  V30 5564 C 519.144 2.10987 4.76586 0
M  V30 5565 C 516.472 2.81676 5.14661 0
M  V30 5566 C 518.824 3.31068 5.39052 0
M  V30 5567 C 517.488 3.66794 5.5769 0
M  V30 5568 H 516.758 0.0265007 0.740526 0
M  V30 5569 H 519.405 0.762935 1.75646 0
M  V30 5570 H 517.71 -0.813791 3.83255 0
M  V30 5571 H 519.407 -0.453078 3.98432 0
M  V30 5572 H 515.997 0.967808 4.1753 0
M  V30 5573 H 520.181 1.84904 4.60569 0
M  V30 5574 H 515.437 3.0949 5.27282 0
M  V30 5575 H 519.611 3.97672 5.71691 0
M  V30 5576 H 517.238 4.60529 6.04828 0
M  V30 5577 N 518.813 -1.54241 0.323641 0
M  V30 5578 C 519.76 -2.24339 -0.542277 0
M  V30 5579 C 520.73 -1.23421 -1.11159 0
M  V30 5580 O 521.915 -1.52104 -1.15192 0
M  V30 5581 C 519.055 -3.00479 -1.69725 0
M  V30 5582 C 518.168 -4.16214 -1.15716 0
M  V30 5583 C 517.303 -4.79884 -2.27783 0
M  V30 5584 C 516.342 -5.87722 -1.71023 0
M  V30 5585 N 515.479 -6.45254 -2.76752 0
M  V30 5586 H 520.319 -2.97935 0.0620613 0
M  V30 5587 H 517.856 -1.47039 0.0423993 0
M  V30 5588 H 519.814 -3.42869 -2.3769 0
M  V30 5589 H 518.444 -2.29217 -2.27288 0
M  V30 5590 H 517.496 -3.78605 -0.369063 0
M  V30 5591 H 518.808 -4.93838 -0.701832 0
M  V30 5592 H 517.962 -5.25243 -3.03651 0
M  V30 5593 H 516.701 -4.01641 -2.76652 0
M  V30 5594 H 515.706 -5.41765 -0.936518 0
M  V30 5595 H 516.931 -6.67863 -1.2303 0
M  V30 5596 H 514.877 -5.69884 -3.24912 0
M  V30 5597 H 514.794 -7.18292 -2.35782 0
M  V30 5598 H 516.062 -6.95269 -3.5245 0
M  V30 5599 N 520.291 -0.0518155 -1.57515 0
M  V30 5600 C 521.221 0.920283 -2.146 0
M  V30 5601 C 522.202 1.32406 -1.06783 0
M  V30 5602 O 523.387 1.39866 -1.34726 0
M  V30 5603 C 520.517 2.1949 -2.6915 0
M  V30 5604 C 519.471 1.93116 -3.81956 0
M  V30 5605 C 518.797 3.27037 -4.23026 0
M  V30 5606 C 520.097 1.25225 -5.07066 0
M  V30 5607 H 521.791 0.444801 -2.96077 0
M  V30 5608 H 519.337 0.212508 -1.42423 0
M  V30 5609 H 521.29 2.87894 -3.07725 0
M  V30 5610 H 520.014 2.69244 -1.84865 0
M  V30 5611 H 518.673 1.27123 -3.43854 0
M  V30 5612 H 518.321 3.74595 -3.3569 0
M  V30 5613 H 518.021 3.10189 -4.99056 0
M  V30 5614 H 519.545 3.96673 -4.64202 0
M  V30 5615 H 520.959 1.83666 -5.43083 0
M  V30 5616 H 519.356 1.18702 -5.88243 0
M  V30 5617 H 520.426 0.228382 -4.84362 0
M  V30 5618 N 521.769 1.56035 0.221574 0
M  V30 5619 C 522.732 1.91584 1.2581 0
M  V30 5620 C 523.732 0.794425 1.39805 0
M  V30 5621 O 524.922 1.06217 1.38071 0
M  V30 5622 C 522.054 2.16663 2.63192 0
M  V30 5623 H 523.247 2.8429 0.954935 0
M  V30 5624 H 520.8 1.49316 0.461988 0
M  V30 5625 H 521.535 1.26508 2.98607 0
M  V30 5626 H 521.32 2.98358 2.5441 0
M  V30 5627 H 522.81 2.45262 3.37988 0
M  V30 5628 N 523.247 -0.488276 1.49845 0
M  V30 5629 C 524.658 -1.06955 1.53028 0
M  V30 5630 C 525.009 -1.9351 0.323797 0
M  V30 5631 O 524.134 -2.08891 -0.565116 0
M  V30 5632 C 524.729 -1.94643 2.77307 0
M  V30 5633 C 523.288 -2.4791 2.83227 0
M  V30 5634 C 522.435 -1.25833 2.47106 0
M  V30 5635 H 525.386 -0.271626 1.56358 0
M  V30 5636 H 525.407 -2.79496 2.5819 0
M  V30 5637 H 524.919 -1.31621 3.65099 0
M  V30 5638 H 523.02 -3.14535 1.99745 0
M  V30 5639 H 523.133 -2.84193 3.85709 0
M  V30 5640 H 521.497 -1.58764 1.99163 0
M  V30 5641 H 522.28 -0.644993 3.37186 0
M  V30 5642 N 524.725 -1.39134 -0.740242 0
M  V30 5643 C 525.971 -1.36273 -1.50192 0
M  V30 5644 C 526.304 0.0430136 -1.94152 0
M  V30 5645 O 525.579 1.00691 -1.66408 0
M  V30 5646 C 525.862 -2.33041 -2.74525 0
M  V30 5647 C 525.715 -3.82535 -2.36617 0
M  V30 5648 C 527.034 -2.27723 -3.76604 0
M  V30 5649 H 524.153 -0.496323 -0.544823 0
M  V30 5650 H 526.795 -1.70085 -0.846815 0
M  V30 5651 H 524.945 -2.04337 -3.30422 0
M  V30 5652 H 526.617 -4.21967 -1.86391 0
M  V30 5653 H 524.86 -3.99565 -1.68909 0
M  V30 5654 H 525.531 -4.45723 -3.2563 0
M  V30 5655 H 528.007 -2.53091 -3.30279 0
M  V30 5656 H 526.883 -2.97519 -4.61274 0
M  V30 5657 H 527.144 -1.28049 -4.2315 0
M  V30 5658 N 526.204 0.969867 -1.24223 0
M  V30 5659 C 527.45 1.7151 -1.08223 0
M  V30 5660 C 527.783 1.90478 0.37838 0
M  V30 5661 O 527.058 1.4647 1.27971 0
M  V30 5662 C 527.341 3.10714 -1.82013 0
M  V30 5663 C 527.194 2.9925 -3.35811 0
M  V30 5664 C 528.513 4.10332 -1.59108 0
M  V30 5665 H 525.632 0.622499 -0.394543 0
M  V30 5666 H 528.274 1.1284 -1.52863 0
M  V30 5667 H 526.424 3.608 -1.44068 0
M  V30 5668 H 528.096 2.56608 -3.83341 0
M  V30 5669 H 526.339 2.35512 -3.64303 0
M  V30 5670 H 527.01 3.97857 -3.82641 0
M  V30 5671 H 529.486 3.69097 -1.92111 0
M  V30 5672 H 528.362 5.05804 -2.13198 0
M  V30 5673 H 528.623 4.38926 -0.528832 0
M  V30 5674 N 527.682 1.05563 1.17022 0
M  V30 5675 C 528.93 0.76642 1.87004 0
M  V30 5676 C 529.251 -0.708854 1.8166 0
M  V30 5677 O 528.521 -1.51242 1.2451 0
M  V30 5678 H 527.101 0.280516 0.692329 0
M  V30 5679 H 529.763 1.33557 1.41945 0
M  V30 5680 H 528.859 1.08472 2.92644 0
M  V30 5681 N 529.16 -1.33526 0.837174 0
M  V30 5682 C 530.107 -2.29248 0.267169 0
M  V30 5683 C 531.077 -1.54252 -0.616071 0
M  V30 5684 O 532.262 -1.82559 -0.554699 0
M  V30 5685 C 529.402 -3.40638 -0.553152 0
M  V30 5686 C 528.515 -4.30548 0.353921 0
M  V30 5687 C 527.65 -5.29051 -0.477339 0
M  V30 5688 C 526.689 -6.106 0.42823 0
M  V30 5689 N 525.826 -7.01152 -0.364801 0
M  V30 5690 H 530.666 -2.77398 1.08877 0
M  V30 5691 H 528.203 -1.36496 0.54838 0
M  V30 5692 H 530.161 -4.03921 -1.04422 0
M  V30 5693 H 528.791 -2.93685 -1.33973 0
M  V30 5694 H 527.843 -3.68001 0.963289 0
M  V30 5695 H 529.155 -4.87631 1.04964 0
M  V30 5696 H 528.309 -5.97853 -1.0323 0
M  V30 5697 H 527.048 -4.72541 -1.2065 0
M  V30 5698 H 526.053 -5.40718 0.995219 0
M  V30 5699 H 527.278 -6.69193 1.15573 0
M  V30 5700 H 525.224 -6.47092 -1.07738 0
M  V30 5701 H 525.141 -7.5551 0.272238 0
M  V30 5702 H 526.409 -7.74263 -0.902054 0
M  V30 5703 N 530.638 -0.59345 -1.46 0
M  V30 5704 C 531.887 -0.0808084 -2.01538 0
M  V30 5705 C 532.2 1.29112 -1.46934 0
M  V30 5706 O 533.406 1.8957 -1.94359 0
M  V30 5707 C 531.862 -0.0938311 -3.59778 0
M  V30 5708 C 531.47 -1.46474 -4.23379 0
M  V30 5709 C 533.214 0.364306 -4.22934 0
M  V30 5710 C 531.121 -1.4349 -5.73729 0
M  V30 5711 H 530.051 -0.0264407 -0.753536 0
M  V30 5712 H 532.702 -0.746689 -1.67621 0
M  V30 5713 H 531.084 0.638427 -3.9082 0
M  V30 5714 H 532.258 -2.21758 -4.03931 0
M  V30 5715 H 530.573 -1.86379 -3.7236 0
M  V30 5716 H 533.17 0.405584 -5.3316 0
M  V30 5717 H 533.513 1.38409 -3.92618 0
M  V30 5718 H 534.046 -0.31423 -3.96557 0
M  V30 5719 H 530.785 -2.43184 -6.08722 0
M  V30 5720 H 530.305 -0.724431 -5.95409 0
M  V30 5721 H 531.984 -1.15243 -6.36654 0
M  V30 5722 N 532.116 1.54067 -0.331816 0
M  V30 5723 C 533.046 2.27569 0.522932 0
M  V30 5724 C 534.027 1.28679 1.11247 0
M  V30 5725 O 535.212 1.57504 1.13605 0
M  V30 5726 C 532.342 3.0397 1.67987 0
M  V30 5727 C 531.296 4.10267 1.21924 0
M  V30 5728 C 530.622 4.74555 2.46377 0
M  V30 5729 C 531.922 5.21268 0.32815 0
M  V30 5730 H 533.616 2.99264 -0.0901977 0
M  V30 5731 H 531.162 1.4393 -0.044821 0
M  V30 5732 H 533.115 3.54123 2.28418 0
M  V30 5733 H 531.839 2.29906 2.31971 0
M  V30 5734 H 530.498 3.61009 0.637809 0
M  V30 5735 H 530.146 3.97098 3.08743 0
M  V30 5736 H 529.846 5.46363 2.16243 0
M  V30 5737 H 531.37 5.27487 3.07555 0
M  V30 5738 H 532.784 5.67128 0.838978 0
M  V30 5739 H 531.181 5.99982 0.119228 0
M  V30 5740 H 532.251 4.80673 -0.638839 0
M  V30 5741 N 533.594 0.0601682 1.57485 0
M  V30 5742 C 534.824 -0.620037 1.97076 0
M  V30 5743 C 535.232 -1.64381 0.936784 0
M  V30 5744 O 534.575 -1.83497 -0.0863377 0
M  V30 5745 C 534.637 -1.35617 3.32939 0
M  V30 5746 C 534.301 -0.487208 4.54396 0
M  V30 5747 C 535.298 0.250428 5.19297 0
M  V30 5748 C 532.983 -0.415494 5.00579 0
M  V30 5749 C 534.977 1.04812 6.28723 0
M  V30 5750 C 532.664 0.385879 6.0988 0
M  V30 5751 C 533.662 1.11637 6.73815 0
M  V30 5752 O 533.35 1.90454 7.81014 0
M  V30 5753 H 533.082 -0.173664 0.653312 0
M  V30 5754 H 535.636 0.1256 2.05016 0
M  V30 5755 H 533.866 -2.14763 3.2158 0
M  V30 5756 H 535.555 -1.92749 3.57215 0
M  V30 5757 H 536.321 0.204546 4.84568 0
M  V30 5758 H 532.2 -0.973679 4.506 0
M  V30 5759 H 535.744 1.6188 6.78558 0
M  V30 5760 H 531.641 0.433366 6.44044 0
M  V30 5761 H 532.409 1.82762 7.97835 0
M  V30 5762 N 535.072 -1.5615 -0.213296 0
M  V30 5763 C 535.982 -1.96265 -1.28519 0
M  V30 5764 C 536.998 -0.86765 -1.50824 0
M  V30 5765 O 538.174 -1.17191 -1.63793 0
M  V30 5766 C 535.239 -2.27836 -2.61327 0
M  V30 5767 C 534.3 -3.50949 -2.47252 0
M  V30 5768 C 533.533 -3.81004 -3.73727 0
M  V30 5769 O 533.756 -3.12612 -4.77106 0
M  V30 5770 O 532.69 -4.74477 -3.70344 0
M  V30 5771 H 536.516 -2.87631 -0.974795 0
M  V30 5772 H 534.101 -1.43467 -0.416832 0
M  V30 5773 H 535.983 -2.49299 -3.39747 0
M  V30 5774 H 534.658 -1.39643 -2.9203 0
M  V30 5775 H 533.565 -3.34754 -1.67004 0
M  V30 5776 H 534.898 -4.39551 -2.21486 0
M  V30 5777 N 536.55 0.480323 -1.50102 0
M  V30 5778 C 537.48 1.58769 -1.71215 0
M  V30 5779 C 538.461 1.60583 -0.560997 0
M  V30 5780 O 539.646 1.76996 -0.799127 0
M  V30 5781 C 536.776 2.97148 -1.79778 0
M  V30 5782 C 535.73 3.10201 -2.94888 0
M  V30 5783 C 535.056 4.50137 -2.88584 0
M  V30 5784 C 536.356 2.88283 -4.35534 0
M  V30 5785 H 538.05 1.41354 -2.6393 0
M  V30 5786 H 535.596 0.678591 -1.27008 0
M  V30 5787 H 537.549 3.74536 -1.93133 0
M  V30 5788 H 536.273 3.15699 -0.836772 0
M  V30 5789 H 534.932 2.35244 -2.81169 0
M  V30 5790 H 534.58 4.65593 -1.90349 0
M  V30 5791 H 534.28 4.59808 -3.65856 0
M  V30 5792 H 535.804 5.29558 -3.03976 0
M  V30 5793 H 537.218 3.55427 -4.49827 0
M  V30 5794 H 535.615 3.09408 -5.14186 0
M  V30 5795 H 536.685 1.84219 -4.48544 0
M  V30 5796 N 538.028 1.39524 0.732853 0
M  V30 5797 C 539.253 1.40329 1.52717 0
M  V30 5798 C 539.678 0.000286574 1.881 0
M  V30 5799 O 539.036 -0.987262 1.52062 0
M  V30 5800 C 539.084 2.28464 2.78992 0
M  V30 5801 O 538.188 1.716 3.75003 0
M  V30 5802 H 537.529 0.47778 0.461109 0
M  V30 5803 H 540.059 1.83546 0.903996 0
M  V30 5804 H 540.069 2.43051 3.27705 0
M  V30 5805 H 538.744 3.30425 2.52572 0
M  V30 5806 H 537.321 1.66267 3.33781 0
M  V30 5807 N 539.506 -0.963266 1.24736 0
M  V30 5808 C 540.439 -2.05758 0.986852 0
M  V30 5809 C 541.417 -1.62398 -0.0809272 0
M  V30 5810 O 542.601 -1.88414 0.0569347 0
M  V30 5811 C 539.728 -3.35135 0.490095 0
M  V30 5812 C 538.774 -3.97451 1.54709 0
M  V30 5813 S 539.607 -4.34519 3.12976 0
M  V30 5814 C 540.763 -5.67026 2.65014 0
M  V30 5815 H 540.996 -2.27539 1.91346 0
M  V30 5816 H 538.529 -1.10176 1.08169 0
M  V30 5817 H 540.487 -4.09962 0.21012 0
M  V30 5818 H 539.148 -3.11335 -0.415873 0
M  V30 5819 H 538.341 -4.90704 1.15003 0
M  V30 5820 H 537.943 -3.29071 1.77731 0
M  V30 5821 H 540.235 -6.44748 2.08102 0
M  V30 5822 H 541.178 -6.11594 3.56873 0
M  V30 5823 H 541.586 -5.25847 2.05294 0
M  V30 5824 N 540.985 -1.06182 -1.16461 0
M  V30 5825 C 541.932 -0.671613 -2.20812 0
M  V30 5826 C 542.902 0.331186 -1.62765 0
M  V30 5827 O 544.087 0.22033 -1.89524 0
M  V30 5828 C 541.227 -0.063029 -3.45042 0
M  V30 5829 C 540.34 -1.11587 -4.1734 0
M  V30 5830 C 539.475 -0.473546 -5.29085 0
M  V30 5831 C 538.514 -1.51 -5.93182 0
M  V30 5832 N 537.651 -0.891118 -6.96422 0
M  V30 5833 H 542.491 -1.56589 -2.53542 0
M  V30 5834 H 540.028 -0.782951 -1.24532 0
M  V30 5835 H 541.986 0.307344 -4.16066 0
M  V30 5836 H 540.616 0.794663 -3.12866 0
M  V30 5837 H 539.668 -1.60396 -3.44931 0
M  V30 5838 H 540.98 -1.90221 -4.61104 0
M  V30 5839 H 540.134 -0.0501432 -6.06679 0
M  V30 5840 H 538.873 0.344687 -4.8648 0
M  V30 5841 H 537.878 -1.94331 -5.14311 0
M  V30 5842 H 539.103 -2.33031 -6.37866 0
M  V30 5843 H 537.049 -0.0935753 -6.55933 0
M  V30 5844 H 536.966 -1.61486 -7.38551 0
M  V30 5845 H 538.234 -0.492822 -7.77941 0
M  V30 5846 N 542.463 1.3308 -0.844243 0
M  V30 5847 C 543.393 2.3161 -0.296493 0
M  V30 5848 C 544.374 1.59215 0.598707 0
M  V30 5849 O 545.559 1.87077 0.521134 0
M  V30 5850 C 542.689 3.43313 0.524762 0
M  V30 5851 C 541.643 4.27115 -0.275106 0
M  V30 5852 C 540.969 5.30483 0.670236 0
M  V30 5853 C 542.269 5.00443 -1.49514 0
M  V30 5854 H 543.963 2.77672 -1.11976 0
M  V30 5855 H 541.509 1.33496 -0.539899 0
M  V30 5856 H 543.462 4.11273 0.918298 0
M  V30 5857 H 542.186 2.95952 1.3813 0
M  V30 5858 H 540.845 3.60787 -0.650267 0
M  V30 5859 H 540.493 4.79379 1.52332 0
M  V30 5860 H 540.193 5.87435 0.139123 0
M  V30 5861 H 541.717 6.01308 1.06117 0
M  V30 5862 H 543.131 5.61141 -1.17447 0
M  V30 5863 H 541.528 5.67071 -1.96343 0
M  V30 5864 H 542.598 4.28906 -2.26202 0
M  V30 5865 N 543.941 0.601185 1.45683 0
M  V30 5866 C 545.169 0.100054 2.06658 0
M  V30 5867 C 545.584 -1.21285 1.44691 0
M  V30 5868 O 544.941 -1.73735 0.558772 0
M  V30 5869 C 544.992 -0.0528579 3.61461 0
M  V30 5870 O 544.713 1.20809 4.21114 0
M  V30 5871 C 546.214 -0.586193 4.39407 0
M  V30 5872 H 543.434 0.065905 0.667756 0
M  V30 5873 H 545.978 0.827101 1.87028 0
M  V30 5874 H 544.133 -0.730203 3.80456 0
M  V30 5875 H 544.547 1.03368 5.14213 0
M  V30 5876 H 546.021 -0.642297 5.4825 0
M  V30 5877 H 546.498 -1.60713 4.0874 0
M  V30 5878 H 547.104 0.0568935 4.25262 0
M  V30 5879 N 545.419 -1.53889 0.339982 0
M  V30 5880 C 546.83 -1.86139 -0.144671 0
M  V30 5881 C 547.181 -1.2613 -1.50285 0
M  V30 5882 O 546.306 -0.573515 -2.08662 0
M  V30 5883 C 546.901 -3.37728 -0.269285 0
M  V30 5884 C 545.46 -3.69868 -0.698168 0
M  V30 5885 C 544.607 -2.76777 0.170249 0
M  V30 5886 H 547.558 -1.48503 0.559704 0
M  V30 5887 H 547.579 -3.64331 -1.0974 0
M  V30 5888 H 547.091 -3.81375 0.719366 0
M  V30 5889 H 545.192 -3.31764 -1.69597 0
M  V30 5890 H 545.305 -4.76582 -0.490533 0
M  V30 5891 H 543.669 -2.52188 -0.356844 0
M  V30 5892 H 544.452 -3.23253 1.15597 0
M  V30 5893 N 546.897 -0.0685191 -1.57451 0
M  V30 5894 C 548.122 0.613919 -1.98106 0
M  V30 5895 C 548.547 1.62551 -0.946501 0
M  V30 5896 O 547.905 1.81085 0.0882824 0
M  V30 5897 C 547.953 1.26189 -3.378 0
M  V30 5898 O 547.057 2.37773 -3.36954 0
M  V30 5899 H 546.398 0.158163 -0.644888 0
M  V30 5900 H 548.928 -0.142063 -2.04106 0
M  V30 5901 H 548.938 1.60951 -3.74912 0
M  V30 5902 H 547.613 0.520625 -4.12629 0
M  V30 5903 H 546.19 2.04829 -3.11608 0
M  V30 5904 N 548.375 1.56261 0.205012 0
M  V30 5905 C 549.605 1.83874 0.942018 0
M  V30 5906 C 550.013 0.647595 1.77772 0
M  V30 5907 O 549.356 -0.393098 1.79445 0
M  V30 5908 C 549.418 3.05453 1.89575 0
M  V30 5909 C 549.082 4.39772 1.24296 0
M  V30 5910 C 550.079 5.16133 0.624724 0
M  V30 5911 C 547.764 4.86504 1.24978 0
M  V30 5912 C 549.758 6.37396 0.0220117 0
M  V30 5913 C 547.445 6.07705 0.643232 0
M  V30 5914 C 548.443 6.82993 0.0304164 0
M  V30 5915 O 548.131 8.019 -0.566654 0
M  V30 5916 H 547.863 0.614896 0.280854 0
M  V30 5917 H 550.417 2.04215 0.220285 0
M  V30 5918 H 548.647 2.80972 2.65691 0
M  V30 5919 H 550.336 3.19797 2.4997 0
M  V30 5920 H 551.102 4.81127 0.611666 0
M  V30 5921 H 546.981 4.27865 1.71616 0
M  V30 5922 H 550.525 6.96102 -0.456926 0
M  V30 5923 H 546.422 6.42181 0.653759 0
M  V30 5924 H 547.19 8.17192 -0.462588 0
M  V30 5925 N 549.853 -0.472356 1.50355 0
M  V30 5926 C 551.13 -1.23356 1.51798 0
M  V30 5927 C 551.51 -2.09469 0.26193 0
M  V30 5928 O 550.858 -2.15677 -0.754691 0
M  V30 5929 C 551.068 -2.06568 2.81302 0
M  V30 5930 C 552.416 -2.648 3.31913 0
M  V30 5931 O 553.44 -2.16812 2.82614 0
M  V30 5932 O 552.299 -3.52231 4.17846 0
M  V30 5933 H 549.393 -0.559707 0.608816 0
M  V30 5934 H 551.939 -0.48428 1.62643 0
M  V30 5935 H 550.711 -1.43103 3.64194 0
M  V30 5936 H 550.334 -2.88633 2.73454 0
M  V30 5937 N 551.331 -1.39911 -0.725443 0
M  V30 5938 C 552.261 -1.42138 -1.85254 0
M  V30 5939 C 553.242 -0.283513 -1.67721 0
M  V30 5940 O 554.427 -0.490717 -1.87898 0
M  V30 5941 C 551.557 -1.27354 -3.23107 0
M  V30 5942 C 550.511 -2.3864 -3.55296 0
M  V30 5943 C 549.837 -2.08939 -4.92188 0
M  V30 5944 C 551.137 -3.8097 -3.57295 0
M  V30 5945 H 552.831 -2.36461 -1.83648 0
M  V30 5946 H 550.377 -1.13817 -0.882138 0
M  V30 5947 H 552.33 -1.2753 -4.01639 0
M  V30 5948 H 551.054 -0.295025 -3.25265 0
M  V30 5949 H 549.713 -2.37696 -2.79099 0
M  V30 5950 H 549.361 -1.09502 -4.90936 0
M  V30 5951 H 549.061 -2.83491 -5.14691 0
M  V30 5952 H 550.585 -2.10781 -5.73065 0
M  V30 5953 H 551.999 -3.8379 -4.25885 0
M  V30 5954 H 550.396 -4.5496 -3.9132 0
M  V30 5955 H 551.466 -4.11261 -2.5689 0
M  V30 5956 N 552.809 0.956637 -1.25245 0
M  V30 5957 C 553.772 2.03457 -1.05537 0
M  V30 5958 C 554.772 1.60798 -0.00886317 0
M  V30 5959 O 555.962 1.72384 -0.250865 0
M  V30 5960 C 553.094 3.35543 -0.601965 0
M  V30 5961 H 554.287 2.22372 -2.01223 0
M  V30 5962 H 551.84 1.13344 -1.07623 0
M  V30 5963 H 552.575 3.22323 0.357584 0
M  V30 5964 H 552.36 3.67854 -1.35743 0
M  V30 5965 H 553.85 4.14769 -0.485454 0
M  V30 5966 N 554.287 1.06798 1.15896 0
M  V30 5967 C 555.698 0.811355 1.68149 0
M  V30 5968 C 556.049 -0.664339 1.8461 0
M  V30 5969 O 555.174 -1.51485 1.54535 0
M  V30 5970 C 555.769 1.46624 3.05429 0
M  V30 5971 C 554.328 1.25726 3.54781 0
M  V30 5972 C 553.475 1.53949 2.3064 0
M  V30 5973 H 556.426 1.23078 1.00187 0
M  V30 5974 H 556.447 0.88437 3.7008 0
M  V30 5975 H 555.959 2.54025 2.93416 0
M  V30 5976 H 554.06 0.20322 3.72045 0
M  V30 5977 H 554.173 1.97354 4.36564 0
M  V30 5978 H 552.537 0.96025 2.35905 0
M  V30 5979 H 553.32 2.6252 2.2122 0
M  V30 5980 N 555.766 -1.3263 0.851289 0
M  V30 5981 C 557.013 -1.97368 0.453023 0
M  V30 5982 C 557.341 -1.67384 -0.990596 0
M  V30 5983 O 556.596 -0.952665 -1.70947 0
M  V30 5984 C 556.895 -3.51713 0.635015 0
M  V30 5985 C 556.561 -4.01676 2.04859 0
M  V30 5986 C 555.223 -4.15031 2.43522 0
M  V30 5987 C 557.575 -4.28206 2.97135 0
M  V30 5988 C 554.903 -4.52257 3.73739 0
M  V30 5989 C 557.255 -4.66889 4.26846 0
M  V30 5990 C 555.919 -4.7845 4.65448 0
M  V30 5991 H 555.189 -0.722219 0.165773 0
M  V30 5992 H 557.836 -1.58092 1.0807 0
M  V30 5993 H 556.141 -3.91726 -0.0759081 0
M  V30 5994 H 557.838 -3.99823 0.306964 0
M  V30 5995 H 554.428 -3.91764 1.73836 0
M  V30 5996 H 558.612 -4.174 2.68498 0
M  V30 5997 H 553.868 -4.59402 4.03435 0
M  V30 5998 H 558.042 -4.86372 4.98413 0
M  V30 5999 H 555.669 -5.07052 5.66395 0
M  V30 6000 N 557.244 -0.608902 -1.45362 0
M  V30 6001 C 558.66 -0.272659 -1.57254 0
M  V30 6002 C 558.86 1.22477 -1.60005 0
M  V30 6003 O 557.916 2.00785 -1.53106 0
M  V30 6004 C 559.229 -0.944991 -2.85465 0
M  V30 6005 C 560.777 -0.921033 -2.99142 0
M  V30 6006 C 561.252 -1.5734 -4.30126 0
M  V30 6007 N 562.743 -1.53895 -4.36887 0
M  V30 6008 C 563.478 -2.01286 -5.36909 0
M  V30 6009 N 562.974 -2.56768 -6.43461 0
M  V30 6010 N 564.767 -1.92046 -5.28275 0
M  V30 6011 H 556.918 -1.58117 -1.4182 0
M  V30 6012 H 559.181 -0.662437 -0.678146 0
M  V30 6013 H 558.887 -1.99941 -2.89338 0
M  V30 6014 H 558.761 -0.469079 -3.74272 0
M  V30 6015 H 561.148 0.124846 -2.94836 0
M  V30 6016 H 561.229 -1.43522 -2.11743 0
M  V30 6017 H 560.873 -2.61862 -4.35191 0
M  V30 6018 H 560.803 -1.03422 -5.16344 0
M  V30 6019 H 563.294 -1.13366 -3.60495 0
M  V30 6020 H 563.607 -2.9072 -7.16032 0
M  V30 6021 H 561.952 -2.60808 -6.44208 0
M  V30 6022 H 565.143 -1.48439 -4.43941 0
M  V30 6023 H 565.316 -2.29293 -6.06077 0
M  V30 6024 N 558.722 1.53707 -0.348139 0
M  V30 6025 C 559.971 2.0017 0.247992 0
M  V30 6026 C 560.284 1.23983 1.51286 0
M  V30 6027 O 561.49 1.60946 2.18652 0
M  V30 6028 C 559.946 3.56515 0.492459 0
M  V30 6029 C 559.554 4.41562 -0.756777 0
M  V30 6030 C 561.298 4.11381 1.0472 0
M  V30 6031 C 559.205 5.89426 -0.482856 0
M  V30 6032 H 558.135 0.747806 0.0964452 0
M  V30 6033 H 560.786 1.77532 -0.464179 0
M  V30 6034 H 559.168 3.75236 1.26545 0
M  V30 6035 H 560.342 4.34615 -1.53122 0
M  V30 6036 H 558.657 3.97711 -1.23348 0
M  V30 6037 H 561.254 5.19468 1.26717 0
M  V30 6038 H 561.597 3.64885 2.00411 0
M  V30 6039 H 562.13 3.96389 0.334801 0
M  V30 6040 H 558.869 6.40164 -1.40962 0
M  V30 6041 H 558.389 5.99264 0.253416 0
M  V30 6042 H 560.068 6.4692 -0.101816 0
M  V30 6043 N 560.2 0.0768682 1.57412 0
M  V30 6044 C 561.425 -0.603404 1.98428 0
M  V30 6045 C 561.85 -1.62047 0.955108 0
M  V30 6046 O 561.208 -1.81129 -0.0786778 0
M  V30 6047 C 561.256 -1.24396 3.38464 0
M  V30 6048 O 560.36 -2.35982 3.3821 0
M  V30 6049 H 559.701 -0.154741 0.645718 0
M  V30 6050 H 562.231 0.152885 2.04028 0
M  V30 6051 H 562.241 -1.5896 3.7576 0
M  V30 6052 H 560.916 -0.498735 4.12899 0
M  V30 6053 H 559.493 -2.03173 3.1269 0
M  V30 6054 N 561.678 -1.56367 -0.196722 0
M  V30 6055 C 563.094 -1.49916 -0.54749 0
M  V30 6056 C 563.294 -0.77659 -1.85934 0
M  V30 6057 O 562.35 -0.32644 -2.50381 0
M  V30 6058 C 563.663 -2.94577 -0.603734 0
M  V30 6059 C 565.211 -3.05239 -0.692677 0
M  V30 6060 C 565.686 -4.51308 -0.780046 0
M  V30 6061 N 567.177 -4.55453 -0.843616 0
M  V30 6062 C 567.912 -5.65786 -0.931358 0
M  V30 6063 N 567.408 -6.85812 -0.981503 0
M  V30 6064 N 569.201 -5.53695 -0.968421 0
M  V30 6065 H 561.352 -2.01761 0.663803 0
M  V30 6066 H 563.615 -0.918094 0.236238 0
M  V30 6067 H 563.321 -3.50494 0.29105 0
M  V30 6068 H 563.195 -3.47841 -1.45898 0
M  V30 6069 H 565.582 -2.49372 -1.57789 0
M  V30 6070 H 565.663 -2.55103 0.188736 0
M  V30 6071 H 565.307 -5.078 0.100811 0
M  V30 6072 H 565.237 -4.99176 -1.67724 0
M  V30 6073 H 567.728 -3.69025 -0.814176 0
M  V30 6074 H 568.041 -7.65648 -1.04892 0
M  V30 6075 H 566.386 -6.88474 -0.950208 0
M  V30 6076 H 569.577 -4.58848 -0.926072 0
M  V30 6077 H 569.75 -6.39708 -1.03334 0
M  V30 6078 N 563.156 0.464375 -1.50603 0
M  V30 6079 C 564.403 1.21596 -1.61928 0
M  V30 6080 C 564.731 1.91804 -0.322737 0
M  V30 6081 O 563.986 1.83065 0.691776 0
M  V30 6082 C 564.285 2.278 -2.75394 0
M  V30 6083 C 563.951 1.74797 -4.1564 0
M  V30 6084 C 562.613 1.60063 -4.53799 0
M  V30 6085 C 564.965 1.35548 -5.03266 0
M  V30 6086 C 562.293 1.04514 -5.77316 0
M  V30 6087 C 564.645 0.814381 -6.27336 0
M  V30 6088 C 563.309 0.653726 -6.64291 0
M  V30 6089 H 562.579 0.444951 -0.592536 0
M  V30 6090 H 565.226 0.510964 -1.84557 0
M  V30 6091 H 563.531 3.04233 -2.46879 0
M  V30 6092 H 565.228 2.85723 -2.81359 0
M  V30 6093 H 561.818 1.87234 -3.8554 0
M  V30 6094 H 566.002 1.45763 -4.74412 0
M  V30 6095 H 561.258 0.908186 -6.04617 0
M  V30 6096 H 565.432 0.501626 -6.94591 0
M  V30 6097 H 563.059 0.22114 -7.59878 0
M  V30 6098 N 564.634 1.40294 0.718013 0
M  V30 6099 C 566.045 1.34289 1.29705 0
M  V30 6100 C 566.396 0.0152228 1.96194 0
M  V30 6101 O 565.521 -0.88682 1.97394 0
M  V30 6102 C 566.116 2.43219 2.3586 0
M  V30 6103 C 564.675 2.40682 2.89394 0
M  V30 6104 C 563.822 2.24223 1.63154 0
M  V30 6105 H 566.773 1.50135 0.514312 0
M  V30 6106 H 566.794 2.10986 3.16647 0
M  V30 6107 H 566.306 3.39836 1.87439 0
M  V30 6108 H 564.407 1.47756 3.42051 0
M  V30 6109 H 564.52 3.36177 3.41353 0
M  V30 6110 H 562.884 1.71696 1.88129 0
M  V30 6111 H 563.667 3.22834 1.16761 0
M  V30 6112 N 566.112 -0.949982 1.2575 0
M  V30 6113 C 567.337 -1.73503 1.13628 0
M  V30 6114 C 567.762 -1.85601 -0.30559 0
M  V30 6115 O 567.12 -1.33984 -1.22139 0
M  V30 6116 C 567.168 -3.1243 1.80055 0
M  V30 6117 O 566.272 -3.97916 1.08336 0
M  V30 6118 H 565.613 -0.532665 0.396439 0
M  V30 6119 H 568.143 -1.19043 1.66403 0
M  V30 6120 H 568.153 -3.62866 1.86527 0
M  V30 6121 H 566.828 -3.02941 2.84956 0
M  V30 6122 H 565.405 -3.56375 1.09777 0
M  V30 6123 N 567.59 -1.07411 -1.15328 0
M  V30 6124 C 568.52 -0.716472 -2.22236 0
M  V30 6125 C 569.501 0.296373 -1.67498 0
M  V30 6126 O 570.686 0.168989 -1.93463 0
M  V30 6127 C 567.816 -0.114142 -3.47112 0
M  V30 6128 C 566.77 -1.05421 -4.14814 0
M  V30 6129 C 566.096 -0.314604 -5.33774 0
M  V30 6130 C 567.396 -2.38808 -4.64508 0
M  V30 6131 H 569.09 -1.61029 -2.52408 0
M  V30 6132 H 566.636 -0.775702 -1.21321 0
M  V30 6133 H 568.589 0.148001 -4.2114 0
M  V30 6134 H 567.313 0.814755 -3.16274 0
M  V30 6135 H 565.972 -1.30128 -3.42728 0
M  V30 6136 H 565.62 0.617772 -4.99192 0
M  V30 6137 H 565.32 -0.941209 -5.80013 0
M  V30 6138 H 566.844 -0.0602747 -6.1057 0
M  V30 6139 H 568.258 -2.18424 -5.3006 0
M  V30 6140 H 566.655 -2.97069 -5.21412 0
M  V30 6141 H 567.725 -3.01067 -3.80114 0
M  V30 6142 N 569.068 1.32177 -0.85831 0
M  V30 6143 C 570.316 1.96735 -0.462568 0
M  V30 6144 C 570.637 1.6824 0.985911 0
M  V30 6145 O 569.907 0.991564 1.68952 0
M  V30 6146 H 568.487 0.727849 -0.168064 0
M  V30 6147 H 571.149 1.61195 -1.09554 0
M  V30 6148 H 570.245 3.06068 -0.610647 0
M  V30 6149 N 570.547 0.616602 1.45037 0
M  V30 6150 C 571.494 -0.0969439 2.30596 0
M  V30 6151 C 572.464 -0.851151 1.42635 0
M  V30 6152 O 573.649 -0.835092 1.71554 0
M  V30 6153 C 570.789 -1.08234 3.27688 0
M  V30 6154 C 569.902 -0.328072 4.30752 0
M  V30 6155 C 569.037 -1.30399 5.14946 0
M  V30 6156 C 568.076 -0.538049 6.09731 0
M  V30 6157 N 567.213 -1.46371 6.86673 0
M  V30 6158 H 572.053 0.63864 2.91076 0
M  V30 6159 H 569.59 0.326733 1.43425 0
M  V30 6160 H 571.548 -1.66688 3.82454 0
M  V30 6161 H 570.178 -1.78523 2.68941 0
M  V30 6162 H 569.23 0.372136 3.78575 0
M  V30 6163 H 570.542 0.269142 4.98073 0
M  V30 6164 H 569.696 -1.96032 5.74157 0
M  V30 6165 H 568.435 -1.93514 4.47665 0
M  V30 6166 H 567.44 0.131852 5.49642 0
M  V30 6167 H 568.665 0.0881732 6.79043 0
M  V30 6168 H 566.611 -2.08233 6.22073 0
M  V30 6169 H 566.528 -0.920152 7.50379 0
M  V30 6170 H 567.796 -2.10932 7.50418 0
M  V30 6171 N 572.025 -1.5352 0.356285 0
M  V30 6172 C 572.988 -2.24071 -0.482182 0
M  V30 6173 C 573.988 -1.24531 -1.01729 0
M  V30 6174 O 575.178 -1.48876 -0.904513 0
M  V30 6175 C 572.31 -2.97025 -1.67299 0
M  V30 6176 H 573.503 -2.99596 0.135031 0
M  V30 6177 H 571.056 -1.55928 0.107825 0
M  V30 6178 H 571.791 -2.25719 -2.32855 0
M  V30 6179 H 571.576 -3.7005 -1.29636 0
M  V30 6180 H 573.066 -3.50683 -2.26741 0
M  V30 6181 N 573.503 -0.0852151 -1.57369 0
M  V30 6182 C 574.453 0.88767 -2.10011 0
M  V30 6183 C 575.437 1.25021 -1.01285 0
M  V30 6184 O 576.629 1.22694 -1.27574 0
M  V30 6185 C 573.758 2.15037 -2.67608 0
M  V30 6186 C 572.844 1.81371 -3.83361 0
M  V30 6187 N 573.235 1.18216 -4.91791 0
M  V30 6188 C 571.533 2.11041 -3.92909 0
M  V30 6189 C 572.234 1.02941 -5.72519 0
M  V30 6190 N 571.21 1.54351 -5.21226 0
M  V30 6191 H 575.012 0.395279 -2.9123 0
M  V30 6192 H 572.526 0.11829 -1.61969 0
M  V30 6193 H 574.523 2.85667 -3.03644 0
M  V30 6194 H 573.183 2.64851 -1.8784 0
M  V30 6195 H 574.194 0.850168 -5.10874 0
M  V30 6196 H 570.871 2.63138 -3.24136 0
M  V30 6197 H 572.261 0.536298 -6.69756 0
M  V30 6198 N 574.981 1.5647 0.188427 0
M  V30 6199 C 575.911 1.98101 1.23606 0
M  V30 6200 C 576.892 0.853961 1.47111 0
M  V30 6201 O 578.077 1.11879 1.58735 0
M  V30 6202 C 575.207 2.32624 2.57882 0
M  V30 6203 C 574.161 3.48129 2.48978 0
M  V30 6204 C 573.487 3.68347 3.87588 0
M  V30 6205 C 574.787 4.82112 2.00911 0
M  V30 6206 H 576.481 2.85864 0.890068 0
M  V30 6207 H 574.027 1.37532 0.426714 0
M  V30 6208 H 575.98 2.60343 3.3136 0
M  V30 6209 H 574.704 1.41751 2.94235 0
M  V30 6210 H 573.363 3.20511 1.77956 0
M  V30 6211 H 573.011 2.74793 4.21305 0
M  V30 6212 H 572.711 4.46055 3.82503 0
M  V30 6213 H 574.235 3.98449 4.62678 0
M  V30 6214 H 575.649 5.08819 2.64151 0
M  V30 6215 H 574.046 5.63337 2.06814 0
M  V30 6216 H 575.116 4.75249 0.96262 0
M  V30 6217 O 576.498 -0.333583 1.58017 0
M  V30 6218 H 577.189 -0.982643 1.66925 0
M  V30 END ATOM
M  V30 BEGIN BOND
M  V30 END BOND
M  V30 END CTAB
M  END
$$$$
