drugbank_target|Q9P0L2 Serine/threonine-protein kinase MARK1 (DB12010)
 OpenBabel12092121163D

  0  0  0     0  0            999 V3000
M  V30 BEGIN CTAB
M  V30 COUNTS 12491 12611 0 0 0
M  V30 BEGIN ATOM
M  V30 1 H -0.908 1.98254 -0.117106 0
M  V30 2 N 0 1.576 0 0
M  V30 3 C 0.933 2.03868 1.02534 0
M  V30 4 C 1.911 0.928543 1.3348 0
M  V30 5 O 3.095 1.19667 1.45644 0
M  V30 6 C 0.222 2.43627 2.35294 0
M  V30 7 C -0.732 3.65373 2.2001 0
M  V30 8 S 0.101 5.13292 1.52614 0
M  V30 9 C 1.257 5.56322 2.86805 0
M  V30 10 H 1.49 2.90518 0.631377 0
M  V30 11 H -0.977 1.52953 0.210867 0
M  V30 12 H 0.981 2.67203 3.11629 0
M  V30 13 H -0.358 1.57376 2.7183 0
M  V30 14 H -1.165 3.90944 3.18086 0
M  V30 15 H -1.563 3.418 1.51819 0
M  V30 16 H 0.729 5.58782 3.83104 0
M  V30 17 H 1.672 6.56266 2.65933 0
M  V30 18 H 2.08 4.83886 2.90714 0
M  V30 19 N 1.4781 -0.272755 1.55222 0
M  V30 20 C 2.7031 -1.02683 1.80197 0
M  V30 21 C 3.1281 -1.79142 0.573551 0
M  V30 22 O 2.4861 -1.74917 -0.476849 0
M  V30 23 C 2.5341 -1.9609 3.02624 0
M  V30 24 O 1.6381 -3.04863 2.77727 0
M  V30 25 H 0.9791 -0.293557 0.595584 0
M  V30 26 H 3.5091 -0.30159 2.02365 0
M  V30 27 H 3.5191 -2.38039 3.31363 0
M  V30 28 H 2.1941 -1.39851 3.91682 0
M  V30 29 H 0.7711 -2.67228 2.60084 0
M  V30 30 N 2.9562 -1.48159 -0.537278 0
M  V30 31 C 3.9192 -1.61665 -1.62472 0
M  V30 32 C 4.9192 -0.490395 -1.5314 0
M  V30 33 O 6.1092 -0.755998 -1.5694 0
M  V30 34 C 3.2412 -1.57997 -3.02076 0
M  V30 35 H 4.4342 -2.58621 -1.51839 0
M  V30 36 H 1.9872 -1.36647 -0.758771 0
M  V30 37 H 2.7222 -0.624913 -3.18222 0
M  V30 38 H 2.5072 -2.39755 -3.10258 0
M  V30 39 H 3.9972 -1.70627 -3.81151 0
M  V30 40 N 4.4343 0.785586 -1.36625 0
M  V30 41 C 5.8503 1.08419 -1.17122 0
M  V30 42 C 6.0503 2.015 0.00208491 0
M  V30 43 O 5.1063 2.43551 0.666278 0
M  V30 44 C 6.4193 1.69498 -2.48377 0
M  V30 45 C 7.9673 1.81821 -2.54775 0
M  V30 46 C 8.4423 2.46315 -3.86126 0
M  V30 47 N 9.9333 2.53779 -3.87492 0
M  V30 48 C 10.6683 3.045 -4.85868 0
M  V30 49 N 10.1643 3.55499 -5.94637 0
M  V30 50 N 11.9573 3.03247 -4.73284 0
M  V30 51 H 4.1083 0.167264 -2.1174 0
M  V30 52 H 6.3713 0.13682 -0.938075 0
M  V30 53 H 6.0773 1.08571 -3.34522 0
M  V30 54 H 5.9513 2.6896 -2.64462 0
M  V30 55 H 8.3383 2.41884 -1.69045 0
M  V30 56 H 8.4193 0.811532 -2.42586 0
M  V30 57 H 8.0633 1.86895 -4.72263 0
M  V30 58 H 7.9933 3.47561 -3.95612 0
M  V30 59 H 10.4843 2.17672 -3.08913 0
M  V30 60 H 10.7973 3.92562 -6.65669 0
M  V30 61 H 9.1423 3.5364 -5.98301 0
M  V30 62 H 12.3333 2.62696 -3.87438 0
M  V30 63 H 12.5063 3.42467 -5.50109 0
M  V30 64 N 5.9124 1.20967 1.01018 0
M  V30 65 C 7.1404 1.04956 1.78303 0
M  V30 66 C 7.5554 -0.400915 1.84494 0
M  V30 67 O 6.9124 -1.27826 1.30257 0
M  V30 68 C 6.9634 1.63403 3.22462 0
M  V30 69 O 6.6844 3.02775 3.16637 0
M  V30 70 C 8.1854 1.52432 4.16268 0
M  V30 71 H 5.4054 0.368858 0.560522 0
M  V30 72 H 7.9494 1.60193 1.27116 0
M  V30 73 H 6.1044 1.1227 3.70775 0
M  V30 74 H 6.5184 3.30626 4.07169 0
M  V30 75 H 7.9924 1.98078 5.15237 0
M  V30 76 H 8.4694 0.477875 4.36592 0
M  V30 77 H 9.0754 2.02787 3.73841 0
M  V30 78 N 7.3905 -1.2043 1.01659 0
M  V30 79 C 8.8015 -1.71517 0.737482 0
M  V30 80 C 9.1525 -1.81547 -0.743973 0
M  V30 81 O 8.2775 -1.47803 -1.58061 0
M  V30 82 C 8.8725 -3.11515 1.33206 0
M  V30 83 C 7.4315 -3.59912 1.10183 0
M  V30 84 C 6.5785 -2.37116 1.43776 0
M  V30 85 H 9.5295 -1.05444 1.18606 0
M  V30 86 H 9.5505 -3.73575 0.722636 0
M  V30 87 H 9.0625 -3.04182 2.41028 0
M  V30 88 H 7.1635 -3.72577 0.0412756 0
M  V30 89 H 7.2765 -4.44731 1.78188 0
M  V30 90 H 5.6405 -2.39857 0.856778 0
M  V30 91 H 6.4235 -2.32424 2.52654 0
M  V30 92 N 8.8686 -0.792821 -1.36206 0
M  V30 93 C 9.7986 -0.207853 -2.32573 0
M  V30 94 C 10.7796 0.659055 -1.56813 0
M  V30 95 O 11.9646 0.592176 -1.84951 0
M  V30 96 C 9.0946 0.655449 -3.41059 0
M  V30 97 C 8.0486 -0.111842 -4.27854 0
M  V30 98 C 7.3746 0.872274 -5.27537 0
M  V30 99 C 8.6746 -1.30299 -5.05786 0
M  V30 100 H 10.3686 -1.01294 -2.81744 0
M  V30 101 H 7.9146 -0.48854 -1.3546 0
M  V30 102 H 9.8676 1.07464 -4.07467 0
M  V30 103 H 8.5916 1.49328 -2.90463 0
M  V30 104 H 7.2506 -0.512053 -3.63006 0
M  V30 105 H 6.8986 1.70523 -4.73214 0
M  V30 106 H 6.5986 0.363291 -5.86476 0
M  V30 107 H 8.1226 1.28996 -5.96818 0
M  V30 108 H 9.5366 -0.959379 -5.65216 0
M  V30 109 H 7.9336 -1.7455 -5.74154 0
M  V30 110 H 9.0036 -2.09663 -4.37229 0
M  V30 111 N 10.3467 1.47872 -0.545128 0
M  V30 112 C 11.7577 1.86384 -0.108581 0
M  V30 113 C 12.1087 1.45309 1.31832 0
M  V30 114 O 11.2337 0.850641 1.9898 0
M  V30 115 C 11.8287 3.38265 -0.190274 0
M  V30 116 C 10.3877 3.75914 0.191164 0
M  V30 117 C 9.5347 2.71926 -0.543273 0
M  V30 118 H 12.4857 1.39561 -0.755537 0
M  V30 119 H 12.5067 3.75831 0.594217 0
M  V30 120 H 12.0187 3.6813 -1.2289 0
M  V30 121 H 10.1197 3.51665 1.23136 0
M  V30 122 H 10.2327 4.78836 -0.158987 0
M  V30 123 H 8.5967 2.54697 0.0122495 0
M  V30 124 H 9.3797 3.04634 -1.58282 0
M  V30 125 N 11.8248 0.280983 1.55075 0
M  V30 126 C 13.0528 -0.337293 2.04132 0
M  V30 127 C 13.4678 -1.4903 1.15912 0
M  V30 128 O 12.8248 -1.81606 0.180459 0
M  V30 129 C 12.8758 -0.812706 3.52246 0
M  V30 130 O 12.5968 0.294387 4.3711 0
M  V30 131 C 14.0978 -1.4982 4.17216 0
M  V30 132 H 11.3178 -0.0761638 0.666663 0
M  V30 133 H 13.8618 0.414787 2.00249 0
M  V30 134 H 12.0168 -1.51486 3.56554 0
M  V30 135 H 12.4308 -0.0721325 5.2445 0
M  V30 136 H 13.9048 -1.7822 5.22438 0
M  V30 137 H 14.3818 -2.43168 3.65741 0
M  V30 138 H 14.9878 -0.839742 4.16927 0
M  V30 139 N 13.3029 -1.57598 0.00835791 0
M  V30 140 C 14.5489 -1.91211 -0.675732 0
M  V30 141 C 14.8819 -0.883139 -1.72958 0
M  V30 142 O 14.1569 0.097016 -1.94258 0
M  V30 143 C 14.4399 -3.35379 -1.31123 0
M  V30 144 C 14.2929 -4.48999 -0.268356 0
M  V30 145 C 15.6119 -3.7912 -2.23508 0
M  V30 146 H 12.7309 -0.695374 -0.244179 0
M  V30 147 H 15.3729 -1.89901 0.0613655 0
M  V30 148 H 13.5229 -3.36626 -1.93946 0
M  V30 149 H 15.1949 -4.59887 0.360844 0
M  V30 150 H 13.4379 -4.31873 0.408482 0
M  V30 151 H 14.1089 -5.46851 -0.752218 0
M  V30 152 H 16.5849 -3.79477 -1.70693 0
M  V30 153 H 15.4609 -4.80729 -2.64936 0
M  V30 154 H 15.7219 -3.13455 -3.11766 0
M  V30 155 N 14.781 0.264519 -1.55364 0
M  V30 156 C 15.729 1.34702 -1.89626 0
M  V30 157 C 16.723 1.50712 -0.773459 0
M  V30 158 O 17.929 1.52395 -0.957897 0
M  V30 159 H 14.304 0.450682 -0.601988 0
M  V30 160 H 16.275 1.0306 -2.80038 0
M  V30 161 C 15.024 2.6989 -2.19214 0
M  V30 162 H 14.347 2.58365 -3.05103 0
M  V30 163 H 15.787 3.44553 -2.47102 0
M  V30 164 C 14.246 3.21637 -1.00254 0
M  V30 165 O 14.776 4.00973 -0.241501 0
M  V30 166 N 12.982 2.7943 -0.797938 0
M  V30 167 H 12.529 2.15026 -1.4185 0
M  V30 168 H 12.487 3.144 -0.00363422 0
M  V30 169 N 16.2591 1.48442 0.529413 0
M  V30 170 C 17.1691 1.6569 1.66084 0
M  V30 171 C 18.1851 0.539432 1.65427 0
M  V30 172 O 19.3611 0.810572 1.84368 0
M  V30 173 C 16.4261 1.69315 3.02545 0
M  V30 174 C 15.4871 2.92694 3.14052 0
M  V30 175 C 14.7201 2.96137 4.44003 0
M  V30 176 O 14.9431 2.07973 5.31134 0
M  V30 177 O 13.8771 3.88312 4.59888 0
M  V30 178 H 17.7031 2.61483 1.54469 0
M  V30 179 H 15.2881 1.3185 0.702567 0
M  V30 180 H 17.1701 1.74217 3.83701 0
M  V30 181 H 15.8451 0.766966 3.14483 0
M  V30 182 H 14.7521 2.93324 2.32189 0
M  V30 183 H 16.0851 3.84699 3.0703 0
M  V30 184 N 17.7372 -0.778329 1.37039 0
M  V30 185 C 19.1532 -1.07796 1.17695 0
M  V30 186 C 19.3532 -2.01498 0.00860115 0
M  V30 187 O 18.4092 -2.43901 -0.653352 0
M  V30 188 C 19.7222 -1.68178 2.49272 0
M  V30 189 C 21.2702 -1.80467 2.55735 0
M  V30 190 C 21.7452 -2.44263 3.87427 0
M  V30 191 N 23.2362 -2.51721 3.88833 0
M  V30 192 C 23.9712 -3.01919 4.87476 0
M  V30 193 N 23.4672 -3.5234 5.96513 0
M  V30 194 N 25.2602 -3.00733 4.74885 0
M  V30 195 H 17.4112 -0.156032 2.11826 0
M  V30 196 H 19.6742 -0.131844 0.938787 0
M  V30 197 H 19.3802 -1.06796 3.35093 0
M  V30 198 H 19.2542 -2.67554 2.65885 0
M  V30 199 H 21.6412 -2.40984 1.70325 0
M  V30 200 H 21.7222 -0.798656 2.43013 0
M  V30 201 H 21.3662 -1.84388 4.73248 0
M  V30 202 H 21.2962 -3.45458 3.9745 0
M  V30 203 H 23.7872 -2.1603 3.10063 0
M  V30 204 H 24.1002 -3.89027 6.67741 0
M  V30 205 H 22.4452 -3.50462 6.00168 0
M  V30 206 H 25.6362 -2.60638 3.88826 0
M  V30 207 H 25.8092 -3.39545 5.51918 0
M  V30 208 N 19.2153 -1.21501 -1.00376 0
M  V30 209 C 20.4923 -0.941745 -1.71437 0
M  V30 210 C 20.8723 0.546114 -2.03914 0
M  V30 211 O 20.2203 1.51128 -1.71384 0
M  V30 212 C 20.4303 -1.82812 -2.97289 0
M  V30 213 C 21.7783 -2.07771 -3.70292 0
M  V30 214 O 22.8023 -1.80171 -3.07273 0
M  V30 215 O 21.6613 -2.54456 -4.83647 0
M  V30 216 H 18.7553 -0.353243 -0.747762 0
M  V30 217 H 21.3013 -1.32436 -1.06108 0
M  V30 218 H 20.0733 -2.83501 -2.69709 0
M  V30 219 H 19.6963 -1.4464 -3.70358 0
M  V30 220 N 20.6934 1.19889 -1.02296 0
M  V30 221 C 21.9214 1.9339 -0.735399 0
M  V30 222 C 22.3364 1.75148 0.704887 0
M  V30 223 O 21.6934 1.06954 1.47875 0
M  V30 224 C 21.7444 3.45313 -1.06962 0
M  V30 225 O 21.4654 3.62964 -2.45334 0
M  V30 226 C 22.9664 4.35948 -0.804021 0
M  V30 227 H 20.1864 0.61448 -0.269546 0
M  V30 228 H 22.7304 1.522 -1.36585 0
M  V30 229 H 20.8854 3.84359 -0.484455 0
M  V30 230 H 21.2994 4.56886 -2.57595 0
M  V30 231 H 22.7734 5.41174 -1.0879 0
M  V30 232 H 23.2504 4.3842 0.261691 0
M  V30 233 H 23.8564 4.02574 -1.37164 0
M  V30 234 N 22.1715 0.800033 1.35784 0
M  V30 235 C 23.0815 0.207204 2.33683 0
M  V30 236 C 24.0975 -0.64631 1.61551 0
M  V30 237 O 25.2735 -0.559604 1.93469 0
M  V30 238 C 22.3385 -0.639659 3.40748 0
M  V30 239 C 21.3995 0.233585 4.28664 0
M  V30 240 C 20.6325 -0.572954 5.30616 0
M  V30 241 O 20.8555 -1.80816 5.40982 0
M  V30 242 O 19.7895 0.0327285 6.01891 0
M  V30 243 H 23.6155 1.01692 2.86169 0
M  V30 244 H 21.2005 0.561691 1.38439 0
M  V30 245 H 23.0825 -1.12223 4.06182 0
M  V30 246 H 21.7575 -1.42708 2.90544 0
M  V30 247 H 20.6645 0.763147 3.66233 0
M  V30 248 H 21.9975 0.984784 4.82248 0
M  V30 249 N 23.6496 -1.47581 0.552962 0
M  V30 250 C 24.5976 -2.31648 -0.21023 0
M  V30 251 C 25.5916 -1.42663 -0.913432 0
M  V30 252 O 26.7976 -1.5945 -0.835201 0
M  V30 253 H 23.1726 -0.746989 -0.0866676 0
M  V30 254 H 25.1436 -2.93869 0.518051 0
M  V30 255 C 23.8926 -3.25226 -1.22976 0
M  V30 256 H 23.2156 -3.93658 -0.698077 0
M  V30 257 H 24.6556 -3.86889 -1.73473 0
M  V30 258 C 23.1146 -2.48448 -2.27542 0
M  V30 259 O 23.6446 -2.22585 -3.34393 0
M  V30 260 N 21.8506 -2.09532 -2.01357 0
M  V30 261 H 21.3976 -2.30765 -1.14478 0
M  V30 262 H 21.3556 -1.58476 -2.71538 0
M  V30 263 N 25.1277 -0.289203 -1.54924 0
M  V30 264 C 26.0777 0.606939 -2.19773 0
M  V30 265 C 27.0617 1.10783 -1.16687 0
M  V30 266 O 28.2537 1.05057 -1.4245 0
M  V30 267 C 25.3827 1.78398 -2.93307 0
M  V30 268 C 24.4687 1.29961 -4.03697 0
M  V30 269 N 24.8597 0.532377 -5.0299 0
M  V30 270 C 23.1577 1.58136 -4.17024 0
M  V30 271 C 23.8587 0.275912 -5.81045 0
M  V30 272 N 22.8347 0.852365 -5.36876 0
M  V30 273 H 26.6367 0.0130779 -2.93897 0
M  V30 274 H 24.1507 -0.09341 -1.62131 0
M  V30 275 H 26.1477 2.43741 -3.38225 0
M  V30 276 H 24.8077 2.38166 -2.20697 0
M  V30 277 H 25.8187 0.17838 -5.17593 0
M  V30 278 H 22.4957 2.18738 -3.55612 0
M  V30 279 H 23.8857 -0.339502 -6.71042 0
M  V30 280 N 26.6058 1.57591 -0.0167156 0
M  V30 281 C 27.8338 1.95575 0.675128 0
M  V30 282 C 28.2488 0.892542 1.6637 0
M  V30 283 O 27.6058 -0.126912 1.82058 0
M  V30 284 C 27.6568 3.33608 1.39239 0
M  V30 285 O 27.3778 4.3585 0.443444 0
M  V30 286 C 28.8788 3.86151 2.17721 0
M  V30 287 H 26.0988 0.644423 0.186978 0
M  V30 288 H 28.6428 2.0437 -0.0728 0
M  V30 289 H 26.7978 3.2607 2.09182 0
M  V30 290 H 27.2118 5.158 0.951358 0
M  V30 291 H 28.6858 4.85114 2.63379 0
M  V30 292 H 29.1628 3.19738 3.01105 0
M  V30 293 H 29.7688 3.96918 1.52761 0
M  V30 294 N 28.0839 -0.256276 1.55502 0
M  V30 295 C 29.3089 -1.00766 1.81276 0
M  V30 296 C 29.7339 -1.78524 0.59252 0
M  V30 297 O 29.0919 -1.75413 -0.45827 0
M  V30 298 C 29.1399 -1.92869 3.04687 0
M  V30 299 O 28.2439 -3.019 2.80945 0
M  V30 300 H 27.5849 -0.287224 0.598664 0
M  V30 301 H 30.1149 -0.280109 2.02674 0
M  V30 302 H 30.1249 -2.34511 3.33869 0
M  V30 303 H 28.7999 -1.35689 3.93143 0
M  V30 304 H 27.3769 -2.64454 2.62904 0
M  V30 305 N 29.562 -1.4872 -0.521534 0
M  V30 306 C 30.808 -1.574 -1.27879 0
M  V30 307 C 31.141 -0.250817 -1.92573 0
M  V30 308 O 30.416 0.743934 -1.79711 0
M  V30 309 C 30.699 -2.71843 -2.36164 0
M  V30 310 C 30.552 -4.13893 -1.76105 0
M  V30 311 C 31.871 -2.82008 -3.37875 0
M  V30 312 H 28.99 -0.572941 -0.463581 0
M  V30 313 H 31.632 -1.80927 -0.580119 0
M  V30 314 H 29.782 -2.51914 -2.95756 0
M  V30 315 H 31.454 -4.45284 -1.20499 0
M  V30 316 H 29.697 -4.20498 -1.06601 0
M  V30 317 H 30.368 -4.89804 -2.5455 0
M  V30 318 H 32.844 -3.00086 -2.88249 0
M  V30 319 H 31.72 -3.63796 -4.11028 0
M  V30 320 H 31.981 -1.90511 -3.98946 0
M  V30 321 N 31.0401 0.771051 -1.3745 0
M  V30 322 C 32.3171 1.519 -1.23231 0
M  V30 323 C 32.6971 2.10383 0.173809 0
M  V30 324 O 32.0451 1.95583 1.18151 0
M  V30 325 C 32.2551 2.59933 -2.32886 0
M  V30 326 C 33.6031 3.27316 -2.70461 0
M  V30 327 O 34.6271 2.70228 -2.32068 0
M  V30 328 O 33.4861 4.30531 -3.36608 0
M  V30 329 H 30.5801 0.672803 -0.480901 0
M  V30 330 H 33.1261 0.807957 -1.49232 0
M  V30 331 H 31.8981 2.14842 -3.27045 0
M  V30 332 H 31.5211 3.38637 -2.08353 0
M  V30 333 N 32.5182 1.22032 0.997298 0
M  V30 334 C 33.7662 1.04016 1.73278 0
M  V30 335 C 34.0872 -0.426255 1.90284 0
M  V30 336 O 33.3572 -1.30694 1.45931 0
M  V30 337 H 31.9372 0.381897 0.642 0
M  V30 338 H 34.5992 1.5347 1.20137 0
M  V30 339 H 33.6952 1.51441 2.72896 0
M  V30 340 N 33.9963 -1.19345 1.0293 0
M  V30 341 C 35.2263 -1.92717 0.744563 0
M  V30 342 C 35.6343 -1.75751 -0.700579 0
M  V30 343 O 34.9773 -1.07703 -1.48815 0
M  V30 344 C 35.0393 -3.44828 1.01657 0
M  V30 345 C 34.7033 -3.85564 2.45335 0
M  V30 346 C 35.7003 -3.90286 3.43472 0
M  V30 347 C 33.3853 -4.1719 2.79746 0
M  V30 348 C 35.3793 -4.26065 4.74075 0
M  V30 349 C 33.0663 -4.52642 4.10559 0
M  V30 350 C 34.0643 -4.57054 5.07534 0
M  V30 351 O 33.7523 -4.91685 6.36004 0
M  V30 352 H 33.4843 -0.618977 0.271742 0
M  V30 353 H 36.0383 -1.52415 1.37691 0
M  V30 354 H 34.2683 -3.85314 0.327084 0
M  V30 355 H 35.9573 -3.99437 0.721427 0
M  V30 356 H 36.7233 -3.66002 3.18225 0
M  V30 357 H 32.6023 -4.1294 2.04943 0
M  V30 358 H 36.1463 -4.29423 5.49765 0
M  V30 359 H 32.0433 -4.76383 4.35579 0
M  V30 360 H 32.8113 -5.09631 6.40483 0
M  V30 361 N 35.4744 -0.807222 -1.35358 0
M  V30 362 C 36.7024 -0.400377 -2.02989 0
M  V30 363 C 37.1174 0.988859 -1.60832 0
M  V30 364 O 36.4744 1.63729 -0.806175 0
M  V30 365 C 36.5254 -0.474867 -3.58368 0
M  V30 366 O 36.2464 -1.80933 -3.98992 0
M  V30 367 C 37.7474 -0.0609112 -4.43258 0
M  V30 368 H 34.9674 -0.162587 -0.651004 0
M  V30 369 H 37.5114 -1.09102 -1.72965 0
M  V30 370 H 35.6664 0.167534 -3.87038 0
M  V30 371 H 36.0804 -1.77256 -4.9364 0
M  V30 372 H 37.5544 -0.164145 -5.51756 0
M  V30 373 H 38.0314 0.993831 -4.27808 0
M  V30 374 H 38.6374 -0.676492 -4.19885 0
M  V30 375 N 36.9525 1.47285 -0.560781 0
M  V30 376 C 37.8625 2.33846 0.187954 0
M  V30 377 C 38.8785 1.48412 0.908293 0
M  V30 378 O 40.0545 1.81332 0.876388 0
M  V30 379 C 37.1195 3.25178 1.2025 0
M  V30 380 C 36.1805 4.26504 0.489208 0
M  V30 381 C 35.4135 5.13472 1.45542 0
M  V30 382 O 35.6365 5.02959 2.6905 0
M  V30 383 O 34.5705 5.93902 0.977963 0
M  V30 384 H 38.3965 2.99177 -0.522177 0
M  V30 385 H 35.9815 1.45903 -0.321364 0
M  V30 386 H 37.8635 3.81584 1.78805 0
M  V30 387 H 36.5385 2.6247 1.89449 0
M  V30 388 H 35.4455 3.73847 -0.137627 0
M  V30 389 H 36.7785 4.91935 -0.161399 0
M  V30 390 N 38.4306 0.297415 1.54768 0
M  V30 391 C 39.8416 -0.195947 1.85669 0
M  V30 392 C 40.1926 -1.53707 1.21937 0
M  V30 393 O 39.3176 -2.10164 0.515754 0
M  V30 394 C 39.9126 -0.362318 3.36857 0
M  V30 395 C 38.4716 -0.799901 3.67802 0
M  V30 396 C 37.6186 0.0938578 2.77141 0
M  V30 397 H 40.5696 0.518538 1.4999 0
M  V30 398 H 40.5906 -1.19745 3.61167 0
M  V30 399 H 40.1026 0.613921 3.83214 0
M  V30 400 H 38.2036 -1.78682 3.26961 0
M  V30 401 H 38.3166 -0.621773 4.75048 0
M  V30 402 H 36.6806 -0.426254 2.51108 0
M  V30 403 H 37.4636 1.06639 3.26318 0
M  V30 404 N 39.9087 -1.5758 0.0250728 0
M  V30 405 C 40.8587 -2.06468 -0.967201 0
M  V30 406 C 41.8427 -0.964376 -1.28797 0
M  V30 407 O 43.0347 -1.22797 -1.27475 0
M  V30 408 C 40.1637 -2.59203 -2.25097 0
M  V30 409 C 39.2497 -3.76157 -1.95874 0
M  V30 410 N 39.6407 -4.86919 -1.36905 0
M  V30 411 C 37.9387 -3.84566 -2.25887 0
M  V30 412 C 38.6397 -5.68172 -1.24724 0
M  V30 413 N 37.6157 -5.14953 -1.74138 0
M  V30 414 H 41.4177 -2.89508 -0.506176 0
M  V30 415 H 38.9317 -1.61399 -0.18004 0
M  V30 416 H 40.9287 -2.92517 -2.97052 0
M  V30 417 H 39.5887 -1.77592 -2.71829 0
M  V30 418 H 40.5997 -5.07256 -1.04459 0
M  V30 419 H 37.2767 -3.13854 -2.75321 0
M  V30 420 H 38.6667 -6.67221 -0.791605 0
M  V30 421 N 41.3868 0.248026 -1.55636 0
M  V30 422 C 42.6358 0.974134 -1.76617 0
M  V30 423 C 42.9488 1.86528 -0.588796 0
M  V30 424 O 44.1548 2.62805 -0.681594 0
M  V30 425 C 42.6108 1.78213 -3.12679 0
M  V30 426 C 42.2188 0.93843 -4.38061 0
M  V30 427 C 43.9628 2.50104 -3.42999 0
M  V30 428 C 41.8698 1.74225 -5.65155 0
M  V30 429 H 40.7998 0.36745 -0.658405 0
M  V30 430 H 43.4508 0.22884 -1.82067 0
M  V30 431 H 41.8328 2.56933 -3.01333 0
M  V30 432 H 43.0068 0.193635 -4.60393 0
M  V30 433 H 41.3218 0.332905 -4.15067 0
M  V30 434 H 43.9188 3.10694 -4.3517 0
M  V30 435 H 44.2618 3.21662 -2.64271 0
M  V30 436 H 44.7948 1.78395 -3.55556 0
M  V30 437 H 41.5338 1.07043 -6.46701 0
M  V30 438 H 41.0538 2.46235 -5.46926 0
M  V30 439 H 42.7328 2.30967 -6.0437 0
M  V30 440 N 42.8649 1.48995 0.513639 0
M  V30 441 C 43.7969 1.60836 1.63293 0
M  V30 442 C 44.8099 0.491701 1.55197 0
M  V30 443 O 45.9989 0.763238 1.6136 0
M  V30 444 C 43.0989 1.53731 3.02027 0
M  V30 445 C 42.2719 2.80715 3.35437 0
M  V30 446 C 41.3309 2.66837 4.53525 0
M  V30 447 O 40.3569 3.40753 4.55934 0
M  V30 448 N 41.5589 1.77539 5.52684 0
M  V30 449 H 44.3239 2.57366 1.53566 0
M  V30 450 H 41.8849 1.45925 0.701259 0
M  V30 451 H 43.8769 1.42118 3.78926 0
M  V30 452 H 42.4469 0.651092 3.05744 0
M  V30 453 H 41.6669 3.06772 2.47557 0
M  V30 454 H 42.9549 3.64927 3.54551 0
M  V30 455 H 42.3529 1.16719 5.53528 0
M  V30 456 H 40.9099 1.71856 6.28736 0
M  V30 457 N 44.343 -0.763751 1.37857 0
M  V30 458 C 45.754 -1.3405 1.29952 0
M  V30 459 C 46.105 -1.96138 -0.0492898 0
M  V30 460 O 45.23 -1.94372 -0.951239 0
M  V30 461 C 45.825 -2.43729 2.35333 0
M  V30 462 C 44.384 -2.97151 2.31037 0
M  V30 463 C 43.531 -1.70438 2.18738 0
M  V30 464 H 46.482 -0.563396 1.48363 0
M  V30 465 H 46.503 -3.23412 2.00462 0
M  V30 466 H 46.015 -1.9851 3.33489 0
M  V30 467 H 44.116 -3.46724 1.3643 0
M  V30 468 H 44.229 -3.52221 3.24772 0
M  V30 469 H 42.593 -1.93673 1.65418 0
M  V30 470 H 43.376 -1.27312 3.18821 0
M  V30 471 N 45.8211 -1.22559 -0.990812 0
M  V30 472 C 47.0491 -1.07779 -1.76611 0
M  V30 473 C 47.4641 0.371513 -1.85109 0
M  V30 474 O 46.8211 1.25737 -1.32274 0
M  V30 475 C 46.8721 -1.68512 -3.19822 0
M  V30 476 O 46.5931 -3.07774 -3.1178 0
M  V30 477 C 48.0941 -1.59035 -4.13791 0
M  V30 478 H 45.3141 -0.377729 -0.554583 0
M  V30 479 H 47.8581 -1.62195 -1.24551 0
M  V30 480 H 46.0131 -1.18154 -3.68942 0
M  V30 481 H 46.4271 -3.37062 -4.01858 0
M  V30 482 H 47.9011 -2.0625 -5.1202 0
M  V30 483 H 48.3781 -0.547273 -4.35777 0
M  V30 484 H 48.9841 -2.08709 -3.70568 0
M  V30 485 N 47.2992 1.18797 -1.03562 0
M  V30 486 C 48.2462 2.22253 -0.622259 0
M  V30 487 C 49.2162 1.61987 0.36736 0
M  V30 488 O 50.4012 1.88986 0.262492 0
M  V30 489 C 47.5412 3.45097 0.0138462 0
M  V30 490 C 46.6542 4.19722 -1.02263 0
M  V30 491 C 45.7892 5.30009 -0.355573 0
M  V30 492 C 44.8282 5.96399 -1.37749 0
M  V30 493 N 43.9652 6.98234 -0.735766 0
M  V30 494 H 48.8052 2.56968 -1.50903 0
M  V30 495 H 46.3422 1.26245 -0.755017 0
M  V30 496 H 48.3002 4.15279 0.399948 0
M  V30 497 H 46.9302 3.11018 0.864158 0
M  V30 498 H 45.9822 3.48418 -1.52673 0
M  V30 499 H 47.2942 4.65227 -1.79903 0
M  V30 500 H 46.4482 6.0664 0.0850095 0
M  V30 501 H 45.1872 4.85592 0.452967 0
M  V30 502 H 44.1922 5.18512 -1.82826 0
M  V30 503 H 45.4172 6.42899 -2.18764 0
M  V30 504 H 43.3632 6.55979 0.0525597 0
M  V30 505 H 43.2802 7.41965 -1.44995 0
M  V30 506 H 44.5482 7.78845 -0.31941 0
M  V30 507 N 48.7773 0.814389 1.34928 0
M  V30 508 C 50.0023 0.410097 2.03305 0
M  V30 509 C 50.4273 -0.973464 1.60951 0
M  V30 510 O 49.7853 -1.63185 0.789964 0
M  V30 511 C 49.8333 0.51049 3.56968 0
M  V30 512 O 48.9373 -0.473035 4.09678 0
M  V30 513 H 48.2783 0.170088 0.641846 0
M  V30 514 H 50.8083 1.10244 1.72358 0
M  V30 515 H 50.8183 0.383135 4.06197 0
M  V30 516 H 49.4933 1.51963 3.87144 0
M  V30 517 H 48.0703 -0.305272 3.71648 0
M  V30 518 N 50.2554 -1.46986 0.568584 0
M  V30 519 C 51.4804 -2.07335 0.0520528 0
M  V30 520 C 51.9054 -1.41675 -1.23733 0
M  V30 521 O 51.2634 -0.495623 -1.74394 0
M  V30 522 C 51.3114 -3.60417 -0.11501 0
M  V30 523 O 50.4154 -3.95309 -1.17492 0
M  V30 524 H 49.7564 -0.661597 0.0564385 0
M  V30 525 H 52.2864 -1.88837 0.787507 0
M  V30 526 H 52.2964 -4.06698 -0.325644 0
M  V30 527 H 50.9714 -4.07601 0.826675 0
M  V30 528 H 49.5484 -3.60757 -0.943869 0
M  V30 529 N 51.7335 -0.305618 -1.54608 0
M  V30 530 C 52.9585 0.307562 -2.05107 0
M  V30 531 C 53.3835 1.46385 -1.18123 0
M  V30 532 O 52.7415 1.8034 -0.186324 0
M  V30 533 C 52.7895 0.73704 -3.52987 0
M  V30 534 O 51.8935 1.84134 -3.6901 0
M  V30 535 H 51.2345 0.0589143 -0.661381 0
M  V30 536 H 53.7645 -0.448807 -1.99617 0
M  V30 537 H 53.7745 1.02459 -3.94925 0
M  V30 538 H 52.4495 -0.108773 -4.15758 0
M  V30 539 H 51.0265 1.55398 -3.38978 0
M  V30 540 N 53.2116 1.57565 -0.0334293 0
M  V30 541 C 54.6276 1.56297 0.322997 0
M  V30 542 C 54.8276 1.03945 1.7262 0
M  V30 543 O 53.8836 0.688109 2.42943 0
M  V30 544 C 55.1966 3.00232 0.167664 0
M  V30 545 C 56.7446 3.12078 0.240107 0
M  V30 546 C 57.2196 4.57859 0.113513 0
M  V30 547 N 58.7106 4.62887 0.170359 0
M  V30 548 C 59.4456 5.73319 0.0962517 0
M  V30 549 N 58.9416 6.92794 -0.0291881 0
M  V30 550 N 60.7346 5.61898 0.150551 0
M  V30 551 H 52.8856 1.89923 -0.950956 0
M  V30 552 H 55.1486 0.873824 -0.367608 0
M  V30 553 H 54.8546 3.42501 -0.799102 0
M  V30 554 H 54.7286 3.654 0.936083 0
M  V30 555 H 57.1156 2.69718 1.19733 0
M  V30 556 H 57.1966 2.49623 -0.558763 0
M  V30 557 H 56.8406 5.009 -0.840314 0
M  V30 558 H 56.7706 5.18299 0.931302 0
M  V30 559 H 59.2616 3.76954 0.26728 0
M  V30 560 H 59.5746 7.7276 -0.0789252 0
M  V30 561 H 57.9196 6.94971 -0.0640299 0
M  V30 562 H 61.1106 4.67448 0.246981 0
M  V30 563 H 61.2836 6.47938 0.0893365 0
M  V30 564 N 54.6897 -0.239769 1.55765 0
M  V30 565 C 55.6217 -1.32001 1.87372 0
M  V30 566 C 56.6347 -1.43944 0.760522 0
M  V30 567 O 57.8237 -1.45167 1.0387 0
M  V30 568 C 54.9237 -2.69779 2.05115 0
M  V30 569 C 54.0967 -2.80014 3.36022 0
M  V30 570 C 53.1557 -3.98684 3.4342 0
M  V30 571 O 52.1817 -3.87877 4.16582 0
M  V30 572 N 53.3837 -5.12176 2.73232 0
M  V30 573 H 56.1487 -1.0522 2.80622 0
M  V30 574 H 53.7097 -0.429857 1.56089 0
M  V30 575 H 55.7017 -3.47517 2.07399 0
M  V30 576 H 54.2717 -2.89237 1.18577 0
M  V30 577 H 53.4917 -1.88896 3.45994 0
M  V30 578 H 54.7797 -2.83808 4.22292 0
M  V30 579 H 54.1777 -5.2385 2.13536 0
M  V30 580 H 52.7347 -5.88022 2.81199 0
M  V30 581 N 56.1678 -1.49265 -0.50573 0
M  V30 582 C 57.1158 -1.66065 -1.62866 0
M  V30 583 C 58.1098 -0.526636 -1.61006 0
M  V30 584 O 59.3158 -0.706126 -1.65571 0
M  V30 585 H 55.6908 -0.52356 -0.539805 0
M  V30 586 H 57.6618 -2.60329 -1.45848 0
M  V30 587 C 56.4108 -1.74008 -3.01026 0
M  V30 588 H 55.7338 -2.6064 -3.03161 0
M  V30 589 H 57.1738 -1.89798 -3.79147 0
M  V30 590 C 55.6328 -0.483868 -3.33407 0
M  V30 591 O 56.1628 0.392548 -3.99777 0
M  V30 592 N 54.3688 -0.348236 -2.88506 0
M  V30 593 H 53.9158 -1.06242 -2.34671 0
M  V30 594 H 53.8738 0.491204 -3.10539 0
M  V30 595 N 57.6459 0.756429 -1.3826 0
M  V30 596 C 58.8949 1.51082 -1.3363 0
M  V30 597 C 59.2079 1.95467 0.0720068 0
M  V30 598 O 60.4139 2.7043 0.240834 0
M  V30 599 C 58.8699 2.72893 -2.34644 0
M  V30 600 C 58.4779 2.35544 -3.81081 0
M  V30 601 C 60.2219 3.50791 -2.39052 0
M  V30 602 C 58.1289 3.53948 -4.73787 0
M  V30 603 H 57.0589 0.56727 -0.49671 0
M  V30 604 H 59.7099 0.827147 -1.638 0
M  V30 605 H 58.0919 3.43227 -1.97513 0
M  V30 606 H 59.2659 1.72894 -4.27135 0
M  V30 607 H 57.5809 1.70786 -3.79764 0
M  V30 608 H 60.1779 4.38823 -3.05513 0
M  V30 609 H 60.5209 3.91745 -1.40861 0
M  V30 610 H 61.0539 2.87467 -2.74968 0
M  V30 611 H 57.7929 3.18064 -5.73163 0
M  V30 612 H 57.3129 4.15651 -4.32428 0
M  V30 613 H 58.9919 4.20566 -4.91663 0
M  V30 614 N 59.124 1.23083 0.984299 0
M  V30 615 C 60.535 1.05609 1.5396 0
M  V30 616 C 60.886 -0.377793 1.92528 0
M  V30 617 O 60.011 -1.26398 1.75649 0
M  V30 618 C 60.606 1.91087 2.7977 0
M  V30 619 C 59.165 1.77885 3.31713 0
M  V30 620 C 58.312 1.87028 2.04733 0
M  V30 621 H 61.263 1.36802 0.804419 0
M  V30 622 H 61.284 1.43336 3.5247 0
M  V30 623 H 60.796 2.9544 2.51668 0
M  V30 624 H 58.897 0.762995 3.64704 0
M  V30 625 H 59.01 2.61047 4.01735 0
M  V30 626 H 57.374 1.30565 2.18689 0
M  V30 627 H 58.157 2.92929 1.79017 0
M  V30 628 N 60.6021 -1.18246 1.0419 0
M  V30 629 C 62.0181 -1.40269 0.761366 0
M  V30 630 C 62.2181 -1.90777 -0.648578 0
M  V30 631 O 61.2741 -2.0929 -1.41258 0
M  V30 632 C 62.5871 -2.40237 1.8085 0
M  V30 633 C 64.1351 -2.53961 1.82955 0
M  V30 634 C 64.6101 -3.57194 2.86664 0
M  V30 635 N 66.1011 -3.64702 2.85563 0
M  V30 636 C 66.8361 -4.44309 3.6246 0
M  V30 637 N 66.3321 -5.27514 4.49111 0
M  V30 638 N 68.1251 -4.39084 3.50944 0
M  V30 639 H 60.2761 -0.837882 1.95175 0
M  V30 640 H 62.5391 -0.430608 0.84456 0
M  V30 641 H 62.2451 -2.10176 2.81991 0
M  V30 642 H 62.1191 -3.39601 1.64168 0
M  V30 643 H 64.5061 -2.83338 0.824855 0
M  V30 644 H 64.5871 -1.54706 2.03715 0
M  V30 645 H 64.2311 -3.28558 3.87314 0
M  V30 646 H 64.1611 -4.5613 2.6316 0
M  V30 647 H 66.6521 -3.05289 2.22727 0
M  V30 648 H 66.9651 -5.85411 5.04493 0
M  V30 649 H 65.3101 -5.2693 4.53178 0
M  V30 650 H 68.5011 -3.7313 2.82651 0
M  V30 651 H 68.6741 -5.00883 4.11121 0
M  V30 652 N 62.0802 -0.821533 -1.34494 0
M  V30 653 C 63.3202 -0.414785 -2.00147 0
M  V30 654 C 63.6842 1.00299 -1.6372 0
M  V30 655 O 64.8852 1.51255 -2.22206 0
M  V30 656 C 63.1562 -0.609403 -3.52166 0
M  V30 657 S 64.7152 -0.295297 -4.37805 0
M  V30 658 H 61.5332 -0.15679 -0.693497 0
M  V30 659 H 64.1352 -1.06705 -1.63812 0
M  V30 660 H 62.8392 -1.64096 -3.76166 0
M  V30 661 H 62.3702 0.0576414 -3.93358 0
M  V30 662 H 64.3852 0.891531 -4.88125 0
M  V30 663 N 63.5583 1.46682 -0.576371 0
M  V30 664 C 64.9743 1.57822 -0.237562 0
M  V30 665 C 65.1743 1.57237 1.26011 0
M  V30 666 O 64.2303 1.48596 2.04146 0
M  V30 667 C 65.5433 2.87499 -0.881168 0
M  V30 668 C 67.0913 3.01119 -0.85417 0
M  V30 669 C 67.5663 4.33524 -1.4772 0
M  V30 670 N 69.0573 4.40207 -1.44125 0
M  V30 671 C 69.7923 5.4126 -1.89276 0
M  V30 672 N 69.2883 6.49021 -2.42371 0
M  V30 673 N 71.0813 5.32422 -1.80231 0
M  V30 674 H 63.2323 1.45306 -1.54919 0
M  V30 675 H 65.4953 0.692733 -0.647167 0
M  V30 676 H 65.2013 2.9372 -1.93447 0
M  V30 677 H 65.0753 3.75224 -0.385592 0
M  V30 678 H 67.4623 2.94485 0.190491 0
M  V30 679 H 67.5433 2.14887 -1.3877 0
M  V30 680 H 67.1873 4.40916 -2.52103 0
M  V30 681 H 67.1173 5.1852 -0.918947 0
M  V30 682 H 69.6083 3.62931 -1.05307 0
M  V30 683 H 69.9213 7.2233 -2.74698 0
M  V30 684 H 68.2663 6.49858 -2.46393 0
M  V30 685 H 71.4573 4.47137 -1.38514 0
M  V30 686 H 71.6303 6.11034 -2.15735 0
M  V30 687 N 65.0364 0.313813 1.54444 0
M  V30 688 C 65.9844 -0.572171 2.25453 0
M  V30 689 C 66.9784 -1.12657 1.2651 0
M  V30 690 O 68.1844 -1.07573 1.44319 0
M  V30 691 H 64.5594 -0.203146 0.724041 0
M  V30 692 H 66.5304 0.0491145 2.9836 0
M  V30 693 C 65.2794 -1.72626 3.0182 0
M  V30 694 H 64.6024 -1.30891 3.77767 0
M  V30 695 H 66.0424 -2.32199 3.54767 0
M  V30 696 C 64.5014 -2.63806 2.09542 0
M  V30 697 O 65.0314 -3.65256 1.67185 0
M  V30 698 N 63.2374 -2.31824 1.75232 0
M  V30 699 H 62.7844 -1.49368 2.09873 0
M  V30 700 H 62.7424 -2.93095 1.13767 0
M  V30 701 N 66.5145 -1.57545 0.0417849 0
M  V30 702 C 67.7395 -1.97035 -0.647455 0
M  V30 703 C 68.1645 -0.918775 -1.64135 0
M  V30 704 O 67.5225 0.119006 -1.80909 0
M  V30 705 C 67.5705 -3.35609 -1.31905 0
M  V30 706 O 66.6745 -3.3287 -2.43457 0
M  V30 707 H 66.0155 -0.64211 -0.169086 0
M  V30 708 H 68.5455 -2.04318 0.107399 0
M  V30 709 H 68.5555 -3.72126 -1.67291 0
M  V30 710 H 67.2305 -4.11685 -0.590586 0
M  V30 711 H 65.8075 -3.08087 -2.10088 0
M  V30 712 N 67.9926 0.231505 -1.5589 0
M  V30 713 C 69.2416 0.955346 -1.7764 0
M  V30 714 C 69.5546 1.85893 -0.608546 0
M  V30 715 O 70.7606 2.62067 -0.70943 0
M  V30 716 C 69.2166 1.74886 -3.14552 0
M  V30 717 C 68.8246 0.891915 -4.39032 0
M  V30 718 C 70.5686 2.46452 -3.45633 0
M  V30 719 C 68.4756 1.68221 -5.66971 0
M  V30 720 H 67.4056 0.360446 -0.662265 0
M  V30 721 H 70.0566 0.209516 -1.823 0
M  V30 722 H 68.4386 2.53723 -3.04041 0
M  V30 723 H 69.6126 0.144793 -4.60572 0
M  V30 724 H 67.9276 0.288863 -4.15397 0
M  V30 725 H 70.5246 3.06061 -4.38441 0
M  V30 726 H 70.8676 3.18841 -2.67668 0
M  V30 727 H 71.4006 1.74613 -3.57428 0
M  V30 728 H 68.1396 1.00178 -6.478 0
M  V30 729 H 67.6596 2.4042 -5.49507 0
M  V30 730 H 69.3386 2.24544 -6.06786 0
M  V30 731 N 69.4707 1.49531 0.497807 0
M  V30 732 C 70.6987 1.62893 1.27567 0
M  V30 733 C 71.1137 0.301585 1.86376 0
M  V30 734 O 70.4707 -0.713335 1.67982 0
M  V30 735 C 70.5217 2.70013 2.40364 0
M  V30 736 O 70.2427 3.976 1.83972 0
M  V30 737 C 71.7437 2.94109 3.31685 0
M  V30 738 H 68.9637 0.548298 0.386794 0
M  V30 739 H 71.5077 1.95584 0.597245 0
M  V30 740 H 69.6627 2.40092 3.04031 0
M  V30 741 H 70.0767 4.56631 2.58047 0
M  V30 742 H 71.5507 3.72788 4.07104 0
M  V30 743 H 72.0277 2.04147 3.88871 0
M  V30 744 H 72.6337 3.2546 2.73781 0
M  V30 745 N 70.9488 -0.749086 1.3866 0
M  V30 746 C 72.1738 -1.54344 1.38538 0
M  V30 747 C 72.5988 -1.88088 -0.0216655 0
M  V30 748 O 71.9568 -1.50899 -1.00494 0
M  V30 749 C 72.0048 -2.8164 2.25192 0
M  V30 750 O 71.1088 -3.7698 1.67212 0
M  V30 751 H 70.4498 -0.466654 0.472367 0
M  V30 752 H 72.9798 -0.925355 1.82478 0
M  V30 753 H 72.9898 -3.30519 2.3921 0
M  V30 754 H 71.6648 -2.56411 3.27454 0
M  V30 755 H 70.2418 -3.35699 1.6236 0
M  V30 756 N 72.4269 -1.23603 -0.977757 0
M  V30 757 C 73.3899 -1.02069 -2.05218 0
M  V30 758 C 74.3899 0.0184305 -1.60789 0
M  V30 759 O 75.5799 -0.221569 -1.72785 0
M  V30 760 C 72.7119 -0.544926 -3.36517 0
M  V30 761 H 73.9049 -1.9742 -2.25755 0
M  V30 762 H 71.4579 -1.05684 -1.15155 0
M  V30 763 H 72.1929 0.412241 -3.21669 0
M  V30 764 H 71.9779 -1.2948 -3.70105 0
M  V30 765 H 73.4679 -0.414985 -4.15533 0
M  V30 766 N 73.905 1.17692 -1.04816 0
M  V30 767 C 75.133 1.91786 -0.776254 0
M  V30 768 C 75.548 1.76604 0.667577 0
M  V30 769 O 74.905 1.10067 1.45573 0
M  V30 770 C 74.956 3.42967 -1.14263 0
M  V30 771 O 74.677 3.57678 -2.52978 0
M  V30 772 C 76.178 4.34144 -0.896311 0
M  V30 773 H 73.398 0.608624 -0.282519 0
M  V30 774 H 75.942 1.49268 -1.39783 0
M  V30 775 H 74.097 3.83245 -0.565874 0
M  V30 776 H 74.511 4.51319 -2.67229 0
M  V30 777 H 75.985 5.38744 -1.20244 0
M  V30 778 H 76.462 4.38876 0.168636 0
M  V30 779 H 77.068 3.99574 -1.45672 0
M  V30 780 N 75.3831 0.828654 1.34056 0
M  V30 781 C 76.6601 0.341809 1.9259 0
M  V30 782 C 77.0401 -1.17158 1.75605 0
M  V30 783 O 76.3881 -1.98132 1.13824 0
M  V30 784 C 76.5981 0.777453 3.4023 0
M  V30 785 C 77.9461 0.779579 4.17382 0
M  V30 786 O 78.9701 0.7204 3.48839 0
M  V30 787 O 77.8291 0.857996 5.39723 0
M  V30 788 H 74.9231 0.0946085 0.821571 0
M  V30 789 H 77.4691 0.913827 1.42994 0
M  V30 790 H 76.2411 1.8196 3.46419 0
M  V30 791 H 75.8641 0.181444 3.97186 0
M  V30 792 N 76.8612 -1.46375 0.584142 0
M  V30 793 C 77.7712 -2.34115 -0.150728 0
M  V30 794 C 78.7872 -1.49838 -0.884567 0
M  V30 795 O 79.9632 -1.82704 -0.847429 0
M  V30 796 C 77.0282 -3.2705 -1.15062 0
M  V30 797 C 76.0892 -4.27228 -0.421293 0
M  V30 798 C 75.3222 -5.15722 -1.37355 0
M  V30 799 O 75.5452 -5.07176 -2.61014 0
M  V30 800 O 74.4792 -5.95383 -0.883355 0
M  V30 801 H 78.3052 -2.98309 0.569708 0
M  V30 802 H 75.8902 -1.45373 0.344535 0
M  V30 803 H 77.7722 -3.84381 -1.72712 0
M  V30 804 H 76.4472 -2.65451 -1.8525 0
M  V30 805 H 75.3542 -3.7358 0.197085 0
M  V30 806 H 76.6872 -4.91616 0.239641 0
M  V30 807 N 78.3393 -0.321999 -1.54275 0
M  V30 808 C 79.2713 0.578671 -2.21775 0
M  V30 809 C 80.2843 1.08109 -1.21722 0
M  V30 810 O 81.4733 0.994938 -1.482 0
M  V30 811 C 78.5733 1.80661 -2.86731 0
M  V30 812 C 77.7463 1.44314 -4.12907 0
M  V30 813 C 76.8053 2.52845 -4.61472 0
M  V30 814 O 75.8313 2.17054 -5.2619 0
M  V30 815 N 77.0333 3.83748 -4.35566 0
M  V30 816 H 79.7983 0.000709447 -2.997 0
M  V30 817 H 77.3593 -0.145132 -1.61248 0
M  V30 818 H 79.3513 2.52655 -3.16145 0
M  V30 819 H 77.9213 2.29245 -2.12521 0
M  V30 820 H 77.1413 0.554906 -3.90275 0
M  V30 821 H 78.4293 1.17598 -4.95023 0
M  V30 822 H 77.8273 4.15625 -3.83761 0
M  V30 823 H 76.3843 4.51977 -4.69638 0
M  V30 824 N 79.8174 1.5752 -0.0501392 0
M  V30 825 C 81.2284 1.80271 0.485705 0
M  V30 826 C 81.5794 0.96228 1.70981 0
M  V30 827 O 80.7044 0.178578 2.15662 0
M  V30 828 C 81.2994 3.26957 0.887938 0
M  V30 829 C 79.8584 3.5063 1.36877 0
M  V30 830 C 79.0054 2.75165 0.343468 0
M  V30 831 H 81.9564 1.56281 -0.276028 0
M  V30 832 H 81.9774 3.37821 1.75093 0
M  V30 833 H 81.4894 3.881 -0.0031809 0
M  V30 834 H 79.5904 2.94766 2.27911 0
M  V30 835 H 79.7034 4.59343 1.36164 0
M  V30 836 H 78.0674 2.4127 0.816128 0
M  V30 837 H 78.8504 3.39034 -0.539548 0
M  V30 838 N 81.2955 -0.223234 1.56011 0
M  V30 839 C 82.2455 -1.28008 1.88674 0
M  V30 840 C 83.2295 -1.42369 0.749663 0
M  V30 841 O 84.4215 -1.45212 1.01205 0
M  V30 842 C 81.5505 -2.63084 2.20548 0
M  V30 843 C 80.6365 -2.52632 3.40643 0
M  V30 844 N 81.0275 -2.11829 4.59306 0
M  V30 845 C 79.3255 -2.83594 3.44224 0
M  V30 846 C 80.0265 -2.12587 5.41463 0
M  V30 847 N 79.0025 -2.5301 4.81131 0
M  V30 848 H 82.8045 -0.955487 2.77935 0
M  V30 849 H 80.3185 -0.431801 1.56554 0
M  V30 850 H 82.3155 -3.39385 2.42122 0
M  V30 851 H 80.9755 -2.96391 1.32599 0
M  V30 852 H 81.9865 -1.82988 4.84496 0
M  V30 853 H 78.6635 -3.21284 2.66614 0
M  V30 854 H 80.0535 -1.83179 6.46448 0
M  V30 855 N 82.7736 -1.49793 -0.48987 0
M  V30 856 C 84.0226 -1.59085 -1.23995 0
M  V30 857 C 84.3356 -0.287907 -1.9347 0
M  V30 858 O 85.5416 -0.259506 -2.70257 0
M  V30 859 C 83.9976 -2.80736 -2.252 0
M  V30 860 C 83.6056 -4.17833 -1.61614 0
M  V30 861 C 85.3496 -2.99364 -3.00967 0
M  V30 862 C 83.2566 -5.30693 -2.60996 0
M  V30 863 H 82.1866 -0.592372 -0.466488 0
M  V30 864 H 84.8376 -1.76197 -0.51252 0
M  V30 865 H 83.2196 -2.57142 -3.01154 0
M  V30 866 H 84.3936 -4.51608 -0.915774 0
M  V30 867 H 82.7086 -4.04656 -0.981977 0
M  V30 868 H 85.3056 -3.80851 -3.75308 0
M  V30 869 H 85.6486 -2.10356 -3.59244 0
M  V30 870 H 86.1816 -3.2305 -2.32128 0
M  V30 871 H 82.9206 -6.21796 -2.07485 0
M  V30 872 H 82.4406 -5.01359 -3.2924 0
M  V30 873 H 84.1196 -5.6049 -3.23202 0
M  V30 874 N 84.2517 0.741722 -1.39055 0
M  V30 875 C 85.4997 1.49818 -1.35643 0
M  V30 876 C 85.8207 1.94938 0.0491642 0
M  V30 877 O 85.0907 1.68505 0.999141 0
M  V30 878 H 83.6707 0.555755 -0.499144 0
M  V30 879 H 86.3327 0.880957 -1.73854 0
M  V30 880 H 85.4287 2.38348 -2.01486 0
M  V30 881 N 85.7298 1.2412 0.971189 0
M  V30 882 C 86.6778 1.02812 2.08644 0
M  V30 883 C 87.6718 -0.0358403 1.69362 0
M  V30 884 O 88.8778 0.118429 1.7961 0
M  V30 885 H 85.2528 0.315428 0.682649 0
M  V30 886 H 87.2238 1.97397 2.23779 0
M  V30 887 C 85.9728 0.645874 3.41649 0
M  V30 888 H 85.2958 1.45632 3.72332 0
M  V30 889 H 86.7358 0.536366 4.20594 0
M  V30 890 C 85.1948 -0.646713 3.30635 0
M  V30 891 O 85.7248 -1.69338 3.64263 0
M  V30 892 N 83.9308 -0.626115 2.83775 0
M  V30 893 H 83.4778 0.225988 2.56607 0
M  V30 894 H 83.4358 -1.49117 2.76788 0
M  V30 895 N 87.2079 -1.17134 1.05439 0
M  V30 896 C 88.4379 -1.91094 0.785274 0
M  V30 897 C 88.8459 -1.77198 -0.663142 0
M  V30 898 O 88.1889 -1.10835 -1.46497 0
M  V30 899 C 88.2509 -3.42594 1.08949 0
M  V30 900 C 87.9149 -3.80274 2.53458 0
M  V30 901 C 88.9119 -3.82912 3.51673 0
M  V30 902 C 86.5969 -4.11162 2.88532 0
M  V30 903 C 88.5909 -4.15913 4.83006 0
M  V30 904 C 86.2779 -4.43831 4.20068 0
M  V30 905 C 87.2759 -4.46185 5.17115 0
M  V30 906 O 86.9639 -4.78083 6.46291 0
M  V30 907 H 86.6959 -0.613073 0.284811 0
M  V30 908 H 89.2499 -1.49461 1.40893 0
M  V30 909 H 87.4799 -3.84534 0.408741 0
M  V30 910 H 89.1689 -3.97817 0.805991 0
M  V30 911 H 89.9349 -3.5917 3.25917 0
M  V30 912 H 85.8139 -4.085 2.13656 0
M  V30 913 H 89.3579 -4.17665 5.5875 0
M  V30 914 H 85.2549 -4.67037 4.45586 0
M  V30 915 H 86.0229 -4.9593 6.51149 0
M  V30 916 N 88.686 -0.835752 -1.33615 0
M  V30 917 C 90.102 -0.523139 -1.50783 0
M  V30 918 C 90.302 0.950171 -1.77691 0
M  V30 919 O 89.358 1.73411 -1.83534 0
M  V30 920 C 90.671 -1.39378 -2.66448 0
M  V30 921 C 92.219 -1.39223 -2.80332 0
M  V30 922 C 92.694 -2.24765 -3.99055 0
M  V30 923 N 94.185 -2.22458 -4.06284 0
M  V30 924 C 94.92 -2.85386 -4.97336 0
M  V30 925 N 94.416 -3.57354 -5.93523 0
M  V30 926 N 96.209 -2.74872 -4.90308 0
M  V30 927 H 88.36 -1.78952 -1.14411 0
M  V30 928 H 90.623 -0.763297 -0.562212 0
M  V30 929 H 90.329 -2.44061 -2.53234 0
M  V30 930 H 90.203 -1.0676 -3.61776 0
M  V30 931 H 92.59 -0.353136 -2.92979 0
M  V30 932 H 92.671 -1.75846 -1.85773 0
M  V30 933 H 92.315 -3.28732 -3.87167 0
M  V30 934 H 92.245 -1.85485 -4.92852 0
M  V30 935 H 94.736 -1.70119 -3.37443 0
M  V30 936 H 95.049 -4.02584 -6.59656 0
M  V30 937 H 93.394 -3.61461 -5.93608 0
M  V30 938 H 96.585 -2.18213 -4.14126 0
M  V30 939 H 96.758 -3.24199 -5.61069 0
M  V30 940 N 90.1641 1.46063 -0.591896 0
M  V30 941 C 91.0941 2.33172 0.123673 0
M  V30 942 C 92.0751 1.45897 0.87453 0
M  V30 943 O 93.2601 1.74698 0.848181 0
M  V30 944 C 90.3901 3.28336 1.13194 0
M  V30 945 C 89.3441 4.25124 0.495324 0
M  V30 946 C 88.6701 5.09863 1.61071 0
M  V30 947 C 89.9701 5.19143 -0.573425 0
M  V30 948 H 91.6641 2.93252 -0.603646 0
M  V30 949 H 89.2101 1.41014 -0.291741 0
M  V30 950 H 91.1631 3.88137 1.64097 0
M  V30 951 H 89.8871 2.66383 1.88965 0
M  V30 952 H 88.5461 3.66599 0.00729452 0
M  V30 953 H 88.1941 4.44288 2.35832 0
M  V30 954 H 87.8941 5.75417 1.19035 0
M  V30 955 H 89.4181 5.72529 2.12233 0
M  V30 956 H 90.8321 5.73106 -0.1491 0
M  V30 957 H 89.2291 5.93089 -0.914636 0
M  V30 958 H 90.2991 4.62519 -1.45617 0
M  V30 959 N 91.6422 0.330177 1.54103 0
M  V30 960 C 92.5742 -0.566902 2.22079 0
M  V30 961 C 93.5872 -1.07462 1.22294 0
M  V30 962 O 94.7762 -0.987065 1.48726 0
M  V30 963 C 91.8762 -1.79138 2.87685 0
M  V30 964 C 91.0492 -1.42123 4.13666 0
M  V30 965 C 90.1082 -2.50394 4.62806 0
M  V30 966 O 89.1342 -2.14261 5.27334 0
M  V30 967 N 90.3362 -3.81433 4.37595 0
M  V30 968 H 93.1012 0.0151844 2.99696 0
M  V30 969 H 90.6622 0.153681 1.61169 0
M  V30 970 H 92.6542 -2.50975 3.1748 0
M  V30 971 H 91.2242 -2.28115 2.13734 0
M  V30 972 H 90.4442 -0.534201 3.90564 0
M  V30 973 H 91.7322 -1.14971 4.9564 0
M  V30 974 H 91.1302 -4.13584 3.8596 0
M  V30 975 H 89.6872 -4.4948 4.72029 0
M  V30 976 N 93.1203 -1.57491 0.0584922 0
M  V30 977 C 94.0673 -2.11958 -0.913376 0
M  V30 978 C 95.0373 -1.02875 -1.30407 0
M  V30 979 O 96.2223 -1.30464 -1.39226 0
M  V30 980 C 93.3623 -2.67497 -2.18035 0
M  V30 981 C 92.4753 -3.90691 -1.84349 0
M  V30 982 C 91.6103 -4.3452 -3.05559 0
M  V30 983 C 90.6493 -5.50395 -2.67827 0
M  V30 984 N 89.7863 -5.89244 -3.81754 0
M  V30 985 H 94.6263 -2.94704 -0.442017 0
M  V30 986 H 92.1633 -1.45643 -0.206545 0
M  V30 987 H 94.1213 -2.978 -2.92183 0
M  V30 988 H 92.7513 -1.87537 -2.62735 0
M  V30 989 H 91.8033 -3.66934 -1.00319 0
M  V30 990 H 93.1153 -4.7489 -1.5258 0
M  V30 991 H 92.2693 -4.66414 -3.87998 0
M  V30 992 H 91.0083 -3.49147 -3.40511 0
M  V30 993 H 90.0133 -5.18165 -1.83806 0
M  V30 994 H 91.2383 -6.3749 -2.34059 0
M  V30 995 H 89.1843 -5.06823 -4.16493 0
M  V30 996 H 89.1013 -6.68151 -3.53708 0
M  V30 997 H 90.3693 -6.25756 -4.64811 0
M  V30 998 N 94.5984 0.214957 -1.56127 0
M  V30 999 C 95.8264 0.955092 -1.83536 0
M  V30 1000 C 96.2414 1.77677 -0.638472 0
M  V30 1001 O 95.5984 1.78219 0.392968 0
M  V30 1002 C 95.6494 1.86734 -3.09536 0
M  V30 1003 O 95.3704 1.07887 -4.24608 0
M  V30 1004 C 96.8714 2.72082 -3.4998 0
M  V30 1005 H 94.0914 0.279611 -0.609966 0
M  V30 1006 H 96.6354 0.228197 -2.03223 0
M  V30 1007 H 94.7904 2.5481 -2.91806 0
M  V30 1008 H 95.2044 1.69872 -4.9623 0
M  V30 1009 H 96.6784 3.31782 -4.41163 0
M  V30 1010 H 97.1554 3.44806 -2.7204 0
M  V30 1011 H 97.7614 2.09409 -3.70173 0
M  V30 1012 N 96.0765 1.50051 0.48192 0
M  V30 1013 C 97.3255 1.59741 1.23149 0
M  V30 1014 C 97.6385 0.298163 1.93314 0
M  V30 1015 O 98.8445 0.273835 2.70116 0
M  V30 1016 C 97.3005 2.81926 2.23708 0
M  V30 1017 C 96.9085 4.18685 1.59396 0
M  V30 1018 C 98.6525 3.00956 2.99375 0
M  V30 1019 C 96.5595 5.3207 2.58178 0
M  V30 1020 H 95.4895 0.594838 0.46334 0
M  V30 1021 H 98.1405 1.76467 0.503169 0
M  V30 1022 H 96.5225 2.58736 2.99786 0
M  V30 1023 H 97.6965 4.52088 0.891811 0
M  V30 1024 H 96.0115 4.05171 0.960503 0
M  V30 1025 H 98.6085 3.82836 3.73283 0
M  V30 1026 H 98.9515 2.12258 3.58123 0
M  V30 1027 H 99.4845 3.24277 2.30411 0
M  V30 1028 H 96.2235 6.22888 2.04184 0
M  V30 1029 H 95.7435 5.03098 3.26577 0
M  V30 1030 H 97.4225 5.62196 3.20225 0
M  V30 1031 N 97.5546 -0.734337 1.39446 0
M  V30 1032 C 98.8026 -1.49096 1.36436 0
M  V30 1033 C 99.1236 -1.94961 -0.0388255 0
M  V30 1034 O 98.3936 -1.69033 -0.990191 0
M  V30 1035 H 96.9736 -0.5531 0.502085 0
M  V30 1036 H 99.6356 -0.871725 1.74319 0
M  V30 1037 H 98.7316 -2.37276 2.02747 0
M  V30 1038 N 99.0327 -1.24633 -0.964593 0
M  V30 1039 C 99.9797 -1.04144 -2.05968 0
M  V30 1040 C 100.95 0.046262 -1.66036 0
M  V30 1041 O 102.135 -0.108972 -1.90489 0
M  V30 1042 C 99.2747 -0.65563 -3.38815 0
M  V30 1043 C 98.3877 -1.81714 -3.91923 0
M  V30 1044 C 97.5227 -1.37662 -5.13052 0
M  V30 1045 C 96.5617 -2.50788 -5.58365 0
M  V30 1046 N 95.6987 -2.07582 -6.70712 0
M  V30 1047 H 100.539 -1.9787 -2.22827 0
M  V30 1048 H 98.0757 -0.9855 -1.09208 0
M  V30 1049 H 100.034 -0.412954 -4.15151 0
M  V30 1050 H 98.6637 0.244627 -3.21872 0
M  V30 1051 H 97.7157 -2.1734 -3.12198 0
M  V30 1052 H 99.0277 -2.66705 -4.21509 0
M  V30 1053 H 98.1817 -1.093 -5.96773 0
M  V30 1054 H 96.9207 -0.497293 -4.85158 0
M  V30 1055 H 95.9257 -2.79906 -4.73215 0
M  V30 1056 H 97.1507 -3.39283 -5.88272 0
M  V30 1057 H 95.0967 -1.22051 -6.44546 0
M  V30 1058 H 95.0137 -2.86125 -6.99763 0
M  V30 1059 H 96.2817 -1.82369 -7.57867 0
M  V30 1060 N 100.511 1.16574 -1.06058 0
M  V30 1061 C 101.759 1.86677 -0.77434 0
M  V30 1062 C 102.08 1.81959 0.701147 0
M  V30 1063 O 101.35 1.2515 1.50713 0
M  V30 1064 H 99.9298 0.691134 -0.283449 0
M  V30 1065 H 102.592 1.41378 -1.34158 0
M  V30 1066 H 101.688 2.92181 -1.09711 0
M  V30 1067 N 101.989 0.842826 1.3317 0
M  V30 1068 C 102.937 0.267495 2.31057 0
M  V30 1069 C 103.931 -0.602682 1.58316 0
M  V30 1070 O 105.137 -0.491803 1.73151 0
M  V30 1071 H 101.512 0.0677813 0.748939 0
M  V30 1072 H 103.483 1.10754 2.77085 0
M  V30 1073 C 102.232 -0.539331 3.43492 0
M  V30 1074 H 101.555 0.12095 3.99617 0
M  V30 1075 H 102.995 -0.90767 4.14171 0
M  V30 1076 C 101.454 -1.71981 2.89697 0
M  V30 1077 O 101.984 -2.81862 2.86211 0
M  V30 1078 N 100.19 -1.54299 2.46252 0
M  V30 1079 H 99.7369 -0.649143 2.49287 0
M  V30 1080 H 99.6949 -2.33431 2.10612 0
M  V30 1081 N 103.467 -1.45747 0.599634 0
M  V30 1082 C 104.714 -2.02292 0.0917284 0
M  V30 1083 C 105.042 -1.46906 -1.27472 0
M  V30 1084 O 104.297 -0.630652 -1.8526 0
M  V30 1085 C 104.596 -3.57399 -0.00602758 0
M  V30 1086 C 104.262 -4.31902 1.29503 0
M  V30 1087 C 102.924 -4.51974 1.65144 0
M  V30 1088 C 105.276 -4.74551 2.15525 0
M  V30 1089 C 102.604 -5.11949 2.86574 0
M  V30 1090 C 104.956 -5.35868 3.36196 0
M  V30 1091 C 103.62 -5.54165 3.72099 0
M  V30 1092 H 102.89 -0.740239 0.0335658 0
M  V30 1093 H 105.537 -1.7491 0.779661 0
M  V30 1094 H 103.842 -3.84014 -0.777183 0
M  V30 1095 H 105.539 -3.98846 -0.415038 0
M  V30 1096 H 102.129 -4.16588 1.00761 0
M  V30 1097 H 106.313 -4.58784 1.8929 0
M  V30 1098 H 101.569 -5.24305 3.14507 0
M  V30 1099 H 105.743 -5.6787 4.03109 0
M  V30 1100 H 103.37 -6.00406 4.6628 0
M  V30 1101 N 104.945 -0.338344 -1.53925 0
M  V30 1102 C 105.908 0.508299 -2.23493 0
M  V30 1103 C 106.908 1.03175 -1.23335 0
M  V30 1104 O 108.098 0.921826 -1.47811 0
M  V30 1105 C 105.23 1.70754 -2.95052 0
M  V30 1106 H 106.423 -0.100058 -2.99733 0
M  V30 1107 H 103.976 -0.0896198 -1.56043 0
M  V30 1108 H 104.711 2.35474 -2.22986 0
M  V30 1109 H 104.496 1.33946 -3.68512 0
M  V30 1110 H 105.986 2.30818 -3.48013 0
M  V30 1111 N 106.423 1.57458 -0.0668435 0
M  V30 1112 C 107.37 2.12439 0.902122 0
M  V30 1113 C 108.34 1.03565 1.2986 0
M  V30 1114 O 109.525 1.312 1.38532 0
M  V30 1115 C 106.665 2.6865 2.16614 0
M  V30 1116 C 105.778 3.91663 1.82274 0
M  V30 1117 C 104.913 4.36134 3.0325 0
M  V30 1118 C 103.952 5.51808 2.64904 0
M  V30 1119 N 103.089 5.9126 3.78624 0
M  V30 1120 H 107.929 2.94934 0.426382 0
M  V30 1121 H 105.466 1.4575 0.198819 0
M  V30 1122 H 107.424 2.99346 2.90599 0
M  V30 1123 H 106.054 1.88928 2.61737 0
M  V30 1124 H 105.106 3.6746 0.983719 0
M  V30 1125 H 106.418 4.75693 1.50059 0
M  V30 1126 H 105.572 4.68465 3.85519 0
M  V30 1127 H 104.311 3.50948 3.38655 0
M  V30 1128 H 103.316 5.19133 1.81055 0
M  V30 1129 H 104.541 6.38722 2.30675 0
M  V30 1130 H 102.487 5.09024 4.138 0
M  V30 1131 H 102.404 6.70018 3.5016 0
M  V30 1132 H 103.672 6.28212 4.61486 0
M  V30 1133 N 107.901 -0.206675 1.56239 0
M  V30 1134 C 109.147 -0.930218 1.80208 0
M  V30 1135 C 109.48 -1.83387 0.638981 0
M  V30 1136 O 108.755 -1.91119 -0.361066 0
M  V30 1137 C 109.038 -1.75641 3.1436 0
M  V30 1138 C 108.891 -0.878257 4.41142 0
M  V30 1139 C 110.21 -2.73129 3.45092 0
M  V30 1140 H 107.329 -0.336742 0.655571 0
M  V30 1141 H 109.971 -0.198222 1.88963 0
M  V30 1142 H 108.121 -2.38048 3.07027 0
M  V30 1143 H 109.793 -0.269787 4.6051 0
M  V30 1144 H 108.036 -0.184385 4.33408 0
M  V30 1145 H 108.707 -1.49106 5.3148 0
M  V30 1146 H 111.183 -2.20856 3.52649 0
M  V30 1147 H 110.059 -3.28028 4.40101 0
M  V30 1148 H 110.32 -3.51606 2.68003 0
M  V30 1149 N 109.379 -1.50304 -0.473955 0
M  V30 1150 C 110.326 -1.68959 -1.57231 0
M  V30 1151 C 111.296 -0.530899 -1.57387 0
M  V30 1152 O 112.481 -0.761133 -1.74961 0
M  V30 1153 C 109.621 -1.7871 -2.95223 0
M  V30 1154 C 108.734 -3.06061 -3.04878 0
M  V30 1155 C 107.869 -3.06626 -4.33767 0
M  V30 1156 C 106.908 -4.28443 -4.37154 0
M  V30 1157 N 106.045 -4.26763 -5.5751 0
M  V30 1158 H 110.885 -2.6273 -1.40631 0
M  V30 1159 H 108.422 -1.30241 -0.683789 0
M  V30 1160 H 110.38 -1.82344 -3.75242 0
M  V30 1161 H 109.01 -0.883806 -3.10465 0
M  V30 1162 H 108.062 -3.11911 -2.17751 0
M  V30 1163 H 109.374 -3.96039 -3.0324 0
M  V30 1164 H 108.528 -3.08973 -5.22131 0
M  V30 1165 H 107.267 -2.14473 -4.3801 0
M  V30 1166 H 106.272 -4.2631 -3.47188 0
M  V30 1167 H 107.497 -5.2182 -4.34605 0
M  V30 1168 H 105.443 -3.37462 -5.62544 0
M  V30 1169 H 105.36 -5.10507 -5.57601 0
M  V30 1170 H 106.628 -4.33253 -6.48006 0
M  V30 1171 N 110.857 0.726932 -1.39834 0
M  V30 1172 C 111.787 1.85405 -1.41941 0
M  V30 1173 C 112.768 1.67751 -0.281728 0
M  V30 1174 O 113.953 1.8795 -0.488717 0
M  V30 1175 C 111.083 3.23243 -1.2701 0
M  V30 1176 C 110.037 3.55549 -2.38262 0
M  V30 1177 C 109.363 4.9241 -2.08415 0
M  V30 1178 C 110.663 3.577 -3.80589 0
M  V30 1179 H 112.357 1.83899 -2.36266 0
M  V30 1180 H 109.903 0.883349 -1.13723 0
M  V30 1181 H 111.856 4.01775 -1.27103 0
M  V30 1182 H 110.58 3.25296 -0.291564 0
M  V30 1183 H 109.239 2.79351 -2.37399 0
M  V30 1184 H 108.887 4.91052 -1.0898 0
M  V30 1185 H 108.587 5.14992 -2.82943 0
M  V30 1186 H 110.111 5.73289 -2.10171 0
M  V30 1187 H 111.525 4.26293 -3.83337 0
M  V30 1188 H 109.922 3.91804 -4.54543 0
M  V30 1189 H 110.992 2.57328 -4.10987 0
M  V30 1190 N 112.336 1.25143 0.95797 0
M  V30 1191 C 113.299 1.05321 2.03569 0
M  V30 1192 C 114.299 0.007152 1.60798 0
M  V30 1193 O 115.489 0.24903 1.72411 0
M  V30 1194 C 112.621 0.598394 3.35607 0
M  V30 1195 H 113.814 2.00986 2.22586 0
M  V30 1196 H 111.367 1.07502 1.13459 0
M  V30 1197 H 112.102 -0.361014 3.22284 0
M  V30 1198 H 111.887 1.35351 3.67998 0
M  V30 1199 H 113.377 0.48104 4.1482 0
M  V30 1200 N 113.814 -1.1601 1.06675 0
M  V30 1201 C 115.23 -1.38622 0.790948 0
M  V30 1202 C 115.43 -1.92109 -0.607965 0
M  V30 1203 O 114.486 -2.12239 -1.36787 0
M  V30 1204 C 115.799 -2.36347 1.85905 0
M  V30 1205 C 117.347 -2.50023 1.88301 0
M  V30 1206 C 117.822 -3.51033 2.94176 0
M  V30 1207 N 119.313 -3.58563 2.93235 0
M  V30 1208 C 120.048 -4.36521 3.71803 0
M  V30 1209 N 119.544 -5.17869 4.602 0
M  V30 1210 N 121.337 -4.31541 3.60178 0
M  V30 1211 H 113.488 -0.796294 1.96908 0
M  V30 1212 H 115.751 -0.412597 0.853503 0
M  V30 1213 H 115.457 -2.04147 2.86386 0
M  V30 1214 H 115.331 -3.36042 1.71334 0
M  V30 1215 H 117.718 -2.81524 0.884769 0
M  V30 1216 H 117.799 -1.5035 2.06951 0
M  V30 1217 H 117.443 -3.20268 3.94196 0
M  V30 1218 H 117.373 -4.50445 2.72776 0
M  V30 1219 H 119.864 -3.00496 2.29152 0
M  V30 1220 H 120.177 -5.74578 5.16797 0
M  V30 1221 H 118.522 -5.17199 4.64253 0
M  V30 1222 H 121.713 -3.67051 2.90502 0
M  V30 1223 H 121.886 -4.9205 4.21653 0
M  V30 1224 N 115.292 -0.849877 -1.32721 0
M  V30 1225 C 116.242 -0.262892 -2.26479 0
M  V30 1226 C 117.226 0.588493 -1.49752 0
M  V30 1227 O 118.418 0.438659 -1.71478 0
M  V30 1228 C 115.547 0.551818 -3.38836 0
M  V30 1229 C 114.633 -0.311689 -4.22953 0
M  V30 1230 N 115.024 -1.39567 -4.86163 0
M  V30 1231 C 113.322 -0.100611 -4.45887 0
M  V30 1232 C 114.023 -1.92651 -5.48872 0
M  V30 1233 N 112.999 -1.22637 -5.29586 0
M  V30 1234 H 116.801 -1.09166 -2.72873 0
M  V30 1235 H 114.315 -0.695486 -1.46754 0
M  V30 1236 H 116.312 0.988713 -4.05006 0
M  V30 1237 H 114.972 1.37844 -2.93988 0
M  V30 1238 H 115.983 -1.77859 -4.86402 0
M  V30 1239 H 112.66 0.691681 -4.11731 0
M  V30 1240 H 114.05 -2.83487 -6.09167 0
M  V30 1241 N 116.77 1.45427 -0.607355 0
M  V30 1242 C 118.016 2.0254 -0.102607 0
M  V30 1243 C 118.349 1.47478 1.26348 0
M  V30 1244 O 117.624 0.64939 1.83339 0
M  V30 1245 C 117.907 3.60044 -0.0634347 0
M  V30 1246 C 117.76 4.2544 -1.46017 0
M  V30 1247 C 119.079 4.35646 0.624514 0
M  V30 1248 H 116.198 0.73598 -0.0387607 0
M  V30 1249 H 118.84 1.73284 -0.779282 0
M  V30 1250 H 116.99 3.85101 0.512808 0
M  V30 1251 H 118.662 4.11569 -2.08347 0
M  V30 1252 H 116.905 3.83849 -2.02094 0
M  V30 1253 H 117.576 5.34342 -1.385 0
M  V30 1254 H 120.052 4.15882 0.134723 0
M  V30 1255 H 118.928 5.45376 0.621028 0
M  V30 1256 H 119.189 4.08501 1.69055 0
M  V30 1257 N 118.248 0.346503 1.53744 0
M  V30 1258 C 119.178 -0.501193 2.28058 0
M  V30 1259 C 120.159 -1.10014 1.29734 0
M  V30 1260 O 121.344 -1.12097 1.58581 0
M  V30 1261 C 118.474 -1.65078 3.05559 0
M  V30 1262 C 117.428 -1.18003 4.11411 0
M  V30 1263 C 116.754 -2.41837 4.76884 0
M  V30 1264 C 118.054 -0.278394 5.21558 0
M  V30 1265 H 119.748 0.11875 2.99164 0
M  V30 1266 H 117.294 0.0585531 1.43881 0
M  V30 1267 H 119.247 -2.25028 3.56287 0
M  V30 1268 H 117.971 -2.29767 2.32109 0
M  V30 1269 H 116.63 -0.603331 3.61601 0
M  V30 1270 H 116.278 -3.0494 4.00026 0
M  V30 1271 H 115.978 -2.1102 5.48402 0
M  V30 1272 H 117.502 -3.02508 5.30397 0
M  V30 1273 H 118.916 -0.784823 5.67903 0
M  V30 1274 H 117.313 -0.0619707 6.00068 0
M  V30 1275 H 118.383 0.684677 4.80042 0
M  V30 1276 N 119.726 -1.57421 0.075193 0
M  V30 1277 C 120.954 -1.97946 -0.602076 0
M  V30 1278 C 121.369 -0.953674 -1.62943 0
M  V30 1279 O 120.726 0.0592551 -1.82404 0
M  V30 1280 C 120.777 -3.38546 -1.26762 0
M  V30 1281 O 120.498 -4.37195 -0.281376 0
M  V30 1282 C 121.999 -3.93966 -2.03239 0
M  V30 1283 H 119.219 -0.650918 -0.162931 0
M  V30 1284 H 121.763 -2.03959 0.148601 0
M  V30 1285 H 119.918 -3.33609 -1.96936 0
M  V30 1286 H 120.332 -5.18975 -0.759267 0
M  V30 1287 H 121.806 -4.94555 -2.45193 0
M  V30 1288 H 122.283 -3.30693 -2.8903 0
M  V30 1289 H 122.889 -4.02315 -1.37924 0
M  V30 1290 N 121.204 0.198386 -1.56346 0
M  V30 1291 C 122.452 0.91747 -1.80075 0
M  V30 1292 C 122.773 1.83929 -0.647692 0
M  V30 1293 O 122.043 1.93029 0.334166 0
M  V30 1294 H 120.623 0.341774 -0.664228 0
M  V30 1295 H 123.285 0.204684 -1.93822 0
M  V30 1296 H 122.381 1.51055 -2.7311 0
M  V30 1297 N 122.682 1.50554 0.465978 0
M  V30 1298 C 124.098 1.38093 0.800154 0
M  V30 1299 C 124.298 0.440988 1.96615 0
M  V30 1300 O 123.354 -0.114499 2.5224 0
M  V30 1301 C 124.667 2.79565 1.10742 0
M  V30 1302 C 126.215 2.88516 1.21357 0
M  V30 1303 C 126.69 4.30833 1.55393 0
M  V30 1304 N 128.181 4.33807 1.62375 0
M  V30 1305 C 128.916 5.40927 1.90225 0
M  V30 1306 N 128.412 6.58247 2.16062 0
M  V30 1307 N 130.205 5.28376 1.9177 0
M  V30 1308 H 122.356 2.10237 -0.302366 0
M  V30 1309 H 124.619 0.945203 -0.0727746 0
M  V30 1310 H 124.325 3.50208 0.323661 0
M  V30 1311 H 124.199 3.17125 2.04234 0
M  V30 1312 H 126.586 2.1809 1.98799 0
M  V30 1313 H 126.667 2.54492 0.258321 0
M  V30 1314 H 126.311 5.01799 0.784889 0
M  V30 1315 H 126.241 4.62347 2.52076 0
M  V30 1316 H 128.732 3.49212 1.44427 0
M  V30 1317 H 129.045 7.3569 2.36601 0
M  V30 1318 H 127.39 6.61413 2.13444 0
M  V30 1319 H 130.581 4.35715 1.71085 0
M  V30 1320 H 130.754 6.11944 2.13139 0
M  V30 1321 N 124.16 -0.719506 1.40217 0
M  V30 1322 C 125.07 -1.86378 1.42479 0
M  V30 1323 C 126.086 -1.71073 0.317834 0
M  V30 1324 O 127.262 -1.93406 0.561794 0
M  V30 1325 C 124.327 -3.22136 1.28178 0
M  V30 1326 C 123.388 -3.49723 2.48982 0
M  V30 1327 C 122.621 -4.79004 2.35353 0
M  V30 1328 O 122.844 -5.53821 1.36524 0
M  V30 1329 O 121.778 -5.06839 3.2465 0
M  V30 1330 H 125.604 -1.87425 2.38968 0
M  V30 1331 H 123.189 -0.869405 1.21498 0
M  V30 1332 H 125.071 -4.03234 1.22395 0
M  V30 1333 H 123.746 -3.21825 0.347934 0
M  V30 1334 H 122.653 -2.6865 2.60342 0
M  V30 1335 H 123.986 -3.54828 3.41113 0
M  V30 1336 N 125.638 -1.25649 -0.95132 0
M  V30 1337 C 126.884 -1.10757 -1.69884 0
M  V30 1338 C 127.217 0.350061 -1.91019 0
M  V30 1339 O 126.492 1.25783 -1.48354 0
M  V30 1340 C 126.775 -1.86606 -3.07978 0
M  V30 1341 C 126.628 -3.40217 -2.94232 0
M  V30 1342 C 127.947 -1.65182 -4.07925 0
M  V30 1343 H 125.066 -0.40374 -0.616574 0
M  V30 1344 H 127.708 -1.54521 -1.10558 0
M  V30 1345 H 125.858 -1.49409 -3.58621 0
M  V30 1346 H 127.53 -3.87108 -2.50889 0
M  V30 1347 H 125.773 -3.67759 -2.30078 0
M  V30 1348 H 126.444 -3.88505 -3.92133 0
M  V30 1349 H 128.92 -1.9757 -3.66204 0
M  V30 1350 H 127.796 -2.20683 -5.02583 0
M  V30 1351 H 128.057 -0.593933 -4.38092 0
M  V30 1352 N 127.117 1.15442 -1.07289 0
M  V30 1353 C 128.08 2.18358 -0.696591 0
M  V30 1354 C 129.08 1.58637 0.262837 0
M  V30 1355 O 130.27 1.74145 0.0438809 0
M  V30 1356 C 127.402 3.4089 -0.0266151 0
M  V30 1357 H 128.595 2.53162 -1.60776 0
M  V30 1358 H 126.148 1.29893 -0.869342 0
M  V30 1359 H 126.883 3.11653 0.896822 0
M  V30 1360 H 126.668 3.85495 -0.716657 0
M  V30 1361 H 128.158 4.17009 0.222028 0
M  V30 1362 N 128.595 0.856903 1.32268 0
M  V30 1363 C 129.841 0.462069 1.97466 0
M  V30 1364 C 130.174 -0.980298 1.67642 0
M  V30 1365 O 129.449 -1.68824 0.965858 0
M  V30 1366 C 129.732 0.704336 3.53145 0
M  V30 1367 C 129.585 2.19529 3.9259 0
M  V30 1368 C 130.904 0.1622 4.39801 0
M  V30 1369 H 128.023 0.169357 0.717278 0
M  V30 1370 H 130.665 1.07574 1.56614 0
M  V30 1371 H 128.815 0.181999 3.88073 0
M  V30 1372 H 130.487 2.78387 3.67829 0
M  V30 1373 H 128.73 2.67292 3.41668 0
M  V30 1374 H 129.401 2.31549 5.01088 0
M  V30 1375 H 131.877 0.608905 4.11621 0
M  V30 1376 H 130.753 0.361265 5.4771 0
M  V30 1377 H 131.014 -0.935158 4.32096 0
M  V30 1378 N 130.073 -1.45103 0.615059 0
M  V30 1379 C 131.02 -2.30586 -0.0993978 0
M  V30 1380 C 131.99 -1.42544 -0.852669 0
M  V30 1381 O 133.175 -1.71465 -0.836917 0
M  V30 1382 C 130.315 -3.27572 -1.08583 0
M  V30 1383 C 129.428 -4.30717 -0.332656 0
M  V30 1384 C 128.563 -5.14807 -1.30947 0
M  V30 1385 C 127.602 -6.09673 -0.544538 0
M  V30 1386 N 126.739 -6.86517 -1.47101 0
M  V30 1387 H 131.579 -2.91144 0.635542 0
M  V30 1388 H 129.116 -1.4346 0.325206 0
M  V30 1389 H 131.074 -3.82276 -1.67095 0
M  V30 1390 H 129.704 -2.68751 -1.78809 0
M  V30 1391 H 128.756 -3.78615 0.368107 0
M  V30 1392 H 130.068 -4.98102 0.263842 0
M  V30 1393 H 129.222 -5.73948 -1.96643 0
M  V30 1394 H 127.961 -4.47458 -1.9399 0
M  V30 1395 H 126.966 -5.49656 0.126003 0
M  V30 1396 H 128.191 -6.79052 0.080947 0
M  V30 1397 H 126.137 -6.21851 -2.08895 0
M  V30 1398 H 126.054 -7.50281 -0.928137 0
M  V30 1399 H 127.322 -7.50194 -2.11731 0
M  V30 1400 N 131.551 -0.354651 -1.53558 0
M  V30 1401 C 132.8 0.239504 -2.00273 0
M  V30 1402 C 133.113 1.50759 -1.24623 0
M  V30 1403 O 134.319 2.17968 -1.61871 0
M  V30 1404 C 132.775 0.477341 -3.5672 0
M  V30 1405 C 132.383 -0.775488 -4.41237 0
M  V30 1406 C 134.127 1.02975 -4.11821 0
M  V30 1407 C 132.034 -0.507838 -5.89216 0
M  V30 1408 H 130.964 0.0932743 -0.748208 0
M  V30 1409 H 133.615 -0.471701 -1.77334 0
M  V30 1410 H 131.997 1.24953 -3.7577 0
M  V30 1411 H 133.171 -1.54963 -4.33962 0
M  V30 1412 H 131.486 -1.25033 -3.97185 0
M  V30 1413 H 134.083 1.24513 -5.2 0
M  V30 1414 H 134.426 1.98862 -3.65731 0
M  V30 1415 H 134.959 0.317994 -3.96527 0
M  V30 1416 H 131.698 -1.43674 -6.39561 0
M  V30 1417 H 131.218 0.228011 -5.99366 0
M  V30 1418 H 132.897 -0.129238 -6.46871 0
M  V30 1419 N 133.029 1.57378 -0.0835403 0
M  V30 1420 C 134.278 1.93106 0.582498 0
M  V30 1421 C 134.591 0.96651 1.70053 0
M  V30 1422 O 135.797 1.21705 2.42693 0
M  V30 1423 C 134.253 3.43076 1.08751 0
M  V30 1424 C 133.861 4.48 -0.000146404 0
M  V30 1425 C 135.605 3.87785 1.72694 0
M  V30 1426 C 133.512 5.89113 0.519568 0
M  V30 1427 H 132.442 0.720775 0.221358 0
M  V30 1428 H 135.093 1.82821 -0.157675 0
M  V30 1429 H 133.475 3.48474 1.88101 0
M  V30 1430 H 134.649 4.54233 -0.775199 0
M  V30 1431 H 132.964 4.1283 -0.54406 0
M  V30 1432 H 135.561 4.90604 2.1263 0
M  V30 1433 H 135.904 3.25796 2.59158 0
M  V30 1434 H 136.437 3.8504 0.999457 0
M  V30 1435 H 133.176 6.54775 -0.308186 0
M  V30 1436 H 132.696 5.86376 1.26188 0
M  V30 1437 H 134.375 6.39346 0.992237 0
M  V30 1438 N 134.507 -0.190092 1.56449 0
M  V30 1439 C 135.784 -0.935886 1.71757 0
M  V30 1440 C 136.164 -2.01173 0.639726 0
M  V30 1441 O 135.512 -2.25827 -0.348502 0
M  V30 1442 C 135.722 -1.51775 3.1427 0
M  V30 1443 C 137.07 -1.99794 3.74656 0
M  V30 1444 O 138.094 -1.61607 3.1743 0
M  V30 1445 O 136.953 -2.70079 4.751 0
M  V30 1446 H 134.047 -0.439229 0.700719 0
M  V30 1447 H 136.593 -0.179395 1.68749 0
M  V30 1448 H 135.365 -0.742505 3.84191 0
M  V30 1449 H 134.988 -2.33894 3.21527 0
M  V30 1450 N 135.985 -1.50799 -0.457987 0
M  V30 1451 C 136.932 -1.70617 -1.5543 0
M  V30 1452 C 137.902 -0.547562 -1.56815 0
M  V30 1453 O 139.087 -0.779647 -1.74144 0
M  V30 1454 C 136.227 -1.81831 -2.93311 0
M  V30 1455 C 135.34 -3.09278 -3.01615 0
M  V30 1456 C 134.475 -3.11209 -4.30491 0
M  V30 1457 C 133.514 -4.33055 -4.32585 0
M  V30 1458 N 132.651 -4.32652 -5.52952 0
M  V30 1459 H 137.491 -2.64207 -1.37836 0
M  V30 1460 H 135.028 -1.30959 -0.669937 0
M  V30 1461 H 136.986 -1.86314 -3.73287 0
M  V30 1462 H 135.616 -0.916685 -3.0951 0
M  V30 1463 H 134.668 -3.14203 -2.1443 0
M  V30 1464 H 135.98 -3.99233 -2.99022 0
M  V30 1465 H 135.134 -3.14494 -5.18824 0
M  V30 1466 H 133.873 -2.19106 -4.35711 0
M  V30 1467 H 132.878 -4.29969 -3.42647 0
M  V30 1468 H 134.103 -5.264 -4.29046 0
M  V30 1469 H 132.049 -3.43409 -5.58933 0
M  V30 1470 H 131.966 -5.16392 -5.52155 0
M  V30 1471 H 133.234 -4.40101 -6.43375 0
M  V30 1472 N 137.463 0.71206 -1.40597 0
M  V30 1473 C 138.691 1.50111 -1.42388 0
M  V30 1474 C 139.106 1.88784 -0.0245395 0
M  V30 1475 O 138.463 1.55681 0.952351 0
M  V30 1476 C 138.514 2.7742 -2.31776 0
M  V30 1477 O 138.235 2.40382 -3.66262 0
M  V30 1478 C 139.736 3.7129 -2.42196 0
M  V30 1479 H 136.956 0.46314 -0.485533 0
M  V30 1480 H 139.5 0.878068 -1.8469 0
M  V30 1481 H 137.655 3.36001 -1.92827 0
M  V30 1482 H 138.069 3.22324 -4.13772 0
M  V30 1483 H 139.543 4.57448 -3.08943 0
M  V30 1484 H 140.02 4.14641 -1.44809 0
M  V30 1485 H 140.626 3.18619 -2.81712 0
M  V30 1486 N 138.941 1.26152 0.944643 0
M  V30 1487 C 139.873 1.03199 2.04652 0
M  V30 1488 C 140.886 -0.00642356 1.62799 0
M  V30 1489 O 142.075 0.233263 1.76969 0
M  V30 1490 C 139.175 0.540111 3.34568 0
M  V30 1491 C 138.348 1.64697 4.05208 0
M  V30 1492 C 137.407 1.15374 5.13396 0
M  V30 1493 O 136.433 1.85013 5.38293 0
M  V30 1494 N 137.635 0.00031529 5.805 0
M  V30 1495 H 140.4 1.9808 2.2491 0
M  V30 1496 H 137.961 1.17491 1.11389 0
M  V30 1497 H 139.953 0.194401 4.04233 0
M  V30 1498 H 138.523 -0.315021 3.11009 0
M  V30 1499 H 137.743 2.16379 3.29506 0
M  V30 1500 H 139.031 2.3903 4.49157 0
M  V30 1501 H 138.429 -0.581336 5.62705 0
M  V30 1502 H 136.986 -0.286346 6.51171 0
M  V30 1503 N 140.419 -1.14872 1.07899 0
M  V30 1504 C 141.349 -2.2193 0.725887 0
M  V30 1505 C 142.33 -1.67622 -0.28927 0
M  V30 1506 O 143.515 -1.93533 -0.160787 0
M  V30 1507 C 140.645 -3.47061 0.128856 0
M  V30 1508 C 139.599 -4.14363 1.07178 0
M  V30 1509 C 138.925 -5.33636 0.337229 0
M  V30 1510 C 140.225 -4.63492 2.40775 0
M  V30 1511 H 141.919 -2.51724 1.62097 0
M  V30 1512 H 139.465 -1.20991 0.780838 0
M  V30 1513 H 141.418 -4.21199 -0.130147 0
M  V30 1514 H 140.142 -3.16617 -0.80134 0
M  V30 1515 H 138.801 -3.42173 1.3158 0
M  V30 1516 H 138.449 -4.99449 -0.596606 0
M  V30 1517 H 138.149 -5.79609 0.965788 0
M  V30 1518 H 139.673 -6.10539 0.0861567 0
M  V30 1519 H 141.087 -5.2913 2.20669 0
M  V30 1520 H 139.484 -5.20148 2.99276 0
M  V30 1521 H 140.554 -3.78834 3.02676 0
M  V30 1522 N 141.898 -0.863906 -1.31812 0
M  V30 1523 C 142.846 -0.30422 -2.30602 0
M  V30 1524 C 143.84 0.577419 -1.59255 0
M  V30 1525 O 145.046 0.464194 -1.73912 0
M  V30 1526 H 141.421 -0.0796877 -0.747766 0
M  V30 1527 H 143.392 -1.15148 -2.75288 0
M  V30 1528 C 142.141 0.484617 -3.44306 0
M  V30 1529 H 141.464 -0.18451 -3.99374 0
M  V30 1530 H 142.904 0.841664 -4.15562 0
M  V30 1531 C 141.363 1.6735 -2.92396 0
M  V30 1532 O 141.893 2.77273 -2.90659 0
M  V30 1533 N 140.099 1.50362 -2.48676 0
M  V30 1534 H 139.646 0.609402 -2.50288 0
M  V30 1535 H 139.604 2.30051 -2.14299 0
M  V30 1536 N 143.376 1.44774 -0.622745 0
M  V30 1537 C 144.787 1.85546 -0.207226 0
M  V30 1538 C 145.138 1.52093 1.23944 0
M  V30 1539 O 144.263 0.95492 1.94191 0
M  V30 1540 C 144.858 3.36781 -0.369313 0
M  V30 1541 C 143.417 3.76399 -0.00836847 0
M  V30 1542 C 142.564 2.68664 -0.686651 0
M  V30 1543 H 145.515 1.3536 -0.828454 0
M  V30 1544 H 145.536 3.78453 0.394162 0
M  V30 1545 H 145.048 3.61098 -1.42231 0
M  V30 1546 H 143.149 3.57698 1.04322 0
M  V30 1547 H 143.262 4.7732 -0.412584 0
M  V30 1548 H 141.626 2.54404 -0.122777 0
M  V30 1549 H 142.409 2.95815 -1.74208 0
M  V30 1550 N 144.854 0.36279 1.53368 0
M  V30 1551 C 146.082 -0.228613 2.05633 0
M  V30 1552 C 146.497 -1.42676 1.23649 0
M  V30 1553 O 145.854 -1.80394 0.27647 0
M  V30 1554 C 145.905 -0.624845 3.56059 0
M  V30 1555 O 145.626 0.525675 4.34935 0
M  V30 1556 C 147.127 -1.27493 4.24571 0
M  V30 1557 H 144.347 -0.0407183 0.669763 0
M  V30 1558 H 146.891 0.520352 1.97769 0
M  V30 1559 H 145.046 -1.32373 3.64083 0
M  V30 1560 H 145.46 0.205969 5.24095 0
M  V30 1561 H 146.934 -1.50277 5.31151 0
M  V30 1562 H 147.411 -2.23439 3.78116 0
M  V30 1563 H 148.017 -0.617558 4.20792 0
M  V30 1564 N 146.332 -1.57332 0.0918853 0
M  V30 1565 C 147.557 -1.98995 -0.584442 0
M  V30 1566 C 147.982 -0.970528 -1.61128 0
M  V30 1567 O 147.34 0.0613904 -1.81196 0
M  V30 1568 C 147.388 -3.39636 -1.21161 0
M  V30 1569 O 146.492 -3.40447 -2.32744 0
M  V30 1570 H 145.833 -0.647165 -0.148572 0
M  V30 1571 H 148.363 -2.03873 0.172347 0
M  V30 1572 H 148.373 -3.7726 -1.55367 0
M  V30 1573 H 147.048 -4.13356 -0.459313 0
M  V30 1574 H 145.625 -3.14614 -2.0018 0
M  V30 1575 N 147.81 0.181792 -1.56548 0
M  V30 1576 C 148.74 1.22765 -1.98623 0
M  V30 1577 C 149.721 1.46747 -0.860189 0
M  V30 1578 O 150.906 1.58259 -1.12551 0
M  V30 1579 C 148.036 2.56894 -2.33715 0
M  V30 1580 C 146.99 2.475 -3.49182 0
M  V30 1581 C 146.316 3.86023 -3.69986 0
M  V30 1582 C 147.616 1.98866 -4.82959 0
M  V30 1583 H 149.31 0.877942 -2.86239 0
M  V30 1584 H 146.856 0.42088 -1.37712 0
M  V30 1585 H 148.809 3.30253 -2.61746 0
M  V30 1586 H 147.533 2.93632 -1.42997 0
M  V30 1587 H 146.192 1.76596 -3.21262 0
M  V30 1588 H 145.84 4.20136 -2.76576 0
M  V30 1589 H 145.54 3.80609 -4.47672 0
M  V30 1590 H 147.064 4.60984 -4.00407 0
M  V30 1591 H 148.478 2.61992 -5.09934 0
M  V30 1592 H 146.875 2.04424 -5.64208 0
M  V30 1593 H 147.945 0.942465 -4.75653 0
M  V30 1594 N 149.288 1.51039 0.449983 0
M  V30 1595 C 150.22 1.67617 1.56324 0
M  V30 1596 C 151.233 0.557083 1.52972 0
M  V30 1597 O 152.422 0.830989 1.57977 0
M  V30 1598 C 149.522 1.66402 2.95235 0
M  V30 1599 C 148.695 2.9469 3.23229 0
M  V30 1600 C 147.754 2.85832 4.41799 0
M  V30 1601 O 146.78 3.59785 4.41071 0
M  V30 1602 N 147.982 2.00821 5.44657 0
M  V30 1603 H 150.747 2.63648 1.42512 0
M  V30 1604 H 148.308 1.48767 0.638737 0
M  V30 1605 H 150.3 1.58062 3.72557 0
M  V30 1606 H 148.87 0.780182 3.02708 0
M  V30 1607 H 148.09 3.16996 2.34323 0
M  V30 1608 H 149.378 3.79636 3.38754 0
M  V30 1609 H 148.776 1.40091 5.48079 0
M  V30 1610 H 147.333 1.98368 6.20881 0
M  V30 1611 N 150.766 -0.704594 1.40972 0
M  V30 1612 C 151.713 -1.81862 1.42109 0
M  V30 1613 C 152.683 -1.63781 0.276593 0
M  V30 1614 O 153.868 -1.84759 0.4763 0
M  V30 1615 C 151.008 -3.19669 1.30022 0
M  V30 1616 C 150.121 -3.49246 2.54267 0
M  V30 1617 C 149.256 -4.76618 2.3454 0
M  V30 1618 C 148.295 -4.99133 3.54306 0
M  V30 1619 N 147.432 -6.17726 3.33706 0
M  V30 1620 H 152.272 -1.80226 2.37324 0
M  V30 1621 H 149.809 -0.880238 1.17857 0
M  V30 1622 H 151.767 -3.99263 1.21018 0
M  V30 1623 H 150.397 -3.20506 0.384192 0
M  V30 1624 H 149.449 -2.64125 2.73756 0
M  V30 1625 H 150.761 -3.61788 3.43381 0
M  V30 1626 H 149.915 -5.64249 2.22952 0
M  V30 1627 H 148.654 -4.66305 1.42867 0
M  V30 1628 H 147.659 -4.09953 3.66359 0
M  V30 1629 H 148.884 -5.11311 4.4692 0
M  V30 1630 H 146.83 -6.08642 2.44725 0
M  V30 1631 H 146.747 -6.30995 4.16391 0
M  V30 1632 H 148.015 -7.08115 3.25873 0
M  V30 1633 N 152.244 -1.26651 -0.937939 0
M  V30 1634 C 153.174 -1.10993 -2.05433 0
M  V30 1635 C 154.155 -0.0142161 -1.70094 0
M  V30 1636 O 155.34 -0.186837 -1.93299 0
M  V30 1637 C 152.47 -0.745561 -3.39203 0
M  V30 1638 C 151.424 -1.79337 -3.88616 0
M  V30 1639 C 150.75 -1.28324 -5.19073 0
M  V30 1640 C 152.05 -3.19553 -4.13138 0
M  V30 1641 H 153.744 -2.0438 -2.1879 0
M  V30 1642 H 151.29 -0.984041 -1.05131 0
M  V30 1643 H 153.243 -0.622888 -4.16771 0
M  V30 1644 H 151.967 0.22401 -3.25831 0
M  V30 1645 H 150.626 -1.90477 -3.13231 0
M  V30 1646 H 150.274 -0.303414 -5.02084 0
M  V30 1647 H 149.974 -1.98369 -5.53103 0
M  V30 1648 H 151.498 -1.1733 -5.99221 0
M  V30 1649 H 152.912 -3.11471 -4.81309 0
M  V30 1650 H 151.309 -3.87218 -4.58457 0
M  V30 1651 H 152.379 -3.65368 -3.18801 0
M  V30 1652 N 153.722 1.14298 -1.08507 0
M  V30 1653 C 154.969 1.85359 -0.815373 0
M  V30 1654 C 155.297 1.83001 0.658865 0
M  V30 1655 O 154.552 1.25655 1.50031 0
M  V30 1656 C 154.851 3.33547 -1.28379 0
M  V30 1657 C 154.517 3.56093 -2.76602 0
M  V30 1658 C 153.179 3.61955 -3.17084 0
M  V30 1659 C 155.531 3.64834 -3.72217 0
M  V30 1660 C 152.859 3.74082 -4.51973 0
M  V30 1661 C 155.211 3.78487 -5.06883 0
M  V30 1662 C 153.875 3.82598 -5.46969 0
M  V30 1663 H 153.145 0.678276 -0.298366 0
M  V30 1664 H 155.792 1.35002 -1.35819 0
M  V30 1665 H 154.097 3.86191 -0.660593 0
M  V30 1666 H 155.794 3.86959 -1.05186 0
M  V30 1667 H 152.384 3.52179 -2.4427 0
M  V30 1668 H 156.568 3.59595 -3.42061 0
M  V30 1669 H 151.824 3.75527 -4.82483 0
M  V30 1670 H 155.998 3.84193 -5.80834 0
M  V30 1671 H 153.625 3.91747 -6.51489 0
M  V30 1672 N 155.201 0.870884 1.31352 0
M  V30 1673 C 156.617 0.562932 1.49343 0
M  V30 1674 C 156.817 -0.902725 1.80148 0
M  V30 1675 O 155.873 -1.68484 1.88067 0
M  V30 1676 C 157.186 1.46393 2.62659 0
M  V30 1677 C 158.734 1.46607 2.76542 0
M  V30 1678 C 159.209 2.35266 3.92955 0
M  V30 1679 N 160.7 2.33151 4.00243 0
M  V30 1680 C 161.435 2.98471 4.89594 0
M  V30 1681 N 160.931 3.72964 5.8384 0
M  V30 1682 N 162.724 2.87775 4.82848 0
M  V30 1683 H 154.875 1.81923 1.09626 0
M  V30 1684 H 157.138 0.777934 0.541777 0
M  V30 1685 H 156.844 2.50689 2.46674 0
M  V30 1686 H 156.718 1.16314 3.58819 0
M  V30 1687 H 159.105 0.43069 2.9194 0
M  V30 1688 H 159.186 1.8071 1.81046 0
M  V30 1689 H 158.83 3.38881 3.78315 0
M  V30 1690 H 158.76 1.98487 4.87761 0
M  V30 1691 H 161.251 1.79006 3.32814 0
M  V30 1692 H 161.564 4.19932 6.4875 0
M  V30 1693 H 159.909 3.77073 5.83816 0
M  V30 1694 H 163.1 2.29116 4.08195 0
M  V30 1695 H 163.273 3.38961 5.52277 0
M  V30 1696 N 156.679 -1.44442 0.630414 0
M  V30 1697 C 157.589 -2.34476 -0.0761693 0
M  V30 1698 C 158.605 -1.52576 -0.836449 0
M  V30 1699 O 159.781 -1.85307 -0.788874 0
M  V30 1700 C 156.846 -3.30545 -1.04599 0
M  V30 1701 C 155.907 -4.28352 -0.28516 0
M  V30 1702 C 155.14 -5.19831 -1.20878 0
M  V30 1703 O 155.363 -5.15223 -2.44747 0
M  V30 1704 O 154.297 -5.97892 -0.693491 0
M  V30 1705 H 158.123 -2.96345 0.664324 0
M  V30 1706 H 155.708 -1.44203 0.39061 0
M  V30 1707 H 157.59 -3.89681 -1.60396 0
M  V30 1708 H 156.265 -2.7121 -1.76711 0
M  V30 1709 H 155.172 -3.72764 0.315837 0
M  V30 1710 H 156.505 -4.90605 0.395924 0
M  V30 1711 N 158.157 -0.370918 -1.53173 0
M  V30 1712 C 159.403 0.217423 -2.01631 0
M  V30 1713 C 159.736 1.47983 -1.25756 0
M  V30 1714 O 159.011 1.91274 -0.352764 0
M  V30 1715 C 159.294 0.503982 -3.56556 0
M  V30 1716 C 159.147 -0.77243 -4.43118 0
M  V30 1717 C 160.466 1.30234 -4.20389 0
M  V30 1718 H 157.585 0.0775486 -0.732909 0
M  V30 1719 H 160.227 -0.496863 -1.83388 0
M  V30 1720 H 158.377 1.11248 -3.72231 0
M  V30 1721 H 160.049 -1.4098 -4.39229 0
M  V30 1722 H 158.292 -1.39167 -4.10871 0
M  V30 1723 H 158.963 -0.526815 -5.4948 0
M  V30 1724 H 161.439 0.787546 -4.08579 0
M  V30 1725 H 160.315 1.47158 -5.28806 0
M  V30 1726 H 160.576 2.31237 -3.76805 0
M  V30 1727 N 159.635 1.57281 -0.100228 0
M  V30 1728 C 161.051 1.57527 0.256416 0
M  V30 1729 C 161.251 1.11173 1.68056 0
M  V30 1730 O 160.307 0.79053 2.39806 0
M  V30 1731 C 161.62 3.00673 0.0401747 0
M  V30 1732 C 163.168 3.12815 0.107528 0
M  V30 1733 C 163.643 4.57929 -0.0807834 0
M  V30 1734 N 165.134 4.63193 -0.0261207 0
M  V30 1735 C 165.869 5.73212 -0.146999 0
M  V30 1736 N 165.365 6.92047 -0.322999 0
M  V30 1737 N 167.158 5.62031 -0.0879044 0
M  V30 1738 H 159.309 1.85718 -1.03065 0
M  V30 1739 H 161.572 0.857446 -0.404339 0
M  V30 1740 H 161.278 3.38804 -0.943649 0
M  V30 1741 H 161.152 3.69042 0.780262 0
M  V30 1742 H 163.539 2.74554 1.08186 0
M  V30 1743 H 163.62 2.47028 -0.664134 0
M  V30 1744 H 163.264 4.96886 -1.05201 0
M  V30 1745 H 163.194 5.21783 0.710635 0
M  V30 1746 H 165.685 3.77748 0.107161 0
M  V30 1747 H 165.998 7.7173 -0.406608 0
M  V30 1748 H 164.343 6.94074 -0.358733 0
M  V30 1749 H 167.534 4.68075 0.048498 0
M  V30 1750 H 167.707 6.47734 -0.185557 0
M  V30 1751 N 161.113 -0.173488 1.56642 0
M  V30 1752 C 162.362 -0.888758 1.81063 0
M  V30 1753 C 162.675 -1.83506 0.67712 0
M  V30 1754 O 163.881 -2.59254 0.806206 0
M  V30 1755 C 162.337 -1.63091 3.20826 0
M  V30 1756 C 161.945 -0.728357 4.4204 0
M  V30 1757 C 163.689 -2.33454 3.54541 0
M  V30 1758 C 161.596 -1.47062 5.72823 0
M  V30 1759 H 160.526 -0.335618 0.675186 0
M  V30 1760 H 163.177 -0.141712 1.82952 0
M  V30 1761 H 161.559 -2.42263 3.13248 0
M  V30 1762 H 162.733 0.0262449 4.60793 0
M  V30 1763 H 161.048 -0.134492 4.16183 0
M  V30 1764 H 163.645 -2.89578 4.49498 0
M  V30 1765 H 163.988 -3.08687 2.79317 0
M  V30 1766 H 164.521 -1.61227 3.63663 0
M  V30 1767 H 161.26 -0.760658 6.51072 0
M  V30 1768 H 160.78 -2.1986 5.58052 0
M  V30 1769 H 162.459 -2.01868 6.14702 0
M  V30 1770 N 162.591 -1.51276 -0.441967 0
M  V30 1771 C 163.524 -1.66933 -1.55591 0
M  V30 1772 C 164.502 -0.516958 -1.54163 0
M  V30 1773 O 165.686 -0.740209 -1.73358 0
M  V30 1774 C 162.813 -1.67866 -2.94174 0
M  V30 1775 C 161.859 -2.89013 -3.13646 0
M  V30 1776 S 162.692 -4.49897 -2.90436 0
M  V30 1777 C 163.848 -4.53568 -4.31308 0
M  V30 1778 H 164.081 -2.61155 -1.42076 0
M  V30 1779 H 161.614 -1.40902 -0.631341 0
M  V30 1780 H 163.572 -1.69089 -3.74058 0
M  V30 1781 H 162.233 -0.748296 -3.05056 0
M  V30 1782 H 161.426 -2.86054 -4.14957 0
M  V30 1783 H 161.028 -2.85509 -2.4158 0
M  V30 1784 H 163.32 -4.28924 -5.24434 0
M  V30 1785 H 164.263 -5.55355 -4.39303 0
M  V30 1786 H 164.671 -3.82943 -4.14747 0
M  V30 1787 N 164.069 0.697108 -1.41344 0
M  V30 1788 C 165.016 1.81106 -1.43071 0
M  V30 1789 C 165.986 1.63632 -0.285275 0
M  V30 1790 O 167.171 1.84504 -0.486091 0
M  V30 1791 C 164.311 3.18975 -1.31715 0
M  V30 1792 C 163.424 3.47892 -2.56115 0
M  V30 1793 C 162.559 4.75367 -2.37064 0
M  V30 1794 C 161.598 4.97247 -3.56948 0
M  V30 1795 N 160.735 6.15947 -3.36977 0
M  V30 1796 H 165.575 1.78965 -2.38276 0
M  V30 1797 H 163.112 0.873975 -1.18322 0
M  V30 1798 H 165.07 3.98615 -1.23133 0
M  V30 1799 H 163.7 3.20297 -0.401183 0
M  V30 1800 H 162.752 2.62669 -2.75153 0
M  V30 1801 H 164.064 3.59962 -3.45295 0
M  V30 1802 H 163.218 5.63059 -2.25941 0
M  V30 1803 H 161.957 4.65541 -1.45338 0
M  V30 1804 H 160.962 4.08004 -3.68527 0
M  V30 1805 H 162.187 5.08934 -4.49626 0
M  V30 1806 H 160.133 6.07336 -2.47949 0
M  V30 1807 H 160.05 6.28777 -4.19732 0
M  V30 1808 H 161.318 7.06377 -3.29623 0
M  V30 1809 N 165.547 1.27147 0.931209 0
M  V30 1810 C 166.796 1.12664 1.67302 0
M  V30 1811 C 167.109 -0.327718 1.92835 0
M  V30 1812 O 168.315 -0.593392 2.64936 0
M  V30 1813 C 166.771 1.9683 3.01307 0
M  V30 1814 C 166.379 3.46901 2.83485 0
M  V30 1815 C 168.123 1.90985 3.79111 0
M  V30 1816 C 166.03 4.23279 4.13024 0
M  V30 1817 H 164.96 0.41803 0.627509 0
M  V30 1818 H 167.611 1.51539 1.03481 0
M  V30 1819 H 165.993 1.50797 3.66164 0
M  V30 1820 H 167.167 4.00773 2.27415 0
M  V30 1821 H 165.482 3.54088 2.19113 0
M  V30 1822 H 168.079 2.45328 4.75098 0
M  V30 1823 H 168.422 0.882718 4.06834 0
M  V30 1824 H 168.955 2.34895 3.21044 0
M  V30 1825 H 165.694 5.26503 3.90481 0
M  V30 1826 H 165.214 3.74186 4.6877 0
M  V30 1827 H 166.893 4.32265 4.81411 0
M  V30 1828 N 167.025 -1.13721 1.09112 0
M  V30 1829 C 167.955 -2.21148 0.749385 0
M  V30 1830 C 168.936 -1.6792 -0.271475 0
M  V30 1831 O 170.121 -1.93693 -0.140251 0
M  V30 1832 C 167.251 -3.46905 0.165659 0
M  V30 1833 C 166.205 -4.13203 1.11567 0
M  V30 1834 C 165.531 -5.33248 0.393809 0
M  V30 1835 C 166.831 -4.60912 2.45678 0
M  V30 1836 H 168.525 -2.4999 1.64758 0
M  V30 1837 H 166.071 -1.20156 0.793626 0
M  V30 1838 H 168.024 -4.21313 -0.085466 0
M  V30 1839 H 166.748 -3.17449 -0.767714 0
M  V30 1840 H 165.407 -3.40758 1.35202 0
M  V30 1841 H 165.055 -5.00054 -0.543599 0
M  V30 1842 H 164.755 -5.78552 1.02721 0
M  V30 1843 H 166.279 -6.10413 0.150908 0
M  V30 1844 H 167.693 -5.26759 2.26269 0
M  V30 1845 H 166.09 -5.16944 3.04776 0
M  V30 1846 H 167.16 -3.75603 3.06677 0
M  V30 1847 N 168.503 -0.877838 -1.30888 0
M  V30 1848 C 169.451 -0.328662 -2.30266 0
M  V30 1849 C 170.445 0.560496 -1.59859 0
M  V30 1850 O 171.651 0.445722 -1.74394 0
M  V30 1851 H 168.026 -0.0876142 -0.746879 0
M  V30 1852 H 169.997 -1.18061 -2.74051 0
M  V30 1853 C 168.746 0.448071 -3.44801 0
M  V30 1854 H 168.069 -0.226859 -3.99156 0
M  V30 1855 H 169.509 0.797541 -4.16432 0
M  V30 1856 C 167.968 1.64239 -2.94155 0
M  V30 1857 O 168.498 2.74175 -2.93583 0
M  V30 1858 N 166.704 1.47716 -2.50256 0
M  V30 1859 H 166.251 0.582821 -2.5092 0
M  V30 1860 H 166.209 2.27765 -2.16727 0
M  V30 1861 N 169.982 1.44106 -0.638065 0
M  V30 1862 C 170.932 2.27843 0.0847285 0
M  V30 1863 C 171.916 1.39055 0.809471 0
M  V30 1864 O 173.108 1.62808 0.694435 0
M  V30 1865 C 170.237 3.26497 1.06089 0
M  V30 1866 C 169.323 4.22772 0.33541 0
M  V30 1867 N 169.714 5.01737 -0.639787 0
M  V30 1868 C 168.012 4.42227 0.578921 0
M  V30 1869 C 168.713 5.71792 -1.06904 0
M  V30 1870 N 167.689 5.42079 -0.406395 0
M  V30 1871 H 171.491 2.86305 -0.663814 0
M  V30 1872 H 169.005 1.55627 -0.464122 0
M  V30 1873 H 171.002 3.8525 1.59337 0
M  V30 1874 H 169.662 2.69595 1.80966 0
M  V30 1875 H 170.673 5.07799 -1.01789 0
M  V30 1876 H 167.35 3.96415 1.31003 0
M  V30 1877 H 168.74 6.45205 -1.8751 0
M  V30 1878 N 171.46 0.379036 1.52974 0
M  V30 1879 C 172.871 -0.0972525 1.86447 0
M  V30 1880 C 173.222 -1.47027 1.29914 0
M  V30 1881 O 172.347 -2.07135 0.626433 0
M  V30 1882 C 172.942 -0.183248 3.38304 0
M  V30 1883 C 171.501 -0.603812 3.71525 0
M  V30 1884 C 170.648 0.240632 2.76254 0
M  V30 1885 H 173.599 0.597316 1.4703 0
M  V30 1886 H 173.62 -1.00432 3.67006 0
M  V30 1887 H 173.132 0.816191 3.79421 0
M  V30 1888 H 171.233 -1.61099 3.35973 0
M  V30 1889 H 171.346 -0.369086 4.77676 0
M  V30 1890 H 169.71 -0.292548 2.53014 0
M  V30 1891 H 170.493 1.23786 3.20206 0
M  V30 1892 N 172.938 -1.57226 0.108567 0
M  V30 1893 C 173.886 -2.16002 -0.862885 0
M  V30 1894 C 174.88 -1.10644 -1.28274 0
M  V30 1895 O 176.086 -1.28966 -1.2557 0
M  V30 1896 H 172.461 -0.691148 -0.296342 0
M  V30 1897 H 174.432 -2.96427 -0.342575 0
M  V30 1898 C 173.181 -2.76576 -2.10716 0
M  V30 1899 H 172.504 -3.5734 -1.793 0
M  V30 1900 H 173.944 -3.21253 -2.76717 0
M  V30 1901 C 172.403 -1.73137 -2.89007 0
M  V30 1902 O 172.933 -1.17842 -3.84026 0
M  V30 1903 N 171.139 -1.43317 -2.52801 0
M  V30 1904 H 170.686 -1.88473 -1.75601 0
M  V30 1905 H 170.644 -0.743485 -3.05483 0
M  V30 1906 N 174.416 0.165178 -1.56732 0
M  V30 1907 C 175.665 0.879143 -1.81532 0
M  V30 1908 C 175.978 1.83144 -0.686842 0
M  V30 1909 O 177.184 2.58823 -0.819944 0
M  V30 1910 C 175.64 1.61388 -3.21686 0
M  V30 1911 C 175.248 0.704904 -4.4242 0
M  V30 1912 C 176.992 2.3157 -3.55774 0
M  V30 1913 C 174.899 1.44022 -5.73595 0
M  V30 1914 H 173.829 0.332033 -0.676957 0
M  V30 1915 H 176.48 0.132008 -1.83025 0
M  V30 1916 H 174.862 2.40599 -3.14529 0
M  V30 1917 H 176.036 -0.0506815 -4.60772 0
M  V30 1918 H 174.351 0.112419 -4.16248 0
M  V30 1919 H 176.948 2.8719 -4.51028 0
M  V30 1920 H 177.291 3.07201 -2.8095 0
M  V30 1921 H 177.824 1.59297 -3.64513 0
M  V30 1922 H 174.563 0.72612 -6.51466 0
M  V30 1923 H 174.083 2.16898 -5.5921 0
M  V30 1924 H 175.762 1.98606 -6.15764 0
M  V30 1925 N 175.894 1.51508 0.433938 0
M  V30 1926 C 177.14 1.64588 1.18484 0
M  V30 1927 C 177.473 0.362666 1.90784 0
M  V30 1928 O 176.748 -0.637892 1.83742 0
M  V30 1929 C 177.031 2.85149 2.19913 0
M  V30 1930 C 176.884 4.23456 1.51674 0
M  V30 1931 C 178.203 3.01227 3.20858 0
M  V30 1932 H 175.322 0.598994 0.429389 0
M  V30 1933 H 177.964 1.84002 0.473647 0
M  V30 1934 H 176.114 2.68729 2.80566 0
M  V30 1935 H 177.786 4.51552 0.943322 0
M  V30 1936 H 176.029 4.25998 0.819035 0
M  V30 1937 H 176.7 5.03812 2.2556 0
M  V30 1938 H 179.176 3.16382 2.70263 0
M  V30 1939 H 178.052 3.87141 3.89118 0
M  V30 1940 H 178.313 2.13447 3.8716 0
M  V30 1941 N 177.372 -0.689602 1.41712 0
M  V30 1942 C 178.319 -1.80345 1.44029 0
M  V30 1943 C 179.289 -1.63478 0.293948 0
M  V30 1944 O 180.474 -1.84244 0.495869 0
M  V30 1945 C 177.614 -3.18272 1.33405 0
M  V30 1946 C 176.727 -3.46529 2.57956 0
M  V30 1947 C 175.862 -4.74103 2.39582 0
M  V30 1948 C 174.901 -4.95347 3.5958 0
M  V30 1949 N 174.038 -6.14151 3.40239 0
M  V30 1950 H 178.878 -1.77698 2.39222 0
M  V30 1951 H 176.415 -0.867688 1.18784 0
M  V30 1952 H 178.373 -3.97956 1.25246 0
M  V30 1953 H 177.003 -3.2008 0.418164 0
M  V30 1954 H 176.055 -2.61207 2.76542 0
M  V30 1955 H 177.367 -3.58126 3.47199 0
M  V30 1956 H 176.521 -5.61853 2.28924 0
M  V30 1957 H 175.26 -4.64763 1.47805 0
M  V30 1958 H 174.265 -4.06044 3.70686 0
M  V30 1959 H 175.49 -5.06542 4.52318 0
M  V30 1960 H 173.436 -6.06013 2.51167 0
M  V30 1961 H 173.353 -6.26543 4.23061 0
M  V30 1962 H 174.621 -7.04619 3.33365 0
M  V30 1963 N 178.85 -1.27639 -0.924453 0
M  V30 1964 C 179.78 -1.13166 -2.04244 0
M  V30 1965 C 180.761 -0.032256 -1.70069 0
M  V30 1966 O 181.946 -0.207328 -1.9309 0
M  V30 1967 C 179.076 -0.781496 -3.38393 0
M  V30 1968 C 178.03 -1.83449 -3.86692 0
M  V30 1969 C 177.356 -1.33822 -5.17683 0
M  V30 1970 C 178.656 -3.23917 -4.09726 0
M  V30 1971 H 180.35 -2.06689 -2.1661 0
M  V30 1972 H 177.896 -0.995136 -1.04082 0
M  V30 1973 H 179.849 -0.667057 -4.16087 0
M  V30 1974 H 178.573 0.189439 -3.2605 0
M  V30 1975 H 177.232 -1.93789 -3.11193 0
M  V30 1976 H 176.88 -0.35665 -5.01734 0
M  V30 1977 H 176.58 -2.04224 -5.50968 0
M  V30 1978 H 178.104 -1.23679 -5.97943 0
M  V30 1979 H 179.518 -3.16559 -4.77978 0
M  V30 1980 H 177.915 -3.92059 -4.54324 0
M  V30 1981 H 178.985 -3.68729 -3.14908 0
M  V30 1982 N 180.328 1.1314 -1.09713 0
M  V30 1983 C 181.575 1.84484 -0.834987 0
M  V30 1984 C 181.903 1.83689 0.639418 0
M  V30 1985 O 181.158 1.2724 1.4869 0
M  V30 1986 C 181.457 3.32167 -1.3191 0
M  V30 1987 C 181.123 3.53139 -2.80363 0
M  V30 1988 C 179.785 3.58571 -3.20905 0
M  V30 1989 C 182.137 3.60866 -3.76065 0
M  V30 1990 C 179.465 3.69267 -4.55916 0
M  V30 1991 C 181.817 3.73089 -5.10869 0
M  V30 1992 C 180.481 3.76775 -5.50996 0
M  V30 1993 H 179.751 0.675073 -0.305544 0
M  V30 1994 H 182.398 1.33554 -1.37243 0
M  V30 1995 H 180.703 3.85469 -0.701517 0
M  V30 1996 H 182.4 3.85821 -1.09284 0
M  V30 1997 H 178.99 3.49569 -2.47991 0
M  V30 1998 H 183.174 3.55946 -3.45855 0
M  V30 1999 H 178.43 3.70388 -4.86438 0
M  V30 2000 H 182.604 3.78011 -5.84877 0
M  V30 2001 H 180.231 3.84815 -6.55608 0
M  V30 2002 N 181.806 0.884767 1.30421 0
M  V30 2003 C 182.716 0.355398 2.31892 0
M  V30 2004 C 183.732 -0.542261 1.65335 0
M  V30 2005 O 184.908 -0.435432 1.96637 0
M  V30 2006 C 181.973 -0.421661 3.44126 0
M  V30 2007 C 181.034 0.505727 4.26311 0
M  V30 2008 C 180.267 -0.234343 5.33185 0
M  V30 2009 O 180.49 -1.46045 5.51386 0
M  V30 2010 O 179.424 0.415443 6.00465 0
M  V30 2011 H 183.25 1.19685 2.79122 0
M  V30 2012 H 180.835 0.648596 1.34587 0
M  V30 2013 H 182.717 -0.861641 4.12497 0
M  V30 2014 H 181.392 -1.23942 2.99032 0
M  V30 2015 H 180.299 0.994513 3.60639 0
M  V30 2016 H 181.632 1.28948 4.75009 0
M  V30 2017 N 183.284 -1.43765 0.645699 0
M  V30 2018 C 184.53 -2.02197 0.156271 0
M  V30 2019 C 184.863 -1.50776 -1.22393 0
M  V30 2020 O 184.138 -0.697771 -1.81553 0
M  V30 2021 C 184.421 -3.59749 0.158872 0
M  V30 2022 C 184.274 -4.21419 1.57245 0
M  V30 2023 C 185.593 -4.37149 -0.50879 0
M  V30 2024 H 182.712 -0.734694 0.0582602 0
M  V30 2025 H 185.354 -1.71157 0.824951 0
M  V30 2026 H 183.504 -3.86325 -0.410525 0
M  V30 2027 H 185.176 -4.059 2.19186 0
M  V30 2028 H 183.419 -3.78356 2.122 0
M  V30 2029 H 184.09 -5.30482 1.52619 0
M  V30 2030 H 186.566 -4.16093 -0.024412 0
M  V30 2031 H 185.442 -5.4683 -0.476213 0
M  V30 2032 H 185.703 -4.12839 -1.58165 0
M  V30 2033 N 184.763 -0.387143 -1.52771 0
M  V30 2034 C 186.012 0.19697 -2.00736 0
M  V30 2035 C 186.325 1.48082 -1.27793 0
M  V30 2036 O 187.531 2.14485 -1.66458 0
M  V30 2037 C 185.987 0.401568 -3.57653 0
M  V30 2038 C 185.595 -0.868907 -4.39493 0
M  V30 2039 C 187.339 0.942164 -4.13912 0
M  V30 2040 C 185.246 -0.632705 -5.88006 0
M  V30 2041 H 184.176 0.0773827 -0.750019 0
M  V30 2042 H 186.827 -0.50921 -1.76293 0
M  V30 2043 H 185.209 1.16954 -3.78335 0
M  V30 2044 H 186.383 -1.64133 -4.30577 0
M  V30 2045 H 184.698 -1.33429 -3.94443 0
M  V30 2046 H 187.295 1.13455 -5.22525 0
M  V30 2047 H 187.638 1.9106 -3.69867 0
M  V30 2048 H 188.171 0.233814 -3.97112 0
M  V30 2049 H 184.91 -1.57208 -6.36369 0
M  V30 2050 H 184.43 0.100825 -5.99715 0
M  V30 2051 H 186.109 -0.26642 -6.46451 0
M  V30 2052 N 186.241 1.57166 -0.116904 0
M  V30 2053 C 187.151 2.18745 0.847812 0
M  V30 2054 C 188.167 1.163 1.29423 0
M  V30 2055 O 189.343 1.48761 1.35765 0
M  V30 2056 C 186.408 2.77307 2.0809 0
M  V30 2057 C 185.469 3.94781 1.68661 0
M  V30 2058 C 184.702 4.50541 2.86091 0
M  V30 2059 O 184.925 4.05202 4.01456 0
M  V30 2060 O 183.859 5.41256 2.63298 0
M  V30 2061 H 187.685 3.01632 0.353778 0
M  V30 2062 H 185.27 1.49005 0.108599 0
M  V30 2063 H 187.152 3.14647 2.80313 0
M  V30 2064 H 185.827 1.97452 2.56504 0
M  V30 2065 H 184.734 3.62214 0.935518 0
M  V30 2066 H 186.067 4.76065 1.24991 0
M  V30 2067 N 187.719 -0.156864 1.56817 0
M  V30 2068 C 188.947 -0.886316 1.86955 0
M  V30 2069 C 189.362 -1.75185 0.703975 0
M  V30 2070 O 188.719 -1.79555 -0.326552 0
M  V30 2071 C 188.77 -1.75117 3.16253 0
M  V30 2072 O 188.491 -0.920537 4.2832 0
M  V30 2073 C 189.992 -2.58905 3.59837 0
M  V30 2074 H 187.212 -0.25678 0.619923 0
M  V30 2075 H 189.756 -0.152615 2.0393 0
M  V30 2076 H 187.911 -2.43805 3.01062 0
M  V30 2077 H 188.325 -1.51337 5.02192 0
M  V30 2078 H 189.799 -3.1518 4.53172 0
M  V30 2079 H 190.276 -3.34472 2.84649 0
M  V30 2080 H 190.882 -1.95526 3.7769 0
M  V30 2081 N 189.197 -1.51736 -0.425897 0
M  V30 2082 C 190.107 -1.76738 -1.54275 0
M  V30 2083 C 191.123 -0.65211 -1.61318 0
M  V30 2084 O 192.299 -0.935654 -1.78346 0
M  V30 2085 C 189.364 -1.89755 -2.90162 0
M  V30 2086 C 188.425 -3.13633 -2.93143 0
M  V30 2087 C 187.658 -3.2602 -4.22548 0
M  V30 2088 O 187.881 -2.44067 -5.15546 0
M  V30 2089 O 186.815 -4.19071 -4.32046 0
M  V30 2090 H 190.641 -2.71502 -1.36089 0
M  V30 2091 H 188.226 -1.36376 -0.610069 0
M  V30 2092 H 190.108 -2.00236 -3.70788 0
M  V30 2093 H 188.783 -0.981785 -3.08452 0
M  V30 2094 H 187.69 -3.08622 -2.11431 0
M  V30 2095 H 189.023 -4.04936 -2.798 0
M  V30 2096 N 190.675 0.682077 -1.42076 0
M  V30 2097 C 191.622 1.79578 -1.44984 0
M  V30 2098 C 192.592 1.6332 -0.302614 0
M  V30 2099 O 193.777 1.83978 -0.505633 0
M  V30 2100 C 190.917 3.1756 -1.35091 0
M  V30 2101 C 190.03 3.45156 -2.59791 0
M  V30 2102 C 189.165 4.72826 -2.42093 0
M  V30 2103 C 188.204 4.93433 -3.62202 0
M  V30 2104 N 187.341 6.12338 -3.43491 0
M  V30 2105 H 192.181 1.76427 -2.40161 0
M  V30 2106 H 189.718 0.861376 -1.19242 0
M  V30 2107 H 191.676 3.97287 -1.27354 0
M  V30 2108 H 190.306 3.19854 -0.435133 0
M  V30 2109 H 189.358 2.59736 -2.77923 0
M  V30 2110 H 190.67 3.5628 -3.49094 0
M  V30 2111 H 189.824 5.60631 -2.319 0
M  V30 2112 H 188.563 4.63973 -1.50268 0
M  V30 2113 H 187.568 4.04073 -3.72834 0
M  V30 2114 H 188.793 5.04136 -4.54998 0
M  V30 2115 H 186.739 6.04672 -2.54377 0
M  V30 2116 H 186.656 6.2429 -4.26377 0
M  V30 2117 H 187.924 7.02841 -3.37097 0
M  V30 2118 N 192.153 1.28127 0.917671 0
M  V30 2119 C 193.381 1.17892 1.70026 0
M  V30 2120 C 193.796 -0.262958 1.8696 0
M  V30 2121 O 193.153 -1.17811 1.3938 0
M  V30 2122 C 193.204 1.86872 3.09453 0
M  V30 2123 O 192.925 3.25428 2.93306 0
M  V30 2124 C 194.426 1.8289 4.03815 0
M  V30 2125 H 191.646 0.40942 0.531617 0
M  V30 2126 H 194.19 1.69181 1.14883 0
M  V30 2127 H 192.345 1.39464 3.61426 0
M  V30 2128 H 192.759 3.59918 3.81523 0
M  V30 2129 H 194.233 2.35751 4.99125 0
M  V30 2130 H 194.71 0.800412 4.31845 0
M  V30 2131 H 195.316 2.29959 3.57769 0
M  V30 2132 N 193.631 -1.12557 1.10312 0
M  V30 2133 C 194.561 -2.20341 0.772798 0
M  V30 2134 C 195.542 -1.68198 -0.25365 0
M  V30 2135 O 196.727 -1.93831 -0.119699 0
M  V30 2136 C 193.857 -3.46709 0.202443 0
M  V30 2137 C 192.811 -4.11996 1.15943 0
M  V30 2138 C 192.137 -5.328 0.450345 0
M  V30 2139 C 193.437 -4.5828 2.50552 0
M  V30 2140 H 195.131 -2.48229 1.674 0
M  V30 2141 H 192.677 -1.19308 0.806326 0
M  V30 2142 H 194.63 -4.2138 -0.0407752 0
M  V30 2143 H 193.354 -3.18245 -0.734001 0
M  V30 2144 H 192.013 -3.39305 1.38808 0
M  V30 2145 H 191.661 -5.00602 -0.490531 0
M  V30 2146 H 191.361 -5.7743 1.08851 0
M  V30 2147 H 192.885 -6.10219 0.215642 0
M  V30 2148 H 194.299 -5.2433 2.31843 0
M  V30 2149 H 192.696 -5.13683 3.10242 0
M  V30 2150 H 193.766 -3.72329 3.10643 0
M  V30 2151 N 195.109 -0.891671 -1.2995 0
M  V30 2152 C 196.339 -0.527893 -1.99742 0
M  V30 2153 C 196.747 0.88979 -1.66971 0
M  V30 2154 O 196.09 1.59766 -0.906667 0
M  V30 2155 C 196.152 -0.630804 -3.53922 0
M  V30 2156 C 195.816 -2.01401 -4.10228 0
M  V30 2157 C 196.813 -2.98422 -4.25724 0
M  V30 2158 C 194.498 -2.32121 -4.45449 0
M  V30 2159 C 196.492 -4.24293 -4.75662 0
M  V30 2160 C 194.179 -3.58237 -4.95086 0
M  V30 2161 C 195.177 -4.54137 -5.10146 0
M  V30 2162 O 194.865 -5.78014 -5.58708 0
M  V30 2163 H 194.597 -0.201953 -0.645129 0
M  V30 2164 H 197.151 -1.20076 -1.66646 0
M  V30 2165 H 195.381 0.0990616 -3.86573 0
M  V30 2166 H 197.07 -0.277338 -4.04951 0
M  V30 2167 H 197.836 -2.76001 -3.98809 0
M  V30 2168 H 193.715 -1.5824 -4.32991 0
M  V30 2169 H 197.259 -4.99153 -4.87332 0
M  V30 2170 H 193.156 -3.80491 -5.21437 0
M  V30 2171 H 193.924 -5.8049 -5.77039 0
M  V30 2172 N 196.587 1.43421 -0.653314 0
M  V30 2173 C 197.517 2.33487 0.0246656 0
M  V30 2174 C 198.498 1.49475 0.811863 0
M  V30 2175 O 199.683 1.78139 0.773322 0
M  V30 2176 C 196.813 3.32841 0.99166 0
M  V30 2177 C 195.767 4.26842 0.314568 0
M  V30 2178 C 195.093 5.16236 1.39302 0
M  V30 2179 C 196.393 5.16243 -0.793095 0
M  V30 2180 H 198.087 2.90427 -0.727481 0
M  V30 2181 H 195.633 1.39649 -0.351287 0
M  V30 2182 H 197.586 3.94747 1.47487 0
M  V30 2183 H 196.31 2.74158 1.77497 0
M  V30 2184 H 194.969 3.663 -0.148199 0
M  V30 2185 H 194.617 4.53891 2.16776 0
M  V30 2186 H 194.317 5.79948 0.945223 0
M  V30 2187 H 195.841 5.81015 1.87759 0
M  V30 2188 H 197.255 5.71958 -0.392039 0
M  V30 2189 H 195.652 5.88676 -1.16536 0
M  V30 2190 H 196.722 4.55927 -1.65103 0
M  V30 2191 N 198.065 0.39524 1.52563 0
M  V30 2192 C 199.311 -0.185318 2.01952 0
M  V30 2193 C 199.644 -1.45964 1.28095 0
M  V30 2194 O 198.919 -1.90689 0.38315 0
M  V30 2195 C 199.202 -0.447193 3.57312 0
M  V30 2196 C 199.055 0.842828 4.41833 0
M  V30 2197 C 200.374 -1.23529 4.22408 0
M  V30 2198 H 197.493 -0.0658788 0.73405 0
M  V30 2199 H 200.135 0.525975 1.82575 0
M  V30 2200 H 198.285 -1.05312 3.73954 0
M  V30 2201 H 199.957 1.4795 4.36931 0
M  V30 2202 H 198.2 1.45686 4.08605 0
M  V30 2203 H 198.871 0.614165 5.48573 0
M  V30 2204 H 201.347 -0.722445 4.0978 0
M  V30 2205 H 200.223 -1.38727 5.3108 0
M  V30 2206 H 200.484 -2.25213 3.80436 0
M  V30 2207 N 199.544 -1.57102 0.125237 0
M  V30 2208 C 200.477 -2.11371 -0.860094 0
M  V30 2209 C 201.455 -1.03168 -1.25679 0
M  V30 2210 O 202.639 -1.30862 -1.35674 0
M  V30 2211 C 199.766 -2.61555 -2.1519 0
M  V30 2212 C 198.812 -3.81701 -1.9028 0
M  V30 2213 S 199.645 -5.23797 -1.11343 0
M  V30 2214 C 200.801 -5.77353 -2.41689 0
M  V30 2215 H 201.034 -2.94617 -0.39852 0
M  V30 2216 H 198.567 -1.54145 -0.0886555 0
M  V30 2217 H 200.525 -2.91122 -2.89411 0
M  V30 2218 H 199.186 -1.78479 -2.58465 0
M  V30 2219 H 198.379 -4.14985 -2.86014 0
M  V30 2220 H 197.981 -3.52783 -1.24178 0
M  V30 2221 H 200.273 -5.87458 -3.37489 0
M  V30 2222 H 201.216 -6.75323 -2.12942 0
M  V30 2223 H 201.624 -5.05457 -2.51342 0
M  V30 2224 N 201.022 0.148545 -1.56898 0
M  V30 2225 C 201.932 1.20293 -2.01412 0
M  V30 2226 C 202.948 1.47107 -0.929273 0
M  V30 2227 O 204.124 1.58807 -1.23863 0
M  V30 2228 C 201.189 2.51682 -2.38447 0
M  V30 2229 C 200.25 2.32529 -3.60872 0
M  V30 2230 C 199.483 3.57653 -3.96132 0
M  V30 2231 O 199.706 4.63771 -3.32073 0
M  V30 2232 O 198.64 3.50408 -4.89385 0
M  V30 2233 H 202.466 0.855025 -2.91416 0
M  V30 2234 H 200.051 0.357151 -1.45068 0
M  V30 2235 H 201.933 3.29147 -2.63135 0
M  V30 2236 H 200.608 2.86006 -1.51599 0
M  V30 2237 H 199.515 1.53019 -3.41373 0
M  V30 2238 H 200.848 2.03121 -4.48333 0
M  V30 2239 N 202.5 1.5196 0.417844 0
M  V30 2240 C 203.73 1.69181 1.18581 0
M  V30 2241 C 204.138 0.397104 1.84986 0
M  V30 2242 O 203.481 -0.636011 1.72339 0
M  V30 2243 C 203.543 2.76497 2.29759 0
M  V30 2244 C 203.207 4.18514 1.83563 0
M  V30 2245 C 204.204 5.02648 1.32821 0
M  V30 2246 C 201.889 4.64708 1.90661 0
M  V30 2247 C 203.883 6.31044 0.897894 0
M  V30 2248 C 201.57 5.93096 1.47241 0
M  V30 2249 C 202.568 6.76093 0.968891 0
M  V30 2250 O 202.256 8.02078 0.540924 0
M  V30 2251 H 201.988 0.570457 0.362705 0
M  V30 2252 H 204.542 1.99249 0.498885 0
M  V30 2253 H 202.772 2.41786 3.01789 0
M  V30 2254 H 204.461 2.82403 2.91553 0
M  V30 2255 H 205.227 4.68154 1.26716 0
M  V30 2256 H 201.106 4.00216 2.28797 0
M  V30 2257 H 204.65 6.95776 0.504192 0
M  V30 2258 H 200.547 6.271 1.53022 0
M  V30 2259 H 201.315 8.15794 0.66502 0
M  V30 2260 N 203.978 -0.674533 1.42435 0
M  V30 2261 C 204.941 -1.76986 1.45632 0
M  V30 2262 C 205.941 -1.5708 0.343871 0
M  V30 2263 O 207.131 -1.63367 0.604709 0
M  V30 2264 C 204.263 -3.15623 1.28822 0
M  V30 2265 H 205.456 -1.75539 2.43158 0
M  V30 2266 H 203.009 -0.884189 1.28887 0
M  V30 2267 H 203.744 -3.22696 0.322193 0
M  V30 2268 H 203.529 -3.31475 2.09444 0
M  V30 2269 H 205.019 -3.95537 1.33942 0
M  V30 2270 N 205.456 -1.28612 -0.910864 0
M  V30 2271 C 206.681 -1.1891 -1.69927 0
M  V30 2272 C 207.106 0.248372 -1.86453 0
M  V30 2273 O 206.464 1.17961 -1.37676 0
M  V30 2274 C 206.512 -1.89578 -3.06745 0
M  V30 2275 O 205.616 -1.20521 -3.94396 0
M  V30 2276 H 204.957 -0.412632 -0.520222 0
M  V30 2277 H 207.487 -1.69985 -1.1387 0
M  V30 2278 H 207.497 -1.97597 -3.56958 0
M  V30 2279 H 206.172 -2.94136 -2.94035 0
M  V30 2280 H 204.749 -1.20684 -3.52831 0
M  V30 2281 N 206.934 1.1197 -1.10907 0
M  V30 2282 C 208.182 1.83225 -0.852819 0
M  V30 2283 C 208.503 1.84769 0.623341 0
M  V30 2284 O 207.773 1.3143 1.45269 0
M  V30 2285 H 206.353 0.67849 -0.312507 0
M  V30 2286 H 209.015 1.3556 -1.40033 0
M  V30 2287 H 208.111 2.87265 -1.22005 0
M  V30 2288 N 208.412 0.89855 1.29475 0
M  V30 2289 C 209.66 0.522847 1.9522 0
M  V30 2290 C 209.981 -0.93371 1.71192 0
M  V30 2291 O 209.251 -1.65823 1.04305 0
M  V30 2292 H 207.831 0.190366 0.722336 0
M  V30 2293 H 210.493 1.14459 1.5775 0
M  V30 2294 H 209.589 0.704476 3.04045 0
M  V30 2295 N 209.89 -1.43072 0.660911 0
M  V30 2296 C 210.8 -2.34585 -0.0264163 0
M  V30 2297 C 211.816 -1.54316 -0.803898 0
M  V30 2298 O 212.992 -1.86939 -0.749391 0
M  V30 2299 C 210.057 -3.32689 -0.975639 0
M  V30 2300 C 209.118 -4.2886 -0.194236 0
M  V30 2301 C 208.351 -5.22278 -1.09825 0
M  V30 2302 O 208.574 -5.20299 -2.33763 0
M  V30 2303 O 207.508 -5.99228 -0.566513 0
M  V30 2304 H 211.334 -2.94869 0.727034 0
M  V30 2305 H 208.919 -1.43342 0.42111 0
M  V30 2306 H 210.801 -3.92995 -1.52094 0
M  V30 2307 H 209.476 -2.74898 -1.70918 0
M  V30 2308 H 208.383 -3.72011 0.394835 0
M  V30 2309 H 209.716 -4.89655 0.499899 0
M  V30 2310 N 211.368 -0.403325 -1.52352 0
M  V30 2311 C 212.614 0.174605 -2.02047 0
M  V30 2312 C 212.947 1.45282 -1.28867 0
M  V30 2313 O 212.222 1.90483 -0.393257 0
M  V30 2314 C 212.505 0.428238 -3.57545 0
M  V30 2315 C 212.358 -0.866248 -4.4138 0
M  V30 2316 C 213.677 1.21287 -4.23057 0
M  V30 2317 H 210.796 0.0619851 -0.734389 0
M  V30 2318 H 213.438 -0.53565 -1.82293 0
M  V30 2319 H 211.588 1.03327 -3.74507 0
M  V30 2320 H 213.26 -1.50265 -4.3614 0
M  V30 2321 H 211.503 -1.47851 -4.07827 0
M  V30 2322 H 212.174 -0.643249 -5.48239 0
M  V30 2323 H 214.65 0.700703 -4.10158 0
M  V30 2324 H 213.526 1.35909 -5.31808 0
M  V30 2325 H 213.787 2.23193 -3.81625 0
M  V30 2326 N 212.846 1.57033 -0.133567 0
M  V30 2327 C 214.093 1.95686 0.520877 0
M  V30 2328 C 214.421 1.0177 1.6575 0
M  V30 2329 O 213.676 0.0443195 1.9565 0
M  V30 2330 C 213.975 3.40674 1.08057 0
M  V30 2331 C 213.641 4.50855 0.0637899 0
M  V30 2332 C 212.303 4.80716 -0.215757 0
M  V30 2333 C 214.655 5.17398 -0.62835 0
M  V30 2334 C 211.983 5.74433 -1.19348 0
M  V30 2335 C 214.335 6.12167 -1.5948 0
M  V30 2336 C 212.999 6.40414 -1.88218 0
M  V30 2337 H 212.269 0.716067 0.190602 0
M  V30 2338 H 214.916 1.9026 -0.217556 0
M  V30 2339 H 213.221 3.42865 1.89606 0
M  V30 2340 H 214.918 3.67902 1.59529 0
M  V30 2341 H 211.508 4.27605 0.291855 0
M  V30 2342 H 215.692 4.94472 -0.425562 0
M  V30 2343 H 210.948 5.94616 -1.42272 0
M  V30 2344 H 215.122 6.6281 -2.13671 0
M  V30 2345 H 212.749 7.12838 -2.64133 0
M  V30 2346 N 214.325 -0.140222 1.56975 0
M  V30 2347 C 215.602 -0.880769 1.74648 0
M  V30 2348 C 215.982 -1.99036 0.703404 0
M  V30 2349 O 215.33 -2.26821 -0.27648 0
M  V30 2350 C 215.54 -1.417 3.18939 0
M  V30 2351 C 216.888 -1.87774 3.80823 0
M  V30 2352 O 217.912 -1.51427 3.2241 0
M  V30 2353 O 216.771 -2.54827 4.83452 0
M  V30 2354 H 213.865 -0.416713 0.714338 0
M  V30 2355 H 216.411 -0.125618 1.69234 0
M  V30 2356 H 215.183 -0.619902 3.86359 0
M  V30 2357 H 214.806 -2.23546 3.28805 0
M  V30 2358 N 215.803 -1.52179 -0.40978 0
M  V30 2359 C 217.033 -1.69807 -1.17682 0
M  V30 2360 C 217.441 -0.406908 -1.84773 0
M  V30 2361 O 216.784 0.626863 -1.72673 0
M  V30 2362 C 216.846 -2.77712 -2.2829 0
M  V30 2363 C 216.51 -4.19481 -1.81341 0
M  V30 2364 C 217.507 -5.03345 -1.30154 0
M  V30 2365 C 215.192 -4.65713 -1.88194 0
M  V30 2366 C 217.186 -6.31511 -0.864416 0
M  V30 2367 C 214.873 -5.93869 -1.44093 0
M  V30 2368 C 215.871 -6.76597 -0.933023 0
M  V30 2369 O 215.559 -8.02354 -0.49838 0
M  V30 2370 H 215.291 -0.572372 -0.359675 0
M  V30 2371 H 217.845 -1.99511 -0.488311 0
M  V30 2372 H 216.075 -2.43383 -3.00502 0
M  V30 2373 H 217.764 -2.83946 -2.90051 0
M  V30 2374 H 218.53 -4.68819 -1.24232 0
M  V30 2375 H 214.409 -4.01424 -2.26671 0
M  V30 2376 H 217.953 -6.96033 -0.467286 0
M  V30 2377 H 213.85 -6.27903 -1.49694 0
M  V30 2378 H 214.618 -8.16135 -0.621747 0
M  V30 2379 N 217.281 0.66697 -1.42791 0
M  V30 2380 C 218.211 1.79218 -1.49677 0
M  V30 2381 C 219.192 1.66405 -0.352623 0
M  V30 2382 O 220.377 1.85708 -0.567993 0
M  V30 2383 C 217.507 3.17565 -1.40605 0
M  V30 2384 C 216.461 3.45124 -2.53127 0
M  V30 2385 C 215.787 4.83127 -2.29112 0
M  V30 2386 C 217.087 3.41236 -3.95418 0
M  V30 2387 H 218.781 1.73713 -2.43853 0
M  V30 2388 H 216.327 0.83432 -1.17367 0
M  V30 2389 H 218.28 3.96022 -1.44029 0
M  V30 2390 H 217.004 3.23767 -0.429271 0
M  V30 2391 H 215.663 2.69031 -2.49034 0
M  V30 2392 H 215.311 4.85988 -1.29709 0
M  V30 2393 H 215.011 5.02528 -3.04531 0
M  V30 2394 H 216.535 5.63859 -2.34297 0
M  V30 2395 H 217.949 4.09651 -4.01073 0
M  V30 2396 H 216.346 3.72173 -4.70752 0
M  V30 2397 H 217.416 2.39665 -4.21532 0
M  V30 2398 N 218.759 1.29093 0.90403 0
M  V30 2399 C 220.005 1.16986 1.65656 0
M  V30 2400 C 220.338 -0.278925 1.92186 0
M  V30 2401 O 219.613 -1.2019 1.5292 0
M  V30 2402 C 219.896 1.97908 3.0084 0
M  V30 2403 C 219.749 3.50903 2.81403 0
M  V30 2404 C 221.068 1.80208 4.01513 0
M  V30 2405 H 218.187 0.426346 0.601164 0
M  V30 2406 H 220.829 1.58518 1.04747 0
M  V30 2407 H 218.979 1.62616 3.52829 0
M  V30 2408 H 220.651 3.96153 2.36348 0
M  V30 2409 H 218.894 3.76045 2.1627 0
M  V30 2410 H 219.565 4.02791 3.77443 0
M  V30 2411 H 222.041 2.11025 3.58619 0
M  V30 2412 H 220.917 2.39184 4.94047 0
M  V30 2413 H 221.178 0.756119 4.35586 0
M  V30 2414 N 220.237 -1.11381 1.11499 0
M  V30 2415 C 221.2 -2.15622 0.777153 0
M  V30 2416 C 222.2 -1.59504 -0.203779 0
M  V30 2417 O 223.39 -1.74188 0.020782 0
M  V30 2418 C 220.522 -3.40556 0.153116 0
M  V30 2419 H 221.715 -2.47021 1.70061 0
M  V30 2420 H 219.268 -1.26577 0.916952 0
M  V30 2421 H 220.003 -3.14767 -0.780536 0
M  V30 2422 H 219.788 -3.8257 0.859238 0
M  V30 2423 H 221.278 -4.17546 -0.0671044 0
M  V30 2424 N 221.715 -0.905404 -1.28997 0
M  V30 2425 C 222.665 -0.358713 -2.25161 0
M  V30 2426 C 223.649 0.524449 -1.52113 0
M  V30 2427 O 224.841 0.365534 -1.73184 0
M  V30 2428 C 221.97 0.407609 -3.40872 0
M  V30 2429 C 221.056 -0.490797 -4.21251 0
M  V30 2430 N 221.447 -1.60061 -4.79806 0
M  V30 2431 C 219.745 -0.289636 -4.45059 0
M  V30 2432 C 220.446 -2.15757 -5.40207 0
M  V30 2433 N 219.422 -1.44988 -5.23908 0
M  V30 2434 H 223.224 -1.20642 -2.67998 0
M  V30 2435 H 220.738 -0.757103 -1.43672 0
M  V30 2436 H 222.735 0.816046 -4.08835 0
M  V30 2437 H 221.395 1.25251 -2.9957 0
M  V30 2438 H 222.406 -1.98329 -4.7842 0
M  V30 2439 H 219.083 0.51643 -4.14294 0
M  V30 2440 H 220.473 -3.09069 -5.96595 0
M  V30 2441 N 223.193 1.4272 -0.668489 0
M  V30 2442 C 224.441 2.01226 -0.187769 0
M  V30 2443 C 224.762 1.53092 1.2078 0
M  V30 2444 O 224.032 0.74993 1.80977 0
M  V30 2445 H 222.612 0.744041 -0.0664272 0
M  V30 2446 H 225.274 1.74723 -0.863583 0
M  V30 2447 H 224.37 3.11556 -0.184166 0
M  V30 2448 N 224.671 0.411399 1.52136 0
M  V30 2449 C 226.087 0.0623865 1.59478 0
M  V30 2450 C 226.287 -1.42554 1.4241 0
M  V30 2451 O 225.343 -2.19263 1.2522 0
M  V30 2452 C 226.656 0.559331 2.95452 0
M  V30 2453 C 228.204 0.517503 3.08692 0
M  V30 2454 C 228.679 0.990994 4.4715 0
M  V30 2455 N 230.17 0.947908 4.53397 0
M  V30 2456 C 230.905 1.28544 5.58806 0
M  V30 2457 N 230.401 1.69454 6.71757 0
M  V30 2458 N 232.194 1.20526 5.49026 0
M  V30 2459 H 224.345 1.37982 1.61477 0
M  V30 2460 H 226.608 0.566977 0.759764 0
M  V30 2461 H 226.314 1.59938 3.1323 0
M  V30 2462 H 226.188 -0.0298014 3.77188 0
M  V30 2463 H 228.575 -0.513505 2.90598 0
M  V30 2464 H 228.656 1.14272 2.28857 0
M  V30 2465 H 228.3 2.02034 4.65988 0
M  V30 2466 H 228.23 0.34257 5.25485 0
M  V30 2467 H 230.721 0.647157 3.72317 0
M  V30 2468 H 231.034 1.93513 7.48179 0
M  V30 2469 H 229.379 1.73359 6.73032 0
M  V30 2470 H 232.57 0.884505 4.59667 0
M  V30 2471 H 232.743 1.47161 6.31069 0
M  V30 2472 N 226.149 -1.5696 0.141893 0
M  V30 2473 C 227.082 -2.12271 -0.837627 0
M  V30 2474 C 228.06 -1.04495 -1.24578 0
M  V30 2475 O 229.244 -1.32293 -1.34278 0
M  V30 2476 C 226.371 -2.63822 -2.12404 0
M  V30 2477 C 225.417 -3.83698 -1.86221 0
M  V30 2478 S 226.25 -5.24948 -1.05781 0
M  V30 2479 C 227.406 -5.79884 -2.35552 0
M  V30 2480 H 227.639 -2.95023 -0.367249 0
M  V30 2481 H 225.172 -1.54231 -0.0723014 0
M  V30 2482 H 227.13 -2.94175 -2.86307 0
M  V30 2483 H 225.791 -1.8121 -2.56557 0
M  V30 2484 H 224.984 -4.17995 -2.81596 0
M  V30 2485 H 224.586 -3.5408 -1.20429 0
M  V30 2486 H 226.878 -5.91005 -3.31239 0
M  V30 2487 H 227.821 -6.77544 -2.05767 0
M  V30 2488 H 228.229 -5.08095 -2.45967 0
M  V30 2489 N 227.627 0.131896 -1.57047 0
M  V30 2490 C 228.574 1.16236 -1.99393 0
M  V30 2491 C 229.544 1.41863 -0.863943 0
M  V30 2492 O 230.729 1.53946 -1.12718 0
M  V30 2493 C 227.869 2.48708 -2.39245 0
M  V30 2494 C 226.982 2.30127 -3.65603 0
M  V30 2495 C 226.117 3.55738 -3.94492 0
M  V30 2496 C 225.156 3.32259 -5.14073 0
M  V30 2497 N 224.293 4.50039 -5.38896 0
M  V30 2498 H 229.133 0.794251 -2.87221 0
M  V30 2499 H 226.67 0.380707 -1.42088 0
M  V30 2500 H 228.628 3.25969 -2.60384 0
M  V30 2501 H 227.258 2.83437 -1.54478 0
M  V30 2502 H 226.31 1.43845 -3.52154 0
M  V30 2503 H 227.622 2.08746 -4.5302 0
M  V30 2504 H 226.776 4.41423 -4.1621 0
M  V30 2505 H 225.515 3.80138 -3.05526 0
M  V30 2506 H 224.52 2.44963 -4.92212 0
M  V30 2507 H 225.745 3.09242 -6.04604 0
M  V30 2508 H 223.691 4.74584 -4.52886 0
M  V30 2509 H 223.608 4.31716 -6.2061 0
M  V30 2510 H 224.876 5.36895 -5.65123 0
M  V30 2511 N 229.106 1.52395 0.401703 0
M  V30 2512 C 230.016 1.7917 1.51444 0
M  V30 2513 C 231.032 0.677691 1.6026 0
M  V30 2514 O 232.208 0.963909 1.76835 0
M  V30 2515 C 229.273 1.94347 2.87107 0
M  V30 2516 C 228.334 3.18257 2.88116 0
M  V30 2517 C 227.567 3.32701 4.17308 0
M  V30 2518 O 227.79 2.52238 5.11598 0
M  V30 2519 O 226.724 4.25891 4.25324 0
M  V30 2520 H 230.55 2.73633 1.31752 0
M  V30 2521 H 228.135 1.3733 0.588296 0
M  V30 2522 H 230.017 2.06109 3.67555 0
M  V30 2523 H 228.692 1.03073 3.06851 0
M  V30 2524 H 227.599 3.11947 2.06494 0
M  V30 2525 H 228.932 4.09336 2.73322 0
M  V30 2526 N 230.584 -0.659388 1.43143 0
M  V30 2527 C 231.531 -1.77249 1.47822 0
M  V30 2528 C 232.501 -1.62818 0.328558 0
M  V30 2529 O 233.686 -1.83151 0.534838 0
M  V30 2530 C 230.826 -3.15371 1.40126 0
M  V30 2531 C 229.939 -3.4098 2.65249 0
M  V30 2532 C 229.074 -4.68915 2.49584 0
M  V30 2533 C 228.113 -4.87608 3.70006 0
M  V30 2534 N 227.25 -6.06796 3.53189 0
M  V30 2535 H 232.09 -1.72584 2.42938 0
M  V30 2536 H 229.627 -0.842297 1.20598 0
M  V30 2537 H 231.585 -3.9521 1.33659 0
M  V30 2538 H 230.215 -3.19121 0.485964 0
M  V30 2539 H 229.267 -2.55282 2.8202 0
M  V30 2540 H 230.579 -3.50681 3.54717 0
M  V30 2541 H 229.733 -5.56871 2.4079 0
M  V30 2542 H 228.472 -4.61524 1.5763 0
M  V30 2543 H 227.477 -3.9809 3.79215 0
M  V30 2544 H 228.702 -4.96834 4.62961 0
M  V30 2545 H 226.648 -6.00549 2.63965 0
M  V30 2546 H 226.565 -6.17428 4.36255 0
M  V30 2547 H 227.833 -6.9739 3.48236 0
M  V30 2548 N 232.062 -1.29571 -0.897171 0
M  V30 2549 C 232.972 -1.16808 -2.03453 0
M  V30 2550 C 233.988 -0.0907471 -1.73763 0
M  V30 2551 O 235.164 -0.303312 -1.99103 0
M  V30 2552 C 232.229 -0.848264 -3.36163 0
M  V30 2553 C 231.29 -2.0097 -3.79354 0
M  V30 2554 C 230.523 -1.70505 -5.05731 0
M  V30 2555 O 230.746 -0.62718 -5.66941 0
M  V30 2556 O 229.68 -2.5538 -5.45036 0
M  V30 2557 H 233.506 -2.12325 -2.17144 0
M  V30 2558 H 231.091 -1.09047 -1.02123 0
M  V30 2559 H 232.973 -0.684581 -4.15802 0
M  V30 2560 H 231.648 0.0771071 -3.23608 0
M  V30 2561 H 230.555 -2.22863 -3.00471 0
M  V30 2562 H 231.888 -2.91636 -3.96496 0
M  V30 2563 N 233.54 1.10788 -1.12088 0
M  V30 2564 C 234.503 2.15207 -0.788577 0
M  V30 2565 C 235.503 1.59609 0.195317 0
M  V30 2566 O 236.693 1.74174 -0.0300193 0
M  V30 2567 C 233.825 3.4047 -0.171174 0
M  V30 2568 H 235.018 2.46116 -1.71368 0
M  V30 2569 H 232.571 1.26089 -0.923652 0
M  V30 2570 H 233.306 3.15176 0.763832 0
M  V30 2571 H 233.091 3.82109 -0.879514 0
M  V30 2572 H 234.581 4.17576 0.04496 0
M  V30 2573 N 235.018 0.912232 1.28515 0
M  V30 2574 C 236.434 0.610159 1.47476 0
M  V30 2575 C 236.634 -0.844955 1.82928 0
M  V30 2576 O 235.69 -1.62416 1.93332 0
M  V30 2577 C 237.003 1.54675 2.57868 0
M  V30 2578 C 238.551 1.55331 2.71738 0
M  V30 2579 C 239.026 2.47649 3.85272 0
M  V30 2580 N 240.517 2.45767 3.92623 0
M  V30 2581 C 241.252 3.13896 4.79851 0
M  V30 2582 N 240.748 3.9135 5.71679 0
M  V30 2583 N 242.541 3.02991 4.73448 0
M  V30 2584 H 234.692 1.85318 1.03783 0
M  V30 2585 H 236.955 0.794777 0.516753 0
M  V30 2586 H 236.661 2.5841 2.38574 0
M  V30 2587 H 236.535 1.27671 3.54937 0
M  V30 2588 H 238.922 0.52335 2.90422 0
M  V30 2589 H 239.003 1.86378 1.75205 0
M  V30 2590 H 238.647 3.50745 3.67342 0
M  V30 2591 H 238.577 2.13904 4.81199 0
M  V30 2592 H 241.068 1.89503 3.26951 0
M  V30 2593 H 241.381 4.40359 6.35062 0
M  V30 2594 H 239.726 3.95455 5.71524 0
M  V30 2595 H 242.917 2.41987 4.007 0
M  V30 2596 H 243.09 3.5636 5.41213 0
M  V30 2597 N 236.496 -1.42363 0.676048 0
M  V30 2598 C 237.459 -2.29199 0.00766941 0
M  V30 2599 C 238.459 -1.43389 -0.727745 0
M  V30 2600 O 239.649 -1.64764 -0.56556 0
M  V30 2601 C 236.781 -3.2591 -0.999785 0
M  V30 2602 H 237.974 -2.89794 0.771988 0
M  V30 2603 H 235.527 -1.50024 0.438468 0
M  V30 2604 H 236.262 -2.70256 -1.79255 0
M  V30 2605 H 236.047 -3.89202 -0.475829 0
M  V30 2606 H 237.537 -3.91028 -1.46583 0
M  V30 2607 N 237.974 -0.419461 -1.51915 0
M  V30 2608 C 238.921 0.400927 -2.27291 0
M  V30 2609 C 239.891 1.03224 -1.30131 0
M  V30 2610 O 241.076 1.05455 -1.59009 0
M  V30 2611 C 238.216 1.50603 -3.10504 0
M  V30 2612 C 237.329 0.89462 -4.22635 0
M  V30 2613 C 236.464 1.97328 -4.93189 0
M  V30 2614 C 235.503 1.33935 -5.97267 0
M  V30 2615 N 234.64 2.3586 -6.61298 0
M  V30 2616 H 239.48 -0.248251 -2.96964 0
M  V30 2617 H 237.017 -0.134266 -1.46486 0
M  V30 2618 H 238.975 2.15783 -3.57062 0
M  V30 2619 H 237.605 2.12509 -2.42981 0
M  V30 2620 H 236.657 0.131583 -3.80172 0
M  V30 2621 H 237.969 0.391641 -4.9726 0
M  V30 2622 H 237.123 2.70211 -5.43204 0
M  V30 2623 H 235.862 2.50994 -4.18155 0
M  V30 2624 H 234.867 0.595896 -5.46561 0
M  V30 2625 H 236.092 0.810252 -6.74249 0
M  V30 2626 H 234.038 2.88639 -5.89087 0
M  V30 2627 H 233.955 1.90403 -7.3163 0
M  V30 2628 H 235.223 3.08282 -7.15949 0
M  V30 2629 N 239.452 1.56882 -0.150215 0
M  V30 2630 C 240.699 1.96228 0.500093 0
M  V30 2631 C 241.027 1.03522 1.64661 0
M  V30 2632 O 240.282 0.0650683 1.95592 0
M  V30 2633 C 240.581 3.41801 1.04437 0
M  V30 2634 C 240.247 4.50897 0.0159671 0
M  V30 2635 C 238.909 4.8046 -0.266731 0
M  V30 2636 C 241.261 5.16703 -0.683192 0
M  V30 2637 C 238.589 5.73135 -1.25434 0
M  V30 2638 C 240.941 6.10441 -1.65964 0
M  V30 2639 C 239.605 6.38382 -1.95 0
M  V30 2640 H 238.875 0.718048 0.182997 0
M  V30 2641 H 241.522 1.90019 -0.237724 0
M  V30 2642 H 239.827 3.44857 1.85959 0
M  V30 2643 H 241.524 3.69573 1.55618 0
M  V30 2644 H 238.114 4.27891 0.246485 0
M  V30 2645 H 242.298 4.93993 -0.477983 0
M  V30 2646 H 237.554 5.93074 -1.48571 0
M  V30 2647 H 241.728 6.60507 -2.20689 0
M  V30 2648 H 239.355 7.09996 -2.71679 0
M  V30 2649 N 240.93 -0.123565 1.57115 0
M  V30 2650 C 242.346 -0.476961 1.52306 0
M  V30 2651 C 242.546 -1.82109 0.86248 0
M  V30 2652 O 241.602 -2.48586 0.442884 0
M  V30 2653 C 242.915 -0.465661 2.97073 0
M  V30 2654 C 244.463 -0.549534 3.08138 0
M  V30 2655 C 244.938 -0.568669 4.54456 0
M  V30 2656 N 246.429 -0.630237 4.58892 0
M  V30 2657 C 247.164 -0.666415 5.69514 0
M  V30 2658 N 246.66 -0.660514 6.89644 0
M  V30 2659 N 248.453 -0.709077 5.5761 0
M  V30 2660 H 240.604 0.757198 1.98445 0
M  V30 2661 H 242.867 0.278808 0.906074 0
M  V30 2662 H 242.573 0.454232 3.48754 0
M  V30 2663 H 242.447 -1.29513 3.54269 0
M  V30 2664 H 244.834 -1.45985 2.56461 0
M  V30 2665 H 244.915 0.307532 2.53945 0
M  V30 2666 H 244.559 0.337581 5.06777 0
M  V30 2667 H 244.489 -1.44256 5.06456 0
M  V30 2668 H 246.98 -0.641146 3.72421 0
M  V30 2669 H 247.293 -0.690616 7.69708 0
M  V30 2670 H 245.638 -0.628012 6.92157 0
M  V30 2671 H 248.829 -0.711019 4.62668 0
M  V30 2672 H 249.002 -0.733804 6.43832 0
M  V30 2673 N 242.408 -1.52605 -0.393616 0
M  V30 2674 C 243.34 -1.73303 -1.49995 0
M  V30 2675 C 244.353 -0.613473 -1.50799 0
M  V30 2676 O 245.542 -0.889049 -1.54784 0
M  V30 2677 C 242.642 -1.77245 -2.88855 0
M  V30 2678 C 241.815 -3.06483 -3.12069 0
M  V30 2679 C 240.874 -3.02033 -4.30886 0
M  V30 2680 O 239.9 -3.75907 -4.27414 0
M  V30 2681 N 241.102 -2.20897 -5.36828 0
M  V30 2682 H 243.867 -2.68756 -1.32629 0
M  V30 2683 H 241.428 -1.51036 -0.583083 0
M  V30 2684 H 243.42 -1.7178 -3.66434 0
M  V30 2685 H 241.99 -0.891993 -2.99603 0
M  V30 2686 H 241.21 -3.25474 -2.22396 0
M  V30 2687 H 242.498 -3.91947 -3.2443 0
M  V30 2688 H 241.896 -1.60336 -5.42502 0
M  V30 2689 H 240.453 -2.21275 -6.13091 0
M  V30 2690 N 243.887 0.651787 -1.4349 0
M  V30 2691 C 245.136 1.40754 -1.44469 0
M  V30 2692 C 245.449 1.95463 -0.0731845 0
M  V30 2693 O 246.655 2.71471 0.0395721 0
M  V30 2694 C 245.111 2.54735 -2.5424 0
M  V30 2695 C 244.719 2.06628 -3.97504 0
M  V30 2696 C 246.463 3.32092 -2.64414 0
M  V30 2697 C 244.37 3.17829 -4.98737 0
M  V30 2698 H 243.3 0.528862 -0.53742 0
M  V30 2699 H 245.951 0.703365 -1.69485 0
M  V30 2700 H 244.333 3.2763 -2.22428 0
M  V30 2701 H 245.507 1.40734 -4.38783 0
M  V30 2702 H 243.822 1.42146 -3.91387 0
M  V30 2703 H 246.419 4.14952 -3.37223 0
M  V30 2704 H 246.762 3.80217 -1.69532 0
M  V30 2705 H 247.295 2.66279 -2.95534 0
M  V30 2706 H 244.034 2.74671 -5.95177 0
M  V30 2707 H 243.554 3.82429 -4.62069 0
M  V30 2708 H 245.233 3.82937 -5.21505 0
M  V30 2709 N 245.365 1.30045 0.890287 0
M  V30 2710 C 246.611 1.18737 1.64406 0
M  V30 2711 C 246.944 -0.258525 1.92472 0
M  V30 2712 O 246.219 -1.18562 1.54186 0
M  V30 2713 C 246.502 2.01087 2.98724 0
M  V30 2714 C 246.355 3.53867 2.77665 0
M  V30 2715 C 247.674 1.84457 3.9958 0
M  V30 2716 H 244.793 0.432698 0.596608 0
M  V30 2717 H 247.435 1.5962 1.0306 0
M  V30 2718 H 245.585 1.66349 3.51084 0
M  V30 2719 H 247.257 3.98637 2.32133 0
M  V30 2720 H 245.5 3.78318 2.12269 0
M  V30 2721 H 246.171 4.06772 3.7315 0
M  V30 2722 H 248.647 2.14817 3.56361 0
M  V30 2723 H 247.523 2.44411 4.91482 0
M  V30 2724 H 247.784 0.802276 4.3476 0
M  V30 2725 N 246.843 -1.10192 1.12674 0
M  V30 2726 C 248.068 -1.86523 0.906853 0
M  V30 2727 C 248.493 -1.80221 -0.538711 0
M  V30 2728 O 247.851 -1.17396 -1.38158 0
M  V30 2729 C 247.899 -3.32758 1.3894 0
M  V30 2730 O 247.003 -4.08449 0.5695 0
M  V30 2731 H 246.344 -0.578678 0.325619 0
M  V30 2732 H 248.874 -1.39203 1.49946 0
M  V30 2733 H 248.884 -3.83608 1.38958 0
M  V30 2734 H 247.559 -3.36661 2.44197 0
M  V30 2735 H 246.136 -3.67427 0.636528 0
M  V30 2736 N 248.321 -0.919034 -1.28029 0
M  V30 2737 C 249.284 -0.416182 -2.2539 0
M  V30 2738 C 250.284 0.460438 -1.54067 0
M  V30 2739 O 251.474 0.262744 -1.72207 0
M  V30 2740 C 248.606 0.402707 -3.38513 0
M  V30 2741 H 249.799 -1.27629 -2.71387 0
M  V30 2742 H 247.352 -0.698919 -1.39803 0
M  V30 2743 H 248.087 1.282 -2.97885 0
M  V30 2744 H 247.872 -0.225698 -3.9145 0
M  V30 2745 H 249.362 0.745191 -4.10897 0
M  V30 2746 N 249.799 1.42003 -0.683588 0
M  V30 2747 C 251.045 2.01712 -0.209825 0
M  V30 2748 C 251.378 1.53968 1.18353 0
M  V30 2749 O 250.653 0.745661 1.79639 0
M  V30 2750 C 250.936 3.59202 -0.254197 0
M  V30 2751 C 250.789 4.17102 -1.68363 0
M  V30 2752 C 252.108 4.38344 0.392709 0
M  V30 2753 H 249.227 0.732891 -0.0777189 0
M  V30 2754 H 251.869 1.68909 -0.87004 0
M  V30 2755 H 250.019 3.87278 0.307954 0
M  V30 2756 H 251.691 3.99946 -2.29871 0
M  V30 2757 H 249.934 3.72597 -2.22157 0
M  V30 2758 H 250.605 5.26249 -1.6663 0
M  V30 2759 H 253.081 4.16011 -0.0859162 0
M  V30 2760 H 251.957 5.47901 0.331063 0
M  V30 2761 H 252.218 4.16887 1.47164 0
M  V30 2762 N 251.277 0.427512 1.51691 0
M  V30 2763 C 252.209 -0.424521 2.25234 0
M  V30 2764 C 253.222 -0.994671 1.2888 0
M  V30 2765 O 254.411 -0.890483 1.54702 0
M  V30 2766 C 251.511 -1.60479 2.98496 0
M  V30 2767 C 250.684 -1.15527 4.21868 0
M  V30 2768 C 249.743 -2.20454 4.77793 0
M  V30 2769 O 248.769 -1.8029 5.39893 0
M  V30 2770 N 249.971 -3.52831 4.60967 0
M  V30 2771 H 252.736 0.205749 2.98993 0
M  V30 2772 H 250.297 0.255867 1.59865 0
M  V30 2773 H 252.289 -2.30276 3.32799 0
M  V30 2774 H 250.859 -2.14061 2.27809 0
M  V30 2775 H 250.079 -0.284736 3.9317 0
M  V30 2776 H 251.367 -0.832173 5.01949 0
M  V30 2777 H 250.765 -3.88201 4.11481 0
M  V30 2778 H 249.322 -4.18551 4.99658 0
M  V30 2779 N 252.755 -1.56801 0.158532 0
M  V30 2780 C 253.985 -2.00568 -0.495583 0
M  V30 2781 C 254.393 -1.03774 -1.58201 0
M  V30 2782 O 253.736 -0.0285797 -1.83678 0
M  V30 2783 C 253.798 -3.40768 -1.14532 0
M  V30 2784 C 253.462 -4.56553 -0.202101 0
M  V30 2785 C 254.459 -5.16714 0.574675 0
M  V30 2786 C 252.144 -5.02197 -0.101648 0
M  V30 2787 C 254.138 -6.20939 1.43924 0
M  V30 2788 C 251.825 -6.06274 0.766508 0
M  V30 2789 C 252.823 -6.65515 1.53555 0
M  V30 2790 O 252.511 -7.67575 2.38922 0
M  V30 2791 H 252.243 -0.662893 -0.13247 0
M  V30 2792 H 254.797 -2.03829 0.253559 0
M  V30 2793 H 253.027 -3.34381 -1.94233 0
M  V30 2794 H 254.716 -3.6857 -1.70033 0
M  V30 2795 H 255.482 -4.82341 0.507167 0
M  V30 2796 H 251.361 -4.55807 -0.689994 0
M  V30 2797 H 254.905 -6.67107 2.03996 0
M  V30 2798 H 250.802 -6.40073 0.835266 0
M  V30 2799 H 251.57 -7.84844 2.32296 0
M  V30 2800 N 254.233 0.115231 -1.57178 0
M  V30 2801 C 255.473 0.828199 -1.8687 0
M  V30 2802 C 255.837 1.76873 -0.747002 0
M  V30 2803 O 257.038 2.52354 -0.925785 0
M  V30 2804 C 255.309 1.55515 -3.21792 0
M  V30 2805 S 256.868 2.30917 -3.73125 0
M  V30 2806 H 253.686 0.27634 -0.655101 0
M  V30 2807 H 256.288 0.0863469 -1.95309 0
M  V30 2808 H 254.992 0.856248 -4.01368 0
M  V30 2809 H 254.523 2.3373 -3.16439 0
M  V30 2810 H 256.538 3.56705 -3.44929 0
M  V30 2811 N 255.711 1.52812 0.385517 0
M  V30 2812 C 256.661 1.74219 1.47078 0
M  V30 2813 C 257.645 0.59632 1.49442 0
M  V30 2814 O 258.837 0.85428 1.5502 0
M  V30 2815 C 255.966 1.9176 2.84751 0
M  V30 2816 C 255.052 3.12289 2.86943 0
M  V30 2817 N 255.443 4.34575 2.58802 0
M  V30 2818 C 253.741 3.12605 3.1811 0
M  V30 2819 C 254.442 5.162 2.68166 0
M  V30 2820 N 253.418 4.51964 3.02043 0
M  V30 2821 H 257.22 2.6639 1.24152 0
M  V30 2822 H 254.734 1.51166 0.593504 0
M  V30 2823 H 256.731 2.05218 3.62893 0
M  V30 2824 H 255.391 1.00805 3.08656 0
M  V30 2825 H 256.402 4.62649 2.32759 0
M  V30 2826 H 253.079 2.31472 3.47458 0
M  V30 2827 H 254.469 6.23689 2.49923 0
M  V30 2828 N 257.189 -0.644168 1.43834 0
M  V30 2829 C 258.121 -1.76955 1.45669 0
M  V30 2830 C 259.134 -1.58956 0.351666 0
M  V30 2831 O 260.323 -1.6751 0.616644 0
M  V30 2832 C 257.423 -3.14507 1.26248 0
M  V30 2833 C 256.596 -3.59083 2.49757 0
M  V30 2834 C 255.655 -4.75467 2.25427 0
M  V30 2835 O 254.681 -4.84444 2.98836 0
M  V30 2836 N 255.883 -5.66289 1.27661 0
M  V30 2837 H 258.648 -1.75856 2.42682 0
M  V30 2838 H 256.209 -0.828312 1.39106 0
M  V30 2839 H 258.201 -3.90067 1.0784 0
M  V30 2840 H 256.771 -3.10325 0.376478 0
M  V30 2841 H 255.991 -2.7387 2.8353 0
M  V30 2842 H 257.279 -3.85613 3.31934 0
M  V30 2843 H 256.677 -5.61718 0.670064 0
M  V30 2844 H 255.234 -6.41533 1.15234 0
M  V30 2845 N 258.668 -1.30515 -0.883378 0
M  V30 2846 C 259.615 -1.17032 -1.98927 0
M  V30 2847 C 260.585 -0.0594241 -1.65994 0
M  V30 2848 O 261.77 -0.229895 -1.8941 0
M  V30 2849 C 258.91 -0.869777 -3.33959 0
M  V30 2850 C 258.023 -2.06271 -3.79574 0
M  V30 2851 C 257.158 -1.70011 -5.03259 0
M  V30 2852 C 256.197 -2.8579 -5.41286 0
M  V30 2853 N 255.334 -2.49816 -6.56153 0
M  V30 2854 H 260.174 -2.1164 -2.09792 0
M  V30 2855 H 257.711 -1.05296 -1.02719 0
M  V30 2856 H 259.669 -0.676138 -4.11685 0
M  V30 2857 H 258.299 0.0394332 -3.22776 0
M  V30 2858 H 257.351 -2.36755 -2.97744 0
M  V30 2859 H 258.663 -2.92971 -4.03694 0
M  V30 2860 H 257.817 -1.47032 -5.88614 0
M  V30 2861 H 256.556 -0.804829 -4.81013 0
M  V30 2862 H 255.561 -3.09434 -4.54456 0
M  V30 2863 H 256.786 -3.76008 -5.65504 0
M  V30 2864 H 254.732 -1.62795 -6.35479 0
M  V30 2865 H 254.649 -3.30048 -6.8015 0
M  V30 2866 H 255.917 -2.30197 -7.44735 0
M  V30 2867 N 260.146 1.09593 -1.13257 0
M  V30 2868 C 261.376 1.85231 -0.915049 0
M  V30 2869 C 261.784 1.81345 0.539498 0
M  V30 2870 O 261.127 1.20664 1.38513 0
M  V30 2871 C 261.189 3.34275 -1.3229 0
M  V30 2872 C 260.853 3.6191 -2.79052 0
M  V30 2873 C 261.85 3.57777 -3.77216 0
M  V30 2874 C 259.535 3.90309 -3.16171 0
M  V30 2875 C 261.529 3.81652 -5.1051 0
M  V30 2876 C 259.216 4.13839 -4.49644 0
M  V30 2877 C 260.214 4.09502 -5.46623 0
M  V30 2878 O 259.902 4.32426 -6.77689 0
M  V30 2879 H 259.634 0.591997 -0.326367 0
M  V30 2880 H 262.188 1.394 -1.50854 0
M  V30 2881 H 260.418 3.80805 -0.672667 0
M  V30 2882 H 262.107 3.9132 -1.07812 0
M  V30 2883 H 262.873 3.35865 -3.49885 0
M  V30 2884 H 258.752 3.92811 -2.41289 0
M  V30 2885 H 262.296 3.78182 -5.86195 0
M  V30 2886 H 258.193 4.35232 -4.767 0
M  V30 2887 H 258.961 4.49896 -6.83766 0
M  V30 2888 N 261.624 0.925811 1.2754 0
M  V30 2889 C 262.873 0.561084 1.93739 0
M  V30 2890 C 263.186 -0.901685 1.73577 0
M  V30 2891 O 264.392 -1.37511 2.34101 0
M  V30 2892 C 262.848 0.952668 3.47062 0
M  V30 2893 C 262.456 2.43599 3.75983 0
M  V30 2894 C 264.2 0.659103 4.19352 0
M  V30 2895 C 262.107 2.76707 5.22673 0
M  V30 2896 H 261.037 0.206122 0.725279 0
M  V30 2897 H 263.688 1.12637 1.44863 0
M  V30 2898 H 262.07 0.316053 3.94737 0
M  V30 2899 H 263.244 3.12035 3.39073 0
M  V30 2900 H 261.559 2.70125 3.16893 0
M  V30 2901 H 264.156 0.882985 5.27359 0
M  V30 2902 H 264.499 -0.403607 4.14339 0
M  V30 2903 H 265.032 1.25473 3.77494 0
M  V30 2904 H 261.771 3.8188 5.32774 0
M  V30 2905 H 261.291 2.12919 5.60737 0
M  V30 2906 H 262.97 2.6435 5.90532 0
M  V30 2907 N 263.102 -1.41638 0.69111 0
M  V30 2908 C 264.348 -2.01598 0.220519 0
M  V30 2909 C 264.681 -1.54594 -1.17535 0
M  V30 2910 O 263.956 -0.755177 -1.79241 0
M  V30 2911 C 264.239 -3.59062 0.273243 0
M  V30 2912 C 264.092 -4.16203 1.70573 0
M  V30 2913 C 265.411 -4.38546 -0.369457 0
M  V30 2914 H 262.53 -0.732468 0.0816045 0
M  V30 2915 H 265.172 -1.68445 0.878986 0
M  V30 2916 H 263.322 -3.87435 -0.287411 0
M  V30 2917 H 264.994 -3.98722 2.31989 0
M  V30 2918 H 263.237 -3.71414 2.2413 0
M  V30 2919 H 263.908 -5.25358 1.69419 0
M  V30 2920 H 266.384 -4.1596 0.107977 0
M  V30 2921 H 265.26 -5.48069 -0.302002 0
M  V30 2922 H 265.521 -4.17662 -1.44951 0
M  V30 2923 N 264.58 -0.43555 -1.51462 0
M  V30 2924 C 265.53 0.394701 -2.24558 0
M  V30 2925 C 266.514 0.99157 -1.26715 0
M  V30 2926 O 267.706 0.910007 -1.51815 0
M  V30 2927 C 264.835 1.4963 -3.08975 0
M  V30 2928 C 263.921 0.908912 -4.14246 0
M  V30 2929 N 264.312 0.0505335 -5.05775 0
M  V30 2930 C 262.61 1.17668 -4.30198 0
M  V30 2931 C 263.311 -0.279161 -5.8103 0
M  V30 2932 N 262.287 0.336767 -5.42556 0
M  V30 2933 H 266.089 -0.267106 -2.92684 0
M  V30 2934 H 263.603 -0.247518 -1.60503 0
M  V30 2935 H 265.6 2.10394 -3.59917 0
M  V30 2936 H 264.26 2.16046 -2.42393 0
M  V30 2937 H 265.271 -0.31577 -5.16936 0
M  V30 2938 H 261.948 1.83847 -3.74842 0
M  V30 2939 H 263.338 -0.977553 -6.64751 0
M  V30 2940 N 266.058 1.56714 -0.166846 0
M  V30 2941 C 267.474 1.58473 0.189372 0
M  V30 2942 C 267.674 1.18201 1.63189 0
M  V30 2943 O 266.73 0.891528 2.36237 0
M  V30 2944 C 268.043 3.00573 -0.0873872 0
M  V30 2945 C 269.591 3.1299 -0.0252443 0
M  V30 2946 C 270.066 4.57174 -0.274934 0
M  V30 2947 N 271.557 4.62665 -0.222553 0
M  V30 2948 C 272.292 5.72072 -0.389985 0
M  V30 2949 N 271.788 6.90054 -0.616229 0
M  V30 2950 N 273.581 5.61153 -0.326202 0
M  V30 2951 H 265.732 1.8118 -1.10849 0
M  V30 2952 H 267.995 0.839525 -0.440342 0
M  V30 2953 H 267.701 3.34497 -1.0865 0
M  V30 2954 H 267.575 3.72019 0.623037 0
M  V30 2955 H 269.962 2.78895 0.96444 0
M  V30 2956 H 270.043 2.43989 -0.768309 0
M  V30 2957 H 269.687 4.91976 -1.26181 0
M  V30 2958 H 269.617 5.24328 0.48869 0
M  V30 2959 H 272.108 3.77863 -0.0531512 0
M  V30 2960 H 272.421 7.69311 -0.733559 0
M  V30 2961 H 270.766 6.91927 -0.652791 0
M  V30 2962 H 273.957 4.67859 -0.150072 0
M  V30 2963 H 274.13 6.46364 -0.460116 0
M  V30 2964 N 267.536 -0.106894 1.57237 0
M  V30 2965 C 268.813 -0.843526 1.76477 0
M  V30 2966 C 269.193 -1.97499 0.745464 0
M  V30 2967 O 268.541 -2.27357 -0.228306 0
M  V30 2968 C 268.751 -1.34903 3.21873 0
M  V30 2969 C 270.099 -1.79654 3.8472 0
M  V30 2970 O 271.123 -1.44554 3.2555 0
M  V30 2971 O 269.982 -2.44515 4.88748 0
M  V30 2972 H 267.076 -0.401468 0.723016 0
M  V30 2973 H 269.622 -0.0896927 1.69463 0
M  V30 2974 H 268.394 -0.53781 3.87586 0
M  V30 2975 H 268.017 -2.16522 3.33473 0
M  V30 2976 N 269.014 -1.53014 -0.377408 0
M  V30 2977 C 269.944 -1.81589 -1.46791 0
M  V30 2978 C 270.925 -0.668622 -1.56408 0
M  V30 2979 O 272.11 -0.917337 -1.71168 0
M  V30 2980 C 269.24 -1.99519 -2.8427 0
M  V30 2981 C 268.194 -3.15249 -2.89486 0
M  V30 2982 C 267.52 -3.18451 -4.29527 0
M  V30 2983 C 268.82 -4.54084 -2.58079 0
M  V30 2984 H 270.514 -2.7291 -1.23127 0
M  V30 2985 H 268.06 -1.31319 -0.590883 0
M  V30 2986 H 270.013 -2.18092 -3.60575 0
M  V30 2987 H 268.737 -1.04897 -3.09296 0
M  V30 2988 H 267.396 -2.96477 -2.15631 0
M  V30 2989 H 267.044 -2.2149 -4.5161 0
M  V30 2990 H 266.744 -3.962 -4.33934 0
M  V30 2991 H 268.268 -3.39193 -5.07721 0
M  V30 2992 H 269.682 -4.72899 -3.24098 0
M  V30 2993 H 268.079 -5.33987 -2.7382 0
M  V30 2994 H 269.149 -4.60006 -1.53372 0
M  V30 2995 N 270.492 0.636531 -1.44174 0
M  V30 2996 C 271.439 1.74875 -1.50624 0
M  V30 2997 C 272.409 1.62275 -0.35442 0
M  V30 2998 O 273.594 1.82276 -0.563908 0
M  V30 2999 C 270.734 3.13102 -1.45125 0
M  V30 3000 C 269.847 3.36717 -2.7064 0
M  V30 3001 C 268.982 4.64885 -2.57013 0
M  V30 3002 C 268.021 4.8166 -3.77717 0
M  V30 3003 N 267.158 6.01101 -3.62798 0
M  V30 3004 H 271.998 1.68697 -2.45653 0
M  V30 3005 H 269.535 0.823004 -1.21922 0
M  V30 3006 H 271.493 3.93034 -1.39929 0
M  V30 3007 H 270.123 3.18308 -0.536671 0
M  V30 3008 H 269.175 2.50763 -2.86046 0
M  V30 3009 H 270.487 3.44993 -3.60252 0
M  V30 3010 H 269.641 5.52969 -2.49619 0
M  V30 3011 H 268.38 4.58957 -1.64953 0
M  V30 3012 H 267.385 3.92007 -3.85501 0
M  V30 3013 H 268.61 4.89406 -4.70807 0
M  V30 3014 H 266.556 5.96273 -2.73486 0
M  V30 3015 H 266.473 6.10409 -4.46023 0
M  V30 3016 H 267.741 6.91761 -3.59286 0
M  V30 3017 N 271.97 1.30982 0.876444 0
M  V30 3018 C 272.933 1.18054 1.96459 0
M  V30 3019 C 273.933 0.109399 1.60427 0
M  V30 3020 O 275.123 0.358173 1.70478 0
M  V30 3021 C 272.255 0.810616 3.31122 0
M  V30 3022 H 273.448 2.14735 2.09354 0
M  V30 3023 H 271.001 1.145 1.06392 0
M  V30 3024 H 271.736 -0.155322 3.23928 0
M  V30 3025 H 271.521 1.58481 3.58645 0
M  V30 3026 H 273.011 0.743876 4.10921 0
M  V30 3027 N 273.449 -1.08991 1.13837 0
M  V30 3028 C 274.359 -2.19301 0.833333 0
M  V30 3029 C 275.375 -1.73026 -0.183847 0
M  V30 3030 O 276.551 -2.01395 -0.0138092 0
M  V30 3031 C 273.616 -3.45323 0.308651 0
M  V30 3032 C 272.677 -4.06255 1.38764 0
M  V30 3033 C 271.91 -5.26262 0.887896 0
M  V30 3034 O 272.133 -5.69747 -0.27287 0
M  V30 3035 O 271.067 -5.78435 1.66421 0
M  V30 3036 H 274.893 -2.47854 1.75506 0
M  V30 3037 H 272.478 -1.18012 0.916166 0
M  V30 3038 H 274.36 -4.21394 0.0216739 0
M  V30 3039 H 273.035 -3.18362 -0.585431 0
M  V30 3040 H 271.942 -3.318 1.72799 0
M  V30 3041 H 273.275 -4.37452 2.25602 0
M  V30 3042 N 274.927 -0.932562 -1.27047 0
M  V30 3043 C 275.875 -0.42603 -2.28665 0
M  V30 3044 C 276.869 0.49219 -1.62092 0
M  V30 3045 O 278.075 0.371355 -1.76128 0
M  V30 3046 H 274.45 -0.119213 -0.742491 0
M  V30 3047 H 276.421 -1.29579 -2.68797 0
M  V30 3048 C 275.17 0.301426 -3.46391 0
M  V30 3049 H 274.493 -0.39595 -3.97834 0
M  V30 3050 H 275.933 0.6202 -4.1944 0
M  V30 3051 C 274.392 1.51616 -3.00856 0
M  V30 3052 O 274.922 2.61476 -3.04948 0
M  V30 3053 N 273.128 1.36969 -2.56296 0
M  V30 3054 H 272.675 0.475873 -2.53166 0
M  V30 3055 H 272.633 2.18368 -2.26192 0
M  V30 3056 N 276.405 1.4127 -0.698611 0
M  V30 3057 C 277.335 2.33447 -0.049629 0
M  V30 3058 C 278.316 1.51982 0.763898 0
M  V30 3059 O 279.501 1.80509 0.716257 0
M  V30 3060 C 276.631 3.35828 0.885267 0
M  V30 3061 C 275.585 4.27627 0.178613 0
M  V30 3062 C 274.911 5.20406 1.22807 0
M  V30 3063 C 276.211 5.13459 -0.956933 0
M  V30 3064 H 277.905 2.87966 -0.81951 0
M  V30 3065 H 275.451 1.38461 -0.395538 0
M  V30 3066 H 277.404 3.9924 1.34854 0
M  V30 3067 H 276.128 2.79666 1.68685 0
M  V30 3068 H 274.787 3.65643 -0.26466 0
M  V30 3069 H 274.435 4.60558 2.02226 0
M  V30 3070 H 274.135 5.82661 0.760239 0
M  V30 3071 H 275.659 5.86695 1.69179 0
M  V30 3072 H 277.073 5.70421 -0.573805 0
M  V30 3073 H 275.47 5.8467 -1.35205 0
M  V30 3074 H 276.54 4.50443 -1.79524 0
M  V30 3075 N 277.883 0.443576 1.51229 0
M  V30 3076 C 278.813 -0.355142 2.30783 0
M  V30 3077 C 279.794 -1.0154 1.36468 0
M  V30 3078 O 280.979 -1.01785 1.65389 0
M  V30 3079 C 278.109 -1.45312 3.15439 0
M  V30 3080 C 277.063 -0.916002 4.18083 0
M  V30 3081 C 276.389 -2.1102 4.91299 0
M  V30 3082 C 277.689 0.0538602 5.22272 0
M  V30 3083 H 279.383 0.308767 2.97804 0
M  V30 3084 H 276.929 0.149937 1.43217 0
M  V30 3085 H 278.882 -2.01914 3.69876 0
M  V30 3086 H 277.606 -2.14541 2.46252 0
M  V30 3087 H 276.265 -0.372145 3.64706 0
M  V30 3088 H 275.913 -2.78882 4.18609 0
M  V30 3089 H 275.613 -1.75717 5.60712 0
M  V30 3090 H 277.137 -2.68164 5.48562 0
M  V30 3091 H 278.551 -0.422069 5.71744 0
M  V30 3092 H 276.948 0.319776 5.99247 0
M  V30 3093 H 278.018 0.98858 4.74716 0
M  V30 3094 N 279.361 -1.56624 0.175154 0
M  V30 3095 C 280.291 -2.21155 -0.749195 0
M  V30 3096 C 281.272 -1.16836 -1.23626 0
M  V30 3097 O 282.457 -1.45277 -1.28873 0
M  V30 3098 C 279.587 -2.8553 -1.97711 0
M  V30 3099 C 278.541 -3.95921 -1.62575 0
M  V30 3100 C 277.867 -4.47365 -2.92864 0
M  V30 3101 C 279.167 -5.15323 -0.850838 0
M  V30 3102 H 280.861 -2.98653 -0.211295 0
M  V30 3103 H 278.407 -1.43651 -0.100188 0
M  V30 3104 H 280.36 -3.2935 -2.62881 0
M  V30 3105 H 279.084 -2.05406 -2.53921 0
M  V30 3106 H 277.743 -3.52762 -0.997719 0
M  V30 3107 H 277.391 -3.64027 -3.47122 0
M  V30 3108 H 277.091 -5.21839 -2.70106 0
M  V30 3109 H 278.615 -4.93873 -3.59056 0
M  V30 3110 H 280.029 -5.55812 -1.40521 0
M  V30 3111 H 278.426 -5.95739 -0.722154 0
M  V30 3112 H 279.496 -4.84661 0.152082 0
M  V30 3113 N 280.839 0.0985539 -1.57292 0
M  V30 3114 C 282.116 0.834155 -1.76921 0
M  V30 3115 C 282.496 1.97101 -0.755928 0
M  V30 3116 O 281.844 2.27474 0.216245 0
M  V30 3117 C 282.054 1.33194 -3.22584 0
M  V30 3118 C 283.402 1.77611 -3.85668 0
M  V30 3119 O 284.426 1.42825 -3.26312 0
M  V30 3120 O 283.285 2.4192 -4.90038 0
M  V30 3121 H 280.379 0.397628 -0.725135 0
M  V30 3122 H 282.925 0.0807044 -1.69508 0
M  V30 3123 H 281.697 0.517248 -3.87866 0
M  V30 3124 H 281.32 2.1475 -3.34616 0
M  V30 3125 N 282.317 1.53212 0.369288 0
M  V30 3126 C 283.565 1.68881 1.11012 0
M  V30 3127 C 283.886 0.441285 1.89941 0
M  V30 3128 O 283.156 -0.544623 1.88177 0
M  V30 3129 H 281.736 0.622569 0.412816 0
M  V30 3130 H 284.398 1.90391 0.416802 0
M  V30 3131 H 283.494 2.54822 1.80201 0
M  V30 3132 N 283.795 -0.628877 1.44509 0
M  V30 3133 C 285.072 -1.38733 1.37886 0
M  V30 3134 C 285.452 -2.11065 0.0387008 0
M  V30 3135 O 284.8 -2.06476 -0.97878 0
M  V30 3136 C 285.01 -2.35188 2.57852 0
M  V30 3137 C 286.358 -2.9845 3.02014 0
M  V30 3138 O 287.382 -2.45513 2.58073 0
M  V30 3139 O 286.241 -3.94487 3.78209 0
M  V30 3140 H 283.335 -0.621015 0.54614 0
M  V30 3141 H 285.881 -0.653744 1.56602 0
M  V30 3142 H 284.653 -1.80855 3.46998 0
M  V30 3143 H 284.276 -3.1596 2.4136 0
M  V30 3144 N 285.273 -1.31445 -0.869486 0
M  V30 3145 C 286.206 -1.13465 -1.97992 0
M  V30 3146 C 287.184 -0.0380291 -1.62556 0
M  V30 3147 O 288.368 -0.194544 -1.87493 0
M  V30 3148 C 285.495 -0.733822 -3.30655 0
M  V30 3149 C 284.541 -1.83356 -3.85075 0
M  V30 3150 S 285.374 -3.43909 -4.10472 0
M  V30 3151 C 286.53 -3.05763 -5.46132 0
M  V30 3152 H 286.763 -2.07471 -2.1294 0
M  V30 3153 H 284.296 -1.15936 -1.01972 0
M  V30 3154 H 286.254 -0.509306 -4.07328 0
M  V30 3155 H 284.915 0.187123 -3.13542 0
M  V30 3156 H 284.108 -1.50574 -4.80982 0
M  V30 3157 H 283.71 -2.01315 -3.15195 0
M  V30 3158 H 286.002 -2.54686 -6.27807 0
M  V30 3159 H 286.945 -4.00635 -5.83864 0
M  V30 3160 H 287.353 -2.43192 -5.09429 0
M  V30 3161 N 286.751 1.08385 -1.14413 0
M  V30 3162 C 287.699 2.17406 -0.826888 0
M  V30 3163 C 288.693 1.6827 0.195312 0
M  V30 3164 O 289.899 1.79927 0.0513892 0
M  V30 3165 H 286.274 0.70934 -0.249681 0
M  V30 3166 H 288.245 2.41388 -1.75426 0
M  V30 3167 C 286.994 3.46215 -0.320979 0
M  V30 3168 H 286.317 3.84401 -1.0989 0
M  V30 3169 H 287.757 4.23777 -0.137549 0
M  V30 3170 C 286.216 3.23067 0.955472 0
M  V30 3171 O 286.746 3.4668 2.02918 0
M  V30 3172 N 284.952 2.7661 0.890798 0
M  V30 3173 H 284.499 2.57594 0.0168815 0
M  V30 3174 H 284.457 2.61501 1.74542 0
M  V30 3175 N 288.23 0.939286 1.26551 0
M  V30 3176 C 289.479 0.581601 1.93133 0
M  V30 3177 C 289.792 -0.883224 1.74524 0
M  V30 3178 O 290.998 -1.3502 2.35546 0
M  V30 3179 C 289.454 0.989425 3.46032 0
M  V30 3180 C 289.062 2.47573 3.73379 0
M  V30 3181 C 290.806 0.703544 4.18629 0
M  V30 3182 C 288.713 2.82235 5.19709 0
M  V30 3183 H 287.643 0.213803 0.723052 0
M  V30 3184 H 290.294 1.14167 1.4366 0
M  V30 3185 H 288.676 0.357902 3.94379 0
M  V30 3186 H 289.85 3.15614 3.35744 0
M  V30 3187 H 288.165 2.73471 3.1401 0
M  V30 3188 H 290.762 0.938869 5.26393 0
M  V30 3189 H 291.105 -0.359639 4.14744 0
M  V30 3190 H 291.638 1.2947 3.76141 0
M  V30 3191 H 288.377 3.87509 5.28694 0
M  V30 3192 H 287.897 2.18854 5.58447 0
M  V30 3193 H 289.576 2.70599 5.87695 0
M  V30 3194 N 289.708 -1.40897 0.706093 0
M  V30 3195 C 290.655 -2.30751 0.0474474 0
M  V30 3196 C 291.625 -1.47678 -0.76029 0
M  V30 3197 O 292.81 -1.76441 -0.726177 0
M  V30 3198 C 289.95 -3.33815 -0.875309 0
M  V30 3199 C 289.063 -4.31961 -0.0580623 0
M  V30 3200 C 288.198 -5.22093 -0.979425 0
M  V30 3201 C 287.237 -6.11902 -0.155706 0
M  V30 3202 N 286.374 -6.94482 -1.03144 0
M  V30 3203 H 291.214 -2.86513 0.819413 0
M  V30 3204 H 288.751 -1.41102 0.415783 0
M  V30 3205 H 290.709 -3.92129 -1.42446 0
M  V30 3206 H 289.339 -2.79579 -1.61356 0
M  V30 3207 H 288.391 -3.75507 0.608147 0
M  V30 3208 H 289.703 -4.95415 0.580082 0
M  V30 3209 H 288.857 -5.85292 -1.59744 0
M  V30 3210 H 287.596 -4.5889 -1.65141 0
M  V30 3211 H 286.601 -5.47742 0.475309 0
M  V30 3212 H 287.826 -6.77162 0.512635 0
M  V30 3213 H 285.772 -6.33877 -1.68924 0
M  V30 3214 H 285.689 -7.54665 -0.449108 0
M  V30 3215 H 286.957 -7.6214 -1.63593 0
M  V30 3216 N 291.186 -0.45159 -1.50991 0
M  V30 3217 C 292.435 0.111653 -2.01391 0
M  V30 3218 C 292.748 1.42529 -1.33959 0
M  V30 3219 O 293.954 2.07232 -1.75405 0
M  V30 3220 C 292.41 0.249514 -3.59034 0
M  V30 3221 C 292.018 -1.05453 -4.35412 0
M  V30 3222 C 293.762 0.765762 -4.17536 0
M  V30 3223 C 291.669 -0.881529 -5.84793 0
M  V30 3224 H 290.599 0.0455022 -0.752626 0
M  V30 3225 H 293.25 -0.583524 -1.73975 0
M  V30 3226 H 291.632 1.00803 -3.82955 0
M  V30 3227 H 292.806 -1.82248 -4.23229 0
M  V30 3228 H 291.121 -1.50039 -3.88429 0
M  V30 3229 H 293.718 0.911913 -5.26866 0
M  V30 3230 H 294.061 1.75201 -3.77638 0
M  V30 3231 H 294.594 0.0651744 -3.97747 0
M  V30 3232 H 291.333 -1.84057 -6.29129 0
M  V30 3233 H 290.853 -0.153625 -5.99603 0
M  V30 3234 H 292.532 -0.540363 -6.4474 0
M  V30 3235 N 292.664 1.56529 -0.183458 0
M  V30 3236 C 293.627 2.17324 0.728223 0
M  V30 3237 C 294.627 1.12453 1.14939 0
M  V30 3238 O 295.817 1.37902 1.06437 0
M  V30 3239 C 292.949 2.76591 1.99274 0
M  V30 3240 H 294.142 2.99241 0.198772 0
M  V30 3241 H 291.695 1.5616 0.0661391 0
M  V30 3242 H 292.43 1.98441 2.56499 0
M  V30 3243 H 292.215 3.5335 1.69959 0
M  V30 3244 H 293.705 3.23311 2.6431 0
M  V30 3245 N 294.142 -0.090211 1.57342 0
M  V30 3246 C 295.419 -0.824761 1.77361 0
M  V30 3247 C 295.799 -1.96698 0.76637 0
M  V30 3248 O 295.147 -2.27586 -0.204179 0
M  V30 3249 C 295.357 -1.31481 3.23286 0
M  V30 3250 C 296.705 -1.75563 3.86604 0
M  V30 3251 O 297.729 -1.41093 3.27065 0
M  V30 3252 O 296.588 -2.39317 4.91314 0
M  V30 3253 H 293.682 -0.393776 0.727234 0
M  V30 3254 H 296.228 -0.0717138 1.69548 0
M  V30 3255 H 295 -0.496671 3.88135 0
M  V30 3256 H 294.623 -2.12973 3.35751 0
M  V30 3257 N 295.62 -1.53406 -0.361157 0
M  V30 3258 C 296.867 -1.69802 -1.10333 0
M  V30 3259 C 297.195 -0.452087 -1.89173 0
M  V30 3260 O 296.45 0.566017 -1.87336 0
M  V30 3261 C 296.749 -2.90211 -2.08596 0
M  V30 3262 C 296.415 -4.26539 -1.46203 0
M  V30 3263 C 295.077 -4.6361 -1.28915 0
M  V30 3264 C 297.429 -5.113 -1.01101 0
M  V30 3265 C 294.757 -5.83075 -0.651157 0
M  V30 3266 C 297.109 -6.31415 -0.387007 0
M  V30 3267 C 295.773 -6.67195 -0.201657 0
M  V30 3268 H 295.043 -0.621351 -0.403737 0
M  V30 3269 H 297.69 -1.87598 -0.384609 0
M  V30 3270 H 295.995 -2.66946 -2.86788 0
M  V30 3271 H 297.692 -3.00091 -2.65982 0
M  V30 3272 H 294.282 -3.97352 -1.60653 0
M  V30 3273 H 298.466 -4.83206 -1.13249 0
M  V30 3274 H 293.722 -6.09385 -0.496006 0
M  V30 3275 H 297.896 -6.96394 -0.0293563 0
M  V30 3276 H 295.523 -7.59628 0.294766 0
M  V30 3277 N 297.098 0.621204 -1.44841 0
M  V30 3278 C 298.346 1.37783 -1.47852 0
M  V30 3279 C 298.667 1.94653 -0.116224 0
M  V30 3280 O 297.937 1.76367 0.852737 0
M  V30 3281 H 296.517 0.511453 -0.544449 0
M  V30 3282 H 299.179 0.730446 -1.80694 0
M  V30 3283 H 298.275 2.20414 -2.20961 0
M  V30 3284 N 298.576 1.31904 0.862503 0
M  V30 3285 C 299.823 1.22017 1.61611 0
M  V30 3286 C 300.151 -0.21991 1.93253 0
M  V30 3287 O 299.406 -1.17076 1.56817 0
M  V30 3288 C 299.705 2.01713 2.95037 0
M  V30 3289 C 299.371 3.51145 2.82857 0
M  V30 3290 C 298.033 3.91889 2.79243 0
M  V30 3291 C 300.385 4.46204 2.69353 0
M  V30 3292 C 297.713 5.25947 2.59993 0
M  V30 3293 C 300.065 5.80397 2.5164 0
M  V30 3294 C 298.729 6.20352 2.46413 0
M  V30 3295 H 297.999 0.44649 0.591378 0
M  V30 3296 H 300.646 1.63248 1.00111 0
M  V30 3297 H 298.951 1.53185 3.60613 0
M  V30 3298 H 300.648 1.91437 3.52353 0
M  V30 3299 H 297.238 3.1878 2.86491 0
M  V30 3300 H 301.422 4.15652 2.71196 0
M  V30 3301 H 296.678 5.5597 2.54376 0
M  V30 3302 H 300.852 6.53676 2.40169 0
M  V30 3303 H 298.479 7.24172 2.31256 0
M  V30 3304 N 300.054 -1.07777 1.14986 0
M  V30 3305 C 301.279 -1.84558 0.946213 0
M  V30 3306 C 301.704 -1.81323 -0.500362 0
M  V30 3307 O 301.062 -1.20301 -1.35637 0
M  V30 3308 C 301.11 -3.29736 1.45968 0
M  V30 3309 O 300.214 -4.07149 0.65601 0
M  V30 3310 H 299.555 -0.571641 0.33782 0
M  V30 3311 H 302.085 -1.35991 1.52865 0
M  V30 3312 H 302.095 -3.80574 1.47063 0
M  V30 3313 H 300.77 -3.31406 2.51283 0
M  V30 3314 H 299.347 -3.65994 0.714322 0
M  V30 3315 N 301.532 -0.945985 -1.26051 0
M  V30 3316 C 302.48 -0.450259 -2.282 0
M  V30 3317 C 303.474 0.47497 -1.62605 0
M  V30 3318 O 304.68 0.352653 -1.76512 0
M  V30 3319 H 301.055 -0.127081 -0.741184 0
M  V30 3320 H 303.026 -1.32422 -2.67408 0
M  V30 3321 C 301.775 0.26467 -3.46691 0
M  V30 3322 H 301.098 -0.438123 -3.97392 0
M  V30 3323 H 302.538 0.575678 -4.20074 0
M  V30 3324 C 300.997 1.48416 -3.02447 0
M  V30 3325 O 301.527 2.58227 -3.07704 0
M  V30 3326 N 299.733 1.34243 -2.57735 0
M  V30 3327 H 299.28 0.448994 -2.53657 0
M  V30 3328 H 299.238 2.15957 -2.28495 0
M  V30 3329 N 303.011 1.40521 -0.713556 0
M  V30 3330 C 303.921 2.34522 -0.0606667 0
M  V30 3331 C 304.937 1.57193 0.74607 0
M  V30 3332 O 306.113 1.89591 0.679493 0
M  V30 3333 C 303.178 3.36081 0.851491 0
M  V30 3334 C 302.239 4.29286 0.0349339 0
M  V30 3335 C 301.472 5.25994 0.903649 0
M  V30 3336 O 301.695 5.28616 2.14292 0
M  V30 3337 O 300.629 6.00918 0.343723 0
M  V30 3338 H 304.455 2.91968 -0.835972 0
M  V30 3339 H 302.04 1.41681 -0.47402 0
M  V30 3340 H 303.922 3.98369 1.37404 0
M  V30 3341 H 302.597 2.81052 1.60598 0
M  V30 3342 H 301.504 3.70289 -0.532633 0
M  V30 3343 H 302.837 4.87462 -0.681287 0
M  V30 3344 N 304.489 0.459591 1.5075 0
M  V30 3345 C 305.736 -0.0993495 2.02256 0
M  V30 3346 C 306.064 -1.40751 1.34237 0
M  V30 3347 O 305.319 -1.90379 0.453228 0
M  V30 3348 C 305.618 -0.342866 3.55752 0
M  V30 3349 C 305.284 0.88218 4.42186 0
M  V30 3350 C 303.946 1.21808 4.65528 0
M  V30 3351 C 306.298 1.69837 4.92752 0
M  V30 3352 C 303.626 2.37045 5.36681 0
M  V30 3353 C 305.978 2.84192 5.65171 0
M  V30 3354 C 304.642 3.1821 5.8677 0
M  V30 3355 H 303.912 -0.0363545 0.740108 0
M  V30 3356 H 306.559 0.611329 1.8148 0
M  V30 3357 H 304.864 -1.13567 3.7498 0
M  V30 3358 H 306.561 -0.789121 3.93159 0
M  V30 3359 H 303.151 0.610467 4.2423 0
M  V30 3360 H 307.335 1.45205 4.74583 0
M  V30 3361 H 302.591 2.63689 5.51614 0
M  V30 3362 H 306.765 3.4779 6.03337 0
M  V30 3363 H 304.392 4.07613 6.41682 0
M  V30 3364 N 305.967 -1.56429 0.191757 0
M  V30 3365 C 307.195 -2.01867 -0.453586 0
M  V30 3366 C 307.61 -1.07191 -1.5542 0
M  V30 3367 O 306.967 -0.0762108 -1.82341 0
M  V30 3368 C 307.018 -3.47017 -1.013 0
M  V30 3369 O 306.739 -4.38078 0.0437005 0
M  V30 3370 C 308.24 -4.07956 -1.73456 0
M  V30 3371 H 305.46 -0.661211 -0.114199 0
M  V30 3372 H 308.004 -2.02295 0.299483 0
M  V30 3373 H 306.159 -3.47298 -1.71647 0
M  V30 3374 H 306.573 -5.23178 -0.372212 0
M  V30 3375 H 308.047 -5.1138 -2.07833 0
M  V30 3376 H 308.524 -3.51222 -2.63704 0
M  V30 3377 H 309.13 -4.11437 -1.07702 0
M  V30 3378 N 307.445 0.0818655 -1.57387 0
M  V30 3379 C 308.691 0.784074 -1.8703 0
M  V30 3380 C 309.024 1.77729 -0.782689 0
M  V30 3381 O 308.299 1.93384 0.208051 0
M  V30 3382 C 308.582 1.50105 -3.27323 0
M  V30 3383 C 308.435 0.524925 -4.46727 0
M  V30 3384 C 309.754 2.44843 -3.65705 0
M  V30 3385 H 306.873 0.283582 -0.680257 0
M  V30 3386 H 309.515 0.0474352 -1.89941 0
M  V30 3387 H 307.665 2.12897 -3.24972 0
M  V30 3388 H 309.337 -0.0970111 -4.61198 0
M  V30 3389 H 307.58 -0.160606 -4.33503 0
M  V30 3390 H 308.251 1.064 -5.41648 0
M  V30 3391 H 310.727 1.92135 -3.69085 0
M  V30 3392 H 309.603 2.92018 -4.64776 0
M  V30 3393 H 309.864 3.29197 -2.95096 0
M  V30 3394 N 308.923 1.53595 0.353017 0
M  V30 3395 C 310.171 1.70049 1.09215 0
M  V30 3396 C 310.492 0.461406 1.89463 0
M  V30 3397 O 309.762 -0.524633 1.88744 0
M  V30 3398 H 308.342 0.626912 0.40619 0
M  V30 3399 H 311.004 1.90822 0.396585 0
M  V30 3400 H 310.1 2.56718 1.77488 0
M  V30 3401 N 310.401 -0.613514 1.45168 0
M  V30 3402 C 311.349 -1.74572 1.53712 0
M  V30 3403 C 312.343 -1.64426 0.407505 0
M  V30 3404 O 313.549 -1.70291 0.583176 0
M  V30 3405 H 309.924 -0.576641 0.48269 0
M  V30 3406 H 311.895 -1.64492 2.48968 0
M  V30 3407 C 310.644 -3.12943 1.51532 0
M  V30 3408 H 309.967 -3.21407 2.37776 0
M  V30 3409 H 311.407 -3.9201 1.61569 0
M  V30 3410 C 309.866 -3.36053 0.238798 0
M  V30 3411 O 310.396 -3.95837 -0.6838 0
M  V30 3412 N 308.602 -2.9028 0.136359 0
M  V30 3413 H 308.149 -2.41811 0.887999 0
M  V30 3414 H 308.107 -3.06116 -0.716944 0
M  V30 3415 N 311.879 -1.3236 -0.855495 0
M  V30 3416 C 312.826 -1.21225 -1.964 0
M  V30 3417 C 313.796 -0.0946204 -1.6583 0
M  V30 3418 O 314.981 -0.27002 -1.8888 0
M  V30 3419 C 312.121 -0.940419 -3.32039 0
M  V30 3420 C 311.234 -2.14276 -3.75113 0
M  V30 3421 C 310.369 -1.80648 -4.9954 0
M  V30 3422 C 309.408 -2.97208 -5.35102 0
M  V30 3423 N 308.545 -2.63678 -6.50706 0
M  V30 3424 H 313.385 -2.16042 -2.05255 0
M  V30 3425 H 310.922 -1.07451 -1.00463 0
M  V30 3426 H 312.88 -0.763311 -4.10158 0
M  V30 3427 H 311.51 -0.0290413 -3.22787 0
M  V30 3428 H 310.562 -2.43017 -2.92655 0
M  V30 3429 H 311.874 -3.01468 -3.97389 0
M  V30 3430 H 311.028 -1.59484 -5.85363 0
M  V30 3431 H 309.767 -0.906678 -4.79198 0
M  V30 3432 H 308.772 -3.19004 -4.47791 0
M  V30 3433 H 309.997 -3.87918 -5.57401 0
M  V30 3434 H 307.943 -1.76238 -6.31883 0
M  V30 3435 H 307.86 -3.444 -6.72997 0
M  V30 3436 H 309.128 -2.45942 -7.39684 0
M  V30 3437 N 313.357 1.07166 -1.15556 0
M  V30 3438 C 314.287 2.16403 -0.877046 0
M  V30 3439 C 315.268 1.69217 0.173111 0
M  V30 3440 O 316.453 1.94181 0.027084 0
M  V30 3441 C 313.583 3.45349 -0.367632 0
M  V30 3442 C 312.537 4.05995 -1.35468 0
M  V30 3443 C 311.863 5.30045 -0.704038 0
M  V30 3444 C 313.163 4.45804 -2.72132 0
M  V30 3445 H 314.857 2.39959 -1.79053 0
M  V30 3446 H 312.403 1.15325 -0.862331 0
M  V30 3447 H 314.356 4.21095 -0.160317 0
M  V30 3448 H 313.08 3.21385 0.581326 0
M  V30 3449 H 311.739 3.32296 -1.54839 0
M  V30 3450 H 311.387 5.02373 0.251128 0
M  V30 3451 H 311.087 5.71579 -1.36277 0
M  V30 3452 H 312.611 6.08495 -0.50654 0
M  V30 3453 H 314.025 5.12671 -2.56595 0
M  V30 3454 H 312.422 4.98296 -3.34397 0
M  V30 3455 H 313.492 3.57083 -3.28054 0
M  V30 3456 N 314.835 0.952656 1.25548 0
M  V30 3457 C 316.112 0.523818 1.88456 0
M  V30 3458 C 316.492 -0.998871 1.85973 0
M  V30 3459 O 315.84 -1.86381 1.3219 0
M  V30 3460 C 316.05 1.0982 3.31271 0
M  V30 3461 C 317.398 1.17385 4.08051 0
M  V30 3462 O 318.422 1.04961 3.40384 0
M  V30 3463 O 317.281 1.36852 5.29088 0
M  V30 3464 H 314.375 0.172485 0.808813 0
M  V30 3465 H 316.921 1.04596 1.33633 0
M  V30 3466 H 315.693 2.1415 3.27499 0
M  V30 3467 H 315.316 0.559191 3.93648 0
M  V30 3468 N 316.313 -1.40141 0.720998 0
M  V30 3469 C 317.541 -2.05096 0.272656 0
M  V30 3470 C 317.956 -1.54334 -1.0875 0
M  V30 3471 O 317.313 -0.702211 -1.6845 0
M  V30 3472 C 317.364 -3.60636 0.249835 0
M  V30 3473 O 317.085 -4.09526 1.55629 0
M  V30 3474 C 318.586 -4.42772 -0.216396 0
M  V30 3475 H 315.806 -0.659897 0.121558 0
M  V30 3476 H 318.35 -1.79449 0.980723 0
M  V30 3477 H 316.505 -3.85232 -0.409237 0
M  V30 3478 H 316.919 -5.03758 1.4604 0
M  V30 3479 H 318.393 -5.51702 -0.181212 0
M  V30 3480 H 318.87 -4.20756 -1.25941 0
M  V30 3481 H 319.476 -4.23294 0.412596 0
M  V30 3482 N 317.792 -0.46758 -1.50504 0
M  V30 3483 C 319.039 0.0886219 -2.02306 0
M  V30 3484 C 319.367 1.40037 -1.34981 0
M  V30 3485 O 318.622 1.90136 -0.463318 0
M  V30 3486 C 318.921 0.323995 -3.55928 0
M  V30 3487 C 318.587 -0.905618 -4.41712 0
M  V30 3488 C 317.249 -1.24275 -4.64875 0
M  V30 3489 C 319.601 -1.72448 -4.91845 0
M  V30 3490 C 316.929 -2.39888 -5.35417 0
M  V30 3491 C 319.281 -2.87185 -5.63656 0
M  V30 3492 C 317.945 -3.21317 -5.85074 0
M  V30 3493 H 317.215 0.0324291 -0.74029 0
M  V30 3494 H 319.862 -0.620945 -1.81153 0
M  V30 3495 H 318.167 1.11577 -3.75577 0
M  V30 3496 H 319.864 0.76826 -3.93572 0
M  V30 3497 H 316.454 -0.632956 -4.239 0
M  V30 3498 H 320.638 -1.4772 -4.73806 0
M  V30 3499 H 315.894 -2.66611 -5.50208 0
M  V30 3500 H 320.068 -3.50985 -6.01484 0
M  V30 3501 H 317.695 -4.1101 -6.39511 0
M  V30 3502 N 319.27 1.56325 -0.20005 0
M  V30 3503 C 320.51 1.99619 0.439519 0
M  V30 3504 C 320.874 1.08423 1.58456 0
M  V30 3505 O 322.075 1.40973 2.28867 0
M  V30 3506 C 320.346 3.46314 0.883258 0
M  V30 3507 S 321.905 4.11634 1.51997 0
M  V30 3508 H 318.723 0.697007 0.140363 0
M  V30 3509 H 321.325 1.93118 -0.304282 0
M  V30 3510 H 320.029 4.10381 0.0398967 0
M  V30 3511 H 319.56 3.56643 1.6604 0
M  V30 3512 H 321.575 4.09049 2.8088 0
M  V30 3513 N 320.748 -0.0735177 1.57428 0
M  V30 3514 C 321.996 -0.771472 1.86796 0
M  V30 3515 C 322.317 -1.78201 0.791804 0
M  V30 3516 O 321.587 -1.95074 -0.179718 0
M  V30 3517 H 320.167 -0.28791 0.689287 0
M  V30 3518 H 322.829 -0.0500161 1.94836 0
M  V30 3519 H 321.925 -1.28874 2.8425 0
M  V30 3520 N 322.226 -1.5378 -0.344866 0
M  V30 3521 C 323.451 -1.75211 -1.10977 0
M  V30 3522 C 323.876 -0.48936 -1.81623 0
M  V30 3523 O 323.234 0.557925 -1.72502 0
M  V30 3524 C 323.282 -2.93147 -2.09993 0
M  V30 3525 O 322.386 -2.63203 -3.17487 0
M  V30 3526 H 321.727 -0.581241 -0.321021 0
M  V30 3527 H 324.257 -2.00738 -0.395661 0
M  V30 3528 H 324.267 -3.19898 -2.53237 0
M  V30 3529 H 322.942 -3.84731 -1.5797 0
M  V30 3530 H 321.519 -2.47336 -2.79069 0
M  V30 3531 N 323.704 0.605807 -1.45491 0
M  V30 3532 C 325.115 1.18777 -1.44045 0
M  V30 3533 C 325.466 1.95471 -0.169001 0
M  V30 3534 O 324.591 2.0374 0.729324 0
M  V30 3535 C 325.186 2.16064 -2.60963 0
M  V30 3536 C 323.745 2.69633 -2.62631 0
M  V30 3537 C 322.892 1.45072 -2.36325 0
M  V30 3538 H 325.843 0.395017 -1.53705 0
M  V30 3539 H 325.864 2.9913 -2.35163 0
M  V30 3540 H 325.376 1.60217 -3.53486 0
M  V30 3541 H 323.477 3.29414 -1.74119 0
M  V30 3542 H 323.59 3.13944 -3.61906 0
M  V30 3543 H 321.954 1.74089 -1.85917 0
M  V30 3544 H 322.737 0.910899 -3.30995 0
M  V30 3545 N 325.182 1.32811 0.848464 0
M  V30 3546 C 326.593 1.21315 1.41914 0
M  V30 3547 C 326.944 -0.171847 1.95446 0
M  V30 3548 O 326.069 -1.07093 1.88043 0
M  V30 3549 C 326.664 2.19631 2.57968 0
M  V30 3550 C 325.223 2.12003 3.11017 0
M  V30 3551 C 324.37 2.07651 1.83783 0
M  V30 3552 H 327.321 1.44549 0.655071 0
M  V30 3553 H 327.342 1.79845 3.35315 0
M  V30 3554 H 326.854 3.20423 2.18976 0
M  V30 3555 H 324.955 1.14481 3.54577 0
M  V30 3556 H 325.068 3.02111 3.71841 0
M  V30 3557 H 323.432 1.52983 2.03638 0
M  V30 3558 H 324.215 3.10235 1.47 0
M  V30 3559 N 326.66 -1.06551 1.16123 0
M  V30 3560 C 327.89 -1.8274 0.963838 0
M  V30 3561 C 328.298 -1.82712 -0.491228 0
M  V30 3562 O 327.641 -1.24294 -1.35265 0
M  V30 3563 C 327.703 -3.3065 1.41106 0
M  V30 3564 C 327.367 -3.54384 2.88549 0
M  V30 3565 C 328.364 -3.4765 3.86569 0
M  V30 3566 C 326.049 -3.81789 3.26408 0
M  V30 3567 C 328.043 -3.67982 5.2045 0
M  V30 3568 C 325.73 -4.01772 4.60459 0
M  V30 3569 C 326.728 -3.94866 5.57288 0
M  V30 3570 O 326.416 -4.14306 6.88916 0
M  V30 3571 H 326.148 -0.583136 0.341948 0
M  V30 3572 H 328.702 -1.35351 1.54497 0
M  V30 3573 H 326.932 -3.78887 0.773394 0
M  V30 3574 H 328.621 -3.88324 1.1815 0
M  V30 3575 H 329.387 -3.2647 3.58667 0
M  V30 3576 H 325.266 -3.86276 2.51619 0
M  V30 3577 H 328.81 -3.62507 5.96015 0
M  V30 3578 H 324.707 -4.2244 4.88072 0
M  V30 3579 H 325.475 -4.31609 6.95454 0
M  V30 3580 N 328.138 -0.959301 -1.25041 0
M  V30 3581 C 329.101 -0.487677 -2.23952 0
M  V30 3582 C 330.101 0.41119 -1.55454 0
M  V30 3583 O 331.291 0.207825 -1.72956 0
M  V30 3584 C 328.423 0.294807 -3.39623 0
M  V30 3585 H 329.616 -1.36198 -2.67189 0
M  V30 3586 H 327.169 -0.743042 -1.37508 0
M  V30 3587 H 327.904 1.18658 -3.01813 0
M  V30 3588 H 327.689 -0.35012 -3.90534 0
M  V30 3589 H 329.179 0.614089 -4.1306 0
M  V30 3590 N 329.616 1.39756 -0.72842 0
M  V30 3591 C 330.579 2.29012 -0.0927297 0
M  V30 3592 C 331.579 1.45992 0.674025 0
M  V30 3593 O 332.769 1.66749 0.50402 0
M  V30 3594 C 329.901 3.29396 0.878137 0
M  V30 3595 H 331.094 2.86729 -0.879011 0
M  V30 3596 H 328.647 1.48293 -0.493847 0
M  V30 3597 H 329.382 2.76722 1.69101 0
M  V30 3598 H 329.167 3.907 0.331051 0
M  V30 3599 H 330.657 3.96199 1.3197 0
M  V30 3600 N 331.094 0.475555 1.50254 0
M  V30 3601 C 332.505 0.0215174 1.86688 0
M  V30 3602 C 332.856 -1.38467 1.39001 0
M  V30 3603 O 331.981 -2.02732 0.756894 0
M  V30 3604 C 332.576 0.0322715 3.38785 0
M  V30 3605 C 331.135 -0.366314 3.74613 0
M  V30 3606 C 330.282 0.415832 2.74164 0
M  V30 3607 H 333.233 0.689612 1.42934 0
M  V30 3608 H 333.254 -0.76889 3.7265 0
M  V30 3609 H 332.766 1.05584 3.73462 0
M  V30 3610 H 330.867 -1.39406 3.45538 0
M  V30 3611 H 330.98 -0.064555 4.79057 0
M  V30 3612 H 329.344 -0.131048 2.54363 0
M  V30 3613 H 330.127 1.43899 3.11686 0
M  V30 3614 N 332.573 -1.56217 0.208337 0
M  V30 3615 C 333.483 -2.23316 -0.718836 0
M  V30 3616 C 334.499 -1.23648 -1.22422 0
M  V30 3617 O 335.675 -1.56423 -1.26861 0
M  V30 3618 C 332.74 -2.88968 -1.91568 0
M  V30 3619 C 331.801 -4.03943 -1.45357 0
M  V30 3620 C 331.034 -4.66455 -2.59337 0
M  V30 3621 O 331.257 -4.27919 -3.77149 0
M  V30 3622 O 330.191 -5.55686 -2.31293 0
M  V30 3623 H 334.017 -3.03182 -0.177315 0
M  V30 3624 H 331.602 -1.49384 -0.0215402 0
M  V30 3625 H 333.484 -3.30455 -2.61491 0
M  V30 3626 H 332.159 -2.12071 -2.44556 0
M  V30 3627 H 331.066 -3.67052 -0.722746 0
M  V30 3628 H 332.399 -4.82543 -0.970219 0
M  V30 3629 N 334.051 0.0651679 -1.57465 0
M  V30 3630 C 334.981 1.07693 -2.07182 0
M  V30 3631 C 335.962 1.39962 -0.966673 0
M  V30 3632 O 337.147 1.49475 -1.2398 0
M  V30 3633 C 334.277 2.3885 -2.52127 0
M  V30 3634 C 333.231 2.20917 -3.66579 0
M  V30 3635 C 332.557 3.57515 -3.97601 0
M  V30 3636 C 333.857 1.62493 -4.9638 0
M  V30 3637 H 335.551 0.663199 -2.91962 0
M  V30 3638 H 333.097 0.317569 -1.40455 0
M  V30 3639 H 335.05 3.09928 -2.85522 0
M  V30 3640 H 333.774 2.82215 -1.64384 0
M  V30 3641 H 332.433 1.52279 -3.33477 0
M  V30 3642 H 332.081 3.98463 -3.06979 0
M  V30 3643 H 331.781 3.46353 -4.74672 0
M  V30 3644 H 333.305 4.30013 -4.33499 0
M  V30 3645 H 334.719 2.23445 -5.27963 0
M  V30 3646 H 333.116 1.62009 -5.77818 0
M  V30 3647 H 334.186 0.587041 -4.81333 0
M  V30 3648 N 335.529 1.53961 0.336706 0
M  V30 3649 C 336.776 1.71536 1.07618 0
M  V30 3650 C 337.104 0.482125 1.8843 0
M  V30 3651 O 336.359 -0.536142 1.88213 0
M  V30 3652 C 336.658 2.93493 2.03953 0
M  V30 3653 C 336.324 4.28811 1.39399 0
M  V30 3654 C 334.986 4.65602 1.21523 0
M  V30 3655 C 337.338 5.12844 0.929541 0
M  V30 3656 C 334.666 5.84037 0.558312 0
M  V30 3657 C 337.018 6.31951 0.286505 0
M  V30 3658 C 335.682 6.67432 0.0954869 0
M  V30 3659 H 334.952 0.627696 0.393801 0
M  V30 3660 H 337.599 1.88186 0.354715 0
M  V30 3661 H 335.904 2.71475 2.82504 0
M  V30 3662 H 337.601 3.04285 2.61174 0
M  V30 3663 H 334.191 3.99858 1.54311 0
M  V30 3664 H 338.375 4.84947 1.05548 0
M  V30 3665 H 333.631 6.10097 0.398995 0
M  V30 3666 H 337.805 6.96352 -0.0814376 0
M  V30 3667 H 335.432 7.59063 -0.415579 0
M  V30 3668 N 337.007 -0.598083 1.45811 0
M  V30 3669 C 337.939 -1.72231 1.51225 0
M  V30 3670 C 338.952 -1.57757 0.402059 0
M  V30 3671 O 340.141 -1.65464 0.669624 0
M  V30 3672 C 337.241 -3.10331 1.3619 0
M  V30 3673 C 336.414 -3.50955 2.61054 0
M  V30 3674 C 335.473 -4.68055 2.40439 0
M  V30 3675 O 334.499 -4.74691 3.14097 0
M  V30 3676 N 335.701 -5.61941 1.45612 0
M  V30 3677 H 338.466 -1.68046 2.48154 0
M  V30 3678 H 336.027 -0.783637 1.41671 0
M  V30 3679 H 338.019 -3.86439 1.20195 0
M  V30 3680 H 336.589 -3.0897 0.475015 0
M  V30 3681 H 335.809 -2.64711 2.92099 0
M  V30 3682 H 337.097 -3.74858 3.44034 0
M  V30 3683 H 336.495 -5.59301 0.848431 0
M  V30 3684 H 335.052 -6.37542 1.35585 0
M  V30 3685 N 338.485 -1.33259 -0.841409 0
M  V30 3686 C 339.733 -1.24326 -1.59334 0
M  V30 3687 C 340.054 0.191564 -1.94057 0
M  V30 3688 O 339.324 1.11967 -1.60749 0
M  V30 3689 H 337.904 -0.457174 -0.590763 0
M  V30 3690 H 340.566 -1.66947 -1.00571 0
M  V30 3691 H 339.662 -1.8352 -2.52442 0
M  V30 3692 N 339.963 1.05934 -1.16686 0
M  V30 3693 C 340.91 2.13499 -0.876748 0
M  V30 3694 C 341.88 1.65162 0.176299 0
M  V30 3695 O 343.065 1.90757 0.0407143 0
M  V30 3696 C 340.205 3.42912 -0.387967 0
M  V30 3697 C 339.318 4.04964 -1.50426 0
M  V30 3698 C 338.453 5.22266 -0.970125 0
M  V30 3699 C 337.492 5.76309 -2.06238 0
M  V30 3700 N 336.629 6.84922 -1.54356 0
M  V30 3701 H 341.469 2.37654 -1.7979 0
M  V30 3702 H 339.006 1.16598 -0.896843 0
M  V30 3703 H 340.964 4.17111 -0.086186 0
M  V30 3704 H 339.594 3.18963 0.496235 0
M  V30 3705 H 338.646 3.28277 -1.92193 0
M  V30 3706 H 339.958 4.41122 -2.32836 0
M  V30 3707 H 339.112 6.03506 -0.621743 0
M  V30 3708 H 337.851 4.87564 -0.115377 0
M  V30 3709 H 336.856 4.93704 -2.41942 0
M  V30 3710 H 338.081 6.13062 -2.92115 0
M  V30 3711 H 336.027 6.52131 -0.711406 0
M  V30 3712 H 335.944 7.20043 -2.30379 0
M  V30 3713 H 337.212 7.69832 -1.22387 0
M  V30 3714 N 341.441 0.965919 1.2453 0
M  V30 3715 C 342.388 0.49402 2.25451 0
M  V30 3716 C 343.358 -0.45948 1.59618 0
M  V30 3717 O 344.543 -0.370238 1.87173 0
M  V30 3718 C 341.683 -0.211359 3.44452 0
M  V30 3719 C 340.796 0.7807 4.24887 0
M  V30 3720 C 339.931 0.0516105 5.31175 0
M  V30 3721 C 338.97 1.03385 6.03306 0
M  V30 3722 N 338.107 0.334887 7.01301 0
M  V30 3723 H 342.947 1.35946 2.65184 0
M  V30 3724 H 340.484 0.681515 1.3036 0
M  V30 3725 H 342.442 -0.637 4.12308 0
M  V30 3726 H 341.072 -1.04077 3.05562 0
M  V30 3727 H 340.124 1.32479 3.56586 0
M  V30 3728 H 341.436 1.52978 4.74762 0
M  V30 3729 H 340.59 -0.432114 6.05159 0
M  V30 3730 H 339.329 -0.730179 4.82203 0
M  V30 3731 H 338.334 1.52847 5.28127 0
M  V30 3732 H 339.559 1.81606 6.54367 0
M  V30 3733 H 337.505 -0.427959 6.54603 0
M  V30 3734 H 337.422 1.02287 7.49048 0
M  V30 3735 H 338.69 -0.126928 7.79397 0
M  V30 3736 N 342.919 -1.39368 0.735821 0
M  V30 3737 C 344.149 -2.04498 0.293967 0
M  V30 3738 C 344.557 -1.55593 -1.07645 0
M  V30 3739 O 343.9 -0.716324 -1.69158 0
M  V30 3740 C 343.962 -3.58836 0.218342 0
M  V30 3741 C 343.626 -4.30721 1.52736 0
M  V30 3742 C 344.623 -4.57305 2.47322 0
M  V30 3743 C 342.308 -4.69251 1.79189 0
M  V30 3744 C 344.302 -5.21429 3.66593 0
M  V30 3745 C 341.989 -5.33104 2.98737 0
M  V30 3746 C 342.987 -5.59125 3.9226 0
M  V30 3747 O 342.675 -6.21653 5.09708 0
M  V30 3748 H 342.407 -0.664118 0.126189 0
M  V30 3749 H 344.961 -1.79385 1.00051 0
M  V30 3750 H 343.191 -3.8285 -0.544314 0
M  V30 3751 H 344.88 -4.05447 -0.191626 0
M  V30 3752 H 345.646 -4.27983 2.28156 0
M  V30 3753 H 341.525 -4.48354 1.07239 0
M  V30 3754 H 345.069 -5.41656 4.39607 0
M  V30 3755 H 340.966 -5.61846 3.17803 0
M  V30 3756 H 341.734 -6.40146 5.10054 0
M  V30 3757 N 344.397 -0.483516 -1.5 0
M  V30 3758 C 345.674 0.129337 -1.95172 0
M  V30 3759 C 346.054 1.55802 -1.4244 0
M  V30 3760 O 345.402 2.19625 -0.630649 0
M  V30 3761 C 345.612 0.0599251 -3.48949 0
M  V30 3762 C 346.96 0.242617 -4.23906 0
M  V30 3763 O 347.984 0.135933 -3.55941 0
M  V30 3764 O 346.843 0.459454 -5.44565 0
M  V30 3765 H 343.937 0.104887 -0.820322 0
M  V30 3766 H 346.483 -0.544807 -1.60717 0
M  V30 3767 H 345.255 -0.937079 -3.79914 0
M  V30 3768 H 344.878 0.774984 -3.89974 0
M  V30 3769 N 345.875 1.56104 -0.216619 0
M  V30 3770 C 347.123 1.97781 0.415593 0
M  V30 3771 C 347.444 1.10536 1.60645 0
M  V30 3772 O 346.714 0.181303 1.95059 0
M  V30 3773 H 345.294 0.730415 0.156534 0
M  V30 3774 H 347.956 1.92445 -0.308366 0
M  V30 3775 H 347.052 3.03072 0.74525 0
M  V30 3776 N 347.353 -0.0568162 1.57498 0
M  V30 3777 C 348.764 -0.606858 1.76562 0
M  V30 3778 C 349.115 -1.77114 0.844094 0
M  V30 3779 O 348.24 -2.16376 0.0318911 0
M  V30 3780 C 348.835 -1.10766 3.20182 0
M  V30 3781 C 347.394 -1.60344 3.40539 0
M  V30 3782 C 346.541 -0.529311 2.72201 0
M  V30 3783 H 349.492 0.169393 1.57793 0
M  V30 3784 H 349.513 -1.97602 3.25167 0
M  V30 3785 H 349.025 -0.26006 3.87228 0
M  V30 3786 H 347.126 -2.47379 2.78629 0
M  V30 3787 H 347.239 -1.67006 4.4905 0
M  V30 3788 H 345.603 -0.977893 2.35179 0
M  V30 3789 H 346.386 0.308352 3.41912 0
M  V30 3790 N 348.832 -1.54138 -0.328536 0
M  V30 3791 C 349.742 -1.86192 -1.42723 0
M  V30 3792 C 350.758 -0.753382 -1.56844 0
M  V30 3793 O 351.934 -1.04718 -1.72035 0
M  V30 3794 C 348.999 -2.07824 -2.77507 0
M  V30 3795 C 348.06 -3.31641 -2.72603 0
M  V30 3796 C 347.293 -3.52232 -4.00959 0
M  V30 3797 O 347.516 -2.7636 -4.9898 0
M  V30 3798 O 346.45 -4.45699 -4.0452 0
M  V30 3799 H 350.276 -2.79608 -1.18547 0
M  V30 3800 H 347.861 -1.3998 -0.522104 0
M  V30 3801 H 349.743 -2.23411 -3.57303 0
M  V30 3802 H 348.418 -1.17596 -3.01584 0
M  V30 3803 H 347.325 -3.21444 -1.91376 0
M  V30 3804 H 348.658 -4.2191 -2.53481 0
M  V30 3805 N 350.31 0.590341 -1.46126 0
M  V30 3806 C 351.556 1.35082 -1.51264 0
M  V30 3807 C 351.889 1.93534 -0.160711 0
M  V30 3808 O 351.164 1.76045 0.826956 0
M  V30 3809 C 351.447 2.48588 -2.6053 0
M  V30 3810 C 351.3 1.95221 -4.05227 0
M  V30 3811 C 352.619 3.50662 -2.6594 0
M  V30 3812 H 349.738 0.489803 -0.550692 0
M  V30 3813 H 352.38 0.663887 -1.78024 0
M  V30 3814 H 350.53 3.07186 -2.37843 0
M  V30 3815 H 352.202 1.41139 -4.39178 0
M  V30 3816 H 350.445 1.26101 -4.15068 0
M  V30 3817 H 351.116 2.77121 -4.77397 0
M  V30 3818 H 353.592 3.01934 -2.86313 0
M  V30 3819 H 352.468 4.27551 -3.44226 0
M  V30 3820 H 352.729 4.07399 -1.71694 0
M  V30 3821 N 351.788 1.33704 0.83433 0
M  V30 3822 C 353.065 1.16011 1.57483 0
M  V30 3823 C 353.445 -0.27176 2.09343 0
M  V30 3824 O 352.793 -1.27146 1.89858 0
M  V30 3825 C 353.003 2.20507 2.70514 0
M  V30 3826 C 354.351 2.54898 3.39577 0
M  V30 3827 O 355.375 2.19209 2.80759 0
M  V30 3828 O 354.234 3.16158 4.45765 0
M  V30 3829 H 351.328 0.448992 0.694503 0
M  V30 3830 H 353.874 1.453 0.876691 0
M  V30 3831 H 352.646 3.16667 2.29865 0
M  V30 3832 H 352.269 1.92329 3.47987 0
M  V30 3833 N 353.266 -1.05314 1.17247 0
M  V30 3834 C 354.512 -1.78557 0.961513 0
M  V30 3835 C 354.845 -1.87419 -0.508697 0
M  V30 3836 O 354.12 -1.37307 -1.37757 0
M  V30 3837 C 354.403 -3.22514 1.60176 0
M  V30 3838 C 354.256 -3.21673 3.14399 0
M  V30 3839 C 355.575 -4.20318 1.30463 0
M  V30 3840 H 352.694 -0.6482 0.350723 0
M  V30 3841 H 355.336 -1.23102 1.44727 0
M  V30 3842 H 353.486 -3.69867 1.18871 0
M  V30 3843 H 355.158 -2.82405 3.64753 0
M  V30 3844 H 353.401 -2.60048 3.47214 0
M  V30 3845 H 354.072 -4.23271 3.54324 0
M  V30 3846 H 356.548 -3.81454 1.66229 0
M  V30 3847 H 355.424 -5.19289 1.77848 0
M  V30 3848 H 355.685 -4.41526 0.22521 0
M  V30 3849 N 354.744 -0.972509 -1.24016 0
M  V30 3850 C 355.99 -0.647583 -1.92816 0
M  V30 3851 C 356.345 0.809015 -1.74564 0
M  V30 3852 O 355.638 1.57502 -1.09103 0
M  V30 3853 C 355.832 -0.963694 -3.44162 0
M  V30 3854 C 355.661 -2.44947 -3.77135 0
M  V30 3855 C 354.431 -3.11012 -3.98246 0
M  V30 3856 C 356.629 -3.42978 -3.83237 0
M  V30 3857 N 354.611 -4.49277 -4.18358 0
M  V30 3858 C 355.982 -4.66619 -4.08248 0
M  V30 3859 C 358.037 -3.37569 -3.65994 0
M  V30 3860 C 356.74 -5.85516 -4.17808 0
M  V30 3861 C 358.766 -4.55822 -3.76802 0
M  V30 3862 C 358.128 -5.78256 -4.02243 0
M  V30 3863 H 354.227 -0.287894 -0.727077 0
M  V30 3864 H 356.811 -1.24835 -1.49413 0
M  V30 3865 H 354.982 -0.391692 -3.8642 0
M  V30 3866 H 356.714 -0.596849 -4.00275 0
M  V30 3867 H 353.469 -2.61529 -3.94841 0
M  V30 3868 H 353.893 -5.20935 -4.32384 0
M  V30 3869 H 358.535 -2.43945 -3.45327 0
M  V30 3870 H 356.253 -6.79564 -4.37285 0
M  V30 3871 H 359.839 -4.53204 -3.64825 0
M  V30 3872 H 358.719 -6.68231 -4.10411 0
M  V30 3873 N 356.222 1.38976 -0.743202 0
M  V30 3874 C 357.447 2.05161 -0.303936 0
M  V30 3875 C 357.872 1.55677 1.05576 0
M  V30 3876 O 357.23 0.704131 1.67068 0
M  V30 3877 C 357.278 3.59138 -0.324373 0
M  V30 3878 O 356.382 4.06668 0.685204 0
M  V30 3879 H 355.723 0.649815 -0.136518 0
M  V30 3880 H 358.253 1.77852 -1.01142 0
M  V30 3881 H 358.263 4.07639 -0.171618 0
M  V30 3882 H 356.938 3.94515 -1.31647 0
M  V30 3883 H 355.515 3.69561 0.497913 0
M  V30 3884 N 357.7 0.491464 1.49741 0
M  V30 3885 C 358.63 -0.28154 2.31796 0
M  V30 3886 C 359.611 -0.971473 1.3963 0
M  V30 3887 O 360.796 -0.964719 1.68543 0
M  V30 3888 C 357.926 -1.35203 3.19902 0
M  V30 3889 C 356.88 -0.782529 4.20786 0
M  V30 3890 C 356.206 -1.95283 4.97764 0
M  V30 3891 C 357.506 0.21999 5.21837 0
M  V30 3892 H 359.2 0.403355 2.96671 0
M  V30 3893 H 356.746 0.195425 1.42668 0
M  V30 3894 H 358.699 -1.90045 3.76113 0
M  V30 3895 H 357.423 -2.06598 2.52953 0
M  V30 3896 H 356.082 -0.255928 3.65706 0
M  V30 3897 H 355.73 -2.65423 4.2727 0
M  V30 3898 H 355.43 -1.57789 5.66018 0
M  V30 3899 H 356.954 -2.50577 5.56816 0
M  V30 3900 H 358.368 -0.23996 5.72798 0
M  V30 3901 H 356.765 0.51026 5.97927 0
M  V30 3902 H 357.835 1.13911 4.7133 0
M  V30 3903 N 359.178 -1.55987 0.224894 0
M  V30 3904 C 360.426 -1.97998 -0.405099 0
M  V30 3905 C 360.747 -1.11387 -1.60056 0
M  V30 3906 O 360.017 -0.191645 -1.9496 0
M  V30 3907 H 358.597 -0.731235 -0.152658 0
M  V30 3908 H 361.259 -1.92279 0.318567 0
M  V30 3909 H 360.355 -3.03463 -0.729167 0
M  V30 3910 N 360.656 0.0484629 -1.57525 0
M  V30 3911 C 361.902 0.744226 -1.88651 0
M  V30 3912 C 362.235 1.76029 -0.820212 0
M  V30 3913 O 361.51 1.93782 0.166985 0
M  V30 3914 C 361.793 1.43128 -3.30434 0
M  V30 3915 C 361.646 0.43005 -4.47739 0
M  V30 3916 C 362.965 2.37031 -3.70816 0
M  V30 3917 H 360.084 0.269089 -0.68612 0
M  V30 3918 H 362.726 0.00713532 -1.89999 0
M  V30 3919 H 360.876 2.05956 -3.29415 0
M  V30 3920 H 362.548 -0.194816 -4.60888 0
M  V30 3921 H 360.791 -0.252522 -4.33064 0
M  V30 3922 H 361.462 0.948874 -5.43783 0
M  V30 3923 H 363.938 1.84263 -3.73077 0
M  V30 3924 H 362.814 2.82094 -4.70865 0
M  V30 3925 H 363.075 3.22864 -3.02012 0
M  V30 3926 N 362.134 1.5431 0.320358 0
M  V30 3927 C 363.383 1.7188 1.05546 0
M  V30 3928 C 363.696 0.501143 1.89071 0
M  V30 3929 O 364.902 0.558258 2.65699 0
M  V30 3930 C 363.358 3.04025 1.92605 0
M  V30 3931 C 362.966 4.33207 1.14176 0
M  V30 3932 C 364.71 3.30959 2.65832 0
M  V30 3933 C 362.617 5.56412 2.00399 0
M  V30 3934 H 361.547 0.640547 0.397763 0
M  V30 3935 H 364.198 1.80802 0.313522 0
M  V30 3936 H 362.58 2.89019 2.7071 0
M  V30 3937 H 363.754 4.58989 0.40819 0
M  V30 3938 H 362.069 4.13062 0.526165 0
M  V30 3939 H 364.666 4.20203 3.30656 0
M  V30 3940 H 365.009 2.48979 3.33639 0
M  V30 3941 H 365.542 3.46847 1.94787 0
M  V30 3942 H 362.281 6.41004 1.37094 0
M  V30 3943 H 361.801 5.34844 2.7148 0
M  V30 3944 H 363.48 5.92938 2.58908 0
M  V30 3945 N 363.613 -0.582584 1.46437 0
M  V30 3946 C 364.543 -1.70187 1.59871 0
M  V30 3947 C 365.524 -1.64066 0.449042 0
M  V30 3948 O 366.709 -1.82081 0.6753 0
M  V30 3949 C 363.839 -3.08827 1.58881 0
M  V30 3950 C 362.793 -3.29779 2.72819 0
M  V30 3951 C 362.119 -4.68947 2.5689 0
M  V30 3952 C 363.419 -3.17601 4.1464 0
M  V30 3953 H 365.113 -1.592 2.53566 0
M  V30 3954 H 362.659 -0.764472 1.22032 0
M  V30 3955 H 364.612 -3.86951 1.66873 0
M  V30 3956 H 363.336 -3.20713 0.617306 0
M  V30 3957 H 361.995 -2.54054 2.64296 0
M  V30 3958 H 361.643 -4.77599 1.57823 0
M  V30 3959 H 361.343 -4.83919 3.33312 0
M  V30 3960 H 362.867 -5.4924 2.66773 0
M  V30 3961 H 364.281 -3.8557 4.24274 0
M  V30 3962 H 362.678 -3.44094 4.9165 0
M  V30 3963 H 363.748 -2.14681 4.34788 0
M  V30 3964 N 365.091 -1.34144 -0.827227 0
M  V30 3965 C 366.321 -1.29138 -1.61267 0
M  V30 3966 C 366.729 0.137597 -1.88699 0
M  V30 3967 O 366.072 1.09379 -1.47587 0
M  V30 3968 C 366.134 -2.0097 -2.9808 0
M  V30 3969 C 365.798 -3.50242 -2.93563 0
M  V30 3970 C 366.795 -4.4523 -2.68452 0
M  V30 3971 C 364.48 -3.92592 -3.13331 0
M  V30 3972 C 366.474 -5.80542 -2.63154 0
M  V30 3973 C 364.161 -5.28005 -3.07658 0
M  V30 3974 C 365.159 -6.21792 -2.82602 0
M  V30 3975 O 364.847 -7.54723 -2.76853 0
M  V30 3976 H 364.579 -0.445851 -0.508127 0
M  V30 3977 H 367.133 -1.77263 -1.03763 0
M  V30 3978 H 365.363 -1.47451 -3.57484 0
M  V30 3979 H 367.052 -1.89309 -3.5905 0
M  V30 3980 H 367.818 -4.13832 -2.52919 0
M  V30 3981 H 363.697 -3.19994 -3.31851 0
M  V30 3982 H 367.241 -6.53717 -2.43516 0
M  V30 3983 H 363.138 -5.59023 -3.22743 0
M  V30 3984 H 363.906 -7.64409 -2.92611 0
M  V30 3985 N 366.569 1.04691 -1.17803 0
M  V30 3986 C 367.797 1.81446 -0.99423 0
M  V30 3987 C 368.212 1.83174 0.457459 0
M  V30 3988 O 367.569 1.26265 1.31771 0
M  V30 3989 C 367.62 3.27334 -1.5341 0
M  V30 3990 O 367.341 3.25798 -2.92895 0
M  V30 3991 C 368.842 4.20759 -1.39559 0
M  V30 3992 H 366.062 0.571599 -0.351447 0
M  V30 3993 H 368.606 1.31982 -1.56208 0
M  V30 3994 H 366.761 3.74052 -1.00815 0
M  V30 3995 H 367.175 4.17144 -3.17949 0
M  V30 3996 H 368.649 5.21084 -1.82141 0
M  V30 3997 H 369.126 4.37856 -0.343394 0
M  V30 3998 H 369.732 3.79901 -1.91195 0
M  V30 3999 N 368.047 0.979072 1.23499 0
M  V30 4000 C 368.977 0.537606 2.27227 0
M  V30 4001 C 369.958 -0.428539 1.64613 0
M  V30 4002 O 371.143 -0.322191 1.91509 0
M  V30 4003 C 368.273 -0.162052 3.46922 0
M  V30 4004 C 367.227 0.721242 4.21879 0
M  V30 4005 C 366.553 -0.110555 5.34586 0
M  V30 4006 C 367.853 2.01141 4.82016 0
M  V30 4007 H 369.547 1.40462 2.64406 0
M  V30 4008 H 367.093 0.67684 1.27102 0
M  V30 4009 H 369.046 -0.482192 4.18632 0
M  V30 4010 H 367.77 -1.06351 3.08799 0
M  V30 4011 H 366.429 1.02482 3.51984 0
M  V30 4012 H 366.077 -1.0125 4.92704 0
M  V30 4013 H 365.777 0.477325 5.85658 0
M  V30 4014 H 367.301 -0.425107 6.09118 0
M  V30 4015 H 368.715 1.75612 5.45741 0
M  V30 4016 H 367.112 2.54695 5.43369 0
M  V30 4017 H 368.182 2.69909 4.02836 0
M  V30 4018 N 369.525 -1.3858 0.750561 0
M  V30 4019 C 370.771 -2.00481 0.305825 0
M  V30 4020 C 371.104 -1.5944 -1.10872 0
M  V30 4021 O 370.379 -0.83052 -1.75877 0
M  V30 4022 C 370.662 -3.5758 0.425287 0
M  V30 4023 C 370.515 -4.08594 1.88072 0
M  V30 4024 C 371.834 -4.39719 -0.183122 0
M  V30 4025 H 368.953 -0.728348 0.112598 0
M  V30 4026 H 371.595 -1.64566 0.949638 0
M  V30 4027 H 369.745 -3.88306 -0.122828 0
M  V30 4028 H 371.417 -3.88523 2.48691 0
M  V30 4029 H 369.66 -3.61574 2.39681 0
M  V30 4030 H 370.331 -5.177 1.91548 0
M  V30 4031 H 372.807 -4.15128 0.284303 0
M  V30 4032 H 371.683 -5.48856 -0.0692757 0
M  V30 4033 H 371.944 -4.23434 -1.27106 0
M  V30 4034 N 371.003 -0.499398 -1.49478 0
M  V30 4035 C 372.228 0.044722 -2.07352 0
M  V30 4036 C 372.653 1.30207 -1.35749 0
M  V30 4037 O 372.011 1.76516 -0.413732 0
M  V30 4038 C 372.059 0.283013 -3.59488 0
M  V30 4039 O 371.163 1.35804 -3.89398 0
M  V30 4040 H 370.504 -0.0255147 -0.66351 0
M  V30 4041 H 373.034 -0.698561 -1.92305 0
M  V30 4042 H 373.044 0.515007 -4.04737 0
M  V30 4043 H 371.719 -0.635636 -4.11014 0
M  V30 4044 H 370.296 1.11113 -3.55961 0
M  V30 4045 N 372.481 1.55866 -0.233164 0
M  V30 4046 C 373.729 1.9821 0.394593 0
M  V30 4047 C 374.05 1.12234 1.59463 0
M  V30 4048 O 373.32 0.201981 1.94856 0
M  V30 4049 H 371.9 0.732034 0.148778 0
M  V30 4050 H 374.562 1.92107 -0.32876 0
M  V30 4051 H 373.658 3.03845 0.713063 0
M  V30 4052 N 373.959 -0.0401083 1.57549 0
M  V30 4053 C 375.184 -0.748931 1.93406 0
M  V30 4054 C 375.609 -1.68686 0.832274 0
M  V30 4055 O 374.967 -1.80047 -0.212818 0
M  V30 4056 C 375.015 -1.4916 3.28304 0
M  V30 4057 O 374.119 -2.6042 3.19774 0
M  V30 4058 H 373.46 -0.202212 0.63246 0
M  V30 4059 H 375.99 0.00112086 2.046 0
M  V30 4060 H 376 -1.86395 3.62934 0
M  V30 4061 H 374.675 -0.80364 4.08062 0
M  V30 4062 H 373.252 -2.25808 2.96758 0
M  V30 4063 N 375.437 -1.54477 -0.31217 0
M  V30 4064 C 376.367 -1.87652 -1.38957 0
M  V30 4065 C 377.348 -0.734358 -1.53431 0
M  V30 4066 O 378.533 -0.98911 -1.67123 0
M  V30 4067 C 375.663 -2.11396 -2.75552 0
M  V30 4068 C 374.617 -3.27243 -2.75855 0
M  V30 4069 C 373.943 -3.36382 -4.15633 0
M  V30 4070 C 375.243 -4.64622 -2.38587 0
M  V30 4071 H 376.937 -2.77887 -1.11442 0
M  V30 4072 H 374.483 -1.33707 -0.534655 0
M  V30 4073 H 376.436 -2.33189 -3.51 0
M  V30 4074 H 375.16 -1.17921 -3.04569 0
M  V30 4075 H 373.819 -3.05356 -2.02863 0
M  V30 4076 H 373.467 -2.40445 -4.41809 0
M  V30 4077 H 373.167 -4.14249 -4.1674 0
M  V30 4078 H 374.691 -3.60422 -4.92877 0
M  V30 4079 H 376.105 -4.86219 -3.03749 0
M  V30 4080 H 374.502 -5.45121 -2.50925 0
M  V30 4081 H 375.572 -4.66097 -1.33723 0
M  V30 4082 N 376.915 0.57481 -1.46744 0
M  V30 4083 C 378.326 1.15695 -1.46532 0
M  V30 4084 C 378.677 1.95068 -0.210425 0
M  V30 4085 O 377.802 2.05241 0.685944 0
M  V30 4086 C 378.397 2.1048 -2.65487 0
M  V30 4087 C 376.956 2.64002 -2.68291 0
M  V30 4088 C 376.103 1.40026 -2.39349 0
M  V30 4089 H 379.054 0.362325 -1.54509 0
M  V30 4090 H 379.075 2.94074 -2.41455 0
M  V30 4091 H 378.587 1.52683 -3.56805 0
M  V30 4092 H 376.688 3.25646 -1.81067 0
M  V30 4093 H 376.801 3.06197 -3.68483 0
M  V30 4094 H 375.165 1.70106 -1.89568 0
M  V30 4095 H 375.948 0.840485 -3.32852 0
M  V30 4096 N 378.394 1.34581 0.820102 0
M  V30 4097 C 379.641 1.27096 1.57648 0
M  V30 4098 C 379.969 -0.158317 1.93855 0
M  V30 4099 O 379.224 -1.12028 1.60463 0
M  V30 4100 C 379.523 2.10997 2.8847 0
M  V30 4101 C 379.189 3.59966 2.71543 0
M  V30 4102 C 377.851 4.00575 2.66634 0
M  V30 4103 C 380.203 4.54548 2.55021 0
M  V30 4104 C 377.531 5.33953 2.43128 0
M  V30 4105 C 379.883 5.88109 2.33047 0
M  V30 4106 C 378.547 6.27878 2.26552 0
M  V30 4107 H 377.817 0.465078 0.576874 0
M  V30 4108 H 380.464 1.6635 0.948671 0
M  V30 4109 H 378.769 1.6458 3.55557 0
M  V30 4110 H 380.466 2.0255 3.46084 0
M  V30 4111 H 377.056 3.27733 2.76205 0
M  V30 4112 H 381.24 4.24069 2.57835 0
M  V30 4113 H 376.496 5.63781 2.3656 0
M  V30 4114 H 380.67 6.60985 2.19251 0
M  V30 4115 H 378.297 7.31162 2.081 0
M  V30 4116 N 379.872 -1.04064 1.18357 0
M  V30 4117 C 381.149 -1.74252 0.888581 0
M  V30 4118 C 381.529 -2.02138 -0.60856 0
M  V30 4119 O 380.877 -1.66656 -1.56327 0
M  V30 4120 C 381.087 -3.0277 1.73584 0
M  V30 4121 C 382.435 -3.76506 1.96286 0
M  V30 4122 O 383.459 -3.12668 1.70637 0
M  V30 4123 O 382.318 -4.91243 2.39464 0
M  V30 4124 H 379.412 -0.758271 0.330082 0
M  V30 4125 H 381.958 -1.1013 1.2911 0
M  V30 4126 H 380.73 -2.78299 2.75073 0
M  V30 4127 H 380.353 -3.74631 1.33183 0
M  V30 4128 N 381.35 -0.985608 -1.22978 0
M  V30 4129 C 382.598 -0.656087 -1.91154 0
M  V30 4130 C 382.919 0.813561 -1.77218 0
M  V30 4131 O 382.189 1.58244 -1.1548 0
M  V30 4132 H 380.769 -0.239674 -0.707506 0
M  V30 4133 H 383.431 -1.25054 -1.49491 0
M  V30 4134 H 382.527 -0.912253 -2.9847 0
M  V30 4135 N 382.828 1.3818 -0.7579 0
M  V30 4136 C 383.76 2.2901 -0.0932177 0
M  V30 4137 C 384.773 1.47958 0.679136 0
M  V30 4138 O 385.962 1.70773 0.519514 0
M  V30 4139 C 383.062 3.26953 0.89192 0
M  V30 4140 C 382.235 4.37045 0.176303 0
M  V30 4141 C 381.294 5.15148 1.07281 0
M  V30 4142 O 380.32 5.66616 0.541728 0
M  V30 4143 N 381.522 5.28542 2.40049 0
M  V30 4144 H 384.287 2.86694 -0.873303 0
M  V30 4145 H 381.848 1.50007 -0.609054 0
M  V30 4146 H 383.84 3.76083 1.49479 0
M  V30 4147 H 382.41 2.70136 1.57306 0
M  V30 4148 H 381.63 3.89493 -0.607328 0
M  V30 4149 H 382.918 5.07801 -0.318718 0
M  V30 4150 H 382.316 4.88285 2.85647 0
M  V30 4151 H 380.873 5.8103 2.95376 0
M  V30 4152 N 384.306 0.507319 1.49211 0
M  V30 4153 C 385.254 -0.281364 2.30892 0
M  V30 4154 C 386.248 -0.95687 1.39787 0
M  V30 4155 O 387.454 -0.883838 1.56807 0
M  V30 4156 H 383.829 -0.109597 0.743971 0
M  V30 4157 H 385.8 0.42744 2.95323 0
M  V30 4158 C 384.549 -1.32918 3.21291 0
M  V30 4159 H 383.872 -0.818799 3.91326 0
M  V30 4160 H 385.312 -1.85288 3.81372 0
M  V30 4161 C 383.771 -2.35074 2.41333 0
M  V30 4162 O 384.301 -3.4108 2.12197 0
M  V30 4163 N 382.507 -2.07705 2.03241 0
M  V30 4164 H 382.054 -1.2152 2.27136 0
M  V30 4165 H 382.012 -2.76283 1.50051 0
M  V30 4166 N 385.784 -1.5574 0.241426 0
M  V30 4167 C 386.714 -2.24133 -0.654722 0
M  V30 4168 C 387.695 -1.21974 -1.1856 0
M  V30 4169 O 388.88 -1.50612 -1.22595 0
M  V30 4170 C 386.01 -2.93659 -1.85423 0
M  V30 4171 C 384.964 -4.0246 -1.45636 0
M  V30 4172 C 384.29 -4.59383 -2.73626 0
M  V30 4173 C 385.59 -5.18468 -0.631506 0
M  V30 4174 H 387.284 -2.99281 -0.0844353 0
M  V30 4175 H 384.83 -1.43947 -0.0391707 0
M  V30 4176 H 386.783 -3.40203 -2.48676 0
M  V30 4177 H 385.507 -2.15991 -2.44981 0
M  V30 4178 H 384.166 -3.56676 -0.847202 0
M  V30 4179 H 383.814 -3.78422 -3.3137 0
M  V30 4180 H 383.514 -5.32826 -2.4773 0
M  V30 4181 H 385.038 -5.08658 -3.37786 0
M  V30 4182 H 386.452 -5.61272 -1.1682 0
M  V30 4183 H 384.849 -5.98266 -0.468831 0
M  V30 4184 H 385.919 -4.8358 0.357506 0
M  V30 4185 N 387.262 0.0317525 -1.57568 0
M  V30 4186 C 388.209 1.0332 -2.06382 0
M  V30 4187 C 389.179 1.36082 -0.952414 0
M  V30 4188 O 390.364 1.46466 -1.2228 0
M  V30 4189 C 387.504 2.32989 -2.54578 0
M  V30 4190 C 386.617 2.0641 -3.79498 0
M  V30 4191 C 385.752 3.2993 -4.16317 0
M  V30 4192 C 384.791 2.98893 -5.34162 0
M  V30 4193 N 383.928 4.14857 -5.66426 0
M  V30 4194 H 388.768 0.609982 -2.9169 0
M  V30 4195 H 386.305 0.289573 -1.44222 0
M  V30 4196 H 388.263 3.0875 -2.80587 0
M  V30 4197 H 386.893 2.73039 -1.7219 0
M  V30 4198 H 385.945 1.21158 -3.6059 0
M  V30 4199 H 387.257 1.79513 -4.65378 0
M  V30 4200 H 386.411 4.1406 -4.4344 0
M  V30 4201 H 385.15 3.59938 -3.29083 0
M  V30 4202 H 384.155 2.13164 -5.06795 0
M  V30 4203 H 385.38 2.70165 -6.23047 0
M  V30 4204 H 383.326 4.44821 -4.82151 0
M  V30 4205 H 383.243 3.91374 -6.4681 0
M  V30 4206 H 384.511 4.99868 -5.98124 0
M  V30 4207 N 388.74 1.54641 0.303973 0
M  V30 4208 C 389.65 1.88439 1.39743 0
M  V30 4209 C 390.666 0.778239 1.55626 0
M  V30 4210 O 391.842 1.07442 1.70347 0
M  V30 4211 C 388.907 2.12212 2.74166 0
M  V30 4212 C 387.968 3.35936 2.67293 0
M  V30 4213 C 387.201 3.58566 3.95305 0
M  V30 4214 O 387.424 2.84263 4.9452 0
M  V30 4215 O 386.358 4.52078 3.97378 0
M  V30 4216 H 390.184 2.81458 1.14083 0
M  V30 4217 H 387.769 1.40793 0.499768 0
M  V30 4218 H 389.651 2.29067 3.53704 0
M  V30 4219 H 388.326 1.22379 2.99675 0
M  V30 4220 H 387.233 3.24448 1.86237 0
M  V30 4221 H 388.566 4.2589 2.46736 0
M  V30 4222 N 390.218 -0.567019 1.47046 0
M  V30 4223 C 391.148 -1.68482 1.61667 0
M  V30 4224 C 392.129 -1.6358 0.466418 0
M  V30 4225 O 393.314 -1.81354 0.694574 0
M  V30 4226 C 390.444 -3.07124 1.62148 0
M  V30 4227 C 389.398 -3.26867 2.76301 0
M  V30 4228 C 388.724 -4.66196 2.61849 0
M  V30 4229 C 390.024 -3.13186 4.17986 0
M  V30 4230 H 391.718 -1.56502 2.5524 0
M  V30 4231 H 389.264 -0.751486 1.22836 0
M  V30 4232 H 391.217 -3.8516 1.70968 0
M  V30 4233 H 389.941 -3.2004 0.651287 0
M  V30 4234 H 388.6 -2.51237 2.66975 0
M  V30 4235 H 388.248 -4.75898 1.62879 0
M  V30 4236 H 387.948 -4.80356 3.38425 0
M  V30 4237 H 389.472 -5.46379 2.72584 0
M  V30 4238 H 390.886 -3.81049 4.2834 0
M  V30 4239 H 389.283 -3.3886 4.95272 0
M  V30 4240 H 390.353 -2.10057 4.3704 0
M  V30 4241 N 391.696 -1.35014 -0.812953 0
M  V30 4242 C 393.112 -1.14914 -1.10757 0
M  V30 4243 C 393.312 0.0426818 -2.01455 0
M  V30 4244 O 392.368 0.715212 -2.42159 0
M  V30 4245 C 393.681 -2.44911 -1.74468 0
M  V30 4246 C 395.229 -2.5106 -1.86917 0
M  V30 4247 C 395.704 -3.81085 -2.54044 0
M  V30 4248 N 397.195 -3.82301 -2.61535 0
M  V30 4249 C 397.93 -4.79634 -3.14227 0
M  V30 4250 N 397.426 -5.87353 -3.67407 0
M  V30 4251 N 399.219 -4.67078 -3.12721 0
M  V30 4252 H 391.37 -2.1136 -0.20989 0
M  V30 4253 H 393.633 -0.935128 -0.155692 0
M  V30 4254 H 393.339 -3.32267 -1.15289 0
M  V30 4255 H 393.213 -2.58989 -2.74234 0
M  V30 4256 H 395.6 -1.64137 -2.45241 0
M  V30 4257 H 395.681 -2.40901 -0.860242 0
M  V30 4258 H 395.325 -4.68402 -1.96372 0
M  V30 4259 H 395.255 -3.88529 -3.55461 0
M  V30 4260 H 397.746 -3.04465 -2.23851 0
M  V30 4261 H 398.059 -6.57624 -4.05894 0
M  V30 4262 H 396.404 -5.91054 -3.65623 0
M  V30 4263 H 399.595 -3.82067 -2.70449 0
M  V30 4264 H 399.768 -5.43098 -3.53481 0
M  V30 4265 N 393.175 1.03435 -1.18907 0
M  V30 4266 C 394.085 2.15075 -0.937015 0
M  V30 4267 C 395.101 1.73706 0.101085 0
M  V30 4268 O 396.277 2.01232 -0.0822948 0
M  V30 4269 C 393.342 3.43458 -0.473057 0
M  V30 4270 C 392.403 3.99172 -1.57989 0
M  V30 4271 C 391.636 5.21427 -1.13797 0
M  V30 4272 O 391.859 5.704 0.000725941 0
M  V30 4273 O 390.793 5.69837 -1.9383 0
M  V30 4274 H 394.619 2.39198 -1.87131 0
M  V30 4275 H 392.204 1.13506 -0.971427 0
M  V30 4276 H 394.086 4.20811 -0.222702 0
M  V30 4277 H 392.761 3.20793 0.432869 0
M  V30 4278 H 391.668 3.23178 -1.88433 0
M  V30 4279 H 393.001 4.2619 -2.46217 0
M  V30 4280 N 394.653 0.992116 1.22453 0
M  V30 4281 C 396.069 0.702713 1.43297 0
M  V30 4282 C 396.269 -0.726909 1.87932 0
M  V30 4283 O 395.325 -1.49792 2.0327 0
M  V30 4284 C 396.638 1.70762 2.47509 0
M  V30 4285 C 398.186 1.72298 2.61309 0
M  V30 4286 C 398.661 2.71649 3.68742 0
M  V30 4287 N 400.152 2.70239 3.76199 0
M  V30 4288 C 400.887 3.43778 4.58917 0
M  V30 4289 N 400.383 4.26914 5.45633 0
M  V30 4290 N 402.176 3.32487 4.5322 0
M  V30 4291 H 394.327 1.91543 0.917871 0
M  V30 4292 H 396.59 0.826031 0.465162 0
M  V30 4293 H 396.296 2.73059 2.21657 0
M  V30 4294 H 396.17 1.49985 3.46099 0
M  V30 4295 H 398.557 0.706989 2.86506 0
M  V30 4296 H 398.638 1.97143 1.62997 0
M  V30 4297 H 398.282 3.73397 3.44292 0
M  V30 4298 H 398.212 2.44074 4.66622 0
M  V30 4299 H 400.703 2.09912 3.14237 0
M  V30 4300 H 401.016 4.79855 6.05771 0
M  V30 4301 H 399.361 4.31002 5.45218 0
M  V30 4302 H 402.552 2.6698 3.84499 0
M  V30 4303 H 402.725 3.90058 5.17454 0
M  V30 4304 N 396.131 -1.37776 0.765217 0
M  V30 4305 C 397.377 -2.00145 0.327072 0
M  V30 4306 C 397.71 -1.60607 -1.09175 0
M  V30 4307 O 396.985 -0.849127 -1.74986 0
M  V30 4308 C 397.268 -3.57109 0.46319 0
M  V30 4309 C 397.121 -4.06576 1.92395 0
M  V30 4310 C 398.44 -4.39888 -0.136473 0
M  V30 4311 H 395.559 -0.727113 0.120316 0
M  V30 4312 H 398.201 -1.63549 0.967039 0
M  V30 4313 H 396.351 -3.88414 -0.0816358 0
M  V30 4314 H 398.023 -3.85864 2.52798 0
M  V30 4315 H 396.266 -3.59011 2.43503 0
M  V30 4316 H 396.937 -5.15639 1.97028 0
M  V30 4317 H 399.413 -4.14803 0.328317 0
M  V30 4318 H 398.289 -5.48899 -0.0110582 0
M  V30 4319 H 398.55 -4.24758 -1.22608 0
M  V30 4320 N 397.609 -0.515225 -1.4894 0
M  V30 4321 C 398.539 0.244628 -2.32215 0
M  V30 4322 C 399.52 0.949136 -1.41157 0
M  V30 4323 O 400.705 0.937783 -1.70057 0
M  V30 4324 C 397.835 1.30096 -3.22013 0
M  V30 4325 C 396.789 0.715486 -4.21977 0
M  V30 4326 C 396.115 1.87339 -5.00808 0
M  V30 4327 C 397.415 -0.302982 -5.2142 0
M  V30 4328 H 399.109 -0.450501 -2.95991 0
M  V30 4329 H 396.655 -0.218098 -1.42339 0
M  V30 4330 H 398.608 1.84037 -3.79089 0
M  V30 4331 H 397.332 2.02547 -2.56207 0
M  V30 4332 H 395.991 0.197715 -3.66066 0
M  V30 4333 H 395.639 2.58592 -4.31438 0
M  V30 4334 H 395.339 1.48764 -5.68457 0
M  V30 4335 H 396.863 2.41686 -5.60732 0
M  V30 4336 H 398.277 0.148802 -5.73107 0
M  V30 4337 H 396.674 -0.60532 -5.97039 0
M  V30 4338 H 397.744 -1.21395 -4.69459 0
M  V30 4339 N 399.087 1.5561 -0.249682 0
M  V30 4340 C 400.503 1.59254 0.105103 0
M  V30 4341 C 400.703 1.26685 1.56694 0
M  V30 4342 O 399.759 1.0155 2.31179 0
M  V30 4343 C 401.072 2.99687 -0.246592 0
M  V30 4344 C 402.62 3.12416 -0.191118 0
M  V30 4345 C 403.095 4.55074 -0.516885 0
M  V30 4346 N 404.586 4.60835 -0.467489 0
M  V30 4347 C 405.321 5.69201 -0.69268 0
M  V30 4348 N 404.817 6.85817 -0.981146 0
M  V30 4349 N 406.61 5.58635 -0.623198 0
M  V30 4350 H 398.761 1.75049 -1.20298 0
M  V30 4351 H 401.024 0.815003 -0.484225 0
M  V30 4352 H 400.73 3.28267 -1.26228 0
M  V30 4353 H 400.604 3.74798 0.424962 0
M  V30 4354 H 402.991 2.83615 0.815247 0
M  V30 4355 H 403.072 2.39573 -0.896563 0
M  V30 4356 H 402.716 4.84596 -1.52082 0
M  V30 4357 H 402.646 5.26181 0.210068 0
M  V30 4358 H 405.137 3.7705 -0.253373 0
M  V30 4359 H 405.45 7.64341 -1.14032 0
M  V30 4360 H 403.795 6.87494 -1.01865 0
M  V30 4361 H 406.986 4.66406 -0.397863 0
M  V30 4362 H 407.159 6.43017 -0.802093 0
M  V30 4363 N 400.565 -0.0233959 1.57583 0
M  V30 4364 C 401.813 -0.711654 1.89156 0
M  V30 4365 C 402.134 -1.75591 0.848096 0
M  V30 4366 O 401.404 -1.95547 -0.117566 0
M  V30 4367 H 399.984 -0.265835 0.698098 0
M  V30 4368 H 402.646 0.0119948 1.94896 0
M  V30 4369 H 401.742 -1.19766 2.88206 0
M  V30 4370 N 402.043 -1.548 -0.295768 0
M  V30 4371 C 402.99 -1.86113 -1.36494 0
M  V30 4372 C 403.96 -0.7105 -1.50137 0
M  V30 4373 O 405.145 -0.959626 -1.64912 0
M  V30 4374 C 402.285 -2.11861 -2.72413 0
M  V30 4375 C 401.398 -3.39471 -2.67177 0
M  V30 4376 C 400.533 -3.55035 -3.95125 0
M  V30 4377 C 399.572 -4.76418 -3.84308 0
M  V30 4378 N 398.709 -4.8876 -5.04042 0
M  V30 4379 H 403.549 -2.77314 -1.09091 0
M  V30 4380 H 401.086 -1.37315 -0.52753 0
M  V30 4381 H 403.044 -2.24786 -3.51464 0
M  V30 4382 H 401.674 -1.2392 -2.98066 0
M  V30 4383 H 400.726 -3.35139 -1.79962 0
M  V30 4384 H 402.038 -4.28646 -2.55076 0
M  V30 4385 H 401.192 -3.67653 -4.82614 0
M  V30 4386 H 399.931 -2.64002 -4.10066 0
M  V30 4387 H 398.936 -4.63827 -2.95202 0
M  V30 4388 H 400.161 -5.68863 -3.70906 0
M  V30 4389 H 398.107 -4.00652 -5.19436 0
M  V30 4390 H 398.024 -5.71945 -4.94384 0
M  V30 4391 H 399.292 -5.0574 -5.93167 0
M  V30 4392 N 403.521 0.559213 -1.47345 0
M  V30 4393 C 404.751 1.33999 -1.57251 0
M  V30 4394 C 405.159 1.87905 -0.220978 0
M  V30 4395 O 404.502 1.65577 0.795617 0
M  V30 4396 C 404.564 2.54798 -2.53611 0
M  V30 4397 C 404.228 2.22192 -3.99349 0
M  V30 4398 C 405.225 1.79607 -4.87891 0
M  V30 4399 C 402.91 2.33613 -4.44669 0
M  V30 4400 C 404.904 1.48868 -6.19772 0
M  V30 4401 C 402.591 2.02487 -5.76578 0
M  V30 4402 C 403.589 1.60183 -6.63951 0
M  V30 4403 O 403.277 1.29451 -7.93409 0
M  V30 4404 H 403.009 0.414858 -0.533731 0
M  V30 4405 H 405.563 0.684465 -1.9366 0
M  V30 4406 H 403.793 3.23235 -2.12265 0
M  V30 4407 H 405.482 3.16873 -2.53666 0
M  V30 4408 H 406.248 1.70278 -4.54126 0
M  V30 4409 H 402.127 2.65501 -3.76869 0
M  V30 4410 H 405.671 1.15775 -6.87926 0
M  V30 4411 H 401.568 2.11448 -6.09885 0
M  V30 4412 H 402.336 1.43098 -8.05894 0
M  V30 4413 N 404.999 1.35443 0.805782 0
M  V30 4414 C 406.415 1.15499 1.10146 0
M  V30 4415 C 406.615 -0.0319975 2.01475 0
M  V30 4416 O 405.671 -0.70236 2.42535 0
M  V30 4417 C 406.984 2.45833 1.73166 0
M  V30 4418 C 408.532 2.52047 1.85583 0
M  V30 4419 C 409.007 3.82427 2.52019 0
M  V30 4420 N 410.498 3.83682 2.59504 0
M  V30 4421 C 411.233 4.81294 3.11679 0
M  V30 4422 N 410.729 5.89294 3.64287 0
M  V30 4423 N 412.522 4.6873 3.1024 0
M  V30 4424 H 404.673 2.11469 0.198678 0
M  V30 4425 H 406.936 0.93594 0.150731 0
M  V30 4426 H 406.642 3.32874 1.13526 0
M  V30 4427 H 406.516 2.6044 2.72857 0
M  V30 4428 H 408.903 1.65435 2.44367 0
M  V30 4429 H 408.984 2.41354 0.847455 0
M  V30 4430 H 408.628 4.69437 1.93885 0
M  V30 4431 H 408.558 3.90409 3.53395 0
M  V30 4432 H 411.049 3.05648 2.22234 0
M  V30 4433 H 411.362 6.59768 4.02401 0
M  V30 4434 H 409.707 5.92985 3.62483 0
M  V30 4435 H 412.898 3.83496 2.68419 0
M  V30 4436 H 413.071 5.44965 3.50596 0
M  V30 4437 N 406.477 -1.02803 1.19454 0
M  V30 4438 C 407.726 -1.7562 0.991996 0
M  V30 4439 C 408.039 -1.89672 -0.477901 0
M  V30 4440 O 409.245 -2.59468 -0.799287 0
M  V30 4441 C 407.701 -3.15812 1.72601 0
M  V30 4442 C 407.309 -3.0981 3.23607 0
M  V30 4443 C 409.053 -3.92918 1.60674 0
M  V30 4444 C 406.96 -4.44939 3.89594 0
M  V30 4445 H 405.89 -0.658352 0.367543 0
M  V30 4446 H 408.541 -1.15044 1.42959 0
M  V30 4447 H 406.923 -3.7686 1.21624 0
M  V30 4448 H 408.097 -2.58138 3.81709 0
M  V30 4449 H 406.412 -2.46201 3.35819 0
M  V30 4450 H 409.009 -4.9287 2.07323 0
M  V30 4451 H 409.352 -4.12502 0.561025 0
M  V30 4452 H 409.885 -3.38472 2.09001 0
M  V30 4453 H 406.624 -4.30559 4.94267 0
M  V30 4454 H 406.144 -4.96664 3.36281 0
M  V30 4455 H 407.823 -5.1382 3.93189 0
M  V30 4456 N 407.956 -0.998596 -1.21925 0
M  V30 4457 C 409.367 -0.711939 -1.72593 0
M  V30 4458 C 409.718 0.770842 -1.80423 0
M  V30 4459 O 408.843 1.60237 -1.4544 0
M  V30 4460 C 409.438 -1.28567 -3.13458 0
M  V30 4461 C 407.997 -1.04828 -3.61508 0
M  V30 4462 C 407.144 -1.4024 -2.39224 0
M  V30 4463 H 410.095 -1.17027 -1.07193 0
M  V30 4464 H 410.116 -0.667098 -3.74607 0
M  V30 4465 H 409.628 -2.36486 -3.07727 0
M  V30 4466 H 407.729 0.0140383 -3.72597 0
M  V30 4467 H 407.842 -1.71566 -4.47328 0
M  V30 4468 H 406.206 -0.821077 -2.41103 0
M  V30 4469 H 406.989 -2.49176 -2.36149 0
M  V30 4470 N 409.434 1.37368 -0.772513 0
M  V30 4471 C 410.681 1.99673 -0.337182 0
M  V30 4472 C 411.009 1.61324 1.0865 0
M  V30 4473 O 410.264 0.851377 1.7621 0
M  V30 4474 C 410.563 3.54817 -0.428876 0
M  V30 4475 C 410.229 4.12936 -1.81092 0
M  V30 4476 C 408.891 4.28523 -2.1891 0
M  V30 4477 C 411.243 4.44801 -2.71664 0
M  V30 4478 C 408.571 4.73277 -3.46735 0
M  V30 4479 C 410.923 4.90981 -3.98899 0
M  V30 4480 C 409.587 5.04773 -4.36761 0
M  V30 4481 H 408.857 0.730656 -0.123384 0
M  V30 4482 H 411.504 1.64124 -0.986686 0
M  V30 4483 H 409.809 3.90618 0.304167 0
M  V30 4484 H 411.506 4.00933 -0.0733334 0
M  V30 4485 H 408.096 4.01233 -1.50699 0
M  V30 4486 H 412.28 4.32344 -2.43706 0
M  V30 4487 H 407.536 4.82142 -3.75964 0
M  V30 4488 H 411.71 5.14603 -4.69208 0
M  V30 4489 H 409.337 5.39211 -5.35868 0
M  V30 4490 N 410.912 0.523116 1.48665 0
M  V30 4491 C 412.142 -0.00961724 2.06598 0
M  V30 4492 C 412.55 -1.29333 1.38093 0
M  V30 4493 O 411.893 -1.77846 0.46007 0
M  V30 4494 C 411.955 -0.311135 3.58151 0
M  V30 4495 C 411.619 0.878092 4.48485 0
M  V30 4496 C 412.616 1.77464 4.88674 0
M  V30 4497 C 410.301 1.08315 4.90483 0
M  V30 4498 C 412.295 2.86021 5.69623 0
M  V30 4499 C 409.982 2.17187 5.71203 0
M  V30 4500 C 410.98 3.05873 6.10681 0
M  V30 4501 O 410.668 4.12862 6.89783 0
M  V30 4502 H 410.4 0.0272658 0.67545 0
M  V30 4503 H 412.954 0.726156 1.92136 0
M  V30 4504 H 411.184 -1.10079 3.70701 0
M  V30 4505 H 412.873 -0.785125 3.98234 0
M  V30 4506 H 413.639 1.62813 4.56855 0
M  V30 4507 H 409.518 0.402149 4.59243 0
M  V30 4508 H 413.062 3.55272 6.00356 0
M  V30 4509 H 408.959 2.31824 6.02435 0
M  V30 4510 H 409.727 4.10487 7.08126 0
M  V30 4511 N 412.39 -1.55475 0.257931 0
M  V30 4512 C 413.323 -2.179 -0.677862 0
M  V30 4513 C 414.301 -1.13448 -1.16483 0
M  V30 4514 O 415.485 -1.41889 -1.24095 0
M  V30 4515 C 412.612 -2.78851 -1.92249 0
M  V30 4516 C 411.658 -3.96454 -1.57246 0
M  V30 4517 S 412.491 -5.31349 -0.665501 0
M  V30 4518 C 413.647 -5.9576 -1.91889 0
M  V30 4519 H 413.88 -2.96934 -0.147396 0
M  V30 4520 H 411.413 -1.54342 0.0423023 0
M  V30 4521 H 413.371 -3.14602 -2.63697 0
M  V30 4522 H 412.032 -1.99742 -2.42409 0
M  V30 4523 H 411.225 -4.37731 -2.49814 0
M  V30 4524 H 410.827 -3.62038 -0.938325 0
M  V30 4525 H 413.119 -6.13947 -2.86487 0
M  V30 4526 H 414.062 -6.9094 -1.54942 0
M  V30 4527 H 414.47 -5.2494 -2.076 0
M  V30 4528 N 413.868 0.0150385 -1.57593 0
M  V30 4529 C 415.093 0.718067 -1.94573 0
M  V30 4530 C 415.518 1.6734 -0.859005 0
M  V30 4531 O 414.876 1.80362 0.184147 0
M  V30 4532 C 414.924 1.43918 -3.30636 0
M  V30 4533 O 414.028 2.55299 -3.23876 0
M  V30 4534 H 413.369 0.192125 -0.635597 0
M  V30 4535 H 415.899 -0.0336708 -2.04572 0
M  V30 4536 H 415.909 1.80598 -3.65853 0
M  V30 4537 H 414.584 0.738619 -4.09289 0
M  V30 4538 H 413.161 2.21058 -3.00312 0
M  V30 4539 N 415.346 1.54954 0.287554 0
M  V30 4540 C 416.574 1.78881 1.03967 0
M  V30 4541 C 416.989 0.554894 1.80462 0
M  V30 4542 O 416.346 -0.475676 1.76192 0
M  V30 4543 C 416.397 3.00488 2.0097 0
M  V30 4544 O 416.118 4.19113 1.27577 0
M  V30 4545 C 417.619 3.36907 2.88112 0
M  V30 4546 H 414.839 0.596259 0.307761 0
M  V30 4547 H 417.383 2.01937 0.322749 0
M  V30 4548 H 415.538 2.79601 2.68145 0
M  V30 4549 H 415.952 4.87765 1.92835 0
M  V30 4550 H 417.426 4.25205 3.52001 0
M  V30 4551 H 417.903 2.55659 3.57121 0
M  V30 4552 H 418.509 3.60001 2.26449 0
M  V30 4553 N 416.824 -0.551391 1.4764 0
M  V30 4554 C 418.101 -1.31229 1.45046 0
M  V30 4555 C 418.481 -2.10563 0.150527 0
M  V30 4556 O 417.829 -2.11374 -0.867956 0
M  V30 4557 C 418.039 -2.21189 2.69956 0
M  V30 4558 C 419.387 -2.82021 3.1741 0
M  V30 4559 O 420.411 -2.31488 2.70724 0
M  V30 4560 O 419.27 -3.73885 3.98588 0
M  V30 4561 H 416.364 -0.591193 0.578291 0
M  V30 4562 H 418.91 -0.569813 1.59847 0
M  V30 4563 H 417.682 -1.62207 3.56096 0
M  V30 4564 H 417.305 -3.02722 2.57769 0
M  V30 4565 N 418.302 -1.35869 -0.798587 0
M  V30 4566 C 419.542 -1.30961 -1.56935 0
M  V30 4567 C 419.906 0.112404 -1.91671 0
M  V30 4568 O 421.107 0.285937 -2.67275 0
M  V30 4569 C 419.378 -2.19811 -2.81811 0
M  V30 4570 S 420.937 -2.32498 -3.72143 0
M  V30 4571 H 417.755 -0.465297 -0.537606 0
M  V30 4572 H 420.357 -1.71344 -0.941346 0
M  V30 4573 H 419.061 -3.22095 -2.54329 0
M  V30 4574 H 418.592 -1.80415 -3.49591 0
M  V30 4575 H 420.607 -1.5157 -4.72484 0
M  V30 4576 N 419.78 1.02168 -1.19998 0
M  V30 4577 C 420.69 2.14069 -0.959774 0
M  V30 4578 C 421.706 1.73804 0.082655 0
M  V30 4579 O 422.882 2.01133 -0.103633 0
M  V30 4580 C 419.947 3.42936 -0.509459 0
M  V30 4581 C 419.008 3.97474 -1.62213 0
M  V30 4582 C 418.241 5.2019 -1.19321 0
M  V30 4583 O 418.464 5.70369 -0.0597726 0
M  V30 4584 O 417.398 5.67749 -1.99863 0
M  V30 4585 H 421.224 2.37199 -1.89658 0
M  V30 4586 H 418.809 1.12469 -0.983411 0
M  V30 4587 H 420.691 4.20551 -0.267322 0
M  V30 4588 H 419.366 3.21234 0.398821 0
M  V30 4589 H 418.273 3.21161 -1.9185 0
M  V30 4590 H 419.606 4.23555 -2.50723 0
M  V30 4591 N 421.258 1.00505 1.21394 0
M  V30 4592 C 422.206 0.558623 2.25792 0
M  V30 4593 C 423.2 -0.396848 1.64686 0
M  V30 4594 O 424.406 -0.268035 1.77993 0
M  V30 4595 H 420.781 0.1623 0.734277 0
M  V30 4596 H 422.752 1.4503 2.60785 0
M  V30 4597 C 421.501 -0.0989574 3.47559 0
M  V30 4598 H 420.824 0.627225 3.94849 0
M  V30 4599 H 422.264 -0.3746 4.22342 0
M  V30 4600 C 420.723 -1.33817 3.09184 0
M  V30 4601 O 421.253 -2.43252 3.19674 0
M  V30 4602 N 419.459 -1.21793 2.63846 0
M  V30 4603 H 419.006 -0.32746 2.5551 0
M  V30 4604 H 418.964 -2.04809 2.38539 0
M  V30 4605 N 422.737 -1.36956 0.779787 0
M  V30 4606 C 423.667 -2.32761 0.185651 0
M  V30 4607 C 424.648 -1.56177 -0.673989 0
M  V30 4608 O 425.833 -1.84378 -0.609797 0
M  V30 4609 C 422.963 -3.40418 -0.687964 0
M  V30 4610 C 421.917 -4.27941 0.0710102 0
M  V30 4611 C 421.243 -5.26681 -0.922573 0
M  V30 4612 C 422.543 -5.07006 1.25467 0
M  V30 4613 H 424.237 -2.82698 0.986008 0
M  V30 4614 H 421.783 -1.3592 0.475592 0
M  V30 4615 H 423.736 -4.06423 -1.11348 0
M  V30 4616 H 422.46 -2.89025 -1.52093 0
M  V30 4617 H 421.119 -3.63478 0.47739 0
M  V30 4618 H 420.767 -4.71565 -1.7503 0
M  V30 4619 H 420.467 -5.86103 -0.419237 0
M  V30 4620 H 421.991 -5.9556 -1.34686 0
M  V30 4621 H 423.405 -5.66105 0.905401 0
M  V30 4622 H 421.802 -5.75793 1.69063 0
M  V30 4623 H 422.872 -4.3921 2.05481 0
M  V30 4624 N 424.215 -0.530993 -1.48385 0
M  V30 4625 C 425.145 0.219985 -2.32461 0
M  V30 4626 C 426.126 0.934111 -1.42156 0
M  V30 4627 O 427.311 0.919694 -1.71042 0
M  V30 4628 C 424.441 1.26674 -3.23375 0
M  V30 4629 C 423.395 0.67069 -4.22712 0
M  V30 4630 C 422.721 1.82017 -5.02766 0
M  V30 4631 C 424.021 -0.358268 -5.2107 0
M  V30 4632 H 425.715 -0.48187 -2.95497 0
M  V30 4633 H 423.261 -0.233182 -1.42099 0
M  V30 4634 H 425.214 1.80006 -3.81019 0
M  V30 4635 H 423.938 1.99818 -2.58341 0
M  V30 4636 H 422.597 0.158878 -3.66256 0
M  V30 4637 H 422.245 2.54002 -4.34157 0
M  V30 4638 H 421.945 1.42727 -5.70003 0
M  V30 4639 H 423.469 2.35725 -5.63264 0
M  V30 4640 H 424.883 0.0880081 -5.73232 0
M  V30 4641 H 423.28 -0.66861 -5.96364 0
M  V30 4642 H 424.35 -1.26367 -4.68145 0
M  V30 4643 N 425.693 1.55336 -0.266172 0
M  V30 4644 C 426.64 2.22172 0.625165 0
M  V30 4645 C 427.61 1.19211 1.15663 0
M  V30 4646 O 428.795 1.47723 1.20758 0
M  V30 4647 C 425.935 2.93972 1.8076 0
M  V30 4648 C 425.048 4.11632 1.31084 0
M  V30 4649 C 424.183 4.71099 2.45436 0
M  V30 4650 C 423.222 5.8097 1.92718 0
M  V30 4651 N 422.359 6.34538 3.00509 0
M  V30 4652 H 427.199 2.9796 0.0485582 0
M  V30 4653 H 424.736 1.47095 0.0122024 0
M  V30 4654 H 426.694 3.33811 2.50251 0
M  V30 4655 H 425.324 2.20623 2.35638 0
M  V30 4656 H 424.376 3.76975 0.509326 0
M  V30 4657 H 425.688 4.90893 0.884633 0
M  V30 4658 H 424.842 5.13612 3.22936 0
M  V30 4659 H 423.581 3.91096 2.91368 0
M  V30 4660 H 422.586 5.37916 1.13695 0
M  V30 4661 H 423.811 6.62836 1.47733 0
M  V30 4662 H 421.757 5.57433 3.45839 0
M  V30 4663 H 421.674 7.09046 2.62279 0
M  V30 4664 H 422.942 6.81709 3.78011 0
M  V30 4665 N 427.171 -0.0066808 1.57599 0
M  V30 4666 C 428.118 -1.00024 2.08 0
M  V30 4667 C 429.088 -1.34549 0.973943 0
M  V30 4668 O 430.273 -1.44502 1.24595 0
M  V30 4669 C 427.413 -2.2891 2.58252 0
M  V30 4670 C 426.526 -2.00346 3.82734 0
M  V30 4671 C 425.661 -3.23265 4.21513 0
M  V30 4672 C 424.7 -2.90357 5.3885 0
M  V30 4673 N 423.837 -4.05793 5.72954 0
M  V30 4674 H 428.677 -0.563499 2.92624 0
M  V30 4675 H 426.214 -0.266592 1.44664 0
M  V30 4676 H 428.172 -3.04247 2.85464 0
M  V30 4677 H 426.802 -2.70265 1.76512 0
M  V30 4678 H 425.854 -1.15406 3.62471 0
M  V30 4679 H 427.166 -1.72086 4.68175 0
M  V30 4680 H 426.32 -4.06953 4.49971 0
M  V30 4681 H 425.059 -3.54657 3.34768 0
M  V30 4682 H 424.064 -2.05075 5.10122 0
M  V30 4683 H 425.289 -2.60219 6.27266 0
M  V30 4684 H 423.235 -4.37094 4.89167 0
M  V30 4685 H 423.152 -3.81034 6.52954 0
M  V30 4686 H 424.42 -4.90289 6.06001 0
M  V30 4687 N 428.649 -1.55105 -0.279332 0
M  V30 4688 C 429.579 -1.90557 -1.34945 0
M  V30 4689 C 430.56 -0.766738 -1.51839 0
M  V30 4690 O 431.745 -1.02434 -1.64988 0
M  V30 4691 C 428.875 -2.17193 -2.71006 0
M  V30 4692 C 427.829 -3.33021 -2.68851 0
M  V30 4693 C 427.155 -3.45123 -4.08405 0
M  V30 4694 C 428.455 -4.69578 -2.28678 0
M  V30 4695 H 430.149 -2.80188 -1.05522 0
M  V30 4696 H 427.695 -1.34811 -0.506173 0
M  V30 4697 H 429.648 -2.40581 -3.45975 0
M  V30 4698 H 428.372 -1.24355 -3.01999 0
M  V30 4699 H 427.031 -3.0959 -1.9634 0
M  V30 4700 H 426.679 -2.49762 -4.3661 0
M  V30 4701 H 426.379 -4.22995 -4.07859 0
M  V30 4702 H 427.903 -3.70796 -4.85121 0
M  V30 4703 H 429.317 -4.92553 -2.93368 0
M  V30 4704 H 427.714 -5.5032 -2.39306 0
M  V30 4705 H 428.784 -4.68828 -1.23807 0
M  V30 4706 N 430.127 0.543554 -1.4793 0
M  V30 4707 C 431.057 1.65888 -1.64327 0
M  V30 4708 C 432.038 1.62818 -0.492383 0
M  V30 4709 O 433.223 1.80226 -0.723338 0
M  V30 4710 C 430.353 3.04506 -1.67013 0
M  V30 4711 C 429.307 3.2243 -2.81466 0
M  V30 4712 C 428.633 4.61972 -2.69233 0
M  V30 4713 C 429.933 3.06496 -4.22915 0
M  V30 4714 H 431.627 1.52421 -2.57698 0
M  V30 4715 H 429.173 0.731849 -1.24016 0
M  V30 4716 H 431.126 3.82391 -1.77074 0
M  V30 4717 H 429.85 3.18964 -0.70212 0
M  V30 4718 H 428.509 2.46957 -2.70938 0
M  V30 4719 H 428.157 4.73247 -1.7043 0
M  V30 4720 H 427.857 4.74911 -3.46025 0
M  V30 4721 H 429.381 5.41974 -2.81242 0
M  V30 4722 H 430.795 3.74186 -4.34348 0
M  V30 4723 H 429.192 3.30938 -5.006 0
M  V30 4724 H 430.262 2.03077 -4.40327 0
M  V30 4725 N 431.605 1.3629 0.791371 0
M  V30 4726 C 432.851 1.30605 1.55146 0
M  V30 4727 C 433.184 -0.115042 1.93859 0
M  V30 4728 O 432.459 -1.06798 1.62556 0
M  V30 4729 C 432.742 2.22692 2.82985 0
M  V30 4730 C 432.595 3.73489 2.50651 0
M  V30 4731 C 433.914 2.13588 3.84796 0
M  V30 4732 H 431.033 0.475761 0.562868 0
M  V30 4733 H 433.675 1.66825 0.909358 0
M  V30 4734 H 431.825 1.91933 3.37778 0
M  V30 4735 H 433.497 4.14758 2.01924 0
M  V30 4736 H 431.74 3.93021 1.83622 0
M  V30 4737 H 432.411 4.3333 3.41949 0
M  V30 4738 H 434.887 2.40659 3.39445 0
M  V30 4739 H 433.763 2.80195 4.71998 0
M  V30 4740 H 434.024 1.12256 4.27611 0
M  V30 4741 N 433.083 -1.0153 1.20538 0
M  V30 4742 C 434.013 -2.11972 0.979295 0
M  V30 4743 C 434.994 -1.6985 -0.0921787 0
M  V30 4744 O 436.179 -1.94089 0.0655932 0
M  V30 4745 C 433.309 -3.43201 0.531984 0
M  V30 4746 C 432.263 -3.9907 1.54685 0
M  V30 4747 C 431.589 -5.26082 0.956127 0
M  V30 4748 C 432.889 -4.32313 2.93092 0
M  V30 4749 H 434.583 -2.31143 1.90298 0
M  V30 4750 H 432.129 -1.11079 0.916372 0
M  V30 4751 H 434.082 -4.1985 0.361044 0
M  V30 4752 H 432.806 -3.23792 -0.427327 0
M  V30 4753 H 431.465 -3.2453 1.70517 0
M  V30 4754 H 431.113 -5.02999 -0.0111538 0
M  V30 4755 H 430.813 -5.64426 1.63393 0
M  V30 4756 H 432.337 -6.05386 0.796284 0
M  V30 4757 H 433.751 -4.99845 2.80763 0
M  V30 4758 H 432.148 -4.81774 3.57791 0
M  V30 4759 H 433.218 -3.41025 3.44717 0
M  V30 4760 N 434.561 -1.01147 -1.20859 0
M  V30 4761 C 435.509 -0.57059 -2.25493 0
M  V30 4762 C 436.503 0.388109 -1.64894 0
M  V30 4763 O 437.709 0.258592 -1.78133 0
M  V30 4764 H 434.084 -0.166191 -0.733406 0
M  V30 4765 H 436.055 -1.46411 -2.60012 0
M  V30 4766 C 434.804 0.0805241 -3.47607 0
M  V30 4767 H 434.127 -0.648156 -3.94511 0
M  V30 4768 H 435.567 0.352197 -4.22535 0
M  V30 4769 C 434.026 1.32175 -3.09889 0
M  V30 4770 O 434.556 2.41553 -3.20959 0
M  V30 4771 N 432.762 1.20392 -2.64488 0
M  V30 4772 H 432.309 0.313905 -2.5568 0
M  V30 4773 H 432.267 2.03541 -2.39621 0
M  V30 4774 N 436.039 1.36541 -0.78704 0
M  V30 4775 C 437.45 1.81873 -0.421807 0
M  V30 4776 C 437.801 1.65487 1.05397 0
M  V30 4777 O 436.926 1.17448 1.81755 0
M  V30 4778 C 437.521 3.30192 -0.758841 0
M  V30 4779 C 436.08 3.73743 -0.446468 0
M  V30 4780 C 435.227 2.58844 -0.994728 0
M  V30 4781 H 438.178 1.24796 -0.98039 0
M  V30 4782 H 438.199 3.80468 -0.0490648 0
M  V30 4783 H 437.711 3.42087 -1.83299 0
M  V30 4784 H 435.812 3.6741 0.619739 0
M  V30 4785 H 435.925 4.69272 -0.965415 0
M  V30 4786 H 434.289 2.51245 -0.418087 0
M  V30 4787 H 435.072 2.73525 -2.07458 0
M  V30 4788 N 437.518 0.538854 1.48102 0
M  V30 4789 C 438.767 0.0059532 2.01699 0
M  V30 4790 C 439.08 -1.34476 1.42041 0
M  V30 4791 O 440.286 -1.96653 1.87189 0
M  V30 4792 C 438.742 -0.0397627 3.59878 0
M  V30 4793 C 438.35 1.30659 4.28523 0
M  V30 4794 C 440.094 -0.521024 4.2129 0
M  V30 4795 C 438.001 1.22098 5.78659 0
M  V30 4796 H 436.931 -0.00154456 0.753998 0
M  V30 4797 H 439.582 0.683963 1.70277 0
M  V30 4798 H 437.964 -0.783037 3.88181 0
M  V30 4799 H 439.138 2.06613 4.11883 0
M  V30 4800 H 437.453 1.7243 3.79021 0
M  V30 4801 H 440.05 -0.603184 5.31287 0
M  V30 4802 H 440.393 -1.52885 3.8721 0
M  V30 4803 H 440.926 0.166834 3.9745 0
M  V30 4804 H 437.665 2.20424 6.17328 0
M  V30 4805 H 437.185 0.50295 5.97688 0
M  V30 4806 H 438.864 0.915345 6.40492 0
M  V30 4807 N 438.996 -1.55193 0.274407 0
M  V30 4808 C 439.943 -2.225 -0.613374 0
M  V30 4809 C 440.913 -1.19823 -1.15029 0
M  V30 4810 O 442.098 -1.48362 -1.19973 0
M  V30 4811 C 439.238 -2.94927 -1.79199 0
M  V30 4812 C 438.351 -4.12322 -1.28899 0
M  V30 4813 C 437.486 -4.72394 -2.42934 0
M  V30 4814 C 436.525 -5.81984 -1.89634 0
M  V30 4815 N 435.662 -6.36123 -2.9714 0
M  V30 4816 H 440.502 -2.97982 -0.032756 0
M  V30 4817 H 438.039 -1.47099 -0.00440146 0
M  V30 4818 H 439.997 -3.35134 -2.48478 0
M  V30 4819 H 438.627 -2.2187 -2.34465 0
M  V30 4820 H 437.679 -3.7724 -0.489327 0
M  V30 4821 H 438.991 -4.91355 -0.858587 0
M  V30 4822 H 438.145 -5.15317 -3.20208 0
M  V30 4823 H 436.884 -3.92636 -2.8929 0
M  V30 4824 H 435.889 -5.38511 -1.1084 0
M  V30 4825 H 437.114 -6.6361 -1.44215 0
M  V30 4826 H 435.06 -5.59259 -3.42878 0
M  V30 4827 H 434.977 -7.10427 -2.58515 0
M  V30 4828 H 436.245 -6.83704 -3.74391 0
M  V30 4829 N 440.474 -0.00167713 -1.576 0
M  V30 4830 C 441.89 0.354422 -1.55615 0
M  V30 4831 C 442.09 1.74679 -1.00447 0
M  V30 4832 O 441.146 2.4428 -0.639022 0
M  V30 4833 C 442.459 0.22812 -2.99833 0
M  V30 4834 C 444.007 0.302934 -3.11531 0
M  V30 4835 C 444.482 0.205737 -4.57538 0
M  V30 4836 N 445.973 0.263584 -4.62449 0
M  V30 4837 C 446.708 0.211742 -5.73009 0
M  V30 4838 N 446.204 0.110399 -6.92712 0
M  V30 4839 N 447.997 0.263729 -5.61481 0
M  V30 4840 H 440.148 -0.912498 -1.918 0
M  V30 4841 H 442.411 -0.349928 -0.881053 0
M  V30 4842 H 442.117 -0.729934 -3.44042 0
M  V30 4843 H 441.991 1.00951 -3.6344 0
M  V30 4844 H 444.378 1.25143 -2.67251 0
M  V30 4845 H 444.459 -0.508357 -2.50698 0
M  V30 4846 H 444.103 -0.739225 -5.02492 0
M  V30 4847 H 444.033 1.03554 -5.16318 0
M  V30 4848 H 446.524 0.343173 -3.76339 0
M  V30 4849 H 446.837 0.0767828 -7.72762 0
M  V30 4850 H 445.182 0.0760025 -6.94958 0
M  V30 4851 H 448.373 0.34111 -4.66855 0
M  V30 4852 H 448.546 0.219862 -6.47627 0
M  V30 4853 N 441.952 1.55251 0.271103 0
M  V30 4854 C 443.2 1.75599 1.00047 0
M  V30 4855 C 443.521 0.561188 1.8675 0
M  V30 4856 O 442.791 -0.423846 1.9126 0
M  V30 4857 H 441.371 0.647562 0.372387 0
M  V30 4858 H 444.033 1.92656 0.294876 0
M  V30 4859 H 443.129 2.65766 1.6363 0
M  V30 4860 N 443.43 -0.535701 1.48216 0
M  V30 4861 C 444.655 -1.32149 1.59848 0
M  V30 4862 C 445.08 -1.86338 0.256842 0
M  V30 4863 O 444.438 -1.64107 -0.770632 0
M  V30 4864 C 444.486 -2.45224 2.64381 0
M  V30 4865 O 443.59 -3.48093 2.21144 0
M  V30 4866 H 442.931 -0.391634 0.536208 0
M  V30 4867 H 445.461 -0.645202 1.94161 0
M  V30 4868 H 445.471 -2.91491 2.85476 0
M  V30 4869 H 444.146 -2.05143 3.61786 0
M  V30 4870 H 442.723 -3.07984 2.10239 0
M  V30 4871 N 444.908 -1.36708 -0.784132 0
M  V30 4872 C 445.838 -1.34153 -1.91116 0
M  V30 4873 C 446.819 -0.212121 -1.68772 0
M  V30 4874 O 448.004 -0.410581 -1.8981 0
M  V30 4875 C 445.134 -1.13535 -3.28218 0
M  V30 4876 C 444.088 -2.23356 -3.65097 0
M  V30 4877 C 443.414 -1.87875 -5.00607 0
M  V30 4878 C 444.714 -3.65473 -3.73131 0
M  V30 4879 H 446.408 -2.28459 -1.93512 0
M  V30 4880 H 443.954 -1.09973 -0.929618 0
M  V30 4881 H 445.907 -1.10381 -4.06687 0
M  V30 4882 H 444.631 -0.156804 -3.26223 0
M  V30 4883 H 443.29 -2.25645 -2.88929 0
M  V30 4884 H 442.938 -0.885814 -4.95139 0
M  V30 4885 H 442.638 -2.61406 -5.26252 0
M  V30 4886 H 444.162 -1.86286 -5.81489 0
M  V30 4887 H 445.576 -3.65382 -4.41779 0
M  V30 4888 H 443.973 -4.37953 -4.10265 0
M  V30 4889 H 445.043 -3.99995 -2.74102 0
M  V30 4890 N 446.386 1.0089 -1.21074 0
M  V30 4891 C 447.296 2.13039 -0.982425 0
M  V30 4892 C 448.312 1.73881 0.0642161 0
M  V30 4893 O 449.488 2.01012 -0.12496 0
M  V30 4894 C 446.553 3.42377 -0.545803 0
M  V30 4895 C 445.614 3.95731 -1.6642 0
M  V30 4896 C 444.847 5.18896 -1.24832 0
M  V30 4897 O 445.07 5.70273 -0.120265 0
M  V30 4898 O 444.004 5.65597 -2.05873 0
M  V30 4899 H 447.83 2.35175 -1.92163 0
M  V30 4900 H 445.415 1.1142 -0.995285 0
M  V30 4901 H 447.297 4.20244 -0.311912 0
M  V30 4902 H 445.972 3.21639 0.364727 0
M  V30 4903 H 444.879 3.19108 -1.95246 0
M  V30 4904 H 446.212 4.20872 -2.55201 0
M  V30 4905 N 447.864 1.01787 1.20321 0
M  V30 4906 C 448.796 0.547357 2.22568 0
M  V30 4907 C 449.809 -0.370922 1.58518 0
M  V30 4908 O 450.998 -0.169067 1.77698 0
M  V30 4909 C 448.098 -0.223031 3.38165 0
M  V30 4910 C 447.271 0.697472 4.31803 0
M  V30 4911 C 446.33 -0.025562 5.26194 0
M  V30 4912 O 445.356 0.597367 5.66057 0
M  V30 4913 N 446.558 -1.29999 5.65757 0
M  V30 4914 H 449.323 1.42668 2.63564 0
M  V30 4915 H 446.884 0.895552 1.34876 0
M  V30 4916 H 448.876 -0.716002 3.98316 0
M  V30 4917 H 447.446 -1.00366 2.9605 0
M  V30 4918 H 446.666 1.37073 3.69601 0
M  V30 4919 H 447.954 1.32347 4.91286 0
M  V30 4920 H 447.352 -1.827 5.35385 0
M  V30 4921 H 445.909 -1.73766 6.28211 0
M  V30 4922 N 449.342 -1.36122 0.79427 0
M  V30 4923 C 450.591 -1.98361 0.365464 0
M  V30 4924 C 450.904 -1.6374 -1.06997 0
M  V30 4925 O 452.11 -2.19251 -1.60129 0
M  V30 4926 C 450.566 -3.54821 0.602496 0
M  V30 4927 C 450.174 -3.98362 2.04967 0
M  V30 4928 C 451.918 -4.2383 0.238437 0
M  V30 4929 C 449.825 -5.47619 2.2331 0
M  V30 4930 H 448.755 -0.742193 0.13291 0
M  V30 4931 H 451.406 -1.55354 0.976589 0
M  V30 4932 H 449.788 -3.95922 -0.078409 0
M  V30 4933 H 450.962 -3.68447 2.76737 0
M  V30 4934 H 449.277 -3.42206 2.37243 0
M  V30 4935 H 451.874 -5.33529 0.353705 0
M  V30 4936 H 452.217 -4.08264 -0.814006 0
M  V30 4937 H 452.75 -3.88108 0.872769 0
M  V30 4938 H 449.489 -5.68138 3.26955 0
M  V30 4939 H 449.009 -5.79145 1.5605 0
M  V30 4940 H 450.688 -6.13911 2.0426 0
M  V30 4941 N 450.82 -0.546701 -1.47814 0
M  V30 4942 C 451.753 0.254472 -2.26777 0
M  V30 4943 C 452.731 0.929809 -1.33392 0
M  V30 4944 O 453.915 0.950889 -1.62759 0
M  V30 4945 C 451.042 1.36171 -3.10121 0
M  V30 4946 C 450.088 0.796038 -4.19005 0
M  V30 4947 S 450.921 -0.349191 -5.3436 0
M  V30 4948 C 452.077 0.760122 -6.21267 0
M  V30 4949 H 452.31 -0.415612 -2.94381 0
M  V30 4950 H 449.843 -0.332809 -1.5077 0
M  V30 4951 H 451.801 1.99588 -3.58713 0
M  V30 4952 H 450.462 2.00359 -2.41899 0
M  V30 4953 H 449.655 1.62719 -4.7701 0
M  V30 4954 H 449.257 0.238246 -3.7324 0
M  V30 4955 H 451.549 1.65479 -6.5698 0
M  V30 4956 H 452.492 0.217673 -7.07765 0
M  V30 4957 H 452.9 1.04806 -5.54685 0
M  V30 4958 N 452.299 1.55045 -0.282633 0
M  V30 4959 C 453.246 2.22822 0.601566 0
M  V30 4960 C 454.216 1.20431 1.14392 0
M  V30 4961 O 455.401 1.48996 1.19184 0
M  V30 4962 C 452.541 2.95873 1.77632 0
M  V30 4963 C 451.654 4.12999 1.26711 0
M  V30 4964 C 450.789 4.73676 2.40426 0
M  V30 4965 C 449.828 5.82981 1.86545 0
M  V30 4966 N 448.965 6.3769 2.93762 0
M  V30 4967 H 453.805 2.97995 0.0169528 0
M  V30 4968 H 451.342 1.471 -0.00339964 0
M  V30 4969 H 453.3 3.36447 2.46697 0
M  V30 4970 H 451.93 2.2311 2.33285 0
M  V30 4971 H 450.982 3.77494 0.469314 0
M  V30 4972 H 452.294 4.91803 0.832518 0
M  V30 4973 H 451.448 5.17008 3.17471 0
M  V30 4974 H 450.187 3.94164 2.87203 0
M  V30 4975 H 449.192 5.39092 1.07983 0
M  V30 4976 H 450.417 6.64366 1.40694 0
M  V30 4977 H 448.363 5.61069 3.39908 0
M  V30 4978 H 448.28 7.11788 2.54744 0
M  V30 4979 H 449.548 6.8568 3.7076 0
M  V30 4980 N 453.777 0.010035 1.57597 0
M  V30 4981 C 455.054 -0.710296 1.82248 0
M  V30 4982 C 455.434 -1.91426 0.889911 0
M  V30 4983 O 454.782 -2.28424 -0.0590292 0
M  V30 4984 C 454.992 -1.10655 3.30993 0
M  V30 4985 C 456.34 -1.50621 3.96987 0
M  V30 4986 O 457.364 -1.20007 3.35375 0
M  V30 4987 O 456.223 -2.07587 5.05539 0
M  V30 4988 H 453.317 -0.34673 0.750804 0
M  V30 4989 H 455.863 0.0362578 1.69661 0
M  V30 4990 H 454.635 -0.248826 3.90508 0
M  V30 4991 H 454.258 -1.91189 3.48615 0
M  V30 4992 N 455.255 -1.55392 -0.262866 0
M  V30 4993 C 456.671 -1.47459 -0.610582 0
M  V30 4994 C 456.871 -0.697031 -1.8906 0
M  V30 4995 O 455.927 -0.219952 -2.5154 0
M  V30 4996 C 457.24 -2.91751 -0.728131 0
M  V30 4997 C 458.788 -3.02027 -0.821517 0
M  V30 4998 C 459.263 -4.47594 -0.97076 0
M  V30 4999 N 460.754 -4.51465 -1.03603 0
M  V30 5000 C 461.489 -5.61326 -1.17049 0
M  V30 5001 N 460.985 -6.81032 -1.2715 0
M  V30 5002 N 462.778 -5.49089 -1.20239 0
M  V30 5003 H 454.929 -2.04395 0.577632 0
M  V30 5004 H 457.192 -0.927287 0.197086 0
M  V30 5005 H 456.898 -3.51413 0.142132 0
M  V30 5006 H 456.772 -3.4134 -1.6052 0
M  V30 5007 H 459.159 -2.42456 -1.68224 0
M  V30 5008 H 459.24 -2.55674 0.0803688 0
M  V30 5009 H 458.884 -5.07771 -0.114655 0
M  V30 5010 H 458.814 -4.91613 -1.88745 0
M  V30 5011 H 461.305 -3.6524 -0.96996 0
M  V30 5012 H 461.618 -7.60511 -1.37271 0
M  V30 5013 H 459.963 -6.83824 -1.24136 0
M  V30 5014 H 463.154 -4.54507 -1.11985 0
M  V30 5015 H 463.327 -6.34749 -1.30373 0
M  V30 5016 N 456.733 0.527833 -1.48498 0
M  V30 5017 C 457.979 1.28295 -1.57836 0
M  V30 5018 C 458.334 1.9077 -0.249943 0
M  V30 5019 O 457.627 1.76421 0.747402 0
M  V30 5020 C 457.821 2.39275 -2.65485 0
M  V30 5021 C 457.65 1.87679 -4.08664 0
M  V30 5022 C 456.42 1.70187 -4.75778 0
M  V30 5023 C 458.618 1.40409 -4.94762 0
M  V30 5024 N 456.6 1.13238 -6.03366 0
M  V30 5025 C 457.971 0.954216 -6.12613 0
M  V30 5026 C 460.026 1.28732 -4.8097 0
M  V30 5027 C 458.729 0.39915 -7.18192 0
M  V30 5028 C 460.755 0.746244 -5.86673 0
M  V30 5029 C 460.117 0.306457 -7.03733 0
M  V30 5030 H 456.216 0.460408 -0.632099 0
M  V30 5031 H 458.8 0.594913 -1.85388 0
M  V30 5032 H 456.971 3.05572 -2.3975 0
M  V30 5033 H 458.703 3.06308 -2.64495 0
M  V30 5034 H 455.458 1.93772 -4.32145 0
M  V30 5035 H 455.882 0.867687 -6.71417 0
M  V30 5036 H 460.524 1.61338 -3.90807 0
M  V30 5037 H 458.242 0.0607678 -8.08077 0
M  V30 5038 H 461.828 0.659041 -5.78055 0
M  V30 5039 H 460.708 -0.105708 -7.84129 0
M  V30 5040 N 458.211 1.37122 0.776871 0
M  V30 5041 C 459.144 1.26835 1.89705 0
M  V30 5042 C 460.122 0.14992 1.61907 0
M  V30 5043 O 461.306 0.323242 1.85708 0
M  V30 5044 C 458.433 0.95986 3.24814 0
M  V30 5045 C 457.479 2.09447 3.7153 0
M  V30 5046 S 458.312 3.71368 3.85806 0
M  V30 5047 C 459.468 3.42659 5.23771 0
M  V30 5048 H 459.701 2.21647 1.98141 0
M  V30 5049 H 457.234 1.22685 0.937433 0
M  V30 5050 H 459.192 0.788696 4.02852 0
M  V30 5051 H 457.853 0.0293137 3.14086 0
M  V30 5052 H 457.046 1.8335 4.69467 0
M  V30 5053 H 456.648 2.2255 3.00578 0
M  V30 5054 H 458.94 2.9733 6.0877 0
M  V30 5055 H 459.883 4.39905 5.54878 0
M  V30 5056 H 460.291 2.77708 4.91466 0
M  V30 5057 N 459.689 -1.00246 1.21608 0
M  V30 5058 C 460.637 -2.11193 0.97469 0
M  V30 5059 C 461.631 -1.69216 -0.0789303 0
M  V30 5060 O 462.837 -1.79853 0.0726806 0
M  V30 5061 H 459.212 -0.690455 0.297953 0
M  V30 5062 H 461.183 -2.2873 1.91638 0
M  V30 5063 C 459.932 -3.43182 0.558717 0
M  V30 5064 H 459.255 -3.75918 1.3611 0
M  V30 5065 H 460.695 -4.21823 0.429154 0
M  V30 5066 C 459.154 -3.28882 -0.730648 0
M  V30 5067 O 459.684 -3.59835 -1.78554 0
M  V30 5068 N 457.89 -2.8209 -0.698131 0
M  V30 5069 H 457.437 -2.57099 0.16061 0
M  V30 5070 H 457.395 -2.72903 -1.56113 0
M  V30 5071 N 461.167 -1.02423 -1.1978 0
M  V30 5072 C 462.413 -0.719051 -1.89625 0
M  V30 5073 C 462.746 0.750083 -1.7913 0
M  V30 5074 O 462.021 1.54574 -1.18056 0
M  V30 5075 C 462.304 -1.16499 -3.40735 0
M  V30 5076 C 462.157 -2.695 -3.60125 0
M  V30 5077 C 463.476 -0.742166 -4.33797 0
M  V30 5078 H 460.595 -0.26269 -0.688595 0
M  V30 5079 H 463.237 -1.27333 -1.41018 0
M  V30 5080 H 461.387 -0.69341 -3.82262 0
M  V30 5081 H 463.059 -3.24569 -3.278 0
M  V30 5082 H 461.302 -3.10113 -3.03336 0
M  V30 5083 H 461.973 -2.95757 -4.66081 0
M  V30 5084 H 464.449 -1.1477 -3.99959 0
M  V30 5085 H 463.325 -1.08213 -5.38127 0
M  V30 5086 H 463.586 0.355747 -4.40666 0
M  V30 5087 N 462.645 1.35699 -0.801477 0
M  V30 5088 C 463.893 1.9852 -0.37871 0
M  V30 5089 C 464.214 1.63907 1.05638 0
M  V30 5090 O 463.484 0.919013 1.73006 0
M  V30 5091 H 462.064 0.734322 -0.137042 0
M  V30 5092 H 464.726 1.65697 -1.02619 0
M  V30 5093 H 463.822 3.08382 -0.480284 0
M  V30 5094 N 464.123 0.554532 1.47522 0
M  V30 5095 C 465.073 -0.215008 2.26984 0
M  V30 5096 C 466.057 -0.88774 1.34194 0
M  V30 5097 O 467.249 -0.786489 1.58567 0
M  V30 5098 C 464.378 -1.24604 3.19889 0
M  V30 5099 C 463.464 -0.576857 4.20159 0
M  V30 5100 N 463.855 0.351541 5.04577 0
M  V30 5101 C 462.153 -0.831104 4.38188 0
M  V30 5102 C 462.854 0.739995 5.76974 0
M  V30 5103 N 461.83 0.0954407 5.43516 0
M  V30 5104 H 465.632 0.498843 2.89636 0
M  V30 5105 H 463.146 0.374279 1.58028 0
M  V30 5106 H 465.143 -1.81128 3.75498 0
M  V30 5107 H 463.803 -1.96101 2.58794 0
M  V30 5108 H 464.814 0.725556 5.12792 0
M  V30 5109 H 461.491 -1.53479 3.88266 0
M  V30 5110 H 462.881 1.50271 6.5488 0
M  V30 5111 N 465.601 -1.54893 0.290851 0
M  V30 5112 C 466.511 -2.26812 -0.59945 0
M  V30 5113 C 467.527 -1.29963 -1.15696 0
M  V30 5114 O 468.703 -1.62928 -1.18391 0
M  V30 5115 C 465.768 -2.98716 -1.75982 0
M  V30 5116 C 464.829 -4.1108 -1.2374 0
M  V30 5117 C 464.062 -4.79546 -2.34246 0
M  V30 5118 O 464.285 -4.47309 -3.53936 0
M  V30 5119 O 463.219 -5.67165 -2.01512 0
M  V30 5120 H 467.045 -3.03696 -0.0163561 0
M  V30 5121 H 464.63 -1.49289 0.0576755 0
M  V30 5122 H 466.512 -3.43851 -2.43607 0
M  V30 5123 H 465.187 -2.24737 -2.3297 0
M  V30 5124 H 464.094 -3.70367 -0.527163 0
M  V30 5125 H 465.427 -4.87007 -0.71307 0
M  V30 5126 N 467.08 -0.0183926 -1.57589 0
M  V30 5127 C 467.99 0.982943 -2.13015 0
M  V30 5128 C 469.006 1.36443 -1.07979 0
M  V30 5129 O 470.182 1.44802 -1.3998 0
M  V30 5130 C 467.247 2.25024 -2.63752 0
M  V30 5131 C 466.308 1.93018 -3.83461 0
M  V30 5132 C 465.541 3.13706 -4.31769 0
M  V30 5133 O 465.764 4.2601 -3.79305 0
M  V30 5134 O 464.698 2.96629 -5.23732 0
M  V30 5135 H 468.524 0.541709 -2.9883 0
M  V30 5136 H 466.109 0.201565 -1.48034 0
M  V30 5137 H 467.991 2.99441 -2.96502 0
M  V30 5138 H 466.666 2.68349 -1.81026 0
M  V30 5139 H 465.573 1.16019 -3.55655 0
M  V30 5140 H 466.906 1.54516 -4.67317 0
M  V30 5141 N 468.558 1.5553 0.254621 0
M  V30 5142 C 469.468 1.92789 1.33677 0
M  V30 5143 C 470.484 0.827356 1.53071 0
M  V30 5144 O 471.66 1.12807 1.66843 0
M  V30 5145 C 468.725 2.20827 2.67275 0
M  V30 5146 C 467.786 3.4427 2.5647 0
M  V30 5147 C 467.019 3.70961 3.83697 0
M  V30 5148 O 467.242 2.99852 4.85227 0
M  V30 5149 O 466.176 4.64491 3.82794 0
M  V30 5150 H 470.002 2.84945 1.05071 0
M  V30 5151 H 467.587 1.42312 0.454723 0
M  V30 5152 H 469.469 2.40204 3.46237 0
M  V30 5153 H 468.144 1.31851 2.9563 0
M  V30 5154 H 467.051 3.30209 1.75821 0
M  V30 5155 H 468.384 4.33524 2.33062 0
M  V30 5156 N 470.036 -0.519951 1.48776 0
M  V30 5157 C 470.946 -1.65025 1.66745 0
M  V30 5158 C 471.962 -1.6508 0.549954 0
M  V30 5159 O 473.138 -1.83848 0.822295 0
M  V30 5160 C 470.203 -3.0146 1.71238 0
M  V30 5161 C 469.264 -3.12182 2.94688 0
M  V30 5162 C 468.497 -4.42109 2.98958 0
M  V30 5163 O 468.72 -5.29799 2.1135 0
M  V30 5164 O 467.654 -4.57406 3.91233 0
M  V30 5165 H 471.48 -1.52801 2.62461 0
M  V30 5166 H 469.065 -0.694157 1.32294 0
M  V30 5167 H 470.947 -3.82584 1.76657 0
M  V30 5168 H 469.622 -3.13988 0.786975 0
M  V30 5169 H 468.529 -2.30316 2.94797 0
M  V30 5170 H 469.862 -3.04574 3.86646 0
M  V30 5171 N 471.514 -1.37532 -0.769588 0
M  V30 5172 C 472.444 -1.36172 -1.89682 0
M  V30 5173 C 473.425 -0.23001 -1.68538 0
M  V30 5174 O 474.61 -0.43069 -1.89364 0
M  V30 5175 C 471.74 -1.1701 -3.26995 0
M  V30 5176 C 470.694 -2.27216 -3.62708 0
M  V30 5177 C 470.02 -1.93174 -4.98586 0
M  V30 5178 C 471.32 -3.6941 -3.69234 0
M  V30 5179 H 473.014 -2.30499 -1.91078 0
M  V30 5180 H 470.56 -1.10953 -0.917902 0
M  V30 5181 H 472.513 -1.14688 -4.05493 0
M  V30 5182 H 471.237 -0.191395 -3.26039 0
M  V30 5183 H 469.896 -2.28697 -2.86519 0
M  V30 5184 H 469.544 -0.938281 -4.94171 0
M  V30 5185 H 469.244 -2.66973 -5.23449 0
M  V30 5186 H 470.768 -1.92443 -5.79481 0
M  V30 5187 H 472.182 -3.70047 -4.37879 0
M  V30 5188 H 470.579 -4.4228 -4.05597 0
M  V30 5189 H 471.649 -4.0288 -2.69844 0
M  V30 5190 N 472.992 0.995999 -1.22138 0
M  V30 5191 C 473.939 2.08551 -0.988687 0
M  V30 5192 C 474.909 1.65864 0.0885021 0
M  V30 5193 O 476.094 1.90704 -0.0604589 0
M  V30 5194 C 473.234 3.40374 -0.569191 0
M  V30 5195 C 472.347 3.96421 -1.71681 0
M  V30 5196 C 471.482 5.1639 -1.2456 0
M  V30 5197 C 470.521 5.64567 -2.36497 0
M  V30 5198 N 469.658 6.75777 -1.90445 0
M  V30 5199 H 474.498 2.2779 -1.92135 0
M  V30 5200 H 472.035 1.1168 -0.957388 0
M  V30 5201 H 473.993 4.16068 -0.307166 0
M  V30 5202 H 472.623 3.21145 0.326462 0
M  V30 5203 H 471.675 3.17628 -2.09324 0
M  V30 5204 H 472.987 4.2816 -2.55891 0
M  V30 5205 H 472.141 5.99362 -0.940774 0
M  V30 5206 H 470.88 4.86266 -0.373662 0
M  V30 5207 H 469.885 4.80185 -2.67772 0
M  V30 5208 H 471.11 5.96716 -3.24202 0
M  V30 5209 H 469.056 6.47443 -1.05609 0
M  V30 5210 H 468.973 7.06818 -2.68223 0
M  V30 5211 H 470.241 7.62262 -1.63022 0
M  V30 5212 N 474.47 1.03057 1.19235 0
M  V30 5213 C 475.881 0.757449 1.70645 0
M  V30 5214 C 476.232 -0.722735 1.82403 0
M  V30 5215 O 475.357 -1.56325 1.49638 0
M  V30 5216 C 475.952 1.36833 3.09939 0
M  V30 5217 C 474.511 1.14375 3.58602 0
M  V30 5218 C 473.658 1.46533 2.35422 0
M  V30 5219 H 476.609 1.19828 1.04052 0
M  V30 5220 H 476.63 0.766184 3.72706 0
M  V30 5221 H 476.142 2.44562 3.01349 0
M  V30 5222 H 474.243 0.0847542 3.72504 0
M  V30 5223 H 474.356 1.83366 4.42622 0
M  V30 5224 H 472.72 0.884712 2.38841 0
M  V30 5225 H 473.503 2.55349 2.2946 0
M  V30 5226 N 475.948 -1.35272 0.808662 0
M  V30 5227 C 477.178 -2.02652 0.401953 0
M  V30 5228 C 477.586 -1.6108 -0.992462 0
M  V30 5229 O 476.929 -0.804984 -1.65123 0
M  V30 5230 C 476.991 -3.57174 0.408246 0
M  V30 5231 C 476.655 -4.22019 1.75353 0
M  V30 5232 C 477.652 -4.43552 2.71215 0
M  V30 5233 C 475.337 -4.59093 2.03811 0
M  V30 5234 C 477.331 -5.01264 3.93717 0
M  V30 5235 C 475.018 -5.16519 3.26576 0
M  V30 5236 C 476.016 -5.37546 4.21347 0
M  V30 5237 O 475.704 -5.93761 5.41944 0
M  V30 5238 H 475.436 -0.656495 0.161216 0
M  V30 5239 H 477.99 -1.73829 1.0942 0
M  V30 5240 H 476.22 -3.85197 -0.340608 0
M  V30 5241 H 477.909 -4.05893 0.0235623 0
M  V30 5242 H 478.675 -4.15288 2.50522 0
M  V30 5243 H 474.554 -4.42039 1.30854 0
M  V30 5244 H 478.098 -5.17592 4.67701 0
M  V30 5245 H 473.995 -5.4421 3.47139 0
M  V30 5246 H 474.763 -6.1221 5.43269 0
M  V30 5247 N 477.426 -0.562348 -1.47226 0
M  V30 5248 C 478.654 -0.0452275 -2.06851 0
M  V30 5249 C 479.069 1.25078 -1.41424 0
M  V30 5250 O 478.426 1.75156 -0.512513 0
M  V30 5251 C 478.477 0.148674 -3.61194 0
M  V30 5252 O 478.198 -1.09602 -4.24169 0
M  V30 5253 C 479.699 0.702488 -4.37699 0
M  V30 5254 H 476.919 -0.0481775 -0.669268 0
M  V30 5255 H 479.463 -0.777223 -1.89155 0
M  V30 5256 H 477.618 0.830817 -3.78386 0
M  V30 5257 H 478.032 -0.896982 -5.16773 0
M  V30 5258 H 479.506 0.78743 -5.46355 0
M  V30 5259 H 479.983 1.71493 -4.04335 0
M  V30 5260 H 480.589 0.0558772 -4.25263 0
M  V30 5261 N 478.904 1.54736 -0.299062 0
M  V30 5262 C 479.814 2.27127 0.587413 0
M  V30 5263 C 480.83 1.30575 1.15005 0
M  V30 5264 O 482.006 1.63554 1.17525 0
M  V30 5265 C 479.071 2.99645 1.74395 0
M  V30 5266 C 478.132 4.11731 1.21559 0
M  V30 5267 C 477.365 4.80781 2.317 0
M  V30 5268 O 477.588 4.4918 3.51558 0
M  V30 5269 O 476.522 5.68226 1.98501 0
M  V30 5270 H 480.348 3.037 0.000250109 0
M  V30 5271 H 477.933 1.49256 -0.0655919 0
M  V30 5272 H 479.815 3.45138 2.4178 0
M  V30 5273 H 478.49 2.25969 2.31775 0
M  V30 5274 H 477.397 3.70641 0.507514 0
M  V30 5275 H 478.73 4.87379 0.687233 0
M  V30 5276 N 480.382 0.0267497 1.57577 0
M  V30 5277 C 481.793 -0.512413 1.79531 0
M  V30 5278 C 482.144 -1.72391 0.936791 0
M  V30 5279 O 481.269 -2.15903 0.146543 0
M  V30 5280 C 481.864 -0.936378 3.25603 0
M  V30 5281 C 480.423 -1.42067 3.4856 0
M  V30 5282 C 479.57 -0.384278 2.74624 0
M  V30 5283 H 482.521 0.252797 1.56674 0
M  V30 5284 H 482.542 -1.80088 3.35184 0
M  V30 5285 H 482.054 -0.0544332 3.88062 0
M  V30 5286 H 480.155 -2.32262 2.9135 0
M  V30 5287 H 480.268 -1.42968 4.57271 0
M  V30 5288 H 478.632 -0.851855 2.40032 0
M  V30 5289 H 479.415 0.489159 3.39797 0
M  V30 5290 N 481.861 -1.55662 -0.24637 0
M  V30 5291 C 483.138 -1.68272 -0.997198 0
M  V30 5292 C 483.518 -0.566785 -2.03349 0
M  V30 5293 O 482.866 0.429688 -2.24424 0
M  V30 5294 C 483.076 -3.08594 -1.63006 0
M  V30 5295 C 484.424 -3.6721 -2.13171 0
M  V30 5296 O 485.448 -3.11397 -1.72946 0
M  V30 5297 O 484.307 -4.65054 -2.87031 0
M  V30 5298 H 481.401 -0.684429 -0.464205 0
M  V30 5299 H 483.947 -1.67993 -0.240114 0
M  V30 5300 H 482.719 -3.81264 -0.880527 0
M  V30 5301 H 482.342 -3.12886 -2.45333 0
M  V30 5302 N 483.339 0.512053 -1.4905 0
M  V30 5303 C 484.75 1.09376 -1.51307 0
M  V30 5304 C 485.101 1.94 -0.292971 0
M  V30 5305 O 484.226 2.07965 0.598277 0
M  V30 5306 C 484.821 1.99031 -2.74176 0
M  V30 5307 C 483.38 2.52385 -2.79247 0
M  V30 5308 C 482.527 1.29749 -2.45073 0
M  V30 5309 H 485.478 0.296467 -1.55906 0
M  V30 5310 H 485.499 2.83569 -2.53711 0
M  V30 5311 H 485.011 1.37412 -3.62959 0
M  V30 5312 H 483.112 3.17673 -1.94716 0
M  V30 5313 H 483.225 2.90293 -3.81139 0
M  V30 5314 H 481.589 1.61912 -1.96612 0
M  V30 5315 H 482.372 0.698555 -3.36118 0
M  V30 5316 N 484.817 1.37938 0.762283 0
M  V30 5317 C 486.094 1.24196 1.51112 0
M  V30 5318 C 486.474 -0.160409 2.1049 0
M  V30 5319 O 485.822 -1.16904 1.96331 0
M  V30 5320 C 486.032 2.34537 2.58445 0
M  V30 5321 C 487.38 2.7254 3.25588 0
M  V30 5322 O 488.404 2.33783 2.68745 0
M  V30 5323 O 487.263 3.39343 4.28379 0
M  V30 5324 H 484.357 0.485175 0.669727 0
M  V30 5325 H 486.903 1.49743 0.798438 0
M  V30 5326 H 485.675 3.28406 2.12756 0
M  V30 5327 H 485.298 2.10505 3.37303 0
M  V30 5328 N 486.295 -0.989507 1.22664 0
M  V30 5329 C 487.542 -1.72953 1.05325 0
M  V30 5330 C 487.87 -1.90104 -0.411168 0
M  V30 5331 O 487.125 -1.44386 -1.32103 0
M  V30 5332 C 487.424 -3.13649 1.71345 0
M  V30 5333 C 487.09 -3.16403 3.21248 0
M  V30 5334 C 485.752 -3.16862 3.62149 0
M  V30 5335 C 488.104 -3.12428 4.17179 0
M  V30 5336 C 485.432 -3.11051 4.97458 0
M  V30 5337 C 487.784 -3.08159 5.52468 0
M  V30 5338 C 486.448 -3.06935 5.92746 0
M  V30 5339 H 485.718 -0.632881 0.385412 0
M  V30 5340 H 488.365 -1.15863 1.52473 0
M  V30 5341 H 486.67 -3.74069 1.16532 0
M  V30 5342 H 488.367 -3.69658 1.55416 0
M  V30 5343 H 484.957 -3.16798 2.88682 0
M  V30 5344 H 489.141 -3.11221 3.86595 0
M  V30 5345 H 484.397 -3.0845 5.27891 0
M  V30 5346 H 488.571 -3.04039 6.26525 0
M  V30 5347 H 486.198 -3.02186 6.97558 0
M  V30 5348 N 487.773 -1.03688 -1.18687 0
M  V30 5349 C 488.721 -0.618292 -2.24232 0
M  V30 5350 C 489.715 0.353045 -1.6568 0
M  V30 5351 O 490.921 0.220749 -1.78641 0
M  V30 5352 H 487.296 -0.181711 -0.729716 0
M  V30 5353 H 489.267 -1.51893 -2.56848 0
M  V30 5354 C 488.016 0.00677342 -3.47699 0
M  V30 5355 H 487.339 -0.731692 -3.93047 0
M  V30 5356 H 488.779 0.262492 -4.23187 0
M  V30 5357 C 487.238 1.25572 -3.12623 0
M  V30 5358 O 487.768 2.34691 -3.26011 0
M  V30 5359 N 485.974 1.14755 -2.66982 0
M  V30 5360 H 485.521 0.259601 -2.56289 0
M  V30 5361 H 485.479 1.98412 -2.43885 0
M  V30 5362 N 489.251 1.34841 -0.815825 0
M  V30 5363 C 490.528 1.92908 -0.323416 0
M  V30 5364 C 490.908 1.74479 1.18828 0
M  V30 5365 O 490.256 1.11928 1.99209 0
M  V30 5366 C 490.466 3.40957 -0.744952 0
M  V30 5367 C 491.814 4.18107 -0.739716 0
M  V30 5368 O 492.838 3.49511 -0.68708 0
M  V30 5369 O 491.697 5.40517 -0.806456 0
M  V30 5370 H 488.791 0.822436 -0.0867646 0
M  V30 5371 H 491.337 1.4386 -0.90014 0
M  V30 5372 H 490.109 3.4814 -1.78646 0
M  V30 5373 H 489.732 3.97341 -0.143535 0
M  V30 5374 N 490.729 0.570148 1.46925 0
M  V30 5375 C 491.957 0.0561966 2.06824 0
M  V30 5376 C 492.372 -1.24326 1.42086 0
M  V30 5377 O 491.729 -1.74882 0.521794 0
M  V30 5378 C 491.78 -0.129517 3.61268 0
M  V30 5379 O 491.501 1.1185 4.23581 0
M  V30 5380 C 493.002 -0.679266 4.38065 0
M  V30 5381 H 490.222 0.0517261 0.669003 0
M  V30 5382 H 492.766 0.787243 1.8874 0
M  V30 5383 H 490.921 -0.810739 3.78822 0
M  V30 5384 H 491.335 0.924375 5.1629 0
M  V30 5385 H 492.809 -0.758445 5.46765 0
M  V30 5386 H 493.286 -1.69346 4.05239 0
M  V30 5387 H 493.892 -0.0333237 4.25287 0
M  V30 5388 N 492.207 -1.54576 0.307264 0
M  V30 5389 C 493.154 -2.23751 -0.56604 0
M  V30 5390 C 494.124 -1.22235 -1.12462 0
M  V30 5391 O 495.309 -1.50873 -1.16799 0
M  V30 5392 C 492.449 -2.98661 -1.72903 0
M  V30 5393 C 491.562 -4.14963 -1.20124 0
M  V30 5394 C 490.697 -4.77441 -2.3286 0
M  V30 5395 C 489.736 -5.85875 -1.77247 0
M  V30 5396 N 488.873 -6.42282 -2.8358 0
M  V30 5397 H 493.713 -2.97984 0.0304578 0
M  V30 5398 H 491.25 -1.47076 0.0268015 0
M  V30 5399 H 493.208 -3.40329 -2.41313 0
M  V30 5400 H 491.838 -2.26793 -2.29706 0
M  V30 5401 H 490.89 -3.78193 -0.409198 0
M  V30 5402 H 492.202 -4.93066 -0.754171 0
M  V30 5403 H 491.356 -5.21993 -3.09205 0
M  V30 5404 H 490.095 -3.98684 -2.80896 0
M  V30 5405 H 489.1 -5.40741 -0.993926 0
M  V30 5406 H 490.325 -6.6652 -1.30107 0
M  V30 5407 H 488.271 -5.66406 -3.30939 0
M  V30 5408 H 488.188 -7.1575 -2.43388 0
M  V30 5409 H 489.456 -6.91492 -3.59804 0
M  V30 5410 N 493.685 -0.035106 -1.57561 0
M  V30 5411 C 495.101 0.321334 -1.56332 0
M  V30 5412 C 495.301 1.72509 -1.04129 0
M  V30 5413 O 494.357 2.4287 -0.690694 0
M  V30 5414 C 495.67 0.164469 -3.0025 0
M  V30 5415 C 497.218 0.236786 -3.12103 0
M  V30 5416 C 497.693 0.10864 -4.57871 0
M  V30 5417 N 499.184 0.165433 -4.62904 0
M  V30 5418 C 499.919 0.0901506 -5.73329 0
M  V30 5419 N 499.415 -0.0365606 -6.9279 0
M  V30 5420 N 501.208 0.144572 -5.61914 0
M  V30 5421 H 493.359 -0.952976 -1.89821 0
M  V30 5422 H 495.622 -0.368537 -0.873432 0
M  V30 5423 H 495.328 -0.802746 -3.42416 0
M  V30 5424 H 495.202 0.932194 -3.655 0
M  V30 5425 H 497.589 1.19446 -2.69845 0
M  V30 5426 H 497.67 -0.561419 -2.49563 0
M  V30 5427 H 497.314 -0.845644 -5.00811 0
M  V30 5428 H 497.244 0.925786 -5.18398 0
M  V30 5429 H 499.735 0.263269 -3.76982 0
M  V30 5430 H 500.048 -0.0871487 -7.72751 0
M  V30 5431 H 498.393 -0.0714256 -6.94963 0
M  V30 5432 H 501.584 0.242006 -4.67474 0
M  V30 5433 H 501.757 0.0824413 -6.47948 0
M  V30 5434 N 495.163 1.55791 0.238111 0
M  V30 5435 C 496.412 1.77234 0.962868 0
M  V30 5436 C 496.725 0.600661 1.86149 0
M  V30 5437 O 497.931 0.698315 2.62366 0
M  V30 5438 C 496.387 3.13808 1.76218 0
M  V30 5439 C 495.995 4.3865 0.910518 0
M  V30 5440 C 497.739 3.44585 2.47914 0
M  V30 5441 C 495.646 5.66252 1.70623 0
M  V30 5442 H 494.576 0.660731 0.36325 0
M  V30 5443 H 497.227 1.8221 0.217242 0
M  V30 5444 H 495.609 3.02963 2.55009 0
M  V30 5445 H 496.783 4.60507 0.164316 0
M  V30 5446 H 495.098 4.15271 0.30647 0
M  V30 5447 H 497.695 4.3714 3.07917 0
M  V30 5448 H 498.038 2.66314 3.19973 0
M  V30 5449 H 498.571 3.56685 1.76127 0
M  V30 5450 H 495.31 6.47369 1.02923 0
M  V30 5451 H 494.83 5.48483 2.42748 0
M  V30 5452 H 496.509 6.05829 2.27114 0
M  V30 5453 N 496.642 -0.504142 1.49319 0
M  V30 5454 C 497.919 -1.26548 1.49147 0
M  V30 5455 C 498.299 -2.09977 0.21744 0
M  V30 5456 O 497.647 -2.14028 -0.800269 0
M  V30 5457 C 497.857 -2.12489 2.76857 0
M  V30 5458 C 499.205 -2.7178 3.26222 0
M  V30 5459 O 500.229 -2.22758 2.77952 0
M  V30 5460 O 499.088 -3.61015 4.10281 0
M  V30 5461 H 496.182 -0.572495 0.596806 0
M  V30 5462 H 498.728 -0.51867 1.61579 0
M  V30 5463 H 497.5 -1.50796 3.61077 0
M  V30 5464 H 497.123 -2.94368 2.6727 0
M  V30 5465 N 498.12 -1.38341 -0.754957 0
M  V30 5466 C 499.369 -1.33791 -1.5094 0
M  V30 5467 C 499.682 0.0699267 -1.95475 0
M  V30 5468 O 500.888 0.237956 -2.70455 0
M  V30 5469 C 499.344 -2.34934 -2.72643 0
M  V30 5470 C 498.952 -3.81332 -2.35138 0
M  V30 5471 C 500.696 -2.39425 -3.50536 0
M  V30 5472 C 498.603 -4.74164 -3.53444 0
M  V30 5473 H 497.533 -0.497314 -0.566741 0
M  V30 5474 H 500.184 -1.63888 -0.825403 0
M  V30 5475 H 498.566 -1.97878 -3.43017 0
M  V30 5476 H 499.74 -4.27319 -1.7244 0
M  V30 5477 H 498.055 -3.79946 -1.70382 0
M  V30 5478 H 500.652 -3.0598 -4.38498 0
M  V30 5479 H 500.995 -1.41278 -3.91594 0
M  V30 5480 H 501.528 -2.75274 -2.87174 0
M  V30 5481 H 498.267 -5.73501 -3.17453 0
M  V30 5482 H 497.787 -4.3287 -4.15191 0
M  V30 5483 H 499.466 -4.92111 -4.20043 0
M  V30 5484 N 499.598 0.982988 -1.23187 0
M  V30 5485 C 500.531 2.07302 -0.953993 0
M  V30 5486 C 501.509 1.62249 0.106753 0
M  V30 5487 O 502.693 1.88481 -0.0269525 0
M  V30 5488 C 499.82 3.35873 -0.436716 0
M  V30 5489 C 498.866 3.99862 -1.48367 0
M  V30 5490 S 499.699 4.39443 -3.06023 0
M  V30 5491 C 500.855 5.7117 -2.55959 0
M  V30 5492 H 501.088 2.30554 -1.87702 0
M  V30 5493 H 498.621 1.11883 -1.06403 0
M  V30 5494 H 500.579 4.10244 -0.144872 0
M  V30 5495 H 499.24 3.10634 0.465351 0
M  V30 5496 H 498.433 4.92471 -1.07182 0
M  V30 5497 H 498.035 3.31857 -1.72473 0
M  V30 5498 H 500.327 6.47977 -1.97818 0
M  V30 5499 H 501.27 6.17194 -3.47098 0
M  V30 5500 H 501.678 5.29046 -1.96902 0
M  V30 5501 N 501.076 1.04316 1.18135 0
M  V30 5502 C 502.322 0.749128 1.88457 0
M  V30 5503 C 502.655 -0.72149 1.803 0
M  V30 5504 O 501.93 -1.52676 1.205 0
M  V30 5505 C 502.213 1.21905 3.38838 0
M  V30 5506 C 502.066 2.75195 3.55792 0
M  V30 5507 C 503.385 0.811085 4.32561 0
M  V30 5508 H 500.504 0.273611 0.684329 0
M  V30 5509 H 503.146 1.29561 1.38975 0
M  V30 5510 H 501.296 0.754137 3.8111 0
M  V30 5511 H 502.968 3.29743 3.22595 0
M  V30 5512 H 501.211 3.14899 2.98364 0
M  V30 5513 H 501.882 3.03135 4.61317 0
M  V30 5514 H 504.358 1.21118 3.98082 0
M  V30 5515 H 503.234 1.16761 5.36338 0
M  V30 5516 H 503.495 -0.285596 4.41177 0
M  V30 5517 N 502.554 -1.34406 0.822964 0
M  V30 5518 C 503.782 -2.02508 0.424039 0
M  V30 5519 C 504.197 -1.61975 -0.970022 0
M  V30 5520 O 503.554 -0.825228 -1.62777 0
M  V30 5521 C 503.605 -3.57789 0.516657 0
M  V30 5522 O 503.326 -3.96853 1.85577 0
M  V30 5523 C 504.827 -4.43157 0.112637 0
M  V30 5524 H 502.047 -0.649063 0.170173 0
M  V30 5525 H 504.591 -1.7168 1.11113 0
M  V30 5526 H 502.746 -3.87207 -0.122353 0
M  V30 5527 H 503.16 -4.91538 1.83005 0
M  V30 5528 H 504.634 -5.51527 0.228526 0
M  V30 5529 H 505.111 -4.28939 -0.943837 0
M  V30 5530 H 505.717 -4.19067 0.725449 0
M  V30 5531 N 504.032 -0.577932 -1.46621 0
M  V30 5532 C 504.965 0.206312 -2.27265 0
M  V30 5533 C 505.943 0.901306 -1.35334 0
M  V30 5534 O 507.127 0.916151 -1.64739 0
M  V30 5535 C 504.254 1.29563 -3.1294 0
M  V30 5536 C 503.3 0.706981 -4.206 0
M  V30 5537 S 504.133 -0.462459 -5.33499 0
M  V30 5538 C 505.289 0.628171 -6.2274 0
M  V30 5539 H 505.522 -0.477961 -2.93433 0
M  V30 5540 H 503.055 -0.364715 -1.50031 0
M  V30 5541 H 505.013 1.91935 -3.62865 0
M  V30 5542 H 503.674 1.95183 -2.46095 0
M  V30 5543 H 502.867 1.52565 -4.80354 0
M  V30 5544 H 502.469 0.159022 -3.73662 0
M  V30 5545 H 504.761 1.51506 -6.60342 0
M  V30 5546 H 505.704 0.0674961 -7.08068 0
M  V30 5547 H 506.112 0.930167 -5.56784 0
M  V30 5548 N 505.51 1.54411 -0.315457 0
M  V30 5549 C 506.758 2.00023 0.288971 0
M  V30 5550 C 507.079 1.20529 1.5329 0
M  V30 5551 O 506.349 0.304986 1.93511 0
M  V30 5552 H 504.929 0.738891 0.109766 0
M  V30 5553 H 507.591 1.90094 -0.430129 0
M  V30 5554 H 506.687 3.07198 0.550999 0
M  V30 5555 N 506.988 0.0434614 1.5754 0
M  V30 5556 C 508.235 -0.632035 1.92384 0
M  V30 5557 C 508.563 -1.71304 0.921157 0
M  V30 5558 O 507.818 -1.95583 -0.067744 0
M  V30 5559 C 508.117 -1.2738 3.3393 0
M  V30 5560 C 507.783 -0.321757 4.49751 0
M  V30 5561 C 506.445 -0.0597611 4.81163 0
M  V30 5562 C 508.797 0.331158 5.20147 0
M  V30 5563 C 506.125 0.862715 5.80322 0
M  V30 5564 C 508.477 1.24178 6.20292 0
M  V30 5565 C 507.141 1.51252 6.50138 0
M  V30 5566 H 506.411 -0.231278 0.703983 0
M  V30 5567 H 509.058 0.108294 1.91194 0
M  V30 5568 H 507.363 -2.08921 3.3145 0
M  V30 5569 H 509.06 -1.80326 3.58167 0
M  V30 5570 H 505.65 -0.53614 4.25233 0
M  V30 5571 H 509.834 0.141826 4.96097 0
M  V30 5572 H 505.09 1.08003 6.01785 0
M  V30 5573 H 509.264 1.75381 6.73954 0
M  V30 5574 H 506.891 2.22897 7.26788 0
M  V30 5575 N 508.466 -1.55915 -0.229846 0
M  V30 5576 C 509.429 -1.90914 -1.26824 0
M  V30 5577 C 510.429 -0.786999 -1.40225 0
M  V30 5578 O 511.619 -1.05484 -1.38632 0
M  V30 5579 C 508.751 -2.15264 -2.64337 0
M  V30 5580 H 509.944 -2.8378 -0.969998 0
M  V30 5581 H 507.497 -1.49069 -0.4699 0
M  V30 5582 H 508.232 -1.24923 -2.99274 0
M  V30 5583 H 508.017 -2.97005 -2.55989 0
M  V30 5584 H 509.507 -2.43467 -3.39284 0
M  V30 5585 N 509.944 0.496216 -1.49584 0
M  V30 5586 C 511.36 0.827814 -1.36453 0
M  V30 5587 C 511.56 1.97464 -0.401285 0
M  V30 5588 O 510.616 2.51958 0.165296 0
M  V30 5589 C 511.929 1.16352 -2.77277 0
M  V30 5590 C 513.477 1.27145 -2.86013 0
M  V30 5591 C 513.952 1.64042 -4.27615 0
M  V30 5592 N 515.443 1.71082 -4.30448 0
M  V30 5593 C 516.178 2.01085 -5.36984 0
M  V30 5594 N 515.674 2.2928 -6.5376 0
M  V30 5595 N 517.467 2.02376 -5.24405 0
M  V30 5596 H 509.618 -0.259947 -2.10803 0
M  V30 5597 H 511.881 -0.0537163 -0.946477 0
M  V30 5598 H 511.587 0.394153 -3.49484 0
M  V30 5599 H 511.461 2.10582 -3.12946 0
M  V30 5600 H 513.848 2.03152 -2.1404 0
M  V30 5601 H 513.929 0.309542 -2.5392 0
M  V30 5602 H 513.573 0.88583 -5.00115 0
M  V30 5603 H 513.503 2.6134 -4.57175 0
M  V30 5604 H 515.994 1.51434 -3.46232 0
M  V30 5605 H 516.307 2.51376 -7.30774 0
M  V30 5606 H 514.652 2.26726 -6.56978 0
M  V30 5607 H 517.843 1.79829 -4.32179 0
M  V30 5608 H 518.016 2.25425 -6.07526 0
M  V30 5609 N 511.423 1.38739 0.74761 0
M  V30 5610 C 512.7 1.25791 1.49786 0
M  V30 5611 C 513.08 -0.138075 2.10648 0
M  V30 5612 O 512.428 -1.14815 1.9756 0
M  V30 5613 C 512.638 2.37265 2.55942 0
M  V30 5614 C 513.986 2.75978 3.22679 0
M  V30 5615 O 515.01 2.36621 2.6625 0
M  V30 5616 O 513.869 3.43867 4.24756 0
M  V30 5617 H 510.963 0.492251 0.664543 0
M  V30 5618 H 513.509 1.50582 0.782511 0
M  V30 5619 H 512.281 3.30644 2.0926 0
M  V30 5620 H 511.904 2.14071 3.35051 0
M  V30 5621 N 512.901 -0.976442 1.23707 0
M  V30 5622 C 513.811 -2.10359 1.03856 0
M  V30 5623 C 514.827 -1.73991 -0.0180919 0
M  V30 5624 O 516.003 -2.0061 0.178211 0
M  V30 5625 C 513.068 -3.40809 0.636387 0
M  V30 5626 C 512.129 -3.91179 1.76854 0
M  V30 5627 C 511.362 -5.15404 1.38546 0
M  V30 5628 O 511.585 -5.69754 0.27142 0
M  V30 5629 O 510.519 -5.5994 2.20797 0
M  V30 5630 H 514.345 -2.29997 1.98331 0
M  V30 5631 H 511.93 -1.08742 1.02448 0
M  V30 5632 H 513.812 -4.19269 0.423223 0
M  V30 5633 H 512.487 -3.22493 -0.279322 0
M  V30 5634 H 511.394 -3.13819 2.03638 0
M  V30 5635 H 512.727 -4.13958 2.6627 0
M  V30 5636 N 514.379 -1.04941 -1.1758 0
M  V30 5637 C 515.628 -0.753124 -1.87112 0
M  V30 5638 C 515.941 0.722507 -1.81767 0
M  V30 5639 O 517.147 1.13265 -2.46746 0
M  V30 5640 C 515.603 -1.29695 -3.35719 0
M  V30 5641 C 515.211 -2.80184 -3.49572 0
M  V30 5642 C 516.955 -1.07759 -4.10595 0
M  V30 5643 C 514.862 -3.2788 -4.92187 0
M  V30 5644 H 513.792 -0.278034 -0.700866 0
M  V30 5645 H 516.443 -1.26637 -1.32798 0
M  V30 5646 H 514.825 -0.711522 -3.89555 0
M  V30 5647 H 515.999 -3.44561 -3.05965 0
M  V30 5648 H 514.314 -3.00632 -2.88113 0
M  V30 5649 H 516.911 -1.40899 -5.15802 0
M  V30 5650 H 517.254 -0.0152302 -4.16297 0
M  V30 5651 H 517.787 -1.62809 -3.62957 0
M  V30 5652 H 514.526 -4.33535 -4.91658 0
M  V30 5653 H 514.046 -2.68245 -5.36475 0
M  V30 5654 H 515.725 -3.22412 -5.60945 0
M  V30 5655 N 515.857 1.33968 -0.830081 0
M  V30 5656 C 516.805 2.31301 -0.245435 0
M  V30 5657 C 517.799 1.57734 0.617762 0
M  V30 5658 O 519.005 1.72674 0.508303 0
M  V30 5659 H 515.38 0.749552 -0.0606316 0
M  V30 5660 H 517.351 2.78129 -1.08105 0
M  V30 5661 C 516.1 3.42961 0.572084 0
M  V30 5662 H 515.423 3.99714 -0.0828118 0
M  V30 5663 H 516.863 4.13286 0.94715 0
M  V30 5664 C 515.322 2.88043 1.74737 0
M  V30 5665 O 515.852 2.83508 2.8458 0
M  V30 5666 N 514.058 2.44768 1.56642 0
M  V30 5667 H 513.605 2.48656 0.672901 0
M  V30 5668 H 513.563 2.08375 2.3543 0
M  V30 5669 N 517.335 0.585699 1.46312 0
M  V30 5670 C 518.612 0.00542031 1.95599 0
M  V30 5671 C 518.992 -1.45619 1.52834 0
M  V30 5672 O 518.34 -2.14759 0.780446 0
M  V30 5673 C 518.55 0.180601 3.48532 0
M  V30 5674 C 519.898 0.049979 4.24571 0
M  V30 5675 O 520.922 0.109589 3.56031 0
M  V30 5676 O 519.781 -0.0832226 5.46437 0
M  V30 5677 H 516.875 -0.0481281 0.825598 0
M  V30 5678 H 519.421 0.654227 1.56582 0
M  V30 5679 H 518.193 1.19657 3.72556 0
M  V30 5680 H 517.816 -0.504498 3.94386 0
M  V30 5681 N 518.813 -1.54241 0.323641 0
M  V30 5682 C 519.776 -2.22997 -0.529602 0
M  V30 5683 C 520.776 -1.22345 -1.04347 0
M  V30 5684 O 521.966 -1.46924 -0.935889 0
M  V30 5685 C 519.098 -2.93409 -1.73562 0
M  V30 5686 H 520.291 -2.99815 0.0714518 0
M  V30 5687 H 517.844 -1.56121 0.0747258 0
M  V30 5688 H 518.579 -2.20729 -2.37591 0
M  V30 5689 H 518.364 -3.67217 -1.37456 0
M  V30 5690 H 519.854 -3.45794 -2.34128 0
M  V30 5691 N 520.291 -0.0518155 -1.57515 0
M  V30 5692 C 521.221 0.920283 -2.146 0
M  V30 5693 C 522.202 1.32406 -1.06783 0
M  V30 5694 O 523.387 1.39866 -1.34726 0
M  V30 5695 C 520.517 2.1949 -2.6915 0
M  V30 5696 C 519.471 1.93116 -3.81956 0
M  V30 5697 C 518.797 3.27037 -4.23026 0
M  V30 5698 C 520.097 1.25225 -5.07066 0
M  V30 5699 H 521.791 0.444801 -2.96077 0
M  V30 5700 H 519.337 0.212508 -1.42423 0
M  V30 5701 H 521.29 2.87894 -3.07725 0
M  V30 5702 H 520.014 2.69244 -1.84865 0
M  V30 5703 H 518.673 1.27123 -3.43854 0
M  V30 5704 H 518.321 3.74595 -3.3569 0
M  V30 5705 H 518.021 3.10189 -4.99056 0
M  V30 5706 H 519.545 3.96673 -4.64202 0
M  V30 5707 H 520.959 1.83666 -5.43083 0
M  V30 5708 H 519.356 1.18702 -5.88243 0
M  V30 5709 H 520.426 0.228382 -4.84362 0
M  V30 5710 N 521.769 1.56035 0.221574 0
M  V30 5711 C 523.018 1.78245 0.944016 0
M  V30 5712 C 523.331 0.620371 1.85501 0
M  V30 5713 O 524.537 0.726103 2.6161 0
M  V30 5714 C 522.993 3.15659 1.7288 0
M  V30 5715 C 522.601 4.39591 0.863942 0
M  V30 5716 C 524.345 3.47195 2.44246 0
M  V30 5717 C 522.252 5.6803 1.64607 0
M  V30 5718 H 521.182 0.664547 0.356222 0
M  V30 5719 H 523.833 1.8243 0.197904 0
M  V30 5720 H 522.215 3.0565 2.51781 0
M  V30 5721 H 523.389 4.60655 0.115464 0
M  V30 5722 H 521.704 4.15572 0.262407 0
M  V30 5723 H 524.301 4.40381 3.03263 0
M  V30 5724 H 524.644 2.69693 3.1713 0
M  V30 5725 H 525.177 3.58533 1.72334 0
M  V30 5726 H 521.916 6.48425 0.960507 0
M  V30 5727 H 521.436 5.51027 2.36917 0
M  V30 5728 H 523.115 6.08203 2.20675 0
M  V30 5729 N 523.247 -0.488276 1.49845 0
M  V30 5730 C 524.195 -1.60917 1.67954 0
M  V30 5731 C 525.189 -1.6038 0.54539 0
M  V30 5732 O 526.395 -1.64736 0.7254 0
M  V30 5733 H 522.77 -0.533658 0.529824 0
M  V30 5734 H 524.741 -1.428 2.62013 0
M  V30 5735 C 523.49 -2.98975 1.77509 0
M  V30 5736 H 522.813 -3.00099 2.6416 0
M  V30 5737 H 524.253 -3.76906 1.9421 0
M  V30 5738 C 522.712 -3.3282 0.522745 0
M  V30 5739 O 523.242 -4.00208 -0.345866 0
M  V30 5740 N 521.448 -2.8808 0.381882 0
M  V30 5741 H 520.995 -2.33415 1.08974 0
M  V30 5742 H 520.953 -3.11091 -0.454929 0
M  V30 5743 N 524.725 -1.39134 -0.740242 0
M  V30 5744 C 525.657 -1.33332 -1.86428 0
M  V30 5745 C 526.67 -0.243042 -1.60976 0
M  V30 5746 O 527.859 -0.501608 -1.71307 0
M  V30 5747 C 524.959 -1.04626 -3.22346 0
M  V30 5748 C 524.132 -2.24826 -3.75196 0
M  V30 5749 C 523.191 -1.92659 -4.89662 0
M  V30 5750 O 522.217 -2.6529 -5.03597 0
M  V30 5751 N 523.419 -0.889575 -5.73643 0
M  V30 5752 H 526.184 -2.30196 -1.91911 0
M  V30 5753 H 523.745 -1.33168 -0.920756 0
M  V30 5754 H 525.737 -0.811347 -3.96484 0
M  V30 5755 H 524.307 -0.165129 -3.12164 0
M  V30 5756 H 523.527 -2.64301 -2.9247 0
M  V30 5757 H 524.815 -3.05015 -4.07239 0
M  V30 5758 H 524.213 -0.287529 -5.64969 0
M  V30 5759 H 522.77 -0.714557 -6.47871 0
M  V30 5760 N 526.204 0.969867 -1.24223 0
M  V30 5761 C 527.151 2.06407 -1.0327 0
M  V30 5762 C 528.121 1.66014 0.0533 0
M  V30 5763 O 529.306 1.90533 -0.100896 0
M  V30 5764 C 526.446 3.3909 -0.641262 0
M  V30 5765 C 525.559 3.9269 -1.80051 0
M  V30 5766 C 524.694 5.13631 -1.35486 0
M  V30 5767 C 523.733 5.59423 -2.48419 0
M  V30 5768 N 522.87 6.71586 -2.04737 0
M  V30 5769 H 527.71 2.23663 -1.96923 0
M  V30 5770 H 525.247 1.09624 -0.980862 0
M  V30 5771 H 527.205 4.15323 -0.395351 0
M  V30 5772 H 525.835 3.21765 0.258269 0
M  V30 5773 H 524.887 3.13116 -2.16014 0
M  V30 5774 H 526.199 4.22636 -2.64916 0
M  V30 5775 H 525.353 5.97231 -1.0677 0
M  V30 5776 H 524.092 4.85364 -0.476722 0
M  V30 5777 H 523.097 4.74398 -2.77897 0
M  V30 5778 H 524.322 5.89705 -3.36786 0
M  V30 5779 H 522.268 6.45058 -1.19318 0
M  V30 5780 H 522.185 7.0097 -2.83156 0
M  V30 5781 H 523.453 7.58633 -1.79154 0
M  V30 5782 N 527.682 1.05563 1.17022 0
M  V30 5783 C 528.912 0.787307 1.91011 0
M  V30 5784 C 529.32 -0.661256 1.77268 0
M  V30 5785 O 528.663 -1.46379 1.10991 0
M  V30 5786 C 528.725 1.09313 3.42478 0
M  V30 5787 C 528.389 2.53863 3.80004 0
M  V30 5788 C 529.386 3.52081 3.82538 0
M  V30 5789 C 527.071 2.88969 4.10855 0
M  V30 5790 C 529.065 4.83449 4.15399 0
M  V30 5791 C 526.752 4.2054 4.43384 0
M  V30 5792 C 527.75 5.17589 4.45635 0
M  V30 5793 O 527.438 6.46799 4.77395 0
M  V30 5794 H 527.17 0.285463 0.61277 0
M  V30 5795 H 529.724 1.41051 1.49311 0
M  V30 5796 H 527.954 0.412833 3.8449 0
M  V30 5797 H 529.643 0.810224 3.97731 0
M  V30 5798 H 530.409 3.26299 3.58823 0
M  V30 5799 H 526.288 2.1409 4.08272 0
M  V30 5800 H 529.832 5.59194 4.1707 0
M  V30 5801 H 525.729 4.46083 4.66563 0
M  V30 5802 H 526.497 6.51677 4.95237 0
M  V30 5803 N 529.16 -1.33526 0.837174 0
M  V30 5804 C 530.437 -1.92369 0.354065 0
M  V30 5805 C 530.817 -1.76348 -1.16038 0
M  V30 5806 O 530.165 -1.15083 -1.97403 0
M  V30 5807 C 530.375 -3.39728 0.799101 0
M  V30 5808 C 531.723 -4.16877 0.806139 0
M  V30 5809 O 532.747 -3.48373 0.742597 0
M  V30 5810 O 531.606 -5.39166 0.892345 0
M  V30 5811 H 528.7 -0.820952 0.0998378 0
M  V30 5812 H 531.246 -1.42409 0.922913 0
M  V30 5813 H 530.018 -3.45254 1.84162 0
M  V30 5814 H 529.641 -3.97062 0.206731 0
M  V30 5815 N 530.638 -0.59345 -1.46 0
M  V30 5816 C 531.548 0.135817 -2.34207 0
M  V30 5817 C 532.564 0.875008 -1.50398 0
M  V30 5818 O 533.74 0.835778 -1.83239 0
M  V30 5819 C 530.805 1.12977 -3.27776 0
M  V30 5820 C 529.866 0.394081 -4.27487 0
M  V30 5821 C 529.099 1.34068 -5.16586 0
M  V30 5822 O 529.322 2.5778 -5.08828 0
M  V30 5823 O 528.256 0.845426 -5.95933 0
M  V30 5824 H 532.082 -0.588691 -2.9794 0
M  V30 5825 H 529.667 -0.353784 -1.45151 0
M  V30 5826 H 531.549 1.70261 -3.85473 0
M  V30 5827 H 530.224 1.83556 -2.66625 0
M  V30 5828 H 529.131 -0.220869 -3.73447 0
M  V30 5829 H 530.464 -0.270939 -4.91454 0
M  V30 5830 N 532.116 1.54067 -0.331816 0
M  V30 5831 C 533.362 2.01012 0.268667 0
M  V30 5832 C 533.695 1.2195 1.51136 0
M  V30 5833 O 532.97 0.303972 1.9211 0
M  V30 5834 C 533.253 3.55158 0.59456 0
M  V30 5835 C 533.106 4.4494 -0.659409 0
M  V30 5836 C 534.425 4.16939 1.4089 0
M  V30 5837 H 531.544 0.730698 0.0961756 0
M  V30 5838 H 534.186 1.84593 -0.450031 0
M  V30 5839 H 532.336 3.6928 1.20685 0
M  V30 5840 H 534.008 4.42675 -1.29756 0
M  V30 5841 H 532.251 4.1428 -1.28665 0
M  V30 5842 H 532.922 5.50643 -0.386804 0
M  V30 5843 H 535.398 4.06443 0.891272 0
M  V30 5844 H 534.274 5.24889 1.60569 0
M  V30 5845 H 534.535 3.70798 2.40752 0
M  V30 5846 N 533.594 0.0601682 1.57485 0
M  V30 5847 C 534.527 -0.94676 2.07634 0
M  V30 5848 C 535.505 -1.29837 0.978826 0
M  V30 5849 O 536.689 -1.40969 1.2514 0
M  V30 5850 C 533.816 -2.25822 2.52433 0
M  V30 5851 C 532.862 -2.05901 3.73507 0
M  V30 5852 S 533.695 -1.32907 5.18745 0
M  V30 5853 C 534.851 -2.65356 5.66866 0
M  V30 5854 H 535.084 -0.520003 2.92717 0
M  V30 5855 H 532.617 -0.152319 1.53647 0
M  V30 5856 H 534.575 -3.01201 2.78905 0
M  V30 5857 H 533.236 -2.65624 1.67639 0
M  V30 5858 H 532.429 -3.02929 4.02803 0
M  V30 5859 H 532.031 -1.38659 3.47347 0
M  V30 5860 H 534.323 -3.61492 5.73001 0
M  V30 5861 H 535.266 -2.40685 6.6594 0
M  V30 5862 H 535.674 -2.72028 4.94632 0
M  V30 5863 N 535.072 -1.5615 -0.213296 0
M  V30 5864 C 536.035 -1.92249 -1.24792 0
M  V30 5865 C 537.035 -0.801828 -1.39382 0
M  V30 5866 O 538.225 -1.06948 -1.37506 0
M  V30 5867 C 535.357 -2.18056 -2.62039 0
M  V30 5868 H 536.55 -2.84793 -0.939845 0
M  V30 5869 H 534.103 -1.49559 -0.454062 0
M  V30 5870 H 534.838 -1.2809 -2.97932 0
M  V30 5871 H 534.623 -2.99703 -2.52825 0
M  V30 5872 H 536.113 -2.47051 -3.36683 0
M  V30 5873 N 536.55 0.480323 -1.50102 0
M  V30 5874 C 537.778 1.25657 -1.64371 0
M  V30 5875 C 538.193 1.86011 -0.323316 0
M  V30 5876 O 537.55 1.68803 0.693682 0
M  V30 5877 C 537.601 2.37197 -2.728 0
M  V30 5878 O 537.322 1.7932 -3.9972 0
M  V30 5879 C 538.823 3.2823 -2.9796 0
M  V30 5880 H 536.043 0.380369 -0.552775 0
M  V30 5881 H 538.587 0.574379 -1.96268 0
M  V30 5882 H 536.742 3.01208 -2.43623 0
M  V30 5883 H 537.156 2.52701 -4.59611 0
M  V30 5884 H 538.63 4.02725 -3.77513 0
M  V30 5885 H 539.107 3.86462 -2.08671 0
M  V30 5886 H 539.713 2.69964 -3.28633 0
M  V30 5887 N 538.028 1.39524 0.732853 0
M  V30 5888 C 539.258 1.3994 1.51988 0
M  V30 5889 C 539.666 -0.00727973 1.89199 0
M  V30 5890 O 539.009 -0.989521 1.54771 0
M  V30 5891 C 539.071 2.21026 2.83527 0
M  V30 5892 C 538.735 3.69633 2.68738 0
M  V30 5893 C 539.732 4.62665 2.37143 0
M  V30 5894 C 537.417 4.13244 2.85542 0
M  V30 5895 C 539.411 5.97291 2.22536 0
M  V30 5896 C 537.098 5.47945 2.70554 0
M  V30 5897 C 538.096 6.39783 2.39097 0
M  V30 5898 O 537.784 7.72002 2.24204 0
M  V30 5899 H 537.516 0.479795 0.476206 0
M  V30 5900 H 540.07 1.8399 0.913054 0
M  V30 5901 H 538.3 1.71728 3.46477 0
M  V30 5902 H 539.989 2.13594 3.45156 0
M  V30 5903 H 540.755 4.30272 2.2381 0
M  V30 5904 H 536.634 3.42094 3.09019 0
M  V30 5905 H 540.178 6.68939 1.97905 0
M  V30 5906 H 536.075 5.79928 2.83466 0
M  V30 5907 H 536.843 7.8275 2.39258 0
M  V30 5908 N 539.506 -0.963266 1.24736 0
M  V30 5909 C 540.755 -1.70115 1.08369 0
M  V30 5910 C 541.068 -1.91939 -0.376688 0
M  V30 5911 O 542.274 -2.6334 -0.660624 0
M  V30 5912 C 540.73 -3.06218 1.89099 0
M  V30 5913 C 540.338 -2.92221 3.39574 0
M  V30 5914 C 542.082 -3.83848 1.81275 0
M  V30 5915 C 539.989 -4.23662 4.12631 0
M  V30 5916 H 538.919 -0.637944 0.401924 0
M  V30 5917 H 541.57 -1.07304 1.48856 0
M  V30 5918 H 539.952 -3.69884 1.41429 0
M  V30 5919 H 541.126 -2.37541 3.94856 0
M  V30 5920 H 539.441 -2.28054 3.48397 0
M  V30 5921 H 542.038 -4.81188 2.33158 0
M  V30 5922 H 542.381 -4.08949 0.778895 0
M  V30 5923 H 542.914 -3.26918 2.26649 0
M  V30 5924 H 539.653 -4.03753 5.16395 0
M  V30 5925 H 539.173 -4.78141 3.62135 0
M  V30 5926 H 540.852 -4.92256 4.19873 0
M  V30 5927 N 540.985 -1.06182 -1.16461 0
M  V30 5928 C 541.915 -0.692861 -2.22984 0
M  V30 5929 C 542.896 0.314122 -1.67174 0
M  V30 5930 O 544.081 0.189499 -1.93273 0
M  V30 5931 C 541.211 -0.07732 -3.47214 0
M  V30 5932 C 540.165 -1.01015 -4.15909 0
M  V30 5933 C 539.491 -0.257973 -5.34077 0
M  V30 5934 C 540.791 -2.33868 -4.67015 0
M  V30 5935 H 542.485 -1.58343 -2.54102 0
M  V30 5936 H 540.031 -0.76279 -1.22137 0
M  V30 5937 H 541.984 0.19266 -4.20959 0
M  V30 5938 H 540.708 0.848254 -3.15392 0
M  V30 5939 H 539.367 -1.26486 -3.44088 0
M  V30 5940 H 539.015 0.670684 -4.98509 0
M  V30 5941 H 538.715 -0.879638 -5.80979 0
M  V30 5942 H 540.239 0.00448788 -6.106 0
M  V30 5943 H 541.653 -2.1279 -5.32347 0
M  V30 5944 H 540.05 -2.91522 -5.24533 0
M  V30 5945 H 541.12 -2.97019 -3.83286 0
M  V30 5946 N 542.463 1.3308 -0.844243 0
M  V30 5947 C 543.393 2.3161 -0.296493 0
M  V30 5948 C 544.374 1.59215 0.598707 0
M  V30 5949 O 545.559 1.87077 0.521134 0
M  V30 5950 C 542.689 3.43313 0.524762 0
M  V30 5951 C 541.643 4.27115 -0.275106 0
M  V30 5952 C 540.969 5.30483 0.670236 0
M  V30 5953 C 542.269 5.00443 -1.49514 0
M  V30 5954 H 543.963 2.77672 -1.11976 0
M  V30 5955 H 541.509 1.33496 -0.539899 0
M  V30 5956 H 543.462 4.11273 0.918298 0
M  V30 5957 H 542.186 2.95952 1.3813 0
M  V30 5958 H 540.845 3.60787 -0.650267 0
M  V30 5959 H 540.493 4.79379 1.52332 0
M  V30 5960 H 540.193 5.87435 0.139123 0
M  V30 5961 H 541.717 6.01308 1.06117 0
M  V30 5962 H 543.131 5.61141 -1.17447 0
M  V30 5963 H 541.528 5.67071 -1.96343 0
M  V30 5964 H 542.598 4.28906 -2.26202 0
M  V30 5965 N 543.941 0.601185 1.45683 0
M  V30 5966 C 545.189 0.0936957 2.01883 0
M  V30 5967 C 545.51 -1.2779 1.47291 0
M  V30 5968 O 544.78 -1.84279 0.664691 0
M  V30 5969 H 543.36 0.0316466 0.746329 0
M  V30 5970 H 546.022 0.781137 1.78562 0
M  V30 5971 H 545.118 0.0386297 3.12076 0
M  V30 5972 N 545.419 -1.53889 0.339982 0
M  V30 5973 C 546.835 -1.59595 -0.0120752 0
M  V30 5974 C 547.035 -1.35605 -1.49042 0
M  V30 5975 O 546.091 -1.14856 -2.24865 0
M  V30 5976 C 547.404 -2.9774 0.420898 0
M  V30 5977 C 548.952 -3.1077 0.37294 0
M  V30 5978 C 549.427 -4.51286 0.781327 0
M  V30 5979 N 550.918 -4.57325 0.735374 0
M  V30 5980 C 551.653 -5.64194 1.02336 0
M  V30 5981 N 551.149 -6.7893 1.37933 0
M  V30 5982 N 552.942 -5.54051 0.947838 0
M  V30 5983 H 545.093 -1.67738 1.30299 0
M  V30 5984 H 547.356 -0.785385 0.530918 0
M  V30 5985 H 547.062 -3.20349 1.45152 0
M  V30 5986 H 546.936 -3.76639 -0.205721 0
M  V30 5987 H 549.323 -2.87886 -0.648505 0
M  V30 5988 H 549.404 -2.33939 1.03472 0
M  V30 5989 H 549.048 -4.74905 1.80077 0
M  V30 5990 H 548.978 -5.26511 0.0970679 0
M  V30 5991 H 551.469 -3.74931 0.472773 0
M  V30 5992 H 551.782 -7.56392 1.58402 0
M  V30 5993 H 550.127 -6.80386 1.41774 0
M  V30 5994 H 553.318 -4.63293 0.669115 0
M  V30 5995 H 553.491 -6.37246 1.17563 0
M  V30 5996 N 546.897 -0.0685191 -1.57451 0
M  V30 5997 C 547.844 0.899861 -2.12535 0
M  V30 5998 C 548.814 1.29749 -1.03703 0
M  V30 5999 O 549.999 1.38392 -1.31348 0
M  V30 6000 C 547.139 2.16328 -2.6888 0
M  V30 6001 C 546.252 1.81857 -3.91857 0
M  V30 6002 C 545.387 3.02786 -4.36457 0
M  V30 6003 C 544.426 2.64317 -5.5209 0
M  V30 6004 N 543.563 3.77994 -5.91663 0
M  V30 6005 H 548.403 0.423243 -2.94979 0
M  V30 6006 H 545.94 0.197268 -1.45771 0
M  V30 6007 H 547.898 2.90281 -2.99655 0
M  V30 6008 H 546.528 2.61536 -1.89206 0
M  V30 6009 H 545.58 0.979808 -3.67565 0
M  V30 6010 H 546.892 1.49553 -4.75852 0
M  V30 6011 H 546.046 3.85021 -4.68875 0
M  V30 6012 H 544.785 3.38281 -3.51308 0
M  V30 6013 H 543.79 1.80503 -5.19325 0
M  V30 6014 H 545.015 2.29995 -6.38967 0
M  V30 6015 H 542.961 4.13258 -5.09464 0
M  V30 6016 H 542.878 3.49447 -6.7039 0
M  V30 6017 H 544.146 4.60818 -6.28703 0
M  V30 6018 N 548.375 1.56261 0.205012 0
M  V30 6019 C 549.786 1.70056 0.770574 0
M  V30 6020 C 550.137 0.673398 1.84282 0
M  V30 6021 O 549.262 -0.172196 2.15714 0
M  V30 6022 C 549.857 3.08316 1.40451 0
M  V30 6023 C 548.416 3.2391 1.91727 0
M  V30 6024 C 547.563 2.66001 0.783516 0
M  V30 6025 H 550.514 1.58688 -0.019911 0
M  V30 6026 H 550.535 3.05094 2.27371 0
M  V30 6027 H 550.047 3.83053 0.623882 0
M  V30 6028 H 548.148 2.54072 2.7254 0
M  V30 6029 H 548.261 4.3131 2.08588 0
M  V30 6030 H 546.625 2.24915 1.19521 0
M  V30 6031 H 547.408 3.43297 0.0152883 0
M  V30 6032 N 549.853 -0.472356 1.50355 0
M  V30 6033 C 551.264 -1.05326 1.54154 0
M  V30 6034 C 551.615 -1.93155 0.344303 0
M  V30 6035 O 550.74 -2.09479 -0.542928 0
M  V30 6036 C 551.335 -1.91691 2.79356 0
M  V30 6037 C 549.894 -2.44892 2.8584 0
M  V30 6038 C 549.041 -1.23205 2.48426 0
M  V30 6039 H 551.992 -0.255027 1.56637 0
M  V30 6040 H 552.013 -2.76742 2.6114 0
M  V30 6041 H 551.525 -1.27741 3.66475 0
M  V30 6042 H 549.626 -3.12399 2.0307 0
M  V30 6043 H 549.739 -2.80086 3.88701 0
M  V30 6044 H 548.103 -1.56643 2.00836 0
M  V30 6045 H 548.886 -0.609194 3.37852 0
M  V30 6046 N 551.331 -1.39911 -0.725443 0
M  V30 6047 C 552.241 -1.41688 -1.8698 0
M  V30 6048 C 553.257 -0.310579 -1.71206 0
M  V30 6049 O 554.433 -0.55359 -1.93642 0
M  V30 6050 C 551.498 -1.26811 -3.22676 0
M  V30 6051 C 550.559 -2.47497 -3.50776 0
M  V30 6052 C 549.792 -2.3332 -4.79997 0
M  V30 6053 O 550.015 -1.34175 -5.54394 0
M  V30 6054 O 548.949 -3.22498 -5.08211 0
M  V30 6055 H 552.775 -2.38171 -1.88436 0
M  V30 6056 H 550.36 -1.21128 -0.874548 0
M  V30 6057 H 552.242 -1.20684 -4.03749 0
M  V30 6058 H 550.917 -0.334289 -3.21969 0
M  V30 6059 H 549.824 -2.59201 -2.69751 0
M  V30 6060 H 551.157 -3.39606 -3.5627 0
M  V30 6061 N 552.809 0.956637 -1.25245 0
M  V30 6062 C 554.056 1.701 -1.09874 0
M  V30 6063 C 554.384 1.91128 0.36062 0
M  V30 6064 O 553.639 1.47837 1.28229 0
M  V30 6065 C 553.938 3.08996 -1.79601 0
M  V30 6066 C 553.604 3.07774 -3.29523 0
M  V30 6067 C 552.266 3.07149 -3.70423 0
M  V30 6068 C 554.618 3.01257 -4.25316 0
M  V30 6069 C 551.946 2.97752 -5.0553 0
M  V30 6070 C 554.298 2.93403 -5.60444 0
M  V30 6071 C 552.962 2.91111 -6.00675 0
M  V30 6072 H 552.232 0.62244 -0.402056 0
M  V30 6073 H 554.879 1.1178 -1.55491 0
M  V30 6074 H 553.184 3.70848 -1.26408 0
M  V30 6075 H 554.881 3.65407 -1.65162 0
M  V30 6076 H 551.471 3.09032 -2.9698 0
M  V30 6077 H 555.655 3.00861 -3.9471 0
M  V30 6078 H 550.911 2.94346 -5.35883 0
M  V30 6079 H 555.085 2.87321 -6.34366 0
M  V30 6080 H 552.712 2.83586 -7.05325 0
M  V30 6081 N 554.287 1.06798 1.15896 0
M  V30 6082 C 555.197 0.694564 2.24083 0
M  V30 6083 C 556.213 -0.291687 1.71538 0
M  V30 6084 O 557.389 -0.139723 2.00915 0
M  V30 6085 C 554.454 0.0921014 3.46578 0
M  V30 6086 C 553.515 1.13087 4.14137 0
M  V30 6087 C 552.748 0.557064 5.30785 0
M  V30 6088 O 552.971 -0.628623 5.66925 0
M  V30 6089 O 551.905 1.29924 5.8771 0
M  V30 6090 H 555.731 1.59663 2.58344 0
M  V30 6091 H 553.316 0.840575 1.2351 0
M  V30 6092 H 555.198 -0.241884 4.20705 0
M  V30 6093 H 553.873 -0.78337 3.14078 0
M  V30 6094 H 552.78 1.51712 3.41957 0
M  V30 6095 H 554.113 1.97805 4.50704 0
M  V30 6096 N 555.766 -1.3263 0.851289 0
M  V30 6097 C 557.014 -1.96978 0.452128 0
M  V30 6098 C 557.335 -1.67715 -0.99482 0
M  V30 6099 O 556.605 -0.98259 -1.69476 0
M  V30 6100 H 555.185 -0.72873 0.164202 0
M  V30 6101 H 557.847 -1.61774 1.08698 0
M  V30 6102 H 556.943 -3.06387 0.594407 0
M  V30 6103 N 557.244 -0.608902 -1.45362 0
M  V30 6104 C 558.492 -0.104401 -2.0183 0
M  V30 6105 C 558.813 1.27007 -1.47967 0
M  V30 6106 O 558.083 1.83924 -0.674455 0
M  V30 6107 H 556.663 -0.0356042 -0.746151 0
M  V30 6108 H 559.325 -0.790596 -1.78145 0
M  V30 6109 H 558.421 -0.0551793 -3.12051 0
M  V30 6110 N 558.722 1.53707 -0.348139 0
M  V30 6111 C 559.632 2.28881 0.514857 0
M  V30 6112 C 560.648 1.34168 1.10793 0
M  V30 6113 O 561.824 1.6721 1.12262 0
M  V30 6114 C 558.889 3.05042 1.64774 0
M  V30 6115 C 557.95 4.15389 1.08398 0
M  V30 6116 C 557.183 4.87909 2.16287 0
M  V30 6117 O 557.406 4.60137 3.3709 0
M  V30 6118 O 556.34 5.74254 1.80323 0
M  V30 6119 H 560.166 3.03547 -0.0963699 0
M  V30 6120 H 557.751 1.48972 -0.113043 0
M  V30 6121 H 559.633 3.52656 2.30677 0
M  V30 6122 H 558.308 2.33228 2.24469 0
M  V30 6123 H 557.215 3.72068 0.389341 0
M  V30 6124 H 558.548 4.89318 0.531829 0
M  V30 6125 N 560.2 0.0768682 1.57412 0
M  V30 6126 C 561.425 -0.603404 1.98428 0
M  V30 6127 C 561.85 -1.62047 0.955108 0
M  V30 6128 O 561.208 -1.81129 -0.0786778 0
M  V30 6129 C 561.256 -1.24396 3.38464 0
M  V30 6130 O 560.36 -2.35982 3.3821 0
M  V30 6131 H 559.701 -0.154741 0.645718 0
M  V30 6132 H 562.231 0.152885 2.04028 0
M  V30 6133 H 562.241 -1.5896 3.7576 0
M  V30 6134 H 560.916 -0.498735 4.12899 0
M  V30 6135 H 559.493 -2.03173 3.1269 0
M  V30 6136 N 561.678 -1.56367 -0.196722 0
M  V30 6137 C 562.608 -1.97442 -1.24655 0
M  V30 6138 C 563.589 -0.846147 -1.47561 0
M  V30 6139 O 564.774 -1.11035 -1.59326 0
M  V30 6140 C 561.904 -2.31253 -2.59112 0
M  V30 6141 C 560.858 -3.46804 -2.50821 0
M  V30 6142 C 560.184 -3.66286 -3.89536 0
M  V30 6143 C 561.484 -4.8104 -2.03465 0
M  V30 6144 H 563.178 -2.85388 -0.905216 0
M  V30 6145 H 560.724 -1.37304 -0.434002 0
M  V30 6146 H 562.677 -2.58583 -3.32736 0
M  V30 6147 H 561.401 -1.40188 -2.94983 0
M  V30 6148 H 560.06 -3.19563 -1.79653 0
M  V30 6149 H 559.708 -2.72555 -4.22756 0
M  V30 6150 H 559.408 -4.4402 -3.84864 0
M  V30 6151 H 560.932 -3.9599 -4.64784 0
M  V30 6152 H 562.346 -5.07411 -2.66846 0
M  V30 6153 H 560.743 -5.62232 -2.09798 0
M  V30 6154 H 561.813 -4.74732 -0.98781 0
M  V30 6155 N 563.156 0.464375 -1.50603 0
M  V30 6156 C 564.381 1.24372 -1.65971 0
M  V30 6157 C 564.806 1.84901 -0.345453 0
M  V30 6158 O 564.164 1.67596 0.691457 0
M  V30 6159 C 564.212 2.32331 -2.7578 0
M  V30 6160 O 563.316 3.37146 -2.375 0
M  V30 6161 H 562.657 0.365604 -0.554283 0
M  V30 6162 H 565.187 0.55183 -1.97018 0
M  V30 6163 H 565.197 2.77539 -2.99059 0
M  V30 6164 H 563.872 1.87648 -3.71162 0
M  V30 6165 H 562.449 2.97602 -2.24694 0
M  V30 6166 N 564.634 1.40294 0.718013 0
M  V30 6167 C 565.859 1.41941 1.5122 0
M  V30 6168 C 566.284 0.0202371 1.88089 0
M  V30 6169 O 565.642 -0.971078 1.53101 0
M  V30 6170 C 565.69 2.3141 2.76554 0
M  V30 6171 O 564.794 1.75567 3.73162 0
M  V30 6172 H 564.135 0.482644 0.456016 0
M  V30 6173 H 566.665 1.84494 0.884478 0
M  V30 6174 H 566.675 2.46513 3.25108 0
M  V30 6175 H 565.35 3.33085 2.49053 0
M  V30 6176 H 563.927 1.69798 3.31999 0
M  V30 6177 N 566.112 -0.949982 1.2575 0
M  V30 6178 C 567.36 -1.6918 1.10555 0
M  V30 6179 C 567.681 -1.91773 -0.353298 0
M  V30 6180 O 566.951 -1.50814 -1.25027 0
M  V30 6181 H 565.531 -0.626952 0.406129 0
M  V30 6182 H 568.193 -1.1419 1.57945 0
M  V30 6183 H 567.289 -2.66915 1.61749 0
M  V30 6184 N 567.59 -1.07411 -1.15328 0
M  V30 6185 C 568.538 -0.689316 -2.22151 0
M  V30 6186 C 569.532 0.300156 -1.6672 0
M  V30 6187 O 570.738 0.163804 -1.79253 0
M  V30 6188 H 567.113 -0.204834 -0.723566 0
M  V30 6189 H 569.084 -1.59988 -2.51886 0
M  V30 6190 C 567.833 -0.103848 -3.47545 0
M  V30 6191 H 567.156 -0.856367 -3.90521 0
M  V30 6192 H 568.596 0.127725 -4.23808 0
M  V30 6193 C 567.055 1.15563 -3.1646 0
M  V30 6194 O 567.585 2.242 -3.33312 0
M  V30 6195 N 565.791 1.06203 -2.70498 0
M  V30 6196 H 565.338 0.177933 -2.56985 0
M  V30 6197 H 565.296 1.90553 -2.50074 0
M  V30 6198 N 569.068 1.32177 -0.85831 0
M  V30 6199 C 569.998 2.31282 -0.321041 0
M  V30 6200 C 570.979 1.59841 0.581786 0
M  V30 6201 O 572.164 1.87619 0.501262 0
M  V30 6202 C 569.294 3.4385 0.48832 0
M  V30 6203 C 568.248 4.26799 -0.320391 0
M  V30 6204 C 567.574 5.31164 0.613934 0
M  V30 6205 C 568.874 4.98829 -1.54813 0
M  V30 6206 H 570.568 2.76469 -1.14915 0
M  V30 6207 H 568.114 1.32916 -0.554028 0
M  V30 6208 H 570.067 4.12224 0.874626 0
M  V30 6209 H 568.791 2.97401 1.34983 0
M  V30 6210 H 567.45 3.60077 -0.688497 0
M  V30 6211 H 567.098 4.80967 1.47239 0
M  V30 6212 H 566.798 5.8755 0.0768097 0
M  V30 6213 H 568.322 6.024 0.997336 0
M  V30 6214 H 569.736 5.59864 -1.23392 0
M  V30 6215 H 568.133 5.64957 -2.02346 0
M  V30 6216 H 569.203 4.26483 -2.30739 0
M  V30 6217 N 570.547 0.616602 1.45037 0
M  V30 6218 C 571.787 0.118453 2.04056 0
M  V30 6219 C 572.151 -1.23104 1.47341 0
M  V30 6220 O 573.352 -1.82044 1.97771 0
M  V30 6221 C 571.623 0.0892842 3.57288 0
M  V30 6222 S 573.182 -0.346361 4.37431 0
M  V30 6223 H 570 0.0539728 0.708948 0
M  V30 6224 H 572.602 0.816731 1.77623 0
M  V30 6225 H 571.306 1.07481 3.96076 0
M  V30 6226 H 570.837 -0.630703 3.88311 0
M  V30 6227 H 572.852 -1.59389 4.69904 0
M  V30 6228 N 572.025 -1.5352 0.356285 0
M  V30 6229 C 572.957 -2.23009 -0.529127 0
M  V30 6230 C 573.97 -1.241 -1.05371 0
M  V30 6231 O 575.159 -1.50379 -0.961679 0
M  V30 6232 C 572.259 -2.90685 -1.74229 0
M  V30 6233 C 571.432 -4.16019 -1.35081 0
M  V30 6234 C 570.491 -4.66989 -2.42502 0
M  V30 6235 O 569.517 -5.30895 -2.05279 0
M  V30 6236 N 570.719 -4.44006 -3.7395 0
M  V30 6237 H 573.484 -2.99627 0.0660501 0
M  V30 6238 H 571.045 -1.60885 0.181014 0
M  V30 6239 H 573.037 -3.21695 -2.4555 0
M  V30 6240 H 571.607 -2.17575 -2.24454 0
M  V30 6241 H 570.827 -3.91414 -0.467833 0
M  V30 6242 H 572.115 -4.9752 -1.06542 0
M  V30 6243 H 571.513 -3.92924 -4.06973 0
M  V30 6244 H 570.07 -4.7959 -4.41403 0
M  V30 6245 N 573.503 -0.0852151 -1.57369 0
M  V30 6246 C 574.919 0.271436 -1.57275 0
M  V30 6247 C 575.119 1.69109 -1.09565 0
M  V30 6248 O 574.175 2.40549 -0.767611 0
M  V30 6249 C 575.488 0.0688638 -3.00621 0
M  V30 6250 C 577.036 0.137373 -3.12698 0
M  V30 6251 C 577.511 -0.0370832 -4.57985 0
M  V30 6252 N 579.002 0.0180794 -4.63196 0
M  V30 6253 C 579.737 -0.0922953 -5.73326 0
M  V30 6254 N 579.233 -0.256948 -6.92323 0
M  V30 6255 N 581.026 -0.0342702 -5.6209 0
M  V30 6256 H 573.177 -1.01288 -1.86693 0
M  V30 6257 H 575.44 -0.396138 -0.861266 0
M  V30 6258 H 575.146 -0.911277 -3.39689 0
M  V30 6259 H 575.02 0.815442 -3.6828 0
M  V30 6260 H 577.407 1.10801 -2.73509 0
M  V30 6261 H 577.488 -0.640532 -2.47651 0
M  V30 6262 H 577.132 -1.00455 -4.97867 0
M  V30 6263 H 577.062 0.760392 -5.21081 0
M  V30 6264 H 579.553 0.143202 -3.77629 0
M  V30 6265 H 579.866 -0.332949 -7.72082 0
M  V30 6266 H 578.211 -0.292487 -6.94384 0
M  V30 6267 H 581.402 0.0931605 -4.68007 0
M  V30 6268 H 581.575 -0.12374 -6.47882 0
M  V30 6269 N 574.981 1.5647 0.188427 0
M  V30 6270 C 576.206 1.85486 0.927891 0
M  V30 6271 C 576.631 0.669575 1.75779 0
M  V30 6272 O 575.989 -0.381573 1.77239 0
M  V30 6273 C 576.037 3.12784 1.7944 0
M  V30 6274 O 575.141 2.93805 2.894 0
M  V30 6275 H 574.482 0.610585 0.260925 0
M  V30 6276 H 577.012 2.037 0.191729 0
M  V30 6277 H 577.022 3.43749 2.19774 0
M  V30 6278 H 575.697 3.98671 1.18468 0
M  V30 6279 H 574.274 2.74153 2.52774 0
M  V30 6280 N 576.459 -0.456382 1.50847 0
M  V30 6281 C 577.875 -0.791345 1.386 0
M  V30 6282 C 578.075 -1.9633 0.453498 0
M  V30 6283 O 577.131 -2.52308 -0.0984353 0
M  V30 6284 C 578.444 -1.08959 2.80265 0
M  V30 6285 C 579.992 -1.19517 2.89283 0
M  V30 6286 C 580.467 -1.52647 4.31814 0
M  V30 6287 N 581.958 -1.59609 4.34832 0
M  V30 6288 C 582.693 -1.86777 5.42127 0
M  V30 6289 N 582.189 -2.11866 6.59609 0
M  V30 6290 N 583.982 -1.88402 5.29586 0
M  V30 6291 H 576.133 0.315746 2.1004 0
M  V30 6292 H 578.396 0.0787916 0.94472 0
M  V30 6293 H 578.102 -0.301355 3.50407 0
M  V30 6294 H 577.976 -2.02211 3.18419 0
M  V30 6295 H 580.363 -1.97406 2.19351 0
M  V30 6296 H 580.444 -0.242111 2.54652 0
M  V30 6297 H 580.088 -0.752922 5.02288 0
M  V30 6298 H 580.018 -2.49127 4.63943 0
M  V30 6299 H 582.509 -1.42201 3.50125 0
M  V30 6300 H 582.822 -2.31912 7.37182 0
M  V30 6301 H 581.167 -2.09228 6.62758 0
M  V30 6302 H 584.358 -1.68307 4.36795 0
M  V30 6303 H 584.531 -2.09238 6.13289 0
M  V30 6304 N 577.937 -1.40673 -0.710563 0
M  V30 6305 C 579.348 -1.34975 -1.28991 0
M  V30 6306 C 579.699 -0.0256272 -1.96183 0
M  V30 6307 O 578.824 0.876339 -1.97862 0
M  V30 6308 C 579.419 -2.44467 -2.34567 0
M  V30 6309 C 577.978 -2.42213 -2.88114 0
M  V30 6310 C 577.125 -2.25085 -1.61963 0
M  V30 6311 H 580.076 -1.50406 -0.506343 0
M  V30 6312 H 580.097 -2.12663 -3.15523 0
M  V30 6313 H 579.609 -3.40825 -1.85634 0
M  V30 6314 H 577.71 -1.49568 -3.41263 0
M  V30 6315 H 577.823 -3.37983 -3.39565 0
M  V30 6316 H 576.187 -1.72691 -1.87216 0
M  V30 6317 H 576.97 -3.23449 -1.15047 0
M  V30 6318 N 579.415 0.9433 -1.26252 0
M  V30 6319 C 580.64 1.72898 -1.14547 0
M  V30 6320 C 581.065 1.85761 0.295743 0
M  V30 6321 O 580.423 1.3463 1.21427 0
M  V30 6322 C 580.471 3.11471 -1.8171 0
M  V30 6323 O 579.575 3.97336 -1.10445 0
M  V30 6324 H 578.916 0.530555 -0.399259 0
M  V30 6325 H 581.446 1.18159 -1.67032 0
M  V30 6326 H 581.456 3.61872 -1.88449 0
M  V30 6327 H 580.131 3.01425 -2.86558 0
M  V30 6328 H 578.708 3.55788 -1.11666 0
M  V30 6329 N 580.893 1.08022 1.14757 0
M  V30 6330 C 582.118 0.82895 1.90114 0
M  V30 6331 C 582.543 -0.612772 1.77839 0
M  V30 6332 O 581.901 -1.42895 1.11583 0
M  V30 6333 C 581.949 1.25062 3.38219 0
M  V30 6334 O 581.053 0.400119 4.10454 0
M  V30 6335 H 580.394 0.301412 0.591648 0
M  V30 6336 H 582.924 1.44062 1.45284 0
M  V30 6337 H 582.934 1.22977 3.89025 0
M  V30 6338 H 581.609 2.30067 3.46471 0
M  V30 6339 H 580.186 0.484052 3.69745 0
M  V30 6340 N 582.371 -1.3172 0.865308 0
M  V30 6341 C 583.648 -1.91574 0.394789 0
M  V30 6342 C 584.028 -1.78769 -1.12271 0
M  V30 6343 O 583.376 -1.19245 -1.94918 0
M  V30 6344 C 583.586 -3.37957 0.870982 0
M  V30 6345 C 584.934 -4.15073 0.894384 0
M  V30 6346 O 585.958 -3.4672 0.816325 0
M  V30 6347 O 584.817 -5.37151 1.00651 0
M  V30 6348 H 581.911 -0.818649 0.117229 0
M  V30 6349 H 584.457 -1.4042 0.952913 0
M  V30 6350 H 583.229 -3.41269 1.91444 0
M  V30 6351 H 582.852 -3.96534 0.290907 0
M  V30 6352 N 583.85 -0.624285 -1.44708 0
M  V30 6353 C 584.779 0.0717025 -2.3339 0
M  V30 6354 C 585.76 0.841814 -1.47809 0
M  V30 6355 O 586.946 0.809056 -1.76544 0
M  V30 6356 C 584.076 1.05852 -3.30776 0
M  V30 6357 C 583.029 0.400503 -4.26122 0
M  V30 6358 C 582.356 1.49674 -5.13324 0
M  V30 6359 C 583.656 -0.688924 -5.17737 0
M  V30 6360 H 585.35 -0.668819 -2.91834 0
M  V30 6361 H 582.896 -0.32308 -1.40329 0
M  V30 6362 H 584.849 1.5541 -3.91696 0
M  V30 6363 H 583.572 1.82984 -2.70526 0
M  V30 6364 H 582.231 -0.0743687 -3.66525 0
M  V30 6365 H 581.88 2.25877 -4.49431 0
M  V30 6366 H 581.58 1.06188 -5.77926 0
M  V30 6367 H 583.104 1.99427 -5.77115 0
M  V30 6368 H 584.518 -0.276724 -5.72632 0
M  V30 6369 H 582.915 -1.04652 -5.90904 0
M  V30 6370 H 583.985 -1.55884 -4.5916 0
M  V30 6371 N 585.328 1.53329 -0.364422 0
M  V30 6372 C 586.276 2.27212 0.497737 0
M  V30 6373 C 587.27 1.30146 1.08437 0
M  V30 6374 O 588.476 1.47778 1.0277 0
M  V30 6375 H 584.851 0.730329 0.179232 0
M  V30 6376 H 586.822 2.98037 -0.147182 0
M  V30 6377 C 585.571 3.07333 1.6261 0
M  V30 6378 H 584.894 3.81866 1.184 0
M  V30 6379 H 586.334 3.62209 2.20409 0
M  V30 6380 C 584.793 2.18102 2.56775 0
M  V30 6381 O 585.323 1.79104 3.59562 0
M  V30 6382 N 583.529 1.82759 2.25937 0
M  V30 6383 H 583.076 2.14671 1.42387 0
M  V30 6384 H 583.034 1.23342 2.89196 0
M  V30 6385 N 586.806 0.0935595 1.57322 0
M  V30 6386 C 587.754 -0.883457 2.15169 0
M  V30 6387 C 588.748 -1.29324 1.09415 0
M  V30 6388 O 589.954 -1.26795 1.27762 0
M  V30 6389 H 586.329 -0.302923 0.688289 0
M  V30 6390 H 588.3 -0.370845 2.96087 0
M  V30 6391 C 587.049 -2.13345 2.74552 0
M  V30 6392 H 586.372 -1.82702 3.55612 0
M  V30 6393 H 587.812 -2.7977 3.18598 0
M  V30 6394 C 586.271 -2.90646 1.70371 0
M  V30 6395 O 586.801 -3.85133 1.14173 0
M  V30 6396 N 585.007 -2.54157 1.40899 0
M  V30 6397 H 584.554 -1.77391 1.86789 0
M  V30 6398 H 584.512 -3.06178 0.714301 0
M  V30 6399 N 588.284 -1.56567 -0.180126 0
M  V30 6400 C 589.509 -1.85975 -0.918041 0
M  V30 6401 C 589.934 -0.678888 -1.75422 0
M  V30 6402 O 589.292 0.372168 -1.77439 0
M  V30 6403 C 589.34 -3.13731 -1.77779 0
M  V30 6404 O 588.444 -2.95335 -2.87838 0
M  V30 6405 H 587.785 -0.61196 -0.257683 0
M  V30 6406 H 590.315 -2.03798 -0.180923 0
M  V30 6407 H 590.325 -3.4491 -2.17948 0
M  V30 6408 H 589 -3.99293 -1.16352 0
M  V30 6409 H 587.577 -2.7549 -2.51316 0
M  V30 6410 N 589.762 0.448376 -1.51087 0
M  V30 6411 C 590.99 1.22143 -1.66999 0
M  V30 6412 C 591.405 1.85283 -0.362699 0
M  V30 6413 O 590.762 1.70236 0.65772 0
M  V30 6414 C 590.813 2.31357 -2.7777 0
M  V30 6415 O 590.534 1.70801 -4.03434 0
M  V30 6416 C 592.035 3.21836 -3.04855 0
M  V30 6417 H 589.255 0.368558 -0.560719 0
M  V30 6418 H 591.799 0.532618 -1.97442 0
M  V30 6419 H 589.954 2.95973 -2.49958 0
M  V30 6420 H 590.368 2.42895 -4.64868 0
M  V30 6421 H 591.842 3.94627 -3.85971 0
M  V30 6422 H 592.319 3.81949 -2.16821 0
M  V30 6423 H 592.925 2.62933 -3.34285 0
M  V30 6424 N 591.24 1.41047 0.703093 0
M  V30 6425 C 592.17 1.45067 1.82969 0
M  V30 6426 C 593.151 0.31016 1.67248 0
M  V30 6427 O 594.336 0.520548 1.87093 0
M  V30 6428 C 591.466 1.32478 3.2104 0
M  V30 6429 C 590.42 2.44262 3.51454 0
M  V30 6430 C 589.746 2.16742 4.88801 0
M  V30 6431 C 591.046 3.86606 3.51189 0
M  V30 6432 H 592.74 2.39353 1.79863 0
M  V30 6433 H 590.286 1.15206 0.863919 0
M  V30 6434 H 592.239 1.33904 3.99559 0
M  V30 6435 H 590.963 0.346735 3.24754 0
M  V30 6436 H 589.622 2.42107 2.75282 0
M  V30 6437 H 589.27 1.17299 4.89132 0
M  V30 6438 H 588.97 2.91643 5.10116 0
M  V30 6439 H 590.494 2.19872 5.69639 0
M  V30 6440 H 591.908 3.90517 4.19725 0
M  V30 6441 H 590.305 4.61128 3.84033 0
M  V30 6442 H 591.375 4.15296 2.50315 0
M  V30 6443 N 592.718 -0.936591 1.26751 0
M  V30 6444 C 593.65 -2.03991 1.045 0
M  V30 6445 C 594.663 -1.628 0.00394261 0
M  V30 6446 O 595.852 -1.76817 0.244526 0
M  V30 6447 C 592.952 -3.34218 0.561403 0
M  V30 6448 C 592.125 -4.04151 1.67274 0
M  V30 6449 C 591.184 -5.12651 1.1864 0
M  V30 6450 O 590.21 -5.37104 1.88437 0
M  V30 6451 N 591.412 -5.80488 0.037278 0
M  V30 6452 H 594.177 -2.23644 1.99508 0
M  V30 6453 H 591.738 -1.10638 1.18198 0
M  V30 6454 H 593.73 -4.04101 0.220136 0
M  V30 6455 H 592.3 -3.11203 -0.295211 0
M  V30 6456 H 591.52 -3.28121 2.18472 0
M  V30 6457 H 592.808 -4.47626 2.41885 0
M  V30 6458 H 592.206 -5.63064 -0.545494 0
M  V30 6459 H 590.763 -6.5134 -0.244877 0
M  V30 6460 N 594.196 -1.08629 -1.14182 0
M  V30 6461 C 595.421 -0.83902 -1.89671 0
M  V30 6462 C 595.846 0.603332 -1.78161 0
M  V30 6463 O 595.204 1.42301 -1.12339 0
M  V30 6464 C 595.252 -1.26854 -3.37551 0
M  V30 6465 O 594.356 -0.42188 -4.10236 0
M  V30 6466 H 593.697 -0.304545 -0.590041 0
M  V30 6467 H 596.227 -1.4483 -1.44518 0
M  V30 6468 H 596.237 -1.25038 -3.88368 0
M  V30 6469 H 594.912 -2.31901 -3.45246 0
M  V30 6470 H 593.489 -0.503654 -3.69483 0
M  V30 6471 N 595.674 1.31259 -0.872281 0
M  V30 6472 C 597.085 1.78822 -0.536617 0
M  V30 6473 C 597.436 1.71855 0.946594 0
M  V30 6474 O 596.561 1.28769 1.73918 0
M  V30 6475 C 597.156 3.24698 -0.967294 0
M  V30 6476 C 595.715 3.70147 -0.683251 0
M  V30 6477 C 594.862 2.51994 -1.15733 0
M  V30 6478 H 597.813 1.18308 -1.05777 0
M  V30 6479 H 597.834 3.79386 -0.290929 0
M  V30 6480 H 597.346 3.29737 -2.04683 0
M  V30 6481 H 595.447 3.70607 0.384825 0
M  V30 6482 H 595.56 4.62183 -1.2619 0
M  V30 6483 H 593.924 2.48078 -0.577024 0
M  V30 6484 H 594.707 2.59778 -2.24434 0
M  V30 6485 N 597.152 0.631951 1.44375 0
M  V30 6486 C 598.115 -0.0628142 2.29114 0
M  V30 6487 C 599.115 -0.771494 1.41084 0
M  V30 6488 O 600.305 -0.615959 1.62947 0
M  V30 6489 C 597.437 -1.09953 3.22681 0
M  V30 6490 H 598.63 0.682509 2.92031 0
M  V30 6491 H 596.183 0.392128 1.51301 0
M  V30 6492 H 596.918 -1.87481 2.64616 0
M  V30 6493 H 596.703 -0.595286 3.87555 0
M  V30 6494 H 598.193 -1.58538 3.86336 0
M  V30 6495 N 598.631 -1.53133 0.372548 0
M  V30 6496 C 599.581 -2.22733 -0.487218 0
M  V30 6497 C 600.565 -1.22506 -1.04312 0
M  V30 6498 O 601.757 -1.47923 -0.972005 0
M  V30 6499 C 598.886 -3.02524 -1.62278 0
M  V30 6500 C 597.972 -4.10133 -1.07943 0
M  V30 6501 N 598.363 -5.05133 -0.259629 0
M  V30 6502 C 596.661 -4.24964 -1.35356 0
M  V30 6503 C 597.362 -5.81687 0.0386656 0
M  V30 6504 N 596.338 -5.40699 -0.560827 0
M  V30 6505 H 600.14 -2.93538 0.145853 0
M  V30 6506 H 597.654 -1.61389 0.180938 0
M  V30 6507 H 599.651 -3.50909 -2.25096 0
M  V30 6508 H 598.311 -2.33252 -2.25884 0
M  V30 6509 H 599.322 -5.178 0.101746 0
M  V30 6510 H 595.999 -3.66919 -1.9919 0
M  V30 6511 H 597.389 -6.68224 0.701841 0
M  V30 6512 N 600.109 -0.101901 -1.5727 0
M  V30 6513 C 601.039 0.851544 -2.17419 0
M  V30 6514 C 602.02 1.28942 -1.10941 0
M  V30 6515 O 603.205 1.35509 -1.39107 0
M  V30 6516 C 600.335 2.10816 -2.75996 0
M  V30 6517 C 599.289 1.80867 -3.87906 0
M  V30 6518 C 598.615 3.13413 -4.33216 0
M  V30 6519 C 599.915 1.0903 -5.10793 0
M  V30 6520 H 601.609 0.350381 -2.97343 0
M  V30 6521 H 599.155 0.16709 -1.43027 0
M  V30 6522 H 601.108 2.77959 -3.16729 0
M  V30 6523 H 599.832 2.63227 -1.93337 0
M  V30 6524 H 598.491 1.16119 -3.47724 0
M  V30 6525 H 598.139 3.63725 -3.47438 0
M  V30 6526 H 597.839 2.94155 -5.08671 0
M  V30 6527 H 599.363 3.81704 -4.76586 0
M  V30 6528 H 600.777 1.66295 -5.48652 0
M  V30 6529 H 599.174 0.99927 -5.91722 0
M  V30 6530 H 600.244 0.0741704 -4.84843 0
M  V30 6531 N 601.587 1.56661 0.17182 0
M  V30 6532 C 602.534 1.96371 1.21273 0
M  V30 6533 C 603.504 0.82756 1.44016 0
M  V30 6534 O 604.689 1.08764 1.56764 0
M  V30 6535 C 601.829 2.32838 2.54716 0
M  V30 6536 C 600.942 3.59628 2.39356 0
M  V30 6537 C 600.077 3.85311 3.65662 0
M  V30 6538 C 599.116 5.0545 3.45234 0
M  V30 6539 N 598.253 5.27268 4.63608 0
M  V30 6540 H 603.093 2.85106 0.86709 0
M  V30 6541 H 600.63 1.41073 0.416744 0
M  V30 6542 H 602.588 2.52004 3.3249 0
M  V30 6543 H 601.218 1.47214 2.87277 0
M  V30 6544 H 600.27 3.4838 1.52761 0
M  V30 6545 H 601.582 4.4756 2.20207 0
M  V30 6546 H 600.736 4.04841 4.51872 0
M  V30 6547 H 599.475 2.95753 3.8779 0
M  V30 6548 H 598.48 4.85819 2.5741 0
M  V30 6549 H 599.705 5.96538 3.24529 0
M  V30 6550 H 597.651 4.40662 4.85956 0
M  V30 6551 H 597.568 6.09422 4.4737 0
M  V30 6552 H 598.836 5.51277 5.51103 0
M  V30 6553 N 603.065 -0.440357 1.51323 0
M  V30 6554 C 604.311 -1.19181 1.64085 0
M  V30 6555 C 604.644 -1.90936 0.354575 0
M  V30 6556 O 603.919 -1.8347 -0.645675 0
M  V30 6557 C 604.202 -2.2112 2.84215 0
M  V30 6558 C 604.055 -1.53468 4.22809 0
M  V30 6559 C 605.374 -3.22133 2.99864 0
M  V30 6560 H 602.493 -0.431924 0.597169 0
M  V30 6561 H 605.135 -0.481443 1.83799 0
M  V30 6562 H 603.285 -2.81703 2.67537 0
M  V30 6563 H 604.957 -0.962455 4.51148 0
M  V30 6564 H 603.2 -0.837086 4.25647 0
M  V30 6565 H 603.871 -2.27694 5.02852 0
M  V30 6566 H 606.347 -2.71601 3.15233 0
M  V30 6567 H 605.223 -3.90756 3.85488 0
M  V30 6568 H 605.484 -3.88061 2.11804 0
M  V30 6569 N 604.543 -1.41418 -0.695603 0
M  V30 6570 C 605.475 -1.39195 -1.82092 0
M  V30 6571 C 606.488 -0.294132 -1.60121 0
M  V30 6572 O 607.677 -0.555854 -1.69625 0
M  V30 6573 C 604.777 -1.14828 -3.18854 0
M  V30 6574 C 603.95 -2.36649 -3.67853 0
M  V30 6575 C 603.009 -2.08139 -4.83285 0
M  V30 6576 O 602.035 -2.81177 -4.94902 0
M  V30 6577 N 603.237 -1.07162 -5.70523 0
M  V30 6578 H 606.002 -2.36185 -1.84491 0
M  V30 6579 H 603.563 -1.3603 -0.877923 0
M  V30 6580 H 605.555 -0.937075 -3.93702 0
M  V30 6581 H 604.125 -0.264358 -3.1148 0
M  V30 6582 H 603.345 -2.73472 -2.83913 0
M  V30 6583 H 604.633 -3.17816 -3.97329 0
M  V30 6584 H 604.031 -0.467124 -5.63768 0
M  V30 6585 H 602.588 -0.920311 -6.4527 0
M  V30 6586 N 606.021 0.929856 -1.27246 0
M  V30 6587 C 607.437 1.20542 -1.04603 0
M  V30 6588 C 607.637 2.00276 0.221754 0
M  V30 6589 O 606.693 2.34835 0.927833 0
M  V30 6590 C 608.006 1.95566 -2.28417 0
M  V30 6591 C 609.554 2.08513 -2.33433 0
M  V30 6592 C 610.029 2.86943 -3.5697 0
M  V30 6593 N 611.52 2.94512 -3.57515 0
M  V30 6594 C 612.255 3.55656 -4.49774 0
M  V30 6595 N 611.751 4.18209 -5.52334 0
M  V30 6596 N 613.544 3.53038 -4.37402 0
M  V30 6597 H 605.695 0.397113 -2.08655 0
M  V30 6598 H 607.958 0.238277 -0.917566 0
M  V30 6599 H 607.664 1.44395 -3.20691 0
M  V30 6600 H 607.538 2.9619 -2.33563 0
M  V30 6601 H 609.925 2.58872 -1.41666 0
M  V30 6602 H 610.006 1.07117 -2.32292 0
M  V30 6603 H 609.65 2.37268 -4.49072 0
M  V30 6604 H 609.58 3.8862 -3.55362 0
M  V30 6605 H 612.071 2.50053 -2.83341 0
M  V30 6606 H 612.384 4.62796 -6.18902 0
M  V30 6607 H 610.729 4.16761 -5.56179 0
M  V30 6608 H 613.92 3.0337 -3.56489 0
M  V30 6609 H 614.093 4.004 -5.09493 0
M  V30 6610 N 607.499 1.09233 1.13605 0
M  V30 6611 C 608.724 0.849067 1.89224 0
M  V30 6612 C 609.149 -0.593875 1.78479 0
M  V30 6613 O 608.507 -1.41703 1.13092 0
M  V30 6614 C 608.555 1.28642 3.36873 0
M  V30 6615 O 607.659 0.44363 4.10007 0
M  V30 6616 H 607 0.30767 0.588417 0
M  V30 6617 H 609.53 1.45595 1.43748 0
M  V30 6618 H 609.54 1.27096 3.87699 0
M  V30 6619 H 608.215 2.33729 3.44011 0
M  V30 6620 H 606.792 0.523241 3.69211 0
M  V30 6621 N 608.977 -1.30795 0.87923 0
M  V30 6622 C 610.226 -1.95636 0.490875 0
M  V30 6623 C 610.539 -1.70214 -0.963674 0
M  V30 6624 O 611.745 -2.28991 -1.45861 0
M  V30 6625 C 610.201 -3.50271 0.826929 0
M  V30 6626 C 609.809 -3.84521 2.29886 0
M  V30 6627 C 611.553 -4.21456 0.507494 0
M  V30 6628 C 609.46 -5.32309 2.57685 0
M  V30 6629 H 608.39 -0.732238 0.179841 0
M  V30 6630 H 611.041 -1.48829 1.07341 0
M  V30 6631 H 609.423 -3.9562 0.173542 0
M  V30 6632 H 610.597 -3.50102 2.99609 0
M  V30 6633 H 608.912 -3.26425 2.58526 0
M  V30 6634 H 611.509 -5.30199 0.692293 0
M  V30 6635 H 611.852 -4.12614 -0.552718 0
M  V30 6636 H 612.385 -3.81772 1.11782 0
M  V30 6637 H 609.124 -5.46195 3.62424 0
M  V30 6638 H 608.644 -5.68048 1.92566 0
M  V30 6639 H 610.323 -5.99678 2.42889 0
M  V30 6640 N 610.455 -0.639598 -1.44038 0
M  V30 6641 C 611.68 -0.153117 -2.06834 0
M  V30 6642 C 612.105 1.16676 -1.47541 0
M  V30 6643 O 611.463 1.71769 -0.580093 0
M  V30 6644 C 611.511 -0.0609169 -3.60549 0
M  V30 6645 O 610.615 0.98071 -4.00569 0
M  V30 6646 H 609.956 -0.0886402 -0.658057 0
M  V30 6647 H 612.486 -0.878674 -1.84771 0
M  V30 6648 H 612.496 0.126892 -4.07803 0
M  V30 6649 H 611.171 -1.0245 -4.03084 0
M  V30 6650 H 609.748 0.766789 -3.64931 0
M  V30 6651 N 611.933 1.52934 -0.380664 0
M  V30 6652 C 612.896 2.24809 0.446473 0
M  V30 6653 C 613.896 1.26133 0.997347 0
M  V30 6654 O 615.086 1.50297 0.880714 0
M  V30 6655 C 612.218 2.99649 1.62553 0
M  V30 6656 H 613.411 2.99343 -0.182677 0
M  V30 6657 H 610.964 1.55736 -0.132618 0
M  V30 6658 H 611.699 2.29395 2.29235 0
M  V30 6659 H 611.484 3.72066 1.23732 0
M  V30 6660 H 612.974 3.54246 2.21133 0
M  V30 6661 N 613.412 0.11024 1.57214 0
M  V30 6662 C 614.36 -0.860586 2.16094 0
M  V30 6663 C 615.354 -1.28156 1.1078 0
M  V30 6664 O 616.56 -1.25433 1.29099 0
M  V30 6665 H 612.935 -0.295606 0.691463 0
M  V30 6666 H 614.906 -0.33942 2.96463 0
M  V30 6667 C 613.655 -2.10421 2.768 0
M  V30 6668 H 612.978 -1.7892 3.5753 0
M  V30 6669 H 614.418 -2.76375 3.21547 0
M  V30 6670 C 612.877 -2.88823 1.73444 0
M  V30 6671 O 613.407 -3.839 1.18251 0
M  V30 6672 N 611.613 -2.52649 1.43586 0
M  V30 6673 H 611.16 -1.754 1.8866 0
M  V30 6674 H 611.118 -3.05403 0.746735 0
M  V30 6675 N 614.89 -1.56749 -0.16351 0
M  V30 6676 C 615.822 -1.93587 -1.22705 0
M  V30 6677 C 616.835 -0.829824 -1.40063 0
M  V30 6678 O 618.024 -1.10826 -1.39928 0
M  V30 6679 C 615.124 -2.1803 -2.59454 0
M  V30 6680 C 614.297 -3.4928 -2.63292 0
M  V30 6681 C 613.356 -3.62457 -3.8146 0
M  V30 6682 O 612.382 -4.35004 -3.67096 0
M  V30 6683 N 613.584 -2.97888 -4.9824 0
M  V30 6684 H 616.349 -2.8542 -0.914081 0
M  V30 6685 H 613.91 -1.58 -0.353214 0
M  V30 6686 H 615.902 -2.24102 -3.36987 0
M  V30 6687 H 614.472 -1.32543 -2.8311 0
M  V30 6688 H 613.692 -3.54795 -1.71796 0
M  V30 6689 H 614.98 -4.35632 -2.62873 0
M  V30 6690 H 614.378 -2.38833 -5.12811 0
M  V30 6691 H 612.935 -3.09545 -5.73607 0
M  V30 6692 N 616.368 0.432326 -1.51554 0
M  V30 6693 C 617.315 1.52512 -1.7323 0
M  V30 6694 C 618.285 1.55863 -0.5741 0
M  V30 6695 O 619.47 1.72796 -0.809093 0
M  V30 6696 C 616.61 2.90183 -1.86783 0
M  V30 6697 C 615.723 2.96322 -3.14352 0
M  V30 6698 C 614.858 4.25147 -3.18471 0
M  V30 6699 C 613.897 4.25172 -4.40335 0
M  V30 6700 N 613.034 5.45529 -4.41975 0
M  V30 6701 H 617.874 1.33332 -2.66508 0
M  V30 6702 H 615.411 0.647613 -1.32077 0
M  V30 6703 H 617.369 3.70071 -1.92623 0
M  V30 6704 H 615.999 3.0791 -0.969087 0
M  V30 6705 H 615.051 2.09066 -3.17798 0
M  V30 6706 H 616.363 2.92203 -4.04251 0
M  V30 6707 H 615.517 5.13411 -3.23255 0
M  V30 6708 H 614.256 4.31929 -2.2647 0
M  V30 6709 H 613.261 3.353 -4.35723 0
M  V30 6710 H 614.486 4.20049 -5.33606 0
M  V30 6711 H 612.432 5.53024 -3.52847 0
M  V30 6712 H 612.349 5.43311 -5.25689 0
M  V30 6713 H 613.617 6.35812 -4.50958 0
M  V30 6714 N 617.846 1.41785 0.688094 0
M  V30 6715 C 618.778 1.40159 1.81351 0
M  V30 6716 C 619.791 0.30262 1.59963 0
M  V30 6717 O 620.98 0.564841 1.69327 0
M  V30 6718 C 618.08 1.16517 3.1824 0
M  V30 6719 C 617.253 2.38597 3.66593 0
M  V30 6720 C 616.312 2.10699 4.82174 0
M  V30 6721 O 615.338 2.83798 4.93404 0
M  V30 6722 N 616.54 1.10187 5.69947 0
M  V30 6723 H 619.305 2.3716 1.83236 0
M  V30 6724 H 616.866 1.36494 0.870697 0
M  V30 6725 H 618.858 0.957941 3.93199 0
M  V30 6726 H 617.428 0.280873 3.11336 0
M  V30 6727 H 616.648 2.74974 2.82459 0
M  V30 6728 H 617.936 3.19919 3.95638 0
M  V30 6729 H 617.334 0.497016 5.63512 0
M  V30 6730 H 615.891 0.954518 6.44773 0
M  V30 6731 N 619.324 -0.923095 1.27737 0
M  V30 6732 C 620.74 -1.19985 1.05241 0
M  V30 6733 C 620.94 -2.00391 -0.21113 0
M  V30 6734 O 619.996 -2.35324 -0.915366 0
M  V30 6735 C 621.309 -1.94352 2.29451 0
M  V30 6736 C 622.857 -2.07273 2.34536 0
M  V30 6737 C 623.332 -2.85046 3.58487 0
M  V30 6738 N 624.823 -2.92612 3.59072 0
M  V30 6739 C 625.558 -3.53266 4.51654 0
M  V30 6740 N 625.054 -4.15274 5.54545 0
M  V30 6741 N 626.847 -3.50714 4.39268 0
M  V30 6742 H 618.998 -0.386042 2.08862 0
M  V30 6743 H 621.261 -0.233407 0.918817 0
M  V30 6744 H 620.967 -1.42692 3.21453 0
M  V30 6745 H 620.841 -2.94947 2.3513 0
M  V30 6746 H 623.228 -2.58117 1.43037 0
M  V30 6747 H 623.309 -1.05884 2.32857 0
M  V30 6748 H 622.953 -2.34884 4.50324 0
M  V30 6749 H 622.883 -3.8673 3.57418 0
M  V30 6750 H 625.374 -2.48547 2.84663 0
M  V30 6751 H 625.687 -4.59507 6.21348 0
M  V30 6752 H 624.032 -4.13806 5.58382 0
M  V30 6753 H 627.223 -3.01475 3.58093 0
M  V30 6754 H 627.396 -3.97693 5.1161 0
M  V30 6755 N 620.802 -1.09834 -1.13024 0
M  V30 6756 C 622.218 -0.828875 -1.36388 0
M  V30 6757 C 622.418 0.554756 -1.93713 0
M  V30 6758 O 621.474 1.30882 -2.15931 0
M  V30 6759 C 622.787 -1.92352 -2.3113 0
M  V30 6760 C 624.335 -1.95124 -2.44735 0
M  V30 6761 C 624.81 -3.03745 -3.42787 0
M  V30 6762 N 626.301 -3.03012 -3.5034 0
M  V30 6763 C 627.036 -3.83699 -4.26101 0
M  V30 6764 N 626.532 -4.74306 -5.04981 0
M  V30 6765 N 628.325 -3.71942 -4.21445 0
M  V30 6766 H 620.476 -1.99029 -0.74169 0
M  V30 6767 H 622.739 -0.864557 -0.388903 0
M  V30 6768 H 622.445 -2.91906 -1.96172 0
M  V30 6769 H 622.319 -1.80536 -3.3119 0
M  V30 6770 H 624.706 -0.962069 -2.78977 0
M  V30 6771 H 624.787 -2.11018 -1.44586 0
M  V30 6772 H 624.431 -4.02878 -3.09276 0
M  V30 6773 H 624.361 -2.85094 -4.42752 0
M  V30 6774 H 626.852 -2.37352 -2.94062 0
M  V30 6775 H 627.165 -5.32446 -5.60108 0
M  V30 6776 H 625.51 -4.78339 -5.04199 0
M  V30 6777 H 628.701 -3.00513 -3.589 0
M  V30 6778 H 628.874 -4.35062 -4.80235 0
M  V30 6779 N 622.28 1.30327 -0.886154 0
M  V30 6780 C 623.527 1.96097 -0.505192 0
M  V30 6781 C 623.855 1.69952 0.945868 0
M  V30 6782 O 623.11 0.997653 1.68361 0
M  V30 6783 C 623.409 3.49906 -0.728042 0
M  V30 6784 C 623.075 3.96103 -2.15437 0
M  V30 6785 C 621.737 4.08428 -2.5444 0
M  V30 6786 C 624.089 4.20177 -3.08384 0
M  V30 6787 C 621.417 4.42189 -3.85598 0
M  V30 6788 C 623.769 4.55407 -4.39075 0
M  V30 6789 C 622.433 4.65941 -4.7797 0
M  V30 6790 H 621.703 0.71757 -0.184863 0
M  V30 6791 H 624.35 1.55171 -1.12223 0
M  V30 6792 H 622.655 3.9179 -0.027978 0
M  V30 6793 H 624.352 3.98869 -0.412862 0
M  V30 6794 H 620.942 3.87017 -1.84162 0
M  V30 6795 H 625.126 4.10134 -2.7947 0
M  V30 6796 H 620.382 4.48544 -4.15473 0
M  V30 6797 H 624.556 4.72986 -5.11133 0
M  V30 6798 H 622.183 4.91856 -5.79639 0
M  V30 6799 N 623.758 0.647228 1.43697 0
M  V30 6800 C 624.983 0.164083 2.0675 0
M  V30 6801 C 625.408 -1.15892 1.48158 0
M  V30 6802 O 624.766 -1.71459 0.589194 0
M  V30 6803 C 624.814 0.0800368 3.60511 0
M  V30 6804 O 623.918 -0.959453 4.01084 0
M  V30 6805 H 623.259 0.0921288 0.657578 0
M  V30 6806 H 625.789 0.88846 1.84303 0
M  V30 6807 H 625.799 -0.105263 4.07864 0
M  V30 6808 H 624.474 1.04586 4.02535 0
M  V30 6809 H 623.051 -0.747425 3.65333 0
M  V30 6810 N 625.236 -1.5273 0.388769 0
M  V30 6811 C 626.513 -1.93981 -0.251133 0
M  V30 6812 C 626.893 -1.32418 -1.64404 0
M  V30 6813 O 626.241 -0.492074 -2.23139 0
M  V30 6814 C 626.451 -3.47891 -0.27802 0
M  V30 6815 C 627.799 -4.21559 -0.507229 0
M  V30 6816 O 628.823 -3.54394 -0.358252 0
M  V30 6817 O 627.682 -5.40626 -0.799094 0
M  V30 6818 H 624.776 -0.812157 -0.15598 0
M  V30 6819 H 627.322 -1.63809 0.443237 0
M  V30 6820 H 626.094 -3.8503 0.697669 0
M  V30 6821 H 625.717 -3.84364 -1.01733 0
M  V30 6822 N 626.714 -0.118576 -1.57153 0
M  V30 6823 C 627.664 0.842924 -2.11846 0
M  V30 6824 C 628.648 1.22845 -1.03914 0
M  V30 6825 O 629.84 1.19961 -1.30148 0
M  V30 6826 C 626.969 2.09312 -2.72109 0
M  V30 6827 C 626.055 1.73198 -3.87122 0
M  V30 6828 N 626.446 1.07758 -4.94188 0
M  V30 6829 C 624.744 2.02659 -3.97298 0
M  V30 6830 C 625.445 0.907741 -5.74574 0
M  V30 6831 N 624.421 1.4326 -5.24383 0
M  V30 6832 H 628.223 0.333416 -2.92003 0
M  V30 6833 H 625.737 0.0839073 -1.62183 0
M  V30 6834 H 627.734 2.79162 -3.09635 0
M  V30 6835 H 626.394 2.60807 -1.93416 0
M  V30 6836 H 627.405 0.741613 -5.12563 0
M  V30 6837 H 624.082 2.56204 -3.29645 0
M  V30 6838 H 625.472 0.394112 -6.70743 0
M  V30 6839 N 628.193 1.56834 0.155195 0
M  V30 6840 C 629.156 1.96748 1.17571 0
M  V30 6841 C 630.156 0.853006 1.3631 0
M  V30 6842 O 631.346 1.11978 1.33441 0
M  V30 6843 C 628.478 2.27631 2.53765 0
M  V30 6844 H 629.671 2.88085 0.833498 0
M  V30 6845 H 627.224 1.51141 0.398242 0
M  V30 6846 H 627.959 1.39059 2.92973 0
M  V30 6847 H 627.744 3.0888 2.41527 0
M  V30 6848 H 629.234 2.59377 3.27282 0
M  V30 6849 N 629.671 -0.424282 1.51781 0
M  V30 6850 C 630.919 -1.17028 1.64769 0
M  V30 6851 C 631.24 -1.91409 0.372523 0
M  V30 6852 O 630.51 -1.86091 -0.612108 0
M  V30 6853 H 629.09 -0.434992 0.607282 0
M  V30 6854 H 631.752 -0.485169 1.88765 0
M  V30 6855 H 630.848 -1.8927 2.4816 0
M  V30 6856 N 631.149 -1.42148 -0.680565 0
M  V30 6857 C 632.56 -1.3768 -1.26099 0
M  V30 6858 C 632.911 -0.0672348 -1.96085 0
M  V30 6859 O 632.036 0.834172 -1.99676 0
M  V30 6860 C 632.631 -2.49387 -2.29328 0
M  V30 6861 C 631.19 -2.4827 -2.82911 0
M  V30 6862 C 630.337 -2.2847 -1.57152 0
M  V30 6863 H 633.288 -1.51446 -0.474326 0
M  V30 6864 H 633.309 -2.19307 -3.10941 0
M  V30 6865 H 632.821 -3.44686 -1.78363 0
M  V30 6866 H 630.922 -1.56773 -3.38013 0
M  V30 6867 H 631.035 -3.45109 -3.3232 0
M  V30 6868 H 629.399 -1.76623 -1.83511 0
M  V30 6869 H 630.182 -3.25816 -1.0816 0
M  V30 6870 N 632.627 0.916307 -1.28225 0
M  V30 6871 C 633.852 1.7043 -1.18188 0
M  V30 6872 C 634.277 1.86346 0.256274 0
M  V30 6873 O 633.635 1.37175 1.18544 0
M  V30 6874 C 633.683 3.07546 -1.88275 0
M  V30 6875 O 632.787 3.94904 -1.18848 0
M  V30 6876 H 632.128 0.521967 -0.410423 0
M  V30 6877 H 634.658 1.14589 -1.69501 0
M  V30 6878 H 634.668 3.57793 -1.96082 0
M  V30 6879 H 633.343 2.95279 -2.92887 0
M  V30 6880 H 631.92 3.53339 -1.19187 0
M  V30 6881 N 634.105 1.10431 1.1244 0
M  V30 6882 C 635.354 0.841539 1.83306 0
M  V30 6883 C 635.667 -0.634961 1.85007 0
M  V30 6884 O 636.873 -1.01363 2.51869 0
M  V30 6885 C 635.329 1.45565 3.29149 0
M  V30 6886 C 634.937 2.96544 3.35806 0
M  V30 6887 C 636.681 1.27227 4.04986 0
M  V30 6888 C 634.588 3.5099 4.75983 0
M  V30 6889 H 633.518 0.311156 0.686803 0
M  V30 6890 H 636.169 1.32829 1.26604 0
M  V30 6891 H 634.551 0.896574 3.85717 0
M  V30 6892 H 635.725 3.58766 2.89177 0
M  V30 6893 H 634.04 3.14036 2.73442 0
M  V30 6894 H 636.637 1.65348 5.08492 0
M  V30 6895 H 636.98 0.213834 4.1575 0
M  V30 6896 H 637.513 1.79941 3.54776 0
M  V30 6897 H 634.252 4.56499 4.70413 0
M  V30 6898 H 633.772 2.93535 5.23065 0
M  V30 6899 H 635.451 3.48808 5.44924 0
M  V30 6900 N 635.583 -1.29855 0.893053 0
M  V30 6901 C 636.994 -1.77946 0.564998 0
M  V30 6902 C 637.345 -1.73339 -0.919134 0
M  V30 6903 O 636.47 -1.3152 -1.71847 0
M  V30 6904 C 637.065 -3.23118 1.01883 0
M  V30 6905 C 635.624 -3.69013 0.742051 0
M  V30 6906 C 634.771 -2.50121 1.19727 0
M  V30 6907 H 637.722 -1.16611 1.07646 0
M  V30 6908 H 637.743 -3.78875 0.351249 0
M  V30 6909 H 637.255 -3.26439 2.09903 0
M  V30 6910 H 635.356 -3.71173 -0.325816 0
M  V30 6911 H 635.469 -4.60117 1.33527 0
M  V30 6912 H 633.833 -2.47128 0.616418 0
M  V30 6913 H 634.616 -2.56174 2.28538 0
M  V30 6914 N 637.061 -0.65484 -1.43351 0
M  V30 6915 C 638.472 -0.248506 -1.85039 0
M  V30 6916 C 638.823 1.20526 -1.54816 0
M  V30 6917 O 637.948 1.92016 -0.99794 0
M  V30 6918 C 638.543 -0.444241 -3.35875 0
M  V30 6919 C 637.102 -0.0922108 -3.76287 0
M  V30 6920 C 636.249 -0.746327 -2.67068 0
M  V30 6921 H 639.2 -0.8584 -1.33481 0
M  V30 6922 H 639.221 0.309762 -3.79237 0
M  V30 6923 H 638.733 -1.50239 -3.5784 0
M  V30 6924 H 636.834 0.96328 -3.59933 0
M  V30 6925 H 636.947 -0.518807 -4.76283 0
M  V30 6926 H 635.311 -0.179416 -2.54067 0
M  V30 6927 H 636.094 -1.80754 -2.91861 0
M  V30 6928 N 638.539 1.52521 -0.396863 0
M  V30 6929 C 639.502 2.2527 0.422604 0
M  V30 6930 C 640.502 1.27184 0.983913 0
M  V30 6931 O 641.692 1.51222 0.864723 0
M  V30 6932 C 638.824 3.01356 1.59365 0
M  V30 6933 H 640.017 2.99133 -0.214416 0
M  V30 6934 H 637.57 1.55587 -0.149128 0
M  V30 6935 H 638.305 2.31813 2.26789 0
M  V30 6936 H 638.09 3.73357 1.19779 0
M  V30 6937 H 639.58 3.56571 2.17363 0
M  V30 6938 N 640.017 0.126909 1.57088 0
M  V30 6939 C 641.263 -0.529952 1.95753 0
M  V30 6940 C 641.596 -1.65823 1.01077 0
M  V30 6941 O 640.871 -1.94437 0.0494162 0
M  V30 6942 C 641.154 -1.05517 3.44294 0
M  V30 6943 C 641.007 0.0702253 4.49745 0
M  V30 6944 C 642.326 -1.9435 3.94862 0
M  V30 6945 H 639.445 -0.191168 0.711775 0
M  V30 6946 H 642.087 0.204071 1.88901 0
M  V30 6947 H 640.237 -1.68069 3.50264 0
M  V30 6948 H 641.909 0.705834 4.55868 0
M  V30 6949 H 640.152 0.732259 4.27575 0
M  V30 6950 H 640.823 -0.338642 5.5096 0
M  V30 6951 H 643.299 -1.41658 3.91244 0
M  V30 6952 H 642.175 -2.28015 4.993 0
M  V30 6953 H 642.436 -2.87299 3.36024 0
M  V30 6954 N 641.495 -1.56914 -0.146875 0
M  V30 6955 C 642.72 -1.87881 -0.878386 0
M  V30 6956 C 643.145 -0.715945 -1.73942 0
M  V30 6957 O 642.503 0.334447 -1.78189 0
M  V30 6958 C 642.551 -3.17431 -1.71084 0
M  V30 6959 O 641.655 -3.01374 -2.81509 0
M  V30 6960 H 640.996 -0.617289 -0.244644 0
M  V30 6961 H 643.526 -2.04136 -0.137654 0
M  V30 6962 H 643.536 -3.49455 -2.10582 0
M  V30 6963 H 642.211 -4.01671 -1.07856 0
M  V30 6964 H 640.788 -2.80758 -2.45416 0
M  V30 6965 N 642.974 0.416227 -1.52004 0
M  V30 6966 C 644.204 1.18401 -1.69307 0
M  V30 6967 C 644.612 1.84943 -0.399072 0
M  V30 6968 O 643.955 1.72406 0.634177 0
M  V30 6969 C 644.017 2.29465 -2.76742 0
M  V30 6970 C 643.681 1.83117 -4.18709 0
M  V30 6971 C 644.678 1.32286 -5.02789 0
M  V30 6972 C 642.363 1.90167 -4.64911 0
M  V30 6973 C 644.357 0.891178 -6.31139 0
M  V30 6974 C 642.044 1.4661 -5.93253 0
M  V30 6975 C 643.042 0.961696 -6.76196 0
M  V30 6976 O 642.73 0.532388 -8.02135 0
M  V30 6977 H 642.462 0.362098 -0.570843 0
M  V30 6978 H 645.016 0.496764 -1.99302 0
M  V30 6979 H 643.246 3.01531 -2.42107 0
M  V30 6980 H 644.935 2.91252 -2.82713 0
M  V30 6981 H 645.701 1.26218 -4.68288 0
M  V30 6982 H 641.58 2.28371 -4.00459 0
M  V30 6983 H 645.124 0.496788 -6.95829 0
M  V30 6984 H 641.021 1.52355 -6.27263 0
M  V30 6985 H 641.789 0.656339 -8.15864 0
M  V30 6986 N 644.452 1.42507 0.673017 0
M  V30 6987 C 645.68 1.46473 1.46128 0
M  V30 6988 C 646.095 0.0765912 1.88645 0
M  V30 6989 O 645.452 -0.909057 1.58248 0
M  V30 6990 C 645.503 2.39339 2.70923 0
M  V30 6991 O 645.224 3.72752 2.3019 0
M  V30 6992 C 646.725 2.52343 3.64469 0
M  V30 6993 H 643.945 0.49812 0.449575 0
M  V30 6994 H 646.489 1.87041 0.826802 0
M  V30 6995 H 644.644 2.02019 3.30556 0
M  V30 6996 H 645.058 4.22503 3.10791 0
M  V30 6997 H 646.532 3.2144 4.48754 0
M  V30 6998 H 647.009 1.56189 4.1049 0
M  V30 6999 H 647.615 2.90392 3.10729 0
M  V30 7000 N 645.93 -0.909495 1.28709 0
M  V30 7001 C 646.877 -2.01245 1.13 0
M  V30 7002 C 647.847 -1.6608 0.0259684 0
M  V30 7003 O 649.032 -1.89835 0.191687 0
M  V30 7004 C 646.172 -3.35644 0.802315 0
M  V30 7005 C 645.285 -3.83653 1.98582 0
M  V30 7006 C 644.42 -5.06582 1.59837 0
M  V30 7007 C 643.459 -5.46934 2.74827 0
M  V30 7008 N 642.596 -6.61053 2.36546 0
M  V30 7009 H 647.436 -2.14013 2.0737 0
M  V30 7010 H 644.973 -1.0482 1.03205 0
M  V30 7011 H 646.931 -4.12963 0.593057 0
M  V30 7012 H 645.561 -3.22631 -0.104457 0
M  V30 7013 H 644.613 -3.02454 2.30708 0
M  V30 7014 H 645.925 -4.09515 2.84779 0
M  V30 7015 H 645.079 -5.91457 1.35143 0
M  V30 7016 H 643.818 -4.82537 0.707753 0
M  V30 7017 H 642.823 -4.60599 3.00215 0
M  V30 7018 H 644.048 -5.72965 3.64538 0
M  V30 7019 H 641.994 -6.3863 1.49959 0
M  V30 7020 H 641.911 -6.86662 3.16277 0
M  V30 7021 H 643.179 -7.49221 2.15146 0
M  V30 7022 N 647.408 -1.11026 -1.11852 0
M  V30 7023 C 648.824 -0.843294 -1.35502 0
M  V30 7024 C 649.024 0.534179 -1.9429 0
M  V30 7025 O 648.08 1.28585 -2.17307 0
M  V30 7026 C 649.393 -1.94793 -2.29077 0
M  V30 7027 C 650.941 -1.97709 -2.42652 0
M  V30 7028 C 651.416 -3.07364 -3.39546 0
M  V30 7029 N 652.907 -3.0671 -3.47107 0
M  V30 7030 C 653.642 -3.88197 -4.22008 0
M  V30 7031 N 653.138 -4.79635 -4.99922 0
M  V30 7032 N 654.931 -3.76391 -4.17476 0
M  V30 7033 H 647.082 -1.99805 -0.720538 0
M  V30 7034 H 649.345 -0.868633 -0.379711 0
M  V30 7035 H 649.051 -2.93971 -1.93065 0
M  V30 7036 H 648.925 -1.84039 -3.29256 0
M  V30 7037 H 651.312 -0.991604 -2.77941 0
M  V30 7038 H 651.393 -2.1254 -1.4234 0
M  V30 7039 H 651.037 -4.06136 -3.04985 0
M  V30 7040 H 650.967 -2.89774 -4.39703 0
M  V30 7041 H 653.458 -2.40457 -2.91528 0
M  V30 7042 H 653.771 -5.38357 -5.54429 0
M  V30 7043 H 652.116 -4.8366 -4.99097 0
M  V30 7044 H 655.307 -3.04303 -3.55693 0
M  V30 7045 H 655.48 -4.40131 -4.75593 0
M  V30 7046 N 648.886 1.2938 -0.899927 0
M  V30 7047 C 650.297 1.77644 -0.574427 0
M  V30 7048 C 650.648 1.73824 0.909928 0
M  V30 7049 O 649.773 1.32429 1.71147 0
M  V30 7050 C 650.368 3.22573 -1.03595 0
M  V30 7051 C 648.927 3.68614 -0.76161 0
M  V30 7052 C 648.074 2.49483 -1.21052 0
M  V30 7053 H 651.025 1.16038 -1.08263 0
M  V30 7054 H 651.046 3.78684 -0.371337 0
M  V30 7055 H 650.558 3.25321 -2.11631 0
M  V30 7056 H 648.659 3.7134 0.306127 0
M  V30 7057 H 648.772 4.59402 -1.35965 0
M  V30 7058 H 647.136 2.46798 -0.629515 0
M  V30 7059 H 647.919 2.54959 -2.29893 0
M  V30 7060 N 650.364 0.662433 1.43002 0
M  V30 7061 C 651.296 -0.062326 2.29115 0
M  V30 7062 C 652.309 -0.777926 1.43011 0
M  V30 7063 O 653.498 -0.634146 1.66856 0
M  V30 7064 C 650.598 -1.11163 3.2015 0
M  V30 7065 C 649.771 -0.472327 4.34842 0
M  V30 7066 C 648.83 -1.41974 5.06685 0
M  V30 7067 O 647.856 -0.924795 5.61637 0
M  V30 7068 N 649.058 -2.75345 5.11043 0
M  V30 7069 H 651.823 0.676838 2.91957 0
M  V30 7070 H 649.384 0.505907 1.53793 0
M  V30 7071 H 651.376 -1.74643 3.65078 0
M  V30 7072 H 649.946 -1.75266 2.58845 0
M  V30 7073 H 649.166 0.341751 3.92716 0
M  V30 7074 H 650.454 -0.0264381 5.08793 0
M  V30 7075 H 649.852 -3.18108 4.67786 0
M  V30 7076 H 648.409 -3.34105 5.59658 0
M  V30 7077 N 651.842 -1.52309 0.404946 0
M  V30 7078 C 652.805 -2.25491 -0.410651 0
M  V30 7079 C 653.805 -1.27704 -0.977154 0
M  V30 7080 O 654.995 -1.51679 -0.856691 0
M  V30 7081 C 652.127 -3.02197 -1.57765 0
M  V30 7082 H 653.32 -2.99015 0.230277 0
M  V30 7083 H 650.873 -1.55506 0.157377 0
M  V30 7084 H 651.608 -2.33013 -2.25556 0
M  V30 7085 H 651.393 -3.73987 -1.17797 0
M  V30 7086 H 652.883 -3.57719 -2.15469 0
M  V30 7087 N 653.32 -0.135238 -1.57019 0
M  V30 7088 C 654.268 0.826099 -2.17436 0
M  V30 7089 C 655.262 1.26378 -1.12805 0
M  V30 7090 O 656.468 1.23363 -1.31079 0
M  V30 7091 H 652.843 0.284568 -0.696078 0
M  V30 7092 H 654.814 0.292212 -2.96966 0
M  V30 7093 C 653.563 2.05991 -2.80112 0
M  V30 7094 H 652.886 1.73209 -3.60331 0
M  V30 7095 H 654.326 2.71225 -3.25903 0
M  V30 7096 C 652.785 2.86027 -1.78017 0
M  V30 7097 O 653.315 3.81971 -1.24344 0
M  V30 7098 N 651.521 2.50332 -1.47588 0
M  V30 7099 H 651.068 1.72377 -1.91426 0
M  V30 7100 H 651.026 3.04177 -0.795228 0
M  V30 7101 N 654.798 1.5699 0.138552 0
M  V30 7102 C 656.023 1.88344 0.86841 0
M  V30 7103 C 656.448 0.725159 1.7356 0
M  V30 7104 O 655.806 -0.324992 1.78363 0
M  V30 7105 C 655.854 3.18334 1.69398 0
M  V30 7106 O 654.958 3.02863 2.79907 0
M  V30 7107 H 654.299 0.618577 0.241367 0
M  V30 7108 H 656.829 2.04207 0.126826 0
M  V30 7109 H 656.839 3.50567 2.08726 0
M  V30 7110 H 655.514 4.02238 1.05725 0
M  V30 7111 H 654.091 2.82056 2.43924 0
M  V30 7112 N 656.276 -0.40816 1.52223 0
M  V30 7113 C 657.522 -1.15673 1.66576 0
M  V30 7114 C 657.855 -1.90141 0.394996 0
M  V30 7115 O 657.13 -1.84798 -0.606613 0
M  V30 7116 C 657.413 -2.15042 2.88841 0
M  V30 7117 C 657.266 -1.44465 4.25969 0
M  V30 7118 C 658.585 -3.15699 3.0663 0
M  V30 7119 H 655.704 -0.41916 0.606196 0
M  V30 7120 H 658.346 -0.442348 1.84779 0
M  V30 7121 H 656.496 -2.75964 2.73452 0
M  V30 7122 H 658.168 -0.866544 4.53088 0
M  V30 7123 H 656.411 -0.746612 4.27327 0
M  V30 7124 H 657.082 -2.16976 5.07568 0
M  V30 7125 H 659.558 -2.64854 3.20923 0
M  V30 7126 H 658.434 -3.82491 3.9369 0
M  V30 7127 H 658.695 -3.83481 2.19987 0
M  V30 7128 N 657.755 -1.42862 -0.66545 0
M  V30 7129 C 658.665 -1.49491 -1.80803 0
M  V30 7130 C 659.681 -0.382914 -1.69734 0
M  V30 7131 O 660.857 -0.635223 -1.9112 0
M  V30 7132 C 657.922 -1.40383 -3.17007 0
M  V30 7133 C 656.983 -2.62152 -3.39963 0
M  V30 7134 C 656.216 -2.53469 -4.69669 0
M  V30 7135 O 656.439 -1.57568 -5.48205 0
M  V30 7136 O 655.373 -3.43763 -4.94075 0
M  V30 7137 H 659.199 -2.45949 -1.78165 0
M  V30 7138 H 656.784 -1.24728 -0.822387 0
M  V30 7139 H 658.666 -1.377 -3.98267 0
M  V30 7140 H 657.341 -0.470546 -3.20262 0
M  V30 7141 H 656.248 -2.70409 -2.58515 0
M  V30 7142 H 657.581 -3.54411 -3.41546 0
M  V30 7143 N 659.233 0.902656 -1.29189 0
M  V30 7144 C 660.458 1.69167 -1.19989 0
M  V30 7145 C 660.883 1.86607 0.236495 0
M  V30 7146 O 660.241 1.38425 1.17082 0
M  V30 7147 C 660.289 3.05532 -1.91527 0
M  V30 7148 O 659.393 3.93621 -1.2303 0
M  V30 7149 H 658.734 0.517584 -0.415936 0
M  V30 7150 H 661.264 1.12785 -1.70706 0
M  V30 7151 H 661.274 3.55693 -1.99866 0
M  V30 7152 H 659.949 2.92156 -2.96003 0
M  V30 7153 H 658.526 3.52055 -1.22928 0
M  V30 7154 N 660.711 1.11618 1.11262 0
M  V30 7155 C 661.621 0.78898 2.20935 0
M  V30 7156 C 662.637 -0.21867 1.7262 0
M  V30 7157 O 663.813 -0.0543826 2.01327 0
M  V30 7158 C 660.878 0.239014 3.45875 0
M  V30 7159 C 659.939 1.3055 4.08968 0
M  V30 7160 C 659.172 0.781687 5.27944 0
M  V30 7161 O 659.395 -0.387605 5.69082 0
M  V30 7162 O 658.329 1.54734 5.81671 0
M  V30 7163 H 662.155 1.70477 2.51339 0
M  V30 7164 H 659.74 0.892203 1.19834 0
M  V30 7165 H 661.622 -0.0632312 4.21353 0
M  V30 7166 H 660.297 -0.649454 3.17118 0
M  V30 7167 H 659.204 1.66079 3.35214 0
M  V30 7168 H 660.537 2.16743 4.41909 0
M  V30 7169 N 662.189 -1.289 0.906776 0
M  V30 7170 C 663.121 -2.26556 0.347159 0
M  V30 7171 C 664.134 -1.54589 -0.51049 0
M  V30 7172 O 665.323 -1.75489 -0.326501 0
M  V30 7173 C 662.423 -3.3484 -0.523024 0
M  V30 7174 C 661.596 -4.36296 0.310515 0
M  V30 7175 C 660.655 -5.23879 -0.493634 0
M  V30 7176 O 659.681 -5.69127 0.0913569 0
M  V30 7177 N 660.883 -5.51946 -1.7982 0
M  V30 7178 H 663.648 -2.75212 1.18652 0
M  V30 7179 H 661.209 -1.42309 0.771996 0
M  V30 7180 H 663.201 -3.90366 -1.06756 0
M  V30 7181 H 661.771 -2.85946 -1.26309 0
M  V30 7182 H 660.991 -3.80331 1.03644 0
M  V30 7183 H 662.279 -5.01113 0.881106 0
M  V30 7184 H 661.677 -5.17006 -2.2961 0
M  V30 7185 H 660.234 -6.10258 -2.28971 0
M  V30 7186 N 663.667 -0.670007 -1.42649 0
M  V30 7187 C 664.614 0.0112928 -2.30797 0
M  V30 7188 C 665.584 0.797627 -1.45695 0
M  V30 7189 O 666.769 0.770845 -1.74535 0
M  V30 7190 C 663.909 0.95998 -3.31479 0
M  V30 7191 C 663.022 0.167975 -4.31673 0
M  V30 7192 C 662.157 1.11198 -5.19431 0
M  V30 7193 C 661.196 0.311381 -6.11307 0
M  V30 7194 N 660.333 1.20784 -6.91633 0
M  V30 7195 H 665.173 -0.746231 -2.88505 0
M  V30 7196 H 662.71 -0.379739 -1.42114 0
M  V30 7197 H 664.668 1.52379 -3.88377 0
M  V30 7198 H 663.298 1.68419 -2.75382 0
M  V30 7199 H 662.35 -0.512385 -3.76933 0
M  V30 7200 H 663.662 -0.453814 -4.96731 0
M  V30 7201 H 662.816 1.74587 -5.81037 0
M  V30 7202 H 661.555 1.76766 -4.54538 0
M  V30 7203 H 660.56 -0.335758 -5.48774 0
M  V30 7204 H 661.785 -0.340135 -6.78248 0
M  V30 7205 H 659.731 1.85001 -6.29373 0
M  V30 7206 H 659.648 0.64102 -7.53277 0
M  V30 7207 H 660.916 1.82936 -7.5773 0
M  V30 7208 N 665.145 1.52092 -0.413018 0
M  V30 7209 C 666.055 2.30858 0.417318 0
M  V30 7210 C 667.071 1.38746 1.05003 0
M  V30 7211 O 668.247 1.71821 1.05069 0
M  V30 7212 C 665.312 3.11756 1.51687 0
M  V30 7213 C 664.373 4.19613 0.906825 0
M  V30 7214 C 663.606 4.96644 1.95399 0
M  V30 7215 O 663.829 4.7402 3.17271 0
M  V30 7216 O 662.763 5.81385 1.55805 0
M  V30 7217 H 666.589 3.02865 -0.225028 0
M  V30 7218 H 664.174 1.48358 -0.176126 0
M  V30 7219 H 666.056 3.62122 2.15512 0
M  V30 7220 H 664.731 2.42539 2.14375 0
M  V30 7221 H 663.638 3.73385 0.231183 0
M  V30 7222 H 664.971 4.91134 0.323814 0
M  V30 7223 N 666.623 0.143563 1.56945 0
M  V30 7224 C 667.533 -0.810562 2.20152 0
M  V30 7225 C 668.549 -1.27431 1.1848 0
M  V30 7226 O 669.725 -1.33221 1.51044 0
M  V30 7227 C 666.79 -2.03353 2.80799 0
M  V30 7228 C 665.851 -1.61936 3.97587 0
M  V30 7229 C 665.084 -2.78403 4.55332 0
M  V30 7230 O 665.307 -3.94521 4.11958 0
M  V30 7231 O 664.241 -2.54073 5.45647 0
M  V30 7232 H 668.067 -0.30253 3.02189 0
M  V30 7233 H 665.652 -0.0832925 1.49168 0
M  V30 7234 H 667.534 -2.74932 3.19359 0
M  V30 7235 H 666.209 -2.53116 2.01777 0
M  V30 7236 H 665.116 -0.873904 3.6375 0
M  V30 7237 H 666.449 -1.16892 4.78118 0
M  V30 7238 N 668.101 -1.57061 -0.130224 0
M  V30 7239 C 669.347 -1.85412 -0.836295 0
M  V30 7240 C 669.702 -0.729831 -1.7802 0
M  V30 7241 O 668.995 0.271021 -1.89673 0
M  V30 7242 C 669.189 -3.17878 -1.63365 0
M  V30 7243 C 669.018 -4.43086 -0.768453 0
M  V30 7244 C 667.788 -5.03488 -0.427598 0
M  V30 7245 C 669.986 -5.14219 -0.0911495 0
M  V30 7246 N 667.968 -6.12253 0.449439 0
M  V30 7247 C 669.339 -6.16632 0.645341 0
M  V30 7248 C 671.394 -4.97898 -0.0135625 0
M  V30 7249 C 670.097 -7.0449 1.45212 0
M  V30 7250 C 672.123 -5.86234 0.780001 0
M  V30 7251 C 671.485 -6.88141 1.50472 0
M  V30 7252 H 667.584 -0.728875 -0.283311 0
M  V30 7253 H 670.168 -1.9444 -0.100662 0
M  V30 7254 H 668.339 -3.09967 -2.3404 0
M  V30 7255 H 670.071 -3.34076 -2.28419 0
M  V30 7256 H 666.826 -4.67344 -0.767264 0
M  V30 7257 H 667.25 -6.71263 0.879476 0
M  V30 7258 H 671.892 -4.19082 -0.559511 0
M  V30 7259 H 669.61 -7.82722 2.00926 0
M  V30 7260 H 673.196 -5.75671 0.842246 0
M  V30 7261 H 672.076 -7.55311 2.1089 0
M  V30 7262 N 669.579 0.400081 -1.52437 0
M  V30 7263 C 670.856 1.15973 -1.57511 0
M  V30 7264 C 671.236 2.0798 -0.361572 0
M  V30 7265 O 670.584 2.19032 0.650929 0
M  V30 7266 C 670.794 1.92912 -2.90837 0
M  V30 7267 C 672.142 2.48662 -3.44169 0
M  V30 7268 O 673.166 2.03081 -2.92637 0
M  V30 7269 O 672.025 3.31894 -4.34176 0
M  V30 7270 H 669.119 0.530023 -0.634827 0
M  V30 7271 H 671.665 0.40613 -1.64769 0
M  V30 7272 H 670.437 1.25564 -3.70607 0
M  V30 7273 H 670.06 2.75257 -2.86913 0
M  V30 7274 N 671.057 1.43213 0.657864 0
M  V30 7275 C 672.004 1.48011 1.77092 0
M  V30 7276 C 672.974 0.330291 1.62783 0
M  V30 7277 O 674.159 0.536787 1.83094 0
M  V30 7278 C 671.299 1.40461 3.15222 0
M  V30 7279 C 670.412 2.65612 3.40697 0
M  V30 7280 C 669.547 2.50083 4.68649 0
M  V30 7281 C 668.586 3.70525 4.87214 0
M  V30 7282 N 667.723 3.53835 6.0642 0
M  V30 7283 H 672.563 2.43121 1.72326 0
M  V30 7284 H 670.1 1.20687 0.841013 0
M  V30 7285 H 672.058 1.34079 3.95068 0
M  V30 7286 H 670.688 0.489359 3.19069 0
M  V30 7287 H 669.74 2.82292 2.54982 0
M  V30 7288 H 671.052 3.5509 3.50303 0
M  V30 7289 H 670.206 2.41383 5.56614 0
M  V30 7290 H 668.945 1.58121 4.61356 0
M  V30 7291 H 667.95 3.79639 3.97686 0
M  V30 7292 H 669.175 4.63489 4.96341 0
M  V30 7293 H 667.121 2.64604 6.00267 0
M  V30 7294 H 667.038 4.36912 6.16963 0
M  V30 7295 H 668.306 3.48978 6.97019 0
M  V30 7296 N 672.536 -0.895792 1.29666 0
M  V30 7297 C 673.813 -1.62723 1.08538 0
M  V30 7298 C 674.193 -2.07848 -0.369119 0
M  V30 7299 O 673.541 -1.8372 -1.35864 0
M  V30 7300 C 673.751 -2.80505 2.07648 0
M  V30 7301 C 675.099 -3.51098 2.3878 0
M  V30 7302 O 676.123 -2.90679 2.05874 0
M  V30 7303 O 674.982 -4.60028 2.9502 0
M  V30 7304 H 672.076 -0.714692 0.416106 0
M  V30 7305 H 674.622 -0.943517 1.41053 0
M  V30 7306 H 673.394 -2.44386 3.05599 0
M  V30 7307 H 673.017 -3.5658 1.75887 0
M  V30 7308 N 674.014 -1.12206 -1.10668 0
M  V30 7309 C 675.26 -0.877172 -1.82848 0
M  V30 7310 C 675.593 0.595571 -1.84842 0
M  V30 7311 O 674.868 1.44013 -1.30731 0
M  V30 7312 C 675.151 -1.44957 -3.29635 0
M  V30 7313 C 675.004 -2.99051 -3.35989 0
M  V30 7314 C 676.323 -1.10714 -4.25946 0
M  V30 7315 H 673.442 -0.320103 -0.663854 0
M  V30 7316 H 676.084 -1.38827 -1.2972 0
M  V30 7317 H 674.234 -1.01488 -3.7501 0
M  V30 7318 H 675.906 -3.51182 -2.99113 0
M  V30 7319 H 674.149 -3.34705 -2.75962 0
M  V30 7320 H 674.82 -3.34194 -4.39339 0
M  V30 7321 H 677.296 -1.48254 -3.88793 0
M  V30 7322 H 676.172 -1.5343 -5.2702 0
M  V30 7323 H 676.433 -0.019 -4.42096 0
M  V30 7324 N 675.492 1.28418 -0.913599 0
M  V30 7325 C 676.455 2.25564 -0.406624 0
M  V30 7326 C 677.455 1.5387 0.466965 0
M  V30 7327 O 678.645 1.72094 0.270042 0
M  V30 7328 C 675.777 3.38339 0.417053 0
M  V30 7329 H 676.97 2.71926 -1.26477 0
M  V30 7330 H 674.523 1.40098 -0.692986 0
M  V30 7331 H 675.258 2.97339 1.29461 0
M  V30 7332 H 675.043 3.91542 -0.209102 0
M  V30 7333 H 676.533 4.10578 0.762602 0
M  V30 7334 N 676.97 0.677563 1.42291 0
M  V30 7335 C 678.386 0.347376 1.55774 0
M  V30 7336 C 678.586 -1.14703 1.65667 0
M  V30 7337 O 677.642 -1.93252 1.62512 0
M  V30 7338 C 678.955 1.08011 2.80631 0
M  V30 7339 C 680.503 1.06271 2.94407 0
M  V30 7340 C 680.978 1.77683 4.22129 0
M  V30 7341 N 682.469 1.74564 4.29047 0
M  V30 7342 C 683.204 2.26673 5.26694 0
M  V30 7343 N 682.7 2.87176 6.30477 0
M  V30 7344 N 684.493 2.17032 5.18511 0
M  V30 7345 H 676.644 1.64703 1.34114 0
M  V30 7346 H 678.907 0.694038 0.645768 0
M  V30 7347 H 678.613 2.13518 2.79469 0
M  V30 7348 H 678.487 0.647115 3.71608 0
M  V30 7349 H 680.874 0.0159658 2.95096 0
M  V30 7350 H 680.955 1.53461 2.04654 0
M  V30 7351 H 680.599 2.82327 4.22201 0
M  V30 7352 H 680.529 1.2794 5.10822 0
M  V30 7353 H 683.02 1.30436 3.54676 0
M  V30 7354 H 683.333 3.24551 7.01346 0
M  V30 7355 H 681.678 2.91247 6.31031 0
M  V30 7356 H 684.869 1.69451 4.36353 0
M  V30 7357 H 685.042 2.57948 5.94446 0
M  V30 7358 N 678.448 -1.51871 0.421078 0
M  V30 7359 C 679.395 -2.27334 -0.398508 0
M  V30 7360 C 680.365 -1.30241 -1.03085 0
M  V30 7361 O 681.55 -1.59121 -1.05285 0
M  V30 7362 C 678.69 -3.10664 -1.50272 0
M  V30 7363 C 677.803 -4.2273 -0.890122 0
M  V30 7364 C 676.938 -4.93399 -1.96803 0
M  V30 7365 C 675.977 -5.97409 -1.333 0
M  V30 7366 N 675.114 -6.61548 -2.35156 0
M  V30 7367 H 679.954 -2.96938 0.251411 0
M  V30 7368 H 677.491 -1.46472 0.135825 0
M  V30 7369 H 679.449 -3.57292 -2.15403 0
M  V30 7370 H 678.079 -2.43207 -2.1225 0
M  V30 7371 H 677.131 -3.80186 -0.127537 0
M  V30 7372 H 678.443 -4.97302 -0.386349 0
M  V30 7373 H 677.597 -5.43491 -2.69633 0
M  V30 7374 H 676.336 -4.18421 -2.50549 0
M  V30 7375 H 675.341 -5.46624 -0.59008 0
M  V30 7376 H 676.566 -6.74335 -0.803076 0
M  V30 7377 H 674.512 -5.89394 -2.88012 0
M  V30 7378 H 674.429 -7.31832 -1.89624 0
M  V30 7379 H 675.697 -7.16276 -3.0752 0
M  V30 7380 N 679.926 -0.151884 -1.56866 0
M  V30 7381 C 680.856 0.781943 -2.20018 0
M  V30 7382 C 681.837 1.25347 -1.14987 0
M  V30 7383 O 683.022 1.31015 -1.43348 0
M  V30 7384 C 680.152 2.01928 -2.82564 0
M  V30 7385 C 679.106 1.68434 -3.93464 0
M  V30 7386 C 678.432 2.99472 -4.42968 0
M  V30 7387 C 679.732 0.927244 -5.14003 0
M  V30 7388 H 681.426 0.255607 -2.98307 0
M  V30 7389 H 678.972 0.121502 -1.43486 0
M  V30 7390 H 680.925 2.67741 -3.25411 0
M  V30 7391 H 679.649 2.56943 -2.01614 0
M  V30 7392 H 678.308 1.04998 -3.51242 0
M  V30 7393 H 677.956 3.52488 -3.58834 0
M  V30 7394 H 677.656 2.77823 -5.17772 0
M  V30 7395 H 679.18 3.66348 -4.88489 0
M  V30 7396 H 680.594 1.48756 -5.53665 0
M  V30 7397 H 678.991 0.810513 -5.94601 0
M  V30 7398 H 680.061 -0.0801163 -4.84834 0
M  V30 7399 N 681.404 1.57128 0.121893 0
M  V30 7400 C 682.652 1.84335 0.828548 0
M  V30 7401 C 682.973 0.736632 1.80551 0
M  V30 7402 O 682.243 -0.23962 1.94429 0
M  V30 7403 H 680.823 0.680108 0.30897 0
M  V30 7404 H 683.485 1.9459 0.109906 0
M  V30 7405 H 682.581 2.80152 1.37554 0
M  V30 7406 N 682.882 -0.391992 1.52647 0
M  V30 7407 C 684.107 -1.16312 1.71716 0
M  V30 7408 C 684.532 -1.83042 0.433279 0
M  V30 7409 O 683.89 -1.70705 -0.610707 0
M  V30 7410 C 683.938 -2.18908 2.86551 0
M  V30 7411 O 683.042 -3.2543 2.53316 0
M  V30 7412 H 682.383 -0.338743 0.571095 0
M  V30 7413 H 684.913 -0.457202 1.99426 0
M  V30 7414 H 684.923 -2.62954 3.1196 0
M  V30 7415 H 683.598 -1.69726 3.79692 0
M  V30 7416 H 682.175 -2.86543 2.38637 0
M  V30 7417 N 684.36 -1.4356 -0.65026 0
M  V30 7418 C 685.588 -1.48779 -1.43779 0
M  V30 7419 C 686.003 -0.106593 -1.88499 0
M  V30 7420 O 685.36 0.883766 -1.59674 0
M  V30 7421 C 685.411 -2.43618 -2.67081 0
M  V30 7422 O 685.132 -3.76367 -2.24231 0
M  V30 7423 C 686.633 -2.5811 -3.60409 0
M  V30 7424 H 683.853 -0.50521 -0.441593 0
M  V30 7425 H 686.397 -1.88332 -0.796941 0
M  V30 7426 H 684.552 -2.07253 -3.273 0
M  V30 7427 H 684.966 -4.27394 -3.0403 0
M  V30 7428 H 686.44 -3.28539 -4.43583 0
M  V30 7429 H 686.917 -1.627 -4.07953 0
M  V30 7430 H 687.523 -2.95298 -3.0607 0
M  V30 7431 N 685.838 0.888903 -1.30139 0
M  V30 7432 C 687.066 1.67358 -1.21651 0
M  V30 7433 C 687.481 1.87499 0.221246 0
M  V30 7434 O 686.838 1.41969 1.14677 0
M  V30 7435 C 686.889 3.05213 -1.93719 0
M  V30 7436 O 686.61 2.85984 -3.31881 0
M  V30 7437 C 688.111 3.9964 -1.9184 0
M  V30 7438 H 685.331 0.522365 -0.42116 0
M  V30 7439 H 687.875 1.11086 -1.71698 0
M  V30 7440 H 686.03 3.5823 -1.4748 0
M  V30 7441 H 686.444 3.73411 -3.68327 0
M  V30 7442 H 687.918 4.93749 -2.46811 0
M  V30 7443 H 688.395 4.29955 -0.896409 0
M  V30 7444 H 689.001 3.52558 -2.37872 0
M  V30 7445 N 687.317 1.12792 1.10072 0
M  V30 7446 C 688.563 0.886857 1.82381 0
M  V30 7447 C 688.896 -0.58576 1.85155 0
M  V30 7448 O 688.171 -1.43317 1.31493 0
M  V30 7449 C 688.454 1.46703 3.28862 0
M  V30 7450 C 688.307 3.00829 3.34398 0
M  V30 7451 C 689.626 1.12971 4.25353 0
M  V30 7452 H 686.745 0.32362 0.662148 0
M  V30 7453 H 689.387 1.39513 1.28982 0
M  V30 7454 H 687.537 1.03476 3.74466 0
M  V30 7455 H 689.209 3.52764 2.97247 0
M  V30 7456 H 687.452 3.36164 2.74183 0
M  V30 7457 H 688.123 3.36519 4.3756 0
M  V30 7458 H 690.599 1.50313 3.88001 0
M  V30 7459 H 689.475 1.56223 5.26199 0
M  V30 7460 H 689.736 0.0424452 4.4208 0
M  V30 7461 N 688.795 -1.27931 0.920396 0
M  V30 7462 C 690.043 -1.94304 0.555906 0
M  V30 7463 C 690.364 -1.72753 -0.904519 0
M  V30 7464 O 689.634 -1.07104 -1.64029 0
M  V30 7465 H 688.214 -0.719001 0.202599 0
M  V30 7466 H 690.876 -1.55785 1.1712 0
M  V30 7467 H 689.972 -3.02806 0.755981 0
M  V30 7468 N 690.273 -0.685099 -1.4193 0
M  V30 7469 C 691.498 -0.218842 -2.06242 0
M  V30 7470 C 691.923 1.11923 -1.51178 0
M  V30 7471 O 691.281 1.69837 -0.634446 0
M  V30 7472 C 691.329 -0.175592 -3.60172 0
M  V30 7473 O 690.433 0.852776 -4.03487 0
M  V30 7474 H 689.774 -0.109531 -0.654904 0
M  V30 7475 H 692.304 -0.937013 -1.81882 0
M  V30 7476 H 692.314 -0.00291151 -4.08 0
M  V30 7477 H 690.989 -1.15222 -3.99621 0
M  V30 7478 H 689.566 0.650301 -3.67186 0
M  V30 7479 N 691.751 1.51645 -0.429126 0
M  V30 7480 C 692.698 2.27542 0.386446 0
M  V30 7481 C 693.668 1.30786 1.02393 0
M  V30 7482 O 694.853 1.59678 1.0444 0
M  V30 7483 C 691.993 3.11457 1.48623 0
M  V30 7484 C 691.106 4.23196 0.867691 0
M  V30 7485 C 690.241 4.94435 1.94183 0
M  V30 7486 C 689.28 5.98108 1.30129 0
M  V30 7487 N 688.417 6.62786 2.31644 0
M  V30 7488 H 693.257 2.968 -0.267155 0
M  V30 7489 H 690.794 1.46397 -0.143591 0
M  V30 7490 H 692.752 3.58429 2.13506 0
M  V30 7491 H 691.382 2.44329 2.10957 0
M  V30 7492 H 690.434 3.80248 0.107373 0
M  V30 7493 H 691.746 4.97499 0.35997 0
M  V30 7494 H 690.9 5.44914 2.66747 0
M  V30 7495 H 689.639 4.19744 2.48326 0
M  V30 7496 H 688.644 5.4693 0.561082 0
M  V30 7497 H 689.869 6.74751 0.767303 0
M  V30 7498 H 687.815 5.90913 2.84883 0
M  V30 7499 H 687.732 7.32828 1.85741 0
M  V30 7500 H 689 7.17897 3.03717 0
M  V30 7501 N 693.229 0.160201 1.56784 0
M  V30 7502 C 694.454 -0.497373 2.01348 0
M  V30 7503 C 694.879 -1.56757 1.03966 0
M  V30 7504 O 694.237 -1.81292 0.0174455 0
M  V30 7505 C 694.285 -1.0628 3.44582 0
M  V30 7506 O 693.389 -2.17723 3.50244 0
M  V30 7507 H 692.73 -0.120295 0.653012 0
M  V30 7508 H 695.26 0.260821 2.02931 0
M  V30 7509 H 695.27 -1.38819 3.83658 0
M  V30 7510 H 693.945 -0.279166 4.14962 0
M  V30 7511 H 692.522 -1.86313 3.2302 0
M  V30 7512 N 694.707 -1.5719 -0.113559 0
M  V30 7513 C 695.617 -2.04041 -1.15777 0
M  V30 7514 C 696.633 -0.961812 -1.45001 0
M  V30 7515 O 697.809 -1.2737 -1.56009 0
M  V30 7516 C 694.874 -2.43994 -2.46308 0
M  V30 7517 C 693.935 -3.65962 -2.24433 0
M  V30 7518 C 693.168 -4.04 -3.4874 0
M  V30 7519 O 693.391 -3.42321 -4.56259 0
M  V30 7520 O 692.325 -4.97069 -3.3942 0
M  V30 7521 H 696.151 -2.93248 -0.789899 0
M  V30 7522 H 693.736 -1.45828 -0.324748 0
M  V30 7523 H 695.618 -2.70401 -3.23204 0
M  V30 7524 H 694.293 -1.57932 -2.82558 0
M  V30 7525 H 693.2 -3.44697 -1.45377 0
M  V30 7526 H 694.533 -4.52746 -1.93084 0
M  V30 7527 N 696.185 0.383891 -1.52853 0
M  V30 7528 C 697.118 1.49105 -1.72751 0
M  V30 7529 C 698.096 1.52077 -0.575438 0
M  V30 7530 O 699.28 1.70406 -0.805854 0
M  V30 7531 C 696.407 2.87551 -1.78975 0
M  V30 7532 C 695.453 3.02383 -3.00777 0
M  V30 7533 S 696.286 2.73048 -4.60657 0
M  V30 7534 C 697.442 4.13678 -4.69704 0
M  V30 7535 H 697.675 1.32002 -2.66388 0
M  V30 7536 H 695.208 0.577088 -1.4321 0
M  V30 7537 H 697.166 3.6733 -1.83246 0
M  V30 7538 H 695.827 3.01977 -0.864215 0
M  V30 7539 H 695.02 4.03733 -3.01688 0
M  V30 7540 H 694.622 2.30504 -2.94523 0
M  V30 7541 H 696.914 5.07676 -4.48633 0
M  V30 7542 H 697.857 4.1778 -5.71721 0
M  V30 7543 H 698.265 3.99825 -3.98497 0
M  V30 7544 N 697.663 1.43903 0.642637 0
M  V30 7545 C 698.891 1.4954 1.42988 0
M  V30 7546 C 699.306 0.116588 1.8844 0
M  V30 7547 O 698.663 -0.875285 1.60141 0
M  V30 7548 C 698.714 2.45031 2.65785 0
M  V30 7549 O 698.435 3.77551 2.22232 0
M  V30 7550 C 699.936 2.60017 3.59035 0
M  V30 7551 H 697.156 0.507544 0.438907 0
M  V30 7552 H 699.7 1.88752 0.786942 0
M  V30 7553 H 697.855 2.08985 3.26196 0
M  V30 7554 H 698.269 4.29001 3.01759 0
M  V30 7555 H 699.743 3.30887 4.41835 0
M  V30 7556 H 700.22 1.64861 4.07084 0
M  V30 7557 H 700.826 2.96918 3.045 0
M  V30 7558 N 699.141 -0.881989 1.30609 0
M  V30 7559 C 700.104 -1.96957 1.1722 0
M  V30 7560 C 701.104 -1.60472 0.102598 0
M  V30 7561 O 702.294 -1.70628 0.350943 0
M  V30 7562 C 699.426 -3.31463 0.796572 0
M  V30 7563 H 700.619 -2.10262 2.13846 0
M  V30 7564 H 698.172 -1.06877 1.14048 0
M  V30 7565 H 698.907 -3.23859 -0.169053 0
M  V30 7566 H 698.692 -3.59314 1.56959 0
M  V30 7567 H 700.182 -4.11233 0.72645 0
M  V30 7568 N 700.619 -1.13374 -1.09472 0
M  V30 7569 C 701.844 -0.918711 -1.85942 0
M  V30 7570 C 702.269 0.527225 -1.8056 0
M  V30 7571 O 701.627 1.37408 -1.18274 0
M  V30 7572 C 701.675 -1.41056 -3.31867 0
M  V30 7573 O 700.779 -0.595496 -4.08078 0
M  V30 7574 H 700.12 -0.329297 -0.576593 0
M  V30 7575 H 702.65 -1.50829 -1.38245 0
M  V30 7576 H 702.66 -1.41398 -3.82715 0
M  V30 7577 H 701.335 -2.46335 -3.35099 0
M  V30 7578 H 699.912 -0.659911 -3.67014 0
M  V30 7579 N 702.098 1.27442 -0.927168 0
M  V30 7580 C 703.509 1.76385 -0.611979 0
M  V30 7581 C 703.86 1.75715 0.872853 0
M  V30 7582 O 702.985 1.3603 1.683 0
M  V30 7583 C 703.58 3.20303 -1.10414 0
M  V30 7584 C 702.139 3.66916 -0.839628 0
M  V30 7585 C 701.286 2.46859 -1.26317 0
M  V30 7586 H 704.237 1.13716 -1.107 0
M  V30 7587 H 704.258 3.77811 -0.451578 0
M  V30 7588 H 703.77 3.20759 -2.18484 0
M  V30 7589 H 701.871 3.71906 0.227292 0
M  V30 7590 H 701.984 4.56415 -1.45679 0
M  V30 7591 H 700.348 2.45407 -0.681723 0
M  V30 7592 H 701.131 2.50025 -2.3525 0
M  V30 7593 N 703.576 0.692616 1.41565 0
M  V30 7594 C 704.506 0.0397325 2.33466 0
M  V30 7595 C 705.487 -0.770334 1.51657 0
M  V30 7596 O 706.672 -0.723903 1.80203 0
M  V30 7597 C 703.802 -0.899495 3.3545 0
M  V30 7598 C 702.756 -0.196738 4.27548 0
M  V30 7599 C 702.082 -1.25012 5.19881 0
M  V30 7600 C 703.382 0.935158 5.1386 0
M  V30 7601 H 705.076 0.807296 2.88311 0
M  V30 7602 H 702.622 0.389665 1.38628 0
M  V30 7603 H 704.575 -1.36545 3.98665 0
M  V30 7604 H 703.299 -1.69869 2.78948 0
M  V30 7605 H 701.958 0.249158 3.65752 0
M  V30 7606 H 701.606 -2.04177 4.59696 0
M  V30 7607 H 701.306 -0.784931 5.82334 0
M  V30 7608 H 702.83 -1.71665 5.85972 0
M  V30 7609 H 704.244 0.549619 5.70659 0
M  V30 7610 H 702.641 1.32726 5.85238 0
M  V30 7611 H 703.711 1.77613 4.512 0
M  V30 7612 N 705.054 -1.51416 0.437162 0
M  V30 7613 C 706.3 -2.02386 -0.129555 0
M  V30 7614 C 706.633 -1.32071 -1.42376 0
M  V30 7615 O 705.908 -0.43559 -1.8956 0
M  V30 7616 C 706.191 -3.5841 -0.348487 0
M  V30 7617 C 706.044 -4.39341 0.964352 0
M  V30 7618 C 707.363 -4.25654 -1.11834 0
M  V30 7619 H 704.482 -0.735587 -0.0456109 0
M  V30 7620 H 707.124 -1.81055 0.576124 0
M  V30 7621 H 705.274 -3.76716 -0.949592 0
M  V30 7622 H 706.946 -4.32685 1.59942 0
M  V30 7623 H 705.189 -4.04432 1.56898 0
M  V30 7624 H 705.86 -5.4667 0.765212 0
M  V30 7625 H 708.336 -4.11617 -0.609165 0
M  V30 7626 H 707.212 -5.34704 -1.24029 0
M  V30 7627 H 707.473 -3.86502 -2.14636 0
M  V30 7628 N 706.532 -0.168513 -1.56696 0
M  V30 7629 C 707.78 0.476216 -1.96409 0
M  V30 7630 C 708.101 1.63968 -1.05544 0
M  V30 7631 O 707.371 1.95525 -0.121235 0
M  V30 7632 H 705.951 0.178921 -0.725256 0
M  V30 7633 H 708.613 -0.249042 -1.93302 0
M  V30 7634 H 707.709 0.838094 -3.00637 0
M  V30 7635 N 708.01 1.57248 0.105221 0
M  V30 7636 C 709.421 1.74612 0.660865 0
M  V30 7637 C 709.772 0.789231 1.79626 0
M  V30 7638 O 708.897 -0.0346611 2.16372 0
M  V30 7639 C 709.492 3.16624 1.20559 0
M  V30 7640 C 708.051 3.35447 1.7074 0
M  V30 7641 C 707.198 2.70445 0.612764 0
M  V30 7642 H 710.149 1.5824 -0.12079 0
M  V30 7643 H 710.17 3.18937 2.07508 0
M  V30 7644 H 709.682 3.86245 0.379012 0
M  V30 7645 H 707.783 2.7089 2.5583 0
M  V30 7646 H 707.896 4.43702 1.80736 0
M  V30 7647 H 706.26 2.32061 1.04975 0
M  V30 7648 H 707.043 3.42699 -0.203066 0
M  V30 7649 N 709.488 -0.375779 1.53054 0
M  V30 7650 C 710.398 -1.48381 1.81715 0
M  V30 7651 C 711.414 -1.59087 0.704795 0
M  V30 7652 O 712.59 -1.75174 0.993785 0
M  V30 7653 C 709.655 -2.83767 1.99192 0
M  V30 7654 C 708.716 -2.82673 3.23102 0
M  V30 7655 C 707.949 -4.11601 3.39736 0
M  V30 7656 O 708.172 -5.07243 2.60885 0
M  V30 7657 O 707.106 -4.18034 4.33049 0
M  V30 7658 H 710.932 -1.27089 2.7583 0
M  V30 7659 H 708.517 -0.564902 1.38308 0
M  V30 7660 H 710.399 -3.64004 2.12318 0
M  V30 7661 H 709.074 -3.05057 1.08267 0
M  V30 7662 H 707.981 -2.0117 3.15407 0
M  V30 7663 H 709.314 -2.66335 4.13916 0
M  V30 7664 N 710.966 -1.44241 -0.634997 0
M  V30 7665 C 712.382 -1.28043 -0.952742 0
M  V30 7666 C 712.582 -0.21338 -2.00367 0
M  V30 7667 O 711.638 0.402042 -2.49279 0
M  V30 7668 C 712.951 -2.65076 -1.41968 0
M  V30 7669 C 714.499 -2.72755 -1.53537 0
M  V30 7670 C 714.974 -4.10249 -2.03616 0
M  V30 7671 N 716.465 -4.12406 -2.10892 0
M  V30 7672 C 717.2 -5.15641 -2.50803 0
M  V30 7673 N 716.696 -6.29239 -2.89879 0
M  V30 7674 N 718.489 -5.02995 -2.50903 0
M  V30 7675 H 710.64 -2.12315 0.060098 0
M  V30 7676 H 712.903 -0.947326 -0.0357325 0
M  V30 7677 H 712.609 -3.44213 -0.721804 0
M  V30 7678 H 712.483 -2.91704 -2.39141 0
M  V30 7679 H 714.87 -1.93939 -2.22422 0
M  V30 7680 H 714.951 -2.49872 -0.547496 0
M  V30 7681 H 714.595 -4.8954 -1.35327 0
M  V30 7682 H 714.525 -4.30507 -3.03268 0
M  V30 7683 H 717.016 -3.30417 -1.83393 0
M  V30 7684 H 717.329 -7.03827 -3.19135 0
M  V30 7685 H 715.674 -6.32683 -2.8764 0
M  V30 7686 H 718.865 -4.13306 -2.19763 0
M  V30 7687 H 719.038 -5.83574 -2.81683 0
M  V30 7688 N 712.444 0.87505 -1.31075 0
M  V30 7689 C 713.391 1.98178 -1.18296 0
M  V30 7690 C 714.361 1.65952 -0.0699923 0
M  V30 7691 O 715.546 1.8926 -0.241951 0
M  V30 7692 C 712.686 3.33399 -0.891024 0
M  V30 7693 C 711.799 3.78253 -2.08684 0
M  V30 7694 C 710.934 5.02166 -1.73212 0
M  V30 7695 C 709.973 5.39455 -2.89231 0
M  V30 7696 N 709.11 6.54549 -2.53989 0
M  V30 7697 H 713.95 2.0844 -2.12971 0
M  V30 7698 H 711.487 1.02047 -1.05948 0
M  V30 7699 H 713.445 4.11246 -0.702338 0
M  V30 7700 H 712.075 3.22794 0.0188799 0
M  V30 7701 H 711.127 2.9623 -2.38646 0
M  V30 7702 H 712.439 4.01821 -2.95536 0
M  V30 7703 H 711.593 5.87666 -1.50777 0
M  V30 7704 H 710.332 4.80491 -0.83544 0
M  V30 7705 H 709.337 4.52477 -3.12321 0
M  V30 7706 H 710.562 5.63098 -3.79601 0
M  V30 7707 H 708.508 6.3443 -1.66838 0
M  V30 7708 H 708.425 6.78035 -3.34372 0
M  V30 7709 H 709.693 7.43254 -2.34934 0
M  V30 7710 N 713.922 1.13953 1.08869 0
M  V30 7711 C 714.869 0.82213 2.15661 0
M  V30 7712 C 715.839 -0.218274 1.6466 0
M  V30 7713 O 717.024 -0.0892475 1.90591 0
M  V30 7714 C 714.164 0.300572 3.43789 0
M  V30 7715 C 713.277 1.40071 4.08661 0
M  V30 7716 C 712.412 0.836897 5.24566 0
M  V30 7717 C 711.451 1.91504 5.81371 0
M  V30 7718 N 710.588 1.36875 6.88629 0
M  V30 7719 H 715.428 1.73683 2.42153 0
M  V30 7720 H 712.965 0.866879 1.18843 0
M  V30 7721 H 714.923 -0.0199943 4.17195 0
M  V30 7722 H 713.553 -0.577248 3.17597 0
M  V30 7723 H 712.605 1.83776 3.33062 0
M  V30 7724 H 713.917 2.21534 4.46905 0
M  V30 7725 H 713.071 0.467953 6.04893 0
M  V30 7726 H 711.81 -0.00874207 4.87699 0
M  V30 7727 H 710.815 2.29299 4.99702 0
M  V30 7728 H 712.04 2.76419 6.20298 0
M  V30 7729 H 709.986 0.545211 6.5373 0
M  V30 7730 H 709.903 2.1198 7.25672 0
M  V30 7731 H 711.171 1.02756 7.72698 0
M  V30 7732 N 715.4 -1.26948 0.933913 0
M  V30 7733 C 716.625 -1.98724 0.593589 0
M  V30 7734 C 717.05 -1.6915 -0.822801 0
M  V30 7735 O 716.408 -0.93533 -1.5531 0
M  V30 7736 C 716.456 -3.50834 0.833542 0
M  V30 7737 O 715.56 -4.12284 -0.0978788 0
M  V30 7738 H 714.901 -0.623683 0.227849 0
M  V30 7739 H 717.431 -1.61599 1.25486 0
M  V30 7740 H 717.441 -4.01018 0.75156 0
M  V30 7741 H 716.116 -3.71691 1.86597 0
M  V30 7742 H 714.693 -3.72884 0.0345443 0
M  V30 7743 N 716.879 -0.700114 -1.41195 0
M  V30 7744 C 718.104 -0.240704 -2.05998 0
M  V30 7745 C 718.529 1.10313 -1.52357 0
M  V30 7746 O 717.887 1.69154 -0.652424 0
M  V30 7747 C 717.935 -0.213783 -3.59966 0
M  V30 7748 O 717.039 0.809933 -4.04368 0
M  V30 7749 H 716.38 -0.116471 -0.653705 0
M  V30 7750 H 718.91 -0.956251 -1.80878 0
M  V30 7751 H 718.92 -0.0461852 -4.07974 0
M  V30 7752 H 717.595 -1.19454 -3.98376 0
M  V30 7753 H 716.172 0.611319 -3.67855 0
M  V30 7754 N 718.357 1.51182 -0.445186 0
M  V30 7755 C 719.585 2.06568 0.117091 0
M  V30 7756 C 720 1.31182 1.35781 0
M  V30 7757 O 719.357 0.373605 1.78635 0
M  V30 7758 C 719.408 3.58917 0.431408 0
M  V30 7759 O 719.129 4.31456 -0.760078 0
M  V30 7760 C 720.63 4.30843 1.0435 0
M  V30 7761 H 717.85 0.670985 0.00444436 0
M  V30 7762 H 720.394 1.94666 -0.626525 0
M  V30 7763 H 718.549 3.70708 1.12493 0
M  V30 7764 H 718.963 5.22215 -0.489048 0
M  V30 7765 H 720.437 5.38499 1.21337 0
M  V30 7766 H 720.914 3.89644 2.02667 0
M  V30 7767 H 721.52 4.23516 0.38913 0
M  V30 7768 N 719.835 0.176821 1.56605 0
M  V30 7769 C 721.084 -0.466833 1.96223 0
M  V30 7770 C 721.397 -1.64015 1.06576 0
M  V30 7771 O 722.603 -2.3504 1.35898 0
M  V30 7772 C 721.059 -0.881921 3.48927 0
M  V30 7773 C 720.667 0.266102 4.47209 0
M  V30 7774 C 722.411 -1.49368 3.97353 0
M  V30 7775 C 720.318 -0.168923 5.91159 0
M  V30 7776 H 719.248 -0.178178 0.732645 0
M  V30 7777 H 721.899 0.265929 1.81563 0
M  V30 7778 H 720.281 -1.67082 3.59026 0
M  V30 7779 H 721.455 1.04349 4.4883 0
M  V30 7780 H 719.77 0.788178 4.08872 0
M  V30 7781 H 722.367 -1.8313 5.02362 0
M  V30 7782 H 722.71 -2.3936 3.40606 0
M  V30 7783 H 723.243 -0.769114 3.90294 0
M  V30 7784 H 719.982 0.696351 6.51791 0
M  V30 7785 H 719.502 -0.911552 5.92833 0
M  V30 7786 H 721.181 -0.610938 6.44109 0
M  V30 7787 N 721.313 -1.57302 -0.09688 0
M  V30 7788 C 722.724 -1.7496 -0.651595 0
M  V30 7789 C 723.075 -0.798746 -1.79205 0
M  V30 7790 O 722.2 0.0231858 -2.16388 0
M  V30 7791 C 722.795 -3.17259 -1.18878 0
M  V30 7792 C 721.354 -3.36348 -1.68958 0
M  V30 7793 C 720.501 -2.70766 -0.598413 0
M  V30 7794 H 723.452 -1.58173 0.12918 0
M  V30 7795 H 723.473 -3.20033 -2.05814 0
M  V30 7796 H 722.985 -3.8644 -0.358523 0
M  V30 7797 H 721.086 -2.72243 -2.5439 0
M  V30 7798 H 721.199 -4.44654 -1.7838 0
M  V30 7799 H 719.563 -2.32615 -1.03743 0
M  V30 7800 H 720.346 -3.42586 0.221238 0
M  V30 7801 N 722.791 0.367657 -1.53252 0
M  V30 7802 C 724.016 1.13566 -1.73544 0
M  V30 7803 C 724.441 1.82329 -0.462344 0
M  V30 7804 O 723.799 1.71655 0.583472 0
M  V30 7805 C 723.847 2.14322 -2.89997 0
M  V30 7806 O 722.951 3.21359 -2.58461 0
M  V30 7807 H 722.292 0.329614 -0.576412 0
M  V30 7808 H 724.822 0.425417 -2.00128 0
M  V30 7809 H 724.832 2.57958 -3.16104 0
M  V30 7810 H 723.507 1.63664 -3.82344 0
M  V30 7811 H 722.084 2.8271 -2.43165 0
M  V30 7812 N 724.269 1.44576 0.627338 0
M  V30 7813 C 725.217 1.52039 1.76031 0
M  V30 7814 C 726.211 0.391796 1.64807 0
M  V30 7815 O 727.417 0.5669 1.7084 0
M  V30 7816 H 723.792 0.477165 0.581221 0
M  V30 7817 H 725.763 2.47387 1.6686 0
M  V30 7818 C 724.512 1.48539 3.14375 0
M  V30 7819 H 723.835 2.34699 3.23661 0
M  V30 7820 H 725.275 1.57821 3.93534 0
M  V30 7821 C 723.734 0.20672 3.36265 0
M  V30 7822 O 724.264 -0.72154 3.95167 0
M  V30 7823 N 722.47 0.108654 2.90397 0
M  V30 7824 H 722.017 0.864884 2.42647 0
M  V30 7825 H 721.975 -0.746121 3.05418 0
M  V30 7826 N 725.747 -0.868086 1.31537 0
M  V30 7827 C 726.695 -1.99688 1.1928 0
M  V30 7828 C 727.689 -1.69101 0.100656 0
M  V30 7829 O 728.895 -1.78073 0.262677 0
M  V30 7830 H 725.27 -0.655032 0.369374 0
M  V30 7831 H 727.241 -2.07157 2.14776 0
M  V30 7832 C 725.99 -3.35338 0.918892 0
M  V30 7833 H 725.313 -3.59396 1.75142 0
M  V30 7834 H 726.753 -4.14909 0.873311 0
M  V30 7835 C 725.212 -3.34769 -0.378366 0
M  V30 7836 O 725.742 -3.76716 -1.39456 0
M  V30 7837 N 723.948 -2.87895 -0.39557 0
M  V30 7838 H 723.495 -2.53954 0.431889 0
M  V30 7839 H 723.453 -2.87897 -1.26344 0
M  V30 7840 N 727.225 -1.14528 -1.08264 0
M  V30 7841 C 728.471 -0.91576 -1.80947 0
M  V30 7842 C 728.804 0.55623 -1.86064 0
M  V30 7843 O 728.079 1.41207 -1.33756 0
M  V30 7844 C 728.362 -1.51917 -3.26486 0
M  V30 7845 C 728.215 -3.06111 -3.2957 0
M  V30 7846 C 729.534 -1.19724 -4.23502 0
M  V30 7847 H 726.653 -0.334113 -0.656915 0
M  V30 7848 H 729.295 -1.41547 -1.26746 0
M  V30 7849 H 727.445 -1.0942 -3.72773 0
M  V30 7850 H 729.117 -3.57448 -2.91597 0
M  V30 7851 H 727.36 -3.40483 -2.688 0
M  V30 7852 H 728.031 -3.43438 -4.32151 0
M  V30 7853 H 730.507 -1.56467 -3.85561 0
M  V30 7854 H 729.383 -1.64575 -5.23647 0
M  V30 7855 H 729.644 -0.112771 -4.41956 0
M  V30 7856 N 728.703 1.26451 -0.940633 0
M  V30 7857 C 729.933 1.97581 -0.603766 0
M  V30 7858 C 730.341 1.70246 0.825395 0
M  V30 7859 O 729.684 0.967001 1.56188 0
M  V30 7860 C 729.746 3.51256 -0.765463 0
M  V30 7861 C 729.41 4.0224 -2.16915 0
M  V30 7862 C 730.407 4.1402 -3.14457 0
M  V30 7863 C 728.092 4.36263 -2.48958 0
M  V30 7864 C 730.086 4.59117 -4.42143 0
M  V30 7865 C 727.773 4.81048 -3.76877 0
M  V30 7866 C 728.771 4.92436 -4.73282 0
M  V30 7867 O 728.459 5.36234 -5.98923 0
M  V30 7868 H 728.191 0.636948 -0.226436 0
M  V30 7869 H 730.745 1.61941 -1.2635 0
M  V30 7870 H 728.975 3.86669 -0.0485956 0
M  V30 7871 H 730.664 4.03597 -0.431738 0
M  V30 7872 H 731.43 3.87981 -2.91026 0
M  V30 7873 H 727.309 4.26634 -1.74656 0
M  V30 7874 H 730.853 4.6792 -5.17394 0
M  V30 7875 H 726.75 5.06531 -4.00121 0
M  V30 7876 H 727.518 5.54456 -6.02097 0
M  V30 7877 N 730.181 0.707592 1.40822 0
M  V30 7878 C 731.406 0.251626 2.05868 0
M  V30 7879 C 731.831 -1.09503 1.5294 0
M  V30 7880 O 731.189 -1.68806 0.661385 0
M  V30 7881 C 731.237 0.23287 3.59847 0
M  V30 7882 O 730.341 -0.788477 4.04792 0
M  V30 7883 H 729.682 0.119936 0.653078 0
M  V30 7884 H 732.212 0.96583 1.80369 0
M  V30 7885 H 732.222 0.0678204 4.07944 0
M  V30 7886 H 730.897 1.21565 3.97737 0
M  V30 7887 H 729.474 -0.591802 3.68174 0
M  V30 7888 N 731.66 -1.50943 0.453197 0
M  V30 7889 C 732.908 -2.01813 -0.107709 0
M  V30 7890 C 733.229 -1.33841 -1.41816 0
M  V30 7891 O 732.499 -0.477973 -1.8998 0
M  V30 7892 H 731.079 -0.745773 -0.0427948 0
M  V30 7893 H 733.741 -1.8545 0.599531 0
M  V30 7894 H 732.837 -3.10911 -0.27218 0
M  V30 7895 N 733.138 -0.185124 -1.56509 0
M  V30 7896 C 734.386 0.455357 -1.96903 0
M  V30 7897 C 734.707 1.62839 -1.07277 0
M  V30 7898 O 733.977 1.95385 -0.141966 0
M  V30 7899 H 732.557 0.171218 -0.727113 0
M  V30 7900 H 735.219 -0.26953 -1.93027 0
M  V30 7901 H 734.315 0.80616 -3.01509 0
M  V30 7902 N 734.616 1.57351 0.0885366 0
M  V30 7903 C 735.841 1.91011 0.80805 0
M  V30 7904 C 736.266 0.780009 1.71165 0
M  V30 7905 O 735.624 -0.268083 1.79307 0
M  V30 7906 C 735.672 3.23562 1.59185 0
M  V30 7907 O 734.776 3.11615 2.7013 0
M  V30 7908 H 734.117 0.625943 0.221565 0
M  V30 7909 H 736.647 2.04507 0.0617954 0
M  V30 7910 H 736.657 3.5703 1.97468 0
M  V30 7911 H 735.332 4.05398 0.928741 0
M  V30 7912 H 733.909 2.89673 2.34827 0
M  V30 7913 N 736.094 -0.359525 1.53444 0
M  V30 7914 C 737.027 -1.46338 1.75101 0
M  V30 7915 C 738.005 -1.51142 0.599559 0
M  V30 7916 O 739.189 -1.69102 0.832862 0
M  V30 7917 C 736.316 -2.84667 1.83527 0
M  V30 7918 C 735.362 -2.9756 3.05549 0
M  V30 7919 S 736.195 -2.65685 4.64943 0
M  V30 7920 C 737.351 -4.06153 4.76225 0
M  V30 7921 H 737.584 -1.27747 2.68455 0
M  V30 7922 H 735.117 -0.554231 1.4411 0
M  V30 7923 H 737.075 -3.64368 1.89067 0
M  V30 7924 H 735.736 -3.00564 0.912147 0
M  V30 7925 H 734.929 -3.98883 3.08072 0
M  V30 7926 H 734.531 -2.25789 2.98153 0
M  V30 7927 H 736.823 -5.00475 4.56652 0
M  V30 7928 H 737.766 -4.08632 5.78295 0
M  V30 7929 H 738.174 -3.93435 4.04808 0
M  V30 7930 N 737.572 -1.44907 -0.619662 0
M  V30 7931 C 738.535 -1.52282 -1.71297 0
M  V30 7932 C 739.535 -0.40359 -1.55653 0
M  V30 7933 O 740.725 -0.666638 -1.6094 0
M  V30 7934 C 737.857 -1.40778 -3.10474 0
M  V30 7935 H 739.05 -2.49683 -1.66128 0
M  V30 7936 H 736.603 -1.32168 -0.834339 0
M  V30 7937 H 737.338 -0.445156 -3.2123 0
M  V30 7938 H 737.123 -2.21947 -3.23237 0
M  V30 7939 H 738.613 -1.48946 -3.90135 0
M  V30 7940 N 739.05 0.861098 -1.31996 0
M  V30 7941 C 740.466 1.14827 -1.10846 0
M  V30 7942 C 740.666 2.0117 0.11528 0
M  V30 7943 O 739.722 2.39423 0.802048 0
M  V30 7944 C 741.035 1.83183 -2.38462 0
M  V30 7945 C 742.583 1.95847 -2.44158 0
M  V30 7946 C 743.058 2.67617 -3.71679 0
M  V30 7947 N 744.549 2.75147 -3.72624 0
M  V30 7948 C 745.284 3.31314 -4.67994 0
M  V30 7949 N 744.78 3.88343 -5.73726 0
M  V30 7950 N 746.573 3.29356 -4.55501 0
M  V30 7951 H 738.724 0.285951 -2.10466 0
M  V30 7952 H 740.987 0.189303 -0.928907 0
M  V30 7953 H 740.693 1.27193 -3.27895 0
M  V30 7954 H 740.567 2.83393 -2.48935 0
M  V30 7955 H 742.954 2.50999 -1.55189 0
M  V30 7956 H 743.035 0.94653 -2.37644 0
M  V30 7957 H 742.679 2.13131 -4.61018 0
M  V30 7958 H 742.609 3.69237 -3.75462 0
M  V30 7959 H 745.1 2.34682 -2.96197 0
M  V30 7960 H 745.413 4.29338 -6.42564 0
M  V30 7961 H 743.758 3.86693 -5.77489 0
M  V30 7962 H 746.949 2.84047 -3.72069 0
M  V30 7963 H 747.122 3.7283 -5.30001 0
M  V30 7964 N 740.528 1.15101 1.07655 0
M  V30 7965 C 741.944 0.893004 1.32279 0
M  V30 7966 C 742.144 -0.461701 1.96139 0
M  V30 7967 O 741.2 -1.20431 2.21929 0
M  V30 7968 C 742.513 2.03161 2.21689 0
M  V30 7969 C 744.061 2.06579 2.35147 0
M  V30 7970 C 744.536 3.19754 3.27905 0
M  V30 7971 N 746.027 3.19382 3.35484 0
M  V30 7972 C 746.762 4.03592 4.07309 0
M  V30 7973 N 746.258 4.97859 4.81776 0
M  V30 7974 N 748.051 3.91626 4.03219 0
M  V30 7975 H 740.202 2.02341 0.645886 0
M  V30 7976 H 742.465 0.882127 0.347211 0
M  V30 7977 H 742.171 3.00934 1.82021 0
M  V30 7978 H 742.045 1.96132 3.22199 0
M  V30 7979 H 744.432 1.09408 2.74069 0
M  V30 7980 H 744.513 2.17676 1.34353 0
M  V30 7981 H 744.157 4.17175 2.89702 0
M  V30 7982 H 744.087 3.05893 4.28645 0
M  V30 7983 H 746.578 2.51112 2.82403 0
M  V30 7984 H 746.891 5.58563 5.34067 0
M  V30 7985 H 745.236 5.0185 4.80803 0
M  V30 7986 H 748.427 3.17295 3.44154 0
M  V30 7987 H 748.6 4.57479 4.5893 0
M  V30 7988 N 742.006 -1.2595 0.947325 0
M  V30 7989 C 742.954 -2.28152 0.452687 0
M  V30 7990 C 743.948 -1.62655 -0.473239 0
M  V30 7991 O 745.154 -1.76549 -0.350774 0
M  V30 7992 H 741.529 -0.741049 0.12787 0
M  V30 7993 H 743.5 -2.67267 1.32707 0
M  V30 7994 C 742.249 -3.46719 -0.26098 0
M  V30 7995 H 741.572 -3.97345 0.442352 0
M  V30 7996 H 743.012 -4.20135 -0.571208 0
M  V30 7997 C 741.471 -3.02605 -1.48094 0
M  V30 7998 O 742.001 -3.07979 -2.57899 0
M  V30 7999 N 740.207 -2.57877 -1.33969 0
M  V30 8000 H 739.754 -2.53704 -0.446295 0
M  V30 8001 H 739.712 -2.28725 -2.15713 0
M  V30 8002 N 743.484 -0.715051 -1.40445 0
M  V30 8003 C 744.712 -0.263959 -2.05209 0
M  V30 8004 C 745.127 1.09403 -1.53871 0
M  V30 8005 O 744.484 1.68746 -0.695064 0
M  V30 8006 C 744.535 -0.234545 -3.60738 0
M  V30 8007 O 744.256 -1.53891 -4.10182 0
M  V30 8008 C 745.757 0.235164 -4.42676 0
M  V30 8009 H 742.977 -0.11876 -0.660407 0
M  V30 8010 H 745.521 -0.973107 -1.79864 0
M  V30 8011 H 743.676 0.425563 -3.85055 0
M  V30 8012 H 744.09 -1.43903 -5.04373 0
M  V30 8013 H 745.564 0.204598 -5.51621 0
M  V30 8014 H 746.041 1.27724 -4.20218 0
M  V30 8015 H 746.647 -0.394649 -4.23465 0
M  V30 8016 N 744.962 1.50701 -0.461195 0
M  V30 8017 C 746.192 2.06381 0.0950376 0
M  V30 8018 C 746.6 1.32627 1.34933 0
M  V30 8019 O 745.943 0.386137 1.79596 0
M  V30 8020 C 746.005 3.56558 0.458965 0
M  V30 8021 C 745.669 4.51732 -0.691891 0
M  V30 8022 C 746.666 4.95594 -1.57105 0
M  V30 8023 C 744.351 4.94542 -0.879407 0
M  V30 8024 C 746.345 5.80963 -2.62223 0
M  V30 8025 C 744.032 5.79695 -1.93382 0
M  V30 8026 C 745.03 6.22806 -2.80359 0
M  V30 8027 O 744.718 7.06265 -3.83986 0
M  V30 8028 H 744.45 0.676 0.000687488 0
M  V30 8029 H 747.004 1.94974 -0.646087 0
M  V30 8030 H 745.234 3.65832 1.25314 0
M  V30 8031 H 746.923 3.94647 0.949124 0
M  V30 8032 H 747.689 4.63197 -1.43783 0
M  V30 8033 H 743.568 4.60513 -0.211907 0
M  V30 8034 H 747.112 6.14533 -3.30143 0
M  V30 8035 H 743.009 6.11506 -2.06715 0
M  V30 8036 H 743.777 7.24494 -3.80855 0
M  V30 8037 N 746.441 0.193421 1.56409 0
M  V30 8038 C 747.687 -0.446449 1.97825 0
M  V30 8039 C 748.02 -1.61386 1.08019 0
M  V30 8040 O 747.295 -1.94053 0.131839 0
M  V30 8041 C 747.578 -0.908199 3.48459 0
M  V30 8042 C 747.431 0.260914 4.49043 0
M  V30 8043 C 748.75 -1.77428 4.0275 0
M  V30 8044 H 745.869 -0.160807 0.719243 0
M  V30 8045 H 748.511 0.284006 1.87865 0
M  V30 8046 H 746.661 -1.53062 3.57077 0
M  V30 8047 H 748.333 0.898548 4.52464 0
M  V30 8048 H 746.576 0.912949 4.24085 0
M  V30 8049 H 747.247 -0.104657 5.51901 0
M  V30 8050 H 749.723 -1.24936 3.96901 0
M  V30 8051 H 748.599 -2.06633 5.08521 0
M  V30 8052 H 748.86 -2.72788 3.47907 0
M  V30 8053 N 747.919 -1.57396 -0.0801906 0
M  V30 8054 C 749.159 -1.88668 -0.786367 0
M  V30 8055 C 749.523 -0.786216 -1.75165 0
M  V30 8056 O 750.724 -0.981769 -2.50229 0
M  V30 8057 C 748.995 -3.25176 -1.48308 0
M  V30 8058 S 750.554 -3.78177 -2.22549 0
M  V30 8059 H 747.372 -0.661094 -0.261679 0
M  V30 8060 H 749.974 -1.95453 -0.0428196 0
M  V30 8061 H 748.678 -4.03176 -0.766629 0
M  V30 8062 H 748.209 -3.21567 -2.26623 0
M  V30 8063 H 750.224 -3.52789 -3.48934 0
M  V30 8064 N 749.397 0.351382 -1.53633 0
M  V30 8065 C 750.307 1.45471 -1.84052 0
M  V30 8066 C 751.323 1.57945 -0.730015 0
M  V30 8067 O 752.499 1.73571 -1.02153 0
M  V30 8068 C 749.564 2.80562 -2.03681 0
M  V30 8069 C 748.625 2.77497 -3.27558 0
M  V30 8070 C 747.858 4.06144 -3.46241 0
M  V30 8071 O 748.081 5.03028 -2.68922 0
M  V30 8072 O 747.015 4.11092 -4.39645 0
M  V30 8073 H 750.841 1.22684 -2.77817 0
M  V30 8074 H 748.426 0.542827 -1.3919 0
M  V30 8075 H 750.308 3.6058 -2.18082 0
M  V30 8076 H 748.983 3.03296 -1.13106 0
M  V30 8077 H 747.89 1.96126 -3.18568 0
M  V30 8078 H 749.223 2.59716 -4.18101 0
M  V30 8079 N 750.875 1.45233 0.611969 0
M  V30 8080 C 752.291 1.29542 0.932251 0
M  V30 8081 C 752.491 0.24523 2.00002 0
M  V30 8082 O 751.547 -0.362333 2.49887 0
M  V30 8083 C 752.86 2.67301 1.37733 0
M  V30 8084 C 754.408 2.75163 1.49178 0
M  V30 8085 C 754.883 4.13437 1.97064 0
M  V30 8086 N 756.374 4.15709 2.04304 0
M  V30 8087 C 757.109 5.19566 2.42568 0
M  V30 8088 N 756.605 6.33771 2.79832 0
M  V30 8089 N 758.398 5.06923 2.42869 0
M  V30 8090 H 750.549 2.12192 -0.0938679 0
M  V30 8091 H 752.812 0.947775 0.0206569 0
M  V30 8092 H 752.518 3.45318 0.666951 0
M  V30 8093 H 752.392 2.95472 2.3447 0
M  V30 8094 H 754.779 1.97453 2.19309 0
M  V30 8095 H 754.86 2.50712 0.507674 0
M  V30 8096 H 754.504 4.91631 1.27521 0
M  V30 8097 H 754.434 4.35277 2.9638 0
M  V30 8098 H 756.925 3.33293 1.78113 0
M  V30 8099 H 757.238 7.08815 3.07898 0
M  V30 8100 H 755.583 6.37179 2.77538 0
M  V30 8101 H 758.774 4.1675 2.1316 0
M  V30 8102 H 758.947 5.87981 2.72364 0
M  V30 8103 N 752.353 -0.854086 1.3245 0
M  V30 8104 C 753.581 -1.64074 1.26045 0
M  V30 8105 C 753.996 -1.8802 -0.171456 0
M  V30 8106 O 753.353 -1.4496 -1.10873 0
M  V30 8107 C 753.404 -2.9997 2.01743 0
M  V30 8108 O 753.125 -2.77084 3.39346 0
M  V30 8109 C 754.626 -3.94414 2.02368 0
M  V30 8110 H 751.846 -0.511015 0.434862 0
M  V30 8111 H 754.39 -1.06494 1.74583 0
M  V30 8112 H 752.545 -3.54193 1.56926 0
M  V30 8113 H 752.959 -3.63514 3.78098 0
M  V30 8114 H 754.433 -4.87032 2.59815 0
M  V30 8115 H 754.91 -4.27427 1.01009 0
M  V30 8116 H 755.516 -3.46127 2.47135 0
M  V30 8117 N 753.831 -1.1567 -1.07043 0
M  V30 8118 C 755.059 -0.957471 -1.83412 0
M  V30 8119 C 755.474 0.494271 -1.82215 0
M  V30 8120 O 754.831 1.34288 -1.23584 0
M  V30 8121 C 754.882 -1.46784 -3.30359 0
M  V30 8122 O 754.603 -2.86271 -3.31633 0
M  V30 8123 C 756.104 -1.31054 -4.23485 0
M  V30 8124 H 753.324 -0.33986 -0.578564 0
M  V30 8125 H 755.868 -1.53518 -1.35102 0
M  V30 8126 H 754.023 -0.932586 -3.76007 0
M  V30 8127 H 754.437 -3.0948 -4.23465 0
M  V30 8128 H 755.911 -1.71605 -5.24648 0
M  V30 8129 H 756.388 -0.255107 -4.38458 0
M  V30 8130 H 756.994 -1.83503 -3.83676 0
M  V30 8131 N 755.309 1.25446 -0.953992 0
M  V30 8132 C 756.586 1.884 -0.525823 0
M  V30 8133 C 756.966 1.86079 0.996891 0
M  V30 8134 O 756.314 1.32389 1.8624 0
M  V30 8135 C 756.524 3.31154 -1.10172 0
M  V30 8136 C 757.872 4.07926 -1.17819 0
M  V30 8137 O 758.896 3.40273 -1.05323 0
M  V30 8138 O 757.755 5.28942 -1.37415 0
M  V30 8139 H 754.849 0.808629 -0.173345 0
M  V30 8140 H 757.395 1.33522 -1.04738 0
M  V30 8141 H 756.167 3.27271 -2.14499 0
M  V30 8142 H 755.79 3.93588 -0.56338 0
M  V30 8143 N 756.787 0.722489 1.40064 0
M  V30 8144 C 758.203 0.396758 1.5459 0
M  V30 8145 C 758.403 -1.09375 1.69232 0
M  V30 8146 O 757.459 -1.87984 1.68578 0
M  V30 8147 C 758.772 1.16885 2.77053 0
M  V30 8148 C 760.32 1.15583 2.90877 0
M  V30 8149 C 760.795 1.91023 4.16262 0
M  V30 8150 N 762.286 1.88126 4.23276 0
M  V30 8151 C 763.021 2.43315 5.19216 0
M  V30 8152 N 762.517 3.07089 6.21022 0
M  V30 8153 N 764.31 2.33418 5.11344 0
M  V30 8154 H 756.461 1.68887 1.28806 0
M  V30 8155 H 758.724 0.714231 0.62336 0
M  V30 8156 H 758.43 2.22301 2.72534 0
M  V30 8157 H 758.304 0.765011 3.69361 0
M  V30 8158 H 760.691 0.10984 2.94896 0
M  V30 8159 H 760.772 1.59895 1.99668 0
M  V30 8160 H 760.416 2.95616 4.13006 0
M  V30 8161 H 760.346 1.44126 5.06493 0
M  V30 8162 H 762.837 1.41654 3.50346 0
M  V30 8163 H 763.15 3.467 6.90666 0
M  V30 8164 H 761.495 3.11175 6.21446 0
M  V30 8165 H 764.686 1.83248 4.30741 0
M  V30 8166 H 764.859 2.7673 5.85939 0
M  V30 8167 N 758.265 -1.50454 0.469181 0
M  V30 8168 C 759.495 -2.06429 -0.0840913 0
M  V30 8169 C 759.903 -1.3334 -1.34227 0
M  V30 8170 O 759.246 -0.395656 -1.79389 0
M  V30 8171 C 759.308 -3.56797 -0.440049 0
M  V30 8172 C 758.972 -4.51359 0.715838 0
M  V30 8173 C 759.969 -4.94754 1.59732 0
M  V30 8174 C 757.654 -4.94069 0.905621 0
M  V30 8175 C 759.648 -5.79564 2.653 0
M  V30 8176 C 757.335 -5.78662 1.96453 0
M  V30 8177 C 758.333 -6.21311 2.83658 0
M  V30 8178 O 758.021 -7.04218 3.87727 0
M  V30 8179 H 757.753 -0.675994 0.00289751 0
M  V30 8180 H 760.307 -1.94629 0.656417 0
M  V30 8181 H 758.537 -3.66492 -1.23372 0
M  V30 8182 H 760.226 -3.95145 -0.928181 0
M  V30 8183 H 760.992 -4.62428 1.46237 0
M  V30 8184 H 756.871 -4.60394 0.236326 0
M  V30 8185 H 760.415 -6.12774 3.33398 0
M  V30 8186 H 756.312 -6.10401 2.09955 0
M  V30 8187 H 757.08 -7.22464 3.84692 0
M  V30 8188 N 759.743 -0.201713 -1.56304 0
M  V30 8189 C 760.989 0.435952 -1.98059 0
M  V30 8190 C 761.322 1.60811 -1.08873 0
M  V30 8191 O 760.597 1.9398 -0.142128 0
M  V30 8192 C 760.88 0.889706 -3.48936 0
M  V30 8193 C 760.733 -0.284725 -4.48898 0
M  V30 8194 C 762.052 1.7529 -4.03685 0
M  V30 8195 H 759.171 0.15699 -0.720085 0
M  V30 8196 H 761.813 -0.293965 -1.87712 0
M  V30 8197 H 759.963 1.51166 -3.57884 0
M  V30 8198 H 761.635 -0.922531 -4.51981 0
M  V30 8199 H 759.878 -0.935427 -4.23594 0
M  V30 8200 H 760.549 0.0753865 -5.51949 0
M  V30 8201 H 763.025 1.2283 -3.97558 0
M  V30 8202 H 761.901 2.03933 -5.0961 0
M  V30 8203 H 762.162 2.70939 -3.49348 0
M  V30 8204 N 761.222 1.57436 0.0718424 0
M  V30 8205 C 762.185 2.02703 1.06977 0
M  V30 8206 C 763.185 0.924062 1.31597 0
M  V30 8207 O 764.375 1.18894 1.27318 0
M  V30 8208 C 761.507 2.40763 2.41342 0
M  V30 8209 H 762.7 2.92098 0.679619 0
M  V30 8210 H 760.253 1.5304 0.317565 0
M  V30 8211 H 760.988 1.54394 2.8519 0
M  V30 8212 H 760.773 3.21249 2.24814 0
M  V30 8213 H 762.263 2.76361 3.13073 0
M  V30 8214 N 762.7 -0.34323 1.53817 0
M  V30 8215 C 763.63 -1.42709 1.84814 0
M  V30 8216 C 764.611 -1.5488 0.703297 0
M  V30 8217 O 765.796 -1.69082 0.955237 0
M  V30 8218 C 762.926 -2.79756 2.05801 0
M  V30 8219 C 761.88 -2.82392 3.21619 0
M  V30 8220 C 761.206 -4.22326 3.2794 0
M  V30 8221 C 762.506 -2.479 4.59721 0
M  V30 8222 H 764.2 -1.17018 2.75585 0
M  V30 8223 H 761.746 -0.561485 1.32602 0
M  V30 8224 H 763.699 -3.55627 2.26069 0
M  V30 8225 H 762.423 -3.06883 1.11761 0
M  V30 8226 H 761.082 -2.08974 3.01207 0
M  V30 8227 H 760.73 -4.46564 2.31494 0
M  V30 8228 H 760.43 -4.25001 4.05768 0
M  V30 8229 H 761.954 -5.00039 3.50419 0
M  V30 8230 H 763.368 -3.13484 4.80001 0
M  V30 8231 H 761.765 -2.61857 5.39954 0
M  V30 8232 H 762.835 -1.43087 4.63308 0
M  V30 8233 N 764.178 -1.45556 -0.604258 0
M  V30 8234 C 765.11 -1.50494 -1.72871 0
M  V30 8235 C 766.123 -0.395368 -1.57926 0
M  V30 8236 O 767.312 -0.662603 -1.65746 0
M  V30 8237 C 764.412 -1.34874 -3.10906 0
M  V30 8238 C 763.585 -2.59564 -3.52058 0
M  V30 8239 C 762.644 -2.38453 -4.6907 0
M  V30 8240 O 761.67 -3.12082 -4.76018 0
M  V30 8241 N 762.872 -1.43229 -5.62553 0
M  V30 8242 H 765.637 -2.4744 -1.69097 0
M  V30 8243 H 763.198 -1.41338 -0.789636 0
M  V30 8244 H 765.19 -1.18556 -3.86945 0
M  V30 8245 H 763.76 -0.461913 -3.09168 0
M  V30 8246 H 762.98 -2.90974 -2.65946 0
M  V30 8247 H 764.268 -3.42441 -3.76313 0
M  V30 8248 H 763.666 -0.824714 -5.59656 0
M  V30 8249 H 762.223 -1.32882 -6.38111 0
M  V30 8250 N 765.656 0.84705 -1.32902 0
M  V30 8251 C 766.604 1.97765 -1.22441 0
M  V30 8252 C 767.598 1.68919 -0.127546 0
M  V30 8253 O 768.804 1.77633 -0.290973 0
M  V30 8254 H 765.179 0.649072 -0.379748 0
M  V30 8255 H 767.15 2.03713 -2.18044 0
M  V30 8256 C 765.899 3.33834 -0.972125 0
M  V30 8257 H 765.222 3.56564 -1.80837 0
M  V30 8258 H 766.662 4.13467 -0.939209 0
M  V30 8259 C 765.121 3.35328 0.325059 0
M  V30 8260 O 765.651 3.78887 1.33445 0
M  V30 8261 N 763.857 2.88488 0.349718 0
M  V30 8262 H 763.404 2.53234 -0.472236 0
M  V30 8263 H 763.362 2.8987 1.21748 0
M  V30 8264 N 767.134 1.16236 1.06428 0
M  V30 8265 C 768.382 0.941171 1.78847 0
M  V30 8266 C 768.703 -0.53248 1.87589 0
M  V30 8267 O 767.973 -1.38686 1.38358 0
M  V30 8268 H 766.553 0.345228 0.66244 0
M  V30 8269 H 769.215 1.46479 1.28569 0
M  V30 8270 H 768.311 1.35871 2.80972 0
M  V30 8271 N 768.612 -1.24939 0.960631 0
M  V30 8272 C 769.559 -2.25658 0.484459 0
M  V30 8273 C 770.529 -1.59422 -0.466242 0
M  V30 8274 O 771.714 -1.87015 -0.378169 0
M  V30 8275 C 768.854 -3.44359 -0.225958 0
M  V30 8276 C 767.967 -4.25214 0.762682 0
M  V30 8277 C 767.102 -5.31192 0.0290931 0
M  V30 8278 C 766.141 -6.03739 1.00827 0
M  V30 8279 N 765.278 -7.01437 0.305155 0
M  V30 8280 H 770.118 -2.65758 1.34821 0
M  V30 8281 H 767.655 -1.30648 0.675983 0
M  V30 8282 H 769.613 -4.12035 -0.654472 0
M  V30 8283 H 768.243 -3.05118 -1.05371 0
M  V30 8284 H 767.295 -3.57144 1.30966 0
M  V30 8285 H 768.607 -4.75406 1.50964 0
M  V30 8286 H 767.761 -6.04971 -0.457763 0
M  V30 8287 H 766.5 -4.81889 -0.750614 0
M  V30 8288 H 765.505 -5.2877 1.50607 0
M  V30 8289 H 766.73 -6.55131 1.7883 0
M  V30 8290 H 764.676 -6.54415 -0.455704 0
M  V30 8291 H 764.593 -7.49475 0.991104 0
M  V30 8292 H 765.861 -7.79336 -0.159966 0
M  V30 8293 N 770.09 -0.729906 -1.39679 0
M  V30 8294 C 771.367 -0.202149 -1.94553 0
M  V30 8295 C 771.747 1.29507 -1.66707 0
M  V30 8296 O 771.095 2.05819 -0.992517 0
M  V30 8297 C 771.305 -0.530279 -3.44948 0
M  V30 8298 C 772.653 -0.476808 -4.21914 0
M  V30 8299 O 773.677 -0.467171 -3.53123 0
M  V30 8300 O 772.536 -0.466869 -5.44502 0
M  V30 8301 H 769.63 -0.0351644 -0.826252 0
M  V30 8302 H 772.176 -0.808417 -1.49207 0
M  V30 8303 H 770.948 -1.56526 -3.5863 0
M  V30 8304 H 770.571 0.10522 -3.97461 0
M  V30 8305 N 771.568 1.50203 -0.477153 0
M  V30 8306 C 772.793 2.07263 0.0754986 0
M  V30 8307 C 773.218 1.33801 1.32208 0
M  V30 8308 O 772.576 0.387482 1.77111 0
M  V30 8309 C 772.624 3.59028 0.336348 0
M  V30 8310 O 771.728 3.87339 1.4157 0
M  V30 8311 H 771.069 0.663815 -0.015662 0
M  V30 8312 H 773.599 1.93321 -0.669936 0
M  V30 8313 H 773.609 4.03927 0.575034 0
M  V30 8314 H 772.284 4.11912 -0.574551 0
M  V30 8315 H 770.861 3.54272 1.16385 0
M  V30 8316 N 773.046 0.209999 1.56195 0
M  V30 8317 C 774.271 -0.433064 2.02828 0
M  V30 8318 C 774.696 -1.5337 1.08901 0
M  V30 8319 O 774.054 -1.81144 0.0751132 0
M  V30 8320 C 774.102 -0.952635 3.47789 0
M  V30 8321 O 773.206 -2.0647 3.56993 0
M  V30 8322 H 772.547 -0.0994594 0.656509 0
M  V30 8323 H 775.077 0.32525 2.01998 0
M  V30 8324 H 775.087 -1.26542 3.8788 0
M  V30 8325 H 773.762 -0.147007 4.1564 0
M  V30 8326 H 772.339 -1.75942 3.28784 0
M  V30 8327 N 774.524 -1.57472 -0.0634922 0
M  V30 8328 C 775.454 -2.07297 -1.07473 0
M  V30 8329 C 776.435 -0.968162 -1.39859 0
M  V30 8330 O 777.62 -1.24139 -1.49343 0
M  V30 8331 C 774.75 -2.52381 -2.38581 0
M  V30 8332 C 773.704 -3.66813 -2.20526 0
M  V30 8333 C 773.03 -3.97982 -3.57092 0
M  V30 8334 C 774.33 -4.96553 -1.61965 0
M  V30 8335 H 776.024 -2.92033 -0.660092 0
M  V30 8336 H 773.57 -1.40488 -0.316074 0
M  V30 8337 H 775.523 -2.85852 -3.09624 0
M  V30 8338 H 774.247 -1.64684 -2.8204 0
M  V30 8339 H 772.906 -3.33639 -1.51924 0
M  V30 8340 H 772.554 -3.07403 -3.98136 0
M  V30 8341 H 772.254 -4.7504 -3.45848 0
M  V30 8342 H 773.778 -4.33956 -4.29552 0
M  V30 8343 H 775.192 -5.28201 -2.22883 0
M  V30 8344 H 773.589 -5.7799 -1.61394 0
M  V30 8345 H 774.659 -4.81396 -0.581918 0
M  V30 8346 N 776.003 0.335068 -1.53997 0
M  V30 8347 C 777.231 1.09418 -1.756 0
M  V30 8348 C 777.646 1.82083 -0.499138 0
M  V30 8349 O 777.003 1.74646 0.529631 0
M  V30 8350 C 777.054 2.10115 -2.94166 0
M  V30 8351 O 776.775 1.40404 -4.14992 0
M  V30 8352 C 778.276 2.98336 -3.27888 0
M  V30 8353 H 775.496 0.32595 -0.586513 0
M  V30 8354 H 778.04 0.384693 -2.00849 0
M  V30 8355 H 776.195 2.76616 -2.71224 0
M  V30 8356 H 776.609 2.07743 -4.81605 0
M  V30 8357 H 778.083 3.6491 -4.1418 0
M  V30 8358 H 778.56 3.64814 -2.44556 0
M  V30 8359 H 779.166 2.37412 -3.52868 0
M  V30 8360 N 777.481 1.45874 0.596531 0
M  V30 8361 C 778.391 1.57947 1.73464 0
M  V30 8362 C 779.407 0.463461 1.67714 0
M  V30 8363 O 780.583 0.725685 1.87872 0
M  V30 8364 C 777.648 1.55348 3.09948 0
M  V30 8365 C 776.709 2.78074 3.27068 0
M  V30 8366 C 775.942 2.75589 4.57041 0
M  V30 8367 O 776.165 1.83545 5.40063 0
M  V30 8368 O 775.099 3.66945 4.77111 0
M  V30 8369 H 778.925 2.54169 1.66228 0
M  V30 8370 H 776.51 1.2851 0.76194 0
M  V30 8371 H 778.392 1.56545 3.91244 0
M  V30 8372 H 777.067 0.622811 3.17652 0
M  V30 8373 H 775.974 2.82435 2.45319 0
M  V30 8374 H 777.307 3.70303 3.24248 0
M  V30 8375 N 778.959 -0.83999 1.33349 0
M  V30 8376 C 779.892 -1.95415 1.17848 0
M  V30 8377 C 780.87 -1.6243 0.0742296 0
M  V30 8378 O 782.054 -1.87014 0.23626 0
M  V30 8379 C 779.181 -3.28938 0.807295 0
M  V30 8380 C 778.227 -3.80895 1.91888 0
M  V30 8381 S 779.06 -4.02709 3.52967 0
M  V30 8382 C 780.216 -5.39185 3.17853 0
M  V30 8383 H 780.449 -2.08265 2.12162 0
M  V30 8384 H 777.982 -0.993643 1.18178 0
M  V30 8385 H 779.94 -4.06093 0.599914 0
M  V30 8386 H 778.601 -3.13881 -0.117234 0
M  V30 8387 H 777.794 -4.77508 1.6125 0
M  V30 8388 H 777.396 -3.10633 2.08286 0
M  V30 8389 H 779.688 -6.21978 2.68608 0
M  V30 8390 H 780.631 -5.74795 4.13542 0
M  V30 8391 H 781.039 -5.03885 2.5448 0
M  V30 8392 N 780.437 -1.16799 -1.0581 0
M  V30 8393 C 781.662 -0.977402 -1.82925 0
M  V30 8394 C 782.087 0.469514 -1.82146 0
M  V30 8395 O 781.445 1.33576 -1.22585 0
M  V30 8396 C 781.493 -1.51543 -3.27211 0
M  V30 8397 O 780.597 -0.725021 -4.05977 0
M  V30 8398 H 779.938 -0.347474 -0.565825 0
M  V30 8399 H 782.468 -1.55151 -1.33376 0
M  V30 8400 H 782.478 -1.53502 -3.78023 0
M  V30 8401 H 781.153 -2.56872 -3.27093 0
M  V30 8402 H 779.73 -0.77634 -3.64729 0
M  V30 8403 N 781.915 1.24427 -0.967243 0
M  V30 8404 C 783.161 1.92772 -0.629812 0
M  V30 8405 C 783.494 1.75436 0.832827 0
M  V30 8406 O 782.769 1.10716 1.59913 0
M  V30 8407 C 783.052 3.45798 -1.00477 0
M  V30 8408 C 782.905 3.72304 -2.52407 0
M  V30 8409 C 784.224 4.36787 -0.538999 0
M  V30 8410 H 781.343 0.700099 -0.230282 0
M  V30 8411 H 783.985 1.46805 -1.20616 0
M  V30 8412 H 782.135 3.8508 -0.514336 0
M  V30 8413 H 783.807 3.42584 -3.08924 0
M  V30 8414 H 782.05 3.17472 -2.95625 0
M  V30 8415 H 782.721 4.7937 -2.73693 0
M  V30 8416 H 785.197 4.04877 -0.959874 0
M  V30 8417 H 784.073 5.4259 -0.829926 0
M  V30 8418 H 784.334 4.38527 0.560923 0
M  V30 8419 N 783.393 0.737304 1.3929 0
M  V30 8420 C 784.618 0.295237 2.05288 0
M  V30 8421 C 785.043 -1.06235 1.55228 0
M  V30 8422 O 784.401 -1.67365 0.697043 0
M  V30 8423 C 784.449 0.309146 3.59272 0
M  V30 8424 O 783.553 -0.702437 4.06374 0
M  V30 8425 H 782.894 0.133762 0.650387 0
M  V30 8426 H 785.424 1.00387 1.78279 0
M  V30 8427 H 785.434 0.154336 4.07708 0
M  V30 8428 H 784.109 1.29974 3.95069 0
M  V30 8429 H 782.686 -0.513574 3.69346 0
M  V30 8430 N 784.871 -1.49948 0.485112 0
M  V30 8431 C 786.096 -2.073 -0.0645059 0
M  V30 8432 C 786.521 -1.345 -1.31497 0
M  V30 8433 O 785.879 -0.39687 -1.76903 0
M  V30 8434 C 785.927 -3.59201 -0.317304 0
M  V30 8435 O 785.031 -3.88085 -1.39514 0
M  V30 8436 H 784.372 -0.663723 0.0191822 0
M  V30 8437 H 786.902 -1.92963 0.680179 0
M  V30 8438 H 786.912 -4.04227 -0.553604 0
M  V30 8439 H 785.587 -4.11602 0.596387 0
M  V30 8440 H 784.164 -3.54885 -1.14504 0
M  V30 8441 N 786.349 -0.21828 -1.56081 0
M  V30 8442 C 787.598 0.414644 -1.97392 0
M  V30 8443 C 787.911 1.61132 -1.10887 0
M  V30 8444 O 789.117 2.31355 -1.42082 0
M  V30 8445 C 787.573 0.789099 -3.51143 0
M  V30 8446 C 787.181 -0.384578 -4.46346 0
M  V30 8447 C 788.925 1.38781 -4.01173 0
M  V30 8448 C 786.832 0.0121288 -5.91399 0
M  V30 8449 H 785.762 0.158691 -0.737111 0
M  V30 8450 H 788.413 -0.313974 -1.80794 0
M  V30 8451 H 786.795 1.57505 -3.6333 0
M  V30 8452 H 787.969 -1.16212 -4.45905 0
M  V30 8453 H 786.284 -0.896306 -4.06639 0
M  V30 8454 H 788.881 1.69746 -5.07041 0
M  V30 8455 H 789.224 2.30245 -3.46833 0
M  V30 8456 H 789.757 0.665364 -3.92196 0
M  V30 8457 H 786.496 -0.868917 -6.49715 0
M  V30 8458 H 786.016 0.754053 -5.95041 0
M  V30 8459 H 787.695 0.439949 -6.45502 0
M  V30 8460 N 787.827 1.57504 0.0551401 0
M  V30 8461 C 789.052 1.92682 0.767352 0
M  V30 8462 C 789.477 0.81614 1.69472 0
M  V30 8463 O 788.835 -0.229989 1.79835 0
M  V30 8464 C 788.883 3.26866 1.52286 0
M  V30 8465 O 787.987 3.17274 2.63459 0
M  V30 8466 H 787.328 0.630502 0.208238 0
M  V30 8467 H 789.858 2.04592 0.0184026 0
M  V30 8468 H 789.868 3.61138 1.8985 0
M  V30 8469 H 788.543 4.07276 0.842541 0
M  V30 8470 H 787.12 2.94589 2.2863 0
M  V30 8471 N 789.305 -0.326896 1.54172 0
M  V30 8472 C 790.53 -1.08924 1.76494 0
M  V30 8473 C 790.955 -1.81039 0.510523 0
M  V30 8474 O 790.313 -1.73141 -0.537756 0
M  V30 8475 C 790.361 -2.06558 2.95578 0
M  V30 8476 O 789.465 -3.14394 2.6689 0
M  V30 8477 H 788.806 -0.314216 0.584948 0
M  V30 8478 H 791.336 -0.372207 2.01186 0
M  V30 8479 H 791.346 -2.49487 3.22832 0
M  V30 8480 H 790.021 -1.53469 3.86549 0
M  V30 8481 H 788.598 -2.76164 2.50576 0
M  V30 8482 N 790.784 -1.46188 -0.588786 0
M  V30 8483 C 791.747 -1.55882 -1.68029 0
M  V30 8484 C 792.747 -0.436515 -1.54762 0
M  V30 8485 O 793.937 -0.700626 -1.59489 0
M  V30 8486 C 791.069 -1.47332 -3.07418 0
M  V30 8487 H 792.262 -2.5315 -1.60795 0
M  V30 8488 H 789.815 -1.33908 -0.806116 0
M  V30 8489 H 790.55 -0.513193 -3.20214 0
M  V30 8490 H 790.335 -2.28753 -3.18456 0
M  V30 8491 H 791.825 -1.57187 -3.86887 0
M  V30 8492 N 792.262 0.832906 -1.33792 0
M  V30 8493 C 793.51 1.58539 -1.25338 0
M  V30 8494 C 793.831 1.94175 0.179204 0
M  V30 8495 O 793.101 1.61458 1.10941 0
M  V30 8496 H 791.681 0.58784 -0.460926 0
M  V30 8497 H 794.343 0.995064 -1.67584 0
M  V30 8498 H 793.439 2.51268 -1.85123 0
M  V30 8499 N 793.74 1.17359 1.05189 0
M  V30 8500 C 794.965 0.98709 1.82404 0
M  V30 8501 C 795.39 -0.459848 1.82392 0
M  V30 8502 O 794.748 -1.32924 1.23292 0
M  V30 8503 C 794.796 1.53276 3.26403 0
M  V30 8504 O 793.9 0.746541 4.05587 0
M  V30 8505 H 793.241 0.35047 0.563974 0
M  V30 8506 H 795.771 1.55856 1.32552 0
M  V30 8507 H 795.781 1.55504 3.77203 0
M  V30 8508 H 794.456 2.58603 3.25726 0
M  V30 8509 H 793.033 0.795671 3.64312 0
M  V30 8510 N 795.218 -1.23913 0.973828 0
M  V30 8511 C 796.443 -1.96735 0.656511 0
M  V30 8512 C 796.868 -1.71682 -0.768571 0
M  V30 8513 O 796.226 -0.984267 -1.52256 0
M  V30 8514 C 796.274 -3.48004 0.944735 0
M  V30 8515 O 795.378 -4.12387 0.0333357 0
M  V30 8516 H 794.719 -0.616119 0.247575 0
M  V30 8517 H 797.249 -1.57525 1.30564 0
M  V30 8518 H 797.259 -3.98424 0.87876 0
M  V30 8519 H 795.934 -3.65567 1.98328 0
M  V30 8520 H 794.511 -3.72585 0.153157 0
M  V30 8521 N 796.696 -0.74468 -1.38897 0
M  V30 8522 C 797.942 -0.297324 -2.00609 0
M  V30 8523 C 798.275 1.11547 -1.58968 0
M  V30 8524 O 797.55 1.76227 -0.823057 0
M  V30 8525 C 797.833 -0.410125 -3.57757 0
M  V30 8526 C 797.686 -1.86338 -4.09387 0
M  V30 8527 C 799.005 0.20176 -4.39637 0
M  V30 8528 H 796.124 -0.109509 -0.728819 0
M  V30 8529 H 798.766 -0.942653 -1.64967 0
M  V30 8530 H 796.916 0.139287 -3.8825 0
M  V30 8531 H 798.588 -2.47042 -3.89574 0
M  V30 8532 H 796.831 -2.38146 -3.62586 0
M  V30 8533 H 797.502 -1.89352 -5.18507 0
M  V30 8534 H 799.978 -0.266703 -4.15244 0
M  V30 8535 H 798.854 0.0925415 -5.48822 0
M  V30 8536 H 799.115 1.289 -4.22891 0
M  V30 8537 N 798.174 1.49689 -0.493057 0
M  V30 8538 C 799.137 2.27502 0.278485 0
M  V30 8539 C 800.137 1.33184 0.901037 0
M  V30 8540 O 801.327 1.56415 0.766801 0
M  V30 8541 C 798.459 3.10881 1.39878 0
M  V30 8542 H 799.652 2.97163 -0.404219 0
M  V30 8543 H 797.205 1.54324 -0.247774 0
M  V30 8544 H 797.94 2.45767 2.11587 0
M  V30 8545 H 797.725 3.80219 0.957924 0
M  V30 8546 H 799.215 3.69673 1.94247 0
M  V30 8547 N 799.652 0.226554 1.55963 0
M  V30 8548 C 800.877 -0.411527 2.03276 0
M  V30 8549 C 801.302 -1.52206 1.10521 0
M  V30 8550 O 800.66 -1.81054 0.0943217 0
M  V30 8551 C 800.708 -0.915694 3.4878 0
M  V30 8552 O 799.812 -2.02672 3.59163 0
M  V30 8553 H 799.153 -0.0924907 0.657527 0
M  V30 8554 H 801.683 0.346656 2.01642 0
M  V30 8555 H 801.693 -1.22421 3.892 0
M  V30 8556 H 800.368 -0.102915 4.15773 0
M  V30 8557 H 798.945 -1.72445 3.30632 0
M  V30 8558 N 801.13 -1.57531 -0.0467866 0
M  V30 8559 C 802.093 -2.04379 -1.03738 0
M  V30 8560 C 803.093 -0.944881 -1.3011 0
M  V30 8561 O 804.283 -1.20904 -1.25411 0
M  V30 8562 C 801.415 -2.44572 -2.37482 0
M  V30 8563 H 802.608 -2.93142 -0.633063 0
M  V30 8564 H 800.161 -1.53526 -0.293177 0
M  V30 8565 H 800.896 -1.58911 -2.82697 0
M  V30 8566 H 800.681 -3.24785 -2.19675 0
M  V30 8567 H 802.171 -2.81307 -3.08636 0
M  V30 8568 N 802.608 0.318715 -1.54344 0
M  V30 8569 C 803.854 1.05765 -1.73037 0
M  V30 8570 C 804.187 1.87514 -0.505181 0
M  V30 8571 O 803.462 1.88021 0.497838 0
M  V30 8572 C 803.745 1.97836 -3.00887 0
M  V30 8573 C 803.598 1.19384 -4.33668 0
M  V30 8574 C 804.917 2.97285 -3.24514 0
M  V30 8575 H 802.036 0.383104 -0.629603 0
M  V30 8576 H 804.678 0.333864 -1.87044 0
M  V30 8577 H 802.828 2.59552 -2.89076 0
M  V30 8578 H 804.5 0.600906 -4.57369 0
M  V30 8579 H 802.743 0.496198 -4.30953 0
M  V30 8580 H 803.414 1.87014 -5.19355 0
M  V30 8581 H 805.89 2.45693 -3.35819 0
M  V30 8582 H 804.766 3.58887 -4.15321 0
M  V30 8583 H 805.027 3.70003 -2.41971 0
M  V30 8584 N 804.086 1.46499 0.581025 0
M  V30 8585 C 805.497 1.4604 1.16315 0
M  V30 8586 C 805.848 0.202154 1.95156 0
M  V30 8587 O 804.973 -0.694638 2.04948 0
M  V30 8588 C 805.568 2.64593 2.11604 0
M  V30 8589 C 804.127 2.6717 2.65136 0
M  V30 8590 C 803.274 2.38753 1.4104 0
M  V30 8591 H 806.225 1.54354 0.368871 0
M  V30 8592 H 806.246 2.40207 2.95095 0
M  V30 8593 H 805.758 3.56154 1.54194 0
M  V30 8594 H 803.859 1.79685 3.26411 0
M  V30 8595 H 803.972 3.67182 3.07757 0
M  V30 8596 H 802.336 1.88845 1.70908 0
M  V30 8597 H 803.119 3.32493 0.854588 0
M  V30 8598 N 805.565 -0.825799 1.34232 0
M  V30 8599 C 806.79 -1.61883 1.29648 0
M  V30 8600 C 807.215 -1.87669 -0.127295 0
M  V30 8601 O 806.573 -1.45016 -1.08813 0
M  V30 8602 C 806.621 -2.93846 2.09014 0
M  V30 8603 O 805.725 -3.85778 1.4577 0
M  V30 8604 H 805.066 -0.492454 0.445405 0
M  V30 8605 H 807.596 -1.02641 1.76992 0
M  V30 8606 H 807.606 -3.43435 2.20264 0
M  V30 8607 H 806.281 -2.74401 3.12533 0
M  V30 8608 H 804.858 -3.4429 1.43245 0
M  V30 8609 N 807.043 -1.17915 -1.04565 0
M  V30 8610 C 808.006 -0.903787 -2.10628 0
M  V30 8611 C 809.006 0.10873 -1.60432 0
M  V30 8612 O 810.196 -0.124152 -1.73757 0
M  V30 8613 C 807.328 -0.355017 -3.39046 0
M  V30 8614 H 808.521 -1.84425 -2.3649 0
M  V30 8615 H 806.074 -0.990477 -1.2091 0
M  V30 8616 H 806.809 0.592297 -3.18845 0
M  V30 8617 H 806.594 -1.08484 -3.76794 0
M  V30 8618 H 808.084 -0.180891 -4.17208 0
M  V30 8619 N 808.521 1.23394 -0.980386 0
M  V30 8620 C 809.937 1.43961 -0.689008 0
M  V30 8621 C 810.137 1.87229 0.744809 0
M  V30 8622 O 809.193 2.01831 1.51725 0
M  V30 8623 C 810.506 2.49128 -1.68392 0
M  V30 8624 C 812.054 2.62941 -1.69796 0
M  V30 8625 C 812.529 3.71317 -2.68118 0
M  V30 8626 N 814.02 3.7876 -2.66636 0
M  V30 8627 C 814.755 4.62176 -3.39383 0
M  V30 8628 N 814.251 5.49682 -4.21688 0
M  V30 8629 N 816.044 4.56372 -3.28147 0
M  V30 8630 H 808.195 0.936106 -1.90659 0
M  V30 8631 H 810.458 0.473023 -0.821555 0
M  V30 8632 H 810.164 2.24252 -2.70931 0
M  V30 8633 H 810.038 3.47514 -1.46675 0
M  V30 8634 H 812.425 2.87168 -0.679617 0
M  V30 8635 H 812.506 1.64871 -1.95579 0
M  V30 8636 H 812.15 3.4784 -3.70095 0
M  V30 8637 H 812.08 4.68929 -2.3961 0
M  V30 8638 H 814.571 3.16226 -2.06904 0
M  V30 8639 H 814.884 6.10323 -4.74053 0
M  V30 8640 H 813.229 5.49306 -4.25779 0
M  V30 8641 H 816.42 3.87029 -2.63299 0
M  V30 8642 H 816.593 5.21153 -3.85102 0
M  V30 8643 N 809.999 0.752036 1.385 0
M  V30 8644 C 811.41 0.375385 1.82887 0
M  V30 8645 C 811.761 -1.09575 1.62751 0
M  V30 8646 O 810.886 -1.84685 1.12785 0
M  V30 8647 C 811.481 0.674563 3.32017 0
M  V30 8648 C 810.04 0.351208 3.74758 0
M  V30 8649 C 809.187 0.928531 2.61292 0
M  V30 8650 H 812.138 0.948313 1.27251 0
M  V30 8651 H 812.159 -0.0477781 3.8047 0
M  V30 8652 H 811.671 1.74533 3.46641 0
M  V30 8653 H 809.772 -0.713042 3.65714 0
M  V30 8654 H 809.885 0.845675 4.71577 0
M  V30 8655 H 808.249 0.354012 2.52228 0
M  V30 8656 H 809.032 2.0043 2.78716 0
M  V30 8657 N 811.477 -1.49425 0.500989 0
M  V30 8658 C 812.893 -1.58826 0.156951 0
M  V30 8659 C 813.093 -1.50622 -1.33848 0
M  V30 8660 O 812.149 -1.38016 -2.11442 0
M  V30 8661 C 813.462 -2.91611 0.73374 0
M  V30 8662 C 815.01 -3.05076 0.699846 0
M  V30 8663 C 815.485 -4.40479 1.2547 0
M  V30 8664 N 816.976 -4.4697 1.2154 0
M  V30 8665 C 817.711 -5.50189 1.6149 0
M  V30 8666 N 817.207 -6.60512 2.09034 0
M  V30 8667 N 819 -5.40903 1.52907 0
M  V30 8668 H 811.151 -1.53001 1.47324 0
M  V30 8669 H 813.414 -0.724765 0.61108 0
M  V30 8670 H 813.12 -3.03182 1.78251 0
M  V30 8671 H 812.994 -3.767 0.19417 0
M  V30 8672 H 815.381 -2.93134 -0.340085 0
M  V30 8673 H 815.462 -2.2167 1.27656 0
M  V30 8674 H 815.106 -4.53172 2.29341 0
M  V30 8675 H 815.036 -5.22524 0.653921 0
M  V30 8676 H 817.527 -3.67819 0.867043 0
M  V30 8677 H 817.84 -7.35372 2.37588 0
M  V30 8678 H 816.185 -6.61553 2.13008 0
M  V30 8679 H 819.376 -4.53606 1.15583 0
M  V30 8680 H 819.549 -6.21219 1.84365 0
M  V30 8681 N 812.955 -0.234822 -1.55841 0
M  V30 8682 C 813.905 0.68346 -2.17515 0
M  V30 8683 C 814.889 1.14798 -1.1274 0
M  V30 8684 O 816.081 1.09976 -1.38688 0
M  V30 8685 C 813.21 1.88551 -2.86886 0
M  V30 8686 C 812.296 1.44006 -3.98903 0
M  V30 8687 N 812.687 0.708034 -5.0082 0
M  V30 8688 C 810.985 1.7263 -4.11236 0
M  V30 8689 C 811.686 0.479036 -5.79724 0
M  V30 8690 N 810.662 1.03968 -5.33565 0
M  V30 8691 H 814.464 0.115897 -2.93671 0
M  V30 8692 H 811.978 -0.0366273 -1.62359 0
M  V30 8693 H 813.975 2.55425 -3.2949 0
M  V30 8694 H 812.635 2.45742 -2.12229 0
M  V30 8695 H 813.646 0.359363 -5.16652 0
M  V30 8696 H 810.323 2.31046 -3.47741 0
M  V30 8697 H 811.713 -0.104514 -6.71819 0
M  V30 8698 N 814.433 1.57553 0.0384317 0
M  V30 8699 C 815.365 2.02726 1.06934 0
M  V30 8700 C 816.378 0.938502 1.33026 0
M  V30 8701 O 817.567 1.21595 1.30678 0
M  V30 8702 C 814.667 2.37958 2.41308 0
M  V30 8703 C 813.84 3.69098 2.34703 0
M  V30 8704 C 812.899 3.91623 3.51451 0
M  V30 8705 O 811.925 4.628 3.31368 0
M  V30 8706 N 813.127 3.36538 4.72993 0
M  V30 8707 H 815.892 2.91781 0.684381 0
M  V30 8708 H 813.453 1.60307 0.226542 0
M  V30 8709 H 815.445 2.50172 3.18113 0
M  V30 8710 H 814.015 1.54621 2.71682 0
M  V30 8711 H 813.235 3.67325 1.43059 0
M  V30 8712 H 814.523 4.55144 2.27424 0
M  V30 8713 H 813.921 2.78828 4.92211 0
M  V30 8714 H 812.478 3.54148 5.47195 0
M  V30 8715 N 815.911 -0.310526 1.54511 0
M  V30 8716 C 816.858 -1.38264 1.84802 0
M  V30 8717 C 817.828 -1.50808 0.696141 0
M  V30 8718 O 819.013 -1.6582 0.943846 0
M  V30 8719 C 816.153 -2.74422 2.09252 0
M  V30 8720 C 815.266 -2.70405 3.36906 0
M  V30 8721 C 814.401 -3.98495 3.51248 0
M  V30 8722 C 813.44 -3.88836 4.72729 0
M  V30 8723 N 812.577 -5.08683 4.83928 0
M  V30 8724 H 817.417 -1.11732 2.76261 0
M  V30 8725 H 814.954 -0.540609 1.36806 0
M  V30 8726 H 816.912 -3.53593 2.21422 0
M  V30 8727 H 815.542 -2.99235 1.2107 0
M  V30 8728 H 814.594 -1.83151 3.33406 0
M  V30 8729 H 815.906 -2.59155 4.26193 0
M  V30 8730 H 815.06 -4.861 3.63031 0
M  V30 8731 H 813.799 -4.12567 2.60077 0
M  V30 8732 H 812.804 -2.99615 4.60989 0
M  V30 8733 H 814.029 -3.76318 5.65298 0
M  V30 8734 H 811.975 -5.23236 3.95677 0
M  V30 8735 H 811.892 -4.99819 5.67201 0
M  V30 8736 H 813.16 -5.97966 5.00057 0
M  V30 8737 N 817.389 -1.46805 -0.573248 0
M  V30 8738 C 818.614 -1.56433 -1.36175 0
M  V30 8739 C 819.039 -0.209336 -1.86932 0
M  V30 8740 O 818.397 0.812146 -1.62092 0
M  V30 8741 C 818.445 -2.58055 -2.51873 0
M  V30 8742 O 817.549 -2.12214 -3.53609 0
M  V30 8743 H 816.89 -0.526068 -0.405153 0
M  V30 8744 H 819.42 -1.92456 -0.694405 0
M  V30 8745 H 819.43 -2.77966 -2.98662 0
M  V30 8746 H 818.105 -3.56448 -2.14284 0
M  V30 8747 H 816.682 -2.02333 -3.13234 0
M  V30 8748 N 818.867 0.818669 -1.34668 0
M  V30 8749 C 819.8 1.93516 -1.20941 0
M  V30 8750 C 820.778 1.62292 -0.100061 0
M  V30 8751 O 821.962 1.86614 -0.265983 0
M  V30 8752 C 819.089 3.27612 -0.859524 0
M  V30 8753 C 818.135 3.77794 -1.97923 0
M  V30 8754 S 818.968 3.97043 -3.59329 0
M  V30 8755 C 820.124 5.3406 -3.2639 0
M  V30 8756 H 820.357 2.04864 -2.15449 0
M  V30 8757 H 817.89 0.974716 -1.19744 0
M  V30 8758 H 819.848 4.05087 -0.664444 0
M  V30 8759 H 818.509 3.14028 0.0672835 0
M  V30 8760 H 817.702 4.74883 -1.68827 0
M  V30 8761 H 817.304 3.0728 -2.13202 0
M  V30 8762 H 819.596 6.17626 -2.78469 0
M  V30 8763 H 820.539 5.68143 -4.22634 0
M  V30 8764 H 820.947 4.99773 -2.62464 0
M  V30 8765 N 820.346 1.18468 1.03938 0
M  V30 8766 C 821.571 1.00638 1.81347 0
M  V30 8767 C 821.996 -0.440477 1.8287 0
M  V30 8768 O 821.354 -1.31609 1.24695 0
M  V30 8769 C 821.402 1.5673 3.24759 0
M  V30 8770 O 820.506 0.789517 4.04772 0
M  V30 8771 H 819.847 0.356432 0.560225 0
M  V30 8772 H 822.377 1.57253 1.30891 0
M  V30 8773 H 822.387 1.59496 3.75533 0
M  V30 8774 H 821.062 2.62043 3.22965 0
M  V30 8775 H 819.639 0.834267 3.63448 0
M  V30 8776 N 821.824 -1.22873 0.986916 0
M  V30 8777 C 823.052 -1.95487 0.677663 0
M  V30 8778 C 823.467 -1.72978 -0.756572 0
M  V30 8779 O 822.824 -1.02517 -1.50985 0
M  V30 8780 C 822.875 -3.48337 0.966638 0
M  V30 8781 O 822.596 -3.70087 2.34451 0
M  V30 8782 C 824.097 -4.38142 0.674248 0
M  V30 8783 H 821.317 -0.622211 0.251185 0
M  V30 8784 H 823.861 -1.56187 1.32007 0
M  V30 8785 H 822.016 -3.85628 0.370137 0
M  V30 8786 H 822.43 -4.64332 2.43918 0
M  V30 8787 H 823.904 -5.44165 0.926759 0
M  V30 8788 H 824.381 -4.3745 -0.391728 0
M  V30 8789 H 824.987 -4.06469 1.25152 0
M  V30 8790 N 823.302 -0.75937 -1.38099 0
M  V30 8791 C 824.527 -0.327859 -2.04792 0
M  V30 8792 C 824.952 1.03752 -1.56899 0
M  V30 8793 O 824.31 1.66235 -0.723581 0
M  V30 8794 C 824.358 -0.366264 -3.58735 0
M  V30 8795 O 823.462 0.637697 -4.0744 0
M  V30 8796 H 822.803 -0.144092 -0.648177 0
M  V30 8797 H 825.333 -1.03211 -1.7666 0
M  V30 8798 H 825.343 -0.219179 -4.07411 0
M  V30 8799 H 824.018 -1.36243 -3.92951 0
M  V30 8800 H 822.595 0.454749 -3.70117 0
M  V30 8801 N 824.78 1.49157 -0.508906 0
M  V30 8802 C 826.028 2.02073 0.0327335 0
M  V30 8803 C 826.349 1.39012 1.3675 0
M  V30 8804 O 825.619 0.548153 1.88075 0
M  V30 8805 H 824.199 0.746848 0.0150864 0
M  V30 8806 H 826.861 1.83097 -0.667946 0
M  V30 8807 H 825.957 3.11707 0.1566 0
M  V30 8808 N 826.258 0.243083 1.55714 0
M  V30 8809 C 827.208 -0.671915 2.17875 0
M  V30 8810 C 828.192 -1.14199 1.13347 0
M  V30 8811 O 829.384 -1.09239 1.39269 0
M  V30 8812 C 826.513 -1.87027 2.87881 0
M  V30 8813 C 825.599 -1.41888 3.99661 0
M  V30 8814 N 825.99 -0.681465 5.01188 0
M  V30 8815 C 824.288 -1.70447 4.12145 0
M  V30 8816 C 824.989 -0.448285 5.7997 0
M  V30 8817 N 823.965 -1.01137 5.34109 0
M  V30 8818 H 827.767 -0.100321 2.93729 0
M  V30 8819 H 825.281 0.0452371 1.62337 0
M  V30 8820 H 827.278 -2.53674 3.3084 0
M  V30 8821 H 825.938 -2.44613 2.13529 0
M  V30 8822 H 826.949 -0.331959 5.16835 0
M  V30 8823 H 823.626 -2.29198 3.48962 0
M  V30 8824 H 825.016 0.140141 6.71754 0
M  V30 8825 N 827.736 -1.57571 -0.0300757 0
M  V30 8826 C 829.147 -1.77567 -0.576802 0
M  V30 8827 C 829.498 -0.874034 -1.75656 0
M  V30 8828 O 828.623 -0.0686124 -2.16291 0
M  V30 8829 C 829.218 -3.22016 -1.05315 0
M  V30 8830 C 827.777 -3.43212 -1.5454 0
M  V30 8831 C 826.924 -2.73061 -0.483033 0
M  V30 8832 H 829.875 -1.57483 0.196151 0
M  V30 8833 H 829.896 -3.28474 -1.92055 0
M  V30 8834 H 829.408 -3.87613 -0.194298 0
M  V30 8835 H 827.509 -2.82788 -2.42615 0
M  V30 8836 H 827.622 -4.5182 -1.5936 0
M  V30 8837 H 825.986 -2.36805 -0.937835 0
M  V30 8838 H 826.769 -3.4134 0.366341 0
M  V30 8839 N 829.214 0.302327 -1.54673 0
M  V30 8840 C 830.463 1.03533 -1.73101 0
M  V30 8841 C 830.776 1.88473 -0.523174 0
M  V30 8842 O 831.982 2.65029 -0.589229 0
M  V30 8843 C 830.438 1.89043 -3.06252 0
M  V30 8844 C 830.046 1.09112 -4.3451 0
M  V30 8845 C 831.79 2.61951 -3.34039 0
M  V30 8846 C 829.697 1.93891 -5.58713 0
M  V30 8847 H 828.627 0.390261 -0.645145 0
M  V30 8848 H 831.278 0.2924 -1.81155 0
M  V30 8849 H 829.66 2.67319 -2.92159 0
M  V30 8850 H 830.834 0.354596 -4.59434 0
M  V30 8851 H 829.149 0.477923 -4.13648 0
M  V30 8852 H 831.746 3.25729 -4.24033 0
M  V30 8853 H 832.089 3.30711 -2.52855 0
M  V30 8854 H 832.622 1.90725 -3.49097 0
M  V30 8855 H 829.361 1.29604 -6.4256 0
M  V30 8856 H 828.881 2.6522 -5.37976 0
M  V30 8857 H 830.56 2.51971 -5.95919 0
M  V30 8858 N 830.692 1.47107 0.565454 0
M  V30 8859 C 831.639 1.58974 1.6732 0
M  V30 8860 C 832.609 0.433146 1.60353 0
M  V30 8861 O 833.794 0.652141 1.79309 0
M  V30 8862 C 830.934 1.60224 3.05651 0
M  V30 8863 C 830.047 2.86741 3.23116 0
M  V30 8864 C 829.182 2.79381 4.51796 0
M  V30 8865 C 828.221 4.0076 4.62664 0
M  V30 8866 N 827.358 3.91685 5.8269 0
M  V30 8867 H 832.198 2.53588 1.56515 0
M  V30 8868 H 829.735 1.25791 0.762558 0
M  V30 8869 H 831.693 1.58933 3.85741 0
M  V30 8870 H 830.323 0.691285 3.15311 0
M  V30 8871 H 829.375 2.97936 2.36513 0
M  V30 8872 H 830.687 3.7665 3.27011 0
M  V30 8873 H 829.841 2.76293 5.40136 0
M  V30 8874 H 828.58 1.87142 4.50366 0
M  V30 8875 H 827.585 4.04162 3.72738 0
M  V30 8876 H 828.81 4.94117 4.6586 0
M  V30 8877 H 826.756 3.02243 5.82224 0
M  V30 8878 H 826.673 4.75264 5.87929 0
M  V30 8879 H 827.941 3.92599 6.73414 0
M  V30 8880 N 832.17 -0.811516 1.35101 0
M  V30 8881 C 833.416 -1.57068 1.28287 0
M  V30 8882 C 833.749 -1.93667 -0.143808 0
M  V30 8883 O 833.024 -1.60953 -1.09199 0
M  V30 8884 C 833.307 -2.86259 2.18466 0
M  V30 8885 C 833.16 -2.56168 3.69727 0
M  V30 8886 C 834.479 -3.87924 2.07852 0
M  V30 8887 H 831.598 -0.569869 0.467353 0
M  V30 8888 H 834.24 -0.934023 1.65457 0
M  V30 8889 H 832.39 -3.4059 1.86898 0
M  V30 8890 H 834.062 -2.08059 4.11715 0
M  V30 8891 H 832.305 -1.89436 3.90252 0
M  V30 8892 H 832.976 -3.48344 4.28206 0
M  V30 8893 H 835.452 -3.4298 2.35593 0
M  V30 8894 H 834.328 -4.76106 2.73157 0
M  V30 8895 H 834.589 -4.2923 1.05896 0
M  V30 8896 N 833.648 -1.19017 -1.03309 0
M  V30 8897 C 834.876 -1.01534 -1.80273 0
M  V30 8898 C 835.291 0.43605 -1.83696 0
M  V30 8899 O 834.648 1.30288 -1.27794 0
M  V30 8900 C 834.699 -1.5722 -3.25522 0
M  V30 8901 O 834.42 -2.96677 -3.22358 0
M  V30 8902 C 835.921 -1.4446 -4.19102 0
M  V30 8903 H 833.141 -0.358094 -0.567459 0
M  V30 8904 H 835.685 -1.57738 -1.3015 0
M  V30 8905 H 833.84 -1.05174 -3.7285 0
M  V30 8906 H 834.254 -3.22795 -4.13405 0
M  V30 8907 H 835.728 -1.88209 -5.18923 0
M  V30 8908 H 836.205 -0.394471 -4.37425 0
M  V30 8909 H 836.811 -1.95616 -3.77643 0
M  V30 8910 N 835.127 1.22348 -0.993418 0
M  V30 8911 C 836.057 2.26584 -0.564088 0
M  V30 8912 C 837.038 1.65102 0.409298 0
M  V30 8913 O 838.223 1.91872 0.299819 0
M  V30 8914 C 835.353 3.47087 0.121554 0
M  V30 8915 C 834.307 4.21009 -0.770429 0
M  V30 8916 C 833.633 5.34678 0.0481586 0
M  V30 8917 C 834.933 4.79636 -2.06752 0
M  V30 8918 H 836.627 2.62749 -1.43538 0
M  V30 8919 H 834.173 1.26303 -0.691628 0
M  V30 8920 H 836.126 4.19166 0.433303 0
M  V30 8921 H 834.85 3.1002 1.0274 0
M  V30 8922 H 833.509 3.50764 -1.06583 0
M  V30 8923 H 833.157 4.93852 0.954933 0
M  V30 8924 H 832.857 5.85061 -0.545641 0
M  V30 8925 H 834.381 6.09573 0.353991 0
M  V30 8926 H 835.795 5.43654 -1.81969 0
M  V30 8927 H 834.192 5.4036 -2.61019 0
M  V30 8928 H 835.262 3.99659 -2.74592 0
M  V30 8929 N 836.605 0.766683 1.37694 0
M  V30 8930 C 838.016 0.394761 1.82479 0
M  V30 8931 C 838.367 -1.07842 1.63904 0
M  V30 8932 O 837.492 -1.83479 1.14737 0
M  V30 8933 C 838.087 0.70974 3.31283 0
M  V30 8934 C 836.646 0.390936 3.74364 0
M  V30 8935 C 835.793 0.956192 2.60293 0
M  V30 8936 H 838.744 0.961756 1.26238 0
M  V30 8937 H 838.765 -0.00742144 3.80499 0
M  V30 8938 H 838.277 1.782 3.4477 0
M  V30 8939 H 836.378 -0.674213 3.66449 0
M  V30 8940 H 836.491 0.895645 4.70654 0
M  V30 8941 H 834.855 0.380744 2.51838 0
M  V30 8942 H 835.638 2.03375 2.76575 0
M  V30 8943 N 838.083 -1.48885 0.516809 0
M  V30 8944 C 839.311 -2.06892 -0.0184017 0
M  V30 8945 C 839.726 -1.37511 -1.29368 0
M  V30 8946 O 839.083 -0.458409 -1.76649 0
M  V30 8947 C 839.134 -3.60566 -0.259673 0
M  V30 8948 O 838.855 -4.27338 0.965065 0
M  V30 8949 C 840.356 -4.35331 -0.836751 0
M  V30 8950 H 837.576 -0.670433 0.0275743 0
M  V30 8951 H 840.12 -1.91455 0.718689 0
M  V30 8952 H 838.275 -3.75653 -0.94678 0
M  V30 8953 H 838.689 -5.19287 0.737647 0
M  V30 8954 H 840.163 -5.43675 -0.955065 0
M  V30 8955 H 840.64 -3.9887 -1.83845 0
M  V30 8956 H 841.246 -4.2489 -0.186622 0
M  V30 8957 N 839.561 -0.251338 -1.55583 0
M  V30 8958 C 840.81 0.372681 -1.98227 0
M  V30 8959 C 841.123 1.58743 -1.1428 0
M  V30 8960 O 842.329 2.28289 -1.46957 0
M  V30 8961 C 840.785 0.714439 -3.52738 0
M  V30 8962 C 840.393 -0.479168 -4.4543 0
M  V30 8963 C 842.137 1.3024 -4.04027 0
M  V30 8964 C 840.044 -0.113318 -5.91291 0
M  V30 8965 H 838.974 0.14302 -0.740312 0
M  V30 8966 H 841.625 -0.352253 -1.80087 0
M  V30 8967 H 840.007 1.49762 -3.66589 0
M  V30 8968 H 841.181 -1.25644 -4.4334 0
M  V30 8969 H 839.496 -0.982359 -4.04646 0
M  V30 8970 H 842.093 1.58953 -5.10527 0
M  V30 8971 H 842.436 2.22837 -3.51638 0
M  V30 8972 H 842.969 0.582024 -3.93519 0
M  V30 8973 H 839.708 -1.00654 -6.47726 0
M  V30 8974 H 839.228 0.627666 -5.96507 0
M  V30 8975 H 840.907 0.30293 -6.4629 0
M  V30 8976 N 841.039 1.57585 0.0217189 0
M  V30 8977 C 841.986 2.07036 1.02004 0
M  V30 8978 C 842.956 0.96106 1.35473 0
M  V30 8979 O 844.141 1.23211 1.45684 0
M  V30 8980 C 841.281 2.56056 2.31364 0
M  V30 8981 C 840.394 3.80805 2.03989 0
M  V30 8982 C 839.529 4.18409 3.27272 0
M  V30 8983 C 838.568 5.36055 2.95486 0
M  V30 8984 N 837.705 5.69056 4.11242 0
M  V30 8985 H 842.545 2.92073 0.591396 0
M  V30 8986 H 840.082 1.44403 0.280384 0
M  V30 8987 H 842.04 2.82548 3.06957 0
M  V30 8988 H 840.67 1.73925 2.71937 0
M  V30 8989 H 839.722 3.61354 1.1886 0
M  V30 8990 H 841.034 4.66512 1.76546 0
M  V30 8991 H 840.188 4.46068 4.11228 0
M  V30 8992 H 838.927 3.31369 3.57835 0
M  V30 8993 H 837.932 5.08142 2.09933 0
M  V30 8994 H 839.157 6.24755 2.66193 0
M  V30 8995 H 837.103 4.84974 4.41742 0
M  V30 8996 H 837.02 6.49288 3.87247 0
M  V30 8997 H 838.288 6.01295 4.96049 0
M  V30 8998 N 842.517 -0.29412 1.54831 0
M  V30 8999 C 843.794 -1.04847 1.65126 0
M  V30 9000 C 844.174 -2.04996 0.503986 0
M  V30 9001 O 843.522 -2.22996 -0.498496 0
M  V30 9002 C 843.732 -1.72418 3.03435 0
M  V30 9003 C 845.08 -2.24362 3.60481 0
M  V30 9004 O 846.104 -1.8244 3.05932 0
M  V30 9005 O 844.963 -3.01196 4.56008 0
M  V30 9006 H 842.057 -0.485032 0.669831 0
M  V30 9007 H 844.603 -0.291659 1.67175 0
M  V30 9008 H 843.375 -0.997351 3.78376 0
M  V30 9009 H 842.998 -2.54839 3.05193 0
M  V30 9010 N 843.995 -1.47404 -0.557645 0
M  V30 9011 C 845.243 -1.53703 -1.31224 0
M  V30 9012 C 845.564 -0.200742 -1.93964 0
M  V30 9013 O 844.834 0.775253 -1.79907 0
M  V30 9014 H 843.414 -0.566171 -0.487299 0
M  V30 9015 H 846.076 -1.83699 -0.651195 0
M  V30 9016 H 845.172 -2.30335 -2.10599 0
M  V30 9017 N 845.473 0.80434 -1.35529 0
M  V30 9018 C 846.698 1.598 -1.32207 0
M  V30 9019 C 847.123 1.87848 0.0974226 0
M  V30 9020 O 846.481 1.46728 1.06492 0
M  V30 9021 C 846.529 2.90483 -2.13663 0
M  V30 9022 O 845.633 3.83411 -1.51888 0
M  V30 9023 H 844.974 0.485305 -0.453183 0
M  V30 9024 H 847.504 0.998119 -1.78602 0
M  V30 9025 H 847.514 3.39888 -2.257 0
M  V30 9026 H 846.189 2.69395 -3.16859 0
M  V30 9027 H 844.766 3.41967 -1.48704 0
M  V30 9028 N 846.951 1.19563 1.02676 0
M  V30 9029 C 847.861 0.950691 2.14474 0
M  V30 9030 C 848.877 -0.0900219 1.73767 0
M  V30 9031 O 850.053 0.0951063 2.01175 0
M  V30 9032 C 847.118 0.494917 3.43149 0
M  V30 9033 C 846.179 1.60527 3.98158 0
M  V30 9034 C 845.412 1.17115 5.20692 0
M  V30 9035 O 845.635 0.0355937 5.70389 0
M  V30 9036 O 844.569 1.97454 5.68591 0
M  V30 9037 H 848.395 1.88651 2.38001 0
M  V30 9038 H 845.98 0.978635 1.12885 0
M  V30 9039 H 847.862 0.249492 4.20661 0
M  V30 9040 H 846.537 -0.412434 3.21062 0
M  V30 9041 H 845.444 1.90487 3.21971 0
M  V30 9042 H 846.777 2.48925 4.24614 0
M  V30 9043 N 848.429 -1.21819 0.999893 0
M  V30 9044 C 849.392 -2.22227 0.561044 0
M  V30 9045 C 850.392 -1.56722 -0.359858 0
M  V30 9046 O 851.582 -1.73546 -0.150848 0
M  V30 9047 C 848.714 -3.40409 -0.182987 0
M  V30 9048 H 849.907 -2.62567 1.44909 0
M  V30 9049 H 847.46 -1.34991 0.78785 0
M  V30 9050 H 848.195 -3.05551 -1.08671 0
M  V30 9051 H 847.98 -3.89171 0.47833 0
M  V30 9052 H 849.47 -4.14856 -0.477952 0
M  V30 9053 N 849.908 -0.773975 -1.37286 0
M  V30 9054 C 851.138 -0.350249 -2.03609 0
M  V30 9055 C 851.546 1.03313 -1.58502 0
M  V30 9056 O 850.889 1.67118 -0.7627 0
M  V30 9057 C 850.951 -0.317215 -3.58098 0
M  V30 9058 C 850.615 -1.64556 -4.26345 0
M  V30 9059 C 851.612 -2.59839 -4.50311 0
M  V30 9060 C 849.297 -1.92061 -4.64131 0
M  V30 9061 C 851.291 -3.80833 -5.11122 0
M  V30 9062 C 848.978 -3.13325 -5.24663 0
M  V30 9063 C 849.976 -4.0753 -5.48095 0
M  V30 9064 O 849.664 -5.26658 -6.0736 0
M  V30 9065 H 849.396 -0.144456 -0.660385 0
M  V30 9066 H 851.95 -1.0496 -1.76557 0
M  V30 9067 H 850.18 0.438528 -3.84205 0
M  V30 9068 H 851.869 0.0797428 -4.05822 0
M  V30 9069 H 852.635 -2.39872 -4.21529 0
M  V30 9070 H 848.514 -1.19562 -4.45226 0
M  V30 9071 H 852.058 -4.54377 -5.29327 0
M  V30 9072 H 847.955 -3.33177 -5.52869 0
M  V30 9073 H 848.723 -5.27513 -6.25837 0
M  V30 9074 N 851.386 1.48609 -0.524698 0
M  V30 9075 C 852.802 1.58557 -0.182199 0
M  V30 9076 C 853.002 1.52732 1.31435 0
M  V30 9077 O 852.058 1.41362 2.0922 0
M  V30 9078 C 853.371 2.90406 -0.78004 0
M  V30 9079 C 854.919 3.03924 -0.748293 0
M  V30 9080 C 855.394 4.38427 -1.32462 0
M  V30 9081 N 856.885 4.4498 -1.28635 0
M  V30 9082 C 857.62 5.47551 -1.70223 0
M  V30 9083 N 857.116 6.57103 -2.19515 0
M  V30 9084 N 858.909 5.38402 -1.61493 0
M  V30 9085 H 851.06 1.50638 -1.4974 0
M  V30 9086 H 853.323 0.714952 -0.622533 0
M  V30 9087 H 853.029 3.00308 -1.83052 0
M  V30 9088 H 852.903 3.76343 -0.254075 0
M  V30 9089 H 855.29 2.93638 0.293407 0
M  V30 9090 H 855.371 2.19611 -1.31167 0
M  V30 9091 H 855.015 4.49466 -2.36522 0
M  V30 9092 H 854.945 5.21418 -0.736967 0
M  V30 9093 H 857.436 3.66393 -0.92545 0
M  V30 9094 H 857.749 7.31499 -2.49257 0
M  V30 9095 H 856.094 6.58081 -2.23506 0
M  V30 9096 H 859.285 4.5171 -1.22785 0
M  V30 9097 H 859.458 6.18208 -1.94225 0
M  V30 9098 N 852.864 0.259585 1.55447 0
M  V30 9099 C 854.275 -0.241165 1.85136 0
M  V30 9100 C 854.626 -1.56634 1.18153 0
M  V30 9101 O 853.751 -2.11359 0.464351 0
M  V30 9102 C 854.346 -0.444355 3.35873 0
M  V30 9103 C 852.905 -0.889354 3.65742 0
M  V30 9104 C 852.052 0.0262474 2.77288 0
M  V30 9105 H 855.003 0.481808 1.51209 0
M  V30 9106 H 855.024 -1.28517 3.58139 0
M  V30 9107 H 854.536 0.520289 3.84597 0
M  V30 9108 H 852.637 -1.86602 3.22507 0
M  V30 9109 H 852.75 -0.737432 4.73391 0
M  V30 9110 H 851.114 -0.487361 2.49994 0
M  V30 9111 H 851.897 0.986494 3.28821 0
M  V30 9112 N 854.342 -1.57594 -0.0133615 0
M  V30 9113 C 855.59 -1.89605 -0.699596 0
M  V30 9114 C 855.911 -0.85926 -1.75048 0
M  V30 9115 O 855.181 0.105112 -1.95618 0
M  V30 9116 H 853.761 -0.699776 -0.261385 0
M  V30 9117 H 856.423 -1.94885 0.0244044 0
M  V30 9118 H 855.519 -2.88962 -1.17928 0
M  V30 9119 N 855.82 0.285905 -1.54985 0
M  V30 9120 C 857.048 1.03776 -1.78992 0
M  V30 9121 C 857.463 1.80402 -0.556814 0
M  V30 9122 O 856.82 1.76242 0.473801 0
M  V30 9123 C 856.871 2.0065 -3.00702 0
M  V30 9124 O 856.592 1.27131 -4.19249 0
M  V30 9125 C 858.093 2.87753 -3.37214 0
M  V30 9126 H 855.313 0.307126 -0.596586 0
M  V30 9127 H 857.857 0.3206 -2.01971 0
M  V30 9128 H 856.012 2.67847 -2.79887 0
M  V30 9129 H 856.426 1.92316 -4.8797 0
M  V30 9130 H 857.9 3.51548 -4.2558 0
M  V30 9131 H 858.377 3.56848 -2.56039 0
M  V30 9132 H 858.983 2.26065 -3.60242 0
M  V30 9133 N 857.298 1.47698 0.54982 0
M  V30 9134 C 858.526 1.5833 1.33188 0
M  V30 9135 C 858.941 0.236193 1.87317 0
M  V30 9136 O 858.298 -0.77167 1.65383 0
M  V30 9137 C 858.349 2.61438 2.49664 0
M  V30 9138 O 858.07 3.9092 1.97771 0
M  V30 9139 C 859.571 2.82324 3.41772 0
M  V30 9140 H 856.791 0.53443 0.405741 0
M  V30 9141 H 859.335 1.93375 0.665309 0
M  V30 9142 H 857.49 2.29307 3.12245 0
M  V30 9143 H 857.904 4.47323 2.73866 0
M  V30 9144 H 859.378 3.58316 4.19897 0
M  V30 9145 H 859.855 1.90416 3.95776 0
M  V30 9146 H 860.461 3.15682 2.85 0
M  V30 9147 N 858.776 -0.797141 1.35954 0
M  V30 9148 C 859.708 -1.91782 1.25509 0
M  V30 9149 C 860.721 -1.61843 0.176271 0
M  V30 9150 O 861.91 -1.73235 0.430343 0
M  V30 9151 C 859.01 -3.26396 0.912073 0
M  V30 9152 C 858.183 -3.84171 2.0912 0
M  V30 9153 C 857.242 -4.9721 1.72246 0
M  V30 9154 O 856.268 -5.14136 2.44239 0
M  V30 9155 N 857.47 -5.76831 0.651611 0
M  V30 9156 H 860.235 -2.01266 2.22063 0
M  V30 9157 H 857.796 -0.975033 1.29247 0
M  V30 9158 H 859.788 -3.99499 0.646707 0
M  V30 9159 H 858.358 -3.12579 0.0359079 0
M  V30 9160 H 857.578 -3.03148 2.51982 0
M  V30 9161 H 858.866 -4.19503 2.87914 0
M  V30 9162 H 858.264 -5.65675 0.0536678 0
M  V30 9163 H 856.821 -6.50272 0.44605 0
M  V30 9164 N 860.254 -1.20106 -1.0204 0
M  V30 9165 C 861.67 -0.955099 -1.27867 0
M  V30 9166 C 861.87 0.367595 -1.98119 0
M  V30 9167 O 860.926 1.09705 -2.27423 0
M  V30 9168 C 862.239 -2.13507 -2.11744 0
M  V30 9169 C 863.787 -2.17563 -2.25023 0
M  V30 9170 C 864.262 -3.35035 -3.12275 0
M  V30 9171 N 865.753 -3.35024 -3.19864 0
M  V30 9172 C 866.488 -4.22566 -3.8759 0
M  V30 9173 N 865.984 -5.20278 -4.57474 0
M  V30 9174 N 867.777 -4.10418 -3.84075 0
M  V30 9175 H 859.928 -2.05193 -0.54861 0
M  V30 9176 H 862.191 -0.897689 -0.304728 0
M  V30 9177 H 861.897 -3.09275 -1.67456 0
M  V30 9178 H 861.771 -2.11281 -3.12474 0
M  V30 9179 H 864.158 -1.22359 -2.68537 0
M  V30 9180 H 864.239 -2.23838 -1.23815 0
M  V30 9181 H 863.883 -4.30522 -2.69468 0
M  V30 9182 H 863.813 -3.25996 -4.13563 0
M  V30 9183 H 866.304 -2.64299 -2.701 0
M  V30 9184 H 866.617 -5.83408 -5.06809 0
M  V30 9185 H 864.962 -5.24219 -4.56311 0
M  V30 9186 H 868.153 -3.33353 -3.28623 0
M  V30 9187 H 868.326 -4.78854 -4.36581 0
M  V30 9188 N 861.732 1.21287 -1.00634 0
M  V30 9189 C 862.978 1.90671 -0.690822 0
M  V30 9190 C 863.311 1.77996 0.776592 0
M  V30 9191 O 862.586 1.15748 1.5631 0
M  V30 9192 C 862.869 3.42426 -1.11428 0
M  V30 9193 C 862.722 3.64086 -2.64124 0
M  V30 9194 C 864.041 4.34851 -0.677686 0
M  V30 9195 H 861.16 0.692419 -0.252439 0
M  V30 9196 H 863.802 1.42893 -1.25226 0
M  V30 9197 H 861.952 3.83249 -0.636586 0
M  V30 9198 H 863.624 3.32582 -3.19667 0
M  V30 9199 H 861.867 3.07906 -3.05576 0
M  V30 9200 H 862.538 4.7042 -2.88806 0
M  V30 9201 H 865.014 4.01619 -1.0882 0
M  V30 9202 H 863.89 5.39675 -1.00213 0
M  V30 9203 H 864.151 4.4009 0.421125 0
M  V30 9204 N 863.21 0.781244 1.36873 0
M  V30 9205 C 864.621 0.414093 1.8205 0
M  V30 9206 C 864.972 -1.06098 1.65039 0
M  V30 9207 O 864.097 -1.82251 1.16677 0
M  V30 9208 C 864.692 0.744837 3.30511 0
M  V30 9209 C 863.251 0.430621 3.73929 0
M  V30 9210 C 862.398 0.983746 2.59264 0
M  V30 9211 H 865.349 0.975091 1.2521 0
M  V30 9212 H 865.37 0.032936 3.80486 0
M  V30 9213 H 864.882 1.81847 3.42861 0
M  V30 9214 H 862.983 -0.635308 3.67144 0
M  V30 9215 H 863.096 0.945514 4.69677 0
M  V30 9216 H 861.46 0.407433 2.5142 0
M  V30 9217 H 862.243 2.06297 2.74402 0
M  V30 9218 N 864.689 -1.48329 0.532571 0
M  V30 9219 C 865.652 -2.2816 -0.218069 0
M  V30 9220 C 866.652 -1.35526 -0.865409 0
M  V30 9221 O 867.842 -1.58394 -0.725061 0
M  V30 9222 C 864.974 -3.1448 -1.31586 0
M  V30 9223 H 866.167 -2.95987 0.482865 0
M  V30 9224 H 863.72 -1.53612 0.288603 0
M  V30 9225 H 864.455 -2.5129 -2.04997 0
M  V30 9226 H 864.24 -3.82625 -0.856779 0
M  V30 9227 H 865.73 -3.74693 -1.84377 0
M  V30 9228 N 866.167 -0.267825 -1.55308 0
M  V30 9229 C 867.13 0.60965 -2.20943 0
M  V30 9230 C 868.13 1.0869 -1.18504 0
M  V30 9231 O 869.32 0.988248 -1.43455 0
M  V30 9232 C 866.452 1.84027 -2.86961 0
M  V30 9233 H 867.645 0.0366806 -2.99878 0
M  V30 9234 H 865.198 -0.0183941 -1.56289 0
M  V30 9235 H 865.933 2.45394 -2.1202 0
M  V30 9236 H 865.718 1.50605 -3.62023 0
M  V30 9237 H 867.208 2.46442 -3.37129 0
M  V30 9238 N 867.645 1.57599 0.00500368 0
M  V30 9239 C 868.87 1.95026 0.705663 0
M  V30 9240 C 869.295 0.869643 1.6679 0
M  V30 9241 O 868.653 -0.172659 1.80476 0
M  V30 9242 C 868.701 3.31545 1.4181 0
M  V30 9243 O 867.805 3.25495 2.53232 0
M  V30 9244 H 867.146 0.636808 0.188074 0
M  V30 9245 H 869.676 2.04547 -0.046696 0
M  V30 9246 H 869.686 3.66996 1.78265 0
M  V30 9247 H 868.361 4.09751 0.712543 0
M  V30 9248 H 866.938 3.01714 2.19142 0
M  V30 9249 N 869.123 -0.277682 1.55134 0
M  V30 9250 C 870.534 -0.849063 1.66276 0
M  V30 9251 C 870.885 -1.87223 0.5867 0
M  V30 9252 O 870.01 -2.14676 -0.272635 0
M  V30 9253 C 870.605 -1.54681 3.01429 0
M  V30 9254 C 869.164 -2.06628 3.14614 0
M  V30 9255 C 868.311 -0.906748 2.62056 0
M  V30 9256 H 871.262 -0.0541357 1.58608 0
M  V30 9257 H 871.283 -2.41356 2.94156 0
M  V30 9258 H 870.795 -0.80189 3.79725 0
M  V30 9259 H 868.896 -2.84095 2.41082 0
M  V30 9260 H 869.009 -2.2848 4.2111 0
M  V30 9261 H 867.373 -1.29882 2.19095 0
M  V30 9262 H 868.156 -0.175414 3.42852 0
M  V30 9263 N 870.601 -1.47988 -0.541979 0
M  V30 9264 C 871.826 -1.59286 -1.32826 0
M  V30 9265 C 872.251 -0.24894 -1.86445 0
M  V30 9266 O 871.609 0.777581 -1.63778 0
M  V30 9267 C 871.657 -2.6334 -2.46343 0
M  V30 9268 O 870.761 -2.19667 -3.49028 0
M  V30 9269 H 870.102 -0.534543 -0.393903 0
M  V30 9270 H 872.632 -1.93885 -0.653427 0
M  V30 9271 H 872.642 -2.84238 -2.92699 0
M  V30 9272 H 871.317 -3.60913 -2.06675 0
M  V30 9273 H 869.894 -2.08932 -3.08872 0
M  V30 9274 N 872.079 0.78992 -1.36375 0
M  V30 9275 C 873.042 1.88414 -1.30509 0
M  V30 9276 C 874.042 1.59384 -0.2129 0
M  V30 9277 O 875.232 1.67805 -0.467651 0
M  V30 9278 C 872.364 3.25188 -1.02302 0
M  V30 9279 H 873.557 1.95031 -2.27822 0
M  V30 9280 H 871.11 0.987664 -1.2114 0
M  V30 9281 H 871.845 3.24254 -0.0544486 0
M  V30 9282 H 871.63 3.47647 -1.81338 0
M  V30 9283 H 873.12 4.05252 -1.00801 0
M  V30 9284 N 873.557 1.20646 1.01402 0
M  V30 9285 C 874.507 0.925209 2.08384 0
M  V30 9286 C 875.491 -0.115994 1.60481 0
M  V30 9287 O 876.683 0.0917276 1.76762 0
M  V30 9288 C 873.812 0.48193 3.399 0
M  V30 9289 C 872.898 1.5567 3.94497 0
M  V30 9290 N 873.289 2.77971 4.2257 0
M  V30 9291 C 871.587 1.42347 4.22674 0
M  V30 9292 C 872.288 3.47317 4.66632 0
M  V30 9293 N 871.264 2.74736 4.69064 0
M  V30 9294 H 875.066 1.85452 2.28002 0
M  V30 9295 H 872.58 1.10084 1.19395 0
M  V30 9296 H 874.577 0.261835 4.16077 0
M  V30 9297 H 873.237 -0.440725 3.21695 0
M  V30 9298 H 874.248 3.14598 4.11398 0
M  V30 9299 H 870.925 0.565417 4.13654 0
M  V30 9300 H 872.315 4.51985 4.97151 0
M  V30 9301 N 875.035 -1.20752 1.01276 0
M  V30 9302 C 876.26 -1.94547 0.718769 0
M  V30 9303 C 876.685 -1.7404 -0.713563 0
M  V30 9304 O 876.043 -1.03221 -1.49047 0
M  V30 9305 C 876.091 -3.44823 1.05497 0
M  V30 9306 O 875.195 -4.12072 0.164516 0
M  V30 9307 H 874.536 -0.607931 0.267051 0
M  V30 9308 H 877.066 -1.53292 1.35509 0
M  V30 9309 H 877.076 -3.95427 1.00507 0
M  V30 9310 H 875.751 -3.59072 2.09858 0
M  V30 9311 H 874.328 -3.71909 0.271615 0
M  V30 9312 N 876.513 -0.788492 -1.36457 0
M  V30 9313 C 877.762 -0.357052 -1.98515 0
M  V30 9314 C 878.075 1.0769 -1.63285 0
M  V30 9315 O 879.281 1.61057 -2.1857 0
M  V30 9316 C 877.737 -0.587449 -3.55073 0
M  V30 9317 C 877.345 -2.03276 -3.99228 0
M  V30 9318 C 879.089 -0.220468 -4.23927 0
M  V30 9319 C 876.996 -2.20987 -5.48561 0
M  V30 9320 H 875.926 -0.129762 -0.74275 0
M  V30 9321 H 878.577 -0.969995 -1.55767 0
M  V30 9322 H 876.959 0.0951918 -3.95886 0
M  V30 9323 H 878.133 -2.75173 -3.69617 0
M  V30 9324 H 876.448 -2.3579 -3.43208 0
M  V30 9325 H 879.045 -0.331085 -5.33674 0
M  V30 9326 H 879.388 0.831306 -4.07915 0
M  V30 9327 H 879.921 -0.856309 -3.88474 0
M  V30 9328 H 876.66 -3.24543 -5.69519 0
M  V30 9329 H 876.18 -1.53594 -5.79801 0
M  V30 9330 H 877.859 -2.01656 -6.14771 0
M  V30 9331 N 877.991 1.48044 -0.54043 0
M  V30 9332 C 879.216 2.07396 -0.0124765 0
M  V30 9333 C 879.641 1.39288 1.26414 0
M  V30 9334 O 878.999 0.462252 1.75308 0
M  V30 9335 C 879.047 3.60131 0.18377 0
M  V30 9336 O 878.151 3.92995 1.25014 0
M  V30 9337 H 877.492 0.662554 -0.0438026 0
M  V30 9338 H 880.022 1.90306 -0.751327 0
M  V30 9339 H 880.032 4.06003 0.403197 0
M  V30 9340 H 878.707 4.09105 -0.74874 0
M  V30 9341 H 877.284 3.5889 1.01254 0
M  V30 9342 N 879.47 0.276058 1.55163 0
M  V30 9343 C 880.698 -0.343772 2.04024 0
M  V30 9344 C 881.113 -1.49397 1.15438 0
M  V30 9345 O 880.47 -1.81662 0.174692 0
M  V30 9346 C 880.521 -0.823885 3.51986 0
M  V30 9347 O 880.242 0.280507 4.37201 0
M  V30 9348 C 881.743 -1.51143 4.16738 0
M  V30 9349 H 878.963 -0.07828 0.666418 0
M  V30 9350 H 881.507 0.408427 2.0038 0
M  V30 9351 H 879.662 -1.52617 3.56071 0
M  V30 9352 H 880.076 -0.0887831 5.24425 0
M  V30 9353 H 881.55 -1.79878 5.2187 0
M  V30 9354 H 882.027 -2.44327 3.64967 0
M  V30 9355 H 882.633 -0.852975 4.16659 0
M  V30 9356 N 880.948 -1.576 0.00335426 0
M  V30 9357 C 881.911 -2.07576 -0.971838 0
M  V30 9358 C 882.911 -0.985796 -1.27038 0
M  V30 9359 O 884.101 -1.24833 -1.21501 0
M  V30 9360 C 881.233 -2.52003 -2.29581 0
M  V30 9361 H 882.426 -2.95008 -0.539481 0
M  V30 9362 H 879.979 -1.54381 -0.244186 0
M  V30 9363 H 880.714 -1.67825 -2.77498 0
M  V30 9364 H 880.499 -3.31609 -2.09231 0
M  V30 9365 H 881.989 -2.90983 -2.99531 0
M  V30 9366 N 882.426 0.269451 -1.5528 0
M  V30 9367 C 883.654 1.01872 -1.80082 0
M  V30 9368 C 884.069 1.79802 -0.575917 0
M  V30 9369 O 883.426 1.76735 0.455081 0
M  V30 9370 C 883.477 1.9745 -3.02813 0
M  V30 9371 O 883.198 1.22677 -4.20573 0
M  V30 9372 C 884.699 2.8416 -3.40247 0
M  V30 9373 H 881.919 0.300781 -0.59981 0
M  V30 9374 H 884.463 0.29916 -2.023 0
M  V30 9375 H 882.618 2.64864 -2.82712 0
M  V30 9376 H 883.032 1.87129 -4.89982 0
M  V30 9377 H 884.506 3.47014 -4.29284 0
M  V30 9378 H 884.983 3.54113 -2.59809 0
M  V30 9379 H 885.589 2.22232 -3.6262 0
M  V30 9380 N 883.904 1.48273 0.534124 0
M  V30 9381 C 885.315 1.49667 1.1161 0
M  V30 9382 C 885.666 0.264139 1.94414 0
M  V30 9383 O 884.791 -0.629084 2.07054 0
M  V30 9384 C 885.386 2.71191 2.03079 0
M  V30 9385 C 883.945 2.7547 2.56502 0
M  V30 9386 C 883.092 2.43119 1.33373 0
M  V30 9387 H 886.043 1.55449 0.319578 0
M  V30 9388 H 886.064 2.49473 2.87304 0
M  V30 9389 H 885.576 3.60879 1.42785 0
M  V30 9390 H 883.677 1.89979 3.20529 0
M  V30 9391 H 883.79 3.76787 2.95919 0
M  V30 9392 H 882.154 1.94187 1.64813 0
M  V30 9393 H 882.937 3.35044 0.748375 0
M  V30 9394 N 885.382 -0.782676 1.36792 0
M  V30 9395 C 886.659 -1.52939 1.21939 0
M  V30 9396 C 887.039 -2.10228 -0.191639 0
M  V30 9397 O 886.387 -1.94574 -1.19805 0
M  V30 9398 C 886.597 -2.61898 2.30674 0
M  V30 9399 C 887.945 -3.29598 2.67676 0
M  V30 9400 O 888.969 -2.72186 2.29768 0
M  V30 9401 O 887.828 -4.3337 3.32946 0
M  V30 9402 H 884.922 -0.676856 0.47518 0
M  V30 9403 H 887.468 -0.82058 1.48542 0
M  V30 9404 H 886.24 -2.17607 3.25212 0
M  V30 9405 H 885.863 -3.40391 2.05475 0
M  V30 9406 N 886.86 -1.21182 -1.00761 0
M  V30 9407 C 888.276 -0.968607 -1.26847 0
M  V30 9408 C 888.476 0.346561 -1.98497 0
M  V30 9409 O 887.532 1.07287 -2.28573 0
M  V30 9410 C 888.845 -2.1574 -2.09467 0
M  V30 9411 C 890.393 -2.19937 -2.22703 0
M  V30 9412 C 890.868 -3.38328 -3.08704 0
M  V30 9413 N 892.359 -3.38398 -3.16293 0
M  V30 9414 C 893.094 -4.26653 -3.83086 0
M  V30 9415 N 892.59 -5.25101 -4.5193 0
M  V30 9416 N 894.383 -4.14469 -3.797 0
M  V30 9417 H 886.534 -2.05763 -0.526816 0
M  V30 9418 H 888.797 -0.90087 -0.29519 0
M  V30 9419 H 888.503 -3.11034 -1.64167 0
M  V30 9420 H 888.377 -2.14584 -3.10216 0
M  V30 9421 H 890.764 -1.25201 -2.67224 0
M  V30 9422 H 890.845 -2.25139 -1.21433 0
M  V30 9423 H 890.489 -4.33356 -2.64886 0
M  V30 9424 H 890.419 -3.30364 -4.10082 0
M  V30 9425 H 892.91 -2.67149 -2.67282 0
M  V30 9426 H 893.223 -5.8875 -5.00592 0
M  V30 9427 H 891.568 -5.29029 -4.50726 0
M  V30 9428 H 894.759 -3.3682 -3.25069 0
M  V30 9429 H 894.932 -4.83458 -4.31477 0
M  V30 9430 N 888.338 1.20213 -1.01915 0
M  V30 9431 C 889.566 1.93622 -0.729255 0
M  V30 9432 C 889.981 1.74923 0.710444 0
M  V30 9433 O 889.338 1.06484 1.48214 0
M  V30 9434 C 889.389 3.45651 -1.05865 0
M  V30 9435 O 889.11 3.63741 -2.44181 0
M  V30 9436 C 890.611 4.36201 -0.790176 0
M  V30 9437 H 887.831 0.615333 -0.267594 0
M  V30 9438 H 890.375 1.52633 -1.36101 0
M  V30 9439 H 888.53 3.84511 -0.47225 0
M  V30 9440 H 888.944 4.57702 -2.56143 0
M  V30 9441 H 890.418 5.41516 -1.07071 0
M  V30 9442 H 890.895 4.38334 0.275609 0
M  V30 9443 H 891.501 4.03008 -1.35885 0
M  V30 9444 N 889.816 0.795718 1.36037 0
M  V30 9445 C 891.232 0.478145 1.52269 0
M  V30 9446 C 891.432 -1.0025 1.74792 0
M  V30 9447 O 890.488 -1.78783 1.78305 0
M  V30 9448 C 891.801 1.31406 2.70468 0
M  V30 9449 C 893.349 1.3084 2.84341 0
M  V30 9450 C 893.824 2.12819 4.05551 0
M  V30 9451 N 895.315 2.10298 4.12709 0
M  V30 9452 C 896.05 2.70495 5.05589 0
M  V30 9453 N 895.546 3.39576 6.03871 0
M  V30 9454 N 897.339 2.60195 4.98252 0
M  V30 9455 H 889.49 1.75477 1.19673 0
M  V30 9456 H 891.753 0.74627 0.584624 0
M  V30 9457 H 891.459 2.36435 2.60368 0
M  V30 9458 H 891.333 0.959726 3.64786 0
M  V30 9459 H 893.72 0.266003 2.93899 0
M  V30 9460 H 893.801 1.70254 1.90912 0
M  V30 9461 H 893.445 3.17093 3.96755 0
M  V30 9462 H 893.375 1.70772 4.98141 0
M  V30 9463 H 895.866 1.60026 3.42345 0
M  V30 9464 H 896.179 3.82823 6.71317 0
M  V30 9465 H 894.524 3.43679 6.04077 0
M  V30 9466 H 897.715 2.05823 4.20422 0
M  V30 9467 H 897.888 3.074 5.70447 0
M  V30 9468 N 891.294 -1.47756 0.548274 0
M  V30 9469 C 892.541 -2.02489 0.0208955 0
M  V30 9470 C 892.869 -1.42356 -1.32533 0
M  V30 9471 O 892.124 -0.565448 -1.87353 0
M  V30 9472 C 892.423 -3.5716 -0.131069 0
M  V30 9473 C 892.089 -4.36169 1.14313 0
M  V30 9474 C 890.751 -4.57476 1.4923 0
M  V30 9475 C 893.103 -4.81801 1.9879 0
M  V30 9476 C 890.431 -5.21662 2.68487 0
M  V30 9477 C 892.783 -5.47303 3.17242 0
M  V30 9478 C 891.447 -5.66844 3.52483 0
M  V30 9479 H 890.717 -0.740961 0.00764621 0
M  V30 9480 H 893.364 -1.77531 0.717987 0
M  V30 9481 H 891.669 -3.8106 -0.911063 0
M  V30 9482 H 893.366 -3.9715 -0.55433 0
M  V30 9483 H 889.956 -4.19858 0.861235 0
M  V30 9484 H 894.14 -4.65126 1.73123 0
M  V30 9485 H 889.396 -5.34987 2.95971 0
M  V30 9486 H 893.57 -5.81626 3.82994 0
M  V30 9487 H 891.197 -6.16352 4.44988 0
M  V30 9488 N 892.772 -0.284283 -1.55015 0
M  V30 9489 C 894.183 0.211681 -1.85496 0
M  V30 9490 C 894.534 1.54735 -1.2063 0
M  V30 9491 O 893.659 2.10594 -0.497918 0
M  V30 9492 C 894.254 0.390864 -3.36538 0
M  V30 9493 C 892.813 0.831055 -3.67111 0
M  V30 9494 C 891.96 -0.0703581 -2.77211 0
M  V30 9495 H 894.911 -0.505803 -1.50424 0
M  V30 9496 H 894.932 1.22803 -3.60138 0
M  V30 9497 H 894.444 -0.581409 -3.8372 0
M  V30 9498 H 892.545 1.81447 -3.25434 0
M  V30 9499 H 892.658 0.662026 -4.74504 0
M  V30 9500 H 891.022 0.447528 -2.50737 0
M  V30 9501 H 891.805 -1.03868 -3.2721 0
M  V30 9502 N 894.251 1.57596 -0.0117121 0
M  V30 9503 C 895.667 1.55837 0.344506 0
M  V30 9504 C 895.867 1.01557 1.74036 0
M  V30 9505 O 894.923 0.654563 2.43868 0
M  V30 9506 C 896.236 2.99973 0.209023 0
M  V30 9507 C 897.784 3.11717 0.283092 0
M  V30 9508 C 898.259 4.57659 0.176599 0
M  V30 9509 N 899.75 4.62608 0.234133 0
M  V30 9510 C 900.485 5.73132 0.175252 0
M  V30 9511 N 899.981 6.92768 0.0662888 0
M  V30 9512 N 901.774 5.61638 0.227972 0
M  V30 9513 H 893.925 1.91215 -0.924692 0
M  V30 9514 H 896.188 0.878807 -0.355531 0
M  V30 9515 H 895.894 3.4357 -0.751826 0
M  V30 9516 H 895.768 3.64075 0.98635 0
M  V30 9517 H 898.155 2.68043 1.23439 0
M  V30 9518 H 898.236 2.50369 -0.52431 0
M  V30 9519 H 897.88 5.02011 -0.771205 0
M  V30 9520 H 897.81 5.16967 1.00264 0
M  V30 9521 H 900.301 3.76549 0.319203 0
M  V30 9522 H 900.614 7.72795 0.0275765 0
M  V30 9523 H 898.959 6.94993 0.0317502 0
M  V30 9524 H 902.15 4.67063 0.311377 0
M  V30 9525 H 902.323 6.47754 0.178621 0
M  V30 9526 N 895.729 -0.261212 1.5542 0
M  V30 9527 C 896.977 -0.989272 1.76232 0
M  V30 9528 C 897.298 -1.86389 0.573067 0
M  V30 9529 O 896.568 -1.91526 -0.41166 0
M  V30 9530 H 895.148 -0.368256 0.64992 0
M  V30 9531 H 897.81 -0.282603 1.9284 0
M  V30 9532 H 896.906 -1.61935 2.66802 0
M  V30 9533 N 897.207 -1.48554 -0.526253 0
M  V30 9534 C 898.432 -1.60686 -1.31129 0
M  V30 9535 C 898.857 -0.268701 -1.86171 0
M  V30 9536 O 898.215 0.760167 -1.64594 0
M  V30 9537 C 898.263 -2.65938 -2.43536 0
M  V30 9538 O 897.367 -2.23356 -3.46678 0
M  V30 9539 H 896.708 -0.538691 -0.388211 0
M  V30 9540 H 899.238 -1.94567 -0.632826 0
M  V30 9541 H 899.248 -2.87327 -2.89668 0
M  V30 9542 H 897.923 -3.63085 -2.02835 0
M  V30 9543 H 896.5 -2.12196 -3.06639 0
M  V30 9544 N 898.685 0.775411 -1.37205 0
M  V30 9545 C 899.91 1.5696 -1.35567 0
M  V30 9546 C 900.335 1.88012 0.0575554 0
M  V30 9547 O 899.693 1.48954 1.03355 0
M  V30 9548 C 899.741 2.85886 -2.19776 0
M  V30 9549 O 898.845 3.80103 -1.59987 0
M  V30 9550 H 898.186 0.475583 -0.463375 0
M  V30 9551 H 900.716 0.96001 -1.80679 0
M  V30 9552 H 900.726 3.35024 -2.32859 0
M  V30 9553 H 899.401 2.62613 -3.22502 0
M  V30 9554 H 897.978 3.38736 -1.55924 0
M  V30 9555 N 900.163 1.21714 1.00117 0
M  V30 9556 C 901.388 1.06357 1.78054 0
M  V30 9557 C 901.813 -0.382075 1.84179 0
M  V30 9558 O 901.171 -1.27575 1.28819 0
M  V30 9559 C 901.219 1.66982 3.19608 0
M  V30 9560 O 900.323 0.917892 4.02055 0
M  V30 9561 H 899.664 0.374074 0.548602 0
M  V30 9562 H 902.194 1.61338 1.25822 0
M  V30 9563 H 902.204 1.71363 3.70268 0
M  V30 9564 H 900.879 2.72185 3.14465 0
M  V30 9565 H 899.456 0.949473 3.6061 0
M  V30 9566 N 901.641 -1.19671 1.02551 0
M  V30 9567 C 903.057 -1.41305 0.741963 0
M  V30 9568 C 903.257 -1.89865 -0.674807 0
M  V30 9569 O 902.313 -2.07323 -1.44129 0
M  V30 9570 C 903.626 -2.42706 1.77522 0
M  V30 9571 C 905.174 -2.56458 1.79438 0
M  V30 9572 C 905.649 -3.61111 2.81715 0
M  V30 9573 N 907.14 -3.68603 2.8051 0
M  V30 9574 C 907.875 -4.49262 3.56302 0
M  V30 9575 N 907.371 -5.33653 4.41799 0
M  V30 9576 N 909.164 -4.43879 3.44859 0
M  V30 9577 H 901.315 -0.8647 1.94002 0
M  V30 9578 H 903.578 -0.442206 0.838545 0
M  V30 9579 H 903.284 -2.14042 2.79068 0
M  V30 9580 H 903.158 -3.41831 1.59472 0
M  V30 9581 H 905.545 -2.84447 0.78573 0
M  V30 9582 H 905.626 -1.57499 2.01563 0
M  V30 9583 H 905.27 -3.33864 3.82749 0
M  V30 9584 H 905.2 -4.59713 2.56849 0
M  V30 9585 H 907.691 -3.08329 2.18498 0
M  V30 9586 H 908.004 -5.92308 4.96378 0
M  V30 9587 H 906.349 -5.33125 4.45873 0
M  V30 9588 H 909.54 -3.7699 2.77482 0
M  V30 9589 H 909.713 -5.06501 4.04179 0
M  V30 9590 N 903.119 -0.802921 -1.35613 0
M  V30 9591 C 904.344 -0.392846 -2.03645 0
M  V30 9592 C 904.769 0.987075 -1.6012 0
M  V30 9593 O 904.127 1.63849 -0.776101 0
M  V30 9594 C 904.175 -0.480208 -3.57388 0
M  V30 9595 O 903.279 0.507751 -4.09262 0
M  V30 9596 H 902.62 -0.16464 -0.643265 0
M  V30 9597 H 905.15 -1.08779 -1.73287 0
M  V30 9598 H 905.16 -0.348683 -4.06507 0
M  V30 9599 H 903.835 -1.48675 -3.88418 0
M  V30 9600 H 902.412 0.336769 -3.71376 0
M  V30 9601 N 904.597 1.47463 -0.556102 0
M  V30 9602 C 905.825 2.06868 -0.0364585 0
M  V30 9603 C 906.24 1.40893 1.25677 0
M  V30 9604 O 905.597 0.505083 1.75371 0
M  V30 9605 C 905.648 3.61128 0.163984 0
M  V30 9606 O 905.369 4.24629 -1.07803 0
M  V30 9607 C 906.87 4.37397 0.721036 0
M  V30 9608 H 904.09 0.669466 -0.0453399 0
M  V30 9609 H 906.634 1.89482 -0.769198 0
M  V30 9610 H 904.789 3.78031 0.84685 0
M  V30 9611 H 905.203 5.17149 -0.875067 0
M  V30 9612 H 906.677 5.46016 0.810584 0
M  V30 9613 H 907.154 4.03604 1.73206 0
M  V30 9614 H 907.76 4.25236 0.073904 0
M  V30 9615 N 906.075 0.2925 1.54862 0
M  V30 9616 C 907.322 -0.319263 1.99967 0
M  V30 9617 C 907.65 -1.54547 1.18092 0
M  V30 9618 O 906.905 -1.94186 0.242969 0
M  V30 9619 C 907.204 -0.728674 3.49893 0
M  V30 9620 C 906.87 0.394836 4.49168 0
M  V30 9621 C 905.532 0.703289 4.76033 0
M  V30 9622 C 907.884 1.15103 5.08331 0
M  V30 9623 C 905.212 1.77121 5.59325 0
M  V30 9624 C 907.564 2.20881 5.92785 0
M  V30 9625 C 906.228 2.52342 6.17964 0
M  V30 9626 H 905.498 -0.116827 0.731733 0
M  V30 9627 H 908.145 0.40983 1.87063 0
M  V30 9628 H 906.45 -1.53772 3.60363 0
M  V30 9629 H 908.147 -1.21305 3.82212 0
M  V30 9630 H 904.737 0.144319 4.28357 0
M  V30 9631 H 908.921 0.92599 4.87585 0
M  V30 9632 H 904.177 2.01978 5.77074 0
M  V30 9633 H 908.351 2.79939 6.37657 0
M  V30 9634 H 905.978 3.35225 6.82296 0
M  V30 9635 N 907.553 -1.57587 0.0200696 0
M  V30 9636 C 908.503 -2.0616 -0.973751 0
M  V30 9637 C 909.487 -0.960282 -1.29102 0
M  V30 9638 O 910.679 -1.22391 -1.27865 0
M  V30 9639 C 907.808 -2.58487 -2.25919 0
M  V30 9640 C 906.894 -3.75533 -1.97068 0
M  V30 9641 N 907.285 -4.86482 -1.38451 0
M  V30 9642 C 905.583 -3.83847 -2.27107 0
M  V30 9643 C 906.284 -5.67773 -1.26527 0
M  V30 9644 N 905.26 -5.14398 -1.75772 0
M  V30 9645 H 909.062 -2.89346 -0.515365 0
M  V30 9646 H 906.576 -1.61341 -0.185163 0
M  V30 9647 H 908.573 -2.91572 -2.97979 0
M  V30 9648 H 907.233 -1.76728 -2.72392 0
M  V30 9649 H 908.244 -5.06922 -1.06069 0
M  V30 9650 H 904.921 -3.12978 -2.76316 0
M  V30 9651 H 906.311 -6.66966 -0.812785 0
M  V30 9652 N 909.032 0.252966 -1.55557 0
M  V30 9653 C 910.28 0.979912 -1.76754 0
M  V30 9654 C 910.601 1.86083 -0.582944 0
M  V30 9655 O 909.871 1.91742 0.401497 0
M  V30 9656 H 908.451 0.364805 -0.651864 0
M  V30 9657 H 911.113 0.272372 -1.92987 0
M  V30 9658 H 910.209 1.60518 -2.67657 0
M  V30 9659 N 910.51 1.48831 0.518367 0
M  V30 9660 C 911.42 1.6692 1.64848 0
M  V30 9661 C 912.436 0.551711 1.65022 0
M  V30 9662 O 913.612 0.824251 1.83761 0
M  V30 9663 C 910.677 1.71559 3.01278 0
M  V30 9664 C 909.738 2.9502 3.11868 0
M  V30 9665 C 908.971 2.99428 4.4179 0
M  V30 9666 O 909.194 2.11914 5.29574 0
M  V30 9667 O 908.128 3.91719 4.5699 0
M  V30 9668 H 911.954 2.62623 1.52521 0
M  V30 9669 H 909.539 1.32368 0.692749 0
M  V30 9670 H 911.421 1.77064 3.82396 0
M  V30 9671 H 910.096 0.790316 3.13904 0
M  V30 9672 H 909.003 2.95042 2.30003 0
M  V30 9673 H 910.336 3.8697 3.04163 0
M  V30 9674 N 911.988 -0.768124 1.37614 0
M  V30 9675 C 912.92 -1.89076 1.29548 0
M  V30 9676 C 913.933 -1.61433 0.21056 0
M  V30 9677 O 915.122 -1.72283 0.466992 0
M  V30 9678 C 912.222 -3.24388 0.981102 0
M  V30 9679 C 911.395 -3.79649 2.17222 0
M  V30 9680 C 910.454 -4.93444 1.82754 0
M  V30 9681 O 909.48 -5.0884 2.5509 0
M  V30 9682 N 910.682 -5.75319 0.773819 0
M  V30 9683 H 913.447 -1.9651 2.26283 0
M  V30 9684 H 911.008 -0.947399 1.31286 0
M  V30 9685 H 913 -3.98038 0.731301 0
M  V30 9686 H 911.57 -3.12433 0.102203 0
M  V30 9687 H 910.79 -2.97735 2.58355 0
M  V30 9688 H 912.078 -4.13302 2.96748 0
M  V30 9689 H 911.476 -5.65433 0.173644 0
M  V30 9690 H 910.033 -6.4918 0.583882 0
M  V30 9691 N 913.466 -1.22244 -0.994698 0
M  V30 9692 C 914.396 -1.01513 -2.10279 0
M  V30 9693 C 915.377 0.0633365 -1.69982 0
M  V30 9694 O 916.562 -0.0985268 -1.9395 0
M  V30 9695 C 913.692 -0.59016 -3.42249 0
M  V30 9696 C 912.646 -1.61436 -3.96387 0
M  V30 9697 C 911.972 -1.04528 -5.24383 0
M  V30 9698 C 913.272 -3.00388 -4.27276 0
M  V30 9699 H 914.966 -1.94194 -2.2788 0
M  V30 9700 H 912.512 -0.935094 -1.09508 0
M  V30 9701 H 914.465 -0.432254 -4.19177 0
M  V30 9702 H 913.189 0.372308 -3.24471 0
M  V30 9703 H 911.848 -1.76001 -3.21589 0
M  V30 9704 H 911.496 -0.0742225 -5.02945 0
M  V30 9705 H 911.196 -1.72949 -5.61571 0
M  V30 9706 H 912.72 -0.898922 -6.03947 0
M  V30 9707 H 914.134 -2.89207 -4.95007 0
M  V30 9708 H 912.531 -3.65916 -4.75631 0
M  V30 9709 H 913.601 -3.50456 -3.35125 0
M  V30 9710 N 914.944 1.19125 -1.03184 0
M  V30 9711 C 916.36 1.40909 -0.749447 0
M  V30 9712 C 916.56 1.9022 0.664729 0
M  V30 9713 O 915.616 2.08085 1.43028 0
M  V30 9714 C 916.929 2.41761 -1.78807 0
M  V30 9715 C 918.477 2.55503 -1.80796 0
M  V30 9716 C 918.952 3.59612 -2.83626 0
M  V30 9717 N 920.443 3.6711 -2.82461 0
M  V30 9718 C 921.178 4.47366 -3.5868 0
M  V30 9719 N 920.674 5.31302 -4.44623 0
M  V30 9720 N 922.467 4.42044 -3.47208 0
M  V30 9721 H 914.618 0.854399 -1.94458 0
M  V30 9722 H 916.881 0.437753 -0.840878 0
M  V30 9723 H 916.587 2.12559 -2.80199 0
M  V30 9724 H 916.461 3.40981 -1.61283 0
M  V30 9725 H 918.848 2.84027 -0.800803 0
M  V30 9726 H 918.929 1.56427 -2.02396 0
M  V30 9727 H 918.573 3.3183 -3.84515 0
M  V30 9728 H 918.503 4.58345 -2.59283 0
M  V30 9729 H 920.994 3.07166 -2.2013 0
M  V30 9730 H 921.307 5.89667 -4.99512 0
M  V30 9731 H 919.652 5.30753 -4.48694 0
M  V30 9732 H 922.843 3.75513 -2.79477 0
M  V30 9733 H 923.016 5.0435 -4.06859 0
M  V30 9734 N 916.422 0.810101 1.35185 0
M  V30 9735 C 917.332 0.224565 2.33523 0
M  V30 9736 C 918.348 -0.634287 1.62027 0
M  V30 9737 O 919.524 -0.545211 1.9388 0
M  V30 9738 C 916.589 -0.614319 3.41214 0
M  V30 9739 C 915.65 0.265435 4.28479 0
M  V30 9740 C 914.883 -0.533506 5.31027 0
M  V30 9741 O 915.106 -1.7679 5.42311 0
M  V30 9742 O 914.04 0.0774573 6.0185 0
M  V30 9743 H 917.866 1.03815 2.85405 0
M  V30 9744 H 915.451 0.571964 1.38018 0
M  V30 9745 H 917.333 -1.09201 4.07005 0
M  V30 9746 H 916.008 -1.40545 2.91597 0
M  V30 9747 H 914.915 0.790343 3.65656 0
M  V30 9748 H 916.248 1.0206 4.81503 0
M  V30 9749 N 917.9 -1.47166 0.563914 0
M  V30 9750 C 919.316 -1.58018 0.224173 0
M  V30 9751 C 919.516 -1.56163 -1.27339 0
M  V30 9752 O 918.572 -1.4686 -2.05398 0
M  V30 9753 C 919.885 -2.88236 0.856762 0
M  V30 9754 C 921.433 -3.01833 0.82861 0
M  V30 9755 C 921.908 -4.34761 1.44039 0
M  V30 9756 N 923.399 -4.41413 1.40388 0
M  V30 9757 C 924.134 -5.42845 1.84681 0
M  V30 9758 N 923.63 -6.51052 2.3686 0
M  V30 9759 N 925.423 -5.33931 1.75711 0
M  V30 9760 H 917.574 -1.46615 1.53681 0
M  V30 9761 H 919.837 -0.698195 0.64127 0
M  V30 9762 H 919.543 -2.95349 1.90949 0
M  V30 9763 H 919.417 -3.75537 0.353766 0
M  V30 9764 H 921.804 -2.94312 -0.215451 0
M  V30 9765 H 921.885 -2.16056 1.36943 0
M  V30 9766 H 921.529 -4.43037 2.48355 0
M  V30 9767 H 921.459 -5.1928 0.874953 0
M  V30 9768 H 923.95 -3.63811 1.02227 0
M  V30 9769 H 924.263 -7.24633 2.68564 0
M  V30 9770 H 922.608 -6.51924 2.40875 0
M  V30 9771 H 925.799 -4.48295 1.34718 0
M  V30 9772 H 925.972 -6.12841 2.10547 0
M  V30 9773 N 919.378 -0.300708 -1.54705 0
M  V30 9774 C 920.794 0.0526874 -1.59513 0
M  V30 9775 C 920.994 1.52444 -1.31769 0
M  V30 9776 O 920.05 2.27716 -1.09096 0
M  V30 9777 C 921.363 -0.344989 -2.98714 0
M  V30 9778 C 922.911 -0.29373 -3.11619 0
M  V30 9779 C 923.386 -0.666225 -4.53129 0
M  V30 9780 N 924.877 -0.618749 -4.59049 0
M  V30 9781 C 925.612 -0.879447 -5.66616 0
M  V30 9782 N 925.108 -1.2061 -6.82221 0
M  V30 9783 N 926.901 -0.806528 -5.56284 0
M  V30 9784 H 919.052 -1.25988 -1.71 0
M  V30 9785 H 921.315 -0.510758 -0.798643 0
M  V30 9786 H 921.021 -1.36953 -3.2394 0
M  V30 9787 H 920.895 0.301507 -3.75993 0
M  V30 9788 H 923.282 0.72156 -2.86142 0
M  V30 9789 H 923.363 -0.974844 -2.36496 0
M  V30 9790 H 923.007 -1.67932 -4.79334 0
M  V30 9791 H 922.937 0.0369575 -5.26587 0
M  V30 9792 H 925.428 -0.377202 -3.76013 0
M  V30 9793 H 925.741 -1.391 -7.60178 0
M  V30 9794 H 924.086 -1.24413 -6.83774 0
M  V30 9795 H 927.277 -0.550993 -4.64846 0
M  V30 9796 H 927.45 -1.01307 -6.40032 0
M  V30 9797 N 920.856 1.57574 -0.0284266 0
M  V30 9798 C 922.081 1.96479 0.664137 0
M  V30 9799 C 922.506 0.904826 1.64908 0
M  V30 9800 O 921.864 -0.134339 1.80802 0
M  V30 9801 C 921.912 3.34479 1.34745 0
M  V30 9802 O 921.016 3.30794 2.46271 0
M  V30 9803 H 920.357 0.640654 0.174524 0
M  V30 9804 H 922.887 2.04402 -0.0900729 0
M  V30 9805 H 922.897 3.70694 1.7044 0
M  V30 9806 H 921.572 4.1117 0.625468 0
M  V30 9807 H 920.149 3.06294 2.12693 0
M  V30 9808 N 922.334 -0.244713 1.55689 0
M  V30 9809 C 923.58 -0.973886 1.77886 0
M  V30 9810 C 923.913 -1.8489 0.594071 0
M  V30 9811 O 923.188 -1.90182 -0.407564 0
M  V30 9812 C 923.471 -1.83255 3.09983 0
M  V30 9813 C 923.324 -0.985571 4.3887 0
M  V30 9814 C 924.643 -2.81464 3.38329 0
M  V30 9815 H 921.762 -0.352629 0.647165 0
M  V30 9816 H 924.404 -0.244243 1.88424 0
M  V30 9817 H 922.554 -2.45464 3.01131 0
M  V30 9818 H 924.226 -0.382005 4.59716 0
M  V30 9819 H 922.469 -0.29002 4.32829 0
M  V30 9820 H 923.14 -1.62022 5.27686 0
M  V30 9821 H 925.616 -2.2939 3.47159 0
M  V30 9822 H 924.492 -3.38663 4.31971 0
M  V30 9823 H 924.753 -3.58037 2.59349 0
M  V30 9824 N 923.813 -1.49104 -0.510467 0
M  V30 9825 C 924.776 -1.64569 -1.59529 0
M  V30 9826 C 925.776 -0.517937 -1.5223 0
M  V30 9827 O 926.966 -0.784183 -1.55551 0
M  V30 9828 C 924.098 -1.6342 -2.99177 0
M  V30 9829 H 925.291 -2.61318 -1.4715 0
M  V30 9830 H 922.844 -1.37993 -0.734001 0
M  V30 9831 H 923.579 -0.68221 -3.17043 0
M  V30 9832 H 923.364 -2.45312 -3.05883 0
M  V30 9833 H 924.854 -1.77474 -3.78011 0
M  V30 9834 N 925.291 0.760815 -1.38019 0
M  V30 9835 C 926.521 1.54776 -1.3685 0
M  V30 9836 C 926.929 1.89146 0.0453971 0
M  V30 9837 O 926.272 1.52746 1.0205 0
M  V30 9838 C 926.334 2.87923 -2.15269 0
M  V30 9839 C 925.998 2.76131 -3.64144 0
M  V30 9840 C 926.995 2.46417 -4.57794 0
M  V30 9841 C 924.68 2.9381 -4.07408 0
M  V30 9842 C 926.674 2.34525 -5.92686 0
M  V30 9843 C 924.361 2.81539 -5.42383 0
M  V30 9844 C 925.359 2.51938 -6.34836 0
M  V30 9845 O 925.047 2.39713 -7.67329 0
M  V30 9846 H 924.779 0.485776 -0.470104 0
M  V30 9847 H 927.333 0.949939 -1.82113 0
M  V30 9848 H 925.563 3.49867 -1.64712 0
M  V30 9849 H 927.252 3.49389 -2.06596 0
M  V30 9850 H 928.018 2.32433 -4.25676 0
M  V30 9851 H 923.897 3.15849 -3.35799 0
M  V30 9852 H 927.441 2.11342 -6.64816 0
M  V30 9853 H 923.338 2.95093 -5.741 0
M  V30 9854 H 924.106 2.5498 -7.77771 0
M  V30 9855 N 926.769 1.22769 0.988202 0
M  V30 9856 C 927.717 0.999271 2.10041 0
M  V30 9857 C 928.711 -0.0591767 1.69297 0
M  V30 9858 O 929.917 0.0936653 1.79756 0
M  V30 9859 H 926.292 0.30599 0.686931 0
M  V30 9860 H 928.263 1.94294 2.26478 0
M  V30 9861 C 927.012 0.59873 3.42506 0
M  V30 9862 H 926.335 1.40487 3.74304 0
M  V30 9863 H 927.775 0.478353 4.21293 0
M  V30 9864 C 926.234 -0.692216 3.29712 0
M  V30 9865 O 926.764 -1.74342 3.61895 0
M  V30 9866 N 924.97 -0.665163 2.82885 0
M  V30 9867 H 924.517 0.190604 2.56894 0
M  V30 9868 H 924.475 -1.52917 2.74706 0
M  V30 9869 N 928.247 -1.18576 1.03814 0
M  V30 9870 C 929.495 -1.88121 0.738574 0
M  V30 9871 C 929.816 -1.80587 -0.735744 0
M  V30 9872 O 929.086 -1.22251 -1.53074 0
M  V30 9873 H 927.666 -0.696417 0.270208 0
M  V30 9874 H 930.328 -1.43912 1.31435 0
M  V30 9875 H 929.424 -2.94222 1.04115 0
M  V30 9876 N 929.725 -0.817259 -1.34754 0
M  V30 9877 C 931.136 -0.462215 -1.80888 0
M  V30 9878 C 931.487 1.01685 -1.67794 0
M  V30 9879 O 930.612 1.79094 -1.21468 0
M  V30 9880 C 931.207 -0.832204 -3.2842 0
M  V30 9881 C 929.766 -0.52961 -3.72655 0
M  V30 9882 C 928.913 -1.05214 -2.56564 0
M  V30 9883 H 931.864 -1.00795 -1.22581 0
M  V30 9884 H 931.885 -0.133804 -3.80265 0
M  V30 9885 H 931.397 -1.90873 -3.37919 0
M  V30 9886 H 929.498 0.537743 -3.68699 0
M  V30 9887 H 929.611 -1.06971 -4.67005 0
M  V30 9888 H 927.975 -0.473949 -2.50251 0
M  V30 9889 H 928.758 -2.135 -2.68836 0
M  V30 9890 N 931.203 1.46865 -0.571711 0
M  V30 9891 C 932.614 1.86158 -0.142181 0
M  V30 9892 C 932.965 1.47663 1.2919 0
M  V30 9893 O 932.09 0.886393 1.97413 0
M  V30 9894 C 932.685 3.37867 -0.251256 0
M  V30 9895 C 931.244 3.76198 0.123329 0
M  V30 9896 C 930.391 2.70902 -0.592232 0
M  V30 9897 H 933.342 1.38176 -0.780587 0
M  V30 9898 H 933.363 3.76842 0.526331 0
M  V30 9899 H 932.875 3.65853 -1.2951 0
M  V30 9900 H 930.976 3.53829 1.16773 0
M  V30 9901 H 931.089 4.78471 -0.24533 0
M  V30 9902 H 929.453 2.54678 -0.0336927 0
M  V30 9903 H 930.236 3.01729 -1.63751 0
M  V30 9904 N 932.681 0.308908 1.54543 0
M  V30 9905 C 933.644 -0.550857 2.22482 0
M  V30 9906 C 934.644 -1.0551 1.21344 0
M  V30 9907 O 935.834 -0.949866 1.46025 0
M  V30 9908 C 932.966 -1.76354 2.9174 0
M  V30 9909 H 934.159 0.0428395 2.99869 0
M  V30 9910 H 931.712 0.059825 1.56185 0
M  V30 9911 H 932.447 -2.39686 2.18451 0
M  V30 9912 H 932.232 -1.40954 3.65889 0
M  V30 9913 H 933.722 -2.37417 3.43545 0
M  V30 9914 N 934.159 -1.57557 0.0367827 0
M  V30 9915 C 935.384 -1.96828 -0.653707 0
M  V30 9916 C 935.809 -0.913559 -1.64425 0
M  V30 9917 O 935.167 0.124749 -1.8087 0
M  V30 9918 C 935.215 -3.35189 -1.32969 0
M  V30 9919 O 934.319 -3.32095 -2.44513 0
M  V30 9920 H 933.66 -0.64157 -0.171124 0
M  V30 9921 H 936.19 -2.04351 0.100912 0
M  V30 9922 H 936.2 -3.71593 -1.68472 0
M  V30 9923 H 934.875 -4.11496 -0.603654 0
M  V30 9924 H 933.452 -3.07418 -2.11065 0
M  V30 9925 N 935.637 0.236453 -1.55816 0
M  V30 9926 C 937.048 0.80468 -1.68469 0
M  V30 9927 C 937.399 1.85601 -0.636133 0
M  V30 9928 O 936.524 2.15323 0.215622 0
M  V30 9929 C 937.119 1.46634 -3.05424 0
M  V30 9930 C 935.678 1.98214 -3.19981 0
M  V30 9931 C 934.825 0.83695 -2.64368 0
M  V30 9932 H 937.776 0.0120647 -1.58695 0
M  V30 9933 H 937.797 2.33472 -3.00451 0
M  V30 9934 H 937.309 0.700931 -3.81718 0
M  V30 9935 H 935.41 2.77604 -2.4853 0
M  V30 9936 H 935.523 2.17235 -4.2702 0
M  V30 9937 H 933.887 1.24028 -2.22462 0
M  V30 9938 H 934.67 0.084451 -3.43196 0
M  V30 9939 N 937.115 1.49373 0.502552 0
M  V30 9940 C 938.34 1.62752 1.28556 0
M  V30 9941 C 938.765 0.298285 1.8572 0
M  V30 9942 O 938.123 -0.733885 1.65782 0
M  V30 9943 C 938.171 2.69778 2.39274 0
M  V30 9944 O 937.275 2.28843 3.43081 0
M  V30 9945 H 936.616 0.544799 0.379592 0
M  V30 9946 H 939.146 1.9555 0.601792 0
M  V30 9947 H 939.156 2.91899 2.8506 0
M  V30 9948 H 937.831 3.66266 1.97033 0
M  V30 9949 H 936.408 2.17047 3.03224 0
M  V30 9950 N 938.594 -0.753485 1.38421 0
M  V30 9951 C 939.544 -1.85788 1.32162 0
M  V30 9952 C 940.528 -1.59577 0.20588 0
M  V30 9953 O 941.72 -1.71396 0.44186 0
M  V30 9954 C 938.849 -3.23498 1.14909 0
M  V30 9955 C 937.935 -3.556 2.31105 0
M  V30 9956 N 938.326 -3.58759 3.56547 0
M  V30 9957 C 936.624 -3.85866 2.23659 0
M  V30 9958 C 937.325 -3.8813 4.33278 0
M  V30 9959 N 936.301 -4.04966 3.62635 0
M  V30 9960 H 940.103 -1.86509 2.27138 0
M  V30 9961 H 937.617 -0.950843 1.31654 0
M  V30 9962 H 939.614 -4.02531 1.08509 0
M  V30 9963 H 938.274 -3.24029 0.20866 0
M  V30 9964 H 939.285 -3.40517 3.90216 0
M  V30 9965 H 935.962 -3.94112 1.37776 0
M  V30 9966 H 937.352 -3.97197 5.41926 0
M  V30 9967 N 940.072 -1.23292 -0.981677 0
M  V30 9968 C 940.982 -1.02964 -2.10798 0
M  V30 9969 C 941.998 0.0254674 -1.73981 0
M  V30 9970 O 943.174 -0.169706 -2.00684 0
M  V30 9971 C 940.239 -0.621934 -3.41076 0
M  V30 9972 C 939.3 -1.75194 -3.91926 0
M  V30 9973 C 938.533 -1.36359 -5.15986 0
M  V30 9974 O 938.756 -0.247265 -5.69864 0
M  V30 9975 O 937.69 -2.18421 -5.60871 0
M  V30 9976 H 941.516 -1.97354 -2.30836 0
M  V30 9977 H 939.101 -1.01986 -1.09175 0
M  V30 9978 H 940.983 -0.405446 -4.19445 0
M  V30 9979 H 939.658 0.29299 -3.22371 0
M  V30 9980 H 938.565 -2.02305 -3.1468 0
M  V30 9981 H 939.898 -2.64513 -4.15083 0
M  V30 9982 N 941.55 1.18024 -1.04442 0
M  V30 9983 C 942.778 1.92032 -0.770161 0
M  V30 9984 C 943.193 1.76391 0.673181 0
M  V30 9985 O 942.55 1.09604 1.45922 0
M  V30 9986 C 942.601 3.43328 -1.13173 0
M  V30 9987 O 942.322 3.5848 -2.51841 0
M  V30 9988 C 943.823 4.34427 -0.882523 0
M  V30 9989 H 941.043 0.609518 -0.280586 0
M  V30 9990 H 943.587 1.49711 -1.39308 0
M  V30 9991 H 941.742 3.83423 -0.553704 0
M  V30 9992 H 942.156 4.52166 -2.65794 0
M  V30 9993 H 943.63 5.39123 -1.18533 0
M  V30 9994 H 944.107 4.3882 0.18257 0
M  V30 9995 H 944.713 4.00035 -1.44403 0
M  V30 9996 N 943.028 0.824394 1.34319 0
M  V30 9997 C 944.276 0.41235 1.97849 0
M  V30 9998 C 944.597 -1.02841 1.65677 0
M  V30 9999 O 943.867 -1.71421 0.948245 0
M  V30 10000 H 942.447 0.149486 0.73189 0
M  V30 10001 H 945.109 1.05416 1.63931 0
M  V30 10002 H 944.205 0.532557 3.07523 0
M  V30 10003 N 944.506 -1.46559 0.579492 0
M  V30 10004 C 945.469 -2.28739 -0.145371 0
M  V30 10005 C 946.469 -1.38211 -0.821854 0
M  V30 10006 O 947.659 -1.6062 -0.674302 0
M  V30 10007 C 944.791 -3.18507 -1.21515 0
M  V30 10008 H 945.984 -2.94301 0.576786 0
M  V30 10009 H 943.537 -1.52616 0.337327 0
M  V30 10010 H 944.272 -2.57685 -1.96899 0
M  V30 10011 H 944.057 -3.85157 -0.734616 0
M  V30 10012 H 945.547 -3.80369 -1.72363 0
M  V30 10013 N 945.984 -0.3171 -1.54377 0
M  V30 10014 C 947.231 0.28741 -2.0045 0
M  V30 10015 C 947.559 1.52648 -1.20535 0
M  V30 10016 O 946.814 1.93775 -0.273831 0
M  V30 10017 C 947.113 0.672917 -3.51008 0
M  V30 10018 C 946.779 -0.466245 -4.48483 0
M  V30 10019 C 945.441 -0.778933 -4.74854 0
M  V30 10020 C 947.793 -1.23176 -5.06436 0
M  V30 10021 C 945.121 -1.85997 -5.56437 0
M  V30 10022 C 947.473 -2.30284 -5.89196 0
M  V30 10023 C 946.137 -2.62141 -6.13872 0
M  V30 10024 H 945.407 0.105171 -0.733499 0
M  V30 10025 H 948.054 -0.439538 -1.86388 0
M  V30 10026 H 946.359 1.48019 -3.62764 0
M  V30 10027 H 948.056 1.15209 -3.84094 0
M  V30 10028 H 944.646 -0.212449 -4.28073 0
M  V30 10029 H 948.83 -1.00344 -4.8605 0
M  V30 10030 H 944.086 -2.11134 -5.73788 0
M  V30 10031 H 948.26 -2.90048 -6.33123 0
M  V30 10032 H 945.887 -3.46037 -6.76877 0
M  V30 10033 N 947.462 1.57535 -0.0451378 0
M  V30 10034 C 948.425 2.1008 0.916461 0
M  V30 10035 C 949.425 1.01913 1.2438 0
M  V30 10036 O 950.615 1.2801 1.18148 0
M  V30 10037 C 947.747 2.58001 2.22818 0
M  V30 10038 H 948.94 2.96334 0.461076 0
M  V30 10039 H 946.493 1.54974 0.203169 0
M  V30 10040 H 947.228 1.75123 2.72951 0
M  V30 10041 H 947.013 3.3704 2.00366 0
M  V30 10042 H 948.503 2.98822 2.9171 0
M  V30 10043 N 948.94 -0.228186 1.55939 0
M  V30 10044 C 949.89 -1.28607 1.88267 0
M  V30 10045 C 950.874 -1.42606 0.745139 0
M  V30 10046 O 952.066 -1.45533 1.00743 0
M  V30 10047 C 949.195 -2.63783 2.19712 0
M  V30 10048 C 948.281 -2.53712 3.3984 0
M  V30 10049 N 948.672 -2.13287 4.58631 0
M  V30 10050 C 946.97 -2.84686 3.43322 0
M  V30 10051 C 947.671 -2.14305 5.40785 0
M  V30 10052 N 946.647 -2.54536 4.80325 0
M  V30 10053 H 950.449 -0.964307 2.7763 0
M  V30 10054 H 947.963 -0.436769 1.56416 0
M  V30 10055 H 949.96 -3.40152 2.41044 0
M  V30 10056 H 948.62 -2.9681 1.31657 0
M  V30 10057 H 949.631 -1.84525 4.83912 0
M  V30 10058 H 946.308 -3.22129 2.65592 0
M  V30 10059 H 947.698 -1.85231 6.45863 0
M  V30 10060 N 950.418 -1.49637 -0.494624 0
M  V30 10061 C 951.381 -1.66252 -1.57775 0
M  V30 10062 C 952.381 -0.534054 -1.51672 0
M  V30 10063 O 953.571 -0.800637 -1.54711 0
M  V30 10064 C 950.703 -1.66584 -2.97426 0
M  V30 10065 H 951.896 -2.62864 -1.4437 0
M  V30 10066 H 949.449 -1.38764 -0.719323 0
M  V30 10067 H 950.184 -0.715798 -3.16302 0
M  V30 10068 H 949.969 -2.48543 -3.03264 0
M  V30 10069 H 951.459 -1.81474 -3.76108 0
M  V30 10070 N 951.896 0.746133 -1.38819 0
M  V30 10071 C 953.312 1.0502 -1.20179 0
M  V30 10072 C 953.512 2.01423 -0.0556271 0
M  V30 10073 O 952.568 2.45359 0.59625 0
M  V30 10074 C 953.881 1.62315 -2.53129 0
M  V30 10075 C 955.429 1.74449 -2.59878 0
M  V30 10076 C 955.904 2.35155 -3.93022 0
M  V30 10077 N 957.395 2.42577 -3.94602 0
M  V30 10078 C 958.13 2.9046 -4.94389 0
M  V30 10079 N 957.626 3.38322 -6.04574 0
M  V30 10080 N 959.419 2.89568 -4.81775 0
M  V30 10081 H 951.57 0.106551 -2.12133 0
M  V30 10082 H 953.833 0.109897 -0.941609 0
M  V30 10083 H 953.539 0.98946 -3.37495 0
M  V30 10084 H 953.413 2.61276 -2.72057 0
M  V30 10085 H 955.8 2.36943 -1.75903 0
M  V30 10086 H 955.881 0.741721 -2.4481 0
M  V30 10087 H 955.525 1.73292 -4.77422 0
M  V30 10088 H 955.455 3.36088 -4.05404 0
M  V30 10089 H 957.946 2.08735 -3.15021 0
M  V30 10090 H 958.259 3.73336 -6.76639 0
M  V30 10091 H 956.604 3.3636 -6.08184 0
M  V30 10092 H 959.795 2.51492 -3.94803 0
M  V30 10093 H 959.968 3.26571 -5.59692 0
M  V30 10094 N 953.375 1.23811 0.975125 0
M  V30 10095 C 954.791 1.0019 1.24234 0
M  V30 10096 C 954.991 -0.293811 1.99346 0
M  V30 10097 O 954.047 -1.01189 2.31337 0
M  V30 10098 C 955.36 2.21218 2.03674 0
M  V30 10099 C 956.908 2.25764 2.16793 0
M  V30 10100 C 957.383 3.46394 2.99626 0
M  V30 10101 N 958.874 3.46665 3.07209 0
M  V30 10102 C 959.609 4.3666 3.71639 0
M  V30 10103 N 959.105 5.36899 4.37849 0
M  V30 10104 N 960.898 4.2439 3.68578 0
M  V30 10105 H 953.049 2.07087 0.472076 0
M  V30 10106 H 955.312 0.90838 0.271201 0
M  V30 10107 H 955.018 3.15277 1.55862 0
M  V30 10108 H 954.892 2.22733 3.04417 0
M  V30 10109 H 957.279 1.32242 2.63811 0
M  V30 10110 H 957.36 2.28279 1.15422 0
M  V30 10111 H 957.004 4.40227 2.53304 0
M  V30 10112 H 956.934 3.41121 4.01178 0
M  V30 10113 H 959.425 2.74142 2.60105 0
M  V30 10114 H 959.738 6.01816 4.84807 0
M  V30 10115 H 958.083 5.40793 4.36541 0
M  V30 10116 H 961.274 3.4532 3.16025 0
M  V30 10117 H 961.447 4.94727 4.18508 0
M  V30 10118 N 954.853 -1.17469 1.05066 0
M  V30 10119 C 956.101 -1.87327 0.758485 0
M  V30 10120 C 956.422 -1.81358 -0.716549 0
M  V30 10121 O 955.692 -1.23868 -1.51768 0
M  V30 10122 H 954.272 -0.693512 0.277579 0
M  V30 10123 H 956.934 -1.4251 1.32954 0
M  V30 10124 H 956.03 -2.93101 1.0723 0
M  V30 10125 N 956.331 -0.831506 -1.3388 0
M  V30 10126 C 957.559 -0.436925 -2.02234 0
M  V30 10127 C 957.974 0.959689 -1.6259 0
M  V30 10128 O 957.331 1.62248 -0.835576 0
M  V30 10129 C 957.382 -0.539429 -3.57453 0
M  V30 10130 O 957.103 -1.88101 -3.95664 0
M  V30 10131 C 958.604 -0.140852 -4.43076 0
M  V30 10132 H 955.824 -0.174302 -0.647966 0
M  V30 10133 H 958.368 -1.12204 -1.70969 0
M  V30 10134 H 956.523 0.0976959 -3.87277 0
M  V30 10135 H 956.937 -1.86131 -4.90363 0
M  V30 10136 H 958.411 -0.26364 -5.5137 0
M  V30 10137 H 958.888 0.916505 -4.29531 0
M  V30 10138 H 959.494 -0.752117 -4.18597 0
M  V30 10139 N 957.809 1.4625 -0.587256 0
M  V30 10140 C 959.034 2.07252 -0.0784517 0
M  V30 10141 C 959.459 1.43239 1.21919 0
M  V30 10142 O 958.817 0.517791 1.73749 0
M  V30 10143 C 958.865 3.60534 0.0691037 0
M  V30 10144 O 957.969 3.96773 1.12448 0
M  V30 10145 H 957.31 0.660825 -0.064859 0
M  V30 10146 H 959.84 1.87819 -0.811491 0
M  V30 10147 H 959.85 4.0708 0.273826 0
M  V30 10148 H 958.525 4.06516 -0.878514 0
M  V30 10149 H 957.102 3.6193 0.897852 0
M  V30 10150 N 959.287 0.325282 1.54207 0
M  V30 10151 C 960.515 -0.27869 2.05014 0
M  V30 10152 C 960.93 -1.45649 1.20133 0
M  V30 10153 O 960.287 -1.81014 0.232398 0
M  V30 10154 C 960.338 -0.711486 3.54429 0
M  V30 10155 O 960.059 0.419458 4.36087 0
M  V30 10156 C 961.56 -1.37809 4.21336 0
M  V30 10157 H 958.78 -0.0570388 0.668571 0
M  V30 10158 H 961.324 0.47197 1.98979 0
M  V30 10159 H 959.479 -1.41212 3.60746 0
M  V30 10160 H 959.893 0.0781037 5.24442 0
M  V30 10161 H 961.367 -1.63184 5.27328 0
M  V30 10162 H 961.844 -2.32593 3.72555 0
M  V30 10163 H 962.45 -0.719987 4.19161 0
M  V30 10164 N 960.765 -1.57509 0.0534917 0
M  V30 10165 C 962.013 -1.92402 -0.618548 0
M  V30 10166 C 962.334 -0.93273 -1.71246 0
M  V30 10167 O 961.604 0.0220495 -1.95888 0
M  V30 10168 H 960.184 -0.710233 -0.23147 0
M  V30 10169 H 962.846 -1.94606 0.10704 0
M  V30 10170 H 961.942 -2.93704 -1.05566 0
M  V30 10171 N 962.243 0.219913 -1.56058 0
M  V30 10172 C 963.492 0.942119 -1.78345 0
M  V30 10173 C 963.805 1.85435 -0.622344 0
M  V30 10174 O 965.011 2.61533 -0.728886 0
M  V30 10175 C 963.467 1.72544 -3.15843 0
M  V30 10176 C 963.075 0.859263 -4.39682 0
M  V30 10177 C 964.819 2.43876 -3.47455 0
M  V30 10178 C 962.726 1.64003 -5.68205 0
M  V30 10179 H 961.656 0.355514 -0.664925 0
M  V30 10180 H 964.307 0.195963 -1.82451 0
M  V30 10181 H 962.689 2.51456 -3.05918 0
M  V30 10182 H 963.863 0.110562 -4.60667 0
M  V30 10183 H 962.178 0.257985 -4.156 0
M  V30 10184 H 964.775 3.02794 -4.40704 0
M  V30 10185 H 965.118 3.16843 -2.7003 0
M  V30 10186 H 965.651 1.71952 -3.58716 0
M  V30 10187 H 962.39 0.953606 -6.48526 0
M  V30 10188 H 961.91 2.3633 -5.51279 0
M  V30 10189 H 963.589 2.20028 -6.08438 0
M  V30 10190 N 963.721 1.49897 0.486681 0
M  V30 10191 C 964.97 1.59349 1.23656 0
M  V30 10192 C 965.283 0.292024 1.93408 0
M  V30 10193 O 966.489 0.265258 2.70201 0
M  V30 10194 C 964.945 2.81215 2.24602 0
M  V30 10195 C 964.553 4.18177 1.60725 0
M  V30 10196 C 966.297 3.00004 3.00329 0
M  V30 10197 C 964.204 5.31247 2.59866 0
M  V30 10198 H 963.134 0.593363 0.465227 0
M  V30 10199 H 965.785 1.76306 0.508769 0
M  V30 10200 H 964.167 2.57783 3.00606 0
M  V30 10201 H 965.341 4.51802 0.90616 0
M  V30 10202 H 963.656 4.04864 0.973362 0
M  V30 10203 H 966.253 3.81649 3.74497 0
M  V30 10204 H 966.596 2.1112 3.58795 0
M  V30 10205 H 967.129 3.23544 2.3144 0
M  V30 10206 H 963.868 6.22236 2.06161 0
M  V30 10207 H 963.388 5.02059 3.28172 0
M  V30 10208 H 965.067 5.61177 3.22009 0
M  V30 10209 N 965.199 -0.738761 1.39212 0
M  V30 10210 C 966.424 -1.5331 1.39681 0
M  V30 10211 C 966.849 -1.88098 -0.00768715 0
M  V30 10212 O 966.207 -1.51642 -0.993699 0
M  V30 10213 C 966.255 -2.79958 2.27279 0
M  V30 10214 O 965.359 -3.75727 1.70008 0
M  V30 10215 H 964.7 -0.463131 0.475821 0
M  V30 10216 H 967.23 -0.911768 1.83161 0
M  V30 10217 H 967.24 -3.28732 2.41659 0
M  V30 10218 H 965.915 -2.5397 3.29351 0
M  V30 10219 H 964.492 -3.34483 1.64851 0
M  V30 10220 N 966.677 -1.24326 -0.968545 0
M  V30 10221 C 967.624 -1.0349 -2.06297 0
M  V30 10222 C 968.594 0.0515333 -1.6602 0
M  V30 10223 O 969.779 -0.102924 -1.90522 0
M  V30 10224 C 966.919 -0.64487 -3.39021 0
M  V30 10225 C 966.032 -1.80469 -3.92498 0
M  V30 10226 C 965.167 -1.36032 -5.13487 0
M  V30 10227 C 964.206 -2.49014 -5.59159 0
M  V30 10228 N 963.343 -2.05451 -6.71367 0
M  V30 10229 H 968.183 -1.97161 -2.23454 0
M  V30 10230 H 965.72 -0.982028 -1.0952 0
M  V30 10231 H 967.678 -0.399771 -4.1528 0
M  V30 10232 H 966.308 0.254845 -3.21792 0
M  V30 10233 H 965.36 -2.16348 -3.12886 0
M  V30 10234 H 966.672 -2.65365 -4.22354 0
M  V30 10235 H 965.826 -1.07405 -5.97117 0
M  V30 10236 H 964.565 -0.481887 -4.85313 0
M  V30 10237 H 963.57 -2.78402 -4.74102 0
M  V30 10238 H 964.795 -3.37413 -5.89346 0
M  V30 10239 H 962.741 -1.20004 -6.4493 0
M  V30 10240 H 962.658 -2.83901 -7.00668 0
M  V30 10241 H 963.926 -1.79962 -7.58442 0
M  V30 10242 N 968.156 1.1691 -1.05688 0
M  V30 10243 C 969.405 1.86629 -0.765022 0
M  V30 10244 C 969.718 1.82223 0.710918 0
M  V30 10245 O 970.924 2.47462 1.11691 0
M  V30 10246 C 969.38 3.34886 -1.3183 0
M  V30 10247 C 968.988 3.47781 -2.82404 0
M  V30 10248 C 970.732 4.099 -1.10372 0
M  V30 10249 C 968.639 4.9009 -3.31008 0
M  V30 10250 H 967.569 0.699082 -0.282491 0
M  V30 10251 H 970.22 1.31989 -1.27481 0
M  V30 10252 H 968.602 3.89094 -0.736312 0
M  V30 10253 H 969.776 3.03765 -3.46502 0
M  V30 10254 H 968.091 2.86193 -3.02461 0
M  V30 10255 H 970.688 5.14894 -1.4418 0
M  V30 10256 H 971.031 4.16279 -0.0417372 0
M  V30 10257 H 971.564 3.61913 -1.65117 0
M  V30 10258 H 968.303 4.88887 -4.36657 0
M  V30 10259 H 967.823 5.34756 -2.71655 0
M  V30 10260 H 969.502 5.58881 -3.25977 0
M  V30 10261 N 969.634 0.838594 1.33437 0
M  V30 10262 C 970.862 0.447644 2.01999 0
M  V30 10263 C 971.277 -0.951053 1.63096 0
M  V30 10264 O 970.634 -1.61802 0.844169 0
M  V30 10265 C 970.685 0.558378 3.57162 0
M  V30 10266 O 970.406 1.90196 3.94661 0
M  V30 10267 C 971.907 0.164348 4.42995 0
M  V30 10268 H 969.127 0.177736 0.647032 0
M  V30 10269 H 971.671 1.13109 1.70372 0
M  V30 10270 H 969.826 -0.0771563 3.87323 0
M  V30 10271 H 970.24 1.88729 4.89369 0
M  V30 10272 H 971.714 0.292876 5.51222 0
M  V30 10273 H 972.191 -0.893713 4.30011 0
M  V30 10274 H 972.797 0.774306 4.18192 0
M  V30 10275 N 971.112 -1.45937 0.595003 0
M  V30 10276 C 972.337 -2.07207 0.0894416 0
M  V30 10277 C 972.762 -1.43884 -1.21157 0
M  V30 10278 O 972.12 -0.526998 -1.73472 0
M  V30 10279 C 972.168 -3.60565 -0.0499828 0
M  V30 10280 O 971.272 -3.97364 -1.10342 0
M  V30 10281 H 970.613 -0.660471 0.0683627 0
M  V30 10282 H 973.143 -1.87386 0.82144 0
M  V30 10283 H 973.153 -4.0722 -0.252234 0
M  V30 10284 H 971.828 -4.06044 0.90006 0
M  V30 10285 H 970.405 -3.62401 -0.878645 0
M  V30 10286 N 972.59 -0.333456 -1.54032 0
M  V30 10287 C 973.537 0.527981 -2.2468 0
M  V30 10288 C 974.507 1.10371 -1.24127 0
M  V30 10289 O 975.692 1.14221 -1.52834 0
M  V30 10290 C 972.832 1.67808 -3.01553 0
M  V30 10291 C 971.945 1.13064 -4.16942 0
M  V30 10292 C 971.08 2.24722 -4.81325 0
M  V30 10293 C 970.119 1.67277 -5.88799 0
M  V30 10294 N 969.256 2.72638 -6.47003 0
M  V30 10295 H 974.096 -0.0810308 -2.9789 0
M  V30 10296 H 971.633 -0.051761 -1.47009 0
M  V30 10297 H 973.591 2.35502 -3.44376 0
M  V30 10298 H 972.221 2.25823 -2.30659 0
M  V30 10299 H 971.273 0.344948 -3.78833 0
M  V30 10300 H 972.585 0.670373 -4.94275 0
M  V30 10301 H 971.739 3.00301 -5.27166 0
M  V30 10302 H 970.478 2.74089 -4.03394 0
M  V30 10303 H 969.483 0.902002 -5.4235 0
M  V30 10304 H 970.708 1.18775 -6.68632 0
M  V30 10305 H 968.654 3.21277 -5.71941 0
M  V30 10306 H 968.571 2.31204 -7.19778 0
M  V30 10307 H 969.839 3.48015 -6.97499 0
M  V30 10308 N 974.068 1.57479 -0.061844 0
M  V30 10309 C 975.315 1.93108 0.60954 0
M  V30 10310 C 975.643 0.941086 1.70217 0
M  V30 10311 O 974.898 -0.044914 1.95648 0
M  V30 10312 C 975.197 3.35394 1.23474 0
M  V30 10313 C 974.863 4.50095 0.269247 0
M  V30 10314 C 973.525 4.812 0.00360316 0
M  V30 10315 C 975.877 5.19725 -0.391839 0
M  V30 10316 C 973.205 5.79276 -0.930383 0
M  V30 10317 C 975.557 6.18801 -1.31408 0
M  V30 10318 C 974.221 6.48328 -1.58829 0
M  V30 10319 H 973.491 0.706634 0.223046 0
M  V30 10320 H 976.138 1.91054 -0.1306 0
M  V30 10321 H 974.443 3.33866 2.05039 0
M  V30 10322 H 976.14 3.60247 1.76134 0
M  V30 10323 H 972.73 4.2583 0.486477 0
M  V30 10324 H 976.914 4.95898 -0.199713 0
M  V30 10325 H 972.17 6.00484 -1.15019 0
M  V30 10326 H 976.344 6.71862 -1.83234 0
M  V30 10327 H 973.971 7.24137 -2.31363 0
M  V30 10328 N 975.546 -0.211634 1.56173 0
M  V30 10329 C 976.792 -0.935935 1.79911 0
M  V30 10330 C 977.125 -1.83589 0.633155 0
M  V30 10331 O 976.4 -1.91004 -0.367132 0
M  V30 10332 C 976.683 -1.76638 3.13801 0
M  V30 10333 C 976.536 -0.892259 4.40861 0
M  V30 10334 C 977.855 -2.74224 3.44223 0
M  V30 10335 H 974.974 -0.338822 0.654499 0
M  V30 10336 H 977.616 -0.20422 1.88899 0
M  V30 10337 H 975.766 -2.39021 3.0627 0
M  V30 10338 H 977.438 -0.284407 4.60422 0
M  V30 10339 H 975.681 -0.198145 4.33347 0
M  V30 10340 H 976.352 -1.50793 5.31004 0
M  V30 10341 H 978.828 -2.21975 3.51946 0
M  V30 10342 H 977.704 -3.29424 4.39057 0
M  V30 10343 H 977.965 -3.52455 2.66885 0
M  V30 10344 N 977.024 -1.50153 -0.478725 0
M  V30 10345 C 978.44 -1.3741 -0.811833 0
M  V30 10346 C 978.64 -0.424303 -1.96982 0
M  V30 10347 O 977.696 0.13588 -2.52134 0
M  V30 10348 C 979.009 -2.78616 -1.13108 0
M  V30 10349 C 980.557 -2.87477 -1.23798 0
M  V30 10350 C 981.032 -4.295 -1.5904 0
M  V30 10351 N 982.523 -4.32415 -1.66047 0
M  V30 10352 C 983.258 -5.39295 -1.94805 0
M  V30 10353 N 982.754 -6.56392 -2.21635 0
M  V30 10354 N 984.547 -5.26731 -1.96243 0
M  V30 10355 H 976.698 -2.10486 0.284531 0
M  V30 10356 H 978.961 -0.945786 0.0647585 0
M  V30 10357 H 978.667 -3.49921 -0.35334 0
M  V30 10358 H 978.541 -3.15382 -2.06915 0
M  V30 10359 H 980.928 -2.16396 -2.00641 0
M  V30 10360 H 981.009 -2.54264 -0.279888 0
M  V30 10361 H 980.653 -5.01115 -0.827404 0
M  V30 10362 H 980.583 -4.60194 -2.55987 0
M  V30 10363 H 983.074 -3.47975 -1.47383 0
M  V30 10364 H 983.387 -7.33658 -2.4283 0
M  V30 10365 H 981.732 -6.59579 -2.19043 0
M  V30 10366 H 984.923 -4.34249 -1.74773 0
M  V30 10367 H 985.096 -6.10115 -2.1832 0
M  V30 10368 N 978.502 0.731368 -1.39602 0
M  V30 10369 C 979.918 1.03739 -1.21286 0
M  V30 10370 C 980.118 2.01353 -0.0769875 0
M  V30 10371 O 979.174 2.45978 0.570193 0
M  V30 10372 C 980.487 1.59621 -2.54837 0
M  V30 10373 C 982.035 1.71683 -2.61713 0
M  V30 10374 C 982.51 2.30973 -3.95494 0
M  V30 10375 N 984.001 2.38378 -3.97153 0
M  V30 10376 C 984.736 2.852 -4.97442 0
M  V30 10377 N 984.232 3.31891 -6.08129 0
M  V30 10378 N 986.025 2.84441 -4.84819 0
M  V30 10379 H 978.176 0.0840456 -2.12234 0
M  V30 10380 H 980.439 0.0999038 -0.942721 0
M  V30 10381 H 980.145 0.953608 -3.38525 0
M  V30 10382 H 980.019 2.58375 -2.74813 0
M  V30 10383 H 982.406 2.35064 -1.78406 0
M  V30 10384 H 982.487 0.715714 -2.45583 0
M  V30 10385 H 982.131 1.68219 -4.79234 0
M  V30 10386 H 982.061 3.31769 -4.08946 0
M  V30 10387 H 984.552 2.05382 -3.17217 0
M  V30 10388 H 984.865 3.66138 -6.8056 0
M  V30 10389 H 983.21 3.2989 -6.11717 0
M  V30 10390 H 986.401 2.4729 -3.97448 0
M  V30 10391 H 986.574 3.20616 -5.63124 0
M  V30 10392 N 979.98 1.24838 0.961938 0
M  V30 10393 C 981.257 0.99939 1.68141 0
M  V30 10394 C 981.637 -0.476588 2.0565 0
M  V30 10395 O 980.985 -1.45224 1.76415 0
M  V30 10396 C 981.195 1.92797 2.90913 0
M  V30 10397 C 982.543 2.20219 3.63027 0
M  V30 10398 O 983.567 1.90496 3.00981 0
M  V30 10399 O 982.426 2.70725 4.74731 0
M  V30 10400 H 979.52 0.37842 0.735342 0
M  V30 10401 H 982.066 1.35961 1.01551 0
M  V30 10402 H 980.838 2.92492 2.59931 0
M  V30 10403 H 980.461 1.57127 3.65235 0
M  V30 10404 N 981.458 -1.16348 1.06306 0
M  V30 10405 C 982.869 -1.68491 0.80422 0
M  V30 10406 C 983.22 -1.84327 -0.672159 0
M  V30 10407 O 982.345 -1.53892 -1.52139 0
M  V30 10408 C 982.94 -3.06048 1.45328 0
M  V30 10409 C 981.499 -3.55311 1.24221 0
M  V30 10410 C 980.646 -2.31291 1.5297 0
M  V30 10411 H 983.597 -1.00708 1.22652 0
M  V30 10412 H 983.618 -3.70451 0.868674 0
M  V30 10413 H 983.13 -2.9449 2.52779 0
M  V30 10414 H 981.231 -3.72128 0.187447 0
M  V30 10415 H 981.344 -4.37397 1.95502 0
M  V30 10416 H 979.708 -2.3631 0.950241 0
M  V30 10417 H 980.491 -2.22331 2.6158 0
M  V30 10418 N 982.937 -0.845659 -1.3299 0
M  V30 10419 C 984.162 -0.457435 -2.02293 0
M  V30 10420 C 984.587 0.935634 -1.63179 0
M  V30 10421 O 983.945 1.61297 -0.827835 0
M  V30 10422 C 983.993 -0.593665 -3.5568 0
M  V30 10423 O 983.097 0.37729 -4.10671 0
M  V30 10424 H 982.438 -0.185022 -0.637701 0
M  V30 10425 H 984.968 -1.14237 -1.69738 0
M  V30 10426 H 984.978 -0.477834 -4.05192 0
M  V30 10427 H 983.653 -1.60957 -3.83491 0
M  V30 10428 H 982.23 0.218448 -3.7226 0
M  V30 10429 N 984.415 1.45619 -0.602734 0
M  V30 10430 C 985.325 2.34288 0.120902 0
M  V30 10431 C 986.341 1.50952 0.865414 0
M  V30 10432 O 987.517 1.83768 0.824094 0
M  V30 10433 C 984.582 3.28489 1.10888 0
M  V30 10434 C 983.643 4.2773 0.366853 0
M  V30 10435 C 982.876 5.17429 1.30776 0
M  V30 10436 O 983.099 5.10459 2.54535 0
M  V30 10437 O 982.033 5.96459 0.807464 0
M  V30 10438 H 985.859 2.97559 -0.60765 0
M  V30 10439 H 983.444 1.44922 -0.363019 0
M  V30 10440 H 985.326 3.86549 1.67803 0
M  V30 10441 H 984.001 2.67789 1.81854 0
M  V30 10442 H 982.908 3.73299 -0.244643 0
M  V30 10443 H 984.241 4.91271 -0.302226 0
M  V30 10444 N 985.893 0.34162 1.53853 0
M  V30 10445 C 987.141 -0.254979 2.00485 0
M  V30 10446 C 987.462 -1.51222 1.23114 0
M  V30 10447 O 986.732 -1.92966 0.337787 0
M  V30 10448 H 985.312 -0.0972084 0.740648 0
M  V30 10449 H 987.974 0.462332 1.89337 0
M  V30 10450 H 987.07 -0.498778 3.08089 0
M  V30 10451 N 987.371 -1.57444 0.0701946 0
M  V30 10452 C 988.281 -2.16132 -0.912377 0
M  V30 10453 C 989.297 -1.12406 -1.32819 0
M  V30 10454 O 990.473 -1.44665 -1.40121 0
M  V30 10455 C 987.538 -2.71008 -2.16231 0
M  V30 10456 C 986.599 -3.896 -1.80306 0
M  V30 10457 C 985.832 -4.4185 -2.9934 0
M  V30 10458 O 986.055 -3.93106 -4.13309 0
M  V30 10459 O 984.989 -5.33201 -2.7925 0
M  V30 10460 H 988.815 -3.00449 -0.443167 0
M  V30 10461 H 986.4 -1.48617 -0.152786 0
M  V30 10462 H 988.282 -3.06186 -2.8953 0
M  V30 10463 H 986.957 -1.8975 -2.62253 0
M  V30 10464 H 985.864 -3.59277 -1.04264 0
M  V30 10465 H 987.197 -4.72145 -1.39068 0
M  V30 10466 N 988.849 0.203349 -1.56283 0
M  V30 10467 C 989.812 1.23566 -1.93039 0
M  V30 10468 C 990.812 1.38869 -0.810687 0
M  V30 10469 O 992.002 1.36822 -1.07821 0
M  V30 10470 C 989.134 2.60645 -2.1972 0
M  V30 10471 H 990.327 0.921692 -2.85385 0
M  V30 10472 H 987.88 0.44453 -1.49845 0
M  V30 10473 H 988.615 2.9711 -1.29985 0
M  V30 10474 H 988.4 2.50911 -3.01307 0
M  V30 10475 H 989.89 3.35103 -2.4919 0
M  V30 10476 N 990.327 1.50405 0.470755 0
M  V30 10477 C 991.552 1.65442 1.25075 0
M  V30 10478 C 991.977 0.337612 1.85045 0
M  V30 10479 O 991.335 -0.698555 1.67302 0
M  V30 10480 C 991.383 2.74793 2.33498 0
M  V30 10481 O 990.487 2.36069 3.3815 0
M  V30 10482 H 989.828 0.552728 0.367951 0
M  V30 10483 H 992.358 1.96782 0.560177 0
M  V30 10484 H 992.368 2.97879 2.78804 0
M  V30 10485 H 991.043 3.70363 1.8922 0
M  V30 10486 H 989.62 2.2343 2.98552 0
M  V30 10487 N 991.805 -0.723954 1.39988 0
M  V30 10488 C 993.053 -1.48078 1.3754 0
M  V30 10489 C 993.374 -1.94985 -0.0243358 0
M  V30 10490 O 992.644 -1.69764 -0.977602 0
M  V30 10491 H 991.224 -0.549354 0.506181 0
M  V30 10492 H 993.886 -0.858746 1.74962 0
M  V30 10493 H 992.982 -2.35763 2.04505 0
M  V30 10494 N 993.283 -1.25346 -0.955304 0
M  V30 10495 C 994.699 -1.02154 -1.22625 0
M  V30 10496 C 994.899 0.26206 -1.99789 0
M  V30 10497 O 993.955 0.974958 -2.32918 0
M  V30 10498 C 995.268 -2.2443 -2.00129 0
M  V30 10499 C 996.816 -2.29185 -2.13174 0
M  V30 10500 C 997.291 -3.51117 -2.94077 0
M  V30 10501 N 998.782 -3.51509 -3.01655 0
M  V30 10502 C 999.517 -4.42517 -3.64645 0
M  V30 10503 N 999.013 -5.43796 -4.29252 0
M  V30 10504 N 1000.81 -4.302 -3.61779 0
M  V30 10505 H 992.957 -2.07812 -0.439071 0
M  V30 10506 H 995.22 -0.91258 -0.256715 0
M  V30 10507 H 994.926 -3.17717 -1.50827 0
M  V30 10508 H 994.8 -2.27548 -3.00835 0
M  V30 10509 H 997.187 -1.36422 -2.61674 0
M  V30 10510 H 997.268 -2.30087 -1.11775 0
M  V30 10511 H 996.912 -4.44201 -2.46268 0
M  V30 10512 H 996.842 -3.4746 -3.95701 0
M  V30 10513 H 999.333 -2.78245 -2.55711 0
M  V30 10514 H 999.646 -6.09453 -4.75171 0
M  V30 10515 H 997.991 -5.4767 -4.27882 0
M  V30 10516 H 1001.18 -3.50304 -3.10491 0
M  V30 10517 H 1001.36 -5.01323 -4.10584 0
M  V30 10518 N 994.761 1.15782 -1.06922 0
M  V30 10519 C 995.989 1.90355 -0.81072 0
M  V30 10520 C 996.404 1.77779 0.635614 0
M  V30 10521 O 995.761 1.12675 1.43564 0
M  V30 10522 C 995.812 3.4085 -1.2043 0
M  V30 10523 O 995.533 3.53057 -2.59388 0
M  V30 10524 C 997.034 4.32457 -0.974473 0
M  V30 10525 H 994.254 0.60343 -0.293451 0
M  V30 10526 H 996.798 1.46723 -1.42452 0
M  V30 10527 H 994.953 3.82162 -0.634909 0
M  V30 10528 H 995.367 4.46426 -2.75326 0
M  V30 10529 H 996.841 5.36488 -1.29942 0
M  V30 10530 H 997.318 4.39109 0.0894481 0
M  V30 10531 H 997.924 3.96882 -1.52856 0
M  V30 10532 N 996.239 0.8527 1.3254 0
M  V30 10533 C 997.516 0.376491 1.91942 0
M  V30 10534 C 997.896 -1.13972 1.7769 0
M  V30 10535 O 997.244 -1.96047 1.17379 0
M  V30 10536 C 997.454 0.838694 3.38773 0
M  V30 10537 C 998.802 0.854736 4.15908 0
M  V30 10538 O 999.826 0.783203 3.47483 0
M  V30 10539 O 998.685 0.955207 5.38087 0
M  V30 10540 H 995.779 0.109412 0.81973 0
M  V30 10541 H 998.325 0.93947 1.41322 0
M  V30 10542 H 997.097 1.88179 3.43081 0
M  V30 10543 H 996.72 0.253055 3.96794 0
M  V30 10544 N 997.718 -1.45297 0.610449 0
M  V30 10545 C 998.946 -2.0659 0.113211 0
M  V30 10546 C 999.361 -1.4546 -1.20361 0
M  V30 10547 O 998.718 -0.569823 -1.73376 0
M  V30 10548 C 998.769 -3.61488 -0.0298411 0
M  V30 10549 O 998.49 -4.20336 1.23488 0
M  V30 10550 C 999.991 -4.39772 -0.558202 0
M  V30 10551 H 997.211 -0.667322 0.0701555 0
M  V30 10552 H 999.755 -1.86497 0.838993 0
M  V30 10553 H 997.91 -3.80913 -0.705963 0
M  V30 10554 H 998.324 -5.13545 1.0664 0
M  V30 10555 H 999.798 -5.48648 -0.607375 0
M  V30 10556 H 1000.27 -4.09755 -1.58107 0
M  V30 10557 H 1000.88 -4.25217 0.0839704 0
M  V30 10558 N 999.196 -0.349774 -1.5367 0
M  V30 10559 C 1000.42 0.248692 -2.05904 0
M  V30 10560 C 1000.85 1.42942 -1.22267 0
M  V30 10561 O 1000.2 1.79732 -0.237899 0
M  V30 10562 C 1000.25 0.635639 -3.54953 0
M  V30 10563 O 999.356 1.7349 -3.74132 0
M  V30 10564 H 998.697 0.0399477 -0.662797 0
M  V30 10565 H 1001.23 -0.505795 -1.9825 0
M  V30 10566 H 1001.24 0.911064 -3.97698 0
M  V30 10567 H 999.912 -0.227805 -4.15276 0
M  V30 10568 H 998.489 1.45626 -3.43289 0
M  V30 10569 N 1000.67 1.57404 -0.0785433 0
M  V30 10570 C 1002.09 1.57158 0.2781 0
M  V30 10571 C 1002.29 1.08847 1.69572 0
M  V30 10572 O 1001.35 0.757407 2.40873 0
M  V30 10573 C 1002.66 3.00589 0.0816067 0
M  V30 10574 C 1004.21 3.12637 0.150627 0
M  V30 10575 C 1004.68 4.57997 -0.0176685 0
M  V30 10576 N 1006.17 4.63185 0.0377145 0
M  V30 10577 C 1006.91 5.7336 -0.0679907 0
M  V30 10578 N 1006.4 6.92426 -0.227598 0
M  V30 10579 N 1008.2 5.62099 -0.0104424 0
M  V30 10580 H 1000.35 1.87121 -1.00496 0
M  V30 10581 H 1002.61 0.862937 -0.392484 0
M  V30 10582 H 1002.32 3.40072 -0.896869 0
M  V30 10583 H 1002.19 3.67931 0.831046 0
M  V30 10584 H 1004.58 2.73037 1.11959 0
M  V30 10585 H 1004.66 2.4792 -0.630028 0
M  V30 10586 H 1004.3 4.98288 -0.983431 0
M  V30 10587 H 1004.23 5.20754 0.782475 0
M  V30 10588 H 1006.72 3.77564 0.159208 0
M  V30 10589 H 1007.04 7.72217 -0.300217 0
M  V30 10590 H 1005.38 6.94502 -0.263049 0
M  V30 10591 H 1008.57 4.67964 0.112999 0
M  V30 10592 H 1008.75 6.47928 -0.0962747 0
M  V30 10593 N 1002.15 -0.195058 1.56388 0
M  V30 10594 C 1003.38 -0.935745 1.85091 0
M  V30 10595 C 1003.8 -1.76061 0.662118 0
M  V30 10596 O 1003.16 -1.77076 -0.389083 0
M  V30 10597 C 1003.21 -1.80764 3.1202 0
M  V30 10598 O 1002.31 -2.90643 2.92575 0
M  V30 10599 H 1001.65 -0.26351 0.609474 0
M  V30 10600 H 1004.18 -0.200362 2.03617 0
M  V30 10601 H 1004.19 -2.21229 3.42815 0
M  V30 10602 H 1002.87 -1.20157 3.98165 0
M  V30 10603 H 1001.44 -2.53934 2.73079 0
M  V30 10604 N 1003.63 -1.50653 -0.462772 0
M  V30 10605 C 1004.86 -1.65826 -1.23731 0
M  V30 10606 C 1005.27 -0.345002 -1.85621 0
M  V30 10607 O 1004.63 0.673935 -1.69601 0
M  V30 10608 C 1004.68 -2.7555 -2.33997 0
M  V30 10609 O 1004.4 -4.01785 -1.74643 0
M  V30 10610 C 1005.9 -3.0177 -3.2473 0
M  V30 10611 H 1003.12 -0.557177 -0.373892 0
M  V30 10612 H 1005.67 -1.96925 -0.551434 0
M  V30 10613 H 1003.82 -2.47122 -2.98345 0
M  V30 10614 H 1004.24 -4.62529 -2.4732 0
M  V30 10615 H 1005.71 -3.82188 -3.98292 0
M  V30 10616 H 1006.19 -2.13167 -3.84001 0
M  V30 10617 H 1006.79 -3.31761 -2.66111 0
M  V30 10618 N 1005.11 0.71652 -1.4037 0
M  V30 10619 C 1006.33 1.51069 -1.42102 0
M  V30 10620 C 1006.76 1.88087 -0.0222387 0
M  V30 10621 O 1006.12 1.53204 0.969448 0
M  V30 10622 C 1006.16 2.76307 -2.31704 0
M  V30 10623 O 1005.27 3.72975 -1.75964 0
M  V30 10624 H 1004.61 0.455502 -0.483129 0
M  V30 10625 H 1007.14 0.882514 -1.84588 0
M  V30 10626 H 1007.15 3.24846 -2.46859 0
M  V30 10627 H 1005.82 2.48698 -3.3335 0
M  V30 10628 H 1004.4 3.31818 -1.70151 0
M  V30 10629 N 1006.59 1.25851 0.948643 0
M  V30 10630 C 1007.83 1.10735 1.69062 0
M  V30 10631 C 1008.16 -0.351257 1.9181 0
M  V30 10632 O 1007.43 -1.24867 1.50947 0
M  V30 10633 H 1006.01 0.406796 0.626519 0
M  V30 10634 H 1008.67 1.58066 1.14022 0
M  V30 10635 H 1007.76 1.62033 2.66743 0
M  V30 10636 N 1008.06 -1.15214 1.07534 0
M  V30 10637 C 1008.97 -2.23636 0.708818 0
M  V30 10638 C 1009.99 -1.7172 -0.280759 0
M  V30 10639 O 1011.17 -2.01 -0.126927 0
M  V30 10640 C 1008.23 -3.46512 0.114167 0
M  V30 10641 C 1007.29 -4.13409 1.15722 0
M  V30 10642 C 1006.53 -5.30419 0.59085 0
M  V30 10643 O 1006.75 -5.67314 -0.592512 0
M  V30 10644 O 1005.68 -5.86871 1.33663 0
M  V30 10645 H 1009.51 -2.57322 1.61305 0
M  V30 10646 H 1007.09 -1.22972 0.848422 0
M  V30 10647 H 1008.98 -4.20851 -0.215091 0
M  V30 10648 H 1007.65 -3.1457 -0.763356 0
M  V30 10649 H 1006.56 -3.40984 1.53886 0
M  V30 10650 H 1007.89 -4.49435 2.00671 0
M  V30 10651 N 1009.54 -0.859717 -1.32086 0
M  V30 10652 C 1010.95 -0.519529 -1.79326 0
M  V30 10653 C 1011.3 0.96295 -1.70944 0
M  V30 10654 O 1010.43 1.75139 -1.27104 0
M  V30 10655 C 1011.02 -0.936267 -3.25606 0
M  V30 10656 C 1009.58 -0.647899 -3.70782 0
M  V30 10657 C 1008.73 -1.13323 -2.53087 0
M  V30 10658 H 1011.68 -1.04643 -1.19312 0
M  V30 10659 H 1011.7 -0.254714 -3.79646 0
M  V30 10660 H 1011.21 -2.01527 -3.31675 0
M  V30 10661 H 1009.32 0.420172 -3.70223 0
M  V30 10662 H 1009.43 -1.21774 -4.63366 0
M  V30 10663 H 1007.79 -0.553325 -2.48617 0
M  V30 10664 H 1008.58 -2.21945 -2.61907 0
M  V30 10665 N 1011.02 1.44971 -0.618145 0
M  V30 10666 C 1011.97 2.30606 0.09449 0
M  V30 10667 C 1012.94 1.42725 0.849633 0
M  V30 10668 O 1014.12 1.71643 0.833266 0
M  V30 10669 C 1011.26 3.27803 1.07886 0
M  V30 10670 C 1010.38 4.30787 0.323488 0
M  V30 10671 C 1009.51 5.15085 1.29851 0
M  V30 10672 C 1008.55 6.09788 0.531561 0
M  V30 10673 N 1007.69 6.86829 1.4564 0
M  V30 10674 H 1012.53 2.91008 -0.641738 0
M  V30 10675 H 1010.06 1.43391 -0.328259 0
M  V30 10676 H 1012.02 3.82631 1.66281 0
M  V30 10677 H 1010.65 2.69131 1.78237 0
M  V30 10678 H 1009.7 3.78536 -0.376164 0
M  V30 10679 H 1011.02 4.98044 -0.274443 0
M  V30 10680 H 1010.17 5.74365 1.95421 0
M  V30 10681 H 1008.91 4.4787 1.93037 0
M  V30 10682 H 1007.91 5.49628 -0.137702 0
M  V30 10683 H 1009.14 6.79033 -0.0953993 0
M  V30 10684 H 1007.08 6.22295 2.07571 0
M  V30 10685 H 1007 7.50477 0.912167 0
M  V30 10686 H 1008.27 7.50642 2.10134 0
M  V30 10687 N 1012.5 0.357919 1.53482 0
M  V30 10688 C 1013.41 -0.500273 2.29204 0
M  V30 10689 C 1014.42 -1.09936 1.3487 0
M  V30 10690 O 1015.6 -1.11195 1.67921 0
M  V30 10691 C 1012.67 -1.62828 3.06085 0
M  V30 10692 C 1011.73 -1.05751 4.16071 0
M  V30 10693 C 1010.96 -2.13176 4.89277 0
M  V30 10694 O 1011.18 -3.34153 4.62274 0
M  V30 10695 O 1010.12 -1.76663 5.7539 0
M  V30 10696 H 1013.94 0.115696 3.0348 0
M  V30 10697 H 1011.53 0.122527 1.48897 0
M  V30 10698 H 1013.41 -2.28427 3.54117 0
M  V30 10699 H 1012.08 -2.22979 2.34653 0
M  V30 10700 H 1010.99 -0.365642 3.72309 0
M  V30 10701 H 1012.32 -0.500661 4.89647 0
M  V30 10702 N 1013.98 -1.5736 0.0868897 0
M  V30 10703 C 1015.39 -1.57304 -0.269762 0
M  V30 10704 C 1015.59 -1.09745 -1.68992 0
M  V30 10705 O 1014.65 -0.77017 -2.40468 0
M  V30 10706 C 1015.96 -3.00628 -0.0656646 0
M  V30 10707 C 1017.51 -3.12713 -0.134045 0
M  V30 10708 C 1017.98 -4.57981 0.0419569 0
M  V30 10709 N 1019.48 -4.63198 -0.0131501 0
M  V30 10710 C 1020.21 -5.73316 0.0983964 0
M  V30 10711 N 1019.71 -6.92296 0.264315 0
M  V30 10712 N 1021.5 -5.62086 0.0402517 0
M  V30 10713 H 1013.65 -1.86585 1.01487 0
M  V30 10714 H 1015.91 -0.860843 0.397055 0
M  V30 10715 H 1015.62 -3.39592 0.914891 0
M  V30 10716 H 1015.49 -3.68367 -0.811522 0
M  V30 10717 H 1017.88 -2.73627 -1.1051 0
M  V30 10718 H 1017.96 -2.47582 0.643167 0
M  V30 10719 H 1017.61 -4.9776 1.00984 0
M  V30 10720 H 1017.54 -5.21162 -0.754847 0
M  V30 10721 H 1020.03 -3.77644 -0.139183 0
M  V30 10722 H 1020.34 -7.72047 0.341165 0
M  V30 10723 H 1018.68 -6.94353 0.299876 0
M  V30 10724 H 1021.88 -4.68017 -0.0881801 0
M  V30 10725 H 1022.05 -6.47868 0.130635 0
M  V30 10726 N 1015.45 0.186762 -1.56489 0
M  V30 10727 C 1016.73 0.932229 -1.71956 0
M  V30 10728 C 1017.11 2.01037 -0.644006 0
M  V30 10729 O 1016.46 2.259 0.343694 0
M  V30 10730 C 1016.67 1.51106 -3.14592 0
M  V30 10731 C 1018.02 1.98997 -3.75081 0
M  V30 10732 O 1019.04 1.60931 -3.17773 0
M  V30 10733 O 1017.9 2.69067 -4.75673 0
M  V30 10734 H 1014.99 0.437736 -0.701652 0
M  V30 10735 H 1017.54 0.175803 -1.68787 0
M  V30 10736 H 1016.31 0.734327 -3.84348 0
M  V30 10737 H 1015.94 2.33209 -3.22024 0
M  V30 10738 N 1016.93 1.50896 0.454776 0
M  V30 10739 C 1017.88 1.70947 1.55067 0
M  V30 10740 C 1018.85 0.550899 1.56698 0
M  V30 10741 O 1020.03 0.783352 1.73978 0
M  V30 10742 C 1017.17 1.82455 2.92924 0
M  V30 10743 C 1016.29 3.09919 3.00956 0
M  V30 10744 C 1015.42 3.12125 4.29827 0
M  V30 10745 C 1014.46 4.33975 4.31662 0
M  V30 10746 N 1013.6 4.33828 5.5203 0
M  V30 10747 H 1018.44 2.645 1.37273 0
M  V30 10748 H 1015.98 1.31101 0.667148 0
M  V30 10749 H 1017.93 1.87108 3.72889 0
M  V30 10750 H 1016.56 0.92327 3.09315 0
M  V30 10751 H 1015.62 3.14659 2.13761 0
M  V30 10752 H 1016.93 3.99869 2.98172 0
M  V30 10753 H 1016.08 3.15598 5.18154 0
M  V30 10754 H 1014.82 2.20033 4.35243 0
M  V30 10755 H 1013.83 4.30697 3.41731 0
M  V30 10756 H 1015.05 5.27312 4.27924 0
M  V30 10757 H 1013 3.44598 5.58201 0
M  V30 10758 H 1012.91 5.17566 5.51055 0
M  V30 10759 H 1014.18 4.4147 6.42437 0
M  V30 10760 N 1018.41 -0.709066 1.40748 0
M  V30 10761 C 1019.32 -1.85314 1.43861 0
M  V30 10762 C 1020.34 -1.70832 0.330539 0
M  V30 10763 O 1021.51 -1.92983 0.576152 0
M  V30 10764 C 1018.58 -3.21174 1.30568 0
M  V30 10765 C 1017.64 -3.47863 2.51574 0
M  V30 10766 C 1016.87 -4.77241 2.38906 0
M  V30 10767 O 1017.09 -5.52791 1.40636 0
M  V30 10768 O 1016.03 -5.04413 3.28407 0
M  V30 10769 H 1019.85 -1.85644 2.40354 0
M  V30 10770 H 1017.44 -0.860352 1.2214 0
M  V30 10771 H 1019.32 -4.02313 1.25388 0
M  V30 10772 H 1018 -3.21557 0.371841 0
M  V30 10773 H 1016.9 -2.66708 2.62331 0
M  V30 10774 H 1018.24 -3.52283 3.43741 0
M  V30 10775 N 1019.89 -1.26353 -0.941956 0
M  V30 10776 C 1020.8 -1.09618 -2.07415 0
M  V30 10777 C 1021.82 -0.0298963 -1.73974 0
M  V30 10778 O 1022.99 -0.233466 -2.00042 0
M  V30 10779 C 1020.06 -0.73013 -3.38925 0
M  V30 10780 C 1019.12 -1.87574 -3.86153 0
M  V30 10781 C 1018.35 -1.52706 -5.11387 0
M  V30 10782 O 1018.57 -0.428438 -5.68789 0
M  V30 10783 O 1017.51 -2.36154 -5.53638 0
M  V30 10784 H 1021.33 -2.04598 -2.2444 0
M  V30 10785 H 1018.92 -1.05407 -1.05876 0
M  V30 10786 H 1020.8 -0.538684 -4.17943 0
M  V30 10787 H 1019.48 0.190282 -3.2314 0
M  V30 10788 H 1018.38 -2.12214 -3.08084 0
M  V30 10789 H 1019.72 -2.77585 -4.06457 0
M  V30 10790 N 1021.37 1.14642 -1.08144 0
M  V30 10791 C 1022.62 1.8525 -0.807885 0
M  V30 10792 C 1022.94 1.83194 0.668213 0
M  V30 10793 O 1022.21 1.27848 1.48431 0
M  V30 10794 H 1020.79 0.685909 -0.295868 0
M  V30 10795 H 1023.45 1.38935 -1.36686 0
M  V30 10796 H 1022.54 2.90155 -1.14964 0
M  V30 10797 N 1022.85 0.866709 1.31628 0
M  V30 10798 C 1023.79 0.318169 2.28596 0
M  V30 10799 C 1024.76 -0.581558 1.55586 0
M  V30 10800 O 1025.95 -0.513895 1.83749 0
M  V30 10801 C 1023.09 -0.477137 3.41786 0
M  V30 10802 C 1022.2 0.449739 4.29653 0
M  V30 10803 C 1021.34 -0.359373 5.29983 0
M  V30 10804 C 1020.37 0.564138 6.09495 0
M  V30 10805 N 1019.51 -0.208526 7.0179 0
M  V30 10806 H 1024.35 1.15029 2.74904 0
M  V30 10807 H 1021.89 0.578649 1.35241 0
M  V30 10808 H 1023.85 -0.953985 4.06146 0
M  V30 10809 H 1022.48 -1.27398 2.96597 0
M  V30 10810 H 1021.53 1.04502 3.65764 0
M  V30 10811 H 1022.84 1.158 4.85172 0
M  V30 10812 H 1021.99 -0.89887 6.00004 0
M  V30 10813 H 1020.73 -1.10094 4.75111 0
M  V30 10814 H 1019.74 1.11542 5.38366 0
M  V30 10815 H 1020.96 1.30451 6.66453 0
M  V30 10816 H 1018.91 -0.932969 6.49332 0
M  V30 10817 H 1018.83 0.440463 7.54716 0
M  V30 10818 H 1020.09 -0.72936 7.7608 0
M  V30 10819 N 1024.32 -1.44642 0.625825 0
M  V30 10820 C 1025.6 -1.9551 0.0593587 0
M  V30 10821 C 1025.98 -1.56792 -1.41349 0
M  V30 10822 O 1025.33 -0.839373 -2.12525 0
M  V30 10823 C 1025.54 -3.47902 0.276647 0
M  V30 10824 C 1026.89 -4.24271 0.167044 0
M  V30 10825 O 1027.91 -3.55594 0.207731 0
M  V30 10826 O 1026.77 -5.46458 0.0675 0
M  V30 10827 H 1023.86 -0.826612 -0.0253422 0
M  V30 10828 H 1026.41 -1.54718 0.697159 0
M  V30 10829 H 1025.18 -3.69115 1.29885 0
M  V30 10830 H 1024.8 -3.95628 -0.395547 0
M  V30 10831 N 1025.8 -0.366053 -1.5329 0
M  V30 10832 C 1027.03 0.226839 -2.06156 0
M  V30 10833 C 1027.45 1.41637 -1.23776 0
M  V30 10834 O 1026.81 1.7947 -0.256948 0
M  V30 10835 C 1026.86 0.597956 -3.55608 0
M  V30 10836 O 1025.96 1.69512 -3.75951 0
M  V30 10837 H 1025.3 0.0329156 -0.663184 0
M  V30 10838 H 1027.83 -0.526793 -1.97702 0
M  V30 10839 H 1027.84 0.868831 -3.98642 0
M  V30 10840 H 1026.52 -0.271838 -4.15011 0
M  V30 10841 H 1025.09 1.41976 -3.44815 0
M  V30 10842 N 1027.28 1.57312 -0.0952337 0
M  V30 10843 C 1028.23 2.14032 0.863657 0
M  V30 10844 C 1029.2 1.0589 1.27971 0
M  V30 10845 O 1030.38 1.33678 1.36143 0
M  V30 10846 C 1027.52 2.72513 2.11733 0
M  V30 10847 C 1026.63 3.94887 1.7518 0
M  V30 10848 C 1025.77 4.41533 2.95334 0
M  V30 10849 C 1024.81 5.56496 2.54908 0
M  V30 10850 N 1023.95 5.97993 3.67897 0
M  V30 10851 H 1028.79 2.95655 0.373115 0
M  V30 10852 H 1026.32 1.46085 0.172497 0
M  V30 10853 H 1028.28 3.04539 2.85153 0
M  V30 10854 H 1026.91 1.93618 2.58287 0
M  V30 10855 H 1025.96 3.69175 0.917279 0
M  V30 10856 H 1027.27 4.78322 1.41455 0
M  V30 10857 H 1026.43 4.75343 3.77007 0
M  V30 10858 H 1025.17 3.56999 3.3227 0
M  V30 10859 H 1024.17 5.22314 1.71662 0
M  V30 10860 H 1025.4 6.42779 2.19117 0
M  V30 10861 H 1023.34 5.16405 4.04551 0
M  V30 10862 H 1023.26 6.76225 3.38018 0
M  V30 10863 H 1024.53 6.36434 4.5008 0
M  V30 10864 N 1028.76 -0.17846 1.56586 0
M  V30 10865 C 1030.17 -0.741599 1.71339 0
M  V30 10866 C 1030.52 -1.83112 0.704579 0
M  V30 10867 O 1029.64 -2.15975 -0.135557 0
M  V30 10868 C 1030.24 -1.35198 3.10656 0
M  V30 10869 C 1028.8 -1.86202 3.27118 0
M  V30 10870 C 1027.95 -0.738255 2.67292 0
M  V30 10871 H 1030.9 0.0468424 1.58631 0
M  V30 10872 H 1030.92 -2.2216 3.0891 0
M  V30 10873 H 1030.43 -0.558776 3.84056 0
M  V30 10874 H 1028.53 -2.68188 2.58661 0
M  V30 10875 H 1028.64 -2.01237 4.34788 0
M  V30 10876 H 1027.01 -1.15686 2.26912 0
M  V30 10877 H 1027.79 0.0429821 3.43273 0
M  V30 10878 N 1030.24 -1.51135 -0.446768 0
M  V30 10879 C 1031.65 -1.39101 -0.782504 0
M  V30 10880 C 1031.85 -0.46599 -1.96038 0
M  V30 10881 O 1030.91 0.0823679 -2.52366 0
M  V30 10882 C 1032.22 -2.80953 -1.07173 0
M  V30 10883 C 1033.77 -2.90038 -1.17673 0
M  V30 10884 C 1034.24 -4.32777 -1.49894 0
M  V30 10885 N 1035.73 -4.3584 -1.56837 0
M  V30 10886 C 1036.47 -5.43305 -1.83322 0
M  V30 10887 N 1035.97 -6.60945 -2.07662 0
M  V30 10888 N 1037.76 -5.30775 -1.85026 0
M  V30 10889 H 1029.91 -2.09835 0.329114 0
M  V30 10890 H 1032.17 -0.944199 0.0848054 0
M  V30 10891 H 1031.88 -3.50591 -0.279037 0
M  V30 10892 H 1031.75 -3.197 -2.00179 0
M  V30 10893 H 1034.14 -2.20603 -1.96005 0
M  V30 10894 H 1034.22 -2.54801 -0.225892 0
M  V30 10895 H 1033.86 -5.02757 -0.720924 0
M  V30 10896 H 1033.79 -4.6552 -2.46168 0
M  V30 10897 H 1036.29 -3.51023 -1.39968 0
M  V30 10898 H 1036.6 -7.38643 -2.27214 0
M  V30 10899 H 1034.94 -6.64077 -2.05003 0
M  V30 10900 H 1038.13 -4.37858 -1.65523 0
M  V30 10901 H 1038.31 -6.14609 -2.05329 0
M  V30 10902 N 1031.71 0.701592 -1.41122 0
M  V30 10903 C 1032.94 1.49553 -1.43696 0
M  V30 10904 C 1033.36 1.88053 -0.0421865 0
M  V30 10905 O 1032.72 1.54223 0.953144 0
M  V30 10906 C 1032.77 2.73834 -2.34622 0
M  V30 10907 O 1031.87 3.71088 -1.7991 0
M  V30 10908 H 1031.21 0.450352 -0.487933 0
M  V30 10909 H 1033.74 0.862886 -1.85514 0
M  V30 10910 H 1033.75 3.22209 -2.5029 0
M  V30 10911 H 1032.43 2.45149 -3.35969 0
M  V30 10912 H 1031.01 3.29994 -1.73661 0
M  V30 10913 N 1033.19 1.2685 0.935242 0
M  V30 10914 C 1034.12 1.1143 2.05196 0
M  V30 10915 C 1035.1 0.0178362 1.70091 0
M  V30 10916 O 1036.29 0.190951 1.93259 0
M  V30 10917 C 1033.42 0.752779 3.39044 0
M  V30 10918 C 1032.37 1.80164 3.88233 0
M  V30 10919 C 1031.7 1.29428 5.18799 0
M  V30 10920 C 1033 3.20431 4.12457 0
M  V30 10921 H 1034.69 2.04845 2.18355 0
M  V30 10922 H 1032.24 0.986276 1.04922 0
M  V30 10923 H 1034.19 0.631757 4.16637 0
M  V30 10924 H 1032.91 -0.217075 3.25878 0
M  V30 10925 H 1031.57 1.91144 3.12825 0
M  V30 10926 H 1031.22 0.3141 5.02018 0
M  V30 10927 H 1030.92 1.99546 5.5268 0
M  V30 10928 H 1032.45 1.18605 5.9897 0
M  V30 10929 H 1033.86 3.12495 4.80645 0
M  V30 10930 H 1032.26 3.88193 4.57631 0
M  V30 10931 H 1033.33 3.66046 3.18023 0
M  V30 10932 N 1034.67 -1.14067 1.0875 0
M  V30 10933 C 1036.09 -1.37173 0.815823 0
M  V30 10934 C 1036.29 -1.93175 -0.573215 0
M  V30 10935 O 1035.34 -2.14672 -1.32937 0
M  V30 10936 C 1036.66 -2.32955 1.90138 0
M  V30 10937 C 1038.2 -2.46586 1.9278 0
M  V30 10938 C 1038.68 -3.4567 3.0046 0
M  V30 10939 N 1040.17 -3.53216 2.99655 0
M  V30 10940 C 1040.9 -4.29743 3.79616 0
M  V30 10941 N 1040.4 -5.09484 4.69466 0
M  V30 10942 N 1042.19 -4.24975 3.67903 0
M  V30 10943 H 1034.34 -0.760648 1.98313 0
M  V30 10944 H 1036.61 -0.397135 0.860807 0
M  V30 10945 H 1036.31 -1.98949 2.90021 0
M  V30 10946 H 1036.19 -3.32897 1.77368 0
M  V30 10947 H 1038.57 -2.79882 0.935404 0
M  V30 10948 H 1038.66 -1.46593 2.09629 0
M  V30 10949 H 1038.3 -3.13106 3.99909 0
M  V30 10950 H 1038.23 -4.45452 2.80856 0
M  V30 10951 H 1040.72 -2.96314 2.34535 0
M  V30 10952 H 1041.03 -5.65163 5.27077 0
M  V30 10953 H 1039.38 -5.08741 4.73506 0
M  V30 10954 H 1042.57 -3.61751 2.97075 0
M  V30 10955 H 1042.74 -4.84364 4.30459 0
M  V30 10956 N 1036.15 -0.873678 -1.31166 0
M  V30 10957 C 1037.4 -0.486457 -1.9657 0
M  V30 10958 C 1037.72 0.962042 -1.69041 0
M  V30 10959 O 1036.98 1.69305 -0.981543 0
M  V30 10960 C 1037.28 -0.69462 -3.50585 0
M  V30 10961 C 1036.94 -2.11647 -3.98141 0
M  V30 10962 C 1035.61 -2.50531 -4.10838 0
M  V30 10963 C 1037.96 -3.0436 -4.23101 0
M  V30 10964 C 1035.29 -3.81361 -4.45848 0
M  V30 10965 C 1037.64 -4.34709 -4.59577 0
M  V30 10966 C 1036.3 -4.73502 -4.70481 0
M  V30 10967 H 1035.57 -0.178007 -0.719301 0
M  V30 10968 H 1038.22 -1.10737 -1.56235 0
M  V30 10969 H 1036.52 0.00940878 -3.91799 0
M  V30 10970 H 1038.22 -0.374782 -3.99245 0
M  V30 10971 H 1034.81 -1.8046 -3.88757 0
M  V30 10972 H 1038.99 -2.75544 -4.12782 0
M  V30 10973 H 1034.25 -4.11174 -4.52488 0
M  V30 10974 H 1038.42 -5.06596 -4.77842 0
M  V30 10975 H 1036.05 -5.74919 -4.97365 0
M  V30 10976 N 1037.63 1.44308 -0.633487 0
M  V30 10977 C 1038.85 2.06384 -0.146063 0
M  V30 10978 C 1039.27 1.47357 1.18031 0
M  V30 10979 O 1038.63 0.597334 1.72448 0
M  V30 10980 C 1038.68 3.61489 -0.0276722 0
M  V30 10981 O 1038.4 4.18318 -1.3016 0
M  V30 10982 C 1039.9 4.40604 0.488168 0
M  V30 10983 H 1037.12 0.666122 -0.0807632 0
M  V30 10984 H 1039.66 1.85139 -0.868557 0
M  V30 10985 H 1037.82 3.81988 0.645273 0
M  V30 10986 H 1038.23 5.11783 -1.14797 0
M  V30 10987 H 1039.71 5.49545 0.520013 0
M  V30 10988 H 1040.18 4.12218 1.51568 0
M  V30 10989 H 1040.79 4.2503 -0.151608 0
M  V30 10990 N 1039.1 0.374177 1.53094 0
M  V30 10991 C 1040.35 -0.205669 2.02358 0
M  V30 10992 C 1040.71 -1.4572 1.25633 0
M  V30 10993 O 1040 -1.88487 0.343977 0
M  V30 10994 C 1040.19 -0.542179 3.53264 0
M  V30 10995 C 1040.02 0.675186 4.44602 0
M  V30 10996 C 1038.79 1.18987 4.91091 0
M  V30 10997 C 1040.99 1.54299 4.90608 0
M  V30 10998 N 1038.97 2.36637 5.66459 0
M  V30 10999 C 1040.34 2.56605 5.64406 0
M  V30 11000 C 1042.4 1.56486 4.7267 0
M  V30 11001 C 1041.1 3.60965 6.22171 0
M  V30 11002 C 1043.13 2.59745 5.31307 0
M  V30 11003 C 1042.49 3.60774 6.04997 0
M  V30 11004 H 1038.59 -0.0377471 0.781088 0
M  V30 11005 H 1041.17 0.520661 1.87609 0
M  V30 11006 H 1039.34 -1.23758 3.68156 0
M  V30 11007 H 1041.07 -1.10786 3.89241 0
M  V30 11008 H 1037.83 0.753181 4.67573 0
M  V30 11009 H 1038.25 2.96123 6.08802 0
M  V30 11010 H 1042.9 0.797296 4.15214 0
M  V30 11011 H 1040.61 4.38599 6.78717 0
M  V30 11012 H 1044.2 2.62301 5.19316 0
M  V30 11013 H 1043.08 4.39363 6.49561 0
M  V30 11014 N 1040.58 -1.57259 0.103575 0
M  V30 11015 C 1041.81 -1.99424 -0.569638 0
M  V30 11016 C 1042.23 -0.982475 -1.60403 0
M  V30 11017 O 1041.59 0.0479231 -1.81237 0
M  V30 11018 C 1041.64 -3.40527 -1.18633 0
M  V30 11019 O 1040.74 -3.42167 -2.30208 0
M  V30 11020 H 1040.08 -0.648251 -0.143759 0
M  V30 11021 H 1042.61 -2.03739 0.187493 0
M  V30 11022 H 1042.62 -3.78404 -1.5256 0
M  V30 11023 H 1041.3 -4.13686 -0.428582 0
M  V30 11024 H 1039.88 -3.16093 -1.97837 0
M  V30 11025 N 1042.06 0.170153 -1.56679 0
M  V30 11026 C 1042.99 1.23945 -1.91606 0
M  V30 11027 C 1043.97 1.42725 -0.779004 0
M  V30 11028 O 1045.16 1.57712 -1.03243 0
M  V30 11029 C 1042.28 2.60222 -2.168 0
M  V30 11030 C 1041.33 2.58172 -3.39484 0
M  V30 11031 S 1042.16 2.0714 -4.93815 0
M  V30 11032 C 1043.32 3.45192 -5.22105 0
M  V30 11033 H 1043.55 0.941345 -2.82004 0
M  V30 11034 H 1041.08 0.374771 -1.49783 0
M  V30 11035 H 1043.04 3.38656 -2.31996 0
M  V30 11036 H 1041.7 2.87232 -1.27107 0
M  V30 11037 H 1040.9 3.58435 -3.54317 0
M  V30 11038 H 1040.5 1.87834 -3.2341 0
M  V30 11039 H 1042.79 4.41194 -5.14154 0
M  V30 11040 H 1043.73 3.35233 -6.23718 0
M  V30 11041 H 1044.14 3.41257 -4.49671 0
M  V30 11042 N 1043.54 1.5137 0.438746 0
M  V30 11043 C 1044.49 1.72582 1.53245 0
M  V30 11044 C 1045.46 0.567488 1.56105 0
M  V30 11045 O 1046.64 0.80176 1.73137 0
M  V30 11046 C 1043.78 1.85551 2.90972 0
M  V30 11047 C 1042.89 3.13094 2.97652 0
M  V30 11048 C 1042.03 3.16666 4.26493 0
M  V30 11049 C 1041.07 4.38529 4.27035 0
M  V30 11050 N 1040.2 4.39659 5.47398 0
M  V30 11051 H 1045.04 2.65941 1.3446 0
M  V30 11052 H 1042.58 1.31801 0.653206 0
M  V30 11053 H 1044.54 1.91053 3.70884 0
M  V30 11054 H 1043.17 0.956025 3.08318 0
M  V30 11055 H 1042.22 3.16909 2.10412 0
M  V30 11056 H 1043.53 4.03009 2.93914 0
M  V30 11057 H 1042.69 3.21075 5.14777 0
M  V30 11058 H 1041.43 2.24637 4.32885 0
M  V30 11059 H 1040.43 4.34297 3.37144 0
M  V30 11060 H 1041.66 5.31821 4.22307 0
M  V30 11061 H 1039.6 3.50499 5.54514 0
M  V30 11062 H 1039.52 5.23382 5.45534 0
M  V30 11063 H 1040.79 4.48259 6.37718 0
M  V30 11064 N 1045.02 -0.694098 1.41492 0
M  V30 11065 C 1046.24 -1.48286 1.44288 0
M  V30 11066 C 1046.66 -1.88737 0.0485783 0
M  V30 11067 O 1046.02 -1.56881 -0.932449 0
M  V30 11068 C 1046.07 -2.74446 2.3529 0
M  V30 11069 O 1045.79 -2.35698 3.69294 0
M  V30 11070 C 1047.29 -3.68175 2.46905 0
M  V30 11071 H 1044.51 -0.45692 0.491391 0
M  V30 11072 H 1047.05 -0.854477 1.85793 0
M  V30 11073 H 1045.21 -3.33518 1.9709 0
M  V30 11074 H 1045.62 -3.17029 4.17843 0
M  V30 11075 H 1047.1 -4.53476 3.14743 0
M  V30 11076 H 1047.57 -4.12763 1.50078 0
M  V30 11077 H 1048.18 -3.15006 2.85747 0
M  V30 11078 N 1046.49 -1.27344 -0.928501 0
M  V30 11079 C 1047.72 -1.16447 -1.7102 0
M  V30 11080 C 1048.14 0.278799 -1.8673 0
M  V30 11081 O 1047.49 1.18989 -1.38376 0
M  V30 11082 C 1047.55 -1.84242 -3.11026 0
M  V30 11083 O 1047.27 -3.2293 -2.96054 0
M  V30 11084 C 1048.77 -1.7946 -4.05351 0
M  V30 11085 H 1045.99 -0.404898 -0.535069 0
M  V30 11086 H 1048.53 -1.68201 -1.16313 0
M  V30 11087 H 1046.69 -1.36395 -3.62595 0
M  V30 11088 H 1047.1 -3.5667 -3.8456 0
M  V30 11089 H 1048.57 -2.31511 -5.01105 0
M  V30 11090 H 1049.05 -0.763771 -4.32508 0
M  V30 11091 H 1049.66 -2.26918 -3.59706 0
M  V30 11092 N 1047.97 1.13488 -1.09353 0
M  V30 11093 C 1049.2 1.89133 -0.85108 0
M  V30 11094 C 1049.62 1.78542 0.591976 0
M  V30 11095 O 1048.98 1.13243 1.41583 0
M  V30 11096 C 1049.03 3.36736 -1.29001 0
M  V30 11097 O 1048.13 4.09959 -0.447993 0
M  V30 11098 H 1047.47 0.58809 -0.308296 0
M  V30 11099 H 1050 1.43593 -1.45747 0
M  V30 11100 H 1050.01 3.87564 -1.27508 0
M  V30 11101 H 1048.69 3.43762 -2.34095 0
M  V30 11102 H 1047.27 3.69155 -0.52717 0
M  V30 11103 N 1049.45 0.880621 1.30701 0
M  V30 11104 C 1050.68 0.510909 2.01009 0
M  V30 11105 C 1051.1 -0.892041 1.65603 0
M  V30 11106 O 1050.46 -1.59045 0.870309 0
M  V30 11107 C 1050.51 0.687759 3.53981 0
M  V30 11108 O 1049.61 -0.268275 4.11526 0
M  V30 11109 H 1048.95 0.201864 0.632572 0
M  V30 11110 H 1051.48 1.18697 1.6665 0
M  V30 11111 H 1051.49 0.585095 4.03783 0
M  V30 11112 H 1050.17 1.71068 3.79089 0
M  V30 11113 H 1048.74 -0.119673 3.72708 0
M  V30 11114 N 1050.93 -1.4397 0.641131 0
M  V30 11115 C 1051.86 -2.27948 -0.10731 0
M  V30 11116 C 1052.84 -1.39124 -0.841615 0
M  V30 11117 O 1054.02 -1.68566 -0.843662 0
M  V30 11118 C 1051.15 -3.18277 -1.15835 0
M  V30 11119 C 1050.2 -4.23276 -0.52345 0
M  V30 11120 S 1051.03 -5.30984 0.693969 0
M  V30 11121 C 1052.19 -6.24882 -0.356831 0
M  V30 11122 H 1052.42 -2.91077 0.605083 0
M  V30 11123 H 1049.95 -1.48303 0.429598 0
M  V30 11124 H 1051.91 -3.70867 -1.75977 0
M  V30 11125 H 1050.57 -2.54348 -1.84299 0
M  V30 11126 H 1049.76 -4.86533 -1.31536 0
M  V30 11127 H 1049.37 -3.74 0.00358355 0
M  V30 11128 H 1051.66 -6.66305 -1.22653 0
M  V30 11129 H 1052.6 -7.07692 0.240412 0
M  V30 11130 H 1053.01 -5.60301 -0.687217 0
M  V30 11131 N 1052.41 -0.382291 -1.52893 0
M  V30 11132 C 1053.68 0.259354 -1.93873 0
M  V30 11133 C 1054.06 1.64964 -1.3172 0
M  V30 11134 O 1053.41 2.23345 -0.482611 0
M  V30 11135 C 1053.62 0.292765 -3.4777 0
M  V30 11136 C 1054.97 0.525095 -4.21341 0
M  V30 11137 O 1055.99 0.373272 -3.54239 0
M  V30 11138 O 1054.85 0.822004 -5.40283 0
M  V30 11139 H 1051.95 0.159422 -0.811489 0
M  V30 11140 H 1054.49 -0.436289 -1.63996 0
M  V30 11141 H 1053.27 -0.681341 -3.85323 0
M  V30 11142 H 1052.89 1.03362 -3.8393 0
M  V30 11143 N 1053.89 1.57202 -0.111913 0
M  V30 11144 C 1055.3 1.82039 0.414591 0
M  V30 11145 C 1055.65 1.02863 1.67074 0
M  V30 11146 O 1054.77 0.263068 2.14795 0
M  V30 11147 C 1055.37 3.3019 0.758953 0
M  V30 11148 C 1053.93 3.55732 1.23012 0
M  V30 11149 C 1053.07 2.76301 0.235226 0
M  V30 11150 H 1056.02 1.55078 -0.337142 0
M  V30 11151 H 1056.05 3.44431 1.61701 0
M  V30 11152 H 1055.56 3.87788 -0.155473 0
M  V30 11153 H 1053.66 3.03483 2.16169 0
M  V30 11154 H 1053.77 4.64333 1.18034 0
M  V30 11155 H 1052.14 2.44287 0.720822 0
M  V30 11156 H 1052.92 3.36655 -0.672173 0
M  V30 11157 N 1055.36 -0.161842 1.56767 0
M  V30 11158 C 1056.31 -1.21948 1.98069 0
M  V30 11159 C 1057.31 -1.45303 0.870835 0
M  V30 11160 O 1058.51 -1.45771 1.05598 0
M  V30 11161 H 1054.89 -0.410145 0.630306 0
M  V30 11162 H 1056.86 -0.844336 2.86205 0
M  V30 11163 C 1055.61 -2.549 2.36477 0
M  V30 11164 H 1054.93 -2.37755 3.21423 0
M  V30 11165 H 1056.37 -3.27568 2.69212 0
M  V30 11166 C 1054.83 -3.14353 1.21176 0
M  V30 11167 O 1055.36 -3.98519 0.504499 0
M  V30 11168 N 1053.56 -2.73582 0.979855 0
M  V30 11169 H 1053.11 -2.05239 1.55675 0
M  V30 11170 H 1053.07 -3.13696 0.21025 0
M  V30 11171 N 1056.84 -1.516 -0.430713 0
M  V30 11172 C 1058.12 -1.55142 -1.19123 0
M  V30 11173 C 1058.5 -0.319596 -2.08667 0
M  V30 11174 O 1057.85 0.694927 -2.17676 0
M  V30 11175 C 1058.06 -2.86891 -1.98732 0
M  V30 11176 C 1059.4 -3.39089 -2.55546 0
M  V30 11177 O 1060.43 -2.88486 -2.08936 0
M  V30 11178 O 1059.29 -4.27401 -3.40574 0
M  V30 11179 H 1056.38 -0.624019 -0.542705 0
M  V30 11180 H 1058.93 -1.63917 -0.439244 0
M  V30 11181 H 1057.7 -3.68002 -1.33005 0
M  V30 11182 H 1057.32 -2.81309 -2.80982 0
M  V30 11183 N 1058.32 0.686584 -1.41858 0
M  V30 11184 C 1059.25 1.81107 -1.38836 0
M  V30 11185 C 1060.23 1.60599 -0.254293 0
M  V30 11186 O 1061.41 1.83229 -0.442641 0
M  V30 11187 C 1058.54 3.17928 -1.16787 0
M  V30 11188 C 1057.59 3.5721 -2.33031 0
M  V30 11189 S 1058.42 3.60986 -3.95536 0
M  V30 11190 C 1059.58 5.00519 -3.75808 0
M  V30 11191 H 1059.81 1.83396 -2.33994 0
M  V30 11192 H 1057.34 0.856146 -1.28489 0
M  V30 11193 H 1059.3 3.9691 -1.04752 0
M  V30 11194 H 1057.96 3.1324 -0.232335 0
M  V30 11195 H 1057.15 4.56629 -2.13321 0
M  V30 11196 H 1056.76 2.8556 -2.41519 0
M  V30 11197 H 1059.05 5.88272 -3.36069 0
M  V30 11198 H 1059.99 5.25273 -4.74862 0
M  V30 11199 H 1060.4 4.72481 -3.08904 0
M  V30 11200 N 1059.8 1.27835 0.921735 0
M  V30 11201 C 1060.73 1.05397 2.02402 0
M  V30 11202 C 1061.71 -0.0274904 1.62577 0
M  V30 11203 O 1062.89 0.11885 1.88125 0
M  V30 11204 C 1060.02 0.600016 3.33343 0
M  V30 11205 C 1059.07 1.67693 3.9215 0
M  V30 11206 S 1059.9 3.27093 4.23994 0
M  V30 11207 C 1061.05 2.83513 5.58006 0
M  V30 11208 H 1061.29 1.98723 2.21125 0
M  V30 11209 H 1058.82 1.11733 1.0656 0
M  V30 11210 H 1060.78 0.344793 4.09049 0
M  V30 11211 H 1059.44 -0.313288 3.12534 0
M  V30 11212 H 1058.63 1.31074 4.86658 0
M  V30 11213 H 1058.23 1.88454 3.2305 0
M  V30 11214 H 1060.53 2.29187 6.37557 0
M  V30 11215 H 1061.47 3.76788 5.9953 0
M  V30 11216 H 1061.88 2.22472 5.18813 0
M  V30 11217 N 1061.28 -1.12907 1.09954 0
M  V30 11218 C 1062.69 -1.363 0.830326 0
M  V30 11219 C 1062.89 -1.93772 -0.552694 0
M  V30 11220 O 1061.95 -2.1607 -1.30652 0
M  V30 11221 C 1063.26 -2.30925 1.92598 0
M  V30 11222 C 1064.81 -2.44528 1.95385 0
M  V30 11223 C 1065.28 -3.42464 3.0411 0
M  V30 11224 N 1066.77 -3.50018 3.03384 0
M  V30 11225 C 1067.51 -4.25693 3.84152 0
M  V30 11226 N 1067.01 -5.04476 4.74843 0
M  V30 11227 N 1068.8 -4.21049 3.7239 0
M  V30 11228 H 1060.95 -0.739571 1.99108 0
M  V30 11229 H 1063.21 -0.387983 0.86497 0
M  V30 11230 H 1062.92 -1.95861 2.92115 0
M  V30 11231 H 1062.79 -3.30997 1.80889 0
M  V30 11232 H 1065.18 -2.78875 0.965037 0
M  V30 11233 H 1065.26 -1.44361 2.11172 0
M  V30 11234 H 1064.9 -3.08847 4.03207 0
M  V30 11235 H 1064.83 -4.42448 2.85565 0
M  V30 11236 H 1067.33 -2.93809 2.37665 0
M  V30 11237 H 1067.64 -5.59541 5.33042 0
M  V30 11238 H 1065.98 -5.0369 4.78875 0
M  V30 11239 H 1069.17 -3.5858 3.00895 0
M  V30 11240 H 1069.35 -4.79771 4.35572 0
M  V30 11241 N 1062.75 -0.88754 -1.30232 0
M  V30 11242 C 1063.66 -0.360333 -2.31816 0
M  V30 11243 C 1064.68 0.538741 -1.6545 0
M  V30 11244 O 1065.86 0.431246 -1.96729 0
M  V30 11245 C 1062.92 0.414336 -3.44215 0
M  V30 11246 C 1061.98 -0.514799 -4.26202 0
M  V30 11247 C 1061.21 0.222994 -5.33234 0
M  V30 11248 O 1061.44 1.44871 -5.51696 0
M  V30 11249 O 1060.37 -0.428221 -6.00375 0
M  V30 11250 H 1064.2 -1.20279 -2.78867 0
M  V30 11251 H 1061.78 -0.651459 -1.34448 0
M  V30 11252 H 1063.66 0.852859 -4.12679 0
M  V30 11253 H 1062.34 1.23305 -2.99295 0
M  V30 11254 H 1061.25 -1.00219 -3.60426 0
M  V30 11255 H 1062.58 -1.29959 -4.74733 0
M  V30 11256 N 1064.23 1.43628 -0.648757 0
M  V30 11257 C 1065.48 2.01083 -0.157692 0
M  V30 11258 C 1065.79 1.51756 1.23408 0
M  V30 11259 O 1067 2.01455 1.82012 0
M  V30 11260 C 1065.46 3.59157 -0.231118 0
M  V30 11261 C 1065.06 4.17478 -1.6253 0
M  V30 11262 C 1066.81 4.24016 0.202573 0
M  V30 11263 C 1064.72 5.67832 -1.6529 0
M  V30 11264 H 1063.65 0.751977 -0.0551897 0
M  V30 11265 H 1066.3 1.64648 -0.810139 0
M  V30 11266 H 1064.68 3.92972 0.488755 0
M  V30 11267 H 1065.85 3.9517 -2.37017 0
M  V30 11268 H 1064.17 3.64973 -2.00459 0
M  V30 11269 H 1066.76 5.34319 0.20174 0
M  V30 11270 H 1067.11 3.97616 1.23319 0
M  V30 11271 H 1067.64 3.95068 -0.465398 0
M  V30 11272 H 1064.38 5.98994 -2.66246 0
M  V30 11273 H 1063.9 5.92209 -0.951217 0
M  V30 11274 H 1065.58 6.3179 -1.39465 0
M  V30 11275 N 1065.71 0.390394 1.52688 0
M  V30 11276 C 1067.13 0.0404028 1.59549 0
M  V30 11277 C 1067.33 -1.44503 1.40432 0
M  V30 11278 O 1066.38 -2.20968 1.22187 0
M  V30 11279 C 1067.7 0.518561 2.96195 0
M  V30 11280 C 1069.24 0.474913 3.09376 0
M  V30 11281 C 1069.72 0.929278 4.48473 0
M  V30 11282 N 1071.21 0.885335 4.5466 0
M  V30 11283 C 1071.94 1.2083 5.60524 0
M  V30 11284 N 1071.44 1.6018 6.74028 0
M  V30 11285 N 1073.23 1.12949 5.50635 0
M  V30 11286 H 1065.38 1.35743 1.63363 0
M  V30 11287 H 1067.65 0.556453 0.767505 0
M  V30 11288 H 1067.35 1.55606 3.15404 0
M  V30 11289 H 1067.23 -0.081779 3.77111 0
M  V30 11290 H 1069.61 -0.553503 2.89863 0
M  V30 11291 H 1069.7 1.11107 2.3041 0
M  V30 11292 H 1069.34 1.95593 4.68728 0
M  V30 11293 H 1069.27 0.270121 5.25907 0
M  V30 11294 H 1071.76 0.595787 3.73174 0
M  V30 11295 H 1072.07 1.83184 7.50775 0
M  V30 11296 H 1070.42 1.64067 6.75357 0
M  V30 11297 H 1073.61 0.821074 4.60843 0
M  V30 11298 H 1073.78 1.3845 6.33037 0
M  V30 11299 N 1067.19 -1.57141 0.120249 0
M  V30 11300 C 1068.14 -2.15379 -0.829497 0
M  V30 11301 C 1069.11 -1.07913 -1.2627 0
M  V30 11302 O 1070.29 -1.35827 -1.33999 0
M  V30 11303 C 1067.43 -2.75847 -2.0737 0
M  V30 11304 C 1066.54 -3.97624 -1.68875 0
M  V30 11305 C 1065.68 -4.46175 -2.88272 0
M  V30 11306 C 1064.72 -5.60481 -2.46023 0
M  V30 11307 N 1063.85 -6.0377 -3.58337 0
M  V30 11308 H 1068.69 -2.96211 -0.326031 0
M  V30 11309 H 1066.23 -1.46341 -0.149235 0
M  V30 11310 H 1068.19 -3.09037 -2.80272 0
M  V30 11311 H 1066.82 -1.97703 -2.55174 0
M  V30 11312 H 1065.87 -3.70588 -0.858431 0
M  V30 11313 H 1067.18 -4.80512 -1.33827 0
M  V30 11314 H 1066.34 -4.8128 -3.69397 0
M  V30 11315 H 1065.08 -3.6224 -3.26548 0
M  V30 11316 H 1064.08 -5.24979 -1.63331 0
M  V30 11317 H 1065.31 -6.46184 -2.08863 0
M  V30 11318 H 1063.25 -5.22776 -3.96284 0
M  V30 11319 H 1063.17 -6.81517 -3.27217 0
M  V30 11320 H 1064.44 -6.43514 -4.39898 0
M  V30 11321 N 1068.67 0.153526 -1.5685 0
M  V30 11322 C 1069.91 0.868517 -1.83261 0
M  V30 11323 C 1070.25 1.81112 -0.700857 0
M  V30 11324 O 1069.52 1.92235 0.295989 0
M  V30 11325 C 1069.8 1.6487 -3.2014 0
M  V30 11326 C 1069.66 0.728021 -4.43869 0
M  V30 11327 C 1070.98 2.61259 -3.54163 0
M  V30 11328 H 1068.09 0.314297 -0.666623 0
M  V30 11329 H 1070.74 0.133971 -1.89527 0
M  V30 11330 H 1068.89 2.2749 -3.1493 0
M  V30 11331 H 1070.56 0.113328 -4.61161 0
M  V30 11332 H 1068.8 0.0371744 -4.33784 0
M  V30 11333 H 1069.47 1.30981 -5.36235 0
M  V30 11334 H 1071.95 2.0876 -3.59942 0
M  V30 11335 H 1070.82 3.12902 -4.50981 0
M  V30 11336 H 1071.09 3.42307 -2.79782 0
M  V30 11337 N 1070.14 1.51827 0.422667 0
M  V30 11338 C 1071.07 1.77152 1.52117 0
M  V30 11339 C 1072.06 0.621895 1.58324 0
M  V30 11340 O 1073.24 0.866118 1.73816 0
M  V30 11341 C 1070.37 1.90991 2.90068 0
M  V30 11342 C 1069.32 3.06516 2.98717 0
M  V30 11343 C 1068.65 3.05559 4.38791 0
M  V30 11344 C 1069.95 4.46223 2.71445 0
M  V30 11345 H 1071.64 2.69135 1.31175 0
M  V30 11346 H 1069.19 1.29507 0.629607 0
M  V30 11347 H 1071.14 2.07291 3.6689 0
M  V30 11348 H 1069.87 0.956688 3.12274 0
M  V30 11349 H 1068.53 2.89945 2.24338 0
M  V30 11350 H 1068.17 2.07985 4.57986 0
M  V30 11351 H 1067.87 3.83144 4.45505 0
M  V30 11352 H 1069.4 3.23971 5.17566 0
M  V30 11353 H 1070.81 4.63069 3.37994 0
M  V30 11354 H 1069.21 5.25623 2.89552 0
M  V30 11355 H 1070.28 4.5525 1.6696 0
M  V30 11356 N 1071.62 -0.679052 1.4222 0
M  V30 11357 C 1072.9 -1.43473 1.32947 0
M  V30 11358 C 1073.28 -2.11071 -0.0351689 0
M  V30 11359 O 1072.63 -2.02925 -1.05042 0
M  V30 11360 C 1072.84 -2.44065 2.49466 0
M  V30 11361 C 1074.19 -3.08834 2.91387 0
M  V30 11362 O 1075.21 -2.54392 2.49325 0
M  V30 11363 O 1074.07 -4.07478 3.64175 0
M  V30 11364 H 1071.16 -0.639743 0.524078 0
M  V30 11365 H 1073.71 -0.708134 1.54219 0
M  V30 11366 H 1072.48 -1.92884 3.40457 0
M  V30 11367 H 1072.1 -3.24212 2.30158 0
M  V30 11368 N 1073.1 -1.28322 -0.914942 0
M  V30 11369 C 1074.06 -1.12169 -1.99877 0
M  V30 11370 C 1075.06 -0.0617252 -1.60681 0
M  V30 11371 O 1076.25 -0.307405 -1.71466 0
M  V30 11372 C 1073.39 -0.711959 -3.33383 0
M  V30 11373 H 1074.58 -2.08425 -2.15636 0
M  V30 11374 H 1072.13 -1.11291 -1.09745 0
M  V30 11375 H 1072.87 0.251418 -3.23324 0
M  V30 11376 H 1072.65 -1.47764 -3.63192 0
M  V30 11377 H 1074.14 -0.621558 -4.12948 0
M  V30 11378 N 1074.58 1.12322 -1.10551 0
M  V30 11379 C 1075.53 2.20166 -0.750317 0
M  V30 11380 C 1076.52 1.67484 0.254066 0
M  V30 11381 O 1077.73 1.79637 0.114309 0
M  V30 11382 H 1074.1 0.717642 -0.22471 0
M  V30 11383 H 1076.07 2.47378 -1.66873 0
M  V30 11384 C 1074.82 3.47126 -0.199651 0
M  V30 11385 H 1074.14 3.88011 -0.963735 0
M  V30 11386 H 1075.58 4.23999 0.0108033 0
M  V30 11387 C 1074.04 3.19526 1.06792 0
M  V30 11388 O 1074.57 3.39368 2.14923 0
M  V30 11389 N 1072.78 2.73324 0.987032 0
M  V30 11390 H 1072.33 2.57378 0.106997 0
M  V30 11391 H 1072.28 2.55234 1.83584 0
M  V30 11392 N 1076.06 0.894434 1.2976 0
M  V30 11393 C 1077 0.357958 2.29829 0
M  V30 11394 C 1078 -0.540093 1.6056 0
M  V30 11395 O 1079.2 -0.423478 1.74948 0
M  V30 11396 H 1075.58 0.0971183 0.745702 0
M  V30 11397 H 1077.55 1.21542 2.72526 0
M  V30 11398 C 1076.3 -0.404126 3.45343 0
M  V30 11399 H 1075.62 0.277671 3.98835 0
M  V30 11400 H 1077.06 -0.744446 4.17413 0
M  V30 11401 C 1075.52 -1.6048 2.96222 0
M  V30 11402 O 1076.05 -2.70414 2.97051 0
M  V30 11403 N 1074.26 -1.44517 2.52117 0
M  V30 11404 H 1073.8 -0.55082 2.51642 0
M  V30 11405 H 1073.76 -2.24987 2.1961 0
M  V30 11406 N 1077.53 -1.43282 0.656365 0
M  V30 11407 C 1078.77 -2.03652 0.174681 0
M  V30 11408 C 1079.14 -1.5068 -1.18994 0
M  V30 11409 O 1080.34 -2.02716 -1.76521 0
M  V30 11410 C 1078.61 -3.56906 0.18778 0
M  V30 11411 S 1080.17 -4.3822 -0.225599 0
M  V30 11412 H 1076.99 -0.70719 0.0735029 0
M  V30 11413 H 1079.59 -1.75303 0.865403 0
M  V30 11414 H 1078.29 -3.92961 1.18363 0
M  V30 11415 H 1077.82 -3.89903 -0.523378 0
M  V30 11416 H 1079.84 -4.74121 -1.46369 0
M  V30 11417 N 1079.01 -0.398486 -1.52479 0
M  V30 11418 C 1080.29 0.238776 -1.94137 0
M  V30 11419 C 1080.67 1.63558 -1.33462 0
M  V30 11420 O 1080.02 2.22821 -0.506272 0
M  V30 11421 C 1080.23 0.255863 -3.48061 0
M  V30 11422 C 1081.58 0.480376 -4.21874 0
M  V30 11423 O 1082.6 0.335679 -3.54615 0
M  V30 11424 O 1081.46 0.764654 -5.41124 0
M  V30 11425 H 1078.55 0.150806 -0.813134 0
M  V30 11426 H 1081.1 -0.453659 -1.63524 0
M  V30 11427 H 1079.87 -0.722171 -3.84578 0
M  V30 11428 H 1079.49 0.99284 -3.85004 0
M  V30 11429 N 1080.49 1.57075 -0.12858 0
M  V30 11430 C 1081.72 1.99586 0.533769 0
M  V30 11431 C 1082.13 1.00737 1.60152 0
M  V30 11432 O 1081.47 -0.00647783 1.83699 0
M  V30 11433 C 1081.53 3.3852 1.21014 0
M  V30 11434 C 1081.2 4.56084 0.289191 0
M  V30 11435 C 1082.2 5.17717 -0.475963 0
M  V30 11436 C 1079.88 5.01912 0.197467 0
M  V30 11437 C 1081.87 6.23572 -1.32048 0
M  V30 11438 C 1079.56 6.07626 -0.65067 0
M  V30 11439 C 1080.56 6.68324 -1.40826 0
M  V30 11440 O 1080.25 7.71995 -2.2423 0
M  V30 11441 H 1079.98 0.660245 0.145096 0
M  V30 11442 H 1082.53 2.04276 -0.214615 0
M  V30 11443 H 1080.76 3.30613 2.00579 0
M  V30 11444 H 1082.45 3.65258 1.77036 0
M  V30 11445 H 1083.22 4.83221 -0.415027 0
M  V30 11446 H 1079.1 4.54407 0.776853 0
M  V30 11447 H 1082.64 6.70878 -1.91228 0
M  V30 11448 H 1078.54 6.41551 -0.712965 0
M  V30 11449 H 1079.31 7.89135 -2.17276 0
M  V30 11450 N 1081.97 -0.145205 1.5693 0
M  V30 11451 C 1082.88 -1.19864 2.01667 0
M  V30 11452 C 1083.9 -1.46909 0.932402 0
M  V30 11453 O 1085.07 -1.58543 1.24201 0
M  V30 11454 C 1082.14 -2.51174 2.38982 0
M  V30 11455 C 1081.2 -2.3176 3.61366 0
M  V30 11456 C 1080.43 -3.56809 3.96892 0
M  V30 11457 O 1080.65 -4.63063 3.33059 0
M  V30 11458 O 1079.59 -3.49366 4.9013 0
M  V30 11459 H 1083.41 -0.848821 2.91597 0
M  V30 11460 H 1081 -0.354063 1.45144 0
M  V30 11461 H 1082.88 -3.28587 2.63835 0
M  V30 11462 H 1081.56 -2.85683 1.52207 0
M  V30 11463 H 1080.46 -1.52293 3.41698 0
M  V30 11464 H 1081.8 -2.02167 4.48764 0
M  V30 11465 N 1083.45 -1.52049 -0.414609 0
M  V30 11466 C 1084.38 -1.7122 -1.52369 0
M  V30 11467 C 1085.39 -0.592634 -1.5163 0
M  V30 11468 O 1086.58 -0.867634 -1.55995 0
M  V30 11469 C 1083.68 -1.73247 -2.91271 0
M  V30 11470 C 1082.85 -3.02153 -3.16263 0
M  V30 11471 C 1081.91 -2.96066 -4.35007 0
M  V30 11472 O 1080.94 -3.69981 -4.32554 0
M  V30 11473 N 1082.14 -2.13478 -5.39822 0
M  V30 11474 H 1084.91 -2.66902 -1.3632 0
M  V30 11475 H 1082.47 -1.50218 -0.603842 0
M  V30 11476 H 1084.46 -1.66714 -3.68766 0
M  V30 11477 H 1083.03 -0.85062 -3.00804 0
M  V30 11478 H 1082.25 -3.22379 -2.2686 0
M  V30 11479 H 1083.54 -3.87439 -3.29801 0
M  V30 11480 H 1082.94 -1.52844 -5.44661 0
M  V30 11481 H 1081.49 -2.12805 -6.16082 0
M  V30 11482 N 1084.93 0.6715 -1.42579 0
M  V30 11483 C 1085.87 1.78496 -1.46314 0
M  V30 11484 C 1086.84 1.63091 -0.314743 0
M  V30 11485 O 1088.03 1.83597 -0.519292 0
M  V30 11486 C 1085.17 3.16548 -1.37447 0
M  V30 11487 C 1084.28 3.43216 -2.62348 0
M  V30 11488 C 1083.42 4.71014 -2.456 0
M  V30 11489 C 1082.45 4.90728 -3.65859 0
M  V30 11490 N 1081.59 6.09769 -3.48032 0
M  V30 11491 H 1086.43 1.74638 -2.41466 0
M  V30 11492 H 1083.97 0.852491 -1.19879 0
M  V30 11493 H 1085.93 3.96329 -1.30303 0
M  V30 11494 H 1084.56 3.19522 -0.458891 0
M  V30 11495 H 1083.61 2.57664 -2.79846 0
M  V30 11496 H 1084.92 3.53675 -3.51732 0
M  V30 11497 H 1084.07 5.58892 -2.3606 0
M  V30 11498 H 1082.81 4.62843 -1.53712 0
M  V30 11499 H 1081.82 4.01291 -3.75827 0
M  V30 11500 H 1083.04 5.00741 -4.58732 0
M  V30 11501 H 1080.99 6.02765 -2.58864 0
M  V30 11502 H 1080.91 6.21104 -4.31005 0
M  V30 11503 H 1082.17 7.00317 -3.42311 0
M  V30 11504 N 1086.4 1.28806 0.908124 0
M  V30 11505 C 1087.31 1.15079 2.04436 0
M  V30 11506 C 1088.33 0.076012 1.73834 0
M  V30 11507 O 1089.51 0.286421 1.99353 0
M  V30 11508 C 1086.57 0.819733 3.3687 0
M  V30 11509 C 1085.63 1.97746 3.81045 0
M  V30 11510 C 1084.86 1.66211 5.07158 0
M  V30 11511 O 1085.09 0.579092 5.67453 0
M  V30 11512 O 1084.02 2.5075 5.47182 0
M  V30 11513 H 1087.85 2.10477 2.18937 0
M  V30 11514 H 1085.43 1.08177 1.03044 0
M  V30 11515 H 1087.31 0.649304 4.16368 0
M  V30 11516 H 1085.99 -0.10454 3.23531 0
M  V30 11517 H 1084.9 2.20308 3.02349 0
M  V30 11518 H 1086.23 2.88264 3.98955 0
M  V30 11519 N 1087.88 -1.11734 1.11145 0
M  V30 11520 C 1089.3 -1.35412 0.844736 0
M  V30 11521 C 1089.5 -1.94347 -0.532111 0
M  V30 11522 O 1088.55 -2.17443 -1.28353 0
M  V30 11523 C 1089.87 -2.28869 1.95037 0
M  V30 11524 C 1091.41 -2.42442 1.97967 0
M  V30 11525 C 1091.89 -3.39219 3.07725 0
M  V30 11526 N 1093.38 -3.4678 3.07079 0
M  V30 11527 C 1094.12 -4.21595 3.88646 0
M  V30 11528 N 1093.61 -4.99411 4.80167 0
M  V30 11529 N 1095.4 -4.17075 3.76835 0
M  V30 11530 H 1087.56 -0.718412 1.99881 0
M  V30 11531 H 1089.82 -0.378787 0.869037 0
M  V30 11532 H 1089.52 -1.92752 2.94176 0
M  V30 11533 H 1089.4 -3.2906 1.84389 0
M  V30 11534 H 1091.79 -2.77835 0.994561 0
M  V30 11535 H 1091.87 -1.42113 2.12691 0
M  V30 11536 H 1091.51 -3.04553 4.0646 0
M  V30 11537 H 1091.44 -4.39394 2.90242 0
M  V30 11538 H 1093.93 -2.91272 2.40767 0
M  V30 11539 H 1094.24 -5.53856 5.38946 0
M  V30 11540 H 1092.59 -4.98582 4.84191 0
M  V30 11541 H 1095.78 -3.55369 3.04681 0
M  V30 11542 H 1095.95 -4.75125 4.40637 0
M  V30 11543 N 1089.36 -0.901303 -1.29284 0
M  V30 11544 C 1090.61 -0.528043 -1.95494 0
M  V30 11545 C 1090.93 0.92597 -1.71044 0
M  V30 11546 O 1090.19 1.67185 -1.01723 0
M  V30 11547 C 1090.49 -0.768828 -3.49033 0
M  V30 11548 C 1090.15 -2.20045 -3.93562 0
M  V30 11549 C 1088.82 -2.59189 -4.05431 0
M  V30 11550 C 1091.17 -3.13266 -4.1655 0
M  V30 11551 C 1088.5 -3.90733 -4.37658 0
M  V30 11552 C 1090.85 -4.4436 -4.50252 0
M  V30 11553 C 1089.51 -4.83375 -4.60331 0
M  V30 11554 H 1088.78 -0.193225 -0.715364 0
M  V30 11555 H 1091.43 -1.14027 -1.53851 0
M  V30 11556 H 1089.73 -0.0736997 -3.91731 0
M  V30 11557 H 1091.43 -0.459384 -3.9836 0
M  V30 11558 H 1088.02 -1.88666 -3.84842 0
M  V30 11559 H 1092.21 -2.84237 -4.06845 0
M  V30 11560 H 1087.46 -4.2068 -4.43665 0
M  V30 11561 H 1091.64 -5.16618 -4.66989 0
M  V30 11562 H 1089.26 -5.8534 -4.85058 0
M  V30 11563 N 1090.84 1.42931 -0.663954 0
M  V30 11564 C 1091.77 2.33499 0.00731327 0
M  V30 11565 C 1092.75 1.50074 0.800733 0
M  V30 11566 O 1093.93 1.78708 0.760062 0
M  V30 11567 C 1091.06 3.33569 0.966897 0
M  V30 11568 C 1090.02 4.27064 0.282839 0
M  V30 11569 C 1089.34 5.17257 1.35461 0
M  V30 11570 C 1090.64 5.1564 -0.831438 0
M  V30 11571 H 1092.34 2.89879 -0.749044 0
M  V30 11572 H 1089.88 1.39385 -0.361656 0
M  V30 11573 H 1091.84 3.95833 1.44549 0
M  V30 11574 H 1090.56 2.75469 1.75455 0
M  V30 11575 H 1089.22 3.6618 -0.175417 0
M  V30 11576 H 1088.87 4.5549 2.13397 0
M  V30 11577 H 1088.57 5.80634 0.902098 0
M  V30 11578 H 1090.09 5.82395 1.83436 0
M  V30 11579 H 1091.51 5.71651 -0.434534 0
M  V30 11580 H 1089.9 5.87794 -1.20908 0
M  V30 11581 H 1090.97 4.54687 -1.68487 0
M  V30 11582 N 1092.32 0.406567 1.52266 0
M  V30 11583 C 1093.25 -0.411314 2.29849 0
M  V30 11584 C 1094.23 -1.04838 1.33952 0
M  V30 11585 O 1095.41 -1.05788 1.62857 0
M  V30 11586 C 1092.54 -1.52961 3.11802 0
M  V30 11587 C 1091.5 -1.01768 4.15725 0
M  V30 11588 C 1090.82 -2.22938 4.86007 0
M  V30 11589 C 1092.12 -0.073515 5.22248 0
M  V30 11590 H 1093.82 0.236054 2.98468 0
M  V30 11591 H 1091.36 0.114968 1.4354 0
M  V30 11592 H 1093.31 -2.10874 3.64843 0
M  V30 11593 H 1092.04 -2.20482 2.40947 0
M  V30 11594 H 1090.7 -0.46097 3.6369 0
M  V30 11595 H 1090.35 -2.89007 4.11684 0
M  V30 11596 H 1090.05 -1.89338 5.5626 0
M  V30 11597 H 1091.57 -2.81462 5.41859 0
M  V30 11598 H 1092.98 -0.561367 5.70545 0
M  V30 11599 H 1091.38 0.173551 5.99849 0
M  V30 11600 H 1092.45 0.872524 4.76985 0
M  V30 11601 N 1093.79 -1.57004 0.136909 0
M  V30 11602 C 1095.04 -1.95797 -0.516711 0
M  V30 11603 C 1095.37 -1.02123 -1.65533 0
M  V30 11604 O 1094.62 -0.0484835 -1.9564 0
M  V30 11605 C 1094.92 -3.40903 -1.07331 0
M  V30 11606 C 1094.59 -4.50867 -0.0541941 0
M  V30 11607 C 1093.25 -4.80669 0.225988 0
M  V30 11608 C 1095.6 -5.17264 0.639361 0
M  V30 11609 C 1092.93 -5.74177 1.2057 0
M  V30 11610 C 1095.28 -6.11827 1.60783 0
M  V30 11611 C 1093.95 -6.40012 1.89581 0
M  V30 11612 H 1093.22 -0.716471 -0.189078 0
M  V30 11613 H 1095.86 -1.90213 0.221605 0
M  V30 11614 H 1094.17 -3.43268 -1.88876 0
M  V30 11615 H 1095.87 -3.6824 -1.58745 0
M  V30 11616 H 1092.46 -4.27666 -0.282754 0
M  V30 11617 H 1096.64 -4.9438 0.436085 0
M  V30 11618 H 1091.9 -5.94312 1.43538 0
M  V30 11619 H 1096.07 -6.62354 2.15081 0
M  V30 11620 H 1093.7 -7.12274 2.65649 0
M  V30 11621 N 1095.27 0.136881 -1.57004 0
M  V30 11622 C 1096.51 0.853873 -1.8571 0
M  V30 11623 C 1096.88 1.77885 -0.722556 0
M  V30 11624 O 1098.08 2.53606 -0.89092 0
M  V30 11625 C 1096.35 1.59935 -3.19618 0
M  V30 11626 S 1097.91 2.36038 -3.69908 0
M  V30 11627 H 1094.73 0.285342 -0.65123 0
M  V30 11628 H 1097.33 0.113254 -1.95172 0
M  V30 11629 H 1096.03 0.91148 -4.0015 0
M  V30 11630 H 1095.56 2.38069 -3.13188 0
M  V30 11631 H 1097.58 3.61425 -3.3998 0
M  V30 11632 N 1096.75 1.52266 0.40654 0
M  V30 11633 C 1098 1.66699 1.15496 0
M  V30 11634 C 1098.33 0.397019 1.90098 0
M  V30 11635 O 1097.6 -0.604646 1.84863 0
M  V30 11636 C 1097.89 2.8907 2.14734 0
M  V30 11637 C 1097.74 4.26123 1.44012 0
M  V30 11638 C 1099.06 3.06966 3.15373 0
M  V30 11639 H 1096.18 0.606642 0.418515 0
M  V30 11640 H 1098.82 1.84826 0.440381 0
M  V30 11641 H 1096.97 2.73745 2.75673 0
M  V30 11642 H 1098.64 4.5318 0.861722 0
M  V30 11643 H 1096.89 4.27406 0.742064 0
M  V30 11644 H 1097.56 5.07799 2.16436 0
M  V30 11645 H 1100.03 3.21205 2.64512 0
M  V30 11646 H 1098.91 3.94097 3.82072 0
M  V30 11647 H 1099.17 2.20395 3.83247 0
M  V30 11648 N 1098.23 -0.663929 1.42933 0
M  V30 11649 C 1099.18 -1.77007 1.4371 0
M  V30 11650 C 1100.16 -1.57945 0.306948 0
M  V30 11651 O 1101.35 -1.68239 0.549967 0
M  V30 11652 C 1098.48 -3.15535 1.3525 0
M  V30 11653 C 1097.57 -3.40183 2.53252 0
M  V30 11654 N 1097.96 -3.35357 3.78641 0
M  V30 11655 C 1096.26 -3.70861 2.47746 0
M  V30 11656 C 1096.96 -3.5979 4.57085 0
M  V30 11657 N 1095.94 -3.81084 3.87655 0
M  V30 11658 H 1099.74 -1.71686 2.3854 0
M  V30 11659 H 1097.25 -0.865191 1.37434 0
M  V30 11660 H 1099.25 -3.94816 1.33888 0
M  V30 11661 H 1097.91 -3.22046 0.414308 0
M  V30 11662 H 1098.92 -3.15011 4.11082 0
M  V30 11663 H 1095.6 -3.84552 1.62561 0
M  V30 11664 H 1096.99 -3.61928 5.6609 0
M  V30 11665 N 1099.71 -1.29285 -0.901281 0
M  V30 11666 C 1100.95 -1.16934 -1.64836 0
M  V30 11667 C 1101.28 0.279826 -1.92982 0
M  V30 11668 O 1100.55 1.19179 -1.55478 0
M  V30 11669 H 1099.13 -0.429768 -0.61099 0
M  V30 11670 H 1101.79 -1.62189 -1.08077 0
M  V30 11671 H 1100.88 -1.71821 -2.60545 0
M  V30 11672 N 1101.18 1.11143 -1.11736 0
M  V30 11673 C 1102.46 1.79384 -0.779785 0
M  V30 11674 C 1102.84 1.98015 0.731668 0
M  V30 11675 O 1102.19 1.56731 1.66276 0
M  V30 11676 C 1102.4 3.12868 -1.54643 0
M  V30 11677 C 1103.75 3.8786 -1.7277 0
M  V30 11678 O 1104.77 3.22566 -1.51094 0
M  V30 11679 O 1103.63 5.05034 -2.08813 0
M  V30 11680 H 1100.72 0.777128 -0.282845 0
M  V30 11681 H 1103.27 1.17858 -1.22096 0
M  V30 11682 H 1102.04 2.94682 -2.57446 0
M  V30 11683 H 1101.67 3.82109 -1.09901 0
M  V30 11684 N 1102.66 0.908147 1.28804 0
M  V30 11685 C 1103.63 0.397058 2.25735 0
M  V30 11686 C 1104.63 -0.473483 1.53671 0
M  V30 11687 O 1105.82 -0.277335 1.71978 0
M  V30 11688 C 1102.95 -0.431392 3.38159 0
M  V30 11689 H 1104.14 1.25323 2.72459 0
M  V30 11690 H 1101.69 0.687041 1.4039 0
M  V30 11691 H 1102.43 -1.3072 2.96787 0
M  V30 11692 H 1102.21 0.192502 3.91627 0
M  V30 11693 H 1103.7 -0.78 4.10251 0
M  V30 11694 N 1104.14 -1.42577 0.671525 0
M  V30 11695 C 1105.56 -1.5592 0.340769 0
M  V30 11696 C 1105.76 -1.65179 -1.15405 0
M  V30 11697 O 1104.81 -1.61691 -1.93939 0
M  V30 11698 C 1106.13 -2.81087 1.06821 0
M  V30 11699 C 1107.67 -2.94855 1.05022 0
M  V30 11700 C 1108.15 -4.22878 1.75892 0
M  V30 11701 N 1109.64 -4.29783 1.72744 0
M  V30 11702 C 1110.37 -5.2765 2.24439 0
M  V30 11703 N 1109.87 -6.31689 2.84501 0
M  V30 11704 N 1111.66 -5.19426 2.14832 0
M  V30 11705 H 1103.81 -1.34811 1.64133 0
M  V30 11706 H 1106.08 -0.648704 0.691294 0
M  V30 11707 H 1105.78 -2.80371 2.12332 0
M  V30 11708 H 1105.66 -3.71879 0.631356 0
M  V30 11709 H 1108.04 -2.951 0.00345633 0
M  V30 11710 H 1108.13 -2.05303 1.52592 0
M  V30 11711 H 1107.77 -4.23394 2.80535 0
M  V30 11712 H 1107.7 -5.1136 1.25773 0
M  V30 11713 H 1110.19 -3.55225 1.28932 0
M  V30 11714 H 1110.5 -7.02715 3.21575 0
M  V30 11715 H 1108.85 -6.3226 2.88569 0
M  V30 11716 H 1112.04 -4.37067 1.676 0
M  V30 11717 H 1112.21 -5.95535 2.55426 0
M  V30 11718 N 1105.62 -0.414636 -1.52048 0
M  V30 11719 C 1106.55 0.443601 -2.24866 0
M  V30 11720 C 1107.56 1.00556 -1.28032 0
M  V30 11721 O 1108.75 0.903566 -1.53941 0
M  V30 11722 C 1105.85 1.63004 -2.97124 0
M  V30 11723 C 1105.03 1.191 -4.20873 0
M  V30 11724 C 1104.08 2.24497 -4.75907 0
M  V30 11725 O 1103.11 1.84861 -5.38345 0
M  V30 11726 N 1104.31 3.56727 -4.57959 0
M  V30 11727 H 1107.08 -0.180393 -2.99157 0
M  V30 11728 H 1104.64 -0.242305 -1.60077 0
M  V30 11729 H 1106.63 2.33089 -3.30835 0
M  V30 11730 H 1105.2 2.15984 -2.25986 0
M  V30 11731 H 1104.42 0.318059 -3.92915 0
M  V30 11732 H 1105.71 0.874699 -5.01225 0
M  V30 11733 H 1105.11 3.91675 -4.08175 0
M  V30 11734 H 1103.66 4.22772 -4.96092 0
M  V30 11735 N 1107.1 1.56929 -0.145233 0
M  V30 11736 C 1108.37 1.8767 0.551288 0
M  V30 11737 C 1108.75 1.05089 1.83083 0
M  V30 11738 O 1108.1 0.137201 2.28088 0
M  V30 11739 C 1108.31 3.39268 0.818445 0
M  V30 11740 C 1109.66 4.08447 1.16 0
M  V30 11741 O 1110.68 3.44436 0.907857 0
M  V30 11742 O 1109.54 5.21488 1.63441 0
M  V30 11743 H 1106.64 0.777788 0.281024 0
M  V30 11744 H 1109.18 1.68724 -0.181712 0
M  V30 11745 H 1107.95 3.91203 -0.0871897 0
M  V30 11746 H 1107.58 3.63735 1.60569 0
M  V30 11747 N 1108.58 -0.128553 1.57075 0
M  V30 11748 C 1109.8 -0.8564 1.88893 0
M  V30 11749 C 1110.23 -1.73095 0.736196 0
M  V30 11750 O 1109.58 -1.78567 -0.313629 0
M  V30 11751 C 1109.63 -1.67368 3.19406 0
M  V30 11752 O 1108.74 -2.77973 3.04639 0
M  V30 11753 H 1108.08 -0.237424 0.620102 0
M  V30 11754 H 1110.61 -0.113821 2.04283 0
M  V30 11755 H 1110.62 -2.0649 3.51889 0
M  V30 11756 H 1109.29 -1.03161 4.02903 0
M  V30 11757 H 1107.87 -2.42123 2.83603 0
M  V30 11758 N 1110.05 -1.5248 -0.398459 0
M  V30 11759 C 1110.98 -1.79549 -1.49279 0
M  V30 11760 C 1111.96 -0.647004 -1.57315 0
M  V30 11761 O 1113.15 -0.893661 -1.72416 0
M  V30 11762 C 1110.28 -1.95582 -2.86993 0
M  V30 11763 C 1109.23 -3.1123 -2.93803 0
M  V30 11764 C 1108.56 -3.12501 -4.33874 0
M  V30 11765 C 1109.86 -4.50485 -2.64312 0
M  V30 11766 H 1111.55 -2.71187 -1.26877 0
M  V30 11767 H 1109.1 -1.30492 -0.608924 0
M  V30 11768 H 1111.05 -2.13102 -3.63546 0
M  V30 11769 H 1109.78 -1.00625 -3.10712 0
M  V30 11770 H 1108.44 -2.93477 -2.19697 0
M  V30 11771 H 1108.08 -2.15245 -4.54619 0
M  V30 11772 H 1107.78 -3.90183 -4.39353 0
M  V30 11773 H 1109.31 -3.32164 -5.12347 0
M  V30 11774 H 1110.72 -4.68387 -3.30585 0
M  V30 11775 H 1109.12 -5.30163 -2.81153 0
M  V30 11776 H 1110.19 -4.57848 -1.59696 0
M  V30 11777 N 1111.53 0.65634 -1.43283 0
M  V30 11778 C 1112.78 1.41837 -1.44949 0
M  V30 11779 C 1113.11 1.94065 -0.0723212 0
M  V30 11780 O 1112.39 1.72092 0.906346 0
M  V30 11781 C 1112.67 2.60206 -2.48927 0
M  V30 11782 C 1112.52 2.1349 -3.95907 0
M  V30 11783 C 1113.84 3.62421 -2.49678 0
M  V30 11784 H 1110.96 0.514398 -0.527792 0
M  V30 11785 H 1113.6 0.74435 -1.74813 0
M  V30 11786 H 1111.75 3.17708 -2.23592 0
M  V30 11787 H 1113.42 1.61012 -4.32288 0
M  V30 11788 H 1111.67 1.4489 -4.08888 0
M  V30 11789 H 1112.34 2.98596 -4.64268 0
M  V30 11790 H 1114.81 3.14671 -2.72252 0
M  V30 11791 H 1113.69 4.42798 -3.24378 0
M  V30 11792 H 1113.95 4.14802 -1.52944 0
M  V30 11793 N 1113.01 1.29761 0.894412 0
M  V30 11794 C 1113.94 1.1115 2.00445 0
M  V30 11795 C 1114.95 0.0574655 1.62699 0
M  V30 11796 O 1116.14 0.302528 1.75918 0
M  V30 11797 C 1113.24 0.670984 3.32191 0
M  V30 11798 C 1112.42 1.80471 3.98433 0
M  V30 11799 C 1111.48 1.35431 5.08473 0
M  V30 11800 O 1110.5 2.05994 5.30618 0
M  V30 11801 N 1111.7 0.22811 5.80052 0
M  V30 11802 H 1114.47 2.06753 2.16964 0
M  V30 11803 H 1112.03 1.21772 1.06692 0
M  V30 11804 H 1114.02 0.352877 4.03159 0
M  V30 11805 H 1112.59 -0.192735 3.12005 0
M  V30 11806 H 1111.81 2.29142 3.20761 0
M  V30 11807 H 1113.1 2.56471 4.39431 0
M  V30 11808 H 1112.5 -0.360076 5.64553 0
M  V30 11809 H 1111.05 -0.0305985 6.51793 0
M  V30 11810 N 1114.49 -1.10549 1.12324 0
M  V30 11811 C 1115.73 -1.82941 0.889043 0
M  V30 11812 C 1116.09 -1.83483 -0.578935 0
M  V30 11813 O 1115.38 -1.28365 -1.42243 0
M  V30 11814 C 1115.58 -3.28997 1.39626 0
M  V30 11815 C 1115.4 -3.42683 2.91202 0
M  V30 11816 C 1114.17 -3.55164 3.59426 0
M  V30 11817 C 1116.37 -3.36187 3.89208 0
M  V30 11818 N 1114.35 -3.57414 4.99128 0
M  V30 11819 C 1115.73 -3.45168 5.15033 0
M  V30 11820 C 1117.78 -3.19778 3.81637 0
M  V30 11821 C 1116.48 -3.39431 6.34176 0
M  V30 11822 C 1118.51 -3.15362 5.003 0
M  V30 11823 C 1117.87 -3.24924 6.24983 0
M  V30 11824 H 1113.97 -0.684249 0.378585 0
M  V30 11825 H 1116.55 -1.32206 1.42932 0
M  V30 11826 H 1114.73 -3.78228 0.883051 0
M  V30 11827 H 1116.46 -3.89343 1.10425 0
M  V30 11828 H 1113.21 -3.5812 3.09914 0
M  V30 11829 H 1113.64 -3.62153 5.71991 0
M  V30 11830 H 1118.28 -3.11264 2.86137 0
M  V30 11831 H 1116 -3.46711 7.29943 0
M  V30 11832 H 1119.58 -3.03819 4.96171 0
M  V30 11833 H 1118.46 -3.21508 7.15264 0
M  V30 11834 N 1115.97 -0.914965 -1.28321 0
M  V30 11835 C 1116.88 -0.409424 -2.31 0
M  V30 11836 C 1117.89 0.503526 -1.66555 0
M  V30 11837 O 1119.07 0.38942 -1.97599 0
M  V30 11838 C 1116.13 0.34123 -3.45017 0
M  V30 11839 C 1115.19 -0.605087 -4.25014 0
M  V30 11840 C 1114.43 0.109837 -5.33587 0
M  V30 11841 O 1114.65 1.33136 -5.54645 0
M  V30 11842 O 1113.58 -0.555474 -5.99331 0
M  V30 11843 H 1117.41 -1.26167 -2.76253 0
M  V30 11844 H 1114.99 -0.679831 -1.33036 0
M  V30 11845 H 1116.88 0.765132 -4.14396 0
M  V30 11846 H 1115.55 1.16929 -3.01843 0
M  V30 11847 H 1114.46 -1.07841 -3.58219 0
M  V30 11848 H 1115.79 -1.39999 -4.7187 0
M  V30 11849 N 1117.44 1.42219 -0.679077 0
M  V30 11850 C 1118.38 2.28152 0.0468359 0
M  V30 11851 C 1119.35 1.41307 0.804433 0
M  V30 11852 O 1120.54 1.70744 0.798673 0
M  V30 11853 C 1117.67 3.21236 1.07355 0
M  V30 11854 C 1116.71 4.24515 0.411042 0
M  V30 11855 S 1117.54 5.28958 -0.834506 0
M  V30 11856 C 1118.7 6.25608 0.191029 0
M  V30 11857 H 1118.93 2.89371 -0.682045 0
M  V30 11858 H 1116.47 1.47112 -0.468767 0
M  V30 11859 H 1118.42 3.75402 1.66082 0
M  V30 11860 H 1117.09 2.59145 1.7749 0
M  V30 11861 H 1116.28 4.89849 1.1859 0
M  V30 11862 H 1115.88 3.73859 -0.102742 0
M  V30 11863 H 1118.17 6.69323 1.04944 0
M  V30 11864 H 1119.12 7.06806 -0.427959 0
M  V30 11865 H 1119.52 5.61926 0.538422 0
M  V30 11866 N 1118.92 0.422693 1.51826 0
M  V30 11867 C 1119.83 -0.40261 2.31119 0
M  V30 11868 C 1120.85 -1.04117 1.39412 0
M  V30 11869 O 1122.02 -1.03973 1.72486 0
M  V30 11870 C 1119.09 -1.49699 3.12716 0
M  V30 11871 C 1118.15 -0.880088 4.20182 0
M  V30 11872 C 1117.38 -1.92232 4.97878 0
M  V30 11873 O 1117.61 -3.14246 4.76031 0
M  V30 11874 O 1116.54 -1.521 5.82365 0
M  V30 11875 H 1120.37 0.244308 3.02716 0
M  V30 11876 H 1117.95 0.185569 1.48243 0
M  V30 11877 H 1119.83 -2.13202 3.63487 0
M  V30 11878 H 1118.51 -2.12826 2.43899 0
M  V30 11879 H 1117.41 -0.207404 3.73525 0
M  V30 11880 H 1118.75 -0.292535 4.9133 0
M  V30 11881 N 1120.4 -1.5685 0.153553 0
M  V30 11882 C 1121.65 -1.96625 -0.49665 0
M  V30 11883 C 1121.98 -1.03877 -1.64083 0
M  V30 11884 O 1121.25 -0.0824112 -1.94325 0
M  V30 11885 C 1121.54 -3.46035 -0.996585 0
M  V30 11886 C 1121.39 -4.49561 0.146551 0
M  V30 11887 C 1122.71 -3.98104 -1.8762 0
M  V30 11888 H 1119.83 -0.714917 -0.179059 0
M  V30 11889 H 1122.47 -1.88527 0.236104 0
M  V30 11890 H 1120.62 -3.53066 -1.621 0
M  V30 11891 H 1122.29 -4.54604 0.783108 0
M  V30 11892 H 1120.53 -4.26271 0.804727 0
M  V30 11893 H 1121.21 -5.51456 -0.245078 0
M  V30 11894 H 1123.68 -3.93593 -1.34997 0
M  V30 11895 H 1122.56 -5.03098 -2.19508 0
M  V30 11896 H 1122.82 -3.40852 -2.81554 0
M  V30 11897 N 1121.88 0.120221 -1.57141 0
M  V30 11898 C 1123.12 0.834128 -1.86606 0
M  V30 11899 C 1123.48 1.77109 -0.741383 0
M  V30 11900 O 1124.68 2.52647 -0.917769 0
M  V30 11901 C 1122.95 1.56536 -3.21296 0
M  V30 11902 S 1124.51 2.32101 -3.7239 0
M  V30 11903 H 1121.33 0.278419 -0.65422 0
M  V30 11904 H 1123.93 0.0925474 -1.95281 0
M  V30 11905 H 1122.64 0.868987 -4.01094 0
M  V30 11906 H 1122.17 2.34734 -3.15696 0
M  V30 11907 H 1124.18 3.57799 -3.43794 0
M  V30 11908 N 1123.36 1.52689 0.390367 0
M  V30 11909 C 1124.3 1.7737 1.47677 0
M  V30 11910 C 1125.27 0.616864 1.54221 0
M  V30 11911 O 1126.46 0.856437 1.70499 0
M  V30 11912 C 1123.6 1.94715 2.84921 0
M  V30 11913 C 1122.71 3.22405 2.8754 0
M  V30 11914 C 1121.85 3.30074 4.16202 0
M  V30 11915 C 1120.89 4.51893 4.12867 0
M  V30 11916 N 1120.02 4.56851 5.33134 0
M  V30 11917 H 1124.86 2.70084 1.25932 0
M  V30 11918 H 1122.4 1.33813 0.610943 0
M  V30 11919 H 1124.36 2.02755 3.64618 0
M  V30 11920 H 1122.99 1.05363 3.0512 0
M  V30 11921 H 1122.04 3.23442 2.00223 0
M  V30 11922 H 1123.35 4.12156 2.80943 0
M  V30 11923 H 1122.51 3.3729 5.04302 0
M  V30 11924 H 1121.24 2.38295 4.25519 0
M  V30 11925 H 1120.25 4.44803 3.23156 0
M  V30 11926 H 1121.47 5.44987 4.05174 0
M  V30 11927 H 1119.42 3.67963 5.43083 0
M  V30 11928 H 1119.34 5.40472 5.28607 0
M  V30 11929 H 1120.61 4.6832 6.23134 0
M  V30 11930 N 1124.83 -0.648732 1.43629 0
M  V30 11931 C 1125.76 -1.77298 1.51947 0
M  V30 11932 C 1126.75 -1.65942 0.373785 0
M  V30 11933 O 1127.93 -1.8497 0.591596 0
M  V30 11934 C 1125.06 -3.15749 1.44638 0
M  V30 11935 C 1124.01 -3.41872 2.57502 0
M  V30 11936 C 1123.34 -4.8017 2.35246 0
M  V30 11937 C 1124.64 -3.36173 3.99731 0
M  V30 11938 H 1126.33 -1.70594 2.46045 0
M  V30 11939 H 1123.88 -0.819306 1.1842 0
M  V30 11940 H 1125.83 -3.94156 1.4906 0
M  V30 11941 H 1124.56 -3.23194 0.470466 0
M  V30 11942 H 1123.22 -2.65838 2.5244 0
M  V30 11943 H 1122.86 -4.84297 1.35887 0
M  V30 11944 H 1122.56 -4.9861 3.10906 0
M  V30 11945 H 1124.09 -5.6083 2.41459 0
M  V30 11946 H 1125.5 -4.0451 4.06257 0
M  V30 11947 H 1123.9 -3.66148 4.75453 0
M  V30 11948 H 1124.97 -2.34277 4.24549 0
M  V30 11949 N 1126.31 -1.30234 -0.887518 0
M  V30 11950 C 1127.72 -1.17048 -1.45453 0
M  V30 11951 C 1128.07 0.229793 -1.9485 0
M  V30 11952 O 1127.2 1.12628 -1.84781 0
M  V30 11953 C 1127.79 -2.11876 -2.64375 0
M  V30 11954 C 1126.35 -2.02676 -3.17174 0
M  V30 11955 C 1125.5 -2.02104 -1.89866 0
M  V30 11956 H 1128.45 -1.42541 -0.697694 0
M  V30 11957 H 1128.47 -1.69811 -3.40506 0
M  V30 11958 H 1127.98 -3.13781 -2.28392 0
M  V30 11959 H 1126.09 -1.03904 -3.57819 0
M  V30 11960 H 1126.2 -2.90939 -3.80646 0
M  V30 11961 H 1124.56 -1.4687 -2.0809 0
M  V30 11962 H 1125.35 -3.05735 -1.56145 0
M  V30 11963 N 1127.79 1.09952 -1.12909 0
M  V30 11964 C 1129.21 1.34051 -0.866172 0
M  V30 11965 C 1129.41 1.95169 0.501125 0
M  V30 11966 O 1128.46 2.19458 1.24878 0
M  V30 11967 C 1129.78 2.25738 -1.98653 0
M  V30 11968 C 1131.32 2.39261 -2.01799 0
M  V30 11969 C 1131.8 3.3428 -3.13083 0
M  V30 11970 N 1133.29 3.41851 -3.12558 0
M  V30 11971 C 1134.02 4.15358 -3.95304 0
M  V30 11972 N 1133.52 4.91709 -4.88051 0
M  V30 11973 N 1135.31 4.11027 -3.83423 0
M  V30 11974 H 1127.46 0.686521 -2.00999 0
M  V30 11975 H 1129.73 0.364913 -0.874953 0
M  V30 11976 H 1129.43 1.88048 -2.97205 0
M  V30 11977 H 1129.31 3.26085 -1.89601 0
M  V30 11978 H 1131.69 2.76218 -1.03864 0
M  V30 11979 H 1131.78 1.38712 -2.14925 0
M  V30 11980 H 1131.42 2.98048 -4.11254 0
M  V30 11981 H 1131.35 4.34721 -2.97195 0
M  V30 11982 H 1133.84 2.87405 -2.45371 0
M  V30 11983 H 1134.15 5.45212 -5.47689 0
M  V30 11984 H 1132.5 4.90816 -4.92061 0
M  V30 11985 H 1135.69 3.50477 -3.10296 0
M  V30 11986 H 1135.86 4.68054 -4.4814 0
M  V30 11987 N 1129.27 0.921757 1.27833 0
M  V30 11988 C 1130.2 0.433466 2.29441 0
M  V30 11989 C 1131.18 -0.503133 1.62489 0
M  V30 11990 O 1132.36 -0.409156 1.89841 0
M  V30 11991 C 1129.49 -0.320029 3.45822 0
M  V30 11992 C 1128.45 0.528178 4.24728 0
M  V30 11993 C 1127.77 -0.354132 5.33526 0
M  V30 11994 C 1129.07 1.78959 4.90684 0
M  V30 11995 H 1130.77 1.28263 2.70535 0
M  V30 11996 H 1128.31 0.618197 1.30055 0
M  V30 11997 H 1130.27 -0.672526 4.15999 0
M  V30 11998 H 1128.99 -1.20317 3.0363 0
M  V30 11999 H 1127.65 0.863302 3.5629 0
M  V30 12000 H 1127.3 -1.23605 4.87576 0
M  V30 12001 H 1127 0.209855 5.87225 0
M  V30 12002 H 1128.52 -0.702333 6.06547 0
M  V30 12003 H 1129.94 1.50552 5.53179 0
M  V30 12004 H 1128.33 2.29661 5.54415 0
M  V30 12005 H 1129.4 2.51265 4.14721 0
M  V30 12006 N 1130.75 -1.41857 0.686609 0
M  V30 12007 C 1131.97 -2.06219 0.221037 0
M  V30 12008 C 1132.4 -1.51298 -1.11762 0
M  V30 12009 O 1131.75 -0.636253 -1.69769 0
M  V30 12010 C 1131.8 -3.60153 0.179425 0
M  V30 12011 O 1130.91 -4.03577 -0.848481 0
M  V30 12012 H 1130.25 -0.654787 0.110228 0
M  V30 12013 H 1132.78 -1.81783 0.938948 0
M  V30 12014 H 1132.79 -4.07999 0.00725332 0
M  V30 12015 H 1131.46 -3.99498 1.15647 0
M  V30 12016 H 1130.04 -3.67255 -0.646393 0
M  V30 12017 N 1132.22 -0.430739 -1.51599 0
M  V30 12018 C 1133.15 0.374695 -2.30474 0
M  V30 12019 C 1134.14 1.02694 -1.35602 0
M  V30 12020 O 1135.32 1.03184 -1.6452 0
M  V30 12021 C 1132.45 1.47981 -3.14196 0
M  V30 12022 C 1131.4 0.951415 -4.17291 0
M  V30 12023 C 1130.73 2.15177 -4.89492 0
M  V30 12024 C 1132.03 -0.00957951 -5.22299 0
M  V30 12025 H 1133.72 -0.283508 -2.98055 0
M  V30 12026 H 1131.27 -0.13779 -1.43339 0
M  V30 12027 H 1133.22 2.05043 -3.68151 0
M  V30 12028 H 1131.95 2.16621 -2.44424 0
M  V30 12029 H 1130.61 0.403052 -3.64378 0
M  V30 12030 H 1130.25 2.82421 -4.1623 0
M  V30 12031 H 1129.95 1.80464 -5.59202 0
M  V30 12032 H 1131.48 2.72806 -5.46269 0
M  V30 12033 H 1132.89 0.470527 -5.71366 0
M  V30 12034 H 1131.29 -0.268959 -5.99497 0
M  V30 12035 H 1132.36 -0.948297 -4.75537 0
M  V30 12036 N 1133.7 1.56767 -0.161869 0
M  V30 12037 C 1134.65 2.18807 0.789074 0
M  V30 12038 C 1135.64 1.14934 1.24445 0
M  V30 12039 O 1136.85 1.33154 1.2112 0
M  V30 12040 H 1133.23 0.700808 0.272713 0
M  V30 12041 H 1135.2 2.97419 0.241766 0
M  V30 12042 C 1133.95 2.83568 2.01207 0
M  V30 12043 H 1133.27 3.63219 1.67068 0
M  V30 12044 H 1134.71 3.3046 2.65654 0
M  V30 12045 C 1133.17 1.82846 2.82964 0
M  V30 12046 O 1133.7 1.30809 3.79805 0
M  V30 12047 N 1131.9 1.51815 2.47791 0
M  V30 12048 H 1131.45 1.94325 1.69103 0
M  V30 12049 H 1131.41 0.846742 3.02783 0
M  V30 12050 N 1135.18 -0.111886 1.57202 0
M  V30 12051 C 1136.43 -0.816794 1.84859 0
M  V30 12052 C 1136.75 -1.80079 0.748113 0
M  V30 12053 O 1136.02 -1.94578 -0.227235 0
M  V30 12054 H 1134.6 -0.304633 0.682061 0
M  V30 12055 H 1137.26 -0.097513 1.94656 0
M  V30 12056 H 1136.36 -1.35768 2.81022 0
M  V30 12057 N 1136.66 -1.52894 -0.382264 0
M  V30 12058 C 1137.9 -1.68515 -1.12829 0
M  V30 12059 C 1138.24 -0.427211 -1.89443 0
M  V30 12060 O 1137.51 0.57516 -1.85801 0
M  V30 12061 C 1137.8 -2.92449 -2.10108 0
M  V30 12062 C 1137.65 -4.2836 -1.37214 0
M  V30 12063 C 1138.97 -3.11944 -3.1045 0
M  V30 12064 H 1136.09 -0.613223 -0.408811 0
M  V30 12065 H 1138.73 -1.85503 -0.410921 0
M  V30 12066 H 1136.88 -2.78097 -2.71283 0
M  V30 12067 H 1138.55 -4.54493 -0.789516 0
M  V30 12068 H 1136.79 -4.28532 -0.673973 0
M  V30 12069 H 1137.46 -5.11178 -2.0833 0
M  V30 12070 H 1139.94 -3.25372 -2.59369 0
M  V30 12071 H 1138.82 -4.00125 -3.75754 0
M  V30 12072 H 1139.08 -2.26465 -3.79692 0
M  V30 12073 N 1138.14 0.641106 -1.43971 0
M  V30 12074 C 1139.55 0.958161 -1.27638 0
M  V30 12075 C 1139.75 2.00456 -0.204885 0
M  V30 12076 O 1138.81 2.49106 0.412606 0
M  V30 12077 C 1140.12 1.43091 -2.64472 0
M  V30 12078 C 1141.67 1.54692 -2.72102 0
M  V30 12079 C 1142.15 2.05353 -4.09382 0
M  V30 12080 N 1143.64 2.12638 -4.11509 0
M  V30 12081 C 1144.37 2.52987 -5.14573 0
M  V30 12082 N 1143.87 2.92544 -6.28005 0
M  V30 12083 N 1145.66 2.53033 -5.01927 0
M  V30 12084 H 1137.81 -0.0510973 -2.12339 0
M  V30 12085 H 1140.07 0.039748 -0.947166 0
M  V30 12086 H 1139.78 0.736389 -3.43904 0
M  V30 12087 H 1139.65 2.40375 -2.90688 0
M  V30 12088 H 1142.04 2.23242 -1.92994 0
M  V30 12089 H 1142.12 0.558083 -2.49638 0
M  V30 12090 H 1141.77 1.37401 -4.88962 0
M  V30 12091 H 1141.7 3.0509 -4.29218 0
M  V30 12092 H 1144.19 1.84792 -3.29636 0
M  V30 12093 H 1144.5 3.22116 -7.02468 0
M  V30 12094 H 1142.85 2.90319 -6.31458 0
M  V30 12095 H 1146.04 2.21514 -4.1237 0
M  V30 12096 H 1146.21 2.84155 -5.82375 0
M  V30 12097 N 1139.62 1.30703 0.880598 0
M  V30 12098 C 1140.86 1.19778 1.63277 0
M  V30 12099 C 1141.19 -0.246521 1.92931 0
M  V30 12100 O 1140.45 -1.19226 1.55189 0
M  V30 12101 C 1140.74 1.97628 2.97789 0
M  V30 12102 C 1140.41 3.47213 2.87669 0
M  V30 12103 C 1139.07 3.88004 2.84617 0
M  V30 12104 C 1141.42 4.4245 2.75477 0
M  V30 12105 C 1138.75 5.22315 2.67216 0
M  V30 12106 C 1141.1 5.76874 2.59614 0
M  V30 12107 C 1139.77 6.16898 2.54939 0
M  V30 12108 H 1139.04 0.438298 0.597475 0
M  V30 12109 H 1141.69 1.61853 1.02352 0
M  V30 12110 H 1139.99 1.48201 3.6269 0
M  V30 12111 H 1141.69 1.86563 3.54958 0
M  V30 12112 H 1138.28 3.14802 2.90857 0
M  V30 12113 H 1142.46 4.11875 2.76899 0
M  V30 12114 H 1137.72 5.52412 2.62014 0
M  V30 12115 H 1141.89 6.50304 2.49155 0
M  V30 12116 H 1139.52 7.20916 2.41214 0
M  V30 12117 N 1141.09 -1.09351 1.1349 0
M  V30 12118 C 1142.04 -2.16008 0.812981 0
M  V30 12119 C 1143.01 -1.64566 -0.225252 0
M  V30 12120 O 1144.2 -1.90552 -0.0973261 0
M  V30 12121 C 1141.34 -3.43913 0.285996 0
M  V30 12122 C 1140.45 -4.09251 1.38338 0
M  V30 12123 C 1139.58 -5.24916 0.814652 0
M  V30 12124 C 1138.62 -5.82178 1.89038 0
M  V30 12125 N 1137.76 -6.89203 1.33955 0
M  V30 12126 H 1142.6 -2.42887 1.72655 0
M  V30 12127 H 1140.14 -1.19209 0.861833 0
M  V30 12128 H 1142.09 -4.17183 -0.0376794 0
M  V30 12129 H 1140.72 -3.17349 -0.590707 0
M  V30 12130 H 1139.78 -3.33838 1.82363 0
M  V30 12131 H 1141.09 -4.4784 2.19638 0
M  V30 12132 H 1140.24 -6.05086 0.442306 0
M  V30 12133 H 1138.98 -4.87691 -0.029416 0
M  V30 12134 H 1137.99 -5.00669 2.27179 0
M  V30 12135 H 1139.21 -6.21464 2.73787 0
M  V30 12136 H 1137.16 -6.53956 0.517494 0
M  V30 12137 H 1137.07 -7.26565 2.08902 0
M  V30 12138 H 1138.34 -7.73126 0.994793 0
M  V30 12139 N 1142.57 -0.928524 -1.27343 0
M  V30 12140 C 1143.99 -0.62889 -1.46687 0
M  V30 12141 C 1144.19 0.821592 -1.83989 0
M  V30 12142 O 1143.24 1.59941 -1.95385 0
M  V30 12143 C 1144.56 -1.57947 -2.55878 0
M  V30 12144 C 1146.1 -1.58778 -2.69738 0
M  V30 12145 C 1146.58 -2.52535 -3.82087 0
M  V30 12146 N 1148.07 -2.50747 -3.89462 0
M  V30 12147 C 1148.81 -3.19981 -4.75814 0
M  V30 12148 N 1148.3 -3.98598 -5.66649 0
M  V30 12149 N 1150.09 -3.08996 -4.69551 0
M  V30 12150 H 1142.25 -1.86625 -1.01414 0
M  V30 12151 H 1144.51 -0.801293 -0.50659 0
M  V30 12152 H 1144.21 -2.61427 -2.35264 0
M  V30 12153 H 1144.09 -1.3218 -3.53282 0
M  V30 12154 H 1146.48 -0.560292 -2.89732 0
M  V30 12155 H 1146.56 -1.88594 -1.72817 0
M  V30 12156 H 1146.2 -3.55395 -3.62846 0
M  V30 12157 H 1146.13 -2.20015 -4.78436 0
M  V30 12158 H 1148.62 -1.93651 -3.24511 0
M  V30 12159 H 1148.93 -4.4841 -6.29403 0
M  V30 12160 H 1147.28 -4.02701 -5.66442 0
M  V30 12161 H 1150.47 -2.4707 -3.97585 0
M  V30 12162 H 1150.64 -3.63223 -5.36631 0
M  V30 12163 N 1144.05 1.41491 -0.694123 0
M  V30 12164 C 1145.3 2.00479 -0.221585 0
M  V30 12165 C 1145.61 1.55605 1.18518 0
M  V30 12166 O 1146.82 2.07143 1.7551 0
M  V30 12167 C 1145.27 3.5824 -0.345264 0
M  V30 12168 C 1144.88 4.12096 -1.7573 0
M  V30 12169 C 1146.63 4.24446 0.0675731 0
M  V30 12170 C 1144.53 5.62286 -1.83271 0
M  V30 12171 H 1143.46 0.749841 -0.0790854 0
M  V30 12172 H 1146.11 1.61987 -0.86211 0
M  V30 12173 H 1144.5 3.94328 0.363487 0
M  V30 12174 H 1145.67 3.8743 -2.49469 0
M  V30 12175 H 1143.98 3.58411 -2.11969 0
M  V30 12176 H 1146.58 5.34691 0.0316485 0
M  V30 12177 H 1146.92 4.01338 1.10606 0
M  V30 12178 H 1147.46 3.93388 -0.59085 0
M  V30 12179 H 1144.2 5.9022 -2.85168 0
M  V30 12180 H 1143.72 5.88883 -1.13914 0
M  V30 12181 H 1145.4 6.27033 -1.59494 0
M  V30 12182 N 1145.53 0.438773 1.51369 0
M  V30 12183 C 1146.75 -0.128221 2.07003 0
M  V30 12184 C 1147.18 -1.3557 1.30393 0
M  V30 12185 O 1146.54 -1.7804 0.342283 0
M  V30 12186 C 1146.58 -0.42761 3.58056 0
M  V30 12187 O 1145.69 -1.51382 3.83611 0
M  V30 12188 H 1145.03 -0.00123679 0.663999 0
M  V30 12189 H 1147.56 0.62052 1.94963 0
M  V30 12190 H 1147.57 -0.677645 4.02333 0
M  V30 12191 H 1146.24 0.469535 4.13241 0
M  V30 12192 H 1144.82 -1.25363 3.51196 0
M  V30 12193 N 1147.01 -1.56678 0.170181 0
M  V30 12194 C 1148.25 -1.9646 -0.474125 0
M  V30 12195 C 1148.57 -1.05719 -1.63855 0
M  V30 12196 O 1147.84 -0.123316 -1.95511 0
M  V30 12197 H 1146.42 -0.725446 -0.178149 0
M  V30 12198 H 1149.09 -1.93276 0.251099 0
M  V30 12199 H 1148.18 -3.00726 -0.834894 0
M  V30 12200 N 1148.48 0.103547 -1.57259 0
M  V30 12201 C 1149.71 0.82235 -1.89855 0
M  V30 12202 C 1150.13 1.72694 -0.76303 0
M  V30 12203 O 1149.48 1.8056 0.265421 0
M  V30 12204 C 1149.53 1.64282 -3.22015 0
M  V30 12205 O 1149.26 0.774628 -4.31197 0
M  V30 12206 C 1150.76 2.46543 -3.68418 0
M  V30 12207 H 1147.98 0.235591 -0.628282 0
M  V30 12208 H 1150.52 0.0833106 -2.0433 0
M  V30 12209 H 1148.68 2.33446 -3.09163 0
M  V30 12210 H 1149.09 1.34205 -5.0704 0
M  V30 12211 H 1150.56 2.99618 -4.63609 0
M  V30 12212 H 1151.04 3.24618 -2.95838 0
M  V30 12213 H 1151.65 1.82594 -3.84109 0
M  V30 12214 N 1149.96 1.53094 0.37415 0
M  V30 12215 C 1151.19 1.73061 1.143 0
M  V30 12216 C 1151.61 0.454611 1.82524 0
M  V30 12217 O 1150.97 -0.590743 1.71406 0
M  V30 12218 C 1151.02 2.89086 2.15549 0
M  V30 12219 O 1150.12 2.57096 3.22452 0
M  V30 12220 H 1149.46 0.575009 0.332055 0
M  V30 12221 H 1151.99 1.99946 0.433897 0
M  V30 12222 H 1152 3.15007 2.59296 0
M  V30 12223 H 1150.68 3.81647 1.65283 0
M  V30 12224 H 1149.25 2.41965 2.83738 0
M  V30 12225 N 1151.44 -0.633461 1.44309 0
M  V30 12226 C 1152.69 -1.38902 1.4625 0
M  V30 12227 C 1153 -1.95354 0.0980699 0
M  V30 12228 O 1154.21 -2.715 -0.0049983 0
M  V30 12229 C 1152.66 -2.51477 2.57463 0
M  V30 12230 C 1152.27 -2.01549 4.00103 0
M  V30 12231 C 1154.02 -3.28698 2.68622 0
M  V30 12232 C 1151.92 -3.11452 5.02744 0
M  V30 12233 H 1150.85 -0.521976 0.544112 0
M  V30 12234 H 1153.5 -0.681725 1.70367 0
M  V30 12235 H 1151.89 -3.24771 2.26582 0
M  V30 12236 H 1153.06 -1.35135 4.4054 0
M  V30 12237 H 1151.37 -1.3715 3.93165 0
M  V30 12238 H 1153.97 -4.10624 3.42479 0
M  V30 12239 H 1154.31 -3.78027 1.7436 0
M  V30 12240 H 1154.85 -2.62494 2.98901 0
M  V30 12241 H 1151.59 -2.6707 5.98627 0
M  V30 12242 H 1151.11 -3.76514 4.66902 0
M  V30 12243 H 1152.79 -3.76265 5.2634 0
M  V30 12244 N 1152.92 -1.31168 -0.873655 0
M  V30 12245 C 1153.88 -1.18471 -1.96207 0
M  V30 12246 C 1154.88 -0.112814 -1.60404 0
M  V30 12247 O 1156.07 -0.3618 -1.70401 0
M  V30 12248 C 1153.2 -0.817662 -3.30949 0
M  V30 12249 H 1154.4 -2.1518 -2.08896 0
M  V30 12250 H 1151.95 -1.14727 -1.06149 0
M  V30 12251 H 1152.68 0.148428 -3.2396 0
M  V30 12252 H 1152.47 -1.59244 -3.58307 0
M  V30 12253 H 1153.96 -0.75262 -4.10762 0
M  V30 12254 N 1154.4 1.08748 -1.14068 0
M  V30 12255 C 1155.64 1.81065 -0.906738 0
M  V30 12256 C 1155.97 1.86057 0.566844 0
M  V30 12257 O 1155.23 1.32976 1.43582 0
M  V30 12258 C 1155.53 3.26734 -1.44843 0
M  V30 12259 C 1155.19 3.41866 -2.94005 0
M  V30 12260 C 1153.85 3.45703 -3.34729 0
M  V30 12261 C 1156.21 3.45831 -3.89937 0
M  V30 12262 C 1153.53 3.51092 -4.70055 0
M  V30 12263 C 1155.89 3.52755 -5.25116 0
M  V30 12264 C 1154.55 3.54863 -5.65357 0
M  V30 12265 H 1153.82 0.662564 -0.331799 0
M  V30 12266 H 1156.47 1.28065 -1.42378 0
M  V30 12267 H 1154.77 3.82419 -0.852239 0
M  V30 12268 H 1156.47 3.81236 -1.2434 0
M  V30 12269 H 1153.06 3.39568 -2.61518 0
M  V30 12270 H 1157.24 3.421 -3.59557 0
M  V30 12271 H 1152.5 3.51015 -5.00598 0
M  V30 12272 H 1156.67 3.54768 -5.9926 0
M  V30 12273 H 1154.3 3.58792 -6.70203 0
M  V30 12274 N 1155.87 0.935264 1.26849 0
M  V30 12275 C 1156.82 0.438896 2.26588 0
M  V30 12276 C 1157.79 -0.498267 1.5845 0
M  V30 12277 O 1158.98 -0.415771 1.86215 0
M  V30 12278 C 1156.12 -0.295293 3.43834 0
M  V30 12279 C 1155.23 0.676857 4.26665 0
M  V30 12280 C 1154.36 -0.0779349 5.31143 0
M  V30 12281 C 1153.4 0.886425 6.05648 0
M  V30 12282 N 1152.54 0.163771 7.01909 0
M  V30 12283 H 1157.38 1.29439 2.6842 0
M  V30 12284 H 1154.92 0.649523 1.31983 0
M  V30 12285 H 1156.88 -0.737354 4.10632 0
M  V30 12286 H 1155.51 -1.11497 3.02933 0
M  V30 12287 H 1154.56 1.23744 3.5971 0
M  V30 12288 H 1155.87 1.41355 4.78351 0
M  V30 12289 H 1155.02 -0.579557 6.03926 0
M  V30 12290 H 1153.76 -0.84755 4.80279 0
M  V30 12291 H 1152.77 1.39923 5.31697 0
M  V30 12292 H 1153.99 1.65595 6.58601 0
M  V30 12293 H 1151.94 -0.58746 6.53364 0
M  V30 12294 H 1151.86 0.839902 7.5132 0
M  V30 12295 H 1153.12 -0.316951 7.78855 0
M  V30 12296 N 1157.35 -1.41121 0.701616 0
M  V30 12297 C 1158.3 -2.32582 0.0288052 0
M  V30 12298 C 1159.29 -1.5129 -0.762074 0
M  V30 12299 O 1160.5 -1.67185 -0.667014 0
M  V30 12300 H 1156.88 -0.75194 -0.00948675 0
M  V30 12301 H 1158.85 -2.86994 0.817141 0
M  V30 12302 C 1157.6 -3.36137 -0.889217 0
M  V30 12303 H 1156.92 -3.98746 -0.290062 0
M  V30 12304 H 1158.36 -4.0266 -1.32819 0
M  V30 12305 C 1156.82 -2.70504 -2.00821 0
M  V30 12306 O 1157.35 -2.55753 -3.09763 0
M  V30 12307 N 1155.55 -2.29105 -1.78772 0
M  V30 12308 H 1155.1 -2.41303 -0.901708 0
M  V30 12309 H 1155.06 -1.85527 -2.53825 0
M  V30 12310 N 1158.83 -0.446794 -1.51134 0
M  V30 12311 C 1160.08 0.118047 -2.01354 0
M  V30 12312 C 1160.39 1.42953 -1.33505 0
M  V30 12313 O 1161.6 2.07788 -1.74747 0
M  V30 12314 C 1160.05 0.260912 -3.58953 0
M  V30 12315 C 1159.66 -1.0407 -4.35745 0
M  V30 12316 C 1161.41 0.779014 -4.17291 0
M  V30 12317 C 1159.31 -0.862958 -5.8507 0
M  V30 12318 H 1158.24 0.0478915 -0.752478 0
M  V30 12319 H 1160.89 -0.577997 -1.74159 0
M  V30 12320 H 1159.28 1.02018 -3.82633 0
M  V30 12321 H 1160.45 -1.80903 -4.23805 0
M  V30 12322 H 1158.77 -1.48805 -3.88904 0
M  V30 12323 H 1161.36 0.928636 -5.26574 0
M  V30 12324 H 1161.71 1.76399 -3.7708 0
M  V30 12325 H 1162.24 0.0778022 -3.97724 0
M  V30 12326 H 1158.98 -1.82059 -6.2971 0
M  V30 12327 H 1158.5 -0.134588 -5.99649 0
M  V30 12328 H 1160.18 -0.51989 -6.44908 0
M  V30 12329 N 1160.31 1.56586 -0.178487 0
M  V30 12330 C 1161.27 2.17091 0.73512 0
M  V30 12331 C 1162.27 1.12088 1.15295 0
M  V30 12332 O 1163.46 1.37563 1.06874 0
M  V30 12333 C 1160.59 2.75957 2.00151 0
M  V30 12334 H 1161.79 2.99176 0.208272 0
M  V30 12335 H 1159.34 1.56138 0.0710967 0
M  V30 12336 H 1160.07 1.97626 2.57127 0
M  V30 12337 H 1159.86 3.52809 1.7108 0
M  V30 12338 H 1161.35 3.2247 2.65335 0
M  V30 12339 N 1161.79 -0.095206 1.57312 0
M  V30 12340 C 1163.01 -0.81614 1.90667 0
M  V30 12341 C 1163.44 -1.71494 0.772746 0
M  V30 12342 O 1162.79 -1.79192 -0.275682 0
M  V30 12343 C 1162.84 -1.60555 3.22885 0
M  V30 12344 O 1161.95 -2.71448 3.10467 0
M  V30 12345 H 1161.29 -0.224217 0.624998 0
M  V30 12346 H 1163.82 -0.070464 2.04479 0
M  V30 12347 H 1163.83 -1.98979 3.5619 0
M  V30 12348 H 1162.5 -0.945918 4.05 0
M  V30 12349 H 1161.08 -2.36053 2.88675 0
M  V30 12350 N 1163.26 -1.53291 -0.366026 0
M  V30 12351 C 1164.21 -1.79697 -1.44836 0
M  V30 12352 C 1165.18 -0.641321 -1.5322 0
M  V30 12353 O 1166.37 -0.883453 -1.69115 0
M  V30 12354 C 1163.51 -1.99223 -2.81788 0
M  V30 12355 C 1162.62 -3.26938 -2.82375 0
M  V30 12356 C 1161.75 -3.36654 -4.10898 0
M  V30 12357 C 1160.79 -4.58404 -4.05626 0
M  V30 12358 N 1159.93 -4.65275 -5.25798 0
M  V30 12359 H 1164.77 -2.72053 -1.21619 0
M  V30 12360 H 1162.31 -1.34768 -0.589577 0
M  V30 12361 H 1164.27 -2.0853 -3.61346 0
M  V30 12362 H 1162.9 -1.10204 -3.03406 0
M  V30 12363 H 1161.95 -3.26587 -1.95052 0
M  V30 12364 H 1163.26 -4.16573 -2.74351 0
M  V30 12365 H 1162.41 -3.4527 -4.98872 0
M  V30 12366 H 1161.15 -2.45035 -4.21674 0
M  V30 12367 H 1160.16 -4.49888 -3.16039 0
M  V30 12368 H 1161.38 -5.51364 -3.96453 0
M  V30 12369 H 1159.33 -3.76557 -5.3716 0
M  V30 12370 H 1159.25 -5.48814 -5.19942 0
M  V30 12371 H 1160.51 -4.78175 -6.15605 0
M  V30 12372 N 1164.74 0.6258 -1.44643 0
M  V30 12373 C 1165.99 1.38125 -1.46984 0
M  V30 12374 C 1166.3 1.95299 -0.108429 0
M  V30 12375 O 1167.51 2.71498 -0.00940005 0
M  V30 12376 C 1165.97 2.50108 -2.58793 0
M  V30 12377 C 1165.57 1.99424 -4.01166 0
M  V30 12378 C 1167.32 3.27269 -2.70361 0
M  V30 12379 C 1165.23 3.08781 -5.04389 0
M  V30 12380 H 1164.16 0.519083 -0.546872 0
M  V30 12381 H 1166.81 0.67268 -1.70726 0
M  V30 12382 H 1165.19 3.23565 -2.28302 0
M  V30 12383 H 1166.36 1.32797 -4.4125 0
M  V30 12384 H 1164.68 1.35063 -3.93887 0
M  V30 12385 H 1167.27 4.08802 -3.44652 0
M  V30 12386 H 1167.62 3.77097 -1.76362 0
M  V30 12387 H 1168.15 2.60905 -3.00289 0
M  V30 12388 H 1164.89 2.63891 -6.00035 0
M  V30 12389 H 1164.41 3.74033 -4.68892 0
M  V30 12390 H 1166.09 3.73469 -5.28328 0
M  V30 12391 N 1166.22 1.31629 0.866686 0
M  V30 12392 C 1167.18 1.1951 1.95576 0
M  V30 12393 C 1168.18 0.121319 1.60342 0
M  V30 12394 O 1169.37 0.370832 1.70207 0
M  V30 12395 C 1166.51 0.835201 3.30511 0
M  V30 12396 H 1167.7 2.16285 2.07752 0
M  V30 12397 H 1165.25 1.15288 1.05539 0
M  V30 12398 H 1165.99 -0.131245 3.24034 0
M  V30 12399 H 1165.77 1.61142 3.57457 0
M  V30 12400 H 1167.26 0.774393 4.10357 0
M  V30 12401 N 1167.7 -1.08142 1.14644 0
M  V30 12402 C 1168.65 -2.17229 0.831513 0
M  V30 12403 C 1169.64 -1.68311 -0.19173 0
M  V30 12404 O 1170.85 -1.79937 -0.0475596 0
M  V30 12405 H 1167.22 -0.708807 0.25119 0
M  V30 12406 H 1169.19 -2.41014 1.75939 0
M  V30 12407 C 1167.94 -3.46146 0.328347 0
M  V30 12408 H 1167.27 -3.84166 1.10708 0
M  V30 12409 H 1168.71 -4.23747 0.146568 0
M  V30 12410 C 1167.16 -3.2327 -0.948594 0
M  V30 12411 O 1167.69 -3.47111 -2.0218 0
M  V30 12412 N 1165.9 -2.76799 -0.884909 0
M  V30 12413 H 1165.45 -2.57597 -0.011399 0
M  V30 12414 H 1165.41 -2.61871 -1.73985 0
M  V30 12415 N 1169.18 -0.941978 -1.26351 0
M  V30 12416 C 1170.09 -0.45833 -2.30079 0
M  V30 12417 C 1171.1 0.468084 -1.67586 0
M  V30 12418 O 1172.28 0.347418 -1.98381 0
M  V30 12419 C 1169.34 0.26797 -3.45663 0
M  V30 12420 C 1168.41 -0.695102 -4.23635 0
M  V30 12421 C 1167.64 -0.003369 -5.337 0
M  V30 12422 O 1167.86 1.21342 -5.57344 0
M  V30 12423 O 1166.8 -0.682476 -5.98018 0
M  V30 12424 H 1170.62 -1.31998 -2.73514 0
M  V30 12425 H 1168.21 -0.707897 -1.31564 0
M  V30 12426 H 1170.09 0.677061 -4.15925 0
M  V30 12427 H 1168.76 1.105 -3.04256 0
M  V30 12428 H 1167.67 -1.15415 -3.55851 0
M  V30 12429 H 1169 -1.49977 -4.68794 0
M  V30 12430 N 1170.66 1.40747 -0.709091 0
M  V30 12431 C 1171.59 2.33404 -0.0669763 0
M  V30 12432 C 1172.57 1.52546 0.752582 0
M  V30 12433 O 1173.75 1.81036 0.702823 0
M  V30 12434 C 1170.88 3.36476 0.860285 0
M  V30 12435 C 1169.84 4.27748 0.146828 0
M  V30 12436 C 1169.16 5.21304 1.18937 0
M  V30 12437 C 1170.46 5.12734 -0.995064 0
M  V30 12438 H 1172.16 2.87349 -0.840888 0
M  V30 12439 H 1169.7 1.38163 -0.405817 0
M  V30 12440 H 1171.65 4.00231 1.31883 0
M  V30 12441 H 1170.38 2.80912 1.66602 0
M  V30 12442 H 1169.04 3.65437 -0.291826 0
M  V30 12443 H 1168.69 4.62048 1.98798 0
M  V30 12444 H 1168.39 5.8321 0.716917 0
M  V30 12445 H 1169.91 5.87936 1.64815 0
M  V30 12446 H 1171.32 5.69979 -0.61618 0
M  V30 12447 H 1169.72 5.83649 -1.39547 0
M  V30 12448 H 1170.79 4.49097 -1.82867 0
M  V30 12449 N 1172.13 0.454803 1.50895 0
M  V30 12450 C 1173.08 -0.347769 2.28165 0
M  V30 12451 C 1174.05 -1.00158 1.32505 0
M  V30 12452 O 1175.24 -1.01715 1.61427 0
M  V30 12453 C 1172.38 -1.43315 3.13934 0
M  V30 12454 C 1171.49 -0.795736 4.24608 0
M  V30 12455 C 1170.62 -1.85763 4.9766 0
M  V30 12456 C 1169.66 -1.19959 6.0023 0
M  V30 12457 N 1168.8 -2.20361 6.66622 0
M  V30 12458 H 1173.64 0.317493 2.96304 0
M  V30 12459 H 1171.18 0.168418 1.46133 0
M  V30 12460 H 1173.13 -2.07391 3.62001 0
M  V30 12461 H 1171.76 -2.0678 2.47875 0
M  V30 12462 H 1170.82 -0.0428173 3.80376 0
M  V30 12463 H 1172.13 -0.275477 4.98039 0
M  V30 12464 H 1171.28 -2.5746 5.49363 0
M  V30 12465 H 1170.02 -2.41166 4.23899 0
M  V30 12466 H 1169.03 -0.46817 5.47803 0
M  V30 12467 H 1170.25 -0.652666 6.75956 0
M  V30 12468 H 1168.2 -2.74812 5.95663 0
M  V30 12469 H 1168.11 -1.73275 7.35875 0
M  V30 12470 H 1169.38 -2.91488 7.22949 0
M  V30 12471 N 1173.61 -1.56489 0.186789 0
M  V30 12472 C 1174.54 -2.21705 -0.732739 0
M  V30 12473 C 1175.52 -1.17751 -1.22755 0
M  V30 12474 O 1176.71 -1.46231 -1.27789 0
M  V30 12475 C 1173.84 -2.86992 -1.95584 0
M  V30 12476 C 1172.79 -3.97118 -1.59628 0
M  V30 12477 C 1172.12 -4.49529 -2.89531 0
M  V30 12478 C 1173.42 -5.15941 -0.812518 0
M  V30 12479 H 1175.11 -2.98802 -0.189094 0
M  V30 12480 H 1172.66 -1.43722 -0.0895099 0
M  V30 12481 H 1174.61 -3.31295 -2.60426 0
M  V30 12482 H 1173.33 -2.07287 -2.52388 0
M  V30 12483 H 1171.99 -3.53494 -0.971475 0
M  V30 12484 H 1171.64 -3.66596 -3.44407 0
M  V30 12485 H 1171.34 -5.23832 -2.66221 0
M  V30 12486 H 1172.87 -4.96528 -3.55376 0
M  V30 12487 H 1174.28 -5.56841 -1.36386 0
M  V30 12488 H 1172.68 -5.96259 -0.677862 0
M  V30 12489 H 1173.75 -4.84535 0.188095 0
M  V30 12490 O 1175.13 -0.0494057 -1.61424 0
M  V30 12491 H 1175.82 0.560203 -1.85422 0
M  V30 END ATOM
M  V30 BEGIN BOND
M  V30 END BOND
M  V30 END CTAB
M  END
$$$$
