drugbank_target|Q9P286 Serine/threonine-protein kinase PAK 5 (DB12010)
 OpenBabel12092121183D

  0  0  0     0  0            999 V3000
M  V30 BEGIN CTAB
M  V30 COUNTS 11215 11369 0 0 0
M  V30 BEGIN ATOM
M  V30 1 H -0.908 1.98254 -0.117106 0
M  V30 2 N 0 1.576 0 0
M  V30 3 C 0.933 2.03868 1.02534 0
M  V30 4 C 1.911 0.928543 1.3348 0
M  V30 5 O 3.095 1.19667 1.45644 0
M  V30 6 C 0.222 2.43627 2.35294 0
M  V30 7 C -0.732 3.65373 2.2001 0
M  V30 8 S 0.101 5.13292 1.52614 0
M  V30 9 C 1.257 5.56322 2.86805 0
M  V30 10 H 1.49 2.90518 0.631377 0
M  V30 11 H -0.977 1.52953 0.210867 0
M  V30 12 H 0.981 2.67203 3.11629 0
M  V30 13 H -0.358 1.57376 2.7183 0
M  V30 14 H -1.165 3.90944 3.18086 0
M  V30 15 H -1.563 3.418 1.51819 0
M  V30 16 H 0.729 5.58782 3.83104 0
M  V30 17 H 1.672 6.56266 2.65933 0
M  V30 18 H 2.08 4.83886 2.90714 0
M  V30 19 N 1.4781 -0.272755 1.55222 0
M  V30 20 C 2.7251 -1.00433 1.7584 0
M  V30 21 C 3.0531 -1.86275 0.559629 0
M  V30 22 O 2.3081 -1.90269 -0.457857 0
M  V30 23 C 2.6071 -1.91642 3.01675 0
M  V30 24 C 2.2731 -1.21548 4.34208 0
M  V30 25 C 0.9351 -1.02166 4.70229 0
M  V30 26 C 3.2871 -0.716684 5.16249 0
M  V30 27 C 0.6151 -0.316334 5.85847 0
M  V30 28 C 2.9671 -0.0249476 6.32595 0
M  V30 29 C 1.6311 0.180579 6.67256 0
M  V30 30 H 0.9011 -0.367509 0.643443 0
M  V30 31 H 3.5481 -0.276596 1.89492 0
M  V30 32 H 1.8531 -2.71037 2.82924 0
M  V30 33 H 3.5501 -2.48369 3.14824 0
M  V30 34 H 0.1401 -1.37645 4.05896 0
M  V30 35 H 4.3241 -0.854047 4.88896 0
M  V30 36 H -0.4199 -0.146378 6.11225 0
M  V30 37 H 3.7541 0.369311 6.9542 0
M  V30 38 H 1.3811 0.729098 7.56696 0
M  V30 39 N 2.9562 -1.48159 -0.537278 0
M  V30 40 C 4.2042 -1.55497 -1.29094 0
M  V30 41 C 4.5252 -0.227454 -1.93669 0
M  V30 42 O 3.7952 0.750386 -1.80959 0
M  V30 43 H 2.3752 -0.572832 -0.47945 0
M  V30 44 H 5.0372 -1.84579 -0.625818 0
M  V30 45 H 4.1332 -2.33216 -2.07405 0
M  V30 46 N 4.4343 0.785586 -1.36625 0
M  V30 47 C 5.3813 1.89838 -1.31264 0
M  V30 48 C 6.3513 1.65115 -0.180633 0
M  V30 49 O 7.5363 1.87222 -0.36777 0
M  V30 50 C 4.6763 3.26706 -1.11163 0
M  V30 51 C 3.7893 3.63476 -2.33472 0
M  V30 52 C 2.9243 4.89481 -2.06353 0
M  V30 53 C 1.9633 5.18941 -3.24602 0
M  V30 54 N 1.1003 6.36131 -2.97123 0
M  V30 55 H 5.9403 1.93756 -2.26413 0
M  V30 56 H 3.4773 0.947454 -1.12524 0
M  V30 57 H 5.4353 4.05639 -0.975337 0
M  V30 58 H 4.0653 3.222 -0.196674 0
M  V30 59 H 3.1173 2.79636 -2.57891 0
M  V30 60 H 4.4293 3.81193 -3.21704 0
M  V30 61 H 3.5833 5.76288 -1.89675 0
M  V30 62 H 2.3223 4.73841 -1.15437 0
M  V30 63 H 1.3273 4.30615 -3.41834 0
M  V30 64 H 2.5523 5.36498 -4.16349 0
M  V30 65 H 0.4983 6.21875 -2.08823 0
M  V30 66 H 0.4153 6.54198 -3.78894 0
M  V30 67 H 1.6833 7.2591 -2.84033 0
M  V30 68 N 5.9124 1.20967 1.01018 0
M  V30 69 C 6.8594 0.964281 2.09691 0
M  V30 70 C 7.8294 -0.107853 1.65749 0
M  V30 71 O 9.0144 0.0381987 1.90762 0
M  V30 72 C 6.1544 0.52943 3.41015 0
M  V30 73 C 5.2674 1.67043 3.98398 0
M  V30 74 C 4.4024 1.18525 5.17808 0
M  V30 75 C 3.4414 2.29892 5.67288 0
M  V30 76 N 2.5784 1.82546 6.77954 0
M  V30 77 H 7.4184 1.89463 2.30017 0
M  V30 78 H 4.9554 0.944289 1.1279 0
M  V30 79 H 6.9134 0.258588 4.16398 0
M  V30 80 H 5.5434 -0.363919 3.20742 0
M  V30 81 H 4.5954 2.05603 3.20049 0
M  V30 82 H 5.9074 2.50877 4.31117 0
M  V30 83 H 5.0614 0.870762 6.00419 0
M  V30 84 H 3.8004 0.316887 4.86669 0
M  V30 85 H 2.8054 2.6215 4.83278 0
M  V30 86 H 4.0304 3.17216 6.00459 0
M  V30 87 H 1.9764 0.980454 6.48632 0
M  V30 88 H 1.8934 2.59956 7.09901 0
M  V30 89 H 3.1614 1.54115 7.64113 0
M  V30 90 N 7.3905 -1.2043 1.01659 0
M  V30 91 C 8.3375 -2.23215 0.586822 0
M  V30 92 C 9.3075 -1.61382 -0.393085 0
M  V30 93 O 10.4925 -1.88544 -0.292525 0
M  V30 94 C 7.6325 -3.45032 -0.0687464 0
M  V30 95 C 6.7455 -4.21296 0.955724 0
M  V30 96 C 5.8805 -5.30507 0.271208 0
M  V30 97 C 4.9195 -5.98515 1.28244 0
M  V30 98 N 4.0565 -6.99316 0.62459 0
M  V30 99 H 8.8965 -2.59336 1.46796 0
M  V30 100 H 6.4335 -1.27431 0.734836 0
M  V30 101 H 8.3915 -4.1459 -0.465965 0
M  V30 102 H 7.0215 -3.09604 -0.913529 0
M  V30 103 H 6.0735 -3.50803 1.4711 0
M  V30 104 H 7.3855 -4.6803 1.72479 0
M  V30 105 H 6.5395 -6.06428 -0.18151 0
M  V30 106 H 5.2785 -4.8481 -0.530163 0
M  V30 107 H 4.2835 -5.21355 1.74554 0
M  V30 108 H 5.5085 -6.46298 2.08509 0
M  V30 109 H 3.4545 -6.55812 -0.156914 0
M  V30 110 H 3.3715 -7.44178 1.33172 0
M  V30 111 H 4.6395 -7.79255 0.195462 0
M  V30 112 N 8.8686 -0.792821 -1.36206 0
M  V30 113 C 9.8156 -0.191653 -2.30003 0
M  V30 114 C 10.7856 0.666453 -1.52143 0
M  V30 115 O 11.9706 0.61442 -1.80636 0
M  V30 116 C 9.1106 0.664848 -3.38635 0
M  V30 117 C 8.2236 -0.212175 -4.31479 0
M  V30 118 C 7.3586 0.651022 -5.27196 0
M  V30 119 C 6.3976 -0.227247 -6.11678 0
M  V30 120 N 5.5346 0.595127 -6.99573 0
M  V30 121 H 10.3746 -0.996978 -2.80828 0
M  V30 122 H 7.9116 -0.503206 -1.38225 0
M  V30 123 H 9.8696 1.17645 -4.00269 0
M  V30 124 H 8.4996 1.43557 -2.89122 0
M  V30 125 H 7.5516 -0.841777 -3.70969 0
M  V30 126 H 8.8636 -0.888751 -4.90818 0
M  V30 127 H 8.0176 1.2283 -5.94136 0
M  V30 128 H 6.7566 1.36121 -4.68319 0
M  V30 129 H 5.7616 -0.816904 -5.43697 0
M  V30 130 H 6.9866 -0.93509 -6.72631 0
M  V30 131 H 4.9326 1.28955 -6.432 0
M  V30 132 H 4.8496 -0.0236952 -7.55996 0
M  V30 133 H 6.1176 1.15613 -7.70879 0
M  V30 134 N 10.3467 1.47872 -0.545128 0
M  V30 135 C 11.2937 2.29849 0.2093 0
M  V30 136 C 12.2637 1.38313 0.919707 0
M  V30 137 O 13.4487 1.67277 0.917772 0
M  V30 138 C 10.5887 3.22019 1.24088 0
M  V30 139 C 9.7017 4.2864 0.537778 0
M  V30 140 C 8.8367 5.07973 1.5536 0
M  V30 141 C 7.8757 6.06381 0.8348 0
M  V30 142 N 7.0127 6.78717 1.79688 0
M  V30 143 H 11.8527 2.93845 -0.49591 0
M  V30 144 H 9.3897 1.44848 -0.256389 0
M  V30 145 H 11.3477 3.73868 1.85144 0
M  V30 146 H 9.9777 2.59914 1.91428 0
M  V30 147 H 9.0297 3.7994 -0.187046 0
M  V30 148 H 10.3417 4.98793 -0.0258907 0
M  V30 149 H 9.4957 5.63912 2.23803 0
M  V30 150 H 8.2347 4.37693 2.15118 0
M  V30 151 H 7.2397 5.49631 0.136388 0
M  V30 152 H 8.4647 6.78665 0.24313 0
M  V30 153 H 6.4107 6.11177 2.38326 0
M  V30 154 H 6.3277 7.44998 1.28505 0
M  V30 155 H 7.5957 7.39237 2.47282 0
M  V30 156 N 11.8248 0.280983 1.55075 0
M  V30 157 C 13.0738 -0.334784 1.98902 0
M  V30 158 C 13.3868 -1.56534 1.17288 0
M  V30 159 O 14.5928 -2.25443 1.51287 0
M  V30 160 C 13.0488 -0.646994 3.54037 0
M  V30 161 C 12.6568 0.564085 4.44435 0
M  V30 162 C 14.4008 -1.22506 4.06439 0
M  V30 163 C 12.3078 0.226137 5.90967 0
M  V30 164 H 11.2378 -0.128866 0.742906 0
M  V30 165 H 13.8888 0.386556 1.79382 0
M  V30 166 H 12.2708 -1.42739 3.6938 0
M  V30 167 H 13.4448 1.34082 4.40861 0
M  V30 168 H 11.7598 1.0594 4.02698 0
M  V30 169 H 14.3568 -1.49182 5.13468 0
M  V30 170 H 14.6998 -2.16085 3.55827 0
M  V30 171 H 15.2328 -0.50682 3.94558 0
M  V30 172 H 11.9718 1.12996 6.45687 0
M  V30 173 H 11.4918 -0.513717 5.97596 0
M  V30 174 H 13.1708 -0.179539 6.46751 0
M  V30 175 N 13.3029 -1.57598 0.00835791 0
M  V30 176 C 14.2129 -2.12385 -0.996487 0
M  V30 177 C 15.2289 -1.07108 -1.37127 0
M  V30 178 O 16.4049 -1.39055 -1.4569 0
M  V30 179 C 13.4699 -2.62314 -2.26699 0
M  V30 180 C 12.5309 -3.82225 -1.95456 0
M  V30 181 C 11.7639 -4.29763 -3.16449 0
M  V30 182 O 11.9869 -3.76584 -4.28416 0
M  V30 183 O 10.9209 -5.21832 -2.99958 0
M  V30 184 H 14.7469 -2.98479 -0.560725 0
M  V30 185 H 12.3319 -1.47903 -0.210987 0
M  V30 186 H 14.2139 -2.94589 -3.01322 0
M  V30 187 H 12.8889 -1.79313 -2.69497 0
M  V30 188 H 11.7959 -3.54909 -1.18282 0
M  V30 189 H 13.1289 -4.66324 -1.57489 0
M  V30 190 N 14.781 0.264519 -1.55364 0
M  V30 191 C 16.03 0.992812 -1.75574 0
M  V30 192 C 16.343 1.87142 -0.568979 0
M  V30 193 O 17.549 2.63513 -0.653682 0
M  V30 194 C 16.005 1.81519 -3.10771 0
M  V30 195 C 15.613 0.984839 -4.37041 0
M  V30 196 C 17.357 2.53727 -3.40327 0
M  V30 197 C 15.264 1.80209 -5.63275 0
M  V30 198 H 14.194 0.374412 -0.65447 0
M  V30 199 H 16.845 0.248138 -1.81815 0
M  V30 200 H 15.227 2.60115 -2.98591 0
M  V30 201 H 16.401 0.242455 -4.60162 0
M  V30 202 H 14.716 0.37691 -4.14691 0
M  V30 203 H 17.313 3.15292 -4.3185 0
M  V30 204 H 17.656 3.24447 -2.60845 0
M  V30 205 H 18.189 1.82156 -3.53644 0
M  V30 206 H 14.928 1.13896 -6.45529 0
M  V30 207 H 14.448 2.52022 -5.44284 0
M  V30 208 H 16.127 2.37364 -6.01887 0
M  V30 209 N 16.2591 1.48442 0.529413 0
M  V30 210 C 17.4841 1.60406 1.31471 0
M  V30 211 C 17.9091 0.264738 1.86228 0
M  V30 212 O 17.2671 -0.763668 1.64432 0
M  V30 213 C 17.3151 2.65419 2.44101 0
M  V30 214 O 16.4191 2.22618 3.47153 0
M  V30 215 H 15.7601 0.537863 0.389357 0
M  V30 216 H 18.2901 1.94432 0.636965 0
M  V30 217 H 18.3001 2.86709 2.90279 0
M  V30 218 H 16.9751 3.62652 2.03608 0
M  V30 219 H 15.5521 2.11543 3.0709 0
M  V30 220 N 17.7372 -0.778329 1.37039 0
M  V30 221 C 18.9852 -1.53361 1.31623 0
M  V30 222 C 19.3062 -1.94739 -0.100831 0
M  V30 223 O 18.5762 -1.65797 -1.04347 0
M  V30 224 H 17.1562 -0.568794 0.484234 0
M  V30 225 H 19.8182 -0.926742 1.71457 0
M  V30 226 H 18.9142 -2.43606 1.95096 0
M  V30 227 N 19.2153 -1.21501 -1.00376 0
M  V30 228 C 20.6263 -1.03146 -1.55621 0
M  V30 229 C 20.9773 0.408375 -1.91903 0
M  V30 230 O 20.1023 1.29177 -1.73616 0
M  V30 231 C 20.6973 -1.86612 -2.82775 0
M  V30 232 C 19.2563 -1.72586 -3.34501 0
M  V30 233 C 18.4033 -1.83747 -2.07683 0
M  V30 234 H 21.3543 -1.35505 -0.826081 0
M  V30 235 H 21.3753 -1.3771 -3.54706 0
M  V30 236 H 20.8873 -2.91399 -2.56336 0
M  V30 237 H 18.9883 -0.704877 -3.65872 0
M  V30 238 H 19.1013 -2.54623 -4.05837 0
M  V30 239 H 17.4653 -1.27069 -2.20739 0
M  V30 240 H 18.2483 -2.90044 -1.83655 0
M  V30 241 N 20.6934 1.19889 -1.02296 0
M  V30 242 C 21.9184 1.9393 -0.735237 0
M  V30 243 C 22.3434 1.74639 0.698782 0
M  V30 244 O 21.7014 1.04481 1.48167 0
M  V30 245 C 21.7494 3.43916 -1.08417 0
M  V30 246 O 20.8534 4.11917 -0.199446 0
M  V30 247 H 20.1944 0.605645 -0.272196 0
M  V30 248 H 22.7244 1.52137 -1.36804 0
M  V30 249 H 22.7344 3.9456 -1.03856 0
M  V30 250 H 21.4094 3.5728 -2.12894 0
M  V30 251 H 19.9864 3.71666 -0.303136 0
M  V30 252 N 22.1715 0.800033 1.35784 0
M  V30 253 C 23.1195 0.193851 2.31791 0
M  V30 254 C 24.1135 -0.652744 1.56319 0
M  V30 255 O 25.3195 -0.546641 1.71499 0
M  V30 256 H 21.6945 0.04392 0.750716 0
M  V30 257 H 23.6655 1.01883 2.80468 0
M  V30 258 C 22.4145 -0.648338 3.41602 0
M  V30 259 H 21.7375 -0.00624665 3.998 0
M  V30 260 H 23.1775 -1.03898 4.11073 0
M  V30 261 C 21.6365 -1.8111 2.84079 0
M  V30 262 O 22.1665 -2.90825 2.77099 0
M  V30 263 N 20.3725 -1.62056 2.41218 0
M  V30 264 H 19.9195 -0.728123 2.47095 0
M  V30 265 H 19.8775 -2.40013 2.03079 0
M  V30 266 N 23.6496 -1.47581 0.552962 0
M  V30 267 C 24.8966 -2.02482 0.0273243 0
M  V30 268 C 25.2246 -1.42776 -1.32081 0
M  V30 269 O 24.4796 -0.571393 -1.87173 0
M  V30 270 C 24.7786 -3.57199 -0.119728 0
M  V30 271 C 24.4446 -4.35804 1.15697 0
M  V30 272 C 23.1066 -4.57 1.50681 0
M  V30 273 C 25.4586 -4.81167 2.00319 0
M  V30 274 C 22.7866 -5.20807 2.70142 0
M  V30 275 C 25.1386 -5.46293 3.18978 0
M  V30 276 C 23.8026 -5.65722 3.54281 0
M  V30 277 H 23.0726 -0.740933 0.00999866 0
M  V30 278 H 25.7196 -1.77302 0.72362 0
M  V30 279 H 24.0246 -3.81348 -0.89896 0
M  V30 280 H 25.7216 -3.97324 -0.541718 0
M  V30 281 H 22.3116 -4.19582 0.874561 0
M  V30 282 H 26.4956 -4.64574 1.74599 0
M  V30 283 H 21.7516 -5.34045 2.97668 0
M  V30 284 H 25.9256 -5.80407 3.84838 0
M  V30 285 H 23.5526 -6.14936 4.46942 0
M  V30 286 N 25.1277 -0.289203 -1.54924 0
M  V30 287 C 26.0377 0.601863 -2.26748 0
M  V30 288 C 27.0537 1.15834 -1.2984 0
M  V30 289 O 28.2297 1.18564 -1.62802 0
M  V30 290 C 25.2947 1.76299 -2.98529 0
M  V30 291 C 24.3557 1.24178 -4.10948 0
M  V30 292 C 23.5887 2.34757 -4.79296 0
M  V30 293 O 23.8117 3.54411 -4.46933 0
M  V30 294 O 22.7457 2.02115 -5.66951 0
M  V30 295 H 26.5717 0.0195879 -3.03694 0
M  V30 296 H 24.1567 -0.0560868 -1.49295 0
M  V30 297 H 26.0387 2.43973 -3.43592 0
M  V30 298 H 24.7137 2.33209 -2.24488 0
M  V30 299 H 23.6207 0.531104 -3.70311 0
M  V30 300 H 24.9537 0.718252 -4.86931 0
M  V30 301 N 26.6058 1.57591 -0.0167156 0
M  V30 302 C 27.5558 2.05953 0.978137 0
M  V30 303 C 28.5398 0.957532 1.29306 0
M  V30 304 O 29.7318 1.22119 1.28125 0
M  V30 305 C 26.8608 2.58006 2.26468 0
M  V30 306 C 25.9468 3.75113 1.97867 0
M  V30 307 N 26.3378 4.86187 1.39486 0
M  V30 308 C 24.6358 3.83363 2.27924 0
M  V30 309 C 25.3368 5.67502 1.27735 0
M  V30 310 N 24.3128 5.14023 1.76866 0
M  V30 311 H 28.1148 2.89236 0.521522 0
M  V30 312 H 25.6288 1.61301 0.188596 0
M  V30 313 H 27.6258 2.90937 2.98599 0
M  V30 314 H 26.2858 1.76148 2.72767 0
M  V30 315 H 27.2968 5.06695 1.07147 0
M  V30 316 H 23.9738 3.1239 2.76982 0
M  V30 317 H 25.3638 6.66791 0.826978 0
M  V30 318 N 28.0839 -0.256276 1.55502 0
M  V30 319 C 29.4999 -0.604325 1.47716 0
M  V30 320 C 29.6999 -1.88763 0.705039 0
M  V30 321 O 28.7559 -2.51445 0.230613 0
M  V30 322 C 30.0689 -0.715756 2.92057 0
M  V30 323 C 31.6169 -0.808706 3.02372 0
M  V30 324 C 32.0919 -0.951777 4.48001 0
M  V30 325 N 33.5829 -1.01688 4.519 0
M  V30 326 C 34.3179 -1.14668 5.61817 0
M  V30 327 N 33.8139 -1.24261 6.81565 0
M  V30 328 N 35.6069 -1.1791 5.49594 0
M  V30 329 H 27.7579 0.586291 2.04148 0
M  V30 330 H 30.0209 0.201015 0.926443 0
M  V30 331 H 29.7269 0.157027 3.51349 0
M  V30 332 H 29.6009 -1.59071 3.42018 0
M  V30 333 H 31.9879 -1.67195 2.43166 0
M  V30 334 H 32.0689 0.0912063 2.55637 0
M  V30 335 H 31.7129 -0.0931291 5.07815 0
M  V30 336 H 31.6429 -1.86659 4.92408 0
M  V30 337 H 34.1339 -0.954468 3.65648 0
M  V30 338 H 34.4469 -1.34046 7.61086 0
M  V30 339 H 32.7919 -1.21236 6.84344 0
M  V30 340 H 35.9829 -1.10057 4.54978 0
M  V30 341 H 36.1559 -1.27681 6.35296 0
M  V30 342 N 29.562 -1.4872 -0.521534 0
M  V30 343 C 30.808 -1.574 -1.27879 0
M  V30 344 C 31.141 -0.250817 -1.92573 0
M  V30 345 O 30.416 0.743934 -1.79711 0
M  V30 346 C 30.699 -2.71843 -2.36164 0
M  V30 347 C 30.552 -4.13893 -1.76105 0
M  V30 348 C 31.871 -2.82008 -3.37875 0
M  V30 349 H 28.99 -0.572941 -0.463581 0
M  V30 350 H 31.632 -1.80927 -0.580119 0
M  V30 351 H 29.782 -2.51914 -2.95756 0
M  V30 352 H 31.454 -4.45284 -1.20499 0
M  V30 353 H 29.697 -4.20498 -1.06601 0
M  V30 354 H 30.368 -4.89804 -2.5455 0
M  V30 355 H 32.844 -3.00086 -2.88249 0
M  V30 356 H 31.72 -3.63796 -4.11028 0
M  V30 357 H 31.981 -1.90511 -3.98946 0
M  V30 358 N 31.0401 0.771051 -1.3745 0
M  V30 359 C 31.9901 1.87456 -1.29785 0
M  V30 360 C 32.9741 1.59827 -0.185541 0
M  V30 361 O 34.1661 1.71945 -0.419997 0
M  V30 362 C 31.2951 3.24935 -1.1078 0
M  V30 363 C 30.3811 3.58514 -2.26558 0
M  V30 364 N 30.7721 3.6327 -3.5195 0
M  V30 365 C 29.0701 3.88683 -2.18727 0
M  V30 366 C 29.7711 3.93616 -4.283 0
M  V30 367 N 28.7471 4.09551 -3.57448 0
M  V30 368 H 32.5491 1.89386 -2.24745 0
M  V30 369 H 30.0631 0.967531 -1.30432 0
M  V30 370 H 32.0601 4.03881 -1.03374 0
M  V30 371 H 30.7201 3.24268 -0.16738 0
M  V30 372 H 31.7311 3.45458 -3.85848 0
M  V30 373 H 28.4081 3.95834 -1.32746 0
M  V30 374 H 29.7981 4.04066 -5.36824 0
M  V30 375 N 32.5182 1.22032 0.997298 0
M  V30 376 C 33.7462 1.06841 1.7718 0
M  V30 377 C 34.1612 -0.381325 1.84909 0
M  V30 378 O 33.5182 -1.26437 1.31605 0
M  V30 379 C 33.5692 1.66814 3.20711 0
M  V30 380 O 33.2902 3.06116 3.13408 0
M  V30 381 C 34.7912 1.56838 4.14628 0
M  V30 382 H 32.0112 0.374782 0.556578 0
M  V30 383 H 34.5552 1.61532 1.2541 0
M  V30 384 H 32.7102 1.16196 3.69564 0
M  V30 385 H 33.1242 3.34926 4.0364 0
M  V30 386 H 34.5982 2.03532 5.13107 0
M  V30 387 H 35.0752 0.524155 4.36061 0
M  V30 388 H 35.6812 2.06741 3.7167 0
M  V30 389 N 33.9963 -1.19345 1.0293 0
M  V30 390 C 35.2443 -1.88665 0.724574 0
M  V30 391 C 35.5653 -1.80036 -0.749144 0
M  V30 392 O 34.8353 -1.2111 -1.53978 0
M  V30 393 H 33.4153 -0.698406 0.265025 0
M  V30 394 H 36.0773 -1.44885 1.30362 0
M  V30 395 H 35.1733 -2.94987 1.01926 0
M  V30 396 N 35.4744 -0.807222 -1.35358 0
M  V30 397 C 36.7214 -0.387888 -1.9875 0
M  V30 398 C 37.0494 1.04509 -1.64037 0
M  V30 399 O 36.3044 1.73986 -0.895946 0
M  V30 400 C 36.6034 -0.519036 -3.53611 0
M  V30 401 C 36.2694 -1.91542 -4.08194 0
M  V30 402 C 34.9314 -2.29745 -4.22813 0
M  V30 403 C 37.2834 -2.82896 -4.37744 0
M  V30 404 C 34.6114 -3.58668 -4.643 0
M  V30 405 C 36.9634 -4.11265 -4.8067 0
M  V30 406 C 35.6274 -4.49466 -4.93494 0
M  V30 407 H 34.8974 -0.141938 -0.727279 0
M  V30 408 H 37.5444 -1.02814 -1.6156 0
M  V30 409 H 35.8494 0.204658 -3.91265 0
M  V30 410 H 37.5464 -0.175345 -4.00616 0
M  V30 411 H 34.1364 -1.60862 -3.97268 0
M  V30 412 H 38.3204 -2.54629 -4.26002 0
M  V30 413 H 33.5764 -3.88113 -4.72418 0
M  V30 414 H 37.7504 -4.82153 -5.02496 0
M  V30 415 H 35.3774 -5.49418 -5.25399 0
M  V30 416 N 36.9525 1.47285 -0.560781 0
M  V30 417 C 38.2295 1.9558 0.0277798 0
M  V30 418 C 38.6095 1.5034 1.48192 0
M  V30 419 O 37.9575 0.743882 2.16052 0
M  V30 420 C 38.1675 3.48789 -0.121418 0
M  V30 421 C 39.5155 4.24594 0.0220912 0
M  V30 422 O 40.5395 3.56166 -0.0491439 0
M  V30 423 O 39.3985 5.46217 0.175958 0
M  V30 424 H 36.4925 0.824663 0.0621342 0
M  V30 425 H 39.0385 1.5767 -0.627556 0
M  V30 426 H 37.8105 3.74533 -1.13316 0
M  V30 427 H 37.4335 3.93473 0.571366 0
M  V30 428 N 38.4306 0.297415 1.54768 0
M  V30 429 C 39.8416 -0.195947 1.85669 0
M  V30 430 C 40.1926 -1.53707 1.21937 0
M  V30 431 O 39.3176 -2.10164 0.515754 0
M  V30 432 C 39.9126 -0.362318 3.36857 0
M  V30 433 C 38.4716 -0.799901 3.67802 0
M  V30 434 C 37.6186 0.0938578 2.77141 0
M  V30 435 H 40.5696 0.518538 1.4999 0
M  V30 436 H 40.5906 -1.19745 3.61167 0
M  V30 437 H 40.1026 0.613921 3.83214 0
M  V30 438 H 38.2036 -1.78682 3.26961 0
M  V30 439 H 38.3166 -0.621773 4.75048 0
M  V30 440 H 36.6806 -0.426254 2.51108 0
M  V30 441 H 37.4636 1.06639 3.26318 0
M  V30 442 N 39.9087 -1.5758 0.0250728 0
M  V30 443 C 40.8407 -2.06869 -0.986796 0
M  V30 444 C 41.8537 -0.991332 -1.29137 0
M  V30 445 O 43.0427 -1.26761 -1.25674 0
M  V30 446 C 40.1427 -2.47486 -2.31525 0
M  V30 447 C 39.3157 -3.78253 -2.19643 0
M  V30 448 C 38.3747 -4.05464 -3.35388 0
M  V30 449 O 37.4007 -4.75774 -3.12454 0
M  V30 450 N 38.6027 -3.55321 -4.59051 0
M  V30 451 H 41.3677 -2.94302 -0.566276 0
M  V30 452 H 38.9287 -1.6109 -0.161776 0
M  V30 453 H 40.9207 -2.62785 -3.07776 0
M  V30 454 H 39.4907 -1.65441 -2.65232 0
M  V30 455 H 38.7107 -3.7279 -1.28144 0
M  V30 456 H 39.9987 -4.63936 -2.08903 0
M  V30 457 H 39.3967 -2.98431 -4.80578 0
M  V30 458 H 37.9537 -3.75905 -5.32483 0
M  V30 459 N 41.3868 0.248026 -1.55636 0
M  V30 460 C 42.2968 1.32859 -1.93354 0
M  V30 461 C 43.3128 1.52719 -0.833838 0
M  V30 462 O 44.4888 1.66363 -1.13513 0
M  V30 463 C 41.5538 2.66337 -2.21958 0
M  V30 464 C 40.6148 2.55008 -3.45354 0
M  V30 465 C 39.8478 3.82121 -3.72584 0
M  V30 466 O 40.0708 4.83951 -3.01907 0
M  V30 467 O 39.0048 3.80822 -4.6611 0
M  V30 468 H 42.8308 1.03862 -2.85388 0
M  V30 469 H 40.4158 0.448686 -1.42503 0
M  V30 470 H 42.2978 3.45216 -2.4167 0
M  V30 471 H 40.9728 2.95068 -1.33103 0
M  V30 472 H 39.8798 1.7442 -3.30951 0
M  V30 473 H 41.2128 2.31222 -4.34508 0
M  V30 474 N 42.8649 1.48995 0.513639 0
M  V30 475 C 43.7969 1.60836 1.63293 0
M  V30 476 C 44.8099 0.491701 1.55197 0
M  V30 477 O 45.9989 0.763238 1.6136 0
M  V30 478 C 43.0989 1.53731 3.02027 0
M  V30 479 C 42.2719 2.80715 3.35437 0
M  V30 480 C 41.3309 2.66837 4.53525 0
M  V30 481 O 40.3569 3.40753 4.55934 0
M  V30 482 N 41.5589 1.77539 5.52684 0
M  V30 483 H 44.3239 2.57366 1.53566 0
M  V30 484 H 41.8849 1.45925 0.701259 0
M  V30 485 H 43.8769 1.42118 3.78926 0
M  V30 486 H 42.4469 0.651092 3.05744 0
M  V30 487 H 41.6669 3.06772 2.47557 0
M  V30 488 H 42.9549 3.64927 3.54551 0
M  V30 489 H 42.3529 1.16719 5.53528 0
M  V30 490 H 40.9099 1.71856 6.28736 0
M  V30 491 N 44.343 -0.763751 1.37857 0
M  V30 492 C 45.29 -1.87726 1.34267 0
M  V30 493 C 46.26 -1.64807 0.206879 0
M  V30 494 O 47.445 -1.86613 0.397508 0
M  V30 495 C 44.585 -3.24896 1.16346 0
M  V30 496 C 43.698 -3.59716 2.39225 0
M  V30 497 C 42.833 -4.86137 2.14114 0
M  V30 498 C 41.872 -5.13711 3.32817 0
M  V30 499 N 41.009 -6.31323 3.07206 0
M  V30 500 H 45.849 -1.90129 2.29466 0
M  V30 501 H 43.386 -0.929433 1.14017 0
M  V30 502 H 45.344 -4.04036 1.03975 0
M  V30 503 H 43.974 -3.21847 0.247909 0
M  V30 504 H 43.026 -2.75498 2.62307 0
M  V30 505 H 44.338 -3.76027 3.27728 0
M  V30 506 H 43.492 -5.73198 1.9882 0
M  V30 507 H 42.231 -4.71945 1.22961 0
M  V30 508 H 41.236 -4.25123 3.48641 0
M  V30 509 H 42.461 -5.29807 4.24832 0
M  V30 510 H 40.407 -6.18474 2.1869 0
M  V30 511 H 40.324 -6.48087 3.89254 0
M  V30 512 H 41.592 -7.213 2.95546 0
M  V30 513 N 45.8211 -1.22559 -0.990812 0
M  V30 514 C 47.0681 -1.05141 -1.73065 0
M  V30 515 C 47.3961 0.413191 -1.9006 0
M  V30 516 O 46.6511 1.32257 -1.44245 0
M  V30 517 C 46.9501 -1.71011 -3.13831 0
M  V30 518 C 46.6161 -3.20911 -3.16745 0
M  V30 519 C 45.2781 -3.61812 -3.17247 0
M  V30 520 C 47.6301 -4.16846 -3.12872 0
M  V30 521 C 44.9581 -4.97127 -3.1158 0
M  V30 522 C 47.3101 -5.5214 -3.08746 0
M  V30 523 C 45.9741 -5.92419 -3.07565 0
M  V30 524 H 45.2441 -0.384738 -0.633291 0
M  V30 525 H 47.8911 -1.5235 -1.16025 0
M  V30 526 H 46.1961 -1.16133 -3.74193 0
M  V30 527 H 47.8931 -1.55023 -3.69823 0
M  V30 528 H 44.4831 -2.88344 -3.17105 0
M  V30 529 H 48.6671 -3.86263 -3.11632 0
M  V30 530 H 43.9231 -5.27562 -3.09012 0
M  V30 531 H 48.0971 -6.26201 -3.04705 0
M  V30 532 H 45.7241 -6.97236 -3.02929 0
M  V30 533 N 47.2992 1.18797 -1.03562 0
M  V30 534 C 48.5272 1.92599 -0.755869 0
M  V30 535 C 48.9422 1.75886 0.686271 0
M  V30 536 O 48.2992 1.08517 1.46732 0
M  V30 537 C 48.3502 3.44159 -1.10619 0
M  V30 538 O 48.0712 3.60341 -2.4917 0
M  V30 539 C 49.5722 4.3507 -0.850214 0
M  V30 540 H 46.7922 0.611587 -0.276048 0
M  V30 541 H 49.3362 1.50742 -1.38192 0
M  V30 542 H 47.4912 3.83823 -0.525194 0
M  V30 543 H 47.9052 4.54128 -2.62427 0
M  V30 544 H 49.3792 5.39989 -1.14523 0
M  V30 545 H 49.8562 4.38673 0.215176 0
M  V30 546 H 50.4622 4.01097 -1.41426 0
M  V30 547 N 48.7773 0.814389 1.34928 0
M  V30 548 C 50.0253 0.397636 1.9815 0
M  V30 549 C 50.3463 -1.04069 1.64908 0
M  V30 550 O 49.6163 -1.72121 0.93548 0
M  V30 551 H 48.1963 0.144043 0.732981 0
M  V30 552 H 50.8583 1.04195 1.6471 0
M  V30 553 H 49.9543 0.509688 3.0791 0
M  V30 554 N 50.2554 -1.46986 0.568584 0
M  V30 555 C 51.1854 -2.32946 -0.160753 0
M  V30 556 C 52.1664 -1.44487 -0.897631 0
M  V30 557 O 53.3514 -1.73327 -0.875867 0
M  V30 558 C 50.4814 -3.26494 -1.18403 0
M  V30 559 C 49.4354 -4.24282 -0.562895 0
M  V30 560 C 48.7614 -5.07236 -1.69163 0
M  V30 561 C 50.0614 -5.19989 0.490761 0
M  V30 562 H 51.7554 -2.94175 0.556916 0
M  V30 563 H 49.3014 -1.4146 0.26927 0
M  V30 564 H 51.2544 -3.85477 -1.70251 0
M  V30 565 H 49.9784 -2.63343 -1.93179 0
M  V30 566 H 48.6374 -3.66541 -0.0656164 0
M  V30 567 H 48.2854 -4.4048 -2.42871 0
M  V30 568 H 47.9854 -5.7345 -1.28174 0
M  V30 569 H 49.5094 -5.6908 -2.21314 0
M  V30 570 H 50.9234 -5.73271 0.0579047 0
M  V30 571 H 49.3204 -5.94469 0.820165 0
M  V30 572 H 50.3904 -4.64777 1.3824 0
M  V30 573 N 51.7335 -0.305618 -1.54608 0
M  V30 574 C 53.1445 0.186098 -1.8577 0
M  V30 575 C 53.4955 1.53058 -1.22751 0
M  V30 576 O 52.6205 2.09888 -0.526893 0
M  V30 577 C 53.2155 0.344449 -3.37044 0
M  V30 578 C 51.7745 0.780384 -3.68221 0
M  V30 579 C 50.9215 -0.108554 -2.77087 0
M  V30 580 H 53.8725 -0.526485 -1.49712 0
M  V30 581 H 53.8935 1.17828 -3.61796 0
M  V30 582 H 53.4055 -0.634235 -3.82883 0
M  V30 583 H 51.5065 1.76945 -3.27904 0
M  V30 584 H 51.6195 0.596572 -4.75371 0
M  V30 585 H 49.9835 0.412931 -2.5133 0
M  V30 586 H 50.7665 -1.08368 -3.25747 0
M  V30 587 N 53.2116 1.57565 -0.0334293 0
M  V30 588 C 54.1436 2.0739 0.975811 0
M  V30 589 C 55.1566 0.998166 1.2861 0
M  V30 590 O 56.3456 1.27426 1.25 0
M  V30 591 C 53.4456 2.4871 2.30209 0
M  V30 592 C 52.6186 3.79413 2.17634 0
M  V30 593 C 51.6776 4.07237 3.33233 0
M  V30 594 O 50.7036 4.77425 3.09927 0
M  V30 595 N 51.9056 3.5775 4.5716 0
M  V30 596 H 54.6706 2.94598 0.55066 0
M  V30 597 H 52.2316 1.61173 0.15323 0
M  V30 598 H 54.2236 2.64413 3.06378 0
M  V30 599 H 52.7936 1.66845 2.64351 0
M  V30 600 H 52.0136 3.73465 1.26165 0
M  V30 601 H 53.3016 4.65038 2.0644 0
M  V30 602 H 52.6996 3.00976 4.78989 0
M  V30 603 H 51.2566 3.78724 5.30482 0
M  V30 604 N 54.6897 -0.239769 1.55765 0
M  V30 605 C 55.6217 -1.32001 1.87372 0
M  V30 606 C 56.6347 -1.43944 0.760522 0
M  V30 607 O 57.8237 -1.45167 1.0387 0
M  V30 608 C 54.9237 -2.69779 2.05115 0
M  V30 609 C 54.0967 -2.80014 3.36022 0
M  V30 610 C 53.1557 -3.98684 3.4342 0
M  V30 611 O 52.1817 -3.87877 4.16582 0
M  V30 612 N 53.3837 -5.12176 2.73232 0
M  V30 613 H 56.1487 -1.0522 2.80622 0
M  V30 614 H 53.7097 -0.429857 1.56089 0
M  V30 615 H 55.7017 -3.47517 2.07399 0
M  V30 616 H 54.2717 -2.89237 1.18577 0
M  V30 617 H 53.4917 -1.88896 3.45994 0
M  V30 618 H 54.7797 -2.83808 4.22292 0
M  V30 619 H 54.1777 -5.2385 2.13536 0
M  V30 620 H 52.7347 -5.88022 2.81199 0
M  V30 621 N 56.1678 -1.49265 -0.50573 0
M  V30 622 C 57.4138 -1.59723 -1.25937 0
M  V30 623 C 57.7688 -0.278236 -1.90378 0
M  V30 624 O 57.0618 0.72113 -1.77511 0
M  V30 625 C 57.2558 -2.69008 -2.35308 0
M  V30 626 C 57.0848 -4.11405 -1.81592 0
M  V30 627 C 55.8548 -4.78252 -1.63105 0
M  V30 628 C 58.0528 -4.96792 -1.33048 0
M  V30 629 N 56.0348 -6.0498 -1.04269 0
M  V30 630 C 57.4058 -6.13962 -0.863168 0
M  V30 631 C 59.4608 -4.82828 -1.21577 0
M  V30 632 C 58.1638 -7.18705 -0.292489 0
M  V30 633 C 60.1898 -5.87716 -0.65907 0
M  V30 634 C 59.5518 -7.0411 -0.201954 0
M  V30 635 H 55.6508 -0.638864 -0.450973 0
M  V30 636 H 58.2348 -1.86251 -0.567326 0
M  V30 637 H 56.4058 -2.4426 -3.01979 0
M  V30 638 H 58.1378 -2.69013 -3.02348 0
M  V30 639 H 54.8928 -4.34974 -1.87336 0
M  V30 640 H 55.3168 -6.72631 -0.767919 0
M  V30 641 H 59.9588 -3.93159 -1.55518 0
M  V30 642 H 57.6768 -8.08078 0.0591987 0
M  V30 643 H 61.2628 -5.7897 -0.573156 0
M  V30 644 H 60.1428 -7.83885 0.222101 0
M  V30 645 N 57.6459 0.756429 -1.3826 0
M  V30 646 C 58.5959 1.86069 -1.31766 0
M  V30 647 C 59.5799 1.59621 -0.202483 0
M  V30 648 O 60.7719 1.7149 -0.438211 0
M  V30 649 C 57.9009 3.23742 -1.1422 0
M  V30 650 C 56.9869 3.56091 -2.30348 0
M  V30 651 N 57.3779 3.59517 -3.55783 0
M  V30 652 C 55.6759 3.86341 -2.22838 0
M  V30 653 C 56.3769 3.89052 -4.32451 0
M  V30 654 N 55.3529 4.05736 -3.61772 0
M  V30 655 H 59.1549 1.86992 -2.26741 0
M  V30 656 H 56.6689 0.953643 -1.31451 0
M  V30 657 H 58.6659 4.02761 -1.07652 0
M  V30 658 H 57.3259 3.24073 -0.201763 0
M  V30 659 H 58.3369 3.41347 -3.89491 0
M  V30 660 H 55.0139 3.94404 -1.36937 0
M  V30 661 H 56.4039 3.98349 -5.4108 0
M  V30 662 N 59.124 1.23083 0.984299 0
M  V30 663 C 60.349 1.088 1.76571 0
M  V30 664 C 60.774 -0.356657 1.84688 0
M  V30 665 O 60.132 -1.25788 1.30565 0
M  V30 666 C 60.18 1.71371 3.17277 0
M  V30 667 O 59.284 0.973213 4.00752 0
M  V30 668 H 58.625 0.381599 0.543395 0
M  V30 669 H 61.155 1.63057 1.23587 0
M  V30 670 H 61.165 1.76449 3.67872 0
M  V30 671 H 59.84 2.76493 3.10684 0
M  V30 672 H 58.417 0.999078 3.59267 0
M  V30 673 N 60.6021 -1.18246 1.0419 0
M  V30 674 C 61.5321 -2.24127 0.654914 0
M  V30 675 C 62.5131 -1.66617 -0.342451 0
M  V30 676 O 63.6981 -1.92924 -0.222277 0
M  V30 677 C 60.8281 -3.47295 0.0183757 0
M  V30 678 C 59.7821 -4.17563 0.939414 0
M  V30 679 C 59.1081 -5.34438 0.167286 0
M  V30 680 C 60.4081 -4.70917 2.25908 0
M  V30 681 H 62.1021 -2.56753 1.54007 0
M  V30 682 H 59.6481 -1.23414 0.74195 0
M  V30 683 H 61.6011 -4.20572 -0.264082 0
M  V30 684 H 60.3251 -3.13907 -0.901664 0
M  V30 685 H 58.9841 -3.46186 1.20628 0
M  V30 686 H 58.6321 -4.97298 -0.7552 0
M  V30 687 H 58.3321 -5.82388 0.780901 0
M  V30 688 H 59.8561 -6.10504 -0.108125 0
M  V30 689 H 61.2701 -5.35882 2.03724 0
M  V30 690 H 59.6671 -5.29406 2.82577 0
M  V30 691 H 60.7371 -3.88272 2.9047 0
M  V30 692 N 62.0802 -0.821533 -1.34494 0
M  V30 693 C 63.0102 -0.257138 -2.3208 0
M  V30 694 C 63.9912 0.625645 -1.58176 0
M  V30 695 O 65.1762 0.552811 -1.86166 0
M  V30 696 C 62.3062 0.582958 -3.42372 0
M  V30 697 C 61.2602 -0.202571 -4.2752 0
M  V30 698 C 60.5862 0.760179 -5.29269 0
M  V30 699 C 61.8862 -1.40998 -5.02908 0
M  V30 700 H 63.5802 -1.07247 -2.79532 0
M  V30 701 H 61.1262 -0.517163 -1.34393 0
M  V30 702 H 63.0792 0.987972 -4.09655 0
M  V30 703 H 61.8032 1.43133 -2.93565 0
M  V30 704 H 60.4622 -0.588936 -3.61838 0
M  V30 705 H 60.1102 1.60447 -4.76724 0
M  V30 706 H 59.8102 0.238809 -5.87115 0
M  V30 707 H 61.3342 1.16308 -5.9942 0
M  V30 708 H 62.7482 -1.07905 -5.63054 0
M  V30 709 H 61.1452 -1.86689 -5.70322 0
M  V30 710 H 62.2152 -2.1889 -4.32684 0
M  V30 711 N 63.5583 1.46682 -0.576371 0
M  V30 712 C 64.5213 2.28707 0.150239 0
M  V30 713 C 65.5213 1.38035 0.824794 0
M  V30 714 O 66.7113 1.60476 0.677719 0
M  V30 715 C 63.8433 3.18248 1.22192 0
M  V30 716 H 65.0363 2.94423 -0.570521 0
M  V30 717 H 62.5893 1.52688 -0.334078 0
M  V30 718 H 63.3243 2.57265 1.97447 0
M  V30 719 H 63.1093 3.85 0.742812 0
M  V30 720 H 64.5993 3.80001 1.73172 0
M  V30 721 N 65.0364 0.313813 1.54444 0
M  V30 722 C 66.3134 -0.345447 1.92525 0
M  V30 723 C 66.6934 -1.70667 1.24242 0
M  V30 724 O 66.0414 -2.25273 0.382654 0
M  V30 725 C 66.2514 -0.44737 3.46121 0
M  V30 726 C 67.5994 -0.712238 4.18584 0
M  V30 727 O 68.6234 -0.530678 3.52225 0
M  V30 728 O 67.4824 -1.06183 5.36085 0
M  V30 729 H 64.5764 -0.195407 0.803583 0
M  V30 730 H 67.1224 0.362813 1.65776 0
M  V30 731 H 65.8944 0.509043 3.87975 0
M  V30 732 H 65.5174 -1.20359 3.78945 0
M  V30 733 N 66.5145 -1.57545 0.0417849 0
M  V30 734 C 67.7425 -1.96624 -0.643928 0
M  V30 735 C 68.1575 -0.918897 -1.64929 0
M  V30 736 O 67.5145 0.0979323 -1.82237 0
M  V30 737 C 67.5655 -3.35781 -1.33914 0
M  V30 738 O 67.2865 -4.365 -0.374048 0
M  V30 739 C 68.7875 -3.89566 -2.1155 0
M  V30 740 H 66.0075 -0.647316 -0.176702 0
M  V30 741 H 68.5515 -2.04229 0.105304 0
M  V30 742 H 66.7065 -3.29357 -2.03968 0
M  V30 743 H 67.1205 -5.17248 -0.869179 0
M  V30 744 H 68.5945 -4.89242 -2.55628 0
M  V30 745 H 69.0715 -3.24488 -2.9598 0
M  V30 746 H 69.6775 -3.99298 -1.46427 0
M  V30 747 N 67.9926 0.231505 -1.5589 0
M  V30 748 C 68.9556 1.27028 -1.90779 0
M  V30 749 C 69.9556 1.40308 -0.785507 0
M  V30 750 O 71.1456 1.38744 -1.05336 0
M  V30 751 C 68.2776 2.64566 -2.14983 0
M  V30 752 H 69.4706 0.973017 -2.83677 0
M  V30 753 H 67.0236 0.471486 -1.49019 0
M  V30 754 H 67.7586 2.99406 -1.24604 0
M  V30 755 H 67.5436 2.56305 -2.96732 0
M  V30 756 H 69.0336 3.39543 -2.43105 0
M  V30 757 N 69.4707 1.49531 0.497807 0
M  V30 758 C 70.4187 1.66926 1.61983 0
M  V30 759 C 71.4127 0.535167 1.60724 0
M  V30 760 O 72.6187 0.714896 1.65195 0
M  V30 761 H 68.9937 0.526415 0.537021 0
M  V30 762 H 70.9647 2.61098 1.44465 0
M  V30 763 C 69.7137 1.75602 3.00099 0
M  V30 764 H 69.0367 2.62244 3.01775 0
M  V30 765 H 70.4767 1.91807 3.78135 0
M  V30 766 C 68.9357 0.501543 3.33146 0
M  V30 767 O 69.4657 -0.371342 3.9998 0
M  V30 768 N 67.6717 0.363531 2.88317 0
M  V30 769 H 67.2187 1.07485 2.34104 0
M  V30 770 H 67.1767 -0.474728 3.10795 0
M  V30 771 N 70.9488 -0.749086 1.3866 0
M  V30 772 C 72.3648 -1.05276 1.19955 0
M  V30 773 C 72.5648 -2.01435 0.05134 0
M  V30 774 O 71.6208 -2.45232 -0.60147 0
M  V30 775 C 72.9338 -1.62853 2.52783 0
M  V30 776 C 74.4818 -1.75002 2.59506 0
M  V30 777 C 74.9568 -2.35991 3.92521 0
M  V30 778 N 76.4478 -2.43416 3.94085 0
M  V30 779 C 77.1828 -2.91511 4.9377 0
M  V30 780 N 76.6788 -3.39608 6.03853 0
M  V30 781 N 78.4718 -2.90592 4.81157 0
M  V30 782 H 70.6228 -0.111066 2.12109 0
M  V30 783 H 72.8858 -0.111901 0.941373 0
M  V30 784 H 72.5918 -0.99664 3.37283 0
M  V30 785 H 72.4658 -2.61854 2.715 0
M  V30 786 H 74.8528 -2.37317 1.75398 0
M  V30 787 H 74.9338 -0.74693 2.44652 0
M  V30 788 H 74.5778 -1.74308 4.77053 0
M  V30 789 H 74.5078 -3.3695 4.04688 0
M  V30 790 H 76.9988 -2.09405 3.14576 0
M  V30 791 H 77.3118 -3.74775 6.75843 0
M  V30 792 H 75.6568 -3.37653 6.07466 0
M  V30 793 H 78.8478 -2.52332 3.94267 0
M  V30 794 H 79.0208 -3.27762 5.58996 0
M  V30 795 N 72.4269 -1.23603 -0.977757 0
M  V30 796 C 73.8379 -1.06424 -1.53398 0
M  V30 797 C 74.1889 0.367578 -1.92726 0
M  V30 798 O 73.3139 1.25465 -1.76316 0
M  V30 799 C 73.9089 -1.92568 -2.78753 0
M  V30 800 C 72.4679 -1.79642 -3.30765 0
M  V30 801 C 71.6149 -1.88111 -2.03739 0
M  V30 802 H 74.5659 -1.37227 -0.797152 0
M  V30 803 H 74.5869 -1.45203 -3.51705 0
M  V30 804 H 74.0989 -2.96771 -2.50098 0
M  V30 805 H 72.1999 -0.782325 -3.64294 0
M  V30 806 H 72.3129 -2.63174 -4.00345 0
M  V30 807 H 70.6769 -1.31723 -2.17994 0
M  V30 808 H 71.4599 -2.93875 -1.77461 0
M  V30 809 N 73.905 1.17692 -1.04816 0
M  V30 810 C 74.852 2.21581 -0.645797 0
M  V30 811 C 75.822 1.62367 0.350159 0
M  V30 812 O 77.007 1.89254 0.242433 0
M  V30 813 C 74.147 3.45092 -0.0227568 0
M  V30 814 C 73.26 4.18613 -1.06709 0
M  V30 815 C 72.395 5.29602 -0.411767 0
M  V30 816 C 71.434 5.94904 -1.44067 0
M  V30 817 N 70.571 6.97414 -0.809781 0
M  V30 818 H 75.411 2.55353 -1.5362 0
M  V30 819 H 72.948 1.25438 -0.768364 0
M  V30 820 H 74.906 4.15679 0.35588 0
M  V30 821 H 73.536 3.11917 0.831122 0
M  V30 822 H 72.588 3.46779 -1.5636 0
M  V30 823 H 73.9 4.63293 -1.84827 0
M  V30 824 H 73.054 6.06696 0.0206623 0
M  V30 825 H 71.793 4.86045 0.401438 0
M  V30 826 H 70.798 5.16544 -1.88316 0
M  V30 827 H 72.023 6.40542 -2.25571 0
M  V30 828 H 69.969 6.55998 -0.0170186 0
M  V30 829 H 69.886 7.40386 -1.52856 0
M  V30 830 H 71.154 7.78463 -0.401999 0
M  V30 831 N 75.3831 0.828654 1.34056 0
M  V30 832 C 76.7941 0.477534 1.8049 0
M  V30 833 C 77.1451 -1.00258 1.6865 0
M  V30 834 O 76.2701 -1.78057 1.22982 0
M  V30 835 C 76.8651 0.860018 3.27703 0
M  V30 836 C 75.4241 0.561185 3.72193 0
M  V30 837 C 74.5711 1.07385 2.55663 0
M  V30 838 H 77.5221 1.0183 1.21722 0
M  V30 839 H 77.5431 0.166038 3.80138 0
M  V30 840 H 77.0551 1.93731 3.36288 0
M  V30 841 H 75.1561 -0.506465 3.69142 0
M  V30 842 H 75.2691 1.10926 4.66082 0
M  V30 843 H 73.6331 0.495149 2.49841 0
M  V30 844 H 74.4161 2.15771 2.67016 0
M  V30 845 N 76.8612 -1.46375 0.584142 0
M  V30 846 C 77.7942 -2.27351 -0.196676 0
M  V30 847 C 78.7722 -1.35715 -0.895561 0
M  V30 848 O 79.9562 -1.65126 -0.90916 0
M  V30 849 C 77.0832 -3.13486 -1.28235 0
M  V30 850 C 76.1292 -4.20896 -0.689145 0
M  V30 851 S 76.9622 -5.33299 0.48507 0
M  V30 852 C 78.1182 -6.23 -0.601767 0
M  V30 853 H 78.3512 -2.93228 0.490395 0
M  V30 854 H 75.8842 -1.49875 0.371071 0
M  V30 855 H 77.8422 -3.63676 -1.90395 0
M  V30 856 H 76.5032 -2.4692 -1.94138 0
M  V30 857 H 75.6962 -4.80997 -1.50527 0
M  V30 858 H 75.2982 -3.73726 -0.143181 0
M  V30 859 H 77.5902 -6.60979 -1.48705 0
M  V30 860 H 78.5332 -7.0809 -0.0374799 0
M  V30 861 H 78.9412 -5.57173 -0.906557 0
M  V30 862 N 78.3393 -0.321999 -1.54275 0
M  V30 863 C 79.5853 0.281461 -2.00837 0
M  V30 864 C 79.9183 1.51909 -1.20985 0
M  V30 865 O 79.1933 1.923 -0.291733 0
M  V30 866 C 79.4763 0.617162 -3.54772 0
M  V30 867 C 79.3293 -0.631064 -4.45351 0
M  V30 868 C 80.6483 1.43542 -4.16033 0
M  V30 869 H 77.7673 0.100826 -0.730071 0
M  V30 870 H 80.4093 -0.438268 -1.84876 0
M  V30 871 H 78.5593 1.23034 -3.68504 0
M  V30 872 H 80.2313 -1.26934 -4.43492 0
M  V30 873 H 78.4743 -1.26025 -4.15091 0
M  V30 874 H 79.1453 -0.351735 -5.50878 0
M  V30 875 H 81.6213 0.917134 -4.05867 0
M  V30 876 H 80.4973 1.63907 -5.23856 0
M  V30 877 H 80.7583 2.43108 -3.69257 0
M  V30 878 N 79.8174 1.5752 -0.0501392 0
M  V30 879 C 81.0944 1.83996 0.663685 0
M  V30 880 C 81.4744 0.938339 1.89099 0
M  V30 881 O 80.8224 -0.00087759 2.285 0
M  V30 882 C 81.0324 3.33702 1.02196 0
M  V30 883 C 82.3804 4.00691 1.40469 0
M  V30 884 O 83.4044 3.38321 1.11433 0
M  V30 885 O 82.2634 5.10658 1.94654 0
M  V30 886 H 79.3574 0.759385 0.32751 0
M  V30 887 H 81.9034 1.69514 -0.0794238 0
M  V30 888 H 80.6754 3.91015 0.149364 0
M  V30 889 H 80.2984 3.53368 1.82255 0
M  V30 890 N 81.2955 -0.223234 1.56011 0
M  V30 891 C 82.7065 -0.790368 1.69145 0
M  V30 892 C 83.0575 -1.85055 0.651845 0
M  V30 893 O 82.1825 -2.15498 -0.197359 0
M  V30 894 C 82.7775 -1.4404 3.06656 0
M  V30 895 C 81.3365 -1.95494 3.2165 0
M  V30 896 C 80.4835 -0.814506 2.65068 0
M  V30 897 H 83.4345 0.00139011 1.587 0
M  V30 898 H 83.4555 -2.30916 3.0242 0
M  V30 899 H 82.9675 -0.668543 3.82298 0
M  V30 900 H 81.0685 -2.75487 2.50874 0
M  V30 901 H 81.1815 -2.13607 4.28846 0
M  V30 902 H 79.5455 -1.22137 2.23505 0
M  V30 903 H 80.3285 -0.0553515 3.43255 0
M  V30 904 N 82.7736 -1.49793 -0.48987 0
M  V30 905 C 83.9986 -1.63836 -1.27172 0
M  V30 906 C 84.4236 -0.31402 -1.8546 0
M  V30 907 O 83.7816 0.719803 -1.66399 0
M  V30 908 C 83.8296 -2.71797 -2.36978 0
M  V30 909 O 82.9336 -2.31744 -3.41128 0
M  V30 910 H 82.2746 -0.547997 -0.37496 0
M  V30 911 H 84.8046 -1.96053 -0.585191 0
M  V30 912 H 84.8146 -2.94305 -2.82575 0
M  V30 913 H 83.4896 -3.67923 -1.93921 0
M  V30 914 H 82.0666 -2.1961 -3.01373 0
M  V30 915 N 84.2517 0.741722 -1.39055 0
M  V30 916 C 85.4917 1.51385 -1.37338 0
M  V30 917 C 85.8557 1.91972 0.0330513 0
M  V30 918 O 87.0567 2.68229 0.175174 0
M  V30 919 C 85.3277 2.72481 -2.31276 0
M  V30 920 S 86.8867 3.62211 -2.47687 0
M  V30 921 H 83.7047 0.517906 -0.487129 0
M  V30 922 H 86.3067 0.86969 -1.7509 0
M  V30 923 H 85.0107 2.40793 -3.32336 0
M  V30 924 H 84.5417 3.41832 -1.94716 0
M  V30 925 H 86.5567 4.65812 -1.70978 0
M  V30 926 N 85.7298 1.2412 0.971189 0
M  V30 927 C 86.9788 1.07284 1.70801 0
M  V30 928 C 87.2918 -0.388902 1.91695 0
M  V30 929 O 88.4978 -0.677379 2.62914 0
M  V30 930 C 86.9538 1.87145 3.07416 0
M  V30 931 C 86.5618 3.37707 2.94377 0
M  V30 932 C 88.3058 1.78828 3.84995 0
M  V30 933 C 86.2128 4.09925 4.26281 0
M  V30 934 H 85.1428 0.397854 0.64049 0
M  V30 935 H 87.7938 1.4817 1.0825 0
M  V30 936 H 86.1758 1.39071 3.70777 0
M  V30 937 H 87.3498 3.93335 2.4005 0
M  V30 938 H 85.6648 3.46938 2.30267 0
M  V30 939 H 88.2618 2.30089 4.82662 0
M  V30 940 H 88.6048 0.75284 4.09436 0
M  V30 941 H 89.1378 2.24563 3.28354 0
M  V30 942 H 85.8768 5.13813 4.07033 0
M  V30 943 H 85.3968 3.59083 4.80437 0
M  V30 944 H 87.0758 4.1673 4.94919 0
M  V30 945 N 87.2079 -1.17134 1.05439 0
M  V30 946 C 88.4359 -1.91372 0.786414 0
M  V30 947 C 88.8509 -1.76955 -0.658202 0
M  V30 948 O 88.2079 -1.10838 -1.44987 0
M  V30 949 C 88.2589 -3.42356 1.1608 0
M  V30 950 O 87.9799 -3.56332 2.54871 0
M  V30 951 C 89.4809 -4.33663 0.919322 0
M  V30 952 H 86.7009 -0.607118 0.285743 0
M  V30 953 H 89.2449 -1.48525 1.40572 0
M  V30 954 H 87.3999 -3.82939 0.586191 0
M  V30 955 H 87.8139 -4.49896 2.69618 0
M  V30 956 H 89.2879 -5.38099 1.231 0
M  V30 957 H 89.7649 -4.38959 -0.145359 0
M  V30 958 H 90.3709 -3.98796 1.47789 0
M  V30 959 N 88.686 -0.835752 -1.33615 0
M  V30 960 C 90.097 -0.487099 -1.80234 0
M  V30 961 C 90.448 0.993627 -1.69179 0
M  V30 962 O 89.573 1.77403 -1.23924 0
M  V30 963 C 90.168 -0.877385 -3.27242 0
M  V30 964 C 88.727 -0.580915 -3.7189 0
M  V30 965 C 87.874 -1.0874 -2.5509 0
M  V30 966 H 90.825 -1.02474 -1.2118 0
M  V30 967 H 90.846 -0.186195 -3.80044 0
M  V30 968 H 90.358 -1.95512 -3.35256 0
M  V30 969 H 88.459 0.486881 -3.69405 0
M  V30 970 H 88.572 -1.13396 -4.65487 0
M  V30 971 H 86.936 -0.508392 -2.49575 0
M  V30 972 H 87.719 -2.17184 -2.65868 0
M  V30 973 N 90.1641 1.46063 -0.591896 0
M  V30 974 C 91.4131 2.01547 -0.0786637 0
M  V30 975 C 91.7261 1.46796 1.29268 0
M  V30 976 O 92.9321 1.94157 1.89777 0
M  V30 977 C 91.3881 3.59787 -0.0900024 0
M  V30 978 C 90.9961 4.23534 -1.46023 0
M  V30 979 C 92.7401 4.22895 0.368806 0
M  V30 980 C 90.6471 5.73881 -1.4288 0
M  V30 981 H 89.5771 0.753564 -0.0256388 0
M  V30 982 H 92.2281 1.677 -0.744905 0
M  V30 983 H 90.6101 3.90752 0.642586 0
M  V30 984 H 91.7841 4.04167 -2.21328 0
M  V30 985 H 90.0991 3.72558 -1.85982 0
M  V30 986 H 92.6961 5.33116 0.411258 0
M  V30 987 H 93.0391 3.9247 1.38827 0
M  V30 988 H 93.5721 3.9659 -0.31001 0
M  V30 989 H 90.3111 6.0898 -2.42536 0
M  V30 990 H 89.8311 5.95486 -0.718095 0
M  V30 991 H 91.5101 6.36776 -1.14565 0
M  V30 992 N 91.6422 0.330177 1.54103 0
M  V30 993 C 92.5742 -0.566902 2.22079 0
M  V30 994 C 93.5872 -1.07462 1.22294 0
M  V30 995 O 94.7762 -0.987065 1.48726 0
M  V30 996 C 91.8762 -1.79138 2.87685 0
M  V30 997 C 91.0492 -1.42123 4.13666 0
M  V30 998 C 90.1082 -2.50394 4.62806 0
M  V30 999 O 89.1342 -2.14261 5.27334 0
M  V30 1000 N 90.3362 -3.81433 4.37595 0
M  V30 1001 H 93.1012 0.0151844 2.99696 0
M  V30 1002 H 90.6622 0.153681 1.61169 0
M  V30 1003 H 92.6542 -2.50975 3.1748 0
M  V30 1004 H 91.2242 -2.28115 2.13734 0
M  V30 1005 H 90.4442 -0.534201 3.90564 0
M  V30 1006 H 91.7322 -1.14971 4.9564 0
M  V30 1007 H 91.1302 -4.13584 3.8596 0
M  V30 1008 H 89.6872 -4.4948 4.72029 0
M  V30 1009 N 93.1203 -1.57491 0.0584922 0
M  V30 1010 C 94.0503 -2.14988 -0.911178 0
M  V30 1011 C 95.0313 -1.07343 -1.31952 0
M  V30 1012 O 96.2163 -1.35318 -1.39294 0
M  V30 1013 C 93.3463 -2.70078 -2.18347 0
M  V30 1014 C 92.3003 -3.82771 -1.91495 0
M  V30 1015 C 91.6263 -4.24408 -3.25241 0
M  V30 1016 C 92.9263 -5.07592 -1.23075 0
M  V30 1017 H 94.6203 -2.96263 -0.432246 0
M  V30 1018 H 92.1663 -1.42512 -0.206469 0
M  V30 1019 H 94.1193 -3.08943 -2.86587 0
M  V30 1020 H 92.8433 -1.86005 -2.68458 0
M  V30 1021 H 91.5023 -3.44389 -1.25664 0
M  V30 1022 H 91.1503 -3.37275 -3.73168 0
M  V30 1023 H 90.8503 -5.00366 -3.08071 0
M  V30 1024 H 92.3743 -4.65879 -3.94701 0
M  V30 1025 H 93.7883 -5.43857 -1.81362 0
M  V30 1026 H 92.1853 -5.88741 -1.16207 0
M  V30 1027 H 93.2553 -4.84454 -0.207847 0
M  V30 1028 N 94.5984 0.214957 -1.56127 0
M  V30 1029 C 95.5614 1.24997 -1.92116 0
M  V30 1030 C 96.5614 1.39467 -0.800344 0
M  V30 1031 O 97.7514 1.37619 -1.06802 0
M  V30 1032 C 94.8834 2.62271 -2.17777 0
M  V30 1033 H 96.0764 0.942875 -2.84693 0
M  V30 1034 H 93.6294 0.455654 -1.49511 0
M  V30 1035 H 94.3644 2.98068 -1.27773 0
M  V30 1036 H 94.1494 2.53143 -2.99434 0
M  V30 1037 H 95.6394 3.36946 -2.46693 0
M  V30 1038 N 96.0765 1.50051 0.48192 0
M  V30 1039 C 97.4875 1.5348 1.06305 0
M  V30 1040 C 97.8385 0.331997 1.93371 0
M  V30 1041 O 96.9635 -0.556256 2.09129 0
M  V30 1042 C 97.5585 2.7813 1.93466 0
M  V30 1043 C 96.1175 2.84275 2.46707 0
M  V30 1044 C 95.2645 2.47637 1.24785 0
M  V30 1045 H 98.2155 1.56472 0.264995 0
M  V30 1046 H 98.2365 2.59372 2.78399 0
M  V30 1047 H 97.7485 3.65654 1.30072 0
M  V30 1048 H 95.8495 2.01077 3.13686 0
M  V30 1049 H 95.9625 3.8691 2.82555 0
M  V30 1050 H 94.3265 1.99835 1.57918 0
M  V30 1051 H 95.1095 3.37457 0.630694 0
M  V30 1052 N 97.5546 -0.734337 1.39446 0
M  V30 1053 C 98.4876 -1.85715 1.32609 0
M  V30 1054 C 99.4656 -1.6137 0.199636 0
M  V30 1055 O 100.65 -1.84626 0.380195 0
M  V30 1056 C 97.7766 -3.21709 1.05929 0
M  V30 1057 C 96.8226 -3.64913 2.20773 0
M  V30 1058 S 97.6556 -3.74203 3.83056 0
M  V30 1059 C 98.8116 -5.12986 3.58603 0
M  V30 1060 H 99.0446 -1.91232 2.27635 0
M  V30 1061 H 96.5776 -0.899263 1.25509 0
M  V30 1062 H 98.5356 -4.00236 0.912203 0
M  V30 1063 H 97.1966 -3.13848 0.125883 0
M  V30 1064 H 96.3896 -4.63606 1.97699 0
M  V30 1065 H 95.9916 -2.93593 2.31688 0
M  V30 1066 H 98.2836 -5.99339 3.15909 0
M  V30 1067 H 99.2266 -5.41088 4.5676 0
M  V30 1068 H 99.6346 -4.82694 2.9269 0
M  V30 1069 N 99.0327 -1.24633 -0.964593 0
M  V30 1070 C 99.9797 -1.04144 -2.05968 0
M  V30 1071 C 100.95 0.046262 -1.66036 0
M  V30 1072 O 102.135 -0.108972 -1.90489 0
M  V30 1073 C 99.2747 -0.65563 -3.38815 0
M  V30 1074 C 98.3877 -1.81714 -3.91923 0
M  V30 1075 C 97.5227 -1.37662 -5.13052 0
M  V30 1076 C 96.5617 -2.50788 -5.58365 0
M  V30 1077 N 95.6987 -2.07582 -6.70712 0
M  V30 1078 H 100.539 -1.9787 -2.22827 0
M  V30 1079 H 98.0757 -0.9855 -1.09208 0
M  V30 1080 H 100.034 -0.412954 -4.15151 0
M  V30 1081 H 98.6637 0.244627 -3.21872 0
M  V30 1082 H 97.7157 -2.1734 -3.12198 0
M  V30 1083 H 99.0277 -2.66705 -4.21509 0
M  V30 1084 H 98.1817 -1.093 -5.96773 0
M  V30 1085 H 96.9207 -0.497293 -4.85158 0
M  V30 1086 H 95.9257 -2.79906 -4.73215 0
M  V30 1087 H 97.1507 -3.39283 -5.88272 0
M  V30 1088 H 95.0967 -1.22051 -6.44546 0
M  V30 1089 H 95.0137 -2.86125 -6.99763 0
M  V30 1090 H 96.2817 -1.82369 -7.57867 0
M  V30 1091 N 100.511 1.16574 -1.06058 0
M  V30 1092 C 101.739 1.90952 -0.796552 0
M  V30 1093 C 102.154 1.77302 0.648808 0
M  V30 1094 O 101.511 1.11605 1.44397 0
M  V30 1095 C 101.562 3.41736 -1.17894 0
M  V30 1096 O 101.283 3.54975 -2.56758 0
M  V30 1097 C 102.784 4.33169 -0.942308 0
M  V30 1098 H 100.004 0.605594 -0.288959 0
M  V30 1099 H 102.548 1.47777 -1.41358 0
M  V30 1100 H 100.703 3.82623 -0.606491 0
M  V30 1101 H 101.117 4.4846 -2.72 0
M  V30 1102 H 102.591 5.37439 -1.25952 0
M  V30 1103 H 103.068 4.3903 0.122078 0
M  V30 1104 H 103.674 3.98007 -1.49902 0
M  V30 1105 N 101.989 0.842826 1.3317 0
M  V30 1106 C 103.238 0.436738 1.96915 0
M  V30 1107 C 103.551 -1.01025 1.67491 0
M  V30 1108 O 104.757 -1.5212 2.24881 0
M  V30 1109 C 103.213 0.730021 3.52418 0
M  V30 1110 C 102.821 2.19195 3.90714 0
M  V30 1111 C 104.565 0.391076 4.22695 0
M  V30 1112 C 102.472 2.42907 5.39212 0
M  V30 1113 H 101.402 0.15958 0.736919 0
M  V30 1114 H 104.053 1.03196 1.51733 0
M  V30 1115 H 102.435 0.0643755 3.95948 0
M  V30 1116 H 103.609 2.8984 3.58231 0
M  V30 1117 H 101.924 2.49425 3.33431 0
M  V30 1118 H 104.521 0.545817 5.31907 0
M  V30 1119 H 104.864 -0.666294 4.10933 0
M  V30 1120 H 105.397 1.01212 3.84709 0
M  V30 1121 H 102.136 3.47224 5.55982 0
M  V30 1122 H 101.656 1.76827 5.73142 0
M  V30 1123 H 103.335 2.2626 6.06148 0
M  V30 1124 N 103.467 -1.45747 0.599634 0
M  V30 1125 C 104.713 -2.02592 0.0918643 0
M  V30 1126 C 105.046 -1.46806 -1.27128 0
M  V30 1127 O 104.321 -0.639658 -1.83681 0
M  V30 1128 C 104.604 -3.60073 0.0443398 0
M  V30 1129 C 104.457 -4.26208 1.43759 0
M  V30 1130 C 105.776 -4.35309 -0.647608 0
M  V30 1131 H 102.895 -0.736175 0.034857 0
M  V30 1132 H 105.537 -1.73694 0.770081 0
M  V30 1133 H 103.687 -3.84823 -0.533224 0
M  V30 1134 H 105.359 -4.12668 2.06162 0
M  V30 1135 H 103.602 -3.84916 2.00056 0
M  V30 1136 H 104.273 -5.35069 1.35665 0
M  V30 1137 H 106.749 -4.15805 -0.156776 0
M  V30 1138 H 105.625 -5.45038 -0.649942 0
M  V30 1139 H 105.886 -4.07598 -1.71219 0
M  V30 1140 N 104.945 -0.338344 -1.53925 0
M  V30 1141 C 106.361 0.0137736 -1.59594 0
M  V30 1142 C 106.561 1.49186 -1.35447 0
M  V30 1143 O 105.617 2.24987 -1.14616 0
M  V30 1144 C 106.93 -0.41773 -2.97784 0
M  V30 1145 C 108.478 -0.369633 -3.1081 0
M  V30 1146 C 108.953 -0.776524 -4.51369 0
M  V30 1147 N 110.444 -0.730506 -4.57403 0
M  V30 1148 C 111.179 -1.01736 -5.64303 0
M  V30 1149 N 110.675 -1.3721 -6.79077 0
M  V30 1150 N 112.468 -0.941942 -5.54151 0
M  V30 1151 H 104.619 -1.3012 -1.67876 0
M  V30 1152 H 106.882 -0.530082 -0.78595 0
M  V30 1153 H 106.588 -1.44811 -3.20504 0
M  V30 1154 H 106.462 0.209729 -3.76616 0
M  V30 1155 H 108.849 0.651568 -2.87817 0
M  V30 1156 H 108.93 -1.03223 -2.34049 0
M  V30 1157 H 108.574 -1.79571 -4.75096 0
M  V30 1158 H 108.504 -0.0914649 -5.26521 0
M  V30 1159 H 110.995 -0.468783 -3.74981 0
M  V30 1160 H 111.308 -1.57597 -7.5656 0
M  V30 1161 H 109.653 -1.4105 -6.80536 0
M  V30 1162 H 112.844 -0.664184 -4.63364 0
M  V30 1163 H 113.017 -1.16884 -6.37371 0
M  V30 1164 N 106.423 1.57458 -0.0668435 0
M  V30 1165 C 107.671 1.92919 0.602214 0
M  V30 1166 C 107.992 0.947215 1.70449 0
M  V30 1167 O 107.262 -0.00544117 1.95899 0
M  V30 1168 H 105.842 0.71217 0.22544 0
M  V30 1169 H 108.504 1.94508 -0.123535 0
M  V30 1170 H 107.6 2.94589 1.03073 0
M  V30 1171 N 107.901 -0.206675 1.56239 0
M  V30 1172 C 108.849 -1.27571 1.94495 0
M  V30 1173 C 109.843 -1.47737 0.828862 0
M  V30 1174 O 111.049 -1.48735 1.0138 0
M  V30 1175 H 107.424 -0.428029 0.6183 0
M  V30 1176 H 109.395 -0.925961 2.8367 0
M  V30 1177 C 108.144 -2.61568 2.29079 0
M  V30 1178 H 107.467 -2.46863 3.14482 0
M  V30 1179 H 108.907 -3.35144 2.5972 0
M  V30 1180 C 107.366 -3.17695 1.12123 0
M  V30 1181 O 107.896 -3.99801 0.390153 0
M  V30 1182 N 106.102 -2.76276 0.901097 0
M  V30 1183 H 105.649 -2.09613 1.49733 0
M  V30 1184 H 105.607 -3.1417 0.120319 0
M  V30 1185 N 109.379 -1.50304 -0.473955 0
M  V30 1186 C 110.326 -1.68959 -1.57231 0
M  V30 1187 C 111.296 -0.530899 -1.57387 0
M  V30 1188 O 112.481 -0.761133 -1.74961 0
M  V30 1189 C 109.621 -1.7871 -2.95223 0
M  V30 1190 C 108.734 -3.06061 -3.04878 0
M  V30 1191 C 107.869 -3.06626 -4.33767 0
M  V30 1192 C 106.908 -4.28443 -4.37154 0
M  V30 1193 N 106.045 -4.26763 -5.5751 0
M  V30 1194 H 110.885 -2.6273 -1.40631 0
M  V30 1195 H 108.422 -1.30241 -0.683789 0
M  V30 1196 H 110.38 -1.82344 -3.75242 0
M  V30 1197 H 109.01 -0.883806 -3.10465 0
M  V30 1198 H 108.062 -3.11911 -2.17751 0
M  V30 1199 H 109.374 -3.96039 -3.0324 0
M  V30 1200 H 108.528 -3.08973 -5.22131 0
M  V30 1201 H 107.267 -2.14473 -4.3801 0
M  V30 1202 H 106.272 -4.2631 -3.47188 0
M  V30 1203 H 107.497 -5.2182 -4.34605 0
M  V30 1204 H 105.443 -3.37462 -5.62544 0
M  V30 1205 H 105.36 -5.10507 -5.57601 0
M  V30 1206 H 106.628 -4.33253 -6.48006 0
M  V30 1207 N 110.857 0.726932 -1.39834 0
M  V30 1208 C 112.268 1.30558 -1.3346 0
M  V30 1209 C 112.619 1.962 -0.00273003 0
M  V30 1210 O 111.744 1.96826 0.899371 0
M  V30 1211 C 112.339 2.37404 -2.41713 0
M  V30 1212 C 110.898 2.90921 -2.38835 0
M  V30 1213 C 110.045 1.64578 -2.2318 0
M  V30 1214 H 112.996 0.523862 -1.49804 0
M  V30 1215 H 113.017 3.17984 -2.08966 0
M  V30 1216 H 112.529 1.89599 -3.38635 0
M  V30 1217 H 110.63 3.42985 -1.45575 0
M  V30 1218 H 110.743 3.43487 -3.33997 0
M  V30 1219 H 109.107 1.89219 -1.70494 0
M  V30 1220 H 109.89 1.18814 -3.22084 0
M  V30 1221 N 112.336 1.25143 0.95797 0
M  V30 1222 C 113.576 1.10893 1.71703 0
M  V30 1223 C 113.94 -0.34478 1.88879 0
M  V30 1224 O 115.141 -0.609014 2.6181 0
M  V30 1225 C 113.412 1.83889 3.06463 0
M  V30 1226 S 114.971 1.85491 3.97666 0
M  V30 1227 H 111.789 0.396428 0.590226 0
M  V30 1228 H 114.391 1.58618 1.14283 0
M  V30 1229 H 113.095 2.88756 2.9163 0
M  V30 1230 H 112.626 1.36538 3.68946 0
M  V30 1231 H 114.641 0.929553 4.87415 0
M  V30 1232 N 113.814 -1.1601 1.06675 0
M  V30 1233 C 114.761 -2.20525 0.680967 0
M  V30 1234 C 115.731 -1.62904 -0.324283 0
M  V30 1235 O 116.916 -1.89615 -0.212294 0
M  V30 1236 C 114.056 -3.45013 0.0776551 0
M  V30 1237 C 113.169 -4.16863 1.13355 0
M  V30 1238 C 112.304 -5.2888 0.49597 0
M  V30 1239 C 111.343 -5.92537 1.53513 0
M  V30 1240 N 110.48 -6.96038 0.920631 0
M  V30 1241 H 115.32 -2.52876 1.57663 0
M  V30 1242 H 112.857 -1.24199 0.788223 0
M  V30 1243 H 114.815 -4.16193 -0.289704 0
M  V30 1244 H 113.445 -3.132 -0.781393 0
M  V30 1245 H 112.497 -3.44248 1.61857 0
M  V30 1246 H 113.809 -4.60294 1.92174 0
M  V30 1247 H 112.963 -6.06653 0.0758604 0
M  V30 1248 H 111.702 -4.86622 -0.324062 0
M  V30 1249 H 110.707 -5.13482 1.9651 0
M  V30 1250 H 111.932 -6.36873 2.35733 0
M  V30 1251 H 109.878 -6.55888 0.12138 0
M  V30 1252 H 109.795 -7.3786 1.64616 0
M  V30 1253 H 111.063 -7.77725 0.525795 0
M  V30 1254 N 115.292 -0.849877 -1.32721 0
M  V30 1255 C 116.202 -0.293791 -2.32753 0
M  V30 1256 C 117.218 0.585906 -1.63839 0
M  V30 1257 O 118.394 0.487413 -1.95413 0
M  V30 1258 C 115.459 0.512752 -3.42887 0
M  V30 1259 C 114.52 -0.39252 -4.27502 0
M  V30 1260 C 113.753 0.375625 -5.32377 0
M  V30 1261 O 113.976 1.60613 -5.4732 0
M  V30 1262 O 112.91 -0.256094 -6.01355 0
M  V30 1263 H 116.736 -1.12242 -2.82197 0
M  V30 1264 H 114.321 -0.612685 -1.36259 0
M  V30 1265 H 116.203 0.970704 -4.10067 0
M  V30 1266 H 114.878 1.31826 -2.95641 0
M  V30 1267 H 113.785 -0.898547 -3.63149 0
M  V30 1268 H 115.118 -1.16309 -4.7826 0
M  V30 1269 N 116.77 1.45427 -0.607355 0
M  V30 1270 C 117.998 2.06614 -0.108814 0
M  V30 1271 C 118.413 1.45204 1.2067 0
M  V30 1272 O 117.77 0.566132 1.73497 0
M  V30 1273 C 117.821 3.61481 0.0375347 0
M  V30 1274 O 117.542 4.20598 -1.22593 0
M  V30 1275 C 119.043 4.39652 0.567561 0
M  V30 1276 H 116.263 0.66747 -0.0687351 0
M  V30 1277 H 118.807 1.86675 -0.835022 0
M  V30 1278 H 116.962 3.80762 0.714068 0
M  V30 1279 H 117.376 5.1377 -1.05547 0
M  V30 1280 H 118.85 5.48518 0.61905 0
M  V30 1281 H 119.327 4.09417 1.58978 0
M  V30 1282 H 119.933 4.25234 -0.0749202 0
M  V30 1283 N 118.248 0.346503 1.53744 0
M  V30 1284 C 119.473 -0.253074 2.0585 0
M  V30 1285 C 119.898 -1.43202 1.21962 0
M  V30 1286 O 119.256 -1.79783 0.234073 0
M  V30 1287 C 119.304 -0.643193 3.54817 0
M  V30 1288 O 118.408 -1.74286 3.73762 0
M  V30 1289 H 117.749 -0.0413583 0.662711 0
M  V30 1290 H 120.279 0.501574 1.98357 0
M  V30 1291 H 120.289 -0.919526 3.97503 0
M  V30 1292 H 118.964 0.218966 4.15323 0
M  V30 1293 H 117.541 -1.46356 3.42979 0
M  V30 1294 N 119.726 -1.57421 0.075193 0
M  V30 1295 C 120.975 -1.92794 -0.592731 0
M  V30 1296 C 121.288 -0.957478 -1.70563 0
M  V30 1297 O 122.494 -1.20417 -2.43335 0
M  V30 1298 C 120.95 -3.42495 -1.10569 0
M  V30 1299 C 120.558 -4.47994 -0.0236121 0
M  V30 1300 C 122.302 -3.86864 -1.74748 0
M  V30 1301 C 120.209 -5.88829 -0.550803 0
M  V30 1302 H 119.139 -0.719591 -0.225177 0
M  V30 1303 H 121.79 -1.82902 0.147978 0
M  V30 1304 H 120.172 -3.47471 -1.89947 0
M  V30 1305 H 121.346 -4.54637 0.751099 0
M  V30 1306 H 119.661 -4.13113 0.522159 0
M  V30 1307 H 122.258 -4.8947 -2.15229 0
M  V30 1308 H 122.601 -3.24417 -2.60882 0
M  V30 1309 H 123.134 -3.84504 -1.01986 0
M  V30 1310 H 119.873 -6.54929 0.273457 0
M  V30 1311 H 119.393 -5.85698 -1.29296 0
M  V30 1312 H 121.072 -6.38811 -1.02613 0
M  V30 1313 N 121.204 0.198386 -1.56346 0
M  V30 1314 C 122.152 1.26538 -1.95169 0
M  V30 1315 C 123.146 1.47295 -0.836685 0
M  V30 1316 O 124.352 1.48195 -1.02167 0
M  V30 1317 H 120.727 0.424744 -0.620561 0
M  V30 1318 H 122.698 0.910904 -2.84157 0
M  V30 1319 C 121.447 2.6035 -2.30463 0
M  V30 1320 H 120.77 2.45192 -3.15786 0
M  V30 1321 H 122.21 3.33762 -2.61494 0
M  V30 1322 C 120.669 3.17096 -1.13806 0
M  V30 1323 O 121.199 3.99588 -0.41135 0
M  V30 1324 N 119.405 2.75795 -0.915736 0
M  V30 1325 H 118.952 2.08816 -1.50843 0
M  V30 1326 H 118.91 3.14101 -0.136979 0
M  V30 1327 N 122.682 1.50554 0.465978 0
M  V30 1328 C 123.93 1.61479 1.21528 0
M  V30 1329 C 124.251 0.319596 1.92363 0
M  V30 1330 O 123.521 -0.663194 1.84333 0
M  V30 1331 H 122.101 0.595055 0.451573 0
M  V30 1332 H 124.763 1.87355 0.53704 0
M  V30 1333 H 123.859 2.42846 1.96042 0
M  V30 1334 N 124.16 -0.719506 1.40217 0
M  V30 1335 C 125.09 -1.8465 1.42922 0
M  V30 1336 C 126.071 -1.67599 0.29062 0
M  V30 1337 O 127.256 -1.87688 0.498677 0
M  V30 1338 C 124.386 -3.22565 1.28722 0
M  V30 1339 C 123.34 -3.54281 2.40144 0
M  V30 1340 C 122.666 -4.91298 2.11023 0
M  V30 1341 C 123.966 -3.55676 3.82481 0
M  V30 1342 H 125.66 -1.82644 2.37237 0
M  V30 1343 H 123.206 -0.877305 1.1419 0
M  V30 1344 H 125.159 -4.01095 1.29232 0
M  V30 1345 H 123.883 -3.25137 0.308811 0
M  V30 1346 H 122.542 -2.78088 2.38877 0
M  V30 1347 H 122.19 -4.90468 1.11582 0
M  V30 1348 H 121.89 -5.13485 2.8567 0
M  V30 1349 H 123.414 -5.72166 2.13209 0
M  V30 1350 H 124.828 -4.24254 3.85592 0
M  V30 1351 H 123.225 -3.89388 4.56614 0
M  V30 1352 H 124.295 -2.55144 4.12346 0
M  V30 1353 N 125.638 -1.25649 -0.95132 0
M  V30 1354 C 126.568 -1.08808 -2.06599 0
M  V30 1355 C 127.549 0.00382547 -1.701 0
M  V30 1356 O 128.734 -0.166325 -1.93486 0
M  V30 1357 C 125.864 -0.709542 -3.39975 0
M  V30 1358 C 124.818 -1.75206 -3.90496 0
M  V30 1359 C 124.144 -1.22811 -5.20405 0
M  V30 1360 C 125.444 -3.15153 -4.16504 0
M  V30 1361 H 127.138 -2.02048 -2.20946 0
M  V30 1362 H 124.684 -0.972835 -1.06169 0
M  V30 1363 H 126.637 -0.578649 -4.17408 0
M  V30 1364 H 125.361 0.258556 -3.25575 0
M  V30 1365 H 124.02 -1.87145 -3.15234 0
M  V30 1366 H 123.668 -0.250145 -5.02378 0
M  V30 1367 H 123.368 -1.92492 -5.55176 0
M  V30 1368 H 124.892 -1.10968 -6.00432 0
M  V30 1369 H 126.306 -3.06349 -4.84586 0
M  V30 1370 H 124.703 -3.82333 -4.62538 0
M  V30 1371 H 125.773 -3.61966 -3.22658 0
M  V30 1372 N 127.117 1.15442 -1.07289 0
M  V30 1373 C 128.027 2.23786 -0.704057 0
M  V30 1374 C 129.043 1.7166 0.284413 0
M  V30 1375 O 130.219 2.00972 0.131205 0
M  V30 1376 C 127.284 3.46535 -0.106792 0
M  V30 1377 C 126.345 4.13654 -1.14842 0
M  V30 1378 C 125.578 5.30544 -0.57956 0
M  V30 1379 O 125.801 5.67187 0.604585 0
M  V30 1380 O 124.735 5.87154 -1.32414 0
M  V30 1381 H 128.561 2.57664 -1.60757 0
M  V30 1382 H 126.146 1.23152 -0.845803 0
M  V30 1383 H 128.028 4.20804 0.224048 0
M  V30 1384 H 126.703 3.14407 0.770049 0
M  V30 1385 H 125.61 3.4131 -1.5316 0
M  V30 1386 H 126.943 4.49861 -1.99714 0
M  V30 1387 N 128.595 0.856903 1.32268 0
M  V30 1388 C 129.872 0.382583 1.91822 0
M  V30 1389 C 130.252 -1.13407 1.78051 0
M  V30 1390 O 129.6 -1.95673 1.18001 0
M  V30 1391 C 129.81 0.849446 3.38505 0
M  V30 1392 C 131.158 0.867936 4.15634 0
M  V30 1393 O 132.182 0.794232 3.47232 0
M  V30 1394 O 131.041 0.972286 5.37781 0
M  V30 1395 H 128.135 0.112014 0.819379 0
M  V30 1396 H 130.681 0.943952 1.41024 0
M  V30 1397 H 129.453 1.89267 3.42482 0
M  V30 1398 H 129.076 0.265652 3.96712 0
M  V30 1399 N 130.073 -1.45103 0.615059 0
M  V30 1400 C 131.32 -2.02183 0.113179 0
M  V30 1401 C 131.648 -1.48249 -1.25906 0
M  V30 1402 O 130.903 -0.650265 -1.84581 0
M  V30 1403 C 131.202 -3.57386 0.0318797 0
M  V30 1404 C 130.868 -4.30505 1.34077 0
M  V30 1405 C 129.53 -4.50197 1.69929 0
M  V30 1406 C 131.882 -4.72238 2.20546 0
M  V30 1407 C 129.21 -5.08881 2.91988 0
M  V30 1408 C 131.562 -5.32272 3.41861 0
M  V30 1409 C 130.226 -5.50187 3.77956 0
M  V30 1410 H 129.496 -0.739842 0.0414151 0
M  V30 1411 H 132.143 -1.74073 0.798168 0
M  V30 1412 H 130.448 -3.84817 -0.736409 0
M  V30 1413 H 132.145 -3.99264 -0.372712 0
M  V30 1414 H 128.735 -4.15496 1.05173 0
M  V30 1415 H 132.919 -4.56751 1.94146 0
M  V30 1416 H 128.175 -5.20939 3.2005 0
M  V30 1417 H 132.349 -5.63563 4.09109 0
M  V30 1418 H 129.976 -5.95427 4.72622 0
M  V30 1419 N 131.551 -0.354651 -1.53558 0
M  V30 1420 C 132.828 0.294281 -1.93374 0
M  V30 1421 C 133.208 1.67313 -1.28723 0
M  V30 1422 O 132.556 2.24179 -0.442247 0
M  V30 1423 C 132.766 0.355445 -3.47185 0
M  V30 1424 C 134.114 0.601007 -4.20325 0
M  V30 1425 O 135.138 0.437106 -3.53508 0
M  V30 1426 O 133.997 0.919322 -5.38712 0
M  V30 1427 H 131.091 0.174033 -0.808481 0
M  V30 1428 H 133.637 -0.406638 -1.64756 0
M  V30 1429 H 132.409 -0.611729 -3.86489 0
M  V30 1430 H 132.032 1.1027 -3.82003 0
M  V30 1431 N 133.029 1.57378 -0.0835403 0
M  V30 1432 C 133.977 2.14602 0.89714 0
M  V30 1433 C 134.971 1.08589 1.30018 0
M  V30 1434 O 136.177 1.26952 1.27606 0
M  V30 1435 H 132.552 0.686346 0.3073 0
M  V30 1436 H 134.523 2.95845 0.38969 0
M  V30 1437 C 133.272 2.73188 2.15089 0
M  V30 1438 H 132.595 3.54442 1.84962 0
M  V30 1439 H 134.035 3.1681 2.81793 0
M  V30 1440 C 132.494 1.68517 2.91725 0
M  V30 1441 O 133.024 1.11718 3.85852 0
M  V30 1442 N 131.23 1.39277 2.55049 0
M  V30 1443 H 130.777 1.85655 1.78577 0
M  V30 1444 H 130.735 0.694791 3.06627 0
M  V30 1445 N 134.507 -0.190092 1.56449 0
M  V30 1446 C 135.756 -0.907912 1.80111 0
M  V30 1447 C 136.069 -1.84214 0.657619 0
M  V30 1448 O 137.275 -2.60094 0.778663 0
M  V30 1449 C 135.731 -1.66485 3.19078 0
M  V30 1450 C 135.339 -0.7752 4.41242 0
M  V30 1451 C 137.083 -2.37201 3.52045 0
M  V30 1452 C 134.99 -1.53129 5.71231 0
M  V30 1453 H 133.92 -0.34276 0.671589 0
M  V30 1454 H 136.571 -0.161109 1.82791 0
M  V30 1455 H 134.953 -2.45572 3.10661 0
M  V30 1456 H 136.127 -0.0226298 4.60794 0
M  V30 1457 H 134.442 -0.178627 4.16017 0
M  V30 1458 H 137.039 -2.94329 4.46402 0
M  V30 1459 H 137.382 -3.11632 2.76028 0
M  V30 1460 H 137.915 -1.65075 3.61932 0
M  V30 1461 H 134.654 -0.82967 6.50228 0
M  V30 1462 H 134.174 -2.25767 5.55688 0
M  V30 1463 H 135.853 -2.08377 6.12526 0
M  V30 1464 N 135.985 -1.50799 -0.457987 0
M  V30 1465 C 137.21 -1.66496 -1.23668 0
M  V30 1466 C 137.635 -0.353288 -1.84752 0
M  V30 1467 O 136.993 0.684346 -1.67888 0
M  V30 1468 C 137.041 -2.76763 -2.3116 0
M  V30 1469 O 136.145 -2.38928 -3.36136 0
M  V30 1470 H 135.486 -0.555828 -0.363252 0
M  V30 1471 H 138.016 -1.9725 -0.543474 0
M  V30 1472 H 138.026 -3.00232 -2.76269 0
M  V30 1473 H 136.701 -3.71954 -1.86073 0
M  V30 1474 H 135.278 -2.25953 -2.96647 0
M  V30 1475 N 137.463 0.71206 -1.40597 0
M  V30 1476 C 138.709 1.47416 -1.39271 0
M  V30 1477 C 139.042 1.942 0.00388791 0
M  V30 1478 O 138.317 1.68403 0.973179 0
M  V30 1479 C 138.6 2.69774 -2.38525 0
M  V30 1480 C 138.453 2.28861 -3.87224 0
M  V30 1481 C 139.772 3.71939 -2.35264 0
M  V30 1482 H 136.891 0.534713 -0.5072 0
M  V30 1483 H 139.533 0.812375 -1.71757 0
M  V30 1484 H 137.683 3.26238 -2.10953 0
M  V30 1485 H 139.355 1.77852 -4.25636 0
M  V30 1486 H 137.598 1.60824 -4.02887 0
M  V30 1487 H 138.269 3.16584 -4.52193 0
M  V30 1488 H 140.745 3.25113 -2.59694 0
M  V30 1489 H 139.621 4.55186 -3.06753 0
M  V30 1490 H 139.882 4.20484 -1.36549 0
M  V30 1491 N 138.941 1.26152 0.944643 0
M  V30 1492 C 140.169 1.14259 1.72489 0
M  V30 1493 C 140.584 -0.302555 1.8636 0
M  V30 1494 O 139.941 -1.20741 1.36849 0
M  V30 1495 C 139.992 1.80266 3.13347 0
M  V30 1496 O 139.713 3.19133 3.00143 0
M  V30 1497 C 141.214 1.74283 4.07603 0
M  V30 1498 H 138.434 0.398051 0.540181 0
M  V30 1499 H 140.978 1.66706 1.18446 0
M  V30 1500 H 139.133 1.31766 3.64303 0
M  V30 1501 H 139.547 3.51744 3.89071 0
M  V30 1502 H 141.021 2.25111 5.04013 0
M  V30 1503 H 141.498 0.708631 4.33446 0
M  V30 1504 H 142.104 2.22319 3.62567 0
M  V30 1505 N 140.419 -1.14872 1.07899 0
M  V30 1506 C 141.835 -1.37776 0.805606 0
M  V30 1507 C 142.035 -1.92743 -0.587555 0
M  V30 1508 O 141.091 -2.13678 -1.34528 0
M  V30 1509 C 142.404 -2.34361 1.88402 0
M  V30 1510 C 143.952 -2.48012 1.90942 0
M  V30 1511 C 144.427 -3.47893 2.97883 0
M  V30 1512 N 145.918 -3.55433 2.97021 0
M  V30 1513 C 146.653 -4.32553 3.76412 0
M  V30 1514 N 146.149 -5.12959 4.65666 0
M  V30 1515 N 147.942 -4.27697 3.64735 0
M  V30 1516 H 140.093 -0.775365 1.97742 0
M  V30 1517 H 142.356 -0.403521 0.857831 0
M  V30 1518 H 142.062 -2.01098 2.88535 0
M  V30 1519 H 141.936 -3.34206 1.74889 0
M  V30 1520 H 144.323 -2.8057 0.914579 0
M  V30 1521 H 144.404 -1.48147 2.08534 0
M  V30 1522 H 144.048 -3.16069 3.97571 0
M  V30 1523 H 143.978 -4.47527 2.77538 0
M  V30 1524 H 146.469 -2.98048 2.32326 0
M  V30 1525 H 146.782 -5.69065 5.22862 0
M  V30 1526 H 145.127 -5.12245 4.69712 0
M  V30 1527 H 148.318 -3.63949 2.94378 0
M  V30 1528 H 148.491 -4.8755 4.26848 0
M  V30 1529 N 141.898 -0.863906 -1.31812 0
M  V30 1530 C 143.123 -0.48527 -2.01643 0
M  V30 1531 C 143.548 0.913058 -1.64453 0
M  V30 1532 O 142.906 1.6014 -0.849985 0
M  V30 1533 C 142.954 -0.642625 -3.54828 0
M  V30 1534 O 142.058 0.320659 -4.11151 0
M  V30 1535 H 141.399 -0.193793 -0.635091 0
M  V30 1536 H 143.929 -1.16565 -1.68148 0
M  V30 1537 H 143.939 -0.533628 -4.04495 0
M  V30 1538 H 142.614 -1.66227 -3.81237 0
M  V30 1539 H 141.191 0.167126 -3.72525 0
M  V30 1540 N 143.376 1.44774 -0.622745 0
M  V30 1541 C 144.324 2.32387 0.0994683 0
M  V30 1542 C 145.318 1.46859 0.844326 0
M  V30 1543 O 146.524 1.63254 0.758174 0
M  V30 1544 H 142.899 0.750273 0.0509291 0
M  V30 1545 H 144.87 2.91062 -0.65767 0
M  V30 1546 C 143.619 3.30723 1.07319 0
M  V30 1547 H 142.942 3.96541 0.509462 0
M  V30 1548 H 144.382 3.94725 1.54817 0
M  V30 1549 C 142.841 2.59021 2.15429 0
M  V30 1550 O 143.371 2.38286 3.23393 0
M  V30 1551 N 141.577 2.189 1.91131 0
M  V30 1552 H 141.124 2.35964 1.03337 0
M  V30 1553 H 141.082 1.71251 2.63668 0
M  V30 1554 N 144.854 0.36279 1.53368 0
M  V30 1555 C 146.079 -0.231226 2.06107 0
M  V30 1556 C 146.504 -1.419 1.23474 0
M  V30 1557 O 145.862 -1.79524 0.253128 0
M  V30 1558 C 145.91 -0.605523 3.5548 0
M  V30 1559 O 145.014 -1.70312 3.7559 0
M  V30 1560 H 144.355 -0.034327 0.663112 0
M  V30 1561 H 146.885 0.522584 1.97814 0
M  V30 1562 H 146.895 -0.877314 3.98456 0
M  V30 1563 H 145.57 0.263004 4.15068 0
M  V30 1564 H 144.147 -1.4271 3.44512 0
M  V30 1565 N 146.332 -1.57332 0.0918853 0
M  V30 1566 C 147.262 -2.16872 -0.865371 0
M  V30 1567 C 148.243 -1.10118 -1.29646 0
M  V30 1568 O 149.428 -1.38242 -1.36392 0
M  V30 1569 C 146.558 -2.74649 -2.12569 0
M  V30 1570 C 145.512 -3.86747 -1.83333 0
M  V30 1571 C 144.838 -4.31212 -3.16166 0
M  V30 1572 C 146.138 -5.10089 -1.1228 0
M  V30 1573 H 147.832 -2.97114 -0.369307 0
M  V30 1574 H 145.378 -1.42918 -0.176194 0
M  V30 1575 H 147.331 -3.14952 -2.7997 0
M  V30 1576 H 146.055 -1.91657 -2.64452 0
M  V30 1577 H 144.714 -3.46978 -1.18331 0
M  V30 1578 H 144.362 -3.45115 -3.6593 0
M  V30 1579 H 144.062 -5.06788 -2.97388 0
M  V30 1580 H 145.586 -4.74146 -3.84731 0
M  V30 1581 H 147 -5.47582 -1.69785 0
M  V30 1582 H 145.397 -5.91073 -1.03693 0
M  V30 1583 H 146.467 -4.84786 -0.105041 0
M  V30 1584 N 147.81 0.181792 -1.56548 0
M  V30 1585 C 149.226 0.53316 -1.50431 0
M  V30 1586 C 149.426 1.85184 -0.794297 0
M  V30 1587 O 148.482 2.50058 -0.350318 0
M  V30 1588 C 149.795 0.575597 -2.9514 0
M  V30 1589 C 151.343 0.663519 -3.05886 0
M  V30 1590 C 151.818 0.736946 -4.52032 0
M  V30 1591 N 153.309 0.800118 -4.56237 0
M  V30 1592 C 154.044 0.877327 -5.66649 0
M  V30 1593 N 153.54 0.916016 -6.86718 0
M  V30 1594 N 155.333 0.915542 -5.54594 0
M  V30 1595 H 147.484 -0.683025 -2.01118 0
M  V30 1596 H 149.747 -0.244988 -0.915797 0
M  V30 1597 H 149.453 -0.324482 -3.502 0
M  V30 1598 H 149.327 1.42572 -3.49218 0
M  V30 1599 H 151.714 1.55403 -2.50867 0
M  V30 1600 H 151.795 -0.21307 -2.54911 0
M  V30 1601 H 151.439 -0.149262 -5.07681 0
M  V30 1602 H 151.369 1.62953 -5.00753 0
M  V30 1603 H 153.86 0.778926 -3.69785 0
M  V30 1604 H 154.173 0.975813 -7.66614 0
M  V30 1605 H 152.518 0.884469 -6.89349 0
M  V30 1606 H 155.709 0.882245 -4.59711 0
M  V30 1607 H 155.882 0.972253 -6.40665 0
M  V30 1608 N 149.288 1.51039 0.449983 0
M  V30 1609 C 150.235 1.71439 1.54523 0
M  V30 1610 C 151.205 0.555871 1.56522 0
M  V30 1611 O 152.39 0.788871 1.73728 0
M  V30 1612 C 149.53 1.83384 2.92343 0
M  V30 1613 C 148.643 3.10873 2.9997 0
M  V30 1614 C 147.778 3.13488 4.28834 0
M  V30 1615 C 146.817 4.35343 4.30282 0
M  V30 1616 N 145.954 4.35579 5.5065 0
M  V30 1617 H 150.794 2.64934 1.36433 0
M  V30 1618 H 148.331 1.31312 0.662982 0
M  V30 1619 H 150.289 1.88291 3.72293 0
M  V30 1620 H 148.919 0.933086 3.0902 0
M  V30 1621 H 147.971 3.15336 2.12761 0
M  V30 1622 H 149.283 4.00814 2.96901 0
M  V30 1623 H 148.437 3.17241 5.17149 0
M  V30 1624 H 147.176 2.21414 4.34543 0
M  V30 1625 H 146.181 4.3178 3.40362 0
M  V30 1626 H 147.406 5.28668 4.26248 0
M  V30 1627 H 145.352 3.46369 5.57104 0
M  V30 1628 H 145.269 5.19313 5.49409 0
M  V30 1629 H 146.537 4.43507 6.41032 0
M  V30 1630 N 150.766 -0.704594 1.40972 0
M  V30 1631 C 151.676 -1.84856 1.44448 0
M  V30 1632 C 152.692 -1.70726 0.335961 0
M  V30 1633 O 153.868 -1.92799 0.582276 0
M  V30 1634 C 150.933 -3.20758 1.31587 0
M  V30 1635 C 149.994 -3.47063 2.52677 0
M  V30 1636 C 149.227 -4.76481 2.4042 0
M  V30 1637 O 149.45 -5.52341 1.42391 0
M  V30 1638 O 148.384 -5.03367 3.30007 0
M  V30 1639 H 152.21 -1.8488 2.40942 0
M  V30 1640 H 149.795 -0.85647 1.22413 0
M  V30 1641 H 151.677 -4.01913 1.26665 0
M  V30 1642 H 150.352 -3.21438 0.382049 0
M  V30 1643 H 149.259 -2.65873 2.63177 0
M  V30 1644 H 150.592 -3.5119 3.44858 0
M  V30 1645 N 152.244 -1.26651 -0.937939 0
M  V30 1646 C 153.469 -1.15279 -1.72411 0
M  V30 1647 C 153.894 0.287866 -1.85884 0
M  V30 1648 O 153.252 1.20855 -1.35143 0
M  V30 1649 C 153.3 -1.83028 -3.10698 0
M  V30 1650 O 152.404 -1.12128 -3.96864 0
M  V30 1651 H 151.745 -0.401504 -0.528858 0
M  V30 1652 H 154.275 -1.67531 -1.1745 0
M  V30 1653 H 154.285 -1.89981 -3.6107 0
M  V30 1654 H 152.96 -2.87833 -3.00208 0
M  V30 1655 H 151.537 -1.13173 -3.55312 0
M  V30 1656 N 153.722 1.14298 -1.08507 0
M  V30 1657 C 155.133 1.66926 -0.836227 0
M  V30 1658 C 155.484 1.85576 0.63686 0
M  V30 1659 O 154.609 1.56767 1.49175 0
M  V30 1660 C 155.204 3.03219 -1.51142 0
M  V30 1661 C 153.763 3.52876 -1.30979 0
M  V30 1662 C 152.91 2.2833 -1.57356 0
M  V30 1663 H 155.861 0.983491 -1.24552 0
M  V30 1664 H 155.882 3.68726 -0.939211 0
M  V30 1665 H 155.394 2.89612 -2.58353 0
M  V30 1666 H 153.495 3.71703 -0.258429 0
M  V30 1667 H 153.608 4.33586 -2.03814 0
M  V30 1668 H 151.972 2.34454 -0.995164 0
M  V30 1669 H 152.755 2.17298 -2.65775 0
M  V30 1670 N 155.201 0.870884 1.31352 0
M  V30 1671 C 156.612 0.534714 1.78879 0
M  V30 1672 C 156.963 -0.948423 1.71754 0
M  V30 1673 O 156.088 -1.74055 1.28584 0
M  V30 1674 C 156.683 0.963839 3.24801 0
M  V30 1675 C 155.242 0.679311 3.70219 0
M  V30 1676 C 154.389 1.15465 2.52117 0
M  V30 1677 H 157.34 1.05651 1.18421 0
M  V30 1678 H 157.361 0.286892 3.79417 0
M  V30 1679 H 156.873 2.04332 3.29955 0
M  V30 1680 H 154.974 -0.388769 3.70566 0
M  V30 1681 H 155.087 1.25698 4.62317 0
M  V30 1682 H 153.451 0.574383 2.48139 0
M  V30 1683 H 154.234 2.24157 2.60016 0
M  V30 1684 N 156.679 -1.44442 0.630414 0
M  V30 1685 C 157.907 -2.06414 0.141671 0
M  V30 1686 C 158.322 -1.47105 -1.18345 0
M  V30 1687 O 157.679 -0.593662 -1.72574 0
M  V30 1688 C 157.73 -3.61494 0.0199784 0
M  V30 1689 O 157.451 -4.18594 1.29269 0
M  V30 1690 C 158.952 -4.40499 -0.497544 0
M  V30 1691 H 156.172 -0.666292 0.0793452 0
M  V30 1692 H 158.716 -1.85323 0.864614 0
M  V30 1693 H 156.871 -3.8185 -0.653402 0
M  V30 1694 H 157.285 -5.12026 1.13707 0
M  V30 1695 H 158.759 -5.49433 -0.531708 0
M  V30 1696 H 159.236 -4.11895 -1.52445 0
M  V30 1697 H 159.842 -4.25061 0.142562 0
M  V30 1698 N 158.157 -0.370918 -1.53173 0
M  V30 1699 C 159.568 0.107139 -1.86392 0
M  V30 1700 C 159.919 1.47714 -1.29132 0
M  V30 1701 O 159.044 2.07464 -0.615439 0
M  V30 1702 C 159.639 0.201187 -3.38202 0
M  V30 1703 C 158.198 0.623507 -3.712 0
M  V30 1704 C 157.345 -0.225978 -2.76378 0
M  V30 1705 H 160.296 -0.58951 -1.47345 0
M  V30 1706 H 160.317 1.02377 -3.66468 0
M  V30 1707 H 159.829 -0.796058 -3.79848 0
M  V30 1708 H 157.93 1.62879 -3.35114 0
M  V30 1709 H 158.043 0.394414 -4.77474 0
M  V30 1710 H 156.407 0.305962 -2.52856 0
M  V30 1711 H 157.19 -1.22086 -3.20858 0
M  V30 1712 N 159.635 1.57281 -0.100228 0
M  V30 1713 C 160.912 1.86014 0.604812 0
M  V30 1714 C 161.292 0.998025 1.86018 0
M  V30 1715 O 160.64 0.0718184 2.28387 0
M  V30 1716 C 160.85 3.36784 0.915278 0
M  V30 1717 C 162.198 4.04957 1.27651 0
M  V30 1718 O 163.222 3.41695 1.00613 0
M  V30 1719 O 162.081 5.16593 1.7831 0
M  V30 1720 H 159.175 0.76942 0.303185 0
M  V30 1721 H 161.721 1.69176 -0.133313 0
M  V30 1722 H 160.493 3.91292 0.0248896 0
M  V30 1723 H 160.116 3.58987 1.70921 0
M  V30 1724 N 161.113 -0.173488 1.56642 0
M  V30 1725 C 162.045 -1.23935 1.92802 0
M  V30 1726 C 163.058 -1.40589 0.820889 0
M  V30 1727 O 164.247 -1.40631 1.09933 0
M  V30 1728 C 161.347 -2.60837 2.16373 0
M  V30 1729 C 160.52 -2.6551 3.47596 0
M  V30 1730 C 159.579 -3.8376 3.60021 0
M  V30 1731 O 158.605 -3.69859 4.32658 0
M  V30 1732 N 159.807 -5.00127 2.94709 0
M  V30 1733 H 162.572 -0.932236 2.84832 0
M  V30 1734 H 160.133 -0.363268 1.57772 0
M  V30 1735 H 162.125 -3.38407 2.21952 0
M  V30 1736 H 160.695 -2.83948 1.30738 0
M  V30 1737 H 159.915 -1.74052 3.53694 0
M  V30 1738 H 161.203 -2.65641 4.33949 0
M  V30 1739 H 160.601 -5.14322 2.35563 0
M  V30 1740 H 159.158 -5.75567 3.05886 0
M  V30 1741 N 162.591 -1.51276 -0.441967 0
M  V30 1742 C 163.839 -1.63392 -1.18943 0
M  V30 1743 C 164.16 -0.350159 -1.9183 0
M  V30 1744 O 163.43 0.633784 -1.85364 0
M  V30 1745 H 162.01 -0.602164 -0.442049 0
M  V30 1746 H 164.672 -1.88186 -0.507165 0
M  V30 1747 H 163.768 -2.45934 -1.92154 0
M  V30 1748 N 164.069 0.697108 -1.41344 0
M  V30 1749 C 165.032 1.79281 -1.42797 0
M  V30 1750 C 166.032 1.57607 -0.318837 0
M  V30 1751 O 167.222 1.64309 -0.578642 0
M  V30 1752 C 164.354 3.17632 -1.23785 0
M  V30 1753 H 165.547 1.79385 -2.40335 0
M  V30 1754 H 163.1 0.904582 -1.27464 0
M  V30 1755 H 163.835 3.23167 -0.270814 0
M  V30 1756 H 163.62 3.34765 -2.04144 0
M  V30 1757 H 165.11 3.97617 -1.27633 0
M  V30 1758 N 165.547 1.27147 0.931209 0
M  V30 1759 C 166.772 1.16191 1.71797 0
M  V30 1760 C 167.197 -0.278004 1.86034 0
M  V30 1761 O 166.555 -1.20137 1.35782 0
M  V30 1762 C 166.603 1.84673 3.09723 0
M  V30 1763 O 165.707 1.14231 3.96264 0
M  V30 1764 H 165.048 0.404303 0.526721 0
M  V30 1765 H 167.578 1.68152 1.1656 0
M  V30 1766 H 167.588 1.91893 3.60057 0
M  V30 1767 H 166.263 2.89421 2.98677 0
M  V30 1768 H 164.84 1.15056 3.54706 0
M  V30 1769 N 167.025 -1.13721 1.09112 0
M  V30 1770 C 168.25 -1.89314 0.847053 0
M  V30 1771 C 168.675 -1.78416 -0.595774 0
M  V30 1772 O 168.033 -1.12942 -1.41823 0
M  V30 1773 C 168.081 -3.3701 1.28284 0
M  V30 1774 O 167.185 -4.10054 0.439267 0
M  V30 1775 H 166.526 -0.588745 0.307044 0
M  V30 1776 H 169.056 -1.43902 1.45442 0
M  V30 1777 H 169.066 -3.87834 1.26683 0
M  V30 1778 H 167.741 -3.4426 2.33363 0
M  V30 1779 H 166.318 -3.69266 0.519312 0
M  V30 1780 N 168.503 -0.877838 -1.30888 0
M  V30 1781 C 169.453 -0.310872 -2.25871 0
M  V30 1782 C 170.437 0.556596 -1.50966 0
M  V30 1783 O 171.629 0.402187 -1.7237 0
M  V30 1784 C 168.758 0.479821 -3.3993 0
M  V30 1785 C 167.844 -0.401333 -4.22197 0
M  V30 1786 N 168.235 -1.49848 -4.83093 0
M  V30 1787 C 166.533 -0.195167 -4.45573 0
M  V30 1788 C 167.234 -2.0425 -5.44662 0
M  V30 1789 N 166.21 -1.33843 -5.26865 0
M  V30 1790 H 170.012 -1.1493 -2.70496 0
M  V30 1791 H 167.526 -0.726458 -1.45246 0
M  V30 1792 H 169.523 0.902582 -4.07012 0
M  V30 1793 H 168.183 1.31577 -2.96846 0
M  V30 1794 H 169.194 -1.88137 -4.82519 0
M  V30 1795 H 165.871 0.604192 -4.13105 0
M  V30 1796 H 167.261 -2.96345 -6.03017 0
M  V30 1797 N 169.982 1.44106 -0.638065 0
M  V30 1798 C 171.23 2.01579 -0.145043 0
M  V30 1799 C 171.551 1.50496 1.24 0
M  V30 1800 O 170.821 0.711374 1.82527 0
M  V30 1801 H 169.401 0.745282 -0.05063 0
M  V30 1802 H 172.063 1.76516 -0.826327 0
M  V30 1803 H 171.159 3.11877 -0.118039 0
M  V30 1804 N 171.46 0.379036 1.52974 0
M  V30 1805 C 172.871 -0.0972525 1.86447 0
M  V30 1806 C 173.222 -1.47027 1.29914 0
M  V30 1807 O 172.347 -2.07135 0.626433 0
M  V30 1808 C 172.942 -0.183248 3.38304 0
M  V30 1809 C 171.501 -0.603812 3.71525 0
M  V30 1810 C 170.648 0.240632 2.76254 0
M  V30 1811 H 173.599 0.597316 1.4703 0
M  V30 1812 H 173.62 -1.00432 3.67006 0
M  V30 1813 H 173.132 0.816191 3.79421 0
M  V30 1814 H 171.233 -1.61099 3.35973 0
M  V30 1815 H 171.346 -0.369086 4.77676 0
M  V30 1816 H 169.71 -0.292548 2.53014 0
M  V30 1817 H 170.493 1.23786 3.20206 0
M  V30 1818 N 172.938 -1.57226 0.108567 0
M  V30 1819 C 174.186 -1.94448 -0.550853 0
M  V30 1820 C 174.507 -0.992074 -1.67878 0
M  V30 1821 O 173.777 -0.0465 -1.95845 0
M  V30 1822 H 172.357 -0.717897 -0.206479 0
M  V30 1823 H 175.019 -1.94112 0.175062 0
M  V30 1824 H 174.115 -2.97218 -0.952259 0
M  V30 1825 N 174.416 0.165178 -1.56732 0
M  V30 1826 C 175.366 1.20917 -1.93295 0
M  V30 1827 C 176.35 1.39488 -0.801985 0
M  V30 1828 O 177.542 1.41356 -1.06525 0
M  V30 1829 C 174.671 2.54718 -2.3016 0
M  V30 1830 C 173.757 2.39815 -3.49785 0
M  V30 1831 N 174.148 1.94637 -4.66851 0
M  V30 1832 C 172.446 2.70623 -3.54513 0
M  V30 1833 C 173.147 1.92344 -5.4898 0
M  V30 1834 N 172.123 2.34978 -4.9019 0
M  V30 1835 H 175.925 0.851675 -2.81289 0
M  V30 1836 H 173.439 0.373399 -1.58049 0
M  V30 1837 H 175.436 3.30165 -2.54552 0
M  V30 1838 H 174.096 2.91265 -1.43508 0
M  V30 1839 H 175.107 1.6488 -4.90953 0
M  V30 1840 H 171.784 3.11167 -2.78354 0
M  V30 1841 H 173.174 1.5906 -6.52801 0
M  V30 1842 N 175.894 1.51508 0.433938 0
M  V30 1843 C 176.857 1.72473 1.50949 0
M  V30 1844 C 177.857 0.594725 1.49398 0
M  V30 1845 O 179.047 0.862315 1.5136 0
M  V30 1846 C 176.179 1.78431 2.90474 0
M  V30 1847 H 177.372 2.68467 1.33662 0
M  V30 1848 H 174.925 1.41549 0.662836 0
M  V30 1849 H 175.66 0.842645 3.13161 0
M  V30 1850 H 175.445 2.60558 2.93005 0
M  V30 1851 H 176.935 1.96479 3.68491 0
M  V30 1852 N 177.372 -0.689602 1.41712 0
M  V30 1853 C 178.282 -1.83314 1.46401 0
M  V30 1854 C 179.298 -1.7036 0.35405 0
M  V30 1855 O 180.474 -1.92171 0.602692 0
M  V30 1856 C 177.539 -3.19344 1.34982 0
M  V30 1857 C 176.6 -3.44363 2.56344 0
M  V30 1858 C 175.833 -4.73904 2.45461 0
M  V30 1859 O 176.056 -5.508 1.48241 0
M  V30 1860 O 174.99 -4.99839 3.35328 0
M  V30 1861 H 178.816 -1.82314 2.42889 0
M  V30 1862 H 176.401 -0.843438 1.23315 0
M  V30 1863 H 178.283 -4.00547 1.3092 0
M  V30 1864 H 176.958 -3.21014 0.41612 0
M  V30 1865 H 175.865 -2.63067 2.65982 0
M  V30 1866 H 177.198 -3.47512 3.48563 0
M  V30 1867 N 178.85 -1.27639 -0.924453 0
M  V30 1868 C 179.76 -1.12466 -2.05885 0
M  V30 1869 C 180.776 -0.053869 -1.73917 0
M  V30 1870 O 181.952 -0.261012 -1.99702 0
M  V30 1871 C 179.017 -0.776768 -3.37886 0
M  V30 1872 C 178.078 -1.92878 -3.83532 0
M  V30 1873 C 177.311 -1.59739 -5.09234 0
M  V30 1874 O 177.534 -0.506782 -5.68144 0
M  V30 1875 O 176.468 -2.43761 -5.50331 0
M  V30 1876 H 180.294 -2.07671 -2.21599 0
M  V30 1877 H 177.879 -1.06857 -1.04413 0
M  V30 1878 H 179.761 -0.596229 -4.17161 0
M  V30 1879 H 178.436 0.145732 -3.23372 0
M  V30 1880 H 177.343 -2.1644 -3.0513 0
M  V30 1881 H 178.676 -2.8316 -4.02593 0
M  V30 1882 N 180.328 1.1314 -1.09713 0
M  V30 1883 C 181.276 2.20717 -0.733934 0
M  V30 1884 C 182.27 1.6729 0.266506 0
M  V30 1885 O 183.476 1.79547 0.127656 0
M  V30 1886 H 179.851 0.719292 -0.21937 0
M  V30 1887 H 181.822 2.48611 -1.6503 0
M  V30 1888 C 180.571 3.47265 -0.173849 0
M  V30 1889 H 179.894 3.88716 -0.934873 0
M  V30 1890 H 181.334 4.23979 0.0423126 0
M  V30 1891 C 179.793 3.18724 1.09164 0
M  V30 1892 O 180.323 3.37762 2.17439 0
M  V30 1893 N 178.529 2.72583 1.00732 0
M  V30 1894 H 178.076 2.57291 0.126121 0
M  V30 1895 H 178.034 2.53862 1.85476 0
M  V30 1896 N 181.806 0.884767 1.30421 0
M  V30 1897 C 183.054 0.502112 1.95763 0
M  V30 1898 C 183.375 -0.951815 1.70192 0
M  V30 1899 O 182.645 -1.6692 1.0254 0
M  V30 1900 H 181.225 0.182694 0.724315 0
M  V30 1901 H 183.887 1.1278 1.58955 0
M  V30 1902 H 182.983 0.672188 3.04775 0
M  V30 1903 N 183.284 -1.43765 0.645699 0
M  V30 1904 C 184.531 -2.01898 0.15604 0
M  V30 1905 C 184.859 -1.50887 -1.22733 0
M  V30 1906 O 184.114 -0.689271 -1.8316 0
M  V30 1907 C 184.413 -3.57238 0.107679 0
M  V30 1908 C 184.079 -4.27564 1.43178 0
M  V30 1909 C 182.741 -4.46492 1.7944 0
M  V30 1910 C 185.093 -4.67454 2.30513 0
M  V30 1911 C 182.421 -5.02573 3.02716 0
M  V30 1912 C 184.773 -5.24901 3.53074 0
M  V30 1913 C 183.437 -5.42046 3.89541 0
M  V30 1914 H 182.707 -0.738797 0.057099 0
M  V30 1915 H 185.354 -1.72341 0.834912 0
M  V30 1916 H 183.659 -3.86293 -0.654618 0
M  V30 1917 H 185.356 -3.99965 -0.287938 0
M  V30 1918 H 181.946 -4.13171 1.13963 0
M  V30 1919 H 186.13 -4.5253 2.0379 0
M  V30 1920 H 181.386 -5.14033 3.31028 0
M  V30 1921 H 185.56 -5.54758 4.20971 0
M  V30 1922 H 183.187 -5.85268 4.85145 0
M  V30 1923 N 184.763 -0.387143 -1.52771 0
M  V30 1924 C 186.012 0.19697 -2.00736 0
M  V30 1925 C 186.325 1.48082 -1.27793 0
M  V30 1926 O 187.531 2.14485 -1.66458 0
M  V30 1927 C 185.987 0.401568 -3.57653 0
M  V30 1928 C 185.595 -0.868907 -4.39493 0
M  V30 1929 C 187.339 0.942164 -4.13912 0
M  V30 1930 C 185.246 -0.632705 -5.88006 0
M  V30 1931 H 184.176 0.0773827 -0.750019 0
M  V30 1932 H 186.827 -0.50921 -1.76293 0
M  V30 1933 H 185.209 1.16954 -3.78335 0
M  V30 1934 H 186.383 -1.64133 -4.30577 0
M  V30 1935 H 184.698 -1.33429 -3.94443 0
M  V30 1936 H 187.295 1.13455 -5.22525 0
M  V30 1937 H 187.638 1.9106 -3.69867 0
M  V30 1938 H 188.171 0.233814 -3.97112 0
M  V30 1939 H 184.91 -1.57208 -6.36369 0
M  V30 1940 H 184.43 0.100825 -5.99715 0
M  V30 1941 H 186.109 -0.26642 -6.46451 0
M  V30 1942 N 186.241 1.57166 -0.116904 0
M  V30 1943 C 187.469 1.99473 0.549383 0
M  V30 1944 C 187.884 0.996541 1.60357 0
M  V30 1945 O 187.241 -0.0108731 1.82497 0
M  V30 1946 C 187.292 3.41788 1.17741 0
M  V30 1947 O 187.013 4.37788 0.165362 0
M  V30 1948 C 188.514 3.99216 1.92722 0
M  V30 1949 H 185.734 0.655009 0.145616 0
M  V30 1950 H 188.278 2.03494 -0.202625 0
M  V30 1951 H 186.433 3.38713 1.88021 0
M  V30 1952 H 186.847 5.20806 0.621403 0
M  V30 1953 H 188.321 5.00882 2.31995 0
M  V30 1954 H 188.798 3.3824 2.80161 0
M  V30 1955 H 189.404 4.0583 1.27209 0
M  V30 1956 N 187.719 -0.156864 1.56817 0
M  V30 1957 C 188.966 -0.871125 1.82805 0
M  V30 1958 C 189.294 -1.81611 0.696262 0
M  V30 1959 O 188.549 -1.93141 -0.315459 0
M  V30 1960 C 188.848 -1.68737 3.1506 0
M  V30 1961 C 188.514 -0.890045 4.42028 0
M  V30 1962 C 187.176 -0.670042 4.76512 0
M  V30 1963 C 189.528 -0.331769 5.20143 0
M  V30 1964 C 186.856 0.119104 5.86579 0
M  V30 1965 C 189.208 0.444365 6.31037 0
M  V30 1966 C 187.872 0.675035 6.64078 0
M  V30 1967 H 187.142 -0.318767 0.668931 0
M  V30 1968 H 189.789 -0.135274 1.91022 0
M  V30 1969 H 188.094 -2.49304 3.0225 0
M  V30 1970 H 189.791 -2.24331 3.3238 0
M  V30 1971 H 186.381 -1.07157 4.14988 0
M  V30 1972 H 190.565 -0.489043 4.93885 0
M  V30 1973 H 185.821 0.307417 6.10627 0
M  V30 1974 H 189.995 0.884139 6.90765 0
M  V30 1975 H 187.622 1.28839 7.49203 0
M  V30 1976 N 189.197 -1.51736 -0.425897 0
M  V30 1977 C 190.422 -1.69082 -1.20108 0
M  V30 1978 C 190.847 -0.392398 -1.83962 0
M  V30 1979 O 190.205 0.64858 -1.69302 0
M  V30 1980 C 190.253 -2.81604 -2.25237 0
M  V30 1981 O 189.357 -2.46004 -3.30992 0
M  V30 1982 H 188.698 -0.563408 -0.35138 0
M  V30 1983 H 191.228 -1.98358 -0.501512 0
M  V30 1984 H 191.238 -3.06025 -2.69838 0
M  V30 1985 H 189.913 -3.75817 -1.78142 0
M  V30 1986 H 188.49 -2.32195 -2.91787 0
M  V30 1987 N 190.675 0.682077 -1.42076 0
M  V30 1988 C 191.607 1.80755 -1.40926 0
M  V30 1989 C 192.62 1.59833 -0.309398 0
M  V30 1990 O 193.809 1.69087 -0.572014 0
M  V30 1991 C 190.909 3.17744 -1.17865 0
M  V30 1992 C 190.082 3.65578 -2.40149 0
M  V30 1993 C 189.141 4.81277 -2.12742 0
M  V30 1994 O 188.167 4.92197 -2.85887 0
M  V30 1995 N 189.369 5.69474 -1.12602 0
M  V30 1996 H 192.134 1.82229 -2.37935 0
M  V30 1997 H 189.695 0.864903 -1.36861 0
M  V30 1998 H 191.687 3.9279 -0.9746 0
M  V30 1999 H 190.257 3.11214 -0.294068 0
M  V30 2000 H 189.477 2.81291 -2.76169 0
M  V30 2001 H 190.765 3.94278 -3.21593 0
M  V30 2002 H 190.163 5.63297 -0.520899 0
M  V30 2003 H 188.72 6.44363 -0.981842 0
M  V30 2004 N 192.153 1.28127 0.917671 0
M  V30 2005 C 193.383 1.17722 1.6978 0
M  V30 2006 C 193.791 -0.267261 1.87303 0
M  V30 2007 O 193.134 -1.19286 1.39702 0
M  V30 2008 C 193.196 1.79958 3.11216 0
M  V30 2009 C 192.86 3.29187 3.16993 0
M  V30 2010 C 193.857 4.25679 2.98485 0
M  V30 2011 C 191.542 3.70075 3.39632 0
M  V30 2012 C 193.536 5.61035 3.02521 0
M  V30 2013 C 191.223 5.05557 3.433 0
M  V30 2014 C 192.221 6.00847 3.24764 0
M  V30 2015 O 191.909 7.33859 3.28187 0
M  V30 2016 H 191.641 0.409788 0.537634 0
M  V30 2017 H 194.195 1.69694 1.15728 0
M  V30 2018 H 192.425 1.22475 3.66793 0
M  V30 2019 H 194.114 1.64125 3.71238 0
M  V30 2020 H 194.88 3.95426 2.80826 0
M  V30 2021 H 190.759 2.96373 3.53106 0
M  V30 2022 H 194.303 6.35388 2.87971 0
M  V30 2023 H 190.2 5.35462 3.60486 0
M  V30 2024 H 190.968 7.42436 3.44575 0
M  V30 2025 N 193.631 -1.12557 1.10312 0
M  V30 2026 C 194.856 -1.88405 0.867085 0
M  V30 2027 C 195.281 -1.79038 -0.576817 0
M  V30 2028 O 194.639 -1.14439 -1.40618 0
M  V30 2029 C 194.687 -3.3563 1.31851 0
M  V30 2030 O 193.791 -4.09565 0.482734 0
M  V30 2031 H 193.132 -0.585455 0.313271 0
M  V30 2032 H 195.662 -1.42352 1.4696 0
M  V30 2033 H 195.672 -3.86469 1.3079 0
M  V30 2034 H 194.347 -3.41765 2.37001 0
M  V30 2035 H 192.924 -3.68695 0.558448 0
M  V30 2036 N 195.109 -0.891671 -1.2995 0
M  V30 2037 C 196.334 -0.527932 -2.00568 0
M  V30 2038 C 196.759 0.877969 -1.66353 0
M  V30 2039 O 196.117 1.58301 -0.883762 0
M  V30 2040 C 196.165 -0.717745 -3.53385 0
M  V30 2041 O 195.269 0.233376 -4.11739 0
M  V30 2042 H 194.61 -0.20722 -0.630837 0
M  V30 2043 H 197.14 -1.20105 -1.65638 0
M  V30 2044 H 197.15 -0.619307 -4.03272 0
M  V30 2045 H 195.825 -1.74276 -3.77625 0
M  V30 2046 H 194.402 0.0880706 -3.72796 0
M  V30 2047 N 196.587 1.43421 -0.653314 0
M  V30 2048 C 197.497 2.34568 0.0388565 0
M  V30 2049 C 198.513 1.53888 0.81207 0
M  V30 2050 O 199.689 1.86539 0.759294 0
M  V30 2051 C 196.754 3.32167 0.993269 0
M  V30 2052 C 195.815 4.28751 0.216977 0
M  V30 2053 C 195.048 5.21688 1.12593 0
M  V30 2054 O 195.271 5.19052 2.36519 0
M  V30 2055 O 194.205 5.98919 0.598284 0
M  V30 2056 H 198.031 2.95251 -0.711386 0
M  V30 2057 H 195.616 1.43564 -0.413502 0
M  V30 2058 H 197.498 3.92183 1.54176 0
M  V30 2059 H 196.173 2.73987 1.72374 0
M  V30 2060 H 195.08 3.72215 -0.375101 0
M  V30 2061 H 196.413 4.89913 -0.473924 0
M  V30 2062 N 198.065 0.39524 1.52563 0
M  V30 2063 C 199.29 -0.187456 2.06551 0
M  V30 2064 C 199.715 -1.39249 1.26457 0
M  V30 2065 O 199.073 -1.78947 0.291151 0
M  V30 2066 C 199.121 -0.529985 3.56684 0
M  V30 2067 O 198.225 -1.62307 3.79118 0
M  V30 2068 H 197.566 -0.0202537 0.663691 0
M  V30 2069 H 200.096 0.564426 1.96661 0
M  V30 2070 H 200.106 -0.792598 4.00227 0
M  V30 2071 H 198.781 0.350987 4.14416 0
M  V30 2072 H 197.358 -1.3537 3.47461 0
M  V30 2073 N 199.544 -1.57102 0.125237 0
M  V30 2074 C 200.821 -1.86953 -0.575142 0
M  V30 2075 C 201.201 -1.02749 -1.84407 0
M  V30 2076 O 200.549 -0.108144 -2.28244 0
M  V30 2077 C 200.759 -3.38198 -0.861583 0
M  V30 2078 C 202.107 -4.06937 -1.21192 0
M  V30 2079 O 203.131 -3.43252 -0.951645 0
M  V30 2080 O 201.99 -5.19364 -1.70068 0
M  V30 2081 H 199.084 -0.774147 -0.290906 0
M  V30 2082 H 201.63 -1.68942 0.160211 0
M  V30 2083 H 200.402 -3.91282 0.0373647 0
M  V30 2084 H 200.025 -3.61661 -1.65188 0
M  V30 2085 N 201.022 0.148545 -1.56898 0
M  V30 2086 C 202.25 0.876389 -1.87422 0
M  V30 2087 C 202.665 1.74809 -0.713256 0
M  V30 2088 O 202.022 1.79725 0.317025 0
M  V30 2089 C 202.073 1.73438 -3.17178 0
M  V30 2090 O 201.794 0.897809 -4.28802 0
M  V30 2091 C 203.295 2.56993 -3.61205 0
M  V30 2092 H 200.515 0.253489 -0.621277 0
M  V30 2093 H 203.059 0.141798 -2.04008 0
M  V30 2094 H 201.214 2.42205 -3.0235 0
M  V30 2095 H 201.628 1.48672 -5.02988 0
M  V30 2096 H 203.102 3.12773 -4.54838 0
M  V30 2097 H 203.579 3.32958 -2.86419 0
M  V30 2098 H 204.185 1.9352 -3.78722 0
M  V30 2099 N 202.5 1.5196 0.417844 0
M  V30 2100 C 203.728 1.69426 1.18753 0
M  V30 2101 C 204.143 0.399955 1.84515 0
M  V30 2102 O 203.5 -0.623288 1.71527 0
M  V30 2103 C 203.551 2.82375 2.25714 0
M  V30 2104 O 203.272 4.06793 1.62638 0
M  V30 2105 C 204.773 3.11277 3.15628 0
M  V30 2106 H 201.993 0.568031 0.357186 0
M  V30 2107 H 204.537 1.98475 0.49273 0
M  V30 2108 H 202.692 2.5587 2.90877 0
M  V30 2109 H 203.106 4.69667 2.3348 0
M  V30 2110 H 204.58 3.93843 3.86771 0
M  V30 2111 H 205.057 2.24473 3.77503 0
M  V30 2112 H 205.663 3.39515 2.56144 0
M  V30 2113 N 203.978 -0.674533 1.42435 0
M  V30 2114 C 204.941 -1.76986 1.45632 0
M  V30 2115 C 205.941 -1.5708 0.343871 0
M  V30 2116 O 207.131 -1.63367 0.604709 0
M  V30 2117 C 204.263 -3.15623 1.28822 0
M  V30 2118 H 205.456 -1.75539 2.43158 0
M  V30 2119 H 203.009 -0.884189 1.28887 0
M  V30 2120 H 203.744 -3.22696 0.322193 0
M  V30 2121 H 203.529 -3.31475 2.09444 0
M  V30 2122 H 205.019 -3.95537 1.33942 0
M  V30 2123 N 205.456 -1.28612 -0.910864 0
M  V30 2124 C 206.733 -1.06632 -1.63979 0
M  V30 2125 C 207.113 0.393351 -2.07403 0
M  V30 2126 O 206.461 1.37999 -1.82122 0
M  V30 2127 C 206.671 -2.0436 -2.8291 0
M  V30 2128 C 208.019 -2.34666 -3.5386 0
M  V30 2129 O 209.043 -2.02467 -2.93062 0
M  V30 2130 O 207.902 -2.89631 -4.63439 0
M  V30 2131 H 204.996 -0.407737 -0.7195 0
M  V30 2132 H 207.542 -1.39942 -0.959914 0
M  V30 2133 H 206.314 -3.02727 -2.47936 0
M  V30 2134 H 205.937 -1.71714 -3.58609 0
M  V30 2135 N 206.934 1.1197 -1.10907 0
M  V30 2136 C 208.164 1.8713 -0.875553 0
M  V30 2137 C 208.572 1.8016 0.577843 0
M  V30 2138 O 207.915 1.17699 1.41042 0
M  V30 2139 C 207.977 3.37005 -1.2517 0
M  V30 2140 C 207.641 3.67748 -2.71313 0
M  V30 2141 C 208.638 3.65698 -3.69542 0
M  V30 2142 C 206.323 3.96928 -3.07821 0
M  V30 2143 C 208.317 3.92395 -5.023 0
M  V30 2144 C 206.004 4.23284 -4.40765 0
M  V30 2145 C 207.002 4.21005 -5.37814 0
M  V30 2146 O 206.69 4.46704 -6.68364 0
M  V30 2147 H 206.422 0.598786 -0.313737 0
M  V30 2148 H 208.976 1.42568 -1.47863 0
M  V30 2149 H 207.206 3.82146 -0.591741 0
M  V30 2150 H 208.895 3.93519 -0.994877 0
M  V30 2151 H 209.661 3.43211 -3.42682 0
M  V30 2152 H 205.54 3.97841 -2.32902 0
M  V30 2153 H 209.084 3.90531 -5.78041 0
M  V30 2154 H 204.981 4.45246 -4.67361 0
M  V30 2155 H 205.749 4.64299 -6.74069 0
M  V30 2156 N 208.412 0.89855 1.29475 0
M  V30 2157 C 209.64 0.539261 1.99749 0
M  V30 2158 C 210.055 -0.875716 1.67262 0
M  V30 2159 O 209.412 -1.57786 0.917049 0
M  V30 2160 C 209.463 0.72061 3.54245 0
M  V30 2161 O 209.184 2.07989 3.8558 0
M  V30 2162 C 210.685 0.366118 4.41786 0
M  V30 2163 H 207.905 0.207047 0.638258 0
M  V30 2164 H 210.449 1.20758 1.65039 0
M  V30 2165 H 208.604 0.0994862 3.87272 0
M  V30 2166 H 209.018 2.10841 4.80257 0
M  V30 2167 H 210.492 0.543848 5.49314 0
M  V30 2168 H 210.969 -0.696763 4.33638 0
M  V30 2169 H 211.575 0.964135 4.14228 0
M  V30 2170 N 209.89 -1.43072 0.660911 0
M  V30 2171 C 211.118 -2.06067 0.185422 0
M  V30 2172 C 211.533 -1.49582 -1.15198 0
M  V30 2173 O 210.89 -0.630134 -1.71276 0
M  V30 2174 C 210.941 -3.61371 0.0966523 0
M  V30 2175 O 210.662 -4.15758 1.38119 0
M  V30 2176 C 212.163 -4.41455 -0.403996 0
M  V30 2177 H 209.383 -0.664459 0.0934604 0
M  V30 2178 H 211.927 -1.83447 0.90373 0
M  V30 2179 H 210.082 -3.8315 -0.572259 0
M  V30 2180 H 210.496 -5.09499 1.24542 0
M  V30 2181 H 211.97 -5.50437 -0.415045 0
M  V30 2182 H 212.447 -4.15036 -1.43674 0
M  V30 2183 H 213.053 -4.24663 0.232691 0
M  V30 2184 N 211.368 -0.403325 -1.52352 0
M  V30 2185 C 212.278 0.432009 -2.30588 0
M  V30 2186 C 213.294 1.05884 -1.38075 0
M  V30 2187 O 214.47 1.06161 -1.71148 0
M  V30 2188 C 211.535 1.53669 -3.10784 0
M  V30 2189 C 210.596 0.933525 -4.19027 0
M  V30 2190 C 209.829 1.98557 -4.9539 0
M  V30 2191 O 210.052 3.20283 -4.71991 0
M  V30 2192 O 208.986 1.59504 -5.80381 0
M  V30 2193 H 212.812 -0.205739 -3.03002 0
M  V30 2194 H 210.397 -0.166675 -1.48467 0
M  V30 2195 H 212.279 2.17814 -3.60742 0
M  V30 2196 H 210.954 2.15915 -2.41169 0
M  V30 2197 H 209.861 0.254954 -3.7323 0
M  V30 2198 H 211.194 0.35508 -4.90918 0
M  V30 2199 N 212.846 1.57033 -0.133567 0
M  V30 2200 C 213.793 2.16074 0.811208 0
M  V30 2201 C 214.763 1.08979 1.2535 0
M  V30 2202 O 215.948 1.36958 1.32843 0
M  V30 2203 C 213.088 2.77595 2.05024 0
M  V30 2204 C 212.201 3.99042 1.65498 0
M  V30 2205 C 211.336 4.48603 2.84479 0
M  V30 2206 C 210.375 5.62547 2.41262 0
M  V30 2207 N 209.512 6.06787 3.53206 0
M  V30 2208 H 214.352 2.96477 0.300906 0
M  V30 2209 H 211.889 1.46462 0.136822 0
M  V30 2210 H 213.847 3.11402 2.77642 0
M  V30 2211 H 212.477 1.99859 2.53488 0
M  V30 2212 H 211.529 3.71302 0.826981 0
M  V30 2213 H 212.841 4.81629 1.29748 0
M  V30 2214 H 211.995 4.84395 3.65303 0
M  V30 2215 H 210.734 3.64995 3.23465 0
M  V30 2216 H 209.739 5.26345 1.58874 0
M  V30 2217 H 210.964 6.47931 2.03377 0
M  V30 2218 H 208.91 5.26117 3.91838 0
M  V30 2219 H 208.827 6.84266 3.21427 0
M  V30 2220 H 210.095 6.4722 4.34427 0
M  V30 2221 N 214.325 -0.140222 1.56975 0
M  V30 2222 C 215.555 -0.865181 1.87612 0
M  V30 2223 C 215.963 -1.74942 0.72055 0
M  V30 2224 O 215.306 -1.80917 -0.318561 0
M  V30 2225 C 215.368 -1.76782 3.13031 0
M  V30 2226 C 215.032 -1.06005 4.44536 0
M  V30 2227 C 216.029 -0.410768 5.18275 0
M  V30 2228 C 213.714 -1.04754 4.91255 0
M  V30 2229 C 215.708 0.241572 6.36942 0
M  V30 2230 C 213.395 -0.391394 6.09845 0
M  V30 2231 C 214.393 0.252029 6.82535 0
M  V30 2232 O 214.081 0.897757 7.98871 0
M  V30 2233 H 213.813 -0.255188 0.625983 0
M  V30 2234 H 216.367 -0.135653 2.04952 0
M  V30 2235 H 214.597 -2.53846 2.91718 0
M  V30 2236 H 216.286 -2.36533 3.29859 0
M  V30 2237 H 217.052 -0.412195 4.83245 0
M  V30 2238 H 212.931 -1.53777 4.34596 0
M  V30 2239 H 216.475 0.744375 6.93617 0
M  V30 2240 H 212.372 -0.387656 6.44335 0
M  V30 2241 H 213.14 0.800102 8.1458 0
M  V30 2242 N 215.803 -1.52179 -0.40978 0
M  V30 2243 C 217.219 -1.40968 -0.74835 0
M  V30 2244 C 217.419 -0.513657 -1.94843 0
M  V30 2245 O 216.475 0.0208026 -2.52491 0
M  V30 2246 C 217.788 -2.83483 -1.0029 0
M  V30 2247 C 219.336 -2.92821 -1.10565 0
M  V30 2248 C 219.811 -4.36303 -1.39296 0
M  V30 2249 N 221.302 -4.39535 -1.46162 0
M  V30 2250 C 222.037 -5.47614 -1.70018 0
M  V30 2251 N 221.533 -6.65812 -1.91483 0
M  V30 2252 N 223.326 -5.35129 -1.72027 0
M  V30 2253 H 215.477 -2.0897 0.380186 0
M  V30 2254 H 217.74 -0.94185 0.107805 0
M  V30 2255 H 217.446 -3.51168 -0.193461 0
M  V30 2256 H 217.32 -3.24487 -1.92323 0
M  V30 2257 H 219.707 -2.25318 -1.90568 0
M  V30 2258 H 219.788 -2.55276 -0.16369 0
M  V30 2259 H 219.432 -5.04366 -0.598109 0
M  V30 2260 H 219.362 -4.71385 -2.34743 0
M  V30 2261 H 221.853 -3.54332 -1.31367 0
M  V30 2262 H 222.166 -7.43964 -2.09134 0
M  V30 2263 H 220.511 -6.68879 -1.88749 0
M  V30 2264 H 223.702 -4.41764 -1.54796 0
M  V30 2265 H 223.875 -6.19433 -1.9028 0
M  V30 2266 N 217.281 0.66697 -1.42791 0
M  V30 2267 C 218.191 1.80962 -1.49299 0
M  V30 2268 C 219.207 1.69775 -0.381108 0
M  V30 2269 O 220.383 1.91188 -0.633188 0
M  V30 2270 C 217.448 3.17156 -1.40045 0
M  V30 2271 C 216.509 3.40242 -2.6179 0
M  V30 2272 C 215.742 4.69939 -2.52969 0
M  V30 2273 O 215.965 5.48372 -1.56985 0
M  V30 2274 O 214.899 4.94441 -3.43237 0
M  V30 2275 H 218.725 1.78427 -2.45759 0
M  V30 2276 H 216.31 0.823713 -1.24641 0
M  V30 2277 H 218.192 3.98413 -1.37276 0
M  V30 2278 H 216.867 3.20312 -0.467138 0
M  V30 2279 H 215.774 2.58802 -2.70134 0
M  V30 2280 H 217.107 3.41923 -3.54047 0
M  V30 2281 N 218.759 1.29093 0.90403 0
M  V30 2282 C 219.706 1.13853 2.00764 0
M  V30 2283 C 220.676 0.0330084 1.66067 0
M  V30 2284 O 221.861 0.199733 1.89752 0
M  V30 2285 C 219.001 0.816537 3.35301 0
M  V30 2286 C 218.114 2.00206 3.82807 0
M  V30 2287 C 217.249 1.61983 5.059 0
M  V30 2288 C 216.288 2.77143 5.45764 0
M  V30 2289 N 215.425 2.39346 6.60044 0
M  V30 2290 H 220.265 2.08276 2.13132 0
M  V30 2291 H 217.802 1.03648 1.04381 0
M  V30 2292 H 219.76 0.610557 4.12708 0
M  V30 2293 H 218.39 -0.090779 3.22672 0
M  V30 2294 H 217.442 2.31988 3.01473 0
M  V30 2295 H 218.754 2.86512 4.08304 0
M  V30 2296 H 217.908 1.37649 5.90879 0
M  V30 2297 H 216.647 0.728202 4.82233 0
M  V30 2298 H 215.652 3.02165 4.59322 0
M  V30 2299 H 216.877 3.66964 5.71414 0
M  V30 2300 H 214.823 1.52665 6.37989 0
M  V30 2301 H 214.74 3.19185 6.85315 0
M  V30 2302 H 216.008 2.1832 7.48303 0
M  V30 2303 N 220.237 -1.11381 1.11499 0
M  V30 2304 C 221.462 -1.87475 0.887019 0
M  V30 2305 C 221.887 -1.79639 -0.557796 0
M  V30 2306 O 221.245 -1.15924 -1.39396 0
M  V30 2307 C 221.293 -3.34213 1.35403 0
M  V30 2308 O 220.397 -4.0903 0.526146 0
M  V30 2309 H 219.738 -0.582099 0.319463 0
M  V30 2310 H 222.268 -1.40785 1.48461 0
M  V30 2311 H 222.278 -3.8506 1.34881 0
M  V30 2312 H 220.953 -3.39232 2.40612 0
M  V30 2313 H 219.53 -3.68082 0.597522 0
M  V30 2314 N 221.715 -0.905404 -1.28997 0
M  V30 2315 C 222.645 -0.404212 -2.29975 0
M  V30 2316 C 223.626 0.523784 -1.61835 0
M  V30 2317 O 224.811 0.433298 -1.89304 0
M  V30 2318 C 221.941 0.364042 -3.45387 0
M  V30 2319 C 220.895 -0.474048 -4.25367 0
M  V30 2320 C 220.221 0.422045 -5.33032 0
M  V30 2321 C 221.521 -1.72696 -4.92923 0
M  V30 2322 H 223.215 -1.24807 -2.72146 0
M  V30 2323 H 220.761 -0.601585 -1.30832 0
M  V30 2324 H 222.714 0.725447 -4.15109 0
M  V30 2325 H 221.438 1.24174 -3.02074 0
M  V30 2326 H 220.097 -0.81786 -3.57361 0
M  V30 2327 H 219.745 1.29804 -4.85963 0
M  V30 2328 H 219.445 -0.135057 -5.87445 0
M  V30 2329 H 220.969 0.779517 -6.05604 0
M  V30 2330 H 222.383 -1.43495 -5.55051 0
M  V30 2331 H 220.78 -2.22582 -5.57295 0
M  V30 2332 H 221.85 -2.45964 -4.17887 0
M  V30 2333 N 223.193 1.4272 -0.668489 0
M  V30 2334 C 224.423 2.05668 -0.196063 0
M  V30 2335 C 224.831 1.5028 1.14946 0
M  V30 2336 O 224.174 0.6348 1.72383 0
M  V30 2337 C 224.236 3.59469 -0.0468879 0
M  V30 2338 C 223.9 4.37518 -1.32012 0
M  V30 2339 C 224.897 4.68584 -2.25222 0
M  V30 2340 C 222.582 4.77266 -1.56596 0
M  V30 2341 C 224.576 5.38326 -3.41297 0
M  V30 2342 C 222.263 5.4675 -2.72962 0
M  V30 2343 C 223.261 5.77204 -3.65137 0
M  V30 2344 O 222.949 6.45264 -4.79468 0
M  V30 2345 H 222.681 0.669382 -0.0943599 0
M  V30 2346 H 225.235 1.83954 -0.913788 0
M  V30 2347 H 223.465 3.79817 0.726357 0
M  V30 2348 H 225.154 4.04071 0.384852 0
M  V30 2349 H 225.92 4.38382 -2.07477 0
M  V30 2350 H 221.799 4.52959 -0.857249 0
M  V30 2351 H 225.343 5.62014 -4.13263 0
M  V30 2352 H 221.24 5.76369 -2.90635 0
M  V30 2353 H 222.008 6.63753 -4.78931 0
M  V30 2354 N 224.671 0.411399 1.52136 0
M  V30 2355 C 225.919 -0.163322 2.01439 0
M  V30 2356 C 226.24 -1.45453 1.29879 0
M  V30 2357 O 225.51 -1.91225 0.4254 0
M  V30 2358 H 224.09 -0.0633447 0.744309 0
M  V30 2359 H 226.752 0.548161 1.87033 0
M  V30 2360 H 225.848 -0.357817 3.10042 0
M  V30 2361 N 226.149 -1.5696 0.141893 0
M  V30 2362 C 227.426 -1.87553 -0.555281 0
M  V30 2363 C 227.806 -1.04699 -1.83306 0
M  V30 2364 O 227.154 -0.132346 -2.28116 0
M  V30 2365 C 227.364 -3.39093 -0.825664 0
M  V30 2366 C 228.712 -4.08199 -1.16869 0
M  V30 2367 O 229.736 -3.44242 -0.915185 0
M  V30 2368 O 228.595 -5.21139 -1.6455 0
M  V30 2369 H 225.689 -0.777188 -0.282679 0
M  V30 2370 H 228.235 -1.68763 0.17812 0
M  V30 2371 H 227.007 -3.91221 0.0788633 0
M  V30 2372 H 226.63 -3.63393 -1.61343 0
M  V30 2373 N 227.627 0.131896 -1.57047 0
M  V30 2374 C 228.904 0.871495 -1.75112 0
M  V30 2375 C 229.284 1.9866 -0.713949 0
M  V30 2376 O 228.632 2.26965 0.264447 0
M  V30 2377 C 228.842 1.40007 -3.19686 0
M  V30 2378 C 230.19 1.85752 -3.81813 0
M  V30 2379 O 231.214 1.49715 -3.23209 0
M  V30 2380 O 230.073 2.5226 -4.84796 0
M  V30 2381 H 227.167 0.412919 -0.716538 0
M  V30 2382 H 229.713 0.116641 -1.69299 0
M  V30 2383 H 228.485 0.599404 -3.86682 0
M  V30 2384 H 228.108 2.218 -3.29986 0
M  V30 2385 N 229.106 1.52395 0.401703 0
M  V30 2386 C 230.036 1.79231 1.49661 0
M  V30 2387 C 231.017 0.643654 1.57452 0
M  V30 2388 O 232.202 0.889989 1.72606 0
M  V30 2389 C 229.332 1.94971 2.87409 0
M  V30 2390 C 228.286 3.10604 2.94465 0
M  V30 2391 C 227.612 3.11577 4.34538 0
M  V30 2392 C 228.912 4.49921 2.6527 0
M  V30 2393 H 230.606 2.70917 1.27454 0
M  V30 2394 H 228.152 1.30362 0.6117 0
M  V30 2395 H 230.105 2.12328 3.63999 0
M  V30 2396 H 228.829 0.999632 3.10926 0
M  V30 2397 H 227.488 2.93009 2.20321 0
M  V30 2398 H 227.136 2.14277 4.55076 0
M  V30 2399 H 226.836 3.89247 4.40183 0
M  V30 2400 H 228.36 3.31073 5.13053 0
M  V30 2401 H 229.774 4.67683 3.31581 0
M  V30 2402 H 228.171 5.29564 2.82281 0
M  V30 2403 H 229.241 4.57507 1.60671 0
M  V30 2404 N 230.584 -0.659388 1.43143 0
M  V30 2405 C 231.861 -1.41627 1.34912 0
M  V30 2406 C 232.241 -2.11099 -0.00607785 0
M  V30 2407 O 231.589 -2.04353 -1.02236 0
M  V30 2408 C 231.799 -2.40604 2.52805 0
M  V30 2409 C 233.147 -3.04789 2.95616 0
M  V30 2410 O 234.171 -2.50932 2.52807 0
M  V30 2411 O 233.03 -4.02421 3.69756 0
M  V30 2412 H 230.124 -0.63246 0.532844 0
M  V30 2413 H 232.67 -0.686814 1.5518 0
M  V30 2414 H 231.442 -1.88174 3.43083 0
M  V30 2415 H 231.065 -3.21009 2.34604 0
M  V30 2416 N 232.062 -1.29571 -0.897171 0
M  V30 2417 C 233.473 -1.15964 -1.46319 0
M  V30 2418 C 233.824 0.244267 -1.94674 0
M  V30 2419 O 232.949 1.13998 -1.83939 0
M  V30 2420 C 233.544 -2.09906 -2.65942 0
M  V30 2421 C 232.103 -2.00314 -3.18671 0
M  V30 2422 C 231.25 -2.00687 -1.91363 0
M  V30 2423 H 234.201 -1.42019 -0.708268 0
M  V30 2424 H 234.222 -1.67276 -3.41759 0
M  V30 2425 H 233.734 -3.12075 -2.30718 0
M  V30 2426 H 231.835 -1.01242 -3.58582 0
M  V30 2427 H 231.948 -2.88102 -3.82798 0
M  V30 2428 H 230.312 -1.45319 -2.09175 0
M  V30 2429 H 231.095 -3.04566 -1.58413 0
M  V30 2430 N 233.54 1.10788 -1.12088 0
M  V30 2431 C 234.77 1.86191 -0.895351 0
M  V30 2432 C 235.178 1.80763 0.558702 0
M  V30 2433 O 234.521 1.19188 1.39785 0
M  V30 2434 C 234.583 3.35659 -1.28737 0
M  V30 2435 C 234.247 3.64849 -2.75198 0
M  V30 2436 C 235.244 3.61757 -3.734 0
M  V30 2437 C 232.929 3.93641 -3.12013 0
M  V30 2438 C 234.923 3.87045 -5.06434 0
M  V30 2439 C 232.61 4.18585 -4.4523 0
M  V30 2440 C 233.608 4.15277 -5.42249 0
M  V30 2441 O 233.296 4.3959 -6.73065 0
M  V30 2442 H 233.028 0.595425 -0.32007 0
M  V30 2443 H 235.582 1.40992 -1.49367 0
M  V30 2444 H 233.812 3.81497 -0.63224 0
M  V30 2445 H 235.501 3.92441 -1.03656 0
M  V30 2446 H 236.267 3.39557 -3.46303 0
M  V30 2447 H 232.146 3.95348 -2.37109 0
M  V30 2448 H 235.69 3.84378 -5.82151 0
M  V30 2449 H 231.587 4.40264 -4.72057 0
M  V30 2450 H 232.355 4.57123 -6.78956 0
M  V30 2451 N 235.018 0.912232 1.28515 0
M  V30 2452 C 236.248 0.559604 1.98877 0
M  V30 2453 C 236.656 -0.863113 1.68366 0
M  V30 2454 O 235.999 -1.58304 0.931969 0
M  V30 2455 C 236.061 0.68703 3.52874 0
M  V30 2456 C 235.725 2.07901 4.06972 0
M  V30 2457 C 236.722 3.05157 4.20922 0
M  V30 2458 C 234.407 2.39178 4.417 0
M  V30 2459 C 236.401 4.31806 4.68852 0
M  V30 2460 C 234.088 3.66068 4.89324 0
M  V30 2461 C 235.086 4.62195 5.02856 0
M  V30 2462 O 234.774 5.86829 5.49442 0
M  V30 2463 H 234.506 0.212191 0.641834 0
M  V30 2464 H 237.06 1.22712 1.64715 0
M  V30 2465 H 235.29 -0.0375486 3.86682 0
M  V30 2466 H 236.979 0.341727 4.04459 0
M  V30 2467 H 237.745 2.82311 3.94367 0
M  V30 2468 H 233.624 1.65109 4.30418 0
M  V30 2469 H 237.168 5.06842 4.79329 0
M  V30 2470 H 233.065 3.88739 5.15318 0
M  V30 2471 H 233.833 5.89597 5.6773 0
M  V30 2472 N 236.496 -1.42363 0.676048 0
M  V30 2473 C 237.912 -1.55811 0.345718 0
M  V30 2474 C 238.112 -1.65544 -1.14879 0
M  V30 2475 O 237.168 -1.62306 -1.93424 0
M  V30 2476 C 238.481 -2.80746 1.07713 0
M  V30 2477 C 240.029 -2.9452 1.05958 0
M  V30 2478 C 240.504 -4.22318 1.77233 0
M  V30 2479 N 241.995 -4.29233 1.74108 0
M  V30 2480 C 242.73 -5.26935 2.26113 0
M  V30 2481 N 242.226 -6.30783 2.86505 0
M  V30 2482 N 244.019 -5.18741 2.1648 0
M  V30 2483 H 236.17 -1.34289 1.6456 0
M  V30 2484 H 238.433 -0.646506 0.69335 0
M  V30 2485 H 238.139 -2.79696 2.13221 0
M  V30 2486 H 238.013 -3.71676 0.64316 0
M  V30 2487 H 240.4 -2.95097 0.0128255 0
M  V30 2488 H 240.481 -2.04817 1.53244 0
M  V30 2489 H 240.125 -4.22502 2.81877 0
M  V30 2490 H 240.055 -5.10958 1.27396 0
M  V30 2491 H 242.546 -3.54814 1.30059 0
M  V30 2492 H 242.859 -7.01691 3.23805 0
M  V30 2493 H 241.204 -6.31341 2.90575 0
M  V30 2494 H 244.395 -4.36533 1.68987 0
M  V30 2495 H 244.568 -5.94721 2.57316 0
M  V30 2496 N 237.974 -0.419461 -1.51915 0
M  V30 2497 C 239.222 0.152637 -2.01523 0
M  V30 2498 C 239.543 1.44762 -1.30649 0
M  V30 2499 O 238.813 1.90997 -0.435535 0
M  V30 2500 H 237.393 0.0593966 -0.744635 0
M  V30 2501 H 240.055 -0.558073 -1.86739 0
M  V30 2502 H 239.151 0.341369 -3.10227 0
M  V30 2503 N 239.452 1.56882 -0.150215 0
M  V30 2504 C 240.677 2.01027 0.510184 0
M  V30 2505 C 241.102 1.02966 1.57415 0
M  V30 2506 O 240.46 0.00590158 1.81299 0
M  V30 2507 C 240.508 3.43899 1.08472 0
M  V30 2508 O 239.612 3.4885 2.19948 0
M  V30 2509 H 238.953 0.652233 0.124451 0
M  V30 2510 H 241.483 2.03093 -0.247894 0
M  V30 2511 H 241.493 3.82766 1.41259 0
M  V30 2512 H 240.168 4.14776 0.305582 0
M  V30 2513 H 238.745 3.21827 1.88366 0
M  V30 2514 N 240.93 -0.123565 1.57115 0
M  V30 2515 C 241.88 -1.1575 1.96433 0
M  V30 2516 C 242.864 -1.37313 0.838686 0
M  V30 2517 O 244.056 -1.38482 1.10235 0
M  V30 2518 C 241.185 -2.48526 2.36833 0
M  V30 2519 C 240.271 -2.30457 3.5602 0
M  V30 2520 N 240.662 -1.8219 4.71848 0
M  V30 2521 C 238.96 -2.61129 3.61563 0
M  V30 2522 C 239.661 -1.77721 5.53886 0
M  V30 2523 N 238.637 -2.21899 4.96248 0
M  V30 2524 H 242.439 -0.776797 2.83449 0
M  V30 2525 H 239.953 -0.331364 1.58983 0
M  V30 2526 H 241.95 -3.233 2.63216 0
M  V30 2527 H 240.61 -2.87358 1.5118 0
M  V30 2528 H 241.621 -1.51805 4.95152 0
M  V30 2529 H 238.298 -3.03678 2.86507 0
M  V30 2530 H 239.688 -1.41697 6.56789 0
M  V30 2531 N 242.408 -1.52605 -0.393616 0
M  V30 2532 C 243.371 -1.76415 -1.46323 0
M  V30 2533 C 244.371 -0.634126 -1.47768 0
M  V30 2534 O 245.561 -0.902142 -1.4902 0
M  V30 2535 C 242.693 -1.8607 -2.85641 0
M  V30 2536 H 243.886 -2.71916 -1.26498 0
M  V30 2537 H 241.439 -1.43257 -0.625073 0
M  V30 2538 H 242.174 -0.925378 -3.10817 0
M  V30 2539 H 241.959 -2.68235 -2.85993 0
M  V30 2540 H 243.449 -2.06179 -3.63153 0
M  V30 2541 N 243.887 0.651787 -1.4349 0
M  V30 2542 C 244.85 1.74647 -1.48429 0
M  V30 2543 C 245.85 1.56513 -0.368817 0
M  V30 2544 O 247.04 1.62385 -0.630623 0
M  V30 2545 C 244.172 3.13533 -1.33827 0
M  V30 2546 H 245.365 1.71649 -2.4592 0
M  V30 2547 H 242.918 0.863573 -1.30277 0
M  V30 2548 H 243.653 3.22142 -0.37349 0
M  V30 2549 H 243.438 3.28101 -2.14691 0
M  V30 2550 H 244.928 3.93356 -1.40218 0
M  V30 2551 N 245.365 1.30045 0.890287 0
M  V30 2552 C 246.312 1.15976 1.99545 0
M  V30 2553 C 247.282 0.0506202 1.66023 0
M  V30 2554 O 248.467 0.219847 1.89529 0
M  V30 2555 C 245.607 0.852054 3.34416 0
M  V30 2556 C 244.72 2.04255 3.80662 0
M  V30 2557 C 243.855 1.6734 5.04154 0
M  V30 2558 C 242.894 2.82916 5.42794 0
M  V30 2559 N 242.031 2.46333 6.57468 0
M  V30 2560 H 246.871 2.10524 2.10911 0
M  V30 2561 H 244.408 1.04749 1.03276 0
M  V30 2562 H 246.366 0.654296 4.12037 0
M  V30 2563 H 244.996 -0.0565502 3.2275 0
M  V30 2564 H 244.048 2.35172 2.98995 0
M  V30 2565 H 245.36 2.90826 4.05242 0
M  V30 2566 H 244.514 1.43908 5.89386 0
M  V30 2567 H 243.253 0.779308 4.81433 0
M  V30 2568 H 242.258 3.0702 4.56091 0
M  V30 2569 H 243.483 3.73004 5.6749 0
M  V30 2570 H 241.429 1.59423 6.36334 0
M  V30 2571 H 241.346 3.26436 6.81891 0
M  V30 2572 H 242.614 2.26244 7.45945 0
M  V30 2573 N 246.843 -1.10192 1.12674 0
M  V30 2574 C 247.775 -2.16418 0.754701 0
M  V30 2575 C 248.788 -1.61309 -0.21986 0
M  V30 2576 O 249.977 -1.785 -0.000826841 0
M  V30 2577 C 247.077 -3.38762 0.096698 0
M  V30 2578 C 246.25 -4.23307 1.10136 0
M  V30 2579 C 245.309 -5.24092 0.470513 0
M  V30 2580 O 244.335 -5.57906 1.12824 0
M  V30 2581 N 245.537 -5.75491 -0.760948 0
M  V30 2582 H 248.302 -2.48943 1.66875 0
M  V30 2583 H 245.863 -1.25834 1.01869 0
M  V30 2584 H 247.855 -4.03291 -0.337384 0
M  V30 2585 H 246.425 -3.04192 -0.720153 0
M  V30 2586 H 245.645 -3.55036 1.71299 0
M  V30 2587 H 246.933 -4.76624 1.78064 0
M  V30 2588 H 246.331 -5.50222 -1.31424 0
M  V30 2589 H 244.888 -6.41792 -1.13781 0
M  V30 2590 N 248.321 -0.919034 -1.28029 0
M  V30 2591 C 249.269 -0.401753 -2.29104 0
M  V30 2592 C 250.263 0.509354 -1.61561 0
M  V30 2593 O 251.469 0.390014 -1.75724 0
M  V30 2594 H 247.844 -0.111331 -0.743713 0
M  V30 2595 H 249.815 -1.2672 -2.70156 0
M  V30 2596 C 248.564 0.338148 -3.46052 0
M  V30 2597 H 247.887 -0.353732 -3.98232 0
M  V30 2598 H 249.327 0.664653 -4.18758 0
M  V30 2599 C 247.786 1.54798 -2.99231 0
M  V30 2600 O 248.316 2.64696 -3.02157 0
M  V30 2601 N 246.522 1.3968 -2.54829 0
M  V30 2602 H 246.069 0.502698 -2.52647 0
M  V30 2603 H 246.027 2.20755 -2.23863 0
M  V30 2604 N 249.799 1.42003 -0.683588 0
M  V30 2605 C 251.047 2.01015 -0.209101 0
M  V30 2606 C 251.368 1.54365 1.19149 0
M  V30 2607 O 250.638 0.769083 1.80172 0
M  V30 2608 H 249.218 0.743294 -0.074315 0
M  V30 2609 H 251.88 1.73798 -0.882066 0
M  V30 2610 H 250.976 3.11343 -0.2172 0
M  V30 2611 N 251.277 0.427512 1.51691 0
M  V30 2612 C 252.227 -0.406604 2.24345 0
M  V30 2613 C 253.211 -0.998276 1.26187 0
M  V30 2614 O 254.403 -0.918045 1.51331 0
M  V30 2615 C 251.532 -1.51266 3.08177 0
M  V30 2616 C 250.618 -0.930868 4.13758 0
M  V30 2617 N 251.009 -0.0773552 5.05741 0
M  V30 2618 C 249.307 -1.19948 4.29568 0
M  V30 2619 C 250.008 0.248344 5.8117 0
M  V30 2620 N 248.984 -0.365535 5.4237 0
M  V30 2621 H 252.786 0.251581 2.92821 0
M  V30 2622 H 250.3 0.239003 1.60632 0
M  V30 2623 H 252.297 -2.123 3.58796 0
M  V30 2624 H 250.957 -2.17328 2.41244 0
M  V30 2625 H 251.968 0.288351 5.17097 0
M  V30 2626 H 248.645 -1.85832 3.73862 0
M  V30 2627 H 250.035 0.942286 6.6526 0
M  V30 2628 N 252.755 -1.56801 0.158532 0
M  V30 2629 C 254.001 -1.96781 -0.490405 0
M  V30 2630 C 254.334 -1.04397 -1.63753 0
M  V30 2631 O 253.609 -0.0885805 -1.94298 0
M  V30 2632 C 253.892 -3.4635 -0.985594 0
M  V30 2633 C 253.745 -4.49512 0.160824 0
M  V30 2634 C 255.064 -3.98697 -1.86355 0
M  V30 2635 H 252.183 -0.715482 -0.176788 0
M  V30 2636 H 254.825 -1.88451 0.242088 0
M  V30 2637 H 252.975 -3.53579 -1.60978 0
M  V30 2638 H 254.647 -4.54353 0.797537 0
M  V30 2639 H 252.89 -4.26013 0.818256 0
M  V30 2640 H 253.561 -5.51531 -0.227569 0
M  V30 2641 H 256.037 -3.94019 -1.33746 0
M  V30 2642 H 254.913 -5.03792 -2.17909 0
M  V30 2643 H 255.174 -3.41744 -2.8047 0
M  V30 2644 N 254.233 0.115231 -1.57178 0
M  V30 2645 C 255.166 1.17166 -1.95825 0
M  V30 2646 C 256.144 1.39912 -0.828463 0
M  V30 2647 O 257.328 1.54004 -1.08697 0
M  V30 2648 C 254.455 2.52478 -2.25771 0
M  V30 2649 C 253.501 2.46136 -3.48309 0
M  V30 2650 S 254.334 1.89736 -5.0076 0
M  V30 2651 C 255.49 3.26713 -5.33863 0
M  V30 2652 H 255.723 0.842103 -2.85124 0
M  V30 2653 H 253.256 0.322136 -1.51002 0
M  V30 2654 H 255.214 3.30332 -2.43702 0
M  V30 2655 H 253.875 2.82609 -1.37079 0
M  V30 2656 H 253.068 3.45819 -3.66641 0
M  V30 2657 H 252.67 1.76404 -3.29784 0
M  V30 2658 H 254.962 4.22935 -5.29275 0
M  V30 2659 H 255.905 3.13205 -6.35065 0
M  V30 2660 H 256.313 3.25316 -4.61335 0
M  V30 2661 N 255.711 1.52812 0.385517 0
M  V30 2662 C 256.658 1.77838 1.47113 0
M  V30 2663 C 257.628 0.621757 1.54024 0
M  V30 2664 O 258.813 0.861846 1.70226 0
M  V30 2665 C 255.953 1.95618 2.84302 0
M  V30 2666 C 255.066 3.23316 2.86515 0
M  V30 2667 C 254.201 3.31394 4.15152 0
M  V30 2668 C 253.24 4.53201 4.1143 0
M  V30 2669 N 252.377 4.58542 5.3168 0
M  V30 2670 H 257.217 2.70482 1.25073 0
M  V30 2671 H 254.754 1.34006 0.606692 0
M  V30 2672 H 256.712 2.03912 3.63972 0
M  V30 2673 H 255.342 1.06331 3.04784 0
M  V30 2674 H 254.394 3.24076 1.99195 0
M  V30 2675 H 255.706 4.13045 2.79634 0
M  V30 2676 H 254.86 3.3889 5.03228 0
M  V30 2677 H 253.599 2.39645 4.24761 0
M  V30 2678 H 252.604 4.45827 3.21742 0
M  V30 2679 H 253.829 5.46271 4.03442 0
M  V30 2680 H 251.775 3.69686 5.41912 0
M  V30 2681 H 251.692 5.42148 5.26889 0
M  V30 2682 H 252.96 4.70296 6.21644 0
M  V30 2683 N 257.189 -0.644168 1.43834 0
M  V30 2684 C 258.122 -1.76906 1.44151 0
M  V30 2685 C 259.1 -1.59774 0.301857 0
M  V30 2686 O 260.284 -1.81834 0.496841 0
M  V30 2687 C 257.411 -3.14321 1.26174 0
M  V30 2688 C 256.457 -3.50134 2.43533 0
M  V30 2689 S 257.29 -3.49085 4.06079 0
M  V30 2690 C 258.446 -4.89142 3.90501 0
M  V30 2691 H 258.679 -1.76368 2.39336 0
M  V30 2692 H 256.212 -0.817624 1.30974 0
M  V30 2693 H 258.17 -3.93625 1.16489 0
M  V30 2694 H 256.831 -3.12412 0.325224 0
M  V30 2695 H 256.024 -4.50095 2.26783 0
M  V30 2696 H 255.626 -2.78264 2.4989 0
M  V30 2697 H 257.918 -5.78036 3.53385 0
M  V30 2698 H 258.861 -5.10945 4.90246 0
M  V30 2699 H 259.269 -4.63102 3.22795 0
M  V30 2700 N 258.668 -1.30515 -0.883378 0
M  V30 2701 C 259.615 -1.17032 -1.98927 0
M  V30 2702 C 260.585 -0.0594241 -1.65994 0
M  V30 2703 O 261.77 -0.229895 -1.8941 0
M  V30 2704 C 258.91 -0.869777 -3.33959 0
M  V30 2705 C 258.023 -2.06271 -3.79574 0
M  V30 2706 C 257.158 -1.70011 -5.03259 0
M  V30 2707 C 256.197 -2.8579 -5.41286 0
M  V30 2708 N 255.334 -2.49816 -6.56153 0
M  V30 2709 H 260.174 -2.1164 -2.09792 0
M  V30 2710 H 257.711 -1.05296 -1.02719 0
M  V30 2711 H 259.669 -0.676138 -4.11685 0
M  V30 2712 H 258.299 0.0394332 -3.22776 0
M  V30 2713 H 257.351 -2.36755 -2.97744 0
M  V30 2714 H 258.663 -2.92971 -4.03694 0
M  V30 2715 H 257.817 -1.47032 -5.88614 0
M  V30 2716 H 256.556 -0.804829 -4.81013 0
M  V30 2717 H 255.561 -3.09434 -4.54456 0
M  V30 2718 H 256.786 -3.76008 -5.65504 0
M  V30 2719 H 254.732 -1.62795 -6.35479 0
M  V30 2720 H 254.649 -3.30048 -6.8015 0
M  V30 2721 H 255.917 -2.30197 -7.44735 0
M  V30 2722 N 260.146 1.09593 -1.13257 0
M  V30 2723 C 261.096 2.14345 -0.777179 0
M  V30 2724 C 262.08 1.59277 0.227966 0
M  V30 2725 O 263.272 1.76971 0.0321413 0
M  V30 2726 C 260.401 3.42439 -0.242991 0
M  V30 2727 C 259.487 4.04419 -1.27694 0
M  V30 2728 N 259.878 4.40979 -2.47732 0
M  V30 2729 C 258.176 4.31596 -1.12432 0
M  V30 2730 C 258.877 4.89784 -3.13826 0
M  V30 2731 N 257.853 4.87133 -2.41252 0
M  V30 2732 H 261.655 2.40415 -1.69049 0
M  V30 2733 H 259.169 1.26803 -1.01463 0
M  V30 2734 H 261.166 4.16889 0.0298496 0
M  V30 2735 H 259.826 3.17824 0.66467 0
M  V30 2736 H 260.837 4.32396 -2.85051 0
M  V30 2737 H 257.514 4.16595 -0.274684 0
M  V30 2738 H 258.904 5.2755 -4.16102 0
M  V30 2739 N 261.624 0.925811 1.2754 0
M  V30 2740 C 262.872 0.564138 1.94067 0
M  V30 2741 C 263.193 -0.897188 1.73134 0
M  V30 2742 O 262.463 -1.63573 1.07799 0
M  V30 2743 H 261.043 0.205645 0.718136 0
M  V30 2744 H 263.705 1.1778 1.55287 0
M  V30 2745 H 262.801 0.76881 3.02483 0
M  V30 2746 N 263.102 -1.41638 0.69111 0
M  V30 2747 C 264.012 -2.34588 0.0233487 0
M  V30 2748 C 265.028 -1.55987 -0.770984 0
M  V30 2749 O 266.204 -1.88486 -0.709569 0
M  V30 2750 C 263.269 -3.34684 -0.904851 0
M  V30 2751 C 262.33 -4.29176 -0.103225 0
M  V30 2752 C 261.563 -5.2449 -0.987216 0
M  V30 2753 O 261.786 -5.2514 -2.22674 0
M  V30 2754 O 260.72 -6.00295 -0.439281 0
M  V30 2755 H 264.546 -2.93261 0.789416 0
M  V30 2756 H 262.131 -1.42417 0.45142 0
M  V30 2757 H 264.013 -3.96133 -1.43724 0
M  V30 2758 H 262.688 -2.78461 -1.65049 0
M  V30 2759 H 261.595 -3.71089 0.473655 0
M  V30 2760 H 262.928 -4.88484 0.60365 0
M  V30 2761 N 264.58 -0.43555 -1.51462 0
M  V30 2762 C 265.543 0.365137 -2.26273 0
M  V30 2763 C 266.543 0.951227 -1.29647 0
M  V30 2764 O 267.733 0.825958 -1.53374 0
M  V30 2765 C 264.865 1.51645 -3.05314 0
M  V30 2766 H 266.058 -0.290474 -2.9849 0
M  V30 2767 H 263.611 -0.188676 -1.55157 0
M  V30 2768 H 264.346 2.20816 -2.3751 0
M  V30 2769 H 264.131 1.10238 -3.76284 0
M  V30 2770 H 265.621 2.08218 -3.61987 0
M  V30 2771 N 266.058 1.56714 -0.166846 0
M  V30 2772 C 267.288 2.00828 0.48494 0
M  V30 2773 C 267.696 1.04612 1.57648 0
M  V30 2774 O 267.039 0.0383201 1.8366 0
M  V30 2775 C 267.101 3.4137 1.12723 0
M  V30 2776 C 266.765 4.56654 0.177886 0
M  V30 2777 C 267.762 5.16402 -0.60207 0
M  V30 2778 C 265.447 5.02244 0.0750139 0
M  V30 2779 C 267.441 6.20167 -1.47215 0
M  V30 2780 C 265.128 6.05859 -0.798649 0
M  V30 2781 C 266.126 6.64691 -1.57082 0
M  V30 2782 O 265.814 7.66297 -2.42989 0
M  V30 2783 H 265.546 0.663587 0.128953 0
M  V30 2784 H 268.1 2.03692 -0.264365 0
M  V30 2785 H 266.33 3.35406 1.92457 0
M  V30 2786 H 268.019 3.69466 1.68076 0
M  V30 2787 H 268.785 4.82065 -0.53274 0
M  V30 2788 H 264.664 4.56167 0.665812 0
M  V30 2789 H 268.208 6.66016 -2.07531 0
M  V30 2790 H 264.105 6.39621 -0.869199 0
M  V30 2791 H 264.873 7.83601 -2.36455 0
M  V30 2792 N 267.536 -0.106894 1.57237 0
M  V30 2793 C 268.766 -0.825191 1.89405 0
M  V30 2794 C 269.174 -1.73374 0.757496 0
M  V30 2795 O 268.517 -1.81552 -0.280115 0
M  V30 2796 C 268.579 -1.70102 3.1671 0
M  V30 2797 C 268.243 -0.965523 4.46684 0
M  V30 2798 C 269.24 -0.300741 5.19029 0
M  V30 2799 C 266.925 -0.943105 4.93367 0
M  V30 2800 C 268.919 0.376622 6.36286 0
M  V30 2801 C 266.606 -0.261949 6.10538 0
M  V30 2802 C 267.604 0.396748 6.81847 0
M  V30 2803 O 267.292 1.06701 7.96787 0
M  V30 2804 H 267.024 -0.241852 0.631255 0
M  V30 2805 H 269.578 -0.0921491 2.05193 0
M  V30 2806 H 267.808 -2.47601 2.97036 0
M  V30 2807 H 269.497 -2.29483 3.34802 0
M  V30 2808 H 270.263 -0.309599 4.84011 0
M  V30 2809 H 266.142 -1.44524 4.3776 0
M  V30 2810 H 269.686 0.891334 6.91882 0
M  V30 2811 H 265.583 -0.250896 6.45012 0
M  V30 2812 H 266.351 0.972707 8.127 0
M  V30 2813 N 269.014 -1.53014 -0.377408 0
M  V30 2814 C 270.239 -1.72818 -1.14668 0
M  V30 2815 C 270.664 -0.450725 -1.8262 0
M  V30 2816 O 270.022 0.59439 -1.7128 0
M  V30 2817 C 270.07 -2.88627 -2.16164 0
M  V30 2818 O 269.174 -2.56409 -3.22998 0
M  V30 2819 H 268.515 -0.574301 -0.333278 0
M  V30 2820 H 271.045 -1.99853 -0.438152 0
M  V30 2821 H 271.055 -3.14455 -2.59966 0
M  V30 2822 H 269.73 -3.81294 -1.66095 0
M  V30 2823 H 268.307 -2.4136 -2.84253 0
M  V30 2824 N 270.492 0.636531 -1.44174 0
M  V30 2825 C 271.402 1.77754 -1.53103 0
M  V30 2826 C 272.418 1.68928 -0.417034 0
M  V30 2827 O 273.594 1.89801 -0.6736 0
M  V30 2828 C 270.659 3.14115 -1.46741 0
M  V30 2829 C 269.72 3.34612 -2.68948 0
M  V30 2830 C 268.953 4.64467 -2.6288 0
M  V30 2831 O 269.176 5.44919 -1.68581 0
M  V30 2832 O 268.11 4.87049 -3.53648 0
M  V30 2833 H 271.936 1.73174 -2.49489 0
M  V30 2834 H 269.521 0.79709 -1.2636 0
M  V30 2835 H 271.403 3.95412 -1.45696 0
M  V30 2836 H 270.078 3.19249 -0.534975 0
M  V30 2837 H 268.985 2.53014 -2.75562 0
M  V30 2838 H 270.318 3.34336 -3.61221 0
M  V30 2839 N 271.97 1.30982 0.876444 0
M  V30 2840 C 273.216 1.20474 1.63138 0
M  V30 2841 C 273.549 -0.238096 1.92735 0
M  V30 2842 O 272.824 -1.1692 1.55435 0
M  V30 2843 C 273.107 2.04244 2.96574 0
M  V30 2844 C 272.96 3.56793 2.73896 0
M  V30 2845 C 274.279 1.88684 3.97601 0
M  V30 2846 H 271.398 0.439001 0.591985 0
M  V30 2847 H 274.04 1.60704 1.01361 0
M  V30 2848 H 272.19 1.70063 3.493 0
M  V30 2849 H 273.862 4.01077 2.27892 0
M  V30 2850 H 272.105 3.80548 2.08245 0
M  V30 2851 H 272.776 4.10706 3.68815 0
M  V30 2852 H 275.252 2.18584 3.54062 0
M  V30 2853 H 274.128 2.4961 4.88862 0
M  V30 2854 H 274.389 0.848343 4.33884 0
M  V30 2855 N 273.449 -1.08991 1.13837 0
M  V30 2856 C 274.396 -2.15748 0.819835 0
M  V30 2857 C 275.366 -1.64636 -0.220026 0
M  V30 2858 O 276.551 -1.90582 -0.0912757 0
M  V30 2859 C 273.691 -3.4382 0.296913 0
M  V30 2860 C 272.804 -4.0881 1.39636 0
M  V30 2861 C 271.939 -5.24655 0.831314 0
M  V30 2862 C 270.978 -5.81575 1.90886 0
M  V30 2863 N 270.115 -6.88774 1.36142 0
M  V30 2864 H 274.955 -2.42338 1.73426 0
M  V30 2865 H 272.492 -1.18935 0.865613 0
M  V30 2866 H 274.45 -4.17193 -0.0244339 0
M  V30 2867 H 273.08 -3.17535 -0.580628 0
M  V30 2868 H 272.132 -3.33258 1.83422 0
M  V30 2869 H 273.444 -4.47141 2.21058 0
M  V30 2870 H 272.598 -6.04942 0.461515 0
M  V30 2871 H 271.337 -4.87698 -0.013932 0
M  V30 2872 H 270.342 -4.99946 2.28767 0
M  V30 2873 H 271.567 -6.20592 2.75758 0
M  V30 2874 H 269.513 -6.53788 0.538254 0
M  V30 2875 H 269.43 -7.25898 2.11208 0
M  V30 2876 H 270.698 -7.72806 1.01933 0
M  V30 2877 N 274.927 -0.932562 -1.27047 0
M  V30 2878 C 276.338 -0.619451 -1.76124 0
M  V30 2879 C 276.689 0.865397 -1.76083 0
M  V30 2880 O 275.814 1.67722 -1.36742 0
M  V30 2881 C 276.409 -1.11771 -3.19832 0
M  V30 2882 C 274.968 -0.855174 -3.66557 0
M  V30 2883 C 274.115 -1.27362 -2.46321 0
M  V30 2884 H 277.066 -1.11181 -1.13245 0
M  V30 2885 H 277.087 -0.46759 -3.77616 0
M  V30 2886 H 276.599 -2.19842 -3.1983 0
M  V30 2887 H 274.7 0.211524 -3.71999 0
M  V30 2888 H 274.813 -1.47613 -4.55793 0
M  V30 2889 H 273.177 -0.692119 -2.45116 0
M  V30 2890 H 273.96 -2.36307 -2.49025 0
M  V30 2891 N 276.405 1.4127 -0.698611 0
M  V30 2892 C 277.335 2.33447 -0.049629 0
M  V30 2893 C 278.316 1.51982 0.763898 0
M  V30 2894 O 279.501 1.80509 0.716257 0
M  V30 2895 C 276.631 3.35828 0.885267 0
M  V30 2896 C 275.585 4.27627 0.178613 0
M  V30 2897 C 274.911 5.20406 1.22807 0
M  V30 2898 C 276.211 5.13459 -0.956933 0
M  V30 2899 H 277.905 2.87966 -0.81951 0
M  V30 2900 H 275.451 1.38461 -0.395538 0
M  V30 2901 H 277.404 3.9924 1.34854 0
M  V30 2902 H 276.128 2.79666 1.68685 0
M  V30 2903 H 274.787 3.65643 -0.26466 0
M  V30 2904 H 274.435 4.60558 2.02226 0
M  V30 2905 H 274.135 5.82661 0.760239 0
M  V30 2906 H 275.659 5.86695 1.69179 0
M  V30 2907 H 277.073 5.70421 -0.573805 0
M  V30 2908 H 275.47 5.8467 -1.35205 0
M  V30 2909 H 276.54 4.50443 -1.79524 0
M  V30 2910 N 277.883 0.443576 1.51229 0
M  V30 2911 C 278.83 -0.364716 2.279 0
M  V30 2912 C 279.8 -1.0114 1.31757 0
M  V30 2913 O 280.985 -1.02912 1.60667 0
M  V30 2914 C 278.125 -1.45644 3.12861 0
M  V30 2915 C 277.238 -0.827269 4.24005 0
M  V30 2916 C 276.373 -1.89456 4.96266 0
M  V30 2917 C 275.412 -1.24416 5.99322 0
M  V30 2918 N 274.549 -2.25309 6.64966 0
M  V30 2919 H 279.389 0.295464 2.96532 0
M  V30 2920 H 276.926 0.157554 1.46254 0
M  V30 2921 H 278.884 -2.10076 3.6045 0
M  V30 2922 H 277.514 -2.08616 2.46331 0
M  V30 2923 H 276.566 -0.0710839 3.80334 0
M  V30 2924 H 277.878 -0.312481 4.9782 0
M  V30 2925 H 277.032 -2.61535 5.47434 0
M  V30 2926 H 275.771 -2.4431 4.22095 0
M  V30 2927 H 274.776 -0.508868 5.4744 0
M  V30 2928 H 276.001 -0.702882 6.75453 0
M  V30 2929 H 273.947 -2.79231 5.93604 0
M  V30 2930 H 273.864 -1.78739 7.34567 0
M  V30 2931 H 275.132 -2.96853 7.20763 0
M  V30 2932 N 279.361 -1.56624 0.175154 0
M  V30 2933 C 280.586 -2.01813 -0.478137 0
M  V30 2934 C 281.011 -1.05457 -1.55757 0
M  V30 2935 O 280.369 -0.0347439 -1.81267 0
M  V30 2936 C 280.417 -3.45581 -1.02987 0
M  V30 2937 O 279.521 -3.52305 -2.14371 0
M  V30 2938 H 278.862 -0.65413 -0.114059 0
M  V30 2939 H 281.392 -2.02673 0.280173 0
M  V30 2940 H 281.402 -3.84965 -1.35151 0
M  V30 2941 H 280.077 -4.1521 -0.239556 0
M  V30 2942 H 278.654 -3.24783 -1.83222 0
M  V30 2943 N 280.839 0.0985539 -1.57292 0
M  V30 2944 C 282.116 0.834155 -1.76921 0
M  V30 2945 C 282.496 1.97101 -0.755928 0
M  V30 2946 O 281.844 2.27474 0.216245 0
M  V30 2947 C 282.054 1.33194 -3.22584 0
M  V30 2948 C 283.402 1.77611 -3.85668 0
M  V30 2949 O 284.426 1.42825 -3.26312 0
M  V30 2950 O 283.285 2.4192 -4.90038 0
M  V30 2951 H 280.379 0.397628 -0.725135 0
M  V30 2952 H 282.925 0.0807044 -1.69508 0
M  V30 2953 H 281.697 0.517248 -3.87866 0
M  V30 2954 H 281.32 2.1475 -3.34616 0
M  V30 2955 N 282.317 1.53212 0.369288 0
M  V30 2956 C 283.564 1.69215 1.11232 0
M  V30 2957 C 283.892 0.442048 1.8941 0
M  V30 2958 O 283.147 -0.575944 1.87033 0
M  V30 2959 C 283.446 2.89101 2.10132 0
M  V30 2960 C 283.112 4.25758 1.48463 0
M  V30 2961 C 281.774 4.6292 1.31372 0
M  V30 2962 C 284.126 5.10757 1.03811 0
M  V30 2963 C 281.454 5.82722 0.68207 0
M  V30 2964 C 283.806 6.31201 0.420487 0
M  V30 2965 C 282.47 6.67079 0.237038 0
M  V30 2966 H 281.74 0.619201 0.407027 0
M  V30 2967 H 284.387 1.87391 0.394552 0
M  V30 2968 H 282.692 2.65421 2.88199 0
M  V30 2969 H 284.389 2.98676 2.6757 0
M  V30 2970 H 280.979 3.96494 1.62758 0
M  V30 2971 H 285.163 4.82599 1.1581 0
M  V30 2972 H 280.419 6.09113 0.528316 0
M  V30 2973 H 284.593 6.96368 0.0662874 0
M  V30 2974 H 282.22 7.59774 -0.254477 0
M  V30 2975 N 283.795 -0.628877 1.44509 0
M  V30 2976 C 284.758 -1.72263 1.51188 0
M  V30 2977 C 285.758 -1.55907 0.39367 0
M  V30 2978 O 286.948 -1.61361 0.656377 0
M  V30 2979 C 284.08 -3.11365 1.38798 0
M  V30 2980 H 285.273 -1.67714 2.4862 0
M  V30 2981 H 282.826 -0.842737 1.31634 0
M  V30 2982 H 283.561 -3.21507 0.424693 0
M  V30 2983 H 283.346 -3.24644 2.19884 0
M  V30 2984 H 284.836 -3.91075 1.46458 0
M  V30 2985 N 285.273 -1.31445 -0.869486 0
M  V30 2986 C 286.689 -1.10113 -1.15531 0
M  V30 2987 C 286.889 0.128087 -2.01092 0
M  V30 2988 O 285.945 0.817276 -2.38908 0
M  V30 2989 C 287.258 -2.37291 -1.84698 0
M  V30 2990 C 288.806 -2.42906 -1.97397 0
M  V30 2991 C 289.281 -3.69967 -2.69979 0
M  V30 2992 N 290.772 -3.70864 -2.77514 0
M  V30 2993 C 291.507 -4.65875 -3.34287 0
M  V30 2994 N 291.003 -5.71242 -3.91988 0
M  V30 2995 N 292.796 -4.53394 -3.3225 0
M  V30 2996 H 284.947 -2.1028 -0.299347 0
M  V30 2997 H 287.21 -0.927683 -0.195214 0
M  V30 2998 H 286.916 -3.27078 -1.29278 0
M  V30 2999 H 286.79 -2.47125 -2.84972 0
M  V30 3000 H 289.177 -1.53588 -2.51982 0
M  V30 3001 H 289.258 -2.37036 -0.961643 0
M  V30 3002 H 288.902 -4.59652 -2.16062 0
M  V30 3003 H 288.832 -3.73103 -3.7162 0
M  V30 3004 H 291.323 -2.94697 -2.36563 0
M  V30 3005 H 291.636 -6.39817 -4.33421 0
M  V30 3006 H 289.981 -5.75015 -3.90362 0
M  V30 3007 H 293.172 -3.70252 -2.8641 0
M  V30 3008 H 293.345 -5.27617 -3.76197 0
M  V30 3009 N 286.751 1.08385 -1.14413 0
M  V30 3010 C 287.998 1.80776 -0.912482 0
M  V30 3011 C 288.326 1.86236 0.560934 0
M  V30 3012 O 287.581 1.33431 1.43159 0
M  V30 3013 C 287.88 3.26273 -1.45879 0
M  V30 3014 C 287.546 3.4093 -2.95089 0
M  V30 3015 C 286.208 3.44638 -3.35824 0
M  V30 3016 C 288.56 3.44591 -3.91033 0
M  V30 3017 C 285.888 3.49597 -4.71167 0
M  V30 3018 C 288.24 3.51086 -5.26233 0
M  V30 3019 C 286.904 3.53067 -5.6648 0
M  V30 3020 H 286.174 0.661507 -0.333901 0
M  V30 3021 H 288.821 1.27613 -1.42784 0
M  V30 3022 H 287.126 3.82146 -0.864376 0
M  V30 3023 H 288.823 3.80839 -1.2555 0
M  V30 3024 H 285.413 3.38736 -2.62594 0
M  V30 3025 H 289.597 3.40957 -3.60641 0
M  V30 3026 H 284.853 3.49424 -5.0171 0
M  V30 3027 H 289.027 3.52864 -6.00383 0
M  V30 3028 H 286.654 3.56662 -6.71339 0
M  V30 3029 N 288.23 0.939286 1.26551 0
M  V30 3030 C 289.455 0.602008 1.98471 0
M  V30 3031 C 289.88 -0.815624 1.69497 0
M  V30 3032 O 289.238 -1.54912 0.941905 0
M  V30 3033 C 289.286 0.848407 3.50477 0
M  V30 3034 O 288.39 -0.0804009 4.12322 0
M  V30 3035 H 287.731 0.23049 0.622712 0
M  V30 3036 H 290.261 1.2617 1.61066 0
M  V30 3037 H 290.271 0.768553 4.00696 0
M  V30 3038 H 288.946 1.88171 3.70897 0
M  V30 3039 H 287.523 0.0503508 3.72866 0
M  V30 3040 N 289.708 -1.40897 0.706093 0
M  V30 3041 C 290.671 -2.29131 0.0562841 0
M  V30 3042 C 291.671 -1.44901 -0.697166 0
M  V30 3043 O 292.861 -1.65926 -0.530484 0
M  V30 3044 C 289.993 -3.27957 -0.93043 0
M  V30 3045 H 291.186 -2.88091 0.833284 0
M  V30 3046 H 288.739 -1.4906 0.470192 0
M  V30 3047 H 289.474 -2.73997 -1.73482 0
M  V30 3048 H 289.259 -3.90124 -0.393166 0
M  V30 3049 H 290.749 -3.94049 -1.38256 0
M  V30 3050 N 291.186 -0.45159 -1.50991 0
M  V30 3051 C 292.463 0.170707 -1.94854 0
M  V30 3052 C 292.843 1.58788 -1.39103 0
M  V30 3053 O 292.191 2.20913 -0.583921 0
M  V30 3054 C 292.401 0.133929 -3.48743 0
M  V30 3055 C 293.749 0.33248 -4.23296 0
M  V30 3056 O 294.773 0.211403 -3.55572 0
M  V30 3057 O 293.632 0.57486 -5.43468 0
M  V30 3058 H 290.726 0.122264 -0.817912 0
M  V30 3059 H 293.272 -0.510594 -1.61836 0
M  V30 3060 H 292.044 -0.856283 -3.81816 0
M  V30 3061 H 291.667 0.857529 -3.88242 0
M  V30 3062 N 292.664 1.56529 -0.183458 0
M  V30 3063 C 293.894 2.01331 0.463612 0
M  V30 3064 C 294.302 1.06278 1.5653 0
M  V30 3065 O 293.645 0.0577976 1.83609 0
M  V30 3066 C 293.707 3.42547 1.09096 0
M  V30 3067 C 293.371 4.56817 0.129442 0
M  V30 3068 C 294.368 5.15734 -0.656807 0
M  V30 3069 C 292.053 5.02295 0.02174 0
M  V30 3070 C 294.047 6.1857 -1.53784 0
M  V30 3071 C 291.734 6.04978 -0.862864 0
M  V30 3072 C 292.732 6.62988 -1.64123 0
M  V30 3073 O 292.42 7.63677 -2.51103 0
M  V30 3074 H 292.152 0.664917 0.121907 0
M  V30 3075 H 294.706 2.034 -0.285954 0
M  V30 3076 H 292.936 3.37428 1.88889 0
M  V30 3077 H 294.625 3.71228 1.64148 0
M  V30 3078 H 295.391 4.81473 -0.583839 0
M  V30 3079 H 291.27 4.56847 0.617392 0
M  V30 3080 H 294.814 6.63777 -2.14583 0
M  V30 3081 H 290.711 6.38663 -0.93699 0
M  V30 3082 H 291.479 7.81049 -2.44753 0
M  V30 3083 N 294.142 -0.090211 1.57342 0
M  V30 3084 C 295.092 -1.11557 1.98844 0
M  V30 3085 C 296.076 -1.35503 0.867624 0
M  V30 3086 O 297.268 -1.36113 1.13148 0
M  V30 3087 C 294.397 -2.43446 2.42051 0
M  V30 3088 C 293.483 -2.22853 3.60828 0
M  V30 3089 N 293.874 -1.72141 4.75606 0
M  V30 3090 C 292.172 -2.53401 3.67021 0
M  V30 3091 C 292.873 -1.65932 5.57531 0
M  V30 3092 N 291.849 -2.11323 5.00843 0
M  V30 3093 H 295.651 -0.716499 2.85032 0
M  V30 3094 H 293.165 -0.297567 1.59651 0
M  V30 3095 H 295.162 -3.17644 2.70014 0
M  V30 3096 H 293.822 -2.84087 1.57241 0
M  V30 3097 H 294.833 -1.41268 4.98261 0
M  V30 3098 H 291.51 -2.97532 2.92884 0
M  V30 3099 H 292.9 -1.27733 6.59647 0
M  V30 3100 N 295.62 -1.53406 -0.361157 0
M  V30 3101 C 296.845 -1.74024 -1.12829 0
M  V30 3102 C 297.27 -0.470069 -1.82132 0
M  V30 3103 O 296.628 0.57619 -1.719 0
M  V30 3104 C 296.676 -2.90903 -2.13091 0
M  V30 3105 O 295.78 -2.59821 -3.20261 0
M  V30 3106 H 295.121 -0.577804 -0.327168 0
M  V30 3107 H 297.651 -2.00307 -0.41693 0
M  V30 3108 H 297.661 -3.17194 -2.56616 0
M  V30 3109 H 296.336 -3.83034 -1.62042 0
M  V30 3110 H 294.913 -2.44362 -2.81677 0
M  V30 3111 N 297.098 0.621204 -1.44841 0
M  V30 3112 C 298.048 1.72663 -1.48901 0
M  V30 3113 C 299.032 1.56964 -0.353702 0
M  V30 3114 O 300.224 1.66532 -0.599669 0
M  V30 3115 C 297.353 3.11381 -1.44557 0
M  V30 3116 C 296.439 3.32514 -2.6324 0
M  V30 3117 N 296.83 3.23969 -3.8843 0
M  V30 3118 C 295.128 3.63343 -2.58647 0
M  V30 3119 C 295.829 3.46062 -4.67564 0
M  V30 3120 N 294.805 3.69407 -3.98797 0
M  V30 3121 H 298.607 1.64529 -2.43531 0
M  V30 3122 H 296.121 0.82401 -1.39942 0
M  V30 3123 H 298.118 3.90667 -1.4555 0
M  V30 3124 H 296.778 3.20674 -0.509731 0
M  V30 3125 H 297.789 3.02669 -4.20252 0
M  V30 3126 H 294.466 3.79556 -1.73906 0
M  V30 3127 H 295.856 3.44963 -5.76585 0
M  V30 3128 N 298.576 1.31904 0.862503 0
M  V30 3129 C 299.506 1.22782 1.98612 0
M  V30 3130 C 300.487 0.113362 1.69722 0
M  V30 3131 O 301.672 0.299218 1.91881 0
M  V30 3132 C 298.802 0.942058 3.34279 0
M  V30 3133 C 297.756 2.0169 3.77499 0
M  V30 3134 C 297.082 1.58369 5.10709 0
M  V30 3135 C 298.382 3.43096 3.93805 0
M  V30 3136 H 300.076 2.16788 2.06502 0
M  V30 3137 H 297.622 1.04366 0.992154 0
M  V30 3138 H 299.575 0.864818 4.1243 0
M  V30 3139 H 298.299 -0.0336603 3.26583 0
M  V30 3140 H 296.958 2.08416 3.01593 0
M  V30 3141 H 296.606 0.595628 4.99461 0
M  V30 3142 H 296.306 2.30279 5.40597 0
M  V30 3143 H 297.83 1.52067 5.91361 0
M  V30 3144 H 299.244 3.39003 4.62331 0
M  V30 3145 H 297.641 4.13288 4.35101 0
M  V30 3146 H 298.711 3.83334 2.96957 0
M  V30 3147 N 300.054 -1.07777 1.14986 0
M  V30 3148 C 301.331 -1.7699 0.832695 0
M  V30 3149 C 301.711 -2.001 -0.672561 0
M  V30 3150 O 301.059 -1.61598 -1.6155 0
M  V30 3151 C 301.269 -3.08139 1.63863 0
M  V30 3152 C 302.617 -3.8256 1.84208 0
M  V30 3153 O 303.641 -3.17939 1.60603 0
M  V30 3154 O 302.5 -4.98612 2.23714 0
M  V30 3155 H 299.594 -0.768389 0.305791 0
M  V30 3156 H 302.14 -1.14182 1.25541 0
M  V30 3157 H 300.912 -2.86909 2.6608 0
M  V30 3158 H 300.535 -3.78678 1.21197 0
M  V30 3159 N 301.532 -0.945985 -1.26051 0
M  V30 3160 C 302.757 -0.612525 -1.98149 0
M  V30 3161 C 303.182 0.806623 -1.69927 0
M  V30 3162 O 302.54 1.54411 -0.950108 0
M  V30 3163 C 302.588 -0.866981 -3.50023 0
M  V30 3164 O 301.692 0.0585333 -4.12358 0
M  V30 3165 H 301.033 -0.23379 -0.621481 0
M  V30 3166 H 303.563 -1.27023 -1.60395 0
M  V30 3167 H 303.573 -0.789792 -4.00283 0
M  V30 3168 H 302.248 -1.90135 -3.69894 0
M  V30 3169 H 300.825 -0.0701241 -3.72834 0
M  V30 3170 N 303.011 1.40521 -0.713556 0
M  V30 3171 C 303.941 2.33381 -0.0743864 0
M  V30 3172 C 304.922 1.52784 0.747735 0
M  V30 3173 O 306.107 1.81258 0.697071 0
M  V30 3174 C 303.237 3.36748 0.849598 0
M  V30 3175 C 302.191 4.27793 0.133247 0
M  V30 3176 C 301.517 5.21679 1.17281 0
M  V30 3177 C 302.817 5.12415 -1.01134 0
M  V30 3178 H 304.511 2.87081 -0.850007 0
M  V30 3179 H 302.057 1.38034 -0.410201 0
M  V30 3180 H 304.01 4.00648 1.30612 0
M  V30 3181 H 302.734 2.81439 1.65709 0
M  V30 3182 H 301.393 3.65342 -0.303426 0
M  V30 3183 H 301.041 4.62677 1.9733 0
M  V30 3184 H 300.741 5.83435 0.698397 0
M  V30 3185 H 302.265 5.88456 1.62947 0
M  V30 3186 H 303.679 5.69781 -0.634274 0
M  V30 3187 H 302.076 5.83203 -1.41399 0
M  V30 3188 H 303.146 4.48514 -1.84292 0
M  V30 3189 N 304.489 0.459591 1.5075 0
M  V30 3190 C 305.714 -0.0996819 2.0716 0
M  V30 3191 C 306.139 -1.33761 1.32249 0
M  V30 3192 O 305.497 -1.77551 0.366786 0
M  V30 3193 C 305.545 -0.378226 3.58611 0
M  V30 3194 O 304.649 -1.46081 3.85661 0
M  V30 3195 H 303.99 0.00791392 0.663953 0
M  V30 3196 H 306.52 0.647329 1.9409 0
M  V30 3197 H 306.53 -0.622135 4.03229 0
M  V30 3198 H 305.205 0.526439 4.12555 0
M  V30 3199 H 303.782 -1.20511 3.5289 0
M  V30 3200 N 305.967 -1.56429 0.191757 0
M  V30 3201 C 306.914 -2.18936 -0.730454 0
M  V30 3202 C 307.884 -1.13557 -1.21219 0
M  V30 3203 O 309.069 -1.41794 -1.27668 0
M  V30 3204 C 306.209 -2.85013 -1.9458 0
M  V30 3205 C 305.322 -4.04909 -1.50574 0
M  V30 3206 C 304.457 -4.58853 -2.67634 0
M  V30 3207 C 303.496 -5.71114 -2.20217 0
M  V30 3208 N 302.633 -6.19478 -3.30442 0
M  V30 3209 H 307.473 -2.97389 -0.190664 0
M  V30 3210 H 305.01 -1.46869 -0.0823694 0
M  V30 3211 H 306.968 -3.21492 -2.65893 0
M  V30 3212 H 305.598 -2.09129 -2.45896 0
M  V30 3213 H 304.65 -3.74115 -0.688605 0
M  V30 3214 H 305.962 -4.86113 -1.11784 0
M  V30 3215 H 305.116 -4.97619 -3.47074 0
M  V30 3216 H 303.855 -3.76749 -3.09696 0
M  V30 3217 H 302.86 -5.31879 -1.3923 0
M  V30 3218 H 304.085 -6.55033 -1.79189 0
M  V30 3219 H 302.031 -5.40297 -3.72041 0
M  V30 3220 H 301.948 -6.95725 -2.9581 0
M  V30 3221 H 303.216 -6.62898 -4.10106 0
M  V30 3222 N 307.445 0.0818655 -1.57387 0
M  V30 3223 C 308.856 0.634871 -1.75574 0
M  V30 3224 C 309.207 1.78435 -0.815809 0
M  V30 3225 O 308.332 2.164 0.0025366 0
M  V30 3226 C 308.927 1.15845 -3.18379 0
M  V30 3227 C 307.486 1.65741 -3.37945 0
M  V30 3228 C 306.633 0.572549 -2.71325 0
M  V30 3229 H 309.584 -0.144268 -1.58043 0
M  V30 3230 H 309.605 2.02751 -3.21982 0
M  V30 3231 H 309.117 0.321631 -3.86765 0
M  V30 3232 H 307.218 2.51781 -2.74658 0
M  V30 3233 H 307.331 1.74129 -4.46336 0
M  V30 3234 H 305.695 1.01518 -2.33594 0
M  V30 3235 H 306.478 -0.253918 -3.4236 0
M  V30 3236 N 308.923 1.53595 0.353017 0
M  V30 3237 C 310.148 1.7462 1.11904 0
M  V30 3238 C 310.573 0.479721 1.8188 0
M  V30 3239 O 309.931 -0.567066 1.72204 0
M  V30 3240 C 309.979 2.92029 2.11545 0
M  V30 3241 O 309.083 2.61516 3.18878 0
M  V30 3242 H 308.424 0.579531 0.324099 0
M  V30 3243 H 310.954 2.00525 0.406301 0
M  V30 3244 H 310.964 3.18551 2.5493 0
M  V30 3245 H 309.639 3.83888 1.60008 0
M  V30 3246 H 308.216 2.45852 2.80377 0
M  V30 3247 N 310.401 -0.613514 1.45168 0
M  V30 3248 C 311.311 -1.75296 1.55912 0
M  V30 3249 C 312.327 -1.68244 0.443856 0
M  V30 3250 O 313.503 -1.88706 0.70371 0
M  V30 3251 C 310.568 -3.1174 1.5172 0
M  V30 3252 C 309.629 -3.30291 2.74238 0
M  V30 3253 C 308.862 -4.60226 2.70236 0
M  V30 3254 O 309.085 -5.42168 1.77229 0
M  V30 3255 O 308.019 -4.81361 3.61352 0
M  V30 3256 H 311.845 -1.69183 2.52212 0
M  V30 3257 H 309.43 -0.776886 1.27612 0
M  V30 3258 H 311.312 -3.93044 1.51968 0
M  V30 3259 H 309.987 -3.18357 0.585697 0
M  V30 3260 H 308.894 -2.48598 2.79553 0
M  V30 3261 H 310.227 -3.28547 3.66494 0
M  V30 3262 N 311.879 -1.3236 -0.855495 0
M  V30 3263 C 313.109 -1.25688 -1.6397 0
M  V30 3264 C 313.517 0.177592 -1.88365 0
M  V30 3265 O 312.86 1.12485 -1.45234 0
M  V30 3266 C 312.922 -1.94602 -3.02275 0
M  V30 3267 C 312.586 -3.43937 -3.00926 0
M  V30 3268 C 313.583 -4.39435 -2.77835 0
M  V30 3269 C 311.268 -3.85858 -3.21588 0
M  V30 3270 C 313.262 -5.74829 -2.75409 0
M  V30 3271 C 310.949 -5.21361 -3.18789 0
M  V30 3272 C 311.947 -6.15658 -2.95727 0
M  V30 3273 O 311.635 -7.48681 -2.928 0
M  V30 3274 H 311.367 -0.434972 -0.51747 0
M  V30 3275 H 313.921 -1.75023 -1.075 0
M  V30 3276 H 312.151 -1.39836 -3.60531 0
M  V30 3277 H 313.84 -1.81651 -3.62985 0
M  V30 3278 H 314.606 -4.08374 -2.6164 0
M  V30 3279 H 310.485 -3.12883 -3.38564 0
M  V30 3280 H 314.029 -6.48404 -2.57328 0
M  V30 3281 H 309.926 -5.52052 -3.34528 0
M  V30 3282 H 310.694 -7.5803 -3.0876 0
M  V30 3283 N 313.357 1.07166 -1.15556 0
M  V30 3284 C 314.582 1.84053 -0.955988 0
M  V30 3285 C 315.007 1.81586 0.490739 0
M  V30 3286 O 314.365 1.21018 1.34997 0
M  V30 3287 C 314.413 3.28957 -1.47714 0
M  V30 3288 O 313.517 4.06795 -0.677593 0
M  V30 3289 H 312.858 0.569842 -0.340847 0
M  V30 3290 H 315.388 1.35178 -1.53584 0
M  V30 3291 H 315.398 3.79788 -1.4908 0
M  V30 3292 H 314.073 3.30068 -2.53037 0
M  V30 3293 H 312.65 3.6561 -0.733721 0
M  V30 3294 N 314.835 0.952656 1.25548 0
M  V30 3295 C 316.112 0.523818 1.88456 0
M  V30 3296 C 316.492 -0.998871 1.85973 0
M  V30 3297 O 315.84 -1.86381 1.3219 0
M  V30 3298 C 316.05 1.0982 3.31271 0
M  V30 3299 C 317.398 1.17385 4.08051 0
M  V30 3300 O 318.422 1.04961 3.40384 0
M  V30 3301 O 317.281 1.36852 5.29088 0
M  V30 3302 H 314.375 0.172485 0.808813 0
M  V30 3303 H 316.921 1.04596 1.33633 0
M  V30 3304 H 315.693 2.1415 3.27499 0
M  V30 3305 H 315.316 0.559191 3.93648 0
M  V30 3306 N 316.313 -1.40141 0.720998 0
M  V30 3307 C 317.243 -2.33339 0.0867621 0
M  V30 3308 C 318.224 -1.53178 -0.739622 0
M  V30 3309 O 319.409 -1.81625 -0.687449 0
M  V30 3310 C 316.539 -3.37194 -0.831728 0
M  V30 3311 C 315.493 -4.27857 -0.110558 0
M  V30 3312 C 314.819 -5.22294 -1.14513 0
M  V30 3313 C 316.119 -5.11872 1.0385 0
M  V30 3314 H 317.813 -2.86626 0.865219 0
M  V30 3315 H 315.359 -1.37814 0.417516 0
M  V30 3316 H 317.312 -4.01335 -1.28485 0
M  V30 3317 H 316.036 -2.82314 -1.64214 0
M  V30 3318 H 314.695 -3.65176 0.322797 0
M  V30 3319 H 314.343 -4.63717 -1.94874 0
M  V30 3320 H 314.043 -5.83797 -0.667446 0
M  V30 3321 H 315.567 -5.89312 -1.59824 0
M  V30 3322 H 316.981 -5.69436 0.664482 0
M  V30 3323 H 315.378 -5.82445 1.4449 0
M  V30 3324 H 316.448 -4.4753 1.86668 0
M  V30 3325 N 317.792 -0.46758 -1.50504 0
M  V30 3326 C 318.739 0.328413 -2.28452 0
M  V30 3327 C 319.709 0.990313 -1.33349 0
M  V30 3328 O 320.894 1.00343 -1.62284 0
M  V30 3329 C 318.034 1.40648 -3.15138 0
M  V30 3330 C 317.147 0.759709 -4.25267 0
M  V30 3331 C 316.282 1.81537 -4.99217 0
M  V30 3332 C 315.321 1.14866 -6.01226 0
M  V30 3333 N 314.458 2.14702 -6.68467 0
M  V30 3334 H 319.298 -0.342603 -2.96024 0
M  V30 3335 H 316.835 -0.180801 -1.45985 0
M  V30 3336 H 318.793 2.04315 -3.63746 0
M  V30 3337 H 317.423 2.04671 -2.49619 0
M  V30 3338 H 316.475 0.0105671 -3.80399 0
M  V30 3339 H 317.787 0.233243 -4.98254 0
M  V30 3340 H 316.941 2.52793 -5.51526 0
M  V30 3341 H 315.68 2.37564 -4.25928 0
M  V30 3342 H 314.685 0.42171 -5.4818 0
M  V30 3343 H 315.91 0.595334 -6.76485 0
M  V30 3344 H 313.856 2.69752 -5.97972 0
M  V30 3345 H 313.773 1.6703 -7.37317 0
M  V30 3346 H 315.041 2.85348 -7.25394 0
M  V30 3347 N 319.27 1.56325 -0.20005 0
M  V30 3348 C 320.516 1.98772 0.431408 0
M  V30 3349 C 320.871 1.0849 1.58895 0
M  V30 3350 O 320.164 0.130331 1.91156 0
M  V30 3351 C 320.358 3.4495 0.935103 0
M  V30 3352 C 320.187 4.49371 -0.172096 0
M  V30 3353 C 318.957 5.0134 -0.631377 0
M  V30 3354 C 321.155 5.04822 -0.982806 0
M  V30 3355 N 319.137 5.89433 -1.71588 0
M  V30 3356 C 320.508 5.89632 -1.91661 0
M  V30 3357 C 322.563 4.87242 -1.02467 0
M  V30 3358 C 321.266 6.58741 -2.88881 0
M  V30 3359 C 323.292 5.57094 -1.98494 0
M  V30 3360 C 322.654 6.41655 -2.90617 0
M  V30 3361 H 318.753 0.771922 0.125144 0
M  V30 3362 H 321.337 1.92266 -0.306883 0
M  V30 3363 H 319.508 3.51946 1.64282 0
M  V30 3364 H 321.24 3.74354 1.53758 0
M  V30 3365 H 317.995 4.73071 -0.223827 0
M  V30 3366 H 318.419 6.38182 -2.25948 0
M  V30 3367 H 323.061 4.21538 -0.326408 0
M  V30 3368 H 320.779 7.23641 -3.5968 0
M  V30 3369 H 324.365 5.45466 -2.0238 0
M  V30 3370 H 323.245 6.94755 -3.63711 0
M  V30 3371 N 320.748 -0.0735177 1.57428 0
M  V30 3372 C 321.658 -1.10547 2.06922 0
M  V30 3373 C 322.674 -1.42506 0.998402 0
M  V30 3374 O 323.85 -1.52717 1.31299 0
M  V30 3375 C 320.915 -2.40019 2.50184 0
M  V30 3376 C 319.976 -2.15046 3.71556 0
M  V30 3377 C 319.209 -3.38345 4.12745 0
M  V30 3378 O 319.432 -4.47399 3.53822 0
M  V30 3379 O 318.366 -3.2666 5.05546 0
M  V30 3380 H 322.192 -0.715013 2.95163 0
M  V30 3381 H 319.777 -0.287531 1.46607 0
M  V30 3382 H 321.659 -3.16218 2.78539 0
M  V30 3383 H 320.334 -2.78447 1.65072 0
M  V30 3384 H 319.241 -1.36558 3.48285 0
M  V30 3385 H 320.574 -1.81499 4.57514 0
M  V30 3386 N 322.226 -1.5378 -0.344866 0
M  V30 3387 C 323.456 -1.74646 -1.10374 0
M  V30 3388 C 323.864 -0.48491 -1.8288 0
M  V30 3389 O 323.207 0.553062 -1.75177 0
M  V30 3390 C 323.269 -2.87145 -2.16306 0
M  V30 3391 C 322.933 -4.26795 -1.63386 0
M  V30 3392 C 323.93 -5.08412 -1.08688 0
M  V30 3393 C 321.615 -4.73276 -1.68272 0
M  V30 3394 C 323.609 -6.34609 -0.595792 0
M  V30 3395 C 321.296 -5.99446 -1.18776 0
M  V30 3396 C 322.294 -6.79946 -0.645215 0
M  V30 3397 O 321.982 -8.03745 -0.157626 0
M  V30 3398 H 321.714 -0.587112 -0.335075 0
M  V30 3399 H 324.268 -2.01403 -0.403252 0
M  V30 3400 H 322.498 -2.55909 -2.89909 0
M  V30 3401 H 324.187 -2.95992 -2.77747 0
M  V30 3402 H 324.953 -4.73666 -1.04236 0
M  V30 3403 H 320.832 -4.10677 -2.09442 0
M  V30 3404 H 324.376 -6.97389 -0.171654 0
M  V30 3405 H 320.273 -6.33687 -1.22928 0
M  V30 3406 H 321.041 -8.18038 -0.275037 0
M  V30 3407 N 323.704 0.605807 -1.45491 0
M  V30 3408 C 324.636 1.73031 -1.5031 0
M  V30 3409 C 325.649 1.57968 -0.393687 0
M  V30 3410 O 326.838 1.65817 -0.660839 0
M  V30 3411 C 323.938 3.11049 -1.34543 0
M  V30 3412 C 323.111 3.52334 -2.59189 0
M  V30 3413 C 322.17 4.69323 -2.37954 0
M  V30 3414 O 321.196 4.7635 -3.11575 0
M  V30 3415 N 322.398 5.62705 -1.4263 0
M  V30 3416 H 325.163 1.6936 -2.4726 0
M  V30 3417 H 322.724 0.79114 -1.41254 0
M  V30 3418 H 324.716 3.87071 -1.18144 0
M  V30 3419 H 323.286 3.09217 -0.458623 0
M  V30 3420 H 322.506 2.66256 -2.90691 0
M  V30 3421 H 323.794 3.76677 -3.42041 0
M  V30 3422 H 323.192 5.59744 -0.818758 0
M  V30 3423 H 321.749 6.38252 -1.32202 0
M  V30 3424 N 325.182 1.32811 0.848464 0
M  V30 3425 C 326.598 1.11937 1.13764 0
M  V30 3426 C 326.798 -0.0960789 2.01271 0
M  V30 3427 O 325.854 -0.779165 2.40178 0
M  V30 3428 C 327.167 2.402 1.809 0
M  V30 3429 C 328.715 2.46016 1.93508 0
M  V30 3430 C 329.19 3.74215 2.64059 0
M  V30 3431 N 330.681 3.75232 2.71579 0
M  V30 3432 C 331.416 4.71134 3.26833 0
M  V30 3433 N 330.912 5.77406 3.8285 0
M  V30 3434 N 332.705 4.58623 3.24995 0
M  V30 3435 H 324.856 2.1073 0.265855 0
M  V30 3436 H 327.119 0.930671 0.180431 0
M  V30 3437 H 326.825 3.29093 1.24058 0
M  V30 3438 H 326.699 2.51628 2.81004 0
M  V30 3439 H 329.086 1.57577 2.49506 0
M  V30 3440 H 329.167 2.38536 0.923811 0
M  V30 3441 H 328.811 4.63031 2.08722 0
M  V30 3442 H 328.741 3.78968 3.65637 0
M  V30 3443 H 331.232 2.98423 2.31845 0
M  V30 3444 H 331.545 6.46632 4.23187 0
M  V30 3445 H 329.89 5.81152 3.81165 0
M  V30 3446 H 333.081 3.74762 2.80484 0
M  V30 3447 H 333.254 5.33535 3.67756 0
M  V30 3448 N 326.66 -1.06551 1.16123 0
M  V30 3449 C 327.623 -2.12132 0.867906 0
M  V30 3450 C 328.623 -1.60224 -0.135944 0
M  V30 3451 O 329.813 -1.73943 0.0946422 0
M  V30 3452 C 326.945 -3.396 0.297419 0
M  V30 3453 H 328.138 -2.39586 1.80385 0
M  V30 3454 H 325.691 -1.22574 0.969812 0
M  V30 3455 H 326.426 -3.17794 -0.64633 0
M  V30 3456 H 326.211 -3.78581 1.02073 0
M  V30 3457 H 327.701 -4.17455 0.110052 0
M  V30 3458 N 328.138 -0.959301 -1.25041 0
M  V30 3459 C 329.363 -0.633507 -1.97488 0
M  V30 3460 C 329.788 0.788555 -1.70773 0
M  V30 3461 O 329.146 1.53394 -0.966431 0
M  V30 3462 C 329.194 -0.904057 -3.49083 0
M  V30 3463 O 328.298 0.0147939 -4.12397 0
M  V30 3464 H 327.639 -0.240368 -0.618966 0
M  V30 3465 H 330.169 -1.28717 -1.59038 0
M  V30 3466 H 330.179 -0.832203 -3.99423 0
M  V30 3467 H 328.854 -1.94048 -3.67856 0
M  V30 3468 H 327.431 -0.109664 -3.72739 0
M  V30 3469 N 329.616 1.39756 -0.72842 0
M  V30 3470 C 330.841 2.05472 -0.282159 0
M  V30 3471 C 331.266 1.54549 1.07221 0
M  V30 3472 O 330.624 0.686372 1.67805 0
M  V30 3473 C 330.672 3.59462 -0.286264 0
M  V30 3474 O 329.776 4.05918 0.728298 0
M  V30 3475 H 329.117 0.651226 -0.129618 0
M  V30 3476 H 331.647 1.78915 -0.992499 0
M  V30 3477 H 331.657 4.07798 -0.128373 0
M  V30 3478 H 330.332 3.95889 -1.27456 0
M  V30 3479 H 328.909 3.69012 0.537081 0
M  V30 3480 N 331.094 0.475555 1.50254 0
M  V30 3481 C 332.319 -0.0777042 2.07254 0
M  V30 3482 C 332.744 -1.3235 1.3366 0
M  V30 3483 O 332.102 -1.77152 0.385597 0
M  V30 3484 C 332.15 -0.340169 3.58992 0
M  V30 3485 O 331.254 -1.41982 3.87188 0
M  V30 3486 H 330.595 0.0149556 0.663832 0
M  V30 3487 H 333.125 0.667878 1.93392 0
M  V30 3488 H 333.135 -0.579332 4.03866 0
M  V30 3489 H 331.81 0.570167 4.11973 0
M  V30 3490 H 330.387 -1.16762 3.54148 0
M  V30 3491 N 332.573 -1.56217 0.208337 0
M  V30 3492 C 333.798 -2.02782 -0.435222 0
M  V30 3493 C 334.223 -1.08738 -1.53485 0
M  V30 3494 O 333.581 -0.0731855 -1.81152 0
M  V30 3495 C 333.629 -3.47687 -0.956335 0
M  V30 3496 O 332.733 -3.56773 -2.06849 0
M  V30 3497 H 332.074 -0.656403 -0.100158 0
M  V30 3498 H 334.604 -2.02033 0.3231 0
M  V30 3499 H 334.614 -3.87745 -1.26955 0
M  V30 3500 H 333.289 -4.15624 -0.15143 0
M  V30 3501 H 331.866 -3.28597 -1.76292 0
M  V30 3502 N 334.051 0.0651679 -1.57465 0
M  V30 3503 C 335.462 0.616213 -1.76238 0
M  V30 3504 C 335.813 1.7756 -0.834689 0
M  V30 3505 O 334.938 2.1639 -0.0204156 0
M  V30 3506 C 335.533 1.12462 -3.1959 0
M  V30 3507 C 334.092 1.62147 -3.39684 0
M  V30 3508 C 333.239 0.543739 -2.71917 0
M  V30 3509 H 336.19 -0.161022 -1.57881 0
M  V30 3510 H 336.211 1.99324 -3.24114 0
M  V30 3511 H 335.723 0.280592 -3.87084 0
M  V30 3512 H 333.824 2.48854 -2.77313 0
M  V30 3513 H 333.937 1.69385 -4.48158 0
M  V30 3514 H 332.301 0.990352 -2.34657 0
M  V30 3515 H 333.084 -0.290216 -3.42071 0
M  V30 3516 N 335.529 1.53961 0.336706 0
M  V30 3517 C 336.459 1.85417 1.41925 0
M  V30 3518 C 337.44 0.709856 1.5458 0
M  V30 3519 O 338.625 0.962396 1.68676 0
M  V30 3520 C 335.755 2.06985 2.78881 0
M  V30 3521 C 334.709 3.22813 2.81026 0
M  V30 3522 C 334.035 3.29727 4.20932 0
M  V30 3523 C 335.335 4.60767 2.45949 0
M  V30 3524 H 337.029 2.76079 1.15848 0
M  V30 3525 H 334.575 1.32839 0.555859 0
M  V30 3526 H 336.528 2.27575 3.54665 0
M  V30 3527 H 335.252 1.13061 3.06406 0
M  V30 3528 H 333.911 3.0209 2.07695 0
M  V30 3529 H 333.559 2.33385 4.45579 0
M  V30 3530 H 333.259 4.07566 4.23277 0
M  V30 3531 H 334.783 3.52536 4.98549 0
M  V30 3532 H 336.197 4.81325 3.11446 0
M  V30 3533 H 334.594 5.4106 2.59566 0
M  V30 3534 H 335.664 4.6391 1.41122 0
M  V30 3535 N 337.007 -0.598083 1.45811 0
M  V30 3536 C 338.284 -1.35777 1.40797 0
M  V30 3537 C 338.664 -2.10935 0.083462 0
M  V30 3538 O 338.012 -2.08505 -0.934763 0
M  V30 3539 C 338.222 -2.29666 2.62783 0
M  V30 3540 C 339.57 -2.91977 3.08277 0
M  V30 3541 O 340.594 -2.39984 2.63223 0
M  V30 3542 O 339.453 -3.86376 3.86491 0
M  V30 3543 H 336.547 -0.609291 0.55919 0
M  V30 3544 H 339.093 -0.620379 1.57954 0
M  V30 3545 H 337.865 -1.73454 3.50756 0
M  V30 3546 H 337.488 -3.1077 2.48008 0
M  V30 3547 N 338.485 -1.33259 -0.841409 0
M  V30 3548 C 339.715 -1.2742 -1.62628 0
M  V30 3549 C 340.123 0.157604 -1.88542 0
M  V30 3550 O 339.466 1.10938 -1.46419 0
M  V30 3551 C 339.528 -1.97797 -3.00194 0
M  V30 3552 C 339.192 -3.47109 -2.97261 0
M  V30 3553 C 340.189 -4.42358 -2.73159 0
M  V30 3554 C 337.874 -3.89247 -3.17478 0
M  V30 3555 C 339.868 -5.77718 -2.69296 0
M  V30 3556 C 337.555 -5.24713 -3.13241 0
M  V30 3557 C 338.553 -6.1876 -2.89181 0
M  V30 3558 O 338.241 -7.51745 -2.84843 0
M  V30 3559 H 337.973 -0.440436 -0.512827 0
M  V30 3560 H 340.527 -1.76153 -1.05638 0
M  V30 3561 H 338.757 -1.43652 -3.59028 0
M  V30 3562 H 340.446 -1.8549 -3.61038 0
M  V30 3563 H 341.212 -4.11127 -2.57294 0
M  V30 3564 H 337.091 -3.16456 -3.35226 0
M  V30 3565 H 340.635 -6.51097 -2.50436 0
M  V30 3566 H 336.532 -5.55569 -3.28654 0
M  V30 3567 H 337.3 -7.61262 -3.00702 0
M  V30 3568 N 339.963 1.05934 -1.16686 0
M  V30 3569 C 341.188 1.83029 -0.975455 0
M  V30 3570 C 341.613 1.82096 0.471452 0
M  V30 3571 O 340.971 1.22443 1.33706 0
M  V30 3572 C 341.019 3.27372 -1.51195 0
M  V30 3573 O 340.123 4.06054 -0.720701 0
M  V30 3574 H 339.464 0.566194 -0.346872 0
M  V30 3575 H 341.994 1.33541 -1.55009 0
M  V30 3576 H 342.004 3.78186 -1.53099 0
M  V30 3577 H 340.679 3.27366 -2.56523 0
M  V30 3578 H 339.256 3.64812 -0.772458 0
M  V30 3579 N 341.441 0.965919 1.2453 0
M  V30 3580 C 342.688 0.626831 1.92554 0
M  V30 3581 C 343.016 -0.837739 1.75534 0
M  V30 3582 O 342.271 -1.61793 1.10098 0
M  V30 3583 C 342.57 0.945428 3.44669 0
M  V30 3584 C 342.236 2.39785 3.81856 0
M  V30 3585 C 340.898 2.79483 3.91718 0
M  V30 3586 C 343.25 3.34055 4.00071 0
M  V30 3587 C 340.578 4.12496 4.1721 0
M  V30 3588 C 342.93 4.66694 4.27059 0
M  V30 3589 C 341.594 5.06172 4.3514 0
M  V30 3590 H 340.864 0.229374 0.704605 0
M  V30 3591 H 343.511 1.21707 1.4785 0
M  V30 3592 H 341.816 0.272926 3.90848 0
M  V30 3593 H 343.513 0.661484 3.95507 0
M  V30 3594 H 340.103 2.08003 3.74743 0
M  V30 3595 H 344.287 3.04571 3.91855 0
M  V30 3596 H 339.543 4.42709 4.21685 0
M  V30 3597 H 343.717 5.3971 4.40097 0
M  V30 3598 H 341.344 6.09262 4.54646 0
M  V30 3599 N 342.919 -1.39368 0.735821 0
M  V30 3600 C 343.851 -2.2913 0.0567723 0
M  V30 3601 C 344.864 -1.46859 -0.702589 0
M  V30 3602 O 346.053 -1.69925 -0.546616 0
M  V30 3603 C 343.153 -3.25492 -0.943823 0
M  V30 3604 C 342.326 -4.36709 -0.24581 0
M  V30 3605 C 341.385 -5.13376 -1.15463 0
M  V30 3606 O 340.411 -5.65683 -0.631803 0
M  V30 3607 N 341.613 -5.24656 -2.48427 0
M  V30 3608 H 344.378 -2.88047 0.827582 0
M  V30 3609 H 341.939 -1.50957 0.585112 0
M  V30 3610 H 343.931 -3.73657 -1.55443 0
M  V30 3611 H 342.501 -2.676 -1.61583 0
M  V30 3612 H 341.721 -3.9041 0.545286 0
M  V30 3613 H 343.009 -5.08244 0.237891 0
M  V30 3614 H 342.407 -4.83679 -2.93379 0
M  V30 3615 H 340.964 -5.76258 -3.04582 0
M  V30 3616 N 344.397 -0.483516 -1.5 0
M  V30 3617 C 345.644 0.0671597 -2.02389 0
M  V30 3618 C 345.972 1.38597 -1.36459 0
M  V30 3619 O 345.227 1.89634 -0.483458 0
M  V30 3620 C 345.526 0.286226 -3.56252 0
M  V30 3621 C 345.192 -0.952416 -4.40726 0
M  V30 3622 C 343.854 -1.29199 -4.63531 0
M  V30 3623 C 346.206 -1.77655 -4.89988 0
M  V30 3624 C 343.534 -2.45553 -5.32842 0
M  V30 3625 C 345.886 -2.93147 -5.60578 0
M  V30 3626 C 344.55 -3.27505 -5.81633 0
M  V30 3627 H 343.82 0.0245755 -0.740592 0
M  V30 3628 H 346.467 -0.640124 -1.80485 0
M  V30 3629 H 344.772 1.07587 -3.76739 0
M  V30 3630 H 346.469 0.726473 -3.94365 0
M  V30 3631 H 343.059 -0.677881 -4.23205 0
M  V30 3632 H 347.243 -1.52737 -4.72213 0
M  V30 3633 H 342.499 -2.72431 -5.47349 0
M  V30 3634 H 346.673 -3.57344 -5.97727 0
M  V30 3635 H 344.3 -4.1777 -6.35116 0
M  V30 3636 N 345.875 1.56104 -0.216619 0
M  V30 3637 C 347.103 2.02563 0.421413 0
M  V30 3638 C 347.518 1.0965 1.53695 0
M  V30 3639 O 346.875 0.10521 1.82196 0
M  V30 3640 C 346.926 3.48584 0.957665 0
M  V30 3641 O 346.647 4.37953 -0.113389 0
M  V30 3642 C 348.148 4.10664 1.66943 0
M  V30 3643 H 345.368 0.662944 0.103665 0
M  V30 3644 H 347.912 2.01793 -0.331629 0
M  V30 3645 H 346.067 3.49985 1.661 0
M  V30 3646 H 346.481 5.23704 0.288932 0
M  V30 3647 H 347.955 5.14622 1.99671 0
M  V30 3648 H 348.432 3.55373 2.58083 0
M  V30 3649 H 349.038 4.13098 1.01142 0
M  V30 3650 N 347.353 -0.0568162 1.57498 0
M  V30 3651 C 348.764 -0.606858 1.76562 0
M  V30 3652 C 349.115 -1.77114 0.844094 0
M  V30 3653 O 348.24 -2.16376 0.0318911 0
M  V30 3654 C 348.835 -1.10766 3.20182 0
M  V30 3655 C 347.394 -1.60344 3.40539 0
M  V30 3656 C 346.541 -0.529311 2.72201 0
M  V30 3657 H 349.492 0.169393 1.57793 0
M  V30 3658 H 349.513 -1.97602 3.25167 0
M  V30 3659 H 349.025 -0.26006 3.87228 0
M  V30 3660 H 347.126 -2.47379 2.78629 0
M  V30 3661 H 347.239 -1.67006 4.4905 0
M  V30 3662 H 345.603 -0.977893 2.35179 0
M  V30 3663 H 346.386 0.308352 3.41912 0
M  V30 3664 N 348.832 -1.54138 -0.328536 0
M  V30 3665 C 350.057 -1.76378 -1.09112 0
M  V30 3666 C 350.482 -0.508596 -1.81094 0
M  V30 3667 O 349.84 0.539598 -1.73084 0
M  V30 3668 C 349.888 -2.95358 -2.06872 0
M  V30 3669 O 348.992 -2.66556 -3.14677 0
M  V30 3670 H 348.333 -0.584614 -0.314838 0
M  V30 3671 H 350.863 -2.01146 -0.374348 0
M  V30 3672 H 350.873 -3.22566 -2.4983 0
M  V30 3673 H 349.548 -3.86385 -1.5388 0
M  V30 3674 H 348.125 -2.50282 -2.7643 0
M  V30 3675 N 350.31 0.590341 -1.46126 0
M  V30 3676 C 351.726 0.912917 -1.30912 0
M  V30 3677 C 351.926 1.99616 -0.274893 0
M  V30 3678 O 350.982 2.50397 0.325197 0
M  V30 3679 C 352.295 1.3375 -2.69317 0
M  V30 3680 C 353.843 1.45077 -2.77348 0
M  V30 3681 C 354.318 1.90904 -4.16317 0
M  V30 3682 N 355.809 1.9811 -4.18696 0
M  V30 3683 C 356.544 2.34828 -5.23109 0
M  V30 3684 N 356.04 2.70393 -6.37856 0
M  V30 3685 N 357.833 2.35317 -5.10473 0
M  V30 3686 H 349.984 -0.125358 -2.1203 0
M  V30 3687 H 352.247 0.00658481 -0.947977 0
M  V30 3688 H 351.953 0.615614 -3.4627 0
M  V30 3689 H 351.827 2.30058 -2.9892 0
M  V30 3690 H 354.214 2.16353 -2.00687 0
M  V30 3691 H 354.295 0.4704 -2.51438 0
M  V30 3692 H 353.939 1.20209 -4.9347 0
M  V30 3693 H 353.869 2.89886 -4.39629 0
M  V30 3694 H 356.36 1.73146 -3.359 0
M  V30 3695 H 356.673 2.97341 -7.13308 0
M  V30 3696 H 355.018 2.68048 -6.41229 0
M  V30 3697 H 358.209 2.0695 -4.19868 0
M  V30 3698 H 358.382 2.63605 -5.9196 0
M  V30 3699 N 351.788 1.33704 0.83433 0
M  V30 3700 C 353.016 1.28467 1.62185 0
M  V30 3701 C 353.431 -0.143526 1.88254 0
M  V30 3702 O 352.788 -1.08709 1.4659 0
M  V30 3703 C 352.839 2.06174 2.96942 0
M  V30 3704 O 352.56 3.43422 2.72016 0
M  V30 3705 C 354.061 2.08201 3.91366 0
M  V30 3706 H 351.281 0.4424 0.504503 0
M  V30 3707 H 353.825 1.76145 1.03891 0
M  V30 3708 H 351.98 1.62167 3.51825 0
M  V30 3709 H 352.394 3.83453 3.57861 0
M  V30 3710 H 353.868 2.67017 4.83121 0
M  V30 3711 H 354.345 1.07343 4.2588 0
M  V30 3712 H 354.951 2.52246 3.42421 0
M  V30 3713 N 353.266 -1.05314 1.17247 0
M  V30 3714 C 354.229 -2.112 0.890357 0
M  V30 3715 C 355.229 -1.60359 -0.118943 0
M  V30 3716 O 356.419 -1.73833 0.113086 0
M  V30 3717 C 353.551 -3.39266 0.333422 0
M  V30 3718 H 354.744 -2.37659 1.82916 0
M  V30 3719 H 352.297 -1.21538 0.982758 0
M  V30 3720 H 353.032 -3.18462 -0.612587 0
M  V30 3721 H 352.817 -3.77477 1.06082 0
M  V30 3722 H 354.307 -4.17315 0.154322 0
M  V30 3723 N 354.744 -0.972509 -1.24016 0
M  V30 3724 C 355.992 -0.635776 -1.91839 0
M  V30 3725 C 356.313 0.832312 -1.76345 0
M  V30 3726 O 355.583 1.5946 -1.13795 0
M  V30 3727 H 354.163 -0.232157 -0.710009 0
M  V30 3728 H 356.825 -1.23462 -1.50809 0
M  V30 3729 H 355.921 -0.880545 -2.99421 0
M  V30 3730 N 356.222 1.38976 -0.743202 0
M  V30 3731 C 357.45 2.04636 -0.30525 0
M  V30 3732 C 357.865 1.56044 1.06281 0
M  V30 3733 O 357.222 0.728921 1.67311 0
M  V30 3734 C 357.273 3.60193 -0.307177 0
M  V30 3735 O 356.994 4.06998 -1.62124 0
M  V30 3736 C 358.495 4.4306 0.145928 0
M  V30 3737 H 355.715 0.65788 -0.132041 0
M  V30 3738 H 358.259 1.77866 -1.00915 0
M  V30 3739 H 356.414 3.85835 0.347898 0
M  V30 3740 H 356.828 5.01371 -1.54036 0
M  V30 3741 H 358.302 5.51921 0.0934183 0
M  V30 3742 H 358.779 4.22706 1.19231 0
M  V30 3743 H 359.385 4.22584 -0.479886 0
M  V30 3744 N 357.7 0.491464 1.49741 0
M  V30 3745 C 358.925 -0.0557177 2.07325 0
M  V30 3746 C 359.35 -1.30925 1.35056 0
M  V30 3747 O 358.708 -1.76733 0.404365 0
M  V30 3748 C 358.756 -0.302074 3.59333 0
M  V30 3749 O 357.86 -1.37868 3.88672 0
M  V30 3750 H 357.201 0.0219956 0.663636 0
M  V30 3751 H 359.731 0.688352 1.92673 0
M  V30 3752 H 359.741 -0.536464 4.04458 0
M  V30 3753 H 358.416 0.61383 4.11345 0
M  V30 3754 H 356.993 -1.12999 3.55367 0
M  V30 3755 N 359.178 -1.55987 0.224894 0
M  V30 3756 C 360.426 -1.97998 -0.405099 0
M  V30 3757 C 360.747 -1.11387 -1.60056 0
M  V30 3758 O 360.017 -0.191645 -1.9496 0
M  V30 3759 H 358.597 -0.731235 -0.152658 0
M  V30 3760 H 361.259 -1.92279 0.318567 0
M  V30 3761 H 360.355 -3.03463 -0.729167 0
M  V30 3762 N 360.656 0.0484629 -1.57525 0
M  V30 3763 C 361.896 0.748196 -1.90214 0
M  V30 3764 C 362.26 1.73545 -0.821347 0
M  V30 3765 O 363.461 2.48201 -1.03198 0
M  V30 3766 C 361.732 1.41727 -3.28098 0
M  V30 3767 S 363.291 2.14884 -3.82584 0
M  V30 3768 H 360.109 0.248307 -0.666232 0
M  V30 3769 H 362.711 0.00343188 -1.955 0
M  V30 3770 H 361.415 0.685244 -4.04639 0
M  V30 3771 H 360.946 2.20099 -3.26068 0
M  V30 3772 H 362.961 3.41755 -3.59747 0
M  V30 3773 N 362.134 1.5431 0.320358 0
M  V30 3774 C 363.359 1.76954 1.08175 0
M  V30 3775 C 363.784 0.518193 1.80821 0
M  V30 3776 O 363.142 -0.530411 1.73368 0
M  V30 3777 C 363.19 2.96451 2.05303 0
M  V30 3778 O 362.294 2.68221 3.13259 0
M  V30 3779 H 361.635 0.586275 0.311733 0
M  V30 3780 H 364.165 2.01342 0.363676 0
M  V30 3781 H 364.175 3.23887 2.48116 0
M  V30 3782 H 362.85 3.87196 1.51829 0
M  V30 3783 H 361.427 2.51744 2.75099 0
M  V30 3784 N 363.613 -0.582584 1.46437 0
M  V30 3785 C 364.56 -1.69164 1.5701 0
M  V30 3786 C 365.53 -1.60847 0.414403 0
M  V30 3787 O 366.715 -1.80058 0.631171 0
M  V30 3788 C 363.855 -3.075 1.56646 0
M  V30 3789 C 362.968 -3.2644 2.82951 0
M  V30 3790 C 362.103 -4.55026 2.7409 0
M  V30 3791 C 361.142 -4.6731 3.95333 0
M  V30 3792 N 360.279 -5.87221 3.84858 0
M  V30 3793 H 365.119 -1.59464 2.51744 0
M  V30 3794 H 362.656 -0.777186 1.24893 0
M  V30 3795 H 364.614 -3.8757 1.5442 0
M  V30 3796 H 363.244 -3.16096 0.654439 0
M  V30 3797 H 362.296 -2.39974 2.95155 0
M  V30 3798 H 363.608 -3.31385 3.72808 0
M  V30 3799 H 362.762 -5.43324 2.6997 0
M  V30 3800 H 361.501 -4.52519 1.81873 0
M  V30 3801 H 360.506 -3.77429 3.99784 0
M  V30 3802 H 361.731 -4.71595 4.88646 0
M  V30 3803 H 359.677 -5.85712 2.95427 0
M  V30 3804 H 359.594 -5.93435 4.6837 0
M  V30 3805 H 360.862 -6.7795 3.84713 0
M  V30 3806 N 365.091 -1.34144 -0.827227 0
M  V30 3807 C 366.001 -1.27428 -1.96975 0
M  V30 3808 C 367.017 -0.182728 -1.73038 0
M  V30 3809 O 368.193 -0.408426 -1.97215 0
M  V30 3810 C 365.258 -1.02526 -3.31194 0
M  V30 3811 C 364.319 -2.20796 -3.68168 0
M  V30 3812 C 363.552 -1.97073 -4.95982 0
M  V30 3813 O 363.775 -0.926822 -5.6282 0
M  V30 3814 O 362.709 -2.83912 -5.30733 0
M  V30 3815 H 366.535 -2.23537 -2.05584 0
M  V30 3816 H 364.12 -1.14307 -0.961989 0
M  V30 3817 H 366.002 -0.904026 -4.11589 0
M  V30 3818 H 364.677 -0.0945389 -3.23562 0
M  V30 3819 H 363.584 -2.38477 -2.88235 0
M  V30 3820 H 364.917 -3.12243 -3.8048 0
M  V30 3821 N 366.569 1.04691 -1.17803 0
M  V30 3822 C 367.794 1.81984 -0.994813 0
M  V30 3823 C 368.219 1.82586 0.452112 0
M  V30 3824 O 367.577 1.23854 1.324 0
M  V30 3825 C 367.625 3.2575 -1.54659 0
M  V30 3826 O 366.729 4.05267 -0.763728 0
M  V30 3827 H 366.07 0.562483 -0.352857 0
M  V30 3828 H 368.6 1.3189 -1.56417 0
M  V30 3829 H 368.61 3.76541 -1.57102 0
M  V30 3830 H 367.285 3.24627 -2.59981 0
M  V30 3831 H 365.862 3.63972 -0.811108 0
M  V30 3832 N 368.047 0.979072 1.23499 0
M  V30 3833 C 368.977 0.537606 2.27227 0
M  V30 3834 C 369.958 -0.428539 1.64613 0
M  V30 3835 O 371.143 -0.322191 1.91509 0
M  V30 3836 C 368.273 -0.162052 3.46922 0
M  V30 3837 C 367.227 0.721242 4.21879 0
M  V30 3838 C 366.553 -0.110555 5.34586 0
M  V30 3839 C 367.853 2.01141 4.82016 0
M  V30 3840 H 369.547 1.40462 2.64406 0
M  V30 3841 H 367.093 0.67684 1.27102 0
M  V30 3842 H 369.046 -0.482192 4.18632 0
M  V30 3843 H 367.77 -1.06351 3.08799 0
M  V30 3844 H 366.429 1.02482 3.51984 0
M  V30 3845 H 366.077 -1.0125 4.92704 0
M  V30 3846 H 365.777 0.477325 5.85658 0
M  V30 3847 H 367.301 -0.425107 6.09118 0
M  V30 3848 H 368.715 1.75612 5.45741 0
M  V30 3849 H 367.112 2.54695 5.43369 0
M  V30 3850 H 368.182 2.69909 4.02836 0
M  V30 3851 N 369.525 -1.3858 0.750561 0
M  V30 3852 C 370.488 -2.28836 0.129152 0
M  V30 3853 C 371.488 -1.47045 -0.650714 0
M  V30 3854 O 372.678 -1.6753 -0.477428 0
M  V30 3855 C 369.81 -3.30751 -0.825622 0
M  V30 3856 H 371.003 -2.85294 0.924516 0
M  V30 3857 H 368.556 -1.47489 0.517376 0
M  V30 3858 H 369.291 -2.79378 -1.64677 0
M  V30 3859 H 369.076 -3.91177 -0.268852 0
M  V30 3860 H 370.566 -3.98249 -1.2565 0
M  V30 3861 N 371.003 -0.499398 -1.49478 0
M  V30 3862 C 372.233 0.0424839 -2.06556 0
M  V30 3863 C 372.641 1.31514 -1.36018 0
M  V30 3864 O 371.984 1.78555 -0.431718 0
M  V30 3865 C 372.046 0.368074 -3.57611 0
M  V30 3866 C 371.71 -0.806631 -4.49825 0
M  V30 3867 C 372.707 -1.69667 -4.91436 0
M  V30 3868 C 370.392 -1.00498 -4.92144 0
M  V30 3869 C 372.386 -2.76923 -5.74101 0
M  V30 3870 C 370.073 -2.08072 -5.74586 0
M  V30 3871 C 371.071 -2.96119 -6.15469 0
M  V30 3872 O 370.759 -4.01836 -6.96264 0
M  V30 3873 H 370.491 -0.0165165 -0.675798 0
M  V30 3874 H 373.045 -0.695497 -1.93267 0
M  V30 3875 H 371.275 1.15963 -3.68903 0
M  V30 3876 H 372.964 0.848381 -3.96935 0
M  V30 3877 H 373.73 -1.55524 -4.59388 0
M  V30 3878 H 369.609 -0.329036 -4.59824 0
M  V30 3879 H 373.153 -3.45676 -6.05932 0
M  V30 3880 H 369.05 -2.22211 -6.06047 0
M  V30 3881 H 369.818 -3.9917 -7.14567 0
M  V30 3882 N 372.481 1.55866 -0.233164 0
M  V30 3883 C 373.706 2.03449 0.402906 0
M  V30 3884 C 374.131 1.11166 1.51736 0
M  V30 3885 O 373.489 0.101996 1.81013 0
M  V30 3886 C 373.537 3.49165 0.9009 0
M  V30 3887 O 372.641 3.60019 2.01147 0
M  V30 3888 H 371.982 0.657913 0.0897025 0
M  V30 3889 H 374.512 2.01493 -0.355201 0
M  V30 3890 H 374.522 3.89716 1.2077 0
M  V30 3891 H 373.197 4.15813 0.0852889 0
M  V30 3892 H 371.774 3.3136 1.71042 0
M  V30 3893 N 373.959 -0.0401083 1.57549 0
M  V30 3894 C 374.869 -1.06133 2.0922 0
M  V30 3895 C 375.885 -1.40356 1.0284 0
M  V30 3896 O 377.061 -1.49897 1.34509 0
M  V30 3897 C 374.126 -2.34658 2.55218 0
M  V30 3898 C 373.187 -2.07117 3.76033 0
M  V30 3899 C 372.42 -3.29514 4.19829 0
M  V30 3900 O 372.643 -4.39794 3.63232 0
M  V30 3901 O 371.577 -3.15863 5.12362 0
M  V30 3902 H 375.403 -0.652244 2.96613 0
M  V30 3903 H 372.988 -0.256368 1.47184 0
M  V30 3904 H 374.87 -3.10239 2.85184 0
M  V30 3905 H 373.545 -2.74883 1.70941 0
M  V30 3906 H 372.452 -1.29139 3.51104 0
M  V30 3907 H 373.785 -1.71754 4.61261 0
M  V30 3908 N 375.437 -1.54477 -0.31217 0
M  V30 3909 C 376.662 -1.77526 -1.07235 0
M  V30 3910 C 377.087 -0.527775 -1.80544 0
M  V30 3911 O 376.445 0.52121 -1.73646 0
M  V30 3912 C 376.493 -2.97535 -2.03728 0
M  V30 3913 O 375.597 -2.69878 -3.11833 0
M  V30 3914 H 374.938 -0.58792 -0.30862 0
M  V30 3915 H 377.468 -2.01532 -0.352993 0
M  V30 3916 H 377.478 -3.25198 -2.46395 0
M  V30 3917 H 376.153 -3.87996 -1.49774 0
M  V30 3918 H 374.73 -2.53199 -2.7376 0
M  V30 3919 N 376.915 0.57481 -1.46744 0
M  V30 3920 C 377.825 1.711 -1.60505 0
M  V30 3921 C 378.841 1.67008 -0.488307 0
M  V30 3922 O 380.017 1.86774 -0.753495 0
M  V30 3923 C 377.082 3.07608 -1.59932 0
M  V30 3924 C 376.143 3.22904 -2.82898 0
M  V30 3925 C 375.376 4.529 -2.82343 0
M  V30 3926 O 375.599 5.37278 -1.91542 0
M  V30 3927 O 374.533 4.71611 -3.73987 0
M  V30 3928 H 378.359 1.62436 -2.56609 0
M  V30 3929 H 375.944 0.742779 -1.29627 0
M  V30 3930 H 377.826 3.88877 -1.62336 0
M  V30 3931 H 376.501 3.16692 -0.669898 0
M  V30 3932 H 375.408 2.41099 -2.86046 0
M  V30 3933 H 376.741 3.18715 -3.75076 0
M  V30 3934 N 378.394 1.34581 0.820102 0
M  V30 3935 C 379.64 1.28294 1.57836 0
M  V30 3936 C 379.995 -0.145099 1.91852 0
M  V30 3937 O 379.288 -1.09209 1.57429 0
M  V30 3938 C 379.482 2.10997 2.8847 0
M  V30 3939 C 379.311 3.61698 2.67216 0
M  V30 3940 C 378.081 4.3097 2.63805 0
M  V30 3941 C 380.279 4.55638 2.38534 0
M  V30 3942 N 378.261 5.67502 2.34126 0
M  V30 3943 C 379.632 5.80194 2.18574 0
M  V30 3944 C 381.687 4.44523 2.24285 0
M  V30 3945 C 380.39 6.94886 1.8581 0
M  V30 3946 C 382.416 5.5905 1.92916 0
M  V30 3947 C 381.778 6.82627 1.73782 0
M  V30 3948 H 377.877 0.524697 0.579842 0
M  V30 3949 H 380.461 1.69323 0.961139 0
M  V30 3950 H 378.632 1.7226 3.48111 0
M  V30 3951 H 380.364 1.96333 3.53886 0
M  V30 3952 H 377.119 3.83438 2.77978 0
M  V30 3953 H 377.543 6.39525 2.22118 0
M  V30 3954 H 382.185 3.49599 2.37782 0
M  V30 3955 H 379.903 7.89789 1.7105 0
M  V30 3956 H 383.489 5.52396 1.82619 0
M  V30 3957 H 382.369 7.69748 1.49861 0
M  V30 3958 N 379.872 -1.04064 1.18357 0
M  V30 3959 C 381.12 -1.76915 0.977013 0
M  V30 3960 C 381.441 -1.88624 -0.494577 0
M  V30 3961 O 380.711 -1.41125 -1.3587 0
M  V30 3962 H 379.291 -0.65535 0.358504 0
M  V30 3963 H 381.953 -1.25592 1.49039 0
M  V30 3964 H 381.049 -2.78178 1.41504 0
M  V30 3965 N 381.35 -0.985608 -1.22978 0
M  V30 3966 C 382.761 -0.693593 -1.73338 0
M  V30 3967 C 383.112 0.789935 -1.79595 0
M  V30 3968 O 382.237 1.61771 -1.43733 0
M  V30 3969 C 382.832 -1.25235 -3.14804 0
M  V30 3970 C 381.391 -1.00987 -3.626 0
M  V30 3971 C 380.538 -1.37695 -2.40698 0
M  V30 3972 H 383.489 -1.15884 -1.08428 0
M  V30 3973 H 383.51 -0.627329 -3.75293 0
M  V30 3974 H 383.022 -2.33209 -3.10218 0
M  V30 3975 H 381.123 0.0535565 -3.72562 0
M  V30 3976 H 381.236 -1.66812 -4.49122 0
M  V30 3977 H 379.6 -0.795459 -2.4196 0
M  V30 3978 H 380.383 -2.46657 -2.38779 0
M  V30 3979 N 382.828 1.3818 -0.7579 0
M  V30 3980 C 384.053 2.04827 -0.325679 0
M  V30 3981 C 384.478 1.56788 1.03919 0
M  V30 3982 O 383.836 0.721811 1.66312 0
M  V30 3983 C 383.884 3.58774 -0.362447 0
M  V30 3984 O 382.988 4.07372 0.642033 0
M  V30 3985 H 382.329 0.64833 -0.143402 0
M  V30 3986 H 384.859 1.7677 -1.03023 0
M  V30 3987 H 384.869 4.07434 -0.214844 0
M  V30 3988 H 383.544 3.93096 -1.35824 0
M  V30 3989 H 382.121 3.70068 0.458688 0
M  V30 3990 N 384.306 0.507319 1.49211 0
M  V30 3991 C 385.236 -0.256939 2.32082 0
M  V30 3992 C 386.217 -0.956609 1.40652 0
M  V30 3993 O 387.402 -0.946788 1.69557 0
M  V30 3994 C 384.532 -1.31802 3.21318 0
M  V30 3995 C 383.486 -0.737855 4.21592 0
M  V30 3996 C 382.812 -1.89992 4.99807 0
M  V30 3997 C 384.112 0.275325 5.21574 0
M  V30 3998 H 385.806 0.434798 2.96226 0
M  V30 3999 H 383.352 0.210546 1.42452 0
M  V30 4000 H 385.305 -1.86045 3.78107 0
M  V30 4001 H 384.029 -2.03903 2.5513 0
M  V30 4002 H 382.688 -0.217126 3.65956 0
M  V30 4003 H 382.336 -2.60877 4.30061 0
M  V30 4004 H 382.036 -1.51777 5.6766 0
M  V30 4005 H 383.56 -2.44657 5.59442 0
M  V30 4006 H 384.974 -0.179193 5.7302 0
M  V30 4007 H 383.371 0.573649 5.97352 0
M  V30 4008 H 384.441 1.18903 4.70096 0
M  V30 4009 N 385.784 -1.5574 0.241426 0
M  V30 4010 C 387.061 -1.90704 -0.434881 0
M  V30 4011 C 387.441 -1.16145 -1.76277 0
M  V30 4012 O 386.789 -0.277152 -2.26813 0
M  V30 4013 C 386.999 -3.43657 -0.608343 0
M  V30 4014 C 388.347 -4.14806 -0.906725 0
M  V30 4015 O 389.371 -3.49366 -0.694408 0
M  V30 4016 O 388.23 -5.30548 -1.31075 0
M  V30 4017 H 385.324 -0.793592 -0.23268 0
M  V30 4018 H 387.87 -1.67288 0.285086 0
M  V30 4019 H 386.642 -3.89927 0.327505 0
M  V30 4020 H 386.265 -3.72918 -1.37906 0
M  V30 4021 N 387.262 0.0317525 -1.57568 0
M  V30 4022 C 388.539 0.758366 -1.803 0
M  V30 4023 C 388.919 1.93718 -0.838845 0
M  V30 4024 O 388.267 2.28187 0.119571 0
M  V30 4025 C 388.477 1.19392 -3.27943 0
M  V30 4026 C 389.825 1.61094 -3.92854 0
M  V30 4027 O 390.849 1.28857 -3.32076 0
M  V30 4028 O 389.708 2.20918 -4.99858 0
M  V30 4029 H 386.802 0.366514 -0.741348 0
M  V30 4030 H 389.348 0.00873765 -1.69698 0
M  V30 4031 H 388.12 0.352275 -3.89711 0
M  V30 4032 H 387.743 2.00365 -3.43424 0
M  V30 4033 N 388.74 1.54641 0.303973 0
M  V30 4034 C 389.97 1.77511 1.05705 0
M  V30 4035 C 390.378 0.533228 1.81531 0
M  V30 4036 O 389.721 -0.506423 1.76582 0
M  V30 4037 C 389.783 2.92779 2.08617 0
M  V30 4038 C 389.447 4.30977 1.52013 0
M  V30 4039 C 390.444 5.11115 0.9517 0
M  V30 4040 C 388.129 4.77571 1.55665 0
M  V30 4041 C 390.123 6.35966 0.427327 0
M  V30 4042 C 387.81 6.02384 1.02841 0
M  V30 4043 C 388.808 6.81417 0.464713 0
M  V30 4044 O 388.496 8.03881 -0.0555283 0
M  V30 4045 H 388.228 0.59579 0.319391 0
M  V30 4046 H 390.782 2.02401 0.349712 0
M  V30 4047 H 389.012 2.63506 2.83022 0
M  V30 4048 H 390.701 3.03252 2.69802 0
M  V30 4049 H 391.467 4.76264 0.916407 0
M  V30 4050 H 387.346 4.16085 1.9848 0
M  V30 4051 H 390.89 6.97599 -0.0133062 0
M  V30 4052 H 386.787 6.36723 1.06084 0
M  V30 4053 H 387.555 8.18479 0.0580522 0
M  V30 4054 N 390.218 -0.567019 1.47046 0
M  V30 4055 C 391.495 -1.3276 1.43646 0
M  V30 4056 C 391.875 -2.1071 0.128186 0
M  V30 4057 O 391.223 -2.10441 -0.890326 0
M  V30 4058 C 391.433 -2.2404 2.67595 0
M  V30 4059 C 392.781 -2.85372 3.14401 0
M  V30 4060 O 393.805 -2.34346 2.68254 0
M  V30 4061 O 392.664 -3.78091 3.946 0
M  V30 4062 H 389.758 -0.597293 0.571988 0
M  V30 4063 H 392.304 -0.586735 1.59234 0
M  V30 4064 H 391.076 -1.65975 3.54356 0
M  V30 4065 H 390.699 -3.05439 2.54544 0
M  V30 4066 N 391.696 -1.35014 -0.812953 0
M  V30 4067 C 393.112 -1.14914 -1.10757 0
M  V30 4068 C 393.312 0.0426818 -2.01455 0
M  V30 4069 O 392.368 0.715212 -2.42159 0
M  V30 4070 C 393.681 -2.44911 -1.74468 0
M  V30 4071 C 395.229 -2.5106 -1.86917 0
M  V30 4072 C 395.704 -3.81085 -2.54044 0
M  V30 4073 N 397.195 -3.82301 -2.61535 0
M  V30 4074 C 397.93 -4.79634 -3.14227 0
M  V30 4075 N 397.426 -5.87353 -3.67407 0
M  V30 4076 N 399.219 -4.67078 -3.12721 0
M  V30 4077 H 391.37 -2.1136 -0.20989 0
M  V30 4078 H 393.633 -0.935128 -0.155692 0
M  V30 4079 H 393.339 -3.32267 -1.15289 0
M  V30 4080 H 393.213 -2.58989 -2.74234 0
M  V30 4081 H 395.6 -1.64137 -2.45241 0
M  V30 4082 H 395.681 -2.40901 -0.860242 0
M  V30 4083 H 395.325 -4.68402 -1.96372 0
M  V30 4084 H 395.255 -3.88529 -3.55461 0
M  V30 4085 H 397.746 -3.04465 -2.23851 0
M  V30 4086 H 398.059 -6.57624 -4.05894 0
M  V30 4087 H 396.404 -5.91054 -3.65623 0
M  V30 4088 H 399.595 -3.82067 -2.70449 0
M  V30 4089 H 399.768 -5.43098 -3.53481 0
M  V30 4090 N 393.175 1.03435 -1.18907 0
M  V30 4091 C 394.591 1.28973 -0.940111 0
M  V30 4092 C 394.791 1.97676 0.390691 0
M  V30 4093 O 393.847 2.26127 1.12352 0
M  V30 4094 C 395.16 2.14221 -2.11021 0
M  V30 4095 C 396.708 2.27547 -2.14922 0
M  V30 4096 C 397.183 3.16164 -3.31367 0
M  V30 4097 N 398.674 3.23752 -3.31269 0
M  V30 4098 C 399.409 3.92495 -4.18014 0
M  V30 4099 N 398.905 4.63515 -5.14904 0
M  V30 4100 N 400.698 3.88838 -4.05908 0
M  V30 4101 H 392.849 0.57252 -2.04538 0
M  V30 4102 H 395.112 0.315184 -0.894071 0
M  V30 4103 H 394.818 1.71054 -3.073 0
M  V30 4104 H 394.692 3.14919 -2.0762 0
M  V30 4105 H 397.079 2.69947 -1.19217 0
M  V30 4106 H 397.16 1.26418 -2.22378 0
M  V30 4107 H 396.804 2.74474 -4.27348 0
M  V30 4108 H 396.734 4.17339 -3.21148 0
M  V30 4109 H 399.225 2.73167 -2.61129 0
M  V30 4110 H 399.538 5.13583 -5.77453 0
M  V30 4111 H 397.883 4.62398 -5.18857 0
M  V30 4112 H 401.074 3.32491 -3.29495 0
M  V30 4113 H 401.247 4.4214 -4.73726 0
M  V30 4114 N 394.653 0.992116 1.22453 0
M  V30 4115 C 396.064 0.702776 1.72968 0
M  V30 4116 C 396.415 -0.780399 1.80012 0
M  V30 4117 O 395.54 -1.61007 1.44589 0
M  V30 4118 C 396.135 1.26903 3.14135 0
M  V30 4119 C 394.694 1.02909 3.62059 0
M  V30 4120 C 393.841 1.38969 2.39964 0
M  V30 4121 H 396.792 1.16457 1.07812 0
M  V30 4122 H 396.813 0.647223 3.74955 0
M  V30 4123 H 396.325 2.34851 3.08977 0
M  V30 4124 H 394.426 -0.0337979 3.72585 0
M  V30 4125 H 394.539 1.69191 4.48231 0
M  V30 4126 H 392.903 0.808279 2.41535 0
M  V30 4127 H 393.686 2.4792 2.37467 0
M  V30 4128 N 396.131 -1.37776 0.765217 0
M  V30 4129 C 397.078 -2.30342 0.145274 0
M  V30 4130 C 398.048 -1.5077 -0.696971 0
M  V30 4131 O 399.233 -1.79362 -0.650689 0
M  V30 4132 C 396.373 -3.37227 -0.732939 0
M  V30 4133 C 395.486 -4.31819 0.125199 0
M  V30 4134 C 394.621 -5.25777 -0.757107 0
M  V30 4135 C 393.66 -6.12012 0.103963 0
M  V30 4136 N 392.797 -6.98232 -0.735953 0
M  V30 4137 H 397.637 -2.8278 0.940195 0
M  V30 4138 H 395.174 -1.39211 0.475255 0
M  V30 4139 H 397.132 -3.97818 -1.25686 0
M  V30 4140 H 395.762 -2.86171 -1.49353 0
M  V30 4141 H 394.814 -3.7259 0.766865 0
M  V30 4142 H 396.126 -4.92509 0.789683 0
M  V30 4143 H 395.28 -5.91541 -1.34776 0
M  V30 4144 H 394.019 -4.65481 -1.45529 0
M  V30 4145 H 393.024 -5.45233 0.707197 0
M  V30 4146 H 394.249 -6.74379 0.799381 0
M  V30 4147 H 392.195 -6.40472 -1.41887 0
M  V30 4148 H 392.112 -7.55891 -0.128624 0
M  V30 4149 H 393.38 -7.68393 -1.31121 0
M  V30 4150 N 397.609 -0.515225 -1.4894 0
M  V30 4151 C 398.834 0.022727 -2.07388 0
M  V30 4152 C 399.259 1.2876 -1.37122 0
M  V30 4153 O 398.617 1.76067 -0.432431 0
M  V30 4154 C 398.665 0.244869 -3.59768 0
M  V30 4155 O 397.769 1.31667 -3.90817 0
M  V30 4156 H 397.11 -0.0325506 -0.663202 0
M  V30 4157 H 399.64 -0.718918 -1.91553 0
M  V30 4158 H 399.65 0.47205 -4.0526 0
M  V30 4159 H 398.325 -0.679194 -4.10317 0
M  V30 4160 H 396.902 1.07331 -3.5712 0
M  V30 4161 N 399.087 1.5561 -0.249682 0
M  V30 4162 C 400.312 2.03865 0.381305 0
M  V30 4163 C 400.737 1.12769 1.50548 0
M  V30 4164 O 400.095 0.121189 1.80895 0
M  V30 4165 C 400.143 3.50101 0.863816 0
M  V30 4166 O 399.247 3.62132 1.97318 0
M  V30 4167 H 398.588 0.658827 0.0827194 0
M  V30 4168 H 401.118 2.01105 -0.376552 0
M  V30 4169 H 401.128 3.90975 1.1663 0
M  V30 4170 H 399.803 4.1588 0.0411816 0
M  V30 4171 H 398.38 3.33155 1.67517 0
M  V30 4172 N 400.565 -0.0233959 1.57583 0
M  V30 4173 C 401.795 -0.723631 1.93513 0
M  V30 4174 C 402.203 -1.69115 0.848333 0
M  V30 4175 O 401.546 -1.82781 -0.183484 0
M  V30 4176 C 401.608 -1.53075 3.25282 0
M  V30 4177 C 401.272 -0.727388 4.51174 0
M  V30 4178 C 402.269 -0.0251924 5.19894 0
M  V30 4179 C 399.954 -0.680256 4.97672 0
M  V30 4180 C 401.948 0.713374 6.33395 0
M  V30 4181 C 399.635 0.0620523 6.11068 0
M  V30 4182 C 400.633 0.757622 6.78785 0
M  V30 4183 O 400.321 1.48787 7.90011 0
M  V30 4184 H 400.053 -0.208051 0.643188 0
M  V30 4185 H 402.607 0.0167489 2.05393 0
M  V30 4186 H 400.837 -2.31508 3.09744 0
M  V30 4187 H 402.526 -2.11413 3.46496 0
M  V30 4188 H 403.292 -0.0526003 4.84971 0
M  V30 4189 H 399.171 -1.21116 4.44805 0
M  V30 4190 H 402.715 1.25683 6.86185 0
M  V30 4191 H 398.612 0.0913634 6.45435 0
M  V30 4192 H 399.38 1.40213 8.06401 0
M  V30 4193 N 402.043 -1.548 -0.295768 0
M  V30 4194 C 402.973 -1.89115 -1.36959 0
M  V30 4195 C 403.954 -0.75059 -1.52644 0
M  V30 4196 O 405.139 -1.00678 -1.66065 0
M  V30 4197 C 402.269 -2.14307 -2.73295 0
M  V30 4198 C 401.223 -3.30151 -2.72368 0
M  V30 4199 C 400.549 -3.40772 -4.12042 0
M  V30 4200 C 401.849 -4.67126 -2.33646 0
M  V30 4201 H 403.543 -2.79053 -1.08488 0
M  V30 4202 H 401.089 -1.34266 -0.520443 0
M  V30 4203 H 403.042 -2.36898 -3.48507 0
M  V30 4204 H 401.766 -1.21145 -3.03301 0
M  V30 4205 H 400.425 -3.0749 -1.99613 0
M  V30 4206 H 400.073 -2.45117 -4.39234 0
M  V30 4207 H 399.773 -4.18645 -4.12322 0
M  V30 4208 H 401.297 -3.6563 -4.89027 0
M  V30 4209 H 402.711 -4.89414 -2.98575 0
M  V30 4210 H 401.108 -5.47751 -2.45129 0
M  V30 4211 H 402.178 -4.67489 -1.28772 0
M  V30 4212 N 403.521 0.559213 -1.47345 0
M  V30 4213 C 404.469 1.68747 -1.60085 0
M  V30 4214 C 405.463 1.628 -0.46825 0
M  V30 4215 O 406.669 1.68009 -0.645977 0
M  V30 4216 H 403.044 0.558329 -0.503759 0
M  V30 4217 H 405.015 1.55138 -2.54902 0
M  V30 4218 C 403.764 3.07103 -1.63042 0
M  V30 4219 H 403.087 3.12361 -2.49541 0
M  V30 4220 H 404.527 3.85743 -1.76006 0
M  V30 4221 C 402.986 3.34935 -0.363357 0
M  V30 4222 O 403.516 3.98102 0.536416 0
M  V30 4223 N 401.722 2.89574 -0.244 0
M  V30 4224 H 401.269 2.38348 -0.977133 0
M  V30 4225 H 401.227 3.08566 0.602836 0
M  V30 4226 N 404.999 1.35443 0.805782 0
M  V30 4227 C 405.931 1.24285 1.92577 0
M  V30 4228 C 406.944 0.165962 1.61952 0
M  V30 4229 O 408.133 0.419303 1.73505 0
M  V30 4230 C 405.233 0.891272 3.2697 0
M  V30 4231 C 404.406 2.06669 3.85495 0
M  V30 4232 C 403.465 1.69077 4.98297 0
M  V30 4233 O 402.491 2.4096 5.15681 0
M  V30 4234 N 403.693 0.614869 5.77234 0
M  V30 4235 H 406.458 2.20777 2.02676 0
M  V30 4236 H 404.019 1.28623 0.983243 0
M  V30 4237 H 406.011 0.621256 3.99903 0
M  V30 4238 H 404.581 0.016004 3.12596 0
M  V30 4239 H 403.801 2.50046 3.04747 0
M  V30 4240 H 405.089 2.85237 4.21328 0
M  V30 4241 H 404.487 0.017648 5.65697 0
M  V30 4242 H 403.044 0.404636 6.50543 0
M  V30 4243 N 406.477 -1.02803 1.19454 0
M  V30 4244 C 407.705 -1.79841 1.02297 0
M  V30 4245 C 408.12 -1.83879 -0.428259 0
M  V30 4246 O 407.477 -1.28345 -1.29745 0
M  V30 4247 C 407.528 -3.24852 1.58598 0
M  V30 4248 O 407.249 -3.21097 2.98041 0
M  V30 4249 C 408.75 -4.18485 1.46236 0
M  V30 4250 H 405.97 -0.565936 0.360496 0
M  V30 4251 H 408.514 -1.2948 1.58288 0
M  V30 4252 H 406.669 -3.72401 1.06753 0
M  V30 4253 H 407.083 -4.12033 3.24545 0
M  V30 4254 H 408.557 -5.18121 1.90407 0
M  V30 4255 H 409.034 -4.37254 0.41301 0
M  V30 4256 H 409.64 -3.76811 1.97215 0
M  V30 4257 N 407.956 -0.998596 -1.21925 0
M  V30 4258 C 409.181 -0.696015 -1.95372 0
M  V30 4259 C 409.606 0.733826 -1.73195 0
M  V30 4260 O 408.964 1.50242 -1.01474 0
M  V30 4261 C 409.012 -1.01466 -3.4603 0
M  V30 4262 O 408.116 -0.116415 -4.12236 0
M  V30 4263 H 407.457 -0.259938 -0.611006 0
M  V30 4264 H 409.987 -1.33711 -1.54863 0
M  V30 4265 H 409.997 -0.958855 -3.96573 0
M  V30 4266 H 408.672 -2.05653 -3.61497 0
M  V30 4267 H 407.249 -0.228193 -3.72201 0
M  V30 4268 N 409.434 1.37368 -0.772513 0
M  V30 4269 C 410.845 1.8231 -0.402493 0
M  V30 4270 C 411.196 1.6436 1.07146 0
M  V30 4271 O 410.321 1.15514 1.82991 0
M  V30 4272 C 410.916 3.30979 -0.723776 0
M  V30 4273 C 409.475 3.74195 -0.406802 0
M  V30 4274 C 408.622 2.59885 -0.967218 0
M  V30 4275 H 411.573 1.25829 -0.967099 0
M  V30 4276 H 411.594 3.80499 -0.00870832 0
M  V30 4277 H 411.106 3.44011 -1.7966 0
M  V30 4278 H 409.207 3.66732 0.658673 0
M  V30 4279 H 409.32 4.7027 -0.915588 0
M  V30 4280 H 407.684 2.51674 -0.391416 0
M  V30 4281 H 408.467 2.7571 -2.04546 0
M  V30 4282 N 410.912 0.523116 1.48665 0
M  V30 4283 C 411.844 -0.280421 2.27478 0
M  V30 4284 C 412.857 -0.910694 1.34945 0
M  V30 4285 O 414.046 -0.790295 1.60052 0
M  V30 4286 C 411.146 -1.41171 3.08097 0
M  V30 4287 C 410.319 -0.884642 4.28361 0
M  V30 4288 C 409.378 -1.89622 4.90846 0
M  V30 4289 O 408.404 -1.4559 5.50265 0
M  V30 4290 N 409.606 -3.22801 4.82472 0
M  V30 4291 H 412.371 0.395481 2.97079 0
M  V30 4292 H 409.932 0.357018 1.57915 0
M  V30 4293 H 411.924 -2.08645 3.4677 0
M  V30 4294 H 410.494 -1.99139 2.40961 0
M  V30 4295 H 409.714 -0.0341177 3.94185 0
M  V30 4296 H 411.002 -0.511268 5.06225 0
M  V30 4297 H 410.4 -3.61246 4.35336 0
M  V30 4298 H 408.957 -3.85927 5.25265 0
M  V30 4299 N 412.39 -1.55475 0.257931 0
M  V30 4300 C 413.801 -1.8511 -0.243135 0
M  V30 4301 C 414.152 -1.17986 -1.5676 0
M  V30 4302 O 413.277 -0.462102 -2.11409 0
M  V30 4303 C 413.872 -3.35826 -0.447929 0
M  V30 4304 C 412.431 -3.65647 -0.893245 0
M  V30 4305 C 411.578 -2.7729 0.0232965 0
M  V30 4306 H 414.529 -1.51261 0.480199 0
M  V30 4307 H 414.55 -3.58002 -1.28898 0
M  V30 4308 H 414.062 -3.84652 0.516196 0
M  V30 4309 H 412.163 -3.22308 -1.86945 0
M  V30 4310 H 412.276 -4.73312 -0.742469 0
M  V30 4311 H 410.64 -2.49942 -0.490021 0
M  V30 4312 H 411.423 -3.28926 0.982994 0
M  V30 4313 N 413.868 0.0150385 -1.57593 0
M  V30 4314 C 415.096 0.714395 -1.94175 0
M  V30 4315 C 415.511 1.68135 -0.858841 0
M  V30 4316 O 414.868 1.81766 0.163567 0
M  V30 4317 C 414.919 1.45933 -3.30735 0
M  V30 4318 O 414.64 0.531167 -4.34868 0
M  V30 4319 C 416.141 2.25456 -3.81686 0
M  V30 4320 H 413.361 0.199923 -0.640525 0
M  V30 4321 H 415.905 -0.0316096 -2.04476 0
M  V30 4322 H 414.06 2.15709 -3.21789 0
M  V30 4323 H 414.474 1.05509 -5.13778 0
M  V30 4324 H 415.948 2.731 -4.79709 0
M  V30 4325 H 416.425 3.07485 -3.13607 0
M  V30 4326 H 417.031 1.60727 -3.9376 0
M  V30 4327 N 415.346 1.54954 0.287554 0
M  V30 4328 C 416.279 1.81737 1.3801 0
M  V30 4329 C 417.257 0.669412 1.48181 0
M  V30 4330 O 418.441 0.910839 1.65033 0
M  V30 4331 C 415.568 1.96606 2.75796 0
M  V30 4332 C 414.614 3.19098 2.82982 0
M  V30 4333 S 415.447 4.7683 2.43707 0
M  V30 4334 C 416.603 4.94653 3.83496 0
M  V30 4335 H 416.836 2.74122 1.15085 0
M  V30 4336 H 414.369 1.46538 0.486403 0
M  V30 4337 H 416.327 2.05858 3.55152 0
M  V30 4338 H 414.988 1.05136 2.95982 0
M  V30 4339 H 414.181 3.26344 3.84077 0
M  V30 4340 H 413.783 3.08361 2.11635 0
M  V30 4341 H 416.075 4.79502 4.78628 0
M  V30 4342 H 417.018 5.96728 3.8121 0
M  V30 4343 H 417.426 4.2272 3.74123 0
M  V30 4344 N 416.824 -0.551391 1.4764 0
M  V30 4345 C 418.24 -0.877887 1.33287 0
M  V30 4346 C 418.44 -1.98817 0.327721 0
M  V30 4347 O 417.496 -2.51171 -0.258695 0
M  V30 4348 C 418.809 -1.26563 2.72768 0
M  V30 4349 C 420.357 -1.37673 2.81097 0
M  V30 4350 C 420.832 -1.79799 4.21232 0
M  V30 4351 N 422.323 -1.8694 4.23802 0
M  V30 4352 C 423.058 -2.20876 5.29151 0
M  V30 4353 N 422.554 -2.53386 6.448 0
M  V30 4354 N 424.347 -2.217 5.16532 0
M  V30 4355 H 416.498 0.18153 2.11623 0
M  V30 4356 H 418.761 0.0185514 0.947818 0
M  V30 4357 H 418.467 -0.523591 3.47781 0
M  V30 4358 H 418.341 -2.22052 3.04915 0
M  V30 4359 H 420.728 -2.10956 2.06353 0
M  V30 4360 H 420.809 -0.40357 2.52596 0
M  V30 4361 H 420.453 -1.07083 4.96483 0
M  V30 4362 H 420.383 -2.78128 4.4716 0
M  V30 4363 H 422.874 -1.64179 3.40373 0
M  V30 4364 H 423.187 -2.78325 7.20941 0
M  V30 4365 H 421.532 -2.50953 6.48111 0
M  V30 4366 H 424.723 -1.95745 4.25207 0
M  V30 4367 H 424.896 -2.47818 5.98741 0
M  V30 4368 N 418.302 -1.35869 -0.798587 0
M  V30 4369 C 419.234 -1.25305 -1.91915 0
M  V30 4370 C 420.247 -0.174548 -1.61862 0
M  V30 4371 O 421.436 -0.428499 -1.73281 0
M  V30 4372 C 418.536 -0.9086 -3.26493 0
M  V30 4373 C 417.709 -2.08711 -3.84394 0
M  V30 4374 C 416.768 -1.71717 -4.97393 0
M  V30 4375 O 415.794 -2.43692 -5.14396 0
M  V30 4376 N 416.996 -0.645473 -5.769 0
M  V30 4377 H 419.761 -2.21849 -2.01502 0
M  V30 4378 H 417.322 -1.29143 -0.976408 0
M  V30 4379 H 419.314 -0.642455 -3.99568 0
M  V30 4380 H 417.884 -0.0325815 -3.12583 0
M  V30 4381 H 417.104 -2.51659 -3.03416 0
M  V30 4382 H 418.392 -2.87468 -4.19809 0
M  V30 4383 H 417.79 -0.047648 -5.6568 0
M  V30 4384 H 416.347 -0.43913 -6.50319 0
M  V30 4385 N 419.78 1.02168 -1.19998 0
M  V30 4386 C 421.196 1.27969 -0.953737 0
M  V30 4387 C 421.396 1.98079 0.369703 0
M  V30 4388 O 420.452 2.27306 1.09947 0
M  V30 4389 C 421.765 2.11971 -2.13281 0
M  V30 4390 C 423.313 2.25255 -2.17323 0
M  V30 4391 C 423.788 3.12632 -3.34702 0
M  V30 4392 N 425.279 3.2022 -3.34684 0
M  V30 4393 C 426.014 3.88039 -4.22153 0
M  V30 4394 N 425.51 4.58027 -5.19791 0
M  V30 4395 N 427.303 3.84511 -4.10009 0
M  V30 4396 H 419.454 0.550794 -2.05134 0
M  V30 4397 H 421.717 0.305683 -0.897364 0
M  V30 4398 H 421.423 1.67785 -3.09097 0
M  V30 4399 H 421.297 3.12699 -2.10949 0
M  V30 4400 H 423.684 2.68667 -1.22073 0
M  V30 4401 H 423.765 1.24053 -2.23706 0
M  V30 4402 H 423.409 2.69926 -4.30235 0
M  V30 4403 H 423.339 4.13909 -3.25556 0
M  V30 4404 H 425.83 2.70382 -2.64012 0
M  V30 4405 H 426.143 5.07429 -5.82868 0
M  V30 4406 H 424.488 4.56869 -5.23733 0
M  V30 4407 H 427.679 3.28978 -3.33003 0
M  V30 4408 H 427.852 4.3709 -4.78389 0
M  V30 4409 N 421.258 1.00505 1.21394 0
M  V30 4410 C 422.483 0.706367 1.95001 0
M  V30 4411 C 422.908 -0.72463 1.73582 0
M  V30 4412 O 422.266 -1.49702 1.0227 0
M  V30 4413 C 422.314 1.03299 3.45487 0
M  V30 4414 O 421.418 0.138275 4.12168 0
M  V30 4415 H 420.759 0.263175 0.609619 0
M  V30 4416 H 423.289 1.34531 1.54151 0
M  V30 4417 H 423.299 0.979872 3.96059 0
M  V30 4418 H 421.974 2.07567 3.60401 0
M  V30 4419 H 420.551 0.247928 3.72075 0
M  V30 4420 N 422.737 -1.36956 0.779787 0
M  V30 4421 C 424.153 -1.52817 0.460342 0
M  V30 4422 C 424.353 -1.7361 -1.02283 0
M  V30 4423 O 423.409 -1.76207 -1.80852 0
M  V30 4424 C 424.722 -2.71983 1.28241 0
M  V30 4425 C 426.27 -2.85849 1.27512 0
M  V30 4426 C 426.745 -4.08008 2.08072 0
M  V30 4427 N 428.236 -4.15135 2.05467 0
M  V30 4428 C 428.971 -5.08711 2.64577 0
M  V30 4429 N 428.467 -6.07792 3.32506 0
M  V30 4430 N 430.26 -5.01254 2.54363 0
M  V30 4431 H 422.411 -1.21713 1.74068 0
M  V30 4432 H 424.674 -0.593294 0.739396 0
M  V30 4433 H 424.38 -2.63109 2.33381 0
M  V30 4434 H 424.254 -3.65882 0.917088 0
M  V30 4435 H 426.641 -2.94189 0.231686 0
M  V30 4436 H 426.722 -1.92886 1.68014 0
M  V30 4437 H 426.366 -4.00429 3.12441 0
M  V30 4438 H 426.296 -5.001 1.64947 0
M  V30 4439 H 428.787 -3.44189 1.5602 0
M  V30 4440 H 429.1 -6.75739 3.74963 0
M  V30 4441 H 427.445 -6.08047 3.36606 0
M  V30 4442 H 430.636 -4.22795 2.00902 0
M  V30 4443 H 430.809 -5.73995 3.00722 0
M  V30 4444 N 424.215 -0.530993 -1.48385 0
M  V30 4445 C 425.44 0.000729535 -2.074 0
M  V30 4446 C 425.865 1.27298 -1.3848 0
M  V30 4447 O 425.223 1.75599 -0.451081 0
M  V30 4448 C 425.271 0.206697 -3.60007 0
M  V30 4449 O 424.375 1.27514 -3.92191 0
M  V30 4450 H 423.716 -0.039583 -0.662819 0
M  V30 4451 H 426.246 -0.739194 -1.9078 0
M  V30 4452 H 426.256 0.42904 -4.05738 0
M  V30 4453 H 424.931 -0.722675 -4.09573 0
M  V30 4454 H 423.508 1.03537 -3.58238 0
M  V30 4455 N 425.693 1.55336 -0.266172 0
M  V30 4456 C 426.941 1.99003 0.35246 0
M  V30 4457 C 427.262 1.15591 1.57047 0
M  V30 4458 O 426.532 0.243268 1.94384 0
M  V30 4459 H 425.112 0.735025 0.133217 0
M  V30 4460 H 427.774 1.91367 -0.369434 0
M  V30 4461 H 426.87 3.05289 0.648453 0
M  V30 4462 N 427.171 -0.0066808 1.57599 0
M  V30 4463 C 428.396 -0.707738 1.94951 0
M  V30 4464 C 428.821 -1.66882 0.867868 0
M  V30 4465 O 428.179 -1.80457 -0.17458 0
M  V30 4466 C 428.227 -1.42162 3.31394 0
M  V30 4467 O 427.331 -2.53578 3.25226 0
M  V30 4468 H 426.672 -0.188752 0.636607 0
M  V30 4469 H 429.202 0.0445193 2.04552 0
M  V30 4470 H 429.212 -1.78655 3.66806 0
M  V30 4471 H 427.887 -0.716903 4.09675 0
M  V30 4472 H 426.464 -2.19463 3.01481 0
M  V30 4473 N 428.649 -1.55105 -0.279332 0
M  V30 4474 C 429.897 -1.75066 -1.00977 0
M  V30 4475 C 430.218 -0.551276 -1.87045 0
M  V30 4476 O 429.488 0.433984 -1.91032 0
M  V30 4477 H 428.068 -0.645578 -0.375816 0
M  V30 4478 H 430.73 -1.92497 -0.305089 0
M  V30 4479 H 429.826 -2.64894 -1.65038 0
M  V30 4480 N 430.127 0.543554 -1.4793 0
M  V30 4481 C 431.057 1.65888 -1.64327 0
M  V30 4482 C 432.038 1.62818 -0.492383 0
M  V30 4483 O 433.223 1.80226 -0.723338 0
M  V30 4484 C 430.353 3.04506 -1.67013 0
M  V30 4485 C 429.307 3.2243 -2.81466 0
M  V30 4486 C 428.633 4.61972 -2.69233 0
M  V30 4487 C 429.933 3.06496 -4.22915 0
M  V30 4488 H 431.627 1.52421 -2.57698 0
M  V30 4489 H 429.173 0.731849 -1.24016 0
M  V30 4490 H 431.126 3.82391 -1.77074 0
M  V30 4491 H 429.85 3.18964 -0.70212 0
M  V30 4492 H 428.509 2.46957 -2.70938 0
M  V30 4493 H 428.157 4.73247 -1.7043 0
M  V30 4494 H 427.857 4.74911 -3.46025 0
M  V30 4495 H 429.381 5.41974 -2.81242 0
M  V30 4496 H 430.795 3.74186 -4.34348 0
M  V30 4497 H 429.192 3.30938 -5.006 0
M  V30 4498 H 430.262 2.03077 -4.40327 0
M  V30 4499 N 431.605 1.3629 0.791371 0
M  V30 4500 C 432.537 1.26321 1.91248 0
M  V30 4501 C 433.55 0.18313 1.61767 0
M  V30 4502 O 434.739 0.437682 1.73051 0
M  V30 4503 C 431.839 0.925901 3.26007 0
M  V30 4504 C 431.012 2.10746 3.83281 0
M  V30 4505 C 430.071 1.74352 4.96475 0
M  V30 4506 O 429.097 2.46416 5.13096 0
M  V30 4507 N 430.299 0.676058 5.7655 0
M  V30 4508 H 433.064 2.22915 2.00323 0
M  V30 4509 H 430.625 1.29659 0.969546 0
M  V30 4510 H 432.617 0.663636 3.99222 0
M  V30 4511 H 431.187 0.0491581 3.12561 0
M  V30 4512 H 430.407 2.53264 3.02077 0
M  V30 4513 H 431.695 2.8969 4.18279 0
M  V30 4514 H 431.093 0.0776467 5.65647 0
M  V30 4515 H 429.65 0.473612 6.50077 0
M  V30 4516 N 433.083 -1.0153 1.20538 0
M  V30 4517 C 433.993 -2.13557 0.971113 0
M  V30 4518 C 435.009 -1.73845 -0.0734366 0
M  V30 4519 O 436.185 -2.01075 0.114299 0
M  V30 4520 C 433.25 -3.42661 0.527639 0
M  V30 4521 C 432.311 -3.96608 1.64319 0
M  V30 4522 C 431.544 -5.1955 1.22078 0
M  V30 4523 O 431.767 -5.70329 0.0900198 0
M  V30 4524 O 430.701 -5.66681 2.02871 0
M  V30 4525 H 434.527 -2.3619 1.90913 0
M  V30 4526 H 432.112 -1.11946 0.989362 0
M  V30 4527 H 433.994 -4.20404 0.289621 0
M  V30 4528 H 432.669 -3.21441 -0.381779 0
M  V30 4529 H 431.576 -3.20139 1.93551 0
M  V30 4530 H 432.909 -4.22219 2.52966 0
M  V30 4531 N 434.561 -1.01147 -1.20859 0
M  V30 4532 C 435.972 -0.730205 -1.71828 0
M  V30 4533 C 436.323 0.751662 -1.8123 0
M  V30 4534 O 435.448 1.58686 -1.47132 0
M  V30 4535 C 436.043 -1.31885 -3.12077 0
M  V30 4536 C 434.602 -1.08656 -3.60376 0
M  V30 4537 C 433.749 -1.42769 -2.37723 0
M  V30 4538 H 436.7 -1.18158 -1.05945 0
M  V30 4539 H 436.721 -0.706793 -3.73878 0
M  V30 4540 H 436.233 -2.39737 -3.05201 0
M  V30 4541 H 434.334 -0.0254814 -3.72591 0
M  V30 4542 H 434.447 -1.76301 -4.45483 0
M  V30 4543 H 432.811 -0.846603 -2.40218 0
M  V30 4544 H 433.594 -2.51666 -2.33493 0
M  V30 4545 N 436.039 1.36541 -0.78704 0
M  V30 4546 C 436.972 2.27831 -0.129765 0
M  V30 4547 C 437.95 1.47105 0.692732 0
M  V30 4548 O 439.134 1.7641 0.664222 0
M  V30 4549 C 436.261 3.28577 0.821883 0
M  V30 4550 C 435.307 4.26422 0.0814771 0
M  V30 4551 S 436.14 5.20919 -1.24112 0
M  V30 4552 C 437.296 6.25212 -0.293409 0
M  V30 4553 H 437.529 2.83229 -0.903811 0
M  V30 4554 H 435.062 1.43046 -0.581144 0
M  V30 4555 H 437.02 3.87123 1.3655 0
M  V30 4556 H 435.681 2.72096 1.56916 0
M  V30 4557 H 434.874 4.97554 0.803485 0
M  V30 4558 H 434.476 3.71944 -0.391589 0
M  V30 4559 H 436.768 6.75435 0.528622 0
M  V30 4560 H 437.711 7.01378 -0.973344 0
M  V30 4561 H 438.119 5.64407 0.102196 0
M  V30 4562 N 437.518 0.538854 1.48102 0
M  V30 4563 C 438.451 -0.266495 2.26639 0
M  V30 4564 C 439.429 -0.93687 1.32897 0
M  V30 4565 O 440.613 -0.959507 1.62252 0
M  V30 4566 C 437.74 -1.37814 3.09394 0
M  V30 4567 C 436.786 -0.818247 4.18577 0
M  V30 4568 S 437.619 0.320848 5.34538 0
M  V30 4569 C 438.775 -0.793059 6.20855 0
M  V30 4570 H 439.008 0.399994 2.94597 0
M  V30 4571 H 436.541 0.324808 1.50945 0
M  V30 4572 H 438.499 -2.01488 3.57649 0
M  V30 4573 H 437.16 -2.01639 2.40833 0
M  V30 4574 H 436.353 -1.65247 4.7614 0
M  V30 4575 H 435.955 -0.258036 3.73109 0
M  V30 4576 H 438.247 -1.68961 6.56093 0
M  V30 4577 H 439.19 -0.255204 7.0764 0
M  V30 4578 H 439.598 -1.07746 5.54122 0
M  V30 4579 N 438.996 -1.55193 0.274407 0
M  V30 4580 C 440.407 -1.85358 -0.223488 0
M  V30 4581 C 440.758 -1.19642 -1.555 0
M  V30 4582 O 439.883 -0.484498 -2.10907 0
M  V30 4583 C 440.478 -3.36282 -0.412285 0
M  V30 4584 C 439.037 -3.66574 -0.854413 0
M  V30 4585 C 438.184 -2.7725 0.0527056 0
M  V30 4586 H 441.135 -1.50743 0.496215 0
M  V30 4587 H 441.156 -3.59349 -1.25094 0
M  V30 4588 H 440.668 -3.84083 0.556965 0
M  V30 4589 H 438.769 -3.24273 -1.83516 0
M  V30 4590 H 438.882 -4.74073 -0.692226 0
M  V30 4591 H 437.246 -2.50447 -0.463484 0
M  V30 4592 H 438.029 -3.27865 1.01783 0
M  V30 4593 N 440.474 -0.00167713 -1.576 0
M  V30 4594 C 441.721 0.68282 -1.90641 0
M  V30 4595 C 442.049 1.73686 -0.875415 0
M  V30 4596 O 441.304 1.95334 0.119575 0
M  V30 4597 C 441.603 1.36189 -3.30435 0
M  V30 4598 C 441.269 0.440887 -4.48739 0
M  V30 4599 C 439.931 0.187312 -4.80835 0
M  V30 4600 C 442.283 -0.193134 -5.20842 0
M  V30 4601 C 439.611 -0.70855 -5.82406 0
M  V30 4602 C 441.963 -1.07688 -6.23367 0
M  V30 4603 C 440.627 -1.33962 -6.53919 0
M  V30 4604 H 439.897 0.249862 -0.697603 0
M  V30 4605 H 442.544 -0.0575642 -1.91413 0
M  V30 4606 H 440.849 2.17636 -3.25794 0
M  V30 4607 H 442.546 1.89759 -3.5326 0
M  V30 4608 H 439.136 0.648694 -4.23663 0
M  V30 4609 H 443.32 -0.0102445 -4.96299 0
M  V30 4610 H 438.576 -0.920097 -6.04437 0
M  V30 4611 H 442.75 -1.57451 -6.78367 0
M  V30 4612 H 440.377 -2.03549 -7.32442 0
M  V30 4613 N 441.952 1.55251 0.271103 0
M  V30 4614 C 443.2 1.75599 1.00047 0
M  V30 4615 C 443.521 0.561188 1.8675 0
M  V30 4616 O 442.791 -0.423846 1.9126 0
M  V30 4617 H 441.371 0.647562 0.372387 0
M  V30 4618 H 444.033 1.92656 0.294876 0
M  V30 4619 H 443.129 2.65766 1.6363 0
M  V30 4620 N 443.43 -0.535701 1.48216 0
M  V30 4621 C 444.393 -1.623 1.61838 0
M  V30 4622 C 445.393 -1.53087 0.492024 0
M  V30 4623 O 446.583 -1.5686 0.757668 0
M  V30 4624 C 443.715 -3.01907 1.58319 0
M  V30 4625 H 444.908 -1.51564 2.58783 0
M  V30 4626 H 442.461 -0.757317 1.36727 0
M  V30 4627 H 443.196 -3.18155 0.628299 0
M  V30 4628 H 442.981 -3.10003 2.40085 0
M  V30 4629 H 444.471 -3.80969 1.71033 0
M  V30 4630 N 444.908 -1.36708 -0.784132 0
M  V30 4631 C 446.133 -1.34565 -1.5782 0
M  V30 4632 C 446.558 0.0695257 -1.87971 0
M  V30 4633 O 445.916 1.04302 -1.48293 0
M  V30 4634 C 445.964 -2.17952 -2.87279 0
M  V30 4635 O 445.068 -1.57563 -3.81114 0
M  V30 4636 H 444.409 -0.460337 -0.478524 0
M  V30 4637 H 446.939 -1.80064 -0.971495 0
M  V30 4638 H 446.949 -2.30721 -3.365 0
M  V30 4639 H 445.624 -3.20823 -2.64661 0
M  V30 4640 H 444.201 -1.53764 -3.39722 0
M  V30 4641 N 446.386 1.0089 -1.21074 0
M  V30 4642 C 447.349 2.0775 -0.968129 0
M  V30 4643 C 448.349 1.6069 0.0593445 0
M  V30 4644 O 449.539 1.73293 -0.177525 0
M  V30 4645 C 446.671 3.37794 -0.459108 0
M  V30 4646 H 447.864 2.30707 -1.9161 0
M  V30 4647 H 445.417 1.17807 -1.02719 0
M  V30 4648 H 446.152 3.20516 0.49397 0
M  V30 4649 H 445.937 3.7328 -1.20019 0
M  V30 4650 H 447.427 4.16454 -0.309099 0
M  V30 4651 N 447.864 1.01787 1.20321 0
M  V30 4652 C 449.111 0.707936 1.89722 0
M  V30 4653 C 449.439 -0.762535 1.78929 0
M  V30 4654 O 448.694 -1.56977 1.16861 0
M  V30 4655 C 448.993 1.09076 3.40349 0
M  V30 4656 C 448.659 2.55765 3.71342 0
M  V30 4657 C 447.321 2.95845 3.79511 0
M  V30 4658 C 449.673 3.50723 3.85542 0
M  V30 4659 C 447.001 4.2982 3.99339 0
M  V30 4660 C 449.353 4.84387 4.06881 0
M  V30 4661 C 448.017 5.24172 4.1328 0
M  V30 4662 H 447.287 0.259052 0.694243 0
M  V30 4663 H 449.934 1.27868 1.42555 0
M  V30 4664 H 448.239 0.438453 3.89339 0
M  V30 4665 H 449.936 0.828636 3.92345 0
M  V30 4666 H 446.526 2.2371 3.65584 0
M  V30 4667 H 450.71 3.20916 3.78585 0
M  V30 4668 H 445.966 4.60196 4.02529 0
M  V30 4669 H 450.14 5.57891 4.1681 0
M  V30 4670 H 447.767 6.27997 4.28396 0
M  V30 4671 N 449.342 -1.36122 0.79427 0
M  V30 4672 C 450.289 -2.29982 0.194101 0
M  V30 4673 C 451.259 -1.52214 -0.664833 0
M  V30 4674 O 452.444 -1.80702 -0.612498 0
M  V30 4675 C 449.584 -3.38706 -0.661244 0
M  V30 4676 C 448.697 -4.31456 0.216766 0
M  V30 4677 C 447.832 -5.27265 -0.645411 0
M  V30 4678 C 446.871 -6.11653 0.233756 0
M  V30 4679 N 446.008 -6.99636 -0.587682 0
M  V30 4680 H 450.848 -2.80722 0.999965 0
M  V30 4681 H 448.385 -1.38172 0.504677 0
M  V30 4682 H 450.343 -4.00394 -1.17219 0
M  V30 4683 H 448.973 -2.89274 -1.43249 0
M  V30 4684 H 448.025 -3.7088 0.845724 0
M  V30 4685 H 449.337 -4.90724 0.893973 0
M  V30 4686 H 448.491 -5.94266 -1.22198 0
M  V30 4687 H 447.23 -4.68463 -1.35623 0
M  V30 4688 H 446.235 -5.4361 0.82269 0
M  V30 4689 H 447.46 -6.72531 0.942247 0
M  V30 4690 H 445.406 -6.43337 -1.2827 0
M  V30 4691 H 445.323 -7.55993 0.0317402 0
M  V30 4692 H 446.591 -7.71001 -1.14792 0
M  V30 4693 N 450.82 -0.546701 -1.47814 0
M  V30 4694 C 452.048 -0.0232857 -2.06887 0
M  V30 4695 C 452.463 1.26571 -1.4009 0
M  V30 4696 O 451.82 1.7569 -0.493906 0
M  V30 4697 C 451.871 0.186975 -3.61016 0
M  V30 4698 O 451.592 -1.05097 -4.25307 0
M  V30 4699 C 453.093 0.748872 -4.36929 0
M  V30 4700 H 450.313 -0.0410763 -0.669742 0
M  V30 4701 H 452.857 -0.757117 -1.89968 0
M  V30 4702 H 451.012 0.870903 -3.77484 0
M  V30 4703 H 451.426 -0.842121 -5.17695 0
M  V30 4704 H 452.9 0.845334 -5.45489 0
M  V30 4705 H 453.377 1.75772 -4.02493 0
M  V30 4706 H 453.983 0.100979 -4.2518 0
M  V30 4707 N 452.299 1.55045 -0.282633 0
M  V30 4708 C 453.249 2.19514 0.616249 0
M  V30 4709 C 454.233 1.16216 1.11277 0
M  V30 4710 O 455.425 1.42004 1.05659 0
M  V30 4711 C 452.554 2.92548 1.7964 0
M  V30 4712 C 451.64 4.03142 1.31671 0
M  V30 4713 N 452.031 5.0276 0.553695 0
M  V30 4714 C 450.329 4.1635 1.59903 0
M  V30 4715 C 451.03 5.80923 0.30054 0
M  V30 4716 N 450.006 5.3651 0.875116 0
M  V30 4717 H 453.808 2.93889 0.0255363 0
M  V30 4718 H 451.322 1.62169 -0.0865362 0
M  V30 4719 H 453.319 3.37188 2.45173 0
M  V30 4720 H 451.979 2.19685 2.39099 0
M  V30 4721 H 452.99 5.17512 0.20032 0
M  V30 4722 H 449.667 3.54682 2.20243 0
M  V30 4723 H 451.057 6.7118 -0.311053 0
M  V30 4724 N 453.777 0.010035 1.57597 0
M  V30 4725 C 455.188 -0.531426 1.78977 0
M  V30 4726 C 455.539 -1.73375 0.918454 0
M  V30 4727 O 454.664 -2.16047 0.123635 0
M  V30 4728 C 455.259 -0.97086 3.24592 0
M  V30 4729 C 453.818 -1.45756 3.47033 0
M  V30 4730 C 452.965 -0.413384 2.74201 0
M  V30 4731 H 455.916 0.236166 1.56933 0
M  V30 4732 H 455.937 -1.83633 3.33255 0
M  V30 4733 H 455.449 -0.0955893 3.87982 0
M  V30 4734 H 453.55 -2.35339 2.88871 0
M  V30 4735 H 453.663 -1.4781 4.55729 0
M  V30 4736 H 452.027 -0.877266 2.39115 0
M  V30 4737 H 452.81 0.453092 3.40297 0
M  V30 4738 N 455.255 -1.55392 -0.262866 0
M  V30 4739 C 456.187 -1.85392 -1.34768 0
M  V30 4740 C 457.2 -0.739069 -1.45057 0
M  V30 4741 O 458.389 -1.01703 -1.46693 0
M  V30 4742 C 455.489 -2.01088 -2.72795 0
M  V30 4743 C 454.662 -3.31828 -2.84972 0
M  V30 4744 C 453.721 -3.37464 -4.03738 0
M  V30 4745 O 452.747 -4.10778 -3.94018 0
M  V30 4746 N 453.949 -2.65599 -5.16176 0
M  V30 4747 H 456.714 -2.79029 -1.09375 0
M  V30 4748 H 454.275 -1.55434 -0.452981 0
M  V30 4749 H 456.267 -2.02217 -3.50557 0
M  V30 4750 H 454.837 -1.1427 -2.90966 0
M  V30 4751 H 454.057 -3.43152 -1.94012 0
M  V30 4752 H 455.345 -4.18032 -2.90045 0
M  V30 4753 H 454.743 -2.05736 -5.26962 0
M  V30 4754 H 453.3 -2.72439 -5.92132 0
M  V30 4755 N 456.733 0.527833 -1.48498 0
M  V30 4756 C 457.981 1.28101 -1.56316 0
M  V30 4757 C 458.302 1.9352 -0.239781 0
M  V30 4758 O 457.572 1.81433 0.738849 0
M  V30 4759 H 456.152 0.475793 -0.575873 0
M  V30 4760 H 458.814 0.614052 -1.84974 0
M  V30 4761 H 457.91 2.05916 -2.34532 0
M  V30 4762 N 458.211 1.37122 0.776871 0
M  V30 4763 C 459.161 1.28989 1.88005 0
M  V30 4764 C 460.145 0.178765 1.59904 0
M  V30 4765 O 461.337 0.412705 1.72121 0
M  V30 4766 C 458.466 1.09402 3.25402 0
M  V30 4767 C 457.552 2.25036 3.59471 0
M  V30 4768 N 457.943 3.50407 3.64759 0
M  V30 4769 C 456.241 2.17078 3.89607 0
M  V30 4770 C 456.942 4.26628 3.95428 0
M  V30 4771 N 455.918 3.55709 4.11062 0
M  V30 4772 H 459.72 2.2394 1.90337 0
M  V30 4773 H 457.234 1.30021 0.973052 0
M  V30 4774 H 459.231 1.01661 4.04315 0
M  V30 4775 H 457.891 0.153632 3.24336 0
M  V30 4776 H 458.902 3.8438 3.47091 0
M  V30 4777 H 455.579 1.31067 3.96393 0
M  V30 4778 H 456.969 5.35107 4.06338 0
M  V30 4779 N 459.689 -1.00246 1.21608 0
M  V30 4780 C 460.914 -1.78167 1.06167 0
M  V30 4781 C 461.339 -1.84138 -0.384035 0
M  V30 4782 O 460.697 -1.28683 -1.27712 0
M  V30 4783 C 460.745 -3.19786 1.66642 0
M  V30 4784 O 459.849 -4.02153 0.913613 0
M  V30 4785 H 459.19 -0.549 0.37349 0
M  V30 4786 H 461.72 -1.25994 1.61204 0
M  V30 4787 H 461.73 -3.70451 1.70969 0
M  V30 4788 H 460.405 -3.14754 2.7185 0
M  V30 4789 H 458.982 -3.60711 0.945635 0
M  V30 4790 N 461.167 -1.02423 -1.1978 0
M  V30 4791 C 462.397 -0.736387 -1.93031 0
M  V30 4792 C 462.805 0.708023 -1.75453 0
M  V30 4793 O 462.148 1.4927 -1.07071 0
M  V30 4794 C 462.21 -1.00194 -3.45255 0
M  V30 4795 C 461.874 -2.43698 -3.86601 0
M  V30 4796 C 462.871 -3.41814 -3.91738 0
M  V30 4797 C 460.556 -2.77975 -4.18372 0
M  V30 4798 C 462.55 -4.72265 -4.28071 0
M  V30 4799 C 460.237 -4.08636 -4.54378 0
M  V30 4800 C 461.235 -5.05592 -4.59201 0
M  V30 4801 O 460.923 -6.33914 -4.94376 0
M  V30 4802 H 460.655 -0.269116 -0.620123 0
M  V30 4803 H 463.209 -1.37043 -1.52998 0
M  V30 4804 H 461.439 -0.310747 -3.85449 0
M  V30 4805 H 463.128 -0.704488 -3.9974 0
M  V30 4806 H 463.894 -3.16671 -3.67348 0
M  V30 4807 H 459.773 -2.0319 -4.13805 0
M  V30 4808 H 463.317 -5.4794 -4.3175 0
M  V30 4809 H 459.214 -4.33556 -4.78226 0
M  V30 4810 H 459.982 -6.38317 -5.12341 0
M  V30 4811 N 462.645 1.35699 -0.801477 0
M  V30 4812 C 463.593 2.3177 -0.196317 0
M  V30 4813 C 464.587 1.56388 0.651081 0
M  V30 4814 O 465.793 1.71557 0.544815 0
M  V30 4815 H 462.168 0.750669 -0.0447189 0
M  V30 4816 H 464.139 2.8036 -1.02181 0
M  V30 4817 C 462.888 3.41671 0.644702 0
M  V30 4818 H 462.211 3.998 0.0019921 0
M  V30 4819 H 463.651 4.11184 1.0346 0
M  V30 4820 C 462.11 2.84271 1.80808 0
M  V30 4821 O 462.64 2.77408 2.9053 0
M  V30 4822 N 460.846 2.41391 1.61799 0
M  V30 4823 H 460.393 2.47173 0.725493 0
M  V30 4824 H 460.351 2.03334 2.39797 0
M  V30 4825 N 464.123 0.554532 1.47522 0
M  V30 4826 C 465.348 0.0322661 2.07375 0
M  V30 4827 C 465.773 -1.25079 1.40488 0
M  V30 4828 O 465.131 -1.74859 0.47896 0
M  V30 4829 C 465.179 -0.149397 3.6029 0
M  V30 4830 O 464.283 -1.21259 3.9417 0
M  V30 4831 H 463.624 0.0501228 0.662106 0
M  V30 4832 H 466.154 0.769452 1.8958 0
M  V30 4833 H 466.164 -0.364437 4.06369 0
M  V30 4834 H 464.839 0.787743 4.08372 0
M  V30 4835 H 463.416 -0.97825 3.5984 0
M  V30 4836 N 465.601 -1.54893 0.290851 0
M  V30 4837 C 466.831 -2.04047 -0.323818 0
M  V30 4838 C 467.239 -1.16809 -1.48837 0
M  V30 4839 O 466.582 -0.184145 -1.82775 0
M  V30 4840 C 466.644 -3.49248 -0.852395 0
M  V30 4841 C 466.308 -4.56623 0.185557 0
M  V30 4842 C 467.305 -5.09985 1.01053 0
M  V30 4843 C 464.99 -5.01252 0.324332 0
M  V30 4844 C 466.984 -6.06507 1.96031 0
M  V30 4845 C 464.671 -5.97596 1.27757 0
M  V30 4846 C 465.669 -6.50107 2.09405 0
M  V30 4847 O 465.357 -7.44565 3.03114 0
M  V30 4848 H 465.089 -0.671735 -0.0758129 0
M  V30 4849 H 467.643 -2.00947 0.425393 0
M  V30 4850 H 465.873 -3.49639 -1.65195 0
M  V30 4851 H 467.562 -3.81654 -1.38185 0
M  V30 4852 H 468.328 -4.76307 0.914129 0
M  V30 4853 H 464.207 -4.60015 -0.301213 0
M  V30 4854 H 467.751 -6.47418 2.598 0
M  V30 4855 H 463.648 -6.30691 1.37473 0
M  V30 4856 H 464.416 -7.62334 2.97976 0
M  V30 4857 N 467.08 -0.0183926 -1.57589 0
M  V30 4858 C 468.308 0.673046 -1.95647 0
M  V30 4859 C 468.723 1.66275 -0.894312 0
M  V30 4860 O 468.08 1.82072 0.124975 0
M  V30 4861 C 468.131 1.38884 -3.33756 0
M  V30 4862 O 467.852 0.438806 -4.35897 0
M  V30 4863 C 469.353 2.1731 -3.86383 0
M  V30 4864 H 466.573 0.186292 -0.644621 0
M  V30 4865 H 469.117 -0.0749748 -2.04363 0
M  V30 4866 H 467.272 2.08835 -3.26293 0
M  V30 4867 H 467.686 0.945869 -5.15901 0
M  V30 4868 H 469.16 2.62863 -4.85394 0
M  V30 4869 H 469.637 3.00764 -3.20059 0
M  V30 4870 H 470.243 1.52339 -3.97081 0
M  V30 4871 N 468.558 1.5553 0.254621 0
M  V30 4872 C 469.788 1.80784 1.00004 0
M  V30 4873 C 470.196 0.59071 1.79742 0
M  V30 4874 O 469.539 -0.449988 1.78103 0
M  V30 4875 C 469.601 2.99268 1.99196 0
M  V30 4876 C 469.265 4.35595 1.38224 0
M  V30 4877 C 470.262 5.13884 0.788611 0
M  V30 4878 C 467.947 4.82281 1.40393 0
M  V30 4879 C 469.941 6.37004 0.224783 0
M  V30 4880 C 467.628 6.05351 0.836243 0
M  V30 4881 C 468.626 6.82551 0.24769 0
M  V30 4882 O 468.314 8.03297 -0.311249 0
M  V30 4883 H 468.046 0.60565 0.300274 0
M  V30 4884 H 470.6 2.03411 0.285143 0
M  V30 4885 H 468.83 2.72377 2.74496 0
M  V30 4886 H 470.519 3.11682 2.60018 0
M  V30 4887 H 471.285 4.78938 0.764423 0
M  V30 4888 H 467.164 4.22189 1.85142 0
M  V30 4889 H 470.708 6.97203 -0.235235 0
M  V30 4890 H 466.605 6.39776 0.857733 0
M  V30 4891 H 467.373 8.1825 -0.20237 0
M  V30 4892 N 470.036 -0.519951 1.48776 0
M  V30 4893 C 471.447 -1.10177 1.50725 0
M  V30 4894 C 471.798 -1.94153 0.282678 0
M  V30 4895 O 470.923 -2.07645 -0.609298 0
M  V30 4896 C 471.518 -2.00482 2.73116 0
M  V30 4897 C 470.077 -2.53862 2.77905 0
M  V30 4898 C 469.224 -1.31047 2.44381 0
M  V30 4899 H 472.175 -0.30473 1.55747 0
M  V30 4900 H 472.196 -2.8491 2.52203 0
M  V30 4901 H 471.708 -1.39335 3.62225 0
M  V30 4902 H 469.809 -3.18702 1.93029 0
M  V30 4903 H 469.922 -2.9231 3.79594 0
M  V30 4904 H 468.286 -1.62953 1.95751 0
M  V30 4905 H 469.069 -0.71637 3.35743 0
M  V30 4906 N 471.514 -1.37532 -0.769588 0
M  V30 4907 C 472.93 -1.18379 -1.07045 0
M  V30 4908 C 473.13 -0.0214312 -2.01489 0
M  V30 4909 O 472.186 0.637809 -2.44312 0
M  V30 4910 C 473.499 -2.50338 -1.66588 0
M  V30 4911 C 475.047 -2.56879 -1.78835 0
M  V30 4912 C 475.522 -3.88974 -2.41792 0
M  V30 4913 N 477.013 -3.90428 -2.4924 0
M  V30 4914 C 477.748 -4.89388 -2.98809 0
M  V30 4915 N 477.244 -5.98745 -3.48535 0
M  V30 4916 N 479.037 -4.76791 -2.97703 0
M  V30 4917 H 471.188 -2.11921 -0.142541 0
M  V30 4918 H 473.451 -0.939608 -0.125863 0
M  V30 4919 H 473.157 -3.35767 -1.0466 0
M  V30 4920 H 473.031 -2.67583 -2.65856 0
M  V30 4921 H 475.418 -1.71856 -2.39895 0
M  V30 4922 H 475.499 -2.43516 -0.783166 0
M  V30 4923 H 475.143 -4.74412 -1.81371 0
M  V30 4924 H 475.073 -3.99641 -3.4292 0
M  V30 4925 H 477.564 -3.11433 -2.14052 0
M  V30 4926 H 477.877 -6.70205 -3.84767 0
M  V30 4927 H 476.222 -6.02387 -3.46634 0
M  V30 4928 H 479.413 -3.90478 -2.58157 0
M  V30 4929 H 479.586 -5.54069 -3.36024 0
M  V30 4930 N 472.992 0.995999 -1.22138 0
M  V30 4931 C 473.922 2.10387 -1.01289 0
M  V30 4932 C 474.903 1.69975 0.0651454 0
M  V30 4933 O 476.088 1.9396 -0.0964628 0
M  V30 4934 C 473.218 3.42312 -0.586517 0
M  V30 4935 C 472.172 3.96558 -1.61014 0
M  V30 4936 C 471.498 5.24494 -1.0397 0
M  V30 4937 C 472.798 4.27595 -2.99933 0
M  V30 4938 H 474.492 2.28086 -1.93951 0
M  V30 4939 H 472.038 1.09607 -0.933928 0
M  V30 4940 H 473.991 4.19223 -0.427793 0
M  V30 4941 H 472.715 3.24431 0.375761 0
M  V30 4942 H 471.374 3.21776 -1.75658 0
M  V30 4943 H 471.022 5.02953 -0.0688703 0
M  V30 4944 H 470.722 5.61755 -1.72352 0
M  V30 4945 H 472.246 6.04042 -0.892494 0
M  V30 4946 H 473.66 4.95315 -2.8868 0
M  V30 4947 H 472.057 4.76021 -3.6541 0
M  V30 4948 H 473.127 3.35498 -3.50099 0
M  V30 4949 N 474.47 1.03057 1.19235 0
M  V30 4950 C 475.695 0.74757 1.93458 0
M  V30 4951 C 476.12 -0.687648 1.7508 0
M  V30 4952 O 475.478 -1.47499 1.05422 0
M  V30 4953 C 475.526 1.10604 3.43219 0
M  V30 4954 O 474.63 0.225671 4.11782 0
M  V30 4955 H 473.971 0.276047 0.603899 0
M  V30 4956 H 476.501 1.3777 1.51263 0
M  V30 4957 H 476.511 1.06366 3.93891 0
M  V30 4958 H 475.186 2.15165 3.55917 0
M  V30 4959 H 473.763 0.326795 3.71465 0
M  V30 4960 N 475.948 -1.35272 0.808662 0
M  V30 4961 C 476.858 -2.33546 0.222079 0
M  V30 4962 C 477.874 -1.6196 -0.636011 0
M  V30 4963 O 479.05 -1.93822 -0.547274 0
M  V30 4964 C 476.115 -3.41148 -0.61795 0
M  V30 4965 C 475.176 -4.28507 0.260875 0
M  V30 4966 C 474.409 -5.3097 -0.539156 0
M  V30 4967 O 474.632 -5.42123 -1.77367 0
M  V30 4968 O 473.566 -6.01858 0.0710526 0
M  V30 4969 H 477.392 -2.85515 1.03512 0
M  V30 4970 H 474.977 -1.38079 0.570495 0
M  V30 4971 H 476.859 -4.06889 -1.09634 0
M  V30 4972 H 475.534 -2.91447 -1.40855 0
M  V30 4973 H 474.441 -3.6574 0.786451 0
M  V30 4974 H 475.774 -4.81611 1.01547 0
M  V30 4975 N 477.426 -0.562348 -1.47226 0
M  V30 4976 C 478.837 -0.130325 -1.86245 0
M  V30 4977 C 479.188 1.30128 -1.46838 0
M  V30 4978 O 478.313 1.97974 -0.873805 0
M  V30 4979 C 478.908 -0.229738 -3.3802 0
M  V30 4980 C 477.467 0.14728 -3.76112 0
M  V30 4981 C 476.614 -0.574971 -2.71274 0
M  V30 4982 H 479.565 -0.771773 -1.3867 0
M  V30 4983 H 479.586 0.550316 -3.76499 0
M  V30 4984 H 479.098 -1.27178 -3.66671 0
M  V30 4985 H 477.199 1.19023 -3.53078 0
M  V30 4986 H 477.312 -0.214858 -4.78618 0
M  V30 4987 H 475.676 -0.0174756 -2.54694 0
M  V30 4988 H 476.459 -1.61827 -3.02766 0
M  V30 4989 N 478.904 1.54736 -0.299062 0
M  V30 4990 C 480.132 2.04512 0.313447 0
M  V30 4991 C 480.547 1.17643 1.47667 0
M  V30 4992 O 479.904 0.20164 1.81383 0
M  V30 4993 C 479.955 3.53171 0.771542 0
M  V30 4994 O 479.676 4.36736 -0.345379 0
M  V30 4995 C 481.177 4.18936 1.4494 0
M  V30 4996 H 478.397 0.667507 0.0683784 0
M  V30 4997 H 480.941 1.99752 -0.438129 0
M  V30 4998 H 479.096 3.58298 1.47314 0
M  V30 4999 H 479.51 5.24499 0.0109219 0
M  V30 5000 H 480.984 5.24482 1.72111 0
M  V30 5001 H 481.461 3.68554 2.38883 0
M  V30 5002 H 482.067 4.17879 0.791028 0
M  V30 5003 N 480.382 0.0267497 1.57577 0
M  V30 5004 C 481.315 -0.99059 2.05579 0
M  V30 5005 C 482.293 -1.31884 0.951065 0
M  V30 5006 O 483.477 -1.43592 1.22121 0
M  V30 5007 C 480.604 -2.31125 2.47586 0
M  V30 5008 C 479.65 -2.13777 3.69055 0
M  V30 5009 S 480.483 -1.4388 5.15809 0
M  V30 5010 C 481.639 -2.77321 5.6111 0
M  V30 5011 H 481.872 -0.581976 2.91548 0
M  V30 5012 H 479.405 -0.184876 1.53289 0
M  V30 5013 H 481.363 -3.07049 2.72454 0
M  V30 5014 H 480.024 -2.6912 1.61967 0
M  V30 5015 H 479.217 -3.11405 3.96287 0
M  V30 5016 H 478.819 -1.45996 3.44327 0
M  V30 5017 H 481.111 -3.73565 5.65204 0
M  V30 5018 H 482.054 -2.54756 6.60685 0
M  V30 5019 H 482.462 -2.82459 4.88751 0
M  V30 5020 N 481.861 -1.55662 -0.24637 0
M  V30 5021 C 483.101 -1.79283 -0.981685 0
M  V30 5022 C 483.465 -0.596356 -1.82504 0
M  V30 5023 O 484.666 -0.711342 -2.59217 0
M  V30 5024 C 482.937 -3.07648 -1.819 0
M  V30 5025 S 484.496 -3.52491 -2.61334 0
M  V30 5026 H 481.314 -0.629676 -0.330196 0
M  V30 5027 H 483.916 -1.93901 -0.249498 0
M  V30 5028 H 482.62 -3.92794 -1.18915 0
M  V30 5029 H 482.151 -2.95768 -2.59393 0
M  V30 5030 H 484.166 -3.13866 -3.84321 0
M  V30 5031 N 483.339 0.512053 -1.4905 0
M  V30 5032 C 484.588 1.26343 -1.57227 0
M  V30 5033 C 484.901 1.93876 -0.259155 0
M  V30 5034 O 486.107 2.70612 -0.219358 0
M  V30 5035 C 484.563 2.29343 -2.77362 0
M  V30 5036 C 484.171 1.67799 -4.15388 0
M  V30 5037 C 485.915 3.05378 -2.94864 0
M  V30 5038 C 483.822 2.68845 -5.2676 0
M  V30 5039 H 482.752 0.475231 -0.585382 0
M  V30 5040 H 485.403 0.53862 -1.75417 0
M  V30 5041 H 483.785 3.04938 -2.52643 0
M  V30 5042 H 484.959 0.982715 -4.50199 0
M  V30 5043 H 483.274 1.04194 -4.03153 0
M  V30 5044 H 485.871 3.80921 -3.75238 0
M  V30 5045 H 486.214 3.62327 -2.05 0
M  V30 5046 H 486.747 2.36898 -3.19569 0
M  V30 5047 H 483.486 2.16692 -6.18647 0
M  V30 5048 H 483.006 3.36647 -4.96416 0
M  V30 5049 H 484.685 3.31487 -5.5563 0
M  V30 5050 N 484.817 1.37938 0.762283 0
M  V30 5051 C 486.228 1.30094 1.33912 0
M  V30 5052 C 486.579 -0.0472026 1.96143 0
M  V30 5053 O 485.704 -0.94917 1.94473 0
M  V30 5054 C 486.299 2.35592 2.43478 0
M  V30 5055 C 484.858 2.31353 2.96905 0
M  V30 5056 C 484.005 2.18919 1.70205 0
M  V30 5057 H 486.956 1.48423 0.561816 0
M  V30 5058 H 486.977 2.00806 3.23199 0
M  V30 5059 H 486.489 3.33701 1.98155 0
M  V30 5060 H 484.59 1.36799 3.46579 0
M  V30 5061 H 484.703 3.25147 3.51875 0
M  V30 5062 H 483.067 1.65624 1.93496 0
M  V30 5063 H 483.85 3.18956 1.26973 0
M  V30 5064 N 486.295 -0.989507 1.22664 0
M  V30 5065 C 487.242 -2.08024 0.999733 0
M  V30 5066 C 488.212 -1.65909 -0.0797047 0
M  V30 5067 O 489.397 -1.90669 0.0705715 0
M  V30 5068 C 486.537 -3.40067 0.587234 0
M  V30 5069 C 485.65 -3.95505 1.73781 0
M  V30 5070 C 484.785 -5.15722 1.27297 0
M  V30 5071 C 483.824 -5.63305 2.39488 0
M  V30 5072 N 482.961 -6.74758 1.94026 0
M  V30 5073 H 487.801 -2.26768 1.9334 0
M  V30 5074 H 485.338 -1.11171 0.963297 0
M  V30 5075 H 487.296 -4.15899 0.329227 0
M  V30 5076 H 485.926 -3.21314 -0.309426 0
M  V30 5077 H 484.978 -3.16513 2.11006 0
M  V30 5078 H 486.29 -4.26797 2.58158 0
M  V30 5079 H 485.444 -5.98854 0.972546 0
M  V30 5080 H 484.183 -4.86061 0.399445 0
M  V30 5081 H 483.188 -4.78759 2.70315 0
M  V30 5082 H 484.413 -5.94988 3.27362 0
M  V30 5083 H 482.359 -6.46874 1.09041 0
M  V30 5084 H 482.276 -7.05386 2.71968 0
M  V30 5085 H 483.544 -7.61387 1.67062 0
M  V30 5086 N 487.773 -1.03688 -1.18687 0
M  V30 5087 C 489.019 -0.739123 -1.88851 0
M  V30 5088 C 489.352 0.731042 -1.79915 0
M  V30 5089 O 488.627 1.53313 -1.19688 0
M  V30 5090 C 488.91 -1.20106 -3.3948 0
M  V30 5091 C 488.763 -2.73304 -3.57246 0
M  V30 5092 C 490.082 -0.788134 -4.32986 0
M  V30 5093 H 487.201 -0.269978 -0.68577 0
M  V30 5094 H 489.843 -1.28822 -1.3966 0
M  V30 5095 H 487.993 -0.733915 -3.81505 0
M  V30 5096 H 489.665 -3.28027 -3.24339 0
M  V30 5097 H 487.908 -3.13313 -3.00029 0
M  V30 5098 H 488.579 -3.00684 -4.62918 0
M  V30 5099 H 491.055 -1.19005 -3.98719 0
M  V30 5100 H 489.931 -1.13915 -5.36949 0
M  V30 5101 H 490.192 0.308988 -4.41019 0
M  V30 5102 N 489.251 1.34841 -0.815825 0
M  V30 5103 C 490.528 1.92908 -0.323416 0
M  V30 5104 C 490.908 1.74479 1.18828 0
M  V30 5105 O 490.256 1.11928 1.99209 0
M  V30 5106 C 490.466 3.40957 -0.744952 0
M  V30 5107 C 491.814 4.18107 -0.739716 0
M  V30 5108 O 492.838 3.49511 -0.68708 0
M  V30 5109 O 491.697 5.40517 -0.806456 0
M  V30 5110 H 488.791 0.822436 -0.0867646 0
M  V30 5111 H 491.337 1.4386 -0.90014 0
M  V30 5112 H 490.109 3.4814 -1.78646 0
M  V30 5113 H 489.732 3.97341 -0.143535 0
M  V30 5114 N 490.729 0.570148 1.46925 0
M  V30 5115 C 491.959 0.0561151 2.06524 0
M  V30 5116 C 492.367 -1.24874 1.42137 0
M  V30 5117 O 491.71 -1.76292 0.516417 0
M  V30 5118 C 491.772 -0.197035 3.5896 0
M  V30 5119 C 491.436 1.02033 4.45464 0
M  V30 5120 C 492.433 1.92921 4.82781 0
M  V30 5121 C 490.118 1.23864 4.86788 0
M  V30 5122 C 492.112 3.03999 5.60235 0
M  V30 5123 C 489.799 2.35249 5.64004 0
M  V30 5124 C 490.797 3.25146 6.0064 0
M  V30 5125 O 490.485 4.34598 6.76299 0
M  V30 5126 H 490.217 0.0487409 0.674241 0
M  V30 5127 H 492.771 0.786915 1.89728 0
M  V30 5128 H 491.001 -0.982299 3.74016 0
M  V30 5129 H 492.69 -0.658032 4.00531 0
M  V30 5130 H 493.456 1.77265 4.51444 0
M  V30 5131 H 489.335 0.54805 4.57731 0
M  V30 5132 H 492.879 3.74192 5.8875 0
M  V30 5133 H 488.776 2.50873 5.94755 0
M  V30 5134 H 489.544 4.32808 6.94708 0
M  V30 5135 N 492.207 -1.54576 0.307264 0
M  V30 5136 C 493.484 -1.92377 -0.353605 0
M  V30 5137 C 493.864 -1.23517 -1.71192 0
M  V30 5138 O 493.212 -0.373101 -2.25433 0
M  V30 5139 C 493.422 -3.45928 -0.462039 0
M  V30 5140 C 494.77 -4.18278 -0.729975 0
M  V30 5141 O 495.794 -3.51997 -0.545605 0
M  V30 5142 O 494.653 -5.3563 -1.08454 0
M  V30 5143 H 491.747 -0.802747 -0.198812 0
M  V30 5144 H 494.293 -1.65929 0.355783 0
M  V30 5145 H 493.065 -3.88187 0.492592 0
M  V30 5146 H 492.688 -3.78431 -1.21965 0
M  V30 5147 N 493.685 -0.035106 -1.57561 0
M  V30 5148 C 495.101 0.321334 -1.56332 0
M  V30 5149 C 495.301 1.72509 -1.04129 0
M  V30 5150 O 494.357 2.4287 -0.690694 0
M  V30 5151 C 495.67 0.164469 -3.0025 0
M  V30 5152 C 497.218 0.236786 -3.12103 0
M  V30 5153 C 497.693 0.10864 -4.57871 0
M  V30 5154 N 499.184 0.165433 -4.62904 0
M  V30 5155 C 499.919 0.0901506 -5.73329 0
M  V30 5156 N 499.415 -0.0365606 -6.9279 0
M  V30 5157 N 501.208 0.144572 -5.61914 0
M  V30 5158 H 493.359 -0.952976 -1.89821 0
M  V30 5159 H 495.622 -0.368537 -0.873432 0
M  V30 5160 H 495.328 -0.802746 -3.42416 0
M  V30 5161 H 495.202 0.932194 -3.655 0
M  V30 5162 H 497.589 1.19446 -2.69845 0
M  V30 5163 H 497.67 -0.561419 -2.49563 0
M  V30 5164 H 497.314 -0.845644 -5.00811 0
M  V30 5165 H 497.244 0.925786 -5.18398 0
M  V30 5166 H 499.735 0.263269 -3.76982 0
M  V30 5167 H 500.048 -0.0871487 -7.72751 0
M  V30 5168 H 498.393 -0.0714256 -6.94963 0
M  V30 5169 H 501.584 0.242006 -4.67474 0
M  V30 5170 H 501.757 0.0824413 -6.47948 0
M  V30 5171 N 495.163 1.55791 0.238111 0
M  V30 5172 C 496.126 1.90239 1.27835 0
M  V30 5173 C 497.126 0.779552 1.4064 0
M  V30 5174 O 498.316 1.04747 1.3919 0
M  V30 5175 C 495.448 2.13859 2.65475 0
M  V30 5176 H 496.641 2.83262 0.985034 0
M  V30 5177 H 494.194 1.48818 0.477799 0
M  V30 5178 H 494.929 1.23334 2.99932 0
M  V30 5179 H 494.714 2.95643 2.57561 0
M  V30 5180 H 496.204 2.41664 3.40571 0
M  V30 5181 N 496.642 -0.504142 1.49319 0
M  V30 5182 C 497.574 -1.62265 1.61872 0
M  V30 5183 C 498.587 -1.54881 0.501573 0
M  V30 5184 O 499.776 -1.6087 0.773497 0
M  V30 5185 C 496.876 -3.01042 1.55651 0
M  V30 5186 C 496.049 -3.33642 2.82845 0
M  V30 5187 C 495.108 -4.51816 2.69719 0
M  V30 5188 O 494.134 -4.53755 3.4365 0
M  V30 5189 N 495.336 -5.51543 1.81055 0
M  V30 5190 H 498.101 -1.51924 2.58339 0
M  V30 5191 H 495.662 -0.691954 1.46368 0
M  V30 5192 H 497.654 -3.78013 1.44528 0
M  V30 5193 H 496.224 -3.05323 0.670546 0
M  V30 5194 H 495.444 -2.45598 3.08343 0
M  V30 5195 H 496.732 -3.5222 3.67177 0
M  V30 5196 H 496.13 -5.52774 1.20241 0
M  V30 5197 H 494.687 -6.27629 1.75856 0
M  V30 5198 N 498.12 -1.38341 -0.754957 0
M  V30 5199 C 499.053 -1.29837 -1.87663 0
M  V30 5200 C 500.031 -0.175659 -1.61648 0
M  V30 5201 O 501.215 -0.352745 -1.8517 0
M  V30 5202 C 498.342 -1.01141 -3.23246 0
M  V30 5203 C 497.388 -2.15331 -3.6815 0
M  V30 5204 S 498.221 -3.77459 -3.79849 0
M  V30 5205 C 499.377 -3.50948 -5.18253 0
M  V30 5206 H 499.61 -2.24771 -1.9459 0
M  V30 5207 H 497.143 -1.24161 -0.917796 0
M  V30 5208 H 499.101 -0.852687 -4.01546 0
M  V30 5209 H 497.762 -0.0792784 -3.14 0
M  V30 5210 H 496.955 -1.90795 -4.6649 0
M  V30 5211 H 496.557 -2.27304 -2.97 0
M  V30 5212 H 498.849 -3.06977 -6.03963 0
M  V30 5213 H 499.792 -4.48677 -5.47809 0
M  V30 5214 H 500.2 -2.85492 -4.86985 0
M  V30 5215 N 499.598 0.982988 -1.23187 0
M  V30 5216 C 500.844 1.72648 -1.06398 0
M  V30 5217 C 501.177 1.90066 0.398561 0
M  V30 5218 O 500.452 1.45105 1.29518 0
M  V30 5219 C 500.735 3.12627 -1.78707 0
M  V30 5220 C 500.588 3.02795 -3.32618 0
M  V30 5221 C 501.907 4.11997 -1.54747 0
M  V30 5222 H 499.026 0.626649 -0.387918 0
M  V30 5223 H 501.668 1.14455 -1.51658 0
M  V30 5224 H 499.818 3.62308 -1.40234 0
M  V30 5225 H 501.49 2.60659 -3.80598 0
M  V30 5226 H 499.733 2.39362 -3.61785 0
M  V30 5227 H 500.404 4.01893 -3.78399 0
M  V30 5228 H 502.88 3.71114 -1.88186 0
M  V30 5229 H 501.756 5.08037 -2.07821 0
M  V30 5230 H 502.017 4.39462 -0.482249 0
M  V30 5231 N 501.076 1.04316 1.18135 0
M  V30 5232 C 502.006 0.657299 2.24058 0
M  V30 5233 C 502.987 -0.340678 1.66654 0
M  V30 5234 O 504.172 -0.220223 1.92947 0
M  V30 5235 C 501.302 0.0220715 3.47293 0
M  V30 5236 C 500.256 0.943857 4.17463 0
M  V30 5237 C 499.582 0.172973 5.3442 0
M  V30 5238 C 500.882 2.26409 4.70677 0
M  V30 5239 H 502.576 1.5428 2.56589 0
M  V30 5240 H 500.122 0.743263 1.23335 0
M  V30 5241 H 502.075 -0.259607 4.206 0
M  V30 5242 H 500.799 -0.898323 3.14003 0
M  V30 5243 H 499.458 1.20996 3.46057 0
M  V30 5244 H 499.106 -0.749907 4.97379 0
M  V30 5245 H 498.806 0.787098 5.82304 0
M  V30 5246 H 500.33 -0.101628 6.10515 0
M  V30 5247 H 501.744 2.04294 5.35665 0
M  V30 5248 H 500.141 2.8314 5.29105 0
M  V30 5249 H 501.211 2.90883 3.87962 0
M  V30 5250 N 502.554 -1.34406 0.822964 0
M  V30 5251 C 503.779 -2.0304 0.423034 0
M  V30 5252 C 504.204 -1.61568 -0.963196 0
M  V30 5253 O 503.562 -0.800339 -1.62678 0
M  V30 5254 C 503.61 -3.56636 0.53321 0
M  V30 5255 O 502.714 -4.09971 -0.446939 0
M  V30 5256 H 502.055 -0.64075 0.174171 0
M  V30 5257 H 504.585 -1.71653 1.11339 0
M  V30 5258 H 504.595 -4.05945 0.408991 0
M  V30 5259 H 503.27 -3.86168 1.54425 0
M  V30 5260 H 501.847 -3.71835 -0.281601 0
M  V30 5261 N 504.032 -0.577932 -1.46621 0
M  V30 5262 C 505.443 -0.150071 -1.86096 0
M  V30 5263 C 505.794 1.28563 -1.48209 0
M  V30 5264 O 504.919 1.97036 -0.894754 0
M  V30 5265 C 505.514 -0.265576 -3.37758 0
M  V30 5266 C 504.073 0.10738 -3.76247 0
M  V30 5267 C 503.22 -0.603711 -2.70649 0
M  V30 5268 H 506.171 -0.786438 -1.37844 0
M  V30 5269 H 506.192 0.510352 -3.77062 0
M  V30 5270 H 505.704 -1.3106 -3.65301 0
M  V30 5271 H 503.805 1.15272 -3.54321 0
M  V30 5272 H 503.918 -0.26561 -4.78363 0
M  V30 5273 H 502.282 -0.0444884 -2.54661 0
M  V30 5274 H 503.065 -1.65029 -3.01032 0
M  V30 5275 N 505.51 1.54411 -0.315457 0
M  V30 5276 C 506.921 1.85885 0.174265 0
M  V30 5277 C 507.272 1.23723 1.52273 0
M  V30 5278 O 506.397 0.540246 2.09548 0
M  V30 5279 C 506.992 3.37257 0.322981 0
M  V30 5280 C 505.551 3.68711 0.756922 0
M  V30 5281 C 504.698 2.77013 -0.126195 0
M  V30 5282 H 507.649 1.49374 -0.536007 0
M  V30 5283 H 507.67 3.62539 1.15522 0
M  V30 5284 H 507.182 3.82471 -0.658602 0
M  V30 5285 H 505.283 3.29024 1.74854 0
M  V30 5286 H 505.396 4.75741 0.566291 0
M  V30 5287 H 503.76 2.51588 0.39692 0
M  V30 5288 H 504.543 3.25051 -1.1044 0
M  V30 5289 N 506.988 0.0434614 1.5754 0
M  V30 5290 C 507.918 -0.931651 2.14109 0
M  V30 5291 C 508.899 -1.32971 1.06079 0
M  V30 5292 O 510.084 -1.40579 1.33982 0
M  V30 5293 C 507.214 -2.20914 2.67982 0
M  V30 5294 C 506.168 -1.95139 3.80926 0
M  V30 5295 C 505.494 -3.29276 4.21285 0
M  V30 5296 C 506.794 -1.27913 5.06395 0
M  V30 5297 H 508.488 -0.460497 2.95837 0
M  V30 5298 H 506.034 -0.220058 1.42309 0
M  V30 5299 H 507.987 -2.89522 3.06194 0
M  V30 5300 H 506.711 -2.70221 1.83434 0
M  V30 5301 H 505.37 -1.28945 3.43175 0
M  V30 5302 H 505.018 -3.76369 3.33699 0
M  V30 5303 H 504.718 -3.12831 4.97404 0
M  V30 5304 H 506.242 -3.99129 4.62091 0
M  V30 5305 H 507.656 -1.86544 5.42102 0
M  V30 5306 H 506.053 -1.2182 5.87605 0
M  V30 5307 H 507.123 -0.254066 4.84234 0
M  V30 5308 N 508.466 -1.55915 -0.229846 0
M  V30 5309 C 509.691 -1.8296 -0.976743 0
M  V30 5310 C 510.116 -0.622735 -1.77493 0
M  V30 5311 O 509.474 0.428431 -1.76165 0
M  V30 5312 C 509.522 -3.07916 -1.8767 0
M  V30 5313 O 508.626 -2.86028 -2.97088 0
M  V30 5314 H 507.967 -0.603453 -0.277021 0
M  V30 5315 H 510.497 -2.0312 -0.245669 0
M  V30 5316 H 510.507 -3.37802 -2.2881 0
M  V30 5317 H 509.182 -3.95389 -1.28996 0
M  V30 5318 H 507.759 -2.67355 -2.59954 0
M  V30 5319 N 509.944 0.496216 -1.49584 0
M  V30 5320 C 511.192 1.24756 -1.58998 0
M  V30 5321 C 511.513 1.92968 -0.280775 0
M  V30 5322 O 510.783 1.82959 0.700198 0
M  V30 5323 H 509.363 0.463471 -0.585836 0
M  V30 5324 H 512.025 0.574678 -1.86235 0
M  V30 5325 H 511.121 2.00895 -2.38847 0
M  V30 5326 N 511.423 1.38739 0.74761 0
M  V30 5327 C 512.648 1.38702 1.54197 0
M  V30 5328 C 513.073 -0.019664 1.8809 0
M  V30 5329 O 512.431 -1.00333 1.51006 0
M  V30 5330 C 512.479 2.25492 2.814 0
M  V30 5331 O 511.583 1.67613 3.76802 0
M  V30 5332 H 510.924 0.472863 0.466151 0
M  V30 5333 H 513.454 1.82577 0.923413 0
M  V30 5334 H 513.464 2.39561 3.30264 0
M  V30 5335 H 512.139 3.27727 2.56062 0
M  V30 5336 H 510.716 1.62718 3.35526 0
M  V30 5337 N 512.901 -0.976442 1.23707 0
M  V30 5338 C 514.178 -1.69296 0.979699 0
M  V30 5339 C 514.558 -2.0508 -0.500555 0
M  V30 5340 O 513.906 -1.74708 -1.47273 0
M  V30 5341 C 514.116 -2.93143 1.89389 0
M  V30 5342 C 515.464 -3.65572 2.15968 0
M  V30 5343 O 516.488 -3.03184 1.86971 0
M  V30 5344 O 515.347 -4.77859 2.65167 0
M  V30 5345 H 512.441 -0.739708 0.369812 0
M  V30 5346 H 514.987 -1.03131 1.34767 0
M  V30 5347 H 513.759 -2.63327 2.89439 0
M  V30 5348 H 513.382 -3.67044 1.52854 0
M  V30 5349 N 514.379 -1.04941 -1.1758 0
M  V30 5350 C 515.607 -0.778294 -1.91703 0
M  V30 5351 C 516.022 0.665697 -1.76675 0
M  V30 5352 O 515.379 1.45456 -1.10222 0
M  V30 5353 C 515.43 -1.14628 -3.42845 0
M  V30 5354 O 515.151 -2.53359 -3.57409 0
M  V30 5355 C 516.652 -0.900931 -4.34049 0
M  V30 5356 H 513.872 -0.283167 -0.608323 0
M  V30 5357 H 516.416 -1.39942 -1.49119 0
M  V30 5358 H 514.571 -0.569953 -3.83184 0
M  V30 5359 H 514.985 -2.67709 -4.51035 0
M  V30 5360 H 516.459 -1.20817 -5.38616 0
M  V30 5361 H 516.936 0.163966 -4.38894 0
M  V30 5362 H 517.542 -1.46097 -3.99419 0
M  V30 5363 N 515.857 1.33968 -0.830081 0
M  V30 5364 C 517.087 2.01987 -0.434142 0
M  V30 5365 C 517.495 1.62639 0.96671 0
M  V30 5366 O 516.838 0.831151 1.63822 0
M  V30 5367 C 516.9 3.5648 -0.465018 0
M  V30 5368 C 516.564 4.19176 -1.82045 0
M  V30 5369 C 517.561 4.39181 -2.78237 0
M  V30 5370 C 515.246 4.55792 -2.11089 0
M  V30 5371 C 517.24 4.94937 -4.01642 0
M  V30 5372 C 514.927 5.11258 -3.34752 0
M  V30 5373 C 515.925 5.30775 -4.29845 0
M  V30 5374 O 515.613 5.85064 -5.51322 0
M  V30 5375 H 515.345 0.653847 -0.171639 0
M  V30 5376 H 517.899 1.72066 -1.12171 0
M  V30 5377 H 516.129 3.8569 0.279284 0
M  V30 5378 H 517.818 4.05804 -0.0881334 0
M  V30 5379 H 518.584 4.11249 -2.57097 0
M  V30 5380 H 514.463 4.39901 -1.3787 0
M  V30 5381 H 518.007 5.10086 -4.75876 0
M  V30 5382 H 513.904 5.38619 -3.55753 0
M  V30 5383 H 514.672 6.03489 -5.5294 0
M  V30 5384 N 517.335 0.585699 1.46312 0
M  V30 5385 C 518.746 0.159938 1.86014 0
M  V30 5386 C 519.097 -1.27775 1.48889 0
M  V30 5387 O 518.222 -1.96559 0.90519 0
M  V30 5388 C 518.817 0.283485 3.37612 0
M  V30 5389 C 517.376 -0.0874256 3.76298 0
M  V30 5390 C 516.523 0.618055 2.70325 0
M  V30 5391 H 519.474 0.793737 1.37425 0
M  V30 5392 H 519.495 -0.490348 3.77327 0
M  V30 5393 H 519.007 1.32995 3.64601 0
M  V30 5394 H 517.108 -1.13391 3.54927 0
M  V30 5395 H 517.221 0.290975 4.78216 0
M  V30 5396 H 515.585 0.057993 2.54634 0
M  V30 5397 H 516.368 1.66623 3.00153 0
M  V30 5398 N 518.813 -1.54241 0.323641 0
M  V30 5399 C 520.229 -1.59574 -0.0290018 0
M  V30 5400 C 520.429 -1.34017 -1.50472 0
M  V30 5401 O 519.485 -1.12464 -2.26071 0
M  V30 5402 C 520.798 -2.98169 0.389295 0
M  V30 5403 C 522.346 -3.11148 0.339958 0
M  V30 5404 C 522.821 -4.5209 0.733418 0
M  V30 5405 N 524.312 -4.5808 0.686827 0
M  V30 5406 C 525.047 -5.65248 0.963464 0
M  V30 5407 N 524.543 -6.80355 1.30724 0
M  V30 5408 N 526.336 -5.55025 0.88902 0
M  V30 5409 H 518.487 -1.6911 1.28512 0
M  V30 5410 H 520.75 -0.790972 0.522558 0
M  V30 5411 H 520.456 -3.21871 1.41746 0
M  V30 5412 H 520.33 -3.76399 -0.245657 0
M  V30 5413 H 522.717 -2.87182 -0.679002 0
M  V30 5414 H 522.798 -2.35023 1.00985 0
M  V30 5415 H 522.442 -4.76788 1.75029 0
M  V30 5416 H 522.372 -5.26584 0.0412189 0
M  V30 5417 H 524.863 -3.75411 0.43298 0
M  V30 5418 H 525.176 -7.58029 1.5037 0
M  V30 5419 H 523.521 -6.81851 1.3455 0
M  V30 5420 H 526.712 -4.63977 0.619939 0
M  V30 5421 H 526.885 -6.38458 1.10797 0
M  V30 5422 N 520.291 -0.0518155 -1.57515 0
M  V30 5423 C 521.539 0.620595 -1.92336 0
M  V30 5424 C 521.86 1.71345 -0.930907 0
M  V30 5425 O 521.13 1.95885 0.0241341 0
M  V30 5426 H 519.71 0.232226 -0.709986 0
M  V30 5427 H 522.372 -0.104969 -1.94617 0
M  V30 5428 H 521.468 1.05879 -2.93592 0
M  V30 5429 N 521.769 1.56035 0.221574 0
M  V30 5430 C 523.18 1.69229 0.788567 0
M  V30 5431 C 523.531 0.653814 1.84986 0
M  V30 5432 O 522.656 -0.195065 2.15519 0
M  V30 5433 C 523.251 3.06809 1.43713 0
M  V30 5434 C 521.81 3.21858 1.95152 0
M  V30 5435 C 520.957 2.65155 0.811685 0
M  V30 5436 H 523.908 1.587 -0.00307894 0
M  V30 5437 H 523.929 3.02666 2.30594 0
M  V30 5438 H 523.441 3.82369 0.664475 0
M  V30 5439 H 521.542 2.51167 2.7522 0
M  V30 5440 H 521.655 4.29073 2.1315 0
M  V30 5441 H 520.019 2.23635 1.21899 0
M  V30 5442 H 520.802 3.43261 0.0516987 0
M  V30 5443 N 523.247 -0.488276 1.49845 0
M  V30 5444 C 524.21 -1.57069 1.66919 0
M  V30 5445 C 525.21 -1.51445 0.540479 0
M  V30 5446 O 526.4 -1.5437 0.807188 0
M  V30 5447 C 523.532 -2.96718 1.67844 0
M  V30 5448 H 524.725 -1.43254 2.63474 0
M  V30 5449 H 522.278 -0.713435 1.39068 0
M  V30 5450 H 523.013 -3.15996 0.7292 0
M  V30 5451 H 522.798 -3.02208 2.49826 0
M  V30 5452 H 524.288 -3.75335 1.83066 0
M  V30 5453 N 524.725 -1.39134 -0.740242 0
M  V30 5454 C 525.672 -1.37434 -1.8542 0
M  V30 5455 C 526.642 -0.234822 -1.64432 0
M  V30 5456 O 527.827 -0.429125 -1.85912 0
M  V30 5457 C 524.967 -1.21844 -3.22875 0
M  V30 5458 C 524.08 -2.45296 -3.55603 0
M  V30 5459 C 523.215 -2.22334 -4.82432 0
M  V30 5460 C 522.254 -3.41488 -5.07988 0
M  V30 5461 N 521.391 -3.17877 -6.26018 0
M  V30 5462 H 526.231 -2.3266 -1.86207 0
M  V30 5463 H 523.768 -1.15578 -0.909946 0
M  V30 5464 H 525.726 -1.10818 -4.02213 0
M  V30 5465 H 524.356 -0.3025 -3.21379 0
M  V30 5466 H 523.408 -2.66945 -2.71006 0
M  V30 5467 H 524.72 -3.34063 -3.7041 0
M  V30 5468 H 523.874 -2.0852 -5.69741 0
M  V30 5469 H 522.613 -1.30954 -4.6979 0
M  V30 5470 H 521.618 -3.55807 -4.19144 0
M  V30 5471 H 522.843 -4.33763 -5.22519 0
M  V30 5472 H 520.789 -2.29156 -6.14673 0
M  V30 5473 H 520.706 -4.00198 -6.41387 0
M  V30 5474 H 521.974 -3.07746 -7.16179 0
M  V30 5475 N 526.204 0.969867 -1.24223 0
M  V30 5476 C 527.134 2.08191 -1.05729 0
M  V30 5477 C 528.115 1.70075 0.0290765 0
M  V30 5478 O 529.3 1.93712 -0.137583 0
M  V30 5479 C 526.43 3.40991 -0.658995 0
M  V30 5480 C 525.384 3.93054 -1.69389 0
M  V30 5481 C 524.71 5.22171 -1.15072 0
M  V30 5482 C 526.01 4.21137 -3.08935 0
M  V30 5483 H 527.704 2.23921 -1.98746 0
M  V30 5484 H 525.25 1.07602 -0.956967 0
M  V30 5485 H 527.203 4.18221 -0.51662 0
M  V30 5486 H 525.927 3.25155 0.30686 0
M  V30 5487 H 524.586 3.17977 -1.82444 0
M  V30 5488 H 524.234 5.02694 -0.175539 0
M  V30 5489 H 523.934 5.57973 -1.84229 0
M  V30 5490 H 525.458 6.02013 -1.02042 0
M  V30 5491 H 526.872 4.8908 -2.99121 0
M  V30 5492 H 525.269 4.68163 -3.75425 0
M  V30 5493 H 526.339 3.27996 -3.57137 0
M  V30 5494 N 527.682 1.05563 1.17022 0
M  V30 5495 C 529.093 0.793475 1.69 0
M  V30 5496 C 529.444 -0.683882 1.83895 0
M  V30 5497 O 528.569 -1.53116 1.5292 0
M  V30 5498 C 529.164 1.43376 3.06967 0
M  V30 5499 C 527.723 1.21956 3.56095 0
M  V30 5500 C 526.87 1.51494 2.3226 0
M  V30 5501 H 529.821 1.22008 1.01487 0
M  V30 5502 H 529.842 0.845068 3.70997 0
M  V30 5503 H 529.354 2.50899 2.96093 0
M  V30 5504 H 527.455 0.163749 3.7224 0
M  V30 5505 H 527.568 1.92713 4.38633 0
M  V30 5506 H 525.932 0.935175 2.3691 0
M  V30 5507 H 526.715 2.60159 2.23992 0
M  V30 5508 N 529.16 -1.33526 0.837174 0
M  V30 5509 C 530.092 -2.28077 0.226579 0
M  V30 5510 C 531.105 -1.51666 -0.591717 0
M  V30 5511 O 532.294 -1.73511 -0.419064 0
M  V30 5512 C 529.394 -3.31597 -0.69978 0
M  V30 5513 C 528.567 -4.37329 0.0788067 0
M  V30 5514 C 527.626 -5.20526 -0.770637 0
M  V30 5515 O 526.652 -5.68811 -0.210453 0
M  V30 5516 N 527.854 -5.41639 -2.08825 0
M  V30 5517 H 530.619 -2.81115 1.03897 0
M  V30 5518 H 528.18 -1.46201 0.695476 0
M  V30 5519 H 530.172 -3.84158 -1.27298 0
M  V30 5520 H 528.742 -2.78848 -1.41288 0
M  V30 5521 H 527.962 -3.8529 0.833381 0
M  V30 5522 H 529.25 -5.05079 0.614238 0
M  V30 5523 H 528.648 -5.04108 -2.56693 0
M  V30 5524 H 527.205 -5.97263 -2.60998 0
M  V30 5525 N 530.638 -0.59345 -1.46 0
M  V30 5526 C 531.863 -0.0872365 -2.07216 0
M  V30 5527 C 532.288 1.2131 -1.43755 0
M  V30 5528 O 531.646 1.73528 -0.525152 0
M  V30 5529 C 531.694 0.0538197 -3.6056 0
M  V30 5530 O 530.798 1.10765 -3.97247 0
M  V30 5531 H 530.139 -0.0676598 -0.660544 0
M  V30 5532 H 532.669 -0.819445 -1.87473 0
M  V30 5533 H 532.679 0.256567 -4.07193 0
M  V30 5534 H 531.354 -0.895739 -4.0614 0
M  V30 5535 H 529.931 0.882501 -3.62307 0
M  V30 5536 N 532.116 1.54067 -0.331816 0
M  V30 5537 C 533.048 2.22139 0.564538 0
M  V30 5538 C 534.061 1.22408 1.07332 0
M  V30 5539 O 535.25 1.4883 0.985481 0
M  V30 5540 C 532.35 2.87876 1.78831 0
M  V30 5541 C 531.523 4.13817 1.41682 0
M  V30 5542 C 530.582 4.63072 2.49901 0
M  V30 5543 O 529.608 5.27562 2.13699 0
M  V30 5544 N 530.81 4.38001 3.80967 0
M  V30 5545 H 533.575 2.99694 -0.0183736 0
M  V30 5546 H 531.136 1.61153 -0.155396 0
M  V30 5547 H 533.128 3.17747 2.50637 0
M  V30 5548 H 531.698 2.13977 2.27887 0
M  V30 5549 H 530.918 3.9062 0.530044 0
M  V30 5550 H 532.206 4.95762 1.14443 0
M  V30 5551 H 531.604 3.864 4.13173 0
M  V30 5552 H 530.161 4.72507 4.48977 0
M  V30 5553 N 533.594 0.0601682 1.57485 0
M  V30 5554 C 534.819 -0.624416 1.97777 0
M  V30 5555 C 535.244 -1.63051 0.937867 0
M  V30 5556 O 534.602 -1.81036 -0.0978845 0
M  V30 5557 C 534.65 -1.27979 3.37126 0
M  V30 5558 O 533.754 -2.39556 3.35688 0
M  V30 5559 H 533.095 -0.161581 0.64404 0
M  V30 5560 H 535.625 0.131237 2.04179 0
M  V30 5561 H 535.635 -1.62937 3.74053 0
M  V30 5562 H 534.31 -0.542501 4.12347 0
M  V30 5563 H 532.887 -2.06478 3.10517 0
M  V30 5564 N 535.072 -1.5615 -0.213296 0
M  V30 5565 C 536.019 -1.93086 -1.26437 0
M  V30 5566 C 536.989 -0.789086 -1.4616 0
M  V30 5567 O 538.174 -1.04569 -1.59593 0
M  V30 5568 C 535.314 -2.26003 -2.608 0
M  V30 5569 C 534.427 -3.53156 -2.48807 0
M  V30 5570 C 533.562 -3.7548 -3.7575 0
M  V30 5571 C 532.601 -4.96119 -3.58514 0
M  V30 5572 N 531.738 -5.14791 -4.77425 0
M  V30 5573 H 536.578 -2.82707 -0.942376 0
M  V30 5574 H 534.115 -1.39919 -0.454001 0
M  V30 5575 H 536.073 -2.431 -3.39055 0
M  V30 5576 H 534.703 -1.39546 -2.91079 0
M  V30 5577 H 533.755 -3.44207 -1.61944 0
M  V30 5578 H 535.067 -4.41565 -2.31996 0
M  V30 5579 H 534.221 -3.92718 -4.62447 0
M  V30 5580 H 532.96 -2.85368 -3.95495 0
M  V30 5581 H 531.965 -4.78823 -2.70201 0
M  V30 5582 H 533.19 -5.87724 -3.40231 0
M  V30 5583 H 531.136 -4.27623 -4.97468 0
M  V30 5584 H 531.053 -5.97347 -4.63371 0
M  V30 5585 H 532.321 -5.36471 -5.65525 0
M  V30 5586 N 536.55 0.480323 -1.50102 0
M  V30 5587 C 537.775 1.26126 -1.64642 0
M  V30 5588 C 538.2 1.85257 -0.325823 0
M  V30 5589 O 537.558 1.66854 0.709194 0
M  V30 5590 C 537.606 2.35243 -2.73301 0
M  V30 5591 O 536.71 3.39646 -2.33911 0
M  V30 5592 H 536.051 0.371463 -0.550374 0
M  V30 5593 H 538.581 0.572696 -1.96421 0
M  V30 5594 H 538.591 2.80695 -2.96098 0
M  V30 5595 H 537.266 1.91574 -3.6915 0
M  V30 5596 H 535.843 2.99969 -2.21525 0
M  V30 5597 N 538.028 1.39524 0.732853 0
M  V30 5598 C 539.276 1.36594 1.48951 0
M  V30 5599 C 539.597 -0.0367507 1.94965 0
M  V30 5600 O 538.867 -0.988391 1.69138 0
M  V30 5601 H 537.447 0.502673 0.552566 0
M  V30 5602 H 540.109 1.74411 0.869869 0
M  V30 5603 H 539.205 2.03 2.3706 0
M  V30 5604 N 539.506 -0.963266 1.24736 0
M  V30 5605 C 540.736 -1.73913 1.11524 0
M  V30 5606 C 541.144 -1.86218 -0.334612 0
M  V30 5607 O 540.487 -1.3531 -1.24245 0
M  V30 5608 C 540.549 -3.17501 1.68622 0
M  V30 5609 C 540.213 -3.28655 3.17546 0
M  V30 5610 C 541.21 -3.13637 4.14642 0
M  V30 5611 C 538.895 -3.52753 3.5759 0
M  V30 5612 C 540.889 -3.2255 5.49764 0
M  V30 5613 C 538.576 -3.61303 4.92852 0
M  V30 5614 C 539.574 -3.46214 5.88748 0
M  V30 5615 O 539.262 -3.5443 7.2155 0
M  V30 5616 H 538.994 -0.552057 0.390139 0
M  V30 5617 H 541.548 -1.2177 1.65412 0
M  V30 5618 H 539.778 -3.70969 1.09172 0
M  V30 5619 H 541.467 -3.76914 1.50635 0
M  V30 5620 H 542.233 -2.94899 3.85045 0
M  V30 5621 H 538.112 -3.63561 2.83451 0
M  V30 5622 H 541.656 -3.1069 6.24594 0
M  V30 5623 H 537.553 -3.79556 5.22118 0
M  V30 5624 H 538.321 -3.71116 7.29531 0
M  V30 5625 N 540.985 -1.06182 -1.16461 0
M  V30 5626 C 542.21 -0.798599 -1.91408 0
M  V30 5627 C 542.635 0.640987 -1.76842 0
M  V30 5628 O 541.993 1.44652 -1.09296 0
M  V30 5629 C 542.041 -1.19665 -3.40165 0
M  V30 5630 O 541.145 -0.334768 -4.11039 0
M  V30 5631 H 540.486 -0.291961 -0.596368 0
M  V30 5632 H 543.016 -1.41732 -1.47557 0
M  V30 5633 H 543.026 -1.16772 -3.90933 0
M  V30 5634 H 541.701 -2.24526 -3.50087 0
M  V30 5635 H 540.278 -0.425168 -3.70468 0
M  V30 5636 N 542.463 1.3308 -0.844243 0
M  V30 5637 C 543.688 2.02341 -0.455282 0
M  V30 5638 C 544.113 1.6308 0.93737 0
M  V30 5639 O 543.471 0.826118 1.61385 0
M  V30 5640 C 543.519 3.55743 -0.58988 0
M  V30 5641 O 542.623 4.1063 0.38166 0
M  V30 5642 H 541.964 0.637898 -0.184343 0
M  V30 5643 H 544.494 1.6986 -1.14056 0
M  V30 5644 H 544.504 4.05243 -0.473522 0
M  V30 5645 H 543.179 3.83662 -1.60549 0
M  V30 5646 H 541.756 3.72236 0.22241 0
M  V30 5647 N 543.941 0.601185 1.45683 0
M  V30 5648 C 545.166 0.0982245 2.07167 0
M  V30 5649 C 545.591 -1.20546 1.44396 0
M  V30 5650 O 544.949 -1.73247 0.534347 0
M  V30 5651 C 544.997 -0.0346976 3.60583 0
M  V30 5652 O 544.101 -1.08657 3.97828 0
M  V30 5653 H 543.442 0.0711618 0.660176 0
M  V30 5654 H 545.972 0.829376 1.87036 0
M  V30 5655 H 545.982 -0.234969 4.07323 0
M  V30 5656 H 544.657 0.917265 4.05659 0
M  V30 5657 H 543.234 -0.863275 3.6277 0
M  V30 5658 N 545.419 -1.53889 0.339982 0
M  V30 5659 C 546.644 -2.05741 -0.261798 0
M  V30 5660 C 547.069 -1.21354 -1.43718 0
M  V30 5661 O 546.427 -0.22645 -1.7988 0
M  V30 5662 C 546.475 -3.54542 -0.658228 0
M  V30 5663 O 545.579 -3.7302 -1.75869 0
M  V30 5664 H 544.92 -0.662529 -0.0441672 0
M  V30 5665 H 547.45 -1.98568 0.493161 0
M  V30 5666 H 547.46 -3.9711 -0.936368 0
M  V30 5667 H 546.135 -4.15412 0.201358 0
M  V30 5668 H 544.712 -3.42355 -1.47809 0
M  V30 5669 N 546.897 -0.0685191 -1.57451 0
M  V30 5670 C 547.847 0.909895 -2.09057 0
M  V30 5671 C 548.831 1.26088 -0.999528 0
M  V30 5672 O 550.023 1.24041 -1.26265 0
M  V30 5673 C 547.152 2.17863 -2.65312 0
M  V30 5674 C 546.238 1.85427 -3.81415 0
M  V30 5675 N 546.629 1.23426 -4.9051 0
M  V30 5676 C 544.927 2.15196 -3.90649 0
M  V30 5677 C 545.628 1.09008 -5.71395 0
M  V30 5678 N 544.604 1.59871 -5.1956 0
M  V30 5679 H 548.406 0.426145 -2.90794 0
M  V30 5680 H 545.92 0.135462 -1.61834 0
M  V30 5681 H 547.917 2.88872 -3.00597 0
M  V30 5682 H 546.577 2.66829 -1.85021 0
M  V30 5683 H 547.588 0.904305 -5.09944 0
M  V30 5684 H 544.265 2.66562 -3.21327 0
M  V30 5685 H 545.655 0.607305 -6.6915 0
M  V30 5686 N 548.375 1.56261 0.205012 0
M  V30 5687 C 549.307 1.90266 1.27795 0
M  V30 5688 C 550.32 0.792397 1.42214 0
M  V30 5689 O 551.509 1.07077 1.42817 0
M  V30 5690 C 548.609 2.11074 2.65143 0
M  V30 5691 C 547.782 3.42176 2.7246 0
M  V30 5692 C 546.841 3.52216 3.90936 0
M  V30 5693 O 545.867 4.25119 3.78501 0
M  V30 5694 N 547.069 2.84573 5.05963 0
M  V30 5695 H 549.834 2.82896 0.989434 0
M  V30 5696 H 547.395 1.57008 0.394981 0
M  V30 5697 H 549.387 2.15089 3.4281 0
M  V30 5698 H 547.957 1.2499 2.86524 0
M  V30 5699 H 547.177 3.50116 1.81142 0
M  V30 5700 H 548.465 4.28509 2.74331 0
M  V30 5701 H 547.863 2.25152 5.18963 0
M  V30 5702 H 546.42 2.94228 5.81613 0
M  V30 5703 N 549.853 -0.472356 1.50355 0
M  V30 5704 C 551.083 -1.24603 1.64796 0
M  V30 5705 C 551.491 -1.86297 0.330156 0
M  V30 5706 O 550.834 -1.69934 -0.697728 0
M  V30 5707 C 550.896 -2.39578 2.68035 0
M  V30 5708 C 550.56 -1.98531 4.11624 0
M  V30 5709 C 551.557 -1.50856 4.97532 0
M  V30 5710 C 549.242 -2.0729 4.57532 0
M  V30 5711 C 551.236 -1.12481 6.27397 0
M  V30 5712 C 548.923 -1.68527 5.87403 0
M  V30 5713 C 549.921 -1.212 6.7216 0
M  V30 5714 O 549.609 -0.829728 7.99607 0
M  V30 5715 H 549.341 -0.383035 0.55701 0
M  V30 5716 H 551.895 -0.570392 1.97321 0
M  V30 5717 H 550.125 -3.10309 2.30749 0
M  V30 5718 H 551.814 -3.01544 2.71709 0
M  V30 5719 H 552.58 -1.43511 4.63281 0
M  V30 5720 H 548.459 -2.43076 3.91708 0
M  V30 5721 H 552.003 -0.754698 6.93506 0
M  V30 5722 H 547.9 -1.7553 6.21176 0
M  V30 5723 H 548.668 -0.958689 8.12866 0
M  V30 5724 N 551.331 -1.39911 -0.725443 0
M  V30 5725 C 552.742 -1.33599 -1.30415 0
M  V30 5726 C 553.093 -0.00481792 -1.96199 0
M  V30 5727 O 552.218 0.897275 -1.96921 0
M  V30 5728 C 552.813 -2.41965 -2.37146 0
M  V30 5729 C 551.372 -2.39144 -2.90667 0
M  V30 5730 C 550.519 -2.23355 -1.64341 0
M  V30 5731 H 553.47 -1.4986 -0.522267 0
M  V30 5732 H 553.491 -2.09304 -3.17761 0
M  V30 5733 H 553.003 -3.38837 -1.89238 0
M  V30 5734 H 551.104 -1.4594 -3.4283 0
M  V30 5735 H 551.217 -3.34362 -3.43131 0
M  V30 5736 H 549.581 -1.70696 -1.89037 0
M  V30 5737 H 550.364 -3.2221 -1.18471 0
M  V30 5738 N 552.809 0.956637 -1.25245 0
M  V30 5739 C 554.034 1.74104 -1.12706 0
M  V30 5740 C 554.459 1.85436 0.315429 0
M  V30 5741 O 553.817 1.33334 1.22848 0
M  V30 5742 C 553.865 3.1338 -1.78396 0
M  V30 5743 O 552.969 3.98485 -1.06224 0
M  V30 5744 H 552.31 0.53476 -0.393609 0
M  V30 5745 H 554.84 1.19924 -1.65769 0
M  V30 5746 H 554.85 3.6385 -1.846 0
M  V30 5747 H 553.525 3.04448 -2.83345 0
M  V30 5748 H 552.102 3.56952 -1.07886 0
M  V30 5749 N 554.287 1.06798 1.15896 0
M  V30 5750 C 555.535 0.786211 1.8618 0
M  V30 5751 C 555.856 -0.689547 1.82401 0
M  V30 5752 O 555.126 -1.49913 1.26107 0
M  V30 5753 H 553.706 0.287843 0.689315 0
M  V30 5754 H 556.368 1.35055 1.40521 0
M  V30 5755 H 555.464 1.1157 2.91477 0
M  V30 5756 N 555.766 -1.3263 0.851289 0
M  V30 5757 C 556.996 -2.01271 0.466222 0
M  V30 5758 C 557.404 -1.64156 -0.940714 0
M  V30 5759 O 556.747 -0.857109 -1.62479 0
M  V30 5760 C 556.809 -3.55695 0.521672 0
M  V30 5761 C 556.473 -4.16227 1.88691 0
M  V30 5762 C 557.47 -4.34699 2.85189 0
M  V30 5763 C 555.155 -4.52377 2.18313 0
M  V30 5764 C 557.149 -4.88484 4.09465 0
M  V30 5765 C 554.836 -5.05868 3.42843 0
M  V30 5766 C 555.834 -5.23869 4.38235 0
M  V30 5767 O 555.522 -5.76218 5.6056 0
M  V30 5768 H 555.254 -0.651034 0.18202 0
M  V30 5769 H 557.808 -1.7026 1.14894 0
M  V30 5770 H 556.038 -3.86086 -0.217888 0
M  V30 5771 H 557.727 -4.05613 0.152682 0
M  V30 5772 H 558.493 -4.07107 2.63607 0
M  V30 5773 H 554.372 -4.37652 1.44851 0
M  V30 5774 H 557.916 -5.02451 4.83931 0
M  V30 5775 H 553.813 -5.32891 3.64277 0
M  V30 5776 H 554.581 -5.94616 5.62471 0
M  V30 5777 N 557.244 -0.608902 -1.45362 0
M  V30 5778 C 558.194 0.130616 -2.27626 0
M  V30 5779 C 559.178 0.837323 -1.37396 0
M  V30 5780 O 560.37 0.727096 -1.61376 0
M  V30 5781 C 557.499 1.12646 -3.24293 0
M  V30 5782 C 556.585 0.42052 -4.2201 0
M  V30 5783 N 556.976 -0.538569 -5.02925 0
M  V30 5784 C 555.274 0.667901 -4.40971 0
M  V30 5785 C 555.975 -0.953625 -5.7383 0
M  V30 5786 N 554.951 -0.297097 -5.42788 0
M  V30 5787 H 558.753 -0.605996 -2.87585 0
M  V30 5788 H 556.267 -0.432672 -1.5653 0
M  V30 5789 H 558.264 1.67066 -3.81961 0
M  V30 5790 H 556.924 1.86361 -2.65894 0
M  V30 5791 H 557.935 -0.915375 -5.09746 0
M  V30 5792 H 554.612 1.38963 -3.93695 0
M  V30 5793 H 556.002 -1.74473 -6.48852 0
M  V30 5794 N 558.722 1.53707 -0.348139 0
M  V30 5795 C 559.669 2.25173 0.506518 0
M  V30 5796 C 560.639 1.25174 1.09182 0
M  V30 5797 O 561.824 1.53917 1.12757 0
M  V30 5798 C 558.964 3.03141 1.64923 0
M  V30 5799 C 558.077 4.18002 1.0908 0
M  V30 5800 C 557.212 4.83447 2.20119 0
M  V30 5801 C 556.251 5.90369 1.61651 0
M  V30 5802 N 555.388 6.49575 2.66451 0
M  V30 5803 H 560.228 2.97799 -0.109452 0
M  V30 5804 H 557.765 1.46953 -0.0657866 0
M  V30 5805 H 559.723 3.46607 2.32205 0
M  V30 5806 H 558.353 2.32803 2.23612 0
M  V30 5807 H 557.405 3.79145 0.308783 0
M  V30 5808 H 558.717 4.94892 0.623178 0
M  V30 5809 H 557.871 5.30008 2.95257 0
M  V30 5810 H 556.61 4.05991 2.70227 0
M  V30 5811 H 555.615 5.43186 0.850209 0
M  V30 5812 H 556.84 6.69735 1.1239 0
M  V30 5813 H 554.786 5.74981 3.15805 0
M  V30 5814 H 554.703 7.21952 2.24325 0
M  V30 5815 H 555.971 7.00789 3.41344 0
M  V30 5816 N 560.2 0.0768682 1.57412 0
M  V30 5817 C 561.163 -0.873949 2.11884 0
M  V30 5818 C 562.163 -1.22301 1.04398 0
M  V30 5819 O 563.353 -1.15545 1.30365 0
M  V30 5820 C 560.485 -2.17575 2.62438 0
M  V30 5821 H 561.678 -0.401278 2.97203 0
M  V30 5822 H 559.231 -0.171904 1.55352 0
M  V30 5823 H 559.966 -2.69368 1.80587 0
M  V30 5824 H 559.751 -1.93534 3.41009 0
M  V30 5825 H 561.241 -2.85631 3.04639 0
M  V30 5826 N 561.678 -1.56367 -0.196722 0
M  V30 5827 C 562.906 -1.84639 -0.933608 0
M  V30 5828 C 563.321 -0.659164 -1.76919 0
M  V30 5829 O 562.678 0.372142 -1.78665 0
M  V30 5830 C 562.729 -3.11694 -1.83109 0
M  V30 5831 O 562.45 -4.25838 -1.02924 0
M  V30 5832 C 563.951 -3.53132 -2.67979 0
M  V30 5833 H 561.171 -0.613188 -0.272473 0
M  V30 5834 H 563.715 -2.03475 -0.204465 0
M  V30 5835 H 561.87 -2.94759 -2.51387 0
M  V30 5836 H 562.284 -4.98178 -1.64069 0
M  V30 5837 H 563.758 -4.45005 -3.26611 0
M  V30 5838 H 564.235 -2.76045 -3.41608 0
M  V30 5839 H 564.841 -3.72592 -2.05074 0
M  V30 5840 N 563.156 0.464375 -1.50603 0
M  V30 5841 C 564.086 1.56944 -1.72889 0
M  V30 5842 C 565.067 1.59979 -0.577997 0
M  V30 5843 O 566.252 1.76138 -0.817855 0
M  V30 5844 C 563.382 2.95225 -1.8292 0
M  V30 5845 C 562.336 3.07056 -2.98162 0
M  V30 5846 C 561.662 4.47051 -2.93343 0
M  V30 5847 C 562.962 2.83648 -4.38567 0
M  V30 5848 H 564.656 1.38547 -2.65415 0
M  V30 5849 H 562.202 0.665082 -1.27721 0
M  V30 5850 H 564.155 3.72467 -1.97095 0
M  V30 5851 H 562.879 3.14793 -0.870209 0
M  V30 5852 H 561.538 2.32248 -2.83648 0
M  V30 5853 H 561.186 4.63547 -1.95276 0
M  V30 5854 H 560.886 4.55902 -3.70712 0
M  V30 5855 H 562.41 5.26304 -3.09575 0
M  V30 5856 H 563.824 3.50636 -4.53572 0
M  V30 5857 H 562.221 3.03937 -5.17438 0
M  V30 5858 H 563.291 1.79451 -4.50472 0
M  V30 5859 N 564.634 1.40294 0.718013 0
M  V30 5860 C 565.864 1.41544 1.50495 0
M  V30 5861 C 566.272 0.0127877 1.89196 0
M  V30 5862 O 565.615 -0.97305 1.55812 0
M  V30 5863 C 565.677 2.24021 2.81167 0
M  V30 5864 C 565.341 3.72463 2.64803 0
M  V30 5865 C 566.338 4.65154 2.32223 0
M  V30 5866 C 564.023 4.1625 2.81143 0
M  V30 5867 C 566.017 5.99618 2.16189 0
M  V30 5868 C 563.704 5.50784 2.64727 0
M  V30 5869 C 564.702 6.42283 2.32297 0
M  V30 5870 O 564.39 7.74337 2.16004 0
M  V30 5871 H 564.122 0.484819 0.471091 0
M  V30 5872 H 566.676 1.84948 0.893488 0
M  V30 5873 H 564.906 1.75393 3.44636 0
M  V30 5874 H 566.595 2.17243 3.42871 0
M  V30 5875 H 567.361 4.32622 2.19234 0
M  V30 5876 H 563.24 3.45352 3.05373 0
M  V30 5877 H 566.784 6.71 1.90799 0
M  V30 5878 H 562.681 5.82902 2.773 0
M  V30 5879 H 563.449 7.85244 2.30942 0
M  V30 5880 N 566.112 -0.949982 1.2575 0
M  V30 5881 C 567.062 -2.03297 1.03221 0
M  V30 5882 C 568.046 -1.60867 -0.0324751 0
M  V30 5883 O 569.238 -1.76047 0.183423 0
M  V30 5884 C 566.367 -3.36938 0.657841 0
M  V30 5885 C 565.453 -3.85878 1.75952 0
M  V30 5886 N 565.844 -4.0756 2.99547 0
M  V30 5887 C 564.142 -4.14709 1.64111 0
M  V30 5888 C 564.843 -4.47961 3.71087 0
M  V30 5889 N 563.819 -4.5416 2.98731 0
M  V30 5890 H 567.621 -2.1806 1.97045 0
M  V30 5891 H 565.135 -1.13516 1.16138 0
M  V30 5892 H 567.132 -4.14155 0.477614 0
M  V30 5893 H 565.792 -3.2355 -0.273025 0
M  V30 5894 H 566.803 -3.94501 3.35544 0
M  V30 5895 H 563.48 -4.10158 0.779527 0
M  V30 5896 H 564.87 -4.73002 4.77199 0
M  V30 5897 N 567.59 -1.07411 -1.15328 0
M  V30 5898 C 568.54 -0.664788 -2.18093 0
M  V30 5899 C 569.524 0.310395 -1.57878 0
M  V30 5900 O 570.716 0.124026 -1.76565 0
M  V30 5901 C 567.845 -0.0647822 -3.43239 0
M  V30 5902 C 566.931 -1.06514 -4.10506 0
M  V30 5903 N 567.322 -2.24491 -4.53252 0
M  V30 5904 C 565.62 -0.898613 -4.36853 0
M  V30 5905 C 566.321 -2.8796 -5.05424 0
M  V30 5906 N 565.297 -2.15622 -4.99007 0
M  V30 5907 H 569.099 -1.56333 -2.48872 0
M  V30 5908 H 566.613 -0.947393 -1.31902 0
M  V30 5909 H 568.61 0.246363 -4.16171 0
M  V30 5910 H 567.27 0.828866 -3.13943 0
M  V30 5911 H 568.281 -2.62205 -4.46619 0
M  V30 5912 H 564.958 -0.0579118 -4.1746 0
M  V30 5913 H 566.348 -3.88137 -5.48452 0
M  V30 5914 N 569.068 1.32177 -0.85831 0
M  V30 5915 C 570.479 1.79381 -0.517621 0
M  V30 5916 C 570.83 1.70841 0.964769 0
M  V30 5917 O 569.955 1.26917 1.75274 0
M  V30 5918 C 570.55 3.25706 -0.932801 0
M  V30 5919 C 569.109 3.70851 -0.643953 0
M  V30 5920 C 568.256 2.53208 -1.13054 0
M  V30 5921 H 571.207 1.19424 -1.04516 0
M  V30 5922 H 571.228 3.79673 -0.250674 0
M  V30 5923 H 570.74 3.31889 -2.01174 0
M  V30 5924 H 568.841 3.70178 0.424112 0
M  V30 5925 H 568.954 4.63495 -1.21281 0
M  V30 5926 H 567.318 2.48676 -0.550679 0
M  V30 5927 H 568.101 2.62143 -2.21666 0
M  V30 5928 N 570.547 0.616602 1.45037 0
M  V30 5929 C 571.772 0.120192 2.07051 0
M  V30 5930 C 572.197 -1.19008 1.45666 0
M  V30 5931 O 571.555 -1.7267 0.552692 0
M  V30 5932 C 571.603 0.00354901 3.606 0
M  V30 5933 O 570.707 -1.04431 3.98958 0
M  V30 5934 H 570.048 0.0781599 0.659384 0
M  V30 5935 H 572.578 0.849167 1.86146 0
M  V30 5936 H 572.588 -0.191754 4.07549 0
M  V30 5937 H 571.263 0.960239 4.04663 0
M  V30 5938 H 569.84 -0.824749 3.63665 0
M  V30 5939 N 572.025 -1.5352 0.356285 0
M  V30 5940 C 572.955 -2.28372 -0.486661 0
M  V30 5941 C 573.936 -1.30432 -1.09185 0
M  V30 5942 O 575.121 -1.59291 -1.11085 0
M  V30 5943 C 572.251 -3.06604 -1.63129 0
M  V30 5944 C 571.205 -4.12154 -1.15381 0
M  V30 5945 C 570.531 -4.78415 -2.38796 0
M  V30 5946 C 571.831 -5.21724 -0.245179 0
M  V30 5947 H 573.525 -2.99083 0.137797 0
M  V30 5948 H 571.071 -1.43841 0.0677134 0
M  V30 5949 H 573.024 -3.57712 -2.22755 0
M  V30 5950 H 571.748 -2.33568 -2.28284 0
M  V30 5951 H 570.407 -3.61978 -0.580294 0
M  V30 5952 H 570.055 -4.01959 -3.02387 0
M  V30 5953 H 569.755 -5.49734 -2.07524 0
M  V30 5954 H 571.279 -5.32313 -2.99125 0
M  V30 5955 H 572.693 -5.68391 -0.748646 0
M  V30 5956 H 571.09 -6.00095 -0.0237608 0
M  V30 5957 H 572.16 -4.79596 0.715229 0
M  V30 5958 N 573.503 -0.0852151 -1.57369 0
M  V30 5959 C 574.435 0.907099 -2.10486 0
M  V30 5960 C 575.448 1.25259 -1.03991 0
M  V30 5961 O 576.637 1.20743 -1.31467 0
M  V30 5962 C 573.737 2.21908 -2.56145 0
M  V30 5963 C 572.91 2.05042 -3.86363 0
M  V30 5964 C 571.969 3.19664 -4.17973 0
M  V30 5965 O 570.995 2.94062 -4.87356 0
M  V30 5966 N 572.197 4.45151 -3.72587 0
M  V30 5967 H 574.962 0.453505 -2.96249 0
M  V30 5968 H 572.523 0.100157 -1.6159 0
M  V30 5969 H 574.515 2.97519 -2.74343 0
M  V30 5970 H 573.085 2.58723 -1.75446 0
M  V30 5971 H 572.305 1.13819 -3.77411 0
M  V30 5972 H 573.593 1.91039 -4.71574 0
M  V30 5973 H 572.991 4.68834 -3.16561 0
M  V30 5974 H 571.548 5.17744 -3.9596 0
M  V30 5975 N 574.981 1.5647 0.188427 0
M  V30 5976 C 576.206 1.85486 0.927891 0
M  V30 5977 C 576.631 0.669575 1.75779 0
M  V30 5978 O 575.989 -0.381573 1.77239 0
M  V30 5979 C 576.037 3.12784 1.7944 0
M  V30 5980 O 575.141 2.93805 2.894 0
M  V30 5981 H 574.482 0.610585 0.260925 0
M  V30 5982 H 577.012 2.037 0.191729 0
M  V30 5983 H 577.022 3.43749 2.19774 0
M  V30 5984 H 575.697 3.98671 1.18468 0
M  V30 5985 H 574.274 2.74153 2.52774 0
M  V30 5986 N 576.459 -0.456382 1.50847 0
M  V30 5987 C 577.684 -1.2349 1.66628 0
M  V30 5988 C 578.109 -1.84715 0.355254 0
M  V30 5989 O 577.467 -1.67961 -0.682559 0
M  V30 5990 C 577.515 -2.30865 2.77009 0
M  V30 5991 O 576.619 -3.35882 2.39285 0
M  V30 5992 H 575.96 -0.36266 0.556214 0
M  V30 5993 H 578.49 -0.541374 1.97308 0
M  V30 5994 H 578.5 -2.75949 3.00526 0
M  V30 5995 H 577.175 -1.85677 3.72152 0
M  V30 5996 H 575.752 -2.96406 2.26269 0
M  V30 5997 N 577.937 -1.40673 -0.710563 0
M  V30 5998 C 579.162 -1.42741 -1.50465 0
M  V30 5999 C 579.587 -0.0302116 -1.88076 0
M  V30 6000 O 578.945 0.962945 -1.53613 0
M  V30 6001 C 578.993 -2.32873 -2.75322 0
M  V30 6002 O 578.097 -1.77544 -3.72226 0
M  V30 6003 H 577.438 -0.485056 -0.45345 0
M  V30 6004 H 579.968 -1.84961 -0.874681 0
M  V30 6005 H 579.978 -2.48233 -3.23797 0
M  V30 6006 H 578.653 -3.34401 -2.47283 0
M  V30 6007 H 577.23 -1.71556 -3.31093 0
M  V30 6008 N 579.415 0.9433 -1.26252 0
M  V30 6009 C 580.347 2.04542 -1.03417 0
M  V30 6010 C 581.36 1.62799 0.0046911 0
M  V30 6011 O 582.549 1.76944 -0.235146 0
M  V30 6012 C 579.649 3.34511 -0.543671 0
M  V30 6013 C 578.822 4.05033 -1.65128 0
M  V30 6014 C 577.881 5.13273 -1.1592 0
M  V30 6015 O 576.907 5.38095 -1.85586 0
M  V30 6016 N 578.109 5.805 -0.00649279 0
M  V30 6017 H 580.874 2.24699 -1.98319 0
M  V30 6018 H 578.435 1.11264 -1.1761 0
M  V30 6019 H 580.427 4.04212 -0.198703 0
M  V30 6020 H 578.997 3.11042 0.311711 0
M  V30 6021 H 578.217 3.29275 -2.16729 0
M  V30 6022 H 579.505 4.48903 -2.39508 0
M  V30 6023 H 578.903 5.62767 0.575347 0
M  V30 6024 H 577.46 6.51201 0.279416 0
M  V30 6025 N 580.893 1.08022 1.14757 0
M  V30 6026 C 582.123 0.827646 1.89298 0
M  V30 6027 C 582.531 -0.623506 1.78631 0
M  V30 6028 O 581.874 -1.43991 1.14071 0
M  V30 6029 C 581.936 1.16553 3.40082 0
M  V30 6030 C 581.6 2.61866 3.74533 0
M  V30 6031 C 582.597 3.60116 3.74984 0
M  V30 6032 C 580.282 2.97619 4.04633 0
M  V30 6033 C 582.276 4.92151 4.05051 0
M  V30 6034 C 579.963 4.2985 4.34364 0
M  V30 6035 C 580.961 5.26926 4.34555 0
M  V30 6036 O 580.649 6.5678 4.63568 0
M  V30 6037 H 580.381 0.298396 0.606577 0
M  V30 6038 H 582.935 1.44187 1.46285 0
M  V30 6039 H 581.165 0.494296 3.83528 0
M  V30 6040 H 582.854 0.894407 3.95923 0
M  V30 6041 H 583.62 3.33837 3.51821 0
M  V30 6042 H 579.499 2.22702 4.03639 0
M  V30 6043 H 583.043 5.67915 4.05115 0
M  V30 6044 H 578.94 4.55879 4.56995 0
M  V30 6045 H 579.708 6.62035 4.81303 0
M  V30 6046 N 582.371 -1.3172 0.865308 0
M  V30 6047 C 583.62 -1.96145 0.470098 0
M  V30 6048 C 583.933 -1.69182 -0.981674 0
M  V30 6049 O 585.139 -2.27431 -1.48281 0
M  V30 6050 C 583.595 -3.51129 0.789732 0
M  V30 6051 C 583.203 -3.86938 2.25795 0
M  V30 6052 C 584.947 -4.2197 0.462765 0
M  V30 6053 C 582.854 -5.35012 2.52024 0
M  V30 6054 H 581.784 -0.734105 0.172065 0
M  V30 6055 H 584.435 -1.49959 1.05757 0
M  V30 6056 H 582.817 -3.95781 0.131571 0
M  V30 6057 H 583.991 -3.5326 2.95879 0
M  V30 6058 H 582.306 -3.29149 2.55049 0
M  V30 6059 H 584.903 -5.30904 0.636019 0
M  V30 6060 H 585.246 -4.12005 -0.59645 0
M  V30 6061 H 585.779 -3.82936 1.07727 0
M  V30 6062 H 582.518 -5.50008 3.56611 0
M  V30 6063 H 582.038 -5.70058 1.8653 0
M  V30 6064 H 583.717 -6.0222 2.36515 0
M  V30 6065 N 583.85 -0.624285 -1.44708 0
M  V30 6066 C 585.075 -0.131171 -2.06985 0
M  V30 6067 C 585.5 1.18234 -1.46295 0
M  V30 6068 O 584.858 1.72375 -0.561842 0
M  V30 6069 C 584.906 -0.0226724 -3.60593 0
M  V30 6070 O 584.01 1.02314 -3.99507 0
M  V30 6071 H 583.351 -0.0816556 -0.65896 0
M  V30 6072 H 585.88 -0.859027 -1.85693 0
M  V30 6073 H 585.891 0.170138 -4.07645 0
M  V30 6074 H 584.566 -0.981685 -4.04148 0
M  V30 6075 H 583.143 0.805452 -3.64097 0
M  V30 6076 N 585.328 1.53329 -0.364422 0
M  V30 6077 C 586.556 2.05657 0.226424 0
M  V30 6078 C 586.971 1.23801 1.42544 0
M  V30 6079 O 586.328 0.27839 1.80364 0
M  V30 6080 C 586.379 3.56125 0.621056 0
M  V30 6081 O 586.1 4.34879 -0.530304 0
M  V30 6082 C 587.601 4.24706 1.27041 0
M  V30 6083 H 584.821 0.669806 0.0400056 0
M  V30 6084 H 587.365 1.97714 -0.522456 0
M  V30 6085 H 585.52 3.64223 1.31985 0
M  V30 6086 H 585.934 5.24073 -0.211546 0
M  V30 6087 H 587.408 5.3131 1.49711 0
M  V30 6088 H 587.885 3.78354 2.23036 0
M  V30 6089 H 588.491 4.20858 0.613079 0
M  V30 6090 N 586.806 0.0935595 1.57322 0
M  V30 6091 C 587.769 -0.851426 2.12799 0
M  V30 6092 C 588.769 -1.21187 1.0569 0
M  V30 6093 O 589.959 -1.14156 1.31583 0
M  V30 6094 C 587.091 -2.14779 2.64731 0
M  V30 6095 H 588.284 -0.369733 2.97612 0
M  V30 6096 H 585.837 -0.155417 1.55525 0
M  V30 6097 H 586.572 -2.67437 1.83434 0
M  V30 6098 H 586.357 -1.89907 3.43042 0
M  V30 6099 H 587.847 -2.82383 3.07651 0
M  V30 6100 N 588.284 -1.56567 -0.180126 0
M  V30 6101 C 589.509 -1.85975 -0.918041 0
M  V30 6102 C 589.934 -0.678888 -1.75422 0
M  V30 6103 O 589.292 0.372168 -1.77439 0
M  V30 6104 C 589.34 -3.13731 -1.77779 0
M  V30 6105 O 588.444 -2.95335 -2.87838 0
M  V30 6106 H 587.785 -0.61196 -0.257683 0
M  V30 6107 H 590.315 -2.03798 -0.180923 0
M  V30 6108 H 590.325 -3.4491 -2.17948 0
M  V30 6109 H 589 -3.99293 -1.16352 0
M  V30 6110 H 587.577 -2.7549 -2.51316 0
M  V30 6111 N 589.762 0.448376 -1.51087 0
M  V30 6112 C 590.992 1.21965 -1.66757 0
M  V30 6113 C 591.4 1.85748 -0.359753 0
M  V30 6114 O 590.743 1.71022 0.670604 0
M  V30 6115 C 590.805 2.35284 -2.71812 0
M  V30 6116 C 590.469 1.91957 -4.1473 0
M  V30 6117 C 591.466 1.42921 -4.9987 0
M  V30 6118 C 589.151 1.99985 -4.60772 0
M  V30 6119 C 591.145 1.02485 -6.29107 0
M  V30 6120 C 588.832 1.5916 -5.90009 0
M  V30 6121 C 589.83 1.10491 -6.74004 0
M  V30 6122 O 589.518 0.702413 -8.00825 0
M  V30 6123 H 589.25 0.374125 -0.563034 0
M  V30 6124 H 591.804 0.538927 -1.98204 0
M  V30 6125 H 590.034 3.06599 -2.35657 0
M  V30 6126 H 591.723 2.97184 -2.76472 0
M  V30 6127 H 592.489 1.36123 -4.65506 0
M  V30 6128 H 588.368 2.36814 -3.95525 0
M  V30 6129 H 591.912 0.644271 -6.94619 0
M  V30 6130 H 587.809 1.65626 -6.2389 0
M  V30 6131 H 588.577 0.829248 -8.14288 0
M  V30 6132 N 591.24 1.41047 0.703093 0
M  V30 6133 C 592.17 1.45067 1.82969 0
M  V30 6134 C 593.151 0.31016 1.67248 0
M  V30 6135 O 594.336 0.520548 1.87093 0
M  V30 6136 C 591.466 1.32478 3.2104 0
M  V30 6137 C 590.42 2.44262 3.51454 0
M  V30 6138 C 589.746 2.16742 4.88801 0
M  V30 6139 C 591.046 3.86606 3.51189 0
M  V30 6140 H 592.74 2.39353 1.79863 0
M  V30 6141 H 590.286 1.15206 0.863919 0
M  V30 6142 H 592.239 1.33904 3.99559 0
M  V30 6143 H 590.963 0.346735 3.24754 0
M  V30 6144 H 589.622 2.42107 2.75282 0
M  V30 6145 H 589.27 1.17299 4.89132 0
M  V30 6146 H 588.97 2.91643 5.10116 0
M  V30 6147 H 590.494 2.19872 5.69639 0
M  V30 6148 H 591.908 3.90517 4.19725 0
M  V30 6149 H 590.305 4.61128 3.84033 0
M  V30 6150 H 591.375 4.15296 2.50315 0
M  V30 6151 N 592.718 -0.936591 1.26751 0
M  V30 6152 C 593.943 -1.72288 1.15462 0
M  V30 6153 C 594.368 -1.85915 -0.285887 0
M  V30 6154 O 593.726 -1.35272 -1.20711 0
M  V30 6155 C 593.774 -3.10503 1.83359 0
M  V30 6156 O 592.878 -3.96745 1.1255 0
M  V30 6157 H 592.219 -0.52843 0.402067 0
M  V30 6158 H 594.749 -1.17271 1.67656 0
M  V30 6159 H 594.759 -3.60867 1.90365 0
M  V30 6160 H 593.434 -2.99901 2.88153 0
M  V30 6161 H 592.011 -3.55191 1.13551 0
M  V30 6162 N 594.196 -1.08629 -1.14182 0
M  V30 6163 C 595.421 -0.83902 -1.89671 0
M  V30 6164 C 595.846 0.603332 -1.78161 0
M  V30 6165 O 595.204 1.42301 -1.12339 0
M  V30 6166 C 595.252 -1.26854 -3.37551 0
M  V30 6167 O 594.356 -0.42188 -4.10236 0
M  V30 6168 H 593.697 -0.304545 -0.590041 0
M  V30 6169 H 596.227 -1.4483 -1.44518 0
M  V30 6170 H 596.237 -1.25038 -3.88368 0
M  V30 6171 H 594.912 -2.31901 -3.45246 0
M  V30 6172 H 593.489 -0.503654 -3.69483 0
M  V30 6173 N 595.674 1.31259 -0.872281 0
M  V30 6174 C 596.604 2.30929 -0.345554 0
M  V30 6175 C 597.585 1.60449 0.5648 0
M  V30 6176 O 598.77 1.8814 0.481335 0
M  V30 6177 C 595.9 3.44348 0.451823 0
M  V30 6178 C 594.854 4.26435 -0.365641 0
M  V30 6179 C 594.18 5.31785 0.557562 0
M  V30 6180 C 595.48 4.97159 -1.60095 0
M  V30 6181 H 597.174 2.75234 -1.17841 0
M  V30 6182 H 594.72 1.3232 -0.568094 0
M  V30 6183 H 596.673 4.13128 0.830854 0
M  V30 6184 H 595.397 2.98816 1.31821 0
M  V30 6185 H 594.056 3.59326 -0.726649 0
M  V30 6186 H 593.704 4.82502 1.4213 0
M  V30 6187 H 593.404 5.87598 0.0144878 0
M  V30 6188 H 594.928 6.03424 0.933387 0
M  V30 6189 H 596.342 5.58523 -1.29323 0
M  V30 6190 H 594.739 5.62779 -2.08327 0
M  V30 6191 H 595.809 4.24012 -2.35249 0
M  V30 6192 N 597.152 0.631951 1.44375 0
M  V30 6193 C 598.377 0.142146 2.06912 0
M  V30 6194 C 598.802 -1.17456 1.4692 0
M  V30 6195 O 598.16 -1.72074 0.570975 0
M  V30 6196 C 598.208 0.0417952 3.60576 0
M  V30 6197 O 597.312 -1.00194 4.00044 0
M  V30 6198 H 596.653 0.0851491 0.658518 0
M  V30 6199 H 599.183 0.868863 1.85235 0
M  V30 6200 H 599.193 -0.148517 4.0773 0
M  V30 6201 H 597.868 1.0031 4.03622 0
M  V30 6202 H 596.445 -0.786131 3.64519 0
M  V30 6203 N 598.631 -1.53133 0.372548 0
M  V30 6204 C 599.561 -2.28876 -0.462412 0
M  V30 6205 C 600.542 -1.31583 -1.07796 0
M  V30 6206 O 601.727 -1.60461 -1.09389 0
M  V30 6207 C 598.857 -3.08317 -1.59868 0
M  V30 6208 C 597.811 -4.13355 -1.11003 0
M  V30 6209 C 597.137 -4.8092 -2.33708 0
M  V30 6210 C 598.437 -5.21955 -0.18983 0
M  V30 6211 H 600.131 -2.9892 0.169511 0
M  V30 6212 H 597.677 -1.43761 0.0829658 0
M  V30 6213 H 599.63 -3.60055 -2.18949 0
M  V30 6214 H 598.354 -2.35976 -2.25794 0
M  V30 6215 H 597.013 -3.62573 -0.541869 0
M  V30 6216 H 596.661 -4.05144 -2.98106 0
M  V30 6217 H 596.361 -5.51904 -2.01682 0
M  V30 6218 H 597.885 -5.35455 -2.93462 0
M  V30 6219 H 599.299 -5.69153 -0.688319 0
M  V30 6220 H 597.696 -6.00087 0.0398887 0
M  V30 6221 H 598.766 -4.78811 0.766057 0
M  V30 6222 N 600.109 -0.101901 -1.5727 0
M  V30 6223 C 601.334 0.571759 -1.99363 0
M  V30 6224 C 601.759 1.60507 -0.980768 0
M  V30 6225 O 601.117 1.81231 0.0498517 0
M  V30 6226 C 601.165 1.18996 -3.404 0
M  V30 6227 O 600.269 2.30572 -3.41922 0
M  V30 6228 H 599.61 0.144449 -0.648098 0
M  V30 6229 H 602.14 -0.185325 -2.03759 0
M  V30 6230 H 602.15 1.52962 -3.78241 0
M  V30 6231 H 600.825 0.432984 -4.1364 0
M  V30 6232 H 599.402 1.98173 -3.15883 0
M  V30 6233 N 601.587 1.56661 0.17182 0
M  V30 6234 C 602.812 1.86459 0.908165 0
M  V30 6235 C 603.237 0.688181 1.75059 0
M  V30 6236 O 602.595 -0.362753 1.77634 0
M  V30 6237 C 602.643 3.14669 1.76112 0
M  V30 6238 O 601.747 2.96858 2.86268 0
M  V30 6239 H 601.088 0.613318 0.254434 0
M  V30 6240 H 603.618 2.03892 0.170113 0
M  V30 6241 H 603.628 3.46061 2.16115 0
M  V30 6242 H 602.303 3.99905 1.14233 0
M  V30 6243 H 600.88 2.76819 2.49852 0
M  V30 6244 N 603.065 -0.440357 1.51323 0
M  V30 6245 C 604.29 -1.21716 1.67928 0
M  V30 6246 C 604.715 -1.84328 0.374826 0
M  V30 6247 O 604.073 -1.68675 -0.664706 0
M  V30 6248 C 604.121 -2.27914 2.79442 0
M  V30 6249 O 603.225 -3.33325 2.42834 0
M  V30 6250 H 602.566 -0.35674 0.560029 0
M  V30 6251 H 605.096 -0.520417 1.97871 0
M  V30 6252 H 605.106 -2.72746 3.03436 0
M  V30 6253 H 603.781 -1.8172 3.741 0
M  V30 6254 H 602.358 -2.9399 2.294 0
M  V30 6255 N 604.543 -1.41418 -0.695603 0
M  V30 6256 C 605.771 -1.4413 -1.48439 0
M  V30 6257 C 606.186 -0.0465698 -1.88743 0
M  V30 6258 O 605.543 0.934117 -1.56782 0
M  V30 6259 C 605.594 -2.34998 -2.74696 0
M  V30 6260 O 605.315 -3.69043 -2.36091 0
M  V30 6261 C 606.816 -2.46513 -3.68438 0
M  V30 6262 H 604.036 -0.490905 -0.457442 0
M  V30 6263 H 606.58 -1.85702 -0.856454 0
M  V30 6264 H 604.735 -1.96735 -3.33728 0
M  V30 6265 H 605.149 -4.17505 -3.17474 0
M  V30 6266 H 606.623 -3.1426 -4.53811 0
M  V30 6267 H 607.1 -1.49638 -4.12922 0
M  V30 6268 H 607.706 -2.85412 -3.1531 0
M  V30 6269 N 606.021 0.929856 -1.27246 0
M  V30 6270 C 607.251 1.70895 -1.16096 0
M  V30 6271 C 607.659 1.87039 0.285122 0
M  V30 6272 O 607.002 1.38557 1.20614 0
M  V30 6273 C 607.064 3.12919 -1.7698 0
M  V30 6274 C 606.728 3.2012 -3.26148 0
M  V30 6275 C 607.725 3.02533 -4.22812 0
M  V30 6276 C 605.41 3.43148 -3.66817 0
M  V30 6277 C 607.404 3.07861 -5.58122 0
M  V30 6278 C 605.091 3.48109 -5.02258 0
M  V30 6279 C 606.089 3.30483 -5.97721 0
M  V30 6280 O 605.777 3.35175 -7.30694 0
M  V30 6281 H 605.509 0.54152 -0.404639 0
M  V30 6282 H 608.063 1.17342 -1.68582 0
M  V30 6283 H 606.293 3.67945 -1.18969 0
M  V30 6284 H 607.982 3.72787 -1.60576 0
M  V30 6285 H 608.748 2.84586 -3.92728 0
M  V30 6286 H 604.627 3.55918 -2.9299 0
M  V30 6287 H 608.171 2.94021 -6.32612 0
M  V30 6288 H 604.068 3.65579 -5.31998 0
M  V30 6289 H 604.836 3.51644 -7.39114 0
M  V30 6290 N 607.499 1.09233 1.13605 0
M  V30 6291 C 608.91 0.846839 1.6639 0
M  V30 6292 C 609.261 -0.625031 1.85978 0
M  V30 6293 O 608.386 -1.48173 1.57714 0
M  V30 6294 C 608.981 1.5307 3.0225 0
M  V30 6295 C 607.54 1.33223 3.52035 0
M  V30 6296 C 606.687 1.58806 2.27323 0
M  V30 6297 H 609.638 1.25175 0.975541 0
M  V30 6298 H 609.659 0.96267 3.68121 0
M  V30 6299 H 609.171 2.60192 2.87961 0
M  V30 6300 H 607.272 0.282091 3.71531 0
M  V30 6301 H 607.385 2.0657 4.32279 0
M  V30 6302 H 605.749 1.01007 2.33815 0
M  V30 6303 H 606.532 2.67153 2.15602 0
M  V30 6304 N 608.977 -1.30795 0.87923 0
M  V30 6305 C 610.388 -1.78535 0.546093 0
M  V30 6306 C 610.739 -1.72354 -0.937467 0
M  V30 6307 O 609.864 -1.2969 -1.73233 0
M  V30 6308 C 610.459 -3.24181 0.9845 0
M  V30 6309 C 609.018 -3.69779 0.702871 0
M  V30 6310 C 608.165 -2.51377 1.17068 0
M  V30 6311 H 611.116 -1.17746 1.06403 0
M  V30 6312 H 611.137 -3.79227 0.311045 0
M  V30 6313 H 610.649 -3.28647 2.06429 0
M  V30 6314 H 608.75 -3.70806 -0.365166 0
M  V30 6315 H 608.863 -4.61507 1.28639 0
M  V30 6316 H 607.227 -2.47768 0.590172 0
M  V30 6317 H 608.01 -2.58584 2.25808 0
M  V30 6318 N 610.455 -0.639598 -1.44038 0
M  V30 6319 C 611.866 -0.228866 -1.85292 0
M  V30 6320 C 612.217 1.22161 -1.53529 0
M  V30 6321 O 611.342 1.93064 -0.977518 0
M  V30 6322 C 611.937 -0.408592 -3.36327 0
M  V30 6323 C 610.496 -0.0522953 -3.76364 0
M  V30 6324 C 609.643 -0.717959 -2.67844 0
M  V30 6325 H 612.594 -0.844194 -1.34384 0
M  V30 6326 H 612.615 0.349968 -3.78887 0
M  V30 6327 H 612.127 -1.46435 -3.59414 0
M  V30 6328 H 610.228 1.0014 -3.58891 0
M  V30 6329 H 610.341 -0.468261 -4.76806 0
M  V30 6330 H 608.705 -0.152459 -2.54243 0
M  V30 6331 H 609.488 -1.77648 -2.93762 0
M  V30 6332 N 611.933 1.52934 -0.380664 0
M  V30 6333 C 613.158 2.06363 0.207157 0
M  V30 6334 C 613.583 1.25122 1.4045 0
M  V30 6335 O 612.941 0.274062 1.79217 0
M  V30 6336 C 612.989 3.56162 0.563996 0
M  V30 6337 O 612.093 3.77552 1.65917 0
M  V30 6338 H 611.434 0.663468 0.0265859 0
M  V30 6339 H 613.964 1.9719 -0.545635 0
M  V30 6340 H 613.974 3.99453 0.830752 0
M  V30 6341 H 612.649 4.14732 -0.311427 0
M  V30 6342 H 611.226 3.46154 1.3868 0
M  V30 6343 N 613.412 0.11024 1.57214 0
M  V30 6344 C 614.658 -0.544479 1.95977 0
M  V30 6345 C 615.013 -1.64845 0.992171 0
M  V30 6346 O 614.306 -1.91589 0.0206981 0
M  V30 6347 C 614.5 -1.13102 3.39032 0
M  V30 6348 C 614.329 -0.0854079 4.49619 0
M  V30 6349 C 613.099 0.343373 5.04132 0
M  V30 6350 C 615.297 0.692232 5.0962 0
M  V30 6351 N 613.279 1.37567 5.98288 0
M  V30 6352 C 614.65 1.57596 5.99636 0
M  V30 6353 C 616.705 0.744085 4.92309 0
M  V30 6354 C 615.408 2.50701 6.74197 0
M  V30 6355 C 617.434 1.6628 5.67543 0
M  V30 6356 C 616.796 2.53412 6.57238 0
M  V30 6357 H 612.895 -0.169124 0.763493 0
M  V30 6358 H 615.479 0.196326 1.93708 0
M  V30 6359 H 613.65 -1.84158 3.41965 0
M  V30 6360 H 615.382 -1.74934 3.64939 0
M  V30 6361 H 612.137 -0.0473277 4.73576 0
M  V30 6362 H 612.561 1.89048 6.50069 0
M  V30 6363 H 617.203 0.0845825 4.22715 0
M  V30 6364 H 614.921 3.17669 7.43043 0
M  V30 6365 H 618.507 1.70825 5.56156 0
M  V30 6366 H 617.387 3.23347 7.14434 0
M  V30 6367 N 614.89 -1.56749 -0.16351 0
M  V30 6368 C 616.138 -1.82074 -0.87713 0
M  V30 6369 C 616.459 -0.688503 -1.82441 0
M  V30 6370 O 615.729 0.291085 -1.93725 0
M  V30 6371 H 614.309 -0.671677 -0.326893 0
M  V30 6372 H 616.971 -1.9423 -0.161459 0
M  V30 6373 H 616.067 -2.76407 -1.44934 0
M  V30 6374 N 616.368 0.432326 -1.51554 0
M  V30 6375 C 617.593 1.20824 -1.68571 0
M  V30 6376 C 618.018 1.84126 -0.384596 0
M  V30 6377 O 617.376 1.69025 0.655751 0
M  V30 6378 C 617.424 2.26429 -2.80646 0
M  V30 6379 O 616.528 3.32032 -2.44598 0
M  V30 6380 H 615.869 0.353765 -0.561913 0
M  V30 6381 H 618.399 0.509916 -1.98144 0
M  V30 6382 H 618.409 2.71133 -3.04878 0
M  V30 6383 H 617.084 1.79733 -3.75058 0
M  V30 6384 H 615.661 2.92769 -2.30956 0
M  V30 6385 N 617.846 1.41785 0.688094 0
M  V30 6386 C 619.071 1.45117 1.48175 0
M  V30 6387 C 619.496 0.060129 1.88004 0
M  V30 6388 O 618.854 -0.938385 1.55126 0
M  V30 6389 C 618.902 2.37224 2.71583 0
M  V30 6390 O 618.006 1.83443 3.69354 0
M  V30 6391 H 617.347 0.492208 0.445676 0
M  V30 6392 H 619.877 1.86329 0.845145 0
M  V30 6393 H 619.887 2.53353 3.19806 0
M  V30 6394 H 618.562 3.38293 2.41931 0
M  V30 6395 H 617.139 1.76802 3.28322 0
M  V30 6396 N 619.324 -0.923095 1.27737 0
M  V30 6397 C 620.549 -1.71054 1.17283 0
M  V30 6398 C 620.974 -1.86208 -0.266153 0
M  V30 6399 O 620.332 -1.36545 -1.1927 0
M  V30 6400 C 620.38 -3.0854 1.86642 0
M  V30 6401 O 619.484 -3.95528 1.16752 0
M  V30 6402 H 618.825 -0.524136 0.407649 0
M  V30 6403 H 621.355 -1.15487 1.6889 0
M  V30 6404 H 621.365 -3.58828 1.94182 0
M  V30 6405 H 620.04 -2.96828 2.91317 0
M  V30 6406 H 618.617 -3.53967 1.17312 0
M  V30 6407 N 620.802 -1.09834 -1.13024 0
M  V30 6408 C 622.079 -0.749225 -1.80682 0
M  V30 6409 C 622.459 0.765171 -1.96744 0
M  V30 6410 O 621.807 1.68912 -1.53886 0
M  V30 6411 C 622.017 -1.49311 -3.15448 0
M  V30 6412 C 623.365 -1.66162 -3.90737 0
M  V30 6413 O 624.389 -1.45597 -3.25085 0
M  V30 6414 O 623.248 -2.00211 -5.08505 0
M  V30 6415 H 620.342 -0.269614 -0.781817 0
M  V30 6416 H 622.888 -1.20078 -1.19914 0
M  V30 6417 H 621.66 -2.52407 -2.99009 0
M  V30 6418 H 621.283 -1.034 -3.8392 0
M  V30 6419 N 622.28 1.30327 -0.886154 0
M  V30 6420 C 623.212 2.27079 -0.311072 0
M  V30 6421 C 624.225 1.53758 0.53502 0
M  V30 6422 O 625.414 1.74947 0.354378 0
M  V30 6423 C 622.514 3.33965 0.576228 0
M  V30 6424 C 621.687 4.36735 -0.241064 0
M  V30 6425 C 620.746 5.23028 0.576916 0
M  V30 6426 O 619.772 5.692 -0.000802231 0
M  V30 6427 N 620.974 5.49016 1.88579 0
M  V30 6428 H 623.739 2.77065 -1.14259 0
M  V30 6429 H 621.3 1.43519 -0.749258 0
M  V30 6430 H 623.292 3.88618 1.12953 0
M  V30 6431 H 621.862 2.839 1.30842 0
M  V30 6432 H 621.082 3.81932 -0.975805 0
M  V30 6433 H 622.37 5.02451 -0.801272 0
M  V30 6434 H 621.768 5.13288 2.37806 0
M  V30 6435 H 620.325 6.06539 2.38651 0
M  V30 6436 N 623.758 0.647228 1.43697 0
M  V30 6437 C 624.69 -0.0866232 2.29036 0
M  V30 6438 C 625.703 -0.793051 1.42178 0
M  V30 6439 O 626.892 -0.651807 1.66174 0
M  V30 6440 C 623.992 -1.14552 3.18953 0
M  V30 6441 C 623.165 -0.518422 4.34317 0
M  V30 6442 C 622.224 -1.4734 5.05151 0
M  V30 6443 O 621.25 -0.984312 5.60625 0
M  V30 6444 N 622.452 -2.8075 5.08094 0
M  V30 6445 H 625.217 0.645834 2.92659 0
M  V30 6446 H 622.778 0.489567 1.54321 0
M  V30 6447 H 624.77 -1.78505 3.63205 0
M  V30 6448 H 623.34 -1.78001 2.56971 0
M  V30 6449 H 622.56 0.300079 3.93056 0
M  V30 6450 H 623.848 -0.080401 5.08736 0
M  V30 6451 H 623.246 -3.23052 4.64386 0
M  V30 6452 H 621.803 -3.40022 5.56083 0
M  V30 6453 N 625.236 -1.5273 0.388769 0
M  V30 6454 C 626.647 -1.86505 -0.0853788 0
M  V30 6455 C 626.998 -1.30847 -1.46197 0
M  V30 6456 O 626.123 -0.639609 -2.06732 0
M  V30 6457 C 626.718 -3.38414 -0.161703 0
M  V30 6458 C 625.277 -3.71902 -0.580144 0
M  V30 6459 C 624.424 -2.76095 0.258218 0
M  V30 6460 H 627.375 -1.46647 0.606665 0
M  V30 6461 H 627.396 -3.67638 -0.980936 0
M  V30 6462 H 626.908 -3.78893 0.840333 0
M  V30 6463 H 625.009 -3.36992 -1.58957 0
M  V30 6464 H 625.122 -4.77902 -0.338663 0
M  V30 6465 H 623.486 -2.53195 -0.276432 0
M  V30 6466 H 624.269 -3.19411 1.25822 0
M  V30 6467 N 626.714 -0.118576 -1.57153 0
M  V30 6468 C 627.939 0.550582 -1.99958 0
M  V30 6469 C 628.364 1.59458 -0.997736 0
M  V30 6470 O 627.722 1.81274 0.0306269 0
M  V30 6471 C 627.77 1.15379 -3.41643 0
M  V30 6472 O 626.874 2.26932 -3.44348 0
M  V30 6473 H 626.215 0.137567 -0.649593 0
M  V30 6474 H 628.745 -0.206926 -2.03551 0
M  V30 6475 H 628.755 1.48942 -3.79843 0
M  V30 6476 H 627.43 0.389087 -4.14076 0
M  V30 6477 H 626.007 1.94812 -3.17967 0
M  V30 6478 N 628.193 1.56834 0.155195 0
M  V30 6479 C 629.609 1.51315 0.50755 0
M  V30 6480 C 629.809 0.825614 1.83809 0
M  V30 6481 O 628.865 0.39271 2.49427 0
M  V30 6482 C 630.178 2.96074 0.52542 0
M  V30 6483 C 631.726 3.06968 0.611505 0
M  V30 6484 C 632.201 4.53218 0.660115 0
M  V30 6485 N 633.692 4.5753 0.722564 0
M  V30 6486 C 634.427 5.68056 0.781023 0
M  V30 6487 N 633.923 6.88173 0.799327 0
M  V30 6488 N 635.716 5.56068 0.821278 0
M  V30 6489 H 627.867 1.9993 -0.717063 0
M  V30 6490 H 630.13 0.911507 -0.260496 0
M  V30 6491 H 629.836 3.49599 -0.383875 0
M  V30 6492 H 629.71 3.51587 1.36624 0
M  V30 6493 H 632.097 2.53468 1.51122 0
M  V30 6494 H 632.178 2.54513 -0.256306 0
M  V30 6495 H 631.822 5.07354 -0.23541 0
M  V30 6496 H 631.752 5.03447 1.5443 0
M  V30 6497 H 634.243 3.71054 0.716049 0
M  V30 6498 H 634.556 7.6816 0.845553 0
M  V30 6499 H 632.901 6.90751 0.767337 0
M  V30 6500 H 636.092 4.61142 0.804091 0
M  V30 6501 H 636.265 6.42223 0.863372 0
M  V30 6502 N 629.671 -0.424282 1.51781 0
M  V30 6503 C 630.917 -1.17434 1.6534 0
M  V30 6504 C 631.25 -1.90549 0.374806 0
M  V30 6505 O 630.525 -1.84145 -0.626179 0
M  V30 6506 C 630.808 -2.18093 2.86544 0
M  V30 6507 C 630.661 -1.48975 4.24413 0
M  V30 6508 C 631.98 -3.18934 3.03264 0
M  V30 6509 H 629.099 -0.425566 0.601716 0
M  V30 6510 H 631.741 -0.461921 1.84299 0
M  V30 6511 H 629.891 -2.78849 2.7051 0
M  V30 6512 H 631.563 -0.914551 4.52143 0
M  V30 6513 H 629.806 -0.791893 4.26511 0
M  V30 6514 H 630.477 -2.22347 5.05238 0
M  V30 6515 H 632.953 -2.68243 3.18096 0
M  V30 6516 H 631.829 -3.86645 3.89611 0
M  V30 6517 H 632.09 -3.85793 2.15908 0
M  V30 6518 N 631.149 -1.42148 -0.680565 0
M  V30 6519 C 632.374 -1.45901 -1.47403 0
M  V30 6520 C 632.799 -0.0700985 -1.87969 0
M  V30 6521 O 632.157 0.930145 -1.55621 0
M  V30 6522 C 632.205 -2.38661 -2.70321 0
M  V30 6523 O 631.309 -1.85399 -3.68376 0
M  V30 6524 H 630.65 -0.494565 -0.443059 0
M  V30 6525 H 633.18 -1.86774 -0.835251 0
M  V30 6526 H 633.19 -2.55046 -3.18458 0
M  V30 6527 H 631.865 -3.39571 -2.40134 0
M  V30 6528 H 630.442 -1.78541 -3.2738 0
M  V30 6529 N 632.627 0.916307 -1.28225 0
M  V30 6530 C 633.577 2.00488 -1.08574 0
M  V30 6531 C 634.561 1.60897 -0.0101874 0
M  V30 6532 O 635.753 1.75499 -0.230034 0
M  V30 6533 C 632.882 3.35076 -0.746943 0
M  V30 6534 C 631.968 3.81077 -1.86121 0
M  V30 6535 N 632.359 3.99475 -3.10247 0
M  V30 6536 C 630.657 4.10212 -1.75048 0
M  V30 6537 C 631.358 4.37965 -3.82834 0
M  V30 6538 N 630.334 4.4608 -3.10667 0
M  V30 6539 H 634.136 2.1276 -2.02757 0
M  V30 6540 H 631.65 1.10397 -1.19107 0
M  V30 6541 H 633.647 4.12743 -0.587252 0
M  V30 6542 H 632.307 3.2416 0.187146 0
M  V30 6543 H 633.318 3.85466 -3.45885 0
M  V30 6544 H 629.995 4.07947 -0.887999 0
M  V30 6545 H 631.385 4.60183 -4.89572 0
M  V30 6546 N 634.105 1.10431 1.1244 0
M  V30 6547 C 635.015 0.765502 2.21759 0
M  V30 6548 C 636.031 -0.236966 1.72379 0
M  V30 6549 O 637.207 -0.0757329 2.01258 0
M  V30 6550 C 634.272 0.202316 3.46109 0
M  V30 6551 C 633.333 1.26205 4.1033 0
M  V30 6552 C 632.566 0.725648 5.28744 0
M  V30 6553 O 632.789 -0.447942 5.68638 0
M  V30 6554 O 631.723 1.48555 5.83279 0
M  V30 6555 H 635.549 1.67801 2.53133 0
M  V30 6556 H 633.134 0.879443 1.20773 0
M  V30 6557 H 635.016 -0.107918 4.21262 0
M  V30 6558 H 633.691 -0.683052 3.16411 0
M  V30 6559 H 632.598 1.62514 3.36957 0
M  V30 6560 H 633.931 2.12044 4.44183 0
M  V30 6561 N 635.583 -1.29855 0.893053 0
M  V30 6562 C 636.515 -2.26911 0.32311 0
M  V30 6563 C 637.528 -1.54039 -0.526858 0
M  V30 6564 O 638.717 -1.75132 -0.345095 0
M  V30 6565 C 635.817 -3.34266 -0.558509 0
M  V30 6566 C 634.99 -4.36601 0.264222 0
M  V30 6567 C 634.049 -5.23326 -0.549171 0
M  V30 6568 O 633.075 -5.69192 0.0309883 0
M  V30 6569 N 634.277 -5.50008 -1.85664 0
M  V30 6570 H 637.042 -2.76455 1.15726 0
M  V30 6571 H 634.603 -1.4312 0.756859 0
M  V30 6572 H 636.595 -3.89211 -1.1089 0
M  V30 6573 H 635.165 -2.8459 -1.29334 0
M  V30 6574 H 634.385 -3.81409 0.996046 0
M  V30 6575 H 635.673 -5.02019 0.827906 0
M  V30 6576 H 635.071 -5.14542 -2.35081 0
M  V30 6577 H 633.628 -6.07796 -2.35431 0
M  V30 6578 N 637.061 -0.65484 -1.43351 0
M  V30 6579 C 638.308 -0.168892 -2.01794 0
M  V30 6580 C 638.636 1.2177 -1.51665 0
M  V30 6581 O 637.891 1.82717 -0.70092 0
M  V30 6582 C 638.19 -0.130424 -3.57162 0
M  V30 6583 C 637.856 -1.45898 -4.26643 0
M  V30 6584 C 636.518 -1.82279 -4.4534 0
M  V30 6585 C 638.87 -2.33485 -4.65976 0
M  V30 6586 C 636.198 -3.0591 -5.00635 0
M  V30 6587 C 638.55 -3.5641 -5.22642 0
M  V30 6588 C 637.214 -3.92985 -5.39555 0
M  V30 6589 H 636.484 -0.061802 -0.738418 0
M  V30 6590 H 639.131 -0.845869 -1.71806 0
M  V30 6591 H 637.436 0.630008 -3.86702 0
M  V30 6592 H 639.133 0.262465 -4.0014 0
M  V30 6593 H 635.723 -1.16591 -4.12437 0
M  V30 6594 H 639.907 -2.06668 -4.51223 0
M  V30 6595 H 635.163 -3.34295 -5.11915 0
M  V30 6596 H 639.337 -4.24495 -5.52066 0
M  V30 6597 H 636.964 -4.88862 -5.82167 0
M  V30 6598 N 638.539 1.52521 -0.396863 0
M  V30 6599 C 639.955 1.5953 -0.0471659 0
M  V30 6600 C 640.155 1.41044 1.43906 0
M  V30 6601 O 639.211 1.23122 2.20448 0
M  V30 6602 C 640.524 2.95972 -0.531113 0
M  V30 6603 C 642.072 3.09172 -0.488024 0
M  V30 6604 C 642.547 4.48075 -0.948281 0
M  V30 6605 N 644.038 4.54281 -0.9046 0
M  V30 6606 C 644.773 5.60007 -1.23205 0
M  V30 6607 N 644.269 6.73343 -1.63036 0
M  V30 6608 N 646.062 5.50151 -1.15282 0
M  V30 6609 H 638.213 1.62786 -1.36435 0
M  V30 6610 H 640.476 0.76514 -0.559701 0
M  V30 6611 H 640.182 3.14741 -1.56942 0
M  V30 6612 H 640.056 3.77143 0.0657922 0
M  V30 6613 H 642.443 2.90095 0.541211 0
M  V30 6614 H 642.524 2.29937 -1.12083 0
M  V30 6615 H 642.168 4.67894 -1.97578 0
M  V30 6616 H 642.098 5.25788 -0.292412 0
M  V30 6617 H 644.589 3.72918 -0.6116 0
M  V30 6618 H 644.902 7.49992 -1.86365 0
M  V30 6619 H 643.247 6.74655 -1.66929 0
M  V30 6620 H 646.438 4.6049 -0.840602 0
M  V30 6621 H 646.611 6.32444 -1.41133 0
M  V30 6622 N 640.017 0.126909 1.57088 0
M  V30 6623 C 640.98 -0.806097 2.14557 0
M  V30 6624 C 641.98 -1.18918 1.08236 0
M  V30 6625 O 643.17 -1.11339 1.33975 0
M  V30 6626 C 640.302 -2.09116 2.69227 0
M  V30 6627 H 641.495 -0.306522 2.98329 0
M  V30 6628 H 639.048 -0.122393 1.5582 0
M  V30 6629 H 639.783 -2.63486 1.89065 0
M  V30 6630 H 639.568 -1.82588 3.46993 0
M  V30 6631 H 641.058 -2.75794 3.13572 0
M  V30 6632 N 641.495 -1.56914 -0.146875 0
M  V30 6633 C 642.458 -1.97368 -1.16526 0
M  V30 6634 C 643.458 -0.860223 -1.35856 0
M  V30 6635 O 644.648 -1.12684 -1.32846 0
M  V30 6636 C 641.78 -2.28974 -2.52555 0
M  V30 6637 H 642.973 -2.88523 -0.818209 0
M  V30 6638 H 640.526 -1.5135 -0.390221 0
M  V30 6639 H 641.261 -1.40611 -2.92231 0
M  V30 6640 H 641.046 -3.10157 -2.39886 0
M  V30 6641 H 642.536 -2.61109 -3.25902 0
M  V30 6642 N 642.974 0.416227 -1.52004 0
M  V30 6643 C 643.904 1.51365 -1.77795 0
M  V30 6644 C 644.885 1.58059 -0.628601 0
M  V30 6645 O 646.07 1.73447 -0.873478 0
M  V30 6646 C 643.2 2.89256 -1.92219 0
M  V30 6647 C 642.154 2.97415 -3.0778 0
M  V30 6648 C 641.48 4.37492 -3.07417 0
M  V30 6649 C 642.78 2.69551 -4.47369 0
M  V30 6650 H 644.474 1.30033 -2.69688 0
M  V30 6651 H 642.02 0.624112 -1.29772 0
M  V30 6652 H 643.973 3.66008 -2.08845 0
M  V30 6653 H 642.697 3.11866 -0.969917 0
M  V30 6654 H 641.356 2.23107 -2.90893 0
M  V30 6655 H 641.004 4.571 -2.09925 0
M  V30 6656 H 640.704 4.43877 -3.85029 0
M  V30 6657 H 642.228 5.16188 -3.26162 0
M  V30 6658 H 643.642 3.36028 -4.64497 0
M  V30 6659 H 642.039 2.87321 -5.26846 0
M  V30 6660 H 643.109 1.65029 -4.55953 0
M  V30 6661 N 644.452 1.42507 0.673017 0
M  V30 6662 C 645.384 1.42074 1.79854 0
M  V30 6663 C 646.397 0.319569 1.59633 0
M  V30 6664 O 647.586 0.582769 1.68719 0
M  V30 6665 C 644.686 1.19886 3.16987 0
M  V30 6666 C 643.859 2.42471 3.64042 0
M  V30 6667 C 642.918 2.15802 4.79913 0
M  V30 6668 O 641.944 2.89015 4.90366 0
M  V30 6669 N 643.146 1.16225 5.68746 0
M  V30 6670 H 645.911 2.3909 1.8071 0
M  V30 6671 H 643.472 1.37409 0.856171 0
M  V30 6672 H 645.464 0.999591 3.92161 0
M  V30 6673 H 644.034 0.313879 3.1102 0
M  V30 6674 H 643.254 2.77954 2.79526 0
M  V30 6675 H 644.542 3.24097 3.92223 0
M  V30 6676 H 643.94 0.556756 5.62954 0
M  V30 6677 H 642.497 1.02285 6.43724 0
M  V30 6678 N 645.93 -0.909495 1.28709 0
M  V30 6679 C 646.86 -2.0291 1.15542 0
M  V30 6680 C 647.841 -1.7002 0.0521017 0
M  V30 6681 O 649.026 -1.92835 0.229849 0
M  V30 6682 C 646.156 -3.37458 0.820935 0
M  V30 6683 C 645.11 -3.84524 1.87949 0
M  V30 6684 C 644.436 -5.16086 1.39854 0
M  V30 6685 C 645.736 -4.05918 3.28676 0
M  V30 6686 H 647.43 -2.14183 2.09203 0
M  V30 6687 H 644.976 -1.02913 1.00722 0
M  V30 6688 H 646.929 -4.1528 0.715571 0
M  V30 6689 H 645.653 -3.26249 -0.151374 0
M  V30 6690 H 644.312 -3.08911 1.97408 0
M  V30 6691 H 643.96 -5.01284 0.41518 0
M  V30 6692 H 643.66 -5.48547 2.1064 0
M  V30 6693 H 645.184 -5.96459 1.30649 0
M  V30 6694 H 646.598 -4.74252 3.22115 0
M  V30 6695 H 644.995 -4.49717 3.97334 0
M  V30 6696 H 646.065 -3.10583 3.72379 0
M  V30 6697 N 647.408 -1.11026 -1.11852 0
M  V30 6698 C 648.654 -0.857729 -1.83768 0
M  V30 6699 C 648.987 0.615143 -1.842 0
M  V30 6700 O 648.262 1.45391 -1.29196 0
M  V30 6701 C 648.545 -1.41453 -3.31154 0
M  V30 6702 C 648.398 -2.95471 -3.39142 0
M  V30 6703 C 649.717 -1.0619 -4.27097 0
M  V30 6704 H 646.836 -0.313044 -0.667212 0
M  V30 6705 H 649.478 -1.37443 -1.31185 0
M  V30 6706 H 647.628 -0.975052 -3.76065 0
M  V30 6707 H 649.3 -3.4799 -3.02821 0
M  V30 6708 H 647.543 -3.31759 -2.79497 0
M  V30 6709 H 648.214 -3.29515 -4.42859 0
M  V30 6710 H 650.69 -1.44122 -3.90344 0
M  V30 6711 H 649.566 -1.47832 -5.28618 0
M  V30 6712 H 649.827 0.0278912 -4.42091 0
M  V30 6713 N 648.886 1.2938 -0.899927 0
M  V30 6714 C 650.132 1.9584 -0.526742 0
M  V30 6715 C 650.465 1.70774 0.924651 0
M  V30 6716 O 649.74 1.02084 1.65557 0
M  V30 6717 C 650.023 3.50638 -0.820062 0
M  V30 6718 C 649.876 3.85161 -2.32317 0
M  V30 6719 C 651.195 4.3903 -0.30671 0
M  V30 6720 H 648.314 0.711322 -0.192848 0
M  V30 6721 H 650.956 1.52992 -1.12665 0
M  V30 6722 H 649.106 3.87265 -0.309491 0
M  V30 6723 H 650.778 3.58477 -2.9033 0
M  V30 6724 H 649.021 3.32696 -2.78381 0
M  V30 6725 H 649.692 4.93204 -2.47898 0
M  V30 6726 H 652.168 4.09396 -0.743908 0
M  V30 6727 H 651.044 5.46226 -0.541144 0
M  V30 6728 H 651.305 4.34937 0.792588 0
M  V30 6729 N 650.364 0.662433 1.43002 0
M  V30 6730 C 651.589 0.186003 2.06564 0
M  V30 6731 C 652.014 -1.14314 1.49379 0
M  V30 6732 O 651.372 -1.70824 0.607346 0
M  V30 6733 C 651.42 0.118269 3.60406 0
M  V30 6734 O 650.524 -0.916859 4.02079 0
M  V30 6735 H 649.865 0.0990981 0.656563 0
M  V30 6736 H 652.395 0.907958 1.8335 0
M  V30 6737 H 652.405 -0.0619981 4.07953 0
M  V30 6738 H 651.08 1.08849 4.01403 0
M  V30 6739 H 649.657 -0.708635 3.66105 0
M  V30 6740 N 651.842 -1.52309 0.404946 0
M  V30 6741 C 653.253 -1.86585 -0.0655926 0
M  V30 6742 C 653.604 -1.3239 -1.44801 0
M  V30 6743 O 652.729 -0.6615 -2.06042 0
M  V30 6744 C 653.324 -3.38566 -0.125801 0
M  V30 6745 C 651.883 -3.72497 -0.540666 0
M  V30 6746 C 651.03 -2.75806 0.287487 0
M  V30 6747 H 653.981 -1.45995 0.622185 0
M  V30 6748 H 654.002 -3.68658 -0.941888 0
M  V30 6749 H 653.514 -3.77981 0.880473 0
M  V30 6750 H 651.615 -3.38659 -1.55373 0
M  V30 6751 H 651.728 -4.78234 -0.287956 0
M  V30 6752 H 650.092 -2.53474 -0.249561 0
M  V30 6753 H 650.875 -3.18059 1.29203 0
M  V30 6754 N 653.32 -0.135238 -1.57019 0
M  V30 6755 C 654.568 0.51777 -1.95355 0
M  V30 6756 C 654.889 1.6617 -1.02042 0
M  V30 6757 O 654.159 1.95738 -0.0797343 0
M  V30 6758 H 652.739 0.194264 -0.721298 0
M  V30 6759 H 655.401 -0.207983 -1.93787 0
M  V30 6760 H 654.497 0.901675 -2.98791 0
M  V30 6761 N 654.798 1.5699 0.138552 0
M  V30 6762 C 656.075 1.74741 0.87891 0
M  V30 6763 C 656.455 0.705522 1.98961 0
M  V30 6764 O 655.803 -0.274066 2.2685 0
M  V30 6765 C 656.013 3.1909 1.4136 0
M  V30 6766 C 657.361 3.81023 1.87368 0
M  V30 6767 O 658.385 3.22571 1.51084 0
M  V30 6768 O 657.244 4.83722 2.54312 0
M  V30 6769 H 654.338 0.714781 0.415953 0
M  V30 6770 H 656.884 1.69248 0.123817 0
M  V30 6771 H 655.656 3.86424 0.61579 0
M  V30 6772 H 655.279 3.29043 2.23196 0
M  V30 6773 N 656.276 -0.40816 1.52223 0
M  V30 6774 C 657.687 -0.986929 1.58482 0
M  V30 6775 C 658.038 -1.91521 0.425917 0
M  V30 6776 O 657.163 -2.11593 -0.453593 0
M  V30 6777 C 657.758 -1.7967 2.87235 0
M  V30 6778 C 656.317 -2.32549 2.9597 0
M  V30 6779 C 655.464 -1.12558 2.53428 0
M  V30 6780 H 658.415 -0.188362 1.57578 0
M  V30 6781 H 658.436 -2.65417 2.72642 0
M  V30 6782 H 657.948 -1.12082 3.71563 0
M  V30 6783 H 656.049 -3.03505 2.16137 0
M  V30 6784 H 656.162 -2.63348 4.00231 0
M  V30 6785 H 654.526 -1.47984 2.07299 0
M  V30 6786 H 655.309 -0.465351 3.40131 0
M  V30 6787 N 657.755 -1.42862 -0.66545 0
M  V30 6788 C 659.171 -1.25993 -0.979687 0
M  V30 6789 C 659.371 -0.170831 -2.00775 0
M  V30 6790 O 658.427 0.454827 -2.4837 0
M  V30 6791 C 659.74 -2.62005 -1.47559 0
M  V30 6792 C 661.288 -2.69437 -1.59288 0
M  V30 6793 C 661.763 -4.05838 -2.12272 0
M  V30 6794 N 663.254 -4.0784 -2.19592 0
M  V30 6795 C 663.989 -5.10205 -2.61684 0
M  V30 6796 N 663.485 -6.22949 -3.03161 0
M  V30 6797 N 665.278 -4.9756 -2.61516 0
M  V30 6798 H 657.429 -2.12395 0.0150493 0
M  V30 6799 H 659.692 -0.946355 -0.0558187 0
M  V30 6800 H 659.398 -3.42605 -0.794654 0
M  V30 6801 H 659.272 -2.86566 -2.45275 0
M  V30 6802 H 661.659 -1.89178 -2.26486 0
M  V30 6803 H 661.74 -2.48655 -0.600374 0
M  V30 6804 H 661.384 -4.86559 -1.4568 0
M  V30 6805 H 661.314 -4.23977 -3.12331 0
M  V30 6806 H 663.805 -3.26452 -1.90361 0
M  V30 6807 H 664.118 -6.96899 -3.33993 0
M  V30 6808 H 662.463 -6.2644 -3.00995 0
M  V30 6809 H 665.654 -4.08551 -2.28481 0
M  V30 6810 H 665.827 -5.77468 -2.93999 0
M  V30 6811 N 659.233 0.902656 -1.29189 0
M  V30 6812 C 660.143 2.03946 -1.15944 0
M  V30 6813 C 661.159 1.738 -0.0833803 0
M  V30 6814 O 662.335 1.9923 -0.29487 0
M  V30 6815 C 659.4 3.36519 -0.834006 0
M  V30 6816 C 658.461 3.80203 -1.9936 0
M  V30 6817 C 657.694 5.06449 -1.68359 0
M  V30 6818 O 657.917 5.67202 -0.603141 0
M  V30 6819 O 656.851 5.46114 -2.53067 0
M  V30 6820 H 660.677 2.18043 -2.11403 0
M  V30 6821 H 658.262 1.02584 -1.08613 0
M  V30 6822 H 660.144 4.16089 -0.666949 0
M  V30 6823 H 658.819 3.23573 0.0908245 0
M  V30 6824 H 657.726 3.01413 -2.21588 0
M  V30 6825 H 659.059 3.97729 -2.89952 0
M  V30 6826 N 660.711 1.11618 1.11262 0
M  V30 6827 C 661.941 0.88745 1.86569 0
M  V30 6828 C 662.349 -0.56636 1.80524 0
M  V30 6829 O 661.692 -1.40289 1.18594 0
M  V30 6830 C 661.754 1.27313 3.36202 0
M  V30 6831 C 661.418 2.73649 3.66013 0
M  V30 6832 C 662.415 3.71863 3.63337 0
M  V30 6833 C 660.1 3.10342 3.9496 0
M  V30 6834 C 662.094 5.04788 3.89188 0
M  V30 6835 C 659.781 4.43451 4.20469 0
M  V30 6836 C 660.779 5.40484 4.17572 0
M  V30 6837 O 660.467 6.71195 4.42439 0
M  V30 6838 H 660.199 0.317543 0.596777 0
M  V30 6839 H 662.753 1.48768 1.41624 0
M  V30 6840 H 660.983 0.616062 3.81761 0
M  V30 6841 H 662.672 1.01991 3.92877 0
M  V30 6842 H 663.438 3.44861 3.41022 0
M  V30 6843 H 659.317 2.35431 3.9635 0
M  V30 6844 H 662.861 5.80516 3.86842 0
M  V30 6845 H 658.758 4.70187 4.42261 0
M  V30 6846 H 659.526 6.77012 4.59997 0
M  V30 6847 N 662.189 -1.289 0.906776 0
M  V30 6848 C 663.119 -2.29932 0.406659 0
M  V30 6849 C 664.1 -1.6189 -0.522061 0
M  V30 6850 O 665.285 -1.8935 -0.431283 0
M  V30 6851 C 662.415 -3.45425 -0.360366 0
M  V30 6852 C 661.369 -4.25316 0.478574 0
M  V30 6853 C 660.695 -5.33076 -0.416373 0
M  V30 6854 C 661.995 -4.92739 1.7322 0
M  V30 6855 H 663.689 -2.72013 1.25097 0
M  V30 6856 H 661.235 -1.30768 0.602977 0
M  V30 6857 H 663.188 -4.15186 -0.721029 0
M  V30 6858 H 661.912 -3.02206 -1.23852 0
M  V30 6859 H 660.571 -3.57273 0.821662 0
M  V30 6860 H 660.219 -4.86101 -1.29287 0
M  V30 6861 H 659.919 -5.8743 0.141309 0
M  V30 6862 H 661.443 -6.05686 -0.773072 0
M  V30 6863 H 662.857 -5.54898 1.44086 0
M  V30 6864 H 661.254 -5.57057 2.23175 0
M  V30 6865 H 662.324 -4.17625 2.46408 0
M  V30 6866 N 663.667 -0.670007 -1.42649 0
M  V30 6867 C 664.63 0.00204659 -2.292 0
M  V30 6868 C 665.63 0.733817 -1.4308 0
M  V30 6869 O 666.82 0.57254 -1.64522 0
M  V30 6870 C 663.952 1.01359 -3.25483 0
M  V30 6871 H 665.145 -0.759696 -2.90118 0
M  V30 6872 H 662.698 -0.432105 -1.50208 0
M  V30 6873 H 663.433 1.80399 -2.69493 0
M  V30 6874 H 663.218 0.492323 -3.88997 0
M  V30 6875 H 664.708 1.4824 -3.90403 0
M  V30 6876 N 665.145 1.52092 -0.413018 0
M  V30 6877 C 666.093 2.28681 0.425199 0
M  V30 6878 C 667.087 1.3353 1.04241 0
M  V30 6879 O 668.293 1.50973 0.980166 0
M  V30 6880 H 664.668 0.735661 0.155906 0
M  V30 6881 H 666.639 2.97418 -0.241926 0
M  V30 6882 C 665.388 3.1235 1.5275 0
M  V30 6883 H 664.711 3.85439 1.06191 0
M  V30 6884 H 666.151 3.69038 2.08774 0
M  V30 6885 C 664.61 2.26161 2.49706 0
M  V30 6886 O 665.14 1.90452 3.53682 0
M  V30 6887 N 663.346 1.89854 2.20008 0
M  V30 6888 H 662.893 2.19092 1.35486 0
M  V30 6889 H 662.851 1.3248 2.85125 0
M  V30 6890 N 666.623 0.143563 1.56945 0
M  V30 6891 C 667.87 -0.508407 1.96014 0
M  V30 6892 C 668.198 -1.65099 1.02824 0
M  V30 6893 O 667.453 -1.95618 0.0567764 0
M  V30 6894 C 667.752 -1.05885 3.41355 0
M  V30 6895 C 667.418 -0.0350809 4.50886 0
M  V30 6896 C 666.08 0.246362 4.80569 0
M  V30 6897 C 668.432 0.661282 5.16988 0
M  V30 6898 C 665.76 1.23003 5.73661 0
M  V30 6899 C 668.112 1.63375 6.11139 0
M  V30 6900 C 666.776 1.92292 6.39203 0
M  V30 6901 H 666.046 -0.186039 0.717266 0
M  V30 6902 H 668.693 0.229667 1.90118 0
M  V30 6903 H 666.998 -1.87419 3.44066 0
M  V30 6904 H 668.695 -1.57183 3.6891 0
M  V30 6905 H 665.285 -0.264622 4.27782 0
M  V30 6906 H 669.469 0.457038 4.94191 0
M  V30 6907 H 664.725 1.46056 5.93698 0
M  V30 6908 H 668.899 2.17887 6.61436 0
M  V30 6909 H 666.526 2.68666 7.11142 0
M  V30 6910 N 668.101 -1.57061 -0.130224 0
M  V30 6911 C 669.35 -1.83446 -0.838488 0
M  V30 6912 C 669.663 -0.727468 -1.81569 0
M  V30 6913 O 670.869 -0.877394 -2.56932 0
M  V30 6914 C 669.325 -3.25201 -1.54182 0
M  V30 6915 C 668.933 -4.4388 -0.606178 0
M  V30 6916 C 670.677 -3.60844 -2.23588 0
M  V30 6917 C 668.584 -5.76661 -1.31209 0
M  V30 6918 H 667.514 -0.684185 -0.316871 0
M  V30 6919 H 670.165 -1.83273 -0.0912059 0
M  V30 6920 H 668.547 -3.1981 -2.33533 0
M  V30 6921 H 669.721 -4.60545 0.153308 0
M  V30 6922 H 668.036 -4.16395 -0.0196705 0
M  V30 6923 H 670.633 -4.57313 -2.77072 0
M  V30 6924 H 670.976 -2.87724 -3.00867 0
M  V30 6925 H 671.509 -3.67971 -1.51137 0
M  V30 6926 H 668.248 -6.52922 -0.580823 0
M  V30 6927 H 667.768 -5.63902 -2.04387 0
M  V30 6928 H 669.447 -6.20035 -1.8484 0
M  V30 6929 N 669.579 0.400081 -1.52437 0
M  V30 6930 C 670.526 1.48803 -1.76426 0
M  V30 6931 C 671.496 1.5461 -0.607032 0
M  V30 6932 O 672.681 1.71041 -0.845563 0
M  V30 6933 C 669.821 2.86156 -1.92896 0
M  V30 6934 C 668.934 2.89587 -3.20567 0
M  V30 6935 C 668.069 4.18296 -3.27417 0
M  V30 6936 C 667.108 4.15736 -4.49255 0
M  V30 6937 N 666.245 5.36032 -4.53447 0
M  V30 6938 H 671.085 1.27649 -2.69276 0
M  V30 6939 H 668.622 0.619451 -1.33421 0
M  V30 6940 H 670.58 3.65901 -2.00429 0
M  V30 6941 H 669.21 3.05785 -1.03418 0
M  V30 6942 H 668.262 2.02278 -3.22161 0
M  V30 6943 H 669.574 2.83562 -4.10358 0
M  V30 6944 H 668.728 5.06439 -3.34072 0
M  V30 6945 H 667.467 4.27028 -2.35581 0
M  V30 6946 H 666.472 3.25982 -4.42737 0
M  V30 6947 H 667.697 4.08636 -5.42396 0
M  V30 6948 H 665.643 5.45415 -3.64498 0
M  V30 6949 H 665.56 5.32038 -5.37096 0
M  V30 6950 H 666.828 6.26104 -4.64343 0
M  V30 6951 N 671.057 1.43213 0.657864 0
M  V30 6952 C 672.306 1.43871 1.41365 0
M  V30 6953 C 672.619 0.064898 1.95492 0
M  V30 6954 O 673.825 -0.0510796 2.71452 0
M  V30 6955 C 672.281 2.53158 2.55811 0
M  V30 6956 C 671.889 3.96624 2.08311 0
M  V30 6957 C 673.633 2.63004 3.3321 0
M  V30 6958 C 671.54 4.97385 3.1994 0
M  V30 6959 H 670.47 0.535174 0.531136 0
M  V30 6960 H 673.121 1.69185 0.710543 0
M  V30 6961 H 671.503 2.21037 3.2857 0
M  V30 6962 H 672.677 4.38182 1.42593 0
M  V30 6963 H 670.992 3.90781 1.43804 0
M  V30 6964 H 673.589 3.3546 4.16378 0
M  V30 6965 H 673.932 1.67918 3.80932 0
M  V30 6966 H 674.465 2.94403 2.67529 0
M  V30 6967 H 671.204 5.94007 2.77192 0
M  V30 6968 H 670.724 4.60444 3.84385 0
M  V30 6969 H 672.403 5.19877 3.85145 0
M  V30 6970 N 672.536 -0.895792 1.29666 0
M  V30 6971 C 673.784 -1.64339 1.17631 0
M  V30 6972 C 674.105 -1.93099 -0.271643 0
M  V30 6973 O 673.375 -1.55981 -1.18518 0
M  V30 6974 H 671.955 -0.609162 0.432354 0
M  V30 6975 H 674.617 -1.07389 1.62646 0
M  V30 6976 H 673.713 -2.59815 1.72924 0
M  V30 6977 N 674.014 -1.12206 -1.10668 0
M  V30 6978 C 674.924 -0.800686 -2.20513 0
M  V30 6979 C 675.94 0.209512 -1.72734 0
M  V30 6980 O 677.116 0.043705 -2.01353 0
M  V30 6981 C 674.181 -0.257353 -3.45744 0
M  V30 6982 C 673.242 -1.32718 -4.0827 0
M  V30 6983 C 672.475 -0.809674 -5.27522 0
M  V30 6984 O 672.698 0.35742 -5.69279 0
M  V30 6985 O 671.632 -1.57816 -5.80842 0
M  V30 6986 H 675.458 -1.71807 -2.50432 0
M  V30 6987 H 673.043 -0.898546 -1.19359 0
M  V30 6988 H 674.925 0.0408849 -4.2138 0
M  V30 6989 H 673.6 0.632627 -3.17458 0
M  V30 6990 H 672.507 -1.67855 -3.34329 0
M  V30 6991 H 673.84 -2.19083 -4.40753 0
M  V30 6992 N 675.492 1.28418 -0.913599 0
M  V30 6993 C 676.74 1.94596 -0.545594 0
M  V30 6994 C 677.061 1.7227 0.913668 0
M  V30 6995 O 676.331 1.06233 1.64595 0
M  V30 6996 H 674.911 0.720065 -0.198783 0
M  V30 6997 H 677.573 1.56404 -1.16292 0
M  V30 6998 H 676.669 3.03202 -0.739911 0
M  V30 6999 N 676.97 0.677563 1.42291 0
M  V30 7000 C 678.195 0.207901 2.06355 0
M  V30 7001 C 678.62 -1.12723 1.50583 0
M  V30 7002 O 677.978 -1.70171 0.62543 0
M  V30 7003 C 678.026 0.156489 3.6026 0
M  V30 7004 O 677.13 -0.874162 4.03029 0
M  V30 7005 H 676.471 0.106056 0.655475 0
M  V30 7006 H 679.001 0.927354 1.82377 0
M  V30 7007 H 679.011 -0.0187258 4.07996 0
M  V30 7008 H 677.686 1.13101 4.00226 0
M  V30 7009 H 676.263 -0.669764 3.66836 0
M  V30 7010 N 678.448 -1.51871 0.421078 0
M  V30 7011 C 679.676 -2.06356 -0.14994 0
M  V30 7012 C 680.091 -1.29006 -1.37851 0
M  V30 7013 O 679.448 -0.345139 -1.79207 0
M  V30 7014 C 679.499 -3.58185 -0.488454 0
M  V30 7015 O 679.22 -4.32611 0.691341 0
M  V30 7016 C 680.721 -4.29129 -1.11191 0
M  V30 7017 H 677.941 -0.67083 -0.0151186 0
M  V30 7018 H 680.485 -1.95638 0.595476 0
M  V30 7019 H 678.64 -3.68871 -1.18376 0
M  V30 7020 H 679.054 -5.22927 0.405906 0
M  V30 7021 H 680.528 -5.36501 -1.29889 0
M  V30 7022 H 681.005 -3.86371 -2.0884 0
M  V30 7023 H 681.611 -4.22843 -0.456458 0
M  V30 7024 N 679.926 -0.151884 -1.56866 0
M  V30 7025 C 681.174 0.497021 -1.95893 0
M  V30 7026 C 681.495 1.65078 -1.03799 0
M  V30 7027 O 680.765 1.95642 -0.10049 0
M  V30 7028 H 679.345 0.186603 -0.723318 0
M  V30 7029 H 682.007 -0.228525 -1.93556 0
M  V30 7030 H 681.103 0.869933 -2.99731 0
M  V30 7031 N 681.404 1.57128 0.121893 0
M  V30 7032 C 682.653 1.83888 0.828748 0
M  V30 7033 C 682.966 0.737087 1.81181 0
M  V30 7034 O 684.172 0.891007 2.56463 0
M  V30 7035 C 682.628 3.26014 1.52455 0
M  V30 7036 C 682.236 4.44195 0.58263 0
M  V30 7037 C 683.98 3.62025 2.21671 0
M  V30 7038 C 681.887 5.77349 1.28149 0
M  V30 7039 H 680.817 0.685856 0.313238 0
M  V30 7040 H 683.468 1.83319 0.0814851 0
M  V30 7041 H 681.85 3.21044 2.31834 0
M  V30 7042 H 683.024 4.60457 -0.177729 0
M  V30 7043 H 681.339 4.164 -0.00241228 0
M  V30 7044 H 683.936 4.58776 2.74643 0
M  V30 7045 H 684.279 2.89315 2.99337 0
M  V30 7046 H 684.812 3.68767 1.49184 0
M  V30 7047 H 681.551 6.53221 0.546189 0
M  V30 7048 H 681.071 5.64978 2.01394 0
M  V30 7049 H 682.75 6.21006 1.81549 0
M  V30 7050 N 682.882 -0.391992 1.52647 0
M  V30 7051 C 684.128 -1.139 1.67793 0
M  V30 7052 C 684.461 -1.89711 0.41514 0
M  V30 7053 O 683.736 -1.85431 -0.586979 0
M  V30 7054 C 684.019 -2.11966 2.91105 0
M  V30 7055 C 683.872 -1.39939 4.27478 0
M  V30 7056 C 685.191 -3.1243 3.09961 0
M  V30 7057 H 682.31 -0.412707 0.610608 0
M  V30 7058 H 684.952 -0.422725 1.85238 0
M  V30 7059 H 683.102 -2.73048 2.76364 0
M  V30 7060 H 684.774 -0.818439 4.53982 0
M  V30 7061 H 683.017 -0.701246 4.28095 0
M  V30 7062 H 683.688 -2.1158 5.09841 0
M  V30 7063 H 686.164 -2.61435 3.23714 0
M  V30 7064 H 685.04 -3.78294 3.97725 0
M  V30 7065 H 685.301 -3.81127 2.24042 0
M  V30 7066 N 684.36 -1.4356 -0.65026 0
M  V30 7067 C 685.6 -1.46839 -1.42188 0
M  V30 7068 C 685.964 -0.0911433 -1.91784 0
M  V30 7069 O 687.165 0.00137545 -2.688 0
M  V30 7070 C 685.436 -2.48411 -2.56957 0
M  V30 7071 S 686.995 -2.70589 -3.45438 0
M  V30 7072 H 683.813 -0.519596 -0.485325 0
M  V30 7073 H 686.415 -1.80347 -0.75466 0
M  V30 7074 H 685.119 -3.47209 -2.18801 0
M  V30 7075 H 684.65 -2.16411 -3.28527 0
M  V30 7076 H 686.665 -2.00738 -4.53782 0
M  V30 7077 N 685.838 0.888903 -1.30139 0
M  V30 7078 C 687.087 1.63507 -1.18103 0
M  V30 7079 C 687.4 1.93808 0.264141 0
M  V30 7080 O 688.606 2.66744 0.505966 0
M  V30 7081 C 687.062 2.94673 -2.0663 0
M  V30 7082 C 686.67 2.71926 -3.56034 0
M  V30 7083 C 688.414 3.72626 -2.03346 0
M  V30 7084 C 686.321 3.98884 -4.3663 0
M  V30 7085 H 685.251 0.613426 -0.438435 0
M  V30 7086 H 687.902 0.984427 -1.54859 0
M  V30 7087 H 686.284 3.61009 -1.62754 0
M  V30 7088 H 687.458 2.14116 -4.08033 0
M  V30 7089 H 685.773 2.07353 -3.61101 0
M  V30 7090 H 688.37 4.66775 -2.60816 0
M  V30 7091 H 688.713 4.03712 -1.016 0
M  V30 7092 H 689.246 3.13147 -2.45324 0
M  V30 7093 H 685.985 3.72959 -5.39056 0
M  V30 7094 H 685.505 4.56214 -3.89396 0
M  V30 7095 H 687.184 4.66938 -4.47859 0
M  V30 7096 N 687.317 1.12792 1.10072 0
M  V30 7097 C 688.28 0.802264 2.14701 0
M  V30 7098 C 689.28 -0.18515 1.59731 0
M  V30 7099 O 690.47 0.041109 1.74151 0
M  V30 7100 C 687.602 0.19285 3.40354 0
M  V30 7101 H 688.795 1.72932 2.45019 0
M  V30 7102 H 686.348 0.931662 1.25498 0
M  V30 7103 H 687.083 -0.743748 3.15656 0
M  V30 7104 H 686.868 0.903827 3.81541 0
M  V30 7105 H 688.358 -0.0183704 4.17596 0
M  V30 7106 N 688.795 -1.27931 0.920396 0
M  V30 7107 C 690.023 -1.98805 0.573087 0
M  V30 7108 C 690.438 -1.68724 -0.847201 0
M  V30 7109 O 689.795 -0.943699 -1.56207 0
M  V30 7110 C 689.846 -3.52971 0.780633 0
M  V30 7111 O 689.567 -3.81994 2.14504 0
M  V30 7112 C 691.068 -4.411 0.44105 0
M  V30 7113 H 688.288 -0.634651 0.21785 0
M  V30 7114 H 690.832 -1.62965 1.23542 0
M  V30 7115 H 688.987 -3.87048 0.165204 0
M  V30 7116 H 689.401 -4.76609 2.18962 0
M  V30 7117 H 690.875 -5.48312 0.637006 0
M  V30 7118 H 691.352 -4.34758 -0.62306 0
M  V30 7119 H 691.958 -4.12532 1.0343 0
M  V30 7120 N 690.273 -0.685099 -1.4193 0
M  V30 7121 C 691.183 -0.013404 -2.34596 0
M  V30 7122 C 692.199 0.777589 -1.55658 0
M  V30 7123 O 693.375 0.717553 -1.88184 0
M  V30 7124 C 690.44 0.919031 -3.34297 0
M  V30 7125 C 689.501 0.121417 -4.29128 0
M  V30 7126 C 688.734 1.00944 -5.24067 0
M  V30 7127 O 688.957 2.24898 -5.24192 0
M  V30 7128 O 687.891 0.464724 -6.00103 0
M  V30 7129 H 691.717 -0.776978 -2.93593 0
M  V30 7130 H 689.302 -0.445379 -1.42607 0
M  V30 7131 H 691.184 1.45402 -3.9552 0
M  V30 7132 H 689.859 1.66228 -2.77759 0
M  V30 7133 H 688.766 -0.45792 -3.71287 0
M  V30 7134 H 690.099 -0.582937 -4.88736 0
M  V30 7135 N 691.751 1.51645 -0.429126 0
M  V30 7136 C 692.698 2.27542 0.386446 0
M  V30 7137 C 693.668 1.30786 1.02393 0
M  V30 7138 O 694.853 1.59678 1.0444 0
M  V30 7139 C 691.993 3.11457 1.48623 0
M  V30 7140 C 691.106 4.23196 0.867691 0
M  V30 7141 C 690.241 4.94435 1.94183 0
M  V30 7142 C 689.28 5.98108 1.30129 0
M  V30 7143 N 688.417 6.62786 2.31644 0
M  V30 7144 H 693.257 2.968 -0.267155 0
M  V30 7145 H 690.794 1.46397 -0.143591 0
M  V30 7146 H 692.752 3.58429 2.13506 0
M  V30 7147 H 691.382 2.44329 2.10957 0
M  V30 7148 H 690.434 3.80248 0.107373 0
M  V30 7149 H 691.746 4.97499 0.35997 0
M  V30 7150 H 690.9 5.44914 2.66747 0
M  V30 7151 H 689.639 4.19744 2.48326 0
M  V30 7152 H 688.644 5.4693 0.561082 0
M  V30 7153 H 689.869 6.74751 0.767303 0
M  V30 7154 H 687.815 5.90913 2.84883 0
M  V30 7155 H 687.732 7.32828 1.85741 0
M  V30 7156 H 689 7.17897 3.03717 0
M  V30 7157 N 693.229 0.160201 1.56784 0
M  V30 7158 C 694.179 -0.786461 2.14007 0
M  V30 7159 C 695.163 -1.20046 1.07134 0
M  V30 7160 O 696.355 -1.16468 1.33283 0
M  V30 7161 C 693.484 -2.02024 2.77563 0
M  V30 7162 C 692.57 -1.62874 3.91578 0
M  V30 7163 N 692.961 -0.946176 4.96871 0
M  V30 7164 C 691.259 -1.92054 4.02531 0
M  V30 7165 C 691.96 -0.755084 5.76778 0
M  V30 7166 N 690.936 -1.29307 5.27997 0
M  V30 7167 H 694.738 -0.255879 2.92784 0
M  V30 7168 H 692.252 -0.0408778 1.62349 0
M  V30 7169 H 694.249 -2.70855 3.16928 0
M  V30 7170 H 692.909 -2.55587 2.00263 0
M  V30 7171 H 693.92 -0.605455 5.14349 0
M  V30 7172 H 690.597 -2.47374 3.36322 0
M  V30 7173 H 691.987 -0.216138 6.71552 0
M  V30 7174 N 694.707 -1.5719 -0.113559 0
M  V30 7175 C 695.935 -1.89328 -0.834422 0
M  V30 7176 C 696.35 -0.752018 -1.73177 0
M  V30 7177 O 695.707 0.276912 -1.80387 0
M  V30 7178 C 695.758 -3.20962 -1.66329 0
M  V30 7179 O 695.479 -4.30695 -0.802069 0
M  V30 7180 C 696.98 -3.6684 -2.48884 0
M  V30 7181 H 694.2 -0.626769 -0.239587 0
M  V30 7182 H 696.744 -2.04273 -0.0963195 0
M  V30 7183 H 694.899 -3.0767 -2.35409 0
M  V30 7184 H 695.313 -5.06175 -1.37431 0
M  V30 7185 H 696.787 -4.61692 -3.02563 0
M  V30 7186 H 697.264 -2.93765 -3.26495 0
M  V30 7187 H 697.87 -3.82938 -1.85036 0
M  V30 7188 N 696.185 0.383891 -1.52853 0
M  V30 7189 C 697.433 1.12619 -1.67814 0
M  V30 7190 C 697.754 1.90354 -0.423141 0
M  V30 7191 O 697.024 1.87649 0.562554 0
M  V30 7192 H 695.604 0.418738 -0.618601 0
M  V30 7193 H 698.266 0.43495 -1.89985 0
M  V30 7194 H 697.362 1.82624 -2.5309 0
M  V30 7195 N 697.663 1.43903 0.642637 0
M  V30 7196 C 698.61 1.49881 1.75512 0
M  V30 7197 C 699.58 0.347538 1.62423 0
M  V30 7198 O 700.765 0.556177 1.82514 0
M  V30 7199 C 697.905 1.43797 3.13714 0
M  V30 7200 C 697.018 2.6921 3.37861 0
M  V30 7201 C 696.153 2.5504 4.6597 0
M  V30 7202 C 695.192 3.75671 4.83257 0
M  V30 7203 N 694.329 3.60247 6.02633 0
M  V30 7204 H 699.169 2.44935 1.69737 0
M  V30 7205 H 696.706 1.21572 0.828165 0
M  V30 7206 H 698.664 1.38262 3.93624 0
M  V30 7207 H 697.294 0.523173 3.18532 0
M  V30 7208 H 696.346 2.8498 2.51973 0
M  V30 7209 H 697.658 3.58786 3.46517 0
M  V30 7210 H 696.812 2.47273 5.54023 0
M  V30 7211 H 695.551 1.63006 4.59653 0
M  V30 7212 H 694.556 3.83836 3.93637 0
M  V30 7213 H 695.781 4.68728 4.91397 0
M  V30 7214 H 693.727 2.70955 5.97427 0
M  V30 7215 H 693.644 4.43431 6.12295 0
M  V30 7216 H 694.912 3.56351 6.93278 0
M  V30 7217 N 699.141 -0.881989 1.30609 0
M  V30 7218 C 700.073 -1.99375 1.13058 0
M  V30 7219 C 701.086 -1.62636 0.0729879 0
M  V30 7220 O 702.275 -1.75621 0.319301 0
M  V30 7221 C 699.375 -3.31536 0.702651 0
M  V30 7222 C 698.548 -3.96693 1.84265 0
M  V30 7223 C 697.607 -5.07158 1.40277 0
M  V30 7224 O 696.633 -5.28628 2.11048 0
M  V30 7225 N 697.835 -5.79808 0.283449 0
M  V30 7226 H 700.6 -2.14981 2.08814 0
M  V30 7227 H 698.161 -1.05526 1.22784 0
M  V30 7228 H 700.153 -4.02804 0.391331 0
M  V30 7229 H 698.723 -3.12175 -0.162954 0
M  V30 7230 H 697.943 -3.1856 2.32192 0
M  V30 7231 H 699.231 -4.36964 2.60653 0
M  V30 7232 H 698.629 -5.64871 -0.306189 0
M  V30 7233 H 697.186 -6.51792 0.0315985 0
M  V30 7234 N 700.619 -1.13374 -1.09472 0
M  V30 7235 C 701.865 -0.896516 -1.81908 0
M  V30 7236 C 702.198 0.575933 -1.85463 0
M  V30 7237 O 701.473 1.42618 -1.32251 0
M  V30 7238 C 701.756 -1.48445 -3.28079 0
M  V30 7239 C 701.609 -3.02598 -3.32798 0
M  V30 7240 C 702.928 -1.15226 -4.24748 0
M  V30 7241 H 700.047 -0.327127 -0.660422 0
M  V30 7242 H 702.689 -1.40195 -1.2824 0
M  V30 7243 H 700.839 -1.0546 -3.73912 0
M  V30 7244 H 702.511 -3.54335 -2.95372 0
M  V30 7245 H 700.754 -3.37613 -2.72397 0
M  V30 7246 H 701.425 -3.38835 -4.3577 0
M  V30 7247 H 703.901 -1.52369 -3.87199 0
M  V30 7248 H 702.777 -1.59012 -5.25363 0
M  V30 7249 H 703.038 -0.0658891 -4.42051 0
M  V30 7250 N 702.098 1.27442 -0.927168 0
M  V30 7251 C 703.061 2.2512 -0.430525 0
M  V30 7252 C 704.061 1.54357 0.450619 0
M  V30 7253 O 705.251 1.72371 0.251774 0
M  V30 7254 C 702.383 3.38763 0.381144 0
M  V30 7255 H 703.576 2.70569 -1.29354 0
M  V30 7256 H 701.129 1.39355 -0.707806 0
M  V30 7257 H 701.864 2.98695 1.263 0
M  V30 7258 H 701.649 3.91298 -0.250618 0
M  V30 7259 H 703.139 4.11364 0.719012 0
M  V30 7260 N 703.576 0.692616 1.41565 0
M  V30 7261 C 704.822 0.222664 2.01574 0
M  V30 7262 C 705.155 -1.1737 1.54719 0
M  V30 7263 O 704.43 -1.79161 0.757084 0
M  V30 7264 C 704.713 0.277064 3.59033 0
M  V30 7265 C 704.566 1.71016 4.16021 0
M  V30 7266 C 705.885 -0.36479 4.38586 0
M  V30 7267 H 703.004 0.0823839 0.732381 0
M  V30 7268 H 705.646 0.880778 1.68352 0
M  V30 7269 H 703.796 -0.283288 3.87466 0
M  V30 7270 H 705.468 2.32413 3.98475 0
M  V30 7271 H 703.711 2.24525 3.71175 0
M  V30 7272 H 704.382 1.69978 5.25178 0
M  V30 7273 H 706.858 0.112404 4.15948 0
M  V30 7274 H 705.734 -0.296169 5.481 0
M  V30 7275 H 705.995 -1.44506 4.17816 0
M  V30 7276 N 705.054 -1.51416 0.437162 0
M  V30 7277 C 706.001 -2.27743 -0.374374 0
M  V30 7278 C 706.971 -1.31327 -1.01698 0
M  V30 7279 O 708.156 -1.60229 -1.03592 0
M  V30 7280 C 705.296 -3.12241 -1.46969 0
M  V30 7281 C 704.409 -4.23651 -0.845236 0
M  V30 7282 C 703.544 -4.95458 -1.91559 0
M  V30 7283 C 702.583 -5.98789 -1.26956 0
M  V30 7284 N 701.72 -6.64005 -2.28126 0
M  V30 7285 H 706.56 -2.96654 0.282892 0
M  V30 7286 H 704.097 -1.46319 0.151352 0
M  V30 7287 H 706.055 -3.59556 -2.11602 0
M  V30 7288 H 704.685 -2.45445 -2.09659 0
M  V30 7289 H 703.737 -3.803 -0.0872059 0
M  V30 7290 H 705.049 -4.97683 -0.333582 0
M  V30 7291 H 704.203 -5.46321 -2.63854 0
M  V30 7292 H 702.942 -4.21055 -2.46097 0
M  V30 7293 H 701.947 -5.47219 -0.53207 0
M  V30 7294 H 703.172 -6.75149 -0.731509 0
M  V30 7295 H 701.118 -5.92415 -2.81745 0
M  V30 7296 H 701.035 -7.33802 -1.81852 0
M  V30 7297 H 702.303 -7.19498 -2.99905 0
M  V30 7298 N 706.532 -0.168513 -1.56696 0
M  V30 7299 C 707.479 0.762875 -2.17828 0
M  V30 7300 C 708.449 1.22892 -1.11745 0
M  V30 7301 O 709.634 1.29759 -1.39883 0
M  V30 7302 C 706.774 1.9879 -2.82093 0
M  V30 7303 C 705.887 1.56568 -4.02629 0
M  V30 7304 C 705.022 2.74416 -4.54829 0
M  V30 7305 C 704.061 2.28671 -5.67782 0
M  V30 7306 N 703.198 3.39602 -6.14504 0
M  V30 7307 H 708.038 0.23479 -2.97074 0
M  V30 7308 H 705.575 0.104163 -1.46731 0
M  V30 7309 H 707.533 2.70636 -3.17509 0
M  V30 7310 H 706.163 2.48973 -2.05456 0
M  V30 7311 H 705.215 0.744067 -3.73052 0
M  V30 7312 H 706.527 1.18988 -4.844 0
M  V30 7313 H 705.681 3.54423 -4.92412 0
M  V30 7314 H 704.42 3.15254 -3.7211 0
M  V30 7315 H 703.425 1.4711 -5.29753 0
M  V30 7316 H 704.65 1.88894 -6.52301 0
M  V30 7317 H 702.596 3.80021 -5.34715 0
M  V30 7318 H 702.513 3.06105 -6.91257 0
M  V30 7319 H 703.781 4.19902 -6.56737 0
M  V30 7320 N 708.01 1.57248 0.105221 0
M  V30 7321 C 708.943 1.96567 1.15916 0
M  V30 7322 C 709.921 0.837355 1.39381 0
M  V30 7323 O 711.105 1.09676 1.53308 0
M  V30 7324 C 708.232 2.27375 2.51035 0
M  V30 7325 C 707.278 3.49869 2.43913 0
M  V30 7326 S 708.111 5.01958 1.86543 0
M  V30 7327 C 709.267 5.35932 3.23307 0
M  V30 7328 H 709.5 2.85655 0.823931 0
M  V30 7329 H 707.033 1.51204 0.312515 0
M  V30 7330 H 708.991 2.45801 3.28774 0
M  V30 7331 H 707.652 1.38876 2.81731 0
M  V30 7332 H 706.845 3.68835 3.43477 0
M  V30 7333 H 706.447 3.30901 1.743 0
M  V30 7334 H 708.739 5.31958 4.19556 0
M  V30 7335 H 709.682 6.37047 3.09155 0
M  V30 7336 H 710.09 4.63397 3.22372 0
M  V30 7337 N 709.488 -0.375779 1.53054 0
M  V30 7338 C 710.765 -1.13453 1.59336 0
M  V30 7339 C 711.145 -2.07379 0.394614 0
M  V30 7340 O 710.493 -2.2004 -0.616 0
M  V30 7341 C 710.703 -1.8826 2.93869 0
M  V30 7342 C 712.051 -2.43155 3.48081 0
M  V30 7343 O 713.075 -1.984 2.95831 0
M  V30 7344 O 711.934 -3.24944 4.39401 0
M  V30 7345 H 709.028 -0.519856 0.643179 0
M  V30 7346 H 711.574 -0.379865 1.65394 0
M  V30 7347 H 710.346 -1.19652 3.72558 0
M  V30 7348 H 709.969 -2.70658 2.91256 0
M  V30 7349 N 710.966 -1.44241 -0.634997 0
M  V30 7350 C 711.896 -1.53632 -1.7584 0
M  V30 7351 C 712.877 -0.389603 -1.65578 0
M  V30 7352 O 714.062 -0.609219 -1.84397 0
M  V30 7353 C 711.192 -1.47644 -3.14354 0
M  V30 7354 C 710.146 -2.60752 -3.394 0
M  V30 7355 C 709.472 -2.39817 -4.77904 0
M  V30 7356 C 710.772 -4.02921 -3.32343 0
M  V30 7357 H 712.466 -2.47662 -1.68238 0
M  V30 7358 H 710.012 -1.19197 -0.807969 0
M  V30 7359 H 711.965 -1.52815 -3.92716 0
M  V30 7360 H 710.689 -0.501284 -3.2273 0
M  V30 7361 H 709.348 -2.54965 -2.63417 0
M  V30 7362 H 708.996 -1.40502 -4.82978 0
M  V30 7363 H 708.696 -3.15649 -4.9562 0
M  V30 7364 H 710.22 -2.46799 -5.585 0
M  V30 7365 H 711.634 -4.10098 -4.00615 0
M  V30 7366 H 710.031 -4.78925 -3.61595 0
M  V30 7367 H 711.101 -4.26766 -2.30215 0
M  V30 7368 N 712.444 0.87505 -1.31075 0
M  V30 7369 C 713.86 1.15997 -1.09622 0
M  V30 7370 C 714.06 2.01036 0.136611 0
M  V30 7371 O 713.116 2.38559 0.827397 0
M  V30 7372 C 714.429 1.85702 -2.36506 0
M  V30 7373 C 715.977 1.98425 -2.42067 0
M  V30 7374 C 716.452 2.71544 -3.68819 0
M  V30 7375 N 717.943 2.79084 -3.69684 0
M  V30 7376 C 718.678 3.36259 -4.64454 0
M  V30 7377 N 718.174 3.94406 -5.69575 0
M  V30 7378 N 719.967 3.34169 -4.51982 0
M  V30 7379 H 712.118 0.308258 -2.10151 0
M  V30 7380 H 714.381 0.199145 -0.926847 0
M  V30 7381 H 714.087 1.30663 -3.26527 0
M  V30 7382 H 713.961 2.86017 -2.45915 0
M  V30 7383 H 716.348 2.5263 -1.52518 0
M  V30 7384 H 716.429 0.971682 -2.36626 0
M  V30 7385 H 716.073 2.18008 -4.58732 0
M  V30 7386 H 716.003 3.73198 -3.71525 0
M  V30 7387 H 718.494 2.3781 -2.93691 0
M  V30 7388 H 718.807 4.36129 -6.37974 0
M  V30 7389 H 717.152 3.92797 -5.73355 0
M  V30 7390 H 720.343 2.87977 -3.69035 0
M  V30 7391 H 720.516 3.78431 -5.26017 0
M  V30 7392 N 713.922 1.13953 1.08869 0
M  V30 7393 C 714.869 0.82213 2.15661 0
M  V30 7394 C 715.839 -0.218274 1.6466 0
M  V30 7395 O 717.024 -0.0892475 1.90591 0
M  V30 7396 C 714.164 0.300572 3.43789 0
M  V30 7397 C 713.277 1.40071 4.08661 0
M  V30 7398 C 712.412 0.836897 5.24566 0
M  V30 7399 C 711.451 1.91504 5.81371 0
M  V30 7400 N 710.588 1.36875 6.88629 0
M  V30 7401 H 715.428 1.73683 2.42153 0
M  V30 7402 H 712.965 0.866879 1.18843 0
M  V30 7403 H 714.923 -0.0199943 4.17195 0
M  V30 7404 H 713.553 -0.577248 3.17597 0
M  V30 7405 H 712.605 1.83776 3.33062 0
M  V30 7406 H 713.917 2.21534 4.46905 0
M  V30 7407 H 713.071 0.467953 6.04893 0
M  V30 7408 H 711.81 -0.00874207 4.87699 0
M  V30 7409 H 710.815 2.29299 4.99702 0
M  V30 7410 H 712.04 2.76419 6.20298 0
M  V30 7411 H 709.986 0.545211 6.5373 0
M  V30 7412 H 709.903 2.1198 7.25672 0
M  V30 7413 H 711.171 1.02756 7.72698 0
M  V30 7414 N 715.4 -1.26948 0.933913 0
M  V30 7415 C 716.332 -2.25768 0.395137 0
M  V30 7416 C 717.345 -1.55637 -0.477585 0
M  V30 7417 O 718.534 -1.76142 -0.289204 0
M  V30 7418 C 715.634 -3.35874 -0.451882 0
M  V30 7419 C 714.807 -4.3554 0.40299 0
M  V30 7420 C 713.866 -5.24809 -0.3824 0
M  V30 7421 O 712.892 -5.68805 0.212057 0
M  V30 7422 N 714.094 -5.55636 -1.68072 0
M  V30 7423 H 716.859 -2.72634 1.24463 0
M  V30 7424 H 714.42 -1.40639 0.802008 0
M  V30 7425 H 716.412 -3.92542 -0.984516 0
M  V30 7426 H 714.982 -2.8856 -1.20215 0
M  V30 7427 H 714.202 -3.78047 1.11688 0
M  V30 7428 H 715.49 -4.99131 0.987201 0
M  V30 7429 H 714.888 -5.2176 -2.18592 0
M  V30 7430 H 713.445 -6.14978 -2.15975 0
M  V30 7431 N 716.879 -0.700114 -1.41195 0
M  V30 7432 C 717.811 0.00155823 -2.292 0
M  V30 7433 C 718.824 0.739736 -1.45023 0
M  V30 7434 O 720.013 0.589684 -1.68478 0
M  V30 7435 C 717.113 1.02635 -3.22985 0
M  V30 7436 C 716.286 0.356871 -4.35942 0
M  V30 7437 C 715.345 1.28491 -5.10271 0
M  V30 7438 O 714.371 0.775562 -5.63892 0
M  V30 7439 N 715.573 2.61699 -5.18164 0
M  V30 7440 H 718.338 -0.754008 -2.9006 0
M  V30 7441 H 715.899 -0.546504 -1.52397 0
M  V30 7442 H 717.891 1.64902 -3.6958 0
M  V30 7443 H 716.461 1.68341 -2.63401 0
M  V30 7444 H 715.681 -0.445753 -3.91672 0
M  V30 7445 H 716.969 -0.108469 -5.08684 0
M  V30 7446 H 716.367 3.05594 -4.76056 0
M  V30 7447 H 714.924 3.19149 -5.6832 0
M  V30 7448 N 718.357 1.51182 -0.445186 0
M  V30 7449 C 719.773 1.59299 -0.0978954 0
M  V30 7450 C 719.973 1.4555 1.39346 0
M  V30 7451 O 719.029 1.30073 2.16419 0
M  V30 7452 C 720.342 2.94133 -0.625005 0
M  V30 7453 C 721.89 3.07463 -0.586137 0
M  V30 7454 C 722.365 4.44832 -1.09035 0
M  V30 7455 N 723.856 4.51173 -1.04867 0
M  V30 7456 C 724.591 5.55804 -1.40959 0
M  V30 7457 N 724.087 6.67816 -1.84375 0
M  V30 7458 N 725.88 5.46205 -1.32726 0
M  V30 7459 H 718.031 1.58363 -1.41544 0
M  V30 7460 H 720.294 0.746946 -0.58376 0
M  V30 7461 H 720 3.09589 -1.66876 0
M  V30 7462 H 719.874 3.77161 -0.0542262 0
M  V30 7463 H 722.261 2.9167 0.448646 0
M  V30 7464 H 722.342 2.26255 -1.19341 0
M  V30 7465 H 721.986 4.61372 -2.12364 0
M  V30 7466 H 721.916 5.24591 -0.459539 0
M  V30 7467 H 724.407 3.70783 -0.729932 0
M  V30 7468 H 724.72 7.43683 -2.10131 0
M  V30 7469 H 723.065 6.69003 -1.88308 0
M  V30 7470 H 726.256 4.57583 -0.986678 0
M  V30 7471 H 726.429 6.27634 -1.61182 0
M  V30 7472 N 719.835 0.176821 1.56605 0
M  V30 7473 C 721.251 -0.179278 1.5859 0
M  V30 7474 C 721.451 -1.62433 1.19238 0
M  V30 7475 O 720.507 -2.35665 0.906552 0
M  V30 7476 C 721.82 0.106524 3.00511 0
M  V30 7477 C 723.368 0.0451731 3.12967 0
M  V30 7478 C 723.843 0.304038 4.5699 0
M  V30 7479 N 725.334 0.252008 4.62514 0
M  V30 7480 C 726.069 0.426404 5.71812 0
M  V30 7481 N 725.565 0.660155 6.89648 0
M  V30 7482 N 727.358 0.361926 5.60934 0
M  V30 7483 H 719.509 1.12001 1.8047 0
M  V30 7484 H 721.772 0.445679 0.836704 0
M  V30 7485 H 721.478 1.10778 3.33798 0
M  V30 7486 H 721.352 -0.599337 3.72408 0
M  V30 7487 H 723.739 -0.946662 2.79504 0
M  V30 7488 H 723.82 0.78383 2.43495 0
M  V30 7489 H 723.464 1.29311 4.91163 0
M  V30 7490 H 723.394 -0.455294 5.24628 0
M  V30 7491 H 725.885 0.0772102 3.77821 0
M  V30 7492 H 726.198 0.782529 7.68828 0
M  V30 7493 H 724.543 0.696835 6.91498 0
M  V30 7494 H 727.734 0.17986 4.67754 0
M  V30 7495 H 727.907 0.501263 6.46058 0
M  V30 7496 N 721.313 -1.57302 -0.09688 0
M  V30 7497 C 722.223 -2.05258 -1.13606 0
M  V30 7498 C 723.239 -0.977137 -1.43972 0
M  V30 7499 O 724.415 -1.29018 -1.54649 0
M  V30 7500 C 721.48 -2.46593 -2.43706 0
M  V30 7501 C 720.541 -3.68322 -2.20538 0
M  V30 7502 C 719.774 -4.07676 -3.44435 0
M  V30 7503 O 719.997 -3.47141 -4.52603 0
M  V30 7504 O 718.931 -5.00641 -3.34129 0
M  V30 7505 H 722.757 -2.94069 -0.758752 0
M  V30 7506 H 720.342 -1.46164 -0.309263 0
M  V30 7507 H 722.224 -2.73814 -3.20318 0
M  V30 7508 H 720.899 -1.6092 -2.80867 0
M  V30 7509 H 719.806 -3.4622 -1.41713 0
M  V30 7510 H 721.139 -4.54769 -1.88271 0
M  V30 7511 N 722.791 0.367657 -1.53252 0
M  V30 7512 C 723.721 1.45632 -1.8252 0
M  V30 7513 C 724.702 1.55979 -0.678568 0
M  V30 7514 O 725.887 1.70581 -0.928217 0
M  V30 7515 C 723.017 2.82994 -2.01325 0
M  V30 7516 C 721.971 2.87473 -3.17086 0
M  V30 7517 C 721.297 4.2749 -3.21179 0
M  V30 7518 C 722.597 2.55182 -4.55719 0
M  V30 7519 H 724.291 1.21387 -2.73689 0
M  V30 7520 H 721.837 0.58251 -1.31692 0
M  V30 7521 H 723.79 3.59179 -2.20383 0
M  V30 7522 H 722.514 3.08622 -1.06864 0
M  V30 7523 H 721.173 2.13739 -2.97844 0
M  V30 7524 H 720.821 4.5019 -2.24361 0
M  V30 7525 H 720.521 4.31403 -3.98955 0
M  V30 7526 H 722.045 5.0555 -3.42419 0
M  V30 7527 H 723.459 3.21081 -4.74953 0
M  V30 7528 H 721.856 2.70414 -5.3572 0
M  V30 7529 H 722.926 1.5044 -4.60973 0
M  V30 7530 N 724.269 1.44576 0.627338 0
M  V30 7531 C 725.199 1.54562 1.75022 0
M  V30 7532 C 726.18 0.398378 1.65369 0
M  V30 7533 O 727.365 0.61899 1.84071 0
M  V30 7534 C 724.495 1.49309 3.13567 0
M  V30 7535 C 723.449 2.62549 3.38012 0
M  V30 7536 C 722.775 2.42348 4.76625 0
M  V30 7537 C 724.075 4.04678 3.30202 0
M  V30 7538 H 725.769 2.4855 1.66922 0
M  V30 7539 H 723.315 1.19624 0.801636 0
M  V30 7540 H 725.268 1.54895 3.919 0
M  V30 7541 H 723.992 0.518392 3.2246 0
M  V30 7542 H 722.651 2.56358 2.62061 0
M  V30 7543 H 722.299 1.43062 4.82226 0
M  V30 7544 H 721.999 3.18273 4.93939 0
M  V30 7545 H 723.523 2.49758 5.57183 0
M  V30 7546 H 724.937 4.12217 3.98435 0
M  V30 7547 H 723.334 4.80836 3.5905 0
M  V30 7548 H 724.404 4.2798 2.27949 0
M  V30 7549 N 725.747 -0.868086 1.31537 0
M  V30 7550 C 726.994 -1.62127 1.2133 0
M  V30 7551 C 727.322 -1.93158 -0.2281 0
M  V30 7552 O 726.577 -1.5632 -1.1774 0
M  V30 7553 C 726.876 -2.95889 2.0046 0
M  V30 7554 C 726.542 -2.84343 3.49943 0
M  V30 7555 C 725.204 -2.80901 3.90702 0
M  V30 7556 C 727.556 -2.71243 4.45058 0
M  V30 7557 C 724.884 -2.6222 5.24841 0
M  V30 7558 C 727.236 -2.54098 5.79325 0
M  V30 7559 C 725.9 -2.4904 6.19302 0
M  V30 7560 H 725.17 -0.593265 0.443979 0
M  V30 7561 H 727.817 -1.00803 1.62822 0
M  V30 7562 H 726.122 -3.61259 1.51655 0
M  V30 7563 H 727.819 -3.53161 1.89942 0
M  V30 7564 H 724.409 -2.8784 3.17563 0
M  V30 7565 H 728.593 -2.72956 4.14498 0
M  V30 7566 H 723.849 -2.56731 5.54887 0
M  V30 7567 H 728.023 -2.42938 6.52652 0
M  V30 7568 H 725.65 -2.34324 7.23185 0
M  V30 7569 N 727.225 -1.14528 -1.08264 0
M  V30 7570 C 728.173 -0.829201 -2.17318 0
M  V30 7571 C 729.167 0.193521 -1.68291 0
M  V30 7572 O 730.373 0.0494744 -1.79932 0
M  V30 7573 H 726.748 -0.250435 -0.709074 0
M  V30 7574 H 728.719 -1.75683 -2.41201 0
M  V30 7575 C 727.468 -0.324663 -3.46181 0
M  V30 7576 H 726.791 -1.10299 -3.84284 0
M  V30 7577 H 728.231 -0.142059 -4.23762 0
M  V30 7578 C 726.69 0.952033 -3.23169 0
M  V30 7579 O 727.22 2.02549 -3.46896 0
M  V30 7580 N 725.426 0.887854 -2.76705 0
M  V30 7581 H 724.973 0.0141402 -2.57596 0
M  V30 7582 H 724.931 1.74263 -2.61686 0
M  V30 7583 N 728.703 1.26451 -0.940633 0
M  V30 7584 C 729.613 2.30128 -0.455881 0
M  V30 7585 C 730.629 1.67536 0.469867 0
M  V30 7586 O 731.805 1.98344 0.349529 0
M  V30 7587 C 728.87 3.45634 0.271648 0
M  V30 7588 C 727.931 4.23709 -0.690594 0
M  V30 7589 C 727.164 5.337 0.00231047 0
M  V30 7590 O 727.387 5.57215 1.21935 0
M  V30 7591 O 726.321 5.98091 -0.676111 0
M  V30 7592 H 730.147 2.73655 -1.31707 0
M  V30 7593 H 727.732 1.3164 -0.706497 0
M  V30 7594 H 729.614 4.15853 0.681486 0
M  V30 7595 H 728.289 3.04138 1.10824 0
M  V30 7596 H 727.196 3.55974 -1.15037 0
M  V30 7597 H 728.529 4.68953 -1.49478 0
M  V30 7598 N 730.181 0.707592 1.40822 0
M  V30 7599 C 731.427 0.244031 2.01326 0
M  V30 7600 C 731.76 -1.15722 1.55955 0
M  V30 7601 O 731.035 -1.78347 0.776044 0
M  V30 7602 C 731.318 0.315128 3.58718 0
M  V30 7603 C 731.171 1.75419 4.14184 0
M  V30 7604 C 732.49 -0.318251 4.38948 0
M  V30 7605 H 729.609 0.0901471 0.731466 0
M  V30 7606 H 732.251 0.898584 1.67408 0
M  V30 7607 H 730.401 -0.242176 3.87744 0
M  V30 7608 H 732.073 2.36626 3.95987 0
M  V30 7609 H 730.316 2.28449 3.68773 0
M  V30 7610 H 730.987 1.75538 5.23345 0
M  V30 7611 H 733.463 0.156514 4.15806 0
M  V30 7612 H 732.339 -0.238019 5.48384 0
M  V30 7613 H 732.6 -1.40067 4.19325 0
M  V30 7614 N 731.66 -1.50943 0.453197 0
M  V30 7615 C 732.906 -2.02512 -0.108082 0
M  V30 7616 C 733.239 -1.33574 -1.40967 0
M  V30 7617 O 732.514 -0.455671 -1.89087 0
M  V30 7618 C 732.797 -3.58759 -0.310453 0
M  V30 7619 C 732.65 -4.38293 1.0109 0
M  V30 7620 C 733.969 -4.26816 -1.07313 0
M  V30 7621 H 731.088 -0.73603 -0.0378064 0
M  V30 7622 H 733.73 -1.80433 0.595295 0
M  V30 7623 H 731.88 -3.77702 -0.909582 0
M  V30 7624 H 733.552 -4.30964 1.64523 0
M  V30 7625 H 731.795 -4.02745 1.61179 0
M  V30 7626 H 732.466 -5.45828 0.82315 0
M  V30 7627 H 734.942 -4.1224 -0.565473 0
M  V30 7628 H 733.818 -5.35989 -1.1835 0
M  V30 7629 H 734.079 -3.88757 -2.10525 0
M  V30 7630 N 733.138 -0.185124 -1.56509 0
M  V30 7631 C 734.387 0.456421 -1.96468 0
M  V30 7632 C 734.7 1.63448 -1.07444 0
M  V30 7633 O 735.906 2.34316 -1.37143 0
M  V30 7634 C 734.362 0.863404 -3.4939 0
M  V30 7635 C 733.97 -0.289815 -4.47062 0
M  V30 7636 C 735.714 1.47259 -3.98139 0
M  V30 7637 C 733.621 0.137571 -5.9124 0
M  V30 7638 H 732.551 0.17429 -0.733579 0
M  V30 7639 H 735.202 -0.275554 -1.81419 0
M  V30 7640 H 733.584 1.65176 -3.59907 0
M  V30 7641 H 734.758 -1.06728 -4.4827 0
M  V30 7642 H 733.073 -0.809851 -4.08449 0
M  V30 7643 H 735.67 1.80463 -5.03326 0
M  V30 7644 H 736.013 2.3755 -3.41871 0
M  V30 7645 H 736.546 0.748405 -3.90696 0
M  V30 7646 H 733.285 -0.730907 -6.51412 0
M  V30 7647 H 732.805 0.8801 -5.93308 0
M  V30 7648 H 734.484 0.576771 -6.44424 0
M  V30 7649 N 734.616 1.57351 0.0885366 0
M  V30 7650 C 735.549 1.97786 1.13825 0
M  V30 7651 C 736.527 0.852091 1.38485 0
M  V30 7652 O 737.711 1.11296 1.52137 0
M  V30 7653 C 734.838 2.30024 2.48609 0
M  V30 7654 C 733.884 3.52437 2.40189 0
M  V30 7655 S 734.717 5.03908 1.81209 0
M  V30 7656 C 735.873 5.39331 3.17605 0
M  V30 7657 H 736.106 2.86513 0.793587 0
M  V30 7658 H 733.639 1.51527 0.29646 0
M  V30 7659 H 735.597 2.49274 3.26148 0
M  V30 7660 H 734.258 1.41856 2.80242 0
M  V30 7661 H 733.451 3.72457 3.39546 0
M  V30 7662 H 733.053 3.32731 1.70781 0
M  V30 7663 H 735.345 5.36378 4.13891 0
M  V30 7664 H 736.288 6.4029 3.02381 0
M  V30 7665 H 736.696 4.6679 3.17438 0
M  V30 7666 N 736.094 -0.359525 1.53444 0
M  V30 7667 C 737.51 -0.701599 1.43352 0
M  V30 7668 C 737.71 -1.93049 0.577439 0
M  V30 7669 O 736.766 -2.52423 0.0622224 0
M  V30 7670 C 738.079 -0.90915 2.86627 0
M  V30 7671 C 739.627 -1.00878 2.96298 0
M  V30 7672 C 740.102 -1.24876 4.40647 0
M  V30 7673 N 741.593 -1.31632 4.44103 0
M  V30 7674 C 742.328 -1.51922 5.52908 0
M  V30 7675 N 741.824 -1.69489 6.71748 0
M  V30 7676 N 743.617 -1.54341 5.40496 0
M  V30 7677 H 735.768 0.448685 2.07607 0
M  V30 7678 H 738.031 0.138713 0.937797 0
M  V30 7679 H 737.737 -0.0778997 3.51614 0
M  V30 7680 H 737.611 -1.81551 3.30634 0
M  V30 7681 H 739.998 -1.83057 2.31461 0
M  V30 7682 H 740.079 -0.0796721 2.55676 0
M  V30 7683 H 739.723 -0.431961 5.0606 0
M  V30 7684 H 739.653 -2.19118 4.78848 0
M  V30 7685 H 742.144 -1.19646 3.5846 0
M  V30 7686 H 742.457 -1.84561 7.50438 0
M  V30 7687 H 740.802 -1.66655 6.74723 0
M  V30 7688 H 743.993 -1.40188 4.46615 0
M  V30 7689 H 744.166 -1.69812 6.25354 0
M  V30 7690 N 737.572 -1.44907 -0.619662 0
M  V30 7691 C 738.849 -1.38766 -1.37852 0
M  V30 7692 C 739.229 -0.0521393 -2.11036 0
M  V30 7693 O 738.577 0.965613 -2.07095 0
M  V30 7694 C 738.787 -2.59344 -2.33541 0
M  V30 7695 C 740.135 -3.03909 -2.96521 0
M  V30 7696 O 741.159 -2.59631 -2.43865 0
M  V30 7697 O 740.018 -3.80713 -3.92071 0
M  V30 7698 H 737.112 -0.550083 -0.617525 0
M  V30 7699 H 739.658 -1.57015 -0.643759 0
M  V30 7700 H 738.43 -3.48142 -1.78642 0
M  V30 7701 H 738.053 -2.43367 -3.14417 0
M  V30 7702 N 739.05 0.861098 -1.31996 0
M  V30 7703 C 740.28 1.64501 -1.24992 0
M  V30 7704 C 740.688 1.88288 0.185576 0
M  V30 7705 O 740.031 1.44756 1.131 0
M  V30 7706 C 740.093 3.03098 -1.93319 0
M  V30 7707 C 739.757 3.02381 -3.42658 0
M  V30 7708 C 740.754 2.79696 -4.38254 0
M  V30 7709 C 738.439 3.23221 -3.84491 0
M  V30 7710 C 740.433 2.77843 -5.73657 0
M  V30 7711 C 738.12 3.20996 -5.20005 0
M  V30 7712 C 739.118 2.98335 -6.14398 0
M  V30 7713 O 738.806 2.95971 -7.47433 0
M  V30 7714 H 738.538 0.519309 -0.432775 0
M  V30 7715 H 741.092 1.08241 -1.74565 0
M  V30 7716 H 739.322 3.61121 -1.38306 0
M  V30 7717 H 741.011 3.63751 -1.8011 0
M  V30 7718 H 741.777 2.63368 -4.07262 0
M  V30 7719 H 737.656 3.39887 -3.11445 0
M  V30 7720 H 741.2 2.60074 -6.47308 0
M  V30 7721 H 737.097 3.36865 -5.50629 0
M  V30 7722 H 737.865 3.1197 -7.56714 0
M  V30 7723 N 740.528 1.15101 1.07655 0
M  V30 7724 C 741.478 0.813448 2.12995 0
M  V30 7725 C 742.462 -0.200899 1.59641 0
M  V30 7726 O 743.654 -0.00209918 1.77 0
M  V30 7727 C 740.783 0.301078 3.41977 0
M  V30 7728 C 739.869 1.3454 4.02194 0
M  V30 7729 N 740.26 2.55181 4.36711 0
M  V30 7730 C 738.558 1.19742 4.29625 0
M  V30 7731 C 739.259 3.22094 4.84387 0
M  V30 7732 N 738.235 2.49486 4.82968 0
M  V30 7733 H 742.037 1.73105 2.37511 0
M  V30 7734 H 739.551 1.03601 1.25063 0
M  V30 7735 H 741.548 0.040914 4.1688 0
M  V30 7736 H 740.208 -0.610629 3.18907 0
M  V30 7737 H 741.219 2.92349 4.27496 0
M  V30 7738 H 737.896 0.345353 4.16069 0
M  V30 7739 H 739.286 4.24996 5.20411 0
M  V30 7740 N 742.006 -1.2595 0.947325 0
M  V30 7741 C 742.956 -2.23859 0.432547 0
M  V30 7742 C 743.94 -1.53755 -0.474154 0
M  V30 7743 O 745.132 -1.74293 -0.308397 0
M  V30 7744 C 742.261 -3.42027 -0.295318 0
M  V30 7745 C 741.347 -4.19409 0.62903 0
M  V30 7746 N 741.738 -4.74284 1.7575 0
M  V30 7747 C 740.036 -4.43866 0.435805 0
M  V30 7748 C 740.737 -5.32821 2.33401 0
M  V30 7749 N 739.713 -5.18858 1.62135 0
M  V30 7750 H 743.515 -2.63886 1.29388 0
M  V30 7751 H 741.029 -1.41105 0.80393 0
M  V30 7752 H 743.026 -4.11297 -0.681188 0
M  V30 7753 H 741.686 -3.03526 -1.15334 0
M  V30 7754 H 742.697 -4.71641 2.13952 0
M  V30 7755 H 739.374 -4.15768 -0.37994 0
M  V30 7756 H 740.764 -5.86111 3.28517 0
M  V30 7757 N 743.484 -0.715051 -1.40445 0
M  V30 7758 C 744.761 -0.181503 -1.94756 0
M  V30 7759 C 745.141 1.31268 -1.65324 0
M  V30 7760 O 744.489 2.0686 -0.970631 0
M  V30 7761 C 744.699 -0.493663 -3.45491 0
M  V30 7762 C 746.047 -0.432032 -4.22396 0
M  V30 7763 O 747.071 -0.429692 -3.53599 0
M  V30 7764 O 745.93 -0.409091 -5.44967 0
M  V30 7765 H 743.024 -0.0263989 -0.826579 0
M  V30 7766 H 745.57 -0.792546 -1.50056 0
M  V30 7767 H 744.342 -1.52713 -3.6027 0
M  V30 7768 H 743.965 0.14737 -3.97327 0
M  V30 7769 N 744.962 1.50701 -0.461195 0
M  V30 7770 C 745.91 2.29918 0.352231 0
M  V30 7771 C 746.904 1.36778 0.999403 0
M  V30 7772 O 748.11 1.54015 0.931639 0
M  V30 7773 H 744.485 0.740249 0.132423 0
M  V30 7774 H 746.456 2.96497 -0.336424 0
M  V30 7775 C 745.205 3.17052 1.42736 0
M  V30 7776 H 744.528 3.88623 0.938747 0
M  V30 7777 H 745.968 3.75493 1.96928 0
M  V30 7778 C 744.427 2.3399 2.42384 0
M  V30 7779 O 744.957 2.01608 3.47444 0
M  V30 7780 N 743.163 1.96758 2.13857 0
M  V30 7781 H 742.71 2.23292 1.28447 0
M  V30 7782 H 742.668 1.41484 2.80766 0
M  V30 7783 N 746.441 0.193421 1.56409 0
M  V30 7784 C 747.687 -0.446449 1.97825 0
M  V30 7785 C 748.02 -1.61386 1.08019 0
M  V30 7786 O 747.295 -1.94053 0.131839 0
M  V30 7787 C 747.578 -0.908199 3.48459 0
M  V30 7788 C 747.431 0.260914 4.49043 0
M  V30 7789 C 748.75 -1.77428 4.0275 0
M  V30 7790 H 745.869 -0.160807 0.719243 0
M  V30 7791 H 748.511 0.284006 1.87865 0
M  V30 7792 H 746.661 -1.53062 3.57077 0
M  V30 7793 H 748.333 0.898548 4.52464 0
M  V30 7794 H 746.576 0.912949 4.24085 0
M  V30 7795 H 747.247 -0.104657 5.51901 0
M  V30 7796 H 749.723 -1.24936 3.96901 0
M  V30 7797 H 748.599 -2.06633 5.08521 0
M  V30 7798 H 748.86 -2.72788 3.47907 0
M  V30 7799 N 747.919 -1.57396 -0.0801906 0
M  V30 7800 C 749.165 -1.87113 -0.782083 0
M  V30 7801 C 749.498 -0.78458 -1.77646 0
M  V30 7802 O 748.773 0.205993 -1.93406 0
M  V30 7803 C 749.056 -3.27483 -1.49756 0
M  V30 7804 C 748.909 -4.46782 -0.520171 0
M  V30 7805 C 750.228 -3.65965 -2.44454 0
M  V30 7806 H 747.347 -0.680559 -0.282858 0
M  V30 7807 H 749.989 -1.89946 -0.0454139 0
M  V30 7808 H 748.139 -3.25199 -2.12551 0
M  V30 7809 H 749.811 -4.61187 0.101919 0
M  V30 7810 H 748.054 -4.33485 0.165219 0
M  V30 7811 H 748.725 -5.41761 -1.05824 0
M  V30 7812 H 751.201 -3.69289 -1.91742 0
M  V30 7813 H 750.077 -4.65086 -2.91524 0
M  V30 7814 H 750.338 -2.95446 -3.28883 0
M  V30 7815 N 749.397 0.351382 -1.53633 0
M  V30 7816 C 750.674 1.10903 -1.6112 0
M  V30 7817 C 751.054 2.06725 -0.427556 0
M  V30 7818 O 750.402 2.20992 0.580916 0
M  V30 7819 C 750.612 1.83561 -2.96827 0
M  V30 7820 C 751.96 2.37587 -3.51906 0
M  V30 7821 O 752.984 1.93669 -2.9895 0
M  V30 7822 O 751.843 3.17913 -4.44515 0
M  V30 7823 H 748.937 0.509558 -0.651368 0
M  V30 7824 H 751.483 0.353504 -1.65977 0
M  V30 7825 H 750.255 1.1371 -3.74414 0
M  V30 7826 H 749.878 2.6599 -2.95525 0
M  V30 7827 N 750.875 1.45233 0.611969 0
M  V30 7828 C 751.808 1.48056 1.73651 0
M  V30 7829 C 752.786 0.337373 1.59061 0
M  V30 7830 O 753.97 0.537222 1.80683 0
M  V30 7831 C 751.097 1.33144 3.11433 0
M  V30 7832 C 750.143 2.51272 3.44623 0
M  V30 7833 S 750.976 4.13754 3.39953 0
M  V30 7834 C 752.132 4.013 4.80322 0
M  V30 7835 H 752.365 2.43205 1.70993 0
M  V30 7836 H 749.898 1.32763 0.788246 0
M  V30 7837 H 751.856 1.25228 3.90932 0
M  V30 7838 H 750.517 0.394734 3.1161 0
M  V30 7839 H 749.71 2.36753 4.44932 0
M  V30 7840 H 749.312 2.56027 2.72629 0
M  V30 7841 H 751.604 3.66174 5.7002 0
M  V30 7842 H 752.547 5.01506 4.99897 0
M  V30 7843 H 752.955 3.3303 4.55797 0
M  V30 7844 N 752.353 -0.854086 1.3245 0
M  V30 7845 C 753.583 -1.63836 1.25862 0
M  V30 7846 C 753.991 -1.88383 -0.175588 0
M  V30 7847 O 753.334 -1.45353 -1.1233 0
M  V30 7848 C 753.396 -3.02068 1.94923 0
M  V30 7849 C 753.06 -3.0056 3.44257 0
M  V30 7850 C 754.057 -2.77368 4.39731 0
M  V30 7851 C 751.742 -3.21177 3.862 0
M  V30 7852 C 753.736 -2.74797 5.75122 0
M  V30 7853 C 751.423 -3.18234 5.217 0
M  V30 7854 C 752.421 -2.95072 6.15972 0
M  V30 7855 O 752.109 -2.92003 7.48992 0
M  V30 7856 H 751.841 -0.517007 0.435523 0
M  V30 7857 H 754.395 -1.07314 1.75137 0
M  V30 7858 H 752.625 -3.60382 1.40219 0
M  V30 7859 H 754.314 -3.62791 1.82037 0
M  V30 7860 H 755.08 -2.61205 4.08653 0
M  V30 7861 H 750.959 -3.38231 3.13243 0
M  V30 7862 H 754.503 -2.56638 6.48678 0
M  V30 7863 H 750.4 -3.33941 5.52407 0
M  V30 7864 H 751.168 -3.07953 7.58358 0
M  V30 7865 N 753.831 -1.1567 -1.07043 0
M  V30 7866 C 755.056 -0.957946 -1.83952 0
M  V30 7867 C 755.481 0.488807 -1.81638 0
M  V30 7868 O 754.839 1.34869 -1.21162 0
M  V30 7869 C 754.887 -1.48064 -3.288 0
M  V30 7870 O 753.991 -0.681921 -4.06723 0
M  V30 7871 H 753.332 -0.341453 -0.569479 0
M  V30 7872 H 755.862 -1.53728 -1.35015 0
M  V30 7873 H 755.872 -1.49484 -3.7963 0
M  V30 7874 H 754.547 -2.53388 -3.29799 0
M  V30 7875 H 753.124 -0.737612 -3.65532 0
M  V30 7876 N 755.309 1.25446 -0.953992 0
M  V30 7877 C 756.534 1.97755 -0.625129 0
M  V30 7878 C 756.959 1.70437 0.795787 0
M  V30 7879 O 756.317 0.95992 1.53803 0
M  V30 7880 C 756.365 3.49463 -0.889251 0
M  V30 7881 O 755.469 4.12387 0.0322757 0
M  V30 7882 H 754.81 0.61998 -0.237742 0
M  V30 7883 H 757.34 1.59582 -1.28041 0
M  V30 7884 H 757.35 3.99772 -0.815263 0
M  V30 7885 H 756.025 3.68676 -1.92487 0
M  V30 7886 H 754.602 3.72782 -0.0938625 0
M  V30 7887 N 756.787 0.722489 1.40064 0
M  V30 7888 C 758.017 0.274439 2.04769 0
M  V30 7889 C 758.425 -1.09125 1.54559 0
M  V30 7890 O 757.768 -1.69834 0.700149 0
M  V30 7891 C 757.83 0.184091 3.59028 0
M  V30 7892 C 757.494 1.48619 4.32159 0
M  V30 7893 C 758.491 2.42947 4.59644 0
M  V30 7894 C 756.176 1.74703 4.7094 0
M  V30 7895 C 758.17 3.616 5.24904 0
M  V30 7896 C 755.857 2.93636 5.3593 0
M  V30 7897 C 756.855 3.86907 5.62843 0
M  V30 7898 O 756.543 5.03753 6.26489 0
M  V30 7899 H 756.275 0.119847 0.665292 0
M  V30 7900 H 758.829 0.983352 1.80331 0
M  V30 7901 H 757.059 -0.580821 3.82313 0
M  V30 7902 H 758.748 -0.230306 4.05246 0
M  V30 7903 H 759.514 2.24062 4.30141 0
M  V30 7904 H 755.393 1.02955 4.49356 0
M  V30 7905 H 758.937 4.34418 5.45827 0
M  V30 7906 H 754.834 3.12428 5.64853 0
M  V30 7907 H 755.602 5.03922 6.44984 0
M  V30 7908 N 758.265 -1.50454 0.469181 0
M  V30 7909 C 759.195 -2.31353 -0.31592 0
M  V30 7910 C 760.176 -1.38172 -0.992094 0
M  V30 7911 O 761.361 -1.67093 -0.989633 0
M  V30 7912 C 758.491 -3.1786 -1.39937 0
M  V30 7913 C 757.445 -4.19578 -0.844909 0
M  V30 7914 C 756.771 -4.9481 -2.0265 0
M  V30 7915 C 758.071 -5.22106 0.142499 0
M  V30 7916 H 759.765 -2.97237 0.359269 0
M  V30 7917 H 757.311 -1.42942 0.174224 0
M  V30 7918 H 759.264 -3.7325 -1.95607 0
M  V30 7919 H 757.988 -2.49858 -2.1033 0
M  V30 7920 H 756.647 -3.65285 -0.310189 0
M  V30 7921 H 756.295 -4.23282 -2.71737 0
M  V30 7922 H 755.995 -5.63613 -1.66174 0
M  V30 7923 H 757.519 -5.53035 -2.58815 0
M  V30 7924 H 758.933 -5.72378 -0.324966 0
M  V30 7925 H 757.33 -5.98618 0.421441 0
M  V30 7926 H 758.4 -4.7297 1.06901 0
M  V30 7927 N 759.743 -0.201713 -1.56304 0
M  V30 7928 C 760.989 0.435952 -1.98059 0
M  V30 7929 C 761.322 1.60811 -1.08873 0
M  V30 7930 O 760.597 1.9398 -0.142128 0
M  V30 7931 C 760.88 0.889706 -3.48936 0
M  V30 7932 C 760.733 -0.284725 -4.48898 0
M  V30 7933 C 762.052 1.7529 -4.03685 0
M  V30 7934 H 759.171 0.15699 -0.720085 0
M  V30 7935 H 761.813 -0.293965 -1.87712 0
M  V30 7936 H 759.963 1.51166 -3.57884 0
M  V30 7937 H 761.635 -0.922531 -4.51981 0
M  V30 7938 H 759.878 -0.935427 -4.23594 0
M  V30 7939 H 760.549 0.0753865 -5.51949 0
M  V30 7940 H 763.025 1.2283 -3.97558 0
M  V30 7941 H 761.901 2.03933 -5.0961 0
M  V30 7942 H 762.162 2.70939 -3.49348 0
M  V30 7943 N 761.222 1.57436 0.0718424 0
M  V30 7944 C 762.47 1.86878 0.769484 0
M  V30 7945 C 762.791 0.7937 1.78116 0
M  V30 7946 O 762.061 -0.177642 1.95093 0
M  V30 7947 H 760.641 0.689593 0.287177 0
M  V30 7948 H 763.303 1.94841 0.0479427 0
M  V30 7949 H 762.399 2.84387 1.28572 0
M  V30 7950 N 762.7 -0.34323 1.53817 0
M  V30 7951 C 763.977 -1.10047 1.61706 0
M  V30 7952 C 764.357 -2.06495 0.438514 0
M  V30 7953 O 763.705 -2.21297 -0.569188 0
M  V30 7954 C 763.915 -1.81985 2.97796 0
M  V30 7955 C 765.263 -2.35717 3.53161 0
M  V30 7956 O 766.287 -1.9208 2.99973 0
M  V30 7957 O 765.146 -3.15551 4.46195 0
M  V30 7958 H 762.24 -0.506096 0.654061 0
M  V30 7959 H 764.786 -0.344697 1.66162 0
M  V30 7960 H 763.558 -1.11722 3.75012 0
M  V30 7961 H 763.181 -2.64419 2.96931 0
M  V30 7962 N 764.178 -1.45556 -0.604258 0
M  V30 7963 C 765.088 -1.57025 -1.74299 0
M  V30 7964 C 766.104 -0.45456 -1.67958 0
M  V30 7965 O 767.28 -0.715711 -1.88254 0
M  V30 7966 C 764.345 -1.53702 -3.10768 0
M  V30 7967 C 763.406 -2.76335 -3.28538 0
M  V30 7968 C 762.639 -2.73161 -4.58496 0
M  V30 7969 O 762.862 -1.80678 -5.41028 0
M  V30 7970 O 761.796 -3.64409 -4.79051 0
M  V30 7971 H 765.622 -2.53284 -1.67573 0
M  V30 7972 H 763.207 -1.28104 -0.768745 0
M  V30 7973 H 765.089 -1.54468 -3.92068 0
M  V30 7974 H 763.764 -0.605957 -3.17978 0
M  V30 7975 H 762.671 -2.8113 -2.46813 0
M  V30 7976 H 764.004 -3.68578 -3.26207 0
M  V30 7977 N 765.656 0.84705 -1.32902 0
M  V30 7978 C 766.586 1.97166 -1.25091 0
M  V30 7979 C 767.567 1.69578 -0.133161 0
M  V30 7980 O 768.752 1.91519 -0.321591 0
M  V30 7981 C 765.882 3.33157 -0.981006 0
M  V30 7982 C 764.836 3.75119 -2.06082 0
M  V30 7983 C 764.162 5.08826 -1.64318 0
M  V30 7984 C 765.462 3.89774 -3.47669 0
M  V30 7985 H 767.156 2.03958 -2.19184 0
M  V30 7986 H 764.702 0.979907 -1.05517 0
M  V30 7987 H 766.655 4.11393 -0.912891 0
M  V30 7988 H 765.379 3.266 -0.00445559 0
M  V30 7989 H 764.038 2.9914 -2.11921 0
M  V30 7990 H 763.686 4.98732 -0.653876 0
M  V30 7991 H 763.386 5.37873 -2.36572 0
M  V30 7992 H 764.91 5.89546 -1.58958 0
M  V30 7993 H 766.324 4.58343 -3.44376 0
M  V30 7994 H 764.721 4.30248 -4.18338 0
M  V30 7995 H 765.791 2.92463 -3.86773 0
M  V30 7996 N 767.134 1.16236 1.06428 0
M  V30 7997 C 768.38 0.954417 1.79617 0
M  V30 7998 C 768.735 -0.512411 1.85451 0
M  V30 7999 O 768.028 -1.37523 1.33409 0
M  V30 8000 C 768.222 1.51396 3.2375 0
M  V30 8001 C 768.051 3.03367 3.31962 0
M  V30 8002 C 766.821 3.71996 3.41975 0
M  V30 8003 C 769.019 4.01075 3.21937 0
M  V30 8004 N 767.001 5.11688 3.39187 0
M  V30 8005 C 768.372 5.27142 3.26376 0
M  V30 8006 C 770.427 3.92917 3.05812 0
M  V30 8007 C 769.13 6.46 3.16348 0
M  V30 8008 C 771.156 5.11344 2.97121 0
M  V30 8009 C 770.518 6.36291 3.02181 0
M  V30 8010 H 766.617 0.403007 0.670156 0
M  V30 8011 H 769.201 1.47605 1.26968 0
M  V30 8012 H 767.372 1.01883 3.74799 0
M  V30 8013 H 769.104 1.2439 3.85109 0
M  V30 8014 H 765.859 3.22623 3.46715 0
M  V30 8015 H 766.283 5.84676 3.41297 0
M  V30 8016 H 770.925 2.97172 3.00746 0
M  V30 8017 H 768.643 7.41968 3.2017 0
M  V30 8018 H 772.229 5.06801 2.85734 0
M  V30 8019 H 771.109 7.26389 2.95513 0
M  V30 8020 N 768.612 -1.24939 0.960631 0
M  V30 8021 C 769.858 -1.93104 0.61958 0
M  V30 8022 C 770.191 -1.74991 -0.84212 0
M  V30 8023 O 769.466 -1.09867 -1.60498 0
M  V30 8024 C 769.749 -3.46326 0.986422 0
M  V30 8025 C 769.602 -3.73638 2.50429 0
M  V30 8026 C 770.921 -4.37067 0.515827 0
M  V30 8027 H 768.04 -0.701311 0.226566 0
M  V30 8028 H 770.682 -1.47442 1.19836 0
M  V30 8029 H 768.832 -3.85348 0.493907 0
M  V30 8030 H 770.504 -3.44217 3.07103 0
M  V30 8031 H 768.747 -3.19035 2.93937 0
M  V30 8032 H 769.418 -4.80815 2.71147 0
M  V30 8033 H 771.894 -4.05381 0.938389 0
M  V30 8034 H 770.77 -5.43022 0.80114 0
M  V30 8035 H 771.031 -4.38224 -0.584171 0
M  V30 8036 N 770.09 -0.729906 -1.39679 0
M  V30 8037 C 771.336 -0.27603 -2.00913 0
M  V30 8038 C 771.669 1.13227 -1.57776 0
M  V30 8039 O 770.944 1.7709 -0.804319 0
M  V30 8040 C 771.227 -0.372157 -3.58172 0
M  V30 8041 C 771.08 -1.81986 -4.11341 0
M  V30 8042 C 772.399 0.248378 -4.39399 0
M  V30 8043 H 769.518 -0.101773 -0.729939 0
M  V30 8044 H 772.16 -0.925104 -1.65957 0
M  V30 8045 H 770.31 0.180459 -3.88081 0
M  V30 8046 H 771.982 -2.42896 -3.92172 0
M  V30 8047 H 770.225 -2.34287 -3.65092 0
M  V30 8048 H 770.896 -1.83842 -5.20486 0
M  V30 8049 H 773.372 -0.222645 -4.15504 0
M  V30 8050 H 772.248 0.150746 -5.48693 0
M  V30 8051 H 772.509 1.33378 -4.21501 0
M  V30 8052 N 771.568 1.50203 -0.477153 0
M  V30 8053 C 772.501 2.25343 0.359983 0
M  V30 8054 C 773.479 1.28909 0.991022 0
M  V30 8055 O 774.663 1.58146 1.02578 0
M  V30 8056 C 771.79 3.03431 1.5049 0
M  V30 8057 C 770.836 4.14836 0.99063 0
M  V30 8058 S 771.669 5.35407 -0.0995413 0
M  V30 8059 C 772.825 6.17045 1.04911 0
M  V30 8060 H 773.058 2.95999 -0.277836 0
M  V30 8061 H 770.591 1.52159 -0.262115 0
M  V30 8062 H 772.549 3.49012 2.16105 0
M  V30 8063 H 771.21 2.32289 2.11425 0
M  V30 8064 H 770.403 4.689 1.84794 0
M  V30 8065 H 770.005 3.71723 0.412097 0
M  V30 8066 H 772.297 6.48546 1.95946 0
M  V30 8067 H 773.24 7.05979 0.547596 0
M  V30 8068 H 773.648 5.49193 1.30567 0
M  V30 8069 N 773.046 0.209999 1.56195 0
M  V30 8070 C 773.956 -0.716459 2.23392 0
M  V30 8071 C 774.972 -1.22291 1.23778 0
M  V30 8072 O 776.148 -1.26694 1.56558 0
M  V30 8073 C 773.213 -1.91261 2.89172 0
M  V30 8074 C 772.274 -1.44927 4.04097 0
M  V30 8075 C 771.507 -2.5884 4.66731 0
M  V30 8076 O 771.73 -3.76693 4.2832 0
M  V30 8077 O 770.664 -2.30701 5.55932 0
M  V30 8078 H 774.49 -0.174089 3.03201 0
M  V30 8079 H 772.075 -0.0199505 1.49387 0
M  V30 8080 H 773.957 -2.6114 3.30733 0
M  V30 8081 H 772.632 -2.4433 2.12331 0
M  V30 8082 H 771.539 -0.718839 3.67129 0
M  V30 8083 H 772.872 -0.965084 4.82646 0
M  V30 8084 N 774.524 -1.57472 -0.0634922 0
M  V30 8085 C 775.771 -1.87654 -0.761066 0
M  V30 8086 C 776.099 -0.802847 -1.77157 0
M  V30 8087 O 775.354 0.200244 -1.94673 0
M  V30 8088 C 775.653 -3.24521 -1.49736 0
M  V30 8089 C 775.319 -4.46532 -0.626065 0
M  V30 8090 C 773.981 -4.7965 -0.385978 0
M  V30 8091 C 776.333 -5.21195 -0.0224001 0
M  V30 8092 C 773.661 -5.84837 0.467118 0
M  V30 8093 C 776.013 -6.27286 0.818198 0
M  V30 8094 C 774.677 -6.58899 1.06808 0
M  V30 8095 H 773.947 -0.686675 -0.278494 0
M  V30 8096 H 776.594 -1.91488 -0.0216348 0
M  V30 8097 H 774.899 -3.16516 -2.30921 0
M  V30 8098 H 776.596 -3.45111 -2.04204 0
M  V30 8099 H 773.186 -4.20618 -0.823325 0
M  V30 8100 H 777.37 -4.95917 -0.194985 0
M  V30 8101 H 772.626 -6.07725 0.669375 0
M  V30 8102 H 776.8 -6.84298 1.29265 0
M  V30 8103 H 774.427 -7.40233 1.73088 0
M  V30 8104 N 776.003 0.335068 -1.53997 0
M  V30 8105 C 776.933 1.41727 -1.85568 0
M  V30 8106 C 777.914 1.54505 -0.7115 0
M  V30 8107 O 779.099 1.68573 -0.964191 0
M  V30 8108 C 776.229 2.7866 -2.07282 0
M  V30 8109 C 775.183 2.80682 -3.23112 0
M  V30 8110 C 774.509 4.20581 -3.30175 0
M  V30 8111 C 775.809 2.45458 -4.61029 0
M  V30 8112 H 777.503 1.15555 -2.76202 0
M  V30 8113 H 775.049 0.554445 -1.32898 0
M  V30 8114 H 777.002 3.54423 -2.27952 0
M  V30 8115 H 775.726 3.06286 -1.13387 0
M  V30 8116 H 774.385 2.07373 -3.02311 0
M  V30 8117 H 774.033 4.4533 -2.33859 0
M  V30 8118 H 773.733 4.22843 -4.08016 0
M  V30 8119 H 775.257 4.98174 -3.53066 0
M  V30 8120 H 776.671 3.10934 -4.81656 0
M  V30 8121 H 775.068 2.5899 -5.41336 0
M  V30 8122 H 776.138 1.40628 -4.6406 0
M  V30 8123 N 777.481 1.45874 0.596531 0
M  V30 8124 C 778.391 1.57947 1.73464 0
M  V30 8125 C 779.407 0.463461 1.67714 0
M  V30 8126 O 780.583 0.725685 1.87872 0
M  V30 8127 C 777.648 1.55348 3.09948 0
M  V30 8128 C 776.709 2.78074 3.27068 0
M  V30 8129 C 775.942 2.75589 4.57041 0
M  V30 8130 O 776.165 1.83545 5.40063 0
M  V30 8131 O 775.099 3.66945 4.77111 0
M  V30 8132 H 778.925 2.54169 1.66228 0
M  V30 8133 H 776.51 1.2851 0.76194 0
M  V30 8134 H 778.392 1.56545 3.91244 0
M  V30 8135 H 777.067 0.622811 3.17652 0
M  V30 8136 H 775.974 2.82435 2.45319 0
M  V30 8137 H 777.307 3.70303 3.24248 0
M  V30 8138 N 778.959 -0.83999 1.33349 0
M  V30 8139 C 780.207 -1.59202 1.24496 0
M  V30 8140 C 780.528 -1.94077 -0.189499 0
M  V30 8141 O 779.798 -1.60868 -1.11796 0
M  V30 8142 H 778.378 -0.590276 0.457802 0
M  V30 8143 H 781.04 -1.00394 1.67054 0
M  V30 8144 H 780.136 -2.52247 1.83788 0
M  V30 8145 N 780.437 -1.16799 -1.0581 0
M  V30 8146 C 781.685 -0.950642 -1.78346 0
M  V30 8147 C 782.006 0.522524 -1.87869 0
M  V30 8148 O 781.276 1.3795 -1.39092 0
M  V30 8149 H 779.856 -0.348736 -0.6606 0
M  V30 8150 H 782.518 -1.47158 -1.27791 0
M  V30 8151 H 781.614 -1.37359 -2.80248 0
M  V30 8152 N 781.915 1.24427 -0.967243 0
M  V30 8153 C 782.878 2.23637 -0.501927 0
M  V30 8154 C 783.878 1.55712 0.401283 0
M  V30 8155 O 785.068 1.73085 0.196808 0
M  V30 8156 C 782.2 3.39804 0.273176 0
M  V30 8157 H 783.393 2.66317 -1.37897 0
M  V30 8158 H 780.946 1.37033 -0.751783 0
M  V30 8159 H 781.681 3.02562 1.16733 0
M  V30 8160 H 781.466 3.90303 -0.37498 0
M  V30 8161 H 782.956 4.13443 0.587776 0
M  V30 8162 N 783.393 0.737304 1.3929 0
M  V30 8163 C 784.323 0.113988 2.33222 0
M  V30 8164 C 785.304 -0.721695 1.54031 0
M  V30 8165 O 786.489 -0.666206 1.82415 0
M  V30 8166 C 783.619 -0.792319 3.38141 0
M  V30 8167 C 782.573 -0.0606178 4.27957 0
M  V30 8168 C 781.899 -1.08409 5.23595 0
M  V30 8169 C 783.199 1.09817 5.10625 0
M  V30 8170 H 784.893 0.898611 2.85596 0
M  V30 8171 H 782.439 0.433571 1.37318 0
M  V30 8172 H 784.392 -1.23793 4.02807 0
M  V30 8173 H 783.116 -1.60908 2.84211 0
M  V30 8174 H 781.775 0.365393 3.64775 0
M  V30 8175 H 781.423 -1.89449 4.6596 0
M  V30 8176 H 781.123 -0.599269 5.84536 0
M  V30 8177 H 782.647 -1.52936 5.91137 0
M  V30 8178 H 784.061 0.730892 5.68622 0
M  V30 8179 H 782.458 1.51278 5.80719 0
M  V30 8180 H 783.528 1.91878 4.45321 0
M  V30 8181 N 784.871 -1.49948 0.485112 0
M  V30 8182 C 786.099 -2.06806 -0.0622824 0
M  V30 8183 C 786.514 -1.34736 -1.32256 0
M  V30 8184 O 785.871 -0.420836 -1.77582 0
M  V30 8185 C 785.922 -3.59934 -0.336096 0
M  V30 8186 O 785.643 -4.29289 0.874203 0
M  V30 8187 C 787.144 -4.33459 -0.928903 0
M  V30 8188 H 784.364 -0.670867 0.0133472 0
M  V30 8189 H 786.908 -1.92937 0.677917 0
M  V30 8190 H 785.063 -3.7356 -1.02625 0
M  V30 8191 H 785.477 -5.20735 0.627332 0
M  V30 8192 H 786.951 -5.41527 -1.07017 0
M  V30 8193 H 787.428 -3.94881 -1.92265 0
M  V30 8194 H 788.034 -4.24399 -0.276705 0
M  V30 8195 N 786.349 -0.21828 -1.56081 0
M  V30 8196 C 787.626 0.463143 -1.90038 0
M  V30 8197 C 788.006 1.77982 -1.13515 0
M  V30 8198 O 787.354 2.27199 -0.24345 0
M  V30 8199 C 787.564 0.659292 -3.42716 0
M  V30 8200 C 788.912 0.968203 -4.13414 0
M  V30 8201 O 789.936 0.746195 -3.48296 0
M  V30 8202 O 788.795 1.38936 -5.28544 0
M  V30 8203 H 785.889 0.244435 -0.790051 0
M  V30 8204 H 788.435 -0.260221 -1.67693 0
M  V30 8205 H 787.207 -0.269584 -3.9037 0
M  V30 8206 H 786.83 1.43426 -3.7083 0
M  V30 8207 N 787.827 1.57504 0.0551401 0
M  V30 8208 C 789.076 1.87237 0.750009 0
M  V30 8209 C 789.389 0.813268 1.77891 0
M  V30 8210 O 790.595 0.99898 2.52453 0
M  V30 8211 C 789.051 3.32187 1.38491 0
M  V30 8212 C 788.659 4.46267 0.393707 0
M  V30 8213 C 790.403 3.71101 2.06117 0
M  V30 8214 C 788.31 5.82265 1.03547 0
M  V30 8215 H 787.24 0.698524 0.283866 0
M  V30 8216 H 789.891 1.835 0.00365997 0
M  V30 8217 H 788.273 3.30588 2.18008 0
M  V30 8218 H 789.447 4.59289 -0.372865 0
M  V30 8219 H 787.762 4.16015 -0.17902 0
M  V30 8220 H 790.359 4.70012 2.54937 0
M  V30 8221 H 790.702 3.01751 2.86796 0
M  V30 8222 H 791.235 3.74762 1.33409 0
M  V30 8223 H 787.974 6.54949 0.268644 0
M  V30 8224 H 787.494 5.73012 1.7725 0
M  V30 8225 H 789.173 6.28148 1.55047 0
M  V30 8226 N 789.305 -0.326896 1.54172 0
M  V30 8227 C 790.551 -1.06681 1.72473 0
M  V30 8228 C 790.884 -1.87779 0.49523 0
M  V30 8229 O 790.159 -1.87754 -0.507803 0
M  V30 8230 C 790.442 -1.99429 2.99834 0
M  V30 8231 C 790.295 -1.21682 4.33028 0
M  V30 8232 C 791.614 -2.99002 3.22933 0
M  V30 8233 H 788.733 -0.386438 0.627563 0
M  V30 8234 H 791.375 -0.343779 1.86864 0
M  V30 8235 H 789.525 -2.61081 2.87696 0
M  V30 8236 H 791.197 -0.625153 4.57044 0
M  V30 8237 H 789.44 -0.519045 4.30684 0
M  V30 8238 H 790.111 -1.89766 5.18356 0
M  V30 8239 H 792.587 -2.4747 3.34511 0
M  V30 8240 H 791.463 -3.61085 4.13412 0
M  V30 8241 H 791.724 -3.71281 2.40006 0
M  V30 8242 N 790.784 -1.46188 -0.588786 0
M  V30 8243 C 792.012 -1.54743 -1.37339 0
M  V30 8244 C 792.427 -0.186446 -1.87877 0
M  V30 8245 O 791.784 0.815247 -1.63279 0
M  V30 8246 C 791.835 -2.54727 -2.56508 0
M  V30 8247 O 791.556 -3.85539 -2.08066 0
M  V30 8248 C 793.057 -2.73163 -3.49137 0
M  V30 8249 H 790.277 -0.523484 -0.419768 0
M  V30 8250 H 792.821 -1.91543 -0.716345 0
M  V30 8251 H 790.976 -2.20948 -3.18215 0
M  V30 8252 H 791.39 -4.39905 -2.85629 0
M  V30 8253 H 792.864 -3.47057 -4.2925 0
M  V30 8254 H 793.341 -1.79856 -4.00685 0
M  V30 8255 H 793.947 -3.08014 -2.9327 0
M  V30 8256 N 792.262 0.832906 -1.33792 0
M  V30 8257 C 793.212 1.93178 -1.21105 0
M  V30 8258 C 794.196 1.60506 -0.112491 0
M  V30 8259 O 795.388 1.73681 -0.341179 0
M  V30 8260 C 792.517 3.29647 -0.958526 0
M  V30 8261 C 791.603 3.68469 -2.0998 0
M  V30 8262 N 791.994 3.78936 -3.35024 0
M  V30 8263 C 790.292 3.98249 -2.00782 0
M  V30 8264 C 790.993 4.12731 -4.09912 0
M  V30 8265 N 789.969 4.25419 -3.38407 0
M  V30 8266 H 793.771 1.99434 -2.15878 0
M  V30 8267 H 791.285 1.02598 -1.25886 0
M  V30 8268 H 793.282 4.08173 -0.848552 0
M  V30 8269 H 791.942 3.24694 -0.019387 0
M  V30 8270 H 792.953 3.62688 -3.69699 0
M  V30 8271 H 789.63 4.01474 -1.14564 0
M  V30 8272 H 791.02 4.28117 -5.17847 0
M  V30 8273 N 793.74 1.17359 1.05189 0
M  V30 8274 C 794.968 0.986529 1.81866 0
M  V30 8275 C 795.383 -0.46522 1.82979 0
M  V30 8276 O 794.74 -1.32305 1.25705 0
M  V30 8277 C 794.791 1.52021 3.27982 0
M  V30 8278 O 794.512 2.91511 3.27037 0
M  V30 8279 C 796.013 1.37774 4.21347 0
M  V30 8280 H 793.233 0.349021 0.573084 0
M  V30 8281 H 795.777 1.55648 1.32643 0
M  V30 8282 H 793.932 0.992287 3.74476 0
M  V30 8283 H 794.346 3.16178 4.18488 0
M  V30 8284 H 795.82 1.7993 5.21852 0
M  V30 8285 H 796.297 0.32483 4.37997 0
M  V30 8286 H 796.903 1.89583 3.80708 0
M  V30 8287 N 795.218 -1.23913 0.973828 0
M  V30 8288 C 796.634 -1.44325 0.681363 0
M  V30 8289 C 796.834 -1.86832 -0.754728 0
M  V30 8290 O 795.89 -2.01024 -1.52793 0
M  V30 8291 C 797.203 -2.50017 1.67069 0
M  V30 8292 C 798.751 -2.63838 1.68399 0
M  V30 8293 C 799.226 -3.72734 2.66145 0
M  V30 8294 N 800.717 -3.80169 2.64624 0
M  V30 8295 C 801.452 -4.6397 3.36927 0
M  V30 8296 N 800.948 -5.51911 4.18767 0
M  V30 8297 N 802.741 -4.58106 3.25722 0
M  V30 8298 H 794.892 -0.946204 1.9016 0
M  V30 8299 H 797.155 -0.477374 0.819035 0
M  V30 8300 H 796.861 -2.25686 2.69738 0
M  V30 8301 H 796.735 -3.48287 1.4483 0
M  V30 8302 H 799.122 -2.87524 0.664379 0
M  V30 8303 H 799.203 -1.65906 1.94702 0
M  V30 8304 H 798.847 -3.49797 3.68245 0
M  V30 8305 H 798.777 -4.70193 2.3712 0
M  V30 8306 H 801.268 -3.17319 2.05224 0
M  V30 8307 H 801.581 -6.12828 4.70809 0
M  V30 8308 H 799.926 -5.51556 4.2286 0
M  V30 8309 H 803.117 -3.8842 2.61242 0
M  V30 8310 H 803.29 -5.23188 3.82333 0
M  V30 8311 N 796.696 -0.74468 -1.38897 0
M  V30 8312 C 797.629 -0.0596441 -2.28122 0
M  V30 8313 C 798.607 0.73764 -1.44906 0
M  V30 8314 O 799.791 0.718155 -1.74284 0
M  V30 8315 C 796.918 0.922533 -3.25894 0
M  V30 8316 C 795.964 0.212566 -4.2597 0
M  V30 8317 S 796.797 -1.08035 -5.24489 0
M  V30 8318 C 797.953 -0.101014 -6.25818 0
M  V30 8319 H 798.186 -0.816289 -2.85874 0
M  V30 8320 H 795.719 -0.536882 -1.44765 0
M  V30 8321 H 797.677 1.4839 -3.82741 0
M  V30 8322 H 796.338 1.65209 -2.67142 0
M  V30 8323 H 795.531 0.956106 -4.94848 0
M  V30 8324 H 795.133 -0.277029 -3.72973 0
M  V30 8325 H 797.425 0.736072 -6.7349 0
M  V30 8326 H 798.368 -0.757206 -7.0404 0
M  V30 8327 H 798.776 0.275706 -5.63826 0
M  V30 8328 N 798.174 1.49689 -0.493057 0
M  V30 8329 C 799.122 2.30613 0.303383 0
M  V30 8330 C 800.116 1.38867 0.970165 0
M  V30 8331 O 801.322 1.55956 0.898761 0
M  V30 8332 H 797.697 0.742891 0.116691 0
M  V30 8333 H 799.668 2.95717 -0.39924 0
M  V30 8334 C 798.417 3.20008 1.35978 0
M  V30 8335 H 797.74 3.90526 0.856103 0
M  V30 8336 H 799.18 3.79586 1.88919 0
M  V30 8337 C 797.639 2.39079 2.37367 0
M  V30 8338 O 798.169 2.08933 3.43089 0
M  V30 8339 N 796.375 2.0125 2.09635 0
M  V30 8340 H 795.922 2.25966 1.23682 0
M  V30 8341 H 795.88 1.47408 2.77702 0
M  V30 8342 N 799.652 0.226554 1.55963 0
M  V30 8343 C 800.562 -0.692725 2.24139 0
M  V30 8344 C 801.578 -1.20971 1.25068 0
M  V30 8345 O 802.754 -1.25027 1.57893 0
M  V30 8346 C 799.819 -1.88183 2.91184 0
M  V30 8347 C 798.88 -1.40633 4.05612 0
M  V30 8348 C 798.113 -2.53875 4.6945 0
M  V30 8349 O 798.336 -3.72129 4.32292 0
M  V30 8350 O 797.27 -2.24792 5.58348 0
M  V30 8351 H 801.096 -0.141921 3.03368 0
M  V30 8352 H 798.681 -0.0041049 1.49399 0
M  V30 8353 H 800.563 -2.57617 3.33484 0
M  V30 8354 H 799.238 -2.42064 2.14911 0
M  V30 8355 H 798.145 -0.67986 3.67871 0
M  V30 8356 H 799.478 -0.913838 4.83642 0
M  V30 8357 N 801.13 -1.57531 -0.0467866 0
M  V30 8358 C 802.04 -2.08768 -1.07018 0
M  V30 8359 C 803.056 -1.02245 -1.40791 0
M  V30 8360 O 804.232 -1.33873 -1.50466 0
M  V30 8361 C 801.297 -2.54221 -2.35738 0
M  V30 8362 C 800.358 -3.75152 -2.08709 0
M  V30 8363 C 799.591 -4.18428 -3.31291 0
M  V30 8364 O 799.814 -3.61365 -4.4133 0
M  V30 8365 O 798.748 -5.11018 -3.18032 0
M  V30 8366 H 802.574 -2.96334 -0.664812 0
M  V30 8367 H 800.159 -1.47074 -0.262605 0
M  V30 8368 H 802.041 -2.83866 -3.11445 0
M  V30 8369 H 800.716 -1.69774 -2.75605 0
M  V30 8370 H 799.623 -3.50553 -1.30627 0
M  V30 8371 H 800.956 -4.60528 -1.73708 0
M  V30 8372 N 802.608 0.318715 -1.54344 0
M  V30 8373 C 803.54 1.41364 -1.80413 0
M  V30 8374 C 804.553 1.47627 -0.686294 0
M  V30 8375 O 805.742 1.50264 -0.963486 0
M  V30 8376 C 802.842 2.79867 -1.91123 0
M  V30 8377 C 802.015 2.96749 -3.21339 0
M  V30 8378 C 801.074 4.15642 -3.22689 0
M  V30 8379 O 800.1 4.08571 -3.96306 0
M  V30 8380 N 801.302 5.25416 -2.46817 0
M  V30 8381 H 804.067 1.19363 -2.74905 0
M  V30 8382 H 801.628 0.508722 -1.537 0
M  V30 8383 H 803.62 3.57619 -1.89448 0
M  V30 8384 H 802.19 2.94896 -1.03706 0
M  V30 8385 H 801.41 2.06257 -3.35934 0
M  V30 8386 H 802.698 3.04927 -4.07304 0
M  V30 8387 H 802.096 5.34037 -1.86605 0
M  V30 8388 H 800.653 6.01569 -2.50915 0
M  V30 8389 N 804.086 1.46499 0.581025 0
M  V30 8390 C 805.335 1.51162 1.3354 0
M  V30 8391 C 805.648 0.168433 1.94873 0
M  V30 8392 O 806.854 0.092883 2.71341 0
M  V30 8393 C 805.31 2.66362 2.42032 0
M  V30 8394 C 804.918 4.07109 1.86994 0
M  V30 8395 C 806.662 2.80297 3.188 0
M  V30 8396 C 804.569 5.13645 2.93125 0
M  V30 8397 H 803.499 0.562576 0.502021 0
M  V30 8398 H 806.15 1.72713 0.619863 0
M  V30 8399 H 804.532 2.38143 3.16392 0
M  V30 8400 H 805.706 4.45125 1.19166 0
M  V30 8401 H 804.021 3.97854 1.22887 0
M  V30 8402 H 806.618 3.5706 3.9801 0
M  V30 8403 H 806.961 1.87875 3.71495 0
M  V30 8404 H 807.494 3.0817 2.51547 0
M  V30 8405 H 804.233 6.07866 2.45315 0
M  V30 8406 H 803.753 4.80172 3.59437 0
M  V30 8407 H 805.432 5.39562 3.57046 0
M  V30 8408 N 805.565 -0.825799 1.34232 0
M  V30 8409 C 806.528 -1.91808 1.25468 0
M  V30 8410 C 807.528 -1.59893 0.170567 0
M  V30 8411 O 808.718 -1.68986 0.422996 0
M  V30 8412 C 805.85 -3.27786 0.93644 0
M  V30 8413 H 807.043 -2.01003 2.22571 0
M  V30 8414 H 804.596 -1.01944 1.18479 0
M  V30 8415 H 805.331 -3.24285 -0.0315408 0
M  V30 8416 H 805.116 -3.52333 1.72057 0
M  V30 8417 H 806.606 -4.07782 0.900214 0
M  V30 8418 N 807.043 -1.17915 -1.04565 0
M  V30 8419 C 808.271 -0.99616 -1.8134 0
M  V30 8420 C 808.686 0.455509 -1.83223 0
M  V30 8421 O 808.043 1.31636 -1.26405 0
M  V30 8422 C 808.094 -1.53758 -3.27171 0
M  V30 8423 O 807.815 -2.93241 -3.25486 0
M  V30 8424 C 809.316 -1.40007 -4.2061 0
M  V30 8425 H 806.536 -0.352055 -0.571225 0
M  V30 8426 H 809.08 -1.56349 -1.31815 0
M  V30 8427 H 807.235 -1.01213 -3.73945 0
M  V30 8428 H 807.649 -3.18392 -4.16805 0
M  V30 8429 H 809.123 -1.82695 -5.2089 0
M  V30 8430 H 809.6 -0.348054 -4.37819 0
M  V30 8431 H 810.206 -1.916 -3.79697 0
M  V30 8432 N 808.521 1.23394 -0.980386 0
M  V30 8433 C 809.767 1.92094 -0.650223 0
M  V30 8434 C 810.1 1.76309 0.814173 0
M  V30 8435 O 809.375 1.12406 1.5873 0
M  V30 8436 C 809.658 3.44713 -1.04139 0
M  V30 8437 C 809.511 3.69606 -2.56342 0
M  V30 8438 C 810.83 4.36191 -0.585296 0
M  V30 8439 H 807.949 0.697618 -0.237695 0
M  V30 8440 H 810.591 1.45517 -1.22167 0
M  V30 8441 H 808.741 3.84513 -0.55515 0
M  V30 8442 H 810.413 3.39288 -3.1254 0
M  V30 8443 H 808.656 3.14318 -2.98976 0
M  V30 8444 H 809.327 4.76441 -2.78762 0
M  V30 8445 H 811.803 4.03836 -1.00276 0
M  V30 8446 H 810.679 5.41679 -0.887428 0
M  V30 8447 H 810.94 4.39097 0.51438 0
M  V30 8448 N 809.999 0.752036 1.385 0
M  V30 8449 C 811.239 0.312408 2.01998 0
M  V30 8450 C 811.603 -1.085 1.58404 0
M  V30 8451 O 812.804 -1.62365 2.14222 0
M  V30 8452 C 811.075 0.429423 3.54811 0
M  V30 8453 S 812.634 0.0721487 4.38741 0
M  V30 8454 H 809.452 0.1213 0.700576 0
M  V30 8455 H 812.054 0.982312 1.69029 0
M  V30 8456 H 810.758 1.44743 3.84028 0
M  V30 8457 H 810.289 -0.257716 3.92555 0
M  V30 8458 H 812.304 -1.13875 4.82957 0
M  V30 8459 N 811.477 -1.49425 0.500989 0
M  V30 8460 C 812.407 -2.31971 -0.266775 0
M  V30 8461 C 813.388 -1.40245 -0.962563 0
M  V30 8462 O 814.573 -1.69154 -0.953968 0
M  V30 8463 C 811.703 -3.20757 -1.33163 0
M  V30 8464 C 810.657 -4.21275 -0.75572 0
M  V30 8465 C 809.983 -4.98997 -1.92109 0
M  V30 8466 C 811.283 -5.21686 0.253213 0
M  V30 8467 H 812.977 -2.96408 0.422237 0
M  V30 8468 H 810.523 -1.4254 0.204505 0
M  V30 8469 H 812.476 -3.77315 -1.87646 0
M  V30 8470 H 811.2 -2.54263 -2.04983 0
M  V30 8471 H 809.859 -3.65861 -0.232637 0
M  V30 8472 H 809.507 -4.28951 -2.62698 0
M  V30 8473 H 809.207 -5.67011 -1.54182 0
M  V30 8474 H 810.731 -5.584 -2.47026 0
M  V30 8475 H 812.145 -5.72939 -0.203483 0
M  V30 8476 H 810.542 -5.9759 0.548322 0
M  V30 8477 H 811.612 -4.70596 1.16909 0
M  V30 8478 N 812.955 -0.234822 -1.55841 0
M  V30 8479 C 814.18 0.400741 -2.03492 0
M  V30 8480 C 814.605 1.51618 -1.11327 0
M  V30 8481 O 813.963 1.81002 -0.103922 0
M  V30 8482 C 814.011 0.897184 -3.49261 0
M  V30 8483 O 813.115 2.00764 -3.60233 0
M  V30 8484 H 812.456 0.0890023 -0.658008 0
M  V30 8485 H 814.986 -0.357345 -2.01455 0
M  V30 8486 H 814.996 1.20356 -3.89844 0
M  V30 8487 H 813.671 0.0808639 -4.15821 0
M  V30 8488 H 812.248 1.70689 -3.31541 0
M  V30 8489 N 814.433 1.57553 0.0384317 0
M  V30 8490 C 815.679 1.89121 0.732199 0
M  V30 8491 C 816.012 0.831404 1.75503 0
M  V30 8492 O 815.287 -0.154642 1.93884 0
M  V30 8493 C 815.57 3.31338 1.41021 0
M  V30 8494 C 815.423 4.48004 0.401532 0
M  V30 8495 C 816.742 3.72318 2.34665 0
M  V30 8496 H 813.861 0.687819 0.264715 0
M  V30 8497 H 816.503 1.89999 -0.00496279 0
M  V30 8498 H 814.653 3.3072 2.03854 0
M  V30 8499 H 816.325 4.60755 -0.224159 0
M  V30 8500 H 814.568 4.32895 -0.280092 0
M  V30 8501 H 815.239 5.44377 0.91423 0
M  V30 8502 H 817.715 3.74243 1.81883 0
M  V30 8503 H 816.591 4.72652 2.7909 0
M  V30 8504 H 816.852 3.04062 3.20934 0
M  V30 8505 N 815.911 -0.310526 1.54511 0
M  V30 8506 C 816.841 -1.38757 1.878 0
M  V30 8507 C 817.822 -1.53353 0.735991 0
M  V30 8508 O 819.007 -1.67018 0.990887 0
M  V30 8509 C 816.137 -2.75327 2.11689 0
M  V30 8510 C 815.091 -2.75506 3.27537 0
M  V30 8511 C 814.417 -4.15275 3.36824 0
M  V30 8512 C 815.717 -2.38093 4.64875 0
M  V30 8513 H 817.411 -1.11146 2.78005 0
M  V30 8514 H 814.957 -0.533232 1.33763 0
M  V30 8515 H 816.91 -3.50752 2.33562 0
M  V30 8516 H 815.634 -3.04443 1.18245 0
M  V30 8517 H 814.293 -2.02538 3.05572 0
M  V30 8518 H 813.941 -4.41553 2.40915 0
M  V30 8519 H 813.641 -4.16299 4.14692 0
M  V30 8520 H 815.165 -4.92493 3.60947 0
M  V30 8521 H 816.579 -3.03232 4.86542 0
M  V30 8522 H 814.976 -2.50345 5.45387 0
M  V30 8523 H 816.046 -1.33227 4.66239 0
M  V30 8524 N 817.389 -1.46805 -0.573248 0
M  V30 8525 C 818.805 -1.31969 -0.897577 0
M  V30 8526 C 819.005 -0.298171 -1.99282 0
M  V30 8527 O 818.061 0.295953 -2.5076 0
M  V30 8528 C 819.374 -2.70859 -1.30598 0
M  V30 8529 C 820.922 -2.79022 -1.4183 0
M  V30 8530 C 821.397 -4.18516 -1.86033 0
M  V30 8531 N 822.888 -4.2098 -1.9321 0
M  V30 8532 C 823.623 -5.25814 -2.28707 0
M  V30 8533 N 823.119 -6.40968 -2.6293 0
M  V30 8534 N 824.912 -5.13184 -2.29343 0
M  V30 8535 H 817.063 -2.11869 0.150094 0
M  V30 8536 H 819.326 -0.947989 0.00447895 0
M  V30 8537 H 819.032 -3.46965 -0.575161 0
M  V30 8538 H 818.906 -3.01585 -2.26554 0
M  V30 8539 H 821.293 -2.03198 -2.13996 0
M  V30 8540 H 821.374 -2.51969 -0.441024 0
M  V30 8541 H 821.018 -4.94839 -1.14442 0
M  V30 8542 H 820.948 -4.42982 -2.84735 0
M  V30 8543 H 823.439 -3.37898 -1.69214 0
M  V30 8544 H 823.752 -7.16729 -2.88996 0
M  V30 8545 H 822.097 -6.44314 -2.60547 0
M  V30 8546 H 825.288 -4.22255 -2.02036 0
M  V30 8547 H 825.461 -5.94996 -2.56679 0
M  V30 8548 N 818.867 0.818669 -1.34668 0
M  V30 8549 C 819.83 1.9114 -1.26483 0
M  V30 8550 C 820.83 1.598 -0.179044 0
M  V30 8551 O 822.02 1.6876 -0.431952 0
M  V30 8552 C 819.152 3.27285 -0.95381 0
M  V30 8553 H 820.345 1.9982 -2.23634 0
M  V30 8554 H 817.898 1.01314 -1.19018 0
M  V30 8555 H 818.633 3.24297 0.0143428 0
M  V30 8556 H 818.418 3.51416 -1.73924 0
M  V30 8557 H 819.908 4.07299 -0.921827 0
M  V30 8558 N 820.346 1.18468 1.03938 0
M  V30 8559 C 821.276 0.936389 2.13902 0
M  V30 8560 C 822.257 -0.126381 1.6963 0
M  V30 8561 O 823.442 0.0264757 1.94182 0
M  V30 8562 C 820.572 0.462729 3.44204 0
M  V30 8563 C 819.526 1.46613 4.02105 0
M  V30 8564 C 818.852 0.84994 5.27902 0
M  V30 8565 C 820.152 2.84323 4.3813 0
M  V30 8566 H 821.846 1.85602 2.3493 0
M  V30 8567 H 819.392 0.893806 1.12903 0
M  V30 8568 H 821.345 0.276382 4.20493 0
M  V30 8569 H 820.069 -0.492477 3.22866 0
M  V30 8570 H 818.728 1.63944 3.27899 0
M  V30 8571 H 818.376 -0.112493 5.02874 0
M  V30 8572 H 818.076 1.51988 5.67603 0
M  V30 8573 H 819.6 0.674152 6.06867 0
M  V30 8574 H 821.014 2.70636 5.054 0
M  V30 8575 H 819.411 3.48012 4.88884 0
M  V30 8576 H 820.481 3.37776 3.47901 0
M  V30 8577 N 821.824 -1.22873 0.986916 0
M  V30 8578 C 823.049 -1.96028 0.677341 0
M  V30 8579 C 823.474 -1.72487 -0.750319 0
M  V30 8580 O 822.832 -1.00036 -1.51203 0
M  V30 8581 C 822.88 -3.46983 0.981593 0
M  V30 8582 O 821.984 -4.12328 0.0770729 0
M  V30 8583 H 821.325 -0.613458 0.254096 0
M  V30 8584 H 823.855 -1.56132 1.32227 0
M  V30 8585 H 823.865 -3.9747 0.920969 0
M  V30 8586 H 822.54 -3.63442 2.02194 0
M  V30 8587 H 821.117 -3.72402 0.192666 0
M  V30 8588 N 823.302 -0.75937 -1.38099 0
M  V30 8589 C 824.532 -0.328634 -2.0397 0
M  V30 8590 C 824.94 1.04989 -1.57398 0
M  V30 8591 O 824.283 1.67918 -0.744932 0
M  V30 8592 C 824.345 -0.279216 -3.58414 0
M  V30 8593 C 824.009 -1.60025 -4.28067 0
M  V30 8594 C 825.006 -2.55048 -4.53041 0
M  V30 8595 C 822.691 -1.87128 -4.66142 0
M  V30 8596 C 824.685 -3.7539 -5.15132 0
M  V30 8597 C 822.372 -3.07742 -5.27956 0
M  V30 8598 C 823.37 -4.01694 -5.52387 0
M  V30 8599 O 823.058 -5.20186 -6.12912 0
M  V30 8600 H 822.79 -0.137443 -0.66188 0
M  V30 8601 H 825.344 -1.03082 -1.77661 0
M  V30 8602 H 823.574 0.479254 -3.83719 0
M  V30 8603 H 825.263 0.122781 -4.05714 0
M  V30 8604 H 826.029 -2.35387 -4.24049 0
M  V30 8605 H 821.908 -1.14833 -4.46469 0
M  V30 8606 H 825.452 -4.48737 -5.34117 0
M  V30 8607 H 821.349 -3.27294 -5.56371 0
M  V30 8608 H 822.117 -5.20846 -6.31397 0
M  V30 8609 N 824.78 1.49157 -0.508906 0
M  V30 8610 C 825.71 2.32109 0.254469 0
M  V30 8611 C 826.691 1.40754 0.955111 0
M  V30 8612 O 827.876 1.69658 0.944983 0
M  V30 8613 C 825.006 3.21458 1.3146 0
M  V30 8614 C 823.96 4.2167 0.733368 0
M  V30 8615 C 823.286 5.00009 1.8946 0
M  V30 8616 C 824.586 5.21544 -0.280875 0
M  V30 8617 H 826.28 2.9618 -0.43795 0
M  V30 8618 H 823.826 1.4243 -0.212062 0
M  V30 8619 H 825.779 3.78305 1.85643 0
M  V30 8620 H 824.503 2.55346 2.03632 0
M  V30 8621 H 823.162 3.65979 0.213231 0
M  V30 8622 H 822.81 4.30338 2.60419 0
M  V30 8623 H 822.51 5.67821 1.51173 0
M  V30 8624 H 824.034 5.59702 2.44061 0
M  V30 8625 H 825.448 5.73039 0.173095 0
M  V30 8626 H 823.845 5.97291 -0.580006 0
M  V30 8627 H 824.915 4.69969 -1.19404 0
M  V30 8628 N 826.258 0.243083 1.55714 0
M  V30 8629 C 827.208 -0.671915 2.17875 0
M  V30 8630 C 828.192 -1.14199 1.13347 0
M  V30 8631 O 829.384 -1.09239 1.39269 0
M  V30 8632 C 826.513 -1.87027 2.87881 0
M  V30 8633 C 825.599 -1.41888 3.99661 0
M  V30 8634 N 825.99 -0.681465 5.01188 0
M  V30 8635 C 824.288 -1.70447 4.12145 0
M  V30 8636 C 824.989 -0.448285 5.7997 0
M  V30 8637 N 823.965 -1.01137 5.34109 0
M  V30 8638 H 827.767 -0.100321 2.93729 0
M  V30 8639 H 825.281 0.0452371 1.62337 0
M  V30 8640 H 827.278 -2.53674 3.3084 0
M  V30 8641 H 825.938 -2.44613 2.13529 0
M  V30 8642 H 826.949 -0.331959 5.16835 0
M  V30 8643 H 823.626 -2.29198 3.48962 0
M  V30 8644 H 825.016 0.140141 6.71754 0
M  V30 8645 N 827.736 -1.57571 -0.0300757 0
M  V30 8646 C 828.684 -2.0758 -1.04944 0
M  V30 8647 C 829.678 -0.989384 -1.37505 0
M  V30 8648 O 830.884 -1.17427 -1.36422 0
M  V30 8649 H 827.259 -0.662419 -0.355956 0
M  V30 8650 H 829.23 -2.92268 -0.601848 0
M  V30 8651 C 827.979 -2.5698 -2.34215 0
M  V30 8652 H 827.302 -3.40193 -2.10021 0
M  V30 8653 H 828.742 -2.95682 -3.03888 0
M  V30 8654 C 827.201 -1.47059 -3.03109 0
M  V30 8655 O 827.731 -0.83625 -3.92899 0
M  V30 8656 N 825.937 -1.20538 -2.64422 0
M  V30 8657 H 825.484 -1.72305 -1.9149 0
M  V30 8658 H 825.442 -0.472045 -3.10836 0
M  V30 8659 N 829.214 0.302327 -1.54673 0
M  V30 8660 C 830.146 1.39443 -1.81902 0
M  V30 8661 C 831.159 1.46891 -0.701914 0
M  V30 8662 O 832.348 1.49233 -0.979369 0
M  V30 8663 C 829.448 2.77824 -1.9408 0
M  V30 8664 C 828.621 2.93324 -3.24468 0
M  V30 8665 C 827.68 4.12196 -3.27079 0
M  V30 8666 O 826.706 4.04344 -4.00617 0
M  V30 8667 N 827.908 5.22768 -2.52376 0
M  V30 8668 H 830.673 1.1644 -2.76155 0
M  V30 8669 H 828.234 0.492392 -1.54231 0
M  V30 8670 H 830.226 3.5559 -1.9323 0
M  V30 8671 H 828.796 2.9378 -1.06828 0
M  V30 8672 H 828.016 2.02682 -3.38103 0
M  V30 8673 H 829.304 3.0059 -4.10516 0
M  V30 8674 H 828.702 5.32027 -1.92259 0
M  V30 8675 H 827.259 5.98874 -2.57281 0
M  V30 8676 N 830.692 1.47107 0.565454 0
M  V30 8677 C 831.94 1.53005 1.32038 0
M  V30 8678 C 832.261 0.190453 1.94068 0
M  V30 8679 O 831.531 -0.784783 1.79494 0
M  V30 8680 H 830.111 0.563578 0.490294 0
M  V30 8681 H 832.773 1.83351 0.660928 0
M  V30 8682 H 831.869 2.29215 2.11818 0
M  V30 8683 N 832.17 -0.811516 1.35101 0
M  V30 8684 C 833.416 -1.57068 1.28287 0
M  V30 8685 C 833.749 -1.93667 -0.143808 0
M  V30 8686 O 833.024 -1.60953 -1.09199 0
M  V30 8687 C 833.307 -2.86259 2.18466 0
M  V30 8688 C 833.16 -2.56168 3.69727 0
M  V30 8689 C 834.479 -3.87924 2.07852 0
M  V30 8690 H 831.598 -0.569869 0.467353 0
M  V30 8691 H 834.24 -0.934023 1.65457 0
M  V30 8692 H 832.39 -3.4059 1.86898 0
M  V30 8693 H 834.062 -2.08059 4.11715 0
M  V30 8694 H 832.305 -1.89436 3.90252 0
M  V30 8695 H 832.976 -3.48344 4.28206 0
M  V30 8696 H 835.452 -3.4298 2.35593 0
M  V30 8697 H 834.328 -4.76106 2.73157 0
M  V30 8698 H 834.589 -4.2923 1.05896 0
M  V30 8699 N 833.648 -1.19017 -1.03309 0
M  V30 8700 C 834.897 -0.984542 -1.76039 0
M  V30 8701 C 835.21 0.485937 -1.89468 0
M  V30 8702 O 836.416 0.810278 -2.59127 0
M  V30 8703 C 834.872 -1.71261 -3.1654 0
M  V30 8704 C 834.48 -3.22291 -3.11179 0
M  V30 8705 C 836.224 -1.59007 -3.93595 0
M  V30 8706 C 834.131 -3.87704 -4.46587 0
M  V30 8707 H 833.061 -0.364749 -0.659905 0
M  V30 8708 H 835.712 -1.4247 -1.15649 0
M  V30 8709 H 834.094 -1.20025 -3.77373 0
M  V30 8710 H 835.268 -3.80611 -2.59753 0
M  V30 8711 H 833.583 -3.34772 -2.47622 0
M  V30 8712 H 836.18 -2.05232 -4.93745 0
M  V30 8713 H 836.523 -0.543534 -4.12736 0
M  V30 8714 H 837.056 -2.07564 -3.39355 0
M  V30 8715 H 833.795 -4.92437 -4.3265 0
M  V30 8716 H 833.315 -3.34172 -4.98085 0
M  V30 8717 H 834.994 -3.91008 -5.15482 0
M  V30 8718 N 835.127 1.22348 -0.993418 0
M  V30 8719 C 836.077 2.221 -0.515333 0
M  V30 8720 C 837.061 1.55409 0.416762 0
M  V30 8721 O 838.253 1.75317 0.243497 0
M  V30 8722 C 835.382 3.42888 0.168173 0
M  V30 8723 C 834.468 4.16786 -0.784257 0
M  V30 8724 N 834.859 4.67435 -1.93231 0
M  V30 8725 C 833.157 4.41942 -0.600243 0
M  V30 8726 C 833.858 5.23792 -2.53016 0
M  V30 8727 N 832.834 5.12483 -1.8128 0
M  V30 8728 H 836.636 2.58902 -1.39093 0
M  V30 8729 H 834.15 1.38024 -0.855747 0
M  V30 8730 H 836.147 4.13542 0.528069 0
M  V30 8731 H 834.807 3.07598 1.03989 0
M  V30 8732 H 835.818 4.63375 -2.31309 0
M  V30 8733 H 832.495 4.16891 0.225369 0
M  V30 8734 H 833.885 5.73515 -3.50043 0
M  V30 8735 N 836.605 0.766683 1.37694 0
M  V30 8736 C 838.021 0.445739 1.53249 0
M  V30 8737 C 838.221 -1.03935 1.72626 0
M  V30 8738 O 837.277 -1.82525 1.74473 0
M  V30 8739 C 838.59 1.2564 2.73194 0
M  V30 8740 C 840.138 1.24779 2.87053 0
M  V30 8741 C 840.613 2.04169 4.09974 0
M  V30 8742 N 842.104 2.01497 4.17077 0
M  V30 8743 C 842.839 2.5971 5.11212 0
M  V30 8744 N 842.335 3.26691 6.10938 0
M  V30 8745 N 844.128 2.49568 5.03659 0
M  V30 8746 H 836.279 1.72899 1.23368 0
M  V30 8747 H 838.542 0.733701 0.600322 0
M  V30 8748 H 838.248 2.30859 2.65324 0
M  V30 8749 H 838.122 0.882133 3.6674 0
M  V30 8750 H 840.509 0.203603 2.94397 0
M  V30 8751 H 840.59 1.66166 1.9448 0
M  V30 8752 H 840.234 3.08606 4.03392 0
M  V30 8753 H 840.164 1.60167 5.01651 0
M  V30 8754 H 842.655 1.52728 3.45662 0
M  V30 8755 H 842.968 3.68497 6.79286 0
M  V30 8756 H 841.313 3.30789 6.11231 0
M  V30 8757 H 844.504 1.96859 4.24693 0
M  V30 8758 H 844.677 2.95231 5.76839 0
M  V30 8759 N 838.083 -1.48885 0.516809 0
M  V30 8760 C 839.36 -1.95412 -0.0858293 0
M  V30 8761 C 839.74 -1.45875 -1.5259 0
M  V30 8762 O 839.088 -0.679415 -2.18166 0
M  V30 8763 C 839.298 -3.48995 0.0178194 0
M  V30 8764 C 840.646 -4.24342 -0.14813 0
M  V30 8765 O 841.67 -3.56155 -0.0566125 0
M  V30 8766 O 840.529 -5.45454 -0.338035 0
M  V30 8767 H 837.623 -0.822455 -0.0865884 0
M  V30 8768 H 840.169 -1.59464 0.580472 0
M  V30 8769 H 838.941 -3.77732 1.02147 0
M  V30 8770 H 838.564 -3.91604 -0.687924 0
M  V30 8771 N 839.561 -0.251338 -1.55583 0
M  V30 8772 C 840.81 0.372681 -1.98227 0
M  V30 8773 C 841.123 1.58743 -1.1428 0
M  V30 8774 O 842.329 2.28289 -1.46957 0
M  V30 8775 C 840.785 0.714439 -3.52738 0
M  V30 8776 C 840.393 -0.479168 -4.4543 0
M  V30 8777 C 842.137 1.3024 -4.04027 0
M  V30 8778 C 840.044 -0.113318 -5.91291 0
M  V30 8779 H 838.974 0.14302 -0.740312 0
M  V30 8780 H 841.625 -0.352253 -1.80087 0
M  V30 8781 H 840.007 1.49762 -3.66589 0
M  V30 8782 H 841.181 -1.25644 -4.4334 0
M  V30 8783 H 839.496 -0.982359 -4.04646 0
M  V30 8784 H 842.093 1.58953 -5.10527 0
M  V30 8785 H 842.436 2.22837 -3.51638 0
M  V30 8786 H 842.969 0.582024 -3.93519 0
M  V30 8787 H 839.708 -1.00654 -6.47726 0
M  V30 8788 H 839.228 0.627666 -5.96507 0
M  V30 8789 H 840.907 0.30293 -6.4629 0
M  V30 8790 N 841.039 1.57585 0.0217189 0
M  V30 8791 C 841.986 2.07036 1.02004 0
M  V30 8792 C 842.956 0.96106 1.35473 0
M  V30 8793 O 844.141 1.23211 1.45684 0
M  V30 8794 C 841.281 2.56056 2.31364 0
M  V30 8795 C 840.394 3.80805 2.03989 0
M  V30 8796 C 839.529 4.18409 3.27272 0
M  V30 8797 C 838.568 5.36055 2.95486 0
M  V30 8798 N 837.705 5.69056 4.11242 0
M  V30 8799 H 842.545 2.92073 0.591396 0
M  V30 8800 H 840.082 1.44403 0.280384 0
M  V30 8801 H 842.04 2.82548 3.06957 0
M  V30 8802 H 840.67 1.73925 2.71937 0
M  V30 8803 H 839.722 3.61354 1.1886 0
M  V30 8804 H 841.034 4.66512 1.76546 0
M  V30 8805 H 840.188 4.46068 4.11228 0
M  V30 8806 H 838.927 3.31369 3.57835 0
M  V30 8807 H 837.932 5.08142 2.09933 0
M  V30 8808 H 839.157 6.24755 2.66193 0
M  V30 8809 H 837.103 4.84974 4.41742 0
M  V30 8810 H 837.02 6.49288 3.87247 0
M  V30 8811 H 838.288 6.01295 4.96049 0
M  V30 8812 N 842.517 -0.29412 1.54831 0
M  V30 8813 C 843.742 -1.05156 1.78765 0
M  V30 8814 C 844.167 -1.79916 0.548809 0
M  V30 8815 O 843.525 -1.74243 -0.500909 0
M  V30 8816 C 843.573 -2.00242 2.99893 0
M  V30 8817 O 842.677 -3.08662 2.73499 0
M  V30 8818 H 842.018 -0.301737 0.591482 0
M  V30 8819 H 844.548 -0.329449 2.0193 0
M  V30 8820 H 844.558 -2.42583 3.28051 0
M  V30 8821 H 843.233 -1.45235 3.89717 0
M  V30 8822 H 841.81 -2.70786 2.56377 0
M  V30 8823 N 843.995 -1.47404 -0.557645 0
M  V30 8824 C 845.272 -1.44488 -1.31843 0
M  V30 8825 C 845.652 -0.1416 -2.10625 0
M  V30 8826 O 845 0.876908 -2.11004 0
M  V30 8827 C 845.21 -2.69016 -2.22331 0
M  V30 8828 C 846.558 -3.16212 -2.83364 0
M  V30 8829 O 847.582 -2.69741 -2.32634 0
M  V30 8830 O 846.441 -3.96999 -3.75571 0
M  V30 8831 H 843.535 -0.57578 -0.593639 0
M  V30 8832 H 846.081 -1.59605 -0.576584 0
M  V30 8833 H 844.853 -3.55406 -1.63715 0
M  V30 8834 H 844.476 -2.56484 -3.03812 0
M  V30 8835 N 845.473 0.80434 -1.35529 0
M  V30 8836 C 846.698 1.598 -1.32207 0
M  V30 8837 C 847.123 1.87848 0.0974226 0
M  V30 8838 O 846.481 1.46728 1.06492 0
M  V30 8839 C 846.529 2.90483 -2.13663 0
M  V30 8840 O 845.633 3.83411 -1.51888 0
M  V30 8841 H 844.974 0.485305 -0.453183 0
M  V30 8842 H 847.504 0.998119 -1.78602 0
M  V30 8843 H 847.514 3.39888 -2.257 0
M  V30 8844 H 846.189 2.69395 -3.16859 0
M  V30 8845 H 844.766 3.41967 -1.48704 0
M  V30 8846 N 846.951 1.19563 1.02676 0
M  V30 8847 C 848.2 0.993864 1.75514 0
M  V30 8848 C 848.513 -0.475882 1.89723 0
M  V30 8849 O 849.719 -0.796525 2.59553 0
M  V30 8850 C 848.175 1.72937 3.15628 0
M  V30 8851 C 847.783 3.23937 3.09466 0
M  V30 8852 C 849.527 1.61092 3.92746 0
M  V30 8853 C 847.434 3.90067 4.44524 0
M  V30 8854 H 846.364 0.368244 0.657961 0
M  V30 8855 H 849.015 1.43081 1.14891 0
M  V30 8856 H 847.397 1.22025 3.76731 0
M  V30 8857 H 848.571 3.81983 2.57731 0
M  V30 8858 H 846.886 3.3608 2.45843 0
M  V30 8859 H 849.483 2.07848 4.92649 0
M  V30 8860 H 849.826 0.565415 4.12442 0
M  V30 8861 H 850.359 2.09361 3.3825 0
M  V30 8862 H 847.098 4.94725 4.30032 0
M  V30 8863 H 846.618 3.36809 4.96306 0
M  V30 8864 H 848.297 3.93736 5.13401 0
M  V30 8865 N 848.429 -1.21819 0.999893 0
M  V30 8866 C 849.359 -2.26282 0.576096 0
M  V30 8867 C 850.34 -1.65317 -0.400537 0
M  V30 8868 O 851.525 -1.92028 -0.28964 0
M  V30 8869 C 848.655 -3.47147 -0.103145 0
M  V30 8870 C 847.609 -4.20594 0.792745 0
M  V30 8871 C 846.935 -5.34696 -0.0198026 0
M  V30 8872 C 848.235 -4.78533 2.09293 0
M  V30 8873 H 849.929 -2.61984 1.4493 0
M  V30 8874 H 847.475 -1.25935 0.698316 0
M  V30 8875 H 849.428 -4.1939 -0.411068 0
M  V30 8876 H 848.152 -3.1056 -1.01094 0
M  V30 8877 H 846.811 -3.50194 1.08442 0
M  V30 8878 H 846.459 -4.94352 -0.928729 0
M  V30 8879 H 846.159 -5.84764 0.576661 0
M  V30 8880 H 847.683 -6.09752 -0.321659 0
M  V30 8881 H 849.097 -5.42682 1.8485 0
M  V30 8882 H 847.494 -5.38968 2.63881 0
M  V30 8883 H 848.564 -3.98197 2.76708 0
M  V30 8884 N 849.908 -0.773975 -1.37286 0
M  V30 8885 C 850.838 -0.175782 -2.32837 0
M  V30 8886 C 851.819 0.680603 -1.5589 0
M  V30 8887 O 853.004 0.617607 -1.84117 0
M  V30 8888 C 850.134 0.702388 -3.40123 0
M  V30 8889 C 849.088 -0.0528687 -4.27967 0
M  V30 8890 C 848.414 0.944891 -5.26285 0
M  V30 8891 C 849.714 -1.23316 -5.07534 0
M  V30 8892 H 851.408 -0.974016 -2.83114 0
M  V30 8893 H 848.954 -0.469826 -1.3612 0
M  V30 8894 H 850.907 1.13069 -4.05947 0
M  V30 8895 H 849.631 1.53316 -2.88378 0
M  V30 8896 H 848.29 -0.461978 -3.63678 0
M  V30 8897 H 847.938 1.77028 -4.70819 0
M  V30 8898 H 847.638 0.444079 -5.8592 0
M  V30 8899 H 849.162 1.37209 -5.94984 0
M  V30 8900 H 850.576 -0.881395 -5.66484 0
M  V30 8901 H 848.973 -1.66621 -5.76504 0
M  V30 8902 H 850.043 -2.03617 -4.40077 0
M  V30 8903 N 851.386 1.48609 -0.524698 0
M  V30 8904 C 852.614 2.06899 0.00742946 0
M  V30 8905 C 853.029 1.38196 1.28637 0
M  V30 8906 O 852.386 0.467771 1.76403 0
M  V30 8907 C 852.437 3.60699 0.240548 0
M  V30 8908 O 852.158 4.26821 -0.987715 0
M  V30 8909 C 853.659 4.35769 0.813652 0
M  V30 8910 H 850.879 0.670278 -0.0311294 0
M  V30 8911 H 853.423 1.91071 -0.728832 0
M  V30 8912 H 851.578 3.76149 0.926845 0
M  V30 8913 H 851.992 5.18889 -0.765175 0
M  V30 8914 H 853.466 5.44174 0.926219 0
M  V30 8915 H 853.943 3.9984 1.81728 0
M  V30 8916 H 854.549 4.24983 0.164086 0
M  V30 8917 N 852.864 0.259585 1.55447 0
M  V30 8918 C 854.089 -0.368317 2.04103 0
M  V30 8919 C 854.514 -1.49827 1.13725 0
M  V30 8920 O 853.872 -1.80814 0.132705 0
M  V30 8921 C 853.92 -0.841506 3.50644 0
M  V30 8922 O 853.024 -1.95008 3.63381 0
M  V30 8923 H 852.365 -0.0785227 0.659341 0
M  V30 8924 H 854.895 0.389349 2.00861 0
M  V30 8925 H 854.905 -1.14138 3.9171 0
M  V30 8926 H 853.58 -0.0147001 4.15897 0
M  V30 8927 H 852.157 -1.65393 3.34215 0
M  V30 8928 N 854.342 -1.57594 -0.0133615 0
M  V30 8929 C 855.619 -1.81173 -0.737273 0
M  V30 8930 C 855.999 -0.861395 -1.92726 0
M  V30 8931 O 855.347 0.0929324 -2.28311 0
M  V30 8932 C 855.557 -3.29314 -1.15557 0
M  V30 8933 C 856.905 -3.94707 -1.56498 0
M  V30 8934 O 857.929 -3.33557 -1.24973 0
M  V30 8935 O 856.788 -5.02402 -2.15069 0
M  V30 8936 H 853.882 -0.745575 -0.357837 0
M  V30 8937 H 856.428 -1.69696 0.0110674 0
M  V30 8938 H 855.2 -3.90096 -0.30677 0
M  V30 8939 H 854.823 -3.45739 -1.96343 0
M  V30 8940 N 855.82 0.285905 -1.54985 0
M  V30 8941 C 857.068 1.01718 -1.74636 0
M  V30 8942 C 857.389 1.87277 -0.543342 0
M  V30 8943 O 856.659 1.90847 0.442078 0
M  V30 8944 H 855.239 0.378549 -0.643979 0
M  V30 8945 H 857.901 0.313247 -1.92366 0
M  V30 8946 H 856.997 1.66159 -2.64192 0
M  V30 8947 N 857.298 1.47698 0.54982 0
M  V30 8948 C 858.714 1.3338 0.876468 0
M  V30 8949 C 858.914 0.329837 1.98782 0
M  V30 8950 O 857.97 -0.256022 2.51199 0
M  V30 8951 C 859.283 2.72903 1.26272 0
M  V30 8952 C 860.831 2.81243 1.37373 0
M  V30 8953 C 861.306 4.21423 1.79351 0
M  V30 8954 N 862.797 4.24 1.86489 0
M  V30 8955 C 863.532 5.29386 2.20313 0
M  V30 8956 N 863.028 6.4507 2.527 0
M  V30 8957 N 864.821 5.16768 2.2115 0
M  V30 8958 H 856.972 2.11603 -0.183781 0
M  V30 8959 H 859.235 0.947798 -0.0195601 0
M  V30 8960 H 858.941 3.47836 0.519889 0
M  V30 8961 H 858.815 3.05151 2.21727 0
M  V30 8962 H 861.202 2.06577 2.10737 0
M  V30 8963 H 861.283 2.52639 0.400882 0
M  V30 8964 H 860.927 4.96597 1.06555 0
M  V30 8965 H 860.857 4.47456 2.77652 0
M  V30 8966 H 863.348 3.40547 1.63817 0
M  V30 8967 H 863.661 7.21236 2.77557 0
M  V30 8968 H 862.006 6.48377 2.50263 0
M  V30 8969 H 865.197 4.25416 1.95293 0
M  V30 8970 H 865.37 5.99004 2.4718 0
M  V30 8971 N 858.776 -0.797141 1.35954 0
M  V30 8972 C 860.025 -1.54983 1.29086 0
M  V30 8973 C 860.338 -1.95167 -0.130003 0
M  V30 8974 O 861.544 -2.69596 -0.32101 0
M  V30 8975 C 860 -2.79738 2.26439 0
M  V30 8976 C 859.608 -2.46753 3.73921 0
M  V30 8977 C 861.352 -3.57733 2.28533 0
M  V30 8978 C 859.259 -3.67858 4.63071 0
M  V30 8979 H 858.189 -0.581766 0.479651 0
M  V30 8980 H 860.84 -0.87541 1.61273 0
M  V30 8981 H 859.222 -3.48939 1.87236 0
M  V30 8982 H 860.396 -1.85499 4.21814 0
M  V30 8983 H 858.711 -1.81985 3.74527 0
M  V30 8984 H 861.308 -4.47699 2.92351 0
M  V30 8985 H 861.651 -3.95754 1.29169 0
M  V30 8986 H 862.184 -2.95504 2.66313 0
M  V30 8987 H 858.923 -3.34939 5.63468 0
M  V30 8988 H 858.443 -4.28305 4.19898 0
M  V30 8989 H 860.122 -4.34977 4.78961 0
M  V30 8990 N 860.254 -1.20106 -1.0204 0
M  V30 8991 C 861.201 -0.946468 -2.10501 0
M  V30 8992 C 862.171 0.121902 -1.65652 0
M  V30 8993 O 863.356 -0.0220244 -1.90787 0
M  V30 8994 C 860.496 -0.500499 -3.41451 0
M  V30 8995 C 859.609 -1.63659 -3.998 0
M  V30 8996 C 858.744 -1.14131 -5.18794 0
M  V30 8997 C 857.783 -2.25074 -5.69217 0
M  V30 8998 N 856.92 -1.76791 -6.79477 0
M  V30 8999 H 861.76 -1.87506 -2.31615 0
M  V30 9000 H 859.297 -0.934693 -1.13587 0
M  V30 9001 H 861.255 -0.223276 -4.16602 0
M  V30 9002 H 859.885 0.391099 -3.20422 0
M  V30 9003 H 858.937 -2.02882 -3.21781 0
M  V30 9004 H 860.249 -2.47213 -4.33229 0
M  V30 9005 H 859.403 -0.819826 -6.01135 0
M  V30 9006 H 858.142 -0.275615 -4.86921 0
M  V30 9007 H 857.147 -2.58043 -4.85483 0
M  V30 9008 H 858.372 -3.12114 -6.03127 0
M  V30 9009 H 856.318 -0.925428 -6.4944 0
M  V30 9010 H 856.235 -2.53928 -7.12079 0
M  V30 9011 H 857.503 -1.47631 -7.65392 0
M  V30 9012 N 861.732 1.21287 -1.00634 0
M  V30 9013 C 862.662 2.25973 -0.588089 0
M  V30 9014 C 863.643 1.65527 0.391764 0
M  V30 9015 O 864.828 1.92179 0.279452 0
M  V30 9016 C 861.958 3.47197 0.0847336 0
M  V30 9017 C 860.912 4.20168 -0.815039 0
M  V30 9018 C 860.238 5.34699 -0.00855393 0
M  V30 9019 C 861.538 4.77416 -2.11828 0
M  V30 9020 H 863.232 2.61212 -1.46317 0
M  V30 9021 H 860.778 1.25563 -0.704985 0
M  V30 9022 H 862.731 4.19602 0.388821 0
M  V30 9023 H 861.455 3.11092 0.994456 0
M  V30 9024 H 860.114 3.49614 -1.10297 0
M  V30 9025 H 859.762 4.94837 0.902499 0
M  V30 9026 H 859.462 5.84449 -0.607664 0
M  V30 9027 H 860.986 6.09914 0.289317 0
M  V30 9028 H 862.4 5.41694 -1.87725 0
M  V30 9029 H 860.797 5.37561 -2.66736 0
M  V30 9030 H 861.867 3.96724 -2.78816 0
M  V30 9031 N 863.21 0.781244 1.36873 0
M  V30 9032 C 864.435 0.360398 2.04245 0
M  V30 9033 C 864.86 -1.01242 1.58529 0
M  V30 9034 O 864.218 -1.65063 0.749936 0
M  V30 9035 C 864.266 0.42329 3.58107 0
M  V30 9036 O 863.37 -0.572796 4.08403 0
M  V30 9037 H 862.711 0.154386 0.645803 0
M  V30 9038 H 865.241 1.06008 1.74996 0
M  V30 9039 H 865.251 0.283967 4.07011 0
M  V30 9040 H 863.926 1.42477 3.90734 0
M  V30 9041 H 862.503 -0.395809 3.70793 0
M  V30 9042 N 864.689 -1.48329 0.532571 0
M  V30 9043 C 865.966 -1.95492 -0.0650985 0
M  V30 9044 C 866.346 -1.47485 -1.51034 0
M  V30 9045 O 865.694 -0.702516 -2.17433 0
M  V30 9046 C 865.904 -3.48957 0.0548341 0
M  V30 9047 C 867.252 -4.24475 -0.103115 0
M  V30 9048 O 868.276 -3.56195 -0.0188343 0
M  V30 9049 O 867.135 -5.45781 -0.280164 0
M  V30 9050 H 864.229 -0.823327 -0.0778603 0
M  V30 9051 H 866.775 -1.58839 0.597353 0
M  V30 9052 H 865.547 -3.76628 1.06148 0
M  V30 9053 H 865.17 -3.92311 -0.64635 0
M  V30 9054 N 866.167 -0.267825 -1.55308 0
M  V30 9055 C 867.414 0.351036 -1.99434 0
M  V30 9056 C 867.742 1.56406 -1.15618 0
M  V30 9057 O 866.997 1.94548 -0.212045 0
M  V30 9058 C 867.296 0.784247 -3.48689 0
M  V30 9059 C 866.962 -0.323328 -4.49739 0
M  V30 9060 C 865.624 -0.627467 -4.77091 0
M  V30 9061 C 867.976 -1.07002 -5.10098 0
M  V30 9062 C 865.304 -1.682 -5.62073 0
M  V30 9063 C 867.656 -2.11422 -5.96224 0
M  V30 9064 C 866.32 -2.42479 -6.21901 0
M  V30 9065 H 865.59 0.128453 -0.729781 0
M  V30 9066 H 868.237 -0.380018 -1.87692 0
M  V30 9067 H 866.542 1.59485 -3.57871 0
M  V30 9068 H 868.239 1.2737 -3.80234 0
M  V30 9069 H 864.829 -0.0761528 -4.28532 0
M  V30 9070 H 869.013 -0.848302 -4.88996 0
M  V30 9071 H 864.269 -1.92772 -5.80215 0
M  V30 9072 H 868.443 -2.69759 -6.4203 0
M  V30 9073 H 866.07 -3.24328 -6.87543 0
M  V30 9074 N 867.645 1.57599 0.00500368 0
M  V30 9075 C 868.893 1.89973 0.68953 0
M  V30 9076 C 869.214 0.868531 1.7459 0
M  V30 9077 O 868.484 -0.0947367 1.95671 0
M  V30 9078 H 867.064 0.701153 0.25767 0
M  V30 9079 H 869.726 1.94869 -0.0347392 0
M  V30 9080 H 868.822 2.89584 1.16394 0
M  V30 9081 N 869.123 -0.277682 1.55134 0
M  V30 9082 C 870.37 -1.0099 1.7552 0
M  V30 9083 C 870.698 -1.86452 0.553712 0
M  V30 9084 O 869.953 -1.90122 -0.463896 0
M  V30 9085 C 870.252 -1.92599 3.01065 0
M  V30 9086 C 869.918 -1.22926 4.3382 0
M  V30 9087 C 868.58 -1.03659 4.69902 0
M  V30 9088 C 870.932 -0.733071 5.16019 0
M  V30 9089 C 868.26 -0.334933 5.85743 0
M  V30 9090 C 870.612 -0.0450319 6.32584 0
M  V30 9091 C 869.276 0.159393 6.6731 0
M  V30 9092 H 868.546 -0.36955 0.642273 0
M  V30 9093 H 871.193 -0.282611 1.89403 0
M  V30 9094 H 869.498 -2.71934 2.82062 0
M  V30 9095 H 871.195 -2.49367 3.14034 0
M  V30 9096 H 867.785 -1.38933 4.05457 0
M  V30 9097 H 871.969 -0.869565 4.88623 0
M  V30 9098 H 867.225 -0.165783 6.11175 0
M  V30 9099 H 871.399 0.34723 6.95534 0
M  V30 9100 H 869.026 0.70507 7.56923 0
M  V30 9101 N 870.601 -1.47988 -0.541979 0
M  V30 9102 C 871.841 -1.56982 -1.30905 0
M  V30 9103 C 872.205 -0.233153 -1.90579 0
M  V30 9104 O 873.406 -0.198018 -2.6807 0
M  V30 9105 C 871.677 -2.66787 -2.37823 0
M  V30 9106 S 873.236 -2.95467 -3.24414 0
M  V30 9107 H 870.054 -0.554165 -0.445446 0
M  V30 9108 H 872.656 -1.85448 -0.618803 0
M  V30 9109 H 871.36 -3.62483 -1.92443 0
M  V30 9110 H 870.891 -2.40184 -3.11569 0
M  V30 9111 H 872.906 -2.33846 -4.37642 0
M  V30 9112 N 872.079 0.78992 -1.36375 0
M  V30 9113 C 873.042 1.88414 -1.30509 0
M  V30 9114 C 874.042 1.59384 -0.2129 0
M  V30 9115 O 875.232 1.67805 -0.467651 0
M  V30 9116 C 872.364 3.25188 -1.02302 0
M  V30 9117 H 873.557 1.95031 -2.27822 0
M  V30 9118 H 871.11 0.987664 -1.2114 0
M  V30 9119 H 871.845 3.24254 -0.0544486 0
M  V30 9120 H 871.63 3.47647 -1.81338 0
M  V30 9121 H 873.12 4.05252 -1.00801 0
M  V30 9122 N 873.557 1.20646 1.01402 0
M  V30 9123 C 874.489 0.915392 2.10127 0
M  V30 9124 C 875.502 -0.0978705 1.62506 0
M  V30 9125 O 876.691 0.133477 1.78 0
M  V30 9126 C 873.791 0.351304 3.37074 0
M  V30 9127 C 872.964 1.41673 4.13821 0
M  V30 9128 C 872.023 0.8635 5.19067 0
M  V30 9129 O 871.049 1.54481 5.47836 0
M  V30 9130 N 872.251 -0.325799 5.79585 0
M  V30 9131 H 875.016 1.85132 2.35682 0
M  V30 9132 H 872.577 1.11048 1.17813 0
M  V30 9133 H 874.569 -0.032996 4.04687 0
M  V30 9134 H 873.139 -0.489242 3.08748 0
M  V30 9135 H 872.359 1.97526 3.41141 0
M  V30 9136 H 873.647 2.1342 4.61876 0
M  V30 9137 H 873.045 -0.896534 5.58551 0
M  V30 9138 H 871.602 -0.651708 6.48534 0
M  V30 9139 N 875.035 -1.20752 1.01276 0
M  V30 9140 C 876.281 -1.90302 0.700924 0
M  V30 9141 C 876.614 -1.78406 -0.767142 0
M  V30 9142 O 875.889 -1.16575 -1.55694 0
M  V30 9143 C 876.172 -3.41831 1.13242 0
M  V30 9144 C 876.025 -3.6268 2.66051 0
M  V30 9145 C 877.344 -4.34486 0.700738 0
M  V30 9146 H 874.463 -0.69107 0.256107 0
M  V30 9147 H 877.105 -1.42227 1.25982 0
M  V30 9148 H 875.255 -3.82906 0.656902 0
M  V30 9149 H 876.927 -3.30882 3.21426 0
M  V30 9150 H 875.17 -3.06281 3.07204 0
M  V30 9151 H 875.841 -4.68882 2.91296 0
M  V30 9152 H 878.317 -4.01036 1.10948 0
M  V30 9153 H 877.193 -5.39136 1.03073 0
M  V30 9154 H 877.454 -4.40307 -0.39778 0
M  V30 9155 N 876.513 -0.788492 -1.36457 0
M  V30 9156 C 877.738 -0.371224 -2.04051 0
M  V30 9157 C 878.163 1.004 -1.59064 0
M  V30 9158 O 877.521 1.64663 -0.758679 0
M  V30 9159 C 877.569 -0.442275 -3.57877 0
M  V30 9160 O 876.673 0.55113 -4.08701 0
M  V30 9161 H 876.014 -0.157808 -0.644975 0
M  V30 9162 H 878.544 -1.06935 -1.74431 0
M  V30 9163 H 878.554 -0.305548 -4.06854 0
M  V30 9164 H 877.229 -1.44547 -3.89973 0
M  V30 9165 H 875.806 0.37614 -3.70998 0
M  V30 9166 N 877.991 1.48044 -0.54043 0
M  V30 9167 C 878.938 2.29781 0.216597 0
M  V30 9168 C 879.908 1.38021 0.924094 0
M  V30 9169 O 881.093 1.66985 0.923078 0
M  V30 9170 C 878.233 3.21623 1.2511 0
M  V30 9171 C 877.346 4.28467 0.551384 0
M  V30 9172 C 876.481 5.07477 1.56972 0
M  V30 9173 C 875.52 6.06113 0.854048 0
M  V30 9174 N 874.657 6.78143 1.81842 0
M  V30 9175 H 879.497 2.94001 -0.486578 0
M  V30 9176 H 877.034 1.44929 -0.251789 0
M  V30 9177 H 878.992 3.73279 1.8633 0
M  V30 9178 H 877.622 2.59305 1.92252 0
M  V30 9179 H 876.674 3.79997 -0.174982 0
M  V30 9180 H 877.986 4.98799 -0.0100542 0
M  V30 9181 H 877.14 5.63199 2.25592 0
M  V30 9182 H 875.879 4.37008 2.16507 0
M  V30 9183 H 874.884 5.49585 0.153838 0
M  V30 9184 H 876.109 6.78584 0.264675 0
M  V30 9185 H 874.055 6.10417 2.40265 0
M  V30 9186 H 873.972 7.44587 1.3087 0
M  V30 9187 H 875.24 7.38448 2.49628 0
M  V30 9188 N 879.47 0.276058 1.55163 0
M  V30 9189 C 880.38 -0.621066 2.2623 0
M  V30 9190 C 881.396 -1.16931 1.28853 0
M  V30 9191 O 882.572 -1.1994 1.61791 0
M  V30 9192 C 879.637 -1.78824 2.97023 0
M  V30 9193 C 878.698 -1.27657 4.09881 0
M  V30 9194 C 877.931 -2.38812 4.77289 0
M  V30 9195 O 878.154 -3.58188 4.43912 0
M  V30 9196 O 877.088 -2.06915 5.65217 0
M  V30 9197 H 880.914 -0.0453346 3.03666 0
M  V30 9198 H 878.499 0.0434275 1.49337 0
M  V30 9199 H 880.381 -2.46877 3.41511 0
M  V30 9200 H 879.056 -2.35104 2.22503 0
M  V30 9201 H 877.963 -0.56248 3.69847 0
M  V30 9202 H 879.296 -0.759509 4.86305 0
M  V30 9203 N 880.948 -1.576 0.00335426 0
M  V30 9204 C 882.194 -1.90996 -0.681799 0
M  V30 9205 C 882.527 -0.877643 -1.73237 0
M  V30 9206 O 881.802 0.103183 -1.94226 0
M  V30 9207 C 882.085 -3.34961 -1.32187 0
M  V30 9208 C 881.938 -4.48911 -0.28261 0
M  V30 9209 C 883.257 -3.78408 -2.24711 0
M  V30 9210 H 880.376 -0.694596 -0.246386 0
M  V30 9211 H 883.018 -1.89919 0.055336 0
M  V30 9212 H 881.168 -3.36008 -1.95014 0
M  V30 9213 H 882.84 -4.59999 0.346241 0
M  V30 9214 H 881.083 -4.32 0.394768 0
M  V30 9215 H 881.754 -5.46609 -0.769576 0
M  V30 9216 H 884.23 -3.78934 -1.71897 0
M  V30 9217 H 883.106 -4.79885 -2.66461 0
M  V30 9218 H 883.367 -3.12464 -3.1276 0
M  V30 9219 N 882.426 0.269451 -1.5528 0
M  V30 9220 C 883.837 0.840233 -1.66724 0
M  V30 9221 C 884.188 1.86909 -0.596621 0
M  V30 9222 O 883.313 2.14817 0.261246 0
M  V30 9223 C 883.908 1.5308 -3.02245 0
M  V30 9224 C 882.467 2.04957 -3.15705 0
M  V30 9225 C 881.614 0.892838 -2.62533 0
M  V30 9226 H 884.565 0.0457236 -1.58634 0
M  V30 9227 H 884.586 2.39792 -2.95432 0
M  V30 9228 H 884.098 0.781741 -3.80145 0
M  V30 9229 H 882.199 2.82813 -2.42585 0
M  V30 9230 H 882.312 2.26244 -4.22316 0
M  V30 9231 H 880.676 1.28719 -2.19781 0
M  V30 9232 H 881.459 0.157229 -3.4294 0
M  V30 9233 N 883.904 1.48273 0.534124 0
M  V30 9234 C 884.851 1.62487 1.6391 0
M  V30 9235 C 885.821 0.467062 1.59398 0
M  V30 9236 O 887.006 0.690029 1.77885 0
M  V30 9237 C 884.146 1.66671 3.02183 0
M  V30 9238 C 883.259 2.9353 3.16961 0
M  V30 9239 C 882.394 2.88902 4.45768 0
M  V30 9240 C 881.433 4.10483 4.54059 0
M  V30 9241 N 880.57 4.03956 5.74251 0
M  V30 9242 H 885.41 2.56851 1.51101 0
M  V30 9243 H 882.947 1.27381 0.735704 0
M  V30 9244 H 884.905 1.67079 3.82283 0
M  V30 9245 H 883.535 0.758011 3.13774 0
M  V30 9246 H 882.587 3.02886 2.3014 0
M  V30 9247 H 883.899 3.83501 3.18949 0
M  V30 9248 H 883.053 2.87688 5.34154 0
M  V30 9249 H 881.792 1.96652 4.46295 0
M  V30 9250 H 880.797 4.11977 3.64081 0
M  V30 9251 H 882.022 5.03887 4.55274 0
M  V30 9252 H 879.968 3.14525 5.75682 0
M  V30 9253 H 879.885 4.87628 5.77715 0
M  V30 9254 H 881.153 4.06795 6.64935 0
M  V30 9255 N 885.382 -0.782676 1.36792 0
M  V30 9256 C 886.798 -1.08169 1.17352 0
M  V30 9257 C 886.998 -2.015 0.0022037 0
M  V30 9258 O 886.054 -2.43692 -0.661093 0
M  V30 9259 C 887.367 -1.68969 2.48737 0
M  V30 9260 C 888.915 -1.81278 2.55161 0
M  V30 9261 C 889.39 -2.45492 3.86649 0
M  V30 9262 N 890.881 -2.52954 3.88032 0
M  V30 9263 C 891.616 -3.03465 4.86515 0
M  V30 9264 N 891.112 -3.54232 5.95392 0
M  V30 9265 N 892.905 -3.02239 4.73928 0
M  V30 9266 H 885.056 -0.162757 2.11775 0
M  V30 9267 H 887.319 -0.134823 0.938364 0
M  V30 9268 H 887.025 -1.07859 3.34753 0
M  V30 9269 H 886.899 -2.68397 2.65034 0
M  V30 9270 H 889.286 -2.41524 1.69559 0
M  V30 9271 H 889.367 -0.806367 2.42758 0
M  V30 9272 H 889.011 -1.85889 4.7266 0
M  V30 9273 H 888.941 -3.46718 3.96351 0
M  V30 9274 H 891.432 -2.17014 3.09376 0
M  V30 9275 H 891.745 -3.91145 6.66503 0
M  V30 9276 H 890.09 -3.52366 5.99052 0
M  V30 9277 H 893.281 -2.61871 3.87996 0
M  V30 9278 H 893.454 -3.41295 5.50837 0
M  V30 9279 N 886.86 -1.21182 -1.00761 0
M  V30 9280 C 887.807 -0.968741 -2.09485 0
M  V30 9281 C 888.777 0.104325 -1.65772 0
M  V30 9282 O 889.962 -0.0422587 -1.90753 0
M  V30 9283 C 887.102 -0.536686 -3.40901 0
M  V30 9284 C 886.215 -1.6789 -3.98041 0
M  V30 9285 C 885.35 -1.19627 -5.17555 0
M  V30 9286 C 884.389 -2.31099 -5.66798 0
M  V30 9287 N 883.526 -1.83988 -6.77564 0
M  V30 9288 H 888.366 -1.89952 -2.29613 0
M  V30 9289 H 885.903 -0.946688 -1.12589 0
M  V30 9290 H 887.861 -0.26745 -4.16342 0
M  V30 9291 H 886.491 0.357092 -3.20819 0
M  V30 9292 H 885.543 -2.06284 -3.19611 0
M  V30 9293 H 886.855 -2.51794 -4.30582 0
M  V30 9294 H 886.009 -0.883539 -6.00232 0
M  V30 9295 H 884.748 -0.327244 -4.86601 0
M  V30 9296 H 883.753 -2.63178 -4.82719 0
M  V30 9297 H 884.978 -3.18493 -5.99782 0
M  V30 9298 H 882.924 -0.994257 -6.48422 0
M  V30 9299 H 882.841 -2.61466 -7.09346 0
M  V30 9300 H 884.109 -1.55741 -7.63783 0
M  V30 9301 N 888.338 1.20213 -1.01915 0
M  V30 9302 C 889.563 1.94163 -0.729076 0
M  V30 9303 C 889.988 1.74416 0.704323 0
M  V30 9304 O 889.346 1.0401 1.48498 0
M  V30 9305 C 889.394 3.44258 -1.07324 0
M  V30 9306 O 888.498 4.11979 -0.186367 0
M  V30 9307 H 887.839 0.606506 -0.270272 0
M  V30 9308 H 890.369 1.52571 -1.3632 0
M  V30 9309 H 890.379 3.94888 -1.02603 0
M  V30 9310 H 889.054 3.57954 -2.11759 0
M  V30 9311 H 887.631 3.7176 -0.291334 0
M  V30 9312 N 889.816 0.795718 1.36037 0
M  V30 9313 C 890.746 0.212803 2.32528 0
M  V30 9314 C 891.727 -0.655716 1.56953 0
M  V30 9315 O 892.912 -0.588238 1.85077 0
M  V30 9316 C 890.042 -0.648189 3.41198 0
M  V30 9317 C 888.996 0.120948 4.27829 0
M  V30 9318 C 888.322 -0.861044 5.27722 0
M  V30 9319 C 889.622 1.31375 5.05508 0
M  V30 9320 H 891.316 1.01893 2.81528 0
M  V30 9321 H 888.862 0.491422 1.35355 0
M  V30 9322 H 890.815 -1.06597 4.07695 0
M  V30 9323 H 889.539 -1.48709 2.9078 0
M  V30 9324 H 888.198 0.519777 3.62897 0
M  V30 9325 H 887.846 -1.69515 4.73575 0
M  V30 9326 H 887.546 -0.350808 5.86552 0
M  V30 9327 H 889.07 -1.27726 5.97092 0
M  V30 9328 H 890.484 0.971406 5.6501 0
M  V30 9329 H 888.881 1.75772 5.73781 0
M  V30 9330 H 889.951 2.10593 4.36782 0
M  V30 9331 N 891.294 -1.47756 0.548274 0
M  V30 9332 C 892.54 -2.02789 0.0209265 0
M  V30 9333 C 892.873 -1.42268 -1.32187 0
M  V30 9334 O 892.148 -0.575001 -1.85806 0
M  V30 9335 C 892.431 -3.60007 -0.0816674 0
M  V30 9336 C 892.284 -4.30977 1.28759 0
M  V30 9337 C 893.603 -4.32777 -0.799515 0
M  V30 9338 H 890.722 -0.736944 0.00907884 0
M  V30 9339 H 893.364 -1.76282 0.708839 0
M  V30 9340 H 891.514 -3.82722 -0.667537 0
M  V30 9341 H 893.186 -4.19629 1.91597 0
M  V30 9342 H 891.429 -3.9168 1.86466 0
M  V30 9343 H 892.1 -5.39488 1.16861 0
M  V30 9344 H 894.576 -4.15001 -0.30216 0
M  V30 9345 H 893.452 -5.42431 -0.840239 0
M  V30 9346 H 893.713 -4.01358 -1.85375 0
M  V30 9347 N 892.772 -0.284283 -1.55015 0
M  V30 9348 C 894.02 0.329212 -1.99401 0
M  V30 9349 C 894.341 1.55687 -1.17416 0
M  V30 9350 O 893.611 1.94087 -0.265937 0
M  V30 9351 H 892.191 0.12463 -0.73653 0
M  V30 9352 H 894.853 -0.391743 -1.90922 0
M  V30 9353 H 893.949 0.61278 -3.06025 0
M  V30 9354 N 894.251 1.57596 -0.0117121 0
M  V30 9355 C 895.479 1.9536 0.681334 0
M  V30 9356 C 895.894 0.887255 1.66653 0
M  V30 9357 O 895.251 -0.132692 1.82017 0
M  V30 9358 C 895.302 3.33165 1.40298 0
M  V30 9359 O 895.023 4.35707 0.45728 0
M  V30 9360 C 896.524 3.85458 2.18946 0
M  V30 9361 H 893.744 0.643826 0.189023 0
M  V30 9362 H 896.288 2.04392 -0.066311 0
M  V30 9363 H 894.443 3.25404 2.10216 0
M  V30 9364 H 894.857 5.15495 0.96773 0
M  V30 9365 H 896.331 4.84275 2.64918 0
M  V30 9366 H 896.808 3.18781 3.02118 0
M  V30 9367 H 897.414 3.96431 1.5402 0
M  V30 9368 N 895.729 -0.261212 1.5542 0
M  V30 9369 C 897.14 -0.83138 1.67167 0
M  V30 9370 C 897.491 -1.8659 0.606525 0
M  V30 9371 O 896.616 -2.14953 -0.24985 0
M  V30 9372 C 897.211 -1.51475 3.03052 0
M  V30 9373 C 895.77 -2.0328 3.16787 0
M  V30 9374 C 894.917 -0.878903 2.63003 0
M  V30 9375 H 897.868 -0.0373102 1.58656 0
M  V30 9376 H 897.889 -2.38222 2.96699 0
M  V30 9377 H 897.401 -0.76157 3.80554 0
M  V30 9378 H 895.502 -2.81523 2.44082 0
M  V30 9379 H 895.615 -2.24001 4.2351 0
M  V30 9380 H 893.979 -1.27551 2.2046 0
M  V30 9381 H 894.762 -0.13904 3.43018 0
M  V30 9382 N 897.207 -1.48554 -0.526253 0
M  V30 9383 C 898.437 -1.60197 -1.30463 0
M  V30 9384 C 898.845 -0.26278 -1.87366 0
M  V30 9385 O 898.188 0.758537 -1.67308 0
M  V30 9386 C 898.25 -2.59223 -2.49085 0
M  V30 9387 C 897.914 -4.04199 -2.13241 0
M  V30 9388 C 898.911 -4.91771 -1.68694 0
M  V30 9389 C 896.596 -4.49762 -2.2365 0
M  V30 9390 C 898.59 -6.22934 -1.35026 0
M  V30 9391 C 896.277 -5.80945 -1.89594 0
M  V30 9392 C 897.275 -6.67354 -1.45353 0
M  V30 9393 O 896.963 -7.96096 -1.11745 0
M  V30 9394 H 896.695 -0.54284 -0.402866 0
M  V30 9395 H 899.249 -1.95137 -0.641157 0
M  V30 9396 H 897.479 -2.19412 -3.18426 0
M  V30 9397 H 899.168 -2.60661 -3.11144 0
M  V30 9398 H 899.934 -4.57806 -1.6012 0
M  V30 9399 H 895.813 -3.8269 -2.5704 0
M  V30 9400 H 899.357 -6.90334 -1.00422 0
M  V30 9401 H 895.254 -6.14444 -1.9781 0
M  V30 9402 H 896.022 -8.08882 -1.25111 0
M  V30 9403 N 898.685 0.775411 -1.37205 0
M  V30 9404 C 899.931 1.53533 -1.33414 0
M  V30 9405 C 900.286 1.92225 0.0819435 0
M  V30 9406 O 899.579 1.60935 1.03974 0
M  V30 9407 C 899.773 2.81377 -2.20367 0
M  V30 9408 C 899.602 2.5518 -3.70288 0
M  V30 9409 C 898.372 2.49493 -4.3941 0
M  V30 9410 C 900.57 2.23425 -4.63234 0
M  V30 9411 N 898.552 2.15341 -5.74892 0
M  V30 9412 C 899.923 1.99381 -5.87067 0
M  V30 9413 C 901.978 2.09549 -4.51657 0
M  V30 9414 C 900.681 1.62863 -7.0062 0
M  V30 9415 C 902.707 1.74431 -5.65091 0
M  V30 9416 C 902.069 1.51245 -6.87971 0
M  V30 9417 H 898.168 0.562278 -0.543477 0
M  V30 9418 H 900.752 0.90495 -1.72391 0
M  V30 9419 H 898.923 3.42259 -1.83612 0
M  V30 9420 H 900.655 3.4724 -2.07861 0
M  V30 9421 H 897.41 2.65221 -3.9237 0
M  V30 9422 H 897.834 2.00972 -6.46482 0
M  V30 9423 H 902.476 2.26159 -3.57228 0
M  V30 9424 H 900.194 1.44991 -7.94986 0
M  V30 9425 H 903.78 1.64359 -5.58102 0
M  V30 9426 H 902.66 1.24472 -7.74259 0
M  V30 9427 N 900.163 1.21714 1.00117 0
M  V30 9428 C 901.096 0.923113 2.08696 0
M  V30 9429 C 902.074 -0.130827 1.62073 0
M  V30 9430 O 903.258 -0.00103064 1.885 0
M  V30 9431 C 900.385 0.386807 3.36484 0
M  V30 9432 C 899.431 1.42414 4.0202 0
M  V30 9433 S 900.264 2.99466 4.43937 0
M  V30 9434 C 901.42 2.47452 5.74907 0
M  V30 9435 H 901.653 1.84258 2.33315 0
M  V30 9436 H 899.186 1.0473 1.1345 0
M  V30 9437 H 901.144 0.0839547 4.10414 0
M  V30 9438 H 899.805 -0.511413 3.09909 0
M  V30 9439 H 898.998 0.998593 4.94008 0
M  V30 9440 H 898.6 1.67527 3.34381 0
M  V30 9441 H 900.892 1.88177 6.50842 0
M  V30 9442 H 901.835 3.37898 6.22279 0
M  V30 9443 H 902.243 1.89027 5.31911 0
M  V30 9444 N 901.641 -1.19671 1.02551 0
M  V30 9445 C 902.604 -2.20987 0.608055 0
M  V30 9446 C 903.604 -1.5745 -0.326534 0
M  V30 9447 O 904.794 -1.73827 -0.114003 0
M  V30 9448 C 901.926 -3.4072 -0.11074 0
M  V30 9449 H 903.119 -2.59434 1.50446 0
M  V30 9450 H 900.672 -1.3329 0.816307 0
M  V30 9451 H 901.407 -3.07787 -1.02165 0
M  V30 9452 H 901.192 -3.88069 0.560772 0
M  V30 9453 H 902.682 -4.15776 -0.389848 0
M  V30 9454 N 903.119 -0.802921 -1.35613 0
M  V30 9455 C 904.53 -0.443004 -1.81368 0
M  V30 9456 C 904.881 1.03459 -1.66706 0
M  V30 9457 O 904.006 1.80372 -1.19561 0
M  V30 9458 C 904.601 -0.797324 -3.29284 0
M  V30 9459 C 903.16 -0.490055 -3.73196 0
M  V30 9460 C 902.307 -1.02487 -2.57666 0
M  V30 9461 H 905.258 -0.994888 -1.23643 0
M  V30 9462 H 905.279 -0.0934638 -3.80385 0
M  V30 9463 H 904.791 -1.87278 -3.39924 0
M  V30 9464 H 902.892 0.576818 -3.68108 0
M  V30 9465 H 903.005 -1.02012 -4.68114 0
M  V30 9466 H 901.369 -0.44738 -2.5074 0
M  V30 9467 H 902.152 -2.10636 -2.71085 0
M  V30 9468 N 904.597 1.47463 -0.556102 0
M  V30 9469 C 905.507 2.33785 0.195378 0
M  V30 9470 C 906.523 1.48123 0.913 0
M  V30 9471 O 907.699 1.81053 0.882141 0
M  V30 9472 C 904.764 3.24795 1.21282 0
M  V30 9473 C 903.825 4.26346 0.502747 0
M  V30 9474 C 903.058 5.13007 1.47172 0
M  V30 9475 O 903.281 5.02103 2.70646 0
M  V30 9476 O 902.215 5.93588 0.996814 0
M  V30 9477 H 906.041 2.99341 -0.512676 0
M  V30 9478 H 903.626 1.46004 -0.31673 0
M  V30 9479 H 905.508 3.81015 1.80016 0
M  V30 9480 H 904.183 2.61868 1.90282 0
M  V30 9481 H 903.09 3.73889 -0.125757 0
M  V30 9482 H 904.423 4.91984 -0.145779 0
M  V30 9483 N 906.075 0.2925 1.54862 0
M  V30 9484 C 907.321 -0.319736 2.00264 0
M  V30 9485 C 907.654 -1.5419 1.18064 0
M  V30 9486 O 906.929 -1.92821 0.254983 0
M  V30 9487 C 907.212 -0.684753 3.5353 0
M  V30 9488 C 907.065 0.545961 4.46474 0
M  V30 9489 C 908.384 -1.51456 4.13218 0
M  V30 9490 H 905.503 -0.11474 0.728014 0
M  V30 9491 H 908.145 0.402907 1.85679 0
M  V30 9492 H 906.295 -1.30044 3.66089 0
M  V30 9493 H 907.967 1.18448 4.45834 0
M  V30 9494 H 906.21 1.1808 4.1742 0
M  V30 9495 H 906.881 0.246544 5.51449 0
M  V30 9496 H 909.357 -0.994421 4.04043 0
M  V30 9497 H 908.233 -1.73875 5.20633 0
M  V30 9498 H 908.494 -2.5011 3.64551 0
M  V30 9499 N 907.553 -1.57587 0.0200696 0
M  V30 9500 C 908.802 -1.90602 -0.659822 0
M  V30 9501 C 909.115 -0.897216 -1.73808 0
M  V30 9502 O 910.321 -1.11829 -2.47399 0
M  V30 9503 C 908.777 -3.38416 -1.22484 0
M  V30 9504 C 908.385 -4.47637 -0.180339 0
M  V30 9505 C 910.129 -3.80513 -1.88176 0
M  V30 9506 C 908.036 -5.86542 -0.756482 0
M  V30 9507 H 906.966 -0.711272 -0.250216 0
M  V30 9508 H 909.617 -1.83308 0.0838942 0
M  V30 9509 H 907.999 -3.40613 -2.01987 0
M  V30 9510 H 909.173 -4.56987 0.591573 0
M  V30 9511 H 907.488 -4.14687 0.377302 0
M  V30 9512 H 910.085 -4.8164 -2.32222 0
M  V30 9513 H 910.428 -3.15091 -2.72073 0
M  V30 9514 H 910.961 -3.80701 -1.15377 0
M  V30 9515 H 907.7 -6.55485 0.0441468 0
M  V30 9516 H 907.22 -5.80816 -1.49709 0
M  V30 9517 H 908.899 -6.3483 -1.249 0
M  V30 9518 N 909.032 0.252966 -1.55557 0
M  V30 9519 C 910.257 1.0038 -1.8149 0
M  V30 9520 C 910.682 1.78397 -0.596318 0
M  V30 9521 O 910.04 1.7551 0.454535 0
M  V30 9522 C 910.088 1.9222 -3.05096 0
M  V30 9523 O 909.192 3.01302 -2.81587 0
M  V30 9524 H 908.533 0.285949 -0.599274 0
M  V30 9525 H 911.063 0.275795 -2.02733 0
M  V30 9526 H 911.073 2.338 -3.34368 0
M  V30 9527 H 909.748 1.34852 -3.93431 0
M  V30 9528 H 908.325 2.63894 -2.63466 0
M  V30 9529 N 910.51 1.48831 0.518367 0
M  V30 9530 C 911.926 1.35209 0.847979 0
M  V30 9531 C 912.126 0.371927 1.98038 0
M  V30 9532 O 911.182 -0.202681 2.51685 0
M  V30 9533 C 912.495 2.7552 1.20455 0
M  V30 9534 C 914.043 2.84094 1.31377 0
M  V30 9535 C 914.518 4.25132 1.70372 0
M  V30 9536 N 916.009 4.27861 1.77453 0
M  V30 9537 C 916.744 5.3394 2.09035 0
M  V30 9538 N 916.24 6.50285 2.3896 0
M  V30 9539 N 918.033 5.21343 2.10139 0
M  V30 9540 H 910.184 2.11166 -0.228624 0
M  V30 9541 H 912.447 0.94717 -0.0396599 0
M  V30 9542 H 912.153 3.48861 0.445991 0
M  V30 9543 H 912.027 3.09785 2.15204 0
M  V30 9544 H 914.414 2.11001 2.06307 0
M  V30 9545 H 914.495 2.53433 0.347203 0
M  V30 9546 H 914.139 4.98745 0.959975 0
M  V30 9547 H 914.069 4.53245 2.68098 0
M  V30 9548 H 916.56 3.43945 1.56557 0
M  V30 9549 H 916.873 7.26961 2.62196 0
M  V30 9550 H 915.218 6.5354 2.36454 0
M  V30 9551 H 918.409 4.29462 1.86225 0
M  V30 9552 H 918.582 6.04112 2.34419 0
M  V30 9553 N 911.988 -0.768124 1.37614 0
M  V30 9554 C 912.918 -1.89537 1.36374 0
M  V30 9555 C 913.899 -1.68513 0.231803 0
M  V30 9556 O 915.084 -1.89318 0.432705 0
M  V30 9557 C 912.214 -3.26871 1.17358 0
M  V30 9558 C 911.168 -3.62466 2.27602 0
M  V30 9559 C 910.494 -4.9838 1.93705 0
M  V30 9560 C 911.794 -3.68841 3.69802 0
M  V30 9561 H 913.488 -1.90832 2.30702 0
M  V30 9562 H 911.034 -0.91672 1.11051 0
M  V30 9563 H 912.987 -4.05371 1.15119 0
M  V30 9564 H 911.711 -3.26018 0.194865 0
M  V30 9565 H 910.37 -2.86276 2.29002 0
M  V30 9566 H 910.018 -4.94071 0.943539 0
M  V30 9567 H 909.718 -5.23165 2.6753 0
M  V30 9568 H 911.242 -5.79276 1.93059 0
M  V30 9569 H 912.656 -4.37485 3.70513 0
M  V30 9570 H 911.053 -4.05126 4.42711 0
M  V30 9571 H 912.123 -2.69415 4.03167 0
M  V30 9572 N 913.466 -1.22244 -0.994698 0
M  V30 9573 C 914.877 -1.043 -1.5485 0
M  V30 9574 C 915.228 0.394102 -1.92201 0
M  V30 9575 O 914.353 1.27883 -1.74571 0
M  V30 9576 C 914.948 -1.88708 -2.8138 0
M  V30 9577 C 913.507 -1.75067 -3.3321 0
M  V30 9578 C 912.654 -1.85286 -2.06312 0
M  V30 9579 H 915.605 -1.36115 -0.815988 0
M  V30 9580 H 915.626 -1.40342 -3.53673 0
M  V30 9581 H 915.138 -2.93296 -2.54164 0
M  V30 9582 H 913.239 -0.732047 -3.65338 0
M  V30 9583 H 913.352 -2.57632 -4.03934 0
M  V30 9584 H 911.716 -1.28706 -2.19788 0
M  V30 9585 H 912.499 -2.91401 -1.81494 0
M  V30 9586 N 914.944 1.19125 -1.03184 0
M  V30 9587 C 916.174 1.92558 -0.748663 0
M  V30 9588 C 916.582 1.759 0.696837 0
M  V30 9589 O 915.925 1.08019 1.48585 0
M  V30 9590 C 915.987 3.4461 -1.02391 0
M  V30 9591 C 915.651 3.85041 -2.46155 0
M  V30 9592 C 916.648 3.89554 -3.44302 0
M  V30 9593 C 914.333 4.16594 -2.80633 0
M  V30 9594 C 916.327 4.25055 -4.74981 0
M  V30 9595 C 914.014 4.51767 -4.11521 0
M  V30 9596 C 915.012 4.55972 -5.08506 0
M  V30 9597 O 914.7 4.9033 -6.37049 0
M  V30 9598 H 914.432 0.618397 -0.273059 0
M  V30 9599 H 916.986 1.52122 -1.38015 0
M  V30 9600 H 915.216 3.85244 -0.335284 0
M  V30 9601 H 916.905 3.99283 -0.729927 0
M  V30 9602 H 917.671 3.65324 -3.19003 0
M  V30 9603 H 913.55 4.12503 -2.05821 0
M  V30 9604 H 917.094 4.28252 -5.50678 0
M  V30 9605 H 912.991 4.75455 -4.36592 0
M  V30 9606 H 913.759 5.08266 -6.41566 0
M  V30 9607 N 916.422 0.810101 1.35185 0
M  V30 9608 C 917.67 0.391343 1.98275 0
M  V30 9609 C 917.991 -1.04592 1.64577 0
M  V30 9610 O 917.261 -1.72417 0.93001 0
M  V30 9611 H 915.841 0.141715 0.733434 0
M  V30 9612 H 918.503 1.03672 1.6504 0
M  V30 9613 H 917.599 0.49991 3.0807 0
M  V30 9614 N 917.9 -1.47166 0.563914 0
M  V30 9615 C 919.128 -2.06846 0.0474287 0
M  V30 9616 C 919.543 -1.41557 -1.24928 0
M  V30 9617 O 918.9 -0.514376 -1.75101 0
M  V30 9618 C 918.951 -3.6121 -0.144831 0
M  V30 9619 O 918.672 -4.24052 1.10053 0
M  V30 9620 C 920.173 -4.37773 -0.69783 0
M  V30 9621 H 917.393 -0.669217 0.0488896 0
M  V30 9622 H 919.937 -1.89072 0.779235 0
M  V30 9623 H 918.092 -3.78474 -0.82679 0
M  V30 9624 H 918.506 -5.16677 0.902481 0
M  V30 9625 H 919.98 -5.46438 -0.781616 0
M  V30 9626 H 920.457 -4.04517 -1.71063 0
M  V30 9627 H 921.063 -4.25269 -0.0513516 0
M  V30 9628 N 919.378 -0.300708 -1.54705 0
M  V30 9629 C 920.288 0.584996 -2.27189 0
M  V30 9630 C 921.304 1.14866 -1.30697 0
M  V30 9631 O 922.48 1.17351 -1.63679 0
M  V30 9632 C 919.545 1.74076 -2.99831 0
M  V30 9633 C 918.606 1.2112 -4.1186 0
M  V30 9634 C 917.839 2.31188 -4.81028 0
M  V30 9635 O 918.062 3.5108 -4.49554 0
M  V30 9636 O 916.996 1.97897 -5.68437 0
M  V30 9637 H 920.822 -0.00298177 -3.037 0
M  V30 9638 H 918.407 -0.0671802 -1.49249 0
M  V30 9639 H 920.289 2.41413 -3.45395 0
M  V30 9640 H 918.964 2.31535 -2.26215 0
M  V30 9641 H 917.871 0.50357 -3.70695 0
M  V30 9642 H 919.204 0.682046 -4.87452 0
M  V30 9643 N 920.856 1.57574 -0.0284266 0
M  V30 9644 C 922.102 1.92056 0.651327 0
M  V30 9645 C 922.435 0.905092 1.71819 0
M  V30 9646 O 921.71 -0.0722703 1.94366 0
M  V30 9647 C 921.993 3.37021 1.26841 0
M  V30 9648 C 921.846 4.49304 0.211157 0
M  V30 9649 C 923.165 3.81936 2.18662 0
M  V30 9650 H 920.284 0.698428 0.235304 0
M  V30 9651 H 922.926 1.89807 -0.0855435 0
M  V30 9652 H 921.076 3.39068 1.89644 0
M  V30 9653 H 922.748 4.5939 -0.419379 0
M  V30 9654 H 920.991 4.31317 -0.463445 0
M  V30 9655 H 921.662 5.47764 0.682518 0
M  V30 9656 H 924.138 3.8162 1.65847 0
M  V30 9657 H 923.014 4.84064 2.58792 0
M  V30 9658 H 923.275 3.174 3.07749 0
M  V30 9659 N 922.334 -0.244713 1.55689 0
M  V30 9660 C 923.611 -0.995407 1.68378 0
M  V30 9661 C 923.991 -2.03288 0.568949 0
M  V30 9662 O 923.339 -2.24469 -0.427299 0
M  V30 9663 C 923.549 -1.62678 3.08767 0
M  V30 9664 C 924.897 -2.1278 3.67437 0
M  V30 9665 O 925.921 -1.72614 3.11581 0
M  V30 9666 O 924.78 -2.86536 4.65359 0
M  V30 9667 H 921.874 -0.463476 0.684923 0
M  V30 9668 H 924.42 -0.238326 1.68018 0
M  V30 9669 H 923.192 -0.876469 3.81358 0
M  V30 9670 H 922.815 -2.45 3.13146 0
M  V30 9671 N 923.813 -1.49104 -0.510467 0
M  V30 9672 C 925.062 -1.57362 -1.26175 0
M  V30 9673 C 925.375 -0.261218 -1.93848 0
M  V30 9674 O 926.581 -0.222238 -2.70589 0
M  V30 9675 C 925.037 -2.77606 -2.29048 0
M  V30 9676 C 924.645 -4.15567 -1.67357 0
M  V30 9677 C 926.389 -2.95188 -3.05064 0
M  V30 9678 C 924.296 -5.27046 -2.68285 0
M  V30 9679 H 923.226 -0.585887 -0.474608 0
M  V30 9680 H 925.877 -1.75474 -0.536753 0
M  V30 9681 H 924.259 -2.52968 -3.04669 0
M  V30 9682 H 925.433 -4.50304 -0.977924 0
M  V30 9683 H 923.748 -4.03264 -1.03765 0
M  V30 9684 H 926.345 -3.75643 -3.80521 0
M  V30 9685 H 926.688 -2.05385 -3.62108 0
M  V30 9686 H 927.221 -3.19821 -2.36558 0
M  V30 9687 H 923.96 -6.18878 -2.16034 0
M  V30 9688 H 923.48 -4.96774 -3.36118 0
M  V30 9689 H 925.159 -5.55983 -3.30896 0
M  V30 9690 N 925.291 0.760815 -1.38019 0
M  V30 9691 C 926.537 1.52109 -1.35034 0
M  V30 9692 C 926.892 1.92302 0.0615509 0
M  V30 9693 O 926.185 1.62028 1.02261 0
M  V30 9694 C 926.379 2.79024 -2.23339 0
M  V30 9695 C 926.208 2.51238 -3.72974 0
M  V30 9696 C 924.978 2.44818 -4.42032 0
M  V30 9697 C 927.176 2.18499 -4.65578 0
M  V30 9698 N 925.158 2.09232 -5.77144 0
M  V30 9699 C 926.529 1.93143 -5.89148 0
M  V30 9700 C 928.584 2.04747 -4.53854 0
M  V30 9701 C 927.287 1.55423 -7.02308 0
M  V30 9702 C 929.313 1.68428 -5.66909 0
M  V30 9703 C 928.675 1.43939 -6.89537 0
M  V30 9704 H 924.774 0.556482 -0.54941 0
M  V30 9705 H 927.358 0.886614 -1.73341 0
M  V30 9706 H 925.529 3.40292 -1.87232 0
M  V30 9707 H 927.261 3.45016 -2.11533 0
M  V30 9708 H 924.016 2.61045 -3.95161 0
M  V30 9709 H 924.44 1.94104 -6.48577 0
M  V30 9710 H 929.082 2.22358 -3.59607 0
M  V30 9711 H 926.8 1.36551 -7.96479 0
M  V30 9712 H 930.386 1.5843 -5.59814 0
M  V30 9713 H 929.266 1.16253 -7.75535 0
M  V30 9714 N 926.769 1.22769 0.988202 0
M  V30 9715 C 927.994 1.08239 1.76915 0
M  V30 9716 C 928.419 -0.362519 1.84574 0
M  V30 9717 O 927.777 -1.26202 1.30165 0
M  V30 9718 C 927.825 1.70363 3.17819 0
M  V30 9719 O 926.929 0.960484 4.01059 0
M  V30 9720 H 926.27 0.379872 0.544604 0
M  V30 9721 H 928.8 1.62663 1.24104 0
M  V30 9722 H 928.81 1.7528 3.6843 0
M  V30 9723 H 927.485 2.75505 3.1156 0
M  V30 9724 H 926.062 0.987667 3.59582 0
M  V30 9725 N 928.247 -1.18576 1.03814 0
M  V30 9726 C 929.177 -2.24334 0.647795 0
M  V30 9727 C 930.158 -1.66508 -0.34774 0
M  V30 9728 O 931.343 -1.92852 -0.228401 0
M  V30 9729 C 928.473 -3.47299 0.00734922 0
M  V30 9730 C 927.427 -4.17859 0.926152 0
M  V30 9731 C 926.753 -5.34489 0.150317 0
M  V30 9732 C 928.053 -4.71632 2.24411 0
M  V30 9733 H 929.747 -2.57241 1.53191 0
M  V30 9734 H 927.293 -1.23649 0.738028 0
M  V30 9735 H 929.246 -4.20486 -0.277434 0
M  V30 9736 H 927.97 -3.13619 -0.911626 0
M  V30 9737 H 926.629 -3.46567 1.19528 0
M  V30 9738 H 926.277 -4.97056 -0.770985 0
M  V30 9739 H 925.977 -5.82633 0.762407 0
M  V30 9740 H 927.501 -6.10467 -0.127508 0
M  V30 9741 H 928.915 -5.36526 2.02021 0
M  V30 9742 H 927.312 -5.303 2.80894 0
M  V30 9743 H 928.382 -3.89192 2.89236 0
M  V30 9744 N 929.725 -0.817259 -1.34754 0
M  V30 9745 C 930.973 -0.401852 -1.98065 0
M  V30 9746 C 931.294 1.03718 -1.65129 0
M  V30 9747 O 930.564 1.71921 -0.939141 0
M  V30 9748 H 929.144 -0.145603 -0.732672 0
M  V30 9749 H 931.806 -1.04545 -1.64488 0
M  V30 9750 H 930.902 -0.516241 -3.07801 0
M  V30 9751 N 931.203 1.46865 -0.571711 0
M  V30 9752 C 932.452 2.01636 -0.050881 0
M  V30 9753 C 932.765 1.45001 1.31279 0
M  V30 9754 O 933.971 1.91523 1.92435 0
M  V30 9755 C 932.427 3.59877 -0.0404114 0
M  V30 9756 C 932.035 4.25506 -1.40172 0
M  V30 9757 C 933.779 4.22346 0.42705 0
M  V30 9758 C 931.686 5.75795 -1.34958 0
M  V30 9759 H 930.616 0.753846 -0.0152514 0
M  V30 9760 H 933.267 1.68711 -0.721723 0
M  V30 9761 H 931.649 3.89829 0.696374 0
M  V30 9762 H 932.823 4.07178 -2.15737 0
M  V30 9763 H 931.138 3.75086 -1.8083 0
M  V30 9764 H 933.735 5.32499 0.484688 0
M  V30 9765 H 934.078 3.9052 1.44222 0
M  V30 9766 H 934.611 3.9698 -0.255326 0
M  V30 9767 H 931.35 6.12265 -2.3412 0
M  V30 9768 H 930.87 5.96419 -0.635962 0
M  V30 9769 H 932.549 6.38294 -1.05779 0
M  V30 9770 N 932.681 0.308908 1.54543 0
M  V30 9771 C 933.614 -0.605854 2.20011 0
M  V30 9772 C 934.592 -1.1269 1.17216 0
M  V30 9773 O 935.776 -1.19363 1.45893 0
M  V30 9774 C 932.903 -1.82977 2.85021 0
M  V30 9775 C 931.949 -1.44126 4.0141 0
M  V30 9776 S 932.782 -0.490445 5.33249 0
M  V30 9777 C 933.938 -1.72198 6.01746 0
M  V30 9778 H 934.171 -0.0496911 2.97258 0
M  V30 9779 H 931.704 0.0930238 1.5412 0
M  V30 9780 H 933.662 -2.53211 3.23102 0
M  V30 9781 H 932.323 -2.35711 2.07604 0
M  V30 9782 H 931.516 -2.35288 4.45708 0
M  V30 9783 H 931.118 -0.818788 3.64927 0
M  V30 9784 H 933.41 -2.66147 6.23034 0
M  V30 9785 H 934.353 -1.32142 6.95661 0
M  V30 9786 H 934.761 -1.90229 5.31482 0
M  V30 9787 N 934.159 -1.57557 0.0367827 0
M  V30 9788 C 935.405 -1.92399 -0.641133 0
M  V30 9789 C 935.738 -0.914191 -1.71336 0
M  V30 9790 O 935.013 0.0619616 -1.94401 0
M  V30 9791 C 935.296 -3.37689 -1.25052 0
M  V30 9792 C 935.149 -4.4941 -0.187326 0
M  V30 9793 C 936.468 -3.8309 -2.16634 0
M  V30 9794 H 933.587 -0.699666 -0.231597 0
M  V30 9795 H 936.229 -1.89759 0.0956083 0
M  V30 9796 H 934.379 -3.40069 -1.87843 0
M  V30 9797 H 936.051 -4.59161 0.443736 0
M  V30 9798 H 934.294 -4.31065 0.486313 0
M  V30 9799 H 934.965 -5.48119 -0.653459 0
M  V30 9800 H 937.441 -3.82494 -1.63821 0
M  V30 9801 H 936.317 -4.85429 -2.56222 0
M  V30 9802 H 936.578 -3.19028 -3.06062 0
M  V30 9803 N 935.637 0.236453 -1.55816 0
M  V30 9804 C 936.886 0.960981 -1.77336 0
M  V30 9805 C 937.199 1.86085 -0.602641 0
M  V30 9806 O 938.405 2.62291 -0.701106 0
M  V30 9807 C 936.861 1.75884 -3.13995 0
M  V30 9808 C 936.469 0.905849 -4.38746 0
M  V30 9809 C 938.213 2.47548 -3.44848 0
M  V30 9810 C 936.12 1.7002 -5.66434 0
M  V30 9811 H 935.05 0.362547 -0.661117 0
M  V30 9812 H 937.701 0.215303 -1.82233 0
M  V30 9813 H 936.083 2.54687 -3.03234 0
M  V30 9814 H 937.257 0.159415 -4.60524 0
M  V30 9815 H 935.572 0.30205 -4.15303 0
M  V30 9816 H 938.169 3.07452 -4.37467 0
M  V30 9817 H 938.512 3.19689 -2.66655 0
M  V30 9818 H 939.045 1.75747 -3.56872 0
M  V30 9819 H 935.784 1.02234 -6.47479 0
M  V30 9820 H 935.304 2.42164 -5.48741 0
M  V30 9821 H 936.983 2.26469 -6.0607 0
M  V30 9822 N 937.115 1.49373 0.502552 0
M  V30 9823 C 938.025 1.68659 1.63068 0
M  V30 9824 C 939.041 0.569182 1.64427 0
M  V30 9825 O 940.217 0.843695 1.82876 0
M  V30 9826 C 937.282 1.74745 2.99441 0
M  V30 9827 C 936.343 2.98311 3.08721 0
M  V30 9828 C 935.576 3.04097 4.38589 0
M  V30 9829 O 935.799 2.17519 5.27297 0
M  V30 9830 O 934.733 3.96544 4.52809 0
M  V30 9831 H 938.559 2.64226 1.49727 0
M  V30 9832 H 936.144 1.33096 0.67867 0
M  V30 9833 H 938.026 1.8111 3.80496 0
M  V30 9834 H 936.701 0.823565 3.13048 0
M  V30 9835 H 935.608 2.97465 2.2686 0
M  V30 9836 H 936.941 3.90174 3.00041 0
M  V30 9837 N 938.594 -0.753485 1.38421 0
M  V30 9838 C 939.527 -1.87525 1.30037 0
M  V30 9839 C 940.505 -1.6163 0.177379 0
M  V30 9840 O 941.689 -1.85132 0.354716 0
M  V30 9841 C 938.816 -3.23138 1.01485 0
M  V30 9842 C 937.862 -3.67921 2.15723 0
M  V30 9843 S 938.695 -3.79447 3.77863 0
M  V30 9844 C 939.851 -5.17879 3.51499 0
M  V30 9845 H 940.084 -1.94351 2.24978 0
M  V30 9846 H 937.617 -0.916475 1.24258 0
M  V30 9847 H 939.575 -4.01455 0.856959 0
M  V30 9848 H 938.236 -3.13991 0.0826199 0
M  V30 9849 H 937.429 -4.66287 1.91292 0
M  V30 9850 H 937.031 -2.96758 2.2762 0
M  V30 9851 H 939.323 -6.03636 3.0762 0
M  V30 9852 H 940.266 -5.47331 4.49259 0
M  V30 9853 H 940.674 -4.86681 2.8601 0
M  V30 9854 N 940.072 -1.23292 -0.981677 0
M  V30 9855 C 941.321 -1.05832 -1.71705 0
M  V30 9856 C 941.634 0.40514 -1.91358 0
M  V30 9857 O 942.84 0.699645 -2.6233 0
M  V30 9858 C 941.296 -1.84532 -3.08992 0
M  V30 9859 C 940.904 -3.35199 -2.9723 0
M  V30 9860 C 942.648 -1.75557 -3.86497 0
M  V30 9861 C 940.555 -4.06296 -4.29741 0
M  V30 9862 H 939.485 -0.39241 -0.64384 0
M  V30 9863 H 942.136 -1.47247 -1.09502 0
M  V30 9864 H 940.518 -1.35923 -3.71942 0
M  V30 9865 H 941.692 -3.91286 -2.43377 0
M  V30 9866 H 940.007 -3.44973 -2.332 0
M  V30 9867 H 942.604 -2.25989 -4.84596 0
M  V30 9868 H 942.947 -0.718101 -4.1006 0
M  V30 9869 H 943.48 -2.21771 -3.30246 0
M  V30 9870 H 940.219 -5.10344 -4.11375 0
M  V30 9871 H 939.739 -3.54997 -4.83464 0
M  V30 9872 H 941.418 -4.12519 -4.98434 0
M  V30 9873 N 941.55 1.18024 -1.04442 0
M  V30 9874 C 942.827 1.8398 -0.664125 0
M  V30 9875 C 943.207 1.92961 0.856116 0
M  V30 9876 O 942.555 1.45839 1.75907 0
M  V30 9877 C 942.765 3.22069 -1.34433 0
M  V30 9878 C 944.113 3.98063 -1.47754 0
M  V30 9879 O 945.137 3.31523 -1.30274 0
M  V30 9880 O 943.996 5.17291 -1.76272 0
M  V30 9881 H 941.09 0.793543 -0.23285 0
M  V30 9882 H 943.636 1.25385 -1.14354 0
M  V30 9883 H 942.408 3.10458 -2.38184 0
M  V30 9884 H 942.031 3.88325 -0.853782 0
M  V30 9885 N 943.028 0.824394 1.34319 0
M  V30 9886 C 944.276 0.41235 1.97849 0
M  V30 9887 C 944.597 -1.02841 1.65677 0
M  V30 9888 O 943.867 -1.71421 0.948245 0
M  V30 9889 H 942.447 0.149486 0.73189 0
M  V30 9890 H 945.109 1.05416 1.63931 0
M  V30 9891 H 944.205 0.532557 3.07523 0
M  V30 9892 N 944.506 -1.46559 0.579492 0
M  V30 9893 C 945.416 -2.34066 -0.15816 0
M  V30 9894 C 946.432 -1.49556 -0.88932 0
M  V30 9895 O 947.608 -1.82434 -0.853226 0
M  V30 9896 C 944.673 -3.26683 -1.161 0
M  V30 9897 C 943.734 -4.27092 -0.434855 0
M  V30 9898 C 942.967 -5.15283 -1.38992 0
M  V30 9899 O 943.19 -5.06345 -2.62623 0
M  V30 9900 O 942.124 -5.95099 -0.902253 0
M  V30 9901 H 945.95 -2.98488 0.560234 0
M  V30 9902 H 943.535 -1.45482 0.339918 0
M  V30 9903 H 945.417 -3.8383 -1.73932 0
M  V30 9904 H 944.092 -2.64862 -1.86091 0
M  V30 9905 H 942.999 -3.73641 0.185224 0
M  V30 9906 H 944.332 -4.9169 0.224031 0
M  V30 9907 N 945.984 -0.3171 -1.54377 0
M  V30 9908 C 947.395 0.172287 -1.85903 0
M  V30 9909 C 947.746 1.52141 -1.23885 0
M  V30 9910 O 946.871 2.0949 -0.542476 0
M  V30 9911 C 947.466 0.319392 -3.37291 0
M  V30 9912 C 946.025 0.752998 -3.68791 0
M  V30 9913 C 945.172 -0.129143 -2.76999 0
M  V30 9914 H 948.123 -0.537597 -1.49317 0
M  V30 9915 H 948.144 1.15137 -3.62662 0
M  V30 9916 H 947.656 -0.662671 -3.82401 0
M  V30 9917 H 945.757 1.74504 -3.2921 0
M  V30 9918 H 945.87 0.561228 -4.75801 0
M  V30 9919 H 944.234 0.394242 -2.5163 0
M  V30 9920 H 945.017 -1.10785 -3.24933 0
M  V30 9921 N 947.462 1.57535 -0.0451378 0
M  V30 9922 C 948.873 1.80116 0.491426 0
M  V30 9923 C 949.224 0.956846 1.71286 0
M  V30 9924 O 948.349 0.17173 2.15718 0
M  V30 9925 C 948.944 3.26674 0.898315 0
M  V30 9926 C 947.503 3.50194 1.37989 0
M  V30 9927 C 946.65 2.75054 0.352202 0
M  V30 9928 H 949.601 1.56368 -0.271065 0
M  V30 9929 H 949.622 3.37263 1.76164 0
M  V30 9930 H 949.134 3.88099 0.009141 0
M  V30 9931 H 947.235 2.94041 2.28846 0
M  V30 9932 H 947.348 4.58909 1.37622 0
M  V30 9933 H 945.712 2.4101 0.823784 0
M  V30 9934 H 946.495 3.39203 -0.528782 0
M  V30 9935 N 948.94 -0.228186 1.55939 0
M  V30 9936 C 950.17 -0.969211 1.82455 0
M  V30 9937 C 950.578 -1.78714 0.621133 0
M  V30 9938 O 949.921 -1.78841 -0.419694 0
M  V30 9939 C 949.983 -1.94088 3.02605 0
M  V30 9940 C 949.647 -1.30811 4.37878 0
M  V30 9941 C 950.644 -0.701275 5.15149 0
M  V30 9942 C 948.329 -1.32187 4.84595 0
M  V30 9943 C 950.323 -0.116631 6.37293 0
M  V30 9944 C 948.01 -0.733375 6.06683 0
M  V30 9945 C 949.008 -0.131804 6.82873 0
M  V30 9946 O 948.696 0.447549 8.02653 0
M  V30 9947 H 948.428 -0.289951 0.610659 0
M  V30 9948 H 950.982 -0.250576 2.03866 0
M  V30 9949 H 949.212 -2.69833 2.76996 0
M  V30 9950 H 950.901 -2.5469 3.1605 0
M  V30 9951 H 951.667 -0.683022 4.80166 0
M  V30 9952 H 947.546 -1.77949 4.25271 0
M  V30 9953 H 951.09 0.353539 6.96704 0
M  V30 9954 H 946.987 -0.749019 6.4114 0
M  V30 9955 H 947.755 0.341224 8.17788 0
M  V30 9956 N 950.418 -1.49637 -0.494624 0
M  V30 9957 C 951.665 -1.59445 -1.24834 0
M  V30 9958 C 951.993 -0.284028 -1.92415 0
M  V30 9959 O 951.248 0.728519 -1.81634 0
M  V30 9960 C 951.547 -2.70749 -2.33302 0
M  V30 9961 C 951.213 -4.12034 -1.83135 0
M  V30 9962 C 949.875 -4.50482 -1.69173 0
M  V30 9963 C 952.227 -5.00432 -1.4566 0
M  V30 9964 C 949.555 -5.75093 -1.16124 0
M  V30 9965 C 951.907 -6.25568 -0.940608 0
M  V30 9966 C 950.571 -6.62839 -0.787432 0
M  V30 9967 H 949.841 -0.583451 -0.456799 0
M  V30 9968 H 952.488 -1.8349 -0.548044 0
M  V30 9969 H 950.793 -2.407 -3.09145 0
M  V30 9970 H 952.49 -2.75546 -2.91334 0
M  V30 9971 H 949.08 -3.8169 -1.94964 0
M  V30 9972 H 953.264 -4.71379 -1.55291 0
M  V30 9973 H 948.52 -6.02665 -1.02982 0
M  V30 9974 H 952.694 -6.93439 -0.641467 0
M  V30 9975 H 950.321 -7.59279 -0.374191 0
M  V30 9976 N 951.896 0.746133 -1.38819 0
M  V30 9977 C 952.844 1.88137 -1.36774 0
M  V30 9978 C 953.838 1.67508 -0.252495 0
M  V30 9979 O 955.044 1.74985 -0.421935 0
M  V30 9980 H 951.419 0.619116 -0.426849 0
M  V30 9981 H 953.39 1.86978 -2.32555 0
M  V30 9982 C 952.139 3.25703 -1.21708 0
M  V30 9983 H 951.462 3.42168 -2.06788 0
M  V30 9984 H 952.902 4.05361 -1.24332 0
M  V30 9985 C 951.361 3.36816 0.0754257 0
M  V30 9986 O 951.891 3.87742 1.04972 0
M  V30 9987 N 950.097 2.90287 0.134761 0
M  V30 9988 H 949.644 2.49034 -0.658779 0
M  V30 9989 H 949.602 2.98103 0.999109 0
M  V30 9990 N 953.375 1.23811 0.975125 0
M  V30 9991 C 954.285 1.0408 2.10249 0
M  V30 9992 C 955.301 -0.0162404 1.73992 0
M  V30 9993 O 956.477 0.180346 2.00591 0
M  V30 9994 C 953.542 0.640013 3.40741 0
M  V30 9995 C 952.603 1.7727 3.90991 0
M  V30 9996 C 951.836 1.39094 5.15256 0
M  V30 9997 O 952.059 0.277483 5.69725 0
M  V30 9998 O 950.993 2.21392 5.59704 0
M  V30 9999 H 954.819 1.98575 2.29786 0
M  V30 10000 H 952.404 1.02563 1.08633 0
M  V30 10001 H 954.286 0.427684 4.19224 0
M  V30 10002 H 952.961 -0.27589 3.22522 0
M  V30 10003 H 951.868 2.03971 3.13602 0
M  V30 10004 H 953.201 2.66711 4.13674 0
M  V30 10005 N 954.853 -1.17469 1.05066 0
M  V30 10006 C 956.264 -1.69334 0.786304 0
M  V30 10007 C 956.615 -1.83604 -0.691671 0
M  V30 10008 O 955.74 -1.52269 -1.53763 0
M  V30 10009 C 956.335 -3.07572 1.42074 0
M  V30 10010 C 954.894 -3.56609 1.20446 0
M  V30 10011 C 954.041 -2.329 1.50508 0
M  V30 10012 H 956.992 -1.02003 1.21577 0
M  V30 10013 H 957.013 -3.71352 0.829334 0
M  V30 10014 H 956.525 -2.97154 2.49642 0
M  V30 10015 H 954.626 -3.72306 0.147968 0
M  V30 10016 H 954.739 -4.39446 1.90852 0
M  V30 10017 H 953.103 -2.37305 0.925124 0
M  V30 10018 H 953.886 -2.25093 2.59207 0
M  V30 10019 N 956.331 -0.831506 -1.3388 0
M  V30 10020 C 957.742 -0.481375 -1.80388 0
M  V30 10021 C 958.093 0.998993 -1.68863 0
M  V30 10022 O 957.218 1.77795 -1.2336 0
M  V30 10023 C 957.813 -0.86699 -3.27519 0
M  V30 10024 C 956.372 -0.569105 -3.72073 0
M  V30 10025 C 955.519 -1.07929 -2.55434 0
M  V30 10026 H 958.47 -1.02089 -1.21505 0
M  V30 10027 H 958.491 -0.174128 -3.80101 0
M  V30 10028 H 958.003 -1.94447 -3.35875 0
M  V30 10029 H 956.104 0.498607 -3.69249 0
M  V30 10030 H 956.217 -1.11918 -4.65845 0
M  V30 10031 H 954.581 -0.500465 -2.49735 0
M  V30 10032 H 955.364 -2.16339 -2.66556 0
M  V30 10033 N 957.809 1.4625 -0.587256 0
M  V30 10034 C 958.739 2.33132 0.131076 0
M  V30 10035 C 959.72 1.45619 0.879158 0
M  V30 10036 O 960.905 1.74428 0.853723 0
M  V30 10037 C 958.035 3.27975 1.14236 0
M  V30 10038 C 956.989 4.24965 0.508819 0
M  V30 10039 C 956.315 5.09349 1.62689 0
M  V30 10040 C 957.615 5.19322 -0.55694 0
M  V30 10041 H 959.309 2.93442 -0.594333 0
M  V30 10042 H 956.855 1.41106 -0.287263 0
M  V30 10043 H 958.808 3.87614 1.65328 0
M  V30 10044 H 957.532 2.65781 1.8981 0
M  V30 10045 H 956.191 3.66595 0.0189337 0
M  V30 10046 H 955.839 4.43537 2.37242 0
M  V30 10047 H 955.539 5.75036 1.20861 0
M  V30 10048 H 957.063 5.71852 2.14049 0
M  V30 10049 H 958.477 5.73151 -0.130903 0
M  V30 10050 H 956.874 5.93376 -0.895801 0
M  V30 10051 H 957.944 4.62979 -1.44148 0
M  V30 10052 N 959.287 0.325282 1.54207 0
M  V30 10053 C 960.219 -0.57395 2.21897 0
M  V30 10054 C 961.232 -1.0785 1.21952 0
M  V30 10055 O 962.421 -0.991782 1.48411 0
M  V30 10056 C 959.521 -1.8005 2.87115 0
M  V30 10057 C 958.694 -1.43435 4.13213 0
M  V30 10058 C 957.753 -2.51862 4.62009 0
M  V30 10059 O 956.779 -2.15934 5.26651 0
M  V30 10060 N 957.981 -3.8282 4.36382 0
M  V30 10061 H 960.746 0.00566918 2.99699 0
M  V30 10062 H 958.307 0.148563 1.61217 0
M  V30 10063 H 960.299 -2.51981 3.16682 0
M  V30 10064 H 958.869 -2.28792 2.13009 0
M  V30 10065 H 958.089 -0.546598 3.90392 0
M  V30 10066 H 959.377 -1.16544 4.95273 0
M  V30 10067 H 958.775 -4.14807 3.84645 0
M  V30 10068 H 957.332 -4.50976 4.70599 0
M  V30 10069 N 960.765 -1.57509 0.0534917 0
M  V30 10070 C 961.728 -2.10563 -0.905307 0
M  V30 10071 C 962.728 -1.02571 -1.23838 0
M  V30 10072 O 963.918 -1.28635 -1.17468 0
M  V30 10073 C 961.05 -2.5918 -2.21447 0
M  V30 10074 H 962.243 -2.96575 -0.445354 0
M  V30 10075 H 959.796 -1.55079 -0.194947 0
M  V30 10076 H 960.531 -1.76568 -2.72019 0
M  V30 10077 H 960.316 -3.38098 -1.98575 0
M  V30 10078 H 961.806 -3.00365 -2.90122 0
M  V30 10079 N 962.243 0.219913 -1.56058 0
M  V30 10080 C 963.176 1.29978 -1.87566 0
M  V30 10081 C 964.154 1.45131 -0.733203 0
M  V30 10082 O 965.338 1.60917 -0.981729 0
M  V30 10083 C 962.465 2.66988 -2.08411 0
M  V30 10084 C 961.511 2.68842 -3.31099 0
M  V30 10085 S 962.344 2.22745 -4.86975 0
M  V30 10086 C 963.5 3.61627 -5.10859 0
M  V30 10087 H 963.733 1.03059 -2.78866 0
M  V30 10088 H 961.266 0.422233 -1.48514 0
M  V30 10089 H 963.224 3.45866 -2.21104 0
M  V30 10090 H 961.885 2.91131 -1.17905 0
M  V30 10091 H 961.078 3.69526 -3.42734 0
M  V30 10092 H 960.68 1.98028 -3.17271 0
M  V30 10093 H 962.972 4.57328 -4.99857 0
M  V30 10094 H 963.915 3.54906 -6.12737 0
M  V30 10095 H 964.323 3.55391 -4.38586 0
M  V30 10096 N 963.721 1.49897 0.486681 0
M  V30 10097 C 965.137 1.36977 0.819109 0
M  V30 10098 C 965.337 0.41385 1.97204 0
M  V30 10099 O 964.393 -0.149249 2.52059 0
M  V30 10100 C 965.706 2.78013 1.14584 0
M  V30 10101 C 967.254 2.86816 1.25321 0
M  V30 10102 C 967.729 4.28651 1.61316 0
M  V30 10103 N 969.22 4.31528 1.68337 0
M  V30 10104 C 969.955 5.38254 1.97662 0
M  V30 10105 N 969.451 6.55207 2.25113 0
M  V30 10106 N 971.244 5.25683 1.99033 0
M  V30 10107 H 963.395 2.10634 -0.273364 0
M  V30 10108 H 965.658 0.946116 -0.0597418 0
M  V30 10109 H 965.364 3.49728 0.371892 0
M  V30 10110 H 965.238 3.1428 2.08585 0
M  V30 10111 H 967.625 2.15329 2.01785 0
M  V30 10112 H 967.706 2.54112 0.293368 0
M  V30 10113 H 967.35 5.00669 0.853968 0
M  V30 10114 H 967.28 4.5883 2.58424 0
M  V30 10115 H 969.771 3.47189 1.49226 0
M  V30 10116 H 970.084 7.32359 2.46717 0
M  V30 10117 H 968.429 6.58408 2.22538 0
M  V30 10118 H 971.62 4.33316 1.77074 0
M  V30 10119 H 971.793 6.08949 2.21552 0
M  V30 10120 N 965.199 -0.738761 1.39212 0
M  V30 10121 C 966.615 -1.04381 1.20734 0
M  V30 10122 C 966.815 -2.01391 0.0663082 0
M  V30 10123 O 965.871 -2.45672 -0.583229 0
M  V30 10124 C 967.184 -1.6097 2.53987 0
M  V30 10125 C 968.732 -1.73069 2.60799 0
M  V30 10126 C 969.207 -2.33067 3.94264 0
M  V30 10127 N 970.698 -2.40481 3.95883 0
M  V30 10128 C 971.433 -2.87834 4.95923 0
M  V30 10129 N 970.929 -3.35111 6.0636 0
M  V30 10130 N 972.722 -2.87009 4.83304 0
M  V30 10131 H 964.873 -0.0952996 2.12186 0
M  V30 10132 H 967.136 -0.104902 0.942178 0
M  V30 10133 H 966.842 -0.971548 3.38015 0
M  V30 10134 H 966.716 -2.59829 2.73439 0
M  V30 10135 H 969.103 -2.36007 1.77157 0
M  V30 10136 H 969.184 -0.728728 2.452 0
M  V30 10137 H 968.828 -1.70758 4.78335 0
M  V30 10138 H 968.758 -3.33933 4.07181 0
M  V30 10139 H 971.249 -2.07061 3.16123 0
M  V30 10140 H 971.562 -3.69742 6.78609 0
M  V30 10141 H 969.907 -3.33129 6.09959 0
M  V30 10142 H 973.098 -2.49395 3.96131 0
M  V30 10143 H 973.271 -3.23598 5.61416 0
M  V30 10144 N 966.677 -1.24326 -0.968545 0
M  V30 10145 C 967.926 -1.07647 -1.70572 0
M  V30 10146 C 968.239 0.384821 -1.91777 0
M  V30 10147 O 969.445 0.671782 -2.63058 0
M  V30 10148 C 967.901 -1.87799 -3.07017 0
M  V30 10149 C 967.509 -3.38333 -2.93658 0
M  V30 10150 C 969.253 -1.79647 -3.84613 0
M  V30 10151 C 967.16 -4.10831 -4.25407 0
M  V30 10152 H 966.09 -0.399216 -0.639642 0
M  V30 10153 H 968.741 -1.484 -1.07934 0
M  V30 10154 H 967.123 -1.3986 -3.7048 0
M  V30 10155 H 968.297 -3.93845 -2.39213 0
M  V30 10156 H 966.612 -3.47427 -2.29528 0
M  V30 10157 H 969.209 -2.31116 -4.82172 0
M  V30 10158 H 969.552 -0.761553 -4.09275 0
M  V30 10159 H 970.085 -2.25261 -3.27875 0
M  V30 10160 H 966.824 -5.14679 -4.05939 0
M  V30 10161 H 966.344 -3.60105 -4.79671 0
M  V30 10162 H 968.023 -4.17783 -4.94031 0
M  V30 10163 N 968.156 1.1691 -1.05688 0
M  V30 10164 C 969.572 1.39288 -0.779167 0
M  V30 10165 C 969.772 1.91587 0.624231 0
M  V30 10166 O 968.828 2.11072 1.38582 0
M  V30 10167 C 970.141 2.37914 -1.83895 0
M  V30 10168 C 971.689 2.51611 -1.86175 0
M  V30 10169 C 972.164 3.53514 -2.9119 0
M  V30 10170 N 973.655 3.61036 -2.90184 0
M  V30 10171 C 974.39 4.39657 -3.68088 0
M  V30 10172 N 973.886 5.21752 -4.55793 0
M  V30 10173 N 975.679 4.3458 -3.56507 0
M  V30 10174 H 967.83 0.81296 -1.96226 0
M  V30 10175 H 970.093 0.419818 -0.849975 0
M  V30 10176 H 969.799 2.06568 -2.84645 0
M  V30 10177 H 969.673 3.37483 -1.68479 0
M  V30 10178 H 972.06 2.82264 -0.86087 0
M  V30 10179 H 972.141 1.52099 -2.05668 0
M  V30 10180 H 971.785 3.23599 -3.91467 0
M  V30 10181 H 971.715 4.52742 -2.68947 0
M  V30 10182 H 974.206 3.02428 -2.26596 0
M  V30 10183 H 974.519 5.78939 -5.11907 0
M  V30 10184 H 972.864 5.21116 -4.59851 0
M  V30 10185 H 976.055 3.69501 -2.87379 0
M  V30 10186 H 976.228 4.95607 -4.17466 0
M  V30 10187 N 969.634 0.838594 1.33437 0
M  V30 10188 C 970.911 0.356112 1.92331 0
M  V30 10189 C 971.291 -1.1585 1.76471 0
M  V30 10190 O 970.639 -1.97281 1.15293 0
M  V30 10191 C 970.849 0.802715 3.39643 0
M  V30 10192 C 972.197 0.810575 4.16791 0
M  V30 10193 O 973.221 0.746304 3.48294 0
M  V30 10194 O 972.08 0.898082 5.3907 0
M  V30 10195 H 969.174 0.100711 0.820845 0
M  V30 10196 H 971.72 0.924428 1.42311 0
M  V30 10197 H 970.492 1.84529 3.45057 0
M  V30 10198 H 970.115 0.210956 3.9704 0
M  V30 10199 N 971.112 -1.45937 0.595003 0
M  V30 10200 C 972.337 -2.07207 0.0894416 0
M  V30 10201 C 972.762 -1.43884 -1.21157 0
M  V30 10202 O 972.12 -0.526998 -1.73472 0
M  V30 10203 C 972.168 -3.60565 -0.0499828 0
M  V30 10204 O 971.272 -3.97364 -1.10342 0
M  V30 10205 H 970.613 -0.660471 0.0683627 0
M  V30 10206 H 973.143 -1.87386 0.82144 0
M  V30 10207 H 973.153 -4.0722 -0.252234 0
M  V30 10208 H 971.828 -4.06044 0.90006 0
M  V30 10209 H 970.405 -3.62401 -0.878645 0
M  V30 10210 N 972.59 -0.333456 -1.54032 0
M  V30 10211 C 973.52 0.52051 -2.27625 0
M  V30 10212 C 974.501 1.1111 -1.28797 0
M  V30 10213 O 975.686 1.13438 -1.57625 0
M  V30 10214 C 972.816 1.67663 -3.04149 0
M  V30 10215 C 971.77 1.21487 -4.10396 0
M  V30 10216 C 971.096 2.45872 -4.74817 0
M  V30 10217 C 972.396 0.322603 -5.21303 0
M  V30 10218 H 974.09 -0.0933823 -2.99254 0
M  V30 10219 H 971.636 -0.0463526 -1.43925 0
M  V30 10220 H 973.589 2.28041 -3.54366 0
M  V30 10221 H 972.313 2.31727 -2.30153 0
M  V30 10222 H 970.972 0.633966 -3.61077 0
M  V30 10223 H 970.62 3.0832 -3.97426 0
M  V30 10224 H 970.32 2.15662 -5.46593 0
M  V30 10225 H 971.844 3.06994 -5.27814 0
M  V30 10226 H 973.258 0.832942 -5.67217 0
M  V30 10227 H 971.655 0.112843 -5.99994 0
M  V30 10228 H 972.725 -0.643954 -4.80605 0
M  V30 10229 N 974.068 1.57479 -0.061844 0
M  V30 10230 C 975.479 1.80627 0.472295 0
M  V30 10231 C 975.83 0.97496 1.70261 0
M  V30 10232 O 974.955 0.1946 2.15523 0
M  V30 10233 C 975.55 3.27608 0.863616 0
M  V30 10234 C 974.109 3.51638 1.34267 0
M  V30 10235 C 973.256 2.75412 0.323009 0
M  V30 10236 H 976.207 1.56072 -0.287634 0
M  V30 10237 H 976.228 3.39113 1.72577 0
M  V30 10238 H 975.74 3.88087 -0.0320226 0
M  V30 10239 H 973.841 2.96452 2.25714 0
M  V30 10240 H 973.954 4.60342 1.32747 0
M  V30 10241 H 972.318 2.4187 0.798175 0
M  V30 10242 H 973.101 3.38623 -0.564729 0
M  V30 10243 N 975.546 -0.211634 1.56173 0
M  V30 10244 C 976.957 -0.777776 1.69728 0
M  V30 10245 C 977.308 -1.84566 0.66558 0
M  V30 10246 O 976.433 -2.15639 -0.181338 0
M  V30 10247 C 977.028 -1.41757 3.07718 0
M  V30 10248 C 975.587 -1.93098 3.23094 0
M  V30 10249 C 974.734 -0.794785 2.65666 0
M  V30 10250 H 977.685 0.0131839 1.58695 0
M  V30 10251 H 977.706 -2.28662 3.04128 0
M  V30 10252 H 977.218 -0.640114 3.82785 0
M  V30 10253 H 975.319 -2.73615 2.52914 0
M  V30 10254 H 975.432 -2.10414 4.30422 0
M  V30 10255 H 973.796 -1.20473 2.24407 0
M  V30 10256 H 974.579 -0.0298408 3.43287 0
M  V30 10257 N 977.024 -1.50153 -0.478725 0
M  V30 10258 C 978.44 -1.3741 -0.811833 0
M  V30 10259 C 978.64 -0.424303 -1.96982 0
M  V30 10260 O 977.696 0.13588 -2.52134 0
M  V30 10261 C 979.009 -2.78616 -1.13108 0
M  V30 10262 C 980.557 -2.87477 -1.23798 0
M  V30 10263 C 981.032 -4.295 -1.5904 0
M  V30 10264 N 982.523 -4.32415 -1.66047 0
M  V30 10265 C 983.258 -5.39295 -1.94805 0
M  V30 10266 N 982.754 -6.56392 -2.21635 0
M  V30 10267 N 984.547 -5.26731 -1.96243 0
M  V30 10268 H 976.698 -2.10486 0.284531 0
M  V30 10269 H 978.961 -0.945786 0.0647585 0
M  V30 10270 H 978.667 -3.49921 -0.35334 0
M  V30 10271 H 978.541 -3.15382 -2.06915 0
M  V30 10272 H 980.928 -2.16396 -2.00641 0
M  V30 10273 H 981.009 -2.54264 -0.279888 0
M  V30 10274 H 980.653 -5.01115 -0.827404 0
M  V30 10275 H 980.583 -4.60194 -2.55987 0
M  V30 10276 H 983.074 -3.47975 -1.47383 0
M  V30 10277 H 983.387 -7.33658 -2.4283 0
M  V30 10278 H 981.732 -6.59579 -2.19043 0
M  V30 10279 H 984.923 -4.34249 -1.74773 0
M  V30 10280 H 985.096 -6.10115 -2.1832 0
M  V30 10281 N 978.502 0.731368 -1.39602 0
M  V30 10282 C 979.748 1.49321 -1.37227 0
M  V30 10283 C 980.081 1.94176 0.0306502 0
M  V30 10284 O 979.356 1.67046 0.996294 0
M  V30 10285 C 979.639 2.73035 -2.34784 0
M  V30 10286 C 979.492 2.34176 -3.84033 0
M  V30 10287 C 980.811 3.75146 -2.30116 0
M  V30 10288 H 977.93 0.541652 -0.499783 0
M  V30 10289 H 980.572 0.835968 -1.70621 0
M  V30 10290 H 978.722 3.29114 -2.06437 0
M  V30 10291 H 980.394 1.83701 -4.23145 0
M  V30 10292 H 978.637 1.66361 -4.00633 0
M  V30 10293 H 979.308 3.22786 -4.47787 0
M  V30 10294 H 981.784 3.28661 -2.55189 0
M  V30 10295 H 980.66 4.5937 -3.00451 0
M  V30 10296 H 980.921 4.22326 -1.30741 0
M  V30 10297 N 979.98 1.24838 0.961938 0
M  V30 10298 C 980.927 1.04582 2.05745 0
M  V30 10299 C 981.897 -0.0427281 1.66045 0
M  V30 10300 O 983.082 0.113026 1.90465 0
M  V30 10301 C 980.222 0.66284 3.38675 0
M  V30 10302 C 979.335 1.82548 3.91536 0
M  V30 10303 C 978.47 1.38753 5.12758 0
M  V30 10304 C 977.509 2.51976 5.5783 0
M  V30 10305 N 976.646 2.09009 6.70268 0
M  V30 10306 H 981.486 1.98343 2.22405 0
M  V30 10307 H 979.023 0.987822 1.08998 0
M  V30 10308 H 980.981 0.421788 4.15062 0
M  V30 10309 H 979.611 -0.237776 3.21923 0
M  V30 10310 H 978.663 2.18004 3.11735 0
M  V30 10311 H 979.975 2.67601 4.20941 0
M  V30 10312 H 979.129 1.1057 5.96539 0
M  V30 10313 H 977.868 0.507618 4.85051 0
M  V30 10314 H 976.873 2.80912 4.72619 0
M  V30 10315 H 978.098 3.40534 5.87549 0
M  V30 10316 H 976.044 1.23423 6.44285 0
M  V30 10317 H 975.961 2.87613 6.99153 0
M  V30 10318 H 977.229 1.83981 7.57477 0
M  V30 10319 N 981.458 -1.16348 1.06306 0
M  V30 10320 C 982.735 -1.829 0.69331 0
M  V30 10321 C 983.115 -1.94298 -0.82531 0
M  V30 10322 O 982.463 -1.48619 -1.73565 0
M  V30 10323 C 982.673 -3.1989 1.3954 0
M  V30 10324 C 984.021 -3.95662 1.54068 0
M  V30 10325 O 985.045 -3.29408 1.35532 0
M  V30 10326 O 983.904 -5.14422 1.84479 0
M  V30 10327 H 980.998 -0.789738 0.245445 0
M  V30 10328 H 983.544 -1.23549 1.16334 0
M  V30 10329 H 982.316 -3.06629 2.43093 0
M  V30 10330 H 981.939 -3.86918 0.915453 0
M  V30 10331 N 982.937 -0.845659 -1.3299 0
M  V30 10332 C 983.867 -0.298957 -2.31578 0
M  V30 10333 C 984.848 0.597012 -1.59279 0
M  V30 10334 O 986.033 0.519142 -1.87132 0
M  V30 10335 C 983.163 0.521109 -3.43368 0
M  V30 10336 C 982.117 -0.279651 -4.27085 0
M  V30 10337 C 981.443 0.664591 -5.30554 0
M  V30 10338 C 982.743 -1.50046 -5.00283 0
M  V30 10339 H 984.437 -1.12272 -2.77552 0
M  V30 10340 H 981.983 -0.54132 -1.33438 0
M  V30 10341 H 983.936 0.913921 -4.1137 0
M  V30 10342 H 982.66 1.37815 -2.96099 0
M  V30 10343 H 981.319 -0.654106 -3.60717 0
M  V30 10344 H 980.967 1.51822 -4.79541 0
M  V30 10345 H 980.667 0.132871 -5.8745 0
M  V30 10346 H 982.191 1.05477 -6.01421 0
M  V30 10347 H 983.605 -1.18044 -5.61016 0
M  V30 10348 H 982.002 -1.96946 -5.66862 0
M  V30 10349 H 983.072 -2.26659 -4.28665 0
M  V30 10350 N 984.415 1.45619 -0.602734 0
M  V30 10351 C 985.365 2.27568 0.140264 0
M  V30 10352 C 986.349 1.3704 0.84314 0
M  V30 10353 O 987.541 1.61067 0.733931 0
M  V30 10354 C 984.67 3.23812 1.14019 0
M  V30 10355 C 983.756 4.21828 0.438406 0
M  V30 10356 N 984.147 5.03148 -0.517245 0
M  V30 10357 C 982.445 4.40684 0.686588 0
M  V30 10358 C 983.146 5.74229 -0.929291 0
M  V30 10359 N 982.122 5.42909 -0.274086 0
M  V30 10360 H 985.924 2.87839 -0.5938 0
M  V30 10361 H 983.438 1.56712 -0.426033 0
M  V30 10362 H 985.435 3.8125 1.68684 0
M  V30 10363 H 984.095 2.65102 1.87486 0
M  V30 10364 H 985.106 5.1013 -0.893758 0
M  V30 10365 H 981.783 3.93102 1.4063 0
M  V30 10366 H 983.173 6.49586 -1.7172 0
M  V30 10367 N 985.893 0.34162 1.53853 0
M  V30 10368 C 986.84 -0.516058 2.24957 0
M  V30 10369 C 987.81 -1.09711 1.2471 0
M  V30 10370 O 988.995 -1.13409 1.53438 0
M  V30 10371 C 986.135 -1.66207 3.02439 0
M  V30 10372 C 985.248 -1.10851 4.17536 0
M  V30 10373 C 984.383 -2.22167 4.82509 0
M  V30 10374 C 983.422 -1.64152 5.89678 0
M  V30 10375 N 982.559 -2.69203 6.4844 0
M  V30 10376 H 987.399 0.0968275 2.97843 0
M  V30 10377 H 984.936 0.0595565 1.46979 0
M  V30 10378 H 986.894 -2.33672 3.4562 0
M  V30 10379 H 985.524 -2.24597 2.31853 0
M  V30 10380 H 984.576 -0.324853 3.7901 0
M  V30 10381 H 985.888 -0.644151 4.94623 0
M  V30 10382 H 985.042 -2.97501 5.28751 0
M  V30 10383 H 983.781 -2.71946 4.04842 0
M  V30 10384 H 982.786 -0.873228 5.42821 0
M  V30 10385 H 984.011 -1.15228 6.69253 0
M  V30 10386 H 981.957 -3.1824 5.73637 0
M  V30 10387 H 981.874 -2.27383 7.20994 0
M  V30 10388 H 983.142 -3.44312 6.99335 0
M  V30 10389 N 987.371 -1.57444 0.0701946 0
M  V30 10390 C 988.617 -1.93716 -0.600178 0
M  V30 10391 C 988.95 -0.950329 -1.69359 0
M  V30 10392 O 988.225 0.0207123 -1.94489 0
M  V30 10393 C 988.508 -3.40266 -1.17861 0
M  V30 10394 C 988.361 -4.49706 -0.0919575 0
M  V30 10395 C 989.68 -3.87599 -2.08459 0
M  V30 10396 H 986.799 -0.704421 -0.216704 0
M  V30 10397 H 989.441 -1.89514 0.135838 0
M  V30 10398 H 987.591 -3.43977 -1.80587 0
M  V30 10399 H 989.263 -4.58116 0.541031 0
M  V30 10400 H 987.506 -4.29937 0.577639 0
M  V30 10401 H 988.177 -5.49381 -0.537048 0
M  V30 10402 H 990.653 -3.85883 -1.5567 0
M  V30 10403 H 989.529 -4.90755 -2.45867 0
M  V30 10404 H 989.79 -3.25448 -2.99226 0
M  V30 10405 N 988.849 0.203349 -1.56283 0
M  V30 10406 C 990.074 0.945548 -1.84592 0
M  V30 10407 C 990.499 1.7641 -0.652772 0
M  V30 10408 O 989.857 1.76867 0.398468 0
M  V30 10409 C 989.905 1.82416 -3.11057 0
M  V30 10410 O 989.009 2.92191 -2.9103 0
M  V30 10411 H 988.35 0.266739 -0.608068 0
M  V30 10412 H 990.88 0.211158 -2.03507 0
M  V30 10413 H 990.89 2.23044 -3.41636 0
M  V30 10414 H 989.565 1.22267 -3.97522 0
M  V30 10415 H 988.142 2.55378 -2.71728 0
M  V30 10416 N 990.327 1.50405 0.470755 0
M  V30 10417 C 991.552 1.65442 1.25075 0
M  V30 10418 C 991.977 0.337612 1.85045 0
M  V30 10419 O 991.335 -0.698555 1.67302 0
M  V30 10420 C 991.383 2.74793 2.33498 0
M  V30 10421 O 990.487 2.36069 3.3815 0
M  V30 10422 H 989.828 0.552728 0.367951 0
M  V30 10423 H 992.358 1.96782 0.560177 0
M  V30 10424 H 992.368 2.97879 2.78804 0
M  V30 10425 H 991.043 3.70363 1.8922 0
M  V30 10426 H 989.62 2.2343 2.98552 0
M  V30 10427 N 991.805 -0.723954 1.39988 0
M  V30 10428 C 993.051 -1.48591 1.38017 0
M  V30 10429 C 993.384 -1.94189 -0.0203522 0
M  V30 10430 O 992.659 -1.67572 -0.987422 0
M  V30 10431 C 992.942 -2.71786 2.36229 0
M  V30 10432 C 992.795 -2.32136 3.8527 0
M  V30 10433 C 994.114 -3.73921 2.32102 0
M  V30 10434 H 991.233 -0.538993 0.502648 0
M  V30 10435 H 993.875 -0.826908 1.71062 0
M  V30 10436 H 992.025 -3.28015 2.0818 0
M  V30 10437 H 993.697 -1.81454 4.24113 0
M  V30 10438 H 991.94 -1.64234 4.01509 0
M  V30 10439 H 992.611 -3.20406 4.49493 0
M  V30 10440 H 995.087 -3.27303 2.56928 0
M  V30 10441 H 993.963 -4.5777 3.02882 0
M  V30 10442 H 994.224 -4.21627 1.32979 0
M  V30 10443 N 993.283 -1.25346 -0.955304 0
M  V30 10444 C 994.213 -1.08152 -2.06943 0
M  V30 10445 C 995.194 0.00922598 -1.70097 0
M  V30 10446 O 996.379 -0.160181 -1.93538 0
M  V30 10447 C 993.509 -0.698745 -3.40198 0
M  V30 10448 C 992.463 -1.73965 -3.9105 0
M  V30 10449 C 991.789 -1.21158 -5.20792 0
M  V30 10450 C 993.089 -3.13829 -4.17503 0
M  V30 10451 H 994.783 -2.01345 -2.21586 0
M  V30 10452 H 992.329 -0.969459 -1.06478 0
M  V30 10453 H 994.282 -0.565394 -4.1759 0
M  V30 10454 H 993.006 0.268892 -3.25491 0
M  V30 10455 H 991.665 -1.86143 -3.15827 0
M  V30 10456 H 991.313 -0.234193 -5.02455 0
M  V30 10457 H 991.013 -1.90728 -5.55785 0
M  V30 10458 H 992.537 -1.09061 -6.00781 0
M  V30 10459 H 993.951 -3.04809 -4.85556 0
M  V30 10460 H 992.348 -3.80863 -4.63749 0
M  V30 10461 H 993.418 -3.6094 -3.23806 0
M  V30 10462 N 994.761 1.15782 -1.06922 0
M  V30 10463 C 996.177 1.38454 -0.793896 0
M  V30 10464 C 996.377 1.92238 0.603875 0
M  V30 10465 O 995.433 2.1253 1.36335 0
M  V30 10466 C 996.746 2.3595 -1.86408 0
M  V30 10467 C 998.294 2.49622 -1.88833 0
M  V30 10468 C 998.769 3.50406 -2.94923 0
M  V30 10469 N 1000.26 3.57938 -2.93997 0
M  V30 10470 C 1001 4.35728 -3.72731 0
M  V30 10471 N 1000.49 5.16888 -4.61301 0
M  V30 10472 N 1002.28 4.30774 -3.61096 0
M  V30 10473 H 994.435 0.792101 -1.97077 0
M  V30 10474 H 996.698 0.410779 -0.85438 0
M  V30 10475 H 996.404 2.03537 -2.86819 0
M  V30 10476 H 996.278 3.35677 -1.72049 0
M  V30 10477 H 998.665 2.81335 -0.890759 0
M  V30 10478 H 998.746 1.49909 -2.0727 0
M  V30 10479 H 998.39 3.19429 -3.94877 0
M  V30 10480 H 998.32 4.49864 -2.73734 0
M  V30 10481 H 1000.81 3.00007 -2.29791 0
M  V30 10482 H 1001.12 5.73477 -5.18019 0
M  V30 10483 H 999.469 5.16209 -4.65353 0
M  V30 10484 H 1002.66 3.66432 -2.91282 0
M  V30 10485 H 1002.83 4.91151 -4.22699 0
M  V30 10486 N 996.239 0.8527 1.3254 0
M  V30 10487 C 997.487 0.454224 1.96929 0
M  V30 10488 C 997.808 -0.993034 1.67821 0
M  V30 10489 O 997.078 -1.69371 0.984393 0
M  V30 10490 H 995.658 0.164977 0.728554 0
M  V30 10491 H 998.32 1.0887 1.61658 0
M  V30 10492 H 997.416 0.597667 3.06324 0
M  V30 10493 N 997.718 -1.45297 0.610449 0
M  V30 10494 C 998.965 -2.02218 0.106759 0
M  V30 10495 C 999.293 -1.47849 -1.26376 0
M  V30 10496 O 998.548 -0.644402 -1.84786 0
M  V30 10497 C 998.847 -3.57394 0.0205329 0
M  V30 10498 C 998.513 -4.30928 1.32709 0
M  V30 10499 C 997.175 -4.50735 1.68498 0
M  V30 10500 C 999.527 -4.72936 2.19046 0
M  V30 10501 C 996.855 -5.09806 2.90371 0
M  V30 10502 C 999.207 -5.33355 3.40169 0
M  V30 10503 C 997.871 -5.51384 3.76207 0
M  V30 10504 H 997.141 -0.739969 0.039066 0
M  V30 10505 H 999.788 -1.74326 0.792638 0
M  V30 10506 H 998.093 -3.84581 -0.748623 0
M  V30 10507 H 999.79 -3.99144 -0.385386 0
M  V30 10508 H 996.38 -4.15827 1.03854 0
M  V30 10509 H 1000.56 -4.57365 1.92695 0
M  V30 10510 H 995.82 -5.21953 3.18395 0
M  V30 10511 H 999.994 -5.64859 4.07318 0
M  V30 10512 H 997.621 -5.96924 4.70729 0
M  V30 10513 N 999.196 -0.349774 -1.5367 0
M  V30 10514 C 1000.13 0.496338 -2.28164 0
M  V30 10515 C 1001.11 1.09737 -1.29968 0
M  V30 10516 O 1002.29 1.11759 -1.58819 0
M  V30 10517 C 999.422 1.64428 -3.0591 0
M  V30 10518 C 998.376 1.17127 -4.11661 0
M  V30 10519 C 997.702 2.40822 -4.77398 0
M  V30 10520 C 999.002 0.267293 -5.21616 0
M  V30 10521 H 1000.7 -0.125117 -2.99138 0
M  V30 10522 H 998.242 -0.0616152 -1.43868 0
M  V30 10523 H 1000.19 2.2427 -3.56765 0
M  V30 10524 H 998.919 2.29272 -2.32598 0
M  V30 10525 H 997.578 0.595634 -3.61729 0
M  V30 10526 H 997.226 3.04088 -4.00674 0
M  V30 10527 H 996.926 2.09852 -5.48849 0
M  V30 10528 H 998.45 3.01378 -5.3104 0
M  V30 10529 H 999.864 0.772734 -5.68068 0
M  V30 10530 H 998.261 0.0491991 -6.0008 0
M  V30 10531 H 999.331 -0.694892 -4.79895 0
M  V30 10532 N 1000.67 1.57404 -0.0785433 0
M  V30 10533 C 1001.95 1.85163 0.630389 0
M  V30 10534 C 1002.33 0.972295 1.87376 0
M  V30 10535 O 1001.68 0.0403375 2.28464 0
M  V30 10536 C 1001.89 3.35491 0.961604 0
M  V30 10537 C 1003.24 4.0316 1.33219 0
M  V30 10538 O 1004.26 3.40276 1.05313 0
M  V30 10539 O 1003.12 5.14086 1.85412 0
M  V30 10540 H 1000.21 0.765169 0.31376 0
M  V30 10541 H 1002.76 1.69343 -0.109986 0
M  V30 10542 H 1001.53 3.91221 0.0788113 0
M  V30 10543 H 1001.15 3.56598 1.75852 0
M  V30 10544 N 1002.15 -0.195058 1.56388 0
M  V30 10545 C 1003.08 -1.24444 1.97575 0
M  V30 10546 C 1004.06 -1.47471 0.847717 0
M  V30 10547 O 1005.25 -1.59208 1.11205 0
M  V30 10548 C 1002.38 -2.58866 2.31529 0
M  V30 10549 C 1001.33 -2.50451 3.47071 0
M  V30 10550 C 1000.66 -3.89146 3.667 0
M  V30 10551 C 1001.96 -2.02953 4.81256 0
M  V30 10552 H 1003.65 -0.902178 2.85484 0
M  V30 10553 H 1001.2 -0.43254 1.3735 0
M  V30 10554 H 1003.15 -3.3246 2.58936 0
M  V30 10555 H 1001.87 -2.94833 1.40502 0
M  V30 10556 H 1000.53 -1.79313 3.19754 0
M  V30 10557 H 1000.18 -4.22466 2.73004 0
M  V30 10558 H 999.882 -3.84391 4.44429 0
M  V30 10559 H 1001.41 -4.64363 3.96484 0
M  V30 10560 H 1002.82 -2.66306 5.07695 0
M  V30 10561 H 1001.22 -2.092 5.62455 0
M  V30 10562 H 1002.29 -0.982757 4.74837 0
M  V30 10563 N 1003.63 -1.50653 -0.462772 0
M  V30 10564 C 1004.56 -1.64773 -1.57877 0
M  V30 10565 C 1005.54 -0.495664 -1.54861 0
M  V30 10566 O 1006.72 -0.716248 -1.74362 0
M  V30 10567 C 1003.85 -1.63796 -2.9646 0
M  V30 10568 C 1002.9 -2.84663 -3.17599 0
M  V30 10569 S 1003.73 -4.45852 -2.96608 0
M  V30 10570 C 1004.89 -4.47581 -4.37518 0
M  V30 10571 H 1005.12 -2.59172 -1.45661 0
M  V30 10572 H 1002.65 -1.40019 -0.650699 0
M  V30 10573 H 1004.61 -1.63918 -3.76353 0
M  V30 10574 H 1003.27 -0.706185 -3.06059 0
M  V30 10575 H 1002.46 -2.80308 -4.1886 0
M  V30 10576 H 1002.07 -2.82152 -2.45492 0
M  V30 10577 H 1004.36 -4.21656 -5.30295 0
M  V30 10578 H 1005.3 -5.49248 -4.46914 0
M  V30 10579 H 1005.71 -3.7719 -4.19985 0
M  V30 10580 N 1005.11 0.71652 -1.4037 0
M  V30 10581 C 1006.04 1.84345 -1.43315 0
M  V30 10582 C 1007.02 1.67537 -0.294186 0
M  V30 10583 O 1008.2 1.87582 -0.502671 0
M  V30 10584 C 1005.33 3.2229 -1.29408 0
M  V30 10585 C 1004.29 3.53769 -2.40897 0
M  V30 10586 C 1003.61 4.90847 -2.12068 0
M  V30 10587 C 1004.91 3.54862 -3.83237 0
M  V30 10588 H 1006.61 1.82138 -2.37626 0
M  V30 10589 H 1004.15 0.874873 -1.14376 0
M  V30 10590 H 1006.11 4.00819 -1.30085 0
M  V30 10591 H 1004.83 3.2507 -0.31573 0
M  V30 10592 H 1003.49 2.77579 -2.39469 0
M  V30 10593 H 1003.14 4.90229 -1.12626 0
M  V30 10594 H 1002.84 5.12875 -2.86762 0
M  V30 10595 H 1004.36 5.71711 -2.14426 0
M  V30 10596 H 1005.78 4.23432 -3.86494 0
M  V30 10597 H 1004.17 3.88416 -4.57442 0
M  V30 10598 H 1005.24 2.54266 -4.12888 0
M  V30 10599 N 1006.59 1.25851 0.948643 0
M  V30 10600 C 1007.83 1.11119 1.69648 0
M  V30 10601 C 1008.17 -0.345995 1.91093 0
M  V30 10602 O 1007.44 -1.25467 1.48621 0
M  V30 10603 C 1007.72 1.87261 3.0758 0
M  V30 10604 C 1007.58 3.40842 2.93507 0
M  V30 10605 C 1008.9 1.6605 4.07573 0
M  V30 10606 H 1006.01 0.405052 0.615713 0
M  V30 10607 H 1008.66 1.54756 1.10229 0
M  V30 10608 H 1006.81 1.50172 3.58303 0
M  V30 10609 H 1008.48 3.87641 2.50064 0
M  V30 10610 H 1006.72 3.68248 2.29294 0
M  V30 10611 H 1007.39 3.89339 3.91305 0
M  V30 10612 H 1009.87 1.98348 3.65783 0
M  V30 10613 H 1008.74 2.21753 5.02113 0
M  V30 10614 H 1009.01 0.603256 4.37965 0
M  V30 10615 N 1008.06 -1.15214 1.07534 0
M  V30 10616 C 1009.48 -1.38031 0.801228 0
M  V30 10617 C 1009.68 -1.92556 -0.593672 0
M  V30 10618 O 1008.74 -2.1325 -1.35206 0
M  V30 10619 C 1010.05 -2.34958 1.87657 0
M  V30 10620 C 1011.6 -2.48617 1.90154 0
M  V30 10621 C 1012.07 -3.48837 2.96777 0
M  V30 10622 N 1013.56 -3.56374 2.95892 0
M  V30 10623 C 1014.3 -4.33746 3.75036 0
M  V30 10624 N 1013.79 -5.14435 4.64036 0
M  V30 10625 N 1015.59 -4.28853 3.63375 0
M  V30 10626 H 1007.74 -0.781639 1.97495 0
M  V30 10627 H 1010 -0.406243 0.856546 0
M  V30 10628 H 1009.71 -2.02013 2.87895 0
M  V30 10629 H 1009.58 -3.3476 1.73827 0
M  V30 10630 H 1011.97 -2.80859 0.905666 0
M  V30 10631 H 1012.05 -1.48808 2.08062 0
M  V30 10632 H 1011.69 -3.1733 3.96565 0
M  V30 10633 H 1011.62 -4.48406 2.76116 0
M  V30 10634 H 1014.11 -2.98784 2.31379 0
M  V30 10635 H 1014.43 -5.70722 5.21053 0
M  V30 10636 H 1012.77 -5.13734 4.68084 0
M  V30 10637 H 1015.96 -3.64882 2.93221 0
M  V30 10638 H 1016.14 -4.88903 4.25298 0
M  V30 10639 N 1009.54 -0.859717 -1.32086 0
M  V30 10640 C 1010.45 -0.31108 -2.32528 0
M  V30 10641 C 1011.47 0.573714 -1.6427 0
M  V30 10642 O 1012.64 0.472878 -1.9577 0
M  V30 10643 C 1009.71 0.487256 -3.43259 0
M  V30 10644 C 1008.77 -0.424279 -4.27198 0
M  V30 10645 C 1008 0.336051 -5.32641 0
M  V30 10646 O 1008.23 1.56541 -5.48499 0
M  V30 10647 O 1007.16 -0.300777 -6.01148 0
M  V30 10648 H 1010.99 -1.14336 -2.81355 0
M  V30 10649 H 1008.57 -0.622794 -1.358 0
M  V30 10650 H 1010.45 0.940203 -4.10777 0
M  V30 10651 H 1009.13 1.29626 -2.96612 0
M  V30 10652 H 1008.04 -0.925509 -3.62471 0
M  V30 10653 H 1009.37 -1.1986 -4.77383 0
M  V30 10654 N 1011.02 1.44971 -0.618145 0
M  V30 10655 C 1012.43 1.85611 -0.201334 0
M  V30 10656 C 1012.78 1.51698 1.24427 0
M  V30 10657 O 1011.91 0.94875 1.94493 0
M  V30 10658 C 1012.5 3.36897 -0.358619 0
M  V30 10659 C 1011.06 3.764 0.00358196 0
M  V30 10660 C 1010.21 2.68881 -0.678118 0
M  V30 10661 H 1013.16 1.35622 -0.824152 0
M  V30 10662 H 1013.18 3.78326 0.406176 0
M  V30 10663 H 1012.69 3.61548 -1.41084 0
M  V30 10664 H 1010.79 3.57365 1.05457 0
M  V30 10665 H 1010.91 4.77449 -0.397427 0
M  V30 10666 H 1009.27 2.54442 -0.114699 0
M  V30 10667 H 1010.05 2.96367 -1.73268 0
M  V30 10668 N 1012.5 0.357919 1.53482 0
M  V30 10669 C 1013.72 -0.237769 2.06033 0
M  V30 10670 C 1014.15 -1.42292 1.23023 0
M  V30 10671 O 1013.51 -1.79604 0.247427 0
M  V30 10672 C 1013.55 -0.616806 3.55286 0
M  V30 10673 O 1012.66 -1.71503 3.75047 0
M  V30 10674 H 1012 -0.0364322 0.663 0
M  V30 10675 H 1014.53 0.516301 1.97979 0
M  V30 10676 H 1014.54 -0.88996 3.98175 0
M  V30 10677 H 1013.21 0.249825 4.15149 0
M  V30 10678 H 1011.79 -1.43803 3.44057 0
M  V30 10679 N 1013.98 -1.5736 0.0868897 0
M  V30 10680 C 1014.91 -2.10582 -0.904858 0
M  V30 10681 C 1015.92 -1.04124 -1.25148 0
M  V30 10682 O 1017.11 -1.31595 -1.20603 0
M  V30 10683 C 1014.21 -2.56381 -2.21635 0
M  V30 10684 C 1013.38 -3.86581 -2.04631 0
M  V30 10685 C 1012.44 -4.18313 -3.19219 0
M  V30 10686 O 1011.47 -4.87669 -2.93544 0
M  V30 10687 N 1012.67 -3.73061 -4.44754 0
M  V30 10688 H 1015.44 -2.96297 -0.450352 0
M  V30 10689 H 1013 -1.616 -0.0984376 0
M  V30 10690 H 1014.99 -2.7466 -2.97227 0
M  V30 10691 H 1013.56 -1.75721 -2.58536 0
M  V30 10692 H 1012.78 -3.77532 -1.13417 0
M  V30 10693 H 1014.07 -4.71777 -1.90537 0
M  V30 10694 H 1013.46 -3.1706 -4.68497 0
M  V30 10695 H 1012.02 -3.96511 -5.17322 0
M  V30 10696 N 1015.45 0.186762 -1.56489 0
M  V30 10697 C 1016.87 0.537933 -1.50261 0
M  V30 10698 C 1017.07 1.85435 -0.788414 0
M  V30 10699 O 1016.13 2.50168 -0.342377 0
M  V30 10700 C 1017.44 0.584965 -2.94955 0
M  V30 10701 C 1018.99 0.673228 -3.05674 0
M  V30 10702 C 1019.46 0.751294 -4.51796 0
M  V30 10703 N 1020.95 0.814599 -4.55981 0
M  V30 10704 C 1021.69 0.895313 -5.66367 0
M  V30 10705 N 1021.18 0.937814 -6.86423 0
M  V30 10706 N 1022.98 0.933145 -5.543 0
M  V30 10707 H 1015.13 -0.676636 -2.01334 0
M  V30 10708 H 1017.39 -0.242079 -0.916571 0
M  V30 10709 H 1017.1 -0.313361 -3.50301 0
M  V30 10710 H 1016.97 1.4368 -3.48763 0
M  V30 10711 H 1019.36 1.56198 -2.50372 0
M  V30 10712 H 1019.44 -0.204976 -2.54977 0
M  V30 10713 H 1019.08 -0.133143 -5.07725 0
M  V30 10714 H 1019.01 1.64542 -5.00233 0
M  V30 10715 H 1021.5 0.790662 -3.69536 0
M  V30 10716 H 1021.82 1.00015 -7.66301 0
M  V30 10717 H 1020.16 0.906351 -6.89065 0
M  V30 10718 H 1023.35 0.896836 -4.59428 0
M  V30 10719 H 1023.53 0.992588 -6.40353 0
M  V30 10720 N 1016.93 1.50896 0.454776 0
M  V30 10721 C 1017.9 1.70377 1.53312 0
M  V30 10722 C 1018.9 0.57408 1.50203 0
M  V30 10723 O 1020.09 0.841374 1.52534 0
M  V30 10724 C 1017.22 1.74411 2.92905 0
M  V30 10725 H 1018.41 2.66599 1.37349 0
M  V30 10726 H 1015.96 1.40622 0.68228 0
M  V30 10727 H 1016.7 0.799408 3.14293 0
M  V30 10728 H 1016.48 2.56496 2.96568 0
M  V30 10729 H 1017.97 1.91382 3.71164 0
M  V30 10730 N 1018.41 -0.709066 1.40748 0
M  V30 10731 C 1019.64 -1.49808 1.42707 0
M  V30 10732 C 1020.05 -1.88778 0.0285574 0
M  V30 10733 O 1019.41 -1.55883 -0.949035 0
M  V30 10734 C 1019.46 -2.76926 2.32366 0
M  V30 10735 O 1019.18 -2.39602 3.66773 0
M  V30 10736 C 1020.68 -3.70773 2.42986 0
M  V30 10737 H 1017.9 -0.462106 0.486517 0
M  V30 10738 H 1020.45 -0.874135 1.84876 0
M  V30 10739 H 1018.6 -3.3559 1.93541 0
M  V30 10740 H 1019.02 -3.21443 4.14457 0
M  V30 10741 H 1020.49 -4.56789 3.09916 0
M  V30 10742 H 1020.97 -4.14332 1.45691 0
M  V30 10743 H 1021.57 -3.18019 2.8239 0
M  V30 10744 N 1019.89 -1.26353 -0.941956 0
M  V30 10745 C 1020.85 -1.07904 -2.02211 0
M  V30 10746 C 1021.85 -0.0276283 -1.60776 0
M  V30 10747 O 1023.04 -0.270965 -1.7208 0
M  V30 10748 C 1020.17 -0.641084 -3.34818 0
M  V30 10749 H 1021.37 -2.03804 -2.20009 0
M  V30 10750 H 1018.92 -1.08939 -1.12081 0
M  V30 10751 H 1019.66 0.319943 -3.22718 0
M  V30 10752 H 1019.44 -1.40027 -3.66244 0
M  V30 10753 H 1020.93 -0.533826 -4.14174 0
M  V30 10754 N 1021.37 1.14642 -1.08144 0
M  V30 10755 C 1022.3 2.19283 -0.6669 0
M  V30 10756 C 1023.31 1.60292 0.284668 0
M  V30 10757 O 1024.5 1.78352 0.0727383 0
M  V30 10758 C 1021.6 3.38877 0.0398572 0
M  V30 10759 C 1020.77 4.274 -0.929929 0
M  V30 10760 C 1019.83 5.25562 -0.258991 0
M  V30 10761 O 1018.86 5.61999 -0.902563 0
M  V30 10762 N 1020.06 5.71958 0.992177 0
M  V30 10763 H 1022.83 2.55464 -1.5671 0
M  V30 10764 H 1020.39 1.29836 -0.96717 0
M  V30 10765 H 1022.38 4.01605 0.499583 0
M  V30 10766 H 1020.95 3.01043 0.842118 0
M  V30 10767 H 1020.17 3.61649 -1.56857 0
M  V30 10768 H 1021.46 4.83411 -1.58717 0
M  V30 10769 H 1020.86 5.44481 1.53484 0
M  V30 10770 H 1019.41 6.36687 1.39544 0
M  V30 10771 N 1022.85 0.866709 1.31628 0
M  V30 10772 C 1023.76 0.323408 2.3236 0
M  V30 10773 C 1024.77 -0.564995 1.64572 0
M  V30 10774 O 1025.95 -0.462489 1.96018 0
M  V30 10775 C 1023.01 -0.469045 3.43513 0
M  V30 10776 C 1022.07 0.446928 4.26967 0
M  V30 10777 C 1021.31 -0.307799 5.32812 0
M  V30 10778 O 1021.53 -1.5363 5.49321 0
M  V30 10779 O 1020.46 0.332653 6.0098 0
M  V30 10780 H 1024.29 1.15827 2.80745 0
M  V30 10781 H 1021.87 0.629987 1.35468 0
M  V30 10782 H 1023.76 -0.918405 4.1127 0
M  V30 10783 H 1022.43 -1.28051 2.97296 0
M  V30 10784 H 1021.34 0.944719 3.61975 0
M  V30 10785 H 1022.67 1.2239 4.76741 0
M  V30 10786 N 1024.32 -1.44642 0.625825 0
M  V30 10787 C 1025.25 -2.33397 -0.0692188 0
M  V30 10788 C 1026.23 -1.47898 -0.840241 0
M  V30 10789 O 1027.42 -1.7663 -0.807176 0
M  V30 10790 C 1024.55 -3.30888 -1.055 0
M  V30 10791 C 1023.5 -4.26164 -0.395968 0
M  V30 10792 C 1022.83 -5.13483 -1.49128 0
M  V30 10793 C 1024.13 -5.17663 0.694433 0
M  V30 10794 H 1025.82 -2.91763 0.671925 0
M  V30 10795 H 1023.37 -1.40294 0.324573 0
M  V30 10796 H 1025.32 -3.91861 -1.54993 0
M  V30 10797 H 1024.05 -2.7072 -1.82696 0
M  V30 10798 H 1022.71 -3.66516 0.0782691 0
M  V30 10799 H 1022.35 -4.49672 -2.25399 0
M  V30 10800 H 1022.05 -5.78038 -1.05573 0
M  V30 10801 H 1023.58 -5.77327 -1.98813 0
M  V30 10802 H 1024.99 -5.72602 0.282818 0
M  V30 10803 H 1023.39 -5.90793 1.05281 0
M  V30 10804 H 1024.46 -4.58994 1.56372 0
M  V30 10805 N 1025.8 -0.366053 -1.5329 0
M  V30 10806 C 1026.73 0.47211 -2.28677 0
M  V30 10807 C 1027.71 1.08353 -1.31125 0
M  V30 10808 O 1028.9 1.10069 -1.59995 0
M  V30 10809 C 1026.03 1.61174 -3.07637 0
M  V30 10810 C 1024.98 1.12755 -4.12881 0
M  V30 10811 C 1024.31 2.35745 -4.79925 0
M  V30 10812 C 1025.61 0.211954 -5.2187 0
M  V30 10813 H 1027.3 -0.156838 -2.98989 0
M  V30 10814 H 1024.85 -0.0768709 -1.43795 0
M  V30 10815 H 1026.8 2.20473 -3.59123 0
M  V30 10816 H 1025.52 2.26793 -2.35016 0
M  V30 10817 H 1024.18 0.557234 -3.6234 0
M  V30 10818 H 1023.83 2.99821 -4.03877 0
M  V30 10819 H 1023.53 2.04019 -5.51044 0
M  V30 10820 H 1025.06 2.95729 -5.34207 0
M  V30 10821 H 1026.47 0.71244 -5.68856 0
M  V30 10822 H 1024.87 -0.0144501 -6.00098 0
M  V30 10823 H 1025.94 -0.745753 -4.79131 0
M  V30 10824 N 1027.28 1.57312 -0.0952337 0
M  V30 10825 C 1028.53 1.93974 0.567319 0
M  V30 10826 C 1028.85 0.977805 1.68713 0
M  V30 10827 O 1028.12 0.0298944 1.95877 0
M  V30 10828 H 1026.7 0.71612 0.212558 0
M  V30 10829 H 1029.36 1.94254 -0.158598 0
M  V30 10830 H 1028.46 2.964 0.977423 0
M  V30 10831 N 1028.76 -0.17846 1.56586 0
M  V30 10832 C 1029.71 -1.22552 1.92263 0
M  V30 10833 C 1030.69 -1.40163 0.790131 0
M  V30 10834 O 1031.88 -1.42254 1.05322 0
M  V30 10835 C 1029.01 -2.5666 2.27993 0
M  V30 10836 C 1028.1 -2.42772 3.47739 0
M  V30 10837 N 1028.49 -1.98588 4.65185 0
M  V30 10838 C 1026.79 -2.73619 3.52205 0
M  V30 10839 C 1027.49 -1.96991 5.47329 0
M  V30 10840 N 1026.46 -2.39126 4.8818 0
M  V30 10841 H 1030.27 -0.875493 2.80557 0
M  V30 10842 H 1027.78 -0.386785 1.57727 0
M  V30 10843 H 1029.78 -3.32312 2.51743 0
M  V30 10844 H 1028.44 -2.92472 1.41034 0
M  V30 10845 H 1029.45 -1.69036 4.89538 0
M  V30 10846 H 1026.13 -3.13516 2.75706 0
M  V30 10847 H 1027.52 -1.64589 6.51429 0
M  V30 10848 N 1030.24 -1.51135 -0.446768 0
M  V30 10849 C 1031.65 -1.55919 -1.02694 0
M  V30 10850 C 1032 -0.377038 -1.92543 0
M  V30 10851 O 1031.12 0.507295 -2.1037 0
M  V30 10852 C 1031.72 -2.8257 -1.86922 0
M  V30 10853 C 1030.28 -2.89956 -2.40005 0
M  V30 10854 C 1029.42 -2.50482 -1.18971 0
M  V30 10855 H 1032.37 -1.57048 -0.228403 0
M  V30 10856 H 1032.4 -2.65799 -2.7227 0
M  V30 10857 H 1031.91 -3.6859 -1.21502 0
M  V30 10858 H 1030.01 -2.08343 -3.08907 0
M  V30 10859 H 1030.12 -3.93399 -2.73448 0
M  V30 10860 H 1028.49 -2.03466 -1.53211 0
M  V30 10861 H 1029.27 -3.38837 -0.551762 0
M  V30 10862 N 1031.71 0.701592 -1.41122 0
M  V30 10863 C 1032.96 1.4616 -1.40155 0
M  V30 10864 C 1033.29 1.94498 -0.00861553 0
M  V30 10865 O 1032.54 1.69484 0.978452 0
M  V30 10866 C 1032.84 2.693 -2.34973 0
M  V30 10867 C 1032.51 2.39652 -3.81939 0
M  V30 10868 C 1031.17 2.31277 -4.21977 0
M  V30 10869 C 1033.52 2.15076 -4.74755 0
M  V30 10870 C 1030.85 1.96413 -5.52846 0
M  V30 10871 C 1033.2 1.81722 -6.05937 0
M  V30 10872 C 1031.87 1.71838 -6.45002 0
M  V30 10873 H 1031.14 0.534837 -0.512865 0
M  V30 10874 H 1033.78 0.802425 -1.73878 0
M  V30 10875 H 1032.09 3.40123 -1.94484 0
M  V30 10876 H 1033.79 3.27427 -2.31501 0
M  V30 10877 H 1030.38 2.47063 -3.50226 0
M  V30 10878 H 1034.56 2.20495 -4.4463 0
M  V30 10879 H 1029.82 1.87308 -5.82001 0
M  V30 10880 H 1033.99 1.61723 -6.77362 0
M  V30 10881 H 1031.62 1.44591 -7.46323 0
M  V30 10882 N 1033.19 1.2685 0.935242 0
M  V30 10883 C 1034.12 1.1143 2.05196 0
M  V30 10884 C 1035.1 0.0178362 1.70091 0
M  V30 10885 O 1036.29 0.190951 1.93259 0
M  V30 10886 C 1033.42 0.752779 3.39044 0
M  V30 10887 C 1032.37 1.80164 3.88233 0
M  V30 10888 C 1031.7 1.29428 5.18799 0
M  V30 10889 C 1033 3.20431 4.12457 0
M  V30 10890 H 1034.69 2.04845 2.18355 0
M  V30 10891 H 1032.24 0.986276 1.04922 0
M  V30 10892 H 1034.19 0.631757 4.16637 0
M  V30 10893 H 1032.91 -0.217075 3.25878 0
M  V30 10894 H 1031.57 1.91144 3.12825 0
M  V30 10895 H 1031.22 0.3141 5.02018 0
M  V30 10896 H 1030.92 1.99546 5.5268 0
M  V30 10897 H 1032.45 1.18605 5.9897 0
M  V30 10898 H 1033.86 3.12495 4.80645 0
M  V30 10899 H 1032.26 3.88193 4.57631 0
M  V30 10900 H 1033.33 3.66046 3.18023 0
M  V30 10901 N 1034.67 -1.14067 1.0875 0
M  V30 10902 C 1035.62 -2.19261 0.720633 0
M  V30 10903 C 1036.59 -1.63462 -0.294847 0
M  V30 10904 O 1037.77 -1.89967 -0.178058 0
M  V30 10905 C 1034.91 -3.44816 0.139873 0
M  V30 10906 C 1034.03 -4.1475 1.20856 0
M  V30 10907 C 1033.16 -5.27899 0.591285 0
M  V30 10908 C 1032.2 -5.89672 1.64176 0
M  V30 10909 N 1031.34 -6.94264 1.04603 0
M  V30 10910 H 1036.18 -2.49991 1.62198 0
M  V30 10911 H 1033.71 -1.22757 0.810497 0
M  V30 10912 H 1035.67 -4.16648 -0.214587 0
M  V30 10913 H 1034.3 -3.14558 -0.724774 0
M  V30 10914 H 1033.35 -3.41272 1.6804 0
M  V30 10915 H 1034.67 -4.56753 2.00446 0
M  V30 10916 H 1033.82 -6.06417 0.185271 0
M  V30 10917 H 1032.56 -4.87128 -0.236236 0
M  V30 10918 H 1031.56 -5.09854 2.05739 0
M  V30 10919 H 1032.79 -6.32517 2.47182 0
M  V30 10920 H 1030.73 -6.55562 0.239664 0
M  V30 10921 H 1030.65 -7.34771 1.77898 0
M  V30 10922 H 1031.92 -7.7665 0.665989 0
M  V30 10923 N 1036.15 -0.873678 -1.31166 0
M  V30 10924 C 1037.08 -0.348011 -2.30892 0
M  V30 10925 C 1038.06 0.563092 -1.60509 0
M  V30 10926 O 1039.24 0.479332 -1.88192 0
M  V30 10927 C 1036.37 0.448158 -3.44396 0
M  V30 10928 C 1035.33 -0.370179 -4.26396 0
M  V30 10929 C 1034.65 0.551903 -5.31844 0
M  V30 10930 C 1035.95 -1.60624 -4.96988 0
M  V30 10931 H 1037.65 -1.18134 -2.75109 0
M  V30 10932 H 1035.19 -0.569502 -1.3226 0
M  V30 10933 H 1037.15 0.826458 -4.13216 0
M  V30 10934 H 1035.87 1.31503 -2.98956 0
M  V30 10935 H 1034.53 -0.730472 -3.59249 0
M  V30 10936 H 1034.18 1.41616 -4.82653 0
M  V30 10937 H 1033.88 0.00823478 -5.87599 0
M  V30 10938 H 1035.4 0.926965 -6.03523 0
M  V30 10939 H 1036.82 -1.29917 -5.58386 0
M  V30 10940 H 1035.21 -2.08926 -5.62557 0
M  V30 10941 H 1036.28 -2.357 -4.23761 0
M  V30 10942 N 1037.63 1.44308 -0.633487 0
M  V30 10943 C 1038.59 2.2912 0.060376 0
M  V30 10944 C 1039.59 1.41166 0.769992 0
M  V30 10945 O 1040.78 1.63012 0.614224 0
M  V30 10946 C 1037.91 3.22798 1.0961 0
M  V30 10947 H 1039.1 2.91958 -0.685617 0
M  V30 10948 H 1036.66 1.51259 -0.393738 0
M  V30 10949 H 1037.39 2.64815 1.87199 0
M  V30 10950 H 1037.18 3.87618 0.591161 0
M  V30 10951 H 1038.67 3.86504 1.58127 0
M  V30 10952 N 1039.1 0.374177 1.53094 0
M  V30 10953 C 1040.35 -0.212396 2.00981 0
M  V30 10954 C 1040.67 -1.48576 1.26293 0
M  V30 10955 O 1039.94 -1.92206 0.378642 0
M  V30 10956 H 1038.52 -0.0814763 0.742543 0
M  V30 10957 H 1041.19 0.502389 1.88314 0
M  V30 10958 H 1040.28 -0.433316 3.09077 0
M  V30 10959 N 1040.58 -1.57259 0.103575 0
M  V30 10960 C 1041.99 -1.81816 -0.424239 0
M  V30 10961 C 1042.34 -1.01976 -1.67617 0
M  V30 10962 O 1041.47 -0.251673 -2.14932 0
M  V30 10963 C 1042.06 -3.29783 -0.776453 0
M  V30 10964 C 1040.62 -3.55074 -1.24897 0
M  V30 10965 C 1039.77 -2.76172 -0.249875 0
M  V30 10966 H 1042.72 -1.55254 0.328913 0
M  V30 10967 H 1042.74 -3.43569 -1.63526 0
M  V30 10968 H 1042.25 -3.87865 0.134906 0
M  V30 10969 H 1040.36 -3.02332 -2.17775 0
M  V30 10970 H 1040.47 -4.637 -1.20495 0
M  V30 10971 H 1038.83 -2.43902 -0.733767 0
M  V30 10972 H 1039.62 -3.37007 0.65431 0
M  V30 10973 N 1042.06 0.170153 -1.56679 0
M  V30 10974 C 1043.47 0.732502 -1.7173 0
M  V30 10975 C 1043.82 1.82736 -0.71428 0
M  V30 10976 O 1042.95 2.16044 0.124102 0
M  V30 10977 C 1043.54 1.33548 -3.11368 0
M  V30 10978 C 1042.1 1.84464 -3.281 0
M  V30 10979 C 1041.25 0.724069 -2.6768 0
M  V30 10980 H 1044.2 -0.0552543 -1.58604 0
M  V30 10981 H 1044.22 2.20519 -3.10083 0
M  V30 10982 H 1043.73 0.5384 -3.84347 0
M  V30 10983 H 1041.83 2.66813 -2.6008 0
M  V30 10984 H 1041.95 1.98928 -4.35849 0
M  V30 10985 H 1040.31 1.14481 -2.27522 0
M  V30 10986 H 1041.09 -0.0611861 -3.43245 0
M  V30 10987 N 1043.54 1.5137 0.438746 0
M  V30 10988 C 1044.76 1.68058 1.21537 0
M  V30 10989 C 1045.19 0.376787 1.84288 0
M  V30 10990 O 1044.55 -0.662911 1.68746 0
M  V30 10991 C 1044.59 2.79684 2.27616 0
M  V30 10992 O 1043.7 2.43189 3.33066 0
M  V30 10993 H 1043.04 0.560408 0.356144 0
M  V30 10994 H 1045.57 1.97926 0.518311 0
M  V30 10995 H 1045.58 3.03726 2.72423 0
M  V30 10996 H 1044.25 3.74293 1.81321 0
M  V30 10997 H 1042.83 2.29713 2.93746 0
M  V30 10998 N 1045.02 -0.694098 1.41492 0
M  V30 10999 C 1046.26 -1.46637 1.42398 0
M  V30 11000 C 1046.62 -1.91973 0.0321256 0
M  V30 11001 O 1047.82 -2.68669 -0.0840324 0
M  V30 11002 C 1046.09 -2.64474 2.40392 0
M  V30 11003 S 1047.65 -3.53595 2.59838 0
M  V30 11004 H 1044.47 -0.501074 0.504427 0
M  V30 11005 H 1047.07 -0.809761 1.77941 0
M  V30 11006 H 1045.78 -2.29374 3.40317 0
M  V30 11007 H 1045.31 -3.35026 2.06206 0
M  V30 11008 H 1047.32 -4.59741 1.86689 0
M  V30 11009 N 1046.49 -1.27344 -0.928501 0
M  V30 11010 C 1047.74 -1.13019 -1.67061 0
M  V30 11011 C 1048.06 0.323614 -1.92904 0
M  V30 11012 O 1049.26 0.587752 -2.65062 0
M  V30 11013 C 1047.72 -1.97471 -3.00887 0
M  V30 11014 C 1047.33 -3.47504 -2.82746 0
M  V30 11015 C 1049.07 -1.91792 -3.78703 0
M  V30 11016 C 1046.98 -4.24158 -4.12122 0
M  V30 11017 H 1045.91 -0.419364 -0.626618 0
M  V30 11018 H 1048.56 -1.51759 -1.03158 0
M  V30 11019 H 1046.94 -1.51576 -3.65843 0
M  V30 11020 H 1048.11 -4.01256 -2.26562 0
M  V30 11021 H 1046.43 -3.54554 -2.18359 0
M  V30 11022 H 1049.03 -2.46339 -4.74575 0
M  V30 11023 H 1049.37 -0.891375 -4.06645 0
M  V30 11024 H 1049.9 -2.35578 -3.20543 0
M  V30 11025 H 1046.64 -5.27333 -3.89359 0
M  V30 11026 H 1046.16 -3.75183 -4.67972 0
M  V30 11027 H 1047.84 -4.33288 -4.80489 0
M  V30 11028 N 1047.97 1.13488 -1.09353 0
M  V30 11029 C 1049.22 1.85022 -0.830354 0
M  V30 11030 C 1049.55 1.83266 0.64242 0
M  V30 11031 O 1048.83 1.27024 1.47293 0
M  V30 11032 C 1049.11 3.33218 -1.36521 0
M  V30 11033 C 1048.96 3.43491 -2.90404 0
M  V30 11034 C 1050.28 4.28626 -0.998381 0
M  V30 11035 H 1047.4 0.671786 -0.303105 0
M  V30 11036 H 1050.04 1.33211 -1.3548 0
M  V30 11037 H 1048.19 3.77471 -0.919117 0
M  V30 11038 H 1049.86 3.07954 -3.43456 0
M  V30 11039 H 1048.11 2.84391 -3.27573 0
M  V30 11040 H 1048.78 4.47702 -3.22905 0
M  V30 11041 H 1051.25 3.9244 -1.38311 0
M  V30 11042 H 1050.13 5.30754 -1.39968 0
M  V30 11043 H 1050.39 4.42001 0.093517 0
M  V30 11044 N 1049.45 0.880621 1.30701 0
M  V30 11045 C 1050.86 0.547993 1.78477 0
M  V30 11046 C 1051.21 -0.935633 1.72454 0
M  V30 11047 O 1050.34 -1.73094 1.29874 0
M  V30 11048 C 1050.93 0.98795 3.24076 0
M  V30 11049 C 1049.49 0.706805 3.69704 0
M  V30 11050 C 1048.64 1.17335 2.51252 0
M  V30 11051 H 1051.59 1.06528 1.17633 0
M  V30 11052 H 1051.61 0.31508 3.79193 0
M  V30 11053 H 1051.12 2.06778 3.28427 0
M  V30 11054 H 1049.22 -0.36122 3.70845 0
M  V30 11055 H 1049.34 1.2913 4.6137 0
M  V30 11056 H 1047.7 0.592808 2.47705 0
M  V30 11057 H 1048.48 2.26083 2.58343 0
M  V30 11058 N 1050.93 -1.4397 0.641131 0
M  V30 11059 C 1051.86 -2.33458 -0.04446 0
M  V30 11060 C 1052.84 -1.48781 -0.824507 0
M  V30 11061 O 1054.03 -1.77477 -0.788397 0
M  V30 11062 C 1051.16 -3.31989 -1.01984 0
M  V30 11063 C 1050.11 -4.2656 -0.350745 0
M  V30 11064 C 1049.44 -5.15036 -1.43673 0
M  V30 11065 C 1050.74 -5.16897 0.749299 0
M  V30 11066 H 1052.43 -2.91034 0.702832 0
M  V30 11067 H 1049.98 -1.39942 0.339435 0
M  V30 11068 H 1051.93 -3.93483 -1.50828 0
M  V30 11069 H 1050.65 -2.72643 -1.79815 0
M  V30 11070 H 1049.31 -3.66413 0.117139 0
M  V30 11071 H 1048.96 -4.52037 -2.20617 0
M  V30 11072 H 1048.66 -5.79125 -0.994358 0
M  V30 11073 H 1050.18 -5.79403 -1.92678 0
M  V30 11074 H 1051.6 -5.7227 0.343534 0
M  V30 11075 H 1049.99 -5.89643 1.11541 0
M  V30 11076 H 1051.06 -4.5731 1.61232 0
M  V30 11077 N 1052.41 -0.382291 -1.52893 0
M  V30 11078 C 1053.34 0.500194 -2.22651 0
M  V30 11079 C 1054.32 1.06969 -1.22459 0
M  V30 11080 O 1055.5 1.12267 -1.51422 0
M  V30 11081 C 1052.63 1.6917 -2.93427 0
M  V30 11082 C 1051.68 1.24811 -4.07829 0
M  V30 11083 S 1052.51 0.235466 -5.34982 0
M  V30 11084 C 1053.66 1.43292 -6.09277 0
M  V30 11085 H 1053.9 -0.0921913 -2.97157 0
M  V30 11086 H 1051.43 -0.16645 -1.535 0
M  V30 11087 H 1053.39 2.37507 -3.34815 0
M  V30 11088 H 1052.05 2.25537 -2.18613 0
M  V30 11089 H 1051.24 2.13754 -4.56426 0
M  V30 11090 H 1050.84 0.643744 -3.68418 0
M  V30 11091 H 1053.14 2.36118 -6.35023 0
M  V30 11092 H 1054.08 0.988003 -7.01173 0
M  V30 11093 H 1054.49 1.64655 -5.39953 0
M  V30 11094 N 1053.89 1.57202 -0.111913 0
M  V30 11095 C 1055.3 1.57713 0.244702 0
M  V30 11096 C 1055.5 1.12419 1.67225 0
M  V30 11097 O 1054.56 0.808329 2.39212 0
M  V30 11098 C 1055.87 3.00695 0.0178289 0
M  V30 11099 C 1057.42 3.12887 0.0842781 0
M  V30 11100 C 1057.89 4.57856 -0.114812 0
M  V30 11101 N 1059.38 4.6316 -0.0605423 0
M  V30 11102 C 1060.12 5.73086 -0.189594 0
M  V30 11103 N 1059.62 6.91787 -0.37442 0
M  V30 11104 N 1061.41 5.6195 -0.12967 0
M  V30 11105 H 1053.56 1.84947 -1.04443 0
M  V30 11106 H 1055.82 0.854418 -0.4107 0
M  V30 11107 H 1055.53 3.38093 -0.968802 0
M  V30 11108 H 1055.4 3.69611 0.752815 0
M  V30 11109 H 1057.79 2.7535 1.06143 0
M  V30 11110 H 1057.87 2.46528 -0.682474 0
M  V30 11111 H 1057.51 4.9609 -1.0889 0
M  V30 11112 H 1057.44 5.22297 0.671839 0
M  V30 11113 H 1059.94 3.77817 0.0790856 0
M  V30 11114 H 1060.25 7.71406 -0.463948 0
M  V30 11115 H 1058.59 6.93788 -0.410303 0
M  V30 11116 H 1061.78 4.68098 0.0137115 0
M  V30 11117 H 1061.96 6.47578 -0.233688 0
M  V30 11118 N 1055.36 -0.161842 1.56767 0
M  V30 11119 C 1056.3 -1.22499 1.93718 0
M  V30 11120 C 1057.31 -1.39975 0.831314 0
M  V30 11121 O 1058.5 -1.3981 1.10975 0
M  V30 11122 C 1055.6 -2.59222 2.18306 0
M  V30 11123 C 1054.77 -2.6292 3.4956 0
M  V30 11124 C 1053.83 -3.81074 3.62863 0
M  V30 11125 O 1052.86 -3.66633 4.35395 0
M  V30 11126 N 1054.06 -4.97923 2.98418 0
M  V30 11127 H 1056.82 -0.911043 2.85517 0
M  V30 11128 H 1054.38 -0.351533 1.58038 0
M  V30 11129 H 1056.38 -3.36749 2.24461 0
M  V30 11130 H 1054.95 -2.82969 1.32844 0
M  V30 11131 H 1054.17 -1.71418 3.54978 0
M  V30 11132 H 1055.45 -2.62409 4.35911 0
M  V30 11133 H 1054.85 -5.12557 2.39378 0
M  V30 11134 H 1053.41 -5.73277 3.10155 0
M  V30 11135 N 1056.84 -1.516 -0.430713 0
M  V30 11136 C 1058.07 -1.68169 -1.20011 0
M  V30 11137 C 1058.48 -0.381406 -1.85316 0
M  V30 11138 O 1057.82 0.6506 -1.71793 0
M  V30 11139 C 1057.88 -2.7454 -2.32095 0
M  V30 11140 C 1057.55 -4.16942 -1.87104 0
M  V30 11141 C 1058.55 -5.01503 -1.37078 0
M  V30 11142 C 1056.23 -4.63075 -1.94594 0
M  V30 11143 C 1058.22 -6.3026 -0.951362 0
M  V30 11144 C 1055.91 -5.91827 -1.52264 0
M  V30 11145 C 1056.91 -6.75247 -1.02618 0
M  V30 11146 O 1056.6 -8.01591 -0.608905 0
M  V30 11147 H 1056.33 -0.567361 -0.367528 0
M  V30 11148 H 1058.88 -1.98819 -0.515759 0
M  V30 11149 H 1057.11 -2.39219 -3.03828 0
M  V30 11150 H 1058.8 -2.79921 -2.93937 0
M  V30 11151 H 1059.57 -4.67063 -1.30681 0
M  V30 11152 H 1055.45 -3.98262 -2.32182 0
M  V30 11153 H 1058.99 -6.95323 -0.563163 0
M  V30 11154 H 1054.89 -6.2578 -1.58333 0
M  V30 11155 H 1055.66 -8.15201 -0.73416 0
M  V30 11156 N 1058.32 0.686584 -1.41858 0
M  V30 11157 C 1059.74 0.998283 -1.24525 0
M  V30 11158 C 1059.94 2.01006 -0.141007 0
M  V30 11159 O 1058.99 2.47667 0.491648 0
M  V30 11160 C 1060.3 1.51432 -2.59786 0
M  V30 11161 C 1061.85 1.6327 -2.67043 0
M  V30 11162 C 1062.33 2.18274 -4.02642 0
M  V30 11163 N 1063.82 2.25622 -4.04535 0
M  V30 11164 C 1064.55 2.69229 -5.06264 0
M  V30 11165 N 1064.05 3.12375 -6.1838 0
M  V30 11166 N 1065.84 2.68873 -4.93623 0
M  V30 11167 H 1057.99 0.0164825 -2.12394 0
M  V30 11168 H 1060.26 0.0698613 -0.945422 0
M  V30 11169 H 1059.96 0.845426 -3.41388 0
M  V30 11170 H 1059.84 2.49502 -2.82894 0
M  V30 11171 H 1062.22 2.29269 -1.85794 0
M  V30 11172 H 1062.3 0.637221 -2.47736 0
M  V30 11173 H 1061.95 1.52887 -4.84343 0
M  V30 11174 H 1061.88 3.18591 -4.19294 0
M  V30 11175 H 1064.37 1.95186 -3.23591 0
M  V30 11176 H 1064.68 3.44301 -6.91864 0
M  V30 11177 H 1063.03 3.10262 -6.21902 0
M  V30 11178 H 1066.22 2.34521 -4.05114 0
M  V30 11179 H 1066.39 3.02539 -5.7304 0
M  V30 11180 N 1059.8 1.27835 0.921735 0
M  V30 11181 C 1060.75 1.07723 2.00947 0
M  V30 11182 C 1061.73 0.00336676 1.609 0
M  V30 11183 O 1062.92 0.222593 1.75595 0
M  V30 11184 C 1060.05 0.732732 3.35389 0
M  V30 11185 C 1059.14 1.84504 3.81863 0
M  V30 11186 N 1059.53 3.08551 4.00787 0
M  V30 11187 C 1057.83 1.73308 4.10951 0
M  V30 11188 C 1058.53 3.80974 4.39584 0
M  V30 11189 N 1057.5 3.08773 4.47393 0
M  V30 11190 H 1061.31 2.01854 2.13617 0
M  V30 11191 H 1058.82 1.18637 1.109 0
M  V30 11192 H 1060.82 0.56975 4.12988 0
M  V30 11193 H 1059.48 -0.200885 3.24078 0
M  V30 11194 H 1060.49 3.44248 3.86928 0
M  V30 11195 H 1057.17 0.870698 4.0832 0
M  V30 11196 H 1058.56 4.87617 4.62255 0
M  V30 11197 N 1061.28 -1.12907 1.09954 0
M  V30 11198 C 1062.23 -2.16558 0.713204 0
M  V30 11199 C 1063.21 -1.5853 -0.27515 0
M  V30 11200 O 1064.4 -1.76797 -0.0846643 0
M  V30 11201 C 1061.53 -3.43009 0.141224 0
M  V30 11202 C 1060.62 -4.08032 1.15632 0
M  V30 11203 N 1061.01 -4.48139 2.34531 0
M  V30 11204 C 1059.31 -4.34743 0.995701 0
M  V30 11205 C 1060.01 -4.98885 2.99147 0
M  V30 11206 N 1058.98 -4.9408 2.26684 0
M  V30 11207 H 1062.78 -2.45328 1.61838 0
M  V30 11208 H 1060.3 -1.29759 0.976539 0
M  V30 11209 H 1062.3 -4.16617 -0.153598 0
M  V30 11210 H 1060.96 -3.15711 -0.758729 0
M  V30 11211 H 1061.97 -4.40668 2.72089 0
M  V30 11212 H 1058.64 -4.17227 0.150888 0
M  V30 11213 H 1060.03 -5.3967 4.00257 0
M  V30 11214 O 1062.79 -1.02045 -1.25176 0
M  V30 11215 H 1063.48 -0.682256 -1.81287 0
M  V30 END ATOM
M  V30 BEGIN BOND
M  V30 END BOND
M  V30 END CTAB
M  END
$$$$
