drugbank_target|Q9P289 Serine/threonine-protein kinase 26 (DB07853; DB12010)
 OpenBabel12092120473D

  0  0  0     0  0            999 V3000
M  V30 BEGIN CTAB
M  V30 COUNTS 6529 6591 0 0 0
M  V30 BEGIN ATOM
M  V30 1 H -0.908 1.98254 -0.117106 0
M  V30 2 N 0 1.576 0 0
M  V30 3 C 0.933 2.03868 1.02534 0
M  V30 4 C 1.911 0.928543 1.3348 0
M  V30 5 O 3.095 1.19667 1.45644 0
M  V30 6 C 0.222 2.43627 2.35294 0
M  V30 7 C -0.732 3.65373 2.2001 0
M  V30 8 S 0.101 5.13292 1.52614 0
M  V30 9 C 1.257 5.56322 2.86805 0
M  V30 10 H 1.49 2.90518 0.631377 0
M  V30 11 H -0.977 1.52953 0.210867 0
M  V30 12 H 0.981 2.67203 3.11629 0
M  V30 13 H -0.358 1.57376 2.7183 0
M  V30 14 H -1.165 3.90944 3.18086 0
M  V30 15 H -1.563 3.418 1.51819 0
M  V30 16 H 0.729 5.58782 3.83104 0
M  V30 17 H 1.672 6.56266 2.65933 0
M  V30 18 H 2.08 4.83886 2.90714 0
M  V30 19 N 1.4781 -0.272755 1.55222 0
M  V30 20 C 2.4411 -1.32041 1.87344 0
M  V30 21 C 3.4411 -1.42342 0.74803 0
M  V30 22 O 4.6311 -1.41488 1.0162 0
M  V30 23 C 1.7631 -2.70173 2.07893 0
M  V30 24 H 2.9561 -1.04789 2.80997 0
M  V30 25 H 0.5091 -0.51083 1.47717 0
M  V30 26 H 1.2441 -3.02605 1.16622 0
M  V30 27 H 1.0291 -2.64082 2.89833 0
M  V30 28 H 2.5191 -3.45869 2.34017 0
M  V30 29 N 2.9562 -1.48159 -0.537278 0
M  V30 30 C 3.9062 -1.5854 -1.63857 0
M  V30 31 C 4.8902 -0.442969 -1.54682 0
M  V30 32 O 6.0822 -0.69401 -1.62827 0
M  V30 33 C 3.2112 -1.62144 -3.02596 0
M  V30 34 C 2.2972 -2.81841 -3.16901 0
M  V30 35 N 2.6882 -4.06337 -3.01204 0
M  V30 36 C 0.9862 -2.79021 -3.47942 0
M  V30 37 C 1.6872 -4.86606 -3.18731 0
M  V30 38 N 0.6632 -4.19288 -3.45974 0
M  V30 39 H 4.4652 -2.5255 -1.50319 0
M  V30 40 H 1.9792 -1.4443 -0.742555 0
M  V30 41 H 3.9762 -1.67674 -3.81695 0
M  V30 42 H 2.6362 -0.69245 -3.17231 0
M  V30 43 H 3.6472 -4.36888 -2.78117 0
M  V30 44 H 0.3242 -1.95347 -3.6898 0
M  V30 45 H 1.7142 -5.95385 -3.11394 0
M  V30 46 N 4.4343 0.785586 -1.36625 0
M  V30 47 C 5.6593 1.57963 -1.34397 0
M  V30 48 C 6.0843 1.87964 0.071526 0
M  V30 49 O 5.4423 1.48182 1.0446 0
M  V30 50 C 5.4903 2.87511 -2.17646 0
M  V30 51 O 4.5943 3.81281 -1.57158 0
M  V30 52 H 3.9353 0.479014 -0.459828 0
M  V30 53 H 6.4653 0.973411 -1.79961 0
M  V30 54 H 6.4753 3.36745 -2.30362 0
M  V30 55 H 5.1503 2.65002 -3.20541 0
M  V30 56 H 3.7273 3.39885 -1.53403 0
M  V30 57 N 5.9124 1.20967 1.01018 0
M  V30 58 C 7.3234 1.02319 1.56165 0
M  V30 59 C 7.6744 -0.418546 1.91684 0
M  V30 60 O 6.7994 -1.30096 1.72928 0
M  V30 61 C 7.3944 1.85109 2.8376 0
M  V30 62 C 5.9534 1.70809 3.35412 0
M  V30 63 C 5.1004 1.82643 2.08655 0
M  V30 64 H 8.0514 1.35065 0.833255 0
M  V30 65 H 8.0724 1.35827 3.55431 0
M  V30 66 H 7.5844 2.90035 2.57878 0
M  V30 67 H 5.6854 0.685464 3.66241 0
M  V30 68 H 5.7984 2.52467 4.07182 0
M  V30 69 H 4.1624 1.25896 2.21409 0
M  V30 70 H 4.9454 2.89066 1.85191 0
M  V30 71 N 7.3905 -1.2043 1.01659 0
M  V30 72 C 8.6365 -1.90079 0.706963 0
M  V30 73 C 8.9695 -1.78648 -0.761474 0
M  V30 74 O 8.2445 -1.17069 -1.55323 0
M  V30 75 C 8.5275 -3.41469 1.14327 0
M  V30 76 C 8.3805 -3.61833 2.67201 0
M  V30 77 C 9.6995 -4.34261 0.714529 0
M  V30 78 H 6.8185 -0.690254 0.2583 0
M  V30 79 H 9.4605 -1.41826 1.26433 0
M  V30 80 H 7.6105 -3.82696 0.669056 0
M  V30 81 H 9.2825 -3.2986 3.22475 0
M  V30 82 H 7.5255 -3.05304 3.08175 0
M  V30 83 H 8.1965 -4.67955 2.92783 0
M  V30 84 H 10.6725 -4.00682 1.12221 0
M  V30 85 H 9.5485 -5.38806 1.04784 0
M  V30 86 H 9.8095 -4.40431 -0.383799 0
M  V30 87 N 8.8686 -0.792821 -1.36206 0
M  V30 88 C 9.8316 -0.199459 -2.2833 0
M  V30 89 C 10.8316 0.605189 -1.48977 0
M  V30 90 O 12.0216 0.425685 -1.68919 0
M  V30 91 C 9.1536 0.723523 -3.33134 0
M  V30 92 H 10.3466 -1.01181 -2.82316 0
M  V30 93 H 7.8996 -0.562485 -1.45828 0
M  V30 94 H 8.6346 1.56008 -2.84309 0
M  V30 95 H 8.4196 0.148436 -3.91819 0
M  V30 96 H 9.9096 1.13344 -4.01924 0
M  V30 97 N 10.3467 1.47872 -0.545128 0
M  V30 98 C 11.5927 2.02793 -0.0166104 0
M  V30 99 C 11.9257 1.41987 1.32489 0
M  V30 100 O 11.2007 0.571045 1.85928 0
M  V30 101 C 11.4837 3.59989 0.0893294 0
M  V30 102 C 11.3367 4.3125 -1.27841 0
M  V30 103 C 12.6557 4.32606 0.808724 0
M  V30 104 H 9.7747 0.736962 -0.00751035 0
M  V30 105 H 12.4167 1.76433 -0.705085 0
M  V30 106 H 10.5667 3.82579 0.675681 0
M  V30 107 H 12.2387 4.20035 -1.90704 0
M  V30 108 H 10.4817 3.92076 -1.85632 0
M  V30 109 H 11.1527 5.39736 -1.15713 0
M  V30 110 H 13.6287 4.14936 0.310992 0
M  V30 111 H 12.5047 5.42251 0.851782 0
M  V30 112 H 12.7657 4.00963 1.86229 0
M  V30 113 N 11.8248 0.280983 1.55075 0
M  V30 114 C 12.7568 -0.637268 2.20163 0
M  V30 115 C 13.7698 -1.11298 1.18813 0
M  V30 116 O 14.9588 -1.03388 1.4551 0
M  V30 117 C 12.0588 -1.88199 2.81841 0
M  V30 118 C 11.2318 -1.55211 4.08936 0
M  V30 119 C 10.2908 -2.64991 4.54606 0
M  V30 120 O 9.3168 -2.30929 5.2025 0
M  V30 121 N 10.5188 -3.95161 4.25238 0
M  V30 122 H 13.2838 -0.0801694 2.99593 0
M  V30 123 H 10.8448 0.102329 1.61576 0
M  V30 124 H 12.8368 -2.60948 3.09335 0
M  V30 125 H 11.4068 -2.34799 2.06369 0
M  V30 126 H 10.6268 -0.658185 3.88666 0
M  V30 127 H 11.9148 -1.30681 4.91732 0
M  V30 128 H 11.3128 -4.25653 3.72607 0
M  V30 129 H 9.8698 -4.6427 4.5749 0
M  V30 130 N 13.3029 -1.57598 0.00835791 0
M  V30 131 C 14.5489 -1.91211 -0.675732 0
M  V30 132 C 14.8819 -0.883139 -1.72958 0
M  V30 133 O 14.1569 0.097016 -1.94258 0
M  V30 134 C 14.4399 -3.35379 -1.31123 0
M  V30 135 C 14.2929 -4.48999 -0.268356 0
M  V30 136 C 15.6119 -3.7912 -2.23508 0
M  V30 137 H 12.7309 -0.695374 -0.244179 0
M  V30 138 H 15.3729 -1.89901 0.0613655 0
M  V30 139 H 13.5229 -3.36626 -1.93946 0
M  V30 140 H 15.1949 -4.59887 0.360844 0
M  V30 141 H 13.4379 -4.31873 0.408482 0
M  V30 142 H 14.1089 -5.46851 -0.752218 0
M  V30 143 H 16.5849 -3.79477 -1.70693 0
M  V30 144 H 15.4609 -4.80729 -2.64936 0
M  V30 145 H 15.7219 -3.13455 -3.11766 0
M  V30 146 N 14.781 0.264519 -1.55364 0
M  V30 147 C 16.192 0.834936 -1.6699 0
M  V30 148 C 16.543 1.86718 -0.602552 0
M  V30 149 O 15.668 2.14899 0.254425 0
M  V30 150 C 16.263 1.5212 -3.02729 0
M  V30 151 C 14.822 2.03954 -3.16354 0
M  V30 152 C 13.969 0.884498 -2.62815 0
M  V30 153 H 16.92 0.0406869 -1.58648 0
M  V30 154 H 16.941 2.38853 -2.96191 0
M  V30 155 H 16.453 0.769668 -3.80392 0
M  V30 156 H 14.554 2.82041 -2.43482 0
M  V30 157 H 14.667 2.24902 -4.23032 0
M  V30 158 H 13.031 1.2802 -2.20188 0
M  V30 159 H 13.814 0.14634 -3.42988 0
M  V30 160 N 16.2591 1.48442 0.529413 0
M  V30 161 C 17.5071 1.56179 1.28267 0
M  V30 162 C 17.8281 0.237721 1.93546 0
M  V30 163 O 17.0981 -0.740779 1.81354 0
M  V30 164 H 15.6781 0.575367 0.476405 0
M  V30 165 H 18.3401 1.84909 0.61602 0
M  V30 166 H 17.4361 2.34312 2.06165 0
M  V30 167 N 17.7372 -0.778329 1.37039 0
M  V30 168 C 18.6702 -1.8984 1.26633 0
M  V30 169 C 19.6482 -1.61923 0.148197 0
M  V30 170 O 20.8322 -1.85742 0.321265 0
M  V30 171 C 17.9592 -3.24916 0.956403 0
M  V30 172 C 17.0052 -3.71752 2.09051 0
M  V30 173 S 17.8382 -3.86201 3.70957 0
M  V30 174 C 18.9942 -5.24135 3.42101 0
M  V30 175 H 19.2272 -1.98377 2.21436 0
M  V30 176 H 16.7602 -0.938738 1.22585 0
M  V30 177 H 18.7182 -4.02936 0.784409 0
M  V30 178 H 17.3792 -3.14089 0.0259713 0
M  V30 179 H 16.5722 -4.69661 1.8285 0
M  V30 180 H 16.1742 -3.00815 2.2223 0
M  V30 181 H 18.4662 -6.09086 2.96682 0
M  V30 182 H 19.4092 -5.55346 4.39314 0
M  V30 183 H 19.8172 -4.91761 2.77185 0
M  V30 184 N 19.2153 -1.21501 -1.00376 0
M  V30 185 C 20.1473 -0.933174 -2.09343 0
M  V30 186 C 21.1603 0.0840896 -1.62583 0
M  V30 187 O 22.3493 -0.148563 -1.77881 0
M  V30 188 C 19.4493 -0.379869 -3.36764 0
M  V30 189 C 18.6223 -1.45176 -4.12605 0
M  V30 190 C 17.6813 -0.907476 -5.18316 0
M  V30 191 O 16.7073 -1.5912 -5.46507 0
M  V30 192 N 17.9093 0.276649 -5.7984 0
M  V30 193 H 20.6743 -1.87124 -2.34104 0
M  V30 194 H 18.2353 -1.12043 -1.16867 0
M  V30 195 H 20.2273 -0.00131488 -4.047 0
M  V30 196 H 18.7973 0.463048 -3.09151 0
M  V30 197 H 18.0173 -2.00411 -3.39454 0
M  V30 198 H 19.3053 -2.17328 -4.6005 0
M  V30 199 H 18.7033 0.849147 -5.59291 0
M  V30 200 H 17.2603 0.596702 -6.49063 0
M  V30 201 N 20.6934 1.19889 -1.02296 0
M  V30 202 C 21.6414 2.24938 -0.592081 0
M  V30 203 C 22.6354 1.65257 0.372357 0
M  V30 204 O 23.8414 1.78371 0.241583 0
M  V30 205 H 20.2164 0.731787 -0.173182 0
M  V30 206 H 22.1874 2.58603 -1.48885 0
M  V30 207 C 20.9364 3.47668 0.047351 0
M  V30 208 H 20.2594 3.93875 -0.685772 0
M  V30 209 H 21.6994 4.22852 0.311862 0
M  V30 210 C 20.1584 3.11136 1.29212 0
M  V30 211 O 20.6884 3.2325 2.38479 0
M  V30 212 N 18.8944 2.65625 1.17863 0
M  V30 213 H 18.4414 2.55968 0.289493 0
M  V30 214 H 18.3994 2.41553 2.01245 0
M  V30 215 N 22.1715 0.800033 1.35784 0
M  V30 216 C 23.1195 0.193851 2.31791 0
M  V30 217 C 24.1135 -0.652744 1.56319 0
M  V30 218 O 25.3195 -0.546641 1.71499 0
M  V30 219 H 21.6945 0.04392 0.750716 0
M  V30 220 H 23.6655 1.01883 2.80468 0
M  V30 221 C 22.4145 -0.648338 3.41602 0
M  V30 222 H 21.7375 -0.00624665 3.998 0
M  V30 223 H 23.1775 -1.03898 4.11073 0
M  V30 224 C 21.6365 -1.8111 2.84079 0
M  V30 225 O 22.1665 -2.90825 2.77099 0
M  V30 226 N 20.3725 -1.62056 2.41218 0
M  V30 227 H 19.9195 -0.728123 2.47095 0
M  V30 228 H 19.8775 -2.40013 2.03079 0
M  V30 229 N 23.6496 -1.47581 0.552962 0
M  V30 230 C 24.8986 -2.01684 0.0251995 0
M  V30 231 C 25.2116 -1.43317 -1.33115 0
M  V30 232 O 26.4176 -1.89057 -1.94858 0
M  V30 233 C 24.8736 -3.599 -0.00542052 0
M  V30 234 C 24.4816 -4.27257 1.34742 0
M  V30 235 C 26.2256 -4.21768 -0.4808 0
M  V30 236 C 24.1326 -5.77467 1.27614 0
M  V30 237 H 23.0626 -0.753979 0.00565033 0
M  V30 238 H 25.7136 -1.69616 0.70018 0
M  V30 239 H 24.0956 -3.88911 -0.745961 0
M  V30 240 H 25.2696 -4.09893 2.10534 0
M  V30 241 H 23.5846 -3.77358 1.76039 0
M  V30 242 H 26.1816 -5.31838 -0.55246 0
M  V30 243 H 26.5246 -3.88651 -1.49184 0
M  V30 244 H 27.0576 -3.97273 0.204752 0
M  V30 245 H 23.7966 -6.15196 2.26304 0
M  V30 246 H 23.3166 -5.9718 0.55996 0
M  V30 247 H 24.9956 -6.3959 0.976421 0
M  V30 248 N 25.1277 -0.289203 -1.54924 0
M  V30 249 C 26.0907 0.579144 -2.21762 0
M  V30 250 C 27.0907 1.07047 -1.1999 0
M  V30 251 O 28.2807 0.968384 -1.44803 0
M  V30 252 C 25.4127 1.80055 -2.8947 0
M  V30 253 H 26.6057 -0.00464908 -2.999 0
M  V30 254 H 24.1587 -0.0399306 -1.56249 0
M  V30 255 H 24.8937 2.42449 -2.15381 0
M  V30 256 H 24.6787 1.45602 -3.64064 0
M  V30 257 H 26.1687 2.41773 -3.40493 0
M  V30 258 N 26.6058 1.57591 -0.0167156 0
M  V30 259 C 27.8828 1.82547 0.702564 0
M  V30 260 C 28.2628 0.898018 1.91047 0
M  V30 261 O 27.6108 -0.0493456 2.28447 0
M  V30 262 C 27.8208 3.31459 1.09251 0
M  V30 263 C 29.1688 3.97622 1.48937 0
M  V30 264 O 30.1928 3.35881 1.18584 0
M  V30 265 O 29.0518 5.06415 2.05442 0
M  V30 266 H 26.1458 0.752268 0.343544 0
M  V30 267 H 28.6918 1.69644 -0.0434495 0
M  V30 268 H 27.4638 3.9061 0.23227 0
M  V30 269 H 27.0868 3.49422 1.89709 0
M  V30 270 N 28.0839 -0.256276 1.55502 0
M  V30 271 C 29.4949 -0.826068 1.67431 0
M  V30 272 C 29.8459 -1.86396 0.612446 0
M  V30 273 O 28.9709 -2.15031 -0.243025 0
M  V30 274 C 29.5659 -1.50512 3.03532 0
M  V30 275 C 28.1249 -2.02273 3.17431 0
M  V30 276 C 27.2719 -0.870548 2.63281 0
M  V30 277 H 30.2229 -0.0322728 1.58667 0
M  V30 278 H 30.2439 -2.37279 2.97454 0
M  V30 279 H 29.7559 -0.749484 3.80794 0
M  V30 280 H 27.8569 -2.80746 2.44974 0
M  V30 281 H 27.9699 -2.22655 4.24219 0
M  V30 282 H 26.3339 -1.26851 2.20864 0
M  V30 283 H 27.1169 -0.128149 3.43061 0
M  V30 284 N 29.562 -1.4872 -0.521534 0
M  V30 285 C 30.472 -1.66569 -1.65203 0
M  V30 286 C 31.488 -0.548197 -1.65139 0
M  V30 287 O 32.664 -0.820339 -1.83936 0
M  V30 288 C 29.729 -1.70917 -3.01642 0
M  V30 289 C 28.79 -2.94356 -3.12495 0
M  V30 290 C 28.023 -2.98487 -4.42426 0
M  V30 291 O 28.246 -2.10786 -5.30024 0
M  V30 292 O 27.18 -3.90746 -4.57822 0
M  V30 293 H 31.006 -2.62298 -1.5308 0
M  V30 294 H 28.591 -1.3222 -0.695565 0
M  V30 295 H 30.473 -1.7625 -3.82771 0
M  V30 296 H 29.148 -0.783633 -3.14071 0
M  V30 297 H 28.055 -2.94552 -2.3063 0
M  V30 298 H 29.388 -3.86322 -3.04986 0
M  V30 299 N 31.0401 0.771051 -1.3745 0
M  V30 300 C 31.9501 1.91538 -1.35464 0
M  V30 301 C 32.9661 1.72134 -0.254123 0
M  V30 302 O 34.1421 1.95358 -0.489626 0
M  V30 303 C 31.2071 3.26671 -1.16134 0
M  V30 304 C 30.2681 3.58723 -2.35831 0
M  V30 305 C 29.5011 4.87409 -2.17413 0
M  V30 306 O 29.7241 5.58506 -1.15876 0
M  V30 307 O 28.6581 5.18539 -3.05615 0
M  V30 308 H 32.4841 1.96165 -2.31847 0
M  V30 309 H 30.0691 0.9139 -1.18187 0
M  V30 310 H 31.9511 4.07499 -1.07345 0
M  V30 311 H 30.6261 3.22894 -0.228251 0
M  V30 312 H 29.5331 2.78127 -2.50192 0
M  V30 313 H 30.8661 3.67243 -3.27709 0
M  V30 314 N 32.5182 1.22032 0.997298 0
M  V30 315 C 33.4482 1.01065 2.10495 0
M  V30 316 C 34.4292 -0.0669542 1.69968 0
M  V30 317 O 35.6142 0.0943987 1.9397 0
M  V30 318 C 32.7442 0.582874 3.42374 0
M  V30 319 C 31.6982 1.60592 3.96729 0
M  V30 320 C 31.0242 1.03412 5.24605 0
M  V30 321 C 32.3242 2.99478 4.27914 0
M  V30 322 H 34.0182 1.93708 2.28292 0
M  V30 323 H 31.5642 0.932761 1.09707 0
M  V30 324 H 33.5172 0.423332 4.19268 0
M  V30 325 H 32.2412 -0.379213 3.24391 0
M  V30 326 H 30.9002 1.75316 3.21963 0
M  V30 327 H 30.5482 0.063518 5.0296 0
M  V30 328 H 30.2482 1.71754 5.61938 0
M  V30 329 H 31.7722 0.886066 6.04137 0
M  V30 330 H 33.1862 2.88153 4.95622 0
M  V30 331 H 31.5832 3.64903 4.76409 0
M  V30 332 H 32.6532 3.49742 3.3587 0
M  V30 333 N 33.9963 -1.19345 1.0293 0
M  V30 334 C 35.2433 -1.89038 0.726008 0
M  V30 335 C 35.5713 -1.79649 -0.745427 0
M  V30 336 O 34.8263 -1.18354 -1.55855 0
M  V30 337 C 35.1253 -3.39292 1.12319 0
M  V30 338 C 34.7913 -3.68885 2.59297 0
M  V30 339 C 33.4533 -3.76671 2.99453 0
M  V30 340 C 35.8053 -3.82178 3.54386 0
M  V30 341 C 33.1333 -3.9522 4.33611 0
M  V30 342 C 35.4853 -4.0224 4.88248 0
M  V30 343 C 34.1493 -4.08259 5.28092 0
M  V30 344 H 33.4193 -0.691739 0.265665 0
M  V30 345 H 36.0663 -1.41328 1.29223 0
M  V30 346 H 34.3713 -3.88903 0.475584 0
M  V30 347 H 36.0683 -3.91536 0.866037 0
M  V30 348 H 32.6583 -3.63433 2.27189 0
M  V30 349 H 36.8423 -3.75505 3.24514 0
M  V30 350 H 32.0983 -3.98119 4.64016 0
M  V30 351 H 36.2723 -4.11468 5.61843 0
M  V30 352 H 33.8993 -4.22384 6.32057 0
M  V30 353 N 35.4744 -0.807222 -1.35358 0
M  V30 354 C 36.7024 -0.400377 -2.02989 0
M  V30 355 C 37.1174 0.988859 -1.60832 0
M  V30 356 O 36.4744 1.63729 -0.806175 0
M  V30 357 C 36.5254 -0.474867 -3.58368 0
M  V30 358 O 36.2464 -1.80933 -3.98992 0
M  V30 359 C 37.7474 -0.0609112 -4.43258 0
M  V30 360 H 34.9674 -0.162587 -0.651004 0
M  V30 361 H 37.5114 -1.09102 -1.72965 0
M  V30 362 H 35.6664 0.167534 -3.87038 0
M  V30 363 H 36.0804 -1.77256 -4.9364 0
M  V30 364 H 37.5544 -0.164145 -5.51756 0
M  V30 365 H 38.0314 0.993831 -4.27808 0
M  V30 366 H 38.6374 -0.676492 -4.19885 0
M  V30 367 N 36.9525 1.47285 -0.560781 0
M  V30 368 C 37.8995 2.30058 0.18491 0
M  V30 369 C 38.8695 1.39281 0.904986 0
M  V30 370 O 40.0545 1.68241 0.899979 0
M  V30 371 C 37.1945 3.23317 1.20666 0
M  V30 372 C 36.3075 4.29186 0.492285 0
M  V30 373 C 35.4425 5.09592 1.49964 0
M  V30 374 C 34.4815 6.07232 0.770439 0
M  V30 375 N 33.6185 6.80584 1.72479 0
M  V30 376 H 38.4585 2.93302 -0.527048 0
M  V30 377 H 35.9955 1.44568 -0.271738 0
M  V30 378 H 37.9535 3.75811 1.81168 0
M  V30 379 H 36.5835 2.61929 1.88661 0
M  V30 380 H 35.6355 3.7972 -0.227333 0
M  V30 381 H 36.9475 4.98738 -0.0787929 0
M  V30 382 H 36.1015 5.66254 2.17809 0
M  V30 383 H 34.8405 4.3995 2.10464 0
M  V30 384 H 33.8455 5.49745 0.0780846 0
M  V30 385 H 35.0705 6.78884 0.171134 0
M  V30 386 H 33.0165 6.1367 2.3183 0
M  V30 387 H 32.9335 7.46319 1.20596 0
M  V30 388 H 34.2015 7.41818 2.39428 0
M  V30 389 N 38.4306 0.297415 1.54768 0
M  V30 390 C 39.3606 -0.573494 2.26348 0
M  V30 391 C 40.3416 -1.14085 1.26169 0
M  V30 392 O 41.5266 -1.17086 1.54934 0
M  V30 393 C 38.6566 -1.74716 3.00153 0
M  V30 394 C 37.6106 -1.31032 4.07449 0
M  V30 395 C 36.9366 -2.56887 4.68949 0
M  V30 396 C 38.2366 -0.444183 5.20408 0
M  V30 397 H 39.9306 0.0235131 2.99391 0
M  V30 398 H 37.4766 0.0127488 1.43994 0
M  V30 399 H 39.4296 -2.3625 3.48947 0
M  V30 400 H 38.1536 -2.37035 2.24682 0
M  V30 401 H 36.8126 -0.718066 3.59499 0
M  V30 402 H 36.4606 -3.17512 3.90122 0
M  V30 403 H 36.1606 -2.2836 5.41411 0
M  V30 404 H 37.6846 -3.19229 5.20505 0
M  V30 405 H 39.0986 -0.9651 5.65118 0
M  V30 406 H 37.4956 -0.252846 5.99567 0
M  V30 407 H 38.5656 0.531609 4.81977 0
M  V30 408 N 39.9087 -1.5758 0.0250728 0
M  V30 409 C 40.8187 -2.1343 -0.973905 0
M  V30 410 C 41.8347 -1.08556 -1.35984 0
M  V30 411 O 43.0107 -1.40592 -1.44207 0
M  V30 412 C 40.0757 -2.64703 -2.23904 0
M  V30 413 C 39.1367 -3.84276 -1.91391 0
M  V30 414 C 38.3697 -4.33095 -3.11873 0
M  V30 415 O 38.5927 -3.81107 -4.24398 0
M  V30 416 O 37.5267 -5.24984 -2.94406 0
M  V30 417 H 41.3527 -2.99057 -0.529036 0
M  V30 418 H 38.9377 -1.48118 -0.195288 0
M  V30 419 H 40.8197 -2.97769 -2.98181 0
M  V30 420 H 39.4947 -1.82161 -2.6758 0
M  V30 421 H 38.4017 -3.56143 -1.14511 0
M  V30 422 H 39.7347 -4.67968 -1.52534 0
M  V30 423 N 41.3868 0.248026 -1.55636 0
M  V30 424 C 42.8028 0.596483 -1.48035 0
M  V30 425 C 43.0028 1.88386 -0.715039 0
M  V30 426 O 42.0588 2.51319 -0.243944 0
M  V30 427 C 43.3718 0.700258 -2.92433 0
M  V30 428 C 44.9198 0.792659 -3.02797 0
M  V30 429 C 45.3948 0.928005 -4.485 0
M  V30 430 N 46.8858 0.992903 -4.52433 0
M  V30 431 C 47.6208 1.11687 -5.62418 0
M  V30 432 N 47.1168 1.20645 -6.82214 0
M  V30 433 N 48.9098 1.14994 -5.50212 0
M  V30 434 H 41.0608 -0.597109 -2.03834 0
M  V30 435 H 43.3238 -0.205925 -0.925364 0
M  V30 436 H 43.0298 -0.175658 -3.51261 0
M  V30 437 H 42.9038 1.57255 -3.42857 0
M  V30 438 H 45.2908 1.65903 -2.4405 0
M  V30 439 H 45.3718 -0.104762 -2.55585 0
M  V30 440 H 45.0158 0.0661971 -5.07857 0
M  V30 441 H 44.9458 1.84045 -4.93391 0
M  V30 442 H 47.4368 0.935064 -3.66149 0
M  V30 443 H 47.7498 1.30008 -7.61786 0
M  V30 444 H 46.0948 1.17605 -6.84977 0
M  V30 445 H 49.2858 1.07643 -4.55555 0
M  V30 446 H 49.4588 1.24311 -6.35965 0
M  V30 447 N 42.8649 1.48995 0.513639 0
M  V30 448 C 44.1139 1.57093 1.2651 0
M  V30 449 C 44.4269 0.257091 1.93903 0
M  V30 450 O 45.6329 0.216478 2.70636 0
M  V30 451 C 44.0889 2.77118 2.29638 0
M  V30 452 C 43.6969 4.15209 1.68241 0
M  V30 453 C 45.4409 2.94538 3.05692 0
M  V30 454 C 43.3479 5.26474 2.69406 0
M  V30 455 H 42.2779 0.584876 0.475854 0
M  V30 456 H 44.9289 1.7536 0.540487 0
M  V30 457 H 43.3109 2.52319 3.05207 0
M  V30 458 H 44.4849 4.50094 0.987505 0
M  V30 459 H 42.7999 4.03042 1.04623 0
M  V30 460 H 45.3969 3.74832 3.8132 0
M  V30 461 H 45.7399 2.04614 3.62545 0
M  V30 462 H 46.2729 3.19316 2.37238 0
M  V30 463 H 43.0119 6.18417 2.17351 0
M  V30 464 H 42.5319 4.96058 3.37175 0
M  V30 465 H 44.2109 5.55277 3.32078 0
M  V30 466 N 44.343 -0.763751 1.37857 0
M  V30 467 C 45.591 -1.51957 1.33243 0
M  V30 468 C 45.912 -1.94835 -0.0801709 0
M  V30 469 O 45.182 -1.66894 -1.02582 0
M  V30 470 H 43.762 -0.563626 0.49024 0
M  V30 471 H 46.424 -0.908504 1.7243 0
M  V30 472 H 45.52 -2.41523 1.97669 0
M  V30 473 N 45.8211 -1.22559 -0.990812 0
M  V30 474 C 46.7681 -0.997519 -2.0813 0
M  V30 475 C 47.7381 0.0814702 -1.659 0
M  V30 476 O 48.9231 -0.0685424 -1.90677 0
M  V30 477 C 46.0631 -0.583615 -3.40129 0
M  V30 478 C 45.1761 -1.7336 -3.9569 0
M  V30 479 C 44.3111 -1.26748 -5.15857 0
M  V30 480 C 43.3501 -2.38888 -5.63559 0
M  V30 481 N 42.4871 -1.93308 -6.74964 0
M  V30 482 H 47.3271 -1.93099 -2.26973 0
M  V30 483 H 44.8641 -0.962114 -1.11273 0
M  V30 484 H 46.8221 -0.324801 -4.15934 0
M  V30 485 H 45.4521 0.312845 -3.2128 0
M  V30 486 H 44.5041 -2.10669 -3.16738 0
M  V30 487 H 45.8161 -2.57704 -4.27071 0
M  V30 488 H 44.9701 -0.966173 -5.98957 0
M  V30 489 H 43.7091 -0.394272 -4.86104 0
M  V30 490 H 42.7141 -2.69805 -4.79046 0
M  V30 491 H 43.9391 -3.26728 -5.95336 0
M  V30 492 H 41.8851 -1.08352 -6.4699 0
M  V30 493 H 41.8021 -2.71217 -7.05675 0
M  V30 494 H 43.0701 -1.66252 -7.61564 0
M  V30 495 N 47.2992 1.18797 -1.03562 0
M  V30 496 C 48.5472 1.88278 -0.734569 0
M  V30 497 C 48.8682 1.8043 0.739586 0
M  V30 498 O 48.1382 1.21925 1.53333 0
M  V30 499 H 46.7182 0.696991 -0.268725 0
M  V30 500 H 49.3802 1.44192 -1.31129 0
M  V30 501 H 48.4762 2.94443 -1.03489 0
M  V30 502 N 48.7773 0.814389 1.34928 0
M  V30 503 C 50.0023 0.410097 2.03305 0
M  V30 504 C 50.4273 -0.973464 1.60951 0
M  V30 505 O 49.7853 -1.63185 0.789964 0
M  V30 506 C 49.8333 0.51049 3.56968 0
M  V30 507 O 48.9373 -0.473035 4.09678 0
M  V30 508 H 48.2783 0.170088 0.641846 0
M  V30 509 H 50.8083 1.10244 1.72358 0
M  V30 510 H 50.8183 0.383135 4.06197 0
M  V30 511 H 49.4933 1.51963 3.87144 0
M  V30 512 H 48.0703 -0.305272 3.71648 0
M  V30 513 N 50.2554 -1.46986 0.568584 0
M  V30 514 C 51.5024 -2.02441 0.0487986 0
M  V30 515 C 51.8304 -1.44169 -1.30559 0
M  V30 516 O 51.0854 -0.591213 -1.86556 0
M  V30 517 C 51.3844 -3.57306 -0.081836 0
M  V30 518 C 51.0504 -4.34552 1.20313 0
M  V30 519 C 49.7124 -4.55376 1.5552 0
M  V30 520 C 52.0644 -4.79016 2.05411 0
M  V30 521 C 49.3924 -5.17913 2.7565 0
M  V30 522 C 51.7444 -5.42879 3.24754 0
M  V30 523 C 50.4084 -5.61933 3.60261 0
M  V30 524 H 49.6784 -0.740785 0.0178567 0
M  V30 525 H 52.3254 -1.76525 0.742384 0
M  V30 526 H 50.6304 -3.8228 -0.858463 0
M  V30 527 H 52.3274 -3.97876 -0.499546 0
M  V30 528 H 48.9174 -4.18631 0.919014 0
M  V30 529 H 53.1014 -4.62696 1.79516 0
M  V30 530 H 48.3574 -5.30858 3.03315 0
M  V30 531 H 52.5314 -5.76293 3.90973 0
M  V30 532 H 50.1584 -6.10161 4.53439 0
M  V30 533 N 51.7335 -0.305618 -1.54608 0
M  V30 534 C 52.9815 0.301701 -1.99835 0
M  V30 535 C 53.3025 1.54054 -1.19551 0
M  V30 536 O 52.5725 1.93702 -0.292658 0
M  V30 537 H 51.1525 0.114468 -0.738178 0
M  V30 538 H 53.8145 -0.418016 -1.90364 0
M  V30 539 H 52.9105 0.570548 -3.06841 0
M  V30 540 N 53.2116 1.57565 -0.0334293 0
M  V30 541 C 54.1216 2.13943 0.962572 0
M  V30 542 C 55.1376 1.09276 1.35406 0
M  V30 543 O 56.3136 1.41355 1.4346 0
M  V30 544 C 53.3786 2.65887 2.22497 0
M  V30 545 C 52.4396 3.85286 1.8935 0
M  V30 546 C 51.6726 4.34743 3.09571 0
M  V30 547 O 51.8956 3.83352 4.22371 0
M  V30 548 O 50.8296 5.26538 2.91618 0
M  V30 549 H 54.6556 2.99333 0.513169 0
M  V30 550 H 52.2406 1.4822 0.18743 0
M  V30 551 H 54.1226 2.99346 2.96598 0
M  V30 552 H 52.7976 1.83578 2.6661 0
M  V30 553 H 51.7046 3.56746 1.1262 0
M  V30 554 H 53.0376 4.68771 1.5005 0
M  V30 555 N 54.6897 -0.239769 1.55765 0
M  V30 556 C 55.9357 -0.968234 1.78194 0
M  V30 557 C 56.2687 -1.84701 0.599938 0
M  V30 558 O 55.5437 -1.9031 -0.401524 0
M  V30 559 C 55.8267 -1.8227 3.10564 0
M  V30 560 C 55.6797 -0.971633 4.3918 0
M  V30 561 C 56.9987 -2.80388 3.39221 0
M  V30 562 H 54.1177 -0.350572 0.648281 0
M  V30 563 H 56.7597 -0.238259 1.885 0
M  V30 564 H 54.9097 -2.44507 3.01908 0
M  V30 565 H 56.5817 -0.367408 4.59835 0
M  V30 566 H 54.8247 -0.276276 4.32919 0
M  V30 567 H 55.4957 -1.60346 5.28198 0
M  V30 568 H 57.9717 -2.28287 3.47885 0
M  V30 569 H 56.8477 -3.3729 4.33044 0
M  V30 570 H 57.1087 -3.57212 2.60484 0
M  V30 571 N 56.1678 -1.49265 -0.50573 0
M  V30 572 C 57.4148 -1.58513 -1.26015 0
M  V30 573 C 57.7428 -0.26972 -1.92621 0
M  V30 574 O 56.9978 0.741997 -1.81088 0
M  V30 575 C 57.2968 -2.69008 -2.35308 0
M  V30 576 C 56.9628 -4.10662 -1.86192 0
M  V30 577 C 55.6248 -4.49212 -1.72516 0
M  V30 578 C 57.9768 -4.99336 -1.49375 0
M  V30 579 C 55.3048 -5.74214 -1.20394 0
M  V30 580 C 57.6568 -6.24852 -0.987072 0
M  V30 581 C 56.3208 -6.62236 -0.836669 0
M  V30 582 H 55.5908 -0.580041 -0.461122 0
M  V30 583 H 58.2378 -1.83078 -0.561665 0
M  V30 584 H 56.5428 -2.38396 -3.10926 0
M  V30 585 H 58.2398 -2.73373 -2.93374 0
M  V30 586 H 54.8298 -3.8023 -1.97795 0
M  V30 587 H 59.0138 -4.70212 -1.5879 0
M  V30 588 H 54.2698 -6.01883 -1.07458 0
M  V30 589 H 58.4438 -6.92944 -0.692983 0
M  V30 590 H 56.0708 -7.58979 -0.430607 0
M  V30 591 N 57.6459 0.756429 -1.3826 0
M  V30 592 C 58.5929 1.87011 -1.35261 0
M  V30 593 C 59.5629 1.64695 -0.215616 0
M  V30 594 O 60.7479 1.864 -0.407399 0
M  V30 595 C 57.8879 3.24275 -1.18068 0
M  V30 596 C 57.0009 3.58442 -2.41129 0
M  V30 597 C 56.1359 4.84994 -2.16689 0
M  V30 598 C 55.1749 5.11939 -3.35537 0
M  V30 599 N 54.3119 6.29685 -3.10549 0
M  V30 600 H 59.1519 1.8891 -2.30472 0
M  V30 601 H 56.6889 0.923373 -1.14509 0
M  V30 602 H 58.6469 4.03479 -1.06116 0
M  V30 603 H 57.2769 3.21711 -0.264973 0
M  V30 604 H 56.3289 2.74103 -2.63764 0
M  V30 605 H 57.6409 3.74283 -3.29717 0
M  V30 606 H 56.7949 5.72135 -2.01857 0
M  V30 607 H 55.5339 4.71286 -1.25462 0
M  V30 608 H 54.5389 4.23268 -3.50891 0
M  V30 609 H 55.7639 5.27546 -4.27635 0
M  V30 610 H 53.7099 6.17306 -2.21967 0
M  V30 611 H 53.6269 6.46014 -3.92686 0
M  V30 612 H 54.8949 7.19722 -2.99367 0
M  V30 613 N 59.124 1.23083 0.984299 0
M  V30 614 C 60.372 1.05848 1.72165 0
M  V30 615 C 60.693 -0.406049 1.90726 0
M  V30 616 O 59.963 -1.29139 1.47309 0
M  V30 617 H 58.543 0.388685 0.637913 0
M  V30 618 H 61.205 1.54736 1.18503 0
M  V30 619 H 60.301 1.54327 2.71274 0
M  V30 620 N 60.6021 -1.18246 1.0419 0
M  V30 621 C 61.8511 -1.87588 0.741194 0
M  V30 622 C 62.1641 -1.81303 -0.734066 0
M  V30 623 O 63.3701 -2.46019 -1.14834 0
M  V30 624 C 61.8261 -3.36538 1.27555 0
M  V30 625 C 61.4341 -3.51349 2.77953 0
M  V30 626 C 63.1781 -4.11273 1.05143 0
M  V30 627 C 61.0851 -4.94265 3.2474 0
M  V30 628 H 60.0151 -0.702622 0.273565 0
M  V30 629 H 62.6661 -1.33601 1.25789 0
M  V30 630 H 61.0481 -3.9 0.686703 0
M  V30 631 H 62.2221 -3.08153 3.42605 0
M  V30 632 H 60.5371 -2.90022 2.98791 0
M  V30 633 H 63.1341 -5.16689 1.37611 0
M  V30 634 H 63.4771 -4.16298 -0.0112774 0
M  V30 635 H 64.0101 -3.63987 1.60495 0
M  V30 636 H 60.7491 -4.94408 4.30396 0
M  V30 637 H 60.2691 -5.38172 2.64823 0
M  V30 638 H 61.9481 -5.62987 3.18834 0
M  V30 639 N 62.0802 -0.821533 -1.34494 0
M  V30 640 C 63.3572 -0.33159 -1.92769 0
M  V30 641 C 63.7372 1.18088 -1.74981 0
M  V30 642 O 63.0852 1.98733 -1.12772 0
M  V30 643 C 63.2952 -0.759398 -3.40638 0
M  V30 644 C 64.6432 -0.757433 -4.1779 0
M  V30 645 O 65.6672 -0.70189 -3.49216 0
M  V30 646 O 64.5262 -0.829361 -5.4017 0
M  V30 647 H 61.6202 -0.0902502 -0.822061 0
M  V30 648 H 64.1662 -0.906231 -1.43477 0
M  V30 649 H 62.9382 -1.8012 -3.47379 0
M  V30 650 H 62.5612 -0.160378 -3.97276 0
M  V30 651 N 63.5583 1.46682 -0.576371 0
M  V30 652 C 64.5063 2.31953 0.17335 0
M  V30 653 C 65.5003 1.44098 0.89062 0
M  V30 654 O 66.7063 1.60759 0.809728 0
M  V30 655 H 63.0813 0.748273 0.0747727 0
M  V30 656 H 65.0523 2.93007 -0.564738 0
M  V30 657 C 63.8013 3.27142 1.17786 0
M  V30 658 H 63.1243 3.94719 0.635361 0
M  V30 659 H 64.5643 3.896 1.67296 0
M  V30 660 C 63.0233 2.52036 2.23561 0
M  V30 661 O 63.5533 2.27877 3.3081 0
M  V30 662 N 61.7593 2.12709 1.97998 0
M  V30 663 H 61.3063 2.32557 1.10792 0
M  V30 664 H 61.2643 1.62776 2.68982 0
M  V30 665 N 65.0364 0.313813 1.54444 0
M  V30 666 C 66.4524 -0.0391619 1.59552 0
M  V30 667 C 66.6524 -1.51322 1.33056 0
M  V30 668 O 65.7084 -2.26782 1.11022 0
M  V30 669 C 67.0214 0.370302 2.98411 0
M  V30 670 C 68.5694 0.320139 3.11358 0
M  V30 671 C 69.0444 0.704617 4.52547 0
M  V30 672 N 70.5354 0.657645 4.58508 0
M  V30 673 C 71.2704 0.927453 5.6585 0
M  V30 674 N 70.7664 1.26389 6.81174 0
M  V30 675 N 72.5594 0.853662 5.5558 0
M  V30 676 H 64.7104 1.27433 1.69925 0
M  V30 677 H 66.9734 0.517511 0.794284 0
M  V30 678 H 66.6794 1.39694 3.22767 0
M  V30 679 H 66.5534 -0.269619 3.76235 0
M  V30 680 H 68.9404 -0.697275 2.86744 0
M  V30 681 H 69.0214 0.99486 2.35661 0
M  V30 682 H 68.6654 1.7199 4.77893 0
M  V30 683 H 68.5954 0.00768843 5.26599 0
M  V30 684 H 71.0864 0.409067 3.75679 0
M  V30 685 H 71.3994 1.4554 7.58972 0
M  V30 686 H 69.7444 1.30206 6.82694 0
M  V30 687 H 72.9354 0.590383 4.64362 0
M  V30 688 H 73.1084 1.0673 6.3915 0
M  V30 689 N 66.5145 -1.57545 0.0417849 0
M  V30 690 C 67.7425 -1.96624 -0.643928 0
M  V30 691 C 68.1575 -0.918897 -1.64929 0
M  V30 692 O 67.5145 0.0979323 -1.82237 0
M  V30 693 C 67.5655 -3.35781 -1.33914 0
M  V30 694 O 67.2865 -4.365 -0.374048 0
M  V30 695 C 68.7875 -3.89566 -2.1155 0
M  V30 696 H 66.0075 -0.647316 -0.176702 0
M  V30 697 H 68.5515 -2.04229 0.105304 0
M  V30 698 H 66.7065 -3.29357 -2.03968 0
M  V30 699 H 67.1205 -5.17248 -0.869179 0
M  V30 700 H 68.5945 -4.89242 -2.55628 0
M  V30 701 H 69.0715 -3.24488 -2.9598 0
M  V30 702 H 69.6775 -3.99298 -1.46427 0
M  V30 703 N 67.9926 0.231505 -1.5589 0
M  V30 704 C 68.9246 1.31006 -1.8807 0
M  V30 705 C 69.9376 1.43539 -0.768145 0
M  V30 706 O 71.1266 1.44614 -1.04638 0
M  V30 707 C 68.2266 2.68688 -2.06543 0
M  V30 708 C 67.3996 2.78228 -3.37502 0
M  V30 709 C 66.4586 3.96857 -3.4553 0
M  V30 710 O 65.4846 3.85662 -4.18633 0
M  V30 711 N 66.6866 5.1072 -2.75944 0
M  V30 712 H 69.4516 1.03731 -2.81176 0
M  V30 713 H 67.0126 0.421573 -1.56315 0
M  V30 714 H 69.0046 3.46412 -2.09239 0
M  V30 715 H 67.5746 2.88605 -1.20109 0
M  V30 716 H 66.7946 1.87059 -3.46991 0
M  V30 717 H 68.0826 2.81564 -4.23791 0
M  V30 718 H 67.4806 5.2271 -2.16311 0
M  V30 719 H 66.0376 5.86523 -2.84314 0
M  V30 720 N 69.4707 1.49531 0.497807 0
M  V30 721 C 70.4027 1.62559 1.61578 0
M  V30 722 C 71.4157 0.508134 1.54667 0
M  V30 723 O 72.6047 0.780309 1.60541 0
M  V30 724 C 69.7047 1.56925 3.00379 0
M  V30 725 C 68.8777 2.84257 3.3244 0
M  V30 726 C 67.9367 2.71632 4.50669 0
M  V30 727 O 66.9627 3.4557 4.52294 0
M  V30 728 N 68.1647 1.83391 5.5077 0
M  V30 729 H 70.9297 2.58981 1.50828 0
M  V30 730 H 68.4907 1.4666 0.685743 0
M  V30 731 H 70.4827 1.46129 3.77397 0
M  V30 732 H 69.0527 0.683483 3.05037 0
M  V30 733 H 68.2727 3.09381 2.44289 0
M  V30 734 H 69.5607 3.68666 3.5066 0
M  V30 735 H 68.9587 1.22583 5.52259 0
M  V30 736 H 67.5157 1.78515 6.26878 0
M  V30 737 N 70.9488 -0.749086 1.3866 0
M  V30 738 C 72.1948 -1.51056 1.35314 0
M  V30 739 C 72.5278 -1.94121 -0.0553751 0
M  V30 740 O 71.8028 -1.65763 -1.01749 0
M  V30 741 C 72.0858 -2.76003 2.31288 0
M  V30 742 C 71.9388 -2.39047 3.8102 0
M  V30 743 C 73.2578 -3.78046 2.2532 0
M  V30 744 H 70.3768 -0.547972 0.492844 0
M  V30 745 H 73.0188 -0.857628 1.69543 0
M  V30 746 H 71.1688 -3.31716 2.02229 0
M  V30 747 H 72.8408 -1.89074 4.20771 0
M  V30 748 H 71.0838 -1.71449 3.98482 0
M  V30 749 H 71.7548 -3.28462 4.4364 0
M  V30 750 H 74.2308 -3.31884 2.50983 0
M  V30 751 H 73.1068 -4.63159 2.94576 0
M  V30 752 H 73.3678 -4.23957 1.25352 0
M  V30 753 N 72.4269 -1.23603 -0.977757 0
M  V30 754 C 73.6729 -1.07129 -1.72195 0
M  V30 755 C 74.0059 0.390501 -1.90233 0
M  V30 756 O 73.2809 1.28902 -1.45653 0
M  V30 757 C 73.5639 -1.80031 -3.11867 0
M  V30 758 C 73.4169 -3.33899 -3.01383 0
M  V30 759 C 74.7359 -1.56492 -4.11337 0
M  V30 760 H 71.8549 -0.390571 -0.624999 0
M  V30 761 H 74.4969 -1.52142 -1.13811 0
M  V30 762 H 72.6469 -1.41768 -3.6171 0
M  V30 763 H 74.3189 -3.81699 -2.59043 0
M  V30 764 H 72.5619 -3.62796 -2.37827 0
M  V30 765 H 73.2329 -3.801 -4.00285 0
M  V30 766 H 75.7089 -1.89757 -3.70313 0
M  V30 767 H 74.5849 -2.09973 -5.07151 0
M  V30 768 H 74.8459 -0.500874 -4.39254 0
M  V30 769 N 73.905 1.17692 -1.04816 0
M  V30 770 C 74.868 2.19787 -0.650117 0
M  V30 771 C 75.868 1.58044 0.296427 0
M  V30 772 O 77.058 1.74012 0.0808097 0
M  V30 773 C 74.19 3.40869 0.0456987 0
M  V30 774 H 75.383 2.56516 -1.5537 0
M  V30 775 H 72.936 1.31708 -0.841594 0
M  V30 776 H 73.671 3.09681 0.962726 0
M  V30 777 H 73.456 3.86928 -0.634727 0
M  V30 778 H 74.946 4.16445 0.310432 0
M  V30 779 N 75.3831 0.828654 1.34056 0
M  V30 780 C 76.6321 0.415828 1.97367 0
M  V30 781 C 76.9451 -1.02796 1.6641 0
M  V30 782 O 78.1511 -1.54497 2.23255 0
M  V30 783 C 76.6071 0.692601 3.53173 0
M  V30 784 C 76.2151 2.15038 3.93017 0
M  V30 785 C 77.9591 0.346222 4.23086 0
M  V30 786 C 75.8661 2.37174 5.41758 0
M  V30 787 H 74.7961 0.151755 0.738571 0
M  V30 788 H 77.4471 1.01581 1.52819 0
M  V30 789 H 75.8291 0.0223764 3.95994 0
M  V30 790 H 77.0031 2.86024 3.61285 0
M  V30 791 H 75.3181 2.45875 3.36057 0
M  V30 792 H 77.9151 0.48937 5.32456 0
M  V30 793 H 78.2581 -0.709842 4.10204 0
M  V30 794 H 78.7911 0.971258 3.85761 0
M  V30 795 H 75.5301 3.41308 5.59633 0
M  V30 796 H 75.0501 1.70738 5.74986 0
M  V30 797 H 76.7291 2.19818 6.08514 0
M  V30 798 N 76.8612 -1.46375 0.584142 0
M  V30 799 C 77.8082 -2.30323 -0.148286 0
M  V30 800 C 78.7782 -1.40703 -0.882713 0
M  V30 801 O 79.9632 -1.69651 -0.873099 0
M  V30 802 C 77.1032 -3.25196 -1.15507 0
M  V30 803 C 76.2162 -4.29915 -0.423943 0
M  V30 804 C 75.3512 -5.11914 -1.41838 0
M  V30 805 C 74.3902 -6.08381 -0.673736 0
M  V30 806 N 73.5272 -6.83242 -1.6163 0
M  V30 807 H 78.3672 -2.92427 0.573644 0
M  V30 808 H 75.9042 -1.44118 0.294703 0
M  V30 809 H 77.8622 -3.78646 -1.75166 0
M  V30 810 H 76.4922 -2.64898 -1.8447 0
M  V30 811 H 75.5442 -3.7931 0.287714 0
M  V30 812 H 76.8562 -4.98549 0.158128 0
M  V30 813 H 76.0102 -5.69648 -2.08773 0
M  V30 814 H 74.7492 -4.43243 -2.03438 0
M  V30 815 H 73.7542 -5.49799 0.00938483 0
M  V30 816 H 74.9792 -6.79071 -0.0631082 0
M  V30 817 H 72.9252 -6.1728 -2.22038 0
M  V30 818 H 72.8422 -7.48144 -1.08707 0
M  V30 819 H 74.1102 -7.45534 -2.27596 0
M  V30 820 N 78.3393 -0.321999 -1.54275 0
M  V30 821 C 79.5883 0.281931 -1.9972 0
M  V30 822 C 79.9013 1.53369 -1.21397 0
M  V30 823 O 81.1073 2.21352 -1.57211 0
M  V30 824 C 79.5633 0.5529 -3.55628 0
M  V30 825 C 79.1713 -0.681721 -4.42783 0
M  V30 826 C 80.9153 1.11687 -4.09544 0
M  V30 827 C 78.8223 -0.382742 -5.9016 0
M  V30 828 H 77.7523 0.109124 -0.746062 0
M  V30 829 H 80.4033 -0.43398 -1.78294 0
M  V30 830 H 78.7853 1.32896 -3.73035 0
M  V30 831 H 79.9593 -1.45723 -4.37151 0
M  V30 832 H 78.2743 -1.1658 -3.99748 0
M  V30 833 H 80.8713 1.35515 -5.17242 0
M  V30 834 H 81.2143 2.06575 -3.61431 0
M  V30 835 H 81.7473 0.402032 -3.95763 0
M  V30 836 H 78.4863 -1.30076 -6.42464 0
M  V30 837 H 78.0063 0.355094 -5.98748 0
M  V30 838 H 79.6853 0.00800157 -6.47 0
M  V30 839 N 79.8174 1.5752 -0.0501392 0
M  V30 840 C 81.0664 1.91827 0.623328 0
M  V30 841 C 81.3794 0.930222 1.72065 0
M  V30 842 O 82.5854 1.1653 2.4522 0
M  V30 843 C 81.0414 3.40692 1.16003 0
M  V30 844 C 80.6494 4.479 0.0948811 0
M  V30 845 C 82.3934 3.84034 1.80881 0
M  V30 846 C 80.3004 5.87879 0.644411 0
M  V30 847 H 79.2304 0.715918 0.236596 0
M  V30 848 H 81.8814 1.83115 -0.118861 0
M  V30 849 H 80.2634 3.44405 1.9545 0
M  V30 850 H 81.4374 4.55775 -0.678675 0
M  V30 851 H 79.7524 4.13892 -0.45637 0
M  V30 852 H 82.3494 4.85984 2.22988 0
M  V30 853 H 82.6924 3.20225 2.6601 0
M  V30 854 H 83.2254 3.82833 1.0809 0
M  V30 855 H 79.9644 6.55282 -0.169229 0
M  V30 856 H 79.4844 5.83567 1.38598 0
M  V30 857 H 81.1634 6.37098 1.12763 0
M  V30 858 N 81.2955 -0.223234 1.56011 0
M  V30 859 C 82.5725 -0.972108 1.69733 0
M  V30 860 C 82.9525 -2.02485 0.59691 0
M  V30 861 O 82.3005 -2.25037 -0.396324 0
M  V30 862 C 82.5105 -1.58407 3.10979 0
M  V30 863 C 83.8585 -2.07696 3.70334 0
M  V30 864 O 84.8825 -1.68304 3.1393 0
M  V30 865 O 83.7415 -2.80096 4.69264 0
M  V30 866 H 80.8355 -0.453993 0.691245 0
M  V30 867 H 83.3815 -0.215149 1.68331 0
M  V30 868 H 82.1535 -0.823831 3.82529 0
M  V30 869 H 81.7765 -2.40661 3.16493 0
M  V30 870 N 82.7736 -1.49793 -0.48987 0
M  V30 871 C 83.7036 -1.70201 -1.59856 0
M  V30 872 C 84.6846 -0.55076 -1.60937 0
M  V30 873 O 85.8696 -0.787841 -1.77501 0
M  V30 874 C 82.9996 -1.77882 -2.98287 0
M  V30 875 C 81.9536 -2.92907 -3.12073 0
M  V30 876 C 81.2796 -2.85712 -4.51965 0
M  V30 877 C 82.5796 -4.3369 -2.91051 0
M  V30 878 H 84.2736 -2.63025 -1.43032 0
M  V30 879 H 81.8196 -1.26574 -0.686664 0
M  V30 880 H 83.7726 -1.90744 -3.75759 0
M  V30 881 H 82.4966 -0.816653 -3.16225 0
M  V30 882 H 81.1556 -2.79665 -2.37029 0
M  V30 883 H 80.8036 -1.8738 -4.66795 0
M  V30 884 H 80.5036 -3.62921 -4.62128 0
M  V30 885 H 82.0276 -3.00598 -5.31482 0
M  V30 886 H 83.4416 -4.47555 -3.58284 0
M  V30 887 H 81.8386 -5.12205 -3.12675 0
M  V30 888 H 82.9086 -4.47362 -1.87071 0
M  V30 889 N 84.2517 0.741722 -1.39055 0
M  V30 890 C 85.1617 1.88621 -1.39496 0
M  V30 891 C 86.1777 1.71557 -0.290578 0
M  V30 892 O 87.3537 1.94275 -0.530954 0
M  V30 893 C 84.4187 3.24134 -1.23037 0
M  V30 894 C 83.4797 3.5364 -2.43387 0
M  V30 895 C 82.7127 4.82687 -2.27703 0
M  V30 896 O 82.9357 5.55922 -1.27696 0
M  V30 897 O 81.8697 5.1194 -3.16545 0
M  V30 898 H 85.6957 1.91203 -2.35956 0
M  V30 899 H 83.2807 0.888625 -1.20099 0
M  V30 900 H 85.1627 4.0513 -1.15964 0
M  V30 901 H 83.8377 3.22337 -0.296691 0
M  V30 902 H 82.7447 2.72758 -2.56035 0
M  V30 903 H 84.0777 3.60209 -3.35425 0
M  V30 904 N 85.7298 1.2412 0.971189 0
M  V30 905 C 86.6398 1.04747 2.09917 0
M  V30 906 C 87.6558 -0.0107162 1.73997 0
M  V30 907 O 88.8318 0.186714 2.00533 0
M  V30 908 C 85.8968 0.650828 3.40537 0
M  V30 909 C 84.9578 1.7851 3.90426 0
M  V30 910 C 84.1908 1.40729 5.14812 0
M  V30 911 O 84.4138 0.29557 5.69634 0
M  V30 912 O 83.3478 2.23168 5.58999 0
M  V30 913 H 87.1738 1.99304 2.29154 0
M  V30 914 H 84.7588 1.02908 1.08307 0
M  V30 915 H 86.6408 0.440992 4.19086 0
M  V30 916 H 85.3158 -0.265649 3.22608 0
M  V30 917 H 84.2228 2.04966 3.12953 0
M  V30 918 H 85.5558 2.68023 4.12825 0
M  V30 919 N 87.2079 -1.17134 1.05439 0
M  V30 920 C 88.1709 -2.19439 0.661764 0
M  V30 921 C 89.1709 -1.58199 -0.288042 0
M  V30 922 O 90.3609 -1.74053 -0.0715803 0
M  V30 923 C 87.4929 -3.40889 -0.0276209 0
M  V30 924 H 88.6859 -2.55688 1.56728 0
M  V30 925 H 86.2389 -1.31259 0.848567 0
M  V30 926 H 86.9739 -3.10187 -0.94629 0
M  V30 927 H 86.7589 -3.86586 0.655238 0
M  V30 928 H 88.2489 -4.16603 -0.288342 0
M  V30 929 N 88.686 -0.835752 -1.33615 0
M  V30 930 C 89.596 -0.269088 -2.33052 0
M  V30 931 C 90.612 0.603251 -1.63208 0
M  V30 932 O 91.788 0.508112 -1.94885 0
M  V30 933 C 88.853 0.549091 -3.42324 0
M  V30 934 C 87.914 -0.347156 -4.27894 0
M  V30 935 C 87.147 0.43207 -5.31948 0
M  V30 936 O 87.37 1.66409 -5.45586 0
M  V30 937 O 86.304 -0.192298 -6.01593 0
M  V30 938 H 90.13 -1.09243 -2.83372 0
M  V30 939 H 87.715 -0.598198 -1.36901 0
M  V30 940 H 89.597 1.01414 -4.09015 0
M  V30 941 H 88.272 1.34955 -2.94226 0
M  V30 942 H 87.179 -0.859979 -3.64081 0
M  V30 943 H 88.512 -1.1123 -4.79467 0
M  V30 944 N 90.1641 1.46063 -0.591896 0
M  V30 945 C 91.4411 1.95595 -0.0137119 0
M  V30 946 C 91.8211 1.5345 1.4497 0
M  V30 947 O 91.1691 0.789543 2.14426 0
M  V30 948 C 91.3791 3.48453 -0.195373 0
M  V30 949 C 92.7271 4.24546 -0.0679765 0
M  V30 950 O 93.7511 3.55982 -0.124681 0
M  V30 951 O 92.6101 5.46467 0.0600579 0
M  V30 952 H 89.7041 0.825795 0.0446279 0
M  V30 953 H 92.2501 1.56303 -0.660859 0
M  V30 954 H 91.0221 3.72045 -1.21235 0
M  V30 955 H 90.6451 3.94597 0.487775 0
M  V30 956 N 91.6422 0.330177 1.54103 0
M  V30 957 C 92.5522 -0.541534 2.28264 0
M  V30 958 C 93.5682 -1.12351 1.32866 0
M  V30 959 O 94.7442 -1.14206 1.65888 0
M  V30 960 C 91.8092 -1.68322 3.03098 0
M  V30 961 C 90.8702 -1.13238 4.14096 0
M  V30 962 C 90.1032 -2.21966 4.85352 0
M  V30 963 O 90.3262 -3.42437 4.56172 0
M  V30 964 O 89.2602 -1.87013 5.7211 0
M  V30 965 H 93.0862 0.060938 3.03639 0
M  V30 966 H 90.6712 0.09565 1.49093 0
M  V30 967 H 92.5532 -2.34777 3.49939 0
M  V30 968 H 91.2282 -2.27176 2.30593 0
M  V30 969 H 90.1352 -0.432736 3.71589 0
M  V30 970 H 91.4682 -0.588898 4.88664 0
M  V30 971 N 93.1203 -1.57491 0.0584922 0
M  V30 972 C 94.3693 -1.92155 -0.613146 0
M  V30 973 C 94.6823 -0.939334 -1.71569 0
M  V30 974 O 95.8883 -1.17829 -2.44599 0
M  V30 975 C 94.3443 -3.41303 -1.14195 0
M  V30 976 C 93.9523 -4.47944 -0.0711265 0
M  V30 977 C 95.6963 -3.84988 -1.78841 0
M  V30 978 C 93.6033 -5.88212 -0.613225 0
M  V30 979 H 92.5333 -0.717162 -0.232796 0
M  V30 980 H 95.1843 -1.83049 0.12857 0
M  V30 981 H 93.5663 -3.45437 -1.93621 0
M  V30 982 H 94.7403 -4.55408 0.702836 0
M  V30 983 H 93.0553 -4.13644 0.478313 0
M  V30 984 H 95.6523 -4.87159 -2.20408 0
M  V30 985 H 95.9953 -3.21632 -2.64308 0
M  V30 986 H 96.5283 -3.83401 -1.06059 0
M  V30 987 H 93.2673 -6.55183 0.203978 0
M  V30 988 H 92.7873 -5.84294 -1.35501 0
M  V30 989 H 94.4663 -6.37687 -1.09383 0
M  V30 990 N 94.5984 0.214957 -1.56127 0
M  V30 991 C 95.5084 1.28727 -1.96129 0
M  V30 992 C 96.5244 1.50916 -0.866044 0
M  V30 993 O 97.7004 1.63918 -1.17016 0
M  V30 994 C 94.7654 2.61569 -2.27558 0
M  V30 995 C 93.8264 2.47625 -3.50685 0
M  V30 996 C 93.0594 3.74132 -3.80606 0
M  V30 997 O 93.2824 4.77438 -3.12104 0
M  V30 998 O 92.2164 3.70849 -4.74083 0
M  V30 999 H 96.0424 0.977855 -2.87527 0
M  V30 1000 H 93.6274 0.418358 -1.43423 0
M  V30 1001 H 95.5094 3.40012 -2.48938 0
M  V30 1002 H 94.1844 2.92178 -1.39332 0
M  V30 1003 H 93.0914 1.67361 -3.34576 0
M  V30 1004 H 94.4244 2.21954 -4.39315 0
M  V30 1005 N 96.0765 1.50051 0.48192 0
M  V30 1006 C 97.3535 1.51009 1.2432 0
M  V30 1007 C 97.7335 0.248587 2.09631 0
M  V30 1008 O 97.0815 -0.768409 2.15192 0
M  V30 1009 C 97.2915 2.79981 2.08355 0
M  V30 1010 C 98.6395 3.3022 2.66908 0
M  V30 1011 O 99.6635 2.81228 2.18607 0
M  V30 1012 O 98.5225 4.15595 3.54884 0
M  V30 1013 H 95.6165 0.605239 0.563573 0
M  V30 1014 H 98.1625 1.62332 0.494627 0
M  V30 1015 H 96.9345 3.63275 1.45419 0
M  V30 1016 H 96.5575 2.7161 2.90368 0
M  V30 1017 N 97.5546 -0.734337 1.39446 0
M  V30 1018 C 98.8036 -1.48937 1.36017 0
M  V30 1019 C 99.1166 -1.95557 -0.0409005 0
M  V30 1020 O 100.323 -2.70779 -0.19778 0
M  V30 1021 C 98.7786 -2.69125 2.38955 0
M  V30 1022 C 98.3866 -2.29452 3.8478 0
M  V30 1023 C 100.131 -3.46944 2.44603 0
M  V30 1024 C 98.0376 -3.46366 4.79358 0
M  V30 1025 H 96.9676 -0.559296 0.505672 0
M  V30 1026 H 99.6186 -0.800983 1.65095 0
M  V30 1027 H 98.0006 -3.40041 2.02948 0
M  V30 1028 H 99.1746 -1.66077 4.29831 0
M  V30 1029 H 97.4896 -1.64723 3.82433 0
M  V30 1030 H 100.087 -4.33907 3.12456 0
M  V30 1031 H 100.43 -3.89454 1.47076 0
M  V30 1032 H 100.963 -2.83056 2.79507 0
M  V30 1033 H 97.7016 -3.08905 5.78151 0
M  V30 1034 H 97.2216 -4.08719 4.38986 0
M  V30 1035 H 98.9006 -4.12691 4.98292 0
M  V30 1036 N 99.0327 -1.24633 -0.964593 0
M  V30 1037 C 99.9647 -0.999302 -2.06268 0
M  V30 1038 C 100.978 0.0323226 -1.62768 0
M  V30 1039 O 102.167 -0.205079 -1.77318 0
M  V30 1040 C 99.2667 -0.486816 -3.35385 0
M  V30 1041 C 98.4397 -1.5823 -4.07777 0
M  V30 1042 C 97.4987 -1.07191 -5.15166 0
M  V30 1043 O 96.5247 -1.76426 -5.41168 0
M  V30 1044 N 97.7267 0.0920373 -5.80427 0
M  V30 1045 H 100.492 -1.94477 -2.28033 0
M  V30 1046 H 98.0527 -1.15704 -1.13244 0
M  V30 1047 H 100.045 -0.130066 -4.04491 0
M  V30 1048 H 98.6147 0.364459 -3.10468 0
M  V30 1049 H 97.8347 -2.11109 -3.32906 0
M  V30 1050 H 99.1227 -2.31854 -4.52903 0
M  V30 1051 H 98.5207 0.670784 -5.61709 0
M  V30 1052 H 97.0777 0.389905 -6.50633 0
M  V30 1053 N 100.511 1.16574 -1.06058 0
M  V30 1054 C 101.443 2.2045 -0.627239 0
M  V30 1055 C 102.456 1.59752 0.313534 0
M  V30 1056 O 103.645 1.78192 0.104896 0
M  V30 1057 C 100.745 3.3875 0.100974 0
M  V30 1058 C 99.9178 4.29008 -0.852687 0
M  V30 1059 C 98.9768 5.25944 -0.164152 0
M  V30 1060 O 98.0028 5.63535 -0.801047 0
M  V30 1061 N 99.2048 5.70075 1.09518 0
M  V30 1062 H 101.97 2.58249 -1.52077 0
M  V30 1063 H 99.5308 1.3156 -0.943594 0
M  V30 1064 H 101.523 4.00638 0.57194 0
M  V30 1065 H 100.093 2.99476 0.89628 0
M  V30 1066 H 99.3128 3.64419 -1.50308 0
M  V30 1067 H 100.601 4.86195 -1.49972 0
M  V30 1068 H 99.9988 5.41624 1.6328 0
M  V30 1069 H 98.5558 6.34067 1.51006 0
M  V30 1070 N 101.989 0.842826 1.3317 0
M  V30 1071 C 102.899 0.281444 2.32906 0
M  V30 1072 C 103.915 -0.594587 1.63526 0
M  V30 1073 O 105.091 -0.49777 1.95152 0
M  V30 1074 C 102.156 -0.530929 3.42611 0
M  V30 1075 C 101.217 0.369843 4.27704 0
M  V30 1076 C 100.45 -0.403853 5.3217 0
M  V30 1077 O 100.673 -1.63513 5.46461 0
M  V30 1078 O 99.6069 0.224199 6.01482 0
M  V30 1079 H 103.433 1.10744 2.82789 0
M  V30 1080 H 101.018 0.60545 1.36582 0
M  V30 1081 H 102.9 -0.992437 4.09547 0
M  V30 1082 H 101.575 -1.33392 2.94938 0
M  V30 1083 H 100.482 0.879275 3.6362 0
M  V30 1084 H 101.815 1.13771 4.78871 0
M  V30 1085 N 103.467 -1.45747 0.599634 0
M  V30 1086 C 104.716 -2.01502 0.0893511 0
M  V30 1087 C 105.029 -1.4748 -1.28488 0
M  V30 1088 O 106.235 -1.95161 -1.88745 0
M  V30 1089 C 104.691 -3.59735 0.109082 0
M  V30 1090 C 104.299 -4.22754 1.48267 0
M  V30 1091 C 106.043 -4.23085 -0.346374 0
M  V30 1092 C 103.95 -5.73115 1.45921 0
M  V30 1093 H 102.88 -0.753417 0.0296347 0
M  V30 1094 H 105.531 -1.67303 0.753788 0
M  V30 1095 H 103.913 -3.91087 -0.621854 0
M  V30 1096 H 105.087 -4.02987 2.23468 0
M  V30 1097 H 103.402 -3.71567 1.87955 0
M  V30 1098 H 105.999 -5.33327 -0.38298 0
M  V30 1099 H 106.342 -3.93201 -1.36743 0
M  V30 1100 H 106.875 -3.9642 0.331038 0
M  V30 1101 H 103.614 -6.07685 2.45762 0
M  V30 1102 H 103.134 -5.95097 0.749665 0
M  V30 1103 H 104.813 -6.3616 1.17941 0
M  V30 1104 N 104.945 -0.338344 -1.53925 0
M  V30 1105 C 106.173 0.261298 -2.05243 0
M  V30 1106 C 106.588 1.44625 -1.21363 0
M  V30 1107 O 105.945 1.80811 -0.247736 0
M  V30 1108 C 105.996 0.681412 -3.5502 0
M  V30 1109 O 105.717 -0.456414 -4.35716 0
M  V30 1110 C 107.218 1.34232 -4.22489 0
M  V30 1111 H 104.438 0.0513685 -0.669031 0
M  V30 1112 H 106.982 -0.488822 -1.98572 0
M  V30 1113 H 105.137 1.38148 -3.61931 0
M  V30 1114 H 105.551 -0.122564 -5.24357 0
M  V30 1115 H 107.025 1.58708 -5.28693 0
M  V30 1116 H 107.502 2.29426 -3.74514 0
M  V30 1117 H 108.108 0.684424 -4.19757 0
M  V30 1118 N 106.423 1.57458 -0.0668435 0
M  V30 1119 C 107.669 1.93587 0.6043 0
M  V30 1120 C 108.002 0.946722 1.69561 0
M  V30 1121 O 107.277 -0.0248516 1.94484 0
M  V30 1122 C 107.56 3.40014 1.18585 0
M  V30 1123 C 107.413 4.49685 0.101529 0
M  V30 1124 C 108.732 3.87154 2.09284 0
M  V30 1125 H 105.851 0.703958 0.218202 0
M  V30 1126 H 108.493 1.89542 -0.131804 0
M  V30 1127 H 106.643 3.43592 1.81319 0
M  V30 1128 H 108.315 4.5823 -0.531279 0
M  V30 1129 H 106.558 4.30059 -0.568487 0
M  V30 1130 H 107.229 5.49266 0.54874 0
M  V30 1131 H 109.705 3.85551 1.56491 0
M  V30 1132 H 108.581 4.90231 2.46911 0
M  V30 1133 H 108.842 3.2481 2.99918 0
M  V30 1134 N 107.901 -0.206675 1.56239 0
M  V30 1135 C 108.831 -1.25909 1.96645 0
M  V30 1136 C 109.812 -1.48097 0.836734 0
M  V30 1137 O 110.997 -1.6003 1.10019 0
M  V30 1138 C 108.127 -2.6058 2.29599 0
M  V30 1139 C 107.081 -2.53024 3.452 0
M  V30 1140 C 106.407 -3.91861 3.63798 0
M  V30 1141 C 107.707 -2.06524 4.79734 0
M  V30 1142 H 109.401 -0.923369 2.84806 0
M  V30 1143 H 106.947 -0.442735 1.37025 0
M  V30 1144 H 108.9 -3.34375 2.56459 0
M  V30 1145 H 107.624 -2.95869 1.38307 0
M  V30 1146 H 106.283 -1.81684 3.18412 0
M  V30 1147 H 105.931 -4.24483 2.69857 0
M  V30 1148 H 105.631 -3.87683 4.4156 0
M  V30 1149 H 107.155 -4.67296 3.93022 0
M  V30 1150 H 108.569 -2.70072 5.05702 0
M  V30 1151 H 106.966 -2.13374 5.60885 0
M  V30 1152 H 108.036 -1.01802 4.74093 0
M  V30 1153 N 109.379 -1.50304 -0.473955 0
M  V30 1154 C 110.604 -1.65175 -1.25427 0
M  V30 1155 C 111.029 -0.333673 -1.85117 0
M  V30 1156 O 110.387 0.702114 -1.67153 0
M  V30 1157 C 110.435 -2.74295 -2.34082 0
M  V30 1158 O 109.539 -2.35349 -3.38651 0
M  V30 1159 H 108.88 -0.551944 -0.369126 0
M  V30 1160 H 111.41 -1.96662 -0.564364 0
M  V30 1161 H 111.42 -2.97285 -2.79438 0
M  V30 1162 H 110.095 -3.69959 -1.90008 0
M  V30 1163 H 108.672 -2.22794 -2.99027 0
M  V30 1164 N 110.857 0.726932 -1.39834 0
M  V30 1165 C 111.789 1.85147 -1.35104 0
M  V30 1166 C 112.802 1.60736 -0.258392 0
M  V30 1167 O 113.991 1.70821 -0.517931 0
M  V30 1168 C 111.091 3.21332 -1.07697 0
M  V30 1169 C 110.264 3.73033 -2.28396 0
M  V30 1170 C 109.323 4.87802 -1.97322 0
M  V30 1171 O 108.349 5.01043 -2.70083 0
M  V30 1172 N 109.551 5.72768 -0.944273 0
M  V30 1173 H 112.316 1.89706 -2.32017 0
M  V30 1174 H 109.877 0.908006 -1.3404 0
M  V30 1175 H 111.869 3.95691 -0.849144 0
M  V30 1176 H 110.439 3.11992 -0.194909 0
M  V30 1177 H 109.659 2.89934 -2.6708 0
M  V30 1178 H 110.947 4.0431 -3.08887 0
M  V30 1179 H 110.345 5.64669 -0.341427 0
M  V30 1180 H 108.902 6.4716 -0.776346 0
M  V30 1181 N 112.336 1.25143 0.95797 0
M  V30 1182 C 113.576 1.10893 1.71703 0
M  V30 1183 C 113.94 -0.34478 1.88879 0
M  V30 1184 O 115.141 -0.609014 2.6181 0
M  V30 1185 C 113.412 1.83889 3.06463 0
M  V30 1186 S 114.971 1.85491 3.97666 0
M  V30 1187 H 111.789 0.396428 0.590226 0
M  V30 1188 H 114.391 1.58618 1.14283 0
M  V30 1189 H 113.095 2.88756 2.9163 0
M  V30 1190 H 112.626 1.36538 3.68946 0
M  V30 1191 H 114.641 0.929553 4.87415 0
M  V30 1192 N 113.814 -1.1601 1.06675 0
M  V30 1193 C 115.091 -1.82679 0.699114 0
M  V30 1194 C 115.471 -1.94559 -0.819137 0
M  V30 1195 O 114.819 -1.49169 -1.73092 0
M  V30 1196 C 115.029 -3.19445 1.40555 0
M  V30 1197 C 116.377 -3.95171 1.55323 0
M  V30 1198 O 117.401 -3.28976 1.36577 0
M  V30 1199 O 116.26 -5.13833 1.86112 0
M  V30 1200 H 113.354 -0.788954 0.247951 0
M  V30 1201 H 115.9 -1.23179 1.16726 0
M  V30 1202 H 114.672 -3.05856 2.44065 0
M  V30 1203 H 114.295 -3.86625 0.927733 0
M  V30 1204 N 115.292 -0.849877 -1.32721 0
M  V30 1205 C 116.517 -0.463856 -2.02146 0
M  V30 1206 C 116.942 0.930449 -1.63476 0
M  V30 1207 O 116.3 1.61033 -0.832952 0
M  V30 1208 C 116.348 -0.604955 -3.55489 0
M  V30 1209 O 115.452 0.36425 -4.10788 0
M  V30 1210 H 114.793 -0.187046 -0.637111 0
M  V30 1211 H 117.323 -1.14775 -1.69375 0
M  V30 1212 H 117.333 -0.490696 -4.05038 0
M  V30 1213 H 116.008 -1.62174 -3.82978 0
M  V30 1214 H 114.585 0.206628 -3.72327 0
M  V30 1215 N 116.77 1.45427 -0.607355 0
M  V30 1216 C 117.995 2.07124 -0.107006 0
M  V30 1217 C 118.42 1.44906 1.19933 0
M  V30 1218 O 117.778 0.541687 1.73019 0
M  V30 1219 C 117.826 3.60595 0.0194119 0
M  V30 1220 O 116.93 3.98285 1.0697 0
M  V30 1221 H 116.271 0.659868 -0.0739597 0
M  V30 1222 H 118.801 1.86683 -0.837297 0
M  V30 1223 H 118.811 4.07419 0.2177 0
M  V30 1224 H 117.486 4.05266 -0.934453 0
M  V30 1225 H 116.063 3.63133 0.847889 0
M  V30 1226 N 118.248 0.346503 1.53744 0
M  V30 1227 C 119.478 -0.250047 2.05081 0
M  V30 1228 C 119.886 -1.44529 1.22098 0
M  V30 1229 O 119.229 -1.81992 0.249917 0
M  V30 1230 C 119.291 -0.725934 3.52094 0
M  V30 1231 C 118.955 0.350053 4.55657 0
M  V30 1232 C 119.952 1.19372 5.0601 0
M  V30 1233 C 117.637 0.504827 4.99757 0
M  V30 1234 C 119.631 2.17768 5.99046 0
M  V30 1235 C 117.318 1.49218 5.92602 0
M  V30 1236 C 118.316 2.32706 6.42135 0
M  V30 1237 O 118.004 3.2976 7.33153 0
M  V30 1238 H 117.736 -0.0515469 0.674032 0
M  V30 1239 H 120.29 0.497559 1.99282 0
M  V30 1240 H 118.52 -1.52483 3.55367 0
M  V30 1241 H 120.209 -1.24336 3.86388 0
M  V30 1242 H 120.975 1.08525 4.72702 0
M  V30 1243 H 116.854 -0.135178 4.60802 0
M  V30 1244 H 120.398 2.82971 6.37631 0
M  V30 1245 H 116.295 1.6012 6.25325 0
M  V30 1246 H 117.063 3.25265 7.51096 0
M  V30 1247 N 119.726 -1.57421 0.075193 0
M  V30 1248 C 120.972 -1.93905 -0.594025 0
M  V30 1249 C 121.305 -0.955701 -1.69056 0
M  V30 1250 O 120.58 0.0145373 -1.94495 0
M  V30 1251 C 120.863 -3.40638 -1.1678 0
M  V30 1252 C 120.716 -4.49733 -0.0776792 0
M  V30 1253 C 122.035 -3.88259 -2.07228 0
M  V30 1254 H 119.154 -0.705105 -0.214466 0
M  V30 1255 H 121.796 -1.8947 0.141854 0
M  V30 1256 H 119.946 -3.44549 -1.79494 0
M  V30 1257 H 121.618 -4.57942 0.555573 0
M  V30 1258 H 119.861 -4.29751 0.591286 0
M  V30 1259 H 120.532 -5.49549 -0.519603 0
M  V30 1260 H 123.008 -3.86376 -1.54445 0
M  V30 1261 H 121.884 -4.91533 -2.44308 0
M  V30 1262 H 122.145 -3.26396 -2.98191 0
M  V30 1263 N 121.204 0.198386 -1.56346 0
M  V30 1264 C 122.432 0.935572 -1.84539 0
M  V30 1265 C 122.847 1.76989 -0.657281 0
M  V30 1266 O 122.204 1.78626 0.374043 0
M  V30 1267 C 122.255 1.8344 -3.11499 0
M  V30 1268 O 121.976 1.03377 -4.25728 0
M  V30 1269 C 123.477 2.68355 -3.52846 0
M  V30 1270 H 120.697 0.273126 -0.612897 0
M  V30 1271 H 123.241 0.20663 -2.03453 0
M  V30 1272 H 121.396 2.51701 -2.94492 0
M  V30 1273 H 121.81 1.64599 -4.98003 0
M  V30 1274 H 123.284 3.27085 -4.44657 0
M  V30 1275 H 123.761 3.41901 -2.75681 0
M  V30 1276 H 124.367 2.05471 -3.72373 0
M  V30 1277 N 122.682 1.50554 0.465978 0
M  V30 1278 C 123.629 1.6979 1.56333 0
M  V30 1279 C 124.599 0.539239 1.57103 0
M  V30 1280 O 125.784 0.770401 1.74555 0
M  V30 1281 C 122.924 1.80273 2.94271 0
M  V30 1282 C 122.037 3.07674 3.0325 0
M  V30 1283 C 121.172 3.08922 4.32135 0
M  V30 1284 C 120.211 4.30755 4.34875 0
M  V30 1285 N 119.348 4.29714 5.55239 0
M  V30 1286 H 124.188 2.63472 1.39235 0
M  V30 1287 H 121.725 1.30602 0.676873 0
M  V30 1288 H 123.683 1.84332 3.74269 0
M  V30 1289 H 122.313 0.900258 3.09992 0
M  V30 1290 H 121.365 3.13062 2.16094 0
M  V30 1291 H 122.677 3.97642 3.01135 0
M  V30 1292 H 121.831 3.11738 5.20485 0
M  V30 1293 H 120.57 2.16792 4.36866 0
M  V30 1294 H 119.575 4.28146 3.44922 0
M  V30 1295 H 120.8 5.24117 4.31831 0
M  V30 1296 H 118.746 3.4044 5.60746 0
M  V30 1297 H 118.663 5.13456 5.54886 0
M  V30 1298 H 119.931 4.36683 6.457 0
M  V30 1299 N 124.16 -0.719506 1.40217 0
M  V30 1300 C 125.39 -1.50646 1.41384 0
M  V30 1301 C 125.798 -1.89197 0.0107743 0
M  V30 1302 O 125.141 -1.55709 -0.974708 0
M  V30 1303 C 125.203 -2.81405 2.23722 0
M  V30 1304 C 124.867 -2.65199 3.72181 0
M  V30 1305 C 125.864 -2.32717 4.64907 0
M  V30 1306 C 123.549 -2.81586 4.1595 0
M  V30 1307 C 125.543 -2.16827 5.99387 0
M  V30 1308 C 123.23 -2.65313 5.50502 0
M  V30 1309 C 124.228 -2.32981 6.42035 0
M  V30 1310 O 123.916 -2.16827 7.74107 0
M  V30 1311 H 123.648 -0.471606 0.484318 0
M  V30 1312 H 126.202 -0.895456 1.84853 0
M  V30 1313 H 124.432 -3.44823 1.75026 0
M  V30 1314 H 126.121 -3.43102 2.16878 0
M  V30 1315 H 126.887 -2.19694 4.32388 0
M  V30 1316 H 122.766 -3.0574 3.45027 0
M  V30 1317 H 126.31 -1.91513 6.70797 0
M  V30 1318 H 122.207 -2.7792 5.82607 0
M  V30 1319 H 122.975 -2.31778 7.84998 0
M  V30 1320 N 125.638 -1.25649 -0.95132 0
M  V30 1321 C 126.868 -1.13179 -1.72841 0
M  V30 1322 C 127.276 0.316827 -1.86528 0
M  V30 1323 O 126.619 1.22948 -1.3649 0
M  V30 1324 C 126.681 -1.71644 -3.15878 0
M  V30 1325 C 126.345 -3.20667 -3.25609 0
M  V30 1326 C 127.342 -4.17616 -3.09666 0
M  V30 1327 C 125.027 -3.6094 -3.49324 0
M  V30 1328 C 127.021 -5.52817 -3.17289 0
M  V30 1329 C 124.708 -4.96278 -3.56584 0
M  V30 1330 C 125.706 -5.92025 -3.40581 0
M  V30 1331 O 125.394 -7.24899 -3.47528 0
M  V30 1332 H 125.126 -0.395389 -0.54831 0
M  V30 1333 H 127.68 -1.66566 -1.20187 0
M  V30 1334 H 125.91 -1.12707 -3.69911 0
M  V30 1335 H 127.599 -1.54225 -3.75459 0
M  V30 1336 H 128.365 -3.87842 -2.91211 0
M  V30 1337 H 124.244 -2.86907 -3.6084 0
M  V30 1338 H 127.788 -6.2753 -3.04716 0
M  V30 1339 H 123.685 -5.25716 -3.74556 0
M  V30 1340 H 124.453 -7.33039 -3.64138 0
M  V30 1341 N 127.117 1.15442 -1.07289 0
M  V30 1342 C 128.365 1.85845 -0.794096 0
M  V30 1343 C 128.686 1.82692 0.681809 0
M  V30 1344 O 127.956 1.26741 1.49377 0
M  V30 1345 H 126.536 0.688089 -0.290763 0
M  V30 1346 H 129.198 1.39947 -1.3565 0
M  V30 1347 H 128.294 2.91001 -1.12804 0
M  V30 1348 N 128.595 0.856903 1.32268 0
M  V30 1349 C 129.82 0.474569 2.01897 0
M  V30 1350 C 130.245 -0.921766 1.63967 0
M  V30 1351 O 129.603 -1.60589 0.84148 0
M  V30 1352 C 129.651 0.623799 3.55164 0
M  V30 1353 O 128.755 -0.342459 4.10976 0
M  V30 1354 H 128.096 0.190422 0.63611 0
M  V30 1355 H 130.626 1.15672 1.68764 0
M  V30 1356 H 130.636 0.512169 4.04773 0
M  V30 1357 H 129.311 1.64202 3.82113 0
M  V30 1358 H 127.888 -0.18688 3.72431 0
M  V30 1359 N 130.073 -1.45103 0.615059 0
M  V30 1360 C 131.303 -2.06254 0.119596 0
M  V30 1361 C 131.711 -1.4591 -1.20445 0
M  V30 1362 O 131.054 -0.570384 -1.7462 0
M  V30 1363 C 131.116 -3.59396 -0.0865591 0
M  V30 1364 C 130.78 -4.42116 1.15683 0
M  V30 1365 C 131.777 -4.7662 2.07676 0
M  V30 1366 C 129.462 -4.82749 1.38775 0
M  V30 1367 C 131.456 -5.50622 3.21082 0
M  V30 1368 C 129.143 -5.56504 2.52481 0
M  V30 1369 C 130.141 -5.90358 3.43463 0
M  V30 1370 O 129.829 -6.62615 4.55189 0
M  V30 1371 H 129.561 -0.672423 0.0694512 0
M  V30 1372 H 132.115 -1.87219 0.844885 0
M  V30 1373 H 130.345 -3.76859 -0.866823 0
M  V30 1374 H 132.034 -4.02365 -0.534555 0
M  V30 1375 H 132.8 -4.4578 1.91063 0
M  V30 1376 H 128.679 -4.55829 0.688545 0
M  V30 1377 H 132.223 -5.76965 3.92119 0
M  V30 1378 H 128.12 -5.86759 2.69043 0
M  V30 1379 H 128.888 -6.81071 4.53966 0
M  V30 1380 N 131.551 -0.354651 -1.53558 0
M  V30 1381 C 132.481 0.489091 -2.2832 0
M  V30 1382 C 133.462 1.09324 -1.30316 0
M  V30 1383 O 134.647 1.11255 -1.59173 0
M  V30 1384 C 131.777 1.63456 -3.0643 0
M  V30 1385 C 130.731 1.1582 -4.12031 0
M  V30 1386 C 130.057 2.39305 -4.7816 0
M  V30 1387 C 131.357 0.250731 -5.21698 0
M  V30 1388 H 133.051 -0.134614 -2.99097 0
M  V30 1389 H 130.597 -0.0661826 -1.43848 0
M  V30 1390 H 132.55 2.23136 -3.57475 0
M  V30 1391 H 131.274 2.28533 -2.33325 0
M  V30 1392 H 129.933 0.584146 -3.61916 0
M  V30 1393 H 129.581 3.02814 -4.01637 0
M  V30 1394 H 129.281 2.08109 -5.49513 0
M  V30 1395 H 130.805 2.99691 -5.31994 0
M  V30 1396 H 132.219 0.754695 -5.68311 0
M  V30 1397 H 130.616 0.0301468 -6.00092 0
M  V30 1398 H 131.686 -0.710125 -4.79672 0
M  V30 1399 N 133.029 1.57378 -0.0835403 0
M  V30 1400 C 133.976 2.13384 0.879539 0
M  V30 1401 C 134.946 1.04936 1.28754 0
M  V30 1402 O 136.131 1.32662 1.37133 0
M  V30 1403 C 133.271 2.70932 2.13752 0
M  V30 1404 C 132.384 3.93575 1.7811 0
M  V30 1405 C 131.519 4.39326 2.98607 0
M  V30 1406 C 130.558 5.54587 2.59037 0
M  V30 1407 N 129.695 5.95243 3.72331 0
M  V30 1408 H 134.535 2.9537 0.395076 0
M  V30 1409 H 132.072 1.45953 0.183349 0
M  V30 1410 H 134.03 3.02411 2.87408 0
M  V30 1411 H 132.66 1.91693 2.59718 0
M  V30 1412 H 131.712 3.68483 0.94469 0
M  V30 1413 H 133.024 4.77258 1.45005 0
M  V30 1414 H 132.178 4.72528 3.80529 0
M  V30 1415 H 130.917 3.5452 3.34913 0
M  V30 1416 H 129.922 5.21024 1.75539 0
M  V30 1417 H 131.147 6.41133 2.23887 0
M  V30 1418 H 129.093 5.13385 4.08378 0
M  V30 1419 H 129.01 6.73694 3.43034 0
M  V30 1420 H 130.278 6.33072 4.54797 0
M  V30 1421 N 134.507 -0.190092 1.56449 0
M  V30 1422 C 135.755 -0.907908 1.80559 0
M  V30 1423 C 136.076 -1.83583 0.657438 0
M  V30 1424 O 135.346 -1.93203 -0.323924 0
M  V30 1425 H 133.926 -0.338247 0.666032 0
M  V30 1426 H 136.588 -0.194403 1.93928 0
M  V30 1427 H 135.684 -1.49604 2.73907 0
M  V30 1428 N 135.985 -1.50799 -0.457987 0
M  V30 1429 C 137.21 -1.66496 -1.23668 0
M  V30 1430 C 137.635 -0.353288 -1.84752 0
M  V30 1431 O 136.993 0.684346 -1.67888 0
M  V30 1432 C 137.041 -2.76763 -2.3116 0
M  V30 1433 O 136.145 -2.38928 -3.36136 0
M  V30 1434 H 135.486 -0.555828 -0.363252 0
M  V30 1435 H 138.016 -1.9725 -0.543474 0
M  V30 1436 H 138.026 -3.00232 -2.76269 0
M  V30 1437 H 136.701 -3.71954 -1.86073 0
M  V30 1438 H 135.278 -2.25953 -2.96647 0
M  V30 1439 N 137.463 0.71206 -1.40597 0
M  V30 1440 C 138.41 1.82613 -1.41142 0
M  V30 1441 C 139.38 1.63925 -0.267903 0
M  V30 1442 O 140.565 1.85009 -0.466495 0
M  V30 1443 C 137.705 3.20354 -1.28324 0
M  V30 1444 C 136.818 3.50589 -2.52411 0
M  V30 1445 C 135.953 4.77855 -2.32009 0
M  V30 1446 C 134.992 5.01005 -3.51654 0
M  V30 1447 N 134.129 6.19487 -3.30425 0
M  V30 1448 H 138.969 1.81482 -2.36365 0
M  V30 1449 H 136.506 0.886475 -1.17388 0
M  V30 1450 H 138.464 3.99899 -1.18899 0
M  V30 1451 H 137.094 3.20705 -0.367189 0
M  V30 1452 H 136.146 2.65573 -2.72351 0
M  V30 1453 H 137.458 3.63604 -3.41458 0
M  V30 1454 H 136.612 5.65424 -2.19956 0
M  V30 1455 H 135.351 4.67056 -1.40392 0
M  V30 1456 H 134.356 4.1189 -3.64179 0
M  V30 1457 H 135.581 5.13674 -4.44202 0
M  V30 1458 H 133.527 6.09932 -2.41494 0
M  V30 1459 H 133.444 6.33194 -4.13039 0
M  V30 1460 H 134.712 7.09834 -3.22113 0
M  V30 1461 N 138.941 1.26152 0.944643 0
M  V30 1462 C 139.871 1.09902 2.06019 0
M  V30 1463 C 140.852 0.00519538 1.70099 0
M  V30 1464 O 142.037 0.176583 1.93396 0
M  V30 1465 C 139.167 0.727562 3.39594 0
M  V30 1466 C 138.121 1.77274 3.89561 0
M  V30 1467 C 137.447 1.25569 5.19747 0
M  V30 1468 C 138.747 3.17357 4.14827 0
M  V30 1469 H 140.441 2.03217 2.19871 0
M  V30 1470 H 137.987 0.978452 1.05652 0
M  V30 1471 H 139.94 0.600777 4.17095 0
M  V30 1472 H 138.664 -0.241287 3.25707 0
M  V30 1473 H 137.323 1.88814 3.14237 0
M  V30 1474 H 136.971 0.276783 5.02238 0
M  V30 1475 H 136.671 1.95433 5.54148 0
M  V30 1476 H 138.195 1.1415 5.99835 0
M  V30 1477 H 139.609 3.08914 4.82954 0
M  V30 1478 H 138.006 3.84781 4.60504 0
M  V30 1479 H 139.076 3.63673 3.20734 0
M  V30 1480 N 140.419 -1.14872 1.07899 0
M  V30 1481 C 141.665 -1.86289 0.81657 0
M  V30 1482 C 142.02 -1.8107 -0.65049 0
M  V30 1483 O 141.313 -1.22684 -1.47171 0
M  V30 1484 C 141.507 -3.34223 1.26609 0
M  V30 1485 C 141.336 -3.53846 2.77531 0
M  V30 1486 C 140.106 -3.68995 3.45212 0
M  V30 1487 C 142.304 -3.51201 3.75716 0
M  V30 1488 N 140.286 -3.76725 4.84718 0
M  V30 1489 C 141.657 -3.65112 5.01092 0
M  V30 1490 C 143.712 -3.34507 3.68794 0
M  V30 1491 C 142.415 -3.64056 6.20368 0
M  V30 1492 C 144.441 -3.34752 4.8754 0
M  V30 1493 C 143.803 -3.49199 6.11751 0
M  V30 1494 H 139.902 -0.698579 0.351443 0
M  V30 1495 H 142.486 -1.37713 1.37634 0
M  V30 1496 H 140.657 -3.81402 0.73395 0
M  V30 1497 H 142.389 -3.93377 0.95062 0
M  V30 1498 H 139.144 -3.70006 2.95622 0
M  V30 1499 H 139.568 -3.8432 5.5734 0
M  V30 1500 H 144.21 -3.22253 2.73702 0
M  V30 1501 H 141.928 -3.75087 7.15776 0
M  V30 1502 H 145.514 -3.23055 4.83866 0
M  V30 1503 H 144.394 -3.49328 7.02097 0
M  V30 1504 N 141.898 -0.863906 -1.31812 0
M  V30 1505 C 143.147 -0.46801 -1.96195 0
M  V30 1506 C 143.46 0.983474 -1.69077 0
M  V30 1507 O 144.666 1.48523 -2.27273 0
M  V30 1508 C 143.122 -0.785995 -3.51212 0
M  V30 1509 C 142.73 -2.25383 -3.87178 0
M  V30 1510 C 144.474 -0.458274 -4.22019 0
M  V30 1511 C 142.381 -2.51455 -5.3528 0
M  V30 1512 H 141.311 -0.171283 -0.734287 0
M  V30 1513 H 143.962 -1.05597 -1.50072 0
M  V30 1514 H 142.344 -0.127359 -3.95795 0
M  V30 1515 H 143.518 -2.95502 -3.53575 0
M  V30 1516 H 141.833 -2.54698 -3.2942 0
M  V30 1517 H 144.43 -0.630369 -5.30971 0
M  V30 1518 H 144.773 0.600834 -4.11941 0
M  V30 1519 H 145.306 -1.07319 -3.8305 0
M  V30 1520 H 142.045 -3.56025 -5.50387 0
M  V30 1521 H 141.565 -1.85923 -5.70257 0
M  V30 1522 H 143.244 -2.35874 -6.02472 0
M  V30 1523 N 143.376 1.44774 -0.622745 0
M  V30 1524 C 144.625 2.01334 -0.121397 0
M  V30 1525 C 144.938 1.49505 1.26125 0
M  V30 1526 O 146.144 1.98139 1.85616 0
M  V30 1527 C 144.6 3.59516 -0.166298 0
M  V30 1528 C 144.208 4.20342 -1.54974 0
M  V30 1529 C 145.952 4.23582 0.279021 0
M  V30 1530 C 143.859 5.70721 -1.55021 0
M  V30 1531 H 142.789 0.752851 -0.0416172 0
M  V30 1532 H 145.44 1.66083 -0.780309 0
M  V30 1533 H 143.822 3.92027 0.559557 0
M  V30 1534 H 144.996 3.99381 -2.29851 0
M  V30 1535 H 143.311 3.68529 -1.93843 0
M  V30 1536 H 145.908 5.33868 0.298083 0
M  V30 1537 H 146.251 3.95327 1.30471 0
M  V30 1538 H 146.784 3.95843 -0.394063 0
M  V30 1539 H 143.523 6.03698 -2.55399 0
M  V30 1540 H 143.043 5.93829 -0.844245 0
M  V30 1541 H 144.722 6.34203 -1.28047 0
M  V30 1542 N 144.854 0.36279 1.53368 0
M  V30 1543 C 145.787 -0.528507 2.21996 0
M  V30 1544 C 146.765 -1.0852 1.21087 0
M  V30 1545 O 147.949 -1.14186 1.4998 0
M  V30 1546 C 145.076 -1.72893 2.91249 0
M  V30 1547 C 144.122 -1.29994 4.06207 0
M  V30 1548 S 144.955 -0.303575 5.34639 0
M  V30 1549 C 146.111 -1.51039 6.07403 0
M  V30 1550 H 146.344 0.0543423 2.9725 0
M  V30 1551 H 143.877 0.146889 1.537 0
M  V30 1552 H 145.835 -2.41751 3.31763 0
M  V30 1553 H 144.496 -2.28303 2.15724 0
M  V30 1554 H 143.689 -2.19549 4.53667 0
M  V30 1555 H 143.291 -0.690608 3.67569 0
M  V30 1556 H 145.583 -2.44186 6.31965 0
M  V30 1557 H 146.526 -1.07721 6.99858 0
M  V30 1558 H 146.934 -1.71518 5.37812 0
M  V30 1559 N 146.332 -1.57332 0.0918853 0
M  V30 1560 C 147.242 -2.17368 -0.882505 0
M  V30 1561 C 148.258 -1.14226 -1.31257 0
M  V30 1562 O 149.434 -1.46582 -1.38115 0
M  V30 1563 C 146.499 -2.73962 -2.12476 0
M  V30 1564 C 145.56 -3.92048 -1.7492 0
M  V30 1565 C 144.793 -4.45933 -2.93223 0
M  V30 1566 O 145.016 -3.98764 -4.07852 0
M  V30 1567 O 143.95 -5.36999 -2.71875 0
M  V30 1568 H 147.776 -3.01031 -0.40172 0
M  V30 1569 H 145.361 -1.48813 -0.132291 0
M  V30 1570 H 147.243 -3.10147 -2.85283 0
M  V30 1571 H 145.918 -1.93347 -2.59613 0
M  V30 1572 H 144.825 -3.6068 -0.993025 0
M  V30 1573 H 146.158 -4.74017 -1.32548 0
M  V30 1574 N 147.81 0.181792 -1.56548 0
M  V30 1575 C 149.04 0.914618 -1.85252 0
M  V30 1576 C 149.448 1.76791 -0.673914 0
M  V30 1577 O 148.791 1.80009 0.366416 0
M  V30 1578 C 148.853 1.85019 -3.08234 0
M  V30 1579 C 148.517 1.17754 -4.41569 0
M  V30 1580 C 149.514 0.548035 -5.17003 0
M  V30 1581 C 147.199 1.17742 -4.88305 0
M  V30 1582 C 149.193 -0.0726128 -6.37359 0
M  V30 1583 C 146.88 0.552946 -6.08593 0
M  V30 1584 C 147.878 -0.070978 -6.82963 0
M  V30 1585 O 147.566 -0.685635 -8.00971 0
M  V30 1586 H 147.298 0.271695 -0.618998 0
M  V30 1587 H 149.852 0.189944 -2.0452 0
M  V30 1588 H 148.082 2.61491 -2.84885 0
M  V30 1589 H 149.771 2.45195 -3.23472 0
M  V30 1590 H 150.537 0.540174 -4.81982 0
M  V30 1591 H 146.416 1.65246 -4.30366 0
M  V30 1592 H 149.96 -0.560213 -6.95347 0
M  V30 1593 H 145.857 0.558354 -6.43081 0
M  V30 1594 H 146.625 -0.58385 -8.16415 0
M  V30 1595 N 149.288 1.51039 0.449983 0
M  V30 1596 C 150.218 1.74379 1.55288 0
M  V30 1597 C 151.199 0.593236 1.5942 0
M  V30 1598 O 152.384 0.834625 1.7535 0
M  V30 1599 C 149.514 1.85728 2.93466 0
M  V30 1600 C 148.468 3.01078 3.04197 0
M  V30 1601 C 147.794 2.97595 4.44231 0
M  V30 1602 C 149.094 4.41254 2.7945 0
M  V30 1603 H 150.788 2.66725 1.36008 0
M  V30 1604 H 148.334 1.2835 0.652864 0
M  V30 1605 H 150.287 2.0064 3.70569 0
M  V30 1606 H 149.011 0.900207 3.13949 0
M  V30 1607 H 147.67 2.85851 2.29531 0
M  V30 1608 H 147.318 1.99691 4.61663 0
M  V30 1609 H 147.018 3.75046 4.52343 0
M  V30 1610 H 148.542 3.14583 5.23326 0
M  V30 1611 H 149.956 4.56897 3.46292 0
M  V30 1612 H 148.353 5.20315 2.98985 0
M  V30 1613 H 149.423 4.52164 1.75144 0
M  V30 1614 N 150.766 -0.704594 1.40972 0
M  V30 1615 C 152.014 -1.46169 1.39568 0
M  V30 1616 C 152.335 -1.95 0.00253745 0
M  V30 1617 O 151.605 -1.71095 -0.954114 0
M  V30 1618 H 150.185 -0.542326 0.513704 0
M  V30 1619 H 152.847 -0.834553 1.76128 0
M  V30 1620 H 151.943 -2.32922 2.07735 0
M  V30 1621 N 152.244 -1.26651 -0.937939 0
M  V30 1622 C 153.492 -1.12165 -1.68118 0
M  V30 1623 C 153.813 0.334983 -1.92101 0
M  V30 1624 O 153.083 1.23583 -1.52 0
M  V30 1625 H 151.663 -0.412093 -0.623048 0
M  V30 1626 H 154.325 -1.59027 -1.12678 0
M  V30 1627 H 153.421 -1.64289 -2.6536 0
M  V30 1628 N 153.722 1.14298 -1.08507 0
M  V30 1629 C 154.97 1.84993 -0.813763 0
M  V30 1630 C 155.291 1.83405 0.662393 0
M  V30 1631 O 154.561 1.28319 1.48024 0
M  V30 1632 H 153.141 0.684966 -0.298045 0
M  V30 1633 H 155.803 1.385 -1.37126 0
M  V30 1634 H 154.899 2.89788 -1.15884 0
M  V30 1635 N 155.201 0.870884 1.31352 0
M  V30 1636 C 156.426 0.495957 2.01383 0
M  V30 1637 C 156.851 -0.904324 1.64935 0
M  V30 1638 O 156.209 -1.59687 0.858466 0
M  V30 1639 C 156.257 0.661433 3.54482 0
M  V30 1640 O 155.361 -0.298851 4.11316 0
M  V30 1641 H 154.702 0.197158 0.634054 0
M  V30 1642 H 157.232 1.17455 1.67527 0
M  V30 1643 H 157.242 0.555072 4.04207 0
M  V30 1644 H 155.917 1.68246 3.8035 0
M  V30 1645 H 154.494 -0.147368 3.72609 0
M  V30 1646 N 156.679 -1.44442 0.630414 0
M  V30 1647 C 157.642 -2.29107 -0.0652523 0
M  V30 1648 C 158.642 -1.41002 -0.772995 0
M  V30 1649 O 159.832 -1.62881 -0.617692 0
M  V30 1650 C 156.964 -3.22564 -1.10296 0
M  V30 1651 H 158.157 -2.92103 0.679401 0
M  V30 1652 H 155.71 -1.51343 0.390517 0
M  V30 1653 H 156.445 -2.64416 -1.87762 0
M  V30 1654 H 156.23 -3.87491 -0.59941 0
M  V30 1655 H 157.72 -3.86167 -1.5895 0
M  V30 1656 N 158.157 -0.370918 -1.53173 0
M  V30 1657 C 159.087 0.464847 -2.28826 0
M  V30 1658 C 160.068 1.07936 -1.31468 0
M  V30 1659 O 161.253 1.0956 -1.60344 0
M  V30 1660 C 158.383 1.60196 -3.08147 0
M  V30 1661 C 157.337 1.11443 -4.13237 0
M  V30 1662 C 156.663 2.3422 -4.80672 0
M  V30 1663 C 157.963 0.195384 -5.21934 0
M  V30 1664 H 159.657 -0.166329 -2.98938 0
M  V30 1665 H 157.203 -0.0814359 -1.4377 0
M  V30 1666 H 159.156 2.19332 -3.59822 0
M  V30 1667 H 157.88 2.26045 -2.35735 0
M  V30 1668 H 156.539 0.545727 -3.62515 0
M  V30 1669 H 156.187 2.98537 -4.04827 0
M  V30 1670 H 155.887 2.02269 -5.51689 0
M  V30 1671 H 157.411 2.94032 -5.35143 0
M  V30 1672 H 158.825 0.694375 -5.69079 0
M  V30 1673 H 157.222 -0.0335027 -6.00091 0
M  V30 1674 H 158.292 -0.760961 -4.78892 0
M  V30 1675 N 159.635 1.57281 -0.100228 0
M  V30 1676 C 160.912 1.86014 0.604812 0
M  V30 1677 C 161.292 0.998025 1.86018 0
M  V30 1678 O 160.64 0.0718184 2.28387 0
M  V30 1679 C 160.85 3.36784 0.915278 0
M  V30 1680 C 162.198 4.04957 1.27651 0
M  V30 1681 O 163.222 3.41695 1.00613 0
M  V30 1682 O 162.081 5.16593 1.7831 0
M  V30 1683 H 159.175 0.76942 0.303185 0
M  V30 1684 H 161.721 1.69176 -0.133313 0
M  V30 1685 H 160.493 3.91292 0.0248896 0
M  V30 1686 H 160.116 3.58987 1.70921 0
M  V30 1687 N 161.113 -0.173488 1.56642 0
M  V30 1688 C 162.043 -1.2171 1.99271 0
M  V30 1689 C 163.024 -1.46289 0.867959 0
M  V30 1690 O 164.209 -1.5766 1.13388 0
M  V30 1691 C 161.339 -2.55651 2.35074 0
M  V30 1692 C 160.293 -2.45645 3.50489 0
M  V30 1693 C 159.619 -3.84056 3.72028 0
M  V30 1694 C 160.919 -1.96302 4.84007 0
M  V30 1695 H 162.613 -0.86275 2.867 0
M  V30 1696 H 160.159 -0.413571 1.37933 0
M  V30 1697 H 162.112 -3.2886 2.63494 0
M  V30 1698 H 160.836 -2.92869 1.44552 0
M  V30 1699 H 159.495 -1.7489 3.22194 0
M  V30 1700 H 159.143 -4.18664 2.788 0
M  V30 1701 H 158.843 -3.7823 4.49684 0
M  V30 1702 H 160.367 -4.58854 4.02846 0
M  V30 1703 H 161.781 -2.59284 5.11317 0
M  V30 1704 H 160.178 -2.01429 5.65284 0
M  V30 1705 H 161.248 -0.917226 4.76146 0
M  V30 1706 N 162.591 -1.51276 -0.441967 0
M  V30 1707 C 163.521 -1.752 -1.54361 0
M  V30 1708 C 164.502 -0.601682 -1.59103 0
M  V30 1709 O 165.687 -0.843913 -1.74905 0
M  V30 1710 C 162.817 -1.87282 -2.92477 0
M  V30 1711 C 161.771 -3.02687 -3.02596 0
M  V30 1712 C 161.097 -2.99947 -4.42647 0
M  V30 1713 C 162.397 -4.4273 -2.77106 0
M  V30 1714 H 164.091 -2.67442 -1.34592 0
M  V30 1715 H 161.637 -1.28694 -0.646048 0
M  V30 1716 H 163.59 -2.02602 -3.695 0
M  V30 1717 H 162.314 -0.916844 -3.13467 0
M  V30 1718 H 160.973 -2.87065 -2.28012 0
M  V30 1719 H 160.621 -2.02136 -4.60597 0
M  V30 1720 H 160.321 -3.77439 -4.50348 0
M  V30 1721 H 161.845 -3.17354 -5.2165 0
M  V30 1722 H 163.259 -4.58727 -3.43864 0
M  V30 1723 H 161.656 -5.21893 -2.96222 0
M  V30 1724 H 162.726 -4.53087 -1.72744 0
M  V30 1725 N 164.069 0.697108 -1.41344 0
M  V30 1726 C 165.485 1.00751 -1.2378 0
M  V30 1727 C 165.685 2.01105 -0.126066 0
M  V30 1728 O 164.741 2.47295 0.51004 0
M  V30 1729 C 166.054 1.53359 -2.58653 0
M  V30 1730 C 167.602 1.6525 -2.65822 0
M  V30 1731 C 168.077 2.2126 -4.01009 0
M  V30 1732 N 169.568 2.28622 -4.02847 0
M  V30 1733 C 170.303 2.72984 -5.04249 0
M  V30 1734 N 169.799 3.16962 -6.16041 0
M  V30 1735 N 171.592 2.72534 -4.91611 0
M  V30 1736 H 163.743 0.0322662 -2.12375 0
M  V30 1737 H 166.006 0.0768853 -0.944877 0
M  V30 1738 H 165.712 0.870773 -3.4075 0
M  V30 1739 H 165.586 2.51597 -2.81032 0
M  V30 1740 H 167.973 2.30644 -1.84086 0
M  V30 1741 H 168.054 0.655614 -2.47256 0
M  V30 1742 H 167.698 1.56482 -4.83193 0
M  V30 1743 H 167.628 3.21698 -4.16915 0
M  V30 1744 H 170.119 1.97585 -3.22131 0
M  V30 1745 H 170.432 3.49434 -6.89287 0
M  V30 1746 H 168.777 3.14875 -6.1958 0
M  V30 1747 H 171.968 2.37525 -4.0336 0
M  V30 1748 H 172.141 3.06789 -5.70775 0
M  V30 1749 N 165.547 1.27147 0.931209 0
M  V30 1750 C 166.51 1.09615 2.01289 0
M  V30 1751 C 167.51 0.0412581 1.60747 0
M  V30 1752 O 168.7 0.285545 1.71844 0
M  V30 1753 C 165.832 0.669447 3.34262 0
M  V30 1754 H 167.025 2.05662 2.18273 0
M  V30 1755 H 164.578 1.09885 1.11153 0
M  V30 1756 H 165.313 -0.292572 3.22978 0
M  V30 1757 H 165.098 1.43127 3.65044 0
M  V30 1758 H 166.588 0.568921 4.13706 0
M  V30 1759 N 167.025 -1.13721 1.09112 0
M  V30 1760 C 168.273 -1.84559 0.823562 0
M  V30 1761 C 168.594 -1.83754 -0.652658 0
M  V30 1762 O 167.864 -1.29102 -1.47342 0
M  V30 1763 H 166.444 -0.683376 0.301673 0
M  V30 1764 H 169.106 -1.37771 1.37859 0
M  V30 1765 H 168.202 -2.8917 1.17419 0
M  V30 1766 N 168.503 -0.877838 -1.30888 0
M  V30 1767 C 169.914 -0.544193 -1.78593 0
M  V30 1768 C 170.265 0.939301 -1.72254 0
M  V30 1769 O 169.39 1.7337 -1.29505 0
M  V30 1770 C 169.985 -0.98105 -3.24285 0
M  V30 1771 C 168.544 -0.698935 -3.69854 0
M  V30 1772 C 167.691 -1.168 -2.51502 0
M  V30 1773 H 170.642 -1.06278 -1.17859 0
M  V30 1774 H 170.663 -0.307009 -3.79259 0
M  V30 1775 H 170.175 -2.06079 -3.28866 0
M  V30 1776 H 168.276 0.369112 -3.70767 0
M  V30 1777 H 168.389 -1.28148 -4.61644 0
M  V30 1778 H 166.753 -0.587535 -2.47831 0
M  V30 1779 H 167.536 -2.25533 -2.58824 0
M  V30 1780 N 169.982 1.44106 -0.638065 0
M  V30 1781 C 171.229 2.01978 -0.14533 0
M  V30 1782 C 171.557 1.50234 1.23532 0
M  V30 1783 O 170.812 0.679548 1.83523 0
M  V30 1784 C 171.111 3.5729 -0.0887327 0
M  V30 1785 C 170.777 4.28317 -1.40909 0
M  V30 1786 C 169.439 4.47437 -1.77069 0
M  V30 1787 C 171.791 4.6867 -2.28031 0
M  V30 1788 C 169.119 5.04171 -3.00047 0
M  V30 1789 C 171.471 5.26766 -3.50286 0
M  V30 1790 C 170.135 5.44104 -3.86661 0
M  V30 1791 H 169.405 0.739089 -0.0531801 0
M  V30 1792 H 172.052 1.72781 -0.825761 0
M  V30 1793 H 170.357 3.8594 0.675095 0
M  V30 1794 H 172.054 3.99807 0.309145 0
M  V30 1795 H 168.644 4.1377 -1.1177 0
M  V30 1796 H 172.828 4.53604 -2.01388 0
M  V30 1797 H 168.084 5.15782 -3.28298 0
M  V30 1798 H 172.258 5.56983 -4.18023 0
M  V30 1799 H 169.885 5.87832 -4.82034 0
M  V30 1800 N 171.46 0.379036 1.52974 0
M  V30 1801 C 172.737 -0.263479 1.93817 0
M  V30 1802 C 173.117 -1.65244 1.31368 0
M  V30 1803 O 172.465 -2.23448 0.477856 0
M  V30 1804 C 172.675 -0.300166 3.47707 0
M  V30 1805 C 174.023 -0.534061 4.21228 0
M  V30 1806 O 175.047 -0.38081 3.54159 0
M  V30 1807 O 173.906 -0.833501 5.40106 0
M  V30 1808 H 171 -0.161149 0.811147 0
M  V30 1809 H 173.546 0.432798 1.64088 0
M  V30 1810 H 172.318 0.673138 3.85467 0
M  V30 1811 H 171.941 -1.04179 3.83709 0
M  V30 1812 N 172.938 -1.57226 0.108567 0
M  V30 1813 C 173.848 -2.18292 -0.859401 0
M  V30 1814 C 174.864 -1.15612 -1.30038 0
M  V30 1815 O 176.04 -1.48039 -1.36552 0
M  V30 1816 C 173.105 -2.762 -2.09558 0
M  V30 1817 C 172.166 -3.93881 -1.70752 0
M  V30 1818 C 171.399 -4.49018 -2.88477 0
M  V30 1819 O 171.622 -4.03068 -4.036 0
M  V30 1820 O 170.556 -5.39852 -2.66164 0
M  V30 1821 H 174.382 -3.01441 -0.369769 0
M  V30 1822 H 171.967 -1.48945 -0.1165 0
M  V30 1823 H 173.849 -3.13156 -2.81978 0
M  V30 1824 H 172.524 -1.96089 -2.57548 0
M  V30 1825 H 171.431 -3.61713 -0.954714 0
M  V30 1826 H 172.764 -4.75396 -1.27513 0
M  V30 1827 N 174.416 0.165178 -1.56732 0
M  V30 1828 C 175.663 0.880807 -1.8234 0
M  V30 1829 C 175.991 1.81977 -0.686621 0
M  V30 1830 O 175.246 1.92971 0.325697 0
M  V30 1831 C 175.545 1.70405 -3.1416 0
M  V30 1832 C 175.211 0.913475 -4.4155 0
M  V30 1833 C 173.873 0.695303 -4.7615 0
M  V30 1834 C 176.225 0.359349 -5.1996 0
M  V30 1835 C 173.553 -0.0879947 -5.86634 0
M  V30 1836 C 175.905 -0.410893 -6.31264 0
M  V30 1837 C 174.569 -0.639808 -6.64427 0
M  V30 1838 H 173.839 0.32231 -0.667231 0
M  V30 1839 H 176.486 0.145402 -1.90947 0
M  V30 1840 H 174.791 2.50903 -3.00923 0
M  V30 1841 H 176.488 2.26091 -3.31186 0
M  V30 1842 H 173.078 1.09357 -4.14414 0
M  V30 1843 H 177.262 0.515228 -4.93618 0
M  V30 1844 H 172.518 -0.27503 -6.10781 0
M  V30 1845 H 176.692 -0.847494 -6.91224 0
M  V30 1846 H 174.319 -1.24864 -7.49875 0
M  V30 1847 N 175.894 1.51508 0.433938 0
M  V30 1848 C 176.826 1.69266 1.54537 0
M  V30 1849 C 177.839 0.573276 1.52373 0
M  V30 1850 O 179.028 0.847698 1.57087 0
M  V30 1851 C 176.128 1.69524 2.93453 0
M  V30 1852 C 175.301 2.98101 3.20085 0
M  V30 1853 C 174.36 2.90502 4.38742 0
M  V30 1854 O 173.386 3.64442 4.3723 0
M  V30 1855 N 174.588 2.06586 5.42496 0
M  V30 1856 H 177.353 2.65145 1.39708 0
M  V30 1857 H 174.914 1.49437 0.622922 0
M  V30 1858 H 176.906 1.62004 3.70859 0
M  V30 1859 H 175.476 0.812245 3.01863 0
M  V30 1860 H 174.696 3.19464 2.30947 0
M  V30 1861 H 175.984 3.83207 3.34708 0
M  V30 1862 H 175.382 1.45896 5.46563 0
M  V30 1863 H 173.939 2.04943 6.18742 0
M  V30 1864 N 177.372 -0.689602 1.41712 0
M  V30 1865 C 178.621 -1.44534 1.40686 0
M  V30 1866 C 178.934 -1.95588 0.0213352 0
M  V30 1867 O 180.14 -2.71271 -0.111534 0
M  V30 1868 C 178.596 -2.61387 2.47396 0
M  V30 1869 C 178.204 -2.17094 3.91885 0
M  V30 1870 C 179.948 -3.38986 2.55517 0
M  V30 1871 C 177.855 -3.3094 4.90135 0
M  V30 1872 H 176.785 -0.542925 0.52321 0
M  V30 1873 H 179.436 -0.748054 1.6756 0
M  V30 1874 H 177.818 -3.33412 2.13664 0
M  V30 1875 H 178.992 -1.52318 4.34897 0
M  V30 1876 H 177.307 -1.52473 3.8748 0
M  V30 1877 H 179.904 -4.23747 3.26102 0
M  V30 1878 H 180.247 -3.84578 1.59391 0
M  V30 1879 H 180.78 -2.74021 2.8837 0
M  V30 1880 H 177.519 -2.90355 5.87685 0
M  V30 1881 H 177.039 -3.94546 4.51767 0
M  V30 1882 H 178.718 -3.9663 5.11169 0
M  V30 1883 N 178.85 -1.27639 -0.924453 0
M  V30 1884 C 179.813 -1.10681 -2.00705 0
M  V30 1885 C 180.813 -0.0497823 -1.60723 0
M  V30 1886 O 182.003 -0.294654 -1.7169 0
M  V30 1887 C 179.135 -0.687164 -3.33902 0
M  V30 1888 H 180.328 -2.06817 -2.17179 0
M  V30 1889 H 177.881 -1.10473 -1.10569 0
M  V30 1890 H 178.616 0.275439 -3.23128 0
M  V30 1891 H 178.401 -1.45061 -3.6428 0
M  V30 1892 H 179.891 -0.590853 -4.13399 0
M  V30 1893 N 180.328 1.1314 -1.09713 0
M  V30 1894 C 181.556 1.88321 -0.856898 0
M  V30 1895 C 181.971 1.79276 0.592073 0
M  V30 1896 O 181.328 1.16142 1.40774 0
M  V30 1897 C 181.379 3.37812 -1.28706 0
M  V30 1898 O 181.1 3.46627 -2.67921 0
M  V30 1899 C 182.601 4.29952 -1.07964 0
M  V30 1900 H 179.821 0.596094 -0.308079 0
M  V30 1901 H 182.365 1.43205 -1.45988 0
M  V30 1902 H 180.52 3.805 -0.727912 0
M  V30 1903 H 180.934 4.39579 -2.8613 0
M  V30 1904 H 182.408 5.33159 -1.42986 0
M  V30 1905 H 182.885 4.39196 -0.0176577 0
M  V30 1906 H 183.491 3.93036 -1.62489 0
M  V30 1907 N 181.806 0.884767 1.30421 0
M  V30 1908 C 182.739 0.295999 2.26272 0
M  V30 1909 C 183.717 -0.58332 1.51777 0
M  V30 1910 O 184.901 -0.53346 1.80794 0
M  V30 1911 C 182.028 -0.57944 3.33707 0
M  V30 1912 C 181.074 0.230525 4.25877 0
M  V30 1913 S 181.907 1.61867 5.1045 0
M  V30 1914 C 183.063 0.749756 6.21393 0
M  V30 1915 H 183.296 1.10848 2.75862 0
M  V30 1916 H 180.829 0.684178 1.38414 0
M  V30 1917 H 182.787 -1.07879 3.96071 0
M  V30 1918 H 181.448 -1.36601 2.82841 0
M  V30 1919 H 180.641 -0.437542 5.02097 0
M  V30 1920 H 180.243 0.662493 3.68086 0
M  V30 1921 H 182.535 -0.0333547 6.77492 0
M  V30 1922 H 183.478 1.48356 6.92384 0
M  V30 1923 H 183.886 0.310751 5.63644 0
M  V30 1924 N 183.284 -1.43765 0.645699 0
M  V30 1925 C 184.214 -2.33471 -0.0370477 0
M  V30 1926 C 185.195 -1.49042 -0.819779 0
M  V30 1927 O 186.38 -1.77726 -0.782758 0
M  V30 1928 C 183.51 -3.32311 -1.0093 0
M  V30 1929 C 182.464 -4.2667 -0.337201 0
M  V30 1930 C 181.79 -5.1549 -1.42037 0
M  V30 1931 C 183.09 -5.16657 0.765706 0
M  V30 1932 H 184.784 -2.90809 0.712069 0
M  V30 1933 H 182.33 -1.39834 0.343876 0
M  V30 1934 H 184.283 -3.9396 -1.49578 0
M  V30 1935 H 183.007 -2.73213 -1.78948 0
M  V30 1936 H 181.666 -3.66374 0.128771 0
M  V30 1937 H 181.314 -4.52735 -2.1918 0
M  V30 1938 H 181.014 -5.79438 -0.975966 0
M  V30 1939 H 182.538 -5.80012 -1.90838 0
M  V30 1940 H 183.952 -5.72158 0.361702 0
M  V30 1941 H 182.349 -5.89286 1.13413 0
M  V30 1942 H 183.419 -4.56796 1.62683 0
M  V30 1943 N 184.763 -0.387143 -1.52771 0
M  V30 1944 C 185.71 0.449048 -2.26389 0
M  V30 1945 C 186.68 1.05961 -1.27912 0
M  V30 1946 O 187.865 1.08804 -1.56737 0
M  V30 1947 C 185.005 1.57155 -3.0724 0
M  V30 1948 C 184.118 0.984066 -4.20643 0
M  V30 1949 C 183.253 2.07745 -4.88892 0
M  V30 1950 C 182.292 1.46574 -5.94292 0
M  V30 1951 N 181.429 2.49834 -6.56146 0
M  V30 1952 H 186.269 -0.185205 -2.97424 0
M  V30 1953 H 183.806 -0.103164 -1.46738 0
M  V30 1954 H 185.764 2.23309 -3.52405 0
M  V30 1955 H 184.394 2.17615 -2.38419 0
M  V30 1956 H 183.446 0.212193 -3.79808 0
M  V30 1957 H 184.758 0.497029 -4.96318 0
M  V30 1958 H 183.912 2.81673 -5.3735 0
M  V30 1959 H 182.651 2.59807 -4.12737 0
M  V30 1960 H 181.656 0.711696 -5.45174 0
M  V30 1961 H 182.881 0.953088 -6.72379 0
M  V30 1962 H 180.827 3.0107 -5.82832 0
M  V30 1963 H 180.744 2.05879 -7.27427 0
M  V30 1964 H 182.012 3.23399 -7.09249 0
M  V30 1965 N 186.241 1.57166 -0.116904 0
M  V30 1966 C 187.151 2.18745 0.847812 0
M  V30 1967 C 188.167 1.163 1.29423 0
M  V30 1968 O 189.343 1.48761 1.35765 0
M  V30 1969 C 186.408 2.77307 2.0809 0
M  V30 1970 C 185.469 3.94781 1.68661 0
M  V30 1971 C 184.702 4.50541 2.86091 0
M  V30 1972 O 184.925 4.05202 4.01456 0
M  V30 1973 O 183.859 5.41256 2.63298 0
M  V30 1974 H 187.685 3.01632 0.353778 0
M  V30 1975 H 185.27 1.49005 0.108599 0
M  V30 1976 H 187.152 3.14647 2.80313 0
M  V30 1977 H 185.827 1.97452 2.56504 0
M  V30 1978 H 184.734 3.62214 0.935518 0
M  V30 1979 H 186.067 4.76065 1.24991 0
M  V30 1980 N 187.719 -0.156864 1.56817 0
M  V30 1981 C 188.968 -0.869504 1.81996 0
M  V30 1982 C 189.281 -1.82777 0.696545 0
M  V30 1983 O 190.487 -2.58384 0.833658 0
M  V30 1984 C 188.943 -1.59679 3.22538 0
M  V30 1985 C 188.551 -0.681431 4.42787 0
M  V30 1986 C 190.295 -2.2968 3.56997 0
M  V30 1987 C 188.202 -1.40978 5.74351 0
M  V30 1988 H 187.132 -0.328438 0.678708 0
M  V30 1989 H 189.783 -0.1223 1.83092 0
M  V30 1990 H 188.165 -2.38927 3.158 0
M  V30 1991 H 189.339 0.0751166 4.60739 0
M  V30 1992 H 187.654 -0.0903431 4.16302 0
M  V30 1993 H 190.251 -2.84794 4.52544 0
M  V30 1994 H 190.594 -3.05707 2.82576 0
M  V30 1995 H 191.127 -1.57361 3.65352 0
M  V30 1996 H 187.866 -0.691561 6.51842 0
M  V30 1997 H 187.386 -2.13929 5.60352 0
M  V30 1998 H 189.065 -1.95337 6.16808 0
M  V30 1999 N 189.197 -1.51736 -0.425897 0
M  V30 2000 C 190.127 -1.76827 -1.52494 0
M  V30 2001 C 191.108 -0.618524 -1.58456 0
M  V30 2002 O 192.293 -0.862416 -1.74 0
M  V30 2003 C 189.423 -1.90374 -2.90474 0
M  V30 2004 C 188.377 -3.0588 -2.99369 0
M  V30 2005 C 187.703 -3.04625 -4.3944 0
M  V30 2006 C 189.003 -4.45644 -2.72394 0
M  V30 2007 H 190.697 -2.68855 -1.31748 0
M  V30 2008 H 188.243 -1.29372 -0.632362 0
M  V30 2009 H 190.196 -2.0651 -3.6733 0
M  V30 2010 H 188.92 -0.95004 -3.12477 0
M  V30 2011 H 187.579 -2.89467 -2.24954 0
M  V30 2012 H 187.227 -2.0701 -4.58428 0
M  V30 2013 H 186.927 -3.82195 -4.46319 0
M  V30 2014 H 188.451 -3.22869 -5.18255 0
M  V30 2015 H 189.865 -4.62348 -3.38979 0
M  V30 2016 H 188.262 -5.25006 -2.9067 0
M  V30 2017 H 189.332 -4.54893 -1.67929 0
M  V30 2018 N 190.675 0.682077 -1.42076 0
M  V30 2019 C 191.622 1.79578 -1.44984 0
M  V30 2020 C 192.592 1.6332 -0.302614 0
M  V30 2021 O 193.777 1.83978 -0.505633 0
M  V30 2022 C 190.917 3.1756 -1.35091 0
M  V30 2023 C 190.03 3.45156 -2.59791 0
M  V30 2024 C 189.165 4.72826 -2.42093 0
M  V30 2025 C 188.204 4.93433 -3.62202 0
M  V30 2026 N 187.341 6.12338 -3.43491 0
M  V30 2027 H 192.181 1.76427 -2.40161 0
M  V30 2028 H 189.718 0.861376 -1.19242 0
M  V30 2029 H 191.676 3.97287 -1.27354 0
M  V30 2030 H 190.306 3.19854 -0.435133 0
M  V30 2031 H 189.358 2.59736 -2.77923 0
M  V30 2032 H 190.67 3.5628 -3.49094 0
M  V30 2033 H 189.824 5.60631 -2.319 0
M  V30 2034 H 188.563 4.63973 -1.50268 0
M  V30 2035 H 187.568 4.04073 -3.72834 0
M  V30 2036 H 188.793 5.04136 -4.54998 0
M  V30 2037 H 186.739 6.04672 -2.54377 0
M  V30 2038 H 186.656 6.2429 -4.26377 0
M  V30 2039 H 187.924 7.02841 -3.37097 0
M  V30 2040 N 192.153 1.28127 0.917671 0
M  V30 2041 C 193.401 1.14825 1.66312 0
M  V30 2042 C 193.722 -0.304379 1.9261 0
M  V30 2043 O 192.992 -1.21149 1.53947 0
M  V30 2044 H 191.572 0.421953 0.616413 0
M  V30 2045 H 194.234 1.608 1.10134 0
M  V30 2046 H 193.33 1.68489 2.62712 0
M  V30 2047 N 193.631 -1.12557 1.10312 0
M  V30 2048 C 194.561 -2.20341 0.772798 0
M  V30 2049 C 195.542 -1.68198 -0.25365 0
M  V30 2050 O 196.727 -1.93831 -0.119699 0
M  V30 2051 C 193.857 -3.46709 0.202443 0
M  V30 2052 C 192.811 -4.11996 1.15943 0
M  V30 2053 C 192.137 -5.328 0.450345 0
M  V30 2054 C 193.437 -4.5828 2.50552 0
M  V30 2055 H 195.131 -2.48229 1.674 0
M  V30 2056 H 192.677 -1.19308 0.806326 0
M  V30 2057 H 194.63 -4.2138 -0.0407752 0
M  V30 2058 H 193.354 -3.18245 -0.734001 0
M  V30 2059 H 192.013 -3.39305 1.38808 0
M  V30 2060 H 191.661 -5.00602 -0.490531 0
M  V30 2061 H 191.361 -5.7743 1.08851 0
M  V30 2062 H 192.885 -6.10219 0.215642 0
M  V30 2063 H 194.299 -5.2433 2.31843 0
M  V30 2064 H 192.696 -5.13683 3.10242 0
M  V30 2065 H 193.766 -3.72329 3.10643 0
M  V30 2066 N 195.109 -0.891671 -1.2995 0
M  V30 2067 C 196.386 -0.433307 -1.9074 0
M  V30 2068 C 196.766 1.08646 -1.80995 0
M  V30 2069 O 196.114 1.92476 -1.23147 0
M  V30 2070 C 196.324 -0.938895 -3.36134 0
M  V30 2071 C 197.672 -0.977829 -4.13187 0
M  V30 2072 O 198.696 -0.886015 -3.45005 0
M  V30 2073 O 197.555 -1.11453 -5.35015 0
M  V30 2074 H 194.649 -0.133699 -0.816121 0
M  V30 2075 H 197.195 -0.981011 -1.38471 0
M  V30 2076 H 195.967 -1.98281 -3.37343 0
M  V30 2077 H 195.59 -0.37074 -3.95868 0
M  V30 2078 N 196.587 1.43421 -0.653314 0
M  V30 2079 C 197.817 2.05864 -0.174238 0
M  V30 2080 C 198.225 1.49052 1.16534 0
M  V30 2081 O 197.568 0.616481 1.73047 0
M  V30 2082 C 197.63 3.59499 -0.00875873 0
M  V30 2083 C 197.294 4.38893 -1.27364 0
M  V30 2084 C 198.291 4.70947 -2.20239 0
M  V30 2085 C 195.976 4.789 -1.51525 0
M  V30 2086 C 197.97 5.41916 -3.35568 0
M  V30 2087 C 195.657 5.49614 -2.67147 0
M  V30 2088 C 196.655 5.81044 -3.58994 0
M  V30 2089 O 196.343 6.50313 -4.72597 0
M  V30 2090 H 196.075 0.670345 -0.0872549 0
M  V30 2091 H 198.629 1.84913 -0.894226 0
M  V30 2092 H 196.859 3.79025 0.7666 0
M  V30 2093 H 198.548 4.0364 0.427687 0
M  V30 2094 H 199.314 4.40558 -2.02815 0
M  V30 2095 H 195.193 4.53843 -0.809158 0
M  V30 2096 H 198.737 5.66365 -4.07279 0
M  V30 2097 H 194.634 5.79419 -2.84505 0
M  V30 2098 H 195.402 6.68795 -4.71864 0
M  V30 2099 N 198.065 0.39524 1.52563 0
M  V30 2100 C 198.995 -0.428384 2.29537 0
M  V30 2101 C 199.976 -1.05831 1.33169 0
M  V30 2102 O 201.161 -1.06995 1.62067 0
M  V30 2103 C 198.291 -1.55274 3.10656 0
M  V30 2104 C 197.245 -1.04855 4.14957 0
M  V30 2105 C 196.571 -2.26543 4.84337 0
M  V30 2106 C 197.871 -0.112324 5.22179 0
M  V30 2107 H 199.565 0.213867 2.98635 0
M  V30 2108 H 197.111 0.104298 1.43622 0
M  V30 2109 H 199.064 -2.1358 3.63265 0
M  V30 2110 H 197.788 -2.22266 2.39302 0
M  V30 2111 H 196.447 -0.487985 3.63338 0
M  V30 2112 H 196.095 -2.92059 4.09525 0
M  V30 2113 H 195.795 -1.93466 5.54837 0
M  V30 2114 H 197.319 -2.85481 5.39753 0
M  V30 2115 H 198.733 -0.603752 5.70112 0
M  V30 2116 H 197.13 0.128968 5.99961 0
M  V30 2117 H 198.2 0.837052 4.77621 0
M  V30 2118 N 199.544 -1.57102 0.125237 0
M  V30 2119 C 200.494 -2.12202 -0.833936 0
M  V30 2120 C 201.478 -1.04433 -1.22403 0
M  V30 2121 O 202.67 -1.30655 -1.19408 0
M  V30 2122 C 199.799 -2.72994 -2.08157 0
M  V30 2123 C 198.885 -3.87852 -1.71556 0
M  V30 2124 N 199.276 -4.9464 -1.05662 0
M  V30 2125 C 197.574 -3.98153 -2.00973 0
M  V30 2126 C 198.275 -5.74953 -0.883376 0
M  V30 2127 N 197.251 -5.24985 -1.41036 0
M  V30 2128 H 201.053 -2.92141 -0.321035 0
M  V30 2129 H 198.567 -1.62217 -0.0770315 0
M  V30 2130 H 200.564 -3.10816 -2.77847 0
M  V30 2131 H 199.224 -1.9452 -2.59985 0
M  V30 2132 H 200.235 -5.12872 -0.719878 0
M  V30 2133 H 196.912 -3.30728 -2.54804 0
M  V30 2134 H 198.302 -6.70904 -0.365675 0
M  V30 2135 N 201.022 0.148545 -1.56898 0
M  V30 2136 C 202.247 0.880385 -1.87787 0
M  V30 2137 C 202.672 1.74018 -0.714093 0
M  V30 2138 O 202.03 1.78153 0.336343 0
M  V30 2139 C 202.078 1.71422 -3.17249 0
M  V30 2140 O 201.182 2.8183 -3.01074 0
M  V30 2141 H 200.523 0.245301 -0.617028 0
M  V30 2142 H 203.053 0.139826 -2.04122 0
M  V30 2143 H 203.063 2.10954 -3.49231 0
M  V30 2144 H 201.738 1.08284 -4.01556 0
M  V30 2145 H 200.315 2.45715 -2.80497 0
M  V30 2146 N 202.5 1.5196 0.417844 0
M  V30 2147 C 203.41 1.77554 1.53336 0
M  V30 2148 C 204.426 0.660655 1.6097 0
M  V30 2149 O 205.602 0.945099 1.77848 0
M  V30 2150 C 202.667 1.91291 2.89152 0
M  V30 2151 C 201.728 3.15183 2.91475 0
M  V30 2152 C 200.961 3.28256 4.20813 0
M  V30 2153 O 201.184 2.46798 5.14244 0
M  V30 2154 O 200.118 4.21356 4.29817 0
M  V30 2155 H 203.944 2.7222 1.34647 0
M  V30 2156 H 201.529 1.36698 0.602828 0
M  V30 2157 H 203.411 2.02199 3.69721 0
M  V30 2158 H 202.086 0.998129 3.07927 0
M  V30 2159 H 200.993 3.09739 2.09791 0
M  V30 2160 H 202.326 4.06414 2.77648 0
M  V30 2161 N 203.978 -0.674533 1.42435 0
M  V30 2162 C 204.925 -1.78807 1.45934 0
M  V30 2163 C 205.895 -1.63157 0.311271 0
M  V30 2164 O 207.08 -1.83707 0.515383 0
M  V30 2165 C 204.22 -3.16839 1.36773 0
M  V30 2166 C 203.333 -3.43774 2.61617 0
M  V30 2167 C 202.468 -4.71536 2.44597 0
M  V30 2168 C 201.507 -4.91505 3.64814 0
M  V30 2169 N 200.644 -6.10508 3.46734 0
M  V30 2170 H 205.484 -1.75151 2.41093 0
M  V30 2171 H 203.021 -0.85504 1.19697 0
M  V30 2172 H 204.979 -3.96606 1.29459 0
M  V30 2173 H 203.609 -3.19619 0.452089 0
M  V30 2174 H 202.661 -2.58259 2.79297 0
M  V30 2175 H 203.973 -3.54423 3.50978 0
M  V30 2176 H 203.127 -5.59393 2.3487 0
M  V30 2177 H 201.866 -4.6317 1.52726 0
M  V30 2178 H 200.871 -4.0209 3.74972 0
M  V30 2179 H 202.096 -5.01716 4.57665 0
M  V30 2180 H 200.042 -6.03315 2.5758 0
M  V30 2181 H 199.959 -6.2202 4.29682 0
M  V30 2182 H 201.227 -7.01044 3.40819 0
M  V30 2183 N 205.456 -1.28612 -0.910864 0
M  V30 2184 C 206.403 -1.12786 -2.01365 0
M  V30 2185 C 207.373 -0.024201 -1.66082 0
M  V30 2186 O 208.558 -0.189667 -1.89855 0
M  V30 2187 C 205.698 -0.798743 -3.35729 0
M  V30 2188 C 204.811 -1.98173 -3.83864 0
M  V30 2189 C 203.946 -1.59298 -5.06752 0
M  V30 2190 C 202.985 -2.74245 -5.47226 0
M  V30 2191 N 202.122 -2.35842 -6.61304 0
M  V30 2192 H 206.962 -2.07142 -2.14234 0
M  V30 2193 H 204.499 -1.03093 -1.0493 0
M  V30 2194 H 206.457 -0.588662 -4.13026 0
M  V30 2195 H 205.087 0.10789 -3.2262 0
M  V30 2196 H 204.139 -2.30386 -3.02699 0
M  V30 2197 H 205.451 -2.84343 -4.09818 0
M  V30 2198 H 204.605 -1.34513 -5.916 0
M  V30 2199 H 203.344 -0.702618 -4.82612 0
M  V30 2200 H 202.349 -2.99725 -4.60918 0
M  V30 2201 H 203.574 -3.63928 -5.73353 0
M  V30 2202 H 201.52 -1.49279 -6.38789 0
M  V30 2203 H 201.437 -3.15546 -6.86998 0
M  V30 2204 H 202.705 -2.14348 -7.4945 0
M  V30 2205 N 206.934 1.1197 -1.10907 0
M  V30 2206 C 208.183 1.82947 -0.849302 0
M  V30 2207 C 208.496 1.85275 0.627112 0
M  V30 2208 O 209.702 2.52296 1.00295 0
M  V30 2209 C 208.158 3.28529 -1.46959 0
M  V30 2210 C 207.766 3.34546 -2.97965 0
M  V30 2211 C 209.51 4.04443 -1.28942 0
M  V30 2212 C 207.417 4.74491 -3.53004 0
M  V30 2213 H 206.347 0.685477 -0.314065 0
M  V30 2214 H 208.998 1.2604 -1.33365 0
M  V30 2215 H 207.38 3.85333 -0.912917 0
M  V30 2216 H 208.554 2.87654 -3.59989 0
M  V30 2217 H 206.869 2.72108 -3.15192 0
M  V30 2218 H 209.466 5.07787 -1.67502 0
M  V30 2219 H 209.809 4.15656 -0.231456 0
M  V30 2220 H 210.342 3.5401 -1.81443 0
M  V30 2221 H 207.081 4.68474 -4.58489 0
M  V30 2222 H 206.601 5.21816 -2.9575 0
M  V30 2223 H 208.28 5.4344 -3.51115 0
M  V30 2224 N 208.412 0.89855 1.29475 0
M  V30 2225 C 209.362 0.346767 2.25348 0
M  V30 2226 C 210.346 -0.532509 1.51833 0
M  V30 2227 O 211.538 -0.374714 1.72988 0
M  V30 2228 C 208.667 -0.425681 3.40651 0
M  V30 2229 C 207.753 0.46845 4.21505 0
M  V30 2230 N 208.144 1.57514 4.80648 0
M  V30 2231 C 206.442 0.26603 4.45206 0
M  V30 2232 C 207.143 2.12889 5.41344 0
M  V30 2233 N 206.119 1.42208 5.24669 0
M  V30 2234 H 209.921 1.19219 2.68634 0
M  V30 2235 H 207.435 0.749473 1.44072 0
M  V30 2236 H 209.432 -0.837716 4.08397 0
M  V30 2237 H 208.092 -1.26838 2.98902 0
M  V30 2238 H 209.103 1.95789 4.79465 0
M  V30 2239 H 205.78 -0.538394 4.14014 0
M  V30 2240 H 207.17 3.05901 5.98226 0
M  V30 2241 N 209.89 -1.43072 0.660911 0
M  V30 2242 C 211.306 -1.56169 0.329173 0
M  V30 2243 C 211.506 -1.64317 -1.16629 0
M  V30 2244 O 210.562 -1.60245 -1.95135 0
M  V30 2245 C 211.875 -2.81873 1.04729 0
M  V30 2246 C 213.423 -2.95627 1.02828 0
M  V30 2247 C 213.898 -4.24174 1.72744 0
M  V30 2248 N 215.389 -4.31055 1.69545 0
M  V30 2249 C 216.124 -5.29304 2.20511 0
M  V30 2250 N 215.62 -6.33786 2.79799 0
M  V30 2251 N 217.413 -5.21008 2.10966 0
M  V30 2252 H 209.564 -1.36027 1.63127 0
M  V30 2253 H 211.827 -0.653823 0.686454 0
M  V30 2254 H 211.533 -2.81942 2.10242 0
M  V30 2255 H 211.407 -3.72338 0.603702 0
M  V30 2256 H 213.794 -2.95094 -0.0184742 0
M  V30 2257 H 213.875 -2.06431 1.51063 0
M  V30 2258 H 213.519 -4.25467 2.7738 0
M  V30 2259 H 213.449 -5.1228 1.2197 0
M  V30 2260 H 215.94 -3.56174 1.26288 0
M  V30 2261 H 216.253 -7.05086 3.16344 0
M  V30 2262 H 214.598 -6.34387 2.83863 0
M  V30 2263 H 217.789 -4.38301 1.64347 0
M  V30 2264 H 217.962 -5.97416 2.50993 0
M  V30 2265 N 211.368 -0.403325 -1.52352 0
M  V30 2266 C 212.645 0.232611 -1.94212 0
M  V30 2267 C 213.025 1.63133 -1.33981 0
M  V30 2268 O 212.373 2.22659 -0.513344 0
M  V30 2269 C 212.583 0.244811 -3.4814 0
M  V30 2270 C 213.931 0.46698 -4.22024 0
M  V30 2271 O 214.955 0.324419 -3.5472 0
M  V30 2272 O 213.814 0.74747 -5.41364 0
M  V30 2273 H 210.908 0.148223 -0.813609 0
M  V30 2274 H 213.454 -0.458848 -1.63379 0
M  V30 2275 H 212.226 -0.734378 -3.84347 0
M  V30 2276 H 211.849 0.980611 -3.85318 0
M  V30 2277 N 212.846 1.57033 -0.133567 0
M  V30 2278 C 214.095 1.94861 0.520768 0
M  V30 2279 C 214.408 1.02012 1.66892 0
M  V30 2280 O 215.614 1.29365 2.38699 0
M  V30 2281 C 214.07 3.46362 0.977809 0
M  V30 2282 C 213.678 4.47773 -0.142674 0
M  V30 2283 C 215.422 3.93083 1.60269 0
M  V30 2284 C 213.329 5.90468 0.331883 0
M  V30 2285 H 212.259 0.727453 0.198315 0
M  V30 2286 H 214.91 1.82227 -0.215759 0
M  V30 2287 H 213.292 3.54282 1.7692 0
M  V30 2288 H 214.466 4.51536 -0.919317 0
M  V30 2289 H 212.781 4.10891 -0.675124 0
M  V30 2290 H 215.378 4.97121 1.96914 0
M  V30 2291 H 215.721 3.33876 2.48662 0
M  V30 2292 H 216.254 3.88025 0.876453 0
M  V30 2293 H 212.993 6.53463 -0.516341 0
M  V30 2294 H 212.513 5.90094 1.07469 0
M  V30 2295 H 214.192 6.42179 0.788332 0
M  V30 2296 N 214.325 -0.140222 1.56975 0
M  V30 2297 C 215.272 -1.17292 1.98774 0
M  V30 2298 C 216.242 -1.4232 0.856408 0
M  V30 2299 O 217.427 -1.54541 1.119 0
M  V30 2300 C 214.567 -2.49973 2.37923 0
M  V30 2301 C 213.68 -2.32062 3.64378 0
M  V30 2302 C 212.815 -3.57825 3.926 0
M  V30 2303 C 211.854 -3.3498 5.12303 0
M  V30 2304 N 210.991 -4.52891 5.36502 0
M  V30 2305 H 215.831 -0.809472 2.86795 0
M  V30 2306 H 213.368 -0.388237 1.41884 0
M  V30 2307 H 215.326 -3.27346 2.58652 0
M  V30 2308 H 213.956 -2.84252 1.52972 0
M  V30 2309 H 213.008 -1.45711 3.51387 0
M  V30 2310 H 214.32 -2.11145 4.51906 0
M  V30 2311 H 213.474 -4.43624 4.13863 0
M  V30 2312 H 212.213 -3.81753 3.03506 0
M  V30 2313 H 211.218 -2.4757 4.90906 0
M  V30 2314 H 212.443 -3.12444 6.02956 0
M  V30 2315 H 210.389 -4.76979 4.50363 0
M  V30 2316 H 210.306 -4.35001 6.18312 0
M  V30 2317 H 211.574 -5.39884 5.62268 0
M  V30 2318 N 215.803 -1.52179 -0.40978 0
M  V30 2319 C 216.766 -1.74853 -1.48186 0
M  V30 2320 C 217.766 -0.618417 -1.48433 0
M  V30 2321 O 218.956 -0.886286 -1.49969 0
M  V30 2322 C 216.088 -1.8303 -2.87598 0
M  V30 2323 H 217.281 -2.70559 -1.29374 0
M  V30 2324 H 214.834 -1.42586 -0.640233 0
M  V30 2325 H 215.569 -0.89236 -3.11781 0
M  V30 2326 H 215.354 -2.65187 -2.88822 0
M  V30 2327 H 216.844 -2.02316 -3.65319 0
M  V30 2328 N 217.281 0.66697 -1.42791 0
M  V30 2329 C 218.244 1.76211 -1.46568 0
M  V30 2330 C 219.244 1.56896 -0.352196 0
M  V30 2331 O 220.434 1.63044 -0.613364 0
M  V30 2332 C 217.566 3.14935 -1.30494 0
M  V30 2333 H 218.759 1.74247 -2.44086 0
M  V30 2334 H 216.312 0.877342 -1.29354 0
M  V30 2335 H 217.047 3.2252 -0.339301 0
M  V30 2336 H 216.832 3.30359 -2.11199 0
M  V30 2337 H 218.322 3.94821 -1.36038 0
M  V30 2338 N 218.759 1.29093 0.90403 0
M  V30 2339 C 219.707 1.13727 2.02901 0
M  V30 2340 C 220.701 0.0539853 1.69314 0
M  V30 2341 O 221.907 0.213469 1.7873 0
M  V30 2342 H 218.282 0.35117 0.664969 0
M  V30 2343 H 220.253 2.08982 2.13001 0
M  V30 2344 C 219.002 0.826066 3.37745 0
M  V30 2345 H 218.325 1.65164 3.64089 0
M  V30 2346 H 219.765 0.758559 4.17159 0
M  V30 2347 C 218.224 -0.470541 3.33598 0
M  V30 2348 O 218.754 -1.49792 3.72727 0
M  V30 2349 N 216.96 -0.474812 2.86695 0
M  V30 2350 H 216.507 0.361692 2.55048 0
M  V30 2351 H 216.465 -1.34236 2.84303 0
M  V30 2352 N 220.237 -1.11381 1.11499 0
M  V30 2353 C 221.483 -1.83403 0.865512 0
M  V30 2354 C 221.816 -1.84459 -0.607329 0
M  V30 2355 O 221.091 -1.29811 -1.44842 0
M  V30 2356 C 221.374 -3.30552 1.42855 0
M  V30 2357 C 221.227 -3.37886 2.96906 0
M  V30 2358 C 222.546 -4.26643 1.08 0
M  V30 2359 H 219.665 -0.665879 0.31587 0
M  V30 2360 H 222.307 -1.30601 1.37998 0
M  V30 2361 H 220.457 -3.75648 0.990985 0
M  V30 2362 H 222.129 -3.01343 3.49271 0
M  V30 2363 H 220.372 -2.78088 3.32941 0
M  V30 2364 H 221.043 -4.41458 3.31389 0
M  V30 2365 H 223.519 -3.89729 1.45775 0
M  V30 2366 H 222.395 -5.27986 1.50072 0
M  V30 2367 H 222.656 -4.42099 -0.00915037 0
M  V30 2368 N 221.715 -0.905404 -1.28997 0
M  V30 2369 C 222.645 -0.404212 -2.29975 0
M  V30 2370 C 223.626 0.523784 -1.61835 0
M  V30 2371 O 224.811 0.433298 -1.89304 0
M  V30 2372 C 221.941 0.364042 -3.45387 0
M  V30 2373 C 220.895 -0.474048 -4.25367 0
M  V30 2374 C 220.221 0.422045 -5.33032 0
M  V30 2375 C 221.521 -1.72696 -4.92923 0
M  V30 2376 H 223.215 -1.24807 -2.72146 0
M  V30 2377 H 220.761 -0.601585 -1.30832 0
M  V30 2378 H 222.714 0.725447 -4.15109 0
M  V30 2379 H 221.438 1.24174 -3.02074 0
M  V30 2380 H 220.097 -0.81786 -3.57361 0
M  V30 2381 H 219.745 1.29804 -4.85963 0
M  V30 2382 H 219.445 -0.135057 -5.87445 0
M  V30 2383 H 220.969 0.779517 -6.05604 0
M  V30 2384 H 222.383 -1.43495 -5.55051 0
M  V30 2385 H 220.78 -2.22582 -5.57295 0
M  V30 2386 H 221.85 -2.45964 -4.17887 0
M  V30 2387 N 223.193 1.4272 -0.668489 0
M  V30 2388 C 224.123 2.335 -0.000100175 0
M  V30 2389 C 225.104 1.50328 0.795964 0
M  V30 2390 O 226.289 1.78949 0.754385 0
M  V30 2391 C 223.419 3.33874 0.956302 0
M  V30 2392 C 222.373 4.27152 0.269278 0
M  V30 2393 C 221.699 5.17684 1.33818 0
M  V30 2394 C 222.999 5.15373 -0.847805 0
M  V30 2395 H 224.693 2.89639 -0.758244 0
M  V30 2396 H 222.239 1.39269 -0.366079 0
M  V30 2397 H 224.192 3.9629 1.43292 0
M  V30 2398 H 222.916 2.76025 1.74579 0
M  V30 2399 H 221.575 3.66123 -0.187042 0
M  V30 2400 H 221.223 4.56165 2.1195 0
M  V30 2401 H 220.923 5.80918 0.883659 0
M  V30 2402 H 222.447 5.82974 1.81586 0
M  V30 2403 H 223.861 5.7151 -0.452681 0
M  V30 2404 H 222.258 5.87407 -1.22773 0
M  V30 2405 H 223.328 4.5415 -1.69929 0
M  V30 2406 N 224.671 0.411399 1.52136 0
M  V30 2407 C 225.896 -0.165538 2.06738 0
M  V30 2408 C 226.321 -1.379 1.27926 0
M  V30 2409 O 225.679 -1.78628 0.310114 0
M  V30 2410 C 225.727 -0.492124 3.57226 0
M  V30 2411 O 224.831 -1.58276 3.80818 0
M  V30 2412 H 224.172 -0.0132132 0.663869 0
M  V30 2413 H 226.702 0.585253 1.96051 0
M  V30 2414 H 226.712 -0.750104 4.01045 0
M  V30 2415 H 225.387 0.394922 4.14021 0
M  V30 2416 H 223.964 -1.31677 3.48877 0
M  V30 2417 N 226.149 -1.5696 0.141893 0
M  V30 2418 C 227.059 -2.20066 -0.812905 0
M  V30 2419 C 228.075 -1.18344 -1.27557 0
M  V30 2420 O 229.251 -1.50902 -1.33381 0
M  V30 2421 C 226.316 -2.80583 -2.03652 0
M  V30 2422 C 225.377 -3.97414 -1.62359 0
M  V30 2423 C 224.61 -4.55036 -2.78887 0
M  V30 2424 O 224.833 -4.11538 -3.94959 0
M  V30 2425 O 223.767 -5.45376 -2.54653 0
M  V30 2426 H 227.593 -3.02157 -0.305746 0
M  V30 2427 H 225.178 -1.49159 -0.0848799 0
M  V30 2428 H 227.06 -3.19067 -2.75272 0
M  V30 2429 H 225.735 -2.01508 -2.5333 0
M  V30 2430 H 224.642 -3.63656 -0.877775 0
M  V30 2431 H 225.975 -4.77994 -1.17401 0
M  V30 2432 N 227.627 0.131896 -1.57047 0
M  V30 2433 C 228.559 1.1878 -1.9602 0
M  V30 2434 C 229.572 1.38363 -0.857875 0
M  V30 2435 O 230.761 1.37666 -1.13623 0
M  V30 2436 C 227.861 2.55008 -2.23213 0
M  V30 2437 C 227.034 2.56201 -3.54513 0
M  V30 2438 C 226.093 3.7408 -3.70069 0
M  V30 2439 O 225.119 3.58258 -4.42312 0
M  V30 2440 N 226.321 4.92137 -3.07866 0
M  V30 2441 H 229.086 0.85639 -2.87204 0
M  V30 2442 H 226.647 0.321309 -1.5868 0
M  V30 2443 H 228.639 3.32404 -2.30846 0
M  V30 2444 H 227.209 2.80382 -1.3822 0
M  V30 2445 H 226.429 1.64613 -3.58185 0
M  V30 2446 H 227.717 2.54043 -4.4084 0
M  V30 2447 H 227.115 5.07895 -2.49116 0
M  V30 2448 H 225.672 5.67254 -3.21039 0
M  V30 2449 N 229.106 1.52395 0.401703 0
M  V30 2450 C 230.354 1.66488 1.14569 0
M  V30 2451 C 230.675 0.400897 1.90835 0
M  V30 2452 O 229.945 -0.584415 1.8698 0
M  V30 2453 H 228.525 0.613672 0.425929 0
M  V30 2454 H 231.187 1.89464 0.457093 0
M  V30 2455 H 230.283 2.50942 1.85566 0
M  V30 2456 N 230.584 -0.659388 1.43143 0
M  V30 2457 C 231.861 -1.41627 1.34912 0
M  V30 2458 C 232.241 -2.11099 -0.00607785 0
M  V30 2459 O 231.589 -2.04353 -1.02236 0
M  V30 2460 C 231.799 -2.40604 2.52805 0
M  V30 2461 C 233.147 -3.04789 2.95616 0
M  V30 2462 O 234.171 -2.50932 2.52807 0
M  V30 2463 O 233.03 -4.02421 3.69756 0
M  V30 2464 H 230.124 -0.63246 0.532844 0
M  V30 2465 H 232.67 -0.686814 1.5518 0
M  V30 2466 H 231.442 -1.88174 3.43083 0
M  V30 2467 H 231.065 -3.21009 2.34604 0
M  V30 2468 N 232.062 -1.29571 -0.897171 0
M  V30 2469 C 233.308 -1.17863 -1.65034 0
M  V30 2470 C 233.641 0.268729 -1.92332 0
M  V30 2471 O 232.916 1.19378 -1.53555 0
M  V30 2472 C 233.199 -1.995 -2.99786 0
M  V30 2473 C 233.052 -3.5239 -2.79538 0
M  V30 2474 C 234.371 -1.82335 -4.00552 0
M  V30 2475 H 231.49 -0.429528 -0.598895 0
M  V30 2476 H 234.132 -1.59072 -1.03905 0
M  V30 2477 H 232.282 -1.64485 -3.51962 0
M  V30 2478 H 233.954 -3.97401 -2.34244 0
M  V30 2479 H 232.197 -3.77187 -2.14273 0
M  V30 2480 H 232.868 -4.04787 -3.75302 0
M  V30 2481 H 235.344 -2.12924 -3.57495 0
M  V30 2482 H 234.22 -2.41801 -4.92771 0
M  V30 2483 H 234.481 -0.779209 -4.35179 0
M  V30 2484 N 233.54 1.10788 -1.12088 0
M  V30 2485 C 234.487 2.17025 -0.785407 0
M  V30 2486 C 235.457 1.64265 0.246191 0
M  V30 2487 O 236.642 1.90412 0.121584 0
M  V30 2488 C 233.782 3.44249 -0.242177 0
M  V30 2489 C 232.895 4.1098 -1.33115 0
M  V30 2490 C 232.03 5.25911 -0.747741 0
M  V30 2491 C 231.069 5.84538 -1.81609 0
M  V30 2492 N 230.206 6.90853 -1.25167 0
M  V30 2493 H 235.046 2.45066 -1.69548 0
M  V30 2494 H 232.583 1.20297 -0.846582 0
M  V30 2495 H 234.541 4.17101 0.0908026 0
M  V30 2496 H 233.171 3.16571 0.631072 0
M  V30 2497 H 232.223 3.36133 -1.78097 0
M  V30 2498 H 233.535 4.50601 -2.13917 0
M  V30 2499 H 232.689 6.056 -0.365216 0
M  V30 2500 H 231.428 4.87614 0.0915188 0
M  V30 2501 H 230.433 5.03522 -2.20785 0
M  V30 2502 H 231.658 6.249 -2.6585 0
M  V30 2503 H 229.604 6.54562 -0.434174 0
M  V30 2504 H 229.521 7.29166 -1.99633 0
M  V30 2505 H 230.789 7.7433 -0.896259 0
M  V30 2506 N 235.018 0.912232 1.28515 0
M  V30 2507 C 235.948 0.416403 2.29757 0
M  V30 2508 C 236.929 -0.515194 1.6211 0
M  V30 2509 O 238.114 -0.423253 1.89532 0
M  V30 2510 C 235.244 -0.34572 3.45575 0
M  V30 2511 C 234.198 0.496599 4.25109 0
M  V30 2512 C 233.524 -0.393771 5.33248 0
M  V30 2513 C 234.824 1.75307 4.92001 0
M  V30 2514 H 236.518 1.26249 2.7148 0
M  V30 2515 H 234.064 0.608515 1.30511 0
M  V30 2516 H 236.017 -0.703422 4.15488 0
M  V30 2517 H 234.741 -1.2257 3.02728 0
M  V30 2518 H 233.4 0.8368 3.56922 0
M  V30 2519 H 233.048 -1.27225 4.86644 0
M  V30 2520 H 232.748 0.166209 5.87365 0
M  V30 2521 H 234.272 -0.747389 6.06009 0
M  V30 2522 H 235.686 1.46437 5.54283 0
M  V30 2523 H 234.083 2.25534 5.56106 0
M  V30 2524 H 235.153 2.48176 4.16577 0
M  V30 2525 N 236.496 -1.42363 0.676048 0
M  V30 2526 C 237.459 -2.29199 0.00766941 0
M  V30 2527 C 238.459 -1.43389 -0.727745 0
M  V30 2528 O 239.649 -1.64764 -0.56556 0
M  V30 2529 C 236.781 -3.2591 -0.999785 0
M  V30 2530 H 237.974 -2.89794 0.771988 0
M  V30 2531 H 235.527 -1.50024 0.438468 0
M  V30 2532 H 236.262 -2.70256 -1.79255 0
M  V30 2533 H 236.047 -3.89202 -0.475829 0
M  V30 2534 H 237.537 -3.91028 -1.46583 0
M  V30 2535 N 237.974 -0.419461 -1.51915 0
M  V30 2536 C 239.251 0.211999 -1.94448 0
M  V30 2537 C 239.631 1.61703 -1.35703 0
M  V30 2538 O 238.979 2.22102 -0.536931 0
M  V30 2539 C 239.189 0.207872 -3.4838 0
M  V30 2540 C 240.537 0.422192 -4.22496 0
M  V30 2541 O 241.561 0.286778 -3.55044 0
M  V30 2542 O 240.42 0.690009 -5.42126 0
M  V30 2543 H 237.514 0.139586 -0.815135 0
M  V30 2544 H 240.06 -0.476151 -1.62883 0
M  V30 2545 H 238.832 -0.775102 -3.83546 0
M  V30 2546 H 238.455 0.939688 -3.86336 0
M  V30 2547 N 239.452 1.56882 -0.150215 0
M  V30 2548 C 240.699 1.96228 0.500093 0
M  V30 2549 C 241.027 1.03522 1.64661 0
M  V30 2550 O 240.282 0.0650683 1.95592 0
M  V30 2551 C 240.581 3.41801 1.04437 0
M  V30 2552 C 240.247 4.50897 0.0159671 0
M  V30 2553 C 238.909 4.8046 -0.266731 0
M  V30 2554 C 241.261 5.16703 -0.683192 0
M  V30 2555 C 238.589 5.73135 -1.25434 0
M  V30 2556 C 240.941 6.10441 -1.65964 0
M  V30 2557 C 239.605 6.38382 -1.95 0
M  V30 2558 H 238.875 0.718048 0.182997 0
M  V30 2559 H 241.522 1.90019 -0.237724 0
M  V30 2560 H 239.827 3.44857 1.85959 0
M  V30 2561 H 241.524 3.69573 1.55618 0
M  V30 2562 H 238.114 4.27891 0.246485 0
M  V30 2563 H 242.298 4.93993 -0.477983 0
M  V30 2564 H 237.554 5.93074 -1.48571 0
M  V30 2565 H 241.728 6.60507 -2.20689 0
M  V30 2566 H 239.355 7.09996 -2.71679 0
M  V30 2567 N 240.93 -0.123565 1.57115 0
M  V30 2568 C 242.178 -0.83051 1.84247 0
M  V30 2569 C 242.499 -1.80629 0.73471 0
M  V30 2570 O 241.769 -1.94403 -0.241688 0
M  V30 2571 H 240.349 -0.309694 0.679778 0
M  V30 2572 H 243.011 -0.111976 1.94578 0
M  V30 2573 H 242.107 -1.37852 2.80006 0
M  V30 2574 N 242.408 -1.52605 -0.393616 0
M  V30 2575 C 243.654 -1.67672 -1.14079 0
M  V30 2576 C 243.987 -0.413121 -1.89755 0
M  V30 2577 O 243.262 0.588952 -1.85369 0
M  V30 2578 C 243.545 -2.9088 -2.12276 0
M  V30 2579 C 243.398 -4.27329 -1.40394 0
M  V30 2580 C 244.717 -3.09628 -3.12759 0
M  V30 2581 H 241.836 -0.610168 -0.413356 0
M  V30 2582 H 244.478 -1.85193 -0.424696 0
M  V30 2583 H 242.628 -2.76073 -2.73342 0
M  V30 2584 H 244.3 -4.53894 -0.82327 0
M  V30 2585 H 242.543 -4.2802 -0.705801 0
M  V30 2586 H 243.214 -5.09615 -2.12123 0
M  V30 2587 H 245.69 -3.23436 -2.61779 0
M  V30 2588 H 244.566 -3.97322 -3.78717 0
M  V30 2589 H 244.827 -2.23637 -3.81365 0
M  V30 2590 N 243.887 0.651787 -1.4349 0
M  V30 2591 C 244.85 1.74647 -1.48429 0
M  V30 2592 C 245.85 1.56513 -0.368817 0
M  V30 2593 O 247.04 1.62385 -0.630623 0
M  V30 2594 C 244.172 3.13533 -1.33827 0
M  V30 2595 H 245.365 1.71649 -2.4592 0
M  V30 2596 H 242.918 0.863573 -1.30277 0
M  V30 2597 H 243.653 3.22142 -0.37349 0
M  V30 2598 H 243.438 3.28101 -2.14691 0
M  V30 2599 H 244.928 3.93356 -1.40218 0
M  V30 2600 N 245.365 1.30045 0.890287 0
M  V30 2601 C 246.613 1.18327 1.63839 0
M  V30 2602 C 246.934 -0.263455 1.93212 0
M  V30 2603 O 246.204 -1.17856 1.56482 0
M  V30 2604 H 244.784 0.434933 0.607324 0
M  V30 2605 H 247.446 1.631 1.06698 0
M  V30 2606 H 246.542 1.74024 2.59079 0
M  V30 2607 N 246.843 -1.10192 1.12674 0
M  V30 2608 C 247.775 -2.16418 0.754701 0
M  V30 2609 C 248.788 -1.61309 -0.21986 0
M  V30 2610 O 249.977 -1.785 -0.000826841 0
M  V30 2611 C 247.077 -3.38762 0.096698 0
M  V30 2612 C 246.25 -4.23307 1.10136 0
M  V30 2613 C 245.309 -5.24092 0.470513 0
M  V30 2614 O 244.335 -5.57906 1.12824 0
M  V30 2615 N 245.537 -5.75491 -0.760948 0
M  V30 2616 H 248.302 -2.48943 1.66875 0
M  V30 2617 H 245.863 -1.25834 1.01869 0
M  V30 2618 H 247.855 -4.03291 -0.337384 0
M  V30 2619 H 246.425 -3.04192 -0.720153 0
M  V30 2620 H 245.645 -3.55036 1.71299 0
M  V30 2621 H 246.933 -4.76624 1.78064 0
M  V30 2622 H 246.331 -5.50222 -1.31424 0
M  V30 2623 H 244.888 -6.41792 -1.13781 0
M  V30 2624 N 248.321 -0.919034 -1.28029 0
M  V30 2625 C 249.251 -0.428581 -2.29533 0
M  V30 2626 C 250.232 0.50659 -1.62381 0
M  V30 2627 O 251.417 0.413195 -1.89753 0
M  V30 2628 C 248.547 0.327388 -3.45753 0
M  V30 2629 C 247.501 -0.519137 -4.2484 0
M  V30 2630 C 246.827 0.365486 -5.33449 0
M  V30 2631 C 248.127 -1.77914 -4.91064 0
M  V30 2632 H 249.821 -1.27687 -2.70807 0
M  V30 2633 H 247.367 -0.615428 -1.30186 0
M  V30 2634 H 249.32 0.681378 -4.15855 0
M  V30 2635 H 248.044 1.20963 -3.03374 0
M  V30 2636 H 246.703 -0.855717 -3.56473 0
M  V30 2637 H 246.351 1.24642 -4.87312 0
M  V30 2638 H 246.051 -0.197356 -5.87268 0
M  V30 2639 H 247.575 0.715241 -6.06396 0
M  V30 2640 H 248.989 -1.49374 -5.53498 0
M  V30 2641 H 247.386 -2.2848 -5.54903 0
M  V30 2642 H 248.456 -2.50382 -4.15255 0
M  V30 2643 N 249.799 1.42003 -0.683588 0
M  V30 2644 C 251.027 2.05746 -0.218182 0
M  V30 2645 C 251.442 1.51396 1.12804 0
M  V30 2646 O 250.799 0.657303 1.70252 0
M  V30 2647 C 250.85 3.61171 -0.154131 0
M  V30 2648 O 250.571 4.13508 -1.44716 0
M  V30 2649 C 252.072 4.42042 0.333713 0
M  V30 2650 H 249.292 0.662888 -0.10402 0
M  V30 2651 H 251.836 1.81987 -0.9328 0
M  V30 2652 H 249.991 3.84012 0.511231 0
M  V30 2653 H 250.405 5.07453 -1.32632 0
M  V30 2654 H 251.879 5.51028 0.327423 0
M  V30 2655 H 252.356 4.17269 1.37053 0
M  V30 2656 H 252.962 4.24239 -0.300222 0
M  V30 2657 N 251.277 0.427512 1.51691 0
M  V30 2658 C 252.554 -0.201684 1.94557 0
M  V30 2659 C 252.934 -1.60981 1.36559 0
M  V30 2660 O 252.282 -2.21814 0.548702 0
M  V30 2661 C 252.492 -0.189394 3.48486 0
M  V30 2662 C 253.84 -0.39978 4.22714 0
M  V30 2663 O 254.864 -0.267945 3.55191 0
M  V30 2664 O 253.723 -0.661249 5.42485 0
M  V30 2665 H 250.817 -0.135261 0.815864 0
M  V30 2666 H 253.363 0.484782 1.62628 0
M  V30 2667 H 252.135 0.795431 3.8313 0
M  V30 2668 H 251.758 -0.919187 3.86829 0
M  V30 2669 N 252.755 -1.56801 0.158532 0
M  V30 2670 C 253.983 -2.00859 -0.496303 0
M  V30 2671 C 254.398 -1.03871 -1.57659 0
M  V30 2672 O 253.755 -0.0375165 -1.82461 0
M  V30 2673 C 253.806 -3.4479 -1.08638 0
M  V30 2674 O 253.527 -4.38072 -0.0492322 0
M  V30 2675 C 255.028 -4.04185 -1.8207 0
M  V30 2676 H 252.248 -0.65864 -0.128199 0
M  V30 2677 H 254.792 -2.02885 0.256506 0
M  V30 2678 H 252.947 -3.43579 -1.78975 0
M  V30 2679 H 253.361 -5.2227 -0.483102 0
M  V30 2680 H 254.835 -5.06857 -2.18633 0
M  V30 2681 H 255.312 -3.45549 -2.71095 0
M  V30 2682 H 255.918 -4.0906 -1.16405 0
M  V30 2683 N 254.233 0.115231 -1.57178 0
M  V30 2684 C 255.165 1.16694 -1.97269 0
M  V30 2685 C 256.178 1.37445 -0.872502 0
M  V30 2686 O 257.367 1.36454 -1.15077 0
M  V30 2687 C 254.467 2.52627 -2.25905 0
M  V30 2688 C 253.64 2.52427 -3.57211 0
M  V30 2689 C 252.699 3.70134 -3.74016 0
M  V30 2690 O 251.725 3.53546 -4.46087 0
M  V30 2691 N 252.927 4.88844 -3.13068 0
M  V30 2692 H 255.692 0.82588 -2.88096 0
M  V30 2693 H 253.253 0.304461 -1.59011 0
M  V30 2694 H 255.245 3.29937 -2.34359 0
M  V30 2695 H 253.815 2.789 -1.41186 0
M  V30 2696 H 253.035 1.60805 -3.5991 0
M  V30 2697 H 254.323 2.49353 -4.43509 0
M  V30 2698 H 253.721 5.05225 -2.54489 0
M  V30 2699 H 252.278 5.63817 -3.27037 0
M  V30 2700 N 255.711 1.52812 0.385517 0
M  V30 2701 C 256.96 1.67249 1.12741 0
M  V30 2702 C 257.273 0.4205 1.91027 0
M  V30 2703 O 258.479 0.445064 2.67827 0
M  V30 2704 C 256.935 2.95583 2.05326 0
M  V30 2705 C 256.543 4.27974 1.32447 0
M  V30 2706 C 258.287 3.19386 2.7963 0
M  V30 2707 C 256.194 5.47412 2.23818 0
M  V30 2708 H 255.124 0.6231 0.424573 0
M  V30 2709 H 257.775 1.79309 0.389924 0
M  V30 2710 H 256.157 2.77277 2.82725 0
M  V30 2711 H 257.331 4.56844 0.602495 0
M  V30 2712 H 255.646 4.10459 0.700885 0
M  V30 2713 H 258.243 4.05801 3.48181 0
M  V30 2714 H 258.586 2.34604 3.43899 0
M  V30 2715 H 259.119 3.38274 2.09322 0
M  V30 2716 H 255.858 6.34612 1.64157 0
M  V30 2717 H 255.378 5.22849 2.93921 0
M  V30 2718 H 257.057 5.81423 2.83824 0
M  V30 2719 N 257.189 -0.644168 1.43834 0
M  V30 2720 C 258.136 -1.75671 1.49694 0
M  V30 2721 C 259.106 -1.6246 0.345809 0
M  V30 2722 O 260.291 -1.82573 0.554234 0
M  V30 2723 C 257.431 -3.13867 1.43463 0
M  V30 2724 C 256.544 -3.38147 2.6885 0
M  V30 2725 C 255.679 -4.66241 2.54544 0
M  V30 2726 C 254.718 -4.83657 3.75157 0
M  V30 2727 N 253.855 -6.03016 3.59605 0
M  V30 2728 H 258.695 -1.69998 2.44754 0
M  V30 2729 H 256.232 -0.829458 1.21484 0
M  V30 2730 H 258.19 -3.9377 1.37843 0
M  V30 2731 H 256.82 -3.18588 0.519783 0
M  V30 2732 H 255.872 -2.52276 2.84712 0
M  V30 2733 H 257.184 -3.46899 3.58417 0
M  V30 2734 H 256.338 -5.54285 2.46683 0
M  V30 2735 H 255.077 -4.59826 1.62516 0
M  V30 2736 H 254.082 -3.94046 3.83416 0
M  V30 2737 H 255.307 -4.91896 4.68204 0
M  V30 2738 H 253.253 -5.97715 2.7032 0
M  V30 2739 H 253.17 -6.12766 4.42779 0
M  V30 2740 H 254.438 -6.93657 3.55613 0
M  V30 2741 N 258.668 -1.30515 -0.883378 0
M  V30 2742 C 260.084 -1.08881 -1.16692 0
M  V30 2743 C 260.284 0.149409 -2.00945 0
M  V30 2744 O 259.34 0.84257 -2.38027 0
M  V30 2745 C 260.653 -2.35319 -1.87204 0
M  V30 2746 C 262.201 -2.40799 -1.99962 0
M  V30 2747 C 262.676 -3.67083 -2.73887 0
M  V30 2748 N 264.167 -3.679 -2.81432 0
M  V30 2749 C 264.902 -4.62303 -3.3921 0
M  V30 2750 N 264.398 -5.67052 -3.98025 0
M  V30 2751 N 266.191 -4.49845 -3.3704 0
M  V30 2752 H 258.342 -2.09951 -0.321633 0
M  V30 2753 H 260.605 -0.92556 -0.205043 0
M  V30 2754 H 260.311 -3.25689 -1.3274 0
M  V30 2755 H 260.185 -2.44089 -2.87577 0
M  V30 2756 H 262.572 -1.50907 -2.53597 0
M  V30 2757 H 262.653 -2.36003 -0.98673 0
M  V30 2758 H 262.297 -4.57334 -2.20925 0
M  V30 2759 H 262.227 -3.69141 -3.75556 0
M  V30 2760 H 264.718 -2.92171 -2.39676 0
M  V30 2761 H 265.031 -6.35184 -4.40183 0
M  V30 2762 H 263.376 -5.70842 -3.96439 0
M  V30 2763 H 266.567 -3.67194 -2.90321 0
M  V30 2764 H 266.74 -5.23597 -3.81772 0
M  V30 2765 N 260.146 1.09593 -1.13257 0
M  V30 2766 C 261.094 2.18271 -0.803783 0
M  V30 2767 C 262.088 1.68054 0.213148 0
M  V30 2768 O 263.294 1.79862 0.0704699 0
M  V30 2769 H 259.669 0.711949 -0.242143 0
M  V30 2770 H 261.64 2.43235 -1.72856 0
M  V30 2771 C 260.389 3.46536 -0.28424 0
M  V30 2772 H 259.712 3.85545 -1.05807 0
M  V30 2773 H 261.152 4.23899 -0.0925945 0
M  V30 2774 C 259.611 3.22036 0.989684 0
M  V30 2775 O 260.141 3.44509 2.06584 0
M  V30 2776 N 258.347 2.7565 0.920086 0
M  V30 2777 H 257.894 2.57562 0.0442019 0
M  V30 2778 H 257.852 2.59635 1.77306 0
M  V30 2779 N 261.624 0.925811 1.2754 0
M  V30 2780 C 262.852 0.581509 1.9856 0
M  V30 2781 C 263.267 -0.840041 1.69082 0
M  V30 2782 O 262.624 -1.55805 0.950312 0
M  V30 2783 C 262.675 0.795589 3.52637 0
M  V30 2784 O 262.396 2.16121 3.81082 0
M  V30 2785 C 263.897 0.459744 4.4091 0
M  V30 2786 H 261.117 0.220538 0.633722 0
M  V30 2787 H 263.661 1.24232 1.6244 0
M  V30 2788 H 261.816 0.18161 3.86974 0
M  V30 2789 H 262.23 2.2098 4.75676 0
M  V30 2790 H 263.704 0.660244 5.48037 0
M  V30 2791 H 264.181 -0.604625 4.35018 0
M  V30 2792 H 264.787 1.05178 4.12089 0
M  V30 2793 N 263.102 -1.41638 0.69111 0
M  V30 2794 C 264.349 -2.01299 0.220193 0
M  V30 2795 C 264.677 -1.54715 -1.17871 0
M  V30 2796 O 263.932 -0.747193 -1.80874 0
M  V30 2797 C 264.231 -3.56714 0.221277 0
M  V30 2798 C 263.897 -4.22792 1.56709 0
M  V30 2799 C 262.559 -4.40557 1.93554 0
M  V30 2800 C 264.911 -4.59883 2.45268 0
M  V30 2801 C 262.239 -4.92688 3.18552 0
M  V30 2802 C 264.591 -5.13403 3.69595 0
M  V30 2803 C 263.255 -5.29379 4.06589 0
M  V30 2804 H 262.525 -0.736606 0.0805743 0
M  V30 2805 H 265.172 -1.69598 0.889319 0
M  V30 2806 H 263.477 -3.8818 -0.531391 0
M  V30 2807 H 265.174 -4.00678 -0.160547 0
M  V30 2808 H 261.764 -4.09336 1.2705 0
M  V30 2809 H 265.948 -4.45817 2.18084 0
M  V30 2810 H 261.204 -5.03242 3.47214 0
M  V30 2811 H 265.378 -5.41084 4.38407 0
M  V30 2812 H 263.005 -5.69537 5.03519 0
M  V30 2813 N 264.58 -0.43555 -1.51462 0
M  V30 2814 C 265.826 0.131709 -2.02372 0
M  V30 2815 C 266.159 1.42516 -1.3192 0
M  V30 2816 O 265.434 1.89606 -0.433573 0
M  V30 2817 C 265.717 0.352301 -3.58373 0
M  V30 2818 C 265.57 -0.959676 -4.39443 0
M  V30 2819 C 266.889 1.12286 -4.25535 0
M  V30 2820 H 264.008 0.0463936 -0.735538 0
M  V30 2821 H 266.65 -0.574197 -1.81116 0
M  V30 2822 H 264.8 0.9536 -3.76615 0
M  V30 2823 H 266.472 -1.59482 -4.32855 0
M  V30 2824 H 264.715 -1.56468 -4.04599 0
M  V30 2825 H 265.386 -0.759394 -5.46752 0
M  V30 2826 H 267.862 0.613545 -4.11552 0
M  V30 2827 H 266.738 1.24598 -5.34571 0
M  V30 2828 H 266.999 2.15048 -3.86273 0
M  V30 2829 N 266.058 1.56714 -0.166846 0
M  V30 2830 C 267.306 1.96358 0.478305 0
M  V30 2831 C 267.627 1.0537 1.6408 0
M  V30 2832 O 266.897 0.119154 1.95537 0
M  V30 2833 H 265.477 0.725065 0.179692 0
M  V30 2834 H 268.139 1.93329 -0.246985 0
M  V30 2835 H 267.235 3.00547 0.841292 0
M  V30 2836 N 267.536 -0.106894 1.57237 0
M  V30 2837 C 268.764 -0.826389 1.8968 0
M  V30 2838 C 269.179 -1.72856 0.759353 0
M  V30 2839 O 268.536 -1.80503 -0.269263 0
M  V30 2840 C 268.587 -1.64967 3.21665 0
M  V30 2841 O 268.308 -0.783804 4.31031 0
M  V30 2842 C 269.809 -2.47326 3.67892 0
M  V30 2843 H 267.029 -0.236927 0.627779 0
M  V30 2844 H 269.573 -0.0876593 2.04312 0
M  V30 2845 H 267.728 -2.34103 3.08666 0
M  V30 2846 H 268.142 -1.35284 5.06753 0
M  V30 2847 H 269.616 -3.00604 4.6297 0
M  V30 2848 H 270.093 -3.25247 2.95146 0
M  V30 2849 H 270.699 -1.83411 3.83719 0
M  V30 2850 N 269.014 -1.53014 -0.377408 0
M  V30 2851 C 270.425 -1.60438 -0.954798 0
M  V30 2852 C 270.776 -0.464418 -1.90624 0
M  V30 2853 O 269.901 0.41087 -2.12464 0
M  V30 2854 C 270.496 -2.90797 -1.73847 0
M  V30 2855 C 269.055 -3.00595 -2.26538 0
M  V30 2856 C 268.202 -2.55645 -1.07429 0
M  V30 2857 H 271.153 -1.57926 -0.156575 0
M  V30 2858 H 271.174 -2.77935 -2.5987 0
M  V30 2859 H 270.686 -3.73746 -1.04574 0
M  V30 2860 H 268.787 -2.22208 -2.99089 0
M  V30 2861 H 268.9 -4.05456 -2.5523 0
M  V30 2862 H 267.264 -2.10239 -1.43777 0
M  V30 2863 H 268.047 -3.41 -0.396728 0
M  V30 2864 N 270.492 0.636531 -1.44174 0
M  V30 2865 C 271.739 1.39619 -1.46672 0
M  V30 2866 C 272.067 1.94257 -0.0972691 0
M  V30 2867 O 271.322 1.73768 0.900175 0
M  V30 2868 C 271.621 2.58309 -2.47005 0
M  V30 2869 C 271.287 2.21992 -3.92467 0
M  V30 2870 C 269.949 2.118 -4.32081 0
M  V30 2871 C 272.301 1.9321 -4.84065 0
M  V30 2872 C 269.629 1.71007 -5.61225 0
M  V30 2873 C 271.981 1.53911 -6.13591 0
M  V30 2874 C 270.645 1.42257 -6.52165 0
M  V30 2875 H 269.915 0.510902 -0.536712 0
M  V30 2876 H 272.562 0.722328 -1.77355 0
M  V30 2877 H 270.867 3.30903 -2.09786 0
M  V30 2878 H 272.564 3.16533 -2.46186 0
M  V30 2879 H 269.154 2.30841 -3.61124 0
M  V30 2880 H 273.338 1.99997 -4.54219 0
M  V30 2881 H 268.594 1.60583 -5.89935 0
M  V30 2882 H 272.768 1.30677 -6.8403 0
M  V30 2883 H 270.395 1.10419 -7.52138 0
M  V30 2884 N 271.97 1.30982 0.876444 0
M  V30 2885 C 273.216 1.21484 1.63136 0
M  V30 2886 C 273.571 -0.226339 1.91064 0
M  V30 2887 O 272.864 -1.15788 1.52656 0
M  V30 2888 C 273.058 1.98572 2.9716 0
M  V30 2889 C 272.887 3.50039 2.82317 0
M  V30 2890 C 271.657 4.19393 2.81847 0
M  V30 2891 C 273.855 4.45111 2.57644 0
M  V30 2892 N 271.837 5.57061 2.57985 0
M  V30 2893 C 273.208 5.70402 2.42986 0
M  V30 2894 C 275.263 4.3461 2.42937 0
M  V30 2895 C 273.966 6.8638 2.15115 0
M  V30 2896 C 275.992 5.50365 2.16454 0
M  V30 2897 C 275.354 6.74642 2.02578 0
M  V30 2898 H 271.453 0.499632 0.601575 0
M  V30 2899 H 274.037 1.65094 1.03209 0
M  V30 2900 H 272.208 1.5734 3.55104 0
M  V30 2901 H 273.94 1.81146 3.61895 0
M  V30 2902 H 270.695 3.71303 2.93991 0
M  V30 2903 H 271.119 6.29529 2.49043 0
M  V30 2904 H 275.761 3.39199 2.52396 0
M  V30 2905 H 273.479 7.81824 2.04394 0
M  V30 2906 H 277.065 5.44154 2.05884 0
M  V30 2907 H 275.945 7.62699 1.82374 0
M  V30 2908 N 273.449 -1.08991 1.13837 0
M  V30 2909 C 274.382 -2.15049 0.763477 0
M  V30 2910 C 275.36 -1.60629 -0.252398 0
M  V30 2911 O 276.544 -1.87958 -0.142853 0
M  V30 2912 C 273.671 -3.38441 0.132545 0
M  V30 2913 C 272.717 -4.11596 1.11763 0
M  V30 2914 S 273.55 -4.6521 2.65216 0
M  V30 2915 C 274.706 -5.91896 2.03495 0
M  V30 2916 H 274.939 -2.46518 1.66182 0
M  V30 2917 H 272.472 -1.21008 0.958976 0
M  V30 2918 H 274.43 -4.09883 -0.225074 0
M  V30 2919 H 273.091 -3.05182 -0.743135 0
M  V30 2920 H 272.284 -5.00121 0.624076 0
M  V30 2921 H 271.886 -3.46038 1.41894 0
M  V30 2922 H 274.178 -6.63156 1.38675 0
M  V30 2923 H 275.121 -6.45938 2.9012 0
M  V30 2924 H 275.529 -5.44625 1.48471 0
M  V30 2925 N 274.927 -0.932562 -1.27047 0
M  V30 2926 C 275.89 -0.440064 -2.24936 0
M  V30 2927 C 276.89 0.444071 -1.54547 0
M  V30 2928 O 278.08 0.244465 -1.72476 0
M  V30 2929 C 275.212 0.36678 -3.38921 0
M  V30 2930 H 276.405 -1.305 -2.70018 0
M  V30 2931 H 273.958 -0.713707 -1.39054 0
M  V30 2932 H 274.693 1.25033 -2.99228 0
M  V30 2933 H 274.478 -0.267204 -3.91188 0
M  V30 2934 H 275.968 0.701567 -4.11665 0
M  V30 2935 N 276.405 1.4127 -0.698611 0
M  V30 2936 C 277.816 1.84187 -0.305289 0
M  V30 2937 C 278.167 1.58449 1.15708 0
M  V30 2938 O 277.292 1.05651 1.88856 0
M  V30 2939 C 277.887 3.3435 -0.547314 0
M  V30 2940 C 276.446 3.75826 -0.207878 0
M  V30 2941 C 275.593 2.64647 -0.828099 0
M  V30 2942 H 278.544 1.30778 -0.89904 0
M  V30 2943 H 278.565 3.8001 0.192998 0
M  V30 2944 H 278.077 3.53051 -1.61172 0
M  V30 2945 H 276.178 3.62725 0.852143 0
M  V30 2946 H 276.291 4.74462 -0.665021 0
M  V30 2947 H 274.655 2.53395 -0.257458 0
M  V30 2948 H 275.438 2.86165 -1.89643 0
M  V30 2949 N 277.883 0.443576 1.51229 0
M  V30 2950 C 278.793 -0.370721 2.31652 0
M  V30 2951 C 279.809 -1.02186 1.40833 0
M  V30 2952 O 280.985 -1.01586 1.73903 0
M  V30 2953 C 278.05 -1.45376 3.14749 0
M  V30 2954 C 277.111 -0.822099 4.21355 0
M  V30 2955 C 276.344 -1.85353 5.0048 0
M  V30 2956 O 276.567 -3.07656 4.80316 0
M  V30 2957 O 275.501 -1.4406 5.84406 0
M  V30 2958 H 279.327 0.286002 3.0235 0
M  V30 2959 H 276.912 0.20598 1.47973 0
M  V30 2960 H 278.794 -2.08173 3.66391 0
M  V30 2961 H 277.469 -2.09445 2.46809 0
M  V30 2962 H 276.376 -0.155909 3.73775 0
M  V30 2963 H 277.709 -0.224797 4.91686 0
M  V30 2964 N 279.361 -1.56624 0.175154 0
M  V30 2965 C 280.607 -1.9729 -0.469506 0
M  V30 2966 C 280.94 -1.06128 -1.62636 0
M  V30 2967 O 280.215 -0.109183 -1.94193 0
M  V30 2968 C 280.498 -3.47375 -0.948804 0
M  V30 2969 C 280.351 -4.49317 0.208491 0
M  V30 2970 C 281.67 -4.00652 -1.82116 0
M  V30 2971 H 278.789 -0.717317 -0.16919 0
M  V30 2972 H 281.431 -1.88184 0.262062 0
M  V30 2973 H 279.581 -3.55267 -1.57219 0
M  V30 2974 H 281.253 -4.53482 0.845682 0
M  V30 2975 H 279.496 -4.25121 0.863395 0
M  V30 2976 H 280.167 -5.51741 -0.169059 0
M  V30 2977 H 282.643 -3.95416 -1.2956 0
M  V30 2978 H 281.519 -5.06075 -2.12554 0
M  V30 2979 H 281.78 -3.44699 -2.7683 0
M  V30 2980 N 280.839 0.0985539 -1.57292 0
M  V30 2981 C 282.088 0.801358 -1.85098 0
M  V30 2982 C 282.401 1.80066 -0.763902 0
M  V30 2983 O 283.607 2.55112 -0.928981 0
M  V30 2984 C 282.063 1.47599 -3.28242 0
M  V30 2985 C 281.671 0.516624 -4.45011 0
M  V30 2986 C 283.415 2.16272 -3.65276 0
M  V30 2987 C 281.322 1.19564 -5.79188 0
M  V30 2988 H 280.252 0.303022 -0.69043 0
M  V30 2989 H 282.903 0.0542623 -1.8342 0
M  V30 2990 H 281.285 2.27042 -3.2445 0
M  V30 2991 H 282.459 -0.246065 -4.60143 0
M  V30 2992 H 280.774 -0.064227 -4.1635 0
M  V30 2993 H 283.371 2.67802 -4.62803 0
M  V30 2994 H 283.714 2.95009 -2.93727 0
M  V30 2995 H 284.247 1.43693 -3.70941 0
M  V30 2996 H 280.986 0.449157 -6.53959 0
M  V30 2997 H 280.506 1.92984 -5.67906 0
M  V30 2998 H 282.185 1.7231 -6.23633 0
M  V30 2999 N 282.317 1.53212 0.369288 0
M  V30 3000 C 283.249 1.75668 1.47219 0
M  V30 3001 C 284.262 0.637387 1.49804 0
M  V30 3002 O 285.451 0.913561 1.5335 0
M  V30 3003 C 282.551 1.81818 2.85999 0
M  V30 3004 C 281.724 3.11409 3.07153 0
M  V30 3005 C 280.783 3.08849 4.26026 0
M  V30 3006 O 279.809 3.82659 4.2138 0
M  V30 3007 N 281.011 2.29409 5.33246 0
M  V30 3008 H 283.776 2.70832 1.28337 0
M  V30 3009 H 281.337 1.51944 0.55898 0
M  V30 3010 H 283.329 1.77588 3.63655 0
M  V30 3011 H 281.899 0.939544 2.98146 0
M  V30 3012 H 281.119 3.28971 2.1719 0
M  V30 3013 H 282.407 3.97059 3.18154 0
M  V30 3014 H 281.805 1.68946 5.39883 0
M  V30 3015 H 280.362 2.31001 6.09493 0
M  V30 3016 N 283.795 -0.628877 1.44509 0
M  V30 3017 C 284.727 -1.754 1.47538 0
M  V30 3018 C 285.74 -1.58575 0.368506 0
M  V30 3019 O 286.929 -1.66847 0.634376 0
M  V30 3020 C 284.029 -3.1315 1.29577 0
M  V30 3021 C 283.202 -3.56413 2.53551 0
M  V30 3022 C 282.261 -4.7305 2.30457 0
M  V30 3023 O 281.287 -4.81247 3.03957 0
M  V30 3024 N 282.489 -5.64903 1.3366 0
M  V30 3025 H 285.254 -1.73272 2.44534 0
M  V30 3026 H 282.815 -0.813512 1.39977 0
M  V30 3027 H 284.807 -3.88902 1.11971 0
M  V30 3028 H 283.377 -3.09908 0.409371 0
M  V30 3029 H 282.597 -2.70847 2.86419 0
M  V30 3030 H 283.885 -3.82071 3.36005 0
M  V30 3031 H 283.283 -5.60975 0.729604 0
M  V30 3032 H 281.84 -6.40275 1.22032 0
M  V30 3033 N 285.273 -1.31445 -0.869486 0
M  V30 3034 C 286.498 -1.24256 -1.66058 0
M  V30 3035 C 286.923 0.188928 -1.87149 0
M  V30 3036 O 286.281 1.13522 -1.4136 0
M  V30 3037 C 286.329 -1.9924 -3.00559 0
M  V30 3038 O 285.433 -1.33007 -3.90362 0
M  V30 3039 H 284.774 -0.428973 -0.506831 0
M  V30 3040 H 287.304 -1.73521 -1.08404 0
M  V30 3041 H 287.314 -2.08854 -3.50491 0
M  V30 3042 H 285.989 -3.03342 -2.84528 0
M  V30 3043 H 284.566 -1.31848 -3.48813 0
M  V30 3044 N 286.751 1.08385 -1.14413 0
M  V30 3045 C 287.714 2.13486 -0.834048 0
M  V30 3046 C 288.714 1.59988 0.161418 0
M  V30 3047 O 289.904 1.74071 -0.0669575 0
M  V30 3048 C 287.036 3.4003 -0.243354 0
M  V30 3049 H 288.229 2.42425 -1.7655 0
M  V30 3050 H 285.782 1.24101 -0.950189 0
M  V30 3051 H 286.517 3.16726 0.696807 0
M  V30 3052 H 286.302 3.80157 -0.960367 0
M  V30 3053 H 287.792 4.17577 -0.0436242 0
M  V30 3054 N 288.23 0.939286 1.26551 0
M  V30 3055 C 289.46 0.601663 1.97645 0
M  V30 3056 C 289.868 -0.827206 1.70159 0
M  V30 3057 O 289.211 -1.56291 0.965338 0
M  V30 3058 C 289.273 0.761725 3.51337 0
M  V30 3059 C 288.937 2.16487 4.0247 0
M  V30 3060 C 289.934 3.14016 4.14355 0
M  V30 3061 C 287.619 2.48494 4.36527 0
M  V30 3062 C 289.613 4.41654 4.59587 0
M  V30 3063 C 287.3 3.76364 4.81449 0
M  V30 3064 C 288.298 4.72758 4.92939 0
M  V30 3065 O 287.986 5.98352 5.36871 0
M  V30 3066 H 287.718 0.225758 0.637189 0
M  V30 3067 H 290.272 1.26178 1.62075 0
M  V30 3068 H 288.502 0.0444808 3.86674 0
M  V30 3069 H 290.191 0.427442 4.03643 0
M  V30 3070 H 290.957 2.90613 3.8829 0
M  V30 3071 H 286.836 1.74202 4.26819 0
M  V30 3072 H 290.38 5.16896 4.68471 0
M  V30 3073 H 286.277 3.99582 5.06956 0
M  V30 3074 H 287.045 6.01507 5.55096 0
M  V30 3075 N 289.708 -1.40897 0.706093 0
M  V30 3076 C 290.985 -1.94868 0.169099 0
M  V30 3077 C 291.365 -1.64485 -1.32318 0
M  V30 3078 O 290.713 -0.95744 -2.07474 0
M  V30 3079 C 290.923 -3.45798 0.471654 0
M  V30 3080 C 292.271 -4.22663 0.405127 0
M  V30 3081 O 293.295 -3.53865 0.407168 0
M  V30 3082 O 292.154 -5.45216 0.374383 0
M  V30 3083 H 289.248 -0.82673 0.0211352 0
M  V30 3084 H 291.794 -1.50558 0.782976 0
M  V30 3085 H 290.566 -3.61235 1.50416 0
M  V30 3086 H 290.189 -3.97225 -0.172666 0
M  V30 3087 N 291.186 -0.45159 -1.50991 0
M  V30 3088 C 292.411 0.110667 -2.07105 0
M  V30 3089 C 292.836 1.3446 -1.31538 0
M  V30 3090 O 292.194 1.77743 -0.357365 0
M  V30 3091 C 292.242 0.397238 -3.58405 0
M  V30 3092 O 291.346 1.48124 -3.84881 0
M  V30 3093 H 290.687 -0.00439271 -0.663985 0
M  V30 3094 H 293.217 -0.637026 -1.9443 0
M  V30 3095 H 293.227 0.64351 -4.02893 0
M  V30 3096 H 291.902 -0.504553 -4.12828 0
M  V30 3097 H 290.479 1.22381 -3.52246 0
M  V30 3098 N 292.664 1.56529 -0.183458 0
M  V30 3099 C 293.611 2.18546 0.742055 0
M  V30 3100 C 294.581 1.12912 1.2182 0
M  V30 3101 O 295.766 1.41115 1.28418 0
M  V30 3102 C 292.906 2.83977 1.96089 0
M  V30 3103 C 292.019 4.04105 1.52719 0
M  V30 3104 C 291.154 4.57427 2.70063 0
M  V30 3105 C 290.193 5.69938 2.23243 0
M  V30 3106 N 289.33 6.17717 3.33722 0
M  V30 3107 H 294.17 2.97284 0.206432 0
M  V30 3108 H 291.707 1.46823 0.0901571 0
M  V30 3109 H 293.665 3.20077 2.67594 0
M  V30 3110 H 292.295 2.07822 2.47002 0
M  V30 3111 H 291.347 3.73745 0.708436 0
M  V30 3112 H 292.659 4.85513 1.1436 0
M  V30 3113 H 291.813 4.95772 3.49708 0
M  V30 3114 H 290.552 3.75101 3.11689 0
M  V30 3115 H 289.557 5.31133 1.42048 0
M  V30 3116 H 290.782 6.54073 1.82661 0
M  V30 3117 H 288.728 5.38317 3.74902 0
M  V30 3118 H 288.645 6.94146 2.99495 0
M  V30 3119 H 289.913 6.60713 4.13616 0
M  V30 3120 N 294.142 -0.090211 1.57342 0
M  V30 3121 C 295.105 -1.09335 2.01441 0
M  V30 3122 C 296.105 -1.32666 0.908641 0
M  V30 3123 O 297.295 -1.28697 1.174 0
M  V30 3124 C 294.427 -2.44136 2.3793 0
M  V30 3125 H 295.62 -0.713662 2.91285 0
M  V30 3126 H 293.173 -0.335404 1.52659 0
M  V30 3127 H 293.908 -2.86972 1.51055 0
M  V30 3128 H 293.693 -2.28548 3.18603 0
M  V30 3129 H 295.183 -3.16277 2.72688 0
M  V30 3130 N 295.62 -1.53406 -0.361157 0
M  V30 3131 C 296.897 -1.60411 -1.11927 0
M  V30 3132 C 297.277 -0.414385 -2.06993 0
M  V30 3133 O 296.625 0.594976 -2.20618 0
M  V30 3134 C 296.835 -2.95652 -1.85448 0
M  V30 3135 C 298.183 -3.50386 -2.39823 0
M  V30 3136 O 299.207 -2.97711 -1.95568 0
M  V30 3137 O 298.066 -4.42482 -3.20737 0
M  V30 3138 H 295.16 -0.64811 -0.513695 0
M  V30 3139 H 297.706 -1.65749 -0.364065 0
M  V30 3140 H 296.478 -3.73682 -1.16091 0
M  V30 3141 H 296.101 -2.93825 -2.67866 0
M  V30 3142 N 297.098 0.621204 -1.44841 0
M  V30 3143 C 298.347 1.37658 -1.47422 0
M  V30 3144 C 298.66 1.95264 -0.114629 0
M  V30 3145 O 299.866 2.71494 -0.0180199 0
M  V30 3146 C 298.322 2.49285 -2.59586 0
M  V30 3147 C 297.93 1.98149 -4.01797 0
M  V30 3148 C 299.674 3.26409 -2.71399 0
M  V30 3149 C 297.581 3.07178 -5.05367 0
M  V30 3150 H 296.511 0.517344 -0.548517 0
M  V30 3151 H 299.162 0.667257 -1.70938 0
M  V30 3152 H 297.544 3.22839 -2.29328 0
M  V30 3153 H 298.718 1.31395 -4.41669 0
M  V30 3154 H 297.033 1.33812 -3.94314 0
M  V30 3155 H 299.63 4.07706 -3.45948 0
M  V30 3156 H 299.973 3.76535 -1.77559 0
M  V30 3157 H 300.506 2.5995 -3.01116 0
M  V30 3158 H 297.245 2.61985 -6.00869 0
M  V30 3159 H 296.765 3.72542 -4.70077 0
M  V30 3160 H 298.444 3.71789 -5.29511 0
M  V30 3161 N 298.576 1.31904 0.862503 0
M  V30 3162 C 299.822 1.23207 1.61838 0
M  V30 3163 C 300.177 -0.206062 1.91293 0
M  V30 3164 O 299.47 -1.14162 1.53875 0
M  V30 3165 C 299.664 2.01713 2.95037 0
M  V30 3166 C 299.493 3.53014 2.78588 0
M  V30 3167 C 298.263 4.22359 2.77382 0
M  V30 3168 C 300.461 4.47819 2.52909 0
M  V30 3169 N 298.443 5.59766 2.52062 0
M  V30 3170 C 299.814 5.72947 2.36922 0
M  V30 3171 C 301.869 4.37162 2.38314 0
M  V30 3172 C 300.572 6.88623 2.07823 0
M  V30 3173 C 302.598 5.5263 2.10604 0
M  V30 3174 C 301.96 6.76752 1.95411 0
M  V30 3175 H 298.059 0.505984 0.596242 0
M  V30 3176 H 300.643 1.66179 1.01452 0
M  V30 3177 H 298.814 1.61098 3.53415 0
M  V30 3178 H 300.546 1.84975 3.59953 0
M  V30 3179 H 297.301 3.74401 2.90036 0
M  V30 3180 H 297.725 6.32135 2.42352 0
M  V30 3181 H 302.367 3.41857 2.48784 0
M  V30 3182 H 300.085 7.83948 1.9609 0
M  V30 3183 H 303.671 5.46307 2.00101 0
M  V30 3184 H 302.551 7.6459 1.74274 0
M  V30 3185 N 300.054 -1.07777 1.14986 0
M  V30 3186 C 301.279 -1.84558 0.946213 0
M  V30 3187 C 301.704 -1.81323 -0.500362 0
M  V30 3188 O 301.062 -1.20301 -1.35637 0
M  V30 3189 C 301.11 -3.29736 1.45968 0
M  V30 3190 O 300.214 -4.07149 0.65601 0
M  V30 3191 H 299.555 -0.571641 0.33782 0
M  V30 3192 H 302.085 -1.35991 1.52865 0
M  V30 3193 H 302.095 -3.80574 1.47063 0
M  V30 3194 H 300.77 -3.31406 2.51283 0
M  V30 3195 H 299.347 -3.65994 0.714322 0
M  V30 3196 N 301.532 -0.945985 -1.26051 0
M  V30 3197 C 302.462 -0.477172 -2.28572 0
M  V30 3198 C 303.443 0.472032 -1.63419 0
M  V30 3199 O 304.628 0.372853 -1.90587 0
M  V30 3200 C 301.758 0.253975 -3.4637 0
M  V30 3201 C 300.712 -0.609135 -4.23643 0
M  V30 3202 C 300.038 0.252252 -5.34105 0
M  V30 3203 C 301.338 -1.8829 -4.8718 0
M  V30 3204 H 303.032 -1.33402 -2.68038 0
M  V30 3205 H 300.578 -0.642904 -1.28852 0
M  V30 3206 H 302.531 0.593016 -4.17207 0
M  V30 3207 H 301.255 1.145 -3.05871 0
M  V30 3208 H 299.914 -0.931138 -3.54578 0
M  V30 3209 H 299.562 1.14278 -4.89846 0
M  V30 3210 H 299.262 -0.32188 -5.86718 0
M  V30 3211 H 300.786 0.586454 -6.07777 0
M  V30 3212 H 302.2 -1.61081 -5.50205 0
M  V30 3213 H 300.597 -2.40199 -5.49931 0
M  V30 3214 H 301.667 -2.59134 -4.09851 0
M  V30 3215 N 303.011 1.40521 -0.713556 0
M  V30 3216 C 304.259 2.00527 -0.251692 0
M  V30 3217 C 304.58 1.56857 1.15848 0
M  V30 3218 O 303.85 0.807127 1.785 0
M  V30 3219 H 302.43 0.741551 -0.0900646 0
M  V30 3220 H 305.092 1.71887 -0.918733 0
M  V30 3221 H 304.188 3.10813 -0.283192 0
M  V30 3222 N 304.489 0.459591 1.5075 0
M  V30 3223 C 305.738 -0.100971 2.01447 0
M  V30 3224 C 306.051 -1.41816 1.34713 0
M  V30 3225 O 307.257 -2.06299 1.76502 0
M  V30 3226 C 305.713 -0.23047 3.59161 0
M  V30 3227 C 305.321 1.0776 4.34847 0
M  V30 3228 C 307.065 -0.743608 4.17936 0
M  V30 3229 C 304.972 0.91253 5.84317 0
M  V30 3230 H 303.902 -0.0415102 0.752856 0
M  V30 3231 H 306.553 0.592742 1.73663 0
M  V30 3232 H 304.935 -0.987703 3.83485 0
M  V30 3233 H 306.109 1.8449 4.22256 0
M  V30 3234 H 304.424 1.52097 3.87628 0
M  V30 3235 H 307.021 -0.883959 5.27343 0
M  V30 3236 H 307.364 -1.73196 3.78562 0
M  V30 3237 H 307.897 -0.04408 3.97776 0
M  V30 3238 H 304.636 1.87391 6.28144 0
M  V30 3239 H 304.156 0.185422 5.99513 0
M  V30 3240 H 305.835 0.574547 6.44444 0
M  V30 3241 N 305.967 -1.56429 0.191757 0
M  V30 3242 C 307.195 -2.01867 -0.453586 0
M  V30 3243 C 307.61 -1.07191 -1.5542 0
M  V30 3244 O 306.967 -0.0762108 -1.82341 0
M  V30 3245 C 307.018 -3.47017 -1.013 0
M  V30 3246 O 306.739 -4.38078 0.0437005 0
M  V30 3247 C 308.24 -4.07956 -1.73456 0
M  V30 3248 H 305.46 -0.661211 -0.114199 0
M  V30 3249 H 308.004 -2.02295 0.299483 0
M  V30 3250 H 306.159 -3.47298 -1.71647 0
M  V30 3251 H 306.573 -5.23178 -0.372212 0
M  V30 3252 H 308.047 -5.1138 -2.07833 0
M  V30 3253 H 308.524 -3.51222 -2.63704 0
M  V30 3254 H 309.13 -4.11437 -1.07702 0
M  V30 3255 N 307.445 0.0818655 -1.57387 0
M  V30 3256 C 308.408 1.08265 -2.02018 0
M  V30 3257 C 309.408 1.32183 -0.915664 0
M  V30 3258 O 310.598 1.28073 -1.18081 0
M  V30 3259 C 307.73 2.42871 -2.39221 0
M  V30 3260 H 308.923 0.698204 -2.91659 0
M  V30 3261 H 306.476 0.327303 -1.52835 0
M  V30 3262 H 307.211 2.86167 -1.52575 0
M  V30 3263 H 306.996 2.26855 -3.19811 0
M  V30 3264 H 308.486 3.14826 -2.74362 0
M  V30 3265 N 308.923 1.53595 0.353017 0
M  V30 3266 C 310.172 1.69603 1.09168 0
M  V30 3267 C 310.485 0.460925 1.90092 0
M  V30 3268 O 311.691 0.501774 2.66823 0
M  V30 3269 C 310.147 2.99872 1.9901 0
M  V30 3270 C 309.755 4.30687 1.23339 0
M  V30 3271 C 311.499 3.25246 2.72792 0
M  V30 3272 C 309.406 5.52036 2.12156 0
M  V30 3273 H 308.336 0.631966 0.411261 0
M  V30 3274 H 310.987 1.80096 0.351802 0
M  V30 3275 H 309.369 2.83212 2.7678 0
M  V30 3276 H 310.543 4.58019 0.505456 0
M  V30 3277 H 308.858 4.11853 0.613663 0
M  V30 3278 H 311.455 4.13095 3.39495 0
M  V30 3279 H 311.798 2.41846 3.38846 0
M  V30 3280 H 312.331 3.42638 2.021 0
M  V30 3281 H 309.07 6.37951 1.50659 0
M  V30 3282 H 308.59 5.28966 2.82764 0
M  V30 3283 H 310.269 5.87313 2.71427 0
M  V30 3284 N 310.401 -0.613514 1.45168 0
M  V30 3285 C 311.311 -1.75296 1.55912 0
M  V30 3286 C 312.327 -1.68244 0.443856 0
M  V30 3287 O 313.503 -1.88706 0.70371 0
M  V30 3288 C 310.568 -3.1174 1.5172 0
M  V30 3289 C 309.629 -3.30291 2.74238 0
M  V30 3290 C 308.862 -4.60226 2.70236 0
M  V30 3291 O 309.085 -5.42168 1.77229 0
M  V30 3292 O 308.019 -4.81361 3.61352 0
M  V30 3293 H 311.845 -1.69183 2.52212 0
M  V30 3294 H 309.43 -0.776886 1.27612 0
M  V30 3295 H 311.312 -3.93044 1.51968 0
M  V30 3296 H 309.987 -3.18357 0.585697 0
M  V30 3297 H 308.894 -2.48598 2.79553 0
M  V30 3298 H 310.227 -3.28547 3.66494 0
M  V30 3299 N 311.879 -1.3236 -0.855495 0
M  V30 3300 C 312.809 -1.23833 -1.97958 0
M  V30 3301 C 313.79 -0.122361 -1.69659 0
M  V30 3302 O 314.975 -0.30939 -1.9172 0
M  V30 3303 C 312.105 -0.959772 -3.33775 0
M  V30 3304 C 311.059 -2.03689 -3.76424 0
M  V30 3305 C 310.385 -1.61075 -5.09862 0
M  V30 3306 C 311.685 -3.4518 -3.9198 0
M  V30 3307 H 313.379 -2.1788 -2.0535 0
M  V30 3308 H 310.925 -1.04891 -0.986605 0
M  V30 3309 H 312.878 -0.886678 -4.11966 0
M  V30 3310 H 311.602 0.0163404 -3.26596 0
M  V30 3311 H 310.261 -2.10012 -3.00484 0
M  V30 3312 H 309.909 -0.622107 -4.99138 0
M  V30 3313 H 309.609 -2.33143 -5.39368 0
M  V30 3314 H 311.133 -1.55201 -5.90546 0
M  V30 3315 H 312.547 -3.4145 -4.60526 0
M  V30 3316 H 310.944 -4.1559 -4.32903 0
M  V30 3317 H 312.014 -3.84903 -2.94919 0
M  V30 3318 N 313.357 1.07166 -1.15556 0
M  V30 3319 C 314.32 2.12589 -0.856644 0
M  V30 3320 C 315.32 1.6015 0.14444 0
M  V30 3321 O 316.51 1.7399 -0.0854163 0
M  V30 3322 C 313.642 3.39753 -0.279405 0
M  V30 3323 H 314.835 2.40539 -1.79112 0
M  V30 3324 H 312.388 1.23086 -0.963298 0
M  V30 3325 H 313.123 3.17447 0.663174 0
M  V30 3326 H 312.908 3.79117 -1.00063 0
M  V30 3327 H 314.398 4.17507 -0.0879113 0
M  V30 3328 N 314.835 0.952656 1.25548 0
M  V30 3329 C 315.782 0.47008 2.25962 0
M  V30 3330 C 316.752 -0.476384 1.59122 0
M  V30 3331 O 317.937 -0.39007 1.8677 0
M  V30 3332 C 315.077 -0.247881 3.44209 0
M  V30 3333 C 314.19 0.735591 4.25691 0
M  V30 3334 C 313.325 -0.0047306 5.312 0
M  V30 3335 C 312.364 0.969805 6.04368 0
M  V30 3336 N 311.501 0.260486 7.01617 0
M  V30 3337 H 316.341 1.33126 2.66611 0
M  V30 3338 H 313.878 0.66765 1.31076 0
M  V30 3339 H 315.836 -0.680695 4.1161 0
M  V30 3340 H 314.466 -1.07312 3.0444 0
M  V30 3341 H 313.518 1.28689 3.57971 0
M  V30 3342 H 314.83 1.47934 4.76358 0
M  V30 3343 H 313.984 -0.496275 6.04667 0
M  V30 3344 H 312.723 -0.781282 4.81401 0
M  V30 3345 H 311.728 1.47237 5.29718 0
M  V30 3346 H 312.953 1.74655 6.56256 0
M  V30 3347 H 310.899 -0.497364 6.54112 0
M  V30 3348 H 310.816 0.943362 7.50091 0
M  V30 3349 H 312.084 -0.209587 7.79218 0
M  V30 3350 N 316.313 -1.40141 0.720998 0
M  V30 3351 C 317.561 -2.0039 0.262323 0
M  V30 3352 C 317.882 -1.57469 -1.15015 0
M  V30 3353 O 317.152 -0.816582 -1.78069 0
M  V30 3354 H 315.732 -0.741063 0.093996 0
M  V30 3355 H 318.394 -1.71398 0.927835 0
M  V30 3356 H 317.49 -3.10658 0.299671 0
M  V30 3357 N 317.792 -0.46758 -1.50504 0
M  V30 3358 C 318.702 0.33382 -2.32213 0
M  V30 3359 C 319.718 0.999323 -1.42441 0
M  V30 3360 O 320.894 0.988068 -1.75497 0
M  V30 3361 C 317.959 1.4035 -3.17022 0
M  V30 3362 C 317.02 0.754961 -4.2261 0
M  V30 3363 C 316.253 1.77367 -5.03365 0
M  V30 3364 O 316.476 2.99976 -4.8515 0
M  V30 3365 O 315.41 1.34744 -5.86624 0
M  V30 3366 H 319.236 -0.334067 -3.01857 0
M  V30 3367 H 316.821 -0.229496 -1.47627 0
M  V30 3368 H 318.703 2.02318 -3.69656 0
M  V30 3369 H 317.378 2.05492 -2.5011 0
M  V30 3370 H 316.285 0.0964244 -3.73976 0
M  V30 3371 H 317.618 0.146545 -4.91982 0
M  V30 3372 N 319.27 1.56325 -0.20005 0
M  V30 3373 C 320.681 1.8408 0.31167 0
M  V30 3374 C 321.032 1.12087 1.61031 0
M  V30 3375 O 320.157 0.38332 2.12978 0
M  V30 3376 C 320.752 3.33932 0.57226 0
M  V30 3377 C 319.311 3.6208 1.02834 0
M  V30 3378 C 318.458 2.77186 0.079634 0
M  V30 3379 H 321.409 1.52939 -0.423729 0
M  V30 3380 H 321.43 3.52971 1.42096 0
M  V30 3381 H 320.942 3.86303 -0.37308 0
M  V30 3382 H 319.043 3.15147 1.98778 0
M  V30 3383 H 319.156 4.7023 0.917624 0
M  V30 3384 H 317.52 2.47951 0.582448 0
M  V30 3385 H 318.303 3.32347 -0.860238 0
M  V30 3386 N 320.748 -0.0735177 1.57428 0
M  V30 3387 C 322.159 -0.625551 1.75908 0
M  V30 3388 C 322.51 -1.78 0.825261 0
M  V30 3389 O 321.635 -2.16398 0.00893964 0
M  V30 3390 C 322.23 -1.14155 3.18989 0
M  V30 3391 C 320.789 -1.63946 3.38819 0
M  V30 3392 C 319.936 -0.558151 2.71625 0
M  V30 3393 H 322.887 0.152647 1.57964 0
M  V30 3394 H 322.908 -2.0104 3.23053 0
M  V30 3395 H 322.42 -0.301116 3.8693 0
M  V30 3396 H 320.521 -2.50321 2.7599 0
M  V30 3397 H 320.634 -1.71759 4.47253 0
M  V30 3398 H 318.998 -1.00278 2.34129 0
M  V30 3399 H 319.781 0.272071 3.4222 0
M  V30 3400 N 322.226 -1.5378 -0.344866 0
M  V30 3401 C 323.174 -1.82373 -1.4437 0
M  V30 3402 C 324.168 -0.694128 -1.54526 0
M  V30 3403 O 325.374 -0.877442 -1.57165 0
M  V30 3404 H 321.749 -0.577765 -0.481344 0
M  V30 3405 H 323.72 -2.74306 -1.17468 0
M  V30 3406 C 322.469 -2.04898 -2.80913 0
M  V30 3407 H 321.792 -2.9127 -2.73865 0
M  V30 3408 H 323.232 -2.28871 -3.56923 0
M  V30 3409 C 321.691 -0.834116 -3.26411 0
M  V30 3410 O 322.221 -0.0328885 -4.01687 0
M  V30 3411 N 320.427 -0.65171 -2.83198 0
M  V30 3412 H 319.974 -1.30489 -2.22104 0
M  V30 3413 H 319.932 0.159686 -3.13994 0
M  V30 3414 N 323.704 0.605807 -1.45491 0
M  V30 3415 C 324.929 1.39625 -1.53361 0
M  V30 3416 C 325.354 1.87351 -0.167645 0
M  V30 3417 O 324.712 1.60243 0.848051 0
M  V30 3418 C 324.76 2.57559 -2.5238 0
M  V30 3419 O 323.864 3.58248 -2.04285 0
M  V30 3420 H 323.205 0.416771 -0.516912 0
M  V30 3421 H 325.735 0.737103 -1.90861 0
M  V30 3422 H 325.745 3.0478 -2.71244 0
M  V30 3423 H 324.42 2.22171 -3.51586 0
M  V30 3424 H 322.997 3.17664 -1.95305 0
M  V30 3425 N 325.182 1.32811 0.848464 0
M  V30 3426 C 326.459 1.14334 1.58704 0
M  V30 3427 C 326.839 -0.293948 2.09043 0
M  V30 3428 O 326.187 -1.29153 1.88499 0
M  V30 3429 C 326.397 2.17626 2.72837 0
M  V30 3430 C 327.745 2.51282 3.42261 0
M  V30 3431 O 328.769 2.16219 2.83068 0
M  V30 3432 O 327.628 3.11413 4.49093 0
M  V30 3433 H 324.722 0.441601 0.699226 0
M  V30 3434 H 327.268 1.44362 0.892053 0
M  V30 3435 H 326.04 3.14211 2.3321 0
M  V30 3436 H 325.663 1.88628 3.50008 0
M  V30 3437 N 326.66 -1.06551 1.16123 0
M  V30 3438 C 327.593 -2.13382 0.80892 0
M  V30 3439 C 328.571 -1.61128 -0.21827 0
M  V30 3440 O 329.755 -1.88219 -0.102952 0
M  V30 3441 C 326.882 -3.38083 0.204303 0
M  V30 3442 C 325.928 -4.09133 1.20469 0
M  V30 3443 S 326.761 -4.5948 2.75024 0
M  V30 3444 C 327.917 -5.87446 2.16005 0
M  V30 3445 H 328.15 -2.42937 1.71373 0
M  V30 3446 H 325.683 -1.18947 0.984428 0
M  V30 3447 H 327.641 -4.10268 -0.138081 0
M  V30 3448 H 326.302 -3.0669 -0.678234 0
M  V30 3449 H 325.495 -4.98685 0.730019 0
M  V30 3450 H 325.097 -3.4295 1.49202 0
M  V30 3451 H 327.389 -6.60065 1.5271 0
M  V30 3452 H 328.332 -6.39639 3.03756 0
M  V30 3453 H 328.74 -5.41354 1.59989 0
M  V30 3454 N 328.138 -0.959301 -1.25041 0
M  V30 3455 C 329.088 -0.453888 -2.23436 0
M  V30 3456 C 330.072 0.459461 -1.542 0
M  V30 3457 O 331.264 0.291752 -1.74579 0
M  V30 3458 C 328.393 0.262667 -3.42294 0
M  V30 3459 C 327.479 -0.669022 -4.1879 0
M  V30 3460 N 327.87 -1.80267 -4.72586 0
M  V30 3461 C 326.168 -0.47814 -4.4343 0
M  V30 3462 C 326.869 -2.38475 -5.3057 0
M  V30 3463 N 325.845 -1.67078 -5.17287 0
M  V30 3464 H 329.647 -1.319 -2.6264 0
M  V30 3465 H 327.161 -0.817358 -1.40332 0
M  V30 3466 H 329.158 0.641911 -4.11929 0
M  V30 3467 H 327.818 1.12432 -3.04613 0
M  V30 3468 H 328.829 -2.18442 -4.69578 0
M  V30 3469 H 325.506 0.340249 -4.16111 0
M  V30 3470 H 326.896 -3.34094 -5.8295 0
M  V30 3471 N 329.616 1.39756 -0.72842 0
M  V30 3472 C 331.027 1.83498 -0.344289 0
M  V30 3473 C 331.378 1.60868 1.12321 0
M  V30 3474 O 330.503 1.09634 1.86573 0
M  V30 3475 C 331.098 3.33114 -0.618112 0
M  V30 3476 C 329.657 3.753 -0.287549 0
M  V30 3477 C 328.804 2.62831 -0.884048 0
M  V30 3478 H 331.755 1.28842 -0.926578 0
M  V30 3479 H 331.776 3.80334 0.112349 0
M  V30 3480 H 331.288 3.49553 -1.68625 0
M  V30 3481 H 329.389 3.64451 0.775012 0
M  V30 3482 H 329.502 4.72945 -0.765512 0
M  V30 3483 H 327.866 2.52792 -0.311149 0
M  V30 3484 H 328.649 2.82078 -1.95671 0
M  V30 3485 N 331.094 0.475555 1.50254 0
M  V30 3486 C 332.027 -0.362381 2.25304 0
M  V30 3487 C 333.005 -0.992393 1.28803 0
M  V30 3488 O 334.189 -1.02746 1.58036 0
M  V30 3489 C 331.316 -1.50813 3.03271 0
M  V30 3490 C 330.362 -0.995044 4.1473 0
M  V30 3491 S 331.195 0.0938436 5.35418 0
M  V30 3492 C 332.351 -1.05567 6.16933 0
M  V30 3493 H 332.584 0.274686 2.96028 0
M  V30 3494 H 330.117 0.260495 1.52187 0
M  V30 3495 H 332.075 -2.16476 3.48781 0
M  V30 3496 H 330.736 -2.11672 2.32064 0
M  V30 3497 H 329.929 -1.85293 4.68703 0
M  V30 3498 H 329.531 -0.416052 3.71679 0
M  V30 3499 H 331.823 -1.96636 6.48337 0
M  V30 3500 H 332.766 -0.555109 7.05921 0
M  V30 3501 H 333.174 -1.31151 5.49053 0
M  V30 3502 N 332.573 -1.56217 0.208337 0
M  V30 3503 C 333.989 -1.58919 -0.14729 0
M  V30 3504 C 334.189 -1.22486 -1.59998 0
M  V30 3505 O 333.245 -0.953849 -2.3379 0
M  V30 3506 C 334.558 -3.00236 0.167048 0
M  V30 3507 C 336.106 -3.12813 0.108219 0
M  V30 3508 C 336.581 -4.56284 0.396049 0
M  V30 3509 N 338.072 -4.61912 0.345142 0
M  V30 3510 C 338.807 -5.70837 0.541523 0
M  V30 3511 N 338.303 -6.88178 0.798968 0
M  V30 3512 N 340.096 -5.60091 0.474867 0
M  V30 3513 H 332.247 -1.78177 1.15614 0
M  V30 3514 H 334.51 -0.827555 0.462446 0
M  V30 3515 H 334.216 -3.31499 1.1748 0
M  V30 3516 H 334.09 -3.7354 -0.524184 0
M  V30 3517 H 336.477 -2.81354 -0.890157 0
M  V30 3518 H 336.558 -2.41866 0.832729 0
M  V30 3519 H 336.202 -4.88458 1.3918 0
M  V30 3520 H 336.132 -5.25439 -0.349502 0
M  V30 3521 H 338.623 -3.77589 0.153316 0
M  V30 3522 H 338.936 -7.67095 0.93727 0
M  V30 3523 H 337.281 -6.89953 0.836013 0
M  V30 3524 H 340.472 -4.67297 0.274064 0
M  V30 3525 H 340.645 -6.44917 0.631326 0
M  V30 3526 N 334.051 0.0651679 -1.57465 0
M  V30 3527 C 335.297 0.764193 -1.87851 0
M  V30 3528 C 335.63 1.76889 -0.801495 0
M  V30 3529 O 334.905 1.93594 0.187528 0
M  V30 3530 C 335.188 1.46625 -3.28897 0
M  V30 3531 C 335.041 0.477515 -4.47258 0
M  V30 3532 C 336.36 2.4095 -3.68281 0
M  V30 3533 H 333.479 0.276351 -0.683227 0
M  V30 3534 H 336.121 0.0272868 -1.8998 0
M  V30 3535 H 334.271 2.09438 -3.27212 0
M  V30 3536 H 335.943 -0.145922 -4.61069 0
M  V30 3537 H 334.186 -0.206576 -4.33308 0
M  V30 3538 H 334.857 1.0065 -5.42746 0
M  V30 3539 H 337.333 1.88209 -3.71102 0
M  V30 3540 H 336.209 2.87072 -4.67847 0
M  V30 3541 H 336.47 3.26049 -2.98571 0
M  V30 3542 N 335.529 1.53961 0.336706 0
M  V30 3543 C 336.459 1.85417 1.41925 0
M  V30 3544 C 337.44 0.709856 1.5458 0
M  V30 3545 O 338.625 0.962396 1.68676 0
M  V30 3546 C 335.755 2.06985 2.78881 0
M  V30 3547 C 334.709 3.22813 2.81026 0
M  V30 3548 C 334.035 3.29727 4.20932 0
M  V30 3549 C 335.335 4.60767 2.45949 0
M  V30 3550 H 337.029 2.76079 1.15848 0
M  V30 3551 H 334.575 1.32839 0.555859 0
M  V30 3552 H 336.528 2.27575 3.54665 0
M  V30 3553 H 335.252 1.13061 3.06406 0
M  V30 3554 H 333.911 3.0209 2.07695 0
M  V30 3555 H 333.559 2.33385 4.45579 0
M  V30 3556 H 333.259 4.07566 4.23277 0
M  V30 3557 H 334.783 3.52536 4.98549 0
M  V30 3558 H 336.197 4.81325 3.11446 0
M  V30 3559 H 334.594 5.4106 2.59566 0
M  V30 3560 H 335.664 4.6391 1.41122 0
M  V30 3561 N 337.007 -0.598083 1.45811 0
M  V30 3562 C 338.254 -1.35681 1.50323 0
M  V30 3563 C 338.582 -1.9393 0.148739 0
M  V30 3564 O 337.837 -1.76094 -0.853787 0
M  V30 3565 C 338.136 -2.51669 2.53766 0
M  V30 3566 C 337.802 -2.11508 3.98215 0
M  V30 3567 C 336.464 -2.0027 4.37545 0
M  V30 3568 C 338.816 -1.80308 4.89018 0
M  V30 3569 C 336.144 -1.56067 5.65562 0
M  V30 3570 C 338.496 -1.37589 6.17456 0
M  V30 3571 C 337.16 -1.24916 6.55708 0
M  V30 3572 H 336.43 -0.496492 0.550069 0
M  V30 3573 H 339.077 -0.675052 1.79207 0
M  V30 3574 H 337.382 -3.25225 2.18486 0
M  V30 3575 H 339.079 -3.09895 2.54492 0
M  V30 3576 H 335.669 -2.21185 3.67117 0
M  V30 3577 H 339.853 -1.87884 4.59362 0
M  V30 3578 H 335.109 -1.44886 5.93985 0
M  V30 3579 H 339.283 -1.12495 6.87254 0
M  V30 3580 H 336.91 -0.904386 7.54801 0
M  V30 3581 N 338.485 -1.33259 -0.841409 0
M  V30 3582 C 339.415 -1.25926 -1.96634 0
M  V30 3583 C 340.396 -0.140349 -1.6952 0
M  V30 3584 O 341.581 -0.329707 -1.91381 0
M  V30 3585 C 338.711 -0.99512 -3.32738 0
M  V30 3586 C 337.665 -2.0767 -3.74242 0
M  V30 3587 C 336.991 -1.66474 -5.08125 0
M  V30 3588 C 338.291 -3.49318 -3.88297 0
M  V30 3589 H 339.985 -2.20046 -2.03027 0
M  V30 3590 H 337.531 -1.05931 -0.975425 0
M  V30 3591 H 339.484 -0.930323 -4.11002 0
M  V30 3592 H 338.208 -0.0183004 -3.26595 0
M  V30 3593 H 336.867 -2.13187 -2.98239 0
M  V30 3594 H 336.515 -0.675012 -4.9845 0
M  V30 3595 H 336.215 -2.3885 -5.36865 0
M  V30 3596 H 337.739 -1.61455 -5.88867 0
M  V30 3597 H 339.153 -3.46316 -4.56879 0
M  V30 3598 H 337.55 -4.20158 -4.28471 0
M  V30 3599 H 338.62 -3.8801 -2.9082 0
M  V30 3600 N 339.963 1.05934 -1.16686 0
M  V30 3601 C 341.212 1.78188 -0.945085 0
M  V30 3602 C 341.525 1.88338 0.528021 0
M  V30 3603 O 342.731 2.57258 0.867799 0
M  V30 3604 C 341.187 3.20277 -1.64167 0
M  V30 3605 C 340.795 3.18281 -3.15279 0
M  V30 3606 C 342.539 3.97039 -1.502 0
M  V30 3607 C 340.446 4.55112 -3.7766 0
M  V30 3608 H 339.376 0.667866 -0.349959 0
M  V30 3609 H 342.027 1.18794 -1.39858 0
M  V30 3610 H 340.409 3.79952 -1.11589 0
M  V30 3611 H 341.583 2.68167 -3.74731 0
M  V30 3612 H 339.898 2.55018 -3.29173 0
M  V30 3613 H 342.495 4.98194 -1.94183 0
M  V30 3614 H 342.838 4.13845 -0.451461 0
M  V30 3615 H 343.371 3.43894 -1.99954 0
M  V30 3616 H 340.11 4.43512 -4.82677 0
M  V30 3617 H 339.63 5.05406 -3.22994 0
M  V30 3618 H 341.309 5.24064 -3.79428 0
M  V30 3619 N 341.441 0.965919 1.2453 0
M  V30 3620 C 342.852 0.665929 1.7442 0
M  V30 3621 C 343.203 -0.818407 1.78316 0
M  V30 3622 O 342.328 -1.64037 1.41141 0
M  V30 3623 C 342.923 1.20211 3.16757 0
M  V30 3624 C 341.482 0.952059 3.6416 0
M  V30 3625 C 340.629 1.33848 2.42858 0
M  V30 3626 H 343.58 1.14144 1.10258 0
M  V30 3627 H 343.601 0.567544 3.76244 0
M  V30 3628 H 343.113 2.28244 3.13889 0
M  V30 3629 H 341.214 -0.112821 3.72429 0
M  V30 3630 H 341.327 1.59645 4.51719 0
M  V30 3631 H 339.691 0.756864 2.43195 0
M  V30 3632 H 340.474 2.42827 2.42673 0
M  V30 3633 N 342.919 -1.39368 0.735821 0
M  V30 3634 C 343.866 -2.30599 0.0963825 0
M  V30 3635 C 344.836 -1.49257 -0.728794 0
M  V30 3636 O 346.021 -1.77941 -0.688588 0
M  V30 3637 C 343.161 -3.35596 -0.804305 0
M  V30 3638 C 342.274 -4.31987 0.0335761 0
M  V30 3639 C 341.409 -5.24053 -0.868461 0
M  V30 3640 C 340.448 -6.12095 -0.0258776 0
M  V30 3641 N 339.585 -6.96514 -0.883893 0
M  V30 3642 H 344.425 -2.8471 0.880002 0
M  V30 3643 H 341.962 -1.40188 0.445619 0
M  V30 3644 H 343.92 -3.95062 -1.34096 0
M  V30 3645 H 342.55 -2.82938 -1.55389 0
M  V30 3646 H 341.602 -3.74133 0.68766 0
M  V30 3647 H 342.914 -4.94074 0.685036 0
M  V30 3648 H 342.068 -5.88549 -1.47293 0
M  V30 3649 H 340.807 -4.62289 -1.5537 0
M  V30 3650 H 339.812 -5.4661 0.591386 0
M  V30 3651 H 341.037 -6.75923 0.656156 0
M  V30 3652 H 338.983 -6.37318 -1.55441 0
M  V30 3653 H 338.9 -7.55448 -0.288931 0
M  V30 3654 H 340.168 -7.65439 -1.4739 0
M  V30 3655 N 344.397 -0.483516 -1.5 0
M  V30 3656 C 345.345 0.318061 -2.30415 0
M  V30 3657 C 346.339 0.978988 -1.38247 0
M  V30 3658 O 347.545 0.908673 -1.55381 0
M  V30 3659 H 343.92 0.121419 -0.742133 0
M  V30 3660 H 345.891 -0.380403 -2.95965 0
M  V30 3661 C 344.64 1.38013 -3.19136 0
M  V30 3662 H 343.963 0.880952 -3.89973 0
M  V30 3663 H 345.403 1.91332 -3.78375 0
M  V30 3664 C 343.862 2.38884 -2.37563 0
M  V30 3665 O 344.392 3.44412 -2.06744 0
M  V30 3666 N 342.598 2.10912 -1.99911 0
M  V30 3667 H 342.145 1.25118 -2.25174 0
M  V30 3668 H 342.103 2.78635 -1.45636 0
M  V30 3669 N 345.875 1.56104 -0.216619 0
M  V30 3670 C 346.823 2.21434 0.712036 0
M  V30 3671 C 347.817 1.19218 1.20348 0
M  V30 3672 O 349.023 1.3731 1.16387 0
M  V30 3673 H 345.398 0.70992 0.248026 0
M  V30 3674 H 347.369 2.98083 0.137558 0
M  V30 3675 C 346.118 2.90434 1.91163 0
M  V30 3676 H 345.441 3.68842 1.54258 0
M  V30 3677 H 346.881 3.39552 2.5393 0
M  V30 3678 C 345.34 1.92635 2.76394 0
M  V30 3679 O 345.87 1.44017 3.74996 0
M  V30 3680 N 344.076 1.60392 2.42328 0
M  V30 3681 H 343.623 2.00122 1.622 0
M  V30 3682 H 343.581 0.952159 2.99635 0
M  V30 3683 N 347.353 -0.0568162 1.57498 0
M  V30 3684 C 348.764 -0.606858 1.76562 0
M  V30 3685 C 349.115 -1.77114 0.844094 0
M  V30 3686 O 348.24 -2.16376 0.0318911 0
M  V30 3687 C 348.835 -1.10766 3.20182 0
M  V30 3688 C 347.394 -1.60344 3.40539 0
M  V30 3689 C 346.541 -0.529311 2.72201 0
M  V30 3690 H 349.492 0.169393 1.57793 0
M  V30 3691 H 349.513 -1.97602 3.25167 0
M  V30 3692 H 349.025 -0.26006 3.87228 0
M  V30 3693 H 347.126 -2.47379 2.78629 0
M  V30 3694 H 347.239 -1.67006 4.4905 0
M  V30 3695 H 345.603 -0.977893 2.35179 0
M  V30 3696 H 346.386 0.308352 3.41912 0
M  V30 3697 N 348.832 -1.54138 -0.328536 0
M  V30 3698 C 350.243 -1.63395 -0.903272 0
M  V30 3699 C 350.594 -0.524828 -1.8905 0
M  V30 3700 O 349.719 0.343068 -2.13663 0
M  V30 3701 C 350.314 -2.9618 -1.64507 0
M  V30 3702 C 348.873 -3.0765 -2.1686 0
M  V30 3703 C 348.02 -2.58933 -0.992416 0
M  V30 3704 H 350.971 -1.58344 -0.106253 0
M  V30 3705 H 350.992 -2.86061 -2.50897 0
M  V30 3706 H 350.504 -3.76884 -0.926302 0
M  V30 3707 H 348.605 -2.31611 -2.91868 0
M  V30 3708 H 348.718 -4.1337 -2.42202 0
M  V30 3709 H 347.082 -2.14706 -1.37016 0
M  V30 3710 H 347.865 -3.42089 -0.288041 0
M  V30 3711 N 350.31 0.590341 -1.46126 0
M  V30 3712 C 351.538 1.37504 -1.54597 0
M  V30 3713 C 351.953 1.87897 -0.184447 0
M  V30 3714 O 351.31 1.63192 0.816984 0
M  V30 3715 C 351.361 2.56779 -2.54454 0
M  V30 3716 O 351.082 2.08476 -3.85317 0
M  V30 3717 C 352.583 3.49427 -2.72792 0
M  V30 3718 H 349.803 0.420325 -0.523037 0
M  V30 3719 H 352.347 0.718383 -1.91467 0
M  V30 3720 H 350.502 3.1845 -2.20609 0
M  V30 3721 H 350.916 2.86097 -4.396 0
M  V30 3722 H 352.39 4.29619 -3.466 0
M  V30 3723 H 352.867 4.00876 -1.79429 0
M  V30 3724 H 353.473 2.93598 -3.07702 0
M  V30 3725 N 351.788 1.33704 0.83433 0
M  V30 3726 C 352.718 1.26967 1.95963 0
M  V30 3727 C 353.699 0.149337 1.69443 0
M  V30 3728 O 354.884 0.339852 1.91203 0
M  V30 3729 C 352.014 1.01275 3.32206 0
M  V30 3730 C 350.968 2.09652 3.73136 0
M  V30 3731 C 350.294 1.69166 5.07235 0
M  V30 3732 C 351.594 3.51372 3.86439 0
M  V30 3733 H 353.288 2.2112 2.01857 0
M  V30 3734 H 350.834 1.06447 0.969793 0
M  V30 3735 H 352.787 0.952106 4.10503 0
M  V30 3736 H 351.511 0.0356203 3.26581 0
M  V30 3737 H 350.17 2.14766 2.97104 0
M  V30 3738 H 349.818 0.701437 4.98085 0
M  V30 3739 H 349.518 2.41694 5.35591 0
M  V30 3740 H 351.042 1.64576 5.88003 0
M  V30 3741 H 352.456 3.48734 4.55036 0
M  V30 3742 H 350.853 4.22425 4.26236 0
M  V30 3743 H 351.923 3.89546 2.88759 0
M  V30 3744 N 353.266 -1.05314 1.17247 0
M  V30 3745 C 354.512 -1.78557 0.961513 0
M  V30 3746 C 354.845 -1.87419 -0.508697 0
M  V30 3747 O 354.12 -1.37307 -1.37757 0
M  V30 3748 C 354.403 -3.22514 1.60176 0
M  V30 3749 C 354.256 -3.21673 3.14399 0
M  V30 3750 C 355.575 -4.20318 1.30463 0
M  V30 3751 H 352.694 -0.6482 0.350723 0
M  V30 3752 H 355.336 -1.23102 1.44727 0
M  V30 3753 H 353.486 -3.69867 1.18871 0
M  V30 3754 H 355.158 -2.82405 3.64753 0
M  V30 3755 H 353.401 -2.60048 3.47214 0
M  V30 3756 H 354.072 -4.23271 3.54324 0
M  V30 3757 H 356.548 -3.81454 1.66229 0
M  V30 3758 H 355.424 -5.19289 1.77848 0
M  V30 3759 H 355.685 -4.41526 0.22521 0
M  V30 3760 N 354.744 -0.972509 -1.24016 0
M  V30 3761 C 355.992 -0.635776 -1.91839 0
M  V30 3762 C 356.313 0.832312 -1.76345 0
M  V30 3763 O 355.583 1.5946 -1.13795 0
M  V30 3764 H 354.163 -0.232157 -0.710009 0
M  V30 3765 H 356.825 -1.23462 -1.50809 0
M  V30 3766 H 355.921 -0.880545 -2.99421 0
M  V30 3767 N 356.222 1.38976 -0.743202 0
M  V30 3768 C 357.499 1.94351 -0.220705 0
M  V30 3769 C 357.879 1.67935 1.2791 0
M  V30 3770 O 357.227 1.01211 2.04862 0
M  V30 3771 C 357.437 3.44426 -0.563171 0
M  V30 3772 C 358.785 4.2144 -0.517046 0
M  V30 3773 O 359.809 3.52661 -0.500846 0
M  V30 3774 O 358.668 5.44032 -0.518806 0
M  V30 3775 H 355.762 0.825879 -0.043047 0
M  V30 3776 H 358.308 1.48429 -0.822618 0
M  V30 3777 H 357.08 3.5712 -1.59941 0
M  V30 3778 H 356.703 3.97543 0.0672883 0
M  V30 3779 N 357.7 0.491464 1.49741 0
M  V30 3780 C 358.947 -0.0564256 2.02421 0
M  V30 3781 C 359.275 -1.37872 1.37192 0
M  V30 3782 O 358.53 -1.89375 0.493508 0
M  V30 3783 C 358.829 -0.267329 3.56399 0
M  V30 3784 C 358.495 0.975775 4.40215 0
M  V30 3785 C 357.157 1.31655 4.62839 0
M  V30 3786 C 359.509 1.80251 4.89039 0
M  V30 3787 C 356.837 2.48375 5.31532 0
M  V30 3788 C 359.189 2.96116 5.59015 0
M  V30 3789 C 357.853 3.30585 5.79888 0
M  V30 3790 H 357.123 -0.0206476 0.740712 0
M  V30 3791 H 359.77 0.649686 1.80143 0
M  V30 3792 H 358.075 -1.05588 3.77304 0
M  V30 3793 H 359.772 -0.705549 3.94744 0
M  V30 3794 H 356.362 0.700315 4.2284 0
M  V30 3795 H 360.546 1.55239 4.71396 0
M  V30 3796 H 355.802 2.7533 5.45897 0
M  V30 3797 H 359.976 3.60509 5.95824 0
M  V30 3798 H 357.603 4.21132 6.32892 0
M  V30 3799 N 359.178 -1.55987 0.224894 0
M  V30 3800 C 360.406 -2.02784 -0.410665 0
M  V30 3801 C 360.821 -1.10464 -1.53112 0
M  V30 3802 O 360.178 -0.114871 -1.82138 0
M  V30 3803 C 360.229 -3.49087 -0.939165 0
M  V30 3804 O 359.95 -4.37887 0.136614 0
M  V30 3805 C 361.451 -4.11543 -1.64763 0
M  V30 3806 H 358.671 -0.663484 -0.100148 0
M  V30 3807 H 361.215 -2.01614 0.342326 0
M  V30 3808 H 359.37 -3.50861 -1.64242 0
M  V30 3809 H 359.784 -5.23849 -0.261155 0
M  V30 3810 H 361.258 -5.15673 -1.96939 0
M  V30 3811 H 361.735 -3.56736 -2.56195 0
M  V30 3812 H 362.341 -4.13629 -0.989503 0
M  V30 3813 N 360.656 0.0484629 -1.57525 0
M  V30 3814 C 361.603 1.05504 -2.05275 0
M  V30 3815 C 362.573 1.37084 -0.937927 0
M  V30 3816 O 363.758 1.47754 -1.2072 0
M  V30 3817 C 360.898 2.35676 -2.52093 0
M  V30 3818 C 360.011 2.10423 -3.77288 0
M  V30 3819 C 359.146 3.34327 -4.12794 0
M  V30 3820 C 358.185 3.04542 -5.30962 0
M  V30 3821 N 357.322 4.20841 -5.61994 0
M  V30 3822 H 362.162 0.640885 -2.91027 0
M  V30 3823 H 359.699 0.304854 -1.43906 0
M  V30 3824 H 361.657 3.11709 -2.77297 0
M  V30 3825 H 360.287 2.7485 -1.69285 0
M  V30 3826 H 359.339 1.24976 -3.59284 0
M  V30 3827 H 360.651 1.84438 -4.63448 0
M  V30 3828 H 359.805 4.1874 -4.39024 0
M  V30 3829 H 358.544 3.63408 -3.25247 0
M  V30 3830 H 357.549 2.18528 -5.04505 0
M  V30 3831 H 358.774 2.76758 -6.20146 0
M  V30 3832 H 356.72 4.4991 -4.77406 0
M  V30 3833 H 356.637 3.98212 -6.42622 0
M  V30 3834 H 357.905 5.06184 -5.92789 0
M  V30 3835 N 362.134 1.5431 0.320358 0
M  V30 3836 C 363.359 1.76954 1.08175 0
M  V30 3837 C 363.784 0.518193 1.80821 0
M  V30 3838 O 363.142 -0.530411 1.73368 0
M  V30 3839 C 363.19 2.96451 2.05303 0
M  V30 3840 O 362.294 2.68221 3.13259 0
M  V30 3841 H 361.635 0.586275 0.311733 0
M  V30 3842 H 364.165 2.01342 0.363676 0
M  V30 3843 H 364.175 3.23887 2.48116 0
M  V30 3844 H 362.85 3.87196 1.51829 0
M  V30 3845 H 361.427 2.51744 2.75099 0
M  V30 3846 N 363.613 -0.582584 1.46437 0
M  V30 3847 C 364.86 -1.34079 1.51753 0
M  V30 3848 C 365.188 -1.93762 0.169299 0
M  V30 3849 O 364.443 -1.76989 -0.835062 0
M  V30 3850 C 364.742 -2.48964 2.56421 0
M  V30 3851 C 364.408 -2.07273 4.00436 0
M  V30 3852 C 363.07 -1.95618 4.39644 0
M  V30 3853 C 365.422 -1.75111 4.90903 0
M  V30 3854 C 362.75 -1.5006 5.67185 0
M  V30 3855 C 365.102 -1.31032 6.18881 0
M  V30 3856 C 363.766 -1.17954 6.56996 0
M  V30 3857 H 363.036 -0.49063 0.555304 0
M  V30 3858 H 365.683 -0.656007 1.79913 0
M  V30 3859 H 363.988 -3.22889 2.21923 0
M  V30 3860 H 365.685 -3.07178 2.57765 0
M  V30 3861 H 362.275 -2.17279 3.69443 0
M  V30 3862 H 366.459 -1.83001 4.61329 0
M  V30 3863 H 361.715 -1.38577 5.95488 0
M  V30 3864 H 365.889 -1.052 6.88408 0
M  V30 3865 H 363.516 -0.824279 7.55718 0
M  V30 3866 N 365.091 -1.34144 -0.827227 0
M  V30 3867 C 366.038 -1.25364 -1.93785 0
M  V30 3868 C 367.008 -0.129774 -1.65592 0
M  V30 3869 O 368.193 -0.310024 -1.88264 0
M  V30 3870 C 365.333 -1.01064 -3.2997 0
M  V30 3871 C 364.446 -2.22185 -3.70484 0
M  V30 3872 C 363.581 -1.91203 -4.95595 0
M  V30 3873 C 362.62 -3.08491 -5.28677 0
M  V30 3874 N 361.757 -2.77421 -6.44967 0
M  V30 3875 H 366.597 -2.20347 -2.00627 0
M  V30 3876 H 364.134 -1.09558 -0.981608 0
M  V30 3877 H 366.092 -0.850139 -4.08446 0
M  V30 3878 H 364.722 -0.0975026 -3.22653 0
M  V30 3879 H 363.774 -2.4917 -2.87434 0
M  V30 3880 H 365.086 -3.0983 -3.90905 0
M  V30 3881 H 364.24 -1.71864 -5.81848 0
M  V30 3882 H 362.979 -1.00812 -4.77167 0
M  V30 3883 H 361.984 -3.28431 -4.40923 0
M  V30 3884 H 363.209 -3.99655 -5.49047 0
M  V30 3885 H 361.155 -1.89601 -6.28003 0
M  V30 3886 H 361.072 -3.58598 -6.6554 0
M  V30 3887 H 362.34 -2.61577 -7.34301 0
M  V30 3888 N 366.569 1.04691 -1.17803 0
M  V30 3889 C 367.479 2.16057 -0.914151 0
M  V30 3890 C 368.495 1.73589 0.119503 0
M  V30 3891 O 369.671 2.01308 -0.0609468 0
M  V30 3892 C 366.736 3.4394 -0.436603 0
M  V30 3893 C 365.797 4.00825 -1.53746 0
M  V30 3894 C 365.03 5.22604 -1.0826 0
M  V30 3895 O 365.253 5.70367 0.0612244 0
M  V30 3896 O 364.187 5.7186 -1.87775 0
M  V30 3897 H 368.013 2.41169 -1.84584 0
M  V30 3898 H 365.598 1.1453 -0.959334 0
M  V30 3899 H 367.48 4.21024 -0.178057 0
M  V30 3900 H 366.155 3.20316 0.466869 0
M  V30 3901 H 365.062 3.25158 -1.84995 0
M  V30 3902 H 366.395 4.28778 -2.41683 0
M  V30 3903 N 368.047 0.979072 1.23499 0
M  V30 3904 C 369.294 0.647219 1.91878 0
M  V30 3905 C 369.622 -0.819074 1.76413 0
M  V30 3906 O 368.877 -1.60616 1.11808 0
M  V30 3907 C 369.176 0.981932 3.43646 0
M  V30 3908 C 368.842 2.43822 3.79291 0
M  V30 3909 C 367.504 2.83622 3.88731 0
M  V30 3910 C 369.856 3.3828 3.96505 0
M  V30 3911 C 367.184 4.16897 4.12812 0
M  V30 3912 C 369.536 4.71197 4.22085 0
M  V30 3913 C 368.2 5.10758 4.29747 0
M  V30 3914 H 367.47 0.236834 0.702133 0
M  V30 3915 H 370.117 1.23268 1.46551 0
M  V30 3916 H 368.422 0.314365 3.90537 0
M  V30 3917 H 370.119 0.703395 3.94783 0
M  V30 3918 H 366.709 2.11966 3.72516 0
M  V30 3919 H 370.893 3.0871 3.88603 0
M  V30 3920 H 366.149 4.47157 4.16966 0
M  V30 3921 H 370.323 5.44348 4.34348 0
M  V30 3922 H 367.95 6.1405 4.48159 0
M  V30 3923 N 369.525 -1.3858 0.750561 0
M  V30 3924 C 370.774 -1.99424 0.302172 0
M  V30 3925 C 371.087 -1.60254 -1.12152 0
M  V30 3926 O 372.293 -2.14046 -1.67023 0
M  V30 3927 C 370.749 -3.56558 0.489307 0
M  V30 3928 C 370.357 -4.04682 1.92189 0
M  V30 3929 C 372.101 -4.24374 0.103478 0
M  V30 3930 C 370.008 -5.54446 2.05775 0
M  V30 3931 H 368.938 -0.746046 0.10923 0
M  V30 3932 H 371.589 -1.58383 0.92667 0
M  V30 3933 H 369.971 -3.95472 -0.204329 0
M  V30 3934 H 371.145 -3.77065 2.64875 0
M  V30 3935 H 369.46 -3.4958 2.26236 0
M  V30 3936 H 372.057 -5.34384 0.183787 0
M  V30 3937 H 372.4 -4.05468 -0.943481 0
M  V30 3938 H 372.933 -3.90688 0.748854 0
M  V30 3939 H 369.672 -5.78252 3.08714 0
M  V30 3940 H 369.192 -5.83816 1.37546 0
M  V30 3941 H 370.871 -6.20099 1.84626 0
M  V30 3942 N 371.003 -0.499398 -1.49478 0
M  V30 3943 C 372.28 0.108629 -1.95298 0
M  V30 3944 C 372.66 1.54282 -1.44084 0
M  V30 3945 O 372.008 2.18944 -0.653908 0
M  V30 3946 C 372.218 0.0229111 -3.48992 0
M  V30 3947 C 373.566 0.197643 -4.2414 0
M  V30 3948 O 374.59 0.0981735 -3.56065 0
M  V30 3949 O 373.449 0.401669 -5.45022 0
M  V30 3950 H 370.543 0.096181 -0.821388 0
M  V30 3951 H 373.089 -0.561822 -1.6013 0
M  V30 3952 H 371.861 -0.977321 -3.78899 0
M  V30 3953 H 371.484 0.733579 -3.90774 0
M  V30 3954 N 372.481 1.55866 -0.233164 0
M  V30 3955 C 373.444 2.1953 0.658715 0
M  V30 3956 C 374.444 1.16053 1.11303 0
M  V30 3957 O 375.634 1.41218 1.01996 0
M  V30 3958 C 372.766 2.82791 1.90373 0
M  V30 3959 H 373.959 2.99721 0.10347 0
M  V30 3960 H 371.512 1.56291 0.0164245 0
M  V30 3961 H 372.247 2.06501 2.50056 0
M  V30 3962 H 372.032 3.58578 1.58632 0
M  V30 3963 H 373.522 3.31556 2.53891 0
M  V30 3964 N 373.959 -0.0401083 1.57549 0
M  V30 3965 C 375.199 -0.738098 1.90608 0
M  V30 3966 C 375.563 -1.73107 0.830539 0
M  V30 3967 O 376.764 -2.4765 1.04513 0
M  V30 3968 C 375.035 -1.39985 3.28845 0
M  V30 3969 S 376.594 -2.12852 3.83718 0
M  V30 3970 H 373.412 -0.24477 0.667539 0
M  V30 3971 H 376.014 0.00693599 1.95499 0
M  V30 3972 H 374.718 -0.663775 4.04997 0
M  V30 3973 H 374.249 -2.18366 3.2723 0
M  V30 3974 H 376.264 -3.39842 3.61555 0
M  V30 3975 N 375.437 -1.54477 -0.31217 0
M  V30 3976 C 376.367 -1.87652 -1.38957 0
M  V30 3977 C 377.348 -0.734358 -1.53431 0
M  V30 3978 O 378.533 -0.98911 -1.67123 0
M  V30 3979 C 375.663 -2.11396 -2.75552 0
M  V30 3980 C 374.617 -3.27243 -2.75855 0
M  V30 3981 C 373.943 -3.36382 -4.15633 0
M  V30 3982 C 375.243 -4.64622 -2.38587 0
M  V30 3983 H 376.937 -2.77887 -1.11442 0
M  V30 3984 H 374.483 -1.33707 -0.534655 0
M  V30 3985 H 376.436 -2.33189 -3.51 0
M  V30 3986 H 375.16 -1.17921 -3.04569 0
M  V30 3987 H 373.819 -3.05356 -2.02863 0
M  V30 3988 H 373.467 -2.40445 -4.41809 0
M  V30 3989 H 373.167 -4.14249 -4.1674 0
M  V30 3990 H 374.691 -3.60422 -4.92877 0
M  V30 3991 H 376.105 -4.86219 -3.03749 0
M  V30 3992 H 374.502 -5.45121 -2.50925 0
M  V30 3993 H 375.572 -4.66097 -1.33723 0
M  V30 3994 N 376.915 0.57481 -1.46744 0
M  V30 3995 C 377.863 1.70435 -1.58286 0
M  V30 3996 C 378.857 1.63287 -0.450956 0
M  V30 3997 O 380.063 1.68685 -0.628121 0
M  V30 3998 H 376.438 0.56364 -0.497809 0
M  V30 3999 H 378.409 1.57833 -2.53242 0
M  V30 4000 C 377.158 3.08815 -1.59776 0
M  V30 4001 H 376.481 3.1499 -2.46214 0
M  V30 4002 H 377.921 3.87588 -1.71905 0
M  V30 4003 C 376.38 3.35301 -0.327812 0
M  V30 4004 O 376.91 3.97511 0.57861 0
M  V30 4005 N 375.116 2.89816 -0.213274 0
M  V30 4006 H 374.663 2.39371 -0.951798 0
M  V30 4007 H 374.621 3.0791 0.63553 0
M  V30 4008 N 378.394 1.34581 0.820102 0
M  V30 4009 C 379.341 1.2639 1.93117 0
M  V30 4010 C 380.311 0.138554 1.65521 0
M  V30 4011 O 381.496 0.320004 1.88097 0
M  V30 4012 C 378.636 1.02812 3.29429 0
M  V30 4013 C 377.749 2.24146 3.693 0
M  V30 4014 C 376.884 1.93829 4.94574 0
M  V30 4015 C 375.923 3.1129 5.27034 0
M  V30 4016 N 375.06 2.80838 6.43486 0
M  V30 4017 H 379.9 2.21408 1.99455 0
M  V30 4018 H 377.437 1.10077 0.975784 0
M  V30 4019 H 379.395 0.871788 4.0799 0
M  V30 4020 H 378.025 0.114612 3.22596 0
M  V30 4021 H 377.077 2.50691 2.86109 0
M  V30 4022 H 378.389 3.11899 3.89257 0
M  V30 4023 H 377.543 1.74948 5.80929 0
M  V30 4024 H 376.282 1.03341 4.76626 0
M  V30 4025 H 375.287 3.30764 4.39175 0
M  V30 4026 H 376.512 4.02561 5.4692 0
M  V30 4027 H 374.458 1.92929 6.26988 0
M  V30 4028 H 374.375 3.62123 6.63629 0
M  V30 4029 H 375.643 2.65467 7.32903 0
M  V30 4030 N 379.872 -1.04064 1.18357 0
M  V30 4031 C 381.149 -1.74252 0.888581 0
M  V30 4032 C 381.529 -2.02138 -0.60856 0
M  V30 4033 O 380.877 -1.66656 -1.56327 0
M  V30 4034 C 381.087 -3.0277 1.73584 0
M  V30 4035 C 382.435 -3.76506 1.96286 0
M  V30 4036 O 383.459 -3.12668 1.70637 0
M  V30 4037 O 382.318 -4.91243 2.39464 0
M  V30 4038 H 379.412 -0.758271 0.330082 0
M  V30 4039 H 381.958 -1.1013 1.2911 0
M  V30 4040 H 380.73 -2.78299 2.75073 0
M  V30 4041 H 380.353 -3.74631 1.33183 0
M  V30 4042 N 381.35 -0.985608 -1.22978 0
M  V30 4043 C 382.761 -0.693593 -1.73338 0
M  V30 4044 C 383.112 0.789935 -1.79595 0
M  V30 4045 O 382.237 1.61771 -1.43733 0
M  V30 4046 C 382.832 -1.25235 -3.14804 0
M  V30 4047 C 381.391 -1.00987 -3.626 0
M  V30 4048 C 380.538 -1.37695 -2.40698 0
M  V30 4049 H 383.489 -1.15884 -1.08428 0
M  V30 4050 H 383.51 -0.627329 -3.75293 0
M  V30 4051 H 383.022 -2.33209 -3.10218 0
M  V30 4052 H 381.123 0.0535565 -3.72562 0
M  V30 4053 H 381.236 -1.66812 -4.49122 0
M  V30 4054 H 379.6 -0.795459 -2.4196 0
M  V30 4055 H 380.383 -2.46657 -2.38779 0
M  V30 4056 N 382.828 1.3818 -0.7579 0
M  V30 4057 C 384.053 2.04827 -0.325679 0
M  V30 4058 C 384.478 1.56788 1.03919 0
M  V30 4059 O 383.836 0.721811 1.66312 0
M  V30 4060 C 383.884 3.58774 -0.362447 0
M  V30 4061 O 382.988 4.07372 0.642033 0
M  V30 4062 H 382.329 0.64833 -0.143402 0
M  V30 4063 H 384.859 1.7677 -1.03023 0
M  V30 4064 H 384.869 4.07434 -0.214844 0
M  V30 4065 H 383.544 3.93096 -1.35824 0
M  V30 4066 H 382.121 3.70068 0.458688 0
M  V30 4067 N 384.306 0.507319 1.49211 0
M  V30 4068 C 385.553 -0.0349529 2.0247 0
M  V30 4069 C 385.881 -1.36409 1.38647 0
M  V30 4070 O 385.136 -1.88841 0.513566 0
M  V30 4071 C 385.435 -0.229513 3.56662 0
M  V30 4072 C 385.101 1.02241 4.39156 0
M  V30 4073 C 383.763 1.36557 4.61417 0
M  V30 4074 C 386.115 1.85428 4.871 0
M  V30 4075 C 383.443 2.53999 5.28868 0
M  V30 4076 C 385.795 3.02028 5.55843 0
M  V30 4077 C 384.459 3.36717 5.76349 0
M  V30 4078 H 383.729 -0.0127902 0.74089 0
M  V30 4079 H 386.376 0.668756 1.79443 0
M  V30 4080 H 384.681 -1.0158 3.78403 0
M  V30 4081 H 386.378 -0.663641 3.9547 0
M  V30 4082 H 382.968 0.745124 4.22073 0
M  V30 4083 H 387.152 1.6023 4.69723 0
M  V30 4084 H 382.408 2.81105 5.42946 0
M  V30 4085 H 386.582 3.66808 5.91967 0
M  V30 4086 H 384.209 4.27821 6.28389 0
M  V30 4087 N 385.784 -1.5574 0.241426 0
M  V30 4088 C 387.2 -1.59196 -0.113548 0
M  V30 4089 C 387.4 -1.25852 -1.57364 0
M  V30 4090 O 386.456 -1.00322 -2.31715 0
M  V30 4091 C 387.769 -2.99814 0.230695 0
M  V30 4092 C 389.317 -3.12513 0.174547 0
M  V30 4093 C 389.792 -4.55342 0.492744 0
M  V30 4094 N 391.283 -4.61076 0.443043 0
M  V30 4095 C 392.018 -5.6956 0.662484 0
M  V30 4096 N 391.514 -6.86328 0.944761 0
M  V30 4097 N 393.307 -5.58957 0.593564 0
M  V30 4098 H 385.458 -1.75685 1.19368 0
M  V30 4099 H 387.721 -0.81756 0.479896 0
M  V30 4100 H 387.427 -3.28932 1.24485 0
M  V30 4101 H 387.301 -3.74568 -0.444833 0
M  V30 4102 H 389.688 -2.83179 -0.830277 0
M  V30 4103 H 389.769 -2.40045 0.883845 0
M  V30 4104 H 389.413 -4.85396 1.4951 0
M  V30 4105 H 389.343 -5.26062 -0.23797 0
M  V30 4106 H 391.834 -3.77179 0.233374 0
M  V30 4107 H 392.147 -7.64935 1.09977 0
M  V30 4108 H 390.492 -6.88025 0.982175 0
M  V30 4109 H 393.683 -4.66611 0.373123 0
M  V30 4110 H 393.856 -6.43433 0.767981 0
M  V30 4111 N 387.262 0.0317525 -1.57568 0
M  V30 4112 C 388.673 0.578692 -1.77505 0
M  V30 4113 C 389.024 1.75749 -0.872164 0
M  V30 4114 O 388.149 2.16298 -0.0663106 0
M  V30 4115 C 388.744 1.05658 -3.21904 0
M  V30 4116 C 387.303 1.54906 -3.43047 0
M  V30 4117 C 386.45 0.485939 -2.73009 0
M  V30 4118 H 389.401 -0.194475 -1.57504 0
M  V30 4119 H 389.422 1.92404 -3.28269 0
M  V30 4120 H 388.934 0.198422 -3.87592 0
M  V30 4121 H 387.035 2.42915 -2.82529 0
M  V30 4122 H 387.148 1.59841 -4.5165 0
M  V30 4123 H 385.512 0.940354 -2.36705 0
M  V30 4124 H 386.295 -0.362709 -3.41379 0
M  V30 4125 N 388.74 1.54641 0.303973 0
M  V30 4126 C 389.968 1.77768 1.05858 0
M  V30 4127 C 390.383 0.535722 1.8104 0
M  V30 4128 O 389.74 -0.494337 1.75677 0
M  V30 4129 C 389.791 2.9834 2.04146 0
M  V30 4130 O 389.512 4.17736 1.32015 0
M  V30 4131 C 391.013 3.33832 2.91669 0
M  V30 4132 H 388.233 0.592961 0.314067 0
M  V30 4133 H 390.777 2.01583 0.344149 0
M  V30 4134 H 388.932 2.76742 2.71096 0
M  V30 4135 H 389.346 4.85693 1.97998 0
M  V30 4136 H 390.82 4.21448 3.56491 0
M  V30 4137 H 391.297 2.51857 3.59812 0
M  V30 4138 H 391.903 3.57579 2.30254 0
M  V30 4139 N 390.218 -0.567019 1.47046 0
M  V30 4140 C 391.181 -1.65696 1.58359 0
M  V30 4141 C 392.181 -1.54097 0.459441 0
M  V30 4142 O 393.371 -1.58432 0.724225 0
M  V30 4143 C 390.503 -3.05197 1.51879 0
M  V30 4144 H 391.696 -1.57019 2.5551 0
M  V30 4145 H 389.249 -0.786148 1.3509 0
M  V30 4146 H 389.984 -3.19417 0.560673 0
M  V30 4147 H 389.769 -3.15025 2.33455 0
M  V30 4148 H 391.259 -3.84511 1.62913 0
M  V30 4149 N 391.696 -1.35014 -0.812953 0
M  V30 4150 C 392.643 -1.27412 -1.92444 0
M  V30 4151 C 393.613 -0.14733 -1.65445 0
M  V30 4152 O 394.798 -0.329974 -1.87925 0
M  V30 4153 C 391.938 -1.04558 -3.28879 0
M  V30 4154 C 391.051 -2.26101 -3.68106 0
M  V30 4155 C 390.186 -1.96449 -4.9354 0
M  V30 4156 C 389.225 -3.14081 -5.25376 0
M  V30 4157 N 388.362 -2.84246 -6.41988 0
M  V30 4158 H 393.202 -2.22463 -1.98278 0
M  V30 4159 H 390.739 -1.10593 -0.969933 0
M  V30 4160 H 392.697 -0.893413 -4.07522 0
M  V30 4161 H 391.327 -0.131719 -3.22531 0
M  V30 4162 H 390.379 -2.52204 -2.84775 0
M  V30 4163 H 391.691 -3.13959 -3.87597 0
M  V30 4164 H 390.845 -1.78026 -5.79993 0
M  V30 4165 H 389.584 -1.05867 -4.76071 0
M  V30 4166 H 388.589 -3.33089 -4.37415 0
M  V30 4167 H 389.814 -4.05455 -5.44778 0
M  V30 4168 H 387.76 -1.96252 -6.25956 0
M  V30 4169 H 387.677 -3.65637 -6.61699 0
M  V30 4170 H 388.945 -2.6935 -7.31485 0
M  V30 4171 N 393.175 1.03435 -1.18907 0
M  V30 4172 C 394.085 2.15075 -0.937015 0
M  V30 4173 C 395.101 1.73706 0.101085 0
M  V30 4174 O 396.277 2.01232 -0.0822948 0
M  V30 4175 C 393.342 3.43458 -0.473057 0
M  V30 4176 C 392.403 3.99172 -1.57989 0
M  V30 4177 C 391.636 5.21427 -1.13797 0
M  V30 4178 O 391.859 5.704 0.000725941 0
M  V30 4179 O 390.793 5.69837 -1.9383 0
M  V30 4180 H 394.619 2.39198 -1.87131 0
M  V30 4181 H 392.204 1.13506 -0.971427 0
M  V30 4182 H 394.086 4.20811 -0.222702 0
M  V30 4183 H 392.761 3.20793 0.432869 0
M  V30 4184 H 391.668 3.23178 -1.88433 0
M  V30 4185 H 393.001 4.2619 -2.46217 0
M  V30 4186 N 394.653 0.992116 1.22453 0
M  V30 4187 C 395.583 0.561677 2.26644 0
M  V30 4188 C 396.564 -0.411055 1.65059 0
M  V30 4189 O 397.749 -0.301861 1.9184 0
M  V30 4190 C 394.879 -0.125247 3.47074 0
M  V30 4191 C 393.833 0.765948 4.21091 0
M  V30 4192 C 393.159 -0.0538484 5.34673 0
M  V30 4193 C 394.459 2.06242 4.79856 0
M  V30 4194 H 396.153 1.43259 2.62902 0
M  V30 4195 H 393.699 0.690283 1.26377 0
M  V30 4196 H 395.652 -0.437764 4.1912 0
M  V30 4197 H 394.376 -1.03069 3.0991 0
M  V30 4198 H 393.035 1.0621 3.50878 0
M  V30 4199 H 392.683 -0.960188 4.9375 0
M  V30 4200 H 392.383 0.539415 5.85119 0
M  V30 4201 H 393.907 -0.360477 6.09535 0
M  V30 4202 H 395.321 1.8139 5.43848 0
M  V30 4203 H 393.718 2.60444 5.40638 0
M  V30 4204 H 394.788 2.74167 3.99951 0
M  V30 4205 N 396.131 -1.37776 0.765217 0
M  V30 4206 C 397.061 -2.32945 0.160953 0
M  V30 4207 C 398.042 -1.55454 -0.690516 0
M  V30 4208 O 399.227 -1.83721 -0.629318 0
M  V30 4209 C 396.357 -3.39669 -0.724031 0
M  V30 4210 C 395.311 -4.27992 0.0256173 0
M  V30 4211 C 394.637 -5.25673 -0.978383 0
M  V30 4212 C 395.937 -5.08309 1.20082 0
M  V30 4213 H 397.631 -2.83728 0.955969 0
M  V30 4214 H 395.177 -1.36416 0.461149 0
M  V30 4215 H 397.13 -4.05219 -1.15652 0
M  V30 4216 H 395.854 -2.87396 -1.5515 0
M  V30 4217 H 394.513 -3.63964 0.438812 0
M  V30 4218 H 394.161 -4.69682 -1.80022 0
M  V30 4219 H 393.861 -5.85625 -0.481378 0
M  V30 4220 H 395.385 -5.94098 -1.40995 0
M  V30 4221 H 396.799 -5.67034 0.845307 0
M  V30 4222 H 395.196 -5.77554 1.62947 0
M  V30 4223 H 396.266 -4.41365 2.00811 0
M  V30 4224 N 397.609 -0.515225 -1.4894 0
M  V30 4225 C 398.556 0.255567 -2.29381 0
M  V30 4226 C 399.526 0.947387 -1.36432 0
M  V30 4227 O 400.711 0.951288 -1.65394 0
M  V30 4228 C 397.851 1.30551 -3.19453 0
M  V30 4229 C 396.964 0.624029 -4.27469 0
M  V30 4230 C 396.099 1.65563 -5.0474 0
M  V30 4231 C 395.138 0.956802 -6.04576 0
M  V30 4232 N 394.275 1.93326 -6.74959 0
M  V30 4233 H 399.115 -0.436607 -2.94784 0
M  V30 4234 H 396.652 -0.227154 -1.45336 0
M  V30 4235 H 398.61 1.92639 -3.70062 0
M  V30 4236 H 397.24 1.96626 -2.56004 0
M  V30 4237 H 396.292 -0.110459 -3.8024 0
M  V30 4238 H 397.604 0.0746092 -4.98744 0
M  V30 4239 H 396.758 2.35119 -5.59289 0
M  V30 4240 H 395.497 2.23893 -4.3327 0
M  V30 4241 H 394.502 0.247097 -5.49244 0
M  V30 4242 H 395.727 0.379814 -6.78037 0
M  V30 4243 H 393.673 2.50591 -6.06251 0
M  V30 4244 H 393.59 1.43489 -7.42258 0
M  V30 4245 H 394.858 2.62126 -7.34105 0
M  V30 4246 N 399.087 1.5561 -0.249682 0
M  V30 4247 C 400.037 2.18157 0.662673 0
M  V30 4248 C 401.021 1.1383 1.13717 0
M  V30 4249 O 402.213 1.39731 1.08648 0
M  V30 4250 C 399.342 2.88672 1.85805 0
M  V30 4251 C 398.428 4.00258 1.40193 0
M  V30 4252 N 398.819 5.01473 0.660213 0
M  V30 4253 C 397.117 4.12864 1.68698 0
M  V30 4254 C 397.818 5.80155 0.423695 0
M  V30 4255 N 396.794 5.34533 0.988721 0
M  V30 4256 H 400.596 2.93769 0.0878688 0
M  V30 4257 H 398.11 1.62316 -0.0521183 0
M  V30 4258 H 400.107 3.31912 2.5227 0
M  V30 4259 H 398.767 2.14564 2.43705 0
M  V30 4260 H 399.778 5.16971 0.310047 0
M  V30 4261 H 396.455 3.4993 2.27717 0
M  V30 4262 H 397.845 6.71688 -0.168616 0
M  V30 4263 N 400.565 -0.0233959 1.57583 0
M  V30 4264 C 401.512 -1.02224 2.06927 0
M  V30 4265 C 402.482 -1.35575 0.959617 0
M  V30 4266 O 403.667 -1.45815 1.23055 0
M  V30 4267 C 400.807 -2.31636 2.5581 0
M  V30 4268 C 399.92 -2.04394 3.80588 0
M  V30 4269 C 399.055 -3.27717 4.18061 0
M  V30 4270 C 398.094 -2.96056 5.3574 0
M  V30 4271 N 397.231 -4.11847 5.68618 0
M  V30 4272 H 402.071 -0.594504 2.9201 0
M  V30 4273 H 399.608 -0.281921 1.44373 0
M  V30 4274 H 401.566 -3.07258 2.82221 0
M  V30 4275 H 400.196 -2.72122 1.73636 0
M  V30 4276 H 399.248 -1.19244 3.61227 0
M  V30 4277 H 400.56 -1.77042 4.66323 0
M  V30 4278 H 399.714 -4.11702 4.4563 0
M  V30 4279 H 398.453 -3.58188 3.30988 0
M  V30 4280 H 397.458 -2.10474 5.07918 0
M  V30 4281 H 398.683 -2.66857 6.24471 0
M  V30 4282 H 396.629 -4.42258 4.84504 0
M  V30 4283 H 396.546 -3.87938 6.48876 0
M  V30 4284 H 397.814 -4.96689 6.00766 0
M  V30 4285 N 402.043 -1.548 -0.295768 0
M  V30 4286 C 403.29 -1.74329 -1.03032 0
M  V30 4287 C 403.618 -0.531915 -1.87085 0
M  V30 4288 O 402.873 0.486052 -1.89568 0
M  V30 4289 C 403.172 -2.98797 -1.961 0
M  V30 4290 C 402.838 -4.32356 -1.2798 0
M  V30 4291 C 401.5 -4.68661 -1.09135 0
M  V30 4292 C 403.852 -5.15128 -0.793243 0
M  V30 4293 C 401.18 -5.85312 -0.403269 0
M  V30 4294 C 403.532 -6.32488 -0.118854 0
M  V30 4295 C 402.196 -6.6745 0.0815043 0
M  V30 4296 H 401.466 -0.637916 -0.37702 0
M  V30 4297 H 404.113 -1.8906 -0.304696 0
M  V30 4298 H 402.418 -2.78869 -2.75207 0
M  V30 4299 H 404.115 -3.11102 -2.53015 0
M  V30 4300 H 400.705 -4.03808 -1.43655 0
M  V30 4301 H 404.889 -4.87575 -0.92653 0
M  V30 4302 H 400.145 -6.1094 -0.237098 0
M  V30 4303 H 404.319 -6.95892 0.266035 0
M  V30 4304 H 401.946 -7.57695 0.616685 0
M  V30 4305 N 403.521 0.559213 -1.47345 0
M  V30 4306 C 404.77 1.31281 -1.53128 0
M  V30 4307 C 405.083 1.94602 -0.197344 0
M  V30 4308 O 406.289 2.71173 -0.133154 0
M  V30 4309 C 404.745 2.38051 -2.69925 0
M  V30 4310 C 404.353 1.8093 -4.0984 0
M  V30 4311 C 406.097 3.14604 -2.84999 0
M  V30 4312 C 404.004 2.85468 -5.1794 0
M  V30 4313 H 402.934 0.493614 -0.569966 0
M  V30 4314 H 405.585 0.594155 -1.73615 0
M  V30 4315 H 403.967 3.12822 -2.42814 0
M  V30 4316 H 405.141 1.12544 -4.46845 0
M  V30 4317 H 403.456 1.16967 -3.99634 0
M  V30 4318 H 406.053 3.92666 -3.62929 0
M  V30 4319 H 406.396 3.68665 -1.93369 0
M  V30 4320 H 406.929 2.46945 -3.1187 0
M  V30 4321 H 403.668 2.36264 -6.1144 0
M  V30 4322 H 403.188 3.52269 -4.85455 0
M  V30 4323 H 404.867 3.48996 -5.44803 0
M  V30 4324 N 404.999 1.35443 0.805782 0
M  V30 4325 C 406.245 1.28952 1.56522 0
M  V30 4326 C 406.578 -0.135597 1.93726 0
M  V30 4327 O 405.853 -1.08516 1.61414 0
M  V30 4328 C 406.136 2.19678 2.85331 0
M  V30 4329 C 405.989 3.7081 2.54598 0
M  V30 4330 C 407.308 2.09495 3.8704 0
M  V30 4331 H 404.427 0.469764 0.567883 0
M  V30 4332 H 407.069 1.65851 0.927001 0
M  V30 4333 H 405.219 1.8834 3.39795 0
M  V30 4334 H 406.891 4.12593 2.06312 0
M  V30 4335 H 405.134 3.91051 1.8778 0
M  V30 4336 H 405.805 4.29679 3.46525 0
M  V30 4337 H 408.281 2.37045 3.41978 0
M  V30 4338 H 407.157 2.75173 4.74943 0
M  V30 4339 H 407.418 1.07714 4.28777 0
M  V30 4340 N 406.477 -1.02803 1.19454 0
M  V30 4341 C 407.424 -2.11099 0.933046 0
M  V30 4342 C 408.394 -1.65571 -0.132447 0
M  V30 4343 O 409.579 -1.90797 0.00987576 0
M  V30 4344 C 406.719 -3.41763 0.478747 0
M  V30 4345 C 405.832 -4.00833 1.6111 0
M  V30 4346 C 404.967 -5.19511 1.10825 0
M  V30 4347 C 404.006 -5.70639 2.21445 0
M  V30 4348 N 403.143 -6.80589 1.72461 0
M  V30 4349 H 407.983 -2.32804 1.86028 0
M  V30 4350 H 405.52 -1.14179 0.927441 0
M  V30 4351 H 407.478 -4.16736 0.196745 0
M  V30 4352 H 406.108 -3.20166 -0.411493 0
M  V30 4353 H 405.16 -3.23066 2.00829 0
M  V30 4354 H 406.472 -4.34794 2.4445 0
M  V30 4355 H 405.626 -6.01645 0.781533 0
M  V30 4356 H 404.365 -4.87086 0.244606 0
M  V30 4357 H 403.37 -4.87116 2.54947 0
M  V30 4358 H 404.595 -6.05102 3.08267 0
M  V30 4359 H 402.541 -6.50016 0.884056 0
M  V30 4360 H 402.458 -7.13681 2.49389 0
M  V30 4361 H 403.726 -7.66317 1.42755 0
M  V30 4362 N 407.956 -0.998596 -1.21925 0
M  V30 4363 C 408.904 -0.546641 -2.26085 0
M  V30 4364 C 409.898 0.405576 -1.64473 0
M  V30 4365 O 411.104 0.277471 -1.77849 0
M  V30 4366 H 407.479 -0.158403 -0.735127 0
M  V30 4367 H 409.45 -1.43645 -2.61551 0
M  V30 4368 C 408.199 0.117388 -3.47502 0
M  V30 4369 H 407.522 -0.606277 -3.95176 0
M  V30 4370 H 408.962 0.396993 -4.22137 0
M  V30 4371 C 407.421 1.35455 -3.0847 0
M  V30 4372 O 407.951 2.44944 -3.18379 0
M  V30 4373 N 406.157 1.23191 -2.63196 0
M  V30 4374 H 405.704 0.341006 -2.55333 0
M  V30 4375 H 405.662 2.06071 -2.37449 0
M  V30 4376 N 409.434 1.37368 -0.772513 0
M  V30 4377 C 410.659 2.0447 -0.347386 0
M  V30 4378 C 411.084 1.57882 1.0225 0
M  V30 4379 O 410.442 0.73941 1.65537 0
M  V30 4380 C 410.49 3.58369 -0.400479 0
M  V30 4381 O 409.594 4.0803 0.598789 0
M  V30 4382 H 408.935 0.646773 -0.15027 0
M  V30 4383 H 411.465 1.75667 -1.04892 0
M  V30 4384 H 411.475 4.07183 -0.258045 0
M  V30 4385 H 410.15 3.91633 -1.39986 0
M  V30 4386 H 408.727 3.70534 0.419411 0
M  V30 4387 N 410.912 0.523116 1.48665 0
M  V30 4388 C 411.859 -0.243398 2.29513 0
M  V30 4389 C 412.829 -0.940139 1.36933 0
M  V30 4390 O 414.014 -0.942503 1.65896 0
M  V30 4391 C 411.154 -1.28855 3.20141 0
M  V30 4392 C 410.267 -0.60135 4.27794 0
M  V30 4393 C 409.402 -1.62884 5.05611 0
M  V30 4394 C 408.441 -0.924726 6.05075 0
M  V30 4395 N 407.578 -1.89744 6.75975 0
M  V30 4396 H 412.418 0.452234 2.94549 0
M  V30 4397 H 409.955 0.234858 1.45213 0
M  V30 4398 H 411.913 -1.90674 3.71079 0
M  V30 4399 H 410.543 -1.95266 2.57043 0
M  V30 4400 H 409.595 0.130623 3.80176 0
M  V30 4401 H 410.907 -0.0481585 4.98777 0
M  V30 4402 H 410.061 -2.32149 5.60528 0
M  V30 4403 H 408.8 -2.21592 4.34452 0
M  V30 4404 H 407.805 -0.217966 5.49368 0
M  V30 4405 H 409.03 -0.343851 6.78229 0
M  V30 4406 H 406.976 -2.47373 6.07571 0
M  V30 4407 H 406.893 -1.3955 7.43009 0
M  V30 4408 H 408.161 -2.58229 7.35485 0
M  V30 4409 N 412.39 -1.55475 0.257931 0
M  V30 4410 C 413.337 -2.21837 -0.636939 0
M  V30 4411 C 414.307 -1.18596 -1.16294 0
M  V30 4412 O 415.492 -1.47081 -1.21539 0
M  V30 4413 C 412.632 -2.9301 -1.82317 0
M  V30 4414 C 411.745 -4.10931 -1.33265 0
M  V30 4415 C 410.88 -4.69791 -2.47931 0
M  V30 4416 C 409.919 -5.7994 -1.95796 0
M  V30 4417 N 409.056 -6.32935 -3.0387 0
M  V30 4418 H 413.896 -2.9793 -0.0643591 0
M  V30 4419 H 411.433 -1.47086 -0.0200031 0
M  V30 4420 H 413.391 -3.3248 -2.52018 0
M  V30 4421 H 412.021 -2.1937 -2.36805 0
M  V30 4422 H 411.073 -3.76699 -0.52931 0
M  V30 4423 H 412.385 -4.90417 -0.910654 0
M  V30 4424 H 411.539 -5.11892 -3.25656 0
M  V30 4425 H 410.278 -3.89545 -2.93438 0
M  V30 4426 H 409.283 -5.37305 -1.16546 0
M  V30 4427 H 410.508 -6.62043 -1.51246 0
M  V30 4428 H 408.454 -5.55591 -3.48791 0
M  V30 4429 H 408.371 -7.07645 -2.66035 0
M  V30 4430 H 409.639 -6.79695 -3.81621 0
M  V30 4431 N 413.868 0.0150385 -1.57593 0
M  V30 4432 C 415.096 0.714395 -1.94175 0
M  V30 4433 C 415.511 1.68135 -0.858841 0
M  V30 4434 O 414.868 1.81766 0.163567 0
M  V30 4435 C 414.919 1.45933 -3.30735 0
M  V30 4436 O 414.64 0.531167 -4.34868 0
M  V30 4437 C 416.141 2.25456 -3.81686 0
M  V30 4438 H 413.361 0.199923 -0.640525 0
M  V30 4439 H 415.905 -0.0316096 -2.04476 0
M  V30 4440 H 414.06 2.15709 -3.21789 0
M  V30 4441 H 414.474 1.05509 -5.13778 0
M  V30 4442 H 415.948 2.731 -4.79709 0
M  V30 4443 H 416.425 3.07485 -3.13607 0
M  V30 4444 H 417.031 1.60727 -3.9376 0
M  V30 4445 N 415.346 1.54954 0.287554 0
M  V30 4446 C 416.571 1.79209 1.04397 0
M  V30 4447 C 416.996 0.556431 1.79682 0
M  V30 4448 O 416.354 -0.493518 1.74454 0
M  V30 4449 C 416.402 3.00739 1.98969 0
M  V30 4450 O 415.506 2.74805 3.075 0
M  V30 4451 H 414.847 0.592755 0.299227 0
M  V30 4452 H 417.377 2.02068 0.320886 0
M  V30 4453 H 417.387 3.29077 2.4119 0
M  V30 4454 H 416.062 3.90329 1.43582 0
M  V30 4455 H 414.639 2.57523 2.69697 0
M  V30 4456 N 416.824 -0.551391 1.4764 0
M  V30 4457 C 418.054 -1.33163 1.57959 0
M  V30 4458 C 418.462 -1.87785 0.23094 0
M  V30 4459 O 417.805 -1.65996 -0.786825 0
M  V30 4460 C 417.867 -2.53449 2.54958 0
M  V30 4461 C 417.531 -2.20071 4.00522 0
M  V30 4462 C 418.528 -1.77017 4.88836 0
M  V30 4463 C 416.213 -2.31252 4.45901 0
M  V30 4464 C 418.207 -1.4558 6.20552 0
M  V30 4465 C 415.894 -1.99427 5.77644 0
M  V30 4466 C 416.892 -1.56659 6.64791 0
M  V30 4467 O 416.58 -1.25242 7.94084 0
M  V30 4468 H 416.312 -0.412022 0.535923 0
M  V30 4469 H 418.866 -0.674186 1.9402 0
M  V30 4470 H 417.096 -3.22104 2.13976 0
M  V30 4471 H 418.785 -3.15523 2.55343 0
M  V30 4472 H 419.551 -1.67867 4.55023 0
M  V30 4473 H 415.43 -2.63498 3.78272 0
M  V30 4474 H 418.974 -1.12125 6.8853 0
M  V30 4475 H 414.871 -2.08211 6.10998 0
M  V30 4476 H 415.639 -1.38822 8.06642 0
M  V30 4477 N 418.302 -1.35869 -0.798587 0
M  V30 4478 C 419.232 -1.32118 -1.92528 0
M  V30 4479 C 420.213 -0.194209 -1.68988 0
M  V30 4480 O 421.398 -0.390426 -1.90235 0
M  V30 4481 C 418.528 -1.10047 -3.29404 0
M  V30 4482 C 417.482 -2.19471 -3.67446 0
M  V30 4483 C 416.808 -1.82555 -5.02571 0
M  V30 4484 C 418.108 -3.61495 -3.76987 0
M  V30 4485 H 419.802 -2.26394 -1.95924 0
M  V30 4486 H 417.348 -1.08981 -0.94123 0
M  V30 4487 H 419.301 -1.06061 -4.07835 0
M  V30 4488 H 418.025 -0.122195 -3.26371 0
M  V30 4489 H 416.684 -2.22568 -2.91306 0
M  V30 4490 H 416.332 -0.833249 -4.9605 0
M  V30 4491 H 416.032 -2.5581 -5.28995 0
M  V30 4492 H 417.556 -1.80108 -5.83432 0
M  V30 4493 H 418.97 -3.60676 -4.4563 0
M  V30 4494 H 417.367 -4.33577 -4.14887 0
M  V30 4495 H 418.437 -3.97065 -2.78329 0
M  V30 4496 N 419.78 1.02168 -1.19998 0
M  V30 4497 C 421.008 1.79296 -1.03249 0
M  V30 4498 C 421.423 1.84103 0.418502 0
M  V30 4499 O 420.78 1.29031 1.29063 0
M  V30 4500 C 420.831 3.24007 -1.60319 0
M  V30 4501 O 420.552 3.19512 -2.99739 0
M  V30 4502 C 422.053 4.17704 -1.48453 0
M  V30 4503 H 419.273 0.564016 -0.363493 0
M  V30 4504 H 421.817 1.28639 -1.58973 0
M  V30 4505 H 419.972 3.7183 -1.08727 0
M  V30 4506 H 420.386 4.10306 -3.26725 0
M  V30 4507 H 421.86 5.17104 -1.93153 0
M  V30 4508 H 422.337 4.37029 -0.436193 0
M  V30 4509 H 422.943 3.7576 -1.99211 0
M  V30 4510 N 421.258 1.00505 1.21394 0
M  V30 4511 C 422.168 0.574806 2.27449 0
M  V30 4512 C 423.184 -0.382206 1.6975 0
M  V30 4513 O 424.36 -0.246027 1.99892 0
M  V30 4514 C 421.425 -0.0917414 3.46579 0
M  V30 4515 C 420.486 0.909758 4.1955 0
M  V30 4516 C 419.719 0.274924 5.32991 0
M  V30 4517 O 419.942 -0.928254 5.62796 0
M  V30 4518 O 418.876 0.985877 5.93771 0
M  V30 4519 H 422.702 1.45744 2.66444 0
M  V30 4520 H 420.287 0.773923 1.27792 0
M  V30 4521 H 422.169 -0.464551 4.18832 0
M  V30 4522 H 420.844 -0.948755 3.09484 0
M  V30 4523 H 419.751 1.33372 3.49518 0
M  V30 4524 H 421.084 1.73636 4.60555 0
M  V30 4525 N 422.737 -1.36956 0.779787 0
M  V30 4526 C 423.667 -2.32761 0.185651 0
M  V30 4527 C 424.648 -1.56177 -0.673989 0
M  V30 4528 O 425.833 -1.84378 -0.609797 0
M  V30 4529 C 422.963 -3.40418 -0.687964 0
M  V30 4530 C 421.917 -4.27941 0.0710102 0
M  V30 4531 C 421.243 -5.26681 -0.922573 0
M  V30 4532 C 422.543 -5.07006 1.25467 0
M  V30 4533 H 424.237 -2.82698 0.986008 0
M  V30 4534 H 421.783 -1.3592 0.475592 0
M  V30 4535 H 423.736 -4.06423 -1.11348 0
M  V30 4536 H 422.46 -2.89025 -1.52093 0
M  V30 4537 H 421.119 -3.63478 0.47739 0
M  V30 4538 H 420.767 -4.71565 -1.7503 0
M  V30 4539 H 420.467 -5.86103 -0.419237 0
M  V30 4540 H 421.991 -5.9556 -1.34686 0
M  V30 4541 H 423.405 -5.66105 0.905401 0
M  V30 4542 H 421.802 -5.75793 1.69063 0
M  V30 4543 H 422.872 -4.3921 2.05481 0
M  V30 4544 N 424.215 -0.530993 -1.48385 0
M  V30 4545 C 425.464 0.00474348 -2.01699 0
M  V30 4546 C 425.777 1.35227 -1.41325 0
M  V30 4547 O 426.983 1.97643 -1.86144 0
M  V30 4548 C 425.439 0.0588473 -3.59852 0
M  V30 4549 C 425.047 -1.28385 -4.2921 0
M  V30 4550 C 426.791 0.543358 -4.21008 0
M  V30 4551 C 424.698 -1.19028 -5.79298 0
M  V30 4552 H 423.628 0.00554317 -0.75398 0
M  V30 4553 H 426.279 -0.674924 -1.70637 0
M  V30 4554 H 424.661 0.803612 -3.8776 0
M  V30 4555 H 425.835 -2.04426 -4.12973 0
M  V30 4556 H 424.15 -1.70418 -3.7993 0
M  V30 4557 H 426.747 0.631351 -5.3096 0
M  V30 4558 H 427.09 1.54937 -3.86394 0
M  V30 4559 H 427.623 -0.145754 -3.97533 0
M  V30 4560 H 424.362 -2.17147 -6.18488 0
M  V30 4561 H 423.882 -0.471246 -5.97946 0
M  V30 4562 H 425.561 -0.881365 -6.40969 0
M  V30 4563 N 425.693 1.55336 -0.266172 0
M  V30 4564 C 426.97 1.91372 0.404486 0
M  V30 4565 C 427.35 1.18935 1.74407 0
M  V30 4566 O 426.698 0.3132 2.26343 0
M  V30 4567 C 426.908 3.44581 0.553593 0
M  V30 4568 C 428.256 4.16196 0.840618 0
M  V30 4569 O 429.28 3.50426 0.638739 0
M  V30 4570 O 428.139 5.32567 1.22618 0
M  V30 4571 H 425.233 0.797194 0.220025 0
M  V30 4572 H 427.779 1.66813 -0.311664 0
M  V30 4573 H 426.551 3.89357 -0.389498 0
M  V30 4574 H 426.174 3.75065 1.31955 0
M  V30 4575 N 427.171 -0.0066808 1.57599 0
M  V30 4576 C 428.587 -0.36267 1.55425 0
M  V30 4577 C 428.787 -1.75209 0.995187 0
M  V30 4578 O 427.843 -2.44616 0.626058 0
M  V30 4579 C 429.156 -0.244017 2.99708 0
M  V30 4580 C 430.704 -0.319451 3.11366 0
M  V30 4581 C 431.179 -0.229998 4.57422 0
M  V30 4582 N 432.67 -0.288105 4.62303 0
M  V30 4583 C 433.405 -0.242127 5.72889 0
M  V30 4584 N 432.901 -0.147133 6.92644 0
M  V30 4585 N 434.694 -0.293502 5.61333 0
M  V30 4586 H 426.845 0.902314 1.92281 0
M  V30 4587 H 429.108 0.34525 0.882896 0
M  V30 4588 H 428.814 0.711678 3.44424 0
M  V30 4589 H 428.688 -1.02877 3.629 0
M  V30 4590 H 431.075 -1.26559 2.66584 0
M  V30 4591 H 431.156 0.495055 2.50964 0
M  V30 4592 H 430.8 0.712566 5.02877 0
M  V30 4593 H 430.73 -1.0629 5.15761 0
M  V30 4594 H 433.221 -0.363126 3.76151 0
M  V30 4595 H 433.534 -0.117763 7.7271 0
M  V30 4596 H 431.879 -0.112857 6.94908 0
M  V30 4597 H 435.07 -0.365864 4.66668 0
M  V30 4598 H 435.243 -0.254204 6.47501 0
M  V30 4599 N 428.649 -1.55105 -0.279332 0
M  V30 4600 C 429.896 -1.75412 -1.01177 0
M  V30 4601 C 430.224 -0.551728 -1.86511 0
M  V30 4602 O 429.479 0.465919 -1.90073 0
M  V30 4603 C 429.778 -3.0086 -1.92919 0
M  V30 4604 C 429.444 -4.33689 -1.23387 0
M  V30 4605 C 428.106 -4.69792 -1.04159 0
M  V30 4606 C 430.458 -5.15941 -0.738562 0
M  V30 4607 C 427.786 -5.85707 -0.341166 0
M  V30 4608 C 430.138 -6.32579 -0.0517636 0
M  V30 4609 C 428.802 -6.67326 0.152292 0
M  V30 4610 H 428.072 -0.641879 -0.370233 0
M  V30 4611 H 430.719 -1.89373 -0.284627 0
M  V30 4612 H 429.024 -2.81773 -2.72234 0
M  V30 4613 H 430.721 -3.13768 -2.49701 0
M  V30 4614 H 427.311 -4.05309 -1.39364 0
M  V30 4615 H 431.495 -4.8853 -0.874764 0
M  V30 4616 H 426.751 -6.11157 -0.172287 0
M  V30 4617 H 430.925 -6.9557 0.339828 0
M  V30 4618 H 428.552 -7.56998 0.697014 0
M  V30 4619 N 430.127 0.543554 -1.4793 0
M  V30 4620 C 431.074 1.64942 -1.6144 0
M  V30 4621 C 432.044 1.59692 -0.456903 0
M  V30 4622 O 433.229 1.78321 -0.678688 0
M  V30 4623 C 430.369 3.03238 -1.64744 0
M  V30 4624 C 429.482 3.18823 -2.91506 0
M  V30 4625 C 428.617 4.47599 -2.86057 0
M  V30 4626 C 427.656 4.56664 -4.07584 0
M  V30 4627 N 426.793 5.76811 -4.00292 0
M  V30 4628 H 431.633 1.52733 -2.55884 0
M  V30 4629 H 429.17 0.7438 -1.2691 0
M  V30 4630 H 431.128 3.83339 -1.64641 0
M  V30 4631 H 429.758 3.1425 -0.738017 0
M  V30 4632 H 428.81 2.32064 -3.01414 0
M  V30 4633 H 430.122 3.21384 -3.81463 0
M  V30 4634 H 429.276 5.35975 -2.84281 0
M  V30 4635 H 428.015 4.47538 -1.93807 0
M  V30 4636 H 427.02 3.66697 -4.09651 0
M  V30 4637 H 428.245 4.58474 -5.00978 0
M  V30 4638 H 426.191 5.77673 -3.10853 0
M  V30 4639 H 426.108 5.80808 -4.8394 0
M  V30 4640 H 427.376 6.67512 -4.02553 0
M  V30 4641 N 431.605 1.3629 0.791371 0
M  V30 4642 C 433.021 1.16661 1.08914 0
M  V30 4643 C 433.221 -0.0106266 2.01497 0
M  V30 4644 O 432.277 -0.676596 2.43266 0
M  V30 4645 C 433.59 2.47656 1.70549 0
M  V30 4646 C 435.138 2.54002 1.82899 0
M  V30 4647 C 435.613 3.85078 2.47949 0
M  V30 4648 N 437.104 3.86413 2.5542 0
M  V30 4649 C 437.839 4.84572 3.06557 0
M  V30 4650 N 437.335 5.93124 3.58016 0
M  V30 4651 N 439.128 4.71994 3.05251 0
M  V30 4652 H 431.279 2.11668 0.176238 0
M  V30 4653 H 433.542 0.937486 0.140796 0
M  V30 4654 H 433.248 3.34059 1.09989 0
M  V30 4655 H 433.122 2.63319 2.70079 0
M  V30 4656 H 435.509 1.68018 2.42598 0
M  V30 4657 H 435.59 2.42239 0.821808 0
M  V30 4658 H 435.234 4.71467 1.88895 0
M  V30 4659 H 435.164 3.94135 3.49235 0
M  V30 4660 H 437.655 3.07988 2.18979 0
M  V30 4661 H 437.968 6.63999 3.95381 0
M  V30 4662 H 436.313 5.96796 3.56173 0
M  V30 4663 H 439.504 3.86321 2.64336 0
M  V30 4664 H 439.677 5.48653 3.44796 0
M  V30 4665 N 433.083 -1.0153 1.20538 0
M  V30 4666 C 434.329 -1.75517 1.02787 0
M  V30 4667 C 434.684 -1.87411 -0.435289 0
M  V30 4668 O 433.977 -1.38982 -1.31889 0
M  V30 4669 C 434.171 -3.17213 1.64654 0
M  V30 4670 C 434 -3.19134 3.16834 0
M  V30 4671 C 432.77 -3.26301 3.85818 0
M  V30 4672 C 434.968 -3.05077 4.14044 0
M  V30 4673 N 432.95 -3.17739 5.25276 0
M  V30 4674 C 434.321 -3.04299 5.40187 0
M  V30 4675 C 436.376 -2.89303 4.05226 0
M  V30 4676 C 435.079 -2.89365 6.58529 0
M  V30 4677 C 437.105 -2.75723 5.23193 0
M  V30 4678 C 436.467 -2.75612 6.48242 0
M  V30 4679 H 432.566 -0.652919 0.430373 0
M  V30 4680 H 435.15 -1.20755 1.52729 0
M  V30 4681 H 433.321 -3.70266 1.17294 0
M  V30 4682 H 435.053 -3.79637 1.40208 0
M  V30 4683 H 431.808 -3.33078 3.36684 0
M  V30 4684 H 432.232 -3.16829 5.98288 0
M  V30 4685 H 436.874 -2.88201 3.09354 0
M  V30 4686 H 434.592 -2.89216 7.54573 0
M  V30 4687 H 438.178 -2.64533 5.18183 0
M  V30 4688 H 437.058 -2.65224 7.37988 0
M  V30 4689 N 434.561 -1.01147 -1.20859 0
M  V30 4690 C 435.508 -0.577354 -2.23462 0
M  V30 4691 C 436.478 0.399922 -1.61214 0
M  V30 4692 O 437.663 0.300515 -1.88419 0
M  V30 4693 C 434.803 0.083372 -3.44999 0
M  V30 4694 C 433.916 -0.937856 -4.21697 0
M  V30 4695 C 433.051 -0.248717 -5.30617 0
M  V30 4696 C 432.09 -1.25705 -5.99053 0
M  V30 4697 N 431.227 -0.594939 -6.99575 0
M  V30 4698 H 436.067 -1.45695 -2.59956 0
M  V30 4699 H 433.604 -0.729428 -1.27741 0
M  V30 4700 H 435.562 0.483535 -4.14388 0
M  V30 4701 H 434.192 0.926645 -3.09214 0
M  V30 4702 H 433.244 -1.45622 -3.51423 0
M  V30 4703 H 434.556 -1.70493 -4.68757 0
M  V30 4704 H 433.71 0.207215 -6.06346 0
M  V30 4705 H 432.449 0.55071 -4.84581 0
M  V30 4706 H 431.454 -1.72343 -5.2209 0
M  V30 4707 H 432.679 -2.05767 -6.47176 0
M  V30 4708 H 430.625 0.184713 -6.5574 0
M  V30 4709 H 430.542 -1.30017 -7.44736 0
M  V30 4710 H 431.81 -0.162427 -7.79331 0
M  V30 4711 N 436.039 1.36541 -0.78704 0
M  V30 4712 C 437.002 2.28413 -0.189778 0
M  V30 4713 C 438.002 1.48719 0.611499 0
M  V30 4714 O 439.192 1.68737 0.432842 0
M  V30 4715 C 436.324 3.32824 0.737638 0
M  V30 4716 H 437.517 2.82743 -0.999831 0
M  V30 4717 H 435.07 1.46065 -0.556298 0
M  V30 4718 H 435.805 2.83646 1.57212 0
M  V30 4719 H 435.59 3.91752 0.165044 0
M  V30 4720 H 437.08 4.0144 1.15047 0
M  V30 4721 N 437.518 0.538854 1.48102 0
M  V30 4722 C 438.428 -0.222648 2.33541 0
M  V30 4723 C 439.444 -0.930225 1.47047 0
M  V30 4724 O 440.62 -0.903211 1.80011 0
M  V30 4725 C 437.685 -1.25064 3.23357 0
M  V30 4726 C 436.746 -0.552469 4.2573 0
M  V30 4727 C 435.979 -1.53149 5.11254 0
M  V30 4728 O 436.202 -2.76487 4.9891 0
M  V30 4729 O 435.136 -1.06602 5.92385 0
M  V30 4730 H 438.962 0.477707 2.99919 0
M  V30 4731 H 436.547 0.299669 1.46364 0
M  V30 4732 H 438.429 -1.8445 3.78888 0
M  V30 4733 H 437.104 -1.93325 2.59629 0
M  V30 4734 H 436.011 0.082114 3.7401 0
M  V30 4735 H 437.344 0.0883526 4.92121 0
M  V30 4736 N 438.996 -1.55193 0.274407 0
M  V30 4737 C 440.244 -1.99187 -0.341902 0
M  V30 4738 C 440.565 -1.16422 -1.56431 0
M  V30 4739 O 439.835 -0.253573 -1.94252 0
M  V30 4740 H 438.415 -0.735721 -0.129317 0
M  V30 4741 H 441.077 -1.91168 0.379578 0
M  V30 4742 H 440.173 -3.05629 -0.632253 0
M  V30 4743 N 440.474 -0.00167713 -1.576 0
M  V30 4744 C 441.424 0.997744 -2.0501 0
M  V30 4745 C 442.408 1.30214 -0.94515 0
M  V30 4746 O 443.6 1.29284 -1.20891 0
M  V30 4747 C 440.729 2.2892 -2.55833 0
M  V30 4748 C 439.815 2.01437 -3.73208 0
M  V30 4749 N 440.206 1.44119 -4.84833 0
M  V30 4750 C 438.504 2.31571 -3.8117 0
M  V30 4751 C 439.205 1.33145 -5.66257 0
M  V30 4752 N 438.181 1.81763 -5.12312 0
M  V30 4753 H 441.983 0.549098 -2.88725 0
M  V30 4754 H 439.497 0.20398 -1.61114 0
M  V30 4755 H 441.494 3.01361 -2.88075 0
M  V30 4756 H 440.154 2.74436 -1.73537 0
M  V30 4757 H 441.165 1.11978 -5.0565 0
M  V30 4758 H 437.842 2.7995 -3.09732 0
M  V30 4759 H 439.232 0.890567 -6.65972 0
M  V30 4760 N 441.952 1.55251 0.271103 0
M  V30 4761 C 443.177 1.80306 1.02491 0
M  V30 4762 C 443.602 0.575457 1.79081 0
M  V30 4763 O 442.96 -0.474987 1.74967 0
M  V30 4764 C 443.008 3.02832 1.95768 0
M  V30 4765 O 442.112 2.78051 3.04568 0
M  V30 4766 H 441.453 0.595896 0.292923 0
M  V30 4767 H 443.983 2.02397 0.299436 0
M  V30 4768 H 443.993 3.31616 2.37686 0
M  V30 4769 H 442.668 3.9183 1.39434 0
M  V30 4770 H 441.245 2.60369 2.66951 0
M  V30 4771 N 443.43 -0.535701 1.48216 0
M  V30 4772 C 444.707 -1.29683 1.46429 0
M  V30 4773 C 445.087 -2.10391 0.172852 0
M  V30 4774 O 444.435 -2.12282 -0.845488 0
M  V30 4775 C 444.645 -2.18313 2.72287 0
M  V30 4776 C 445.993 -2.78639 3.20383 0
M  V30 4777 O 447.017 -2.28604 2.73164 0
M  V30 4778 O 445.876 -3.69636 4.02531 0
M  V30 4779 H 442.97 -0.585026 0.584529 0
M  V30 4780 H 445.516 -0.552827 1.60443 0
M  V30 4781 H 444.288 -1.58421 3.57797 0
M  V30 4782 H 443.911 -2.99971 2.60966 0
M  V30 4783 N 444.908 -1.36708 -0.784132 0
M  V30 4784 C 446.185 -1.21776 -1.53069 0
M  V30 4785 C 446.565 0.193876 -2.10208 0
M  V30 4786 O 445.913 1.20012 -1.94446 0
M  V30 4787 C 446.123 -2.30395 -2.62143 0
M  V30 4788 C 447.471 -2.67325 -3.29882 0
M  V30 4789 O 448.495 -2.29478 -2.7243 0
M  V30 4790 O 447.354 -3.32485 -4.33724 0
M  V30 4791 H 444.448 -0.474459 -0.677361 0
M  V30 4792 H 446.994 -1.48454 -0.82216 0
M  V30 4793 H 445.766 -3.2498 -2.17953 0
M  V30 4794 H 445.389 -2.05112 -3.40609 0
M  V30 4795 N 446.386 1.0089 -1.21074 0
M  V30 4796 C 447.296 2.13039 -0.982425 0
M  V30 4797 C 448.312 1.73881 0.0642161 0
M  V30 4798 O 449.488 2.01012 -0.12496 0
M  V30 4799 C 446.553 3.42377 -0.545803 0
M  V30 4800 C 445.614 3.95731 -1.6642 0
M  V30 4801 C 444.847 5.18896 -1.24832 0
M  V30 4802 O 445.07 5.70273 -0.120265 0
M  V30 4803 O 444.004 5.65597 -2.05873 0
M  V30 4804 H 447.83 2.35175 -1.92163 0
M  V30 4805 H 445.415 1.1142 -0.995285 0
M  V30 4806 H 447.297 4.20244 -0.311912 0
M  V30 4807 H 445.972 3.21639 0.364727 0
M  V30 4808 H 444.879 3.19108 -1.95246 0
M  V30 4809 H 446.212 4.20872 -2.55201 0
M  V30 4810 N 447.864 1.01787 1.20321 0
M  V30 4811 C 449.089 0.727009 1.9424 0
M  V30 4812 C 449.514 -0.706179 1.74341 0
M  V30 4813 O 448.872 -1.48609 1.03852 0
M  V30 4814 C 448.92 1.06958 3.44372 0
M  V30 4815 O 448.024 0.181983 4.11998 0
M  V30 4816 H 447.365 0.269626 0.606793 0
M  V30 4817 H 449.895 1.36158 1.52716 0
M  V30 4818 H 449.905 1.02182 3.94997 0
M  V30 4819 H 448.58 2.11378 3.58179 0
M  V30 4820 H 447.157 0.287378 3.71791 0
M  V30 4821 N 449.342 -1.36122 0.79427 0
M  V30 4822 C 450.619 -1.93398 0.292685 0
M  V30 4823 C 450.999 -1.72567 -1.21589 0
M  V30 4824 O 450.347 -1.08745 -2.00965 0
M  V30 4825 C 450.557 -3.42099 0.690614 0
M  V30 4826 C 451.905 -4.19231 0.673105 0
M  V30 4827 O 452.929 -3.50559 0.631389 0
M  V30 4828 O 451.788 -5.41732 0.720362 0
M  V30 4829 H 448.882 -0.823712 0.0736693 0
M  V30 4830 H 451.428 -1.45273 0.87714 0
M  V30 4831 H 450.2 -3.50938 1.73085 0
M  V30 4832 H 449.823 -3.97519 0.0803036 0
M  V30 4833 N 450.82 -0.546701 -1.47814 0
M  V30 4834 C 452.045 -0.021268 -2.07389 0
M  V30 4835 C 452.47 1.25822 -1.39822 0
M  V30 4836 O 451.828 1.75111 -0.46968 0
M  V30 4837 C 451.876 0.168502 -3.60206 0
M  V30 4838 O 450.98 1.23347 -3.93522 0
M  V30 4839 H 450.321 -0.0466108 -0.662362 0
M  V30 4840 H 452.851 -0.759387 -1.89985 0
M  V30 4841 H 452.861 0.385982 -4.0617 0
M  V30 4842 H 451.536 -0.766075 -4.08784 0
M  V30 4843 H 450.113 0.997319 -3.59316 0
M  V30 4844 N 452.299 1.55045 -0.282633 0
M  V30 4845 C 453.209 2.26491 0.61147 0
M  V30 4846 C 454.225 1.29348 1.16384 0
M  V30 4847 O 455.401 1.62298 1.19253 0
M  V30 4848 C 452.466 2.97779 1.77563 0
M  V30 4849 C 451.527 4.10418 1.25919 0
M  V30 4850 C 450.76 4.78297 2.36786 0
M  V30 4851 O 450.983 4.45426 3.56303 0
M  V30 4852 O 449.917 5.66089 2.04517 0
M  V30 4853 H 453.743 3.03683 0.0324615 0
M  V30 4854 H 451.328 1.49317 -0.0497576 0
M  V30 4855 H 453.21 3.42554 2.45427 0
M  V30 4856 H 451.885 2.23498 2.34159 0
M  V30 4857 H 450.792 3.70082 0.546797 0
M  V30 4858 H 452.125 4.86622 0.738887 0
M  V30 4859 N 453.777 0.010035 1.57597 0
M  V30 4860 C 455.025 -0.671371 1.90623 0
M  V30 4861 C 455.346 -1.73753 0.885151 0
M  V30 4862 O 454.616 -1.95752 -0.0760611 0
M  V30 4863 H 453.196 -0.250968 0.703579 0
M  V30 4864 H 455.858 0.0533325 1.94827 0
M  V30 4865 H 454.954 -1.13626 2.90681 0
M  V30 4866 N 455.255 -1.55392 -0.262866 0
M  V30 4867 C 456.48 -1.80847 -1.01533 0
M  V30 4868 C 456.905 -0.584946 -1.78774 0
M  V30 4869 O 456.263 0.465701 -1.75217 0
M  V30 4870 C 456.311 -3.03866 -1.94159 0
M  V30 4871 O 455.415 -2.79662 -3.03089 0
M  V30 4872 H 454.756 -0.597441 -0.289759 0
M  V30 4873 H 457.286 -2.02553 -0.288698 0
M  V30 4874 H 457.296 -3.32872 -2.35924 0
M  V30 4875 H 455.971 -3.92564 -1.37354 0
M  V30 4876 H 454.548 -2.61781 -2.65566 0
M  V30 4877 N 456.733 0.527833 -1.48498 0
M  V30 4878 C 458.01 1.28905 -1.47115 0
M  V30 4879 C 458.39 2.10297 -0.184007 0
M  V30 4880 O 457.738 2.12728 0.834218 0
M  V30 4881 C 457.948 2.16866 -2.73441 0
M  V30 4882 C 459.296 2.76936 -3.21857 0
M  V30 4883 O 460.32 2.27152 -2.74373 0
M  V30 4884 O 459.179 3.67496 -4.04486 0
M  V30 4885 H 456.273 0.581918 -0.587623 0
M  V30 4886 H 458.819 0.544311 -1.60734 0
M  V30 4887 H 457.591 1.56521 -3.58632 0
M  V30 4888 H 457.214 2.98583 -2.62553 0
M  V30 4889 N 458.211 1.37122 0.776871 0
M  V30 4890 C 459.436 1.354 1.57104 0
M  V30 4891 C 459.861 -0.0595562 1.88006 0
M  V30 4892 O 459.219 -1.03514 1.48844 0
M  V30 4893 C 459.267 2.19472 2.8612 0
M  V30 4894 O 458.371 1.59582 3.80273 0
M  V30 4895 H 457.712 0.462869 0.476076 0
M  V30 4896 H 460.242 1.80577 0.961932 0
M  V30 4897 H 460.252 2.32502 3.35271 0
M  V30 4898 H 458.927 3.22222 2.62956 0
M  V30 4899 H 457.504 1.55564 3.38902 0
M  V30 4900 N 459.689 -1.00246 1.21608 0
M  V30 4901 C 460.599 -2.12515 0.993709 0
M  V30 4902 C 461.615 -1.73913 -0.0549939 0
M  V30 4903 O 462.791 -2.00943 0.135619 0
M  V30 4904 C 459.856 -3.42083 0.563953 0
M  V30 4905 C 458.917 -3.94843 1.68516 0
M  V30 4906 C 458.15 -5.18226 1.27582 0
M  V30 4907 O 458.373 -5.70201 0.150506 0
M  V30 4908 O 457.307 -5.64497 2.0887 0
M  V30 4909 H 461.133 -2.34152 1.93407 0
M  V30 4910 H 458.718 -1.10891 1.00118 0
M  V30 4911 H 460.6 -4.20073 0.334194 0
M  V30 4912 H 459.275 -3.21828 -0.347665 0
M  V30 4913 H 458.182 -3.18068 1.96935 0
M  V30 4914 H 459.515 -4.19512 2.5743 0
M  V30 4915 N 461.167 -1.02423 -1.1978 0
M  V30 4916 C 462.392 -0.7373 -1.93852 0
M  V30 4917 C 462.817 0.696923 -1.74713 0
M  V30 4918 O 462.175 1.48056 -1.04638 0
M  V30 4919 C 462.223 -1.08783 -3.438 0
M  V30 4920 O 461.327 -0.20383 -4.11896 0
M  V30 4921 H 460.668 -0.27284 -0.605355 0
M  V30 4922 H 463.198 -1.36966 -1.51992 0
M  V30 4923 H 463.208 -1.04276 -3.9445 0
M  V30 4924 H 461.883 -2.13274 -3.57053 0
M  V30 4925 H 460.46 -0.307091 -3.71633 0
M  V30 4926 N 462.645 1.35699 -0.801477 0
M  V30 4927 C 463.873 2.03157 -0.391768 0
M  V30 4928 C 464.288 1.60412 0.995668 0
M  V30 4929 O 463.645 0.799228 1.64069 0
M  V30 4930 C 463.696 3.58566 -0.459671 0
M  V30 4931 O 463.417 3.99756 -1.7924 0
M  V30 4932 C 464.918 4.4328 -0.0421205 0
M  V30 4933 H 462.138 0.651688 -0.159825 0
M  V30 4934 H 464.682 1.73426 -1.08368 0
M  V30 4935 H 462.837 3.86963 0.183939 0
M  V30 4936 H 463.251 4.94387 -1.75162 0
M  V30 4937 H 464.725 5.51821 -0.140754 0
M  V30 4938 H 465.202 4.27383 1.01196 0
M  V30 4939 H 465.808 4.20168 -0.658687 0
M  V30 4940 N 464.123 0.554532 1.47522 0
M  V30 4941 C 465.348 0.0322661 2.07375 0
M  V30 4942 C 465.773 -1.25079 1.40488 0
M  V30 4943 O 465.131 -1.74859 0.47896 0
M  V30 4944 C 465.179 -0.149397 3.6029 0
M  V30 4945 O 464.283 -1.21259 3.9417 0
M  V30 4946 H 463.624 0.0501228 0.662106 0
M  V30 4947 H 466.154 0.769452 1.8958 0
M  V30 4948 H 466.164 -0.364437 4.06369 0
M  V30 4949 H 464.839 0.787743 4.08372 0
M  V30 4950 H 463.416 -0.97825 3.5984 0
M  V30 4951 N 465.601 -1.54893 0.290851 0
M  V30 4952 C 467.017 -1.59476 -0.0628432 0
M  V30 4953 C 467.217 -1.30795 -1.5328 0
M  V30 4954 O 466.273 -1.07644 -2.28406 0
M  V30 4955 C 467.586 -2.98928 0.325962 0
M  V30 4956 C 469.134 -3.11799 0.273882 0
M  V30 4957 C 469.609 -4.53544 0.637359 0
M  V30 4958 N 471.1 -4.59433 0.589507 0
M  V30 4959 C 471.835 -5.67164 0.84335 0
M  V30 4960 N 471.331 -6.82975 1.16263 0
M  V30 4961 N 473.124 -5.56786 0.771091 0
M  V30 4962 H 465.275 -1.71798 1.24896 0
M  V30 4963 H 467.538 -0.801879 0.505663 0
M  V30 4964 H 467.244 -3.24805 1.34887 0
M  V30 4965 H 467.118 -3.75793 -0.325441 0
M  V30 4966 H 469.505 -2.85677 -0.739765 0
M  V30 4967 H 469.586 -2.37112 0.959766 0
M  V30 4968 H 469.23 -4.80394 1.64877 0
M  V30 4969 H 469.16 -5.26553 -0.0704866 0
M  V30 4970 H 471.651 -3.76245 0.353252 0
M  V30 4971 H 471.964 -7.61048 1.34257 0
M  V30 4972 H 470.309 -6.84552 1.20057 0
M  V30 4973 H 473.5 -4.65187 0.521383 0
M  V30 4974 H 473.673 -6.40664 0.972295 0
M  V30 4975 N 467.08 -0.0183926 -1.57589 0
M  V30 4976 C 467.99 0.982943 -2.13015 0
M  V30 4977 C 469.006 1.36443 -1.07979 0
M  V30 4978 O 470.182 1.44802 -1.3998 0
M  V30 4979 C 467.247 2.25024 -2.63752 0
M  V30 4980 C 466.308 1.93018 -3.83461 0
M  V30 4981 C 465.541 3.13706 -4.31769 0
M  V30 4982 O 465.764 4.2601 -3.79305 0
M  V30 4983 O 464.698 2.96629 -5.23732 0
M  V30 4984 H 468.524 0.541709 -2.9883 0
M  V30 4985 H 466.109 0.201565 -1.48034 0
M  V30 4986 H 467.991 2.99441 -2.96502 0
M  V30 4987 H 466.666 2.68349 -1.81026 0
M  V30 4988 H 465.573 1.16019 -3.55655 0
M  V30 4989 H 466.906 1.54516 -4.67317 0
M  V30 4990 N 468.558 1.5553 0.254621 0
M  V30 4991 C 469.506 1.9048 1.33492 0
M  V30 4992 C 470.5 0.78304 1.50216 0
M  V30 4993 O 471.706 0.967582 1.51782 0
M  V30 4994 H 468.081 0.604846 0.44684 0
M  V30 4995 H 470.052 2.80688 1.01275 0
M  V30 4996 C 468.801 2.20928 2.68489 0
M  V30 4997 H 468.124 3.06742 2.56417 0
M  V30 4998 H 469.564 2.49291 3.42972 0
M  V30 4999 C 468.023 1.023 3.20993 0
M  V30 5000 O 468.553 0.267027 4.00811 0
M  V30 5001 N 466.759 0.815714 2.78917 0
M  V30 5002 H 466.306 1.43217 2.14119 0
M  V30 5003 H 466.264 0.0236532 3.14391 0
M  V30 5004 N 470.036 -0.519951 1.48776 0
M  V30 5005 C 470.984 -1.64443 1.64503 0
M  V30 5006 C 471.978 -1.61501 0.511248 0
M  V30 5007 O 473.184 -1.66238 0.690294 0
M  V30 5008 H 469.559 -0.544776 0.518385 0
M  V30 5009 H 471.53 -1.48325 2.58925 0
M  V30 5010 C 470.279 -3.02673 1.71127 0
M  V30 5011 H 469.602 -3.05635 2.57735 0
M  V30 5012 H 471.042 -3.80941 1.86172 0
M  V30 5013 C 469.501 -3.33854 0.452032 0
M  V30 5014 O 470.031 -3.99385 -0.430678 0
M  V30 5015 N 468.237 -2.88825 0.32069 0
M  V30 5016 H 467.784 -2.35674 1.03998 0
M  V30 5017 H 467.742 -3.10056 -0.520814 0
M  V30 5018 N 471.514 -1.37532 -0.769588 0
M  V30 5019 C 472.742 -1.36059 -1.55871 0
M  V30 5020 C 473.157 0.053544 -1.88724 0
M  V30 5021 O 472.514 1.01591 -1.5161 0
M  V30 5022 C 472.565 -2.20107 -2.86767 0
M  V30 5023 O 472.286 -3.56009 -2.55321 0
M  V30 5024 C 473.787 -2.26636 -3.80987 0
M  V30 5025 H 471.007 -0.465967 -0.482821 0
M  V30 5026 H 473.551 -1.80901 -0.953686 0
M  V30 5027 H 471.706 -1.78768 -3.43687 0
M  V30 5028 H 472.12 -4.0009 -3.39158 0
M  V30 5029 H 473.594 -2.89763 -4.69831 0
M  V30 5030 H 474.071 -1.2754 -4.20274 0
M  V30 5031 H 474.677 -2.68296 -3.29996 0
M  V30 5032 N 472.992 0.995999 -1.22138 0
M  V30 5033 C 473.942 2.06988 -0.956042 0
M  V30 5034 C 474.926 1.60636 0.0921576 0
M  V30 5035 O 476.118 1.76607 -0.117958 0
M  V30 5036 C 473.247 3.39148 -0.532335 0
M  V30 5037 C 472.333 3.92142 -1.61509 0
M  V30 5038 N 472.724 4.18397 -2.84214 0
M  V30 5039 C 471.022 4.20514 -1.48606 0
M  V30 5040 C 471.723 4.61425 -3.54206 0
M  V30 5041 N 470.699 4.64934 -2.81669 0
M  V30 5042 H 474.501 2.25223 -1.88816 0
M  V30 5043 H 472.015 1.17748 -1.11845 0
M  V30 5044 H 474.012 4.15642 -0.323574 0
M  V30 5045 H 472.672 3.22314 0.392921 0
M  V30 5046 H 473.683 4.06682 -3.20671 0
M  V30 5047 H 470.36 4.12769 -0.626762 0
M  V30 5048 H 471.75 4.90387 -4.59315 0
M  V30 5049 N 474.47 1.03057 1.19235 0
M  V30 5050 C 475.881 0.757449 1.70645 0
M  V30 5051 C 476.232 -0.722735 1.82403 0
M  V30 5052 O 475.357 -1.56325 1.49638 0
M  V30 5053 C 475.952 1.36833 3.09939 0
M  V30 5054 C 474.511 1.14375 3.58602 0
M  V30 5055 C 473.658 1.46533 2.35422 0
M  V30 5056 H 476.609 1.19828 1.04052 0
M  V30 5057 H 476.63 0.766184 3.72706 0
M  V30 5058 H 476.142 2.44562 3.01349 0
M  V30 5059 H 474.243 0.0847542 3.72504 0
M  V30 5060 H 474.356 1.83366 4.42622 0
M  V30 5061 H 472.72 0.884712 2.38841 0
M  V30 5062 H 473.503 2.55349 2.2946 0
M  V30 5063 N 475.948 -1.35272 0.808662 0
M  V30 5064 C 476.858 -2.33546 0.222079 0
M  V30 5065 C 477.874 -1.6196 -0.636011 0
M  V30 5066 O 479.05 -1.93822 -0.547274 0
M  V30 5067 C 476.115 -3.41148 -0.61795 0
M  V30 5068 C 475.176 -4.28507 0.260875 0
M  V30 5069 C 474.409 -5.3097 -0.539156 0
M  V30 5070 O 474.632 -5.42123 -1.77367 0
M  V30 5071 O 473.566 -6.01858 0.0710526 0
M  V30 5072 H 477.392 -2.85515 1.03512 0
M  V30 5073 H 474.977 -1.38079 0.570495 0
M  V30 5074 H 476.859 -4.06889 -1.09634 0
M  V30 5075 H 475.534 -2.91447 -1.40855 0
M  V30 5076 H 474.441 -3.6574 0.786451 0
M  V30 5077 H 475.774 -4.81611 1.01547 0
M  V30 5078 N 477.426 -0.562348 -1.47226 0
M  V30 5079 C 478.672 -0.0485293 -2.03342 0
M  V30 5080 C 479.027 1.28898 -1.42839 0
M  V30 5081 O 478.32 1.82719 -0.576563 0
M  V30 5082 C 478.514 0.0969817 -3.57268 0
M  V30 5083 C 478.343 -1.22487 -4.32697 0
M  V30 5084 C 477.113 -1.79357 -4.72397 0
M  V30 5085 C 479.311 -2.14332 -4.67511 0
M  V30 5086 N 477.293 -3.05493 -5.32491 0
M  V30 5087 C 478.664 -3.25049 -5.27961 0
M  V30 5088 C 480.719 -2.14263 -4.4944 0
M  V30 5089 C 479.422 -4.35804 -5.72248 0
M  V30 5090 C 481.448 -3.24033 -4.94729 0
M  V30 5091 C 480.81 -4.3347 -5.55233 0
M  V30 5092 H 476.909 -0.0600464 -0.779691 0
M  V30 5093 H 479.493 -0.750769 -1.79643 0
M  V30 5094 H 477.664 0.768353 -3.80724 0
M  V30 5095 H 479.396 0.613333 -4.00025 0
M  V30 5096 H 476.151 -1.33093 -4.54514 0
M  V30 5097 H 476.575 -3.698 -5.67077 0
M  V30 5098 H 481.217 -1.30935 -4.02015 0
M  V30 5099 H 478.935 -5.19888 -6.18661 0
M  V30 5100 H 482.521 -3.25073 -4.82513 0
M  V30 5101 H 481.401 -5.17008 -5.89638 0
M  V30 5102 N 478.904 1.54736 -0.299062 0
M  V30 5103 C 480.129 2.04975 0.316254 0
M  V30 5104 C 480.554 1.17501 1.46885 0
M  V30 5105 O 479.912 0.178678 1.80417 0
M  V30 5106 C 479.96 3.52672 0.751997 0
M  V30 5107 O 479.064 3.68226 1.85697 0
M  V30 5108 H 478.405 0.661126 0.0617175 0
M  V30 5109 H 480.935 1.99805 -0.440341 0
M  V30 5110 H 480.945 3.94488 1.04133 0
M  V30 5111 H 479.62 4.158 -0.0911482 0
M  V30 5112 H 478.197 3.38316 1.56834 0
M  V30 5113 N 480.382 0.0267497 1.57577 0
M  V30 5114 C 481.629 -0.652404 1.91703 0
M  V30 5115 C 481.957 -1.72271 0.902936 0
M  V30 5116 O 481.212 -1.955 -0.0884843 0
M  V30 5117 C 481.511 -1.30914 3.3256 0
M  V30 5118 C 481.177 -0.369441 4.49384 0
M  V30 5119 C 479.839 -0.110791 4.81072 0
M  V30 5120 C 482.191 0.275971 5.20469 0
M  V30 5121 C 479.519 0.801116 5.81205 0
M  V30 5122 C 481.871 1.17592 6.21575 0
M  V30 5123 C 480.535 1.44348 6.51705 0
M  V30 5124 H 479.805 -0.238732 0.70149 0
M  V30 5125 H 482.452 0.0880091 1.91298 0
M  V30 5126 H 480.757 -2.12425 3.29216 0
M  V30 5127 H 482.454 -1.84115 3.56234 0
M  V30 5128 H 479.044 -0.581211 4.24641 0
M  V30 5129 H 483.228 0.0892 4.9622 0
M  V30 5130 H 478.484 1.01614 6.02897 0
M  V30 5131 H 482.658 1.68223 6.75777 0
M  V30 5132 H 480.285 2.15176 7.29111 0
M  V30 5133 N 481.861 -1.55662 -0.24637 0
M  V30 5134 C 483.089 -1.81575 -0.991876 0
M  V30 5135 C 483.504 -0.602545 -1.78927 0
M  V30 5136 O 482.861 0.428795 -1.77391 0
M  V30 5137 C 482.912 -3.05711 -1.92933 0
M  V30 5138 O 482.633 -4.22348 -1.1642 0
M  V30 5139 C 484.134 -3.44428 -2.79078 0
M  V30 5140 H 481.354 -0.604209 -0.291844 0
M  V30 5141 H 483.898 -2.02722 -0.269095 0
M  V30 5142 H 482.053 -2.86612 -2.60638 0
M  V30 5143 H 482.467 -4.92706 -1.79835 0
M  V30 5144 H 483.941 -4.34388 -3.40603 0
M  V30 5145 H 484.418 -2.65037 -3.50217 0
M  V30 5146 H 485.024 -3.65879 -2.16824 0
M  V30 5147 N 483.339 0.512053 -1.4905 0
M  V30 5148 C 484.567 1.29116 -1.61669 0
M  V30 5149 C 484.982 1.86655 -0.283787 0
M  V30 5150 O 484.339 1.67293 0.729331 0
M  V30 5151 C 484.39 2.4293 -2.67707 0
M  V30 5152 O 484.111 1.87758 -3.95826 0
M  V30 5153 C 485.612 3.34476 -2.90931 0
M  V30 5154 H 482.832 0.392009 -0.544583 0
M  V30 5155 H 485.376 0.615881 -1.95006 0
M  V30 5156 H 483.531 3.06308 -2.37179 0
M  V30 5157 H 483.945 2.62393 -4.54148 0
M  V30 5158 H 485.419 4.10642 -3.68886 0
M  V30 5159 H 485.896 3.90801 -2.00427 0
M  V30 5160 H 486.502 2.76874 -3.22832 0
M  V30 5161 N 484.817 1.37938 0.762283 0
M  V30 5162 C 486.063 1.33866 1.52341 0
M  V30 5163 C 486.396 -0.0738961 1.94059 0
M  V30 5164 O 485.671 -1.03326 1.64785 0
M  V30 5165 C 485.954 2.28644 2.78197 0
M  V30 5166 C 485.807 3.78722 2.42672 0
M  V30 5167 C 487.126 2.21702 3.80179 0
M  V30 5168 H 484.245 0.487593 0.55265 0
M  V30 5169 H 486.887 1.68717 0.873767 0
M  V30 5170 H 485.037 1.99055 3.33631 0
M  V30 5171 H 486.709 4.18948 1.93081 0
M  V30 5172 H 484.952 3.96827 1.75244 0
M  V30 5173 H 485.623 4.40486 3.3268 0
M  V30 5174 H 488.099 2.47805 3.34263 0
M  V30 5175 H 486.975 2.90143 4.65949 0
M  V30 5176 H 487.236 1.21301 4.25133 0
M  V30 5177 N 486.295 -0.989507 1.22664 0
M  V30 5178 C 487.711 -1.25395 0.987331 0
M  V30 5179 C 487.911 -1.9899 -0.317056 0
M  V30 5180 O 486.967 -2.30141 -1.03882 0
M  V30 5181 C 488.28 -2.06242 2.18826 0
M  V30 5182 C 489.828 -2.19413 2.23219 0
M  V30 5183 C 490.303 -3.03648 3.42873 0
M  V30 5184 N 491.794 -3.11234 3.43056 0
M  V30 5185 C 492.529 -3.7671 4.32293 0
M  V30 5186 N 492.025 -4.44085 5.31752 0
M  V30 5187 N 493.818 -3.73505 4.2006 0
M  V30 5188 H 485.969 -0.496212 2.06522 0
M  V30 5189 H 488.232 -0.281784 0.905153 0
M  V30 5190 H 487.938 -1.59531 3.13437 0
M  V30 5191 H 487.812 -3.06996 2.19165 0
M  V30 5192 H 490.199 -2.65336 1.29154 0
M  V30 5193 H 490.28 -1.18078 2.26917 0
M  V30 5194 H 489.924 -2.58424 4.37241 0
M  V30 5195 H 489.854 -4.05132 3.36416 0
M  V30 5196 H 492.345 -2.63287 2.71088 0
M  V30 5197 H 492.658 -4.91797 5.96117 0
M  V30 5198 H 491.003 -4.42822 5.35662 0
M  V30 5199 H 494.194 -3.20033 3.41609 0
M  V30 5200 H 494.367 -4.24253 4.8981 0
M  V30 5201 N 487.773 -1.03688 -1.18687 0
M  V30 5202 C 488.72 -0.624624 -2.22187 0
M  V30 5203 C 489.69 0.365636 -1.62026 0
M  V30 5204 O 490.875 0.260481 -1.89014 0
M  V30 5205 C 488.015 0.0101738 -3.45099 0
M  V30 5206 C 487.128 -1.02709 -4.19613 0
M  V30 5207 C 486.263 -0.361213 -5.2997 0
M  V30 5208 C 485.302 -1.38384 -5.96252 0
M  V30 5209 N 484.439 -0.743196 -6.98155 0
M  V30 5210 H 489.279 -1.51176 -2.56807 0
M  V30 5211 H 486.816 -0.75636 -1.26165 0
M  V30 5212 H 488.774 0.395528 -4.15321 0
M  V30 5213 H 487.404 0.860848 -3.1111 0
M  V30 5214 H 486.456 -1.53043 -3.48256 0
M  V30 5215 H 487.768 -1.80398 -4.65036 0
M  V30 5216 H 486.922 0.0785537 -6.06649 0
M  V30 5217 H 485.661 0.447799 -4.8564 0
M  V30 5218 H 484.666 -1.83378 -5.18317 0
M  V30 5219 H 485.891 -2.19448 -6.42666 0
M  V30 5220 H 483.837 0.0455789 -6.55984 0
M  V30 5221 H 483.754 -1.45784 -7.41811 0
M  V30 5222 H 485.022 -0.327698 -7.78811 0
M  V30 5223 N 489.251 1.34841 -0.815825 0
M  V30 5224 C 490.198 2.29644 -0.230664 0
M  V30 5225 C 491.168 1.53253 0.640533 0
M  V30 5226 O 492.353 1.81653 0.583672 0
M  V30 5227 C 489.493 3.39715 0.607275 0
M  V30 5228 C 488.606 4.31056 -0.28538 0
M  V30 5229 C 487.741 5.28225 0.561446 0
M  V30 5230 C 486.78 6.11204 -0.331035 0
M  V30 5231 N 485.917 7.00483 0.476302 0
M  V30 5232 H 490.757 2.79095 -1.0445 0
M  V30 5233 H 488.294 1.37351 -0.526595 0
M  V30 5234 H 490.252 4.02208 1.10835 0
M  V30 5235 H 488.882 2.91517 1.38629 0
M  V30 5236 H 487.934 3.69487 -0.904621 0
M  V30 5237 H 489.246 4.89239 -0.97193 0
M  V30 5238 H 488.4 5.96135 1.12728 0
M  V30 5239 H 487.139 4.70562 1.28153 0
M  V30 5240 H 486.144 5.42232 -0.909069 0
M  V30 5241 H 487.369 6.70947 -1.04912 0
M  V30 5242 H 485.315 6.45296 1.18019 0
M  V30 5243 H 485.232 7.55847 -0.152008 0
M  V30 5244 H 486.5 7.7273 1.02512 0
M  V30 5245 N 490.729 0.570148 1.46925 0
M  V30 5246 C 492.14 0.1402 1.86173 0
M  V30 5247 C 492.491 -1.29347 1.47526 0
M  V30 5248 O 491.616 -1.97508 0.884292 0
M  V30 5249 C 492.211 0.247661 3.37894 0
M  V30 5250 C 490.77 -0.127332 3.76185 0
M  V30 5251 C 489.917 0.589349 2.70965 0
M  V30 5252 H 492.868 0.779117 1.38259 0
M  V30 5253 H 492.889 -0.530341 3.76786 0
M  V30 5254 H 492.401 1.29121 3.65991 0
M  V30 5255 H 490.502 -1.17149 3.53704 0
M  V30 5256 H 490.615 0.240238 4.78497 0
M  V30 5257 H 488.979 0.0309824 2.54681 0
M  V30 5258 H 489.762 1.6343 3.01903 0
M  V30 5259 N 492.207 -1.54576 0.307264 0
M  V30 5260 C 493.484 -1.92377 -0.353605 0
M  V30 5261 C 493.864 -1.23517 -1.71192 0
M  V30 5262 O 493.212 -0.373101 -2.25433 0
M  V30 5263 C 493.422 -3.45928 -0.462039 0
M  V30 5264 C 494.77 -4.18278 -0.729975 0
M  V30 5265 O 495.794 -3.51997 -0.545605 0
M  V30 5266 O 494.653 -5.3563 -1.08454 0
M  V30 5267 H 491.747 -0.802747 -0.198812 0
M  V30 5268 H 494.293 -1.65929 0.355783 0
M  V30 5269 H 493.065 -3.88187 0.492592 0
M  V30 5270 H 492.688 -3.78431 -1.21965 0
M  V30 5271 N 493.685 -0.035106 -1.57561 0
M  V30 5272 C 495.096 0.502885 -1.798 0
M  V30 5273 C 495.447 1.71892 -0.945921 0
M  V30 5274 O 494.572 2.15822 -0.157991 0
M  V30 5275 C 495.167 0.919097 -3.26095 0
M  V30 5276 C 493.726 1.40216 -3.49308 0
M  V30 5277 C 492.873 0.369709 -2.74824 0
M  V30 5278 H 495.824 -0.261102 -1.56537 0
M  V30 5279 H 495.845 1.78308 -3.36135 0
M  V30 5280 H 495.357 0.0338526 -3.88085 0
M  V30 5281 H 493.458 2.30714 -2.92578 0
M  V30 5282 H 493.571 1.40541 -4.58023 0
M  V30 5283 H 491.935 0.839113 -2.40481 0
M  V30 5284 H 492.718 -0.507173 -3.39533 0
M  V30 5285 N 495.163 1.55791 0.238111 0
M  V30 5286 C 496.11 1.9105 1.29493 0
M  V30 5287 C 497.08 0.765733 1.47397 0
M  V30 5288 O 498.265 1.02017 1.61236 0
M  V30 5289 C 495.405 2.21826 2.64362 0
M  V30 5290 C 494.518 3.49153 2.54394 0
M  V30 5291 C 493.653 3.69455 3.81676 0
M  V30 5292 C 492.692 4.90353 3.66361 0
M  V30 5293 N 491.829 5.07131 4.85554 0
M  V30 5294 H 496.669 2.81172 0.987233 0
M  V30 5295 H 494.206 1.39179 0.476203 0
M  V30 5296 H 496.164 2.37675 3.4288 0
M  V30 5297 H 494.794 1.34897 2.93262 0
M  V30 5298 H 493.846 3.41587 1.67399 0
M  V30 5299 H 495.158 4.37818 2.38991 0
M  V30 5300 H 494.312 3.85311 4.68636 0
M  V30 5301 H 493.051 2.7904 3.99985 0
M  V30 5302 H 492.056 4.74464 2.77784 0
M  V30 5303 H 493.281 5.82237 3.49538 0
M  V30 5304 H 491.227 4.19654 5.04209 0
M  V30 5305 H 491.144 5.89899 4.72816 0
M  V30 5306 H 492.412 5.27407 5.73988 0
M  V30 5307 N 496.642 -0.504142 1.49319 0
M  V30 5308 C 497.589 -1.60603 1.65756 0
M  V30 5309 C 498.559 -1.58425 0.499082 0
M  V30 5310 O 499.744 -1.76459 0.725728 0
M  V30 5311 C 496.884 -2.98764 1.72726 0
M  V30 5312 C 495.997 -3.10982 2.99857 0
M  V30 5313 C 495.132 -4.39857 2.97824 0
M  V30 5314 C 494.171 -4.45697 4.19548 0
M  V30 5315 N 493.308 -5.65995 4.15444 0
M  V30 5316 H 498.148 -1.45895 2.59843 0
M  V30 5317 H 495.685 -0.709891 1.28837 0
M  V30 5318 H 497.643 -3.78839 1.74747 0
M  V30 5319 H 496.273 -3.12183 0.821075 0
M  V30 5320 H 495.325 -2.23991 3.07461 0
M  V30 5321 H 496.637 -3.11157 3.89849 0
M  V30 5322 H 495.791 -5.2825 2.98391 0
M  V30 5323 H 494.53 -4.42242 2.05604 0
M  V30 5324 H 493.535 -3.55707 4.19229 0
M  V30 5325 H 494.76 -4.4503 5.12957 0
M  V30 5326 H 492.706 -5.69229 3.26059 0
M  V30 5327 H 492.623 -5.67773 4.99169 0
M  V30 5328 H 493.891 -6.56604 4.20109 0
M  V30 5329 N 498.12 -1.38341 -0.754957 0
M  V30 5330 C 499.366 -1.34672 -1.51628 0
M  V30 5331 C 499.699 0.0636036 -1.94096 0
M  V30 5332 O 498.974 1.0245 -1.6533 0
M  V30 5333 C 499.257 -2.30116 -2.76981 0
M  V30 5334 C 499.11 -3.80003 -2.4066 0
M  V30 5335 C 500.429 -2.23715 -3.78998 0
M  V30 5336 H 497.548 -0.490517 -0.550056 0
M  V30 5337 H 500.19 -1.69178 -0.864807 0
M  V30 5338 H 498.34 -2.00821 -3.3257 0
M  V30 5339 H 500.012 -4.19966 -1.90856 0
M  V30 5340 H 498.255 -3.97751 -1.73137 0
M  V30 5341 H 498.926 -4.42244 -3.30339 0
M  V30 5342 H 501.402 -2.49574 -3.32945 0
M  V30 5343 H 500.278 -2.9261 -4.64403 0
M  V30 5344 H 500.539 -1.23554 -4.24484 0
M  V30 5345 N 499.598 0.982988 -1.23187 0
M  V30 5346 C 500.53 2.07729 -0.968572 0
M  V30 5347 C 501.543 1.62702 0.0564821 0
M  V30 5348 O 502.732 1.77603 -0.178733 0
M  V30 5349 C 499.832 3.36071 -0.436974 0
M  V30 5350 C 499.005 4.10081 -1.52159 0
M  V30 5351 C 498.064 5.16701 -0.99532 0
M  V30 5352 O 497.09 5.43727 -1.68373 0
M  V30 5353 N 498.292 5.80226 0.178192 0
M  V30 5354 H 501.057 2.30894 -1.9107 0
M  V30 5355 H 498.618 1.14949 -1.1401 0
M  V30 5356 H 500.61 4.04639 -0.0700051 0
M  V30 5357 H 499.18 3.09893 0.410509 0
M  V30 5358 H 498.4 3.36004 -2.06144 0
M  V30 5359 H 499.688 4.56295 -2.25105 0
M  V30 5360 H 499.086 5.60651 0.754096 0
M  V30 5361 H 497.643 6.49982 0.486449 0
M  V30 5362 N 501.076 1.04316 1.18135 0
M  V30 5363 C 502.024 0.630175 2.23901 0
M  V30 5364 C 503.018 -0.344254 1.65865 0
M  V30 5365 O 504.224 -0.211273 1.78756 0
M  V30 5366 H 500.599 0.185578 0.728742 0
M  V30 5367 H 502.57 1.53253 2.56039 0
M  V30 5368 C 501.319 0.011666 3.47698 0
M  V30 5369 H 500.642 0.752526 3.92654 0
M  V30 5370 H 502.082 -0.240046 4.2332 0
M  V30 5371 C 500.541 -1.23913 3.13285 0
M  V30 5372 O 501.071 -2.32959 3.27251 0
M  V30 5373 N 499.277 -1.13338 2.67587 0
M  V30 5374 H 498.824 -0.246006 2.56423 0
M  V30 5375 H 498.782 -1.97116 2.44934 0
M  V30 5376 N 502.554 -1.34406 0.822964 0
M  V30 5377 C 503.802 -1.97892 0.410245 0
M  V30 5378 C 504.123 -1.65567 -1.03017 0
M  V30 5379 O 503.393 -0.94642 -1.71522 0
M  V30 5380 H 501.973 -0.732049 0.148707 0
M  V30 5381 H 504.635 -1.64043 1.05242 0
M  V30 5382 H 503.731 -3.07579 0.529284 0
M  V30 5383 N 504.032 -0.577932 -1.46621 0
M  V30 5384 C 504.995 0.147805 -2.28723 0
M  V30 5385 C 505.995 0.823325 -1.38123 0
M  V30 5386 O 507.185 0.676011 -1.60548 0
M  V30 5387 C 504.317 1.21853 -3.18378 0
M  V30 5388 H 505.51 -0.573654 -2.94362 0
M  V30 5389 H 503.063 -0.335703 -1.52652 0
M  V30 5390 H 503.798 1.97173 -2.57475 0
M  V30 5391 H 503.583 0.738714 -3.85078 0
M  V30 5392 H 505.073 1.72768 -3.80186 0
M  V30 5393 N 505.51 1.54411 -0.315457 0
M  V30 5394 C 506.42 2.27737 0.56329 0
M  V30 5395 C 507.436 1.31787 1.13614 0
M  V30 5396 O 508.612 1.64791 1.15784 0
M  V30 5397 C 505.677 3.01478 1.71207 0
M  V30 5398 C 504.738 4.12997 1.17185 0
M  V30 5399 C 503.971 4.83212 2.26588 0
M  V30 5400 O 504.194 4.52884 3.46775 0
M  V30 5401 O 503.128 5.70299 1.92463 0
M  V30 5402 H 506.954 3.03683 -0.0319614 0
M  V30 5403 H 504.539 1.49178 -0.0814188 0
M  V30 5404 H 506.421 3.47683 2.38106 0
M  V30 5405 H 505.096 2.28414 2.29366 0
M  V30 5406 H 504.003 3.71159 0.468174 0
M  V30 5407 H 505.336 4.8808 0.635501 0
M  V30 5408 N 506.988 0.0434614 1.5754 0
M  V30 5409 C 507.92 -0.962586 2.08007 0
M  V30 5410 C 508.933 -1.27972 1.00634 0
M  V30 5411 O 510.122 -1.24186 1.28219 0
M  V30 5412 C 507.222 -2.28621 2.50171 0
M  V30 5413 C 506.395 -2.15214 3.80791 0
M  V30 5414 C 505.454 -3.30633 4.09351 0
M  V30 5415 O 504.48 -3.0688 4.79388 0
M  V30 5416 N 505.682 -4.54873 3.60654 0
M  V30 5417 H 508.447 -0.531891 2.94942 0
M  V30 5418 H 506.008 -0.142965 1.61268 0
M  V30 5419 H 508 -3.04689 2.66359 0
M  V30 5420 H 506.57 -2.63283 1.68525 0
M  V30 5421 H 505.79 -1.23785 3.74261 0
M  V30 5422 H 507.078 -2.03475 4.66343 0
M  V30 5423 H 506.476 -4.77063 3.04019 0
M  V30 5424 H 505.033 -5.2806 3.82094 0
M  V30 5425 N 508.466 -1.55915 -0.229846 0
M  V30 5426 C 509.743 -1.6932 -0.979295 0
M  V30 5427 C 510.123 -0.588321 -2.02736 0
M  V30 5428 O 509.471 0.40586 -2.24867 0
M  V30 5429 C 509.681 -3.10305 -1.59724 0
M  V30 5430 C 511.029 -3.6945 -2.09264 0
M  V30 5431 O 512.053 -3.13214 -1.69633 0
M  V30 5432 O 510.912 -4.68072 -2.82082 0
M  V30 5433 H 508.006 -0.689314 -0.456919 0
M  V30 5434 H 510.552 -1.68238 -0.222283 0
M  V30 5435 H 509.324 -3.82177 -0.840039 0
M  V30 5436 H 508.947 -3.1547 -2.42001 0
M  V30 5437 N 509.944 0.496216 -1.49584 0
M  V30 5438 C 510.874 1.60576 -1.69521 0
M  V30 5439 C 511.855 1.61169 -0.543933 0
M  V30 5440 O 513.04 1.77834 -0.78031 0
M  V30 5441 C 510.17 2.99038 -1.76616 0
M  V30 5442 C 509.124 3.13312 -2.91581 0
M  V30 5443 C 508.45 4.53172 -2.83794 0
M  V30 5444 C 509.75 2.92886 -4.32452 0
M  V30 5445 H 511.444 1.44146 -2.62416 0
M  V30 5446 H 508.99 0.692024 -1.26282 0
M  V30 5447 H 510.943 3.76564 -1.8915 0
M  V30 5448 H 509.667 3.16568 -0.80324 0
M  V30 5449 H 508.326 2.38213 -2.78658 0
M  V30 5450 H 507.974 4.67585 -1.854 0
M  V30 5451 H 507.674 4.63662 -3.60958 0
M  V30 5452 H 509.198 5.32752 -2.98342 0
M  V30 5453 H 510.612 3.60178 -4.46032 0
M  V30 5454 H 509.009 3.14844 -5.10875 0
M  V30 5455 H 510.079 1.88966 -4.46565 0
M  V30 5456 N 511.423 1.38739 0.74761 0
M  V30 5457 C 512.669 1.35475 1.50912 0
M  V30 5458 C 513.002 -0.0533093 1.94127 0
M  V30 5459 O 512.277 -1.01572 1.65871 0
M  V30 5460 C 512.56 2.31582 2.75757 0
M  V30 5461 C 512.413 3.81274 2.38642 0
M  V30 5462 C 513.732 2.25722 3.77806 0
M  V30 5463 H 510.851 0.493427 0.547447 0
M  V30 5464 H 513.493 1.69634 0.855823 0
M  V30 5465 H 511.643 2.02582 3.31501 0
M  V30 5466 H 513.315 4.20972 1.88626 0
M  V30 5467 H 511.558 3.98664 1.71025 0
M  V30 5468 H 512.229 4.4399 3.27989 0
M  V30 5469 H 514.705 2.51336 3.31616 0
M  V30 5470 H 513.581 2.95069 4.62845 0
M  V30 5471 H 513.842 1.25803 4.23823 0
M  V30 5472 N 512.901 -0.976442 1.23707 0
M  V30 5473 C 513.833 -2.07212 0.979574 0
M  V30 5474 C 514.846 -1.6273 -0.0478528 0
M  V30 5475 O 516.035 -1.77506 0.18815 0
M  V30 5476 C 513.135 -3.35835 0.45479 0
M  V30 5477 C 512.308 -4.09268 1.54331 0
M  V30 5478 C 511.367 -5.16166 1.02271 0
M  V30 5479 O 510.393 -5.42827 1.71254 0
M  V30 5480 N 511.595 -5.80313 -0.147419 0
M  V30 5481 H 514.36 -2.29878 1.92292 0
M  V30 5482 H 511.921 -1.14343 1.14618 0
M  V30 5483 H 513.913 -4.04597 0.0914631 0
M  V30 5484 H 512.483 -3.10106 -0.394068 0
M  V30 5485 H 511.703 -3.34906 2.07923 0
M  V30 5486 H 512.991 -4.55095 2.27522 0
M  V30 5487 H 512.389 -5.61043 -0.724353 0
M  V30 5488 H 510.946 -6.50231 -0.451972 0
M  V30 5489 N 514.379 -1.04941 -1.1758 0
M  V30 5490 C 515.607 -0.778294 -1.91703 0
M  V30 5491 C 516.022 0.665697 -1.76675 0
M  V30 5492 O 515.379 1.45456 -1.10222 0
M  V30 5493 C 515.43 -1.14628 -3.42845 0
M  V30 5494 O 515.151 -2.53359 -3.57409 0
M  V30 5495 C 516.652 -0.900931 -4.34049 0
M  V30 5496 H 513.872 -0.283167 -0.608323 0
M  V30 5497 H 516.416 -1.39942 -1.49119 0
M  V30 5498 H 514.571 -0.569953 -3.83184 0
M  V30 5499 H 514.985 -2.67709 -4.51035 0
M  V30 5500 H 516.459 -1.20817 -5.38616 0
M  V30 5501 H 516.936 0.163966 -4.38894 0
M  V30 5502 H 517.542 -1.46097 -3.99419 0
M  V30 5503 N 515.857 1.33968 -0.830081 0
M  V30 5504 C 516.787 2.31911 -0.271911 0
M  V30 5505 C 517.768 1.58571 0.61556 0
M  V30 5506 O 518.953 1.86514 0.540946 0
M  V30 5507 C 516.083 3.42737 0.561146 0
M  V30 5508 C 515.037 4.27383 -0.229789 0
M  V30 5509 C 514.363 5.29742 0.726463 0
M  V30 5510 C 515.663 5.02 -1.44197 0
M  V30 5511 H 517.357 2.78844 -1.09025 0
M  V30 5512 H 514.903 1.34061 -0.52571 0
M  V30 5513 H 516.856 4.10276 0.961867 0
M  V30 5514 H 515.58 2.94471 1.41261 0
M  V30 5515 H 514.239 3.61456 -0.611964 0
M  V30 5516 H 513.887 4.77736 1.57408 0
M  V30 5517 H 513.587 5.87255 0.20142 0
M  V30 5518 H 515.111 6.00149 1.12489 0
M  V30 5519 H 516.525 5.62355 -1.11488 0
M  V30 5520 H 514.922 5.69122 -1.90317 0
M  V30 5521 H 515.992 4.31281 -2.2164 0
M  V30 5522 N 517.335 0.585699 1.46312 0
M  V30 5523 C 518.56 0.0762461 2.0726 0
M  V30 5524 C 518.985 -1.22071 1.43109 0
M  V30 5525 O 518.343 -1.73804 0.515942 0
M  V30 5526 C 518.391 -0.0729404 3.60526 0
M  V30 5527 O 517.495 -1.1287 3.96654 0
M  V30 5528 H 516.836 0.0641558 0.660893 0
M  V30 5529 H 519.366 0.809492 1.87905 0
M  V30 5530 H 519.376 -0.278158 4.07051 0
M  V30 5531 H 518.051 0.874188 4.06609 0
M  V30 5532 H 516.628 -0.901703 3.61834 0
M  V30 5533 N 518.813 -1.54241 0.323641 0
M  V30 5534 C 520.053 -2.0248 -0.279502 0
M  V30 5535 C 520.417 -1.20672 -1.49339 0
M  V30 5536 O 521.618 -1.58715 -2.1694 0
M  V30 5537 C 519.889 -3.52238 -0.605266 0
M  V30 5538 S 521.448 -4.22411 -1.18805 0
M  V30 5539 H 518.266 -0.705957 -0.0845313 0
M  V30 5540 H 520.868 -1.90089 0.456781 0
M  V30 5541 H 519.572 -4.094 0.286339 0
M  V30 5542 H 519.103 -3.6871 -1.37174 0
M  V30 5543 H 521.118 -4.30075 -2.47487 0
M  V30 5544 N 520.291 -0.0518155 -1.57515 0
M  V30 5545 C 521.221 0.920283 -2.146 0
M  V30 5546 C 522.202 1.32406 -1.06783 0
M  V30 5547 O 523.387 1.39866 -1.34726 0
M  V30 5548 C 520.517 2.1949 -2.6915 0
M  V30 5549 C 519.471 1.93116 -3.81956 0
M  V30 5550 C 518.797 3.27037 -4.23026 0
M  V30 5551 C 520.097 1.25225 -5.07066 0
M  V30 5552 H 521.791 0.444801 -2.96077 0
M  V30 5553 H 519.337 0.212508 -1.42423 0
M  V30 5554 H 521.29 2.87894 -3.07725 0
M  V30 5555 H 520.014 2.69244 -1.84865 0
M  V30 5556 H 518.673 1.27123 -3.43854 0
M  V30 5557 H 518.321 3.74595 -3.3569 0
M  V30 5558 H 518.021 3.10189 -4.99056 0
M  V30 5559 H 519.545 3.96673 -4.64202 0
M  V30 5560 H 520.959 1.83666 -5.43083 0
M  V30 5561 H 519.356 1.18702 -5.88243 0
M  V30 5562 H 520.426 0.228382 -4.84362 0
M  V30 5563 N 521.769 1.56035 0.221574 0
M  V30 5564 C 522.994 1.83476 0.967026 0
M  V30 5565 C 523.419 0.632139 1.7716 0
M  V30 5566 O 522.777 -0.419082 1.7639 0
M  V30 5567 C 522.825 3.08907 1.86034 0
M  V30 5568 O 521.929 2.876 2.95567 0
M  V30 5569 H 521.27 0.604913 0.273817 0
M  V30 5570 H 523.8 2.03247 0.234893 0
M  V30 5571 H 523.81 3.3901 2.27016 0
M  V30 5572 H 522.485 3.96068 1.26898 0
M  V30 5573 H 521.062 2.6873 2.58532 0
M  V30 5574 N 523.247 -0.488276 1.49845 0
M  V30 5575 C 524.18 -1.60651 1.62069 0
M  V30 5576 C 525.158 -1.5568 0.469308 0
M  V30 5577 O 526.342 -1.75553 0.686551 0
M  V30 5578 C 523.469 -2.99197 1.58741 0
M  V30 5579 C 522.515 -3.22385 2.79232 0
M  V30 5580 S 523.348 -3.04133 4.40753 0
M  V30 5581 C 524.504 -4.45052 4.4009 0
M  V30 5582 H 524.737 -1.50039 2.56662 0
M  V30 5583 H 522.27 -0.674371 1.38894 0
M  V30 5584 H 524.228 -3.79081 1.57506 0
M  V30 5585 H 522.889 -3.07213 0.654136 0
M  V30 5586 H 522.082 -4.23557 2.73159 0
M  V30 5587 H 521.684 -2.50245 2.77945 0
M  V30 5588 H 523.976 -5.37375 4.12594 0
M  V30 5589 H 524.919 -4.56172 5.41583 0
M  V30 5590 H 525.327 -4.26327 3.70008 0
M  V30 5591 N 524.725 -1.39134 -0.740242 0
M  V30 5592 C 525.974 -1.35384 -1.49512 0
M  V30 5593 C 526.287 0.04919 -1.95538 0
M  V30 5594 O 527.493 0.209257 -2.70692 0
M  V30 5595 C 525.949 -2.37812 -2.70136 0
M  V30 5596 C 525.557 -3.83804 -2.31081 0
M  V30 5597 C 527.301 -2.4313 -3.47977 0
M  V30 5598 C 525.208 -4.77886 -3.48395 0
M  V30 5599 H 524.138 -0.503297 -0.561434 0
M  V30 5600 H 526.789 -1.64754 -0.807974 0
M  V30 5601 H 525.171 -2.01505 -3.40899 0
M  V30 5602 H 526.345 -4.29123 -1.67898 0
M  V30 5603 H 524.66 -3.81732 -1.66343 0
M  V30 5604 H 527.257 -3.10614 -4.35228 0
M  V30 5605 H 527.6 -1.45423 -3.90074 0
M  V30 5606 H 528.133 -2.78304 -2.84239 0
M  V30 5607 H 524.872 -5.76836 -3.11353 0
M  V30 5608 H 524.392 -4.3725 -4.10576 0
M  V30 5609 H 526.071 -4.96538 -4.148 0
M  V30 5610 N 526.204 0.969867 -1.24223 0
M  V30 5611 C 527.453 1.70687 -1.07466 0
M  V30 5612 C 527.766 1.91736 0.386861 0
M  V30 5613 O 528.972 2.62986 0.674581 0
M  V30 5614 C 527.428 3.07217 -1.87472 0
M  V30 5615 C 527.036 2.94018 -3.3802 0
M  V30 5616 C 528.78 3.84804 -1.79237 0
M  V30 5617 C 526.687 4.25844 -4.10379 0
M  V30 5618 H 525.617 0.640067 -0.398536 0
M  V30 5619 H 528.268 1.08092 -1.48285 0
M  V30 5620 H 526.65 3.70628 -1.39466 0
M  V30 5621 H 527.824 2.39632 -3.9359 0
M  V30 5622 H 526.139 2.29898 -3.47183 0
M  V30 5623 H 528.736 4.82417 -2.30603 0
M  V30 5624 H 529.079 4.09356 -0.757197 0
M  V30 5625 H 529.612 3.28115 -2.24912 0
M  V30 5626 H 526.351 4.06486 -5.14246 0
M  V30 5627 H 525.871 4.80054 -3.59594 0
M  V30 5628 H 527.55 4.94475 -4.17257 0
M  V30 5629 N 527.682 1.05563 1.17022 0
M  V30 5630 C 528.91 0.78845 1.91288 0
M  V30 5631 C 529.325 -0.656318 1.77025 0
M  V30 5632 O 528.682 -1.44869 1.10992 0
M  V30 5633 C 528.733 1.16444 3.42232 0
M  V30 5634 O 528.454 2.5525 3.5606 0
M  V30 5635 C 529.955 0.923937 4.33565 0
M  V30 5636 H 527.175 0.286389 0.606813 0
M  V30 5637 H 529.719 1.4073 1.48375 0
M  V30 5638 H 527.874 0.590266 3.82877 0
M  V30 5639 H 528.288 2.70097 4.49609 0
M  V30 5640 H 529.762 1.23672 5.37968 0
M  V30 5641 H 530.239 -0.140688 4.38975 0
M  V30 5642 H 530.845 1.48214 3.98639 0
M  V30 5643 N 529.16 -1.33526 0.837174 0
M  V30 5644 C 530.571 -1.80182 0.489017 0
M  V30 5645 C 530.922 -1.69285 -0.991826 0
M  V30 5646 O 530.047 -1.24113 -1.77271 0
M  V30 5647 C 530.642 -3.27149 0.880866 0
M  V30 5648 C 529.201 -3.71828 0.584872 0
M  V30 5649 C 528.348 -2.54974 1.09011 0
M  V30 5650 H 531.299 -1.21071 1.02603 0
M  V30 5651 H 531.32 -3.80024 0.190239 0
M  V30 5652 H 530.832 -3.35048 1.95869 0
M  V30 5653 H 528.933 -3.69457 -0.48295 0
M  V30 5654 H 529.046 -4.65366 1.13892 0
M  V30 5655 H 527.41 -2.4952 0.511047 0
M  V30 5656 H 528.193 -2.65637 2.17467 0
M  V30 5657 N 530.638 -0.59345 -1.46 0
M  V30 5658 C 531.601 0.123538 -2.28867 0
M  V30 5659 C 532.601 0.808628 -1.38989 0
M  V30 5660 O 533.791 0.658945 -1.61256 0
M  V30 5661 C 530.923 1.1847 -3.19653 0
M  V30 5662 H 532.116 -0.604843 -2.93737 0
M  V30 5663 H 529.669 -0.351875 -1.52288 0
M  V30 5664 H 530.404 1.94431 -2.59552 0
M  V30 5665 H 530.189 0.69783 -3.8584 0
M  V30 5666 H 531.679 1.68726 -3.81997 0
M  V30 5667 N 532.116 1.54067 -0.331816 0
M  V30 5668 C 533.363 2.00715 0.268269 0
M  V30 5669 C 533.691 1.21986 1.51491 0
M  V30 5670 O 532.946 0.292309 1.93505 0
M  V30 5671 C 533.245 3.51634 0.639392 0
M  V30 5672 C 532.911 4.48018 -0.509019 0
M  V30 5673 C 531.573 4.74089 -0.824209 0
M  V30 5674 C 533.925 5.05237 -1.28003 0
M  V30 5675 C 531.253 5.54637 -1.91298 0
M  V30 5676 C 533.605 5.86972 -2.35895 0
M  V30 5677 C 532.269 6.11342 -2.67987 0
M  V30 5678 H 531.539 0.734469 0.0981667 0
M  V30 5679 H 534.186 1.8596 -0.457304 0
M  V30 5680 H 532.491 3.6416 1.44551 0
M  V30 5681 H 534.188 3.85175 1.11539 0
M  V30 5682 H 530.778 4.27851 -0.253287 0
M  V30 5683 H 534.962 4.8507 -1.04978 0
M  V30 5684 H 530.218 5.71747 -2.16599 0
M  V30 5685 H 534.392 6.30327 -2.96076 0
M  V30 5686 H 532.019 6.73544 -3.5248 0
M  V30 5687 N 533.594 0.0601682 1.57485 0
M  V30 5688 C 534.557 -0.896373 2.10945 0
M  V30 5689 C 535.557 -1.23402 1.03095 0
M  V30 5690 O 536.747 -1.16921 1.29132 0
M  V30 5691 C 533.879 -2.20346 2.60116 0
M  V30 5692 H 535.072 -0.432778 2.96761 0
M  V30 5693 H 532.625 -0.188372 1.55161 0
M  V30 5694 H 533.36 -2.71268 1.7772 0
M  V30 5695 H 533.145 -1.9714 3.38937 0
M  V30 5696 H 534.635 -2.88846 3.01592 0
M  V30 5697 N 535.072 -1.5615 -0.213296 0
M  V30 5698 C 535.982 -1.96265 -1.28519 0
M  V30 5699 C 536.998 -0.86765 -1.50824 0
M  V30 5700 O 538.174 -1.17191 -1.63793 0
M  V30 5701 C 535.239 -2.27836 -2.61327 0
M  V30 5702 C 534.3 -3.50949 -2.47252 0
M  V30 5703 C 533.533 -3.81004 -3.73727 0
M  V30 5704 O 533.756 -3.12612 -4.77106 0
M  V30 5705 O 532.69 -4.74477 -3.70344 0
M  V30 5706 H 536.516 -2.87631 -0.974795 0
M  V30 5707 H 534.101 -1.43467 -0.416832 0
M  V30 5708 H 535.983 -2.49299 -3.39747 0
M  V30 5709 H 534.658 -1.39643 -2.9203 0
M  V30 5710 H 533.565 -3.34754 -1.67004 0
M  V30 5711 H 534.898 -4.39551 -2.21486 0
M  V30 5712 N 536.55 0.480323 -1.50102 0
M  V30 5713 C 537.48 1.58769 -1.71215 0
M  V30 5714 C 538.461 1.60583 -0.560997 0
M  V30 5715 O 539.646 1.76996 -0.799127 0
M  V30 5716 C 536.776 2.97148 -1.79778 0
M  V30 5717 C 535.73 3.10201 -2.94888 0
M  V30 5718 C 535.056 4.50137 -2.88584 0
M  V30 5719 C 536.356 2.88283 -4.35534 0
M  V30 5720 H 538.05 1.41354 -2.6393 0
M  V30 5721 H 535.596 0.678591 -1.27008 0
M  V30 5722 H 537.549 3.74536 -1.93133 0
M  V30 5723 H 536.273 3.15699 -0.836772 0
M  V30 5724 H 534.932 2.35244 -2.81169 0
M  V30 5725 H 534.58 4.65593 -1.90349 0
M  V30 5726 H 534.28 4.59808 -3.65856 0
M  V30 5727 H 535.804 5.29558 -3.03976 0
M  V30 5728 H 537.218 3.55427 -4.49827 0
M  V30 5729 H 535.615 3.09408 -5.14186 0
M  V30 5730 H 536.685 1.84219 -4.48544 0
M  V30 5731 N 538.028 1.39524 0.732853 0
M  V30 5732 C 538.975 1.38416 1.84688 0
M  V30 5733 C 539.945 0.243539 1.64305 0
M  V30 5734 O 541.13 0.438979 1.85681 0
M  V30 5735 C 538.27 1.23555 3.22224 0
M  V30 5736 C 537.383 2.47179 3.54298 0
M  V30 5737 C 536.518 2.2489 4.81246 0
M  V30 5738 C 535.557 3.44178 5.0617 0
M  V30 5739 N 534.694 3.21192 6.24323 0
M  V30 5740 H 539.534 2.33645 1.84971 0
M  V30 5741 H 537.071 1.16059 0.903804 0
M  V30 5742 H 539.029 1.12949 4.0162 0
M  V30 5743 H 537.659 0.31954 3.21215 0
M  V30 5744 H 536.711 2.68379 2.69587 0
M  V30 5745 H 538.023 3.36022 3.68633 0
M  V30 5746 H 537.177 2.11538 5.68627 0
M  V30 5747 H 535.916 1.33443 4.69089 0
M  V30 5748 H 534.921 3.58025 4.17251 0
M  V30 5749 H 536.146 4.36528 5.20212 0
M  V30 5750 H 534.092 2.32413 6.1345 0
M  V30 5751 H 534.009 4.03594 6.39256 0
M  V30 5752 H 535.277 3.1154 7.14537 0
M  V30 5753 N 539.506 -0.963266 1.24736 0
M  V30 5754 C 540.438 -2.06162 1.0015 0
M  V30 5755 C 541.451 -1.62771 -0.0305905 0
M  V30 5756 O 542.64 -1.77296 0.206966 0
M  V30 5757 C 539.74 -3.35333 0.490385 0
M  V30 5758 C 538.913 -4.07609 1.58663 0
M  V30 5759 C 537.972 -5.15052 1.0774 0
M  V30 5760 O 536.998 -5.4098 1.77002 0
M  V30 5761 N 538.2 -5.80436 -0.0858605 0
M  V30 5762 H 540.965 -2.27825 1.94719 0
M  V30 5763 H 538.526 -1.13121 1.15825 0
M  V30 5764 H 540.518 -4.04477 0.134371 0
M  V30 5765 H 539.088 -3.10507 -0.361155 0
M  V30 5766 H 538.308 -3.32681 2.11463 0
M  V30 5767 H 539.596 -4.52656 2.32336 0
M  V30 5768 H 538.994 -5.6178 -0.664806 0
M  V30 5769 H 537.551 -6.50674 -0.382981 0
M  V30 5770 N 540.985 -1.06182 -1.16461 0
M  V30 5771 C 541.917 -0.629584 -2.20383 0
M  V30 5772 C 542.93 0.311834 -1.59786 0
M  V30 5773 O 544.119 0.103 -1.78203 0
M  V30 5774 C 541.219 0.0973695 -3.3876 0
M  V30 5775 C 540.392 -0.857252 -4.28917 0
M  V30 5776 C 539.451 -0.169749 -5.25926 0
M  V30 5777 O 538.477 -0.807044 -5.6345 0
M  V30 5778 N 539.679 1.08911 -5.70192 0
M  V30 5779 H 542.444 -1.52352 -2.58087 0
M  V30 5780 H 540.005 -0.944993 -1.31459 0
M  V30 5781 H 541.997 0.567676 -4.00699 0
M  V30 5782 H 540.567 0.893093 -2.99571 0
M  V30 5783 H 539.787 -1.50696 -3.64259 0
M  V30 5784 H 541.075 -1.50489 -4.86035 0
M  V30 5785 H 540.473 1.62703 -5.41797 0
M  V30 5786 H 539.03 1.50331 -6.34227 0
M  V30 5787 N 542.463 1.3308 -0.844243 0
M  V30 5788 C 543.74 1.92178 -0.364261 0
M  V30 5789 C 544.12 1.76961 1.15101 0
M  V30 5790 O 543.468 1.16128 1.9679 0
M  V30 5791 C 543.678 3.393 -0.817106 0
M  V30 5792 C 545.026 4.16444 -0.828236 0
M  V30 5793 O 546.05 3.47975 -0.761062 0
M  V30 5794 O 544.909 5.38685 -0.920926 0
M  V30 5795 H 542.003 0.820411 -0.10419 0
M  V30 5796 H 544.549 1.41918 -0.930453 0
M  V30 5797 H 543.321 3.44272 -1.85991 0
M  V30 5798 H 542.944 3.96947 -0.227785 0
M  V30 5799 N 543.941 0.601185 1.45683 0
M  V30 5800 C 544.851 -0.123395 2.34275 0
M  V30 5801 C 545.867 -0.86702 1.5086 0
M  V30 5802 O 547.043 -0.826049 1.8368 0
M  V30 5803 C 544.108 -1.11237 3.2837 0
M  V30 5804 C 543.169 -0.371405 4.2769 0
M  V30 5805 C 542.402 -1.31327 5.1729 0
M  V30 5806 O 542.625 -2.55078 5.10188 0
M  V30 5807 O 541.559 -0.813811 5.96373 0
M  V30 5808 H 545.385 0.604483 2.97623 0
M  V30 5809 H 542.97 0.361477 1.44961 0
M  V30 5810 H 544.852 -1.68214 3.8637 0
M  V30 5811 H 543.527 -1.82139 2.67595 0
M  V30 5812 H 542.434 0.24067 3.73325 0
M  V30 5813 H 543.767 0.296998 4.91303 0
M  V30 5814 N 545.419 -1.53889 0.339982 0
M  V30 5815 C 546.367 -2.26391 -0.533822 0
M  V30 5816 C 547.361 -1.28404 -1.10493 0
M  V30 5817 O 548.567 -1.46124 -1.05108 0
M  V30 5818 H 544.942 -0.727385 -0.190828 0
M  V30 5819 H 546.913 -2.98233 0.0997484 0
M  V30 5820 C 545.662 -3.04707 -1.67479 0
M  V30 5821 H 544.985 -3.79934 -1.2446 0
M  V30 5822 H 546.425 -3.58657 -2.26144 0
M  V30 5823 C 544.884 -2.13989 -2.60212 0
M  V30 5824 O 545.414 -1.73361 -3.62366 0
M  V30 5825 N 543.62 -1.79141 -2.28816 0
M  V30 5826 H 543.167 -2.12378 -1.45785 0
M  V30 5827 H 543.125 -1.18725 -2.91121 0
M  V30 5828 N 546.897 -0.0685191 -1.57451 0
M  V30 5829 C 547.845 0.917577 -2.13736 0
M  V30 5830 C 548.839 1.31049 -1.07344 0
M  V30 5831 O 550.045 1.28811 -1.25728 0
M  V30 5832 H 546.42 0.313835 -0.683382 0
M  V30 5833 H 548.391 0.417903 -2.95459 0
M  V30 5834 C 547.14 2.17686 -2.71123 0
M  V30 5835 H 546.463 1.88336 -3.52661 0
M  V30 5836 H 547.903 2.84803 -3.14107 0
M  V30 5837 C 546.362 2.9332 -1.65726 0
M  V30 5838 O 546.892 3.86901 -1.08031 0
M  V30 5839 N 545.098 2.56367 -1.36837 0
M  V30 5840 H 544.645 1.80341 -1.83943 0
M  V30 5841 H 544.603 3.07276 -0.665501 0
M  V30 5842 N 548.375 1.56261 0.205012 0
M  V30 5843 C 549.338 1.92908 1.23771 0
M  V30 5844 C 550.338 0.809208 1.38955 0
M  V30 5845 O 551.528 1.07676 1.36936 0
M  V30 5846 C 548.66 2.19442 2.60879 0
M  V30 5847 H 549.853 2.85287 0.924728 0
M  V30 5848 H 547.406 1.49798 0.446125 0
M  V30 5849 H 548.141 1.29668 2.97248 0
M  V30 5850 H 547.926 3.0104 2.51232 0
M  V30 5851 H 549.416 2.48833 3.35368 0
M  V30 5852 N 549.853 -0.472356 1.50355 0
M  V30 5853 C 551.078 -1.25251 1.65309 0
M  V30 5854 C 551.503 -1.85081 0.335643 0
M  V30 5855 O 550.861 -1.67227 -0.700335 0
M  V30 5856 C 550.909 -2.3379 2.74544 0
M  V30 5857 O 550.013 -3.38401 2.35709 0
M  V30 5858 H 549.354 -0.368539 0.552336 0
M  V30 5859 H 551.884 -0.562271 1.96722 0
M  V30 5860 H 551.894 -2.79121 2.97583 0
M  V30 5861 H 550.569 -1.89614 3.70161 0
M  V30 5862 H 549.146 -2.9879 2.23112 0
M  V30 5863 N 551.331 -1.39911 -0.725443 0
M  V30 5864 C 552.747 -1.21725 -1.03224 0
M  V30 5865 C 552.947 -0.0855224 -2.01318 0
M  V30 5866 O 552.003 0.55976 -2.46217 0
M  V30 5867 C 553.316 -2.55511 -1.58539 0
M  V30 5868 C 554.864 -2.62439 -1.70572 0
M  V30 5869 C 555.339 -3.9647 -2.29294 0
M  V30 5870 N 556.83 -3.98159 -2.36692 0
M  V30 5871 C 557.565 -4.98647 -2.83088 0
M  V30 5872 N 557.061 -6.0953 -3.2931 0
M  V30 5873 N 558.854 -4.8602 -2.82384 0
M  V30 5874 H 551.005 -2.12267 -0.075048 0
M  V30 5875 H 553.268 -0.943136 -0.0959066 0
M  V30 5876 H 552.974 -3.38926 -0.939249 0
M  V30 5877 H 552.848 -2.75905 -2.57208 0
M  V30 5878 H 555.235 -1.79401 -2.34306 0
M  V30 5879 H 555.316 -2.45885 -0.705297 0
M  V30 5880 H 554.96 -4.79942 -1.66186 0
M  V30 5881 H 554.89 -4.10349 -3.30032 0
M  V30 5882 H 557.381 -3.18085 -2.04035 0
M  V30 5883 H 557.694 -6.82106 -3.6325 0
M  V30 5884 H 556.039 -6.1311 -3.27294 0
M  V30 5885 H 559.23 -3.98493 -2.45603 0
M  V30 5886 H 559.403 -5.64478 -3.18226 0
M  V30 5887 N 552.809 0.956637 -1.25245 0
M  V30 5888 C 553.757 2.0743 -1.0524 0
M  V30 5889 C 554.751 1.69392 0.0160725 0
M  V30 5890 O 555.957 1.7946 -0.139382 0
M  V30 5891 H 552.332 0.678921 -0.323373 0
M  V30 5892 H 554.303 2.2146 -1.99995 0
M  V30 5893 C 553.052 3.40872 -0.685702 0
M  V30 5894 H 552.375 3.70607 -1.49968 0
M  V30 5895 H 553.815 4.19939 -0.585415 0
M  V30 5896 C 552.274 3.31367 0.608082 0
M  V30 5897 O 552.804 3.66214 1.65076 0
M  V30 5898 N 551.01 2.84486 0.592955 0
M  V30 5899 H 550.557 2.56326 -0.25592 0
M  V30 5900 H 550.515 2.78509 1.45877 0
M  V30 5901 N 554.287 1.06798 1.15896 0
M  V30 5902 C 555.219 0.641263 2.20046 0
M  V30 5903 C 556.232 -0.303355 1.59949 0
M  V30 5904 O 557.421 -0.0935478 1.78255 0
M  V30 5905 C 554.521 -0.0794029 3.38807 0
M  V30 5906 C 553.694 0.879986 4.28457 0
M  V30 5907 C 552.753 0.197638 5.25829 0
M  V30 5908 O 551.779 0.836913 5.63014 0
M  V30 5909 N 552.981 -1.05886 5.70761 0
M  V30 5910 H 555.746 1.53718 2.57276 0
M  V30 5911 H 553.307 0.951951 1.30956 0
M  V30 5912 H 555.299 -0.546418 4.00994 0
M  V30 5913 H 553.869 -0.877193 3.0004 0
M  V30 5914 H 553.089 1.52625 3.63454 0
M  V30 5915 H 554.377 1.53065 4.8523 0
M  V30 5916 H 553.775 -1.59828 5.42652 0
M  V30 5917 H 552.332 -1.46965 6.35015 0
M  V30 5918 N 555.766 -1.3263 0.851289 0
M  V30 5919 C 556.729 -2.27247 0.298541 0
M  V30 5920 C 557.729 -1.51467 -0.539847 0
M  V30 5921 O 558.919 -1.7061 -0.351843 0
M  V30 5922 C 556.051 -3.35964 -0.578004 0
M  V30 5923 H 557.244 -2.7765 1.13359 0
M  V30 5924 H 554.797 -1.43245 0.625354 0
M  V30 5925 H 555.532 -2.90823 -1.435 0
M  V30 5926 H 555.317 -3.92094 0.0220539 0
M  V30 5927 H 556.807 -4.06472 -0.957626 0
M  V30 5928 N 557.244 -0.608902 -1.45362 0
M  V30 5929 C 558.493 -0.10218 -2.01441 0
M  V30 5930 C 558.806 1.27546 -1.48295 0
M  V30 5931 O 560.012 1.87498 -1.96359 0
M  V30 5932 C 558.468 -0.131985 -3.59658 0
M  V30 5933 C 558.076 -1.50956 -4.21801 0
M  V30 5934 C 559.82 0.319427 -4.23296 0
M  V30 5935 C 557.727 -1.49568 -5.72174 0
M  V30 5936 H 556.657 -0.0344314 -0.753213 0
M  V30 5937 H 559.308 -0.764426 -1.6682 0
M  V30 5938 H 557.69 0.596939 -3.91475 0
M  V30 5939 H 558.864 -2.26029 -4.01556 0
M  V30 5940 H 557.179 -1.90318 -3.70362 0
M  V30 5941 H 559.776 0.349013 -5.3356 0
M  V30 5942 H 560.119 1.34237 -3.94064 0
M  V30 5943 H 560.652 -0.356273 -3.96201 0
M  V30 5944 H 557.391 -2.49626 -6.06108 0
M  V30 5945 H 556.911 -0.787542 -5.94607 0
M  V30 5946 H 558.59 -1.21989 -6.35396 0
M  V30 5947 N 558.722 1.53707 -0.348139 0
M  V30 5948 C 559.632 2.28881 0.514857 0
M  V30 5949 C 560.648 1.34168 1.10793 0
M  V30 5950 O 561.824 1.6721 1.12262 0
M  V30 5951 C 558.889 3.05042 1.64774 0
M  V30 5952 C 557.95 4.15389 1.08398 0
M  V30 5953 C 557.183 4.87909 2.16287 0
M  V30 5954 O 557.406 4.60137 3.3709 0
M  V30 5955 O 556.34 5.74254 1.80323 0
M  V30 5956 H 560.166 3.03547 -0.0963699 0
M  V30 5957 H 557.751 1.48972 -0.113043 0
M  V30 5958 H 559.633 3.52656 2.30677 0
M  V30 5959 H 558.308 2.33228 2.24469 0
M  V30 5960 H 557.215 3.72068 0.389341 0
M  V30 5961 H 558.548 4.89318 0.531829 0
M  V30 5962 N 560.2 0.0768682 1.57412 0
M  V30 5963 C 561.11 -0.903207 2.16516 0
M  V30 5964 C 562.126 -1.32341 1.12968 0
M  V30 5965 O 563.302 -1.39507 1.45258 0
M  V30 5966 C 560.367 -2.1508 2.71922 0
M  V30 5967 C 559.428 -1.78653 3.90361 0
M  V30 5968 C 558.661 -2.97465 4.43114 0
M  V30 5969 O 558.884 -4.11638 3.94854 0
M  V30 5970 O 557.818 -2.76987 5.3438 0
M  V30 5971 H 561.644 -0.430427 3.00634 0
M  V30 5972 H 559.229 -0.146485 1.4868 0
M  V30 5973 H 561.111 -2.8823 3.07411 0
M  V30 5974 H 559.786 -2.61446 1.9086 0
M  V30 5975 H 558.693 -1.0274 3.59716 0
M  V30 5976 H 560.026 -1.37066 4.7273 0
M  V30 5977 N 561.678 -1.56367 -0.196722 0
M  V30 5978 C 562.608 -1.97442 -1.24655 0
M  V30 5979 C 563.589 -0.846147 -1.47561 0
M  V30 5980 O 564.774 -1.11035 -1.59326 0
M  V30 5981 C 561.904 -2.31253 -2.59112 0
M  V30 5982 C 560.858 -3.46804 -2.50821 0
M  V30 5983 C 560.184 -3.66286 -3.89536 0
M  V30 5984 C 561.484 -4.8104 -2.03465 0
M  V30 5985 H 563.178 -2.85388 -0.905216 0
M  V30 5986 H 560.724 -1.37304 -0.434002 0
M  V30 5987 H 562.677 -2.58583 -3.32736 0
M  V30 5988 H 561.401 -1.40188 -2.94983 0
M  V30 5989 H 560.06 -3.19563 -1.79653 0
M  V30 5990 H 559.708 -2.72555 -4.22756 0
M  V30 5991 H 559.408 -4.4402 -3.84864 0
M  V30 5992 H 560.932 -3.9599 -4.64784 0
M  V30 5993 H 562.346 -5.07411 -2.66846 0
M  V30 5994 H 560.743 -5.62232 -2.09798 0
M  V30 5995 H 561.813 -4.74732 -0.98781 0
M  V30 5996 N 563.156 0.464375 -1.50603 0
M  V30 5997 C 564.066 1.58723 -1.72754 0
M  V30 5998 C 565.082 1.62925 -0.610844 0
M  V30 5999 O 566.258 1.8067 -0.889963 0
M  V30 6000 C 563.323 2.94897 -1.82309 0
M  V30 6001 C 562.384 3.0103 -3.06071 0
M  V30 6002 C 561.617 4.30708 -3.1516 0
M  V30 6003 O 561.84 5.2159 -2.30868 0
M  V30 6004 O 560.774 4.42571 -4.0794 0
M  V30 6005 H 564.6 1.42954 -2.67951 0
M  V30 6006 H 562.185 0.644579 -1.3478 0
M  V30 6007 H 564.067 3.75764 -1.90735 0
M  V30 6008 H 562.742 3.10851 -0.902967 0
M  V30 6009 H 561.649 2.19217 -3.03142 0
M  V30 6010 H 562.982 2.90014 -3.97684 0
M  V30 6011 N 564.634 1.40294 0.718013 0
M  V30 6012 C 565.581 1.40367 1.8321 0
M  V30 6013 C 566.551 0.260952 1.64037 0
M  V30 6014 O 567.736 0.458648 1.85205 0
M  V30 6015 C 564.876 1.26965 3.20895 0
M  V30 6016 C 563.989 2.50922 3.51656 0
M  V30 6017 C 563.124 2.29981 4.78834 0
M  V30 6018 C 562.163 3.49527 5.02491 0
M  V30 6019 N 561.3 3.27796 6.20882 0
M  V30 6020 H 566.14 2.35593 1.82482 0
M  V30 6021 H 563.677 1.17012 0.891444 0
M  V30 6022 H 565.635 1.17202 4.00399 0
M  V30 6023 H 564.265 0.353591 3.20858 0
M  V30 6024 H 563.317 2.71223 2.66725 0
M  V30 6025 H 564.629 3.39913 3.65048 0
M  V30 6026 H 563.783 2.17558 5.66351 0
M  V30 6027 H 562.522 1.38411 4.67647 0
M  V30 6028 H 561.527 3.6243 4.1343 0
M  V30 6029 H 562.752 4.42021 5.15553 0
M  V30 6030 H 560.698 2.38906 6.1095 0
M  V30 6031 H 560.615 4.10351 6.34939 0
M  V30 6032 H 561.883 3.19101 7.11193 0
M  V30 6033 N 566.112 -0.949982 1.2575 0
M  V30 6034 C 567.337 -1.73503 1.13628 0
M  V30 6035 C 567.762 -1.85601 -0.30559 0
M  V30 6036 O 567.12 -1.33984 -1.22139 0
M  V30 6037 C 567.168 -3.1243 1.80055 0
M  V30 6038 O 566.272 -3.97916 1.08336 0
M  V30 6039 H 565.613 -0.532665 0.396439 0
M  V30 6040 H 568.143 -1.19043 1.66403 0
M  V30 6041 H 568.153 -3.62866 1.86527 0
M  V30 6042 H 566.828 -3.02941 2.84956 0
M  V30 6043 H 565.405 -3.56375 1.09777 0
M  V30 6044 N 567.59 -1.07411 -1.15328 0
M  V30 6045 C 568.839 -0.792643 -1.85473 0
M  V30 6046 C 569.152 0.683789 -1.83259 0
M  V30 6047 O 570.358 1.08005 -2.49093 0
M  V30 6048 C 568.814 -1.36787 -3.32892 0
M  V30 6049 C 568.422 -2.87536 -3.43551 0
M  V30 6050 C 570.166 -1.16444 -4.08217 0
M  V30 6051 C 568.073 -3.38247 -4.85122 0
M  V30 6052 H 567.003 -0.292838 -0.694811 0
M  V30 6053 H 569.654 -1.29426 -1.30082 0
M  V30 6054 H 568.036 -0.793993 -3.87958 0
M  V30 6055 H 569.21 -3.50973 -2.98588 0
M  V30 6056 H 567.525 -3.06676 -2.81672 0
M  V30 6057 H 570.122 -1.51808 -5.12697 0
M  V30 6058 H 570.465 -0.10353 -4.16171 0
M  V30 6059 H 570.998 -1.70472 -3.59422 0
M  V30 6060 H 567.737 -4.43866 -4.82351 0
M  V30 6061 H 567.257 -2.79564 -5.30664 0
M  V30 6062 H 568.936 -3.34238 -5.5398 0
M  V30 6063 N 569.068 1.32177 -0.85831 0
M  V30 6064 C 570.031 2.27086 -0.310588 0
M  V30 6065 C 571.031 1.51751 0.531806 0
M  V30 6066 O 572.221 1.70794 0.34279 0
M  V30 6067 C 569.353 3.36266 0.560179 0
M  V30 6068 H 570.546 2.77045 -1.1483 0
M  V30 6069 H 568.099 1.42911 -0.632942 0
M  V30 6070 H 568.834 2.9158 1.41956 0
M  V30 6071 H 568.619 3.92077 -0.0428473 0
M  V30 6072 H 570.109 4.06974 0.936056 0
M  V30 6073 N 570.547 0.616602 1.45037 0
M  V30 6074 C 571.793 0.115501 2.02471 0
M  V30 6075 C 572.126 -1.25406 1.4828 0
M  V30 6076 O 571.401 -1.82922 0.661051 0
M  V30 6077 C 571.684 0.0863588 3.59996 0
M  V30 6078 C 571.537 1.48723 4.24501 0
M  V30 6079 C 572.856 -0.596762 4.36035 0
M  V30 6080 H 569.975 0.0434461 0.735718 0
M  V30 6081 H 572.617 0.7903 1.72784 0
M  V30 6082 H 570.767 -0.488277 3.85419 0
M  V30 6083 H 572.439 2.10964 4.10234 0
M  V30 6084 H 570.682 2.04534 3.82555 0
M  V30 6085 H 571.353 1.419 5.3345 0
M  V30 6086 H 573.829 -0.10824 4.15959 0
M  V30 6087 H 572.705 -0.586289 5.4576 0
M  V30 6088 H 572.966 -1.66451 4.09569 0
M  V30 6089 N 572.025 -1.5352 0.356285 0
M  V30 6090 C 572.988 -2.24071 -0.482182 0
M  V30 6091 C 573.988 -1.24531 -1.01729 0
M  V30 6092 O 575.178 -1.48876 -0.904513 0
M  V30 6093 C 572.31 -2.97025 -1.67299 0
M  V30 6094 H 573.503 -2.99596 0.135031 0
M  V30 6095 H 571.056 -1.55928 0.107825 0
M  V30 6096 H 571.791 -2.25719 -2.32855 0
M  V30 6097 H 571.576 -3.7005 -1.29636 0
M  V30 6098 H 573.066 -3.50683 -2.26741 0
M  V30 6099 N 573.503 -0.0852151 -1.57369 0
M  V30 6100 C 574.413 0.891712 -2.16992 0
M  V30 6101 C 575.429 1.3174 -1.13669 0
M  V30 6102 O 576.605 1.38735 -1.45995 0
M  V30 6103 C 573.67 2.13635 -2.73059 0
M  V30 6104 C 572.731 1.7658 -3.91303 0
M  V30 6105 C 571.964 2.95111 -4.44686 0
M  V30 6106 O 572.187 4.09539 -3.97032 0
M  V30 6107 O 571.121 2.74149 -5.35841 0
M  V30 6108 H 574.947 0.414477 -3.00858 0
M  V30 6109 H 572.532 0.138598 -1.48756 0
M  V30 6110 H 574.414 2.86595 -3.08935 0
M  V30 6111 H 573.089 2.6043 -1.92244 0
M  V30 6112 H 571.996 1.00831 -3.60255 0
M  V30 6113 H 573.329 1.34557 -4.7345 0
M  V30 6114 N 574.981 1.5647 0.188427 0
M  V30 6115 C 575.944 1.9421 1.21718 0
M  V30 6116 C 576.944 0.823901 1.38089 0
M  V30 6117 O 578.134 1.09122 1.35787 0
M  V30 6118 C 575.266 2.22197 2.58537 0
M  V30 6119 H 576.459 2.86252 0.894418 0
M  V30 6120 H 574.012 1.50263 0.430211 0
M  V30 6121 H 574.747 1.32814 2.95856 0
M  V30 6122 H 574.532 3.03688 2.48025 0
M  V30 6123 H 576.022 2.52376 3.3271 0
M  V30 6124 N 576.459 -0.456382 1.50847 0
M  V30 6125 C 577.422 -1.53493 1.70213 0
M  V30 6126 C 578.422 -1.50264 0.572481 0
M  V30 6127 O 579.612 -1.52623 0.839751 0
M  V30 6128 C 576.744 -2.93091 1.741 0
M  V30 6129 H 577.937 -1.37633 2.66453 0
M  V30 6130 H 575.49 -0.683776 1.4055 0
M  V30 6131 H 576.225 -3.14378 0.796063 0
M  V30 6132 H 576.01 -2.9684 2.5618 0
M  V30 6133 H 577.5 -3.71368 1.90987 0
M  V30 6134 N 577.937 -1.40673 -0.710563 0
M  V30 6135 C 579.177 -1.40677 -1.48288 0
M  V30 6136 C 579.541 -0.0097193 -1.91998 0
M  V30 6137 O 580.742 0.115381 -2.68552 0
M  V30 6138 C 579.013 -2.37289 -2.67262 0
M  V30 6139 S 580.572 -2.55694 -3.56603 0
M  V30 6140 H 577.39 -0.498545 -0.506926 0
M  V30 6141 H 579.992 -1.76984 -0.830472 0
M  V30 6142 H 578.696 -3.37617 -2.3333 0
M  V30 6143 H 578.227 -2.02282 -3.3741 0
M  V30 6144 H 580.242 -1.81311 -4.61888 0
M  V30 6145 N 579.415 0.9433 -1.26252 0
M  V30 6146 C 580.826 1.50404 -1.10614 0
M  V30 6147 C 581.177 1.93666 0.31429 0
M  V30 6148 O 580.302 1.79709 1.20555 0
M  V30 6149 C 580.897 2.73336 -2.00182 0
M  V30 6150 C 579.456 3.25686 -1.88695 0
M  V30 6151 C 578.603 1.98474 -1.93658 0
M  V30 6152 H 581.554 0.759006 -1.39373 0
M  V30 6153 H 581.575 3.47567 -1.54847 0
M  V30 6154 H 581.087 2.41818 -3.03555 0
M  V30 6155 H 579.188 3.61998 -0.882489 0
M  V30 6156 H 579.301 3.92935 -2.74115 0
M  V30 6157 H 577.665 2.14278 -1.37684 0
M  V30 6158 H 578.448 1.6929 -2.98657 0
M  V30 6159 N 580.893 1.08022 1.14757 0
M  V30 6160 C 582.141 0.805913 1.85336 0
M  V30 6161 C 582.462 -0.670162 1.83122 0
M  V30 6162 O 581.732 -1.48567 1.2769 0
M  V30 6163 H 580.312 0.295138 0.686223 0
M  V30 6164 H 582.974 1.36538 1.3908 0
M  V30 6165 H 582.07 1.14655 2.90277 0
M  V30 6166 N 582.371 -1.3172 0.865308 0
M  V30 6167 C 583.62 -1.96145 0.470098 0
M  V30 6168 C 583.933 -1.69182 -0.981674 0
M  V30 6169 O 585.139 -2.27431 -1.48281 0
M  V30 6170 C 583.595 -3.51129 0.789732 0
M  V30 6171 C 583.203 -3.86938 2.25795 0
M  V30 6172 C 584.947 -4.2197 0.462765 0
M  V30 6173 C 582.854 -5.35012 2.52024 0
M  V30 6174 H 581.784 -0.734105 0.172065 0
M  V30 6175 H 584.435 -1.49959 1.05757 0
M  V30 6176 H 582.817 -3.95781 0.131571 0
M  V30 6177 H 583.991 -3.5326 2.95879 0
M  V30 6178 H 582.306 -3.29149 2.55049 0
M  V30 6179 H 584.903 -5.30904 0.636019 0
M  V30 6180 H 585.246 -4.12005 -0.59645 0
M  V30 6181 H 585.779 -3.82936 1.07727 0
M  V30 6182 H 582.518 -5.50008 3.56611 0
M  V30 6183 H 582.038 -5.70058 1.8653 0
M  V30 6184 H 583.717 -6.0222 2.36515 0
M  V30 6185 N 583.85 -0.624285 -1.44708 0
M  V30 6186 C 585.077 -0.132919 -2.06473 0
M  V30 6187 C 585.493 1.18967 -1.46602 0
M  V30 6188 O 584.85 1.72824 -0.586341 0
M  V30 6189 C 584.901 -0.00465418 -3.615 0
M  V30 6190 O 584.622 -1.27494 -4.19138 0
M  V30 6191 C 586.123 0.516213 -4.40284 0
M  V30 6192 H 583.343 -0.0765201 -0.666623 0
M  V30 6193 H 585.887 -0.856751 -1.85688 0
M  V30 6194 H 584.042 0.669583 -3.8157 0
M  V30 6195 H 584.456 -1.11536 -5.12504 0
M  V30 6196 H 585.93 0.554994 -5.49203 0
M  V30 6197 H 586.407 1.5419 -4.11245 0
M  V30 6198 H 587.013 -0.124542 -4.25118 0
M  V30 6199 N 585.328 1.53329 -0.364422 0
M  V30 6200 C 586.605 1.93557 0.281962 0
M  V30 6201 C 586.985 1.29786 1.6649 0
M  V30 6202 O 586.333 0.456512 2.23893 0
M  V30 6203 C 586.543 3.47405 0.333331 0
M  V30 6204 C 587.891 4.20699 0.574231 0
M  V30 6205 O 588.915 3.53779 0.414588 0
M  V30 6206 O 587.774 5.39287 0.885002 0
M  V30 6207 H 584.868 0.809573 0.168881 0
M  V30 6208 H 587.414 1.64494 -0.417121 0
M  V30 6209 H 586.186 3.86091 -0.636326 0
M  V30 6210 H 585.809 3.82697 1.07836 0
M  V30 6211 N 586.806 0.0935595 1.57322 0
M  V30 6212 C 587.753 -0.865935 2.1394 0
M  V30 6213 C 588.723 -1.28083 1.05754 0
M  V30 6214 O 589.908 -1.36285 1.33533 0
M  V30 6215 C 587.048 -2.12023 2.72287 0
M  V30 6216 C 586.161 -1.756 3.94701 0
M  V30 6217 C 585.296 -2.95804 4.41218 0
M  V30 6218 C 584.335 -2.555 5.56225 0
M  V30 6219 N 583.472 -3.68534 5.97601 0
M  V30 6220 H 588.312 -0.376261 2.95615 0
M  V30 6221 H 585.849 -0.174052 1.46067 0
M  V30 6222 H 587.807 -2.85477 3.04235 0
M  V30 6223 H 586.437 -2.58492 1.93343 0
M  V30 6224 H 585.489 -0.921208 3.69077 0
M  V30 6225 H 586.801 -1.41964 4.78171 0
M  V30 6226 H 585.955 -3.77513 4.74941 0
M  V30 6227 H 584.694 -3.32649 3.56645 0
M  V30 6228 H 583.699 -1.72218 5.22131 0
M  V30 6229 H 584.924 -2.19801 6.42545 0
M  V30 6230 H 582.87 -4.051 5.15974 0
M  V30 6231 H 582.787 -3.38737 6.75865 0
M  V30 6232 H 584.055 -4.50757 6.35955 0
M  V30 6233 N 588.284 -1.56567 -0.180126 0
M  V30 6234 C 589.217 -1.90813 -1.25163 0
M  V30 6235 C 590.195 -0.7699 -1.43218 0
M  V30 6236 O 591.379 -1.02236 -1.58367 0
M  V30 6237 C 588.506 -2.15138 -2.61597 0
M  V30 6238 C 587.552 -3.37834 -2.60328 0
M  V30 6239 S 588.385 -4.92486 -2.1028 0
M  V30 6240 C 589.541 -5.19896 -3.48509 0
M  V30 6241 H 589.774 -2.81398 -0.959283 0
M  V30 6242 H 587.307 -1.49541 -0.3843 0
M  V30 6243 H 589.265 -2.29835 -3.40127 0
M  V30 6244 H 587.926 -1.25276 -2.88036 0
M  V30 6245 H 587.119 -3.52027 -3.60684 0
M  V30 6246 H 586.721 -3.22208 -1.8989 0
M  V30 6247 H 589.013 -5.11334 -4.44459 0
M  V30 6248 H 589.956 -6.21571 -3.39198 0
M  V30 6249 H 590.364 -4.47489 -3.44114 0
M  V30 6250 N 589.762 0.448376 -1.51087 0
M  V30 6251 C 591.008 1.20049 -1.6345 0
M  V30 6252 C 591.341 1.91121 -0.344444 0
M  V30 6253 O 590.616 1.83125 0.655396 0
M  V30 6254 C 590.899 2.22624 -2.83038 0
M  V30 6255 C 590.752 1.55708 -4.21989 0
M  V30 6256 C 592.071 3.23718 -2.98152 0
M  V30 6257 H 589.19 0.435085 -0.59487 0
M  V30 6258 H 591.832 0.491183 -1.83541 0
M  V30 6259 H 589.982 2.83117 -2.66039 0
M  V30 6260 H 591.654 0.986367 -4.50631 0
M  V30 6261 H 589.897 0.859647 -4.25197 0
M  V30 6262 H 590.568 2.30357 -5.01637 0
M  V30 6263 H 593.044 2.73269 -3.13788 0
M  V30 6264 H 591.92 3.92795 -3.83411 0
M  V30 6265 H 592.181 3.89179 -2.09743 0
M  V30 6266 N 591.24 1.41047 0.703093 0
M  V30 6267 C 592.187 1.42302 1.81711 0
M  V30 6268 C 593.157 0.278336 1.63751 0
M  V30 6269 O 594.342 0.478266 1.84709 0
M  V30 6270 C 591.482 1.30362 3.19531 0
M  V30 6271 C 590.595 2.54638 3.48975 0
M  V30 6272 C 589.73 2.35047 4.76368 0
M  V30 6273 C 588.769 3.54837 4.98756 0
M  V30 6274 N 587.906 3.34363 6.1737 0
M  V30 6275 H 592.746 2.37516 1.79973 0
M  V30 6276 H 590.283 1.1795 0.878983 0
M  V30 6277 H 592.241 1.21443 3.99134 0
M  V30 6278 H 590.871 0.387602 3.20464 0
M  V30 6279 H 589.923 2.74037 2.63833 0
M  V30 6280 H 591.235 3.43766 3.61423 0
M  V30 6281 H 590.389 2.23552 5.64012 0
M  V30 6282 H 589.128 1.43363 4.66153 0
M  V30 6283 H 588.133 3.66795 4.09563 0
M  V30 6284 H 589.358 4.47464 5.10835 0
M  V30 6285 H 587.304 2.45373 6.08382 0
M  V30 6286 H 587.221 4.17063 6.30551 0
M  V30 6287 H 588.489 3.26626 7.07768 0
M  V30 6288 N 592.718 -0.936591 1.26751 0
M  V30 6289 C 593.665 -2.03597 1.08706 0
M  V30 6290 C 594.635 -1.66097 -0.00926542 0
M  V30 6291 O 595.82 -1.90199 0.151377 0
M  V30 6292 C 592.96 -3.3727 0.73094 0
M  V30 6293 C 592.073 -3.87778 1.90399 0
M  V30 6294 C 591.208 -5.09859 1.49056 0
M  V30 6295 C 590.247 -5.5264 2.63164 0
M  V30 6296 N 589.384 -6.65921 2.22471 0
M  V30 6297 H 594.224 -2.18364 2.02784 0
M  V30 6298 H 591.761 -1.06985 1.00958 0
M  V30 6299 H 593.719 -4.14128 0.505328 0
M  V30 6300 H 592.349 -3.22337 -0.172868 0
M  V30 6301 H 591.401 -3.07279 2.2424 0
M  V30 6302 H 592.713 -4.15464 2.76028 0
M  V30 6303 H 591.867 -5.9419 1.22567 0
M  V30 6304 H 590.606 -4.8393 0.60524 0
M  V30 6305 H 589.611 -4.66863 2.90377 0
M  V30 6306 H 590.836 -5.80568 3.52303 0
M  V30 6307 H 588.782 -6.41667 1.36379 0
M  V30 6308 H 588.699 -6.93216 3.01641 0
M  V30 6309 H 589.967 -7.53616 1.99205 0
M  V30 6310 N 594.196 -1.08629 -1.14182 0
M  V30 6311 C 595.126 -0.740003 -2.21464 0
M  V30 6312 C 596.107 0.278591 -1.67803 0
M  V30 6313 O 597.292 0.148461 -1.93632 0
M  V30 6314 C 594.422 -0.150952 -3.46972 0
M  V30 6315 C 593.376 -1.09815 -4.13672 0
M  V30 6316 C 592.702 -0.3712 -5.3341 0
M  V30 6317 C 594.002 -2.43722 -4.61949 0
M  V30 6318 H 595.696 -1.63697 -2.50686 0
M  V30 6319 H 593.242 -0.788526 -1.20492 0
M  V30 6320 H 595.195 0.103325 -4.21273 0
M  V30 6321 H 593.919 0.781164 -3.1712 0
M  V30 6322 H 592.578 -1.33756 -3.41328 0
M  V30 6323 H 592.226 0.564792 -4.99819 0
M  V30 6324 H 591.926 -1.00267 -5.78982 0
M  V30 6325 H 593.45 -0.12503 -6.10472 0
M  V30 6326 H 594.864 -2.24034 -5.27714 0
M  V30 6327 H 593.261 -3.02582 -5.18232 0
M  V30 6328 H 594.331 -3.05082 -3.76899 0
M  V30 6329 N 595.674 1.31259 -0.872281 0
M  V30 6330 C 596.923 1.95893 -0.480493 0
M  V30 6331 C 597.236 1.697 0.972688 0
M  V30 6332 O 598.442 2.28214 1.47073 0
M  V30 6333 C 596.898 3.50705 -0.808342 0
M  V30 6334 C 596.506 3.85735 -2.27844 0
M  V30 6335 C 598.25 4.21719 -0.485136 0
M  V30 6336 C 596.157 5.33668 -2.54858 0
M  V30 6337 H 595.087 0.733182 -0.175955 0
M  V30 6338 H 597.738 1.49396 -1.0655 0
M  V30 6339 H 596.12 3.95706 -0.152558 0
M  V30 6340 H 597.294 3.51686 -2.97748 0
M  V30 6341 H 595.609 3.27792 -2.56791 0
M  V30 6342 H 598.206 5.30559 -0.664166 0
M  V30 6343 H 598.549 4.12316 0.574592 0
M  V30 6344 H 599.082 3.82359 -1.09756 0
M  V30 6345 H 595.821 5.48109 -3.59523 0
M  V30 6346 H 595.341 5.69061 -1.8955 0
M  V30 6347 H 597.02 6.00958 -2.39706 0
M  V30 6348 N 597.152 0.631951 1.44375 0
M  V30 6349 C 598.062 -0.073674 2.34484 0
M  V30 6350 C 599.078 -0.834825 1.52665 0
M  V30 6351 O 600.254 -0.786902 1.85391 0
M  V30 6352 C 597.319 -1.04247 3.30656 0
M  V30 6353 C 596.38 -0.280602 4.28382 0
M  V30 6354 C 595.613 -1.20325 5.19959 0
M  V30 6355 O 595.836 -2.44199 5.15484 0
M  V30 6356 O 594.77 -0.687128 5.97965 0
M  V30 6357 H 598.596 0.667477 2.96274 0
M  V30 6358 H 596.181 0.392144 1.44162 0
M  V30 6359 H 598.063 -1.59981 3.89851 0
M  V30 6360 H 596.738 -1.76422 2.71398 0
M  V30 6361 H 595.645 0.319804 3.72731 0
M  V30 6362 H 596.978 0.401144 4.90563 0
M  V30 6363 N 598.631 -1.53133 0.372548 0
M  V30 6364 C 599.578 -2.25951 -0.470631 0
M  V30 6365 C 600.548 -1.26895 -1.07176 0
M  V30 6366 O 601.733 -1.55691 -1.10294 0
M  V30 6367 C 598.873 -3.05726 -1.6008 0
M  V30 6368 C 597.986 -4.19684 -1.02416 0
M  V30 6369 C 597.121 -4.86888 -2.124 0
M  V30 6370 C 596.16 -5.92866 -1.52238 0
M  V30 6371 N 595.297 -6.53732 -2.56084 0
M  V30 6372 H 600.137 -2.97587 0.156816 0
M  V30 6373 H 597.674 -1.4683 0.0891571 0
M  V30 6374 H 599.632 -3.50258 -2.26661 0
M  V30 6375 H 598.262 -2.36331 -2.1988 0
M  V30 6376 H 597.314 -3.79588 -0.248426 0
M  V30 6377 H 598.626 -4.95821 -0.544366 0
M  V30 6378 H 597.78 -5.34638 -2.86787 0
M  V30 6379 H 596.519 -4.10239 -2.63734 0
M  V30 6380 H 595.524 -5.4447 -0.763685 0
M  V30 6381 H 596.749 -6.71439 -1.0172 0
M  V30 6382 H 594.695 -5.79932 -3.06618 0
M  V30 6383 H 594.612 -7.25429 -2.12811 0
M  V30 6384 H 595.88 -7.0613 -3.30152 0
M  V30 6385 N 600.109 -0.101901 -1.5727 0
M  V30 6386 C 601.356 0.560197 -1.94597 0
M  V30 6387 C 601.684 1.67767 -0.984101 0
M  V30 6388 O 600.939 1.95699 -0.00489193 0
M  V30 6389 C 601.238 1.14898 -3.38427 0
M  V30 6390 C 600.904 0.154613 -4.50635 0
M  V30 6391 C 599.566 -0.118861 -4.81053 0
M  V30 6392 C 601.918 -0.523979 -5.18559 0
M  V30 6393 C 599.246 -1.0775 -5.76721 0
M  V30 6394 C 601.598 -1.47114 -6.15256 0
M  V30 6395 C 600.262 -1.75278 -6.44076 0
M  V30 6396 H 599.532 0.204991 -0.712081 0
M  V30 6397 H 602.179 -0.17918 -1.9066 0
M  V30 6398 H 600.484 1.96476 -3.38976 0
M  V30 6399 H 602.181 1.66909 -3.64613 0
M  V30 6400 H 598.771 0.377948 -4.2693 0
M  V30 6401 H 602.955 -0.325851 -4.95229 0
M  V30 6402 H 598.211 -1.30263 -5.97362 0
M  V30 6403 H 602.385 -2.00274 -6.66981 0
M  V30 6404 H 600.012 -2.49717 -7.18015 0
M  V30 6405 N 601.587 1.56661 0.17182 0
M  V30 6406 C 602.519 1.92934 1.2373 0
M  V30 6407 C 603.532 0.822385 1.40502 0
M  V30 6408 O 604.721 1.10083 1.40514 0
M  V30 6409 C 601.821 2.16651 2.60607 0
M  V30 6410 C 600.994 3.47878 2.6514 0
M  V30 6411 C 600.053 3.60429 3.83377 0
M  V30 6412 O 599.079 4.33051 3.69398 0
M  V30 6413 N 600.281 2.95241 4.99813 0
M  V30 6414 H 603.046 2.84931 0.929205 0
M  V30 6415 H 600.607 1.5781 0.361588 0
M  V30 6416 H 602.599 2.22312 3.38171 0
M  V30 6417 H 601.169 1.3104 2.83809 0
M  V30 6418 H 600.389 3.53879 1.73675 0
M  V30 6419 H 601.677 4.34232 2.6518 0
M  V30 6420 H 601.075 2.3611 5.14071 0
M  V30 6421 H 599.632 3.06499 5.75241 0
M  V30 6422 N 603.065 -0.440357 1.51323 0
M  V30 6423 C 604.012 -1.53429 1.72419 0
M  V30 6424 C 604.982 -1.56165 0.565826 0
M  V30 6425 O 606.167 -1.73222 0.799917 0
M  V30 6426 C 603.307 -2.91169 1.85242 0
M  V30 6427 C 602.42 -2.97985 3.12777 0
M  V30 6428 C 601.555 -4.26829 3.16212 0
M  V30 6429 C 600.594 -4.27501 4.38074 0
M  V30 6430 N 599.731 -5.47866 4.39076 0
M  V30 6431 H 604.571 -1.34743 2.65797 0
M  V30 6432 H 602.108 -0.654608 1.31732 0
M  V30 6433 H 604.066 -3.71087 1.90658 0
M  V30 6434 H 602.696 -3.0842 0.952744 0
M  V30 6435 H 601.748 -2.10749 3.16685 0
M  V30 6436 H 603.06 -2.94342 4.02696 0
M  V30 6437 H 602.214 -5.15118 3.20527 0
M  V30 6438 H 600.953 -4.33124 2.24176 0
M  V30 6439 H 599.958 -3.37606 4.33938 0
M  V30 6440 H 601.183 -4.22873 5.31371 0
M  V30 6441 H 599.129 -5.54887 3.49909 0
M  V30 6442 H 599.046 -5.46091 5.22801 0
M  V30 6443 H 600.314 -6.38195 4.4758 0
M  V30 6444 N 604.543 -1.41418 -0.695603 0
M  V30 6445 C 605.783 -1.42241 -1.46788 0
M  V30 6446 C 606.147 -0.0300827 -1.91976 0
M  V30 6447 O 607.348 0.0868914 -2.6866 0
M  V30 6448 C 605.619 -2.4011 -2.6473 0
M  V30 6449 S 607.178 -2.59462 -3.53871 0
M  V30 6450 H 603.996 -0.503893 -0.50161 0
M  V30 6451 H 606.598 -1.77855 -0.811654 0
M  V30 6452 H 605.302 -3.40073 -2.29736 0
M  V30 6453 H 604.833 -2.05849 -3.35246 0
M  V30 6454 H 606.848 -1.862 -4.59939 0
M  V30 6455 N 606.021 0.929856 -1.27246 0
M  V30 6456 C 607.246 1.71674 -1.16374 0
M  V30 6457 C 607.671 1.86064 0.276024 0
M  V30 6458 O 607.029 1.3591 1.19992 0
M  V30 6459 C 607.077 3.09526 -1.85003 0
M  V30 6460 O 606.181 3.96142 -1.14653 0
M  V30 6461 H 605.522 0.52629 -0.404863 0
M  V30 6462 H 608.052 1.16381 -1.68276 0
M  V30 6463 H 608.062 3.59852 -1.92276 0
M  V30 6464 H 606.737 2.98369 -2.89739 0
M  V30 6465 H 605.314 3.54584 -1.15433 0
M  V30 6466 N 607.499 1.09233 1.13605 0
M  V30 6467 C 608.462 0.733553 2.17144 0
M  V30 6468 C 609.462 -0.235873 1.59061 0
M  V30 6469 O 610.652 -0.0143167 1.74194 0
M  V30 6470 C 607.784 0.084471 3.40795 0
M  V30 6471 H 608.977 1.65049 2.50397 0
M  V30 6472 H 606.53 0.891264 1.28399 0
M  V30 6473 H 607.265 -0.843795 3.1313 0
M  V30 6474 H 607.05 0.781985 3.84223 0
M  V30 6475 H 608.54 -0.151216 4.17326 0
M  V30 6476 N 608.977 -1.30795 0.87923 0
M  V30 6477 C 610.254 -1.91145 0.415086 0
M  V30 6478 C 610.634 -1.7995 -1.10368 0
M  V30 6479 O 609.982 -1.21305 -1.93642 0
M  V30 6480 C 610.192 -3.37014 0.906778 0
M  V30 6481 C 611.54 -4.14101 0.938358 0
M  V30 6482 O 612.564 -3.45834 0.853053 0
M  V30 6483 O 611.423 -5.36054 1.06342 0
M  V30 6484 H 608.517 -0.81736 0.125905 0
M  V30 6485 H 611.063 -1.39401 0.967753 0
M  V30 6486 H 609.835 -3.3922 1.95053 0
M  V30 6487 H 609.458 -3.96204 0.332948 0
M  V30 6488 N 610.455 -0.639598 -1.44038 0
M  V30 6489 C 611.365 0.0612377 -2.3452 0
M  V30 6490 C 612.381 0.826717 -1.53106 0
M  V30 6491 O 613.557 0.777059 -1.85806 0
M  V30 6492 C 610.622 1.02492 -3.31204 0
M  V30 6493 C 609.683 0.25788 -4.28525 0
M  V30 6494 C 608.916 1.17566 -5.2059 0
M  V30 6495 O 609.139 2.41461 -5.16771 0
M  V30 6496 O 608.073 0.655407 -5.98321 0
M  V30 6497 H 611.899 -0.68318 -2.95916 0
M  V30 6498 H 609.484 -0.399784 -1.43952 0
M  V30 6499 H 611.366 1.57911 -3.90694 0
M  V30 6500 H 610.041 1.7498 -2.7233 0
M  V30 6501 H 608.948 -0.339566 -3.72556 0
M  V30 6502 H 610.281 -0.427154 -4.90343 0
M  V30 6503 N 611.933 1.52934 -0.380664 0
M  V30 6504 C 613.158 2.06363 0.207157 0
M  V30 6505 C 613.583 1.25122 1.4045 0
M  V30 6506 O 612.941 0.274062 1.79217 0
M  V30 6507 C 612.989 3.56162 0.563996 0
M  V30 6508 O 612.093 3.77552 1.65917 0
M  V30 6509 H 611.434 0.663468 0.0265859 0
M  V30 6510 H 613.964 1.9719 -0.545635 0
M  V30 6511 H 613.974 3.99453 0.830752 0
M  V30 6512 H 612.649 4.14732 -0.311427 0
M  V30 6513 H 611.226 3.46154 1.3868 0
M  V30 6514 N 613.412 0.11024 1.57214 0
M  V30 6515 C 614.823 -0.416527 1.81994 0
M  V30 6516 C 615.174 -1.67183 1.02686 0
M  V30 6517 O 614.299 -2.14823 0.260782 0
M  V30 6518 C 614.894 -0.762466 3.30109 0
M  V30 6519 C 613.453 -1.23391 3.556 0
M  V30 6520 C 612.6 -0.238166 2.76275 0
M  V30 6521 H 615.551 0.335491 1.55113 0
M  V30 6522 H 615.572 -1.62068 3.44259 0
M  V30 6523 H 615.084 0.151346 3.87805 0
M  V30 6524 H 613.185 -2.16492 3.03253 0
M  V30 6525 H 613.298 -1.18528 4.64207 0
M  V30 6526 H 611.662 -0.723421 2.4421 0
M  V30 6527 H 612.445 0.668591 3.36727 0
M  V30 6528 O 614.929 -1.61473 -0.0293866 0
M  V30 6529 H 615.62 -1.82469 -0.649975 0
M  V30 END ATOM
M  V30 BEGIN BOND
M  V30 END BOND
M  V30 END CTAB
M  END
$$$$
