drugbank_target|Q9P2W7 Galactosylgalactosylxylosylprotein 3-beta-glucuronosyltransferase 1 (DB01694; DB03435)
 OpenBabel12092119503D

  0  0  0     0  0            999 V3000
M  V30 BEGIN CTAB
M  V30 COUNTS 5437 5509 0 0 0
M  V30 BEGIN ATOM
M  V30 1 H -0.908 1.98254 -0.117106 0
M  V30 2 N 0 1.576 0 0
M  V30 3 C 0.933 2.03868 1.02534 0
M  V30 4 C 1.911 0.928543 1.3348 0
M  V30 5 O 3.095 1.19667 1.45644 0
M  V30 6 C 0.222 2.43627 2.35294 0
M  V30 7 C -0.732 3.65373 2.2001 0
M  V30 8 S 0.101 5.13292 1.52614 0
M  V30 9 C 1.257 5.56322 2.86805 0
M  V30 10 H 1.49 2.90518 0.631377 0
M  V30 11 H -0.977 1.52953 0.210867 0
M  V30 12 H 0.981 2.67203 3.11629 0
M  V30 13 H -0.358 1.57376 2.7183 0
M  V30 14 H -1.165 3.90944 3.18086 0
M  V30 15 H -1.563 3.418 1.51819 0
M  V30 16 H 0.729 5.58782 3.83104 0
M  V30 17 H 1.672 6.56266 2.65933 0
M  V30 18 H 2.08 4.83886 2.90714 0
M  V30 19 N 1.4781 -0.272755 1.55222 0
M  V30 20 C 2.8891 -0.84378 1.66545 0
M  V30 21 C 3.2401 -1.87035 0.592641 0
M  V30 22 O 2.3651 -2.14761 -0.265818 0
M  V30 23 C 2.9601 -1.53723 3.01918 0
M  V30 24 C 1.5191 -2.05628 3.15268 0
M  V30 25 C 0.6661 -0.898424 2.62343 0
M  V30 26 H 3.6171 -0.0490998 1.58624 0
M  V30 27 H 3.6381 -2.40421 2.94921 0
M  V30 28 H 3.1501 -0.78983 3.79978 0
M  V30 29 H 1.2511 -2.83329 2.41983 0
M  V30 30 H 1.3641 -2.27142 4.21833 0
M  V30 31 H -0.2719 -1.29186 2.19506 0
M  V30 32 H 0.5111 -0.164528 3.42906 0
M  V30 33 N 2.9562 -1.48159 -0.537278 0
M  V30 34 C 3.9032 -1.62138 -1.64256 0
M  V30 35 C 4.8732 -0.463668 -1.59497 0
M  V30 36 O 6.0582 -0.686241 -1.78032 0
M  V30 37 C 3.1982 -1.66028 -3.02537 0
M  V30 38 C 2.3112 -2.92855 -3.17585 0
M  V30 39 C 1.4462 -2.87952 -4.46382 0
M  V30 40 C 0.4852 -4.09516 -4.54932 0
M  V30 41 N -0.3778 -4.02733 -5.75109 0
M  V30 42 H 4.4622 -2.56529 -1.51647 0
M  V30 43 H 1.9992 -1.27224 -0.738414 0
M  V30 44 H 3.9572 -1.66265 -3.82638 0
M  V30 45 H 2.5872 -0.751331 -3.13934 0
M  V30 46 H 1.6392 -3.02395 -2.30784 0
M  V30 47 H 2.9512 -3.82822 -3.19764 0
M  V30 48 H 2.1052 -2.8655 -5.34765 0
M  V30 49 H 0.8442 -1.95702 -4.46712 0
M  V30 50 H -0.1508 -4.11201 -3.64957 0
M  V30 51 H 1.0742 -5.02917 -4.56346 0
M  V30 52 H -0.9798 -3.13299 -5.76351 0
M  V30 53 H -1.0628 -4.86397 -5.78752 0
M  V30 54 H 0.2052 -4.05379 -6.65799 0
M  V30 55 N 4.4343 0.785586 -1.36625 0
M  V30 56 C 5.8503 1.08419 -1.17122 0
M  V30 57 C 6.0503 2.015 0.00208491 0
M  V30 58 O 5.1063 2.43551 0.666278 0
M  V30 59 C 6.4193 1.69498 -2.48377 0
M  V30 60 C 7.9673 1.81821 -2.54775 0
M  V30 61 C 8.4423 2.46315 -3.86126 0
M  V30 62 N 9.9333 2.53779 -3.87492 0
M  V30 63 C 10.6683 3.045 -4.85868 0
M  V30 64 N 10.1643 3.55499 -5.94637 0
M  V30 65 N 11.9573 3.03247 -4.73284 0
M  V30 66 H 4.1083 0.167264 -2.1174 0
M  V30 67 H 6.3713 0.13682 -0.938075 0
M  V30 68 H 6.0773 1.08571 -3.34522 0
M  V30 69 H 5.9513 2.6896 -2.64462 0
M  V30 70 H 8.3383 2.41884 -1.69045 0
M  V30 71 H 8.4193 0.811532 -2.42586 0
M  V30 72 H 8.0633 1.86895 -4.72263 0
M  V30 73 H 7.9933 3.47561 -3.95612 0
M  V30 74 H 10.4843 2.17672 -3.08913 0
M  V30 75 H 10.7973 3.92562 -6.65669 0
M  V30 76 H 9.1423 3.5364 -5.98301 0
M  V30 77 H 12.3333 2.62696 -3.87438 0
M  V30 78 H 12.5063 3.42467 -5.50109 0
M  V30 79 N 5.9124 1.20967 1.01018 0
M  V30 80 C 7.3284 0.965905 1.27053 0
M  V30 81 C 7.5284 -0.350785 1.98423 0
M  V30 82 O 6.5844 -1.07773 2.28344 0
M  V30 83 C 7.8974 2.15294 2.09926 0
M  V30 84 C 9.4454 2.19463 2.23171 0
M  V30 85 C 9.9204 3.3767 3.09424 0
M  V30 86 N 11.4114 3.37724 3.17012 0
M  V30 87 C 12.1464 4.25837 3.83993 0
M  V30 88 N 11.6424 5.24138 4.53047 0
M  V30 89 N 13.4354 4.1366 3.80581 0
M  V30 90 H 5.5864 2.0565 0.531194 0
M  V30 91 H 7.8494 0.90024 0.297106 0
M  V30 92 H 7.5554 3.10684 1.64828 0
M  V30 93 H 7.4294 2.13923 3.10672 0
M  V30 94 H 9.8164 1.24632 2.6749 0
M  V30 95 H 9.8974 2.2488 1.21912 0
M  V30 96 H 9.5414 4.32791 2.65808 0
M  V30 97 H 9.4714 3.29491 4.10784 0
M  V30 98 H 11.9624 2.6658 2.6785 0
M  V30 99 H 12.2754 5.87684 5.01844 0
M  V30 100 H 10.6204 5.28068 4.5185 0
M  V30 101 H 13.8114 3.36127 3.25785 0
M  V30 102 H 13.9844 4.82538 4.32505 0
M  V30 103 N 7.3905 -1.2043 1.01659 0
M  V30 104 C 8.6675 -1.8548 0.621004 0
M  V30 105 C 9.0475 -1.9091 -0.900919 0
M  V30 106 O 8.3955 -1.41694 -1.79263 0
M  V30 107 C 8.6055 -3.25119 1.2688 0
M  V30 108 C 9.9535 -4.01403 1.38423 0
M  V30 109 O 10.9775 -3.34473 1.22501 0
M  V30 110 O 9.8365 -5.21265 1.64151 0
M  V30 111 H 6.9305 -0.798761 0.214266 0
M  V30 112 H 9.4765 -1.28019 1.11396 0
M  V30 113 H 8.2485 -3.15932 2.30873 0
M  V30 114 H 7.8715 -3.90212 0.762917 0
M  V30 115 N 8.8686 -0.792821 -1.36206 0
M  V30 116 C 10.1176 -0.363353 -1.984 0
M  V30 117 C 10.4306 1.07172 -1.63626 0
M  V30 118 O 11.6366 1.60362 -2.19081 0
M  V30 119 C 10.0926 -0.59872 -3.54885 0
M  V30 120 C 9.7006 -2.04543 -3.9858 0
M  V30 121 C 11.4446 -0.233926 -4.23855 0
M  V30 122 C 9.3516 -2.22727 -5.47856 0
M  V30 123 H 8.2816 -0.13212 -0.742334 0
M  V30 124 H 10.9326 -0.974935 -1.55458 0
M  V30 125 H 9.3146 0.0826222 -3.95914 0
M  V30 126 H 10.4886 -2.76345 -3.68741 0
M  V30 127 H 8.8036 -2.36879 -3.42458 0
M  V30 128 H 11.4006 -0.348027 -5.33566 0
M  V30 129 H 11.7436 0.818351 -4.08177 0
M  V30 130 H 12.2766 -0.868639 -3.882 0
M  V30 131 H 9.0156 -3.2635 -5.68486 0
M  V30 132 H 8.5356 -1.55434 -5.7931 0
M  V30 133 H 10.2146 -2.03607 -6.14128 0
M  V30 134 N 10.3467 1.47872 -0.545128 0
M  V30 135 C 11.2767 2.32661 0.197793 0
M  V30 136 C 12.2577 1.43041 0.920504 0
M  V30 137 O 13.4427 1.71912 0.90333 0
M  V30 138 C 10.5727 3.24569 1.23582 0
M  V30 139 C 9.5267 4.23333 0.630323 0
M  V30 140 C 8.8527 5.0448 1.77211 0
M  V30 141 C 10.1527 5.20704 -0.407974 0
M  V30 142 H 11.8467 2.95024 -0.510045 0
M  V30 143 H 9.3927 1.4187 -0.246731 0
M  V30 144 H 11.3457 3.8272 1.76362 0
M  V30 145 H 10.0697 2.60236 1.97344 0
M  V30 146 H 8.7287 3.6639 0.123922 0
M  V30 147 H 8.3767 4.36561 2.49847 0
M  V30 148 H 8.0767 5.71339 1.37281 0
M  V30 149 H 9.6007 5.65487 2.3034 0
M  V30 150 H 11.0147 5.7329 0.033305 0
M  V30 151 H 9.4117 5.95699 -0.725486 0
M  V30 152 H 10.4817 4.66917 -1.30828 0
M  V30 153 N 11.8248 0.280983 1.55075 0
M  V30 154 C 12.7878 -0.590896 2.21452 0
M  V30 155 C 13.7878 -1.07682 1.19421 0
M  V30 156 O 14.9778 -0.97605 1.44288 0
M  V30 157 C 12.1098 -1.81587 2.88511 0
M  V30 158 H 13.3028 -0.0112554 2.99898 0
M  V30 159 H 10.8558 0.0316438 1.56268 0
M  V30 160 H 11.5908 -2.43587 2.14093 0
M  V30 161 H 11.3758 -1.4753 3.63287 0
M  V30 162 H 12.8658 -2.43575 3.39206 0
M  V30 163 N 13.3029 -1.57598 0.00835791 0
M  V30 164 C 14.5519 -1.90107 -0.673968 0
M  V30 165 C 14.8649 -0.884275 -1.7447 0
M  V30 166 O 16.0709 -1.09987 -2.48224 0
M  V30 167 C 14.5269 -3.37497 -1.24995 0
M  V30 168 C 14.1349 -4.47491 -0.2136 0
M  V30 169 C 15.8789 -3.79104 -1.90999 0
M  V30 170 C 13.7859 -5.85963 -0.80005 0
M  V30 171 H 12.7159 -0.709393 -0.255495 0
M  V30 172 H 15.3669 -1.83365 0.0702693 0
M  V30 173 H 13.7489 -3.39102 -2.04513 0
M  V30 174 H 14.9229 -4.57414 0.557596 0
M  V30 175 H 13.2379 -4.14956 0.346474 0
M  V30 176 H 15.8349 -4.79901 -2.35795 0
M  V30 177 H 16.1779 -3.1306 -2.74407 0
M  V30 178 H 16.7109 -3.79833 -1.18203 0
M  V30 179 H 13.4499 -6.555 -0.00456708 0
M  V30 180 H 12.9699 -5.79687 -1.54021 0
M  V30 181 H 14.6489 -6.33884 -1.29615 0
M  V30 182 N 14.781 0.264519 -1.55364 0
M  V30 183 C 16.027 0.99646 -1.76631 0
M  V30 184 C 16.36 1.85632 -0.570478 0
M  V30 185 O 15.635 1.89647 0.43175 0
M  V30 186 C 15.918 1.87187 -3.07625 0
M  V30 187 C 15.771 1.04138 -4.37579 0
M  V30 188 C 17.09 2.85749 -3.34717 0
M  V30 189 H 14.209 0.360841 -0.642622 0
M  V30 190 H 16.851 0.268218 -1.88097 0
M  V30 191 H 15.001 2.49279 -2.9798 0
M  V30 192 H 16.673 0.440517 -4.59192 0
M  V30 193 H 14.916 0.345115 -4.32425 0
M  V30 194 H 15.587 1.68729 -5.2558 0
M  V30 195 H 18.063 2.33793 -3.4421 0
M  V30 196 H 16.939 3.44136 -4.27623 0
M  V30 197 H 17.2 3.61311 -2.54768 0
M  V30 198 N 16.2591 1.48442 0.529413 0
M  V30 199 C 17.1891 1.65902 1.64313 0
M  V30 200 C 18.1701 0.507897 1.6234 0
M  V30 201 O 19.3551 0.740503 1.79528 0
M  V30 202 C 16.4851 1.69911 3.02898 0
M  V30 203 C 15.4391 2.8453 3.19729 0
M  V30 204 C 14.7651 2.73629 4.59381 0
M  V30 205 C 16.0651 4.25821 3.02447 0
M  V30 206 H 17.7591 2.5914 1.49955 0
M  V30 207 H 15.3051 1.24709 0.719982 0
M  V30 208 H 17.2581 1.80715 3.80684 0
M  V30 209 H 15.9821 0.732524 3.18279 0
M  V30 210 H 14.6411 2.73283 2.44361 0
M  V30 211 H 14.2891 1.74938 4.71599 0
M  V30 212 H 13.9891 3.50541 4.71588 0
M  V30 213 H 15.5131 2.86401 5.39265 0
M  V30 214 H 16.9271 4.37898 3.70024 0
M  V30 215 H 15.3241 5.03735 3.26146 0
M  V30 216 H 16.3941 4.42244 1.98867 0
M  V30 217 N 17.7372 -0.778329 1.37039 0
M  V30 218 C 18.9862 -1.53189 1.3121 0
M  V30 219 C 19.2992 -1.95328 -0.103095 0
M  V30 220 O 20.5052 -2.70012 -0.283826 0
M  V30 221 C 18.9612 -2.76591 2.30272 0
M  V30 222 C 18.5692 -2.41577 3.77286 0
M  V30 223 C 20.3132 -3.5455 2.33441 0
M  V30 224 C 18.2202 -3.61441 4.68096 0
M  V30 225 H 17.1502 -0.5751 0.487622 0
M  V30 226 H 19.8012 -0.853101 1.62464 0
M  V30 227 H 18.1832 -3.46326 1.92027 0
M  V30 228 H 19.3572 -1.79668 4.2433 0
M  V30 229 H 17.6722 -1.76806 3.76999 0
M  V30 230 H 20.2692 -4.43628 2.98493 0
M  V30 231 H 20.6122 -3.93936 1.34611 0
M  V30 232 H 21.1452 -2.91805 2.7036 0
M  V30 233 H 17.8842 -3.27142 5.6803 0
M  V30 234 H 17.4042 -4.22478 4.25761 0
M  V30 235 H 19.0832 -4.28335 4.8491 0
M  V30 236 N 19.2153 -1.21501 -1.00376 0
M  V30 237 C 20.4613 -1.03452 -1.74429 0
M  V30 238 C 20.7943 0.430764 -1.89362 0
M  V30 239 O 20.0693 1.31962 -1.42886 0
M  V30 240 C 20.3523 -1.73375 -3.15615 0
M  V30 241 C 20.2053 -3.27431 -3.08397 0
M  V30 242 C 21.5243 -1.47732 -4.14564 0
M  V30 243 H 18.6433 -0.377226 -0.633143 0
M  V30 244 H 21.2853 -1.49693 -1.17013 0
M  V30 245 H 19.4353 -1.34064 -3.64636 0
M  V30 246 H 21.1073 -3.76119 -2.67081 0
M  V30 247 H 19.3503 -3.5767 -2.45468 0
M  V30 248 H 20.0213 -3.71524 -4.08258 0
M  V30 249 H 22.4973 -1.8186 -3.74254 0
M  V30 250 H 21.3733 -1.99169 -5.11491 0
M  V30 251 H 21.6343 -0.407589 -4.40217 0
M  V30 252 N 20.6934 1.19889 -1.02296 0
M  V30 253 C 21.6234 2.25141 -0.619174 0
M  V30 254 C 22.6044 1.66051 0.368915 0
M  V30 255 O 23.7894 1.92546 0.252941 0
M  V30 256 C 20.9194 3.4728 0.0368783 0
M  V30 257 C 19.8734 4.19005 -0.872865 0
M  V30 258 C 19.1994 5.34637 -0.0822402 0
M  V30 259 C 20.4994 4.74452 -2.18387 0
M  V30 260 H 22.1934 2.59171 -1.49903 0
M  V30 261 H 19.7394 1.24579 -0.722222 0
M  V30 262 H 21.6924 4.20098 0.330958 0
M  V30 263 H 20.4164 3.12433 0.95149 0
M  V30 264 H 19.0754 3.48061 -1.15105 0
M  V30 265 H 18.7234 4.96034 0.83422 0
M  V30 266 H 18.4234 5.83557 -0.688149 0
M  V30 267 H 19.9474 6.10255 0.205238 0
M  V30 268 H 21.3614 5.39055 -1.95172 0
M  V30 269 H 19.7584 5.33834 -2.74119 0
M  V30 270 H 20.8284 3.92844 -2.84257 0
M  V30 271 N 22.1715 0.800033 1.35784 0
M  V30 272 C 23.5825 0.439142 1.81462 0
M  V30 273 C 23.9335 -1.03813 1.66485 0
M  V30 274 O 23.0585 -1.80626 1.19177 0
M  V30 275 C 23.6535 0.790314 3.29453 0
M  V30 276 C 22.2125 0.482111 3.733 0
M  V30 277 C 21.3595 1.01938 2.57883 0
M  V30 278 H 24.3105 0.992254 1.23855 0
M  V30 279 H 24.3315 0.0853677 3.80404 0
M  V30 280 H 23.8435 1.86554 3.40322 0
M  V30 281 H 21.9445 -0.584652 3.67984 0
M  V30 282 H 22.0575 1.01015 4.6833 0
M  V30 283 H 20.4215 0.442043 2.50835 0
M  V30 284 H 21.2045 2.10059 2.71533 0
M  V30 285 N 23.6496 -1.47581 0.552962 0
M  V30 286 C 24.8956 -2.03369 0.0355807 0
M  V30 287 C 25.2506 -1.42016 -1.29805 0
M  V30 288 O 24.5436 -0.564917 -1.83083 0
M  V30 289 C 24.7376 -3.57199 -0.119728 0
M  V30 290 C 24.5666 -4.33468 1.1973 0
M  V30 291 C 23.3366 -4.7353 1.76345 0
M  V30 292 C 25.5346 -4.68866 2.11351 0
M  V30 293 N 23.5166 -5.34426 3.02097 0
M  V30 294 C 24.8876 -5.3002 3.21681 0
M  V30 295 C 26.9426 -4.50795 2.11397 0
M  V30 296 C 25.6456 -5.75011 4.32151 0
M  V30 297 C 27.6716 -4.96782 3.20876 0
M  V30 298 C 27.0336 -5.57981 4.29926 0
M  V30 299 H 23.1326 -0.780058 0.0550806 0
M  V30 300 H 25.7166 -1.80117 0.739315 0
M  V30 301 H 23.8876 -3.80227 -0.792579 0
M  V30 302 H 25.6196 -3.99627 -0.638792 0
M  V30 303 H 22.3746 -4.55352 1.30196 0
M  V30 304 H 22.7986 -5.69421 3.66182 0
M  V30 305 H 27.4406 -4.0284 1.28372 0
M  V30 306 H 25.1586 -6.21959 5.15938 0
M  V30 307 H 28.7446 -4.84573 3.21994 0
M  V30 308 H 27.6246 -5.92918 5.13243 0
M  V30 309 N 25.1277 -0.289203 -1.54924 0
M  V30 310 C 26.3557 0.326463 -2.04308 0
M  V30 311 C 26.7707 1.48413 -1.16701 0
M  V30 312 O 26.1277 1.81507 -0.190087 0
M  V30 313 C 26.1787 0.794014 -3.52672 0
M  V30 314 O 25.8997 -0.317564 -4.36948 0
M  V30 315 C 27.4007 1.47605 -4.18004 0
M  V30 316 H 24.6207 0.0726272 -0.667058 0
M  V30 317 H 27.1647 -0.425401 -2.00026 0
M  V30 318 H 25.3197 1.49593 -3.57352 0
M  V30 319 H 25.7337 0.0443186 -5.24481 0
M  V30 320 H 27.2077 1.75447 -5.23376 0
M  V30 321 H 27.6847 2.41224 -3.67025 0
M  V30 322 H 28.2907 0.81762 -4.17367 0
M  V30 323 N 26.6058 1.57591 -0.0167156 0
M  V30 324 C 27.5358 2.12496 0.967858 0
M  V30 325 C 28.5168 1.03807 1.34752 0
M  V30 326 O 29.7018 1.31577 1.42833 0
M  V30 327 C 26.8318 2.64194 2.25431 0
M  V30 328 C 25.7858 3.77559 2.01576 0
M  V30 329 C 25.1118 4.15636 3.36379 0
M  V30 330 C 26.4118 5.04151 1.36489 0
M  V30 331 H 28.1058 2.95013 0.510643 0
M  V30 332 H 25.6518 1.41915 0.244181 0
M  V30 333 H 27.6048 3.01236 2.94678 0
M  V30 334 H 26.3288 1.78821 2.73296 0
M  V30 335 H 24.9878 3.40937 1.34751 0
M  V30 336 H 24.6358 3.27263 3.81979 0
M  V30 337 H 24.3358 4.92022 3.21229 0
M  V30 338 H 25.8598 4.5525 4.06915 0
M  V30 339 H 27.2738 5.38857 1.95718 0
M  V30 340 H 25.6708 5.85453 1.31776 0
M  V30 341 H 26.7408 4.83733 0.336219 0
M  V30 342 N 28.0839 -0.256276 1.55502 0
M  V30 343 C 29.0139 -1.32102 1.92539 0
M  V30 344 C 29.9949 -1.50684 0.789194 0
M  V30 345 O 31.1799 -1.63449 1.04872 0
M  V30 346 C 28.3099 -2.67752 2.21192 0
M  V30 347 C 27.2639 -2.63878 3.36975 0
M  V30 348 C 26.5899 -4.03236 3.51147 0
M  V30 349 C 27.8899 -2.21682 4.72921 0
M  V30 350 H 29.5839 -1.01351 2.81724 0
M  V30 351 H 27.1299 -0.486105 1.35547 0
M  V30 352 H 29.0829 -3.42365 2.45691 0
M  V30 353 H 27.8069 -3.0012 1.28824 0
M  V30 354 H 26.4659 -1.91722 3.12471 0
M  V30 355 H 26.1139 -4.32854 2.56216 0
M  V30 356 H 25.8139 -4.01535 4.29003 0
M  V30 357 H 27.3379 -4.79563 3.77957 0
M  V30 358 H 28.7519 -2.86023 4.96854 0
M  V30 359 H 27.1489 -2.3111 5.53812 0
M  V30 360 H 28.2189 -1.16833 4.70615 0
M  V30 361 N 29.562 -1.4872 -0.521534 0
M  V30 362 C 30.811 -1.56419 -1.27341 0
M  V30 363 C 31.124 -0.246805 -1.94037 0
M  V30 364 O 32.33 -0.202122 -2.70747 0
M  V30 365 C 30.786 -2.75896 -2.31105 0
M  V30 366 C 30.394 -4.14311 -1.70441 0
M  V30 367 C 32.138 -2.92913 -3.07249 0
M  V30 368 C 30.045 -5.25038 -2.72194 0
M  V30 369 H 28.975 -0.582344 -0.478949 0
M  V30 370 H 31.626 -1.75071 -0.549779 0
M  V30 371 H 30.008 -2.50697 -3.06541 0
M  V30 372 H 31.182 -4.49564 -1.01136 0
M  V30 373 H 29.497 -4.02482 -1.06759 0
M  V30 374 H 32.094 -3.72805 -3.83302 0
M  V30 375 H 32.437 -2.02689 -3.63625 0
M  V30 376 H 32.97 -3.18054 -2.38928 0
M  V30 377 H 29.709 -6.17255 -2.20627 0
M  V30 378 H 29.229 -4.94263 -3.39801 0
M  V30 379 H 30.908 -5.53508 -3.35019 0
M  V30 380 N 31.0401 0.771051 -1.3745 0
M  V30 381 C 32.2681 1.56015 -1.35893 0
M  V30 382 C 32.6831 1.88718 0.0555523 0
M  V30 383 O 32.0401 1.51502 1.01752 0
M  V30 384 C 32.0911 2.87001 -2.19801 0
M  V30 385 O 31.8121 2.557 -3.55738 0
M  V30 386 C 33.3131 3.81228 -2.26231 0
M  V30 387 H 30.5331 0.483317 -0.465453 0
M  V30 388 H 33.0771 0.955611 -1.80799 0
M  V30 389 H 31.2321 3.43877 -1.78402 0
M  V30 390 H 31.6461 3.39584 -3.99729 0
M  V30 391 H 33.1201 4.70139 -2.89263 0
M  V30 392 H 33.5971 4.20409 -1.27093 0
M  V30 393 H 34.2031 3.30281 -2.67945 0
M  V30 394 N 32.5182 1.22032 0.997298 0
M  V30 395 C 33.7642 1.04376 1.73878 0
M  V30 396 C 34.0972 -0.420716 1.89588 0
M  V30 397 O 33.3722 -1.31202 1.43583 0
M  V30 398 C 33.6552 1.75047 3.14691 0
M  V30 399 C 33.5082 3.29062 3.06656 0
M  V30 400 C 34.8272 1.49928 4.13775 0
M  V30 401 H 31.9462 0.380578 0.631133 0
M  V30 402 H 34.5882 1.50312 1.16217 0
M  V30 403 H 32.7382 1.35996 3.63919 0
M  V30 404 H 34.4102 3.7753 2.65083 0
M  V30 405 H 32.6532 3.58967 2.43568 0
M  V30 406 H 33.3242 3.73683 4.06282 0
M  V30 407 H 35.8002 1.83842 3.73285 0
M  V30 408 H 34.6762 2.01878 5.10428 0
M  V30 409 H 34.9372 0.430929 4.39995 0
M  V30 410 N 33.9963 -1.19345 1.0293 0
M  V30 411 C 35.2423 -1.89585 0.736824 0
M  V30 412 C 35.5973 -1.78148 -0.726703 0
M  V30 413 O 34.8903 -1.16332 -1.52242 0
M  V30 414 C 35.0843 -3.39292 1.12319 0
M  V30 415 C 34.9133 -3.65298 2.62273 0
M  V30 416 C 33.6833 -3.83304 3.29251 0
M  V30 417 C 35.8813 -3.6682 3.60482 0
M  V30 418 N 33.8633 -3.96944 4.68304 0
M  V30 419 C 35.2343 -3.86037 4.85155 0
M  V30 420 C 37.2893 -3.49848 3.54275 0
M  V30 421 C 35.9923 -3.9004 6.04369 0
M  V30 422 C 38.0183 -3.55129 4.72903 0
M  V30 423 C 37.3803 -3.74831 5.9639 0
M  V30 424 H 33.4793 -0.712856 0.321497 0
M  V30 425 H 36.0633 -1.43427 1.31669 0
M  V30 426 H 34.2343 -3.84172 0.571524 0
M  V30 427 H 35.9663 -3.97055 0.78292 0
M  V30 428 H 32.7213 -3.82211 2.79663 0
M  V30 429 H 33.1453 -4.07613 5.40538 0
M  V30 430 H 37.7873 -3.33572 2.59788 0
M  V30 431 H 35.5053 -4.05108 6.99223 0
M  V30 432 H 39.0913 -3.43287 4.69729 0
M  V30 433 H 37.9713 -3.78792 6.86649 0
M  V30 434 N 35.4744 -0.807222 -1.35358 0
M  V30 435 C 36.4244 -0.190706 -2.27201 0
M  V30 436 C 37.4084 0.635838 -1.47804 0
M  V30 437 O 38.6004 0.492991 -1.69996 0
M  V30 438 C 35.7294 0.659337 -3.36909 0
M  V30 439 C 34.8154 -0.176971 -4.23731 0
M  V30 440 N 35.2064 -1.24029 -4.90357 0
M  V30 441 C 33.5044 0.0412953 -4.45981 0
M  V30 442 C 34.2054 -1.75092 -5.54723 0
M  V30 443 N 33.1814 -1.05727 -5.33219 0
M  V30 444 H 36.9834 -1.0043 -2.76208 0
M  V30 445 H 34.4974 -0.648445 -1.48892 0
M  V30 446 H 36.4944 1.11706 -4.01656 0
M  V30 447 H 35.1544 1.47127 -2.89454 0
M  V30 448 H 36.1654 -1.62295 -4.91814 0
M  V30 449 H 32.8424 0.82232 -4.09322 0
M  V30 450 H 34.2324 -2.63963 -6.17878 0
M  V30 451 N 36.9525 1.47285 -0.560781 0
M  V30 452 C 37.8845 2.28118 0.222438 0
M  V30 453 C 38.8975 1.37219 0.876056 0
M  V30 454 O 40.0865 1.62011 0.749307 0
M  V30 455 C 37.1865 3.1159 1.33285 0
M  V30 456 C 36.3595 4.30473 0.77534 0
M  V30 457 C 35.4185 4.95513 1.77069 0
M  V30 458 O 34.4445 5.53792 1.31539 0
M  V30 459 N 35.6465 4.90531 3.10418 0
M  V30 460 H 38.4115 2.95976 -0.470958 0
M  V30 461 H 35.9725 1.56955 -0.39709 0
M  V30 462 H 37.9645 3.51967 1.99752 0
M  V30 463 H 36.5345 2.45951 1.92943 0
M  V30 464 H 35.7545 3.94144 -0.0662113 0
M  V30 465 H 37.0425 5.07362 0.382272 0
M  V30 466 H 36.4405 4.44389 3.5005 0
M  V30 467 H 34.9975 5.34917 3.72434 0
M  V30 468 N 38.4306 0.297415 1.54768 0
M  V30 469 C 39.6556 -0.318435 2.04941 0
M  V30 470 C 40.0806 -1.4701 1.17345 0
M  V30 471 O 39.4386 -1.80436 0.176758 0
M  V30 472 C 39.4866 -0.755749 3.52592 0
M  V30 473 O 38.5906 -1.86088 3.68028 0
M  V30 474 H 37.9316 -0.062421 0.661059 0
M  V30 475 H 40.4616 0.438215 1.99852 0
M  V30 476 H 40.4716 -1.04552 3.94376 0
M  V30 477 H 39.1466 0.0867233 4.1581 0
M  V30 478 H 37.7236 -1.57193 3.38149 0
M  V30 479 N 39.9087 -1.5758 0.0250728 0
M  V30 480 C 41.1367 -1.9593 -0.664747 0
M  V30 481 C 41.5517 -0.901352 -1.65895 0
M  V30 482 O 40.9087 0.117255 -1.82123 0
M  V30 483 C 40.9597 -3.34342 -1.37468 0
M  V30 484 O 40.6807 -4.36079 -0.420324 0
M  V30 485 C 42.1817 -3.873 -2.1567 0
M  V30 486 H 39.4017 -0.645405 -0.183557 0
M  V30 487 H 41.9457 -2.04329 0.0836372 0
M  V30 488 H 40.1007 -3.27175 -2.0745 0
M  V30 489 H 40.5147 -5.16297 -0.923991 0
M  V30 490 H 41.9887 -4.86504 -2.60803 0
M  V30 491 H 42.4657 -3.21331 -2.99405 0
M  V30 492 H 43.0717 -3.97723 -1.50654 0
M  V30 493 N 41.3868 0.248026 -1.55636 0
M  V30 494 C 42.3168 1.31079 -1.93237 0
M  V30 495 C 43.2978 1.50264 -0.797174 0
M  V30 496 O 44.4828 1.62891 -1.05737 0
M  V30 497 C 41.6128 2.66575 -2.22609 0
M  V30 498 C 40.5668 2.62087 -3.3837 0
M  V30 499 C 39.8928 4.01369 -3.53281 0
M  V30 500 C 41.1928 2.19171 -4.7409 0
M  V30 501 H 42.8868 0.998556 -2.82257 0
M  V30 502 H 40.4328 0.47891 -1.35803 0
M  V30 503 H 42.3858 3.41057 -2.47503 0
M  V30 504 H 41.1098 2.99432 -1.30414 0
M  V30 505 H 39.7688 1.90063 -3.13483 0
M  V30 506 H 39.4168 4.31489 -2.58508 0
M  V30 507 H 39.1168 3.99254 -4.31127 0
M  V30 508 H 40.6408 4.77552 -3.80495 0
M  V30 509 H 42.0548 2.83384 -4.98363 0
M  V30 510 H 40.4518 2.2817 -5.5503 0
M  V30 511 H 41.5218 1.14336 -4.71227 0
M  V30 512 N 42.8649 1.48995 0.513639 0
M  V30 513 C 43.8279 1.64229 1.59879 0
M  V30 514 C 44.8279 0.514696 1.5234 0
M  V30 515 O 46.0179 0.78087 1.55718 0
M  V30 516 C 43.1499 1.62783 2.99524 0
M  V30 517 H 44.3429 2.61004 1.47705 0
M  V30 518 H 41.8959 1.37837 0.736936 0
M  V30 519 H 42.6309 0.675461 3.17188 0
M  V30 520 H 42.4159 2.4466 3.06404 0
M  V30 521 H 43.9059 1.76669 3.78388 0
M  V30 522 N 44.343 -0.763751 1.37857 0
M  V30 523 C 45.754 -1.3405 1.29952 0
M  V30 524 C 46.105 -1.96138 -0.0492898 0
M  V30 525 O 45.23 -1.94372 -0.951239 0
M  V30 526 C 45.825 -2.43729 2.35333 0
M  V30 527 C 44.384 -2.97151 2.31037 0
M  V30 528 C 43.531 -1.70438 2.18738 0
M  V30 529 H 46.482 -0.563396 1.48363 0
M  V30 530 H 46.503 -3.23412 2.00462 0
M  V30 531 H 46.015 -1.9851 3.33489 0
M  V30 532 H 44.116 -3.46724 1.3643 0
M  V30 533 H 44.229 -3.52221 3.24772 0
M  V30 534 H 42.593 -1.93673 1.65418 0
M  V30 535 H 43.376 -1.27312 3.18821 0
M  V30 536 N 45.8211 -1.22559 -0.990812 0
M  V30 537 C 46.7511 -1.0218 -2.09956 0
M  V30 538 C 47.7321 0.0579394 -1.70001 0
M  V30 539 O 48.9171 -0.104684 -1.93918 0
M  V30 540 C 46.0471 -0.601023 -3.4206 0
M  V30 541 C 45.0011 -1.62694 -3.95872 0
M  V30 542 C 44.3271 -1.06193 -5.24049 0
M  V30 543 C 45.6271 -3.01743 -4.2632 0
M  V30 544 H 47.3211 -1.94916 -2.27262 0
M  V30 545 H 44.8671 -0.938566 -1.09211 0
M  V30 546 H 46.8201 -0.445561 -4.19038 0
M  V30 547 H 45.5441 0.362005 -3.24588 0
M  V30 548 H 44.2031 -1.77021 -3.21028 0
M  V30 549 H 43.8511 -0.0901903 -5.02919 0
M  V30 550 H 43.5511 -1.74732 -5.61019 0
M  V30 551 H 45.0751 -0.918092 -6.03658 0
M  V30 552 H 46.4891 -2.90777 -4.94087 0
M  V30 553 H 44.8861 -3.67425 -4.74467 0
M  V30 554 H 45.9561 -3.51518 -3.34011 0
M  V30 555 N 47.2992 1.18797 -1.03562 0
M  V30 556 C 48.2292 2.24472 -0.643019 0
M  V30 557 C 49.2102 1.66433 0.351283 0
M  V30 558 O 50.3952 1.92803 0.232505 0
M  V30 559 C 47.5252 3.473 4.24935e-05 0
M  V30 560 C 46.4792 4.18055 -0.917257 0
M  V30 561 C 45.8052 5.34519 -0.138941 0
M  V30 562 C 47.1052 4.72109 -2.23407 0
M  V30 563 H 48.7992 2.57566 -1.52643 0
M  V30 564 H 46.3452 1.23806 -0.735394 0
M  V30 565 H 48.2982 4.20426 0.286383 0
M  V30 566 H 47.0222 3.13424 0.918299 0
M  V30 567 H 45.6812 3.46821 -1.1879 0
M  V30 568 H 45.3292 4.96891 0.781562 0
M  V30 569 H 45.0292 5.82794 -0.750005 0
M  V30 570 H 46.5532 6.10438 0.1405 0
M  V30 571 H 47.9672 5.36955 -2.00879 0
M  V30 572 H 46.3642 5.30897 -2.79765 0
M  V30 573 H 47.4342 3.89807 -2.88407 0
M  V30 574 N 48.7773 0.814389 1.34928 0
M  V30 575 C 49.7403 0.235759 2.27984 0
M  V30 576 C 50.7403 -0.581412 1.49921 0
M  V30 577 O 51.9303 -0.398758 1.69575 0
M  V30 578 C 49.0623 -0.670433 3.34242 0
M  V30 579 H 50.2553 1.05659 2.80671 0
M  V30 580 H 47.8083 0.585614 1.44915 0
M  V30 581 H 48.5433 -1.51466 2.86755 0
M  V30 582 H 48.3283 -0.0860822 3.92005 0
M  V30 583 H 49.8183 -1.06935 4.03676 0
M  V30 584 N 50.2554 -1.46986 0.568584 0
M  V30 585 C 51.5014 -2.02741 0.0488709 0
M  V30 586 C 51.8344 -1.44077 -1.30214 0
M  V30 587 O 51.1094 -0.600552 -1.84996 0
M  V30 588 C 51.3924 -3.60086 -0.032047 0
M  V30 589 C 51.2454 -4.29162 1.34686 0
M  V30 590 C 52.5644 -4.33838 -0.739798 0
M  V30 591 H 49.6834 -0.736749 0.0192338 0
M  V30 592 H 52.3254 -1.75289 0.733065 0
M  V30 593 H 50.4754 -3.83606 -0.61473 0
M  V30 594 H 52.1474 -4.16948 1.97362 0
M  V30 595 H 50.3904 -3.89073 1.91846 0
M  V30 596 H 51.0614 -5.37826 1.24285 0
M  V30 597 H 53.5374 -4.15378 -0.244939 0
M  V30 598 H 52.4134 -5.43537 -0.765406 0
M  V30 599 H 52.6744 -4.03875 -1.79827 0
M  V30 600 N 51.7335 -0.305618 -1.54608 0
M  V30 601 C 52.6835 0.583595 -2.20405 0
M  V30 602 C 53.6675 1.09539 -1.17856 0
M  V30 603 O 54.8595 1.0354 -1.43557 0
M  V30 604 C 51.9885 1.75277 -2.95183 0
M  V30 605 C 51.0745 1.25672 -4.05052 0
M  V30 606 N 51.4655 0.478998 -5.03527 0
M  V30 607 C 49.7635 1.53704 -4.18678 0
M  V30 608 C 50.4645 0.214269 -5.81305 0
M  V30 609 N 49.4405 0.795374 -5.3775 0
M  V30 610 H 53.2425 -0.0180946 -2.93894 0
M  V30 611 H 50.7565 -0.110601 -1.62023 0
M  V30 612 H 52.7535 2.4014 -3.40791 0
M  V30 613 H 51.4135 2.35812 -2.23211 0
M  V30 614 H 52.4245 0.123473 -5.17753 0
M  V30 615 H 49.1015 2.14954 -3.57912 0
M  V30 616 H 50.4915 -0.410656 -6.70644 0
M  V30 617 N 53.2116 1.57565 -0.0334293 0
M  V30 618 C 54.1586 2.10478 0.946981 0
M  V30 619 C 55.1286 1.00787 1.32027 0
M  V30 620 O 56.3136 1.28232 1.41284 0
M  V30 621 C 53.4536 2.63994 2.22263 0
M  V30 622 C 52.5666 3.87709 1.90541 0
M  V30 623 C 51.7016 4.29604 3.12433 0
M  V30 624 C 50.7406 5.46065 2.76549 0
M  V30 625 N 49.8776 5.83096 3.9108 0
M  V30 626 H 54.7176 2.93963 0.488846 0
M  V30 627 H 52.2546 1.45296 0.22969 0
M  V30 628 H 54.2126 2.93114 2.96884 0
M  V30 629 H 52.8426 1.83333 2.65685 0
M  V30 630 H 51.8946 3.65291 1.06144 0
M  V30 631 H 53.2066 4.72403 1.60116 0
M  V30 632 H 52.3606 4.60182 3.9537 0
M  V30 633 H 51.0996 3.43685 3.46023 0
M  V30 634 H 50.1046 5.15176 1.92026 0
M  V30 635 H 51.3296 6.33685 2.44171 0
M  V30 636 H 49.2756 5.00132 4.24504 0
M  V30 637 H 49.1926 6.6244 3.64293 0
M  V30 638 H 50.4606 6.18282 4.74708 0
M  V30 639 N 54.6897 -0.239769 1.55765 0
M  V30 640 C 55.9667 -0.990056 1.68693 0
M  V30 641 C 56.3467 -2.03107 0.5754 0
M  V30 642 O 55.6947 -2.24604 -0.42017 0
M  V30 643 C 55.9047 -1.61696 3.09282 0
M  V30 644 C 57.2527 -2.11613 3.6811 0
M  V30 645 O 58.2767 -1.71624 3.12127 0
M  V30 646 O 57.1357 -2.85057 4.66267 0
M  V30 647 H 54.2297 -0.461299 0.686391 0
M  V30 648 H 56.7757 -0.232991 1.68093 0
M  V30 649 H 55.5477 -0.864357 3.81634 0
M  V30 650 H 55.1707 -2.44005 3.13923 0
M  V30 651 N 56.1678 -1.49265 -0.50573 0
M  V30 652 C 57.0778 -1.68312 -1.63427 0
M  V30 653 C 58.0938 -0.565682 -1.64548 0
M  V30 654 O 59.2698 -0.839801 -1.83055 0
M  V30 655 C 56.3348 -1.74107 -2.99813 0
M  V30 656 C 55.3958 -2.97653 -3.09356 0
M  V30 657 C 54.6288 -3.03163 -4.39236 0
M  V30 658 O 54.8518 -2.16396 -5.27758 0
M  V30 659 O 53.7858 -3.9558 -4.53652 0
M  V30 660 H 57.6118 -2.63907 -1.50289 0
M  V30 661 H 55.1968 -1.32951 -0.681502 0
M  V30 662 H 57.0788 -1.803 -3.80881 0
M  V30 663 H 55.7538 -0.816901 -3.13223 0
M  V30 664 H 54.6608 -2.96981 -2.27493 0
M  V30 665 H 55.9938 -3.89535 -3.00871 0
M  V30 666 N 57.6459 0.756429 -1.3826 0
M  V30 667 C 58.8939 1.51248 -1.34047 0
M  V30 668 C 59.2149 1.94875 0.0698372 0
M  V30 669 O 58.4849 1.67436 1.01696 0
M  V30 670 H 57.0649 0.561018 -0.493222 0
M  V30 671 H 59.7269 0.899347 -1.7291 0
M  V30 672 H 58.8229 2.40472 -1.98947 0
M  V30 673 N 59.124 1.23083 0.984299 0
M  V30 674 C 60.349 1.088 1.76571 0
M  V30 675 C 60.774 -0.356657 1.84688 0
M  V30 676 O 60.132 -1.25788 1.30565 0
M  V30 677 C 60.18 1.71371 3.17277 0
M  V30 678 O 59.284 0.973213 4.00752 0
M  V30 679 H 58.625 0.381599 0.543395 0
M  V30 680 H 61.155 1.63057 1.23587 0
M  V30 681 H 61.165 1.76449 3.67872 0
M  V30 682 H 59.84 2.76493 3.10684 0
M  V30 683 H 58.417 0.999078 3.59267 0
M  V30 684 N 60.6021 -1.18246 1.0419 0
M  V30 685 C 61.8791 -1.84121 0.660208 0
M  V30 686 C 62.2591 -1.92778 -0.860221 0
M  V30 687 O 61.6071 -1.45464 -1.76217 0
M  V30 688 C 61.8171 -3.22355 1.33747 0
M  V30 689 C 63.1651 -3.98376 1.46906 0
M  V30 690 O 64.1891 -3.31799 1.29568 0
M  V30 691 O 63.0481 -5.17665 1.75171 0
M  V30 692 H 60.1421 -0.794036 0.231161 0
M  V30 693 H 62.6881 -1.25628 1.14087 0
M  V30 694 H 61.4601 -3.10964 2.37522 0
M  V30 695 H 61.0831 -3.88506 0.845515 0
M  V30 696 N 62.0802 -0.821533 -1.34494 0
M  V30 697 C 63.4912 -0.467956 -1.8074 0
M  V30 698 C 63.8422 1.01151 -1.68116 0
M  V30 699 O 62.9672 1.78707 -1.22036 0
M  V30 700 C 63.5622 -0.842627 -3.28154 0
M  V30 701 C 62.1212 -0.541439 -3.72485 0
M  V30 702 C 61.2682 -1.06028 -2.56229 0
M  V30 703 H 64.2192 -1.01183 -1.22261 0
M  V30 704 H 64.2402 -0.145876 -3.8022 0
M  V30 705 H 63.7522 -1.91945 -3.37311 0
M  V30 706 H 61.8532 0.526034 -3.68868 0
M  V30 707 H 61.9662 -1.08453 -4.66663 0
M  V30 708 H 60.3302 -0.481892 -2.501 0
M  V30 709 H 61.1132 -2.14352 -2.68157 0
M  V30 710 N 63.5583 1.46682 -0.576371 0
M  V30 711 C 64.9743 1.57822 -0.237562 0
M  V30 712 C 65.1743 1.57237 1.26011 0
M  V30 713 O 64.2303 1.48596 2.04146 0
M  V30 714 C 65.5433 2.87499 -0.881168 0
M  V30 715 C 67.0913 3.01119 -0.85417 0
M  V30 716 C 67.5663 4.33524 -1.4772 0
M  V30 717 N 69.0573 4.40207 -1.44125 0
M  V30 718 C 69.7923 5.4126 -1.89276 0
M  V30 719 N 69.2883 6.49021 -2.42371 0
M  V30 720 N 71.0813 5.32422 -1.80231 0
M  V30 721 H 63.2323 1.45306 -1.54919 0
M  V30 722 H 65.4953 0.692733 -0.647167 0
M  V30 723 H 65.2013 2.9372 -1.93447 0
M  V30 724 H 65.0753 3.75224 -0.385592 0
M  V30 725 H 67.4623 2.94485 0.190491 0
M  V30 726 H 67.5433 2.14887 -1.3877 0
M  V30 727 H 67.1873 4.40916 -2.52103 0
M  V30 728 H 67.1173 5.1852 -0.918947 0
M  V30 729 H 69.6083 3.62931 -1.05307 0
M  V30 730 H 69.9213 7.2233 -2.74698 0
M  V30 731 H 68.2663 6.49858 -2.46393 0
M  V30 732 H 71.4573 4.47137 -1.38514 0
M  V30 733 H 71.6303 6.11034 -2.15735 0
M  V30 734 N 65.0364 0.313813 1.54444 0
M  V30 735 C 66.4524 -0.0391619 1.59552 0
M  V30 736 C 66.6524 -1.51322 1.33056 0
M  V30 737 O 65.7084 -2.26782 1.11022 0
M  V30 738 C 67.0214 0.370302 2.98411 0
M  V30 739 C 68.5694 0.320139 3.11358 0
M  V30 740 C 69.0444 0.704617 4.52547 0
M  V30 741 N 70.5354 0.657645 4.58508 0
M  V30 742 C 71.2704 0.927453 5.6585 0
M  V30 743 N 70.7664 1.26389 6.81174 0
M  V30 744 N 72.5594 0.853662 5.5558 0
M  V30 745 H 64.7104 1.27433 1.69925 0
M  V30 746 H 66.9734 0.517511 0.794284 0
M  V30 747 H 66.6794 1.39694 3.22767 0
M  V30 748 H 66.5534 -0.269619 3.76235 0
M  V30 749 H 68.9404 -0.697275 2.86744 0
M  V30 750 H 69.0214 0.99486 2.35661 0
M  V30 751 H 68.6654 1.7199 4.77893 0
M  V30 752 H 68.5954 0.00768843 5.26599 0
M  V30 753 H 71.0864 0.409067 3.75679 0
M  V30 754 H 71.3994 1.4554 7.58972 0
M  V30 755 H 69.7444 1.30206 6.82694 0
M  V30 756 H 72.9354 0.590383 4.64362 0
M  V30 757 H 73.1084 1.0673 6.3915 0
M  V30 758 N 66.5145 -1.57545 0.0417849 0
M  V30 759 C 67.4245 -2.14451 -0.951213 0
M  V30 760 C 68.4405 -1.09992 -1.34825 0
M  V30 761 O 69.6165 -1.42114 -1.42708 0
M  V30 762 C 66.6815 -2.67063 -2.21084 0
M  V30 763 C 65.7425 -3.86284 -1.87304 0
M  V30 764 C 64.9755 -4.36378 -3.07261 0
M  V30 765 O 65.1985 -3.85587 -4.20332 0
M  V30 766 O 64.1325 -5.28077 -2.88822 0
M  V30 767 H 67.9585 -2.99601 -0.497287 0
M  V30 768 H 65.5435 -1.48317 -0.179567 0
M  V30 769 H 67.4255 -3.00914 -2.95006 0
M  V30 770 H 66.1005 -1.84989 -2.65633 0
M  V30 771 H 65.0075 -3.57338 -1.10727 0
M  V30 772 H 66.3405 -4.6956 -1.47562 0
M  V30 773 N 67.9926 0.231505 -1.5589 0
M  V30 774 C 69.2206 0.974505 -1.82513 0
M  V30 775 C 69.6356 1.78344 -0.619591 0
M  V30 776 O 68.9926 1.77792 0.411848 0
M  V30 777 C 69.0436 1.90007 -3.07538 0
M  V30 778 O 68.7646 1.12385 -4.2344 0
M  V30 779 C 70.2656 2.75779 -3.47075 0
M  V30 780 H 67.4856 0.286065 -0.606966 0
M  V30 781 H 70.0296 0.249739 -2.02969 0
M  V30 782 H 68.1846 2.57891 -2.89086 0
M  V30 783 H 68.5986 1.75125 -4.944 0
M  V30 784 H 70.0726 3.36443 -4.37619 0
M  V30 785 H 70.5496 3.47672 -2.68367 0
M  V30 786 H 71.1556 2.13323 -3.67931 0
M  V30 787 N 69.4707 1.49531 0.497807 0
M  V30 788 C 70.8817 1.52344 1.07927 0
M  V30 789 C 71.2327 0.311469 1.93712 0
M  V30 790 O 70.3577 -0.578405 2.08527 0
M  V30 791 C 70.9527 2.76062 1.96405 0
M  V30 792 C 69.5117 2.81643 2.49709 0
M  V30 793 C 68.6587 2.46299 1.27404 0
M  V30 794 H 71.6097 1.56182 0.281576 0
M  V30 795 H 71.6307 2.56405 2.81135 0
M  V30 796 H 71.1427 3.64254 1.33943 0
M  V30 797 H 69.2437 1.97739 3.15801 0
M  V30 798 H 69.3567 3.83891 2.86643 0
M  V30 799 H 67.7207 1.98148 1.60029 0
M  V30 800 H 68.5037 3.36769 0.66645 0
M  V30 801 N 70.9488 -0.749086 1.3866 0
M  V30 802 C 72.3598 -1.32664 1.31366 0
M  V30 803 C 72.7108 -1.96179 -0.028484 0
M  V30 804 O 71.8358 -1.9537 -0.93057 0
M  V30 805 C 72.4308 -2.41219 2.37905 0
M  V30 806 C 70.9898 -2.94684 2.34176 0
M  V30 807 C 70.1368 -1.68108 2.20533 0
M  V30 808 H 73.0878 -0.547628 1.48952 0
M  V30 809 H 73.1088 -3.21268 2.0388 0
M  V30 810 H 72.6208 -1.94962 3.35576 0
M  V30 811 H 70.7218 -3.45258 1.401 0
M  V30 812 H 70.8348 -3.48757 3.2849 0
M  V30 813 H 69.1988 -1.91907 1.67463 0
M  V30 814 H 69.9818 -1.23923 3.20153 0
M  V30 815 N 72.4269 -1.23603 -0.977757 0
M  V30 816 C 73.6749 -1.06759 -1.71601 0
M  V30 817 C 73.9959 0.395929 -1.90938 0
M  V30 818 O 73.2659 1.28356 -1.47992 0
M  V30 819 H 71.8459 -0.392062 -0.635843 0
M  V30 820 H 74.5079 -1.55362 -1.1768 0
M  V30 821 H 73.6039 -1.55763 -2.70452 0
M  V30 822 N 73.905 1.17692 -1.04816 0
M  V30 823 C 74.868 2.19787 -0.650117 0
M  V30 824 C 75.868 1.58044 0.296427 0
M  V30 825 O 77.058 1.74012 0.0808097 0
M  V30 826 C 74.19 3.40869 0.0456987 0
M  V30 827 H 75.383 2.56516 -1.5537 0
M  V30 828 H 72.936 1.31708 -0.841594 0
M  V30 829 H 73.671 3.09681 0.962726 0
M  V30 830 H 73.456 3.86928 -0.634727 0
M  V30 831 H 74.946 4.16445 0.310432 0
M  V30 832 N 75.3831 0.828654 1.34056 0
M  V30 833 C 76.6601 0.341809 1.9259 0
M  V30 834 C 77.0401 -1.17158 1.75605 0
M  V30 835 O 76.3881 -1.98132 1.13824 0
M  V30 836 C 76.5981 0.777453 3.4023 0
M  V30 837 C 77.9461 0.779579 4.17382 0
M  V30 838 O 78.9701 0.7204 3.48839 0
M  V30 839 O 77.8291 0.857996 5.39723 0
M  V30 840 H 74.9231 0.0946085 0.821571 0
M  V30 841 H 77.4691 0.913827 1.42994 0
M  V30 842 H 76.2411 1.8196 3.46419 0
M  V30 843 H 75.8641 0.181444 3.97186 0
M  V30 844 N 76.8612 -1.46375 0.584142 0
M  V30 845 C 78.2722 -1.86031 0.157959 0
M  V30 846 C 78.6232 -1.48753 -1.27933 0
M  V30 847 O 77.7482 -0.903098 -1.96655 0
M  V30 848 C 78.3432 -3.37642 0.279892 0
M  V30 849 C 76.9022 -3.76289 -0.09143 0
M  V30 850 C 76.0492 -2.7039 0.615178 0
M  V30 851 H 79.0002 -1.37509 0.792274 0
M  V30 852 H 79.0212 -3.77275 -0.494364 0
M  V30 853 H 78.5332 -3.64742 1.32607 0
M  V30 854 H 76.6342 -3.54806 -1.13769 0
M  V30 855 H 76.7472 -4.78246 0.285886 0
M  V30 856 H 75.1112 -2.5464 0.0552833 0
M  V30 857 H 75.8942 -3.0033 1.66303 0
M  V30 858 N 78.3393 -0.321999 -1.54275 0
M  V30 859 C 79.7553 0.0306999 -1.5957 0
M  V30 860 C 79.9553 1.50614 -1.33857 0
M  V30 861 O 79.0113 2.2619 -1.12223 0
M  V30 862 C 80.3243 -0.386122 -2.98211 0
M  V30 863 C 81.8723 -0.336647 -3.11184 0
M  V30 864 C 82.3473 -0.728607 -4.52167 0
M  V30 865 N 83.8383 -0.681952 -4.58152 0
M  V30 866 C 84.5733 -0.957449 -5.6535 0
M  V30 867 N 84.0693 -1.3 -6.80494 0
M  V30 868 N 85.8623 -0.883113 -5.55119 0
M  V30 869 H 78.0133 -1.28332 -1.69247 0
M  V30 870 H 80.2763 -0.521716 -0.791528 0
M  V30 871 H 79.9823 -1.41404 -3.22022 0
M  V30 872 H 79.8563 0.249662 -3.76373 0
M  V30 873 H 82.2433 0.682058 -2.8711 0
M  V30 874 H 82.3243 -1.00734 -2.3513 0
M  V30 875 H 81.9683 -1.74522 -4.76974 0
M  V30 876 H 81.8983 -0.0356152 -5.26588 0
M  V30 877 H 84.3893 -0.428985 -3.75457 0
M  V30 878 H 84.7023 -1.49563 -7.58189 0
M  V30 879 H 83.0473 -1.33824 -6.81994 0
M  V30 880 H 86.2383 -0.615001 -4.64042 0
M  V30 881 H 86.4113 -1.10118 -6.38575 0
M  V30 882 N 79.8174 1.5752 -0.0501392 0
M  V30 883 C 80.7274 2.14952 0.939827 0
M  V30 884 C 81.7434 1.10706 1.34239 0
M  V30 885 O 82.9194 1.42869 1.41952 0
M  V30 886 C 79.9844 2.68232 2.19665 0
M  V30 887 C 79.0454 3.87272 1.85253 0
M  V30 888 C 78.2784 4.38002 3.04943 0
M  V30 889 O 78.5014 3.87811 4.18281 0
M  V30 890 O 77.4354 5.29602 2.86017 0
M  V30 891 H 81.2614 2.9986 0.481392 0
M  V30 892 H 78.8464 1.4841 0.171699 0
M  V30 893 H 80.7284 3.02475 2.93406 0
M  V30 894 H 79.4034 1.86395 2.64648 0
M  V30 895 H 78.3104 3.5792 1.0883 0
M  V30 896 H 79.6434 4.70336 1.4507 0
M  V30 897 N 81.2955 -0.223234 1.56011 0
M  V30 898 C 82.5255 -0.963413 1.82762 0
M  V30 899 C 82.9335 -1.78516 0.626804 0
M  V30 900 O 82.2765 -1.78974 -0.414014 0
M  V30 901 C 82.3385 -1.93126 3.0322 0
M  V30 902 C 82.0025 -1.2942 4.38291 0
M  V30 903 C 82.9995 -0.684916 5.15369 0
M  V30 904 C 80.6845 -1.30647 4.85012 0
M  V30 905 C 82.6785 -0.0963971 6.37327 0
M  V30 906 C 80.3655 -0.71411 6.06913 0
M  V30 907 C 81.3635 -0.110123 6.82911 0
M  V30 908 O 81.0515 0.47303 8.02507 0
M  V30 909 H 80.7835 -0.288011 0.611576 0
M  V30 910 H 83.3375 -0.244103 2.03944 0
M  V30 911 H 81.5675 -2.68952 2.77852 0
M  V30 912 H 83.2565 -2.53685 3.16857 0
M  V30 913 H 84.0225 -0.667774 4.80381 0
M  V30 914 H 79.9015 -1.76598 4.25833 0
M  V30 915 H 83.4455 0.375657 6.96588 0
M  V30 916 H 79.3425 -0.728659 6.41374 0
M  V30 917 H 80.1105 0.367186 8.17676 0
M  V30 918 N 82.7736 -1.49793 -0.48987 0
M  V30 919 C 84.0136 -1.61466 -1.25332 0
M  V30 920 C 84.3776 -0.299688 -1.89647 0
M  V30 921 O 85.5786 -0.291687 -2.67213 0
M  V30 922 C 83.8496 -2.74944 -2.28343 0
M  V30 923 S 85.4086 -3.06637 -3.13878 0
M  V30 924 H 82.2266 -0.569411 -0.425784 0
M  V30 925 H 84.8286 -1.875 -0.553541 0
M  V30 926 H 83.5326 -3.68994 -1.79643 0
M  V30 927 H 83.0636 -2.50938 -3.02975 0
M  V30 928 H 85.0786 -2.49015 -4.29192 0
M  V30 929 N 84.2517 0.741722 -1.39055 0
M  V30 930 C 85.4797 1.53098 -1.39171 0
M  V30 931 C 85.8947 1.88794 0.0155099 0
M  V30 932 O 85.2517 1.53626 0.985159 0
M  V30 933 C 85.3027 2.82274 -2.2584 0
M  V30 934 O 85.0237 2.48097 -3.61081 0
M  V30 935 C 86.5247 3.76343 -2.34266 0
M  V30 936 H 83.7447 0.473335 -0.4756 0
M  V30 937 H 86.2887 0.917045 -1.82785 0
M  V30 938 H 84.4437 3.40015 -1.85656 0
M  V30 939 H 84.8577 3.31029 -4.06842 0
M  V30 940 H 86.3317 4.63898 -2.9917 0
M  V30 941 H 86.8087 4.17619 -1.35982 0
M  V30 942 H 87.4147 3.24523 -2.74891 0
M  V30 943 N 85.7298 1.2412 0.971189 0
M  V30 944 C 86.9548 1.10667 1.75407 0
M  V30 945 C 87.3798 -0.337048 1.85056 0
M  V30 946 O 86.7378 -1.24396 1.31892 0
M  V30 947 C 86.7858 1.74726 3.15441 0
M  V30 948 O 85.8898 1.01566 3.99697 0
M  V30 949 H 85.2308 0.387341 0.539317 0
M  V30 950 H 87.7608 1.64358 1.2185 0
M  V30 951 H 87.7708 1.80341 3.6598 0
M  V30 952 H 86.4458 2.79773 3.07734 0
M  V30 953 H 85.0228 1.03713 3.58187 0
M  V30 954 N 87.2079 -1.17134 1.05439 0
M  V30 955 C 88.4849 -1.83411 0.679699 0
M  V30 956 C 88.8649 -1.9368 -0.839726 0
M  V30 957 O 88.2129 -1.47325 -1.74664 0
M  V30 958 C 88.4229 -3.20918 1.37159 0
M  V30 959 C 89.7709 -3.96796 1.51123 0
M  V30 960 O 90.7949 -3.30406 1.3308 0
M  V30 961 O 89.6539 -5.15778 1.80651 0
M  V30 962 H 86.7479 -0.79154 0.239569 0
M  V30 963 H 89.2939 -1.24411 1.15413 0
M  V30 964 H 88.0659 -3.08428 2.40807 0
M  V30 965 H 87.6889 -3.87587 0.886674 0
M  V30 966 N 88.686 -0.835752 -1.33615 0
M  V30 967 C 90.102 -0.523139 -1.50783 0
M  V30 968 C 90.302 0.950171 -1.77691 0
M  V30 969 O 89.358 1.73411 -1.83534 0
M  V30 970 C 90.671 -1.39378 -2.66448 0
M  V30 971 C 92.219 -1.39223 -2.80332 0
M  V30 972 C 92.694 -2.24765 -3.99055 0
M  V30 973 N 94.185 -2.22458 -4.06284 0
M  V30 974 C 94.92 -2.85386 -4.97336 0
M  V30 975 N 94.416 -3.57354 -5.93523 0
M  V30 976 N 96.209 -2.74872 -4.90308 0
M  V30 977 H 88.36 -1.78952 -1.14411 0
M  V30 978 H 90.623 -0.763297 -0.562212 0
M  V30 979 H 90.329 -2.44061 -2.53234 0
M  V30 980 H 90.203 -1.0676 -3.61776 0
M  V30 981 H 92.59 -0.353136 -2.92979 0
M  V30 982 H 92.671 -1.75846 -1.85773 0
M  V30 983 H 92.315 -3.28732 -3.87167 0
M  V30 984 H 92.245 -1.85485 -4.92852 0
M  V30 985 H 94.736 -1.70119 -3.37443 0
M  V30 986 H 95.049 -4.02584 -6.59656 0
M  V30 987 H 93.394 -3.61461 -5.93608 0
M  V30 988 H 96.585 -2.18213 -4.14126 0
M  V30 989 H 96.758 -3.24199 -5.61069 0
M  V30 990 N 90.1641 1.46063 -0.591896 0
M  V30 991 C 91.4411 1.95595 -0.0137119 0
M  V30 992 C 91.8211 1.5345 1.4497 0
M  V30 993 O 91.1691 0.789543 2.14426 0
M  V30 994 C 91.3791 3.48453 -0.195373 0
M  V30 995 C 92.7271 4.24546 -0.0679765 0
M  V30 996 O 93.7511 3.55982 -0.124681 0
M  V30 997 O 92.6101 5.46467 0.0600579 0
M  V30 998 H 89.7041 0.825795 0.0446279 0
M  V30 999 H 92.2501 1.56303 -0.660859 0
M  V30 1000 H 91.0221 3.72045 -1.21235 0
M  V30 1001 H 90.6451 3.94597 0.487775 0
M  V30 1002 N 91.6422 0.330177 1.54103 0
M  V30 1003 C 92.8912 -0.271336 1.99867 0
M  V30 1004 C 93.2042 -1.52723 1.22209 0
M  V30 1005 O 94.4102 -2.20515 1.58383 0
M  V30 1006 C 92.8662 -0.534032 3.55916 0
M  V30 1007 C 92.4742 0.705193 4.42415 0
M  V30 1008 C 94.2182 -1.09514 4.1013 0
M  V30 1009 C 92.1252 0.414035 5.89949 0
M  V30 1010 H 91.0552 -0.105166 0.74663 0
M  V30 1011 H 93.7062 0.443429 1.78062 0
M  V30 1012 H 92.0882 -1.30915 3.73734 0
M  V30 1013 H 93.2622 1.4804 4.36372 0
M  V30 1014 H 91.5772 1.18698 3.99124 0
M  V30 1015 H 94.1742 -1.3277 5.17954 0
M  V30 1016 H 94.5172 -2.04656 3.62521 0
M  V30 1017 H 95.0502 -0.381038 3.95971 0
M  V30 1018 H 91.7892 1.33481 6.41766 0
M  V30 1019 H 91.3092 -0.323336 5.98928 0
M  V30 1020 H 92.9882 0.0263105 6.46995 0
M  V30 1021 N 93.1203 -1.57491 0.0584922 0
M  V30 1022 C 94.3663 -1.93264 -0.614558 0
M  V30 1023 C 94.6993 -0.937717 -1.7006 0
M  V30 1024 O 93.9743 0.0351652 -1.94468 0
M  V30 1025 C 94.2573 -3.3938 -1.20386 0
M  V30 1026 C 94.1103 -4.49625 -0.125375 0
M  V30 1027 C 95.4293 -3.86039 -2.11334 0
M  V30 1028 H 92.5483 -0.702791 -0.221933 0
M  V30 1029 H 95.1903 -1.8961 0.12175 0
M  V30 1030 H 93.3403 -3.42626 -1.83139 0
M  V30 1031 H 95.0123 -4.58506 0.506971 0
M  V30 1032 H 93.2553 -4.30354 0.545672 0
M  V30 1033 H 93.9263 -5.48967 -0.577861 0
M  V30 1034 H 96.4023 -3.84716 -1.58534 0
M  V30 1035 H 95.2783 -4.88914 -2.49507 0
M  V30 1036 H 95.5393 -3.23215 -3.01636 0
M  V30 1037 N 94.5984 0.214957 -1.56127 0
M  V30 1038 C 95.5084 1.28727 -1.96129 0
M  V30 1039 C 96.5244 1.50916 -0.866044 0
M  V30 1040 O 97.7004 1.63918 -1.17016 0
M  V30 1041 C 94.7654 2.61569 -2.27558 0
M  V30 1042 C 93.8264 2.47625 -3.50685 0
M  V30 1043 C 93.0594 3.74132 -3.80606 0
M  V30 1044 O 93.2824 4.77438 -3.12104 0
M  V30 1045 O 92.2164 3.70849 -4.74083 0
M  V30 1046 H 96.0424 0.977855 -2.87527 0
M  V30 1047 H 93.6274 0.418358 -1.43423 0
M  V30 1048 H 95.5094 3.40012 -2.48938 0
M  V30 1049 H 94.1844 2.92178 -1.39332 0
M  V30 1050 H 93.0914 1.67361 -3.34576 0
M  V30 1051 H 94.4244 2.21954 -4.39315 0
M  V30 1052 N 96.0765 1.50051 0.48192 0
M  V30 1053 C 97.3225 1.60736 1.2366 0
M  V30 1054 C 97.6555 0.301786 1.91841 0
M  V30 1055 O 96.9305 -0.696025 1.8162 0
M  V30 1056 C 97.2135 2.78009 2.28874 0
M  V30 1057 C 97.0665 4.18416 1.65069 0
M  V30 1058 C 98.3855 2.90867 3.30279 0
M  V30 1059 H 95.5045 0.585031 0.448228 0
M  V30 1060 H 98.1465 1.82402 0.531946 0
M  V30 1061 H 96.2965 2.59667 2.88973 0
M  V30 1062 H 97.9685 4.48322 1.0865 0
M  V30 1063 H 96.2115 4.23177 0.954148 0
M  V30 1064 H 96.8825 4.96381 2.41474 0
M  V30 1065 H 99.3585 3.07623 2.80191 0
M  V30 1066 H 98.2345 3.74566 4.01238 0
M  V30 1067 H 98.4955 2.01021 3.93755 0
M  V30 1068 N 97.5546 -0.734337 1.39446 0
M  V30 1069 C 98.8006 -1.49613 1.36908 0
M  V30 1070 C 99.1336 -1.94169 -0.0347829 0
M  V30 1071 O 98.4086 -1.66833 -0.999847 0
M  V30 1072 C 98.6916 -2.73534 2.34203 0
M  V30 1073 C 98.5446 -2.34993 3.83534 0
M  V30 1074 C 99.8636 -3.75635 2.29317 0
M  V30 1075 H 96.9826 -0.542714 0.498629 0
M  V30 1076 H 99.6246 -0.839597 1.70443 0
M  V30 1077 H 97.7746 -3.29553 2.05736 0
M  V30 1078 H 99.4466 -1.84601 4.22753 0
M  V30 1079 H 97.6896 -1.67213 4.00278 0
M  V30 1080 H 98.3606 -3.23738 4.47099 0
M  V30 1081 H 100.837 -3.29203 2.54489 0
M  V30 1082 H 99.7126 -4.60008 2.99472 0
M  V30 1083 H 99.9736 -4.22603 1.29842 0
M  V30 1084 N 99.0327 -1.24633 -0.964593 0
M  V30 1085 C 100.449 -1.01239 -1.2338 0
M  V30 1086 C 100.649 0.2769 -1.99588 0
M  V30 1087 O 99.7047 0.992241 -2.32187 0
M  V30 1088 C 101.018 -2.22937 -2.01791 0
M  V30 1089 C 102.566 -2.27594 -2.14872 0
M  V30 1090 C 103.041 -3.48921 -2.96678 0
M  V30 1091 N 104.532 -3.49257 -3.04259 0
M  V30 1092 C 105.267 -4.39795 -3.67924 0
M  V30 1093 N 104.763 -5.40591 -4.33281 0
M  V30 1094 N 106.556 -4.275 -3.64966 0
M  V30 1095 H 98.7067 -2.0748 -0.454502 0
M  V30 1096 H 100.97 -0.910647 -0.26349 0
M  V30 1097 H 100.676 -3.16587 -1.53184 0
M  V30 1098 H 100.55 -2.25306 -3.02518 0
M  V30 1099 H 102.937 -1.34473 -2.6268 0
M  V30 1100 H 103.018 -2.2925 -1.13482 0
M  V30 1101 H 102.662 -4.42359 -2.49562 0
M  V30 1102 H 102.592 -3.4451 -3.98272 0
M  V30 1103 H 105.083 -2.76337 -2.57771 0
M  V30 1104 H 105.396 -6.05904 -4.79687 0
M  V30 1105 H 103.741 -5.44475 -4.3194 0
M  V30 1106 H 106.932 -3.47987 -3.13086 0
M  V30 1107 H 107.105 -4.98258 -4.14298 0
M  V30 1108 N 100.511 1.16574 -1.06058 0
M  V30 1109 C 101.739 1.90952 -0.796552 0
M  V30 1110 C 102.154 1.77302 0.648808 0
M  V30 1111 O 101.511 1.11605 1.44397 0
M  V30 1112 C 101.562 3.41736 -1.17894 0
M  V30 1113 O 101.283 3.54975 -2.56758 0
M  V30 1114 C 102.784 4.33169 -0.942308 0
M  V30 1115 H 100.004 0.605594 -0.288959 0
M  V30 1116 H 102.548 1.47777 -1.41358 0
M  V30 1117 H 100.703 3.82623 -0.606491 0
M  V30 1118 H 101.117 4.4846 -2.72 0
M  V30 1119 H 102.591 5.37439 -1.25952 0
M  V30 1120 H 103.068 4.3903 0.122078 0
M  V30 1121 H 103.674 3.98007 -1.49902 0
M  V30 1122 N 101.989 0.842826 1.3317 0
M  V30 1123 C 102.899 0.281444 2.32906 0
M  V30 1124 C 103.915 -0.594587 1.63526 0
M  V30 1125 O 105.091 -0.49777 1.95152 0
M  V30 1126 C 102.156 -0.530929 3.42611 0
M  V30 1127 C 101.217 0.369843 4.27704 0
M  V30 1128 C 100.45 -0.403853 5.3217 0
M  V30 1129 O 100.673 -1.63513 5.46461 0
M  V30 1130 O 99.6069 0.224199 6.01482 0
M  V30 1131 H 103.433 1.10744 2.82789 0
M  V30 1132 H 101.018 0.60545 1.36582 0
M  V30 1133 H 102.9 -0.992437 4.09547 0
M  V30 1134 H 101.575 -1.33392 2.94938 0
M  V30 1135 H 100.482 0.879275 3.6362 0
M  V30 1136 H 101.815 1.13771 4.78871 0
M  V30 1137 N 103.467 -1.45747 0.599634 0
M  V30 1138 C 104.697 -2.06369 0.0977132 0
M  V30 1139 C 105.105 -1.44624 -1.21985 0
M  V30 1140 O 104.448 -0.551831 -1.75216 0
M  V30 1141 C 104.51 -3.59284 -0.124673 0
M  V30 1142 C 104.174 -4.43318 1.10987 0
M  V30 1143 C 105.171 -4.78796 2.02609 0
M  V30 1144 C 102.856 -4.84194 1.33647 0
M  V30 1145 C 104.85 -5.53997 3.15224 0
M  V30 1146 C 102.537 -5.5915 2.46565 0
M  V30 1147 C 103.535 -5.93968 3.37182 0
M  V30 1148 O 103.223 -6.67405 4.48136 0
M  V30 1149 H 102.955 -0.673122 0.0623153 0
M  V30 1150 H 105.509 -1.88104 0.824981 0
M  V30 1151 H 103.739 -3.75919 -0.906745 0
M  V30 1152 H 105.428 -4.01775 -0.577201 0
M  V30 1153 H 106.194 -4.47781 1.86325 0
M  V30 1154 H 102.073 -4.56534 0.64016 0
M  V30 1155 H 105.617 -5.81091 3.85978 0
M  V30 1156 H 101.514 -5.89579 2.62805 0
M  V30 1157 H 102.282 -6.85847 4.46717 0
M  V30 1158 N 104.945 -0.338344 -1.53925 0
M  V30 1159 C 106.191 0.260143 -2.01125 0
M  V30 1160 C 106.524 1.50617 -1.22589 0
M  V30 1161 O 105.799 1.91979 -0.312113 0
M  V30 1162 C 106.082 0.579499 -3.55407 0
M  V30 1163 C 105.935 -0.678264 -4.44657 0
M  V30 1164 C 107.254 1.39122 -4.17532 0
M  V30 1165 H 104.373 0.0930772 -0.731099 0
M  V30 1166 H 107.015 -0.457852 -1.84401 0
M  V30 1167 H 105.165 1.19118 -3.69788 0
M  V30 1168 H 106.837 -1.31631 -4.42121 0
M  V30 1169 H 105.08 -1.3042 -4.13731 0
M  V30 1170 H 105.751 -0.410143 -5.50474 0
M  V30 1171 H 108.227 0.874035 -4.06817 0
M  V30 1172 H 107.103 1.58342 -5.25565 0
M  V30 1173 H 107.364 2.39178 -3.71815 0
M  V30 1174 N 106.423 1.57458 -0.0668435 0
M  V30 1175 C 107.653 1.97337 0.611677 0
M  V30 1176 C 108.061 0.943744 1.63982 0
M  V30 1177 O 107.404 -0.0785584 1.83532 0
M  V30 1178 C 107.466 3.33511 1.34205 0
M  V30 1179 C 107.13 4.54598 0.467941 0
M  V30 1180 C 108.127 5.19186 -0.272439 0
M  V30 1181 C 105.812 5.0075 0.39427 0
M  V30 1182 C 107.806 6.28274 -1.07476 0
M  V30 1183 C 105.493 6.09711 -0.411729 0
M  V30 1184 C 106.491 6.73335 -1.14492 0
M  V30 1185 O 106.179 7.80199 -1.93763 0
M  V30 1186 H 105.911 0.654042 0.170893 0
M  V30 1187 H 108.465 2.04961 -0.134289 0
M  V30 1188 H 106.695 3.22487 2.13398 0
M  V30 1189 H 108.384 3.58029 1.91233 0
M  V30 1190 H 109.15 4.84477 -0.225086 0
M  V30 1191 H 105.029 4.51009 0.954569 0
M  V30 1192 H 108.573 6.77866 -1.64755 0
M  V30 1193 H 104.47 6.43854 -0.460664 0
M  V30 1194 H 105.238 7.97053 -1.86142 0
M  V30 1195 N 107.901 -0.206675 1.56239 0
M  V30 1196 C 109.129 -0.945345 1.8404 0
M  V30 1197 C 109.544 -1.77336 0.647885 0
M  V30 1198 O 108.901 -1.78425 -0.383511 0
M  V30 1199 C 108.952 -1.8509 3.10522 0
M  V30 1200 O 108.673 -1.05634 4.25174 0
M  V30 1201 C 110.174 -2.70222 3.51418 0
M  V30 1202 H 107.394 -0.276372 0.61144 0
M  V30 1203 H 109.938 -0.217417 2.03341 0
M  V30 1204 H 108.093 -2.53259 2.93153 0
M  V30 1205 H 108.507 -1.67238 4.97124 0
M  V30 1206 H 109.981 -3.29438 4.42916 0
M  V30 1207 H 110.458 -3.43358 2.73864 0
M  V30 1208 H 111.064 -2.07443 3.71278 0
M  V30 1209 N 109.379 -1.50304 -0.473955 0
M  V30 1210 C 110.795 -1.37667 -0.807466 0
M  V30 1211 C 110.995 -0.430555 -1.96846 0
M  V30 1212 O 110.051 0.127874 -2.52176 0
M  V30 1213 C 111.364 -2.78974 -1.12223 0
M  V30 1214 C 112.912 -2.87868 -1.22885 0
M  V30 1215 C 113.387 -4.30003 -1.57676 0
M  V30 1216 N 114.878 -4.3294 -1.64673 0
M  V30 1217 C 115.613 -5.3991 -1.93091 0
M  V30 1218 N 115.109 -6.57092 -2.1955 0
M  V30 1219 N 116.902 -5.27351 -1.94569 0
M  V30 1220 H 109.053 -2.10394 0.291212 0
M  V30 1221 H 111.316 -0.945575 0.0677609 0
M  V30 1222 H 111.022 -3.50031 -0.342229 0
M  V30 1223 H 110.896 -3.16038 -2.05913 0
M  V30 1224 H 113.283 -2.17032 -1.99953 0
M  V30 1225 H 113.364 -2.54352 -0.271814 0
M  V30 1226 H 113.008 -5.01375 -0.81149 0
M  V30 1227 H 112.938 -4.61004 -2.54525 0
M  V30 1228 H 115.429 -3.48441 -1.46277 0
M  V30 1229 H 115.742 -7.34425 -2.405 0
M  V30 1230 H 114.087 -6.60272 -2.16948 0
M  V30 1231 H 117.278 -4.34801 -1.73394 0
M  V30 1232 H 117.451 -6.10805 -2.16381 0
M  V30 1233 N 110.857 0.726932 -1.39834 0
M  V30 1234 C 112.268 1.30558 -1.3346 0
M  V30 1235 C 112.619 1.962 -0.00273003 0
M  V30 1236 O 111.744 1.96826 0.899371 0
M  V30 1237 C 112.339 2.37404 -2.41713 0
M  V30 1238 C 110.898 2.90921 -2.38835 0
M  V30 1239 C 110.045 1.64578 -2.2318 0
M  V30 1240 H 112.996 0.523862 -1.49804 0
M  V30 1241 H 113.017 3.17984 -2.08966 0
M  V30 1242 H 112.529 1.89599 -3.38635 0
M  V30 1243 H 110.63 3.42985 -1.45575 0
M  V30 1244 H 110.743 3.43487 -3.33997 0
M  V30 1245 H 109.107 1.89219 -1.70494 0
M  V30 1246 H 109.89 1.18814 -3.22084 0
M  V30 1247 N 112.336 1.25143 0.95797 0
M  V30 1248 C 113.747 1.08851 1.51685 0
M  V30 1249 C 114.098 -0.33687 1.93286 0
M  V30 1250 O 113.223 -1.22644 1.7829 0
M  V30 1251 C 113.818 1.96978 2.75654 0
M  V30 1252 C 112.377 1.84881 3.27866 0
M  V30 1253 C 111.524 1.91329 2.0072 0
M  V30 1254 H 114.475 1.38478 0.77522 0
M  V30 1255 H 114.496 1.5078 3.4935 0
M  V30 1256 H 114.008 3.00712 2.45345 0
M  V30 1257 H 112.109 0.840182 3.63004 0
M  V30 1258 H 112.222 2.6951 3.96107 0
M  V30 1259 H 110.586 1.35174 2.15871 0
M  V30 1260 H 111.369 2.96661 1.72764 0
M  V30 1261 N 113.814 -1.1601 1.06675 0
M  V30 1262 C 115.225 -1.68235 0.809565 0
M  V30 1263 C 115.576 -1.8454 -0.666303 0
M  V30 1264 O 114.701 -1.54374 -1.5165 0
M  V30 1265 C 115.296 -3.05585 1.46299 0
M  V30 1266 C 113.855 -3.54915 1.25349 0
M  V30 1267 C 113.002 -2.30804 1.53703 0
M  V30 1268 H 115.953 -1.00318 1.22971 0
M  V30 1269 H 115.974 -3.70174 0.880431 0
M  V30 1270 H 115.486 -2.93686 2.53713 0
M  V30 1271 H 113.587 -3.72067 0.199261 0
M  V30 1272 H 113.7 -4.36774 1.9689 0
M  V30 1273 H 112.064 -2.36007 0.957739 0
M  V30 1274 H 112.847 -2.21499 2.62284 0
M  V30 1275 N 115.292 -0.849877 -1.32721 0
M  V30 1276 C 116.538 -0.460855 -1.9811 0
M  V30 1277 C 116.893 0.971716 -1.66059 0
M  V30 1278 O 116.186 1.67184 -0.935944 0
M  V30 1279 C 116.38 -0.631272 -3.51781 0
M  V30 1280 C 116.209 -2.07886 -3.98765 0
M  V30 1281 C 114.979 -2.71637 -4.26077 0
M  V30 1282 C 117.177 -3.04889 -4.14182 0
M  V30 1283 N 115.159 -4.07356 -4.59276 0
M  V30 1284 C 116.53 -4.25583 -4.50865 0
M  V30 1285 C 118.585 -3.01148 -3.96503 0
M  V30 1286 C 117.288 -5.43027 -4.71714 0
M  V30 1287 C 119.314 -4.17832 -4.18533 0
M  V30 1288 C 118.676 -5.37284 -4.55528 0
M  V30 1289 H 114.775 -0.217283 -0.751207 0
M  V30 1290 H 117.359 -1.10026 -1.60631 0
M  V30 1291 H 115.53 -0.0215966 -3.88394 0
M  V30 1292 H 117.262 -0.212614 -4.04141 0
M  V30 1293 H 114.017 -2.22705 -4.17971 0
M  V30 1294 H 114.441 -4.77351 -4.80068 0
M  V30 1295 H 119.083 -2.0992 -3.67006 0
M  V30 1296 H 116.801 -6.34791 -5.00066 0
M  V30 1297 H 120.387 -4.16368 -4.06361 0
M  V30 1298 H 119.267 -6.26071 -4.72234 0
M  V30 1299 N 116.77 1.45427 -0.607355 0
M  V30 1300 C 117.995 2.07124 -0.107006 0
M  V30 1301 C 118.42 1.44906 1.19933 0
M  V30 1302 O 117.778 0.541687 1.73019 0
M  V30 1303 C 117.826 3.60595 0.0194119 0
M  V30 1304 O 116.93 3.98285 1.0697 0
M  V30 1305 H 116.271 0.659868 -0.0739597 0
M  V30 1306 H 118.801 1.86683 -0.837297 0
M  V30 1307 H 118.811 4.07419 0.2177 0
M  V30 1308 H 117.486 4.05266 -0.934453 0
M  V30 1309 H 116.063 3.63133 0.847889 0
M  V30 1310 N 118.248 0.346503 1.53744 0
M  V30 1311 C 119.525 -0.304532 1.93215 0
M  V30 1312 C 119.905 -1.67993 1.27834 0
M  V30 1313 O 119.253 -2.24411 0.430352 0
M  V30 1314 C 119.463 -0.373852 3.46992 0
M  V30 1315 C 120.811 -0.62329 4.2 0
M  V30 1316 O 121.835 -0.455847 3.53271 0
M  V30 1317 O 120.694 -0.947879 5.38217 0
M  V30 1318 H 117.788 -0.178318 0.807547 0
M  V30 1319 H 120.334 0.397895 1.64969 0
M  V30 1320 H 119.106 0.591224 3.86808 0
M  V30 1321 H 118.729 -1.12294 3.81413 0
M  V30 1322 N 119.726 -1.57421 0.075193 0
M  V30 1323 C 120.954 -1.97946 -0.602076 0
M  V30 1324 C 121.369 -0.953674 -1.62943 0
M  V30 1325 O 120.726 0.0592551 -1.82404 0
M  V30 1326 C 120.777 -3.38546 -1.26762 0
M  V30 1327 O 120.498 -4.37195 -0.281376 0
M  V30 1328 C 121.999 -3.93966 -2.03239 0
M  V30 1329 H 119.219 -0.650918 -0.162931 0
M  V30 1330 H 121.763 -2.03959 0.148601 0
M  V30 1331 H 119.918 -3.33609 -1.96936 0
M  V30 1332 H 120.332 -5.18975 -0.759267 0
M  V30 1333 H 121.806 -4.94555 -2.45193 0
M  V30 1334 H 122.283 -3.30693 -2.8903 0
M  V30 1335 H 122.889 -4.02315 -1.37924 0
M  V30 1336 N 121.204 0.198386 -1.56346 0
M  V30 1337 C 122.134 1.24865 -1.9731 0
M  V30 1338 C 123.115 1.47651 -0.844576 0
M  V30 1339 O 124.3 1.59444 -1.10866 0
M  V30 1340 C 121.43 2.59358 -2.30977 0
M  V30 1341 C 120.384 2.5119 -3.46537 0
M  V30 1342 C 119.71 3.89926 -3.65871 0
M  V30 1343 C 121.01 2.03977 -4.80823 0
M  V30 1344 H 122.704 0.908252 -2.85291 0
M  V30 1345 H 120.25 0.435462 -1.37258 0
M  V30 1346 H 122.203 3.33011 -2.58228 0
M  V30 1347 H 120.927 2.95132 -1.39874 0
M  V30 1348 H 119.586 1.79993 -3.19371 0
M  V30 1349 H 119.234 4.23046 -2.72105 0
M  V30 1350 H 118.934 3.85336 -4.4361 0
M  V30 1351 H 120.458 4.65205 -3.95495 0
M  V30 1352 H 121.872 2.67386 -5.07127 0
M  V30 1353 H 120.269 2.10397 -5.62008 0
M  V30 1354 H 121.339 0.992861 -4.74626 0
M  V30 1355 N 122.682 1.50554 0.465978 0
M  V30 1356 C 124.093 1.54599 1.04671 0
M  V30 1357 C 124.444 0.352488 1.93008 0
M  V30 1358 O 123.569 -0.534044 2.09707 0
M  V30 1359 C 124.164 2.80166 1.90505 0
M  V30 1360 C 122.723 2.86876 2.43678 0
M  V30 1361 C 121.87 2.48947 1.22151 0
M  V30 1362 H 124.821 1.56744 0.248384 0
M  V30 1363 H 124.842 2.62311 2.75633 0
M  V30 1364 H 124.354 3.67013 1.26186 0
M  V30 1365 H 122.455 2.04393 3.11536 0
M  V30 1366 H 122.568 3.89885 2.78436 0
M  V30 1367 H 120.932 2.01498 1.5579 0
M  V30 1368 H 121.715 3.38107 0.594866 0
M  V30 1369 N 124.16 -0.719506 1.40217 0
M  V30 1370 C 125.388 -1.50864 1.41589 0
M  V30 1371 C 125.803 -1.88794 0.0145275 0
M  V30 1372 O 125.16 -1.55174 -0.960594 0
M  V30 1373 C 125.211 -2.78646 2.30302 0
M  V30 1374 O 124.932 -2.42321 3.64983 0
M  V30 1375 C 126.433 -3.72569 2.40224 0
M  V30 1376 H 123.653 -0.465709 0.48307 0
M  V30 1377 H 126.197 -0.88785 1.84221 0
M  V30 1378 H 124.352 -3.37019 1.91042 0
M  V30 1379 H 124.766 -3.24514 4.12057 0
M  V30 1380 H 126.24 -4.5908 3.06512 0
M  V30 1381 H 126.717 -4.15403 1.42608 0
M  V30 1382 H 127.323 -3.20109 2.80019 0
M  V30 1383 N 125.638 -1.25649 -0.95132 0
M  V30 1384 C 126.887 -1.09988 -1.69073 0
M  V30 1385 C 127.2 0.358355 -1.92289 0
M  V30 1386 O 128.406 0.635466 -2.63958 0
M  V30 1387 C 126.862 -1.92012 -3.044 0
M  V30 1388 C 126.47 -3.42347 -2.88968 0
M  V30 1389 C 128.214 -1.8493 -3.82101 0
M  V30 1390 C 126.121 -4.16655 -4.19705 0
M  V30 1391 H 125.051 -0.407993 -0.63408 0
M  V30 1392 H 127.702 -1.49873 -1.05879 0
M  V30 1393 H 126.084 -1.44952 -3.68517 0
M  V30 1394 H 127.258 -3.97104 -2.33762 0
M  V30 1395 H 125.573 -3.50557 -2.24719 0
M  V30 1396 H 128.17 -2.37739 -4.78941 0
M  V30 1397 H 128.513 -0.817883 -4.08187 0
M  V30 1398 H 129.046 -2.29758 -3.2474 0
M  V30 1399 H 125.785 -5.20224 -3.98807 0
M  V30 1400 H 125.305 -3.66681 -4.74663 0
M  V30 1401 H 126.984 -4.24551 -4.88227 0
M  V30 1402 N 127.117 1.15442 -1.07289 0
M  V30 1403 C 128.067 2.18164 -0.662467 0
M  V30 1404 C 129.051 1.57845 0.312074 0
M  V30 1405 O 130.243 1.76552 0.125905 0
M  V30 1406 C 127.372 3.43246 -0.0611295 0
M  V30 1407 C 126.458 4.1062 -1.06077 0
M  V30 1408 N 126.849 4.53491 -2.24008 0
M  V30 1409 C 125.147 4.36949 -0.893964 0
M  V30 1410 C 125.848 5.05731 -2.87422 0
M  V30 1411 N 124.824 4.99236 -2.15091 0
M  V30 1412 H 128.626 2.49038 -1.56068 0
M  V30 1413 H 126.14 1.32003 -0.945988 0
M  V30 1414 H 128.137 4.16145 0.250792 0
M  V30 1415 H 126.797 3.13854 0.832207 0
M  V30 1416 H 127.808 4.46898 -2.6173 0
M  V30 1417 H 124.485 4.17466 -0.0534693 0
M  V30 1418 H 125.875 5.48865 -3.87553 0
M  V30 1419 N 128.595 0.856903 1.32268 0
M  V30 1420 C 129.841 0.462069 1.97466 0
M  V30 1421 C 130.174 -0.980298 1.67642 0
M  V30 1422 O 129.449 -1.68824 0.965858 0
M  V30 1423 C 129.732 0.704336 3.53145 0
M  V30 1424 C 129.585 2.19529 3.9259 0
M  V30 1425 C 130.904 0.1622 4.39801 0
M  V30 1426 H 128.023 0.169357 0.717278 0
M  V30 1427 H 130.665 1.07574 1.56614 0
M  V30 1428 H 128.815 0.181999 3.88073 0
M  V30 1429 H 130.487 2.78387 3.67829 0
M  V30 1430 H 128.73 2.67292 3.41668 0
M  V30 1431 H 129.401 2.31549 5.01088 0
M  V30 1432 H 131.877 0.608905 4.11621 0
M  V30 1433 H 130.753 0.361265 5.4771 0
M  V30 1434 H 131.014 -0.935158 4.32096 0
M  V30 1435 N 130.073 -1.45103 0.615059 0
M  V30 1436 C 131.319 -2.02483 0.113347 0
M  V30 1437 C 131.652 -1.48146 -1.25564 0
M  V30 1438 O 130.927 -0.659104 -1.82992 0
M  V30 1439 C 131.21 -3.60005 0.0825278 0
M  V30 1440 C 131.063 -4.2466 1.48271 0
M  V30 1441 C 132.382 -4.35972 -0.601401 0
M  V30 1442 H 129.501 -0.735764 0.0426632 0
M  V30 1443 H 132.143 -1.72868 0.788461 0
M  V30 1444 H 130.293 -3.85367 -0.492378 0
M  V30 1445 H 131.965 -4.10458 2.10527 0
M  V30 1446 H 130.208 -3.82772 2.04127 0
M  V30 1447 H 130.879 -5.336 1.41332 0
M  V30 1448 H 133.355 -4.15947 -0.112666 0
M  V30 1449 H 132.231 -5.45697 -0.592097 0
M  V30 1450 H 132.492 -4.09391 -1.66887 0
M  V30 1451 N 131.551 -0.354651 -1.53558 0
M  V30 1452 C 132.779 0.239515 -2.05509 0
M  V30 1453 C 133.194 1.4333 -1.2289 0
M  V30 1454 O 132.551 1.80538 -0.266899 0
M  V30 1455 C 132.602 0.643719 -3.55723 0
M  V30 1456 O 132.323 -0.502602 -4.35207 0
M  V30 1457 C 133.824 1.29743 -4.23889 0
M  V30 1458 H 131.044 0.0442697 -0.669538 0
M  V30 1459 H 133.588 -0.509856 -1.98042 0
M  V30 1460 H 131.743 1.34302 -3.63376 0
M  V30 1461 H 132.157 -0.178172 -5.24197 0
M  V30 1462 H 133.631 1.53091 -5.30346 0
M  V30 1463 H 134.108 2.25441 -3.76926 0
M  V30 1464 H 134.714 0.639865 -4.20459 0
M  V30 1465 N 133.029 1.57378 -0.0835403 0
M  V30 1466 C 134.44 1.81261 0.447358 0
M  V30 1467 C 134.791 0.998331 1.68902 0
M  V30 1468 O 133.916 0.224282 2.15235 0
M  V30 1469 C 134.511 3.28767 0.818386 0
M  V30 1470 C 133.07 3.53455 1.29409 0
M  V30 1471 C 132.217 2.75831 0.285024 0
M  V30 1472 H 135.168 1.5566 -0.309115 0
M  V30 1473 H 135.189 3.41459 1.67887 0
M  V30 1474 H 134.701 3.88006 -0.0855019 0
M  V30 1475 H 132.802 2.99534 2.21608 0
M  V30 1476 H 132.915 4.62128 1.2639 0
M  V30 1477 H 131.279 2.42947 0.764767 0
M  V30 1478 H 132.062 3.37813 -0.611341 0
M  V30 1479 N 134.507 -0.190092 1.56449 0
M  V30 1480 C 135.735 -0.925772 1.85033 0
M  V30 1481 C 136.15 -1.76638 0.666658 0
M  V30 1482 O 135.507 -1.78822 -0.364565 0
M  V30 1483 C 135.558 -1.81786 3.12468 0
M  V30 1484 O 135.279 -1.01118 4.26271 0
M  V30 1485 C 136.78 -2.6648 3.54265 0
M  V30 1486 H 134 -0.269872 0.614337 0
M  V30 1487 H 136.544 -0.195837 2.0356 0
M  V30 1488 H 134.699 -2.50136 2.95822 0
M  V30 1489 H 135.113 -1.61956 4.98869 0
M  V30 1490 H 136.587 -3.24722 4.46385 0
M  V30 1491 H 137.064 -3.40434 2.77491 0
M  V30 1492 H 137.67 -2.03493 3.73458 0
M  V30 1493 N 135.985 -1.50799 -0.457987 0
M  V30 1494 C 137.215 -1.65977 -1.23025 0
M  V30 1495 C 137.623 -0.347918 -1.85974 0
M  V30 1496 O 136.966 0.68148 -1.70592 0
M  V30 1497 C 137.028 -2.70309 -2.3701 0
M  V30 1498 C 136.692 -4.135 -1.94594 0
M  V30 1499 C 137.689 -4.98949 -1.46101 0
M  V30 1500 C 135.374 -4.5949 -2.02915 0
M  V30 1501 C 137.368 -6.28442 -1.06489 0
M  V30 1502 C 135.055 -5.88984 -1.62914 0
M  V30 1503 C 136.053 -6.73286 -1.1478 0
M  V30 1504 O 135.741 -8.00362 -0.75339 0
M  V30 1505 H 135.473 -0.56064 -0.377702 0
M  V30 1506 H 138.027 -1.97857 -0.551537 0
M  V30 1507 H 136.257 -2.337 -3.08093 0
M  V30 1508 H 137.946 -2.74574 -2.98938 0
M  V30 1509 H 138.712 -4.6463 -1.39084 0
M  V30 1510 H 134.591 -3.94009 -2.39328 0
M  V30 1511 H 138.135 -6.94194 -0.688488 0
M  V30 1512 H 134.032 -6.22822 -1.69595 0
M  V30 1513 H 134.8 -8.13744 -0.88108 0
M  V30 1514 N 137.463 0.71206 -1.40597 0
M  V30 1515 C 138.688 1.50617 -1.42581 0
M  V30 1516 C 139.113 1.88079 -0.0282102 0
M  V30 1517 O 138.471 1.53511 0.964579 0
M  V30 1518 C 138.519 2.7557 -2.3258 0
M  V30 1519 O 137.623 3.72414 -1.77148 0
M  V30 1520 H 136.964 0.453966 -0.484573 0
M  V30 1521 H 139.494 0.876649 -1.84868 0
M  V30 1522 H 139.504 3.2406 -2.47889 0
M  V30 1523 H 138.179 2.47639 -3.34138 0
M  V30 1524 H 136.756 3.31276 -1.71204 0
M  V30 1525 N 138.941 1.26152 0.944643 0
M  V30 1526 C 140.357 1.03189 1.21754 0
M  V30 1527 C 140.557 -0.245112 2.00004 0
M  V30 1528 O 139.613 -0.955176 2.33736 0
M  V30 1529 C 140.926 2.26119 1.98219 0
M  V30 1530 C 142.474 2.30984 2.11224 0
M  V30 1531 C 142.949 3.53597 2.91089 0
M  V30 1532 N 144.44 3.54053 2.98664 0
M  V30 1533 C 145.175 4.45593 3.60881 0
M  V30 1534 N 144.671 5.47416 4.24626 0
M  V30 1535 N 146.464 4.33252 3.58119 0
M  V30 1536 H 138.615 2.08177 0.421437 0
M  V30 1537 H 140.878 0.914723 0.248969 0
M  V30 1538 H 140.584 3.18984 1.48128 0
M  V30 1539 H 140.458 2.3009 2.98895 0
M  V30 1540 H 142.845 1.38635 2.60508 0
M  V30 1541 H 142.926 2.31026 1.09821 0
M  V30 1542 H 142.57 4.46273 2.42493 0
M  V30 1543 H 142.5 3.50802 3.92741 0
M  V30 1544 H 144.991 2.80403 2.53343 0
M  V30 1545 H 145.304 6.13459 4.69987 0
M  V30 1546 H 143.649 5.51278 4.23223 0
M  V30 1547 H 146.84 3.52924 3.0751 0
M  V30 1548 H 147.013 5.04786 4.06319 0
M  V30 1549 N 140.419 -1.14872 1.07899 0
M  V30 1550 C 141.83 -1.67367 0.827363 0
M  V30 1551 C 142.181 -1.85236 -0.646693 0
M  V30 1552 O 141.306 -1.55974 -1.50004 0
M  V30 1553 C 141.901 -3.04016 1.49532 0
M  V30 1554 C 140.46 -3.53566 1.29106 0
M  V30 1555 C 139.607 -2.29161 1.56143 0
M  V30 1556 H 142.558 -0.990083 1.24028 0
M  V30 1557 H 142.579 -3.69219 0.919643 0
M  V30 1558 H 142.091 -2.90978 2.56814 0
M  V30 1559 H 140.192 -3.71835 0.238713 0
M  V30 1560 H 140.305 -4.34661 2.01511 0
M  V30 1561 H 138.669 -2.34978 0.982717 0
M  V30 1562 H 139.452 -2.18705 2.64619 0
M  V30 1563 N 141.898 -0.863906 -1.31812 0
M  V30 1564 C 143.144 -0.472535 -1.97218 0
M  V30 1565 C 143.477 0.971394 -1.68159 0
M  V30 1566 O 142.752 1.68309 -0.974798 0
M  V30 1567 C 143.035 -0.723054 -3.52766 0
M  V30 1568 C 142.888 -2.21608 -3.91421 0
M  V30 1569 C 144.207 -0.185522 -4.39709 0
M  V30 1570 H 141.326 -0.173158 -0.71637 0
M  V30 1571 H 143.968 -1.08403 -1.56041 0
M  V30 1572 H 142.118 -0.202577 -3.87971 0
M  V30 1573 H 143.79 -2.80334 -3.66347 0
M  V30 1574 H 142.033 -2.691 -3.40246 0
M  V30 1575 H 142.704 -2.34203 -4.99853 0
M  V30 1576 H 145.18 -0.630726 -4.11292 0
M  V30 1577 H 144.056 -0.390306 -5.47511 0
M  V30 1578 H 144.317 0.912229 -4.32586 0
M  V30 1579 N 143.376 1.44774 -0.622745 0
M  V30 1580 C 144.308 2.28856 0.125485 0
M  V30 1581 C 145.321 1.40811 0.817069 0
M  V30 1582 O 146.51 1.65044 0.679918 0
M  V30 1583 C 143.61 3.16963 1.19949 0
M  V30 1584 C 142.783 4.33374 0.592064 0
M  V30 1585 C 141.842 5.02577 1.55893 0
M  V30 1586 O 140.868 5.58873 1.07933 0
M  V30 1587 N 142.07 5.03256 2.89334 0
M  V30 1588 H 144.835 2.93713 -0.596068 0
M  V30 1589 H 142.396 1.55129 -0.463303 0
M  V30 1590 H 144.388 3.60123 1.84644 0
M  V30 1591 H 142.958 2.53913 1.82337 0
M  V30 1592 H 142.178 3.93509 -0.233322 0
M  V30 1593 H 143.466 5.08527 0.166738 0
M  V30 1594 H 142.864 4.58836 3.30887 0
M  V30 1595 H 141.421 5.50232 3.49412 0
M  V30 1596 N 144.854 0.36279 1.53368 0
M  V30 1597 C 145.801 -0.485008 2.25646 0
M  V30 1598 C 146.771 -1.07982 1.2621 0
M  V30 1599 O 147.956 -1.11284 1.54986 0
M  V30 1600 C 145.096 -1.62023 3.04701 0
M  V30 1601 C 144.209 -1.05086 4.19024 0
M  V30 1602 C 143.344 -2.15496 4.85525 0
M  V30 1603 C 142.383 -1.5601 5.91884 0
M  V30 1604 N 141.52 -2.60241 6.52088 0
M  V30 1605 H 146.36 0.137864 2.97681 0
M  V30 1606 H 143.897 0.0798061 1.46883 0
M  V30 1607 H 145.855 -2.28887 3.48807 0
M  V30 1608 H 144.485 -2.2138 2.34927 0
M  V30 1609 H 143.537 -0.27259 3.79422 0
M  V30 1610 H 144.849 -0.575926 4.95464 0
M  V30 1611 H 144.003 -2.90186 5.32801 0
M  V30 1612 H 142.742 -2.66341 4.08551 0
M  V30 1613 H 141.747 -0.798338 5.43973 0
M  V30 1614 H 142.972 -1.05994 6.70777 0
M  V30 1615 H 140.918 -3.10304 5.77968 0
M  V30 1616 H 140.835 -2.17426 7.24059 0
M  V30 1617 H 142.103 -3.34641 7.04014 0
M  V30 1618 N 146.332 -1.57332 0.0918853 0
M  V30 1619 C 147.295 -2.12708 -0.85369 0
M  V30 1620 C 148.295 -1.05561 -1.213 0
M  V30 1621 O 149.485 -1.31461 -1.14296 0
M  V30 1622 C 146.617 -2.64503 -2.15061 0
M  V30 1623 H 147.81 -2.97573 -0.3729 0
M  V30 1624 H 145.363 -1.55509 -0.157072 0
M  V30 1625 H 146.098 -1.83149 -2.67632 0
M  V30 1626 H 145.883 -3.4284 -1.90272 0
M  V30 1627 H 147.373 -3.07351 -2.82711 0
M  V30 1628 N 147.81 0.181792 -1.56548 0
M  V30 1629 C 148.72 1.24538 -1.98815 0
M  V30 1630 C 149.736 1.49045 -0.897861 0
M  V30 1631 O 150.912 1.61399 -1.20467 0
M  V30 1632 C 147.977 2.56683 -2.33055 0
M  V30 1633 C 147.038 2.40131 -3.55859 0
M  V30 1634 C 146.271 3.65975 -3.88456 0
M  V30 1635 O 146.494 4.70711 -3.22161 0
M  V30 1636 O 145.428 3.6071 -4.81842 0
M  V30 1637 H 149.254 0.916647 -2.89536 0
M  V30 1638 H 146.839 0.387842 -1.44278 0
M  V30 1639 H 148.721 3.34655 -2.56094 0
M  V30 1640 H 147.396 2.89157 -1.45498 0
M  V30 1641 H 146.303 1.60226 -3.38051 0
M  V30 1642 H 147.636 2.12585 -4.43924 0
M  V30 1643 N 149.288 1.51039 0.449983 0
M  V30 1644 C 150.218 1.74379 1.55288 0
M  V30 1645 C 151.199 0.593236 1.5942 0
M  V30 1646 O 152.384 0.834625 1.7535 0
M  V30 1647 C 149.514 1.85728 2.93466 0
M  V30 1648 C 148.468 3.01078 3.04197 0
M  V30 1649 C 147.794 2.97595 4.44231 0
M  V30 1650 C 149.094 4.41254 2.7945 0
M  V30 1651 H 150.788 2.66725 1.36008 0
M  V30 1652 H 148.334 1.2835 0.652864 0
M  V30 1653 H 150.287 2.0064 3.70569 0
M  V30 1654 H 149.011 0.900207 3.13949 0
M  V30 1655 H 147.67 2.85851 2.29531 0
M  V30 1656 H 147.318 1.99691 4.61663 0
M  V30 1657 H 147.018 3.75046 4.52343 0
M  V30 1658 H 148.542 3.14583 5.23326 0
M  V30 1659 H 149.956 4.56897 3.46292 0
M  V30 1660 H 148.353 5.20315 2.98985 0
M  V30 1661 H 149.423 4.52164 1.75144 0
M  V30 1662 N 150.766 -0.704594 1.40972 0
M  V30 1663 C 151.994 -1.49354 1.43182 0
M  V30 1664 C 152.409 -1.88768 0.0345508 0
M  V30 1665 O 151.766 -1.56184 -0.944081 0
M  V30 1666 C 151.817 -2.76187 2.33244 0
M  V30 1667 O 151.538 -2.38436 3.67532 0
M  V30 1668 C 153.039 -3.7 2.44162 0
M  V30 1669 H 150.259 -0.460559 0.487982 0
M  V30 1670 H 152.803 -0.868261 1.85153 0
M  V30 1671 H 150.958 -3.34974 1.94606 0
M  V30 1672 H 151.372 -3.20126 4.15475 0
M  V30 1673 H 152.846 -4.55803 3.11364 0
M  V30 1674 H 153.323 -4.13867 1.47006 0
M  V30 1675 H 153.929 -3.17121 2.83398 0
M  V30 1676 N 152.244 -1.26651 -0.937939 0
M  V30 1677 C 153.66 -1.03834 -1.21205 0
M  V30 1678 C 153.86 0.234502 -2.00131 0
M  V30 1679 O 152.916 0.942767 -2.3424 0
M  V30 1680 C 154.229 -2.27167 -1.97017 0
M  V30 1681 C 155.777 -2.32101 -2.09996 0
M  V30 1682 C 156.252 -3.55136 -2.8921 0
M  V30 1683 N 157.743 -3.55632 -2.96783 0
M  V30 1684 C 158.478 -4.475 -3.58512 0
M  V30 1685 N 157.974 -5.4966 -4.21717 0
M  V30 1686 N 159.767 -4.35145 -3.55816 0
M  V30 1687 H 151.918 -2.08398 -0.410391 0
M  V30 1688 H 154.181 -0.916031 -0.244114 0
M  V30 1689 H 153.887 -3.19765 -1.46434 0
M  V30 1690 H 153.761 -2.31672 -2.97671 0
M  V30 1691 H 156.148 -1.40015 -2.59769 0
M  V30 1692 H 156.229 -2.31605 -1.08594 0
M  V30 1693 H 155.873 -4.47553 -2.40123 0
M  V30 1694 H 155.803 -3.5288 -3.90875 0
M  V30 1695 H 158.294 -2.81743 -2.51852 0
M  V30 1696 H 158.607 -6.15943 -4.66727 0
M  V30 1697 H 156.952 -5.53514 -4.20294 0
M  V30 1698 H 160.143 -3.5455 -3.05634 0
M  V30 1699 H 160.316 -5.06934 -4.03636 0
M  V30 1700 N 153.722 1.14298 -1.08507 0
M  V30 1701 C 154.655 2.18447 -0.660004 0
M  V30 1702 C 155.633 1.59242 0.328749 0
M  V30 1703 O 156.817 1.87062 0.232367 0
M  V30 1704 C 153.944 3.38688 0.0290807 0
M  V30 1705 C 152.99 4.1646 -0.919982 0
M  V30 1706 S 153.823 4.77334 -2.42718 0
M  V30 1707 C 154.979 6.00931 -1.75024 0
M  V30 1708 H 155.212 2.54166 -1.54231 0
M  V30 1709 H 152.745 1.25446 -0.900149 0
M  V30 1710 H 154.703 4.08342 0.420378 0
M  V30 1711 H 153.364 3.01289 0.887895 0
M  V30 1712 H 152.557 5.02529 -0.384751 0
M  V30 1713 H 152.159 3.52414 -1.25223 0
M  V30 1714 H 154.451 6.69017 -1.06877 0
M  V30 1715 H 155.394 6.59044 -2.58971 0
M  V30 1716 H 155.802 5.51089 -1.22317 0
M  V30 1717 N 155.201 0.870884 1.31352 0
M  V30 1718 C 156.164 0.332243 2.26779 0
M  V30 1719 C 157.164 -0.517302 1.52252 0
M  V30 1720 O 158.354 -0.326477 1.71113 0
M  V30 1721 C 155.486 -0.528066 3.36785 0
M  V30 1722 H 156.679 1.17469 2.75937 0
M  V30 1723 H 154.232 0.64655 1.423 0
M  V30 1724 H 154.967 -1.39167 2.92922 0
M  V30 1725 H 154.752 0.0802582 3.92018 0
M  V30 1726 H 156.242 -0.897179 4.07849 0
M  V30 1727 N 156.679 -1.44442 0.630414 0
M  V30 1728 C 157.627 -2.32437 -0.0871428 0
M  V30 1729 C 158.621 -1.47304 -0.836525 0
M  V30 1730 O 159.827 -1.63653 -0.749506 0
M  V30 1731 H 156.202 -0.750533 -0.0469495 0
M  V30 1732 H 158.173 -2.90709 0.673096 0
M  V30 1733 C 156.922 -3.31288 -1.05563 0
M  V30 1734 H 156.245 -3.96805 -0.488426 0
M  V30 1735 H 157.685 -3.9554 -1.52721 0
M  V30 1736 C 156.144 -2.6016 -2.14052 0
M  V30 1737 O 156.674 -2.39997 -3.22124 0
M  V30 1738 N 154.88 -2.19911 -1.89967 0
M  V30 1739 H 154.427 -2.36509 -1.02085 0
M  V30 1740 H 154.385 -1.72646 -2.62756 0
M  V30 1741 N 158.157 -0.370918 -1.53173 0
M  V30 1742 C 159.385 0.217704 -2.05751 0
M  V30 1743 C 159.8 1.42018 -1.24404 0
M  V30 1744 O 159.157 1.80245 -0.286033 0
M  V30 1745 C 159.208 0.605954 -3.56385 0
M  V30 1746 O 158.929 -0.548734 -4.3465 0
M  V30 1747 C 160.43 1.2524 -4.25241 0
M  V30 1748 H 157.65 0.0371659 -0.66997 0
M  V30 1749 H 160.194 -0.530832 -1.9749 0
M  V30 1750 H 158.349 1.3044 -3.6478 0
M  V30 1751 H 158.763 -0.23376 -5.23979 0
M  V30 1752 H 160.237 1.47458 -5.3194 0
M  V30 1753 H 160.714 2.2143 -3.79296 0
M  V30 1754 H 161.32 0.595233 -4.21114 0
M  V30 1755 N 159.635 1.57281 -0.100228 0
M  V30 1756 C 160.565 2.17328 0.853857 0
M  V30 1757 C 161.546 1.10804 1.2906 0
M  V30 1758 O 162.731 1.38963 1.35657 0
M  V30 1759 C 159.861 2.75772 2.11109 0
M  V30 1760 C 158.815 3.87713 1.81279 0
M  V30 1761 C 158.141 4.32882 3.13874 0
M  V30 1762 C 159.441 5.10677 1.09574 0
M  V30 1763 H 161.135 2.97305 0.353545 0
M  V30 1764 H 158.681 1.43009 0.168612 0
M  V30 1765 H 160.634 3.16433 2.78296 0
M  V30 1766 H 159.358 1.93057 2.63432 0
M  V30 1767 H 158.017 3.476 1.16489 0
M  V30 1768 H 157.665 3.47051 3.64095 0
M  V30 1769 H 157.365 5.08358 2.94696 0
M  V30 1770 H 158.889 4.7618 3.82211 0
M  V30 1771 H 160.303 5.48474 1.66879 0
M  V30 1772 H 158.7 5.91615 1.00557 0
M  V30 1773 H 159.77 4.84835 0.0793299 0
M  V30 1774 N 161.113 -0.173488 1.56642 0
M  V30 1775 C 162.043 -1.2171 1.99271 0
M  V30 1776 C 163.024 -1.46289 0.867959 0
M  V30 1777 O 164.209 -1.5766 1.13388 0
M  V30 1778 C 161.339 -2.55651 2.35074 0
M  V30 1779 C 160.293 -2.45645 3.50489 0
M  V30 1780 C 159.619 -3.84056 3.72028 0
M  V30 1781 C 160.919 -1.96302 4.84007 0
M  V30 1782 H 162.613 -0.86275 2.867 0
M  V30 1783 H 160.159 -0.413571 1.37933 0
M  V30 1784 H 162.112 -3.2886 2.63494 0
M  V30 1785 H 160.836 -2.92869 1.44552 0
M  V30 1786 H 159.495 -1.7489 3.22194 0
M  V30 1787 H 159.143 -4.18664 2.788 0
M  V30 1788 H 158.843 -3.7823 4.49684 0
M  V30 1789 H 160.367 -4.58854 4.02846 0
M  V30 1790 H 161.781 -2.59284 5.11317 0
M  V30 1791 H 160.178 -2.01429 5.65284 0
M  V30 1792 H 161.248 -0.917226 4.76146 0
M  V30 1793 N 162.591 -1.51276 -0.441967 0
M  V30 1794 C 163.541 -1.6864 -1.53442 0
M  V30 1795 C 164.525 -0.540444 -1.51552 0
M  V30 1796 O 165.717 -0.796157 -1.58083 0
M  V30 1797 C 162.846 -1.8106 -2.91672 0
M  V30 1798 C 161.932 -3.01424 -2.98336 0
M  V30 1799 N 162.323 -4.2467 -2.74752 0
M  V30 1800 C 160.621 -3.00584 -3.29493 0
M  V30 1801 C 161.322 -5.05891 -2.87139 0
M  V30 1802 N 160.298 -4.40442 -3.18609 0
M  V30 1803 H 164.1 -2.61598 -1.33954 0
M  V30 1804 H 161.614 -1.4886 -0.6492 0
M  V30 1805 H 163.611 -1.91609 -3.70259 0
M  V30 1806 H 162.271 -0.892795 -3.12185 0
M  V30 1807 H 163.282 -4.53691 -2.49769 0
M  V30 1808 H 159.959 -2.18417 -3.55809 0
M  V30 1809 H 161.349 -6.13983 -2.72899 0
M  V30 1810 N 164.069 0.697108 -1.41344 0
M  V30 1811 C 165.315 1.4593 -1.40827 0
M  V30 1812 C 165.648 1.94193 -0.0167098 0
M  V30 1813 O 164.923 1.69425 0.955263 0
M  V30 1814 C 165.206 2.67229 -2.41373 0
M  V30 1815 C 165.059 2.24741 -3.8963 0
M  V30 1816 C 166.378 3.69423 -2.39196 0
M  V30 1817 H 163.497 0.529303 -0.512842 0
M  V30 1818 H 166.139 0.794112 -1.72609 0
M  V30 1819 H 164.289 3.23982 -2.14401 0
M  V30 1820 H 165.961 1.73327 -4.27499 0
M  V30 1821 H 164.204 1.56542 -4.0457 0
M  V30 1822 H 164.875 3.1177 -4.55525 0
M  V30 1823 H 167.351 3.2234 -2.63128 0
M  V30 1824 H 166.227 4.51907 -3.11563 0
M  V30 1825 H 166.488 4.19012 -1.41001 0
M  V30 1826 N 165.547 1.27147 0.931209 0
M  V30 1827 C 166.958 1.12044 1.49342 0
M  V30 1828 C 167.309 -0.295795 1.93957 0
M  V30 1829 O 166.434 -1.18835 1.80852 0
M  V30 1830 C 167.029 2.02781 2.71414 0
M  V30 1831 C 165.588 1.91794 3.2387 0
M  V30 1832 C 164.735 1.95543 1.96617 0
M  V30 1833 H 167.686 1.40091 0.745672 0
M  V30 1834 H 167.707 1.58156 3.46074 0
M  V30 1835 H 167.219 3.05848 2.38911 0
M  V30 1836 H 165.32 0.916992 3.6114 0
M  V30 1837 H 165.433 2.77852 3.90302 0
M  V30 1838 H 163.797 1.39722 2.12955 0
M  V30 1839 H 164.58 3.00259 1.66432 0
M  V30 1840 N 167.025 -1.13721 1.09112 0
M  V30 1841 C 167.973 -2.21103 0.722219 0
M  V30 1842 C 168.967 -1.67147 -0.275374 0
M  V30 1843 O 170.173 -1.79477 -0.137176 0
M  V30 1844 H 166.548 -0.720445 0.215553 0
M  V30 1845 H 168.519 -2.49483 1.63709 0
M  V30 1846 C 167.268 -3.47352 0.15543 0
M  V30 1847 H 166.591 -3.89206 0.914246 0
M  V30 1848 H 168.031 -4.2395 -0.0647967 0
M  V30 1849 C 166.49 -3.1814 -1.10852 0
M  V30 1850 O 167.02 -3.36604 -2.19227 0
M  V30 1851 N 165.226 -2.72045 -1.02176 0
M  V30 1852 H 164.773 -2.57221 -0.139764 0
M  V30 1853 H 164.731 -2.52875 -1.8682 0
M  V30 1854 N 168.503 -0.877838 -1.30888 0
M  V30 1855 C 169.433 -0.35534 -2.3078 0
M  V30 1856 C 170.414 0.557994 -1.60687 0
M  V30 1857 O 171.599 0.473355 -1.88343 0
M  V30 1858 C 168.729 0.437221 -3.44537 0
M  V30 1859 C 167.683 -0.383715 -4.26276 0
M  V30 1860 C 167.009 0.535014 -5.32017 0
M  V30 1861 C 168.309 -1.62201 -4.96476 0
M  V30 1862 H 170.003 -1.19007 -2.74732 0
M  V30 1863 H 167.549 -0.573698 -1.32078 0
M  V30 1864 H 169.502 0.813334 -4.13477 0
M  V30 1865 H 168.226 1.30553 -2.99372 0
M  V30 1866 H 166.885 -0.741874 -3.59015 0
M  V30 1867 H 166.533 1.40083 -4.831 0
M  V30 1868 H 166.233 -0.0104211 -5.87599 0
M  V30 1869 H 167.757 0.907799 -6.03814 0
M  V30 1870 H 169.171 -1.31689 -5.5797 0
M  V30 1871 H 167.568 -2.10711 -5.61891 0
M  V30 1872 H 168.638 -2.37044 -4.23011 0
M  V30 1873 N 169.982 1.44106 -0.638065 0
M  V30 1874 C 170.932 2.27843 0.0847285 0
M  V30 1875 C 171.916 1.39055 0.809471 0
M  V30 1876 O 173.108 1.62808 0.694435 0
M  V30 1877 C 170.237 3.26497 1.06089 0
M  V30 1878 C 169.323 4.22772 0.33541 0
M  V30 1879 N 169.714 5.01737 -0.639787 0
M  V30 1880 C 168.012 4.42227 0.578921 0
M  V30 1881 C 168.713 5.71792 -1.06904 0
M  V30 1882 N 167.689 5.42079 -0.406395 0
M  V30 1883 H 171.491 2.86305 -0.663814 0
M  V30 1884 H 169.005 1.55627 -0.464122 0
M  V30 1885 H 171.002 3.8525 1.59337 0
M  V30 1886 H 169.662 2.69595 1.80966 0
M  V30 1887 H 170.673 5.07799 -1.01789 0
M  V30 1888 H 167.35 3.96415 1.31003 0
M  V30 1889 H 168.74 6.45205 -1.8751 0
M  V30 1890 N 171.46 0.379036 1.52974 0
M  V30 1891 C 172.706 -0.199244 2.02422 0
M  V30 1892 C 173.061 -1.4532 1.26095 0
M  V30 1893 O 172.354 -1.88377 0.34996 0
M  V30 1894 C 172.548 -0.53096 3.53434 0
M  V30 1895 C 172.377 0.689298 4.44386 0
M  V30 1896 C 171.147 1.20546 4.9071 0
M  V30 1897 C 173.345 1.55856 4.90116 0
M  V30 1898 N 171.327 2.38434 5.65705 0
M  V30 1899 C 172.698 2.58396 5.63588 0
M  V30 1900 C 174.753 1.57986 4.7217 0
M  V30 1901 C 173.456 3.62939 6.21022 0
M  V30 1902 C 175.482 2.6143 5.30479 0
M  V30 1903 C 174.844 3.62693 6.03849 0
M  V30 1904 H 170.943 -0.0352671 0.781204 0
M  V30 1905 H 173.527 0.526614 1.87443 0
M  V30 1906 H 171.698 -1.22588 3.68547 0
M  V30 1907 H 173.43 -1.0955 3.89591 0
M  V30 1908 H 170.185 0.768022 4.67331 0
M  V30 1909 H 170.609 2.98055 6.07859 0
M  V30 1910 H 175.251 0.810475 4.14959 0
M  V30 1911 H 172.969 4.40751 6.77321 0
M  V30 1912 H 176.555 2.63949 5.18481 0
M  V30 1913 H 175.435 4.41424 6.48163 0
M  V30 1914 N 172.938 -1.57226 0.108567 0
M  V30 1915 C 173.868 -2.17778 -0.84232 0
M  V30 1916 C 174.849 -1.11487 -1.2847 0
M  V30 1917 O 176.034 -1.39681 -1.34918 0
M  V30 1918 C 173.164 -2.76888 -2.09644 0
M  V30 1919 C 172.118 -3.88669 -1.79221 0
M  V30 1920 C 171.444 -4.34541 -3.11574 0
M  V30 1921 C 172.744 -5.11251 -1.06864 0
M  V30 1922 H 174.438 -2.97489 -0.337774 0
M  V30 1923 H 171.984 -1.43097 -0.161025 0
M  V30 1924 H 173.937 -3.17904 -2.76614 0
M  V30 1925 H 172.661 -1.94451 -2.62405 0
M  V30 1926 H 171.32 -3.48213 -1.14644 0
M  V30 1927 H 170.968 -3.48977 -3.62249 0
M  V30 1928 H 170.668 -5.09914 -2.91996 0
M  V30 1929 H 172.192 -4.782 -3.7968 0
M  V30 1930 H 173.606 -5.49352 -1.63968 0
M  V30 1931 H 172.003 -5.9214 -0.974178 0
M  V30 1932 H 173.073 -4.8487 -0.0536168 0
M  V30 1933 N 174.416 0.165178 -1.56732 0
M  V30 1934 C 175.662 0.882112 -1.82611 0
M  V30 1935 C 175.995 1.81628 -0.687378 0
M  V30 1936 O 175.27 1.92009 0.310267 0
M  V30 1937 C 175.553 1.67245 -3.18906 0
M  V30 1938 C 175.406 0.760987 -4.43316 0
M  V30 1939 C 176.725 2.63884 -3.52212 0
M  V30 1940 H 173.844 0.319242 -0.664269 0
M  V30 1941 H 176.486 0.148052 -1.89422 0
M  V30 1942 H 174.636 2.29824 -3.1323 0
M  V30 1943 H 176.308 0.147596 -4.61064 0
M  V30 1944 H 174.551 0.0694102 -4.33744 0
M  V30 1945 H 175.222 1.34962 -5.35247 0
M  V30 1946 H 177.698 2.11429 -3.58381 0
M  V30 1947 H 176.574 3.16245 -4.48643 0
M  V30 1948 H 176.835 3.44377 -2.77231 0
M  V30 1949 N 175.894 1.51508 0.433938 0
M  V30 1950 C 177.14 1.64588 1.18484 0
M  V30 1951 C 177.473 0.362666 1.90784 0
M  V30 1952 O 176.748 -0.637892 1.83742 0
M  V30 1953 C 177.031 2.85149 2.19913 0
M  V30 1954 C 176.884 4.23456 1.51674 0
M  V30 1955 C 178.203 3.01227 3.20858 0
M  V30 1956 H 175.322 0.598994 0.429389 0
M  V30 1957 H 177.964 1.84002 0.473647 0
M  V30 1958 H 176.114 2.68729 2.80566 0
M  V30 1959 H 177.786 4.51552 0.943322 0
M  V30 1960 H 176.029 4.25998 0.819035 0
M  V30 1961 H 176.7 5.03812 2.2556 0
M  V30 1962 H 179.176 3.16382 2.70263 0
M  V30 1963 H 178.052 3.87141 3.89118 0
M  V30 1964 H 178.313 2.13447 3.8716 0
M  V30 1965 N 177.372 -0.689602 1.41712 0
M  V30 1966 C 178.282 -1.83314 1.46401 0
M  V30 1967 C 179.298 -1.7036 0.35405 0
M  V30 1968 O 180.474 -1.92171 0.602692 0
M  V30 1969 C 177.539 -3.19344 1.34982 0
M  V30 1970 C 176.6 -3.44363 2.56344 0
M  V30 1971 C 175.833 -4.73904 2.45461 0
M  V30 1972 O 176.056 -5.508 1.48241 0
M  V30 1973 O 174.99 -4.99839 3.35328 0
M  V30 1974 H 178.816 -1.82314 2.42889 0
M  V30 1975 H 176.401 -0.843438 1.23315 0
M  V30 1976 H 178.283 -4.00547 1.3092 0
M  V30 1977 H 176.958 -3.21014 0.41612 0
M  V30 1978 H 175.865 -2.63067 2.65982 0
M  V30 1979 H 177.198 -3.47512 3.48563 0
M  V30 1980 N 178.85 -1.27639 -0.924453 0
M  V30 1981 C 180.127 -1.04887 -1.651 0
M  V30 1982 C 180.507 0.415327 -2.06974 0
M  V30 1983 O 179.855 1.39923 -1.80648 0
M  V30 1984 C 180.065 -2.01348 -2.85061 0
M  V30 1985 C 181.413 -2.30899 -3.56329 0
M  V30 1986 O 182.437 -1.99348 -2.95193 0
M  V30 1987 O 181.296 -2.84699 -4.66485 0
M  V30 1988 H 178.39 -0.400083 -0.723784 0
M  V30 1989 H 180.936 -1.38916 -0.974703 0
M  V30 1990 H 179.708 -3.0008 -2.51133 0
M  V30 1991 H 179.331 -1.679 -3.6041 0
M  V30 1992 N 180.328 1.1314 -1.09713 0
M  V30 1993 C 181.291 2.16831 -0.742751 0
M  V30 1994 C 182.291 1.59159 0.229129 0
M  V30 1995 O 183.481 1.74199 0.00693237 0
M  V30 1996 C 180.613 3.40756 -0.0989168 0
M  V30 1997 H 181.806 2.49695 -1.66109 0
M  V30 1998 H 179.359 1.2802 -0.896699 0
M  V30 1999 H 180.094 3.13485 0.830514 0
M  V30 2000 H 179.879 3.83888 -0.798265 0
M  V30 2001 H 181.369 4.17386 0.133524 0
M  V30 2002 N 181.806 0.884767 1.30421 0
M  V30 2003 C 183.217 0.553656 1.78302 0
M  V30 2004 C 183.568 -0.930153 1.7275 0
M  V30 2005 O 182.693 -1.72681 1.30423 0
M  V30 2006 C 183.288 0.998234 3.2376 0
M  V30 2007 C 181.847 0.71854 3.69478 0
M  V30 2008 C 180.994 1.18132 2.50879 0
M  V30 2009 H 183.945 1.06901 1.17294 0
M  V30 2010 H 183.966 0.327118 3.79091 0
M  V30 2011 H 183.478 2.0782 3.27769 0
M  V30 2012 H 181.579 -0.349444 3.70958 0
M  V30 2013 H 181.692 1.30595 4.60958 0
M  V30 2014 H 180.056 0.600669 2.47516 0
M  V30 2015 H 180.839 2.26902 2.57624 0
M  V30 2016 N 183.284 -1.43765 0.645699 0
M  V30 2017 C 184.7 -1.56509 0.312591 0
M  V30 2018 C 184.9 -1.6307 -1.18365 0
M  V30 2019 O 183.956 -1.58167 -1.96824 0
M  V30 2020 C 185.269 -2.82968 1.01733 0
M  V30 2021 C 186.817 -2.96701 0.996865 0
M  V30 2022 C 187.292 -4.25982 1.68236 0
M  V30 2023 N 188.783 -4.32829 1.64964 0
M  V30 2024 C 189.518 -5.31613 2.14885 0
M  V30 2025 N 189.014 -6.36718 2.73061 0
M  V30 2026 N 190.807 -5.23217 2.05428 0
M  V30 2027 H 182.958 -1.3775 1.61675 0
M  V30 2028 H 185.221 -0.661067 0.679481 0
M  V30 2029 H 184.927 -2.84156 2.0724 0
M  V30 2030 H 184.801 -3.72957 0.564177 0
M  V30 2031 H 187.188 -2.95058 -0.0497719 0
M  V30 2032 H 187.269 -2.08022 1.48865 0
M  V30 2033 H 186.913 -4.28386 2.72852 0
M  V30 2034 H 186.843 -5.13545 1.16529 0
M  V30 2035 H 189.334 -3.57493 1.22503 0
M  V30 2036 H 189.647 -7.08401 3.08848 0
M  V30 2037 H 187.992 -6.37362 2.77118 0
M  V30 2038 H 191.183 -4.40019 1.59689 0
M  V30 2039 H 191.356 -6.00045 2.44643 0
M  V30 2040 N 184.763 -0.387143 -1.52771 0
M  V30 2041 C 186.179 -0.037007 -1.59557 0
M  V30 2042 C 186.379 1.44801 -1.40124 0
M  V30 2043 O 185.435 2.21227 -1.21716 0
M  V30 2044 C 186.748 -0.512256 -2.96305 0
M  V30 2045 C 188.296 -0.468328 -3.09476 0
M  V30 2046 C 188.771 -0.919731 -4.4867 0
M  V30 2047 N 190.262 -0.875656 -4.54848 0
M  V30 2048 C 190.997 -1.19637 -5.6078 0
M  V30 2049 N 190.493 -1.58745 -6.74368 0
M  V30 2050 N 192.286 -1.11776 -5.50874 0
M  V30 2051 H 184.437 -1.35395 -1.63652 0
M  V30 2052 H 186.7 -0.554818 -0.768688 0
M  V30 2053 H 186.406 -1.54935 -3.15734 0
M  V30 2054 H 186.28 0.089805 -3.77093 0
M  V30 2055 H 188.667 0.559671 -2.89744 0
M  V30 2056 H 188.748 -1.10616 -2.30646 0
M  V30 2057 H 188.392 -1.94595 -4.69143 0
M  V30 2058 H 188.322 -0.258927 -5.25963 0
M  V30 2059 H 190.813 -0.587843 -3.733 0
M  V30 2060 H 191.126 -1.81586 -7.51163 0
M  V30 2061 H 189.471 -1.6263 -6.75705 0
M  V30 2062 H 192.662 -0.811264 -4.61016 0
M  V30 2063 H 192.835 -1.37103 -6.3333 0
M  V30 2064 N 186.241 1.57166 -0.116904 0
M  V30 2065 C 187.469 1.99473 0.549383 0
M  V30 2066 C 187.884 0.996541 1.60357 0
M  V30 2067 O 187.241 -0.0108731 1.82497 0
M  V30 2068 C 187.292 3.41788 1.17741 0
M  V30 2069 O 187.013 4.37788 0.165362 0
M  V30 2070 C 188.514 3.99216 1.92722 0
M  V30 2071 H 185.734 0.655009 0.145616 0
M  V30 2072 H 188.278 2.03494 -0.202625 0
M  V30 2073 H 186.433 3.38713 1.88021 0
M  V30 2074 H 186.847 5.20806 0.621403 0
M  V30 2075 H 188.321 5.00882 2.31995 0
M  V30 2076 H 188.798 3.3824 2.80161 0
M  V30 2077 H 189.404 4.0583 1.27209 0
M  V30 2078 N 187.719 -0.156864 1.56817 0
M  V30 2079 C 189.13 -0.717916 1.72345 0
M  V30 2080 C 189.481 -1.82124 0.729747 0
M  V30 2081 O 188.606 -2.16141 -0.105781 0
M  V30 2082 C 189.201 -1.30904 3.12489 0
M  V30 2083 C 187.76 -1.81676 3.29653 0
M  V30 2084 C 186.907 -0.701349 2.68284 0
M  V30 2085 H 189.858 0.0686989 1.58551 0
M  V30 2086 H 189.879 -2.17882 3.11942 0
M  V30 2087 H 189.391 -0.505796 3.8479 0
M  V30 2088 H 187.492 -2.64598 2.62333 0
M  V30 2089 H 187.605 -1.95226 4.3752 0
M  V30 2090 H 185.969 -1.12548 2.28484 0
M  V30 2091 H 186.752 0.0902846 3.43181 0
M  V30 2092 N 189.197 -1.51736 -0.425897 0
M  V30 2093 C 190.127 -1.76827 -1.52494 0
M  V30 2094 C 191.108 -0.618524 -1.58456 0
M  V30 2095 O 192.293 -0.862416 -1.74 0
M  V30 2096 C 189.423 -1.90374 -2.90474 0
M  V30 2097 C 188.377 -3.0588 -2.99369 0
M  V30 2098 C 187.703 -3.04625 -4.3944 0
M  V30 2099 C 189.003 -4.45644 -2.72394 0
M  V30 2100 H 190.697 -2.68855 -1.31748 0
M  V30 2101 H 188.243 -1.29372 -0.632362 0
M  V30 2102 H 190.196 -2.0651 -3.6733 0
M  V30 2103 H 188.92 -0.95004 -3.12477 0
M  V30 2104 H 187.579 -2.89467 -2.24954 0
M  V30 2105 H 187.227 -2.0701 -4.58428 0
M  V30 2106 H 186.927 -3.82195 -4.46319 0
M  V30 2107 H 188.451 -3.22869 -5.18255 0
M  V30 2108 H 189.865 -4.62348 -3.38979 0
M  V30 2109 H 188.262 -5.25006 -2.9067 0
M  V30 2110 H 189.332 -4.54893 -1.67929 0
M  V30 2111 N 190.675 0.682077 -1.42076 0
M  V30 2112 C 191.903 1.47057 -1.4554 0
M  V30 2113 C 192.318 1.8869 -0.0645779 0
M  V30 2114 O 191.675 1.57666 0.919115 0
M  V30 2115 C 191.726 2.72442 -2.37609 0
M  V30 2116 O 191.447 2.32559 -3.71279 0
M  V30 2117 C 192.948 3.66069 -2.50017 0
M  V30 2118 H 190.168 0.452737 -0.495248 0
M  V30 2119 H 192.712 0.838695 -1.8651 0
M  V30 2120 H 190.867 3.31835 -1.9991 0
M  V30 2121 H 191.281 3.13475 -4.20516 0
M  V30 2122 H 192.755 4.50792 -3.18576 0
M  V30 2123 H 193.232 4.11476 -1.53572 0
M  V30 2124 H 193.838 3.12572 -2.88407 0
M  V30 2125 N 192.153 1.28127 0.917671 0
M  V30 2126 C 193.116 1.11744 2.00115 0
M  V30 2127 C 194.116 0.0583052 1.60694 0
M  V30 2128 O 195.306 0.303755 1.71531 0
M  V30 2129 C 192.438 0.704862 3.33533 0
M  V30 2130 H 193.631 2.07966 2.16079 0
M  V30 2131 H 191.184 1.11058 1.09981 0
M  V30 2132 H 191.919 -0.258299 3.2327 0
M  V30 2133 H 191.704 1.4699 3.63505 0
M  V30 2134 H 193.194 0.612768 4.1308 0
M  V30 2135 N 193.631 -1.12557 1.10312 0
M  V30 2136 C 195.047 -1.36036 0.834649 0
M  V30 2137 C 195.247 -1.93946 -0.546539 0
M  V30 2138 O 194.303 -2.16484 -1.29966 0
M  V30 2139 C 195.616 -2.30312 1.9333 0
M  V30 2140 C 197.164 -2.43906 1.9616 0
M  V30 2141 C 197.639 -3.41496 3.05195 0
M  V30 2142 N 199.13 -3.49053 3.04494 0
M  V30 2143 C 199.865 -4.24471 3.85502 0
M  V30 2144 N 199.361 -5.02966 4.76442 0
M  V30 2145 N 201.154 -4.19864 3.73725 0
M  V30 2146 H 193.305 -0.733246 1.99342 0
M  V30 2147 H 195.568 -0.385234 0.866198 0
M  V30 2148 H 195.274 -1.94933 2.92735 0
M  V30 2149 H 195.148 -3.30421 1.81939 0
M  V30 2150 H 197.535 -2.78567 0.973886 0
M  V30 2151 H 197.616 -1.4369 2.11629 0
M  V30 2152 H 197.26 -3.07565 4.04186 0
M  V30 2153 H 197.19 -4.41539 2.86968 0
M  V30 2154 H 199.681 -2.93053 2.38596 0
M  V30 2155 H 199.994 -5.57846 5.34815 0
M  V30 2156 H 198.339 -5.02167 4.80472 0
M  V30 2157 H 201.53 -3.57623 3.02032 0
M  V30 2158 H 201.703 -4.78386 4.37093 0
M  V30 2159 N 195.109 -0.891671 -1.2995 0
M  V30 2160 C 196.039 -0.379797 -2.30391 0
M  V30 2161 C 197.02 0.540919 -1.6127 0
M  V30 2162 O 198.205 0.453352 -1.88834 0
M  V30 2163 C 195.335 0.400654 -3.44981 0
M  V30 2164 C 194.289 -0.428905 -4.25846 0
M  V30 2165 C 193.615 0.478557 -5.32554 0
M  V30 2166 C 194.915 -1.67458 -4.94727 0
M  V30 2167 H 196.609 -1.21914 -2.73454 0
M  V30 2168 H 194.155 -0.587675 -1.31462 0
M  V30 2169 H 196.108 0.769434 -4.14316 0
M  V30 2170 H 194.832 1.27371 -3.0074 0
M  V30 2171 H 193.491 -0.779911 -3.58208 0
M  V30 2172 H 193.139 1.34951 -4.84559 0
M  V30 2173 H 192.839 -0.0727433 -5.87555 0
M  V30 2174 H 194.363 0.843705 -6.04743 0
M  V30 2175 H 195.777 -1.376 -5.56542 0
M  V30 2176 H 194.174 -2.16659 -5.59624 0
M  V30 2177 H 195.244 -2.41518 -4.20473 0
M  V30 2178 N 196.587 1.43421 -0.653314 0
M  V30 2179 C 197.517 2.33487 0.0246656 0
M  V30 2180 C 198.498 1.49475 0.811863 0
M  V30 2181 O 199.683 1.78139 0.773322 0
M  V30 2182 C 196.813 3.32841 0.99166 0
M  V30 2183 C 195.767 4.26842 0.314568 0
M  V30 2184 C 195.093 5.16236 1.39302 0
M  V30 2185 C 196.393 5.16243 -0.793095 0
M  V30 2186 H 198.087 2.90427 -0.727481 0
M  V30 2187 H 195.633 1.39649 -0.351287 0
M  V30 2188 H 197.586 3.94747 1.47487 0
M  V30 2189 H 196.31 2.74158 1.77497 0
M  V30 2190 H 194.969 3.663 -0.148199 0
M  V30 2191 H 194.617 4.53891 2.16776 0
M  V30 2192 H 194.317 5.79948 0.945223 0
M  V30 2193 H 195.841 5.81015 1.87759 0
M  V30 2194 H 197.255 5.71958 -0.392039 0
M  V30 2195 H 195.652 5.88676 -1.16536 0
M  V30 2196 H 196.722 4.55927 -1.65103 0
M  V30 2197 N 198.065 0.39524 1.52563 0
M  V30 2198 C 199.481 0.0454682 1.59535 0
M  V30 2199 C 199.681 -1.44056 1.4089 0
M  V30 2200 O 198.737 -2.20579 1.22888 0
M  V30 2201 C 200.05 0.527963 2.96029 0
M  V30 2202 C 201.598 0.484733 3.09224 0
M  V30 2203 C 202.073 0.943512 4.48176 0
M  V30 2204 N 203.564 0.899765 4.54377 0
M  V30 2205 C 204.299 1.22609 5.60138 0
M  V30 2206 N 203.795 1.62319 6.73516 0
M  V30 2207 N 205.588 1.14696 5.50274 0
M  V30 2208 H 197.739 1.36261 1.62931 0
M  V30 2209 H 200.002 0.558887 0.765735 0
M  V30 2210 H 199.708 1.56607 3.14908 0
M  V30 2211 H 199.582 -0.0698056 3.77135 0
M  V30 2212 H 201.969 -0.544298 2.90037 0
M  V30 2213 H 202.05 1.11838 2.30056 0
M  V30 2214 H 201.694 1.9708 4.68104 0
M  V30 2215 H 201.624 0.286817 5.25818 0
M  V30 2216 H 204.115 0.607632 3.72983 0
M  V30 2217 H 204.428 1.85567 7.5019 0
M  V30 2218 H 202.773 1.66211 6.74833 0
M  V30 2219 H 205.964 0.835701 4.6058 0
M  V30 2220 H 206.137 1.40459 6.32594 0
M  V30 2221 N 199.544 -1.57102 0.125237 0
M  V30 2222 C 200.821 -1.86953 -0.575142 0
M  V30 2223 C 201.201 -1.02749 -1.84407 0
M  V30 2224 O 200.549 -0.108144 -2.28244 0
M  V30 2225 C 200.759 -3.38198 -0.861583 0
M  V30 2226 C 202.107 -4.06937 -1.21192 0
M  V30 2227 O 203.131 -3.43252 -0.951645 0
M  V30 2228 O 201.99 -5.19364 -1.70068 0
M  V30 2229 H 199.084 -0.774147 -0.290906 0
M  V30 2230 H 201.63 -1.68942 0.160211 0
M  V30 2231 H 200.402 -3.91282 0.0373647 0
M  V30 2232 H 200.025 -3.61661 -1.65188 0
M  V30 2233 N 201.022 0.148545 -1.56898 0
M  V30 2234 C 202.25 0.876389 -1.87422 0
M  V30 2235 C 202.665 1.74809 -0.713256 0
M  V30 2236 O 202.022 1.79725 0.317025 0
M  V30 2237 C 202.073 1.73438 -3.17178 0
M  V30 2238 O 201.794 0.897809 -4.28802 0
M  V30 2239 C 203.295 2.56993 -3.61205 0
M  V30 2240 H 200.515 0.253489 -0.621277 0
M  V30 2241 H 203.059 0.141798 -2.04008 0
M  V30 2242 H 201.214 2.42205 -3.0235 0
M  V30 2243 H 201.628 1.48672 -5.02988 0
M  V30 2244 H 203.102 3.12773 -4.54838 0
M  V30 2245 H 203.579 3.32958 -2.86419 0
M  V30 2246 H 204.185 1.9352 -3.78722 0
M  V30 2247 N 202.5 1.5196 0.417844 0
M  V30 2248 C 203.748 1.65263 1.16329 0
M  V30 2249 C 204.069 0.380634 1.91249 0
M  V30 2250 O 203.339 -0.604214 1.86349 0
M  V30 2251 H 201.919 0.60912 0.432414 0
M  V30 2252 H 204.581 1.88969 0.477162 0
M  V30 2253 H 203.677 2.4896 1.88217 0
M  V30 2254 N 203.978 -0.674533 1.42435 0
M  V30 2255 C 204.908 -1.80009 1.48724 0
M  V30 2256 C 205.889 -1.6659 0.343793 0
M  V30 2257 O 207.074 -1.86007 0.558137 0
M  V30 2258 C 204.204 -3.18306 1.38919 0
M  V30 2259 C 203.158 -3.46461 2.51294 0
M  V30 2260 C 202.484 -4.84335 2.26547 0
M  V30 2261 C 203.784 -3.43328 3.93603 0
M  V30 2262 H 205.478 -1.75004 2.42928 0
M  V30 2263 H 203.024 -0.840533 1.16923 0
M  V30 2264 H 204.977 -3.9678 1.41927 0
M  V30 2265 H 203.701 -3.2399 0.412094 0
M  V30 2266 H 202.36 -2.70348 2.47604 0
M  V30 2267 H 202.008 -4.86669 1.2713 0
M  V30 2268 H 201.708 -5.04136 3.01861 0
M  V30 2269 H 203.232 -5.65094 2.31304 0
M  V30 2270 H 204.646 -4.11772 3.98894 0
M  V30 2271 H 203.043 -3.74664 4.68771 0
M  V30 2272 H 204.113 -2.41897 4.20255 0
M  V30 2273 N 205.456 -1.28612 -0.910864 0
M  V30 2274 C 206.404 -1.1265 -2.03501 0
M  V30 2275 C 207.398 -0.0450054 -1.6934 0
M  V30 2276 O 208.604 -0.203988 -1.7884 0
M  V30 2277 H 204.979 -0.347639 -0.666822 0
M  V30 2278 H 206.95 -2.07849 -2.14106 0
M  V30 2279 C 205.699 -0.808143 -3.38178 0
M  V30 2280 H 205.022 -1.63231 -3.6496 0
M  V30 2281 H 206.462 -0.736426 -4.17556 0
M  V30 2282 C 204.921 0.488226 -3.33344 0
M  V30 2283 O 205.451 1.51766 -3.71927 0
M  V30 2284 N 203.657 0.490009 -2.86439 0
M  V30 2285 H 203.204 -0.348161 -2.55236 0
M  V30 2286 H 203.162 1.35741 -2.83587 0
M  V30 2287 N 206.934 1.1197 -1.10907 0
M  V30 2288 C 208.164 1.8713 -0.875553 0
M  V30 2289 C 208.572 1.8016 0.577843 0
M  V30 2290 O 207.915 1.17699 1.41042 0
M  V30 2291 C 207.977 3.37005 -1.2517 0
M  V30 2292 C 207.641 3.67748 -2.71313 0
M  V30 2293 C 208.638 3.65698 -3.69542 0
M  V30 2294 C 206.323 3.96928 -3.07821 0
M  V30 2295 C 208.317 3.92395 -5.023 0
M  V30 2296 C 206.004 4.23284 -4.40765 0
M  V30 2297 C 207.002 4.21005 -5.37814 0
M  V30 2298 O 206.69 4.46704 -6.68364 0
M  V30 2299 H 206.422 0.598786 -0.313737 0
M  V30 2300 H 208.976 1.42568 -1.47863 0
M  V30 2301 H 207.206 3.82146 -0.591741 0
M  V30 2302 H 208.895 3.93519 -0.994877 0
M  V30 2303 H 209.661 3.43211 -3.42682 0
M  V30 2304 H 205.54 3.97841 -2.32902 0
M  V30 2305 H 209.084 3.90531 -5.78041 0
M  V30 2306 H 204.981 4.45246 -4.67361 0
M  V30 2307 H 205.749 4.64299 -6.74069 0
M  V30 2308 N 208.412 0.89855 1.29475 0
M  V30 2309 C 209.64 0.539261 1.99749 0
M  V30 2310 C 210.055 -0.875716 1.67262 0
M  V30 2311 O 209.412 -1.57786 0.917049 0
M  V30 2312 C 209.463 0.72061 3.54245 0
M  V30 2313 O 209.184 2.07989 3.8558 0
M  V30 2314 C 210.685 0.366118 4.41786 0
M  V30 2315 H 207.905 0.207047 0.638258 0
M  V30 2316 H 210.449 1.20758 1.65039 0
M  V30 2317 H 208.604 0.0994862 3.87272 0
M  V30 2318 H 209.018 2.10841 4.80257 0
M  V30 2319 H 210.492 0.543848 5.49314 0
M  V30 2320 H 210.969 -0.696763 4.33638 0
M  V30 2321 H 211.575 0.964135 4.14228 0
M  V30 2322 N 209.89 -1.43072 0.660911 0
M  V30 2323 C 210.84 -2.27948 -0.04847 0
M  V30 2324 C 211.824 -1.40325 -0.787246 0
M  V30 2325 O 213.016 -1.63893 -0.668446 0
M  V30 2326 C 210.145 -3.28143 -1.00881 0
M  V30 2327 C 209.231 -4.23252 -0.268108 0
M  V30 2328 N 209.622 -5.00656 0.719528 0
M  V30 2329 C 207.92 -4.43092 -0.508493 0
M  V30 2330 C 208.621 -5.70019 1.15988 0
M  V30 2331 N 207.597 -5.41364 0.492584 0
M  V30 2332 H 211.399 -2.85213 0.709279 0
M  V30 2333 H 208.913 -1.54869 0.488822 0
M  V30 2334 H 210.91 -3.87736 -1.53188 0
M  V30 2335 H 209.57 -2.7244 -1.76654 0
M  V30 2336 H 210.581 -5.06115 1.09855 0
M  V30 2337 H 207.258 -3.98449 -1.24679 0
M  V30 2338 H 208.648 -6.4214 1.97751 0
M  V30 2339 N 211.368 -0.403325 -1.52352 0
M  V30 2340 C 212.298 0.416205 -2.29761 0
M  V30 2341 C 213.279 1.05123 -1.33728 0
M  V30 2342 O 214.464 1.06134 -1.62632 0
M  V30 2343 C 211.594 1.53624 -3.11475 0
M  V30 2344 C 210.548 1.02653 -4.15507 0
M  V30 2345 C 209.874 2.23971 -4.85532 0
M  V30 2346 C 211.174 0.08463 -5.22231 0
M  V30 2347 H 212.868 -0.229701 -2.98518 0
M  V30 2348 H 210.414 -0.111913 -1.43564 0
M  V30 2349 H 212.367 2.1165 -3.64393 0
M  V30 2350 H 211.091 2.20994 -2.40477 0
M  V30 2351 H 209.75 0.46871 -3.63591 0
M  V30 2352 H 209.398 2.89883 -4.11068 0
M  V30 2353 H 209.098 1.90521 -5.55856 0
M  V30 2354 H 210.622 2.82614 -5.41259 0
M  V30 2355 H 212.036 0.573509 -5.70424 0
M  V30 2356 H 210.433 -0.160783 -5.99885 0
M  V30 2357 H 211.503 -0.86237 -4.7717 0
M  V30 2358 N 212.846 1.57033 -0.133567 0
M  V30 2359 C 213.796 2.12641 0.822671 0
M  V30 2360 C 214.78 1.05081 1.21847 0
M  V30 2361 O 215.972 1.31287 1.18713 0
M  V30 2362 C 213.101 2.74094 2.06706 0
M  V30 2363 C 212.187 3.88757 1.69497 0
M  V30 2364 N 212.578 4.95194 1.03037 0
M  V30 2365 C 210.876 3.99213 1.98859 0
M  V30 2366 C 211.577 5.75414 0.852873 0
M  V30 2367 N 210.553 5.25726 1.3825 0
M  V30 2368 H 214.355 2.92308 0.305537 0
M  V30 2369 H 211.869 1.62256 0.0684276 0
M  V30 2370 H 213.866 3.12285 2.76195 0
M  V30 2371 H 212.526 1.95896 2.5895 0
M  V30 2372 H 213.537 5.13247 0.692669 0
M  V30 2373 H 210.214 3.32075 2.53047 0
M  V30 2374 H 211.604 6.71089 0.330091 0
M  V30 2375 N 214.325 -0.140222 1.56975 0
M  V30 2376 C 215.571 -0.852949 1.83991 0
M  V30 2377 C 215.904 -1.80512 0.716187 0
M  V30 2378 O 215.179 -1.92479 -0.279681 0
M  V30 2379 C 215.462 -1.6215 3.21527 0
M  V30 2380 C 215.315 -0.690363 4.4447 0
M  V30 2381 C 216.634 -2.58247 3.56366 0
M  V30 2382 H 213.753 -0.308634 0.669264 0
M  V30 2383 H 216.395 -0.117898 1.89634 0
M  V30 2384 H 214.545 -2.24812 3.16847 0
M  V30 2385 H 216.217 -0.0742264 4.6124 0
M  V30 2386 H 214.46 -0.000396433 4.338 0
M  V30 2387 H 215.131 -1.2643 5.37326 0
M  V30 2388 H 217.607 -2.05701 3.61699 0
M  V30 2389 H 216.483 -3.09067 4.53617 0
M  V30 2390 H 216.744 -3.39923 2.82674 0
M  V30 2391 N 215.803 -1.52179 -0.40978 0
M  V30 2392 C 216.713 -1.78364 -1.52392 0
M  V30 2393 C 217.729 -0.669183 -1.60617 0
M  V30 2394 O 218.905 -0.954518 -1.77344 0
M  V30 2395 C 215.97 -1.92822 -2.88133 0
M  V30 2396 C 215.031 -3.16725 -2.898 0
M  V30 2397 C 214.264 -3.30483 -4.19067 0
M  V30 2398 O 214.487 -2.49522 -5.12928 0
M  V30 2399 O 213.421 -4.2363 -4.27576 0
M  V30 2400 H 217.247 -2.72931 -1.33201 0
M  V30 2401 H 214.832 -1.37016 -0.59557 0
M  V30 2402 H 216.714 -2.04157 -3.68643 0
M  V30 2403 H 215.389 -1.01444 -3.07393 0
M  V30 2404 H 214.296 -3.10848 -2.08146 0
M  V30 2405 H 215.629 -4.07881 -2.75489 0
M  V30 2406 N 217.281 0.66697 -1.42791 0
M  V30 2407 C 218.509 1.45505 -1.47091 0
M  V30 2408 C 218.924 1.8861 -0.0845873 0
M  V30 2409 O 218.281 1.58632 0.90234 0
M  V30 2410 C 218.332 2.69906 -2.40485 0
M  V30 2411 O 218.053 2.28608 -3.73725 0
M  V30 2412 C 219.554 3.63396 -2.53886 0
M  V30 2413 H 216.774 0.447459 -0.500022 0
M  V30 2414 H 219.318 0.818866 -1.8739 0
M  V30 2415 H 217.473 3.29696 -2.03419 0
M  V30 2416 H 217.887 3.08997 -4.23817 0
M  V30 2417 H 219.361 4.47387 -3.2334 0
M  V30 2418 H 219.838 4.09824 -1.57927 0
M  V30 2419 H 220.444 3.09495 -2.91706 0
M  V30 2420 N 218.759 1.29093 0.90403 0
M  V30 2421 C 220.17 1.15186 1.46932 0
M  V30 2422 C 220.521 -0.254587 1.94541 0
M  V30 2423 O 219.646 -1.14972 1.83332 0
M  V30 2424 C 220.241 2.08492 2.67051 0
M  V30 2425 C 218.8 1.98621 3.19729 0
M  V30 2426 C 217.947 1.9967 1.92425 0
M  V30 2427 H 220.898 1.41641 0.715789 0
M  V30 2428 H 220.919 1.65461 3.42641 0
M  V30 2429 H 220.431 3.10847 2.3237 0
M  V30 2430 H 218.532 0.993389 3.59114 0
M  V30 2431 H 218.645 2.86068 3.8432 0
M  V30 2432 H 217.009 1.44208 2.09943 0
M  V30 2433 H 217.792 3.03721 1.60026 0
M  V30 2434 N 220.237 -1.11381 1.11499 0
M  V30 2435 C 221.653 -1.35143 0.849031 0
M  V30 2436 C 221.853 -1.94515 -0.525938 0
M  V30 2437 O 220.909 -2.1785 -1.27662 0
M  V30 2438 C 222.222 -2.28249 1.95762 0
M  V30 2439 C 223.77 -2.41812 1.98736 0
M  V30 2440 C 224.245 -3.3824 3.088 0
M  V30 2441 N 225.736 -3.45803 3.08179 0
M  V30 2442 C 226.471 -4.20358 3.89982 0
M  V30 2443 N 225.967 -4.97884 4.8175 0
M  V30 2444 N 227.76 -4.15877 3.78157 0
M  V30 2445 H 219.911 -0.712062 2.00109 0
M  V30 2446 H 222.174 -0.376025 0.870235 0
M  V30 2447 H 221.88 -1.91817 2.94787 0
M  V30 2448 H 221.754 -3.28473 1.85433 0
M  V30 2449 H 224.141 -2.77518 1.00338 0
M  V30 2450 H 224.222 -1.41437 2.13141 0
M  V30 2451 H 223.866 -3.03261 4.07425 0
M  V30 2452 H 223.796 -4.38471 2.91635 0
M  V30 2453 H 226.287 -2.90506 2.41691 0
M  V30 2454 H 226.6 -5.52142 5.40702 0
M  V30 2455 H 224.945 -4.97043 4.85771 0
M  V30 2456 H 228.136 -3.544 3.05808 0
M  V30 2457 H 228.309 -4.73723 4.42143 0
M  V30 2458 N 221.715 -0.905404 -1.28997 0
M  V30 2459 C 222.663 -0.377431 -2.29517 0
M  V30 2460 C 223.657 0.526461 -1.61012 0
M  V30 2461 O 224.863 0.40863 -1.753 0
M  V30 2462 H 221.238 -0.103437 -0.744852 0
M  V30 2463 H 223.209 -1.23848 -2.71485 0
M  V30 2464 C 221.958 0.374833 -3.45674 0
M  V30 2465 H 221.281 -0.311474 -3.98585 0
M  V30 2466 H 222.721 0.70903 -4.1803 0
M  V30 2467 C 221.18 1.57963 -2.97572 0
M  V30 2468 O 221.71 2.67886 -2.99333 0
M  V30 2469 N 219.916 1.42375 -2.53333 0
M  V30 2470 H 219.463 0.529466 -2.521 0
M  V30 2471 H 219.421 2.23117 -2.21509 0
M  V30 2472 N 223.193 1.4272 -0.668489 0
M  V30 2473 C 224.423 2.05668 -0.196063 0
M  V30 2474 C 224.831 1.5028 1.14946 0
M  V30 2475 O 224.174 0.6348 1.72383 0
M  V30 2476 C 224.236 3.59469 -0.0468879 0
M  V30 2477 C 223.9 4.37518 -1.32012 0
M  V30 2478 C 224.897 4.68584 -2.25222 0
M  V30 2479 C 222.582 4.77266 -1.56596 0
M  V30 2480 C 224.576 5.38326 -3.41297 0
M  V30 2481 C 222.263 5.4675 -2.72962 0
M  V30 2482 C 223.261 5.77204 -3.65137 0
M  V30 2483 O 222.949 6.45264 -4.79468 0
M  V30 2484 H 222.681 0.669382 -0.0943599 0
M  V30 2485 H 225.235 1.83954 -0.913788 0
M  V30 2486 H 223.465 3.79817 0.726357 0
M  V30 2487 H 225.154 4.04071 0.384852 0
M  V30 2488 H 225.92 4.38382 -2.07477 0
M  V30 2489 H 221.799 4.52959 -0.857249 0
M  V30 2490 H 225.343 5.62014 -4.13263 0
M  V30 2491 H 221.24 5.76369 -2.90635 0
M  V30 2492 H 222.008 6.63753 -4.78931 0
M  V30 2493 N 224.671 0.411399 1.52136 0
M  V30 2494 C 225.618 -0.412975 2.27075 0
M  V30 2495 C 226.588 -1.03912 1.29582 0
M  V30 2496 O 227.773 -1.06296 1.58448 0
M  V30 2497 C 224.913 -1.52247 3.09701 0
M  V30 2498 C 224.026 -0.917021 4.22155 0
M  V30 2499 C 223.161 -1.9994 4.92135 0
M  V30 2500 C 222.2 -1.37101 5.96548 0
M  V30 2501 N 221.337 -2.39364 6.60038 0
M  V30 2502 H 226.177 0.232499 2.97092 0
M  V30 2503 H 223.714 0.126496 1.46555 0
M  V30 2504 H 225.672 -2.17674 3.55913 0
M  V30 2505 H 224.302 -2.13794 2.41851 0
M  V30 2506 H 223.354 -0.151742 3.80097 0
M  V30 2507 H 224.666 -0.418006 4.97045 0
M  V30 2508 H 223.82 -2.73088 5.41763 0
M  V30 2509 H 222.559 -2.53208 4.16818 0
M  V30 2510 H 221.564 -0.624873 5.46237 0
M  V30 2511 H 222.789 -0.845998 6.7381 0
M  V30 2512 H 220.735 -2.91759 5.87548 0
M  V30 2513 H 220.652 -1.9428 7.3061 0
M  V30 2514 H 221.92 -3.12074 7.14304 0
M  V30 2515 N 226.149 -1.5696 0.141893 0
M  V30 2516 C 227.079 -2.19516 -0.795936 0
M  V30 2517 C 228.06 -1.14187 -1.26077 0
M  V30 2518 O 229.245 -1.42511 -1.31925 0
M  V30 2519 C 226.375 -2.81272 -2.03723 0
M  V30 2520 C 225.329 -3.92384 -1.70936 0
M  V30 2521 C 224.655 -4.41052 -3.02287 0
M  V30 2522 C 225.955 -5.13403 -0.959954 0
M  V30 2523 H 227.649 -2.98138 -0.274596 0
M  V30 2524 H 225.195 -1.43406 -0.130636 0
M  V30 2525 H 227.148 -3.237 -2.69808 0
M  V30 2526 H 225.872 -1.99973 -2.58221 0
M  V30 2527 H 224.531 -3.50566 -1.07232 0
M  V30 2528 H 224.179 -3.56582 -3.54765 0
M  V30 2529 H 223.879 -5.15993 -2.81114 0
M  V30 2530 H 225.403 -4.86146 -3.69451 0
M  V30 2531 H 226.817 -5.52706 -1.52279 0
M  V30 2532 H 225.214 -5.94073 -0.848357 0
M  V30 2533 H 226.284 -4.84875 0.0492434 0
M  V30 2534 N 227.627 0.131896 -1.57047 0
M  V30 2535 C 229.043 0.485031 -1.52051 0
M  V30 2536 C 229.243 1.82563 -0.85281 0
M  V30 2537 O 228.299 2.48817 -0.429694 0
M  V30 2538 C 229.612 0.481409 -2.96821 0
M  V30 2539 C 231.16 0.565868 -3.07842 0
M  V30 2540 C 231.635 0.592762 -4.54148 0
M  V30 2541 N 233.126 0.654564 -4.58552 0
M  V30 2542 C 233.861 0.696608 -5.69153 0
M  V30 2543 N 233.357 0.697078 -6.89284 0
M  V30 2544 N 235.15 0.738639 -5.57226 0
M  V30 2545 H 227.301 -0.746664 -1.98843 0
M  V30 2546 H 229.564 -0.273999 -0.90754 0
M  V30 2547 H 229.27 -0.435731 -3.4899 0
M  V30 2548 H 229.144 1.3139 -3.53577 0
M  V30 2549 H 231.531 1.47343 -2.55684 0
M  V30 2550 H 231.612 -0.29406 -2.54104 0
M  V30 2551 H 231.256 -0.310701 -5.06949 0
M  V30 2552 H 231.186 1.46939 -5.05684 0
M  V30 2553 H 233.677 0.660887 -3.72076 0
M  V30 2554 H 233.99 0.731426 -7.69331 0
M  V30 2555 H 232.335 0.66471 -6.91814 0
M  V30 2556 H 235.526 0.735545 -4.62285 0
M  V30 2557 H 235.699 0.767938 -6.43434 0
M  V30 2558 N 229.106 1.52395 0.401703 0
M  V30 2559 C 230.354 1.66488 1.14569 0
M  V30 2560 C 230.675 0.400897 1.90835 0
M  V30 2561 O 229.945 -0.584415 1.8698 0
M  V30 2562 H 228.525 0.613672 0.425929 0
M  V30 2563 H 231.187 1.89464 0.457093 0
M  V30 2564 H 230.283 2.50942 1.85566 0
M  V30 2565 N 230.584 -0.659388 1.43143 0
M  V30 2566 C 231.861 -1.41627 1.34912 0
M  V30 2567 C 232.241 -2.11099 -0.00607785 0
M  V30 2568 O 231.589 -2.04353 -1.02236 0
M  V30 2569 C 231.799 -2.40604 2.52805 0
M  V30 2570 C 233.147 -3.04789 2.95616 0
M  V30 2571 O 234.171 -2.50932 2.52807 0
M  V30 2572 O 233.03 -4.02421 3.69756 0
M  V30 2573 H 230.124 -0.63246 0.532844 0
M  V30 2574 H 232.67 -0.686814 1.5518 0
M  V30 2575 H 231.442 -1.88174 3.43083 0
M  V30 2576 H 231.065 -3.21009 2.34604 0
M  V30 2577 N 232.062 -1.29571 -0.897171 0
M  V30 2578 C 233.025 -1.14913 -1.98312 0
M  V30 2579 C 234.025 -0.0838629 -1.60581 0
M  V30 2580 O 235.215 -0.331006 -1.71026 0
M  V30 2581 C 232.347 -0.757835 -3.3237 0
M  V30 2582 H 233.54 -2.11377 -2.12743 0
M  V30 2583 H 231.093 -1.12793 -1.08201 0
M  V30 2584 H 231.828 0.206837 -3.2364 0
M  V30 2585 H 231.613 -1.52755 -3.61121 0
M  V30 2586 H 233.103 -0.678408 -4.12053 0
M  V30 2587 N 233.54 1.10788 -1.12088 0
M  V30 2588 C 234.956 1.34691 -0.856186 0
M  V30 2589 C 235.156 1.94791 0.515615 0
M  V30 2590 O 234.212 2.18524 1.26505 0
M  V30 2591 C 235.525 2.27208 -1.9697 0
M  V30 2592 C 237.073 2.40755 -2.00016 0
M  V30 2593 C 237.548 3.36598 -3.1059 0
M  V30 2594 N 239.039 3.44164 -3.10008 0
M  V30 2595 C 239.774 4.18284 -3.92206 0
M  V30 2596 N 239.27 4.95322 -4.84384 0
M  V30 2597 N 241.063 4.13865 -3.80357 0
M  V30 2598 H 233.214 0.70144 -2.00483 0
M  V30 2599 H 235.477 0.371405 -0.872217 0
M  V30 2600 H 235.183 1.90251 -2.958 0
M  V30 2601 H 235.057 3.27485 -1.87172 0
M  V30 2602 H 237.444 2.76982 -1.01808 0
M  V30 2603 H 237.525 1.40305 -2.13888 0
M  V30 2604 H 237.169 3.01096 -4.09028 0
M  V30 2605 H 237.099 4.36918 -2.93956 0
M  V30 2606 H 239.59 2.8922 -2.43228 0
M  V30 2607 H 239.903 5.49267 -5.43623 0
M  V30 2608 H 238.248 4.94459 -4.884 0
M  V30 2609 H 241.439 3.52773 -3.07683 0
M  V30 2610 H 241.612 4.71372 -4.44649 0
M  V30 2611 N 235.018 0.912232 1.28515 0
M  V30 2612 C 236.295 0.463597 1.90027 0
M  V30 2613 C 236.675 -1.05753 1.82701 0
M  V30 2614 O 236.023 -1.90492 1.26194 0
M  V30 2615 C 236.233 0.992253 3.34597 0
M  V30 2616 C 237.581 1.04344 4.11579 0
M  V30 2617 O 238.605 0.94079 3.43551 0
M  V30 2618 O 237.464 1.1995 5.33174 0
M  V30 2619 H 234.558 0.146666 0.813891 0
M  V30 2620 H 237.104 1.00292 1.36893 0
M  V30 2621 H 235.876 2.03623 3.34146 0
M  V30 2622 H 235.499 0.433672 3.95228 0
M  V30 2623 N 236.496 -1.42363 0.676048 0
M  V30 2624 C 237.907 -1.84649 0.275948 0
M  V30 2625 C 238.258 -1.56588 -1.18214 0
M  V30 2626 O 237.383 -1.02634 -1.90513 0
M  V30 2627 C 237.978 -3.35178 0.494053 0
M  V30 2628 C 236.537 -3.76109 0.148061 0
M  V30 2629 C 235.684 -2.65931 0.785891 0
M  V30 2630 H 238.635 -1.32192 0.878121 0
M  V30 2631 H 238.656 -3.79655 -0.25343 0
M  V30 2632 H 238.168 -3.55571 1.55535 0
M  V30 2633 H 236.269 -3.61323 -0.909742 0
M  V30 2634 H 236.382 -4.7546 0.589454 0
M  V30 2635 H 234.746 -2.53773 0.217113 0
M  V30 2636 H 235.529 -2.89146 1.85067 0
M  V30 2637 N 237.974 -0.419461 -1.51915 0
M  V30 2638 C 239.39 -0.0708431 -1.59443 0
M  V30 2639 C 239.59 1.41796 -1.43164 0
M  V30 2640 O 238.646 2.18596 -1.26381 0
M  V30 2641 C 239.959 -0.574991 -2.95151 0
M  V30 2642 C 241.507 -0.533867 -3.08413 0
M  V30 2643 C 241.982 -1.01469 -4.46618 0
M  V30 2644 N 243.473 -0.971939 -4.52888 0
M  V30 2645 C 244.208 -1.31505 -5.58116 0
M  V30 2646 N 243.704 -1.73014 -6.70849 0
M  V30 2647 N 245.497 -1.23436 -5.48379 0
M  V30 2648 H 237.648 -1.38836 -1.60743 0
M  V30 2649 H 239.911 -0.570998 -0.756747 0
M  V30 2650 H 239.617 -1.61597 -3.12377 0
M  V30 2651 H 239.491 0.00979777 -3.77199 0
M  V30 2652 H 241.878 0.498086 -2.90866 0
M  V30 2653 H 241.959 -1.15484 -2.28248 0
M  V30 2654 H 241.603 -2.04502 -4.6491 0
M  V30 2655 H 241.533 -0.370433 -5.25295 0
M  V30 2656 H 244.024 -0.666893 -3.71969 0
M  V30 2657 H 244.337 -1.97479 -7.47143 0
M  V30 2658 H 242.682 -1.76926 -6.72103 0
M  V30 2659 H 245.873 -0.908869 -4.59192 0
M  V30 2660 H 246.046 -1.50506 -6.30279 0
M  V30 2661 N 239.452 1.56882 -0.150215 0
M  V30 2662 C 240.701 1.95403 0.500071 0
M  V30 2663 C 241.014 1.03777 1.658 0
M  V30 2664 O 242.22 1.31889 2.37313 0
M  V30 2665 C 240.676 3.4738 0.941018 0
M  V30 2666 C 240.284 4.47596 -0.190158 0
M  V30 2667 C 242.028 3.9476 1.56091 0
M  V30 2668 C 239.935 5.90787 0.269237 0
M  V30 2669 H 238.865 0.729515 0.190588 0
M  V30 2670 H 241.516 1.81988 -0.235074 0
M  V30 2671 H 239.898 3.56138 1.73152 0
M  V30 2672 H 241.072 4.50536 -0.967157 0
M  V30 2673 H 239.387 4.10151 -0.718666 0
M  V30 2674 H 241.984 4.99181 1.9163 0
M  V30 2675 H 242.327 3.36494 2.45107 0
M  V30 2676 H 242.86 3.88932 0.835249 0
M  V30 2677 H 239.599 6.52879 -0.585621 0
M  V30 2678 H 239.119 5.912 1.01204 0
M  V30 2679 H 240.798 6.42979 0.720176 0
M  V30 2680 N 240.93 -0.123565 1.57115 0
M  V30 2681 C 242.341 -0.681198 1.73829 0
M  V30 2682 C 242.692 -1.80535 0.768214 0
M  V30 2683 O 241.817 -2.16317 -0.0599103 0
M  V30 2684 C 242.412 -1.24246 3.15196 0
M  V30 2685 C 240.971 -1.74643 3.33432 0
M  V30 2686 C 240.118 -0.644284 2.69711 0
M  V30 2687 H 243.069 0.102315 1.5837 0
M  V30 2688 H 243.09 -2.11216 3.16493 0
M  V30 2689 H 242.602 -0.424062 3.85776 0
M  V30 2690 H 240.703 -2.58974 2.67886 0
M  V30 2691 H 240.816 -1.85902 4.41562 0
M  V30 2692 H 239.18 -1.07676 2.3082 0
M  V30 2693 H 239.963 0.163058 3.42913 0
M  V30 2694 N 242.408 -1.52605 -0.393616 0
M  V30 2695 C 243.824 -1.41753 -0.733357 0
M  V30 2696 C 244.024 -0.534293 -1.94287 0
M  V30 2697 O 243.08 -0.0059787 -2.52499 0
M  V30 2698 C 244.393 -2.84531 -0.972772 0
M  V30 2699 C 245.941 -2.93978 -1.07453 0
M  V30 2700 C 246.416 -4.37756 -1.3466 0
M  V30 2701 N 247.907 -4.4106 -1.41492 0
M  V30 2702 C 248.642 -5.49387 -1.642 0
M  V30 2703 N 248.138 -6.67806 -1.8441 0
M  V30 2704 N 249.931 -5.36923 -1.66342 0
M  V30 2705 H 242.082 -2.08555 0.402328 0
M  V30 2706 H 244.345 -0.940654 0.117789 0
M  V30 2707 H 244.051 -3.51353 -0.156204 0
M  V30 2708 H 243.925 -3.26508 -1.88871 0
M  V30 2709 H 246.312 -2.27326 -1.88167 0
M  V30 2710 H 246.393 -2.55435 -0.136605 0
M  V30 2711 H 246.037 -5.04972 -0.544581 0
M  V30 2712 H 245.967 -4.73848 -2.2973 0
M  V30 2713 H 248.458 -3.55705 -1.27601 0
M  V30 2714 H 248.771 -7.46141 -2.01231 0
M  V30 2715 H 247.116 -6.70843 -1.81644 0
M  V30 2716 H 250.307 -4.43381 -1.50102 0
M  V30 2717 H 250.48 -6.21416 -1.837 0
M  V30 2718 N 243.887 0.651787 -1.4349 0
M  V30 2719 C 245.135 1.40888 -1.44897 0
M  V30 2720 C 245.456 1.94856 -0.0749086 0
M  V30 2721 O 244.726 1.74518 0.889956 0
M  V30 2722 H 243.306 0.522887 -0.533478 0
M  V30 2723 H 245.968 0.768609 -1.79104 0
M  V30 2724 H 245.064 2.25052 -2.16236 0
M  V30 2725 N 245.365 1.30045 0.890287 0
M  V30 2726 C 246.593 1.21472 1.67487 0
M  V30 2727 C 247.008 -0.223241 1.87476 0
M  V30 2728 O 246.365 -1.14828 1.41847 0
M  V30 2729 C 246.416 1.93394 3.05419 0
M  V30 2730 O 246.137 3.31576 2.86337 0
M  V30 2731 C 247.638 1.91414 3.99844 0
M  V30 2732 H 244.858 0.420604 0.522813 0
M  V30 2733 H 247.402 1.7158 1.11268 0
M  V30 2734 H 245.557 1.47099 3.58386 0
M  V30 2735 H 245.971 3.67929 3.73802 0
M  V30 2736 H 247.445 2.46285 4.94012 0
M  V30 2737 H 247.922 0.891833 4.3005 0
M  V30 2738 H 248.528 2.37496 3.52811 0
M  V30 2739 N 246.843 -1.10192 1.12674 0
M  V30 2740 C 247.776 -2.15847 0.740625 0
M  V30 2741 C 248.754 -1.60352 -0.269421 0
M  V30 2742 O 249.938 -1.87796 -0.16278 0
M  V30 2743 C 247.065 -3.38562 0.096641 0
M  V30 2744 C 246.111 -4.12758 1.07391 0
M  V30 2745 S 246.944 -4.67997 2.60267 0
M  V30 2746 C 248.1 -5.94021 1.97206 0
M  V30 2747 H 248.333 -2.48266 1.63558 0
M  V30 2748 H 245.866 -1.22019 0.946087 0
M  V30 2749 H 247.824 -4.09621 -0.268535 0
M  V30 2750 H 246.485 -3.04377 -0.775462 0
M  V30 2751 H 245.678 -5.00755 0.570997 0
M  V30 2752 H 245.28 -3.47523 1.38216 0
M  V30 2753 H 247.572 -6.64589 1.31634 0
M  V30 2754 H 248.515 -6.48979 2.83253 0
M  V30 2755 H 248.923 -5.46169 1.42686 0
M  V30 2756 N 248.321 -0.919034 -1.28029 0
M  V30 2757 C 249.253 -0.368762 -2.26214 0
M  V30 2758 C 250.266 0.495716 -1.55069 0
M  V30 2759 O 251.455 0.30974 -1.75792 0
M  V30 2760 C 248.555 0.491049 -3.35324 0
M  V30 2761 C 247.728 -0.352133 -4.3598 0
M  V30 2762 C 246.787 0.443622 -5.24327 0
M  V30 2763 O 245.813 -0.14566 -5.69014 0
M  V30 2764 N 247.015 1.74545 -5.53637 0
M  V30 2765 H 249.78 -1.21273 -2.74068 0
M  V30 2766 H 247.341 -0.785541 -1.41566 0
M  V30 2767 H 249.333 1.03026 -3.91366 0
M  V30 2768 H 247.903 1.23574 -2.87138 0
M  V30 2769 H 247.123 -1.07269 -3.79324 0
M  V30 2770 H 248.411 -0.928883 -5.00249 0
M  V30 2771 H 247.809 2.24666 -5.19174 0
M  V30 2772 H 246.366 2.23138 -6.12416 0
M  V30 2773 N 249.799 1.42003 -0.683588 0
M  V30 2774 C 251.215 1.55625 -0.353976 0
M  V30 2775 C 251.415 1.66151 1.14 0
M  V30 2776 O 250.471 1.63329 1.92561 0
M  V30 2777 C 251.784 2.80171 -1.092 0
M  V30 2778 C 253.332 2.93954 -1.07518 0
M  V30 2779 C 253.807 4.21372 -1.79471 0
M  V30 2780 N 255.298 4.28303 -1.76381 0
M  V30 2781 C 256.033 5.25729 -2.28904 0
M  V30 2782 N 255.529 6.29254 -2.89846 0
M  V30 2783 N 257.322 5.17586 -2.19228 0
M  V30 2784 H 249.473 1.33415 -1.6527 0
M  V30 2785 H 251.736 0.64282 -0.696769 0
M  V30 2786 H 251.442 2.78561 -2.14701 0
M  V30 2787 H 251.316 3.7133 -0.662862 0
M  V30 2788 H 253.703 2.95086 -0.028475 0
M  V30 2789 H 253.784 2.04002 -1.54328 0
M  V30 2790 H 253.428 4.21001 -2.84114 0
M  V30 2791 H 253.358 5.10275 -1.30104 0
M  V30 2792 H 255.849 3.54119 -1.31939 0
M  V30 2793 H 256.162 6.99964 -3.27522 0
M  V30 2794 H 254.507 6.29791 -2.93919 0
M  V30 2795 H 257.698 4.35631 -1.71299 0
M  V30 2796 H 257.871 5.93348 -2.60466 0
M  V30 2797 N 251.277 0.427512 1.51691 0
M  V30 2798 C 252.225 -0.403359 2.29076 0
M  V30 2799 C 253.219 -1.02962 1.34518 0
M  V30 2800 O 254.425 -0.965715 1.51901 0
M  V30 2801 H 250.8 -0.148879 0.737115 0
M  V30 2802 H 252.771 0.270295 2.97173 0
M  V30 2803 C 251.52 -1.49763 3.13794 0
M  V30 2804 H 250.843 -1.02508 3.86435 0
M  V30 2805 H 252.283 -2.05244 3.71014 0
M  V30 2806 C 250.742 -2.47536 2.28533 0
M  V30 2807 O 251.272 -3.51848 1.93819 0
M  V30 2808 N 249.478 -2.18187 1.91945 0
M  V30 2809 H 249.025 -1.33389 2.20375 0
M  V30 2810 H 248.983 -2.83848 1.35195 0
M  V30 2811 N 252.755 -1.56801 0.158532 0
M  V30 2812 C 253.685 -2.20347 -0.772609 0
M  V30 2813 C 254.666 -1.15518 -1.24859 0
M  V30 2814 O 255.851 -1.43902 -1.30406 0
M  V30 2815 C 252.981 -2.83417 -2.00729 0
M  V30 2816 C 251.935 -3.94174 -1.66765 0
M  V30 2817 C 251.261 -4.44233 -2.97592 0
M  V30 2818 C 252.561 -5.14392 -0.905447 0
M  V30 2819 H 254.255 -2.98413 -0.242959 0
M  V30 2820 H 251.801 -1.43537 -0.115419 0
M  V30 2821 H 253.754 -3.26543 -2.6636 0
M  V30 2822 H 252.478 -2.02701 -2.56086 0
M  V30 2823 H 251.137 -3.51684 -1.03508 0
M  V30 2824 H 250.785 -3.60325 -3.50963 0
M  V30 2825 H 250.485 -5.18945 -2.75626 0
M  V30 2826 H 252.009 -4.90037 -3.64274 0
M  V30 2827 H 253.423 -5.5429 -1.46408 0
M  V30 2828 H 251.82 -5.9494 -0.7853 0
M  V30 2829 H 252.89 -4.84795 0.100668 0
M  V30 2830 N 254.233 0.115231 -1.57178 0
M  V30 2831 C 255.196 1.12526 -1.99676 0
M  V30 2832 C 256.196 1.34095 -0.88742 0
M  V30 2833 O 257.386 1.30548 -1.15337 0
M  V30 2834 C 254.518 2.4789 -2.34015 0
M  V30 2835 H 255.711 0.759912 -2.90113 0
M  V30 2836 H 253.264 0.359648 -1.52106 0
M  V30 2837 H 253.999 2.89339 -1.4647 0
M  V30 2838 H 253.784 2.33588 -3.14927 0
M  V30 2839 H 255.274 3.20575 -2.67622 0
M  V30 2840 N 255.711 1.52812 0.385517 0
M  V30 2841 C 256.641 1.80808 1.47752 0
M  V30 2842 C 257.622 0.660318 1.5676 0
M  V30 2843 O 258.807 0.908246 1.71652 0
M  V30 2844 C 255.937 1.98008 2.85324 0
M  V30 2845 C 254.891 3.13709 2.91154 0
M  V30 2846 C 254.217 3.16169 4.31209 0
M  V30 2847 C 255.517 4.52709 2.60483 0
M  V30 2848 H 257.211 2.72253 1.24573 0
M  V30 2849 H 254.757 1.31003 0.597839 0
M  V30 2850 H 256.71 2.16176 3.61726 0
M  V30 2851 H 255.434 1.03255 3.09848 0
M  V30 2852 H 254.093 2.95329 2.17201 0
M  V30 2853 H 253.741 2.19092 4.52778 0
M  V30 2854 H 253.441 3.93894 4.36029 0
M  V30 2855 H 254.965 3.36496 5.09512 0
M  V30 2856 H 256.379 4.71173 3.26602 0
M  V30 2857 H 254.776 5.32528 2.76648 0
M  V30 2858 H 255.846 4.59186 1.55809 0
M  V30 2859 N 257.189 -0.644168 1.43834 0
M  V30 2860 C 258.605 -0.960875 1.27434 0
M  V30 2861 C 258.805 -2.00499 0.200618 0
M  V30 2862 O 257.861 -2.49018 -0.417906 0
M  V30 2863 C 259.174 -1.43653 2.64167 0
M  V30 2864 C 260.722 -1.55271 2.71772 0
M  V30 2865 C 261.197 -2.06224 4.08944 0
M  V30 2866 N 262.688 -2.13513 4.11055 0
M  V30 2867 C 263.423 -2.54081 5.14033 0
M  V30 2868 N 262.919 -2.9388 6.27381 0
M  V30 2869 N 264.712 -2.54101 5.01387 0
M  V30 2870 H 256.863 0.0465779 2.12349 0
M  V30 2871 H 259.126 -0.0417638 0.94708 0
M  V30 2872 H 258.832 -0.743706 3.43747 0
M  V30 2873 H 258.706 -2.40993 2.90176 0
M  V30 2874 H 261.093 -2.23653 1.92519 0
M  V30 2875 H 261.174 -0.563395 2.49519 0
M  V30 2876 H 260.818 -1.38441 4.88668 0
M  V30 2877 H 260.748 -3.06003 4.28567 0
M  V30 2878 H 263.239 -1.85493 3.29242 0
M  V30 2879 H 263.552 -3.2361 7.01781 0
M  V30 2880 H 261.897 -2.91663 6.30839 0
M  V30 2881 H 265.088 -2.22391 4.11898 0
M  V30 2882 H 265.261 -2.85394 5.81768 0
M  V30 2883 N 258.668 -1.30515 -0.883378 0
M  V30 2884 C 259.914 -1.20617 -1.63778 0
M  V30 2885 C 260.269 0.236469 -1.90941 0
M  V30 2886 O 259.562 1.16596 -1.52039 0
M  V30 2887 C 259.756 -1.96994 -2.98209 0
M  V30 2888 C 259.585 -3.48537 -2.84169 0
M  V30 2889 C 258.355 -4.17893 -2.84067 0
M  V30 2890 C 260.553 -4.43738 -2.60001 0
M  V30 2891 N 258.535 -5.55685 -2.60936 0
M  V30 2892 C 259.906 -5.69105 -2.46007 0
M  V30 2893 C 261.961 -4.33316 -2.45239 0
M  V30 2894 C 260.664 -6.8523 -2.18752 0
M  V30 2895 C 262.69 -5.4921 -2.19369 0
M  V30 2896 C 262.052 -6.73558 -2.06153 0
M  V30 2897 H 258.151 -0.496434 -0.604216 0
M  V30 2898 H 260.735 -1.64544 -1.04083 0
M  V30 2899 H 258.906 -1.55455 -3.55933 0
M  V30 2900 H 260.638 -1.79225 -3.62851 0
M  V30 2901 H 257.393 -3.69739 -2.95956 0
M  V30 2902 H 257.817 -6.28199 -2.52378 0
M  V30 2903 H 262.459 -3.37856 -2.54191 0
M  V30 2904 H 260.177 -7.80729 -2.08537 0
M  V30 2905 H 263.763 -5.43054 -2.08766 0
M  V30 2906 H 262.643 -7.61721 -1.86416 0
M  V30 2907 N 260.146 1.09593 -1.13257 0
M  V30 2908 C 261.076 2.18214 -0.830946 0
M  V30 2909 C 262.057 1.68812 0.208966 0
M  V30 2910 O 263.242 1.9408 0.0682666 0
M  V30 2911 C 260.372 3.46051 -0.294296 0
M  V30 2912 C 259.326 4.08778 -1.26826 0
M  V30 2913 C 258.652 5.31419 -0.591449 0
M  V30 2914 C 259.952 4.51476 -2.62615 0
M  V30 2915 H 261.646 2.43703 -1.73923 0
M  V30 2916 H 259.192 1.17128 -0.837675 0
M  V30 2917 H 261.145 4.2134 -0.0709606 0
M  V30 2918 H 259.869 3.20079 0.649366 0
M  V30 2919 H 258.528 3.35505 -1.47756 0
M  V30 2920 H 258.176 5.01727 0.357633 0
M  V30 2921 H 257.876 5.74341 -1.24123 0
M  V30 2922 H 259.4 6.09433 -0.377355 0
M  V30 2923 H 260.814 5.17999 -2.45663 0
M  V30 2924 H 259.211 5.05277 -3.23752 0
M  V30 2925 H 260.281 3.63962 -3.20406 0
M  V30 2926 N 261.624 0.925811 1.2754 0
M  V30 2927 C 263.04 0.625767 1.46821 0
M  V30 2928 C 263.24 -0.825506 1.83814 0
M  V30 2929 O 262.296 -1.60356 1.95044 0
M  V30 2930 C 263.609 1.57402 2.56213 0
M  V30 2931 C 265.157 1.58204 2.70075 0
M  V30 2932 C 265.632 2.51721 3.82623 0
M  V30 2933 N 267.123 2.49917 3.89994 0
M  V30 2934 C 267.858 3.18968 4.76494 0
M  V30 2935 N 267.354 3.97391 5.67496 0
M  V30 2936 N 269.147 3.07996 4.70208 0
M  V30 2937 H 261.298 1.86409 1.01811 0
M  V30 2938 H 263.561 0.800213 0.508295 0
M  V30 2939 H 263.267 2.60925 2.35819 0
M  V30 2940 H 263.141 1.31428 3.53563 0
M  V30 2941 H 265.528 0.554124 2.89851 0
M  V30 2942 H 265.609 1.88226 1.73218 0
M  V30 2943 H 265.253 3.54622 3.63601 0
M  V30 2944 H 265.183 2.18996 4.78903 0
M  V30 2945 H 267.674 1.9296 3.24923 0
M  V30 2946 H 267.987 4.4707 6.30356 0
M  V30 2947 H 266.332 4.01495 5.67298 0
M  V30 2948 H 269.523 2.46223 3.9811 0
M  V30 2949 H 269.696 3.6208 5.37403 0
M  V30 2950 N 263.102 -1.41638 0.69111 0
M  V30 2951 C 264.012 -2.34588 0.0233487 0
M  V30 2952 C 265.028 -1.55987 -0.770984 0
M  V30 2953 O 266.204 -1.88486 -0.709569 0
M  V30 2954 C 263.269 -3.34684 -0.904851 0
M  V30 2955 C 262.33 -4.29176 -0.103225 0
M  V30 2956 C 261.563 -5.2449 -0.987216 0
M  V30 2957 O 261.786 -5.2514 -2.22674 0
M  V30 2958 O 260.72 -6.00295 -0.439281 0
M  V30 2959 H 264.546 -2.93261 0.789416 0
M  V30 2960 H 262.131 -1.42417 0.45142 0
M  V30 2961 H 264.013 -3.96133 -1.43724 0
M  V30 2962 H 262.688 -2.78461 -1.65049 0
M  V30 2963 H 261.595 -3.71089 0.473655 0
M  V30 2964 H 262.928 -4.88484 0.60365 0
M  V30 2965 N 264.58 -0.43555 -1.51462 0
M  V30 2966 C 265.808 0.130242 -2.0649 0
M  V30 2967 C 266.223 1.36614 -1.30315 0
M  V30 2968 O 265.58 1.78869 -0.362223 0
M  V30 2969 C 265.631 0.454253 -3.58635 0
M  V30 2970 O 265.352 -0.73259 -4.31931 0
M  V30 2971 C 266.853 1.07091 -4.3017 0
M  V30 2972 H 264.073 0.00871669 -0.670943 0
M  V30 2973 H 266.617 -0.614117 -1.95061 0
M  V30 2974 H 264.772 1.14851 -3.69984 0
M  V30 2975 H 265.186 -0.455787 -5.22516 0
M  V30 2976 H 266.66 1.24764 -5.37716 0
M  V30 2977 H 267.137 2.05144 -3.88346 0
M  V30 2978 H 267.743 0.416089 -4.2326 0
M  V30 2979 N 266.058 1.56714 -0.166846 0
M  V30 2980 C 267.305 1.96747 0.479252 0
M  V30 2981 C 267.633 1.05263 1.63554 0
M  V30 2982 O 266.888 0.0858098 1.95512 0
M  V30 2983 C 267.187 3.42889 1.00806 0
M  V30 2984 C 266.853 4.50889 -0.0318574 0
M  V30 2985 C 265.515 4.8015 -0.317675 0
M  V30 2986 C 267.867 5.15949 -0.737956 0
M  V30 2987 C 265.195 5.71772 -1.31506 0
M  V30 2988 C 267.547 6.08647 -1.72429 0
M  V30 2989 C 266.211 6.36277 -2.0176 0
M  V30 2990 H 265.481 0.719949 0.175371 0
M  V30 2991 H 268.128 1.89756 -0.257864 0
M  V30 2992 H 266.433 3.4681 1.82291 0
M  V30 2993 H 268.13 3.71203 1.51689 0
M  V30 2994 H 264.72 4.28128 0.201088 0
M  V30 2995 H 268.904 4.93458 -0.530351 0
M  V30 2996 H 264.16 5.91465 -1.54853 0
M  V30 2997 H 268.334 6.58129 -2.27682 0
M  V30 2998 H 265.961 7.07075 -2.79194 0
M  V30 2999 N 267.536 -0.106894 1.57237 0
M  V30 3000 C 268.947 -0.662723 1.74542 0
M  V30 3001 C 269.298 -1.7971 0.787319 0
M  V30 3002 O 268.423 -2.16368 -0.0369636 0
M  V30 3003 C 269.018 -1.20896 3.16496 0
M  V30 3004 C 267.577 -1.71096 3.35266 0
M  V30 3005 C 266.724 -0.615642 2.7038 0
M  V30 3006 H 269.675 0.119106 1.58252 0
M  V30 3007 H 269.696 -2.07847 3.18716 0
M  V30 3008 H 269.208 -0.383122 3.86204 0
M  V30 3009 H 267.309 -2.56119 2.70618 0
M  V30 3010 H 267.422 -1.81208 4.43509 0
M  V30 3011 H 265.786 -1.05222 2.31949 0
M  V30 3012 H 266.569 0.199419 3.4272 0
M  V30 3013 N 269.014 -1.53014 -0.377408 0
M  V30 3014 C 270.43 -1.42523 -0.718281 0
M  V30 3015 C 270.63 -0.55487 -1.9371 0
M  V30 3016 O 269.686 -0.0327593 -2.52479 0
M  V30 3017 C 270.999 -2.85546 -0.942539 0
M  V30 3018 C 272.547 -2.95101 -1.04329 0
M  V30 3019 C 273.022 -4.3916 -1.3001 0
M  V30 3020 N 274.513 -4.42536 -1.36806 0
M  V30 3021 C 275.248 -5.51097 -1.58364 0
M  V30 3022 N 274.744 -6.69724 -1.77317 0
M  V30 3023 N 276.537 -5.38657 -1.60638 0
M  V30 3024 H 268.688 -2.08116 0.424426 0
M  V30 3025 H 270.951 -0.939352 0.127759 0
M  V30 3026 H 270.657 -3.51499 -0.118929 0
M  V30 3027 H 270.531 -3.28493 -1.85397 0
M  V30 3028 H 272.918 -2.29309 -1.85745 0
M  V30 3029 H 272.999 -2.55566 -0.109505 0
M  V30 3030 H 272.643 -5.05521 -0.490991 0
M  V30 3031 H 272.573 -4.76258 -2.24691 0
M  V30 3032 H 275.064 -3.57039 -1.23821 0
M  V30 3033 H 275.377 -7.48233 -1.93306 0
M  V30 3034 H 273.722 -6.72732 -1.74518 0
M  V30 3035 H 276.913 -4.44948 -1.45391 0
M  V30 3036 H 277.086 -6.2333 -1.77098 0
M  V30 3037 N 270.492 0.636531 -1.44174 0
M  V30 3038 C 271.44 1.76995 -1.50915 0
M  V30 3039 C 272.434 1.65053 -0.381295 0
M  V30 3040 O 273.64 1.71197 -0.55601 0
M  V30 3041 H 270.015 0.584247 -0.473455 0
M  V30 3042 H 271.986 1.68432 -2.4632 0
M  V30 3043 C 270.735 3.15314 -1.46534 0
M  V30 3044 H 270.058 3.25149 -2.32633 0
M  V30 3045 H 271.498 3.9453 -1.55312 0
M  V30 3046 C 269.957 3.3639 -0.185305 0
M  V30 3047 O 270.487 3.94699 0.746688 0
M  V30 3048 N 268.693 2.9046 -0.0901606 0
M  V30 3049 H 268.24 2.43193 -0.849416 0
M  V30 3050 H 268.198 3.04937 0.765553 0
M  V30 3051 N 271.97 1.30982 0.876444 0
M  V30 3052 C 273.195 1.23373 1.66715 0
M  V30 3053 C 273.62 -0.19885 1.87046 0
M  V30 3054 O 272.978 -1.1427 1.40756 0
M  V30 3055 C 273.026 1.97644 3.01611 0
M  V30 3056 O 272.13 1.30935 3.91062 0
M  V30 3057 H 271.471 0.426279 0.509099 0
M  V30 3058 H 274.001 1.72944 1.09323 0
M  V30 3059 H 274.011 2.06992 3.51594 0
M  V30 3060 H 272.686 3.01829 2.86133 0
M  V30 3061 H 271.263 1.29996 3.49507 0
M  V30 3062 N 273.449 -1.08991 1.13837 0
M  V30 3063 C 274.674 -1.85551 0.926585 0
M  V30 3064 C 275.099 -1.80782 -0.519566 0
M  V30 3065 O 274.457 -1.18855 -1.36906 0
M  V30 3066 C 274.505 -3.31266 1.42462 0
M  V30 3067 O 273.609 -4.07822 0.612789 0
M  V30 3068 H 272.95 -0.575192 0.331738 0
M  V30 3069 H 275.48 -1.37604 1.51414 0
M  V30 3070 H 275.49 -3.82112 1.43019 0
M  V30 3071 H 274.165 -3.34052 2.47754 0
M  V30 3072 H 272.742 -3.66731 0.675463 0
M  V30 3073 N 274.927 -0.932562 -1.27047 0
M  V30 3074 C 275.859 -0.392734 -2.2581 0
M  V30 3075 C 276.872 0.479241 -1.55586 0
M  V30 3076 O 278.061 0.291078 -1.76111 0
M  V30 3077 C 275.161 0.455456 -3.35826 0
M  V30 3078 C 274.334 -0.398355 -4.35582 0
M  V30 3079 C 273.393 0.387985 -5.24768 0
M  V30 3080 O 272.419 -0.206003 -5.68827 0
M  V30 3081 N 273.621 1.68664 -5.55457 0
M  V30 3082 H 276.386 -1.24173 -2.72766 0
M  V30 3083 H 273.947 -0.800511 -1.40725 0
M  V30 3084 H 275.939 0.988692 -3.92437 0
M  V30 3085 H 274.509 1.20522 -2.88432 0
M  V30 3086 H 273.729 -1.11286 -3.78165 0
M  V30 3087 H 275.017 -0.981889 -4.99236 0
M  V30 3088 H 274.415 2.19147 -5.21528 0
M  V30 3089 H 272.972 2.1663 -6.14748 0
M  V30 3090 N 276.405 1.4127 -0.698611 0
M  V30 3091 C 277.816 1.84187 -0.305289 0
M  V30 3092 C 278.167 1.58449 1.15708 0
M  V30 3093 O 277.292 1.05651 1.88856 0
M  V30 3094 C 277.887 3.3435 -0.547314 0
M  V30 3095 C 276.446 3.75826 -0.207878 0
M  V30 3096 C 275.593 2.64647 -0.828099 0
M  V30 3097 H 278.544 1.30778 -0.89904 0
M  V30 3098 H 278.565 3.8001 0.192998 0
M  V30 3099 H 278.077 3.53051 -1.61172 0
M  V30 3100 H 276.178 3.62725 0.852143 0
M  V30 3101 H 276.291 4.74462 -0.665021 0
M  V30 3102 H 274.655 2.53395 -0.257458 0
M  V30 3103 H 275.438 2.86165 -1.89643 0
M  V30 3104 N 277.883 0.443576 1.51229 0
M  V30 3105 C 279.131 -0.120557 2.0174 0
M  V30 3106 C 279.452 -1.42665 1.32935 0
M  V30 3107 O 278.722 -1.9028 0.465866 0
M  V30 3108 H 277.302 -0.0475426 0.745486 0
M  V30 3109 H 279.964 0.587711 1.85828 0
M  V30 3110 H 279.06 -0.291972 3.10731 0
M  V30 3111 N 279.361 -1.56624 0.175154 0
M  V30 3112 C 280.607 -1.9729 -0.469506 0
M  V30 3113 C 280.94 -1.06128 -1.62636 0
M  V30 3114 O 280.215 -0.109183 -1.94193 0
M  V30 3115 C 280.498 -3.47375 -0.948804 0
M  V30 3116 C 280.351 -4.49317 0.208491 0
M  V30 3117 C 281.67 -4.00652 -1.82116 0
M  V30 3118 H 278.789 -0.717317 -0.16919 0
M  V30 3119 H 281.431 -1.88184 0.262062 0
M  V30 3120 H 279.581 -3.55267 -1.57219 0
M  V30 3121 H 281.253 -4.53482 0.845682 0
M  V30 3122 H 279.496 -4.25121 0.863395 0
M  V30 3123 H 280.167 -5.51741 -0.169059 0
M  V30 3124 H 282.643 -3.95416 -1.2956 0
M  V30 3125 H 281.519 -5.06075 -2.12554 0
M  V30 3126 H 281.78 -3.44699 -2.7683 0
M  V30 3127 N 280.839 0.0985539 -1.57292 0
M  V30 3128 C 282.085 0.803867 -1.86188 0
M  V30 3129 C 282.418 1.78549 -0.763794 0
M  V30 3130 O 281.693 1.93153 0.22855 0
M  V30 3131 C 281.976 1.53568 -3.25713 0
M  V30 3132 C 281.829 0.572277 -4.46145 0
M  V30 3133 C 283.148 2.48708 -3.63087 0
M  V30 3134 H 280.267 0.290781 -0.677211 0
M  V30 3135 H 282.909 0.0675783 -1.8988 0
M  V30 3136 H 281.059 2.16332 -3.22696 0
M  V30 3137 H 282.731 -0.0480894 -4.61275 0
M  V30 3138 H 280.974 -0.114618 -4.33649 0
M  V30 3139 H 281.645 1.12139 -5.40489 0
M  V30 3140 H 284.121 1.96039 -3.67026 0
M  V30 3141 H 282.997 2.96932 -4.61652 0
M  V30 3142 H 283.258 3.32309 -2.91588 0
M  V30 3143 N 282.317 1.53212 0.369288 0
M  V30 3144 C 283.547 1.72868 1.13139 0
M  V30 3145 C 283.955 0.455754 1.83629 0
M  V30 3146 O 283.298 -0.580861 1.74275 0
M  V30 3147 C 283.36 2.83667 2.20847 0
M  V30 3148 C 283.024 4.24142 1.70155 0
M  V30 3149 C 284.021 5.06619 1.16763 0
M  V30 3150 C 281.706 4.70539 1.7578 0
M  V30 3151 C 283.7 6.33581 0.696678 0
M  V30 3152 C 281.387 5.97481 1.28297 0
M  V30 3153 C 282.385 6.78833 0.753307 0
M  V30 3154 O 282.073 8.03393 0.285475 0
M  V30 3155 H 281.805 0.581707 0.344373 0
M  V30 3156 H 284.359 2.00736 0.435243 0
M  V30 3157 H 282.589 2.51265 2.93944 0
M  V30 3158 H 284.278 2.91536 2.82421 0
M  V30 3159 H 285.044 4.71948 1.11758 0
M  V30 3160 H 280.923 4.07293 2.15949 0
M  V30 3161 H 284.467 6.97027 0.282581 0
M  V30 3162 H 280.364 6.31651 1.32994 0
M  V30 3163 H 281.132 8.17497 0.405145 0
M  V30 3164 N 283.795 -0.628877 1.44509 0
M  V30 3165 C 285.042 -1.38839 1.47411 0
M  V30 3166 C 285.37 -1.94202 0.10757 0
M  V30 3167 O 284.625 -1.74243 -0.890947 0
M  V30 3168 C 284.924 -2.56995 2.48371 0
M  V30 3169 C 284.59 -2.19908 3.93639 0
M  V30 3170 C 283.252 -2.09506 4.33198 0
M  V30 3171 C 285.604 -1.9064 4.85083 0
M  V30 3172 C 282.932 -1.68028 5.62124 0
M  V30 3173 C 285.284 -1.50655 6.14399 0
M  V30 3174 C 283.948 -1.38796 6.5291 0
M  V30 3175 H 283.218 -0.508048 0.539414 0
M  V30 3176 H 285.865 -0.712913 1.77735 0
M  V30 3177 H 284.17 -3.29786 2.11538 0
M  V30 3178 H 285.867 -3.15223 2.47861 0
M  V30 3179 H 282.457 -2.28922 3.62343 0
M  V30 3180 H 286.641 -1.97585 4.55273 0
M  V30 3181 H 281.897 -1.57452 5.90778 0
M  V30 3182 H 286.071 -1.27048 6.84713 0
M  V30 3183 H 283.698 -1.06429 7.52713 0
M  V30 3184 N 285.273 -1.31445 -0.869486 0
M  V30 3185 C 286.236 -1.19094 -1.9583 0
M  V30 3186 C 287.236 -0.117906 -1.60367 0
M  V30 3187 O 288.426 -0.367208 -1.70286 0
M  V30 3188 C 285.558 -0.828165 -3.30688 0
M  V30 3189 H 286.751 -2.15842 -2.08212 0
M  V30 3190 H 284.304 -1.15063 -1.05784 0
M  V30 3191 H 285.039 0.138142 -3.24006 0
M  V30 3192 H 284.824 -1.6038 -3.578 0
M  V30 3193 H 286.314 -0.765658 -4.10521 0
M  V30 3194 N 286.751 1.08385 -1.14413 0
M  V30 3195 C 288.028 1.77429 -0.823297 0
M  V30 3196 C 288.408 1.9974 0.683163 0
M  V30 3197 O 287.756 1.60739 1.62405 0
M  V30 3198 C 287.966 3.09004 -1.62227 0
M  V30 3199 C 289.314 3.83532 -1.82177 0
M  V30 3200 O 290.338 3.18786 -1.58915 0
M  V30 3201 O 289.197 4.99792 -2.21067 0
M  V30 3202 H 286.291 0.769999 -0.301712 0
M  V30 3203 H 288.837 1.14846 -1.24934 0
M  V30 3204 H 287.609 2.88316 -2.64555 0
M  V30 3205 H 287.232 3.79316 -1.19187 0
M  V30 3206 N 288.23 0.939286 1.26551 0
M  V30 3207 C 289.507 0.5038 1.89001 0
M  V30 3208 C 289.887 -1.01854 1.84903 0
M  V30 3209 O 289.235 -1.87773 1.30206 0
M  V30 3210 C 289.445 1.063 3.32417 0
M  V30 3211 C 290.793 1.13051 4.09273 0
M  V30 3212 O 291.817 1.01345 3.41479 0
M  V30 3213 O 290.676 1.31233 5.30509 0
M  V30 3214 H 287.77 0.163897 0.810597 0
M  V30 3215 H 290.316 1.03173 1.34735 0
M  V30 3216 H 289.088 2.10665 3.29752 0
M  V30 3217 H 288.711 0.517408 3.94219 0
M  V30 3218 N 289.708 -1.40897 0.706093 0
M  V30 3219 C 290.985 -1.94868 0.169099 0
M  V30 3220 C 291.365 -1.64485 -1.32318 0
M  V30 3221 O 290.713 -0.95744 -2.07474 0
M  V30 3222 C 290.923 -3.45798 0.471654 0
M  V30 3223 C 292.271 -4.22663 0.405127 0
M  V30 3224 O 293.295 -3.53865 0.407168 0
M  V30 3225 O 292.154 -5.45216 0.374383 0
M  V30 3226 H 289.248 -0.82673 0.0211352 0
M  V30 3227 H 291.794 -1.50558 0.782976 0
M  V30 3228 H 290.566 -3.61235 1.50416 0
M  V30 3229 H 290.189 -3.97225 -0.172666 0
M  V30 3230 N 291.186 -0.45159 -1.50991 0
M  V30 3231 C 292.134 0.366864 -2.29689 0
M  V30 3232 C 293.128 1.00809 -1.36139 0
M  V30 3233 O 294.334 0.941427 -1.53418 0
M  V30 3234 H 290.709 0.137133 -0.739391 0
M  V30 3235 H 292.68 -0.317538 -2.96706 0
M  V30 3236 C 291.429 1.44751 -3.16137 0
M  V30 3237 H 290.752 0.963473 -3.88017 0
M  V30 3238 H 292.192 1.99315 -3.74232 0
M  V30 3239 C 290.651 2.43869 -2.32442 0
M  V30 3240 O 291.181 3.4872 -1.99392 0
M  V30 3241 N 289.387 2.15105 -1.95392 0
M  V30 3242 H 288.934 1.29866 -2.22469 0
M  V30 3243 H 288.892 2.81661 -1.39693 0
M  V30 3244 N 292.664 1.56529 -0.183458 0
M  V30 3245 C 293.892 2.01623 0.464285 0
M  V30 3246 C 294.307 1.06366 1.55986 0
M  V30 3247 O 293.664 0.0665398 1.82379 0
M  V30 3248 C 293.715 3.46475 1.03139 0
M  V30 3249 O 293.436 4.38095 -0.0204675 0
M  V30 3250 C 294.937 4.0703 1.75617 0
M  V30 3251 H 292.157 0.660596 0.117704 0
M  V30 3252 H 294.701 2.02451 -0.288751 0
M  V30 3253 H 292.856 3.46383 1.73486 0
M  V30 3254 H 293.27 5.22973 0.399952 0
M  V30 3255 H 294.744 5.10271 2.10542 0
M  V30 3256 H 295.221 3.49819 2.65563 0
M  V30 3257 H 295.827 4.1086 1.09882 0
M  V30 3258 N 294.142 -0.090211 1.57342 0
M  V30 3259 C 295.372 -0.805055 1.90269 0
M  V30 3260 C 295.78 -1.72561 0.775842 0
M  V30 3261 O 295.123 -1.81839 -0.260843 0
M  V30 3262 C 295.185 -1.66734 3.18497 0
M  V30 3263 C 294.849 -0.918092 4.47683 0
M  V30 3264 C 295.846 -0.245674 5.19319 0
M  V30 3265 C 293.531 -0.890724 4.94339 0
M  V30 3266 C 295.525 0.444088 6.35851 0
M  V30 3267 C 293.212 -0.197179 6.10782 0
M  V30 3268 C 294.21 0.469044 6.81388 0
M  V30 3269 O 293.898 1.15146 7.95611 0
M  V30 3270 H 293.63 -0.235143 0.633785 0
M  V30 3271 H 296.184 -0.0703805 2.05279 0
M  V30 3272 H 294.414 -2.44437 2.99646 0
M  V30 3273 H 296.103 -2.25919 3.37217 0
M  V30 3274 H 296.869 -0.258246 4.84312 0
M  V30 3275 H 292.748 -1.39873 4.39268 0
M  V30 3276 H 296.292 0.964667 6.90898 0
M  V30 3277 H 292.189 -0.18247 6.45242 0
M  V30 3278 H 292.957 1.05885 8.11622 0
M  V30 3279 N 295.62 -1.53406 -0.361157 0
M  V30 3280 C 296.845 -1.74024 -1.12829 0
M  V30 3281 C 297.27 -0.470069 -1.82132 0
M  V30 3282 O 296.628 0.57619 -1.719 0
M  V30 3283 C 296.676 -2.90903 -2.13091 0
M  V30 3284 O 295.78 -2.59821 -3.20261 0
M  V30 3285 H 295.121 -0.577804 -0.327168 0
M  V30 3286 H 297.651 -2.00307 -0.41693 0
M  V30 3287 H 297.661 -3.17194 -2.56616 0
M  V30 3288 H 296.336 -3.83034 -1.62042 0
M  V30 3289 H 294.913 -2.44362 -2.81677 0
M  V30 3290 N 297.098 0.621204 -1.44841 0
M  V30 3291 C 298.028 1.74366 -1.55303 0
M  V30 3292 C 299.009 1.65199 -0.405385 0
M  V30 3293 O 300.194 1.83807 -0.626787 0
M  V30 3294 C 297.324 3.12931 -1.50637 0
M  V30 3295 C 296.278 3.36896 -2.63979 0
M  V30 3296 C 295.604 4.75594 -2.44366 0
M  V30 3297 C 296.904 3.28483 -4.06074 0
M  V30 3298 H 298.598 1.65867 -2.49256 0
M  V30 3299 H 296.144 0.796558 -1.19962 0
M  V30 3300 H 298.097 3.9124 -1.56555 0
M  V30 3301 H 296.821 3.22237 -0.532057 0
M  V30 3302 H 295.48 2.60972 -2.57467 0
M  V30 3303 H 295.128 4.81616 -1.45105 0
M  V30 3304 H 294.828 4.92586 -3.20364 0
M  V30 3305 H 296.352 5.5612 -2.52117 0
M  V30 3306 H 297.766 3.96684 -4.13902 0
M  V30 3307 H 296.163 3.57008 -4.82354 0
M  V30 3308 H 297.233 2.26133 -4.28943 0
M  V30 3309 N 298.576 1.31904 0.862503 0
M  V30 3310 C 299.486 1.22161 2.00285 0
M  V30 3311 C 300.502 0.136785 1.73462 0
M  V30 3312 O 301.678 0.355994 1.98229 0
M  V30 3313 C 298.743 0.937093 3.33796 0
M  V30 3314 C 297.804 2.10957 3.73893 0
M  V30 3315 C 297.037 1.83853 5.01033 0
M  V30 3316 O 297.26 0.777274 5.65079 0
M  V30 3317 O 296.194 2.69741 5.38074 0
M  V30 3318 H 300.02 2.18008 2.11439 0
M  V30 3319 H 297.605 1.11716 0.991957 0
M  V30 3320 H 299.487 0.794583 4.13841 0
M  V30 3321 H 298.162 0.00871894 3.23699 0
M  V30 3322 H 297.069 2.30752 2.94456 0
M  V30 3323 H 298.402 3.02046 3.88625 0
M  V30 3324 N 300.054 -1.07777 1.14986 0
M  V30 3325 C 300.984 -2.16865 0.865557 0
M  V30 3326 C 301.965 -1.69123 -0.182083 0
M  V30 3327 O 303.15 -1.94164 -0.0373815 0
M  V30 3328 C 300.28 -3.45539 0.349313 0
M  V30 3329 C 299.234 -4.06708 1.33313 0
M  V30 3330 C 298.56 -5.30411 0.675918 0
M  V30 3331 C 299.86 -4.47241 2.69764 0
M  V30 3332 H 301.554 -2.40905 1.77778 0
M  V30 3333 H 299.1 -1.15781 0.856203 0
M  V30 3334 H 301.053 -4.21174 0.137983 0
M  V30 3335 H 299.777 -3.21072 -0.598362 0
M  V30 3336 H 298.436 -3.33112 1.53075 0
M  V30 3337 H 298.084 -5.02232 -0.277767 0
M  V30 3338 H 297.784 -5.72293 1.33244 0
M  V30 3339 H 299.308 -6.08755 0.474262 0
M  V30 3340 H 300.722 -5.14025 2.53873 0
M  V30 3341 H 299.119 -5.00062 3.3175 0
M  V30 3342 H 300.189 -3.58818 3.26156 0
M  V30 3343 N 301.532 -0.945985 -1.26051 0
M  V30 3344 C 302.779 -0.596118 -1.93527 0
M  V30 3345 C 303.107 0.865559 -1.74179 0
M  V30 3346 O 302.362 1.63524 -1.0751 0
M  V30 3347 C 302.661 -0.890475 -3.46129 0
M  V30 3348 C 302.327 -2.3368 -3.85622 0
M  V30 3349 C 300.989 -2.73216 -3.96114 0
M  V30 3350 C 303.341 -3.27648 -4.05334 0
M  V30 3351 C 300.669 -4.05806 -4.2372 0
M  V30 3352 C 303.021 -4.59841 -4.3443 0
M  V30 3353 C 301.685 -4.99185 -4.43137 0
M  V30 3354 H 300.955 -0.218135 -0.708165 0
M  V30 3355 H 303.602 -1.1934 -1.49768 0
M  V30 3356 H 301.907 -0.210711 -3.91233 0
M  V30 3357 H 303.604 -0.598478 -3.96509 0
M  V30 3358 H 300.194 -2.02015 -3.78005 0
M  V30 3359 H 304.378 -2.98298 -3.96651 0
M  V30 3360 H 299.634 -4.35945 -4.28675 0
M  V30 3361 H 303.808 -5.32641 -4.48628 0
M  V30 3362 H 301.435 -6.01952 -4.64282 0
M  V30 3363 N 303.011 1.40521 -0.713556 0
M  V30 3364 C 303.921 2.34522 -0.0606667 0
M  V30 3365 C 304.937 1.57193 0.74607 0
M  V30 3366 O 306.113 1.89591 0.679493 0
M  V30 3367 C 303.178 3.36081 0.851491 0
M  V30 3368 C 302.239 4.29286 0.0349339 0
M  V30 3369 C 301.472 5.25994 0.903649 0
M  V30 3370 O 301.695 5.28616 2.14292 0
M  V30 3371 O 300.629 6.00918 0.343723 0
M  V30 3372 H 304.455 2.91968 -0.835972 0
M  V30 3373 H 302.04 1.41681 -0.47402 0
M  V30 3374 H 303.922 3.98369 1.37404 0
M  V30 3375 H 302.597 2.81052 1.60598 0
M  V30 3376 H 301.504 3.70289 -0.532633 0
M  V30 3377 H 302.837 4.87462 -0.681287 0
M  V30 3378 N 304.489 0.459591 1.5075 0
M  V30 3379 C 305.399 -0.34613 2.32033 0
M  V30 3380 C 306.415 -1.00686 1.41909 0
M  V30 3381 O 307.591 -0.997361 1.7497 0
M  V30 3382 C 304.656 -1.42029 3.16273 0
M  V30 3383 C 303.717 -0.777362 4.22203 0
M  V30 3384 C 302.95 -1.80034 5.02418 0
M  V30 3385 O 303.173 -3.02544 4.83553 0
M  V30 3386 O 302.107 -1.37853 5.85901 0
M  V30 3387 H 305.933 0.318054 3.0203 0
M  V30 3388 H 303.518 0.221663 1.47746 0
M  V30 3389 H 305.4 -2.04275 3.68578 0
M  V30 3390 H 304.075 -2.06815 2.49016 0
M  V30 3391 H 302.982 -0.116256 3.73919 0
M  V30 3392 H 304.315 -0.172634 4.91897 0
M  V30 3393 N 305.967 -1.56429 0.191757 0
M  V30 3394 C 306.9 -2.14829 -0.76967 0
M  V30 3395 C 307.878 -1.08405 -1.2119 0
M  V30 3396 O 309.062 -1.36498 -1.30002 0
M  V30 3397 C 306.189 -2.70446 -2.03903 0
M  V30 3398 C 305.235 -3.89428 -1.7392 0
M  V30 3399 S 306.068 -5.28048 -0.890265 0
M  V30 3400 C 307.224 -5.87085 -2.16984 0
M  V30 3401 H 307.457 -2.96042 -0.273204 0
M  V30 3402 H 304.99 -1.54383 -0.0231975 0
M  V30 3403 H 306.948 -3.03134 -2.76803 0
M  V30 3404 H 305.609 -1.89281 -2.50662 0
M  V30 3405 H 304.802 -4.26742 -2.68155 0
M  V30 3406 H 304.404 -3.57732 -1.09103 0
M  V30 3407 H 306.696 -6.01244 -3.12269 0
M  V30 3408 H 307.639 -6.83747 -1.84108 0
M  V30 3409 H 308.047 -5.15663 -2.29678 0
M  V30 3410 N 307.445 0.0818655 -1.57387 0
M  V30 3411 C 308.861 0.436412 -1.53517 0
M  V30 3412 C 309.061 1.79758 -0.910459 0
M  V30 3413 O 308.117 2.47324 -0.508636 0
M  V30 3414 C 309.43 0.386734 -2.98203 0
M  V30 3415 C 310.978 0.467644 -3.09487 0
M  V30 3416 C 311.453 0.447978 -4.55804 0
M  V30 3417 N 312.944 0.508348 -4.60402 0
M  V30 3418 C 313.679 0.515184 -5.71081 0
M  V30 3419 N 313.175 0.477435 -6.91153 0
M  V30 3420 N 314.968 0.560988 -5.59294 0
M  V30 3421 H 307.119 -0.809546 -1.96367 0
M  V30 3422 H 309.382 -0.302733 -0.898363 0
M  V30 3423 H 309.088 -0.546539 -3.47427 0
M  V30 3424 H 308.962 1.20075 -3.57578 0
M  V30 3425 H 311.349 1.39134 -2.60242 0
M  V30 3426 H 311.43 -0.374753 -2.5304 0
M  V30 3427 H 311.074 -0.471826 -5.05704 0
M  V30 3428 H 311.004 1.30777 -5.10103 0
M  V30 3429 H 313.495 0.54218 -3.7399 0
M  V30 3430 H 313.808 0.486299 -7.71268 0
M  V30 3431 H 312.153 0.444278 -6.93579 0
M  V30 3432 H 315.344 0.5881 -4.64391 0
M  V30 3433 H 315.517 0.562846 -6.45551 0
M  V30 3434 N 308.923 1.53595 0.353017 0
M  V30 3435 C 310.148 1.7462 1.11904 0
M  V30 3436 C 310.573 0.479721 1.8188 0
M  V30 3437 O 309.931 -0.567066 1.72204 0
M  V30 3438 C 309.979 2.92029 2.11545 0
M  V30 3439 O 309.083 2.61516 3.18878 0
M  V30 3440 H 308.424 0.579531 0.324099 0
M  V30 3441 H 310.954 2.00525 0.406301 0
M  V30 3442 H 310.964 3.18551 2.5493 0
M  V30 3443 H 309.639 3.83888 1.60008 0
M  V30 3444 H 308.216 2.45852 2.80377 0
M  V30 3445 N 310.401 -0.613514 1.45168 0
M  V30 3446 C 311.629 -1.39946 1.5239 0
M  V30 3447 C 312.044 -1.88167 0.154531 0
M  V30 3448 O 311.401 -1.61872 -0.842843 0
M  V30 3449 C 311.452 -2.60795 2.50337 0
M  V30 3450 O 311.173 -2.1458 3.81952 0
M  V30 3451 C 312.674 -3.53723 2.67198 0
M  V30 3452 H 309.894 -0.428593 0.516284 0
M  V30 3453 H 312.438 -0.748753 1.903 0
M  V30 3454 H 310.593 -3.21919 2.15515 0
M  V30 3455 H 311.007 -2.93055 4.34993 0
M  V30 3456 H 312.481 -4.35079 3.39721 0
M  V30 3457 H 312.958 -4.0368 1.73029 0
M  V30 3458 H 313.564 -2.98456 3.02992 0
M  V30 3459 N 311.879 -1.3236 -0.855495 0
M  V30 3460 C 313.295 -1.11332 -1.14356 0
M  V30 3461 C 313.495 0.106751 -2.01217 0
M  V30 3462 O 312.551 0.791891 -2.39761 0
M  V30 3463 C 313.864 -2.39237 -1.82171 0
M  V30 3464 C 315.412 -2.44986 -1.9481 0
M  V30 3465 C 315.887 -3.7281 -2.66039 0
M  V30 3466 N 317.378 -3.73787 -2.73565 0
M  V30 3467 C 318.113 -4.69394 -3.29327 0
M  V30 3468 N 317.609 -5.75367 -3.85907 0
M  V30 3469 N 319.402 -4.56893 -3.27423 0
M  V30 3470 H 311.553 -2.10586 -0.277027 0
M  V30 3471 H 313.816 -0.929701 -0.185364 0
M  V30 3472 H 313.522 -3.28431 -1.25802 0
M  V30 3473 H 313.396 -2.50134 -2.82335 0
M  V30 3474 H 315.783 -1.56252 -2.50338 0
M  V30 3475 H 315.864 -2.38043 -0.936448 0
M  V30 3476 H 315.508 -4.61918 -2.11174 0
M  V30 3477 H 315.438 -3.77024 -3.67642 0
M  V30 3478 H 317.929 -2.97189 -2.33424 0
M  V30 3479 H 318.242 -6.44378 -4.26611 0
M  V30 3480 H 316.587 -5.79123 -3.84242 0
M  V30 3481 H 319.778 -3.73269 -2.82467 0
M  V30 3482 H 319.951 -5.31577 -3.7058 0
M  V30 3483 N 313.357 1.07166 -1.15556 0
M  V30 3484 C 314.773 1.31899 -0.898603 0
M  V30 3485 C 314.973 1.96333 0.453383 0
M  V30 3486 O 314.029 2.22438 1.19489 0
M  V30 3487 C 315.342 2.20826 -2.04099 0
M  V30 3488 C 316.89 2.34269 -2.07574 0
M  V30 3489 C 317.365 3.26546 -3.21141 0
M  V30 3490 N 318.856 3.34127 -3.20801 0
M  V30 3491 C 319.591 4.05595 -4.05315 0
M  V30 3492 N 319.087 4.79661 -4.99897 0
M  V30 3493 N 320.88 4.01555 -3.93332 0
M  V30 3494 H 313.031 0.637302 -2.02613 0
M  V30 3495 H 315.294 0.343468 -0.883591 0
M  V30 3496 H 315 1.80744 -3.01703 0
M  V30 3497 H 314.874 3.21364 -1.97496 0
M  V30 3498 H 317.261 2.73603 -1.10568 0
M  V30 3499 H 317.342 1.33429 -2.18244 0
M  V30 3500 H 316.986 2.87931 -4.184 0
M  V30 3501 H 316.916 4.27345 -3.07708 0
M  V30 3502 H 319.407 2.81336 -2.52306 0
M  V30 3503 H 319.72 5.31694 -5.60822 0
M  V30 3504 H 318.065 4.78671 -5.03884 0
M  V30 3505 H 321.256 3.42806 -3.18751 0
M  V30 3506 H 321.429 4.56987 -4.5942 0
M  V30 3507 N 314.835 0.952656 1.25548 0
M  V30 3508 C 316.081 0.607272 1.93494 0
M  V30 3509 C 316.414 -0.853245 1.74452 0
M  V30 3510 O 315.689 -1.61194 1.08843 0
M  V30 3511 C 315.972 0.96435 3.46947 0
M  V30 3512 C 315.825 2.48045 3.75225 0
M  V30 3513 C 317.144 0.487987 4.37386 0
M  V30 3514 H 314.263 0.222096 0.702739 0
M  V30 3515 H 316.905 1.18895 1.48203 0
M  V30 3516 H 315.055 0.469361 3.85654 0
M  V30 3517 H 316.727 3.04905 3.46166 0
M  V30 3518 H 314.97 2.919 3.209 0
M  V30 3519 H 315.641 2.6808 4.82532 0
M  V30 3520 H 318.117 0.912558 4.0597 0
M  V30 3521 H 316.993 0.766547 5.43521 0
M  V30 3522 H 317.254 -0.612063 4.37843 0
M  V30 3523 N 316.313 -1.40141 0.720998 0
M  V30 3524 C 317.538 -2.05618 0.271258 0
M  V30 3525 C 317.963 -1.53978 -1.08039 0
M  V30 3526 O 317.321 -0.677463 -1.68167 0
M  V30 3527 C 317.369 -3.59609 0.267197 0
M  V30 3528 O 316.473 -4.05526 -0.749814 0
M  V30 3529 H 315.814 -0.651904 0.126162 0
M  V30 3530 H 318.344 -1.79439 0.982997 0
M  V30 3531 H 318.354 -4.0786 0.106744 0
M  V30 3532 H 317.029 -3.96559 1.25354 0
M  V30 3533 H 315.606 -3.68722 -0.556644 0
M  V30 3534 N 317.792 -0.46758 -1.50504 0
M  V30 3535 C 319.038 0.0887532 -2.02606 0
M  V30 3536 C 319.371 1.39686 -1.34913 0
M  V30 3537 O 318.646 1.88644 -0.473694 0
M  V30 3538 C 318.929 0.276206 -3.59039 0
M  V30 3539 C 318.782 -1.05267 -4.37309 0
M  V30 3540 C 320.101 1.03235 -4.27821 0
M  V30 3541 H 317.22 0.0307814 -0.736357 0
M  V30 3542 H 319.862 -0.612485 -1.79857 0
M  V30 3543 H 318.012 0.8735 -3.78553 0
M  V30 3544 H 319.684 -1.68628 -4.29374 0
M  V30 3545 H 317.927 -1.65015 -4.01189 0
M  V30 3546 H 318.598 -0.875197 -5.45018 0
M  V30 3547 H 321.074 0.526111 -4.12761 0
M  V30 3548 H 319.95 1.1323 -5.37094 0
M  V30 3549 H 320.211 2.06806 -3.90748 0
M  V30 3550 N 319.27 1.56325 -0.20005 0
M  V30 3551 C 320.516 1.98772 0.431408 0
M  V30 3552 C 320.871 1.0849 1.58895 0
M  V30 3553 O 320.164 0.130331 1.91156 0
M  V30 3554 C 320.358 3.4495 0.935103 0
M  V30 3555 C 320.187 4.49371 -0.172096 0
M  V30 3556 C 318.957 5.0134 -0.631377 0
M  V30 3557 C 321.155 5.04822 -0.982806 0
M  V30 3558 N 319.137 5.89433 -1.71588 0
M  V30 3559 C 320.508 5.89632 -1.91661 0
M  V30 3560 C 322.563 4.87242 -1.02467 0
M  V30 3561 C 321.266 6.58741 -2.88881 0
M  V30 3562 C 323.292 5.57094 -1.98494 0
M  V30 3563 C 322.654 6.41655 -2.90617 0
M  V30 3564 H 318.753 0.771922 0.125144 0
M  V30 3565 H 321.337 1.92266 -0.306883 0
M  V30 3566 H 319.508 3.51946 1.64282 0
M  V30 3567 H 321.24 3.74354 1.53758 0
M  V30 3568 H 317.995 4.73071 -0.223827 0
M  V30 3569 H 318.419 6.38182 -2.25948 0
M  V30 3570 H 323.061 4.21538 -0.326408 0
M  V30 3571 H 320.779 7.23641 -3.5968 0
M  V30 3572 H 324.365 5.45466 -2.0238 0
M  V30 3573 H 323.245 6.94755 -3.63711 0
M  V30 3574 N 320.748 -0.0735177 1.57428 0
M  V30 3575 C 322.159 -0.625551 1.75908 0
M  V30 3576 C 322.51 -1.78 0.825261 0
M  V30 3577 O 321.635 -2.16398 0.00893964 0
M  V30 3578 C 322.23 -1.14155 3.18989 0
M  V30 3579 C 320.789 -1.63946 3.38819 0
M  V30 3580 C 319.936 -0.558151 2.71625 0
M  V30 3581 H 322.887 0.152647 1.57964 0
M  V30 3582 H 322.908 -2.0104 3.23053 0
M  V30 3583 H 322.42 -0.301116 3.8693 0
M  V30 3584 H 320.521 -2.50321 2.7599 0
M  V30 3585 H 320.634 -1.71759 4.47253 0
M  V30 3586 H 318.998 -1.00278 2.34129 0
M  V30 3587 H 319.781 0.272071 3.4222 0
M  V30 3588 N 322.226 -1.5378 -0.344866 0
M  V30 3589 C 323.472 -1.71216 -1.08687 0
M  V30 3590 C 323.805 -0.473281 -1.88345 0
M  V30 3591 O 323.08 0.52968 -1.87149 0
M  V30 3592 C 323.363 -2.97486 -2.02914 0
M  V30 3593 C 323.216 -4.31579 -1.26727 0
M  V30 3594 C 324.535 -3.19422 -3.0275 0
M  V30 3595 H 321.654 -0.62301 -0.393735 0
M  V30 3596 H 324.296 -1.8645 -0.365563 0
M  V30 3597 H 322.446 -2.84629 -2.64421 0
M  V30 3598 H 324.118 -4.56284 -0.67845 0
M  V30 3599 H 322.361 -4.30049 -0.569273 0
M  V30 3600 H 323.032 -5.16106 -1.95803 0
M  V30 3601 H 325.508 -3.316 -2.51357 0
M  V30 3602 H 324.384 -4.09169 -3.65885 0
M  V30 3603 H 324.645 -2.35656 -3.74057 0
M  V30 3604 N 323.704 0.605807 -1.45491 0
M  V30 3605 C 324.667 1.69836 -1.5391 0
M  V30 3606 C 325.667 1.55261 -0.418424 0
M  V30 3607 O 326.857 1.60296 -0.681965 0
M  V30 3608 C 323.989 3.09117 -1.43734 0
M  V30 3609 H 325.182 1.63738 -2.51257 0
M  V30 3610 H 322.735 0.821689 -1.32959 0
M  V30 3611 H 323.47 3.20791 -0.475788 0
M  V30 3612 H 323.255 3.21104 -2.25021 0
M  V30 3613 H 324.745 3.88696 -1.52661 0
M  V30 3614 N 325.182 1.32811 0.848464 0
M  V30 3615 C 326.429 1.23724 1.60308 0
M  V30 3616 C 326.757 -0.1994 1.93475 0
M  V30 3617 O 326.012 -1.15406 1.5805 0
M  V30 3618 C 326.311 2.04831 2.92881 0
M  V30 3619 C 325.977 3.54125 2.79117 0
M  V30 3620 C 324.639 3.94829 2.7507 0
M  V30 3621 C 326.991 4.49036 2.64606 0
M  V30 3622 C 324.319 5.28675 2.544 0
M  V30 3623 C 326.671 5.83033 2.4547 0
M  V30 3624 C 325.335 6.22931 2.39819 0
M  V30 3625 H 324.605 0.452737 0.586609 0
M  V30 3626 H 327.252 1.64301 0.983743 0
M  V30 3627 H 325.557 1.57001 3.58968 0
M  V30 3628 H 327.254 1.95164 3.50303 0
M  V30 3629 H 323.844 3.21801 2.83094 0
M  V30 3630 H 328.028 4.18505 2.66772 0
M  V30 3631 H 323.284 5.58637 2.48465 0
M  V30 3632 H 327.458 6.56186 2.33222 0
M  V30 3633 H 325.085 7.26584 2.23562 0
M  V30 3634 N 326.66 -1.06551 1.16123 0
M  V30 3635 C 327.906 -1.79567 0.94252 0
M  V30 3636 C 328.239 -1.86869 -0.528547 0
M  V30 3637 O 327.514 -1.35838 -1.39206 0
M  V30 3638 C 327.797 -3.24195 1.56747 0
M  V30 3639 C 327.65 -3.24989 3.10969 0
M  V30 3640 C 328.969 -4.21678 1.25998 0
M  V30 3641 H 326.088 -0.651883 0.343828 0
M  V30 3642 H 328.73 -1.2463 1.43413 0
M  V30 3643 H 326.88 -3.71107 1.14942 0
M  V30 3644 H 328.552 -2.86258 3.61737 0
M  V30 3645 H 326.795 -2.63716 3.44436 0
M  V30 3646 H 327.466 -4.27005 3.49815 0
M  V30 3647 H 329.942 -3.83196 1.62174 0
M  V30 3648 H 328.818 -5.21146 1.7233 0
M  V30 3649 H 329.079 -4.4174 0.178367 0
M  V30 3650 N 328.138 -0.959301 -1.25041 0
M  V30 3651 C 329.386 -0.615393 -1.92503 0
M  V30 3652 C 329.707 0.850969 -1.75452 0
M  V30 3653 O 328.977 1.60658 -1.12098 0
M  V30 3654 H 327.557 -0.224613 -0.712431 0
M  V30 3655 H 330.219 -1.21855 -1.5211 0
M  V30 3656 H 329.315 -0.848738 -3.00338 0
M  V30 3657 N 329.616 1.39756 -0.72842 0
M  V30 3658 C 330.864 2.00248 -0.272946 0
M  V30 3659 C 331.185 1.58077 1.14178 0
M  V30 3660 O 330.455 0.826014 1.77634 0
M  V30 3661 H 329.035 0.740554 -0.0979247 0
M  V30 3662 H 331.697 1.70903 -0.936912 0
M  V30 3663 H 330.793 3.10495 -0.316142 0
M  V30 3664 N 331.094 0.475555 1.50254 0
M  V30 3665 C 332.024 -0.30611 2.31485 0
M  V30 3666 C 333.005 -0.986228 1.38591 0
M  V30 3667 O 334.19 -0.982541 1.67511 0
M  V30 3668 C 331.32 -1.38588 3.1845 0
M  V30 3669 C 330.274 -0.827115 4.19932 0
M  V30 3670 C 329.6 -2.00551 4.95665 0
M  V30 3671 C 330.9 0.16463 5.2204 0
M  V30 3672 H 332.594 0.371866 2.97082 0
M  V30 3673 H 330.14 0.180282 1.42867 0
M  V30 3674 H 332.093 -1.94023 3.74076 0
M  V30 3675 H 330.817 -2.09269 2.50747 0
M  V30 3676 H 329.476 -0.294702 3.65414 0
M  V30 3677 H 329.124 -2.6994 4.2443 0
M  V30 3678 H 328.824 -1.63784 5.64313 0
M  V30 3679 H 330.348 -2.56468 5.54127 0
M  V30 3680 H 331.762 -0.300699 5.72511 0
M  V30 3681 H 330.159 0.446813 5.98434 0
M  V30 3682 H 331.229 1.08905 4.72512 0
M  V30 3683 N 332.573 -1.56217 0.208337 0
M  V30 3684 C 333.989 -1.58919 -0.14729 0
M  V30 3685 C 334.189 -1.22486 -1.59998 0
M  V30 3686 O 333.245 -0.953849 -2.3379 0
M  V30 3687 C 334.558 -3.00236 0.167048 0
M  V30 3688 C 336.106 -3.12813 0.108219 0
M  V30 3689 C 336.581 -4.56284 0.396049 0
M  V30 3690 N 338.072 -4.61912 0.345142 0
M  V30 3691 C 338.807 -5.70837 0.541523 0
M  V30 3692 N 338.303 -6.88178 0.798968 0
M  V30 3693 N 340.096 -5.60091 0.474867 0
M  V30 3694 H 332.247 -1.78177 1.15614 0
M  V30 3695 H 334.51 -0.827555 0.462446 0
M  V30 3696 H 334.216 -3.31499 1.1748 0
M  V30 3697 H 334.09 -3.7354 -0.524184 0
M  V30 3698 H 336.477 -2.81354 -0.890157 0
M  V30 3699 H 336.558 -2.41866 0.832729 0
M  V30 3700 H 336.202 -4.88458 1.3918 0
M  V30 3701 H 336.132 -5.25439 -0.349502 0
M  V30 3702 H 338.623 -3.77589 0.153316 0
M  V30 3703 H 338.936 -7.67095 0.93727 0
M  V30 3704 H 337.281 -6.89953 0.836013 0
M  V30 3705 H 340.472 -4.67297 0.274064 0
M  V30 3706 H 340.645 -6.44917 0.631326 0
M  V30 3707 N 334.051 0.0651679 -1.57465 0
M  V30 3708 C 335.281 0.774683 -1.91526 0
M  V30 3709 C 335.689 1.71305 -0.803196 0
M  V30 3710 O 335.032 1.82231 0.231881 0
M  V30 3711 C 335.094 1.61645 -3.21109 0
M  V30 3712 C 334.758 0.846753 -4.49087 0
M  V30 3713 C 335.755 0.163024 -5.19644 0
M  V30 3714 C 333.44 0.811966 -4.95694 0
M  V30 3715 C 335.434 -0.54519 -6.35064 0
M  V30 3716 C 333.121 0.0999836 -6.11018 0
M  V30 3717 C 334.119 -0.577388 -6.80555 0
M  V30 3718 O 333.807 -1.27789 -7.93678 0
M  V30 3719 H 333.539 0.225031 -0.637446 0
M  V30 3720 H 336.093 0.0377134 -2.05365 0
M  V30 3721 H 334.323 2.39638 -3.03497 0
M  V30 3722 H 336.012 2.20525 -3.40769 0
M  V30 3723 H 336.778 0.181163 -4.84662 0
M  V30 3724 H 332.657 1.32867 -4.41438 0
M  V30 3725 H 336.201 -1.07446 -6.89276 0
M  V30 3726 H 332.098 0.0797945 -6.45451 0
M  V30 3727 H 332.866 -1.18784 -8.09835 0
M  V30 3728 N 335.529 1.53961 0.336706 0
M  V30 3729 C 336.439 1.85432 1.43708 0
M  V30 3730 C 337.455 0.745053 1.57242 0
M  V30 3731 O 338.631 1.03804 1.72588 0
M  V30 3732 C 335.696 2.06349 2.78605 0
M  V30 3733 C 334.757 3.30191 2.74358 0
M  V30 3734 C 333.99 3.50101 4.02822 0
M  V30 3735 O 334.213 2.7371 5.00439 0
M  V30 3736 O 333.147 4.43547 4.06878 0
M  V30 3737 H 336.973 2.78975 1.20028 0
M  V30 3738 H 334.558 1.39701 0.52952 0
M  V30 3739 H 336.44 2.21513 3.58483 0
M  V30 3740 H 335.115 1.15995 3.02203 0
M  V30 3741 H 334.022 3.20425 1.93078 0
M  V30 3742 H 335.355 4.2056 2.55715 0
M  V30 3743 N 337.007 -0.598083 1.45811 0
M  V30 3744 C 337.97 -1.69018 1.54808 0
M  V30 3745 C 338.97 -1.55037 0.426652 0
M  V30 3746 O 340.16 -1.59932 0.690456 0
M  V30 3747 C 337.292 -3.0835 1.45371 0
M  V30 3748 H 338.485 -1.62403 2.52121 0
M  V30 3749 H 336.038 -0.814626 1.33392 0
M  V30 3750 H 336.773 -3.20534 0.492793 0
M  V30 3751 H 336.558 -3.19907 2.26721 0
M  V30 3752 H 338.048 -3.8788 1.54721 0
M  V30 3753 N 338.485 -1.33259 -0.841409 0
M  V30 3754 C 339.896 -1.22066 -1.41269 0
M  V30 3755 C 340.247 0.161479 -1.95534 0
M  V30 3756 O 339.372 1.06094 -1.88608 0
M  V30 3757 C 339.967 -2.20996 -2.568 0
M  V30 3758 C 338.526 -2.13649 -3.09888 0
M  V30 3759 C 337.673 -2.08623 -1.82679 0
M  V30 3760 H 340.624 -1.44895 -0.647395 0
M  V30 3761 H 340.645 -1.81621 -3.34356 0
M  V30 3762 H 340.157 -3.2158 -2.17274 0
M  V30 3763 H 338.258 -1.16359 -3.53965 0
M  V30 3764 H 338.371 -3.04079 -3.70234 0
M  V30 3765 H 336.735 -1.54061 -2.02824 0
M  V30 3766 H 337.518 -3.1101 -1.45353 0
M  V30 3767 N 339.963 1.05934 -1.16686 0
M  V30 3768 C 341.379 1.30938 -0.912542 0
M  V30 3769 C 341.579 1.96803 0.432533 0
M  V30 3770 O 340.635 2.23693 1.17123 0
M  V30 3771 C 341.948 2.18649 -2.06429 0
M  V30 3772 C 343.496 2.32055 -2.10047 0
M  V30 3773 C 343.971 3.23122 -3.24586 0
M  V30 3774 N 345.462 3.30706 -3.24327 0
M  V30 3775 C 346.197 4.01273 -4.09594 0
M  V30 3776 N 345.693 4.74332 -5.04956 0
M  V30 3777 N 347.486 3.97361 -3.97569 0
M  V30 3778 H 339.637 0.615777 -2.03278 0
M  V30 3779 H 341.9 0.334077 -0.887185 0
M  V30 3780 H 341.606 1.77534 -3.03603 0
M  V30 3781 H 341.48 3.19252 -2.00894 0
M  V30 3782 H 343.867 2.72415 -1.13464 0
M  V30 3783 H 343.948 1.31107 -2.19647 0
M  V30 3784 H 343.592 2.83477 -4.2143 0
M  V30 3785 H 343.522 4.24057 -3.12223 0
M  V30 3786 H 346.013 2.78644 -2.55276 0
M  V30 3787 H 346.326 5.25716 -5.6643 0
M  V30 3788 H 344.671 4.733 -5.08933 0
M  V30 3789 H 347.862 3.39405 -3.22369 0
M  V30 3790 H 348.035 4.52089 -4.64241 0
M  V30 3791 N 341.441 0.965919 1.2453 0
M  V30 3792 C 342.687 0.62776 1.92839 0
M  V30 3793 C 343.02 -0.834694 1.75347 0
M  V30 3794 O 342.295 -1.60031 1.10546 0
M  V30 3795 C 342.578 1.00109 3.45905 0
M  V30 3796 C 342.431 2.52011 3.72573 0
M  V30 3797 C 343.75 0.53435 4.36844 0
M  V30 3798 H 340.869 0.229537 0.700344 0
M  V30 3799 H 343.511 1.2046 1.46933 0
M  V30 3800 H 341.661 0.510238 3.85135 0
M  V30 3801 H 343.333 3.08559 3.42912 0
M  V30 3802 H 341.576 2.95287 3.17786 0
M  V30 3803 H 342.247 2.73183 4.79661 0
M  V30 3804 H 344.723 0.955565 4.04979 0
M  V30 3805 H 343.599 0.824152 5.42678 0
M  V30 3806 H 343.86 -0.565589 4.38467 0
M  V30 3807 N 342.919 -1.39368 0.735821 0
M  V30 3808 C 343.867 -2.32443 0.0855131 0
M  V30 3809 C 344.861 -1.53104 -0.724954 0
M  V30 3810 O 346.067 -1.68762 -0.626047 0
M  V30 3811 H 342.442 -0.751948 0.00885257 0
M  V30 3812 H 344.413 -2.84916 0.886883 0
M  V30 3813 C 343.162 -3.38206 -0.806983 0
M  V30 3814 H 342.485 -3.99335 -0.19274 0
M  V30 3815 H 343.925 -4.05779 -1.2296 0
M  V30 3816 C 342.384 -2.75321 -1.94165 0
M  V30 3817 O 342.914 -2.63231 -3.03435 0
M  V30 3818 N 341.12 -2.33396 -1.73132 0
M  V30 3819 H 340.667 -2.4343 -0.842596 0
M  V30 3820 H 340.625 -1.91661 -2.49225 0
M  V30 3821 N 344.397 -0.483516 -1.5 0
M  V30 3822 C 345.645 0.067027 -2.01989 0
M  V30 3823 C 345.966 1.3909 -1.36671 0
M  V30 3824 O 345.236 1.88978 -0.516152 0
M  V30 3825 H 343.816 0.0277606 -0.746484 0
M  V30 3826 H 346.478 -0.636773 -1.84204 0
M  V30 3827 H 345.574 0.209484 -3.11396 0
M  V30 3828 N 345.875 1.56104 -0.216619 0
M  V30 3829 C 346.838 2.18819 0.681962 0
M  V30 3830 C 347.838 1.14866 1.12528 0
M  V30 3831 O 349.028 1.40128 1.03488 0
M  V30 3832 C 346.16 2.80756 1.93362 0
M  V30 3833 H 347.353 2.99595 0.135254 0
M  V30 3834 H 344.906 1.56265 0.0330003 0
M  V30 3835 H 345.641 2.03837 2.52232 0
M  V30 3836 H 345.426 3.56876 1.62426 0
M  V30 3837 H 346.916 3.28844 2.57393 0
M  V30 3838 N 347.353 -0.0568162 1.57498 0
M  V30 3839 C 348.601 -0.751617 1.87604 0
M  V30 3840 C 348.922 -1.77351 0.81066 0
M  V30 3841 O 348.192 -1.95254 -0.159018 0
M  V30 3842 H 346.772 -0.280583 0.692302 0
M  V30 3843 H 349.434 -0.0293483 1.94878 0
M  V30 3844 H 348.53 -1.25852 2.856 0
M  V30 3845 N 348.832 -1.54138 -0.328536 0
M  V30 3846 C 349.779 -1.83176 -1.40411 0
M  V30 3847 C 350.749 -0.678494 -1.5161 0
M  V30 3848 O 351.934 -0.92443 -1.6691 0
M  V30 3849 C 349.074 -2.06035 -2.76846 0
M  V30 3850 C 348.187 -3.33727 -2.74318 0
M  V30 3851 C 347.322 -3.46574 -4.02567 0
M  V30 3852 C 346.361 -4.68159 -3.94327 0
M  V30 3853 N 345.498 -4.77959 -5.14296 0
M  V30 3854 H 350.338 -2.74938 -1.14948 0
M  V30 3855 H 347.875 -1.36166 -0.556538 0
M  V30 3856 H 349.833 -2.1728 -3.56153 0
M  V30 3857 H 348.463 -1.1757 -3.00628 0
M  V30 3858 H 347.515 -3.31246 -1.8703 0
M  V30 3859 H 348.827 -4.23139 -2.64111 0
M  V30 3860 H 347.981 -3.57333 -4.90304 0
M  V30 3861 H 346.72 -2.55245 -4.15574 0
M  V30 3862 H 345.725 -4.57461 -3.04974 0
M  V30 3863 H 346.95 -5.60868 -3.82889 0
M  V30 3864 H 344.896 -3.89544 -5.27818 0
M  V30 3865 H 344.813 -5.6133 -5.06404 0
M  V30 3866 H 346.081 -4.93044 -6.03761 0
M  V30 3867 N 350.31 0.590341 -1.46126 0
M  V30 3868 C 351.556 1.35082 -1.51264 0
M  V30 3869 C 351.889 1.93534 -0.160711 0
M  V30 3870 O 351.164 1.76045 0.826956 0
M  V30 3871 C 351.447 2.48588 -2.6053 0
M  V30 3872 C 351.3 1.95221 -4.05227 0
M  V30 3873 C 352.619 3.50662 -2.6594 0
M  V30 3874 H 349.738 0.489803 -0.550692 0
M  V30 3875 H 352.38 0.663887 -1.78024 0
M  V30 3876 H 350.53 3.07186 -2.37843 0
M  V30 3877 H 352.202 1.41139 -4.39178 0
M  V30 3878 H 350.445 1.26101 -4.15068 0
M  V30 3879 H 351.116 2.77121 -4.77397 0
M  V30 3880 H 353.592 3.01934 -2.86313 0
M  V30 3881 H 352.468 4.27551 -3.44226 0
M  V30 3882 H 352.729 4.07399 -1.71694 0
M  V30 3883 N 351.788 1.33704 0.83433 0
M  V30 3884 C 353.034 1.25603 1.59222 0
M  V30 3885 C 353.367 -0.176659 1.93395 0
M  V30 3886 O 352.642 -1.11915 1.59076 0
M  V30 3887 C 352.925 2.13576 2.89926 0
M  V30 3888 C 352.778 3.65326 2.62406 0
M  V30 3889 C 354.097 2.01238 3.91397 0
M  V30 3890 H 351.216 0.457613 0.577719 0
M  V30 3891 H 353.858 1.63848 0.961972 0
M  V30 3892 H 352.008 1.8109 3.43713 0
M  V30 3893 H 353.68 4.08124 2.15017 0
M  V30 3894 H 351.923 3.8698 1.96033 0
M  V30 3895 H 352.594 4.22232 3.55562 0
M  V30 3896 H 355.07 2.29738 3.46929 0
M  V30 3897 H 353.946 2.65036 4.80673 0
M  V30 3898 H 354.207 0.985951 4.30966 0
M  V30 3899 N 353.266 -1.05314 1.17247 0
M  V30 3900 C 354.514 -1.77941 0.958194 0
M  V30 3901 C 354.835 -1.88089 -0.514556 0
M  V30 3902 O 354.105 -1.39676 -1.37359 0
M  V30 3903 H 352.685 -0.659116 0.351533 0
M  V30 3904 H 355.347 -1.27166 1.47699 0
M  V30 3905 H 354.443 -2.79663 1.38546 0
M  V30 3906 N 354.744 -0.972509 -1.24016 0
M  V30 3907 C 355.99 -0.647583 -1.92816 0
M  V30 3908 C 356.345 0.809015 -1.74564 0
M  V30 3909 O 355.638 1.57502 -1.09103 0
M  V30 3910 C 355.832 -0.963694 -3.44162 0
M  V30 3911 C 355.661 -2.44947 -3.77135 0
M  V30 3912 C 354.431 -3.11012 -3.98246 0
M  V30 3913 C 356.629 -3.42978 -3.83237 0
M  V30 3914 N 354.611 -4.49277 -4.18358 0
M  V30 3915 C 355.982 -4.66619 -4.08248 0
M  V30 3916 C 358.037 -3.37569 -3.65994 0
M  V30 3917 C 356.74 -5.85516 -4.17808 0
M  V30 3918 C 358.766 -4.55822 -3.76802 0
M  V30 3919 C 358.128 -5.78256 -4.02243 0
M  V30 3920 H 354.227 -0.287894 -0.727077 0
M  V30 3921 H 356.811 -1.24835 -1.49413 0
M  V30 3922 H 354.982 -0.391692 -3.8642 0
M  V30 3923 H 356.714 -0.596849 -4.00275 0
M  V30 3924 H 353.469 -2.61529 -3.94841 0
M  V30 3925 H 353.893 -5.20935 -4.32384 0
M  V30 3926 H 358.535 -2.43945 -3.45327 0
M  V30 3927 H 356.253 -6.79564 -4.37285 0
M  V30 3928 H 359.839 -4.53204 -3.64825 0
M  V30 3929 H 358.719 -6.68231 -4.10411 0
M  V30 3930 N 356.222 1.38976 -0.743202 0
M  V30 3931 C 357.169 2.30544 -0.10861 0
M  V30 3932 C 358.139 1.49642 0.720869 0
M  V30 3933 O 359.324 1.78304 0.679142 0
M  V30 3934 C 356.464 3.36018 0.786496 0
M  V30 3935 C 355.577 4.31963 -0.0564849 0
M  V30 3936 C 354.712 5.24506 0.840657 0
M  V30 3937 C 353.751 6.121 -0.00658363 0
M  V30 3938 N 352.888 6.96973 0.846943 0
M  V30 3939 H 357.728 2.8424 -0.895088 0
M  V30 3940 H 355.265 1.3995 -0.453048 0
M  V30 3941 H 357.223 3.95768 1.31999 0
M  V30 3942 H 355.853 2.83758 1.53887 0
M  V30 3943 H 354.905 3.73763 -0.707492 0
M  V30 3944 H 356.217 4.93703 -0.711229 0
M  V30 3945 H 355.371 5.89322 1.4417 0
M  V30 3946 H 354.11 4.63107 1.52916 0
M  V30 3947 H 353.115 5.46289 -0.620366 0
M  V30 3948 H 354.34 6.75565 -0.691992 0
M  V30 3949 H 352.286 6.38133 1.52059 0
M  V30 3950 H 352.203 7.5559 0.248864 0
M  V30 3951 H 353.471 7.6621 1.43328 0
M  V30 3952 N 357.7 0.491464 1.49741 0
M  V30 3953 C 358.928 -0.0535151 2.06831 0
M  V30 3954 C 359.343 -1.31683 1.35296 0
M  V30 3955 O 358.7 -1.77402 0.42836 0
M  V30 3956 C 358.751 -0.320835 3.60073 0
M  V30 3957 O 358.472 0.892394 4.28915 0
M  V30 3958 C 359.973 -0.910519 4.33848 0
M  V30 3959 H 357.193 0.0161909 0.670805 0
M  V30 3960 H 359.737 0.68609 1.92647 0
M  V30 3961 H 357.892 -1.0104 3.73991 0
M  V30 3962 H 358.306 0.649401 5.20464 0
M  V30 3963 H 359.78 -1.04721 5.41976 0
M  V30 3964 H 360.257 -1.90589 3.95692 0
M  V30 3965 H 360.863 -0.258712 4.24512 0
M  V30 3966 N 359.178 -1.55987 0.224894 0
M  V30 3967 C 360.424 -1.98684 -0.406502 0
M  V30 3968 C 360.757 -1.11248 -1.59177 0
M  V30 3969 O 360.032 -0.170909 -1.93748 0
M  V30 3970 C 360.315 -3.50218 -0.837808 0
M  V30 3971 C 360.168 -4.48426 0.351332 0
M  V30 3972 C 361.487 -4.06243 -1.69278 0
M  V30 3973 H 358.606 -0.722337 -0.146283 0
M  V30 3974 H 361.248 -1.87255 0.321799 0
M  V30 3975 H 359.398 -3.60089 -1.45837 0
M  V30 3976 H 361.07 -4.50562 0.989526 0
M  V30 3977 H 359.313 -4.22159 0.998207 0
M  V30 3978 H 359.984 -5.52 0.00655905 0
M  V30 3979 H 362.46 -3.99337 -1.16914 0
M  V30 3980 H 361.336 -5.12581 -1.96346 0
M  V30 3981 H 361.597 -3.53332 -2.65723 0
M  V30 3982 N 360.656 0.0484629 -1.57525 0
M  V30 3983 C 361.903 0.743125 -1.88372 0
M  V30 3984 C 362.231 1.76383 -0.819715 0
M  V30 3985 O 361.486 1.94855 0.181659 0
M  V30 3986 C 361.785 1.46632 -3.25935 0
M  V30 3987 C 361.451 0.583427 -4.4711 0
M  V30 3988 C 360.113 0.340191 -4.79996 0
M  V30 3989 C 362.465 -0.0273345 -5.21193 0
M  V30 3990 C 359.793 -0.522903 -5.84365 0
M  V30 3991 C 362.145 -0.878017 -6.26477 0
M  V30 3992 C 360.809 -1.1309 -6.5785 0
M  V30 3993 H 360.079 0.271929 -0.689301 0
M  V30 3994 H 362.726 0.00336166 -1.915 0
M  V30 3995 H 361.031 2.2789 -3.18706 0
M  V30 3996 H 362.728 2.00902 -3.47044 0
M  V30 3997 H 359.318 0.783151 -4.21384 0
M  V30 3998 H 363.502 0.147654 -4.9608 0
M  V30 3999 H 358.758 -0.727335 -6.07058 0
M  V30 4000 H 362.932 -1.35789 -6.83033 0
M  V30 4001 H 360.559 -1.80144 -7.38547 0
M  V30 4002 N 362.134 1.5431 0.320358 0
M  V30 4003 C 363.411 1.63322 1.07635 0
M  V30 4004 C 363.791 0.46912 2.05821 0
M  V30 4005 O 363.139 -0.536274 2.22118 0
M  V30 4006 C 363.349 3.00465 1.77544 0
M  V30 4007 C 364.697 3.56621 2.30449 0
M  V30 4008 O 365.721 3.02791 1.87606 0
M  V30 4009 O 364.58 4.5083 3.08892 0
M  V30 4010 H 361.674 0.661502 0.496331 0
M  V30 4011 H 364.22 1.66656 0.319992 0
M  V30 4012 H 362.992 3.76629 1.06143 0
M  V30 4013 H 362.615 3.00824 2.59982 0
M  V30 4014 N 363.613 -0.582584 1.46437 0
M  V30 4015 C 365.024 -1.1647 1.45916 0
M  V30 4016 C 365.375 -1.95177 0.200077 0
M  V30 4017 O 364.5 -2.04874 -0.696819 0
M  V30 4018 C 365.095 -2.11885 2.64367 0
M  V30 4019 C 363.654 -2.65421 2.66887 0
M  V30 4020 C 362.801 -1.41294 2.38603 0
M  V30 4021 H 365.752 -0.370514 1.54314 0
M  V30 4022 H 365.773 -2.9535 2.39892 0
M  V30 4023 H 365.285 -1.54573 3.5599 0
M  V30 4024 H 363.386 -3.26602 1.79338 0
M  V30 4025 H 363.499 -3.08147 3.66854 0
M  V30 4026 H 361.863 -1.71109 1.88663 0
M  V30 4027 H 362.646 -0.858125 3.32402 0
M  V30 4028 N 365.091 -1.34144 -0.827227 0
M  V30 4029 C 366.041 -1.21923 -1.92663 0
M  V30 4030 C 367.025 -0.119294 -1.60457 0
M  V30 4031 O 368.217 -0.348539 -1.73534 0
M  V30 4032 C 365.346 -0.972492 -3.29238 0
M  V30 4033 C 364.432 -2.1154 -3.67576 0
M  V30 4034 N 364.823 -3.36627 -3.77512 0
M  V30 4035 C 363.121 -2.02468 -3.97395 0
M  V30 4036 C 363.822 -4.11658 -4.1099 0
M  V30 4037 N 362.798 -3.40207 -4.23981 0
M  V30 4038 H 366.6 -2.16721 -1.98517 0
M  V30 4039 H 364.114 -1.2632 -1.02064 0
M  V30 4040 H 366.111 -0.865847 -4.0781 0
M  V30 4041 H 364.771 -0.0331509 -3.24683 0
M  V30 4042 H 365.782 -3.71234 -3.61118 0
M  V30 4043 H 362.459 -1.16265 -4.00985 0
M  V30 4044 H 363.849 -5.19657 -4.25918 0
M  V30 4045 N 366.569 1.04691 -1.17803 0
M  V30 4046 C 367.985 1.29963 -0.926379 0
M  V30 4047 C 368.185 1.97251 0.411635 0
M  V30 4048 O 367.241 2.24922 1.14744 0
M  V30 4049 C 368.554 2.16447 -2.08737 0
M  V30 4050 C 370.102 2.29814 -2.12496 0
M  V30 4051 C 370.577 3.19661 -3.27995 0
M  V30 4052 N 372.068 3.27247 -3.27816 0
M  V30 4053 C 372.803 3.96906 -4.13827 0
M  V30 4054 N 372.299 4.6895 -5.09959 0
M  V30 4055 N 374.092 3.93122 -4.01761 0
M  V30 4056 H 366.243 0.594182 -2.0392 0
M  V30 4057 H 368.506 0.324649 -0.890678 0
M  V30 4058 H 368.212 1.74304 -3.05469 0
M  V30 4059 H 368.086 3.17103 -2.04268 0
M  V30 4060 H 370.473 2.71196 -1.16347 0
M  V30 4061 H 370.554 1.2877 -2.21025 0
M  V30 4062 H 370.198 2.78991 -4.24413 0
M  V30 4063 H 370.128 4.20722 -3.16703 0
M  V30 4064 H 372.619 2.75921 -2.58217 0
M  V30 4065 H 372.932 5.19679 -5.71974 0
M  V30 4066 H 371.277 4.67875 -5.13924 0
M  V30 4067 H 374.468 3.35967 -3.2595 0
M  V30 4068 H 374.641 4.47139 -4.6901 0
M  V30 4069 N 368.047 0.979072 1.23499 0
M  V30 4070 C 369.458 0.684391 1.73704 0
M  V30 4071 C 369.809 -0.799448 1.79174 0
M  V30 4072 O 368.934 -1.62531 1.42873 0
M  V30 4073 C 369.529 1.23564 3.15464 0
M  V30 4074 C 368.088 0.99063 3.6313 0
M  V30 4075 C 367.235 1.36416 2.41425 0
M  V30 4076 H 370.186 1.15307 1.09041 0
M  V30 4077 H 370.207 0.607417 3.7562 0
M  V30 4078 H 369.719 2.31561 3.1145 0
M  V30 4079 H 367.82 -0.0733136 3.72528 0
M  V30 4080 H 367.933 1.64427 4.5 0
M  V30 4081 H 366.297 0.782616 2.42378 0
M  V30 4082 H 367.08 2.45387 2.40083 0
M  V30 4083 N 369.525 -1.3858 0.750561 0
M  V30 4084 C 370.772 -2.00184 0.305373 0
M  V30 4085 C 371.1 -1.59575 -1.11203 0
M  V30 4086 O 370.355 -0.823236 -1.77542 0
M  V30 4087 C 370.654 -3.55455 0.372373 0
M  V30 4088 C 370.32 -4.15765 1.745 0
M  V30 4089 C 368.982 -4.31951 2.12065 0
M  V30 4090 C 371.334 -4.49067 2.64553 0
M  V30 4091 C 368.662 -4.78734 3.39162 0
M  V30 4092 C 371.014 -4.97265 3.91038 0
M  V30 4093 C 369.678 -5.11658 4.28676 0
M  V30 4094 H 368.948 -0.732526 0.111744 0
M  V30 4095 H 371.595 -1.65673 0.960451 0
M  V30 4096 H 369.9 -3.90084 -0.366272 0
M  V30 4097 H 371.597 -4.00999 0.00953918 0
M  V30 4098 H 368.187 -4.03579 1.44297 0
M  V30 4099 H 372.371 -4.36166 2.36796 0
M  V30 4100 H 367.627 -4.88062 3.68246 0
M  V30 4101 H 371.801 -5.22003 4.60962 0
M  V30 4102 H 369.428 -5.47668 5.27222 0
M  V30 4103 N 371.003 -0.499398 -1.49478 0
M  V30 4104 C 371.966 0.268838 -2.27618 0
M  V30 4105 C 372.966 0.895383 -1.33565 0
M  V30 4106 O 374.156 0.760164 -1.56739 0
M  V30 4107 C 371.288 1.38559 -3.11471 0
M  V30 4108 H 372.481 -0.416812 -2.96989 0
M  V30 4109 H 370.034 -0.254313 -1.54217 0
M  V30 4110 H 370.769 2.10544 -2.46661 0
M  V30 4111 H 370.554 0.941797 -3.80621 0
M  V30 4112 H 372.044 1.92678 -3.70493 0
M  V30 4113 N 372.481 1.55866 -0.233164 0
M  V30 4114 C 373.73 1.97779 0.39579 0
M  V30 4115 C 374.043 1.12419 1.60066 0
M  V30 4116 O 375.249 1.44283 2.29988 0
M  V30 4117 C 373.705 3.5188 0.755556 0
M  V30 4118 C 373.313 4.45959 -0.427152 0
M  V30 4119 C 375.057 4.02479 1.34946 0
M  V30 4120 C 372.964 5.91383 -0.0443043 0
M  V30 4121 H 371.894 0.738592 0.15165 0
M  V30 4122 H 374.545 1.80486 -0.331212 0
M  V30 4123 H 372.927 3.64816 1.5403 0
M  V30 4124 H 374.101 4.44776 -1.20462 0
M  V30 4125 H 372.416 4.05765 -0.935068 0
M  V30 4126 H 375.013 5.08637 1.649 0
M  V30 4127 H 375.356 3.49014 2.26925 0
M  V30 4128 H 375.889 3.92813 0.62791 0
M  V30 4129 H 372.628 6.48857 -0.930874 0
M  V30 4130 H 372.148 5.95734 0.697238 0
M  V30 4131 H 373.827 6.45893 0.378334 0
M  V30 4132 N 373.959 -0.0401083 1.57549 0
M  V30 4133 C 375.236 -0.767917 1.79896 0
M  V30 4134 C 375.616 -1.9416 0.82856 0
M  V30 4135 O 374.964 -2.2812 -0.131671 0
M  V30 4136 C 375.174 -1.2113 3.27305 0
M  V30 4137 C 376.522 -1.63175 3.91994 0
M  V30 4138 O 377.546 -1.30616 3.31388 0
M  V30 4139 O 376.405 -2.23565 4.98679 0
M  V30 4140 H 373.499 -0.370441 0.739393 0
M  V30 4141 H 376.045 -0.017737 1.69691 0
M  V30 4142 H 374.817 -0.372937 3.89519 0
M  V30 4143 H 374.44 -2.02183 3.42356 0
M  V30 4144 N 375.437 -1.54477 -0.31217 0
M  V30 4145 C 376.37 -1.79519 -1.40884 0
M  V30 4146 C 377.348 -0.645753 -1.49227 0
M  V30 4147 O 378.532 -0.884468 -1.66461 0
M  V30 4148 C 375.659 -1.92194 -2.78889 0
M  V30 4149 C 374.705 -3.14555 -2.88023 0
M  V30 4150 S 375.538 -4.72893 -2.51262 0
M  V30 4151 C 376.694 -4.8849 -3.91317 0
M  V30 4152 H 376.927 -2.72256 -1.19432 0
M  V30 4153 H 374.46 -1.45746 -0.509654 0
M  V30 4154 H 376.418 -2.00182 -3.58382 0
M  V30 4155 H 375.079 -1.00414 -2.97617 0
M  V30 4156 H 374.272 -3.20193 -3.89221 0
M  V30 4157 H 373.874 -3.04955 -2.16514 0
M  V30 4158 H 376.166 -4.71826 -4.86196 0
M  V30 4159 H 377.109 -5.90588 -3.90656 0
M  V30 4160 H 377.517 -4.16715 -3.80801 0
M  V30 4161 N 376.915 0.57481 -1.46744 0
M  V30 4162 C 377.878 1.66533 -1.57478 0
M  V30 4163 C 378.878 1.54338 -0.451263 0
M  V30 4164 O 380.068 1.58814 -0.715813 0
M  V30 4165 C 377.2 3.05999 -1.50259 0
M  V30 4166 H 378.393 1.58372 -2.54673 0
M  V30 4167 H 375.946 0.793301 -1.34672 0
M  V30 4168 H 376.681 3.19709 -0.543725 0
M  V30 4169 H 376.466 3.16259 -2.31781 0
M  V30 4170 H 377.956 3.8537 -1.60872 0
M  V30 4171 N 378.394 1.34581 0.820102 0
M  V30 4172 C 379.642 1.26845 1.57336 0
M  V30 4173 C 379.963 -0.160667 1.94337 0
M  V30 4174 O 379.233 -1.09396 1.6251 0
M  V30 4175 H 377.813 0.466514 0.583415 0
M  V30 4176 H 380.475 1.68526 0.979027 0
M  V30 4177 H 379.571 1.87513 2.4949 0
M  V30 4178 N 379.872 -1.04064 1.18357 0
M  V30 4179 C 381.119 -1.77265 0.978947 0
M  V30 4180 C 381.447 -1.88189 -0.491428 0
M  V30 4181 O 380.702 -1.38653 -1.38108 0
M  V30 4182 C 381.001 -3.20634 1.57888 0
M  V30 4183 C 380.667 -3.29743 3.07539 0
M  V30 4184 C 379.329 -3.31937 3.48384 0
M  V30 4185 C 381.681 -3.29841 4.03552 0
M  V30 4186 C 379.009 -3.3187 4.83818 0
M  V30 4187 C 381.361 -3.31313 5.38901 0
M  V30 4188 C 380.025 -3.31799 5.79194 0
M  V30 4189 H 379.295 -0.648659 0.358222 0
M  V30 4190 H 381.942 -1.22225 1.47422 0
M  V30 4191 H 380.247 -3.78675 1.00561 0
M  V30 4192 H 381.944 -3.75917 1.39598 0
M  V30 4193 H 378.534 -3.28757 2.74986 0
M  V30 4194 H 382.718 -3.27337 3.73047 0
M  V30 4195 H 377.974 -3.30562 5.14333 0
M  V30 4196 H 382.148 -3.30338 6.13066 0
M  V30 4197 H 379.775 -3.315 6.84114 0
M  V30 4198 N 381.35 -0.985608 -1.22978 0
M  V30 4199 C 382.313 -0.535071 -2.22867 0
M  V30 4200 C 383.313 0.378123 -1.56291 0
M  V30 4201 O 384.503 0.171092 -1.73358 0
M  V30 4202 C 381.635 0.222702 -3.40172 0
M  V30 4203 H 382.828 -1.41835 -2.6424 0
M  V30 4204 H 380.381 -0.772042 -1.35901 0
M  V30 4205 H 381.116 1.12229 -3.04262 0
M  V30 4206 H 380.901 -0.43288 -3.89703 0
M  V30 4207 H 382.391 0.526335 -4.1427 0
M  V30 4208 N 382.828 1.3818 -0.7579 0
M  V30 4209 C 384.074 2.00316 -0.316453 0
M  V30 4210 C 384.407 1.60026 1.10025 0
M  V30 4211 O 383.682 0.839835 1.75434 0
M  V30 4212 C 383.965 3.57349 -0.444245 0
M  V30 4213 C 383.818 4.07591 -1.90236 0
M  V30 4214 C 385.137 4.3981 0.1598 0
M  V30 4215 H 382.256 0.727741 -0.116459 0
M  V30 4216 H 384.898 1.6406 -0.958352 0
M  V30 4217 H 383.048 3.88365 0.102233 0
M  V30 4218 H 384.72 3.87199 -2.50748 0
M  V30 4219 H 382.963 3.60297 -2.41595 0
M  V30 4220 H 383.634 5.16677 -1.94291 0
M  V30 4221 H 386.11 4.14971 -0.306314 0
M  V30 4222 H 384.986 5.48885 0.0401675 0
M  V30 4223 H 385.247 4.24102 1.24859 0
M  V30 4224 N 384.306 0.507319 1.49211 0
M  V30 4225 C 385.254 -0.281364 2.30892 0
M  V30 4226 C 386.248 -0.95687 1.39787 0
M  V30 4227 O 387.454 -0.883838 1.56807 0
M  V30 4228 H 383.829 -0.109597 0.743971 0
M  V30 4229 H 385.8 0.42744 2.95323 0
M  V30 4230 C 384.549 -1.32918 3.21291 0
M  V30 4231 H 383.872 -0.818799 3.91326 0
M  V30 4232 H 385.312 -1.85288 3.81372 0
M  V30 4233 C 383.771 -2.35074 2.41333 0
M  V30 4234 O 384.301 -3.4108 2.12197 0
M  V30 4235 N 382.507 -2.07705 2.03241 0
M  V30 4236 H 382.054 -1.2152 2.27136 0
M  V30 4237 H 382.012 -2.76283 1.50051 0
M  V30 4238 N 385.784 -1.5574 0.241426 0
M  V30 4239 C 386.714 -2.24133 -0.654722 0
M  V30 4240 C 387.695 -1.21974 -1.1856 0
M  V30 4241 O 388.88 -1.50612 -1.22595 0
M  V30 4242 C 386.01 -2.93659 -1.85423 0
M  V30 4243 C 384.964 -4.0246 -1.45636 0
M  V30 4244 C 384.29 -4.59383 -2.73626 0
M  V30 4245 C 385.59 -5.18468 -0.631506 0
M  V30 4246 H 387.284 -2.99281 -0.0844353 0
M  V30 4247 H 384.83 -1.43947 -0.0391707 0
M  V30 4248 H 386.783 -3.40203 -2.48676 0
M  V30 4249 H 385.507 -2.15991 -2.44981 0
M  V30 4250 H 384.166 -3.56676 -0.847202 0
M  V30 4251 H 383.814 -3.78422 -3.3137 0
M  V30 4252 H 383.514 -5.32826 -2.4773 0
M  V30 4253 H 385.038 -5.08658 -3.37786 0
M  V30 4254 H 386.452 -5.61272 -1.1682 0
M  V30 4255 H 384.849 -5.98266 -0.468831 0
M  V30 4256 H 385.919 -4.8358 0.357506 0
M  V30 4257 N 387.262 0.0317525 -1.57568 0
M  V30 4258 C 388.678 0.38735 -1.54828 0
M  V30 4259 C 388.878 1.7677 -0.967187 0
M  V30 4260 O 387.934 2.45581 -0.587063 0
M  V30 4261 C 389.247 0.291667 -2.99282 0
M  V30 4262 C 390.795 0.368946 -3.10818 0
M  V30 4263 C 391.27 0.302741 -4.56998 0
M  V30 4264 N 392.761 0.361617 -4.61786 0
M  V30 4265 C 393.496 0.333238 -5.72431 0
M  V30 4266 N 392.992 0.257308 -6.92322 0
M  V30 4267 N 394.785 0.382769 -5.60795 0
M  V30 4268 H 386.936 -0.871609 -1.93692 0
M  V30 4269 H 389.199 -0.331161 -0.888277 0
M  V30 4270 H 388.905 -0.656794 -3.45513 0
M  V30 4271 H 388.779 1.08638 -3.61217 0
M  V30 4272 H 391.166 1.30784 -2.64536 0
M  V30 4273 H 391.247 -0.455066 -2.5172 0
M  V30 4274 H 390.891 -0.632473 -5.03947 0
M  V30 4275 H 390.821 1.14482 -5.14005 0
M  V30 4276 H 393.312 0.422923 -3.75526 0
M  V30 4277 H 393.625 0.24068 -7.72425 0
M  V30 4278 H 391.97 0.223396 -6.94641 0
M  V30 4279 H 395.161 0.44006 -4.66027 0
M  V30 4280 H 395.334 0.357184 -6.47015 0
M  V30 4281 N 388.74 1.54641 0.303973 0
M  V30 4282 C 389.67 1.88386 1.3796 0
M  V30 4283 C 390.651 0.742485 1.5304 0
M  V30 4284 O 391.836 0.997959 1.66597 0
M  V30 4285 C 388.966 2.12854 2.74427 0
M  V30 4286 C 387.92 3.28702 2.74115 0
M  V30 4287 C 387.246 3.38582 4.13844 0
M  V30 4288 C 388.546 4.65881 2.3612 0
M  V30 4289 H 390.24 2.78474 1.09966 0
M  V30 4290 H 387.786 1.33988 0.527556 0
M  V30 4291 H 389.739 2.35047 3.49758 0
M  V30 4292 H 388.463 1.19535 3.03939 0
M  V30 4293 H 387.122 3.06428 2.0124 0
M  V30 4294 H 386.77 2.42784 4.40528 0
M  V30 4295 H 386.47 4.16453 4.14537 0
M  V30 4296 H 387.994 3.63031 4.90959 0
M  V30 4297 H 389.408 4.87823 3.01167 0
M  V30 4298 H 387.805 5.46444 2.48031 0
M  V30 4299 H 388.875 4.66799 1.3125 0
M  V30 4300 N 390.218 -0.567019 1.47046 0
M  V30 4301 C 391.467 -1.32091 1.5243 0
M  V30 4302 C 391.78 -1.94704 0.187021 0
M  V30 4303 O 392.986 -2.7124 0.118771 0
M  V30 4304 C 391.442 -2.39479 2.68659 0
M  V30 4305 C 391.05 -1.831 4.08874 0
M  V30 4306 C 392.794 -3.16111 2.83327 0
M  V30 4307 C 390.701 -2.8821 5.16419 0
M  V30 4308 H 389.631 -0.496629 0.56734 0
M  V30 4309 H 392.282 -0.603354 1.73297 0
M  V30 4310 H 390.664 -3.14105 2.41152 0
M  V30 4311 H 391.838 -1.14913 4.46242 0
M  V30 4312 H 390.153 -1.19085 3.99008 0
M  V30 4313 H 392.75 -3.94585 3.60842 0
M  V30 4314 H 393.093 -3.69686 1.91411 0
M  V30 4315 H 393.626 -2.48595 3.10556 0
M  V30 4316 H 390.365 -2.39504 6.10179 0
M  V30 4317 H 389.885 -3.54839 4.8358 0
M  V30 4318 H 391.564 -3.51881 5.42945 0
M  V30 4319 N 391.696 -1.35014 -0.812953 0
M  V30 4320 C 392.626 -1.30069 -1.93919 0
M  V30 4321 C 393.607 -0.176275 -1.69184 0
M  V30 4322 O 394.792 -0.370227 -1.90638 0
M  V30 4323 C 391.922 -1.06547 -3.30552 0
M  V30 4324 C 390.876 -2.15561 -3.69753 0
M  V30 4325 C 390.202 -1.77214 -5.04479 0
M  V30 4326 C 391.502 -3.57476 -3.808 0
M  V30 4327 H 393.196 -2.24303 -1.98314 0
M  V30 4328 H 390.742 -1.07977 -0.952736 0
M  V30 4329 H 392.695 -1.01729 -4.08937 0
M  V30 4330 H 391.419 -0.0875719 -3.26483 0
M  V30 4331 H 390.078 -2.19466 -2.9365 0
M  V30 4332 H 389.726 -0.780589 -4.96906 0
M  V30 4333 H 389.426 -2.50184 -5.31678 0
M  V30 4334 H 390.95 -1.7391 -5.8531 0
M  V30 4335 H 392.364 -3.55929 -4.4943 0
M  V30 4336 H 390.761 -4.29152 -4.19462 0
M  V30 4337 H 391.831 -3.94091 -2.82525 0
M  V30 4338 N 393.175 1.03435 -1.18907 0
M  V30 4339 C 394.107 2.1165 -0.879595 0
M  V30 4340 C 395.12 1.62316 0.125439 0
M  V30 4341 O 396.309 1.78201 -0.103245 0
M  V30 4342 C 393.409 3.37622 -0.294042 0
M  V30 4343 C 392.582 4.16166 -1.34629 0
M  V30 4344 C 391.641 5.20457 -0.775274 0
M  V30 4345 O 390.667 5.50379 -1.4516 0
M  V30 4346 N 391.869 5.78949 0.424126 0
M  V30 4347 H 394.634 2.38791 -1.81105 0
M  V30 4348 H 392.195 1.19681 -1.09032 0
M  V30 4349 H 394.187 4.04572 0.101679 0
M  V30 4350 H 392.757 3.07873 0.541575 0
M  V30 4351 H 391.977 3.44444 -1.91707 0
M  V30 4352 H 393.265 4.65432 -2.05549 0
M  V30 4353 H 392.663 5.56948 0.991209 0
M  V30 4354 H 391.22 6.47334 0.761691 0
M  V30 4355 N 394.653 0.992116 1.22453 0
M  V30 4356 C 396.069 0.702713 1.43297 0
M  V30 4357 C 396.269 -0.726909 1.87932 0
M  V30 4358 O 395.325 -1.49792 2.0327 0
M  V30 4359 C 396.638 1.70762 2.47509 0
M  V30 4360 C 398.186 1.72298 2.61309 0
M  V30 4361 C 398.661 2.71649 3.68742 0
M  V30 4362 N 400.152 2.70239 3.76199 0
M  V30 4363 C 400.887 3.43778 4.58917 0
M  V30 4364 N 400.383 4.26914 5.45633 0
M  V30 4365 N 402.176 3.32487 4.5322 0
M  V30 4366 H 394.327 1.91543 0.917871 0
M  V30 4367 H 396.59 0.826031 0.465162 0
M  V30 4368 H 396.296 2.73059 2.21657 0
M  V30 4369 H 396.17 1.49985 3.46099 0
M  V30 4370 H 398.557 0.706989 2.86506 0
M  V30 4371 H 398.638 1.97143 1.62997 0
M  V30 4372 H 398.282 3.73397 3.44292 0
M  V30 4373 H 398.212 2.44074 4.66622 0
M  V30 4374 H 400.703 2.09912 3.14237 0
M  V30 4375 H 401.016 4.79855 6.05771 0
M  V30 4376 H 399.361 4.31002 5.45218 0
M  V30 4377 H 402.552 2.6698 3.84499 0
M  V30 4378 H 402.725 3.90058 5.17454 0
M  V30 4379 N 396.131 -1.37776 0.765217 0
M  V30 4380 C 397.356 -2.04651 0.336537 0
M  V30 4381 C 397.781 -1.57337 -1.03086 0
M  V30 4382 O 397.139 -0.730621 -1.65927 0
M  V30 4383 C 397.187 -3.58577 0.381468 0
M  V30 4384 O 396.291 -4.07706 -0.62042 0
M  V30 4385 H 395.632 -0.64756 0.146838 0
M  V30 4386 H 398.162 -1.76221 1.03959 0
M  V30 4387 H 398.172 -4.07314 0.236448 0
M  V30 4388 H 396.847 -3.9237 1.37907 0
M  V30 4389 H 395.424 -3.70306 -0.439056 0
M  V30 4390 N 397.609 -0.515225 -1.4894 0
M  V30 4391 C 398.541 0.292481 -2.27326 0
M  V30 4392 C 399.554 0.917838 -1.3446 0
M  V30 4393 O 400.743 0.798772 -1.5963 0
M  V30 4394 C 397.843 1.42803 -3.07344 0
M  V30 4395 C 397.016 0.907347 -4.27885 0
M  V30 4396 C 396.075 1.92222 -4.89834 0
M  V30 4397 O 395.101 1.48506 -5.49486 0
M  V30 4398 N 396.303 3.25355 -4.80754 0
M  V30 4399 H 399.068 -0.379721 -2.97285 0
M  V30 4400 H 396.629 -0.348638 -1.58102 0
M  V30 4401 H 398.621 2.10481 -3.45658 0
M  V30 4402 H 397.191 2.00414 -2.39902 0
M  V30 4403 H 396.411 0.0550218 -3.94162 0
M  V30 4404 H 397.699 0.538108 -5.05946 0
M  V30 4405 H 397.097 3.6355 -4.33414 0
M  V30 4406 H 395.654 3.88707 -5.23211 0
M  V30 4407 N 399.087 1.5561 -0.249682 0
M  V30 4408 C 400.05 2.20217 0.635394 0
M  V30 4409 C 401.05 1.17227 1.10066 0
M  V30 4410 O 402.24 1.42292 1.00492 0
M  V30 4411 C 399.372 2.84794 1.87363 0
M  V30 4412 H 400.565 2.99814 0.0716752 0
M  V30 4413 H 398.118 1.563 -0.000153234 0
M  V30 4414 H 398.853 2.09142 2.47851 0
M  V30 4415 H 398.638 3.60241 1.5482 0
M  V30 4416 H 400.128 3.3423 2.5036 0
M  V30 4417 N 400.565 -0.0233959 1.57583 0
M  V30 4418 C 401.795 -0.723631 1.93513 0
M  V30 4419 C 402.203 -1.69115 0.848333 0
M  V30 4420 O 401.546 -1.82781 -0.183484 0
M  V30 4421 C 401.608 -1.53075 3.25282 0
M  V30 4422 C 401.272 -0.727388 4.51174 0
M  V30 4423 C 402.269 -0.0251924 5.19894 0
M  V30 4424 C 399.954 -0.680256 4.97672 0
M  V30 4425 C 401.948 0.713374 6.33395 0
M  V30 4426 C 399.635 0.0620523 6.11068 0
M  V30 4427 C 400.633 0.757622 6.78785 0
M  V30 4428 O 400.321 1.48787 7.90011 0
M  V30 4429 H 400.053 -0.208051 0.643188 0
M  V30 4430 H 402.607 0.0167489 2.05393 0
M  V30 4431 H 400.837 -2.31508 3.09744 0
M  V30 4432 H 402.526 -2.11413 3.46496 0
M  V30 4433 H 403.292 -0.0526003 4.84971 0
M  V30 4434 H 399.171 -1.21116 4.44805 0
M  V30 4435 H 402.715 1.25683 6.86185 0
M  V30 4436 H 398.612 0.0913634 6.45435 0
M  V30 4437 H 399.38 1.40213 8.06401 0
M  V30 4438 N 402.043 -1.548 -0.295768 0
M  V30 4439 C 403.29 -1.74329 -1.03032 0
M  V30 4440 C 403.618 -0.531915 -1.87085 0
M  V30 4441 O 402.873 0.486052 -1.89568 0
M  V30 4442 C 403.172 -2.98797 -1.961 0
M  V30 4443 C 402.838 -4.32356 -1.2798 0
M  V30 4444 C 401.5 -4.68661 -1.09135 0
M  V30 4445 C 403.852 -5.15128 -0.793243 0
M  V30 4446 C 401.18 -5.85312 -0.403269 0
M  V30 4447 C 403.532 -6.32488 -0.118854 0
M  V30 4448 C 402.196 -6.6745 0.0815043 0
M  V30 4449 H 401.466 -0.637916 -0.37702 0
M  V30 4450 H 404.113 -1.8906 -0.304696 0
M  V30 4451 H 402.418 -2.78869 -2.75207 0
M  V30 4452 H 404.115 -3.11102 -2.53015 0
M  V30 4453 H 400.705 -4.03808 -1.43655 0
M  V30 4454 H 404.889 -4.87575 -0.92653 0
M  V30 4455 H 400.145 -6.1094 -0.237098 0
M  V30 4456 H 404.319 -6.95892 0.266035 0
M  V30 4457 H 401.946 -7.57695 0.616685 0
M  V30 4458 N 403.521 0.559213 -1.47345 0
M  V30 4459 C 404.468 1.66645 -1.59682 0
M  V30 4460 C 405.438 1.60168 -0.43994 0
M  V30 4461 O 406.623 1.79031 -0.659736 0
M  V30 4462 C 403.763 3.04969 -1.61518 0
M  V30 4463 C 402.876 3.21897 -2.88108 0
M  V30 4464 C 402.011 4.50608 -2.81294 0
M  V30 4465 C 401.05 4.60961 -4.02717 0
M  V30 4466 N 400.187 5.81024 -3.94151 0
M  V30 4467 H 405.027 1.55439 -2.54249 0
M  V30 4468 H 402.564 0.757219 -1.26113 0
M  V30 4469 H 404.522 3.85064 -1.60566 0
M  V30 4470 H 403.152 3.15015 -0.704645 0
M  V30 4471 H 402.204 2.35248 -2.98936 0
M  V30 4472 H 403.516 3.25412 -3.78032 0
M  V30 4473 H 402.67 5.3896 -2.7858 0
M  V30 4474 H 401.409 4.49568 -1.89049 0
M  V30 4475 H 400.414 3.71021 -4.05738 0
M  V30 4476 H 401.639 4.63761 -4.96087 0
M  V30 4477 H 399.585 5.80938 -3.04708 0
M  V30 4478 H 399.502 5.85909 -4.77752 0
M  V30 4479 H 400.77 6.71744 -3.9545 0
M  V30 4480 N 404.999 1.35443 0.805782 0
M  V30 4481 C 405.929 1.31095 1.93226 0
M  V30 4482 C 406.91 0.185244 1.69088 0
M  V30 4483 O 408.095 0.380332 1.90439 0
M  V30 4484 C 405.225 1.08299 3.29983 0
M  V30 4485 C 404.179 2.17519 3.68605 0
M  V30 4486 C 403.505 1.79887 5.03532 0
M  V30 4487 C 404.805 3.5949 3.78898 0
M  V30 4488 H 406.499 2.25352 1.97122 0
M  V30 4489 H 404.045 1.0848 0.946996 0
M  V30 4490 H 405.998 1.03897 4.08391 0
M  V30 4491 H 404.722 0.104885 3.26432 0
M  V30 4492 H 403.381 2.2102 2.92482 0
M  V30 4493 H 403.029 0.80693 4.96485 0
M  V30 4494 H 402.729 2.53001 5.30344 0
M  V30 4495 H 404.253 1.77011 5.84379 0
M  V30 4496 H 405.667 3.58307 4.47536 0
M  V30 4497 H 404.064 4.31371 4.1718 0
M  V30 4498 H 405.134 3.95584 2.80431 0
M  V30 4499 N 406.477 -1.02803 1.19454 0
M  V30 4500 C 407.893 -1.28473 0.946937 0
M  V30 4501 C 408.093 -1.97881 -0.380202 0
M  V30 4502 O 407.149 -2.26719 -1.11151 0
M  V30 4503 C 408.462 -2.13099 2.12154 0
M  V30 4504 C 410.01 -2.26404 2.16126 0
M  V30 4505 C 410.485 -3.14402 3.33039 0
M  V30 4506 N 411.976 -3.21991 3.32981 0
M  V30 4507 C 412.711 -3.90272 4.20089 0
M  V30 4508 N 412.207 -4.60777 5.17355 0
M  V30 4509 N 414 -3.8668 4.07964 0
M  V30 4510 H 406.151 -0.561665 2.04839 0
M  V30 4511 H 408.414 -0.310438 0.89573 0
M  V30 4512 H 408.12 -1.69422 3.08203 0
M  V30 4513 H 407.994 -3.13813 2.09287 0
M  V30 4514 H 410.381 -2.69311 1.20647 0
M  V30 4515 H 410.462 -1.25237 2.23045 0
M  V30 4516 H 410.106 -2.72204 4.28798 0
M  V30 4517 H 410.036 -4.1563 3.23356 0
M  V30 4518 H 412.527 -2.71778 2.62574 0
M  V30 4519 H 412.84 -5.10513 5.80169 0
M  V30 4520 H 411.185 -4.5964 5.21302 0
M  V30 4521 H 414.376 -3.30739 3.31254 0
M  V30 4522 H 414.549 -4.39621 4.76064 0
M  V30 4523 N 407.956 -0.998596 -1.21925 0
M  V30 4524 C 409.204 -0.676325 -1.90448 0
M  V30 4525 C 409.525 0.794719 -1.78071 0
M  V30 4526 O 408.795 1.5701 -1.17152 0
M  V30 4527 H 407.375 -0.247165 -0.704925 0
M  V30 4528 H 410.037 -1.26633 -1.48156 0
M  V30 4529 H 409.133 -0.943858 -2.97486 0
M  V30 4530 N 409.434 1.37368 -0.772513 0
M  V30 4531 C 410.68 1.99969 -0.337681 0
M  V30 4532 C 411.013 1.61184 1.08321 0
M  V30 4533 O 410.288 0.858395 1.74533 0
M  V30 4534 C 410.571 3.56858 -0.482121 0
M  V30 4535 C 410.424 4.0555 -1.94549 0
M  V30 4536 C 411.743 4.39955 0.113143 0
M  V30 4537 H 408.862 0.726464 -0.124171 0
M  V30 4538 H 411.504 1.63034 -0.975699 0
M  V30 4539 H 409.654 3.88452 0.0610361 0
M  V30 4540 H 411.326 3.84518 -2.54841 0
M  V30 4541 H 409.569 3.57715 -2.45403 0
M  V30 4542 H 410.24 5.14587 -1.9976 0
M  V30 4543 H 412.716 4.14623 -0.35031 0
M  V30 4544 H 411.592 5.48897 -0.0180514 0
M  V30 4545 H 411.853 4.25403 1.20354 0
M  V30 4546 N 410.912 0.523116 1.48665 0
M  V30 4547 C 411.859 -0.243398 2.29513 0
M  V30 4548 C 412.829 -0.940139 1.36933 0
M  V30 4549 O 414.014 -0.942503 1.65896 0
M  V30 4550 C 411.154 -1.28855 3.20141 0
M  V30 4551 C 410.267 -0.60135 4.27794 0
M  V30 4552 C 409.402 -1.62884 5.05611 0
M  V30 4553 C 408.441 -0.924726 6.05075 0
M  V30 4554 N 407.578 -1.89744 6.75975 0
M  V30 4555 H 412.418 0.452234 2.94549 0
M  V30 4556 H 409.955 0.234858 1.45213 0
M  V30 4557 H 411.913 -1.90674 3.71079 0
M  V30 4558 H 410.543 -1.95266 2.57043 0
M  V30 4559 H 409.595 0.130623 3.80176 0
M  V30 4560 H 410.907 -0.0481585 4.98777 0
M  V30 4561 H 410.061 -2.32149 5.60528 0
M  V30 4562 H 408.8 -2.21592 4.34452 0
M  V30 4563 H 407.805 -0.217966 5.49368 0
M  V30 4564 H 409.03 -0.343851 6.78229 0
M  V30 4565 H 406.976 -2.47373 6.07571 0
M  V30 4566 H 406.893 -1.3955 7.43009 0
M  V30 4567 H 408.161 -2.58229 7.35485 0
M  V30 4568 N 412.39 -1.55475 0.257931 0
M  V30 4569 C 413.638 -1.98813 -0.363009 0
M  V30 4570 C 413.959 -1.14757 -1.57657 0
M  V30 4571 O 413.229 -0.232956 -1.9451 0
M  V30 4572 H 411.809 -0.734308 -0.137113 0
M  V30 4573 H 414.471 -1.9156 0.359281 0
M  V30 4574 H 413.567 -3.04941 -0.664634 0
M  V30 4575 N 413.868 0.0150385 -1.57593 0
M  V30 4576 C 415.116 0.701613 -1.8953 0
M  V30 4577 C 415.437 1.75139 -0.857396 0
M  V30 4578 O 414.707 1.95607 0.107194 0
M  V30 4579 H 413.287 0.26213 -0.699498 0
M  V30 4580 H 415.949 -0.0223304 -1.94887 0
M  V30 4581 H 415.045 1.18236 -2.88837 0
M  V30 4582 N 415.346 1.54954 0.287554 0
M  V30 4583 C 416.576 1.78622 1.03816 0
M  V30 4584 C 416.984 0.552451 1.80955 0
M  V30 4585 O 416.327 -0.487665 1.77109 0
M  V30 4586 C 416.389 2.94975 2.055 0
M  V30 4587 C 416.053 4.32565 1.47433 0
M  V30 4588 C 417.05 5.12096 0.897436 0
M  V30 4589 C 414.735 4.79195 1.50591 0
M  V30 4590 C 416.729 6.36383 0.359851 0
M  V30 4591 C 414.416 6.03441 0.964459 0
M  V30 4592 C 415.414 6.81872 0.392413 0
M  V30 4593 O 415.102 8.03777 -0.140788 0
M  V30 4594 H 414.834 0.599144 0.313053 0
M  V30 4595 H 417.388 2.02761 0.328225 0
M  V30 4596 H 415.618 2.66493 2.80211 0
M  V30 4597 H 417.307 3.06097 2.6657 0
M  V30 4598 H 418.073 4.77209 0.865841 0
M  V30 4599 H 413.952 4.18167 1.94055 0
M  V30 4600 H 417.496 6.97545 -0.0872951 0
M  V30 4601 H 413.393 6.37813 0.993246 0
M  V30 4602 H 414.161 8.18495 -0.0287617 0
M  V30 4603 N 416.824 -0.551391 1.4764 0
M  V30 4604 C 417.756 -1.67333 1.56628 0
M  V30 4605 C 418.769 -1.56398 0.452045 0
M  V30 4606 O 419.958 -1.6325 0.721926 0
M  V30 4607 C 417.058 -3.05841 1.45994 0
M  V30 4608 C 416.231 -3.42472 2.72088 0
M  V30 4609 C 415.29 -4.60168 2.55209 0
M  V30 4610 O 414.316 -4.64458 3.2904 0
M  V30 4611 N 415.518 -5.57024 1.63416 0
M  V30 4612 H 418.283 -1.60066 2.53375 0
M  V30 4613 H 415.844 -0.738169 1.44093 0
M  V30 4614 H 417.836 -3.8242 1.32428 0
M  V30 4615 H 416.406 -3.07302 0.573071 0
M  V30 4616 H 415.626 -2.55284 3.00373 0
M  V30 4617 H 416.914 -3.63723 3.55785 0
M  V30 4618 H 416.312 -5.56319 1.02594 0
M  V30 4619 H 414.869 -6.32906 1.558 0
M  V30 4620 N 418.302 -1.35869 -0.798587 0
M  V30 4621 C 419.212 -1.31578 -1.94228 0
M  V30 4622 C 420.228 -0.21939 -1.72611 0
M  V30 4623 O 421.404 -0.450167 -1.96305 0
M  V30 4624 C 418.469 -1.09528 -3.28944 0
M  V30 4625 C 417.53 -2.28556 -3.63402 0
M  V30 4626 C 416.763 -2.07549 -4.9169 0
M  V30 4627 O 416.986 -1.046 -5.60727 0
M  V30 4628 O 415.92 -2.95106 -5.24591 0
M  V30 4629 H 419.746 -2.27847 -2.00796 0
M  V30 4630 H 417.331 -1.16322 -0.937526 0
M  V30 4631 H 419.213 -0.991127 -4.09579 0
M  V30 4632 H 417.888 -0.16315 -3.23289 0
M  V30 4633 H 416.795 -2.44538 -2.83112 0
M  V30 4634 H 418.128 -3.20244 -3.73771 0
M  V30 4635 N 419.78 1.02168 -1.19998 0
M  V30 4636 C 421.005 1.79833 -1.03319 0
M  V30 4637 C 421.43 1.83504 0.413281 0
M  V30 4638 O 420.788 1.26635 1.29743 0
M  V30 4639 C 420.836 3.22396 -1.61533 0
M  V30 4640 O 419.94 4.03555 -0.849519 0
M  V30 4641 H 419.281 0.554872 -0.364709 0
M  V30 4642 H 421.811 1.28542 -1.59179 0
M  V30 4643 H 421.821 3.73124 -1.65054 0
M  V30 4644 H 420.496 3.19039 -2.66809 0
M  V30 4645 H 419.073 3.62169 -0.888129 0
M  V30 4646 N 421.258 1.00505 1.21394 0
M  V30 4647 C 422.483 0.706367 1.95001 0
M  V30 4648 C 422.908 -0.72463 1.73582 0
M  V30 4649 O 422.266 -1.49702 1.0227 0
M  V30 4650 C 422.314 1.03299 3.45487 0
M  V30 4651 O 421.418 0.138275 4.12168 0
M  V30 4652 H 420.759 0.263175 0.609619 0
M  V30 4653 H 423.289 1.34531 1.54151 0
M  V30 4654 H 423.299 0.979872 3.96059 0
M  V30 4655 H 421.974 2.07567 3.60401 0
M  V30 4656 H 420.551 0.247928 3.72075 0
M  V30 4657 N 422.737 -1.36956 0.779787 0
M  V30 4658 C 423.667 -2.32761 0.185651 0
M  V30 4659 C 424.648 -1.56177 -0.673989 0
M  V30 4660 O 425.833 -1.84378 -0.609797 0
M  V30 4661 C 422.963 -3.40418 -0.687964 0
M  V30 4662 C 421.917 -4.27941 0.0710102 0
M  V30 4663 C 421.243 -5.26681 -0.922573 0
M  V30 4664 C 422.543 -5.07006 1.25467 0
M  V30 4665 H 424.237 -2.82698 0.986008 0
M  V30 4666 H 421.783 -1.3592 0.475592 0
M  V30 4667 H 423.736 -4.06423 -1.11348 0
M  V30 4668 H 422.46 -2.89025 -1.52093 0
M  V30 4669 H 421.119 -3.63478 0.47739 0
M  V30 4670 H 420.767 -4.71565 -1.7503 0
M  V30 4671 H 420.467 -5.86103 -0.419237 0
M  V30 4672 H 421.991 -5.9556 -1.34686 0
M  V30 4673 H 423.405 -5.66105 0.905401 0
M  V30 4674 H 421.802 -5.75793 1.69063 0
M  V30 4675 H 422.872 -4.3921 2.05481 0
M  V30 4676 N 424.215 -0.530993 -1.48385 0
M  V30 4677 C 425.145 0.219985 -2.32461 0
M  V30 4678 C 426.126 0.934111 -1.42156 0
M  V30 4679 O 427.311 0.919694 -1.71042 0
M  V30 4680 C 424.441 1.26674 -3.23375 0
M  V30 4681 C 423.395 0.67069 -4.22712 0
M  V30 4682 C 422.721 1.82017 -5.02766 0
M  V30 4683 C 424.021 -0.358268 -5.2107 0
M  V30 4684 H 425.715 -0.48187 -2.95497 0
M  V30 4685 H 423.261 -0.233182 -1.42099 0
M  V30 4686 H 425.214 1.80006 -3.81019 0
M  V30 4687 H 423.938 1.99818 -2.58341 0
M  V30 4688 H 422.597 0.158878 -3.66256 0
M  V30 4689 H 422.245 2.54002 -4.34157 0
M  V30 4690 H 421.945 1.42727 -5.70003 0
M  V30 4691 H 423.469 2.35725 -5.63264 0
M  V30 4692 H 424.883 0.0880081 -5.73232 0
M  V30 4693 H 423.28 -0.66861 -5.96364 0
M  V30 4694 H 424.35 -1.26367 -4.68145 0
M  V30 4695 N 425.693 1.55336 -0.266172 0
M  V30 4696 C 427.109 1.59356 0.0882065 0
M  V30 4697 C 427.309 1.2834 1.55342 0
M  V30 4698 O 426.365 1.03996 2.30089 0
M  V30 4699 C 427.678 2.99409 -0.278364 0
M  V30 4700 C 429.226 3.12196 -0.224243 0
M  V30 4701 C 429.701 4.545 -0.565123 0
M  V30 4702 N 431.192 4.60313 -0.51634 0
M  V30 4703 C 431.927 5.68434 -0.753013 0
M  V30 4704 N 431.423 6.84738 -1.05383 0
M  V30 4705 N 433.216 5.57942 -0.682414 0
M  V30 4706 H 425.367 1.73764 -1.22147 0
M  V30 4707 H 427.63 0.809822 -0.492841 0
M  V30 4708 H 427.336 3.2691 -1.29703 0
M  V30 4709 H 427.21 3.75228 0.385186 0
M  V30 4710 H 429.597 2.84464 0.78512 0
M  V30 4711 H 429.678 2.38609 -0.921922 0
M  V30 4712 H 429.322 4.82956 -1.57213 0
M  V30 4713 H 429.252 5.26374 0.154248 0
M  V30 4714 H 431.743 3.7676 -0.29335 0
M  V30 4715 H 432.056 7.63088 -1.22133 0
M  V30 4716 H 430.401 6.86375 -1.09151 0
M  V30 4717 H 433.592 4.65958 -0.44731 0
M  V30 4718 H 433.765 6.4213 -0.870248 0
M  V30 4719 N 427.171 -0.0066808 1.57599 0
M  V30 4720 C 428.081 -1.01671 2.11424 0
M  V30 4721 C 429.097 -1.38143 1.05795 0
M  V30 4722 O 430.273 -1.47011 1.37658 0
M  V30 4723 C 427.338 -2.29192 2.60139 0
M  V30 4724 C 426.399 -1.99094 3.80342 0
M  V30 4725 C 425.632 -3.20535 4.26724 0
M  V30 4726 O 425.855 -4.3199 3.72479 0
M  V30 4727 O 424.789 -3.04924 5.18946 0
M  V30 4728 H 428.615 -0.589181 2.9793 0
M  V30 4729 H 426.2 -0.225091 1.47695 0
M  V30 4730 H 428.082 -3.0412 2.917 0
M  V30 4731 H 426.757 -2.71195 1.76733 0
M  V30 4732 H 425.664 -1.21663 3.53764 0
M  V30 4733 H 426.997 -1.61931 4.648 0
M  V30 4734 N 428.649 -1.55105 -0.279332 0
M  V30 4735 C 429.579 -1.90557 -1.34945 0
M  V30 4736 C 430.56 -0.766738 -1.51839 0
M  V30 4737 O 431.745 -1.02434 -1.64988 0
M  V30 4738 C 428.875 -2.17193 -2.71006 0
M  V30 4739 C 427.829 -3.33021 -2.68851 0
M  V30 4740 C 427.155 -3.45123 -4.08405 0
M  V30 4741 C 428.455 -4.69578 -2.28678 0
M  V30 4742 H 430.149 -2.80188 -1.05522 0
M  V30 4743 H 427.695 -1.34811 -0.506173 0
M  V30 4744 H 429.648 -2.40581 -3.45975 0
M  V30 4745 H 428.372 -1.24355 -3.01999 0
M  V30 4746 H 427.031 -3.0959 -1.9634 0
M  V30 4747 H 426.679 -2.49762 -4.3661 0
M  V30 4748 H 426.379 -4.22995 -4.07859 0
M  V30 4749 H 427.903 -3.70796 -4.85121 0
M  V30 4750 H 429.317 -4.92553 -2.93368 0
M  V30 4751 H 427.714 -5.5032 -2.39306 0
M  V30 4752 H 428.784 -4.68828 -1.23807 0
M  V30 4753 N 430.127 0.543554 -1.4793 0
M  V30 4754 C 431.373 1.30201 -1.55485 0
M  V30 4755 C 431.706 1.92925 -0.222201 0
M  V30 4756 O 430.981 1.78586 0.77053 0
M  V30 4757 C 431.264 2.40174 -2.68307 0
M  V30 4758 C 431.117 1.8223 -4.11233 0
M  V30 4759 C 432.436 3.42024 -2.76961 0
M  V30 4760 H 429.555 0.472036 -0.565996 0
M  V30 4761 H 432.197 0.606914 -1.80046 0
M  V30 4762 H 430.347 2.99463 -2.47495 0
M  V30 4763 H 432.019 1.27096 -4.43446 0
M  V30 4764 H 430.262 1.12832 -4.18869 0
M  V30 4765 H 430.933 2.61793 -4.85972 0
M  V30 4766 H 433.409 2.92672 -2.95774 0
M  V30 4767 H 432.285 4.16383 -3.57654 0
M  V30 4768 H 432.546 4.0173 -1.84568 0
M  V30 4769 N 431.605 1.3629 0.791371 0
M  V30 4770 C 432.833 1.33562 1.58016 0
M  V30 4771 C 433.248 -0.0835616 1.88615 0
M  V30 4772 O 432.605 -1.0399 1.49974 0
M  V30 4773 C 432.656 2.15517 2.90232 0
M  V30 4774 O 432.377 3.51902 2.60953 0
M  V30 4775 C 433.878 2.20546 3.84544 0
M  V30 4776 H 431.098 0.458226 0.490173 0
M  V30 4777 H 433.642 1.79361 0.982345 0
M  V30 4778 H 431.797 1.73278 3.46487 0
M  V30 4779 H 432.211 3.94644 3.4548 0
M  V30 4780 H 433.685 2.82252 4.74382 0
M  V30 4781 H 434.162 1.20838 4.2225 0
M  V30 4782 H 434.768 2.63013 3.34222 0
M  V30 4783 N 433.083 -1.0153 1.20538 0
M  V30 4784 C 434.013 -2.11972 0.979295 0
M  V30 4785 C 434.994 -1.6985 -0.0921787 0
M  V30 4786 O 436.179 -1.94089 0.0655932 0
M  V30 4787 C 433.309 -3.43201 0.531984 0
M  V30 4788 C 432.263 -3.9907 1.54685 0
M  V30 4789 C 431.589 -5.26082 0.956127 0
M  V30 4790 C 432.889 -4.32313 2.93092 0
M  V30 4791 H 434.583 -2.31143 1.90298 0
M  V30 4792 H 432.129 -1.11079 0.916372 0
M  V30 4793 H 434.082 -4.1985 0.361044 0
M  V30 4794 H 432.806 -3.23792 -0.427327 0
M  V30 4795 H 431.465 -3.2453 1.70517 0
M  V30 4796 H 431.113 -5.02999 -0.0111538 0
M  V30 4797 H 430.813 -5.64426 1.63393 0
M  V30 4798 H 432.337 -6.05386 0.796284 0
M  V30 4799 H 433.751 -4.99845 2.80763 0
M  V30 4800 H 432.148 -4.81774 3.57791 0
M  V30 4801 H 433.218 -3.41025 3.44717 0
M  V30 4802 N 434.561 -1.01147 -1.20859 0
M  V30 4803 C 435.509 -0.57059 -2.25493 0
M  V30 4804 C 436.503 0.388109 -1.64894 0
M  V30 4805 O 437.709 0.258592 -1.78133 0
M  V30 4806 H 434.084 -0.166191 -0.733406 0
M  V30 4807 H 436.055 -1.46411 -2.60012 0
M  V30 4808 C 434.804 0.0805241 -3.47607 0
M  V30 4809 H 434.127 -0.648156 -3.94511 0
M  V30 4810 H 435.567 0.352197 -4.22535 0
M  V30 4811 C 434.026 1.32175 -3.09889 0
M  V30 4812 O 434.556 2.41553 -3.20959 0
M  V30 4813 N 432.762 1.20392 -2.64488 0
M  V30 4814 H 432.309 0.313905 -2.5568 0
M  V30 4815 H 432.267 2.03541 -2.39621 0
M  V30 4816 N 436.039 1.36541 -0.78704 0
M  V30 4817 C 437.316 1.9355 -0.282424 0
M  V30 4818 C 437.696 1.71919 1.22503 0
M  V30 4819 O 437.044 1.07677 2.01539 0
M  V30 4820 C 437.254 3.4246 -0.672462 0
M  V30 4821 C 438.602 4.19582 -0.650863 0
M  V30 4822 O 439.626 3.50889 -0.612789 0
M  V30 4823 O 438.485 5.42106 -0.691623 0
M  V30 4824 H 435.579 0.824091 -0.0693 0
M  V30 4825 H 438.125 1.45736 -0.869423 0
M  V30 4826 H 436.897 3.51851 -1.71221 0
M  V30 4827 H 436.52 3.97556 -0.0592211 0
M  V30 4828 N 437.518 0.538854 1.48102 0
M  V30 4829 C 438.448 -0.207654 2.32575 0
M  V30 4830 C 439.429 -0.926559 1.4265 0
M  V30 4831 O 440.614 -0.91061 1.71527 0
M  V30 4832 C 437.744 -1.24957 3.24042 0
M  V30 4833 C 436.698 -0.648263 4.23062 0
M  V30 4834 C 436.024 -1.79348 5.03725 0
M  V30 4835 C 437.324 0.385897 5.20872 0
M  V30 4836 H 439.018 0.497534 2.95237 0
M  V30 4837 H 436.564 0.240715 1.41974 0
M  V30 4838 H 438.517 -1.77983 3.81969 0
M  V30 4839 H 437.241 -1.98446 2.59397 0
M  V30 4840 H 435.9 -0.139452 3.66335 0
M  V30 4841 H 435.548 -2.51696 4.35498 0
M  V30 4842 H 435.248 -1.39702 5.70751 0
M  V30 4843 H 436.772 -2.32735 5.64506 0
M  V30 4844 H 438.186 -0.057607 5.73271 0
M  V30 4845 H 436.583 0.700227 5.96001 0
M  V30 4846 H 437.653 1.28848 4.67468 0
M  V30 4847 N 438.996 -1.55193 0.274407 0
M  V30 4848 C 439.906 -2.26164 -0.623473 0
M  V30 4849 C 440.922 -1.28729 -1.17068 0
M  V30 4850 O 442.098 -1.61663 -1.20112 0
M  V30 4851 C 439.163 -2.96833 -1.7914 0
M  V30 4852 C 438.224 -4.09745 -1.28093 0
M  V30 4853 C 437.457 -4.77034 -2.3932 0
M  V30 4854 O 437.68 -4.4353 -3.5866 0
M  V30 4855 O 436.614 -5.64996 -2.07516 0
M  V30 4856 H 440.44 -3.03661 -0.0485661 0
M  V30 4857 H 438.025 -1.49341 0.0418382 0
M  V30 4858 H 439.907 -3.41248 -2.4724 0
M  V30 4859 H 438.582 -2.22253 -2.35341 0
M  V30 4860 H 437.489 -3.69787 -0.566416 0
M  V30 4861 H 438.822 -4.86224 -0.764683 0
M  V30 4862 N 440.474 -0.00167713 -1.576 0
M  V30 4863 C 441.885 0.54091 -1.78693 0
M  V30 4864 C 442.236 1.7386 -0.909247 0
M  V30 4865 O 441.361 2.16109 -0.112176 0
M  V30 4866 C 441.956 0.98806 -3.24072 0
M  V30 4867 C 440.515 1.47594 -3.46256 0
M  V30 4868 C 439.662 0.42792 -2.73978 0
M  V30 4869 H 442.613 -0.22784 -1.57056 0
M  V30 4870 H 442.634 1.85398 -3.32277 0
M  V30 4871 H 442.146 0.116164 -3.87926 0
M  V30 4872 H 440.247 2.36868 -2.87618 0
M  V30 4873 H 440.36 1.50225 -4.54939 0
M  V30 4874 H 438.724 0.889934 -2.38647 0
M  V30 4875 H 439.507 -0.435038 -3.40532 0
M  V30 4876 N 441.952 1.55251 0.271103 0
M  V30 4877 C 442.899 1.88261 1.33516 0
M  V30 4878 C 443.869 0.734296 1.48988 0
M  V30 4879 O 445.054 0.985741 1.63364 0
M  V30 4880 C 442.194 2.16168 2.69008 0
M  V30 4881 C 441.307 3.43678 2.61743 0
M  V30 4882 C 440.442 3.61276 3.89427 0
M  V30 4883 C 439.481 4.82472 3.7668 0
M  V30 4884 N 438.618 4.96717 4.96202 0
M  V30 4885 H 443.458 2.79015 1.04665 0
M  V30 4886 H 440.995 1.38137 0.505618 0
M  V30 4887 H 442.953 2.30349 3.47844 0
M  V30 4888 H 441.583 1.28646 2.96057 0
M  V30 4889 H 440.635 3.37959 1.74607 0
M  V30 4890 H 441.947 4.3265 2.48224 0
M  V30 4891 H 441.101 3.75284 4.76704 0
M  V30 4892 H 439.84 2.70492 4.05814 0
M  V30 4893 H 438.845 4.68465 2.87786 0
M  V30 4894 H 440.07 5.74692 3.61809 0
M  V30 4895 H 438.016 4.08865 5.12997 0
M  V30 4896 H 437.933 5.79738 4.85222 0
M  V30 4897 H 439.201 5.15113 5.85046 0
M  V30 4898 N 443.43 -0.535701 1.48216 0
M  V30 4899 C 444.393 -1.623 1.61838 0
M  V30 4900 C 445.393 -1.53087 0.492024 0
M  V30 4901 O 446.583 -1.5686 0.757668 0
M  V30 4902 C 443.715 -3.01907 1.58319 0
M  V30 4903 H 444.908 -1.51564 2.58783 0
M  V30 4904 H 442.461 -0.757317 1.36727 0
M  V30 4905 H 443.196 -3.18155 0.628299 0
M  V30 4906 H 442.981 -3.10003 2.40085 0
M  V30 4907 H 444.471 -3.80969 1.71033 0
M  V30 4908 N 444.908 -1.36708 -0.784132 0
M  V30 4909 C 445.871 -1.31307 -1.87859 0
M  V30 4910 C 446.871 -0.219654 -1.59293 0
M  V30 4911 O 448.061 -0.47476 -1.67606 0
M  V30 4912 C 445.193 -1.03679 -3.24751 0
M  V30 4913 H 446.386 -2.28647 -1.94064 0
M  V30 4914 H 443.939 -1.21558 -0.98252 0
M  V30 4915 H 444.674 -0.0681936 -3.24228 0
M  V30 4916 H 444.459 -1.82811 -3.46876 0
M  V30 4917 H 445.949 -1.02518 -4.04821 0
M  V30 4918 N 446.386 1.0089 -1.21074 0
M  V30 4919 C 447.334 2.11707 -0.963476 0
M  V30 4920 C 448.328 1.69172 0.0879032 0
M  V30 4921 O 449.534 1.79889 -0.0631415 0
M  V30 4922 H 445.909 0.692026 -0.294287 0
M  V30 4923 H 447.88 2.29743 -1.90422 0
M  V30 4924 C 446.629 3.43473 -0.540509 0
M  V30 4925 H 445.952 3.76634 -1.34114 0
M  V30 4926 H 447.392 4.22044 -0.406777 0
M  V30 4927 C 445.851 3.2849 0.748079 0
M  V30 4928 O 446.381 3.58883 1.8046 0
M  V30 4929 N 444.587 2.81715 0.713081 0
M  V30 4930 H 444.134 2.5718 -0.146973 0
M  V30 4931 H 444.092 2.72071 1.57558 0
M  V30 4932 N 447.864 1.01787 1.20321 0
M  V30 4933 C 449.104 0.716493 1.91431 0
M  V30 4934 C 449.468 -0.740352 1.77152 0
M  V30 4935 O 450.669 -1.1543 2.42754 0
M  V30 4936 C 448.94 1.14169 3.38674 0
M  V30 4937 S 450.499 0.962482 4.28114 0
M  V30 4938 H 447.317 0.261175 0.661293 0
M  V30 4939 H 449.919 1.30539 1.45533 0
M  V30 4940 H 448.623 2.19784 3.46588 0
M  V30 4941 H 448.154 0.545621 3.89598 0
M  V30 4942 H 450.169 -0.133253 4.96021 0
M  V30 4943 N 449.342 -1.36122 0.79427 0
M  V30 4944 C 450.57 -2.03362 0.380989 0
M  V30 4945 C 450.985 -1.59881 -1.00416 0
M  V30 4946 O 450.342 -0.790515 -1.6449 0
M  V30 4947 C 450.393 -3.58804 0.440649 0
M  V30 4948 O 450.114 -4.007 1.77118 0
M  V30 4949 C 451.615 -4.43296 0.0186117 0
M  V30 4950 H 448.835 -0.652526 0.156367 0
M  V30 4951 H 451.379 -1.73998 1.07447 0
M  V30 4952 H 449.534 -3.8686 -0.204458 0
M  V30 4953 H 449.948 -4.95309 1.72538 0
M  V30 4954 H 451.422 -5.51887 0.111488 0
M  V30 4955 H 451.899 -4.2684 -1.03461 0
M  V30 4956 H 452.505 -4.20512 0.636395 0
M  V30 4957 N 450.82 -0.546701 -1.47814 0
M  V30 4958 C 451.767 0.206854 -2.29871 0
M  V30 4959 C 452.737 0.918235 -1.38411 0
M  V30 4960 O 453.922 0.915991 -1.67375 0
M  V30 4961 C 451.062 1.23746 -3.22151 0
M  V30 4962 C 450.175 0.533216 -4.28697 0
M  V30 4963 C 449.31 1.5482 -5.08138 0
M  V30 4964 C 448.349 0.828347 -6.06469 0
M  V30 4965 N 447.486 1.78966 -6.78908 0
M  V30 4966 H 452.326 -0.499037 -2.93792 0
M  V30 4967 H 449.863 -0.25793 -1.44821 0
M  V30 4968 H 451.821 1.84746 -3.74065 0
M  V30 4969 H 450.451 1.91151 -2.60117 0
M  V30 4970 H 449.503 -0.191089 -3.7992 0
M  V30 4971 H 450.815 -0.0311987 -4.9879 0
M  V30 4972 H 449.969 2.23202 -5.6415 0
M  V30 4973 H 448.708 2.14652 -4.37922 0
M  V30 4974 H 447.713 0.130539 -5.49645 0
M  V30 4975 H 448.938 0.235907 -6.7869 0
M  V30 4976 H 446.884 2.37675 -6.1143 0
M  V30 4977 H 446.801 1.27712 -7.45135 0
M  V30 4978 H 448.069 2.46496 -7.395 0
M  V30 4979 N 452.299 1.55045 -0.282633 0
M  V30 4980 C 453.548 1.98938 0.332667 0
M  V30 4981 C 453.861 1.17455 1.56409 0
M  V30 4982 O 455.067 1.51527 2.25282 0
M  V30 4983 C 453.523 3.54105 0.643226 0
M  V30 4984 C 453.131 4.44374 -0.568814 0
M  V30 4985 C 454.875 4.06569 1.22074 0
M  V30 4986 C 452.782 5.90943 -0.232426 0
M  V30 4987 H 451.712 0.743043 0.128075 0
M  V30 4988 H 454.363 1.79341 -0.388464 0
M  V30 4989 H 452.745 3.69532 1.42346 0
M  V30 4990 H 453.919 4.40718 -1.34551 0
M  V30 4991 H 452.234 4.02585 -1.06369 0
M  V30 4992 H 454.831 5.13626 1.48635 0
M  V30 4993 H 455.174 3.56057 2.15707 0
M  V30 4994 H 455.707 3.94612 0.502621 0
M  V30 4995 H 452.446 6.45567 -1.13683 0
M  V30 4996 H 451.966 5.9765 0.507357 0
M  V30 4997 H 453.645 6.4677 0.172657 0
M  V30 4998 N 453.777 0.010035 1.57597 0
M  V30 4999 C 454.707 -0.976857 2.12084 0
M  V30 5000 C 455.688 -1.35191 1.03235 0
M  V30 5001 O 456.873 -1.43389 1.3097 0
M  V30 5002 C 454.003 -2.26548 2.63236 0
M  V30 5003 C 452.957 -2.03175 3.76701 0
M  V30 5004 C 452.283 -3.38138 4.14206 0
M  V30 5005 C 453.583 -1.38625 5.03568 0
M  V30 5006 H 455.277 -0.523145 2.94794 0
M  V30 5007 H 452.823 -0.250195 1.4181 0
M  V30 5008 H 454.776 -2.95952 2.99984 0
M  V30 5009 H 453.5 -2.74051 1.77661 0
M  V30 5010 H 452.159 -1.36195 3.40362 0
M  V30 5011 H 451.807 -3.83363 3.25641 0
M  V30 5012 H 451.507 -3.23312 4.90656 0
M  V30 5013 H 453.031 -4.08841 4.53521 0
M  V30 5014 H 454.445 -1.98 5.38023 0
M  V30 5015 H 452.842 -1.34256 5.84889 0
M  V30 5016 H 453.912 -0.356722 4.83586 0
M  V30 5017 N 455.255 -1.55392 -0.262866 0
M  V30 5018 C 456.501 -1.76737 -0.99458 0
M  V30 5019 C 456.834 -0.572453 -1.85571 0
M  V30 5020 O 456.109 0.429732 -1.89693 0
M  V30 5021 C 456.392 -3.07824 -1.8686 0
M  V30 5022 C 456.245 -4.3769 -1.03672 0
M  V30 5023 C 457.564 -3.35021 -2.85393 0
M  V30 5024 H 454.683 -0.643005 -0.360157 0
M  V30 5025 H 457.325 -1.88126 -0.266216 0
M  V30 5026 H 455.475 -2.98245 -2.48962 0
M  V30 5027 H 457.147 -4.59238 -0.43563 0
M  V30 5028 H 455.39 -4.32461 -0.340513 0
M  V30 5029 H 456.061 -5.25759 -1.6817 0
M  V30 5030 H 458.537 -3.44458 -2.33426 0
M  V30 5031 H 457.413 -4.27989 -3.43681 0
M  V30 5032 H 457.674 -2.55153 -3.61039 0
M  V30 5033 N 456.733 0.527833 -1.48498 0
M  V30 5034 C 457.979 1.28295 -1.57836 0
M  V30 5035 C 458.334 1.9077 -0.249943 0
M  V30 5036 O 457.627 1.76421 0.747402 0
M  V30 5037 C 457.821 2.39275 -2.65485 0
M  V30 5038 C 457.65 1.87679 -4.08664 0
M  V30 5039 C 456.42 1.70187 -4.75778 0
M  V30 5040 C 458.618 1.40409 -4.94762 0
M  V30 5041 N 456.6 1.13238 -6.03366 0
M  V30 5042 C 457.971 0.954216 -6.12613 0
M  V30 5043 C 460.026 1.28732 -4.8097 0
M  V30 5044 C 458.729 0.39915 -7.18192 0
M  V30 5045 C 460.755 0.746244 -5.86673 0
M  V30 5046 C 460.117 0.306457 -7.03733 0
M  V30 5047 H 456.216 0.460408 -0.632099 0
M  V30 5048 H 458.8 0.594913 -1.85388 0
M  V30 5049 H 456.971 3.05572 -2.3975 0
M  V30 5050 H 458.703 3.06308 -2.64495 0
M  V30 5051 H 455.458 1.93772 -4.32145 0
M  V30 5052 H 455.882 0.867687 -6.71417 0
M  V30 5053 H 460.524 1.61338 -3.90807 0
M  V30 5054 H 458.242 0.0607678 -8.08077 0
M  V30 5055 H 461.828 0.659041 -5.78055 0
M  V30 5056 H 460.708 -0.105708 -7.84129 0
M  V30 5057 N 458.211 1.37122 0.776871 0
M  V30 5058 C 459.161 1.28989 1.88005 0
M  V30 5059 C 460.145 0.178765 1.59904 0
M  V30 5060 O 461.337 0.412705 1.72121 0
M  V30 5061 C 458.466 1.09402 3.25402 0
M  V30 5062 C 457.552 2.25036 3.59471 0
M  V30 5063 N 457.943 3.50407 3.64759 0
M  V30 5064 C 456.241 2.17078 3.89607 0
M  V30 5065 C 456.942 4.26628 3.95428 0
M  V30 5066 N 455.918 3.55709 4.11062 0
M  V30 5067 H 459.72 2.2394 1.90337 0
M  V30 5068 H 457.234 1.30021 0.973052 0
M  V30 5069 H 459.231 1.01661 4.04315 0
M  V30 5070 H 457.891 0.153632 3.24336 0
M  V30 5071 H 458.902 3.8438 3.47091 0
M  V30 5072 H 455.579 1.31067 3.96393 0
M  V30 5073 H 456.969 5.35107 4.06338 0
M  V30 5074 N 459.689 -1.00246 1.21608 0
M  V30 5075 C 460.917 -1.77631 1.06089 0
M  V30 5076 C 461.332 -1.84746 -0.38916 0
M  V30 5077 O 460.689 -1.31068 -1.26994 0
M  V30 5078 C 460.74 -3.21415 1.65453 0
M  V30 5079 O 460.461 -3.14703 3.04785 0
M  V30 5080 C 461.962 -4.15289 1.55079 0
M  V30 5081 H 459.182 -0.558162 0.37242 0
M  V30 5082 H 461.726 -1.26093 1.60999 0
M  V30 5083 H 459.881 -3.70053 1.14629 0
M  V30 5084 H 460.295 -4.05056 3.33212 0
M  V30 5085 H 461.769 -5.13965 2.01355 0
M  V30 5086 H 462.246 -4.36279 0.505665 0
M  V30 5087 H 462.852 -3.72543 2.05163 0
M  V30 5088 N 461.167 -1.02423 -1.1978 0
M  V30 5089 C 462.583 -0.740459 -1.41384 0
M  V30 5090 C 462.783 0.676827 -1.89793 0
M  V30 5091 O 461.839 1.4435 -2.0717 0
M  V30 5092 C 463.152 -1.77264 -2.42895 0
M  V30 5093 C 464.7 -1.79165 -2.56649 0
M  V30 5094 C 465.175 -2.8133 -3.6141 0
M  V30 5095 N 466.666 -2.80118 -3.68901 0
M  V30 5096 C 467.401 -3.55824 -4.49641 0
M  V30 5097 N 466.897 -4.41231 -5.34123 0
M  V30 5098 N 468.69 -3.44387 -4.44246 0
M  V30 5099 H 460.841 -1.9391 -0.866764 0
M  V30 5100 H 463.104 -0.838074 -0.443098 0
M  V30 5101 H 462.81 -2.7884 -2.14339 0
M  V30 5102 H 462.684 -1.59108 -3.42001 0
M  V30 5103 H 465.071 -0.782702 -2.84531 0
M  V30 5104 H 465.152 -2.01396 -1.57713 0
M  V30 5105 H 464.796 -3.82394 -3.34271 0
M  V30 5106 H 464.726 -2.56359 -4.59986 0
M  V30 5107 H 467.217 -2.1817 -3.08562 0
M  V30 5108 H 467.53 -4.95747 -5.92836 0
M  V30 5109 H 465.875 -4.45306 -5.33599 0
M  V30 5110 H 469.066 -2.7708 -3.77285 0
M  V30 5111 H 469.239 -4.0364 -5.06931 0
M  V30 5112 N 462.645 1.35699 -0.801477 0
M  V30 5113 C 463.873 2.03157 -0.391768 0
M  V30 5114 C 464.288 1.60412 0.995668 0
M  V30 5115 O 463.645 0.799228 1.64069 0
M  V30 5116 C 463.696 3.58566 -0.459671 0
M  V30 5117 O 463.417 3.99756 -1.7924 0
M  V30 5118 C 464.918 4.4328 -0.0421205 0
M  V30 5119 H 462.138 0.651688 -0.159825 0
M  V30 5120 H 464.682 1.73426 -1.08368 0
M  V30 5121 H 462.837 3.86963 0.183939 0
M  V30 5122 H 463.251 4.94387 -1.75162 0
M  V30 5123 H 464.725 5.51821 -0.140754 0
M  V30 5124 H 465.202 4.27383 1.01196 0
M  V30 5125 H 465.808 4.20168 -0.658687 0
M  V30 5126 N 464.123 0.554532 1.47522 0
M  V30 5127 C 465.033 -0.197865 2.33764 0
M  V30 5128 C 466.049 -0.914576 1.48025 0
M  V30 5129 O 467.225 -0.884067 1.80959 0
M  V30 5130 C 464.29 -1.21628 3.24665 0
M  V30 5131 C 463.351 -0.507283 4.26292 0
M  V30 5132 C 462.584 -1.47718 5.1285 0
M  V30 5133 O 462.807 -2.7118 5.01814 0
M  V30 5134 O 461.741 -1.00313 5.93482 0
M  V30 5135 H 465.567 0.50949 2.99396 0
M  V30 5136 H 463.152 0.315176 1.46038 0
M  V30 5137 H 465.034 -1.80421 3.80823 0
M  V30 5138 H 463.709 -1.9056 2.61665 0
M  V30 5139 H 462.616 0.121778 3.73902 0
M  V30 5140 H 463.949 0.140544 4.91999 0
M  V30 5141 N 465.601 -1.54893 0.290851 0
M  V30 5142 C 466.548 -2.23138 -0.58974 0
M  V30 5143 C 467.518 -1.21036 -1.13752 0
M  V30 5144 O 468.703 -1.49626 -1.18392 0
M  V30 5145 C 465.843 -2.96811 -1.76061 0
M  V30 5146 C 464.956 -4.13665 -1.24519 0
M  V30 5147 C 464.091 -4.74944 -2.3791 0
M  V30 5148 C 463.13 -5.83963 -1.83451 0
M  V30 5149 N 462.267 -6.39239 -2.90376 0
M  V30 5150 H 467.107 -2.98 -0.00114915 0
M  V30 5151 H 464.644 -1.47096 0.0112006 0
M  V30 5152 H 466.602 -3.37751 -2.44909 0
M  V30 5153 H 465.232 -2.24344 -2.32098 0
M  V30 5154 H 464.284 -3.77737 -0.449288 0
M  V30 5155 H 465.596 -4.92238 -0.806424 0
M  V30 5156 H 464.75 -5.18684 -3.14724 0
M  V30 5157 H 463.489 -3.95682 -2.85109 0
M  V30 5158 H 462.494 -5.39657 -1.05122 0
M  V30 5159 H 463.719 -6.65103 -1.37169 0
M  V30 5160 H 461.665 -5.62864 -3.36927 0
M  V30 5161 H 461.582 -7.13129 -2.50965 0
M  V30 5162 H 462.85 -6.87637 -3.67118 0
M  V30 5163 N 467.08 -0.0183926 -1.57589 0
M  V30 5164 C 468.491 0.521927 -1.79256 0
M  V30 5165 C 468.842 1.72885 -0.927636 0
M  V30 5166 O 467.967 2.15978 -0.135091 0
M  V30 5167 C 468.562 0.953632 -3.25102 0
M  V30 5168 C 467.121 1.43913 -3.47801 0
M  V30 5169 C 466.268 0.398837 -2.74417 0
M  V30 5170 H 469.219 -0.244485 -1.56805 0
M  V30 5171 H 469.24 1.81863 -3.34224 0
M  V30 5172 H 468.752 0.0750123 -3.88028 0
M  V30 5173 H 466.853 2.33804 -2.90115 0
M  V30 5174 H 466.966 1.45391 -4.56507 0
M  V30 5175 H 465.33 0.864572 -2.39577 0
M  V30 5176 H 466.113 -0.471132 -3.40052 0
M  V30 5177 N 468.558 1.5553 0.254621 0
M  V30 5178 C 469.804 1.77262 0.985193 0
M  V30 5179 C 470.137 0.582286 1.85265 0
M  V30 5180 O 469.412 -0.419666 1.89919 0
M  V30 5181 C 469.695 3.0881 1.85225 0
M  V30 5182 C 469.548 4.38233 1.0135 0
M  V30 5183 C 470.867 3.3653 2.83612 0
M  V30 5184 H 467.986 0.644906 0.356742 0
M  V30 5185 H 470.628 1.88264 0.256236 0
M  V30 5186 H 468.778 2.99562 2.47376 0
M  V30 5187 H 470.45 4.59463 0.411269 0
M  V30 5188 H 468.693 4.32636 0.317574 0
M  V30 5189 H 469.364 5.26644 1.65379 0
M  V30 5190 H 471.84 3.45691 2.31596 0
M  V30 5191 H 470.716 4.29805 3.41407 0
M  V30 5192 H 470.977 2.57064 3.59681 0
M  V30 5193 N 470.036 -0.519951 1.48776 0
M  V30 5194 C 470.966 -1.63253 1.66945 0
M  V30 5195 C 471.947 -1.62014 0.518224 0
M  V30 5196 O 473.132 -1.79053 0.751919 0
M  V30 5197 C 470.262 -3.0181 1.71836 0
M  V30 5198 C 469.216 -3.17911 2.8656 0
M  V30 5199 C 468.542 -4.5763 2.76548 0
M  V30 5200 C 469.842 -2.99729 4.27738 0
M  V30 5201 H 471.536 -1.48302 2.6009 0
M  V30 5202 H 469.082 -0.712026 1.25165 0
M  V30 5203 H 471.035 -3.79525 1.83135 0
M  V30 5204 H 469.759 -3.17806 0.752775 0
M  V30 5205 H 468.418 -2.42616 2.74833 0
M  V30 5206 H 468.066 -4.70476 1.77937 0
M  V30 5207 H 467.766 -4.69346 3.53536 0
M  V30 5208 H 469.29 -5.37431 2.89828 0
M  V30 5209 H 470.704 -3.67228 4.40246 0
M  V30 5210 H 469.101 -3.22932 5.05801 0
M  V30 5211 H 470.171 -1.96047 4.43502 0
M  V30 5212 N 471.514 -1.37532 -0.769588 0
M  V30 5213 C 472.76 -1.33057 -1.53048 0
M  V30 5214 C 473.093 0.0841865 -1.94017 0
M  V30 5215 O 472.368 1.04198 -1.64235 0
M  V30 5216 C 472.651 -2.27166 -2.79406 0
M  V30 5217 C 472.504 -3.77429 -2.44677 0
M  V30 5218 C 473.823 -2.19683 -3.81349 0
M  V30 5219 H 470.942 -0.484655 -0.555228 0
M  V30 5220 H 473.584 -1.68251 -0.882702 0
M  V30 5221 H 471.734 -1.97283 -3.34682 0
M  V30 5222 H 473.406 -4.17918 -1.953 0
M  V30 5223 H 471.649 -3.95892 -1.77346 0
M  V30 5224 H 472.32 -4.38716 -3.35011 0
M  V30 5225 H 474.796 -2.46029 -3.35573 0
M  V30 5226 H 473.672 -2.87668 -4.67481 0
M  V30 5227 H 473.933 -1.19045 -4.25771 0
M  V30 5228 N 472.992 0.995999 -1.22138 0
M  V30 5229 C 473.94 2.10673 -0.985876 0
M  V30 5230 C 474.934 1.69255 0.0699553 0
M  V30 5231 O 476.14 1.79812 -0.0822176 0
M  V30 5232 H 472.515 0.688865 -0.30161 0
M  V30 5233 H 474.486 2.27711 -1.92848 0
M  V30 5234 C 473.235 3.42881 -0.576909 0
M  V30 5235 H 472.558 3.75191 -1.38101 0
M  V30 5236 H 473.998 4.21589 -0.451518 0
M  V30 5237 C 472.457 3.29265 0.713196 0
M  V30 5238 O 472.987 3.60777 1.76643 0
M  V30 5239 N 471.193 2.82456 0.683162 0
M  V30 5240 H 470.74 2.5701 -0.174242 0
M  V30 5241 H 470.698 2.73727 1.54663 0
M  V30 5242 N 474.47 1.03057 1.19235 0
M  V30 5243 C 475.38 0.622922 2.26179 0
M  V30 5244 C 476.396 -0.346113 1.70523 0
M  V30 5245 O 477.572 -0.203572 2.00369 0
M  V30 5246 C 474.637 -0.0182063 3.46695 0
M  V30 5247 C 473.698 0.998546 4.17526 0
M  V30 5248 C 472.931 0.387917 5.32288 0
M  V30 5249 O 473.154 -0.808668 5.64639 0
M  V30 5250 O 472.088 1.1116 5.91546 0
M  V30 5251 H 475.914 1.51363 2.63292 0
M  V30 5252 H 473.499 0.800856 1.26122 0
M  V30 5253 H 475.381 -0.375606 4.19723 0
M  V30 5254 H 474.056 -0.882895 3.11427 0
M  V30 5255 H 472.963 1.40756 3.4661 0
M  V30 5256 H 474.296 1.83366 4.56769 0
M  V30 5257 N 475.948 -1.35272 0.808662 0
M  V30 5258 C 477.196 -1.98316 0.389233 0
M  V30 5259 C 477.517 -1.64465 -1.04767 0
M  V30 5260 O 476.787 -0.928175 -1.72516 0
M  V30 5261 H 475.367 -0.733585 0.140935 0
M  V30 5262 H 478.029 -1.6515 1.03496 0
M  V30 5263 H 477.125 -3.08123 0.496631 0
M  V30 5264 N 477.426 -0.562348 -1.47226 0
M  V30 5265 C 478.373 0.182461 -2.30078 0
M  V30 5266 C 479.343 0.903503 -1.39377 0
M  V30 5267 O 480.528 0.898188 -1.68337 0
M  V30 5268 C 477.668 1.20322 -3.23445 0
M  V30 5269 C 476.781 0.487717 -4.29238 0
M  V30 5270 C 475.916 1.49422 -5.09752 0
M  V30 5271 C 474.955 0.763976 -6.07314 0
M  V30 5272 N 474.092 1.71755 -6.80768 0
M  V30 5273 H 478.932 -0.530169 -2.93246 0
M  V30 5274 H 476.469 -0.273276 -1.44539 0
M  V30 5275 H 478.427 1.80768 -3.76004 0
M  V30 5276 H 477.057 1.88382 -2.6213 0
M  V30 5277 H 476.109 -0.231374 -3.79696 0
M  V30 5278 H 477.421 -0.0841003 -4.98729 0
M  V30 5279 H 476.575 2.17206 -5.66486 0
M  V30 5280 H 475.314 2.09995 -4.40174 0
M  V30 5281 H 474.319 0.0722344 -5.49753 0
M  V30 5282 H 475.544 0.16391 -6.78902 0
M  V30 5283 H 473.49 2.31177 -6.13916 0
M  V30 5284 H 473.407 1.19802 -7.46447 0
M  V30 5285 H 474.675 2.38638 -7.42073 0
M  V30 5286 N 478.904 1.54736 -0.299062 0
M  V30 5287 C 479.851 2.23448 0.577899 0
M  V30 5288 C 480.821 1.21637 1.13109 0
M  V30 5289 O 482.006 1.50252 1.17597 0
M  V30 5290 C 479.146 2.9774 1.74484 0
M  V30 5291 C 478.259 4.1432 1.22323 0
M  V30 5292 C 477.394 4.76199 2.35388 0
M  V30 5293 C 476.433 5.84927 1.80351 0
M  V30 5294 N 475.57 6.4077 2.86982 0
M  V30 5295 H 480.41 2.97996 -0.0146545 0
M  V30 5296 H 477.947 1.47088 -0.0190013 0
M  V30 5297 H 479.905 3.39045 2.43114 0
M  V30 5298 H 478.535 2.25572 2.30905 0
M  V30 5299 H 477.587 3.7797 0.429249 0
M  V30 5300 H 478.899 4.92659 0.780309 0
M  V30 5301 H 478.053 5.20346 3.11969 0
M  V30 5302 H 476.792 3.97188 2.83006 0
M  V30 5303 H 475.797 5.40207 1.02259 0
M  V30 5304 H 477.022 6.65821 1.3364 0
M  V30 5305 H 474.968 5.64643 3.33938 0
M  V30 5306 H 474.885 7.1445 2.4718 0
M  V30 5307 H 476.153 6.89574 3.63466 0
M  V30 5308 N 480.382 0.0267497 1.57577 0
M  V30 5309 C 481.63 -0.651116 1.91324 0
M  V30 5310 C 481.951 -1.72804 0.90353 0
M  V30 5311 O 481.221 -1.95822 -0.0552946 0
M  V30 5312 H 479.801 -0.243491 0.706202 0
M  V30 5313 H 482.463 0.0739935 1.94759 0
M  V30 5314 H 481.559 -1.10536 2.9187 0
M  V30 5315 N 481.861 -1.55662 -0.24637 0
M  V30 5316 C 483.108 -1.77519 -0.974335 0
M  V30 5317 C 483.436 -0.591165 -1.85298 0
M  V30 5318 O 482.691 0.425497 -1.91018 0
M  V30 5319 C 482.99 -3.04885 -1.86494 0
M  V30 5320 C 482.656 -4.36209 -1.14161 0
M  V30 5321 C 481.318 -4.71896 -0.941701 0
M  V30 5322 C 483.67 -5.17391 -0.628957 0
M  V30 5323 C 480.998 -5.86299 -0.216852 0
M  V30 5324 C 483.35 -6.32546 0.0824273 0
M  V30 5325 C 482.014 -6.66853 0.293807 0
M  V30 5326 H 481.284 -0.649588 -0.356535 0
M  V30 5327 H 483.931 -1.89934 -0.244394 0
M  V30 5328 H 482.236 -2.87484 -2.66196 0
M  V30 5329 H 483.933 -3.18994 -2.42989 0
M  V30 5330 H 480.523 -4.08174 -1.30736 0
M  V30 5331 H 484.707 -4.90276 -0.770943 0
M  V30 5332 H 479.963 -6.11385 -0.0426124 0
M  V30 5333 H 484.137 -6.94693 0.487292 0
M  V30 5334 H 481.764 -7.55349 0.857428 0
M  V30 5335 N 483.339 0.512053 -1.4905 0
M  V30 5336 C 484.567 1.29116 -1.61669 0
M  V30 5337 C 484.982 1.86655 -0.283787 0
M  V30 5338 O 484.339 1.67293 0.729331 0
M  V30 5339 C 484.39 2.4293 -2.67707 0
M  V30 5340 O 484.111 1.87758 -3.95826 0
M  V30 5341 C 485.612 3.34476 -2.90931 0
M  V30 5342 H 482.832 0.392009 -0.544583 0
M  V30 5343 H 485.376 0.615881 -1.95006 0
M  V30 5344 H 483.531 3.06308 -2.37179 0
M  V30 5345 H 483.945 2.62393 -4.54148 0
M  V30 5346 H 485.419 4.10642 -3.68886 0
M  V30 5347 H 485.896 3.90801 -2.00427 0
M  V30 5348 H 486.502 2.76874 -3.22832 0
M  V30 5349 N 484.817 1.37938 0.762283 0
M  V30 5350 C 486.094 1.24196 1.51112 0
M  V30 5351 C 486.474 -0.160409 2.1049 0
M  V30 5352 O 485.822 -1.16904 1.96331 0
M  V30 5353 C 486.032 2.34537 2.58445 0
M  V30 5354 C 487.38 2.7254 3.25588 0
M  V30 5355 O 488.404 2.33783 2.68745 0
M  V30 5356 O 487.263 3.39343 4.28379 0
M  V30 5357 H 484.357 0.485175 0.669727 0
M  V30 5358 H 486.903 1.49743 0.798438 0
M  V30 5359 H 485.675 3.28406 2.12756 0
M  V30 5360 H 485.298 2.10505 3.37303 0
M  V30 5361 N 486.295 -0.989507 1.22664 0
M  V30 5362 C 487.706 -1.54406 1.04955 0
M  V30 5363 C 488.057 -1.92366 -0.385951 0
M  V30 5364 O 487.182 -1.75111 -1.27142 0
M  V30 5365 C 487.777 -2.80578 1.89899 0
M  V30 5366 C 486.336 -3.32464 1.76478 0
M  V30 5367 C 485.483 -2.05524 1.86159 0
M  V30 5368 H 488.434 -0.810211 1.3646 0
M  V30 5369 H 488.455 -3.53075 1.4184 0
M  V30 5370 H 487.967 -2.52918 2.94371 0
M  V30 5371 H 486.068 -3.65024 0.747528 0
M  V30 5372 H 486.181 -4.02838 2.59342 0
M  V30 5373 H 484.545 -2.19241 1.29636 0
M  V30 5374 H 485.328 -1.80258 2.92168 0
M  V30 5375 N 487.773 -1.03688 -1.18687 0
M  V30 5376 C 488.998 -0.757819 -1.93059 0
M  V30 5377 C 489.423 0.678353 -1.75442 0
M  V30 5378 O 488.781 1.46938 -1.06203 0
M  V30 5379 C 488.829 -1.12423 -3.42627 0
M  V30 5380 O 487.933 -0.247505 -4.11657 0
M  V30 5381 H 487.274 -0.279245 -0.602427 0
M  V30 5382 H 489.804 -1.3857 -1.5053 0
M  V30 5383 H 489.814 -1.08454 -3.93322 0
M  V30 5384 H 488.489 -2.17049 -3.54771 0
M  V30 5385 H 487.066 -0.34649 -3.71287 0
M  V30 5386 N 489.251 1.34841 -0.815825 0
M  V30 5387 C 490.497 1.98793 -0.401129 0
M  V30 5388 C 490.83 1.64548 1.03139 0
M  V30 5389 O 490.105 0.913487 1.71714 0
M  V30 5390 C 490.388 3.55143 -0.595409 0
M  V30 5391 C 490.241 3.99155 -2.07352 0
M  V30 5392 C 491.56 4.40092 -0.0268823 0
M  V30 5393 H 488.679 0.722146 -0.14722 0
M  V30 5394 H 491.321 1.59847 -1.02707 0
M  V30 5395 H 489.471 3.8845 -0.0625779 0
M  V30 5396 H 491.143 3.76216 -2.66945 0
M  V30 5397 H 489.386 3.49726 -2.56659 0
M  V30 5398 H 490.057 5.07971 -2.1603 0
M  V30 5399 H 492.533 4.13298 -0.482042 0
M  V30 5400 H 491.409 5.48562 -0.19267 0
M  V30 5401 H 491.67 4.29016 1.06759 0
M  V30 5402 N 490.729 0.570148 1.46925 0
M  V30 5403 C 491.639 -0.173061 2.33961 0
M  V30 5404 C 492.655 -0.898825 1.48987 0
M  V30 5405 O 493.831 -0.864825 1.81887 0
M  V30 5406 C 490.896 -1.18177 3.25937 0
M  V30 5407 C 489.957 -0.462041 4.26806 0
M  V30 5408 C 489.19 -1.4227 5.14388 0
M  V30 5409 O 489.413 -2.65842 5.04662 0
M  V30 5410 O 488.347 -0.940127 5.94513 0
M  V30 5411 H 492.173 0.541216 2.98839 0
M  V30 5412 H 489.758 0.330647 1.45695 0
M  V30 5413 H 491.64 -1.76372 3.82715 0
M  V30 5414 H 490.315 -1.87774 2.63671 0
M  V30 5415 H 489.222 0.161429 3.73752 0
M  V30 5416 H 490.555 0.192719 4.91823 0
M  V30 5417 N 492.207 -1.54576 0.307264 0
M  V30 5418 C 493.456 -1.99442 -0.300976 0
M  V30 5419 C 493.769 -1.19928 -1.5452 0
M  V30 5420 O 494.975 -1.55092 -2.22842 0
M  V30 5421 C 493.431 -3.55084 -0.586809 0
M  V30 5422 C 493.039 -4.43413 0.639438 0
M  V30 5423 C 494.783 -4.0846 -1.1559 0
M  V30 5424 C 492.69 -5.90499 0.326411 0
M  V30 5425 H 491.62 -0.744986 -0.116238 0
M  V30 5426 H 494.271 -1.787 0.416947 0
M  V30 5427 H 492.653 -3.71749 -1.36449 0
M  V30 5428 H 493.827 -4.38522 1.41545 0
M  V30 5429 H 492.142 -4.00842 1.1276 0
M  V30 5430 H 494.739 -5.15926 -1.40445 0
M  V30 5431 H 495.082 -3.59443 -2.10015 0
M  V30 5432 H 495.615 -3.95362 -0.439778 0
M  V30 5433 H 492.354 -6.43676 1.23939 0
M  V30 5434 H 491.874 -5.98382 -0.412212 0
M  V30 5435 H 493.553 -6.46962 -0.0697393 0
M  V30 5436 O 493.724 -0.174109 -1.60559 0
M  V30 5437 H 494.415 0.415114 -1.892 0
M  V30 END ATOM
M  V30 BEGIN BOND
M  V30 END BOND
M  V30 END CTAB
M  END
$$$$
