drugbank_target|Q9PPP5 Thymidine kinase (DB02452)
 OpenBabel12092120013D

  0  0  0     0  0            999 V3000
M  V30 BEGIN CTAB
M  V30 COUNTS 3590 3626 0 0 0
M  V30 BEGIN ATOM
M  V30 1 H -0.908 1.98254 -0.117106 0
M  V30 2 N 0 1.576 0 0
M  V30 3 C 0.933 2.03868 1.02534 0
M  V30 4 C 1.911 0.928543 1.3348 0
M  V30 5 O 3.095 1.19667 1.45644 0
M  V30 6 C 0.222 2.43627 2.35294 0
M  V30 7 C -0.732 3.65373 2.2001 0
M  V30 8 S 0.101 5.13292 1.52614 0
M  V30 9 C 1.257 5.56322 2.86805 0
M  V30 10 H 1.49 2.90518 0.631377 0
M  V30 11 H -0.977 1.52953 0.210867 0
M  V30 12 H 0.981 2.67203 3.11629 0
M  V30 13 H -0.358 1.57376 2.7183 0
M  V30 14 H -1.165 3.90944 3.18086 0
M  V30 15 H -1.563 3.418 1.51819 0
M  V30 16 H 0.729 5.58782 3.83104 0
M  V30 17 H 1.672 6.56266 2.65933 0
M  V30 18 H 2.08 4.83886 2.90714 0
M  V30 19 N 1.4781 -0.272755 1.55222 0
M  V30 20 C 2.4411 -1.32041 1.87344 0
M  V30 21 C 3.4411 -1.42342 0.74803 0
M  V30 22 O 4.6311 -1.41488 1.0162 0
M  V30 23 C 1.7631 -2.70173 2.07893 0
M  V30 24 H 2.9561 -1.04789 2.80997 0
M  V30 25 H 0.5091 -0.51083 1.47717 0
M  V30 26 H 1.2441 -3.02605 1.16622 0
M  V30 27 H 1.0291 -2.64082 2.89833 0
M  V30 28 H 2.5191 -3.45869 2.34017 0
M  V30 29 N 2.9562 -1.48159 -0.537278 0
M  V30 30 C 3.9032 -1.62138 -1.64256 0
M  V30 31 C 4.8732 -0.463668 -1.59497 0
M  V30 32 O 6.0582 -0.686241 -1.78032 0
M  V30 33 C 3.1982 -1.66028 -3.02537 0
M  V30 34 C 2.3112 -2.92855 -3.17585 0
M  V30 35 C 1.4462 -2.87952 -4.46382 0
M  V30 36 C 0.4852 -4.09516 -4.54932 0
M  V30 37 N -0.3778 -4.02733 -5.75109 0
M  V30 38 H 4.4622 -2.56529 -1.51647 0
M  V30 39 H 1.9992 -1.27224 -0.738414 0
M  V30 40 H 3.9572 -1.66265 -3.82638 0
M  V30 41 H 2.5872 -0.751331 -3.13934 0
M  V30 42 H 1.6392 -3.02395 -2.30784 0
M  V30 43 H 2.9512 -3.82822 -3.19764 0
M  V30 44 H 2.1052 -2.8655 -5.34765 0
M  V30 45 H 0.8442 -1.95702 -4.46712 0
M  V30 46 H -0.1508 -4.11201 -3.64957 0
M  V30 47 H 1.0742 -5.02917 -4.56346 0
M  V30 48 H -0.9798 -3.13299 -5.76351 0
M  V30 49 H -1.0628 -4.86397 -5.78752 0
M  V30 50 H 0.2052 -4.05379 -6.65799 0
M  V30 51 N 4.4343 0.785586 -1.36625 0
M  V30 52 C 5.6803 1.54591 -1.31261 0
M  V30 53 C 6.0133 1.93906 0.106823 0
M  V30 54 O 5.2883 1.63007 1.06108 0
M  V30 55 C 5.5713 2.82038 -2.23889 0
M  V30 56 C 5.4243 2.49066 -3.74548 0
M  V30 57 C 6.7433 3.83887 -2.15217 0
M  V30 58 H 3.8623 0.560846 -0.478143 0
M  V30 59 H 6.5043 0.902278 -1.67209 0
M  V30 60 H 4.6543 3.36961 -1.93363 0
M  V30 61 H 6.3263 2.00164 -4.15611 0
M  V30 62 H 4.5693 1.81954 -3.93796 0
M  V30 63 H 5.2403 3.40109 -4.34776 0
M  V30 64 H 7.7163 3.38421 -2.42096 0
M  V30 65 H 6.5923 4.70806 -2.82193 0
M  V30 66 H 6.8533 4.27131 -1.14068 0
M  V30 67 N 5.9124 1.20967 1.01018 0
M  V30 68 C 6.8604 0.961223 2.1181 0
M  V30 69 C 7.8544 -0.0897034 1.69162 0
M  V30 70 O 9.0604 0.0612271 1.79896 0
M  V30 71 H 5.4354 0.29355 0.692338 0
M  V30 72 H 7.4064 1.90178 2.29946 0
M  V30 73 C 6.1554 0.536854 3.4353 0
M  V30 74 H 5.4784 1.33713 3.76777 0
M  V30 75 H 6.9184 0.402286 4.22087 0
M  V30 76 C 5.3774 -0.751574 3.2841 0
M  V30 77 O 5.9074 -1.80841 3.58691 0
M  V30 78 N 4.1134 -0.716079 2.81639 0
M  V30 79 H 3.6604 0.144236 2.57196 0
M  V30 80 H 3.6184 -1.57847 2.71904 0
M  V30 81 N 7.3905 -1.2043 1.01659 0
M  V30 82 C 8.3535 -2.21433 0.591616 0
M  V30 83 C 9.3535 -1.57203 -0.338226 0
M  V30 84 O 10.5435 -1.73737 -0.126918 0
M  V30 85 C 7.6755 -3.40628 -0.136058 0
M  V30 86 H 8.8685 -2.60545 1.48514 0
M  V30 87 H 6.4215 -1.33893 0.806379 0
M  V30 88 H 7.1565 -3.07019 -1.04449 0
M  V30 89 H 6.9415 -3.88475 0.531917 0
M  V30 90 H 8.4315 -4.15475 -0.420735 0
M  V30 91 N 8.8686 -0.792821 -1.36206 0
M  V30 92 C 10.1156 -0.366786 -1.99151 0
M  V30 93 C 10.4436 1.06243 -1.62919 0
M  V30 94 O 9.6986 1.74927 -0.877442 0
M  V30 95 C 9.9976 -0.481501 -3.54142 0
M  V30 96 C 9.6636 -1.87202 -4.10203 0
M  V30 97 C 8.3256 -2.25248 -4.25226 0
M  V30 98 C 10.6776 -2.78237 -4.40719 0
M  V30 99 C 8.0056 -3.53723 -4.68078 0
M  V30 100 C 10.3576 -4.06144 -4.85005 0
M  V30 101 C 9.0216 -4.44207 -4.98234 0
M  V30 102 H 8.2916 -0.134217 -0.728743 0
M  V30 103 H 10.9386 -1.01094 -1.62641 0
M  V30 104 H 9.2436 0.246146 -3.91026 0
M  V30 105 H 10.9406 -0.132844 -4.0078 0
M  V30 106 H 7.5306 -1.56639 -3.98951 0
M  V30 107 H 11.7146 -2.50097 -4.28679 0
M  V30 108 H 6.9706 -3.8308 -4.76508 0
M  V30 109 H 11.1446 -4.76796 -5.07581 0
M  V30 110 H 8.7716 -5.43814 -5.31197 0
M  V30 111 N 10.3467 1.47872 -0.545128 0
M  V30 112 C 11.5717 2.07391 -0.0190611 0
M  V30 113 C 11.9967 1.39688 1.25971 0
M  V30 114 O 11.3547 0.467816 1.7516 0
M  V30 115 C 11.4027 3.60188 0.172335 0
M  V30 116 O 10.5067 3.9339 1.23766 0
M  V30 117 H 9.8477 0.662411 -0.0459059 0
M  V30 118 H 12.3777 1.90066 -0.757365 0
M  V30 119 H 12.3877 4.06129 0.390305 0
M  V30 120 H 11.0627 4.08865 -0.761725 0
M  V30 121 H 9.6397 3.5921 1.00114 0
M  V30 122 N 11.8248 0.280983 1.55075 0
M  V30 123 C 12.7718 -0.603937 2.22758 0
M  V30 124 C 13.7418 -1.1452 1.20309 0
M  V30 125 O 14.9268 -1.19343 1.48869 0
M  V30 126 C 12.0668 -1.77947 2.95684 0
M  V30 127 C 11.1798 -1.2715 4.12864 0
M  V30 128 C 10.3148 -2.4093 4.7342 0
M  V30 129 C 9.3538 -1.87165 5.82783 0
M  V30 130 N 8.4908 -2.94441 6.37377 0
M  V30 131 H 13.3308 -0.020124 2.97993 0
M  V30 132 H 10.8678 0.00183425 1.471 0
M  V30 133 H 12.8258 -2.47055 3.36184 0
M  V30 134 H 11.4558 -2.33522 2.22861 0
M  V30 135 H 10.5078 -0.473331 3.77444 0
M  V30 136 H 11.8198 -0.837751 4.91715 0
M  V30 137 H 10.9738 -3.18021 5.1667 0
M  V30 138 H 9.7128 -2.87623 3.93859 0
M  V30 139 H 8.7178 -1.08556 5.38976 0
M  V30 140 H 9.9428 -1.41401 6.64216 0
M  V30 141 H 7.8888 -3.40505 5.60707 0
M  V30 142 H 7.8058 -2.55501 7.11516 0
M  V30 143 H 9.0738 -3.71489 6.85285 0
M  V30 144 N 13.3029 -1.57598 0.00835791 0
M  V30 145 C 14.2499 -2.08945 -0.980346 0
M  V30 146 C 15.2199 -0.986738 -1.33614 0
M  V30 147 O 16.4049 -1.25968 -1.43306 0
M  V30 148 C 13.5449 -2.60425 -2.26435 0
M  V30 149 C 12.6579 -3.84628 -1.96685 0
M  V30 150 C 11.7929 -4.24579 -3.19228 0
M  V30 151 C 10.8319 -5.41596 -2.85202 0
M  V30 152 N 9.9689 -5.768 -4.00307 0
M  V30 153 H 14.8089 -2.93148 -0.535551 0
M  V30 154 H 12.3459 -1.44912 -0.252776 0
M  V30 155 H 14.3039 -2.88354 -3.01509 0
M  V30 156 H 12.9339 -1.79083 -2.68568 0
M  V30 157 H 11.9859 -3.63556 -1.11942 0
M  V30 158 H 13.2979 -4.69796 -1.67611 0
M  V30 159 H 12.4519 -4.53834 -4.02641 0
M  V30 160 H 11.1909 -3.38137 -3.51447 0
M  V30 161 H 10.1959 -5.12056 -2.00198 0
M  V30 162 H 11.4209 -6.29721 -2.54222 0
M  V30 163 H 9.3669 -4.93316 -4.32407 0
M  V30 164 H 9.2839 -6.5656 -3.74786 0
M  V30 165 H 10.5519 -6.10652 -4.84484 0
M  V30 166 N 14.781 0.264519 -1.55364 0
M  V30 167 C 16.03 0.992812 -1.75574 0
M  V30 168 C 16.343 1.87142 -0.568979 0
M  V30 169 O 17.549 2.63513 -0.653682 0
M  V30 170 C 16.005 1.81519 -3.10771 0
M  V30 171 C 15.613 0.984839 -4.37041 0
M  V30 172 C 17.357 2.53727 -3.40327 0
M  V30 173 C 15.264 1.80209 -5.63275 0
M  V30 174 H 14.194 0.374412 -0.65447 0
M  V30 175 H 16.845 0.248138 -1.81815 0
M  V30 176 H 15.227 2.60115 -2.98591 0
M  V30 177 H 16.401 0.242455 -4.60162 0
M  V30 178 H 14.716 0.37691 -4.14691 0
M  V30 179 H 17.313 3.15292 -4.3185 0
M  V30 180 H 17.656 3.24447 -2.60845 0
M  V30 181 H 18.189 1.82156 -3.53644 0
M  V30 182 H 14.928 1.13896 -6.45529 0
M  V30 183 H 14.448 2.52022 -5.44284 0
M  V30 184 H 16.127 2.37364 -6.01887 0
M  V30 185 N 16.2591 1.48442 0.529413 0
M  V30 186 C 17.5071 1.56179 1.28267 0
M  V30 187 C 17.8281 0.237721 1.93546 0
M  V30 188 O 17.0981 -0.740779 1.81354 0
M  V30 189 H 15.6781 0.575367 0.476405 0
M  V30 190 H 18.3401 1.84909 0.61602 0
M  V30 191 H 17.4361 2.34312 2.06165 0
M  V30 192 N 17.7372 -0.778329 1.37039 0
M  V30 193 C 18.9832 -1.53817 1.33086 0
M  V30 194 C 19.3382 -1.92208 -0.0860346 0
M  V30 195 O 18.6312 -1.60713 -1.04316 0
M  V30 196 C 18.8252 -2.81845 2.19768 0
M  V30 197 C 18.6542 -2.55967 3.69744 0
M  V30 198 C 17.4242 -2.50428 4.38878 0
M  V30 199 C 19.6222 -2.2441 4.62758 0
M  V30 200 N 17.6042 -2.16564 5.74433 0
M  V30 201 C 18.9752 -2.0063 5.86641 0
M  V30 202 C 21.0302 -2.1051 4.5121 0
M  V30 203 C 19.7332 -1.64354 7.00272 0
M  V30 204 C 21.7592 -1.75634 5.64718 0
M  V30 205 C 21.1212 -1.52709 6.87648 0
M  V30 206 H 17.2202 -0.563434 0.542279 0
M  V30 207 H 19.8042 -0.908617 1.72198 0
M  V30 208 H 17.9752 -3.42649 1.82883 0
M  V30 209 H 19.7072 -3.47682 2.07122 0
M  V30 210 H 16.4622 -2.66056 3.91805 0
M  V30 211 H 16.8862 -2.02348 6.46053 0
M  V30 212 H 21.5282 -2.26919 3.56746 0
M  V30 213 H 19.2462 -1.46683 7.94676 0
M  V30 214 H 22.8322 -1.65546 5.57751 0
M  V30 215 H 21.7122 -1.2612 7.73992 0
M  V30 216 N 19.2153 -1.21501 -1.00376 0
M  V30 217 C 20.4643 -1.02718 -1.73586 0
M  V30 218 C 20.7773 0.439589 -1.90596 0
M  V30 219 O 21.9833 0.746848 -2.61026 0
M  V30 220 C 20.4393 -1.78929 -3.1227 0
M  V30 221 C 20.0473 -3.29783 -3.03228 0
M  V30 222 C 21.7913 -1.68557 -3.89601 0
M  V30 223 C 19.6983 -3.98479 -4.36999 0
M  V30 224 H 18.6283 -0.380733 -0.650814 0
M  V30 225 H 21.2793 -1.45248 -1.1214 0
M  V30 226 H 19.6613 -1.29192 -3.74333 0
M  V30 227 H 20.8353 -3.86832 -2.50395 0
M  V30 228 H 19.1503 -3.40711 -2.39385 0
M  V30 229 H 21.7473 -2.17211 -4.88593 0
M  V30 230 H 22.0903 -0.644021 -4.11288 0
M  V30 231 H 22.6233 -2.15778 -3.34193 0
M  V30 232 H 19.3623 -5.02841 -4.20513 0
M  V30 233 H 18.8823 -3.46219 -4.89788 0
M  V30 234 H 20.5613 -4.03462 -5.05794 0
M  V30 235 N 20.6934 1.19889 -1.02296 0
M  V30 236 C 21.6034 2.26571 -0.608508 0
M  V30 237 C 22.6194 1.70299 0.356964 0
M  V30 238 O 23.7954 2.00235 0.216326 0
M  V30 239 C 20.8604 3.46677 0.0402814 0
M  V30 240 C 19.9214 4.18153 -0.97194 0
M  V30 241 C 19.1544 5.32525 -0.354016 0
M  V30 242 O 19.3774 5.64112 0.844604 0
M  V30 243 O 18.3114 5.92242 -1.07391 0
M  V30 244 H 22.1374 2.64251 -1.49684 0
M  V30 245 H 19.7224 1.26629 -0.792809 0
M  V30 246 H 21.6044 4.19475 0.402324 0
M  V30 247 H 20.2794 3.10858 0.902707 0
M  V30 248 H 19.1864 3.47499 -1.38546 0
M  V30 249 H 20.5194 4.57927 -1.80454 0
M  V30 250 N 22.1715 0.800033 1.35784 0
M  V30 251 C 23.1015 0.220184 2.3246 0
M  V30 252 C 24.0825 -0.65073 1.57161 0
M  V30 253 O 25.2675 -0.582359 1.85263 0
M  V30 254 C 22.3975 -0.637353 3.41402 0
M  V30 255 C 21.3515 0.134531 4.27789 0
M  V30 256 C 20.6775 -0.844285 5.27992 0
M  V30 257 C 21.9775 1.32979 5.05088 0
M  V30 258 H 23.6715 1.02787 2.81203 0
M  V30 259 H 21.2175 0.495717 1.35199 0
M  V30 260 H 23.1705 -1.05302 4.08031 0
M  V30 261 H 21.8945 -1.47785 2.91251 0
M  V30 262 H 20.5535 0.531296 3.6273 0
M  V30 263 H 20.2015 -1.68011 4.74111 0
M  V30 264 H 19.9015 -0.332184 5.8666 0
M  V30 265 H 21.4255 -1.2583 5.97494 0
M  V30 266 H 22.8395 0.98934 5.64699 0
M  V30 267 H 21.2365 1.77593 5.7322 0
M  V30 268 H 22.3065 2.11978 4.36111 0
M  V30 269 N 23.6496 -1.47581 0.552962 0
M  V30 270 C 24.8986 -2.01684 0.0251995 0
M  V30 271 C 25.2116 -1.43317 -1.33115 0
M  V30 272 O 26.4176 -1.89057 -1.94858 0
M  V30 273 C 24.8736 -3.599 -0.00542052 0
M  V30 274 C 24.4816 -4.27257 1.34742 0
M  V30 275 C 26.2256 -4.21768 -0.4808 0
M  V30 276 C 24.1326 -5.77467 1.27614 0
M  V30 277 H 23.0626 -0.753979 0.00565033 0
M  V30 278 H 25.7136 -1.69616 0.70018 0
M  V30 279 H 24.0956 -3.88911 -0.745961 0
M  V30 280 H 25.2696 -4.09893 2.10534 0
M  V30 281 H 23.5846 -3.77358 1.76039 0
M  V30 282 H 26.1816 -5.31838 -0.55246 0
M  V30 283 H 26.5246 -3.88651 -1.49184 0
M  V30 284 H 27.0576 -3.97273 0.204752 0
M  V30 285 H 23.7966 -6.15196 2.26304 0
M  V30 286 H 23.3166 -5.9718 0.55996 0
M  V30 287 H 24.9956 -6.3959 0.976421 0
M  V30 288 N 25.1277 -0.289203 -1.54924 0
M  V30 289 C 26.3557 0.326463 -2.04308 0
M  V30 290 C 26.7707 1.48413 -1.16701 0
M  V30 291 O 26.1277 1.81507 -0.190087 0
M  V30 292 C 26.1787 0.794014 -3.52672 0
M  V30 293 O 25.8997 -0.317564 -4.36948 0
M  V30 294 C 27.4007 1.47605 -4.18004 0
M  V30 295 H 24.6207 0.0726272 -0.667058 0
M  V30 296 H 27.1647 -0.425401 -2.00026 0
M  V30 297 H 25.3197 1.49593 -3.57352 0
M  V30 298 H 25.7337 0.0443186 -5.24481 0
M  V30 299 H 27.2077 1.75447 -5.23376 0
M  V30 300 H 27.6847 2.41224 -3.67025 0
M  V30 301 H 28.2907 0.81762 -4.17367 0
M  V30 302 N 26.6058 1.57591 -0.0167156 0
M  V30 303 C 27.8538 1.90906 0.663285 0
M  V30 304 C 28.1748 0.892509 1.73376 0
M  V30 305 O 27.4448 -0.0677623 1.95783 0
M  V30 306 H 26.0248 0.704637 0.247983 0
M  V30 307 H 28.6868 1.94803 -0.0615909 0
M  V30 308 H 27.7828 2.9116 1.12393 0
M  V30 309 N 28.0839 -0.256276 1.55502 0
M  V30 310 C 29.4949 -0.826068 1.67431 0
M  V30 311 C 29.8459 -1.86396 0.612446 0
M  V30 312 O 28.9709 -2.15031 -0.243025 0
M  V30 313 C 29.5659 -1.50512 3.03532 0
M  V30 314 C 28.1249 -2.02273 3.17431 0
M  V30 315 C 27.2719 -0.870548 2.63281 0
M  V30 316 H 30.2229 -0.0322728 1.58667 0
M  V30 317 H 30.2439 -2.37279 2.97454 0
M  V30 318 H 29.7559 -0.749484 3.80794 0
M  V30 319 H 27.8569 -2.80746 2.44974 0
M  V30 320 H 27.9699 -2.22655 4.24219 0
M  V30 321 H 26.3339 -1.26851 2.20864 0
M  V30 322 H 27.1169 -0.128149 3.43061 0
M  V30 323 N 29.562 -1.4872 -0.521534 0
M  V30 324 C 30.495 -1.58451 -1.64221 0
M  V30 325 C 31.473 -0.434513 -1.56687 0
M  V30 326 O 32.657 -0.647275 -1.77038 0
M  V30 327 C 29.784 -1.52037 -3.02659 0
M  V30 328 C 28.83 -2.71981 -3.28525 0
M  V30 329 S 29.663 -4.33869 -3.13876 0
M  V30 330 C 30.819 -4.30067 -4.54745 0
M  V30 331 H 31.052 -2.53256 -1.55719 0
M  V30 332 H 28.585 -1.37358 -0.705143 0
M  V30 333 H 30.543 -1.49023 -3.82495 0
M  V30 334 H 29.204 -0.585541 -3.08594 0
M  V30 335 H 28.397 -2.63656 -4.29536 0
M  V30 336 H 27.999 -2.72302 -2.56374 0
M  V30 337 H 30.291 -4.00521 -5.46433 0
M  V30 338 H 31.234 -5.31287 -4.68123 0
M  V30 339 H 31.642 -3.60419 -4.34463 0
M  V30 340 N 31.0401 0.771051 -1.3745 0
M  V30 341 C 32.2871 1.52963 -1.32697 0
M  V30 342 C 32.6151 1.94299 0.0883274 0
M  V30 343 O 31.8701 1.64397 1.0617 0
M  V30 344 C 32.1691 2.80676 -2.2126 0
M  V30 345 C 31.8351 2.58389 -3.69521 0
M  V30 346 C 30.4971 2.52019 -4.09927 0
M  V30 347 C 32.8491 2.38469 -4.63446 0
M  V30 348 C 30.1771 2.23721 -5.42371 0
M  V30 349 C 32.5291 2.11694 -5.96128 0
M  V30 350 C 31.1931 2.03769 -6.35637 0
M  V30 351 H 30.4631 0.559732 -0.485573 0
M  V30 352 H 33.1101 0.888083 -1.69662 0
M  V30 353 H 31.4151 3.49392 -1.77291 0
M  V30 354 H 33.1121 3.38557 -2.14895 0
M  V30 355 H 29.7021 2.6421 -3.37478 0
M  V30 356 H 33.8861 2.4238 -4.33089 0
M  V30 357 H 29.1421 2.16081 -5.71943 0
M  V30 358 H 33.3161 1.9528 -6.6846 0
M  V30 359 H 30.9431 1.81606 -7.38189 0
M  V30 360 N 32.5182 1.22032 0.997298 0
M  V30 361 C 33.4812 0.987909 2.06816 0
M  V30 362 C 34.4812 -0.0440084 1.6074 0
M  V30 363 O 35.6712 0.194053 1.73116 0
M  V30 364 C 32.8032 0.49132 3.37341 0
M  V30 365 H 33.9962 1.93803 2.28868 0
M  V30 366 H 31.5492 1.03838 1.16822 0
M  V30 367 H 32.2842 -0.463364 3.20973 0
M  V30 368 H 32.0692 1.23575 3.72118 0
M  V30 369 H 33.5592 0.348824 4.16141 0
M  V30 370 N 33.9963 -1.19345 1.0293 0
M  V30 371 C 35.2443 -1.88665 0.724574 0
M  V30 372 C 35.5653 -1.80036 -0.749144 0
M  V30 373 O 34.8353 -1.2111 -1.53978 0
M  V30 374 H 33.4153 -0.698406 0.265025 0
M  V30 375 H 36.0773 -1.44885 1.30362 0
M  V30 376 H 35.1733 -2.94987 1.01926 0
M  V30 377 N 35.4744 -0.807222 -1.35358 0
M  V30 378 C 36.4214 -0.216037 -2.29787 0
M  V30 379 C 37.3914 0.650278 -1.52842 0
M  V30 380 O 38.5764 0.595227 -1.81278 0
M  V30 381 C 35.7164 0.628893 -3.39321 0
M  V30 382 C 34.8294 -0.257927 -4.31229 0
M  V30 383 C 33.9644 0.595069 -5.27856 0
M  V30 384 C 33.0034 -0.292111 -6.11403 0
M  V30 385 N 32.1404 0.520895 -7.00165 0
M  V30 386 H 36.9804 -1.02671 -2.79755 0
M  V30 387 H 34.5174 -0.517839 -1.37684 0
M  V30 388 H 36.4754 1.13393 -4.01494 0
M  V30 389 H 35.1054 1.40482 -2.90628 0
M  V30 390 H 34.1574 -0.881076 -3.70056 0
M  V30 391 H 35.4694 -0.940759 -4.89848 0
M  V30 392 H 34.6234 1.16522 -5.95405 0
M  V30 393 H 33.3624 1.31146 -4.69736 0
M  V30 394 H 32.3674 -0.874525 -5.428 0
M  V30 395 H 33.5924 -1.00638 -6.71602 0
M  V30 396 H 31.5384 1.22125 -6.44532 0
M  V30 397 H 31.4554 -0.103877 -7.55929 0
M  V30 398 H 32.7234 1.0743 -7.72062 0
M  V30 399 N 36.9525 1.47285 -0.560781 0
M  V30 400 C 38.1805 2.06855 -0.0430262 0
M  V30 401 C 38.5955 1.41291 1.25229 0
M  V30 402 O 37.9525 0.510648 1.7521 0
M  V30 403 C 38.0035 3.61178 0.152518 0
M  V30 404 O 37.7245 4.24285 -1.0915 0
M  V30 405 C 39.2255 4.37624 0.707145 0
M  V30 406 H 36.4455 0.669319 -0.0474652 0
M  V30 407 H 38.9895 1.89237 -0.77521 0
M  V30 408 H 37.1445 3.78298 0.834843 0
M  V30 409 H 37.5585 5.16868 -0.891482 0
M  V30 410 H 39.0325 5.46271 0.793244 0
M  V30 411 H 39.5095 4.04152 1.71923 0
M  V30 412 H 40.1155 4.25257 0.0604027 0
M  V30 413 N 38.4306 0.297415 1.54768 0
M  V30 414 C 39.3936 -0.567375 2.22066 0
M  V30 415 C 40.3936 -1.06409 1.20556 0
M  V30 416 O 41.5836 -0.960691 1.45315 0
M  V30 417 C 38.7156 -1.78517 2.90421 0
M  V30 418 H 39.9086 0.0205534 2.99893 0
M  V30 419 H 37.4616 0.0482163 1.56226 0
M  V30 420 H 38.1966 -2.41303 2.16664 0
M  V30 421 H 37.9816 -1.43669 3.64831 0
M  V30 422 H 39.4716 -2.39964 3.41771 0
M  V30 423 N 39.9087 -1.5758 0.0250728 0
M  V30 424 C 40.8187 -2.1343 -0.973905 0
M  V30 425 C 41.8347 -1.08556 -1.35984 0
M  V30 426 O 43.0107 -1.40592 -1.44207 0
M  V30 427 C 40.0757 -2.64703 -2.23904 0
M  V30 428 C 39.1367 -3.84276 -1.91391 0
M  V30 429 C 38.3697 -4.33095 -3.11873 0
M  V30 430 O 38.5927 -3.81107 -4.24398 0
M  V30 431 O 37.5267 -5.24984 -2.94406 0
M  V30 432 H 41.3527 -2.99057 -0.529036 0
M  V30 433 H 38.9377 -1.48118 -0.195288 0
M  V30 434 H 40.8197 -2.97769 -2.98181 0
M  V30 435 H 39.4947 -1.82161 -2.6758 0
M  V30 436 H 38.4017 -3.56143 -1.14511 0
M  V30 437 H 39.7347 -4.67968 -1.52534 0
M  V30 438 N 41.3868 0.248026 -1.55636 0
M  V30 439 C 42.3168 1.31079 -1.93237 0
M  V30 440 C 43.2978 1.50264 -0.797174 0
M  V30 441 O 44.4828 1.62891 -1.05737 0
M  V30 442 C 41.6128 2.66575 -2.22609 0
M  V30 443 C 40.5668 2.62087 -3.3837 0
M  V30 444 C 39.8928 4.01369 -3.53281 0
M  V30 445 C 41.1928 2.19171 -4.7409 0
M  V30 446 H 42.8868 0.998556 -2.82257 0
M  V30 447 H 40.4328 0.47891 -1.35803 0
M  V30 448 H 42.3858 3.41057 -2.47503 0
M  V30 449 H 41.1098 2.99432 -1.30414 0
M  V30 450 H 39.7688 1.90063 -3.13483 0
M  V30 451 H 39.4168 4.31489 -2.58508 0
M  V30 452 H 39.1168 3.99254 -4.31127 0
M  V30 453 H 40.6408 4.77552 -3.80495 0
M  V30 454 H 42.0548 2.83384 -4.98363 0
M  V30 455 H 40.4518 2.2817 -5.5503 0
M  V30 456 H 41.5218 1.14336 -4.71227 0
M  V30 457 N 42.8649 1.48995 0.513639 0
M  V30 458 C 44.1139 1.57093 1.2651 0
M  V30 459 C 44.4269 0.257091 1.93903 0
M  V30 460 O 45.6329 0.216478 2.70636 0
M  V30 461 C 44.0889 2.77118 2.29638 0
M  V30 462 C 43.6969 4.15209 1.68241 0
M  V30 463 C 45.4409 2.94538 3.05692 0
M  V30 464 C 43.3479 5.26474 2.69406 0
M  V30 465 H 42.2779 0.584876 0.475854 0
M  V30 466 H 44.9289 1.7536 0.540487 0
M  V30 467 H 43.3109 2.52319 3.05207 0
M  V30 468 H 44.4849 4.50094 0.987505 0
M  V30 469 H 42.7999 4.03042 1.04623 0
M  V30 470 H 45.3969 3.74832 3.8132 0
M  V30 471 H 45.7399 2.04614 3.62545 0
M  V30 472 H 46.2729 3.19316 2.37238 0
M  V30 473 H 43.0119 6.18417 2.17351 0
M  V30 474 H 42.5319 4.96058 3.37175 0
M  V30 475 H 44.2109 5.55277 3.32078 0
M  V30 476 N 44.343 -0.763751 1.37857 0
M  V30 477 C 45.759 -1.06542 1.18832 0
M  V30 478 C 45.959 -2.01478 0.0299722 0
M  V30 479 O 45.015 -2.4458 -0.627447 0
M  V30 480 C 46.328 -1.65525 2.51042 0
M  V30 481 C 47.876 -1.77745 2.57635 0
M  V30 482 C 48.351 -2.4014 3.89996 0
M  V30 483 N 49.842 -2.47582 3.91481 0
M  V30 484 C 50.577 -2.96732 4.9065 0
M  V30 485 N 50.073 -3.45993 6.00217 0
M  V30 486 N 51.866 -2.95679 4.78048 0
M  V30 487 H 44.017 -0.133556 2.1198 0
M  V30 488 H 46.28 -0.121879 0.940133 0
M  V30 489 H 45.986 -1.03236 3.36207 0
M  V30 490 H 45.86 -2.64719 2.68707 0
M  V30 491 H 48.247 -2.39164 1.72872 0
M  V30 492 H 48.328 -0.772836 2.43846 0
M  V30 493 H 47.972 -1.79358 4.75177 0
M  V30 494 H 47.902 -3.41223 4.01092 0
M  V30 495 H 50.393 -2.1273 3.12337 0
M  V30 496 H 50.706 -3.81922 6.7183 0
M  V30 497 H 49.051 -3.44077 6.03851 0
M  V30 498 H 52.242 -2.56499 3.91568 0
M  V30 499 H 52.415 -3.33672 5.55488 0
M  V30 500 N 45.8211 -1.22559 -0.990812 0
M  V30 501 C 47.2371 -0.985996 -1.255 0
M  V30 502 C 47.4371 0.319173 -1.98956 0
M  V30 503 O 46.4931 1.04127 -2.3003 0
M  V30 504 C 47.8061 -2.18607 -2.06474 0
M  V30 505 C 49.3541 -2.22985 -2.19651 0
M  V30 506 C 49.8291 -3.4255 -3.04012 0
M  V30 507 N 51.3201 -3.42725 -3.11599 0
M  V30 508 C 52.0551 -4.31892 -3.7717 0
M  V30 509 N 51.5511 -5.31279 -4.44651 0
M  V30 510 N 53.3441 -4.19662 -3.73952 0
M  V30 511 H 45.4951 -2.06469 -0.49841 0
M  V30 512 H 47.7581 -0.904853 -0.282747 0
M  V30 513 H 47.4641 -3.13267 -1.59865 0
M  V30 514 H 47.3381 -2.18838 -3.07229 0
M  V30 515 H 49.7251 -1.28871 -2.65474 0
M  V30 516 H 49.8061 -2.26791 -1.18319 0
M  V30 517 H 49.4501 -4.36965 -2.58889 0
M  V30 518 H 49.3801 -3.35984 -4.0549 0
M  V30 519 H 51.8711 -2.70807 -2.63575 0
M  V30 520 H 52.1841 -5.95593 -4.92431 0
M  V30 521 H 50.5291 -5.3519 -4.43392 0
M  V30 522 H 53.7201 -3.41268 -3.20396 0
M  V30 523 H 53.8931 -4.89358 -4.24774 0
M  V30 524 N 47.2992 1.18797 -1.03562 0
M  V30 525 C 48.2292 2.24472 -0.643019 0
M  V30 526 C 49.2102 1.66433 0.351283 0
M  V30 527 O 50.3952 1.92803 0.232505 0
M  V30 528 C 47.5252 3.473 4.24935e-05 0
M  V30 529 C 46.4792 4.18055 -0.917257 0
M  V30 530 C 45.8052 5.34519 -0.138941 0
M  V30 531 C 47.1052 4.72109 -2.23407 0
M  V30 532 H 48.7992 2.57566 -1.52643 0
M  V30 533 H 46.3452 1.23806 -0.735394 0
M  V30 534 H 48.2982 4.20426 0.286383 0
M  V30 535 H 47.0222 3.13424 0.918299 0
M  V30 536 H 45.6812 3.46821 -1.1879 0
M  V30 537 H 45.3292 4.96891 0.781562 0
M  V30 538 H 45.0292 5.82794 -0.750005 0
M  V30 539 H 46.5532 6.10438 0.1405 0
M  V30 540 H 47.9672 5.36955 -2.00879 0
M  V30 541 H 46.3642 5.30897 -2.79765 0
M  V30 542 H 47.4342 3.89807 -2.88407 0
M  V30 543 N 48.7773 0.814389 1.34928 0
M  V30 544 C 49.7273 0.202752 2.27097 0
M  V30 545 C 50.7113 -0.62799 1.48139 0
M  V30 546 O 51.9033 -0.483969 1.70255 0
M  V30 547 C 49.0323 -0.64146 3.37254 0
M  V30 548 C 48.1183 0.19944 4.23631 0
M  V30 549 N 48.5093 1.26628 4.89693 0
M  V30 550 C 46.8073 -0.0176433 4.45997 0
M  V30 551 C 47.5083 1.78031 5.53787 0
M  V30 552 N 46.4843 1.08553 5.32651 0
M  V30 553 H 50.2863 1.01893 2.75672 0
M  V30 554 H 47.8003 0.656332 1.48546 0
M  V30 555 H 49.7973 -1.09575 4.02243 0
M  V30 556 H 48.4573 -1.4559 2.9023 0
M  V30 557 H 49.4683 1.64901 4.90946 0
M  V30 558 H 46.1453 -0.800601 4.09752 0
M  V30 559 H 47.5353 2.67236 6.16469 0
M  V30 560 N 50.2554 -1.46986 0.568584 0
M  V30 561 C 51.6714 -1.57946 0.229189 0
M  V30 562 C 51.8714 -1.56567 -1.26843 0
M  V30 563 O 50.9274 -1.47511 -2.04931 0
M  V30 564 C 52.2404 -2.87963 0.865909 0
M  V30 565 C 53.7884 -3.01568 0.838188 0
M  V30 566 C 54.2634 -4.34301 1.45419 0
M  V30 567 N 55.7544 -4.40965 1.41788 0
M  V30 568 C 56.4894 -5.42256 1.86403 0
M  V30 569 N 55.9854 -6.50297 2.38926 0
M  V30 570 N 57.7784 -5.3337 1.77405 0
M  V30 571 H 49.9294 -1.46126 1.54146 0
M  V30 572 H 52.1924 -0.696156 0.643484 0
M  V30 573 H 51.8984 -2.94742 1.91886 0
M  V30 574 H 51.7724 -3.75423 0.365687 0
M  V30 575 H 54.1594 -2.94379 -0.206106 0
M  V30 576 H 54.2404 -2.1562 1.37629 0
M  V30 577 H 53.8844 -4.42247 2.49761 0
M  V30 578 H 53.8144 -5.19 0.891435 0
M  V30 579 H 56.3054 -3.63484 1.03381 0
M  V30 580 H 56.6184 -7.23777 2.70863 0
M  V30 581 H 54.9634 -6.51155 2.42944 0
M  V30 582 H 58.1544 -4.47865 1.3614 0
M  V30 583 H 58.3274 -6.12169 2.12492 0
M  V30 584 N 51.7335 -0.305618 -1.54608 0
M  V30 585 C 52.6635 0.561482 -2.26649 0
M  V30 586 C 53.6445 1.13415 -1.26772 0
M  V30 587 O 54.8295 1.16262 -1.55553 0
M  V30 588 C 51.9595 1.73122 -3.01075 0
M  V30 589 C 50.9135 1.2887 -4.08138 0
M  V30 590 C 50.2395 2.54396 -4.70305 0
M  V30 591 C 51.5395 0.416578 -5.20636 0
M  V30 592 H 53.2335 -0.0393902 -2.99374 0
M  V30 593 H 50.7795 -0.020385 -1.43986 0
M  V30 594 H 52.7325 2.34396 -3.50195 0
M  V30 595 H 51.4565 2.3584 -2.25936 0
M  V30 596 H 50.1155 0.698991 -3.59875 0
M  V30 597 H 49.7635 3.15439 -3.918 0
M  V30 598 H 49.4635 2.25486 -5.42614 0
M  V30 599 H 50.9875 3.16464 -5.2219 0
M  V30 600 H 52.4015 0.935116 -5.65622 0
M  V30 601 H 50.7985 0.221046 -5.99693 0
M  V30 602 H 51.8685 -0.557162 -4.81688 0
M  V30 603 N 53.2116 1.57565 -0.0334293 0
M  V30 604 C 54.1216 2.13943 0.962572 0
M  V30 605 C 55.1376 1.09276 1.35406 0
M  V30 606 O 56.3136 1.41355 1.4346 0
M  V30 607 C 53.3786 2.65887 2.22497 0
M  V30 608 C 52.4396 3.85286 1.8935 0
M  V30 609 C 51.6726 4.34743 3.09571 0
M  V30 610 O 51.8956 3.83352 4.22371 0
M  V30 611 O 50.8296 5.26538 2.91618 0
M  V30 612 H 54.6556 2.99333 0.513169 0
M  V30 613 H 52.2406 1.4822 0.18743 0
M  V30 614 H 54.1226 2.99346 2.96598 0
M  V30 615 H 52.7976 1.83578 2.6661 0
M  V30 616 H 51.7046 3.56746 1.1262 0
M  V30 617 H 53.0376 4.68771 1.5005 0
M  V30 618 N 54.6897 -0.239769 1.55765 0
M  V30 619 C 55.9197 -0.982743 1.8173 0
M  V30 620 C 56.3277 -1.7917 0.607835 0
M  V30 621 O 55.6707 -1.78525 -0.432973 0
M  V30 622 C 55.7327 -1.96332 3.01155 0
M  V30 623 C 55.3967 -1.34062 4.36894 0
M  V30 624 C 56.3937 -0.739539 5.14613 0
M  V30 625 C 54.0787 -1.35784 4.83599 0
M  V30 626 C 56.0727 -0.163989 6.37189 0
M  V30 627 C 53.7597 -0.778441 6.06122 0
M  V30 628 C 54.7577 -0.182548 6.82756 0
M  V30 629 O 54.4457 0.387887 8.02964 0
M  V30 630 H 54.1777 -0.294481 0.608487 0
M  V30 631 H 56.7317 -0.26572 2.03674 0
M  V30 632 H 54.9617 -2.71884 2.74984 0
M  V30 633 H 56.6507 -2.57032 3.14149 0
M  V30 634 H 57.4167 -0.718687 4.79646 0
M  V30 635 H 53.2957 -1.81105 4.23936 0
M  V30 636 H 56.8397 0.301753 6.96947 0
M  V30 637 H 52.7367 -0.796645 6.40565 0
M  V30 638 H 53.5047 0.28044 8.18019 0
M  V30 639 N 56.1678 -1.49265 -0.50573 0
M  V30 640 C 57.1308 -1.65075 -1.59006 0
M  V30 641 C 58.1308 -0.522768 -1.52065 0
M  V30 642 O 59.3208 -0.789117 -1.55302 0
M  V30 643 C 56.4528 -1.64369 -2.98656 0
M  V30 644 H 57.6458 -2.61784 -1.46319 0
M  V30 645 H 55.1988 -1.38226 -0.729616 0
M  V30 646 H 55.9338 -0.692272 -3.16825 0
M  V30 647 H 55.7188 -2.46282 -3.05103 0
M  V30 648 H 57.2088 -1.78674 -3.77446 0
M  V30 649 N 57.6459 0.756429 -1.3826 0
M  V30 650 C 58.9229 1.50584 -1.24835 0
M  V30 651 C 59.3029 2.10556 0.151485 0
M  V30 652 O 58.6509 1.96825 1.1607 0
M  V30 653 C 58.8609 2.57448 -2.3563 0
M  V30 654 C 60.2089 3.24429 -2.73917 0
M  V30 655 O 61.2329 2.67751 -2.34921 0
M  V30 656 O 60.0919 4.26937 -3.41156 0
M  V30 657 H 57.1859 0.667664 -0.48801 0
M  V30 658 H 59.7319 0.792083 -1.5008 0
M  V30 659 H 58.5039 2.11362 -3.29305 0
M  V30 660 H 58.1269 3.36408 -2.11933 0
M  V30 661 N 59.124 1.23083 0.984299 0
M  V30 662 C 60.37 1.06214 1.72761 0
M  V30 663 C 60.703 -0.400584 1.90024 0
M  V30 664 O 59.978 -1.29672 1.44967 0
M  V30 665 C 60.261 1.78375 3.12817 0
M  V30 666 C 60.114 3.32296 3.03149 0
M  V30 667 C 61.433 1.54309 4.12161 0
M  V30 668 H 58.552 0.387251 0.627061 0
M  V30 669 H 61.194 1.51536 1.14616 0
M  V30 670 H 59.344 1.39848 3.62457 0
M  V30 671 H 61.016 3.8032 2.61064 0
M  V30 672 H 59.259 3.6153 2.39747 0
M  V30 673 H 59.93 3.77972 4.02295 0
M  V30 674 H 62.406 1.87791 3.71314 0
M  V30 675 H 61.282 2.07281 5.08258 0
M  V30 676 H 61.543 0.477572 4.39513 0
M  V30 677 N 60.6021 -1.18246 1.0419 0
M  V30 678 C 61.5491 -2.2192 0.634037 0
M  V30 679 C 62.5191 -1.62179 -0.358765 0
M  V30 680 O 63.7041 -1.89122 -0.252466 0
M  V30 681 C 60.8441 -3.451 0.00445535 0
M  V30 682 C 59.9571 -4.19174 1.04487 0
M  V30 683 C 59.0921 -5.29813 0.383676 0
M  V30 684 C 58.1311 -5.9566 1.4091 0
M  V30 685 N 57.2681 -6.97834 0.772784 0
M  V30 686 H 62.1081 -2.56164 1.52263 0
M  V30 687 H 59.6451 -1.25843 0.761701 0
M  V30 688 H 61.6031 -4.15485 -0.377919 0
M  V30 689 H 60.2331 -3.11472 -0.847652 0
M  V30 690 H 59.2851 -3.47604 1.54518 0
M  V30 691 H 60.5971 -4.64267 1.82368 0
M  V30 692 H 59.7511 -6.06677 -0.0528366 0
M  V30 693 H 58.4901 -4.85825 -0.427208 0
M  V30 694 H 57.4951 -5.17535 1.85574 0
M  V30 695 H 58.7201 -6.4173 2.22171 0
M  V30 696 H 56.6661 -6.55998 -0.0177708 0
M  V30 697 H 56.5831 -7.41186 1.48928 0
M  V30 698 H 57.8511 -7.78665 0.36071 0
M  V30 699 N 62.0802 -0.821533 -1.34494 0
M  V30 700 C 63.3102 -0.421272 -2.02259 0
M  V30 701 C 63.7182 0.977047 -1.6202 0
M  V30 702 O 63.0612 1.64348 -0.820703 0
M  V30 703 C 63.1232 -0.44231 -3.56769 0
M  V30 704 C 62.7872 -1.79372 -4.20327 0
M  V30 705 C 63.7842 -2.75435 -4.40944 0
M  V30 706 C 61.4692 -2.08182 -4.57127 0
M  V30 707 C 63.4632 -3.98482 -4.97484 0
M  V30 708 C 61.1502 -3.31489 -5.13379 0
M  V30 709 C 62.1482 -4.26457 -5.33501 0
M  V30 710 O 61.8362 -5.47585 -5.88562 0
M  V30 711 H 61.5682 -0.167473 -0.654927 0
M  V30 712 H 64.1222 -1.11073 -1.72777 0
M  V30 713 H 62.3522 0.303836 -3.85505 0
M  V30 714 H 64.0412 -0.0622925 -4.05852 0
M  V30 715 H 64.8072 -2.54473 -4.12878 0
M  V30 716 H 60.6862 -1.35066 -4.4077 0
M  V30 717 H 64.2302 -4.72618 -5.13106 0
M  V30 718 H 60.1272 -3.52316 -5.40873 0
M  V30 719 H 60.8952 -5.49086 -6.06998 0
M  V30 720 N 63.5583 1.46682 -0.576371 0
M  V30 721 C 64.4883 2.33028 0.148397 0
M  V30 722 C 65.4693 1.44961 0.889956 0
M  V30 723 O 66.6543 1.73789 0.866662 0
M  V30 724 C 63.7843 3.27117 1.1667 0
M  V30 725 C 62.7383 4.24575 0.540386 0
M  V30 726 C 62.0643 5.08126 1.6647 0
M  V30 727 C 63.3643 5.19722 -0.518331 0
M  V30 728 H 65.0583 2.93875 -0.572509 0
M  V30 729 H 62.6043 1.41315 -0.276768 0
M  V30 730 H 64.5573 3.86374 1.68204 0
M  V30 731 H 63.2813 2.64364 1.9178 0
M  V30 732 H 61.9403 3.66571 0.0461769 0
M  V30 733 H 61.5883 4.41762 2.40531 0
M  V30 734 H 61.2883 5.74122 1.25131 0
M  V30 735 H 62.8123 5.70246 2.18293 0
M  V30 736 H 64.2263 5.73232 -0.0883058 0
M  V30 737 H 62.6233 5.94026 -0.851679 0
M  V30 738 H 63.6933 4.64037 -1.40703 0
M  V30 739 N 65.0364 0.313813 1.54444 0
M  V30 740 C 66.2824 -0.292108 2.00685 0
M  V30 741 C 66.6154 -1.52548 1.20177 0
M  V30 742 O 65.8904 -1.92452 0.281531 0
M  V30 743 C 66.1734 -0.635968 3.5444 0
M  V30 744 C 66.0264 0.607437 4.4568 0
M  V30 745 C 67.3454 -1.45747 4.15266 0
M  V30 746 H 64.4644 -0.104697 0.729526 0
M  V30 747 H 67.1064 0.428457 1.85106 0
M  V30 748 H 65.2564 -1.24986 3.67846 0
M  V30 749 H 66.9284 1.24581 4.44159 0
M  V30 750 H 65.1714 1.23822 4.15753 0
M  V30 751 H 65.8424 0.322515 5.51057 0
M  V30 752 H 68.3184 -0.938645 4.05375 0
M  V30 753 H 67.1944 -1.66683 5.2298 0
M  V30 754 H 67.4554 -2.45063 3.67963 0
M  V30 755 N 66.5145 -1.57545 0.0417849 0
M  V30 756 C 67.7615 -1.92317 -0.634082 0
M  V30 757 C 68.0895 -0.919334 -1.71402 0
M  V30 758 O 67.3445 0.0698253 -1.95575 0
M  V30 759 C 67.6435 -3.33794 -1.27735 0
M  V30 760 C 67.3095 -4.49716 -0.326543 0
M  V30 761 C 65.9715 -4.81156 -0.0648814 0
M  V30 762 C 68.3235 -5.20182 0.325623 0
M  V30 763 C 65.6515 -5.80414 0.856539 0
M  V30 764 C 68.0035 -6.20424 1.23518 0
M  V30 765 C 66.6675 -6.50298 1.5056 0
M  V30 766 H 65.9375 -0.703736 -0.232027 0
M  V30 767 H 68.5845 -1.91205 0.106259 0
M  V30 768 H 66.8895 -3.31228 -2.09274 0
M  V30 769 H 68.5865 -3.57975 -1.80707 0
M  V30 770 H 65.1765 -4.25176 -0.540665 0
M  V30 771 H 69.3605 -4.96112 0.136546 0
M  V30 772 H 64.6165 -6.019 1.07363 0
M  V30 773 H 68.7905 -6.74141 1.74664 0
M  V30 774 H 66.4175 -7.27025 2.22123 0
M  V30 775 N 67.9926 0.231505 -1.5589 0
M  V30 776 C 68.9396 1.28682 -1.91598 0
M  V30 777 C 69.9096 1.47071 -0.771974 0
M  V30 778 O 71.0946 1.60802 -1.027 0
M  V30 779 C 68.2346 2.6342 -2.22944 0
M  V30 780 C 67.3476 2.52912 -3.50228 0
M  V30 781 C 66.4826 3.80106 -3.7107 0
M  V30 782 C 65.5216 3.64279 -4.91902 0
M  V30 783 N 64.6586 4.834 -5.09184 0
M  V30 784 H 69.4986 0.975305 -2.81588 0
M  V30 785 H 67.0356 0.470299 -1.39379 0
M  V30 786 H 68.9936 3.41869 -2.39126 0
M  V30 787 H 67.6236 2.92687 -1.36139 0
M  V30 788 H 66.6756 1.6595 -3.42294 0
M  V30 789 H 67.9876 2.37133 -4.38827 0
M  V30 790 H 67.1416 4.66999 -3.87295 0
M  V30 791 H 65.8806 3.98799 -2.80733 0
M  V30 792 H 64.8856 2.7577 -4.75637 0
M  V30 793 H 66.1106 3.47067 -5.83714 0
M  V30 794 H 64.0566 5.02425 -4.21788 0
M  V30 795 H 63.9736 4.70311 -5.91898 0
M  V30 796 H 65.2416 5.71747 -5.29835 0
M  V30 797 N 69.4707 1.49531 0.497807 0
M  V30 798 C 70.8817 1.52344 1.07927 0
M  V30 799 C 71.2327 0.311469 1.93712 0
M  V30 800 O 70.3577 -0.578405 2.08527 0
M  V30 801 C 70.9527 2.76062 1.96405 0
M  V30 802 C 69.5117 2.81643 2.49709 0
M  V30 803 C 68.6587 2.46299 1.27404 0
M  V30 804 H 71.6097 1.56182 0.281576 0
M  V30 805 H 71.6307 2.56405 2.81135 0
M  V30 806 H 71.1427 3.64254 1.33943 0
M  V30 807 H 69.2437 1.97739 3.15801 0
M  V30 808 H 69.3567 3.83891 2.86643 0
M  V30 809 H 67.7207 1.98148 1.60029 0
M  V30 810 H 68.5037 3.36769 0.66645 0
M  V30 811 N 70.9488 -0.749086 1.3866 0
M  V30 812 C 71.8958 -1.86291 1.36251 0
M  V30 813 C 72.8658 -1.64578 0.224347 0
M  V30 814 O 74.0508 -1.86181 0.417279 0
M  V30 815 C 71.1908 -3.23644 1.19786 0
M  V30 816 C 70.3038 -3.57158 2.43027 0
M  V30 817 C 69.4388 -4.83838 2.19258 0
M  V30 818 C 68.4778 -5.10152 3.38247 0
M  V30 819 N 67.6148 -6.28029 3.13884 0
M  V30 820 H 72.4548 -1.87685 2.3147 0
M  V30 821 H 69.9918 -0.917287 1.14997 0
M  V30 822 H 71.9498 -4.0291 1.08254 0
M  V30 823 H 70.5798 -3.21566 0.282031 0
M  V30 824 H 69.6318 -2.72701 2.65214 0
M  V30 825 H 70.9438 -3.7253 3.31697 0
M  V30 826 H 70.0978 -5.71057 2.04888 0
M  V30 827 H 68.8368 -4.70614 1.2796 0
M  V30 828 H 67.8418 -4.21401 3.53131 0
M  V30 829 H 69.0668 -5.25271 4.30427 0
M  V30 830 H 67.0128 -6.1612 2.25238 0
M  V30 831 H 66.9298 -6.43922 3.96106 0
M  V30 832 H 68.1978 -7.18124 3.03179 0
M  V30 833 N 72.4269 -1.23603 -0.977757 0
M  V30 834 C 73.6759 -1.06377 -1.71368 0
M  V30 835 C 73.9889 0.399062 -1.91486 0
M  V30 836 O 75.1949 0.691312 -2.62551 0
M  V30 837 C 73.6509 -1.85512 -3.08404 0
M  V30 838 C 73.2589 -3.36141 -2.96164 0
M  V30 839 C 75.0029 -1.76783 -3.85938 0
M  V30 840 C 72.9099 -4.07659 -4.28449 0
M  V30 841 H 71.8399 -0.394452 -0.642591 0
M  V30 842 H 74.4909 -1.47594 -1.09034 0
M  V30 843 H 72.8729 -1.37103 -3.71509 0
M  V30 844 H 74.0469 -3.92056 -2.42133 0
M  V30 845 H 72.3619 -3.45712 -2.32104 0
M  V30 846 H 74.9589 -2.27526 -4.83876 0
M  V30 847 H 75.3019 -0.731116 -4.0983 0
M  V30 848 H 75.8349 -2.22818 -3.2954 0
M  V30 849 H 72.5739 -5.11648 -4.09752 0
M  V30 850 H 72.0939 -3.5653 -4.82334 0
M  V30 851 H 73.7729 -4.141 -4.97122 0
M  V30 852 N 73.905 1.17692 -1.04816 0
M  V30 853 C 75.182 1.83768 -0.669963 0
M  V30 854 C 75.562 1.93232 0.849986 0
M  V30 855 O 74.91 1.46397 1.75443 0
M  V30 856 C 75.12 3.21641 -1.35455 0
M  V30 857 C 76.468 3.97592 -1.49017 0
M  V30 858 O 77.492 3.31107 -1.31326 0
M  V30 859 O 76.351 5.16729 -1.77914 0
M  V30 860 H 73.445 0.792799 -0.235368 0
M  V30 861 H 75.991 1.25021 -1.14751 0
M  V30 862 H 74.763 3.097 -2.39168 0
M  V30 863 H 74.386 3.88052 -0.866107 0
M  V30 864 N 75.3831 0.828654 1.34056 0
M  V30 865 C 76.6111 0.43262 2.02326 0
M  V30 866 C 77.0261 -0.963147 1.62385 0
M  V30 867 O 76.3831 -1.62425 0.832121 0
M  V30 868 C 76.4341 0.53182 3.57567 0
M  V30 869 O 76.1551 1.87258 3.96063 0
M  V30 870 C 77.6561 0.131422 4.43105 0
M  V30 871 H 74.8761 0.172923 0.648335 0
M  V30 872 H 77.4201 1.1184 1.71208 0
M  V30 873 H 75.5751 -0.105938 3.87255 0
M  V30 874 H 75.9891 1.85087 4.90758 0
M  V30 875 H 77.4631 0.251904 5.51425 0
M  V30 876 H 77.9401 -0.925645 4.29335 0
M  V30 877 H 78.5461 0.743207 4.18756 0
M  V30 878 N 76.8612 -1.46375 0.584142 0
M  V30 879 C 78.2772 -1.57694 0.245929 0
M  V30 880 C 78.4772 -1.57903 -1.25175 0
M  V30 881 O 77.5332 -1.49676 -2.03355 0
M  V30 882 C 78.8462 -2.87028 0.896402 0
M  V30 883 C 80.3942 -3.00662 0.870127 0
M  V30 884 C 80.8692 -4.32734 1.50017 0
M  V30 885 N 82.3602 -4.39436 1.46458 0
M  V30 886 C 83.0952 -5.40248 1.92144 0
M  V30 887 N 82.5912 -6.47726 2.4581 0
M  V30 888 N 84.3842 -5.31459 1.83052 0
M  V30 889 H 76.5352 -1.44483 1.55687 0
M  V30 890 H 78.7982 -0.689291 0.650831 0
M  V30 891 H 78.5042 -2.9269 1.95002 0
M  V30 892 H 78.3782 -3.75014 0.405486 0
M  V30 893 H 80.7652 -2.94581 -0.174871 0
M  V30 894 H 80.8462 -2.14148 1.39908 0
M  V30 895 H 80.4902 -4.39573 2.54437 0
M  V30 896 H 80.4202 -5.18025 0.946432 0
M  V30 897 H 82.9112 -3.62367 1.07231 0
M  V30 898 H 83.2242 -7.20863 2.78525 0
M  V30 899 H 81.5692 -6.48542 2.49836 0
M  V30 900 H 84.7602 -4.46396 1.40883 0
M  V30 901 H 84.9332 -6.09881 2.18973 0
M  V30 902 N 78.3393 -0.321999 -1.54275 0
M  V30 903 C 79.5643 0.285791 -2.05422 0
M  V30 904 C 79.9893 1.45124 -1.19669 0
M  V30 905 O 79.3473 1.80132 -0.205441 0
M  V30 906 C 79.3953 0.69956 -3.53749 0
M  V30 907 O 78.4993 1.8021 -3.70942 0
M  V30 908 H 77.8403 0.0518962 -0.661969 0
M  V30 909 H 80.3703 -0.469954 -1.9913 0
M  V30 910 H 80.3803 0.982649 -3.9599 0
M  V30 911 H 79.0553 -0.152864 -4.15619 0
M  V30 912 H 77.6323 1.51794 -3.40607 0
M  V30 913 N 79.8174 1.5752 -0.0501392 0
M  V30 914 C 81.0664 1.91827 0.623328 0
M  V30 915 C 81.3794 0.930222 1.72065 0
M  V30 916 O 82.5854 1.1653 2.4522 0
M  V30 917 C 81.0414 3.40692 1.16003 0
M  V30 918 C 80.6494 4.479 0.0948811 0
M  V30 919 C 82.3934 3.84034 1.80881 0
M  V30 920 C 80.3004 5.87879 0.644411 0
M  V30 921 H 79.2304 0.715918 0.236596 0
M  V30 922 H 81.8814 1.83115 -0.118861 0
M  V30 923 H 80.2634 3.44405 1.9545 0
M  V30 924 H 81.4374 4.55775 -0.678675 0
M  V30 925 H 79.7524 4.13892 -0.45637 0
M  V30 926 H 82.3494 4.85984 2.22988 0
M  V30 927 H 82.6924 3.20225 2.6601 0
M  V30 928 H 83.2254 3.82833 1.0809 0
M  V30 929 H 79.9644 6.55282 -0.169229 0
M  V30 930 H 79.4844 5.83567 1.38598 0
M  V30 931 H 81.1634 6.37098 1.12763 0
M  V30 932 N 81.2955 -0.223234 1.56011 0
M  V30 933 C 82.7115 -0.572856 1.48965 0
M  V30 934 C 82.9115 -1.87225 0.74492 0
M  V30 935 O 81.9675 -2.50899 0.283896 0
M  V30 936 C 83.2805 -0.653646 2.9351 0
M  V30 937 C 84.8285 -0.744386 3.0402 0
M  V30 938 C 85.3035 -0.856535 4.49919 0
M  V30 939 N 86.7945 -0.9208 4.53955 0
M  V30 940 C 87.5295 -1.02726 5.64123 0
M  V30 941 N 87.0255 -1.09777 6.84047 0
M  V30 942 N 88.8185 -1.06226 5.51971 0
M  V30 943 H 80.9695 0.629462 2.02858 0
M  V30 944 H 83.2325 0.220621 0.921971 0
M  V30 945 H 82.9385 0.231518 3.50937 0
M  V30 946 H 82.8125 -1.51781 3.45315 0
M  V30 947 H 85.1995 -1.61999 2.46658 0
M  V30 948 H 85.2805 0.14541 2.55386 0
M  V30 949 H 84.9245 0.0146069 5.07898 0
M  V30 950 H 84.8545 -1.76172 4.96257 0
M  V30 951 H 87.3455 -0.876694 3.6759 0
M  V30 952 H 87.6585 -1.17872 7.63758 0
M  V30 953 H 86.0035 -1.06693 6.86762 0
M  V30 954 H 89.1945 -1.00382 4.5721 0
M  V30 955 H 89.3675 -1.14177 6.37862 0
M  V30 956 N 82.7736 -1.49793 -0.48987 0
M  V30 957 C 83.7216 -1.67783 -1.61095 0
M  V30 958 C 84.7156 -0.543683 -1.60438 0
M  V30 959 O 85.9216 -0.723647 -1.64813 0
M  V30 960 H 82.2966 -0.529255 -0.534222 0
M  V30 961 H 84.2676 -2.61861 -1.43078 0
M  V30 962 C 83.0166 -1.77191 -2.99164 0
M  V30 963 H 82.3396 -2.63841 -3.0038 0
M  V30 964 H 83.7796 -1.93809 -3.77113 0
M  V30 965 C 82.2386 -0.519203 -3.32875 0
M  V30 966 O 82.7686 0.350124 -4.00171 0
M  V30 967 N 80.9746 -0.378816 -2.8812 0
M  V30 968 H 80.5216 -1.08725 -2.33531 0
M  V30 969 H 80.4796 0.458239 -3.11043 0
M  V30 970 N 84.2517 0.741722 -1.39055 0
M  V30 971 C 85.5007 1.49656 -1.35225 0
M  V30 972 C 85.8137 1.95533 0.0512708 0
M  V30 973 O 87.0197 2.7067 0.212138 0
M  V30 974 C 85.4757 2.70389 -2.37525 0
M  V30 975 C 85.0837 2.31489 -3.83558 0
M  V30 976 C 86.8277 3.48236 -2.42759 0
M  V30 977 C 84.7347 3.48903 -4.77515 0
M  V30 978 H 83.6647 0.56197 -0.502699 0
M  V30 979 H 86.3157 0.809727 -1.64668 0
M  V30 980 H 84.6977 3.41113 -2.01142 0
M  V30 981 H 85.8717 1.68354 -4.28945 0
M  V30 982 H 84.1867 1.66749 -3.81554 0
M  V30 983 H 86.7837 4.35558 -3.1015 0
M  V30 984 H 87.1267 3.90229 -1.45008 0
M  V30 985 H 87.6597 2.84535 -2.78002 0
M  V30 986 H 84.3987 3.11966 -5.76504 0
M  V30 987 H 83.9187 4.11041 -4.36813 0
M  V30 988 H 85.5977 4.15328 -4.96096 0
M  V30 989 N 85.7298 1.2412 0.971189 0
M  V30 990 C 86.6618 0.988349 2.06795 0
M  V30 991 C 87.6748 -0.0409541 1.62748 0
M  V30 992 O 88.8638 0.195673 1.77424 0
M  V30 993 C 85.9638 0.469023 3.35639 0
M  V30 994 C 85.1368 1.56065 4.08611 0
M  V30 995 C 84.1958 1.04458 5.15728 0
M  V30 996 O 83.2218 1.73553 5.42096 0
M  V30 997 N 84.4238 -0.122817 5.8037 0
M  V30 998 H 87.1888 1.93265 2.29061 0
M  V30 999 H 84.7498 1.15102 1.13856 0
M  V30 1000 H 86.7418 0.108613 4.04554 0
M  V30 1001 H 85.3118 -0.380919 3.1027 0
M  V30 1002 H 84.5318 2.09341 3.34021 0
M  V30 1003 H 85.8198 2.29449 4.54126 0
M  V30 1004 H 85.2178 -0.700563 5.61345 0
M  V30 1005 H 83.7748 -0.424404 6.50417 0
M  V30 1006 N 87.2079 -1.17134 1.05439 0
M  V30 1007 C 88.4329 -1.91913 0.786396 0
M  V30 1008 C 88.8579 -1.7643 -0.652234 0
M  V30 1009 O 88.2159 -1.08372 -1.45345 0
M  V30 1010 C 88.2639 -3.40921 1.17497 0
M  V30 1011 O 87.3679 -4.11244 0.308589 0
M  V30 1012 H 86.7089 -0.598215 0.288158 0
M  V30 1013 H 89.2389 -1.48457 1.4079 0
M  V30 1014 H 89.2489 -3.91668 1.14281 0
M  V30 1015 H 87.9239 -3.5151 2.22292 0
M  V30 1016 H 86.5009 -3.70731 0.40157 0
M  V30 1017 N 88.686 -0.835752 -1.33615 0
M  V30 1018 C 90.102 -0.523139 -1.50783 0
M  V30 1019 C 90.302 0.950171 -1.77691 0
M  V30 1020 O 89.358 1.73411 -1.83534 0
M  V30 1021 C 90.671 -1.39378 -2.66448 0
M  V30 1022 C 92.219 -1.39223 -2.80332 0
M  V30 1023 C 92.694 -2.24765 -3.99055 0
M  V30 1024 N 94.185 -2.22458 -4.06284 0
M  V30 1025 C 94.92 -2.85386 -4.97336 0
M  V30 1026 N 94.416 -3.57354 -5.93523 0
M  V30 1027 N 96.209 -2.74872 -4.90308 0
M  V30 1028 H 88.36 -1.78952 -1.14411 0
M  V30 1029 H 90.623 -0.763297 -0.562212 0
M  V30 1030 H 90.329 -2.44061 -2.53234 0
M  V30 1031 H 90.203 -1.0676 -3.61776 0
M  V30 1032 H 92.59 -0.353136 -2.92979 0
M  V30 1033 H 92.671 -1.75846 -1.85773 0
M  V30 1034 H 92.315 -3.28732 -3.87167 0
M  V30 1035 H 92.245 -1.85485 -4.92852 0
M  V30 1036 H 94.736 -1.70119 -3.37443 0
M  V30 1037 H 95.049 -4.02584 -6.59656 0
M  V30 1038 H 93.394 -3.61461 -5.93608 0
M  V30 1039 H 96.585 -2.18213 -4.14126 0
M  V30 1040 H 96.758 -3.24199 -5.61069 0
M  V30 1041 N 90.1641 1.46063 -0.591896 0
M  V30 1042 C 91.3921 2.06717 -0.0868936 0
M  V30 1043 C 91.8071 1.43916 1.22203 0
M  V30 1044 O 91.1641 0.547698 1.74088 0
M  V30 1045 C 91.2151 3.6142 0.0758725 0
M  V30 1046 O 90.9361 4.21874 -1.18126 0
M  V30 1047 C 92.4371 4.39025 0.61416 0
M  V30 1048 H 89.6571 0.668162 -0.0616518 0
M  V30 1049 H 92.2011 1.8755 -0.815175 0
M  V30 1050 H 90.3561 3.79983 0.754413 0
M  V30 1051 H 90.7701 5.14861 -1.00092 0
M  V30 1052 H 92.2441 5.4783 0.677193 0
M  V30 1053 H 92.7211 4.07708 1.63312 0
M  V30 1054 H 93.3271 4.2529 -0.0298142 0
M  V30 1055 N 91.6422 0.330177 1.54103 0
M  V30 1056 C 92.8902 -0.269871 2.0029 0
M  V30 1057 C 93.2112 -1.52133 1.21986 0
M  V30 1058 O 92.4812 -1.93212 0.323438 0
M  V30 1059 H 91.0612 -0.10271 0.739905 0
M  V30 1060 H 93.7232 0.448249 1.89675 0
M  V30 1061 H 92.8192 -0.52166 3.07709 0
M  V30 1062 N 93.1203 -1.57491 0.0584922 0
M  V30 1063 C 94.3483 -1.97296 -0.623037 0
M  V30 1064 C 94.7633 -0.936338 -1.63946 0
M  V30 1065 O 94.1203 0.0785981 -1.82331 0
M  V30 1066 C 94.1713 -3.37183 -1.30345 0
M  V30 1067 O 93.8923 -4.36872 -0.32773 0
M  V30 1068 C 95.3933 -3.91788 -2.07406 0
M  V30 1069 H 92.6133 -0.649153 -0.169826 0
M  V30 1070 H 95.1573 -2.04106 0.12696 0
M  V30 1071 H 93.3123 -3.31502 -2.00463 0
M  V30 1072 H 93.7263 -5.18141 -0.814269 0
M  V30 1073 H 95.2003 -4.91926 -2.50425 0
M  V30 1074 H 95.6773 -3.27609 -2.92521 0
M  V30 1075 H 96.2833 -4.00829 -1.42184 0
M  V30 1076 N 94.5984 0.214957 -1.56127 0
M  V30 1077 C 95.8234 0.95924 -1.83884 0
M  V30 1078 C 96.2484 1.7689 -0.639644 0
M  V30 1079 O 95.6064 1.76566 0.411601 0
M  V30 1080 C 95.6544 1.84723 -3.09693 0
M  V30 1081 O 94.7584 2.94346 -2.8885 0
M  V30 1082 H 94.0994 0.27125 -0.606069 0
M  V30 1083 H 96.6294 0.226276 -2.03345 0
M  V30 1084 H 96.6394 2.25576 -3.39969 0
M  V30 1085 H 95.3144 1.25218 -3.96602 0
M  V30 1086 H 93.8914 2.57391 -2.69823 0
M  V30 1087 N 96.0765 1.50051 0.48192 0
M  V30 1088 C 97.0065 1.71046 1.58951 0
M  V30 1089 C 97.9875 0.559288 1.60642 0
M  V30 1090 O 99.1725 0.797243 1.77081 0
M  V30 1091 C 96.3025 1.79462 2.97339 0
M  V30 1092 C 95.2565 2.94558 3.10515 0
M  V30 1093 C 94.5825 2.88105 4.50444 0
M  V30 1094 C 95.8825 4.35227 2.88747 0
M  V30 1095 H 97.5765 2.6378 1.41635 0
M  V30 1096 H 95.1225 1.26936 0.679942 0
M  V30 1097 H 97.0755 1.92734 3.74742 0
M  V30 1098 H 95.7995 0.833412 3.15788 0
M  V30 1099 H 94.4585 2.80918 2.35543 0
M  V30 1100 H 94.1065 1.89853 4.65795 0
M  V30 1101 H 93.8065 3.65366 4.60197 0
M  V30 1102 H 95.3305 3.03412 5.29881 0
M  V30 1103 H 96.7445 4.49449 3.55905 0
M  V30 1104 H 95.1415 5.13856 3.09955 0
M  V30 1105 H 96.2115 4.48347 1.84696 0
M  V30 1106 N 97.5546 -0.734337 1.39446 0
M  V30 1107 C 98.9656 -1.31264 1.32766 0
M  V30 1108 C 99.3166 -1.96198 -0.00767497 0
M  V30 1109 O 98.4416 -1.96346 -0.909796 0
M  V30 1110 C 99.0366 -2.38682 2.4045 0
M  V30 1111 C 97.5956 -2.92184 2.37288 0
M  V30 1112 C 96.7426 -1.6576 2.22304 0
M  V30 1113 H 99.6936 -0.531799 1.49525 0
M  V30 1114 H 99.7146 -3.19087 2.07276 0
M  V30 1115 H 99.2266 -1.91392 3.37625 0
M  V30 1116 H 97.3276 -3.43752 1.43754 0
M  V30 1117 H 97.4406 -3.45253 3.3217 0
M  V30 1118 H 95.8046 -1.9012 1.69489 0
M  V30 1119 H 96.5876 -1.20521 3.21449 0
M  V30 1120 N 99.0327 -1.24633 -0.964593 0
M  V30 1121 C 100.258 -1.11596 -1.74818 0
M  V30 1122 C 100.683 0.32723 -1.85232 0
M  V30 1123 O 100.041 1.23695 -1.32549 0
M  V30 1124 C 100.089 -1.76397 -3.1451 0
M  V30 1125 O 99.1927 -1.03685 -3.99153 0
M  V30 1126 H 98.5337 -0.390196 -0.537255 0
M  V30 1127 H 101.064 -1.65002 -1.20977 0
M  V30 1128 H 101.074 -1.8228 -3.65018 0
M  V30 1129 H 99.7487 -2.81401 -3.06246 0
M  V30 1130 H 98.3257 -1.05611 -3.57632 0
M  V30 1131 N 100.511 1.16574 -1.06058 0
M  V30 1132 C 101.757 1.87324 -0.777022 0
M  V30 1133 C 102.09 1.81351 0.694645 0
M  V30 1134 O 101.365 1.22753 1.50871 0
M  V30 1135 C 101.648 3.36991 -1.26922 0
M  V30 1136 C 101.501 3.51667 -2.80447 0
M  V30 1137 C 102.82 4.3131 -0.87521 0
M  V30 1138 H 99.9388 0.680191 -0.28374 0
M  V30 1139 H 102.581 1.37036 -1.3161 0
M  V30 1140 H 100.731 3.79949 -0.81063 0
M  V30 1141 H 102.403 3.17664 -3.34495 0
M  V30 1142 H 100.646 2.93656 -3.19294 0
M  V30 1143 H 101.317 4.56766 -3.0995 0
M  V30 1144 H 103.793 3.9624 -1.27014 0
M  V30 1145 H 102.669 5.34545 -1.2471 0
M  V30 1146 H 102.93 4.41552 0.220071 0
M  V30 1147 N 101.989 0.842826 1.3317 0
M  V30 1148 C 102.899 0.281444 2.32906 0
M  V30 1149 C 103.915 -0.594587 1.63526 0
M  V30 1150 O 105.091 -0.49777 1.95152 0
M  V30 1151 C 102.156 -0.530929 3.42611 0
M  V30 1152 C 101.217 0.369843 4.27704 0
M  V30 1153 C 100.45 -0.403853 5.3217 0
M  V30 1154 O 100.673 -1.63513 5.46461 0
M  V30 1155 O 99.6069 0.224199 6.01482 0
M  V30 1156 H 103.433 1.10744 2.82789 0
M  V30 1157 H 101.018 0.60545 1.36582 0
M  V30 1158 H 102.9 -0.992437 4.09547 0
M  V30 1159 H 101.575 -1.33392 2.94938 0
M  V30 1160 H 100.482 0.879275 3.6362 0
M  V30 1161 H 101.815 1.13771 4.78871 0
M  V30 1162 N 103.467 -1.45747 0.599634 0
M  V30 1163 C 104.713 -2.02592 0.0918643 0
M  V30 1164 C 105.046 -1.46806 -1.27128 0
M  V30 1165 O 104.321 -0.639658 -1.83681 0
M  V30 1166 C 104.604 -3.60073 0.0443398 0
M  V30 1167 C 104.457 -4.26208 1.43759 0
M  V30 1168 C 105.776 -4.35309 -0.647608 0
M  V30 1169 H 102.895 -0.736175 0.034857 0
M  V30 1170 H 105.537 -1.73694 0.770081 0
M  V30 1171 H 103.687 -3.84823 -0.533224 0
M  V30 1172 H 105.359 -4.12668 2.06162 0
M  V30 1173 H 103.602 -3.84916 2.00056 0
M  V30 1174 H 104.273 -5.35069 1.35665 0
M  V30 1175 H 106.749 -4.15805 -0.156776 0
M  V30 1176 H 105.625 -5.45038 -0.649942 0
M  V30 1177 H 105.886 -4.07598 -1.71219 0
M  V30 1178 N 104.945 -0.338344 -1.53925 0
M  V30 1179 C 105.855 0.529421 -2.28548 0
M  V30 1180 C 106.871 1.11645 -1.3346 0
M  V30 1181 O 108.047 1.13325 -1.66492 0
M  V30 1182 C 105.112 1.66713 -3.03987 0
M  V30 1183 C 104.173 1.11041 -4.14691 0
M  V30 1184 C 103.406 2.19389 -4.86522 0
M  V30 1185 O 103.629 3.40013 -4.57982 0
M  V30 1186 O 102.563 1.83976 -5.73094 0
M  V30 1187 H 106.389 -0.0770399 -3.03602 0
M  V30 1188 H 103.974 -0.103555 -1.49041 0
M  V30 1189 H 105.856 2.32918 -3.5118 0
M  V30 1190 H 104.531 2.25949 -2.31794 0
M  V30 1191 H 103.438 0.413024 -3.71813 0
M  V30 1192 H 104.771 0.562975 -4.8897 0
M  V30 1193 N 106.423 1.57458 -0.0668435 0
M  V30 1194 C 107.648 1.9804 0.616027 0
M  V30 1195 C 108.073 0.944771 1.62652 0
M  V30 1196 O 107.431 -0.0902094 1.81075 0
M  V30 1197 C 107.479 3.37665 1.26549 0
M  V30 1198 O 106.583 3.36701 2.38131 0
M  V30 1199 H 105.924 0.644719 0.158849 0
M  V30 1200 H 108.454 2.04121 -0.139891 0
M  V30 1201 H 108.464 3.7474 1.6135 0
M  V30 1202 H 107.139 4.12573 0.525016 0
M  V30 1203 H 105.716 3.1139 2.0516 0
M  V30 1204 N 107.901 -0.206675 1.56239 0
M  V30 1205 C 108.864 -1.23976 1.92776 0
M  V30 1206 C 109.864 -1.39041 0.807729 0
M  V30 1207 O 111.054 -1.37051 1.0753 0
M  V30 1208 C 108.186 -2.61112 2.19165 0
M  V30 1209 H 109.379 -0.927764 2.85189 0
M  V30 1210 H 106.932 -0.447718 1.4975 0
M  V30 1211 H 107.667 -2.97386 1.29352 0
M  V30 1212 H 107.452 -2.51552 3.00772 0
M  V30 1213 H 108.942 -3.35633 2.48476 0
M  V30 1214 N 109.379 -1.50304 -0.473955 0
M  V30 1215 C 110.79 -1.54042 -1.0549 0
M  V30 1216 C 111.141 -0.342248 -1.93192 0
M  V30 1217 O 110.266 0.545157 -2.09421 0
M  V30 1218 C 110.861 -2.79152 -1.91989 0
M  V30 1219 C 109.42 -2.8558 -2.45196 0
M  V30 1220 C 108.567 -2.48295 -1.2347 0
M  V30 1221 H 111.518 -1.5661 -0.256693 0
M  V30 1222 H 111.539 -2.60845 -2.7702 0
M  V30 1223 H 111.051 -3.66339 -1.28131 0
M  V30 1224 H 109.152 -2.02738 -3.12615 0
M  V30 1225 H 109.265 -3.88403 -2.80499 0
M  V30 1226 H 107.629 -2.00669 -1.56856 0
M  V30 1227 H 108.412 -3.37787 -0.612789 0
M  V30 1228 N 110.857 0.726932 -1.39834 0
M  V30 1229 C 111.767 1.87131 -1.41489 0
M  V30 1230 C 112.783 1.71239 -0.308757 0
M  V30 1231 O 113.959 1.93701 -0.551529 0
M  V30 1232 C 111.024 3.22811 -1.26468 0
M  V30 1233 C 110.085 3.51039 -2.47124 0
M  V30 1234 C 109.318 4.80245 -2.3281 0
M  V30 1235 O 109.541 5.54537 -1.33585 0
M  V30 1236 O 108.475 5.08554 -3.21957 0
M  V30 1237 H 112.301 1.8869 -2.3797 0
M  V30 1238 H 109.886 0.875837 -1.21035 0
M  V30 1239 H 111.768 4.03877 -1.20255 0
M  V30 1240 H 110.443 3.22005 -0.330862 0
M  V30 1241 H 109.35 2.70027 -2.58914 0
M  V30 1242 H 110.683 3.56632 -3.39227 0
M  V30 1243 N 112.336 1.25143 0.95797 0
M  V30 1244 C 113.585 1.0909 1.69654 0
M  V30 1245 C 113.898 -0.368548 1.92097 0
M  V30 1246 O 115.104 -0.649455 2.63618 0
M  V30 1247 C 113.56 1.90395 3.05414 0
M  V30 1248 C 113.168 3.4081 2.90779 0
M  V30 1249 C 114.912 1.82901 3.83076 0
M  V30 1250 C 112.819 4.14423 4.21909 0
M  V30 1251 H 111.749 0.404625 0.636235 0
M  V30 1252 H 114.4 1.4931 1.06672 0
M  V30 1253 H 112.782 1.42996 3.69281 0
M  V30 1254 H 113.956 3.95859 2.35865 0
M  V30 1255 H 112.271 3.49361 2.26575 0
M  V30 1256 H 114.868 2.35196 4.80195 0
M  V30 1257 H 115.211 0.796224 4.08615 0
M  V30 1258 H 115.744 2.28033 3.25954 0
M  V30 1259 H 112.483 5.18102 4.01561 0
M  V30 1260 H 112.003 3.64159 4.76601 0
M  V30 1261 H 113.682 4.21956 4.90471 0
M  V30 1262 N 113.814 -1.1601 1.06675 0
M  V30 1263 C 114.744 -2.22688 0.702307 0
M  V30 1264 C 115.725 -1.67306 -0.307032 0
M  V30 1265 O 116.91 -1.93352 -0.181305 0
M  V30 1266 C 114.04 -3.47178 0.092038 0
M  V30 1267 C 112.994 -4.15477 1.02777 0
M  V30 1268 C 112.32 -5.33963 0.28061 0
M  V30 1269 C 113.62 -4.66019 2.35846 0
M  V30 1270 H 115.314 -2.53429 1.59419 0
M  V30 1271 H 112.86 -1.21813 0.767961 0
M  V30 1272 H 114.813 -4.21037 -0.174814 0
M  V30 1273 H 113.537 -3.15749 -0.834877 0
M  V30 1274 H 112.196 -3.43549 1.27944 0
M  V30 1275 H 111.844 -4.98788 -0.649545 0
M  V30 1276 H 111.544 -5.806 0.904258 0
M  V30 1277 H 113.068 -6.10596 0.021396 0
M  V30 1278 H 114.482 -5.3144 2.15045 0
M  V30 1279 H 112.879 -5.23293 2.93743 0
M  V30 1280 H 113.949 -3.82023 2.98641 0
M  V30 1281 N 115.292 -0.849877 -1.32721 0
M  V30 1282 C 116.24 -0.279745 -2.30912 0
M  V30 1283 C 117.234 0.594278 -1.58634 0
M  V30 1284 O 118.44 0.482613 -1.73409 0
M  V30 1285 H 114.815 -0.0717521 -0.748569 0
M  V30 1286 H 116.786 -1.12222 -2.76494 0
M  V30 1287 C 115.535 0.521108 -3.43773 0
M  V30 1288 H 114.858 -0.142141 -3.99547 0
M  V30 1289 H 116.298 0.885693 -4.14646 0
M  V30 1290 C 114.757 1.70442 -2.90605 0
M  V30 1291 O 115.287 2.8034 -2.87702 0
M  V30 1292 N 113.493 1.52991 -2.47067 0
M  V30 1293 H 113.04 0.635914 -2.49628 0
M  V30 1294 H 112.998 2.32311 -2.11847 0
M  V30 1295 N 116.77 1.45427 -0.607355 0
M  V30 1296 C 118 2.06314 -0.108656 0
M  V30 1297 C 118.408 1.45269 1.21217 0
M  V30 1298 O 117.751 0.561115 1.74921 0
M  V30 1299 C 117.813 3.59345 0.105618 0
M  V30 1300 C 117.477 4.42723 -1.13337 0
M  V30 1301 C 118.474 4.77715 -2.05145 0
M  V30 1302 C 116.159 4.83478 -1.36213 0
M  V30 1303 C 118.153 5.52317 -3.18158 0
M  V30 1304 C 115.84 5.57835 -2.49527 0
M  V30 1305 C 116.838 5.92171 -3.40327 0
M  V30 1306 O 116.526 6.65019 -4.51669 0
M  V30 1307 H 116.258 0.672782 -0.0658842 0
M  V30 1308 H 118.812 1.87664 -0.834945 0
M  V30 1309 H 117.042 3.76394 0.886796 0
M  V30 1310 H 118.731 4.02076 0.555886 0
M  V30 1311 H 119.497 4.46787 -1.88697 0
M  V30 1312 H 115.376 4.56188 -0.664362 0
M  V30 1313 H 118.92 5.79036 -3.89054 0
M  V30 1314 H 114.817 5.88177 -2.65928 0
M  V30 1315 H 115.585 6.83469 -4.50348 0
M  V30 1316 N 118.248 0.346503 1.53744 0
M  V30 1317 C 119.497 -0.250122 2.00143 0
M  V30 1318 C 119.81 -1.51418 1.23822 0
M  V30 1319 O 121.016 -2.18823 1.60713 0
M  V30 1320 C 119.472 -0.496252 3.56462 0
M  V30 1321 C 119.08 0.752077 4.41642 0
M  V30 1322 C 120.824 -1.05157 4.11269 0
M  V30 1323 C 118.731 0.476583 5.89477 0
M  V30 1324 H 117.661 -0.0972409 0.747703 0
M  V30 1325 H 120.312 0.46229 1.77581 0
M  V30 1326 H 118.694 -1.26944 3.75102 0
M  V30 1327 H 119.868 1.5266 4.34778 0
M  V30 1328 H 118.183 1.22925 3.97842 0
M  V30 1329 H 120.78 -1.27269 5.19333 0
M  V30 1330 H 121.123 -2.00799 3.64672 0
M  V30 1331 H 121.656 -0.339019 3.96353 0
M  V30 1332 H 118.395 1.4028 6.40314 0
M  V30 1333 H 117.915 -0.259794 5.99237 0
M  V30 1334 H 119.594 0.0949315 6.4693 0
M  V30 1335 N 119.726 -1.57421 0.075193 0
M  V30 1336 C 120.659 -2.08528 -0.926904 0
M  V30 1337 C 121.637 -0.991171 -1.28898 0
M  V30 1338 O 122.821 -1.26479 -1.39769 0
M  V30 1339 C 119.948 -2.54576 -2.23402 0
M  V30 1340 C 118.994 -3.75454 -2.02327 0
M  V30 1341 S 119.827 -5.19989 -1.27951 0
M  V30 1342 C 120.983 -5.69372 -2.59935 0
M  V30 1343 H 121.216 -2.932 -0.492048 0
M  V30 1344 H 118.749 -1.53785 -0.137651 0
M  V30 1345 H 120.707 -2.81767 -2.98526 0
M  V30 1346 H 119.368 -1.70166 -2.64012 0
M  V30 1347 H 118.561 -4.05675 -2.99071 0
M  V30 1348 H 118.163 -3.48654 -1.35339 0
M  V30 1349 H 120.455 -5.76424 -3.56008 0
M  V30 1350 H 121.398 -6.68207 -2.34319 0
M  V30 1351 H 121.806 -4.97205 -2.67296 0
M  V30 1352 N 121.204 0.198386 -1.56346 0
M  V30 1353 C 122.429 0.939682 -1.84891 0
M  V30 1354 C 122.854 1.76202 -0.658369 0
M  V30 1355 O 122.212 1.76993 0.392851 0
M  V30 1356 C 122.26 1.81428 -3.11635 0
M  V30 1357 O 121.364 2.91265 -2.91956 0
M  V30 1358 H 120.705 0.264807 -0.608912 0
M  V30 1359 H 123.235 0.204695 -2.03573 0
M  V30 1360 H 123.245 2.21958 -3.42343 0
M  V30 1361 H 121.92 1.21004 -3.97908 0
M  V30 1362 H 120.497 2.54514 -2.72538 0
M  V30 1363 N 122.682 1.50554 0.465978 0
M  V30 1364 C 123.63 1.70324 1.58406 0
M  V30 1365 C 124.624 0.569139 1.59553 0
M  V30 1366 O 125.83 0.749776 1.63641 0
M  V30 1367 H 122.205 0.537688 0.525734 0
M  V30 1368 H 124.176 2.64104 1.38894 0
M  V30 1369 C 122.925 1.81928 2.96307 0
M  V30 1370 H 122.248 2.68586 2.96144 0
M  V30 1371 H 123.688 1.99784 3.73982 0
M  V30 1372 C 122.147 0.572095 3.32007 0
M  V30 1373 O 122.677 -0.286416 4.00678 0
M  V30 1374 N 120.883 0.424606 2.87481 0
M  V30 1375 H 120.43 1.12427 2.31771 0
M  V30 1376 H 120.388 -0.408697 3.11732 0
M  V30 1377 N 124.16 -0.719506 1.40217 0
M  V30 1378 C 125.385 -1.51371 1.4178 0
M  V30 1379 C 125.81 -1.88091 0.0182355 0
M  V30 1380 O 125.168 -1.52997 -0.972707 0
M  V30 1381 C 125.216 -2.768 2.31115 0
M  V30 1382 O 124.32 -3.73349 1.7517 0
M  V30 1383 H 123.661 -0.456529 0.482159 0
M  V30 1384 H 126.191 -0.88644 1.844 0
M  V30 1385 H 126.201 -3.25371 2.46167 0
M  V30 1386 H 124.876 -2.49407 3.3282 0
M  V30 1387 H 123.453 -3.32179 1.69444 0
M  V30 1388 N 125.638 -1.25649 -0.95132 0
M  V30 1389 C 126.885 -1.10594 -1.69633 0
M  V30 1390 C 127.213 0.352515 -1.91279 0
M  V30 1391 O 126.468 1.27601 -1.4838 0
M  V30 1392 C 126.767 -1.80909 -3.08231 0
M  V30 1393 C 126.433 -3.30825 -3.06375 0
M  V30 1394 C 125.095 -3.71722 -3.05576 0
M  V30 1395 C 127.447 -4.26589 -2.99452 0
M  V30 1396 C 124.775 -5.06788 -2.95606 0
M  V30 1397 C 127.127 -5.61683 -2.91024 0
M  V30 1398 C 125.791 -6.01904 -2.88562 0
M  V30 1399 H 125.061 -0.404691 -0.620731 0
M  V30 1400 H 127.708 -1.55964 -1.11119 0
M  V30 1401 H 126.013 -1.27979 -3.70309 0
M  V30 1402 H 127.71 -1.6671 -3.64704 0
M  V30 1403 H 124.3 -2.98287 -3.07771 0
M  V30 1404 H 128.484 -3.95982 -2.99185 0
M  V30 1405 H 123.74 -5.37126 -2.92071 0
M  V30 1406 H 127.914 -6.35578 -2.84629 0
M  V30 1407 H 125.541 -7.06521 -2.80593 0
M  V30 1408 N 127.117 1.15442 -1.07289 0
M  V30 1409 C 128.065 2.22225 -0.686952 0
M  V30 1410 C 129.059 1.66688 0.30193 0
M  V30 1411 O 130.265 1.79236 0.165712 0
M  V30 1412 H 126.64 0.723783 -0.204064 0
M  V30 1413 H 128.611 2.52056 -1.5972 0
M  V30 1414 C 127.36 3.47556 -0.100149 0
M  V30 1415 H 126.683 3.90612 -0.852211 0
M  V30 1416 H 128.123 4.23794 0.132235 0
M  V30 1417 C 126.582 3.16337 1.159 0
M  V30 1418 O 127.112 3.33074 2.24555 0
M  V30 1419 N 125.318 2.70385 1.06491 0
M  V30 1420 H 124.865 2.56966 0.180668 0
M  V30 1421 H 124.823 2.49871 1.90819 0
M  V30 1422 N 128.595 0.856903 1.32268 0
M  V30 1423 C 129.872 0.382583 1.91822 0
M  V30 1424 C 130.252 -1.13407 1.78051 0
M  V30 1425 O 129.6 -1.95673 1.18001 0
M  V30 1426 C 129.81 0.849446 3.38505 0
M  V30 1427 C 131.158 0.867936 4.15634 0
M  V30 1428 O 132.182 0.794232 3.47232 0
M  V30 1429 O 131.041 0.972286 5.37781 0
M  V30 1430 H 128.135 0.112014 0.819379 0
M  V30 1431 H 130.681 0.943952 1.41024 0
M  V30 1432 H 129.453 1.89267 3.42482 0
M  V30 1433 H 129.076 0.265652 3.96712 0
M  V30 1434 N 130.073 -1.45103 0.615059 0
M  V30 1435 C 130.983 -2.34382 -0.101034 0
M  V30 1436 C 131.999 -1.51681 -0.852585 0
M  V30 1437 O 133.175 -1.8446 -0.808484 0
M  V30 1438 C 130.24 -3.29417 -1.08099 0
M  V30 1439 C 129.301 -4.28025 -0.330577 0
M  V30 1440 C 128.534 -5.1852 -1.26385 0
M  V30 1441 O 128.757 -5.12598 -2.50198 0
M  V30 1442 O 127.691 -5.97122 -0.756866 0
M  V30 1443 H 131.517 -2.97033 0.632855 0
M  V30 1444 H 129.102 -1.4461 0.375293 0
M  V30 1445 H 130.984 -3.87958 -1.6452 0
M  V30 1446 H 129.659 -2.69321 -1.79577 0
M  V30 1447 H 128.566 -3.73078 0.276283 0
M  V30 1448 H 129.899 -4.90997 0.343866 0
M  V30 1449 N 131.551 -0.354651 -1.53558 0
M  V30 1450 C 132.779 0.239515 -2.05509 0
M  V30 1451 C 133.194 1.4333 -1.2289 0
M  V30 1452 O 132.551 1.80538 -0.266899 0
M  V30 1453 C 132.602 0.643719 -3.55723 0
M  V30 1454 O 132.323 -0.502602 -4.35207 0
M  V30 1455 C 133.824 1.29743 -4.23889 0
M  V30 1456 H 131.044 0.0442697 -0.669538 0
M  V30 1457 H 133.588 -0.509856 -1.98042 0
M  V30 1458 H 131.743 1.34302 -3.63376 0
M  V30 1459 H 132.157 -0.178172 -5.24197 0
M  V30 1460 H 133.631 1.53091 -5.30346 0
M  V30 1461 H 134.108 2.25441 -3.76926 0
M  V30 1462 H 134.714 0.639865 -4.20459 0
M  V30 1463 N 133.029 1.57378 -0.0835403 0
M  V30 1464 C 133.976 2.13384 0.879539 0
M  V30 1465 C 134.946 1.04936 1.28754 0
M  V30 1466 O 136.131 1.32662 1.37133 0
M  V30 1467 C 133.271 2.70932 2.13752 0
M  V30 1468 C 132.384 3.93575 1.7811 0
M  V30 1469 C 131.519 4.39326 2.98607 0
M  V30 1470 C 130.558 5.54587 2.59037 0
M  V30 1471 N 129.695 5.95243 3.72331 0
M  V30 1472 H 134.535 2.9537 0.395076 0
M  V30 1473 H 132.072 1.45953 0.183349 0
M  V30 1474 H 134.03 3.02411 2.87408 0
M  V30 1475 H 132.66 1.91693 2.59718 0
M  V30 1476 H 131.712 3.68483 0.94469 0
M  V30 1477 H 133.024 4.77258 1.45005 0
M  V30 1478 H 132.178 4.72528 3.80529 0
M  V30 1479 H 130.917 3.5452 3.34913 0
M  V30 1480 H 129.922 5.21024 1.75539 0
M  V30 1481 H 131.147 6.41133 2.23887 0
M  V30 1482 H 129.093 5.13385 4.08378 0
M  V30 1483 H 129.01 6.73694 3.43034 0
M  V30 1484 H 130.278 6.33072 4.54797 0
M  V30 1485 N 134.507 -0.190092 1.56449 0
M  V30 1486 C 135.753 -0.911052 1.81184 0
M  V30 1487 C 136.086 -1.82699 0.658396 0
M  V30 1488 O 135.361 -1.91491 -0.340775 0
M  V30 1489 C 135.644 -1.72297 3.16205 0
M  V30 1490 C 135.497 -0.831419 4.42049 0
M  V30 1491 C 136.816 -2.69454 3.47969 0
M  V30 1492 H 133.935 -0.32977 0.659106 0
M  V30 1493 H 136.577 -0.178169 1.89163 0
M  V30 1494 H 134.727 -2.34778 3.09534 0
M  V30 1495 H 136.399 -0.220929 4.60771 0
M  V30 1496 H 134.642 -0.138406 4.33579 0
M  V30 1497 H 135.313 -1.43461 5.33032 0
M  V30 1498 H 137.789 -2.17104 3.54972 0
M  V30 1499 H 136.665 -3.23342 4.43555 0
M  V30 1500 H 136.926 -3.48744 2.71717 0
M  V30 1501 N 135.985 -1.50799 -0.457987 0
M  V30 1502 C 137.234 -1.6168 -1.20593 0
M  V30 1503 C 137.547 -0.32888 -1.92815 0
M  V30 1504 O 138.753 -0.316773 -2.69646 0
M  V30 1505 C 137.209 -2.8545 -2.19195 0
M  V30 1506 C 136.817 -4.21168 -1.52715 0
M  V30 1507 C 138.561 -3.05681 -2.94549 0
M  V30 1508 C 136.468 -5.3611 -2.4968 0
M  V30 1509 H 135.398 -0.602134 -0.453818 0
M  V30 1510 H 138.049 -1.77245 -0.475031 0
M  V30 1511 H 136.431 -2.63472 -2.95632 0
M  V30 1512 H 137.605 -4.53449 -0.819775 0
M  V30 1513 H 135.92 -4.06648 -0.895922 0
M  V30 1514 H 138.517 -3.88727 -3.67145 0
M  V30 1515 H 138.86 -2.17929 -3.54701 0
M  V30 1516 H 139.393 -3.27901 -2.25223 0
M  V30 1517 H 136.132 -6.26057 -1.94249 0
M  V30 1518 H 135.652 -5.0823 -3.18532 0
M  V30 1519 H 137.331 -5.6722 -3.11241 0
M  V30 1520 N 137.463 0.71206 -1.40597 0
M  V30 1521 C 138.711 1.46907 -1.38791 0
M  V30 1522 C 139.032 1.94998 0.00780391 0
M  V30 1523 O 138.302 1.70587 0.963174 0
M  V30 1524 H 136.882 0.545043 -0.51082 0
M  V30 1525 H 139.544 0.843882 -1.75683 0
M  V30 1526 H 138.64 2.34021 -2.06496 0
M  V30 1527 N 138.941 1.26152 0.944643 0
M  V30 1528 C 140.19 1.10883 1.68487 0
M  V30 1529 C 140.503 -0.348153 1.92477 0
M  V30 1530 O 141.709 -0.621459 2.64292 0
M  V30 1531 C 140.165 1.93624 3.03377 0
M  V30 1532 C 139.773 3.43875 2.87148 0
M  V30 1533 C 141.517 1.86954 3.81115 0
M  V30 1534 C 139.424 4.18875 4.1749 0
M  V30 1535 H 138.354 0.41135 0.631907 0
M  V30 1536 H 141.005 1.50433 1.05082 0
M  V30 1537 H 139.387 1.46904 3.67743 0
M  V30 1538 H 140.561 3.98338 2.31653 0
M  V30 1539 H 138.876 3.51744 2.22856 0
M  V30 1540 H 141.473 2.40275 4.77673 0
M  V30 1541 H 141.816 0.839518 4.07747 0
M  V30 1542 H 142.349 2.31477 3.23517 0
M  V30 1543 H 139.088 5.22332 3.96043 0
M  V30 1544 H 138.608 3.69193 4.72712 0
M  V30 1545 H 140.287 4.27134 4.85968 0
M  V30 1546 N 140.419 -1.14872 1.07899 0
M  V30 1547 C 141.696 -1.81928 0.71845 0
M  V30 1548 C 142.076 -1.95417 -0.798455 0
M  V30 1549 O 141.424 -1.50997 -1.715 0
M  V30 1550 C 141.634 -3.17937 1.43935 0
M  V30 1551 C 142.982 -3.93501 1.59506 0
M  V30 1552 O 144.006 -3.27509 1.40058 0
M  V30 1553 O 142.865 -5.1183 1.91551 0
M  V30 1554 H 139.959 -0.78628 0.256305 0
M  V30 1555 H 142.505 -1.21934 1.18026 0
M  V30 1556 H 141.277 -3.0325 2.47295 0
M  V30 1557 H 140.9 -3.85619 0.968687 0
M  V30 1558 N 141.898 -0.863906 -1.31812 0
M  V30 1559 C 142.808 -0.318461 -2.32428 0
M  V30 1560 C 143.824 0.568496 -1.64451 0
M  V30 1561 O 145 0.46666 -1.95919 0
M  V30 1562 C 142.065 0.476355 -3.43412 0
M  V30 1563 C 141.126 -0.43784 -4.27061 0
M  V30 1564 C 140.359 0.319138 -5.32745 0
M  V30 1565 O 140.582 1.54799 -5.48993 0
M  V30 1566 O 139.516 -0.319861 -6.01049 0
M  V30 1567 H 143.342 -1.15229 -2.80991 0
M  V30 1568 H 140.927 -0.627103 -1.35602 0
M  V30 1569 H 142.809 0.927156 -4.11074 0
M  V30 1570 H 141.484 1.28683 -2.97022 0
M  V30 1571 H 140.391 -0.937013 -3.62175 0
M  V30 1572 H 141.724 -1.21375 -4.77 0
M  V30 1573 N 143.376 1.44774 -0.622745 0
M  V30 1574 C 144.622 2.0242 -0.124083 0
M  V30 1575 C 144.955 1.4881 1.24777 0
M  V30 1576 O 144.23 0.668799 1.8264 0
M  V30 1577 C 144.513 3.59957 -0.101619 0
M  V30 1578 C 144.366 4.23867 -1.50521 0
M  V30 1579 C 145.685 4.36284 0.578272 0
M  V30 1580 H 142.804 0.735528 -0.0465645 0
M  V30 1581 H 145.446 1.72447 -0.797617 0
M  V30 1582 H 143.596 3.85623 0.471934 0
M  V30 1583 H 145.268 4.09336 -2.12701 0
M  V30 1584 H 143.511 3.81684 -2.06154 0
M  V30 1585 H 144.182 5.32843 -1.4416 0
M  V30 1586 H 146.658 4.16001 0.0906057 0
M  V30 1587 H 145.534 5.46004 0.563149 0
M  V30 1588 H 145.795 4.10271 1.64713 0
M  V30 1589 N 144.854 0.36279 1.53368 0
M  V30 1590 C 145.786 -0.519668 2.23231 0
M  V30 1591 C 146.799 -1.04844 1.24546 0
M  V30 1592 O 147.988 -0.955296 1.50786 0
M  V30 1593 C 145.088 -1.72995 2.9142 0
M  V30 1594 C 144.261 -1.33316 4.16588 0
M  V30 1595 C 143.32 -2.40521 4.68013 0
M  V30 1596 O 142.346 -2.03027 5.3176 0
M  V30 1597 N 143.548 -3.72065 4.45587 0
M  V30 1598 H 146.313 0.078751 2.99597 0
M  V30 1599 H 143.874 0.187833 1.60807 0
M  V30 1600 H 145.866 -2.44184 3.22733 0
M  V30 1601 H 144.436 -2.2353 2.18525 0
M  V30 1602 H 143.656 -0.451236 3.91609 0
M  V30 1603 H 144.944 -1.04432 4.97967 0
M  V30 1604 H 144.342 -4.05304 3.94646 0
M  V30 1605 H 142.899 -4.39366 4.81457 0
M  V30 1606 N 146.332 -1.57332 0.0918853 0
M  V30 1607 C 147.579 -1.94236 -0.572577 0
M  V30 1608 C 147.907 -0.973398 -1.6839 0
M  V30 1609 O 147.162 0.00756912 -1.95699 0
M  V30 1610 C 147.461 -3.37689 -1.17051 0
M  V30 1611 C 147.127 -4.50527 -0.183304 0
M  V30 1612 C 145.789 -4.81119 0.0882276 0
M  V30 1613 C 148.141 -5.18883 0.49095 0
M  V30 1614 C 145.469 -5.77395 1.04076 0
M  V30 1615 C 147.821 -6.1618 1.43193 0
M  V30 1616 C 146.485 -6.45179 1.71173 0
M  V30 1617 H 145.755 -0.710762 -0.209521 0
M  V30 1618 H 148.402 -1.9077 0.167036 0
M  V30 1619 H 146.707 -3.37718 -1.9863 0
M  V30 1620 H 148.404 -3.63543 -1.69227 0
M  V30 1621 H 144.994 -4.26681 -0.405124 0
M  V30 1622 H 149.178 -4.95427 0.294312 0
M  V30 1623 H 144.434 -5.98179 1.26457 0
M  V30 1624 H 148.608 -6.68243 1.96023 0
M  V30 1625 H 146.235 -7.1959 2.4514 0
M  V30 1626 N 147.81 0.181792 -1.56548 0
M  V30 1627 C 149.057 0.900097 -1.81396 0
M  V30 1628 C 149.385 1.82695 -0.667281 0
M  V30 1629 O 148.64 1.92614 0.346146 0
M  V30 1630 C 148.939 1.73728 -3.12335 0
M  V30 1631 C 148.605 0.960255 -4.40556 0
M  V30 1632 C 147.267 0.745766 -4.75386 0
M  V30 1633 C 149.619 0.414477 -5.19549 0
M  V30 1634 C 146.947 -0.0257694 -5.86694 0
M  V30 1635 C 149.299 -0.343916 -6.31664 0
M  V30 1636 C 147.963 -0.569301 -6.65068 0
M  V30 1637 H 147.233 0.329369 -0.663775 0
M  V30 1638 H 149.88 0.165647 -1.90782 0
M  V30 1639 H 148.185 2.54081 -2.98245 0
M  V30 1640 H 149.882 2.29591 -3.28769 0
M  V30 1641 H 146.472 1.13746 -4.13231 0
M  V30 1642 H 150.656 0.567554 -4.93044 0
M  V30 1643 H 145.912 -0.210233 -6.11038 0
M  V30 1644 H 150.086 -0.774133 -6.92084 0
M  V30 1645 H 147.713 -1.16903 -7.51158 0
M  V30 1646 N 149.288 1.51039 0.449983 0
M  V30 1647 C 150.565 1.53612 1.21089 0
M  V30 1648 C 150.945 0.292997 2.09057 0
M  V30 1649 O 150.293 -0.72259 2.16774 0
M  V30 1650 C 150.503 2.84337 2.0237 0
M  V30 1651 C 151.851 3.35807 2.59843 0
M  V30 1652 O 152.875 2.85802 2.12593 0
M  V30 1653 O 151.734 4.23029 3.45989 0
M  V30 1654 H 148.828 0.617057 0.550608 0
M  V30 1655 H 151.374 1.63344 0.460082 0
M  V30 1656 H 150.146 3.66278 1.37681 0
M  V30 1657 H 149.769 2.77708 2.84542 0
M  V30 1658 N 150.766 -0.704594 1.40972 0
M  V30 1659 C 152.043 -1.45847 1.30338 0
M  V30 1660 C 152.423 -2.10973 -0.0732344 0
M  V30 1661 O 151.771 -2.00997 -1.08685 0
M  V30 1662 C 151.981 -2.48525 2.45023 0
M  V30 1663 C 153.329 -3.1404 2.8577 0
M  V30 1664 O 154.353 -2.58848 2.44696 0
M  V30 1665 O 153.212 -4.13981 3.56766 0
M  V30 1666 H 150.306 -0.649092 0.512454 0
M  V30 1667 H 152.852 -0.735836 1.52917 0
M  V30 1668 H 151.624 -1.98994 3.36923 0
M  V30 1669 H 151.247 -3.2831 2.24272 0
M  V30 1670 N 152.244 -1.26651 -0.937939 0
M  V30 1671 C 153.66 -1.03834 -1.21205 0
M  V30 1672 C 153.86 0.234502 -2.00131 0
M  V30 1673 O 152.916 0.942767 -2.3424 0
M  V30 1674 C 154.229 -2.27167 -1.97017 0
M  V30 1675 C 155.777 -2.32101 -2.09996 0
M  V30 1676 C 156.252 -3.55136 -2.8921 0
M  V30 1677 N 157.743 -3.55632 -2.96783 0
M  V30 1678 C 158.478 -4.475 -3.58512 0
M  V30 1679 N 157.974 -5.4966 -4.21717 0
M  V30 1680 N 159.767 -4.35145 -3.55816 0
M  V30 1681 H 151.918 -2.08398 -0.410391 0
M  V30 1682 H 154.181 -0.916031 -0.244114 0
M  V30 1683 H 153.887 -3.19765 -1.46434 0
M  V30 1684 H 153.761 -2.31672 -2.97671 0
M  V30 1685 H 156.148 -1.40015 -2.59769 0
M  V30 1686 H 156.229 -2.31605 -1.08594 0
M  V30 1687 H 155.873 -4.47553 -2.40123 0
M  V30 1688 H 155.803 -3.5288 -3.90875 0
M  V30 1689 H 158.294 -2.81743 -2.51852 0
M  V30 1690 H 158.607 -6.15943 -4.66727 0
M  V30 1691 H 156.952 -5.53514 -4.20294 0
M  V30 1692 H 160.143 -3.5455 -3.05634 0
M  V30 1693 H 160.316 -5.06934 -4.03636 0
M  V30 1694 N 153.722 1.14298 -1.08507 0
M  V30 1695 C 154.971 1.84708 -0.810305 0
M  V30 1696 C 155.284 1.83903 0.666271 0
M  V30 1697 O 156.49 2.50112 1.05624 0
M  V30 1698 C 154.946 3.31572 -1.39957 0
M  V30 1699 C 154.554 3.40791 -2.90801 0
M  V30 1700 C 156.298 4.07087 -1.20334 0
M  V30 1701 C 154.205 4.81872 -3.4286 0
M  V30 1702 H 153.135 0.691985 -0.299454 0
M  V30 1703 H 155.786 1.28841 -1.30661 0
M  V30 1704 H 154.168 3.87183 -0.830976 0
M  V30 1705 H 155.342 2.95225 -3.53806 0
M  V30 1706 H 153.657 2.78732 -3.0935 0
M  V30 1707 H 156.254 5.11225 -1.56693 0
M  V30 1708 H 156.597 4.16054 -0.143237 0
M  V30 1709 H 157.13 3.57779 -1.73893 0
M  V30 1710 H 153.869 4.78094 -4.48449 0
M  V30 1711 H 153.389 5.27972 -2.84615 0
M  V30 1712 H 155.068 5.50765 -3.39509 0
M  V30 1713 N 155.201 0.870884 1.31352 0
M  V30 1714 C 156.441 0.488783 1.9847 0
M  V30 1715 C 156.805 -0.941536 1.67329 0
M  V30 1716 O 158.006 -1.42903 2.27667 0
M  V30 1717 C 156.277 0.739688 3.49662 0
M  V30 1718 S 157.836 0.457582 4.36408 0
M  V30 1719 H 154.654 0.18242 0.6872 0
M  V30 1720 H 157.256 1.12711 1.59739 0
M  V30 1721 H 155.96 1.77944 3.69816 0
M  V30 1722 H 155.491 0.0883905 3.93301 0
M  V30 1723 H 157.506 -0.709752 4.91098 0
M  V30 1724 N 156.679 -1.44442 0.630414 0
M  V30 1725 C 157.589 -2.34476 -0.0761693 0
M  V30 1726 C 158.605 -1.52576 -0.836449 0
M  V30 1727 O 159.781 -1.85307 -0.788874 0
M  V30 1728 C 156.846 -3.30545 -1.04599 0
M  V30 1729 C 155.907 -4.28352 -0.28516 0
M  V30 1730 C 155.14 -5.19831 -1.20878 0
M  V30 1731 O 155.363 -5.15223 -2.44747 0
M  V30 1732 O 154.297 -5.97892 -0.693491 0
M  V30 1733 H 158.123 -2.96345 0.664324 0
M  V30 1734 H 155.708 -1.44203 0.39061 0
M  V30 1735 H 157.59 -3.89681 -1.60396 0
M  V30 1736 H 156.265 -2.7121 -1.76711 0
M  V30 1737 H 155.172 -3.72764 0.315837 0
M  V30 1738 H 156.505 -4.90605 0.395924 0
M  V30 1739 N 158.157 -0.370918 -1.53173 0
M  V30 1740 C 159.403 0.217423 -2.01631 0
M  V30 1741 C 159.736 1.47983 -1.25756 0
M  V30 1742 O 159.011 1.91274 -0.352764 0
M  V30 1743 C 159.294 0.503982 -3.56556 0
M  V30 1744 C 159.147 -0.77243 -4.43118 0
M  V30 1745 C 160.466 1.30234 -4.20389 0
M  V30 1746 H 157.585 0.0775486 -0.732909 0
M  V30 1747 H 160.227 -0.496863 -1.83388 0
M  V30 1748 H 158.377 1.11248 -3.72231 0
M  V30 1749 H 160.049 -1.4098 -4.39229 0
M  V30 1750 H 158.292 -1.39167 -4.10871 0
M  V30 1751 H 158.963 -0.526815 -5.4948 0
M  V30 1752 H 161.439 0.787546 -4.08579 0
M  V30 1753 H 160.315 1.47158 -5.28806 0
M  V30 1754 H 160.576 2.31237 -3.76805 0
M  V30 1755 N 159.635 1.57281 -0.100228 0
M  V30 1756 C 160.598 2.13158 0.842398 0
M  V30 1757 C 161.598 1.06202 1.20738 0
M  V30 1758 O 162.788 1.32066 1.13597 0
M  V30 1759 C 159.92 2.65639 2.13655 0
M  V30 1760 H 161.113 2.97766 0.357114 0
M  V30 1761 H 158.666 1.5559 0.148823 0
M  V30 1762 H 159.401 1.84566 2.66657 0
M  V30 1763 H 159.186 3.43844 1.88451 0
M  V30 1764 H 160.676 3.08846 2.81077 0
M  V30 1765 N 161.113 -0.173488 1.56642 0
M  V30 1766 C 162.061 -1.23417 1.97157 0
M  V30 1767 C 163.055 -1.45946 0.860013 0
M  V30 1768 O 164.261 -1.46551 1.04512 0
M  V30 1769 H 160.636 -0.414818 0.62724 0
M  V30 1770 H 162.607 -0.865582 2.8557 0
M  V30 1771 C 161.356 -2.5665 2.34576 0
M  V30 1772 H 160.679 -2.40137 3.19647 0
M  V30 1773 H 162.119 -3.2956 2.6677 0
M  V30 1774 C 160.578 -3.15245 1.18836 0
M  V30 1775 O 161.108 -3.98883 0.474869 0
M  V30 1776 N 159.314 -2.74303 0.959497 0
M  V30 1777 H 158.861 -2.0639 1.54146 0
M  V30 1778 H 158.819 -3.13844 0.186932 0
M  V30 1779 N 162.591 -1.51276 -0.441967 0
M  V30 1780 C 163.84 -1.6295 -1.18871 0
M  V30 1781 C 164.153 -0.349312 -1.92456 0
M  V30 1782 O 165.359 -0.345355 -2.69295 0
M  V30 1783 C 163.815 -2.87759 -2.16155 0
M  V30 1784 C 163.423 -4.22764 -1.48239 0
M  V30 1785 C 165.167 -3.08788 -2.91291 0
M  V30 1786 C 163.074 -5.38728 -2.4398 0
M  V30 1787 H 162.004 -0.606913 -0.447406 0
M  V30 1788 H 164.655 -1.77739 -0.456205 0
M  V30 1789 H 163.037 -2.66593 -2.92821 0
M  V30 1790 H 164.211 -4.54293 -0.771635 0
M  V30 1791 H 162.526 -4.07575 -0.852741 0
M  V30 1792 H 165.123 -3.92599 -3.63002 0
M  V30 1793 H 165.466 -2.21679 -3.5237 0
M  V30 1794 H 165.999 -3.30272 -2.21733 0
M  V30 1795 H 162.738 -6.28082 -1.87598 0
M  V30 1796 H 162.258 -5.1158 -3.13123 0
M  V30 1797 H 163.937 -5.70489 -3.05207 0
M  V30 1798 N 164.069 0.697108 -1.41344 0
M  V30 1799 C 164.999 1.82353 -1.45841 0
M  V30 1800 C 165.98 1.67115 -0.317247 0
M  V30 1801 O 167.165 1.86871 -0.528474 0
M  V30 1802 C 164.295 3.20476 -1.33838 0
M  V30 1803 C 163.249 3.50415 -2.4575 0
M  V30 1804 C 162.575 4.87878 -2.18813 0
M  V30 1805 C 163.875 3.49546 -3.88091 0
M  V30 1806 H 165.569 1.78846 -2.40113 0
M  V30 1807 H 163.115 0.859028 -1.15571 0
M  V30 1808 H 165.068 3.98988 -1.35596 0
M  V30 1809 H 163.792 3.24604 -0.360498 0
M  V30 1810 H 162.451 2.74253 -2.43271 0
M  V30 1811 H 162.099 4.8863 -1.19371 0
M  V30 1812 H 161.799 5.08875 -2.93803 0
M  V30 1813 H 163.323 5.68702 -2.22284 0
M  V30 1814 H 164.737 4.18066 -3.92293 0
M  V30 1815 H 163.134 3.82075 -4.62751 0
M  V30 1816 H 164.204 2.48552 -4.16353 0
M  V30 1817 N 165.547 1.27147 0.931209 0
M  V30 1818 C 166.51 1.09615 2.01289 0
M  V30 1819 C 167.51 0.0412581 1.60747 0
M  V30 1820 O 168.7 0.285545 1.71844 0
M  V30 1821 C 165.832 0.669447 3.34262 0
M  V30 1822 H 167.025 2.05662 2.18273 0
M  V30 1823 H 164.578 1.09885 1.11153 0
M  V30 1824 H 165.313 -0.292572 3.22978 0
M  V30 1825 H 165.098 1.43127 3.65044 0
M  V30 1826 H 166.588 0.568921 4.13706 0
M  V30 1827 N 167.025 -1.13721 1.09112 0
M  V30 1828 C 167.935 -2.22638 0.73957 0
M  V30 1829 C 168.951 -1.72091 -0.257068 0
M  V30 1830 O 170.127 -2.01155 -0.0992154 0
M  V30 1831 C 167.192 -3.46322 0.16191 0
M  V30 1832 C 166.253 -4.11775 1.21408 0
M  V30 1833 C 165.486 -5.29555 0.663891 0
M  V30 1834 O 165.709 -5.68077 -0.514274 0
M  V30 1835 O 164.643 -5.84973 1.41738 0
M  V30 1836 H 168.469 -2.55074 1.64836 0
M  V30 1837 H 166.054 -1.21791 0.865289 0
M  V30 1838 H 167.936 -4.21107 -0.157073 0
M  V30 1839 H 166.611 -3.15593 -0.719932 0
M  V30 1840 H 165.518 -3.3883 1.58571 0
M  V30 1841 H 166.851 -4.46627 2.06845 0
M  V30 1842 N 168.503 -0.877838 -1.30888 0
M  V30 1843 C 169.451 -0.328662 -2.30266 0
M  V30 1844 C 170.445 0.560496 -1.59859 0
M  V30 1845 O 171.651 0.445722 -1.74394 0
M  V30 1846 H 168.026 -0.0876142 -0.746879 0
M  V30 1847 H 169.997 -1.18061 -2.74051 0
M  V30 1848 C 168.746 0.448071 -3.44801 0
M  V30 1849 H 168.069 -0.226859 -3.99156 0
M  V30 1850 H 169.509 0.797541 -4.16432 0
M  V30 1851 C 167.968 1.64239 -2.94155 0
M  V30 1852 O 168.498 2.74175 -2.93583 0
M  V30 1853 N 166.704 1.47716 -2.50256 0
M  V30 1854 H 166.251 0.582821 -2.5092 0
M  V30 1855 H 166.209 2.27765 -2.16727 0
M  V30 1856 N 169.982 1.44106 -0.638065 0
M  V30 1857 C 171.23 2.01579 -0.145043 0
M  V30 1858 C 171.551 1.50496 1.24 0
M  V30 1859 O 170.821 0.711374 1.82527 0
M  V30 1860 H 169.401 0.745282 -0.05063 0
M  V30 1861 H 172.063 1.76516 -0.826327 0
M  V30 1862 H 171.159 3.11877 -0.118039 0
M  V30 1863 N 171.46 0.379036 1.52974 0
M  V30 1864 C 172.707 -0.206421 2.01445 0
M  V30 1865 C 173.035 -1.47668 1.26587 0
M  V30 1866 O 172.29 -1.92514 0.351675 0
M  V30 1867 C 172.589 -0.53096 3.53434 0
M  V30 1868 C 172.255 0.646546 4.46241 0
M  V30 1869 C 170.917 0.969604 4.7133 0
M  V30 1870 C 173.269 1.43479 5.01062 0
M  V30 1871 C 170.597 2.08263 5.48492 0
M  V30 1872 C 172.949 2.53834 5.7944 0
M  V30 1873 C 171.613 2.86659 6.02812 0
M  V30 1874 H 170.883 -0.0755349 0.73714 0
M  V30 1875 H 173.53 0.514271 1.84465 0
M  V30 1876 H 171.835 -1.33285 3.68432 0
M  V30 1877 H 173.532 -0.996417 3.88423 0
M  V30 1878 H 170.122 0.384734 4.2687 0
M  V30 1879 H 174.306 1.19844 4.81613 0
M  V30 1880 H 169.562 2.34078 5.64816 0
M  V30 1881 H 173.736 3.15319 6.20924 0
M  V30 1882 H 171.363 3.73026 6.62387 0
M  V30 1883 N 172.938 -1.57226 0.108567 0
M  V30 1884 C 174.184 -1.95121 -0.552761 0
M  V30 1885 C 174.517 -0.991345 -1.66991 0
M  V30 1886 O 173.792 -0.0267211 -1.94482 0
M  V30 1887 C 174.075 -3.43039 -1.09528 0
M  V30 1888 C 173.928 -4.49797 0.0177332 0
M  V30 1889 C 175.247 -3.92567 -1.98945 0
M  V30 1890 H 172.366 -0.709496 -0.199461 0
M  V30 1891 H 175.008 -1.89126 0.182011 0
M  V30 1892 H 173.158 -3.48279 -1.72146 0
M  V30 1893 H 174.83 -4.56661 0.652584 0
M  V30 1894 H 173.073 -4.284 0.682309 0
M  V30 1895 H 173.744 -5.50528 -0.402919 0
M  V30 1896 H 176.22 -3.89565 -1.46214 0
M  V30 1897 H 175.096 -4.96605 -2.33827 0
M  V30 1898 H 175.357 -3.32648 -2.91201 0
M  V30 1899 N 174.416 0.165178 -1.56732 0
M  V30 1900 C 175.662 0.882112 -1.82611 0
M  V30 1901 C 175.995 1.81628 -0.687378 0
M  V30 1902 O 175.27 1.92009 0.310267 0
M  V30 1903 C 175.553 1.67245 -3.18906 0
M  V30 1904 C 175.406 0.760987 -4.43316 0
M  V30 1905 C 176.725 2.63884 -3.52212 0
M  V30 1906 H 173.844 0.319242 -0.664269 0
M  V30 1907 H 176.486 0.148052 -1.89422 0
M  V30 1908 H 174.636 2.29824 -3.1323 0
M  V30 1909 H 176.308 0.147596 -4.61064 0
M  V30 1910 H 174.551 0.0694102 -4.33744 0
M  V30 1911 H 175.222 1.34962 -5.35247 0
M  V30 1912 H 177.698 2.11429 -3.58381 0
M  V30 1913 H 176.574 3.16245 -4.48643 0
M  V30 1914 H 176.835 3.44377 -2.77231 0
M  V30 1915 N 175.894 1.51508 0.433938 0
M  V30 1916 C 177.143 1.63578 1.18005 0
M  V30 1917 C 177.456 0.359514 1.92268 0
M  V30 1918 O 178.662 0.359632 2.69108 0
M  V30 1919 C 177.118 2.88901 2.14626 0
M  V30 1920 C 176.726 4.23544 1.45995 0
M  V30 1921 C 178.47 3.10328 2.89649 0
M  V30 1922 C 176.377 5.40014 2.4112 0
M  V30 1923 H 175.307 0.609277 0.444182 0
M  V30 1924 H 177.958 1.77978 0.446773 0
M  V30 1925 H 176.34 2.68142 2.91403 0
M  V30 1926 H 177.514 4.54696 0.747532 0
M  V30 1927 H 175.829 4.08021 0.831115 0
M  V30 1928 H 178.426 3.94518 3.60915 0
M  V30 1929 H 178.769 2.23544 3.51189 0
M  V30 1930 H 179.302 3.31443 2.19978 0
M  V30 1931 H 176.041 6.29068 1.84264 0
M  V30 1932 H 175.561 5.13233 3.10406 0
M  V30 1933 H 177.24 5.72099 3.02177 0
M  V30 1934 N 177.372 -0.689602 1.41712 0
M  V30 1935 C 178.621 -1.44534 1.40686 0
M  V30 1936 C 178.934 -1.95588 0.0213352 0
M  V30 1937 O 180.14 -2.71271 -0.111534 0
M  V30 1938 C 178.596 -2.61387 2.47396 0
M  V30 1939 C 178.204 -2.17094 3.91885 0
M  V30 1940 C 179.948 -3.38986 2.55517 0
M  V30 1941 C 177.855 -3.3094 4.90135 0
M  V30 1942 H 176.785 -0.542925 0.52321 0
M  V30 1943 H 179.436 -0.748054 1.6756 0
M  V30 1944 H 177.818 -3.33412 2.13664 0
M  V30 1945 H 178.992 -1.52318 4.34897 0
M  V30 1946 H 177.307 -1.52473 3.8748 0
M  V30 1947 H 179.904 -4.23747 3.26102 0
M  V30 1948 H 180.247 -3.84578 1.59391 0
M  V30 1949 H 180.78 -2.74021 2.8837 0
M  V30 1950 H 177.519 -2.90355 5.87685 0
M  V30 1951 H 177.039 -3.94546 4.51767 0
M  V30 1952 H 178.718 -3.9663 5.11169 0
M  V30 1953 N 178.85 -1.27639 -0.924453 0
M  V30 1954 C 180.075 -1.17101 -1.71179 0
M  V30 1955 C 180.5 0.268134 -1.86179 0
M  V30 1956 O 179.858 1.19415 -1.36418 0
M  V30 1957 C 179.906 -1.86313 -3.08739 0
M  V30 1958 O 179.01 -1.16331 -3.95652 0
M  V30 1959 H 178.351 -0.407091 -0.524569 0
M  V30 1960 H 180.881 -1.68767 -1.15666 0
M  V30 1961 H 180.891 -1.938 -3.59034 0
M  V30 1962 H 179.566 -2.91001 -2.97138 0
M  V30 1963 H 178.143 -1.16935 -3.54091 0
M  V30 1964 N 180.328 1.1314 -1.09713 0
M  V30 1965 C 181.576 1.84119 -0.833338 0
M  V30 1966 C 181.897 1.84097 0.642904 0
M  V30 1967 O 181.167 1.29881 1.46655 0
M  V30 1968 H 179.747 0.681766 -0.305293 0
M  V30 1969 H 182.409 1.37038 -1.38588 0
M  V30 1970 H 181.505 2.88543 -1.18951 0
M  V30 1971 N 181.806 0.884767 1.30421 0
M  V30 1972 C 182.736 0.367574 2.30589 0
M  V30 1973 C 183.717 -0.549464 1.60981 0
M  V30 1974 O 184.902 -0.46336 1.88591 0
M  V30 1975 C 182.032 -0.418944 3.44764 0
M  V30 1976 C 180.986 0.406316 4.26067 0
M  V30 1977 C 180.312 -0.506793 5.32293 0
M  V30 1978 C 181.612 1.64832 4.95608 0
M  V30 1979 H 183.306 1.20462 2.74097 0
M  V30 1980 H 180.852 0.580695 1.31772 0
M  V30 1981 H 182.805 -0.791395 4.13902 0
M  V30 1982 H 181.529 -1.28964 3.0006 0
M  V30 1983 H 180.188 0.760903 3.58617 0
M  V30 1984 H 179.836 -1.37519 4.83836 0
M  V30 1985 H 179.536 0.0415828 5.87585 0
M  V30 1986 H 181.06 -0.875764 6.04287 0
M  V30 1987 H 182.474 1.34646 5.57264 0
M  V30 1988 H 180.871 2.13688 5.60765 0
M  V30 1989 H 181.941 2.39284 4.21748 0
M  V30 1990 N 183.284 -1.43765 0.645699 0
M  V30 1991 C 184.561 -1.9541 0.0862963 0
M  V30 1992 C 184.941 -1.58725 -1.39175 0
M  V30 1993 O 184.289 -0.868581 -2.11348 0
M  V30 1994 C 184.499 -3.47488 0.324565 0
M  V30 1995 C 185.847 -4.24001 0.225497 0
M  V30 1996 O 186.871 -3.55274 0.256715 0
M  V30 1997 O 185.73 -5.46313 0.142801 0
M  V30 1998 H 182.824 -0.826882 -0.0139483 0
M  V30 1999 H 185.37 -1.53743 0.718415 0
M  V30 2000 H 184.142 -3.67289 1.3496 0
M  V30 2001 H 183.765 -3.96135 -0.340987 0
M  V30 2002 N 184.763 -0.387143 -1.52771 0
M  V30 2003 C 185.71 0.449048 -2.26389 0
M  V30 2004 C 186.68 1.05961 -1.27912 0
M  V30 2005 O 187.865 1.08804 -1.56737 0
M  V30 2006 C 185.005 1.57155 -3.0724 0
M  V30 2007 C 184.118 0.984066 -4.20643 0
M  V30 2008 C 183.253 2.07745 -4.88892 0
M  V30 2009 C 182.292 1.46574 -5.94292 0
M  V30 2010 N 181.429 2.49834 -6.56146 0
M  V30 2011 H 186.269 -0.185205 -2.97424 0
M  V30 2012 H 183.806 -0.103164 -1.46738 0
M  V30 2013 H 185.764 2.23309 -3.52405 0
M  V30 2014 H 184.394 2.17615 -2.38419 0
M  V30 2015 H 183.446 0.212193 -3.79808 0
M  V30 2016 H 184.758 0.497029 -4.96318 0
M  V30 2017 H 183.912 2.81673 -5.3735 0
M  V30 2018 H 182.651 2.59807 -4.12737 0
M  V30 2019 H 181.656 0.711696 -5.45174 0
M  V30 2020 H 182.881 0.953088 -6.72379 0
M  V30 2021 H 180.827 3.0107 -5.82832 0
M  V30 2022 H 180.744 2.05879 -7.27427 0
M  V30 2023 H 182.012 3.23399 -7.09249 0
M  V30 2024 N 186.241 1.57166 -0.116904 0
M  V30 2025 C 187.189 2.16457 0.851418 0
M  V30 2026 C 188.183 1.11323 1.27686 0
M  V30 2027 O 189.389 1.2963 1.24884 0
M  V30 2028 H 185.764 0.69271 0.292672 0
M  V30 2029 H 187.735 2.96605 0.32685 0
M  V30 2030 C 186.484 2.77689 2.09246 0
M  V30 2031 H 185.807 3.58285 1.77402 0
M  V30 2032 H 187.247 3.22716 2.7501 0
M  V30 2033 C 185.706 1.74667 2.88085 0
M  V30 2034 O 186.236 1.19877 3.83396 0
M  V30 2035 N 184.442 1.44656 2.52038 0
M  V30 2036 H 183.989 1.89402 1.74599 0
M  V30 2037 H 183.947 0.759675 3.05084 0
M  V30 2038 N 187.719 -0.156864 1.56817 0
M  V30 2039 C 188.966 -0.871125 1.82805 0
M  V30 2040 C 189.294 -1.81611 0.696262 0
M  V30 2041 O 188.549 -1.93141 -0.315459 0
M  V30 2042 C 188.848 -1.68737 3.1506 0
M  V30 2043 C 188.514 -0.890045 4.42028 0
M  V30 2044 C 187.176 -0.670042 4.76512 0
M  V30 2045 C 189.528 -0.331769 5.20143 0
M  V30 2046 C 186.856 0.119104 5.86579 0
M  V30 2047 C 189.208 0.444365 6.31037 0
M  V30 2048 C 187.872 0.675035 6.64078 0
M  V30 2049 H 187.142 -0.318767 0.668931 0
M  V30 2050 H 189.789 -0.135274 1.91022 0
M  V30 2051 H 188.094 -2.49304 3.0225 0
M  V30 2052 H 189.791 -2.24331 3.3238 0
M  V30 2053 H 186.381 -1.07157 4.14988 0
M  V30 2054 H 190.565 -0.489043 4.93885 0
M  V30 2055 H 185.821 0.307417 6.10627 0
M  V30 2056 H 189.995 0.884139 6.90765 0
M  V30 2057 H 187.622 1.28839 7.49203 0
M  V30 2058 N 189.197 -1.51736 -0.425897 0
M  V30 2059 C 190.144 -1.73875 -1.51776 0
M  V30 2060 C 191.114 -0.580702 -1.55618 0
M  V30 2061 O 192.299 -0.81641 -1.72451 0
M  V30 2062 C 189.439 -1.88012 -2.89388 0
M  V30 2063 C 188.552 -3.15606 -2.94986 0
M  V30 2064 C 187.687 -3.20271 -4.23793 0
M  V30 2065 C 186.726 -4.42134 -4.23302 0
M  V30 2066 N 185.863 -4.44284 -5.43651 0
M  V30 2067 H 190.703 -2.67071 -1.32201 0
M  V30 2068 H 188.24 -1.32351 -0.642008 0
M  V30 2069 H 190.198 -1.9419 -3.69251 0
M  V30 2070 H 188.828 -0.98213 -3.07496 0
M  V30 2071 H 187.88 -3.18681 -2.07717 0
M  V30 2072 H 189.192 -4.05486 -2.90486 0
M  V30 2073 H 188.346 -3.25428 -5.12036 0
M  V30 2074 H 187.085 -2.28299 -4.30965 0
M  V30 2075 H 186.09 -4.3714 -3.3345 0
M  V30 2076 H 187.315 -5.35382 -4.17783 0
M  V30 2077 H 185.261 -3.55188 -5.51523 0
M  V30 2078 H 185.178 -5.27988 -5.41078 0
M  V30 2079 H 186.446 -4.53649 -6.33895 0
M  V30 2080 N 190.675 0.682077 -1.42076 0
M  V30 2081 C 191.923 1.4393 -1.41876 0
M  V30 2082 C 192.244 1.94971 -0.0335599 0
M  V30 2083 O 191.514 1.72591 0.926773 0
M  V30 2084 H 190.094 0.534085 -0.522267 0
M  V30 2085 H 192.756 0.806427 -1.77434 0
M  V30 2086 H 191.852 2.29588 -2.11414 0
M  V30 2087 N 192.153 1.28127 0.917671 0
M  V30 2088 C 193.063 1.13556 2.05286 0
M  V30 2089 C 194.079 0.0630914 1.73886 0
M  V30 2090 O 195.255 0.271598 1.9956 0
M  V30 2091 C 192.32 0.794676 3.3747 0
M  V30 2092 C 191.381 1.94909 3.82504 0
M  V30 2093 C 190.614 1.62437 5.0838 0
M  V30 2094 O 190.837 0.536905 5.67867 0
M  V30 2095 O 189.771 2.46677 5.4903 0
M  V30 2096 H 193.597 2.08844 2.20495 0
M  V30 2097 H 191.182 1.07409 1.03845 0
M  V30 2098 H 193.064 0.618344 4.16839 0
M  V30 2099 H 191.739 -0.128581 3.23445 0
M  V30 2100 H 190.646 2.18055 3.03978 0
M  V30 2101 H 191.979 2.85291 4.01086 0
M  V30 2102 N 193.631 -1.12557 1.10312 0
M  V30 2103 C 195.042 -1.65574 0.862678 0
M  V30 2104 C 195.393 -1.86566 -0.607256 0
M  V30 2105 O 194.518 -1.59121 -1.46662 0
M  V30 2106 C 195.113 -3.00776 1.55947 0
M  V30 2107 C 193.672 -3.50748 1.36576 0
M  V30 2108 C 192.819 -2.25797 1.60968 0
M  V30 2109 H 195.77 -0.963552 1.26101 0
M  V30 2110 H 195.791 -3.67185 0.997753 0
M  V30 2111 H 195.303 -2.85465 2.62928 0
M  V30 2112 H 193.404 -3.71245 0.317531 0
M  V30 2113 H 193.517 -4.30289 2.10686 0
M  V30 2114 H 191.881 -2.32841 1.03234 0
M  V30 2115 H 192.664 -2.13043 2.69198 0
M  V30 2116 N 195.109 -0.891671 -1.2995 0
M  V30 2117 C 196.356 -0.513501 -1.95881 0
M  V30 2118 C 196.684 0.938655 -1.70351 0
M  V30 2119 O 195.939 1.67936 -1.00478 0
M  V30 2120 C 196.238 -0.742868 -3.49594 0
M  V30 2121 C 195.904 -2.17114 -3.95186 0
M  V30 2122 C 194.566 -2.56169 -4.07346 0
M  V30 2123 C 196.918 -3.10162 -4.18866 0
M  V30 2124 C 194.246 -3.87469 -4.4055 0
M  V30 2125 C 196.598 -4.41001 -4.53542 0
M  V30 2126 C 195.262 -4.79941 -4.63911 0
M  V30 2127 H 194.532 -0.187903 -0.71678 0
M  V30 2128 H 197.179 -1.1288 -1.54694 0
M  V30 2129 H 195.484 -0.044586 -3.91775 0
M  V30 2130 H 197.181 -0.429767 -3.9869 0
M  V30 2131 H 193.771 -1.85801 -3.86233 0
M  V30 2132 H 197.955 -2.81206 -4.08946 0
M  V30 2133 H 193.211 -4.17371 -4.46779 0
M  V30 2134 H 197.385 -5.13133 -4.70815 0
M  V30 2135 H 195.012 -5.81719 -4.89395 0
M  V30 2136 N 196.587 1.43421 -0.653314 0
M  V30 2137 C 197.835 2.01414 -0.166415 0
M  V30 2138 C 198.156 1.51803 1.22397 0
M  V30 2139 O 197.426 0.730693 1.81763 0
M  V30 2140 H 196.006 0.744703 -0.0585319 0
M  V30 2141 H 198.668 1.75629 -0.845003 0
M  V30 2142 H 197.764 3.11734 -0.151111 0
M  V30 2143 N 198.065 0.39524 1.52563 0
M  V30 2144 C 199.476 -0.0774719 1.86539 0
M  V30 2145 C 199.827 -1.45641 1.31466 0
M  V30 2146 O 198.952 -2.06459 0.648367 0
M  V30 2147 C 199.547 -0.147356 3.38479 0
M  V30 2148 C 198.106 -0.564373 3.72145 0
M  V30 2149 C 197.253 0.269919 2.75983 0
M  V30 2150 H 200.204 0.612876 1.46388 0
M  V30 2151 H 200.225 -0.965343 3.68051 0
M  V30 2152 H 199.737 0.856387 3.78534 0
M  V30 2153 H 197.838 -1.57527 3.37663 0
M  V30 2154 H 197.951 -0.318402 4.78041 0
M  V30 2155 H 196.315 -0.265696 2.5331 0
M  V30 2156 H 197.098 1.27175 3.18875 0
M  V30 2157 N 199.544 -1.57102 0.125237 0
M  V30 2158 C 200.793 -1.94582 -0.531095 0
M  V30 2159 C 201.106 -1.01126 -1.6743 0
M  V30 2160 O 202.312 -1.28097 -2.39381 0
M  V30 2161 C 200.768 -3.45839 -0.996164 0
M  V30 2162 C 200.376 -4.47842 0.118926 0
M  V30 2163 C 202.12 -3.92227 -1.62352 0
M  V30 2164 C 200.027 -5.90284 -0.363192 0
M  V30 2165 H 198.957 -0.726391 -0.20217 0
M  V30 2166 H 201.608 -1.82339 0.206092 0
M  V30 2167 H 199.99 -3.53338 -1.78796 0
M  V30 2168 H 201.164 -4.52018 0.895358 0
M  V30 2169 H 199.479 -4.11243 0.653324 0
M  V30 2170 H 202.076 -4.96069 -1.99548 0
M  V30 2171 H 202.419 -3.32552 -2.50429 0
M  V30 2172 H 202.952 -3.87554 -0.897019 0
M  V30 2173 H 199.691 -6.53728 0.481679 0
M  V30 2174 H 199.211 -5.89515 -1.10597 0
M  V30 2175 H 200.89 -6.41752 -0.822377 0
M  V30 2176 N 201.022 0.148545 -1.56898 0
M  V30 2177 C 201.985 1.16736 -1.97244 0
M  V30 2178 C 202.985 1.35947 -0.858777 0
M  V30 2179 O 204.175 1.32966 -1.12542 0
M  V30 2180 C 201.307 2.52798 -2.28705 0
M  V30 2181 H 202.5 0.821279 -2.88435 0
M  V30 2182 H 200.053 0.391831 -1.51309 0
M  V30 2183 H 200.788 2.92381 -1.403 0
M  V30 2184 H 200.573 2.40216 -3.09901 0
M  V30 2185 H 202.063 3.26179 -2.60762 0
M  V30 2186 N 202.5 1.5196 0.417844 0
M  V30 2187 C 203.447 1.74678 1.50852 0
M  V30 2188 C 204.417 0.588947 1.55308 0
M  V30 2189 O 205.602 0.825544 1.72016 0
M  V30 2190 C 202.742 1.89544 2.88387 0
M  V30 2191 C 201.855 3.17166 2.93309 0
M  V30 2192 C 200.99 3.22513 4.22088 0
M  V30 2193 C 200.029 4.44372 4.20951 0
M  V30 2194 N 199.166 4.47161 5.41287 0
M  V30 2195 H 204.006 2.67768 1.30783 0
M  V30 2196 H 201.543 1.32689 0.63498 0
M  V30 2197 H 203.501 1.96146 3.68216 0
M  V30 2198 H 202.131 0.998424 3.06971 0
M  V30 2199 H 201.183 3.19778 2.06024 0
M  V30 2200 H 202.495 4.07021 2.88332 0
M  V30 2201 H 201.649 3.28139 5.10303 0
M  V30 2202 H 200.388 2.30581 4.29748 0
M  V30 2203 H 199.393 4.38902 3.31127 0
M  V30 2204 H 200.618 5.3759 4.14938 0
M  V30 2205 H 198.564 3.58108 5.49632 0
M  V30 2206 H 198.481 5.3085 5.3827 0
M  V30 2207 H 199.749 4.57005 6.3148 0
M  V30 2208 N 203.978 -0.674533 1.42435 0
M  V30 2209 C 204.908 -1.80009 1.48724 0
M  V30 2210 C 205.889 -1.6659 0.343793 0
M  V30 2211 O 207.074 -1.86007 0.558137 0
M  V30 2212 C 204.204 -3.18306 1.38919 0
M  V30 2213 C 203.158 -3.46461 2.51294 0
M  V30 2214 C 202.484 -4.84335 2.26547 0
M  V30 2215 C 203.784 -3.43328 3.93603 0
M  V30 2216 H 205.478 -1.75004 2.42928 0
M  V30 2217 H 203.024 -0.840533 1.16923 0
M  V30 2218 H 204.977 -3.9678 1.41927 0
M  V30 2219 H 203.701 -3.2399 0.412094 0
M  V30 2220 H 202.36 -2.70348 2.47604 0
M  V30 2221 H 202.008 -4.86669 1.2713 0
M  V30 2222 H 201.708 -5.04136 3.01861 0
M  V30 2223 H 203.232 -5.65094 2.31304 0
M  V30 2224 H 204.646 -4.11772 3.98894 0
M  V30 2225 H 203.043 -3.74664 4.68771 0
M  V30 2226 H 204.113 -2.41897 4.20255 0
M  V30 2227 N 205.456 -1.28612 -0.910864 0
M  V30 2228 C 206.703 -1.15934 -1.66029 0
M  V30 2229 C 207.031 0.291483 -1.92303 0
M  V30 2230 O 206.286 1.22816 -1.52364 0
M  V30 2231 C 206.585 -1.90624 -3.0232 0
M  V30 2232 C 206.251 -3.40405 -2.95695 0
M  V30 2233 C 204.913 -3.81255 -2.93595 0
M  V30 2234 C 207.265 -4.359 -2.85728 0
M  V30 2235 C 204.593 -5.15936 -2.79334 0
M  V30 2236 C 206.945 -5.70657 -2.73007 0
M  V30 2237 C 205.609 -6.10779 -2.69267 0
M  V30 2238 H 204.879 -0.424234 -0.607541 0
M  V30 2239 H 207.526 -1.5942 -1.06101 0
M  V30 2240 H 205.831 -1.39696 -3.6605 0
M  V30 2241 H 207.528 -1.78228 -3.59215 0
M  V30 2242 H 204.118 -3.07927 -2.98125 0
M  V30 2243 H 208.302 -4.053 -2.86436 0
M  V30 2244 H 203.558 -5.46146 -2.74835 0
M  V30 2245 H 207.732 -6.44311 -2.64264 0
M  V30 2246 H 205.359 -7.1509 -2.57974 0
M  V30 2247 N 206.934 1.1197 -1.10907 0
M  V30 2248 C 208.162 1.87402 -0.876824 0
M  V30 2249 C 208.577 1.79894 0.573025 0
M  V30 2250 O 207.934 1.17629 1.39534 0
M  V30 2251 C 207.985 3.36428 -1.32282 0
M  V30 2252 O 207.706 3.43765 -2.71582 0
M  V30 2253 C 209.207 4.28783 -1.12518 0
M  V30 2254 H 206.427 0.592793 -0.314384 0
M  V30 2255 H 208.971 1.41649 -1.47499 0
M  V30 2256 H 207.126 3.79706 -0.768229 0
M  V30 2257 H 207.54 4.3652 -2.90776 0
M  V30 2258 H 209.014 5.31613 -1.48633 0
M  V30 2259 H 209.491 4.39153 -0.0642394 0
M  V30 2260 H 210.097 3.91291 -1.66648 0
M  V30 2261 N 208.412 0.89855 1.29475 0
M  V30 2262 C 209.642 0.538479 1.99459 0
M  V30 2263 C 210.05 -0.880922 1.67441 0
M  V30 2264 O 209.393 -1.59283 0.915127 0
M  V30 2265 C 209.455 0.649564 3.53583 0
M  V30 2266 C 209.119 2.03573 4.09154 0
M  V30 2267 C 210.116 3.00675 4.24135 0
M  V30 2268 C 207.801 2.3448 4.44212 0
M  V30 2269 C 209.795 4.26809 4.73405 0
M  V30 2270 C 207.482 3.60857 4.93179 0
M  V30 2271 C 208.48 4.56836 5.0773 0
M  V30 2272 O 208.168 5.80969 5.55635 0
M  V30 2273 H 207.9 0.205372 0.644048 0
M  V30 2274 H 210.454 1.20958 1.66007 0
M  V30 2275 H 208.684 -0.0785592 3.8662 0
M  V30 2276 H 210.373 0.29881 4.04799 0
M  V30 2277 H 211.139 2.78112 3.97339 0
M  V30 2278 H 207.018 1.60534 4.32145 0
M  V30 2279 H 210.562 5.0173 4.84678 0
M  V30 2280 H 206.459 3.83251 5.19412 0
M  V30 2281 H 207.227 5.83542 5.73952 0
M  V30 2282 N 209.89 -1.43072 0.660911 0
M  V30 2283 C 210.853 -2.29194 -0.0166406 0
M  V30 2284 C 211.853 -1.42609 -0.742912 0
M  V30 2285 O 213.043 -1.64155 -0.583004 0
M  V30 2286 C 210.175 -3.24831 -1.0343 0
M  V30 2287 H 211.368 -2.90596 0.741208 0
M  V30 2288 H 208.921 -1.5048 0.422532 0
M  V30 2289 H 209.656 -2.68339 -1.82111 0
M  V30 2290 H 209.441 -3.88676 -0.517082 0
M  V30 2291 H 210.931 -3.89451 -1.50723 0
M  V30 2292 N 211.368 -0.403325 -1.52352 0
M  V30 2293 C 212.645 0.232611 -1.94212 0
M  V30 2294 C 213.025 1.63133 -1.33981 0
M  V30 2295 O 212.373 2.22659 -0.513344 0
M  V30 2296 C 212.583 0.244811 -3.4814 0
M  V30 2297 C 213.931 0.46698 -4.22024 0
M  V30 2298 O 214.955 0.324419 -3.5472 0
M  V30 2299 O 213.814 0.74747 -5.41364 0
M  V30 2300 H 210.908 0.148223 -0.813609 0
M  V30 2301 H 213.454 -0.458848 -1.63379 0
M  V30 2302 H 212.226 -0.734378 -3.84347 0
M  V30 2303 H 211.849 0.980611 -3.85318 0
M  V30 2304 N 212.846 1.57033 -0.133567 0
M  V30 2305 C 213.793 2.16074 0.811208 0
M  V30 2306 C 214.763 1.08979 1.2535 0
M  V30 2307 O 215.948 1.36958 1.32843 0
M  V30 2308 C 213.088 2.77595 2.05024 0
M  V30 2309 C 212.201 3.99042 1.65498 0
M  V30 2310 C 211.336 4.48603 2.84479 0
M  V30 2311 C 210.375 5.62547 2.41262 0
M  V30 2312 N 209.512 6.06787 3.53206 0
M  V30 2313 H 214.352 2.96477 0.300906 0
M  V30 2314 H 211.889 1.46462 0.136822 0
M  V30 2315 H 213.847 3.11402 2.77642 0
M  V30 2316 H 212.477 1.99859 2.53488 0
M  V30 2317 H 211.529 3.71302 0.826981 0
M  V30 2318 H 212.841 4.81629 1.29748 0
M  V30 2319 H 211.995 4.84395 3.65303 0
M  V30 2320 H 210.734 3.64995 3.23465 0
M  V30 2321 H 209.739 5.26345 1.58874 0
M  V30 2322 H 210.964 6.47931 2.03377 0
M  V30 2323 H 208.91 5.26117 3.91838 0
M  V30 2324 H 208.827 6.84266 3.21427 0
M  V30 2325 H 210.095 6.4722 4.34427 0
M  V30 2326 N 214.325 -0.140222 1.56975 0
M  V30 2327 C 215.574 -0.850152 1.82908 0
M  V30 2328 C 215.887 -1.82028 0.715892 0
M  V30 2329 O 217.093 -2.57485 0.861016 0
M  V30 2330 C 215.549 -1.5625 3.24213 0
M  V30 2331 C 215.157 -0.63443 4.43485 0
M  V30 2332 C 216.901 -2.25881 3.59413 0
M  V30 2333 C 214.808 -1.34879 5.75814 0
M  V30 2334 H 213.738 -0.321221 0.682153 0
M  V30 2335 H 216.389 -0.102874 1.83211 0
M  V30 2336 H 214.771 -2.35565 3.18316 0
M  V30 2337 H 215.945 0.12398 4.60633 0
M  V30 2338 H 214.26 -0.0461836 4.16374 0
M  V30 2339 H 216.857 -2.79978 4.5554 0
M  V30 2340 H 217.2 -3.02693 2.85802 0
M  V30 2341 H 217.733 -1.53477 3.67001 0
M  V30 2342 H 214.472 -0.622385 6.52539 0
M  V30 2343 H 213.992 -2.07974 5.6259 0
M  V30 2344 H 215.671 -1.88784 6.18845 0
M  V30 2345 N 215.803 -1.52179 -0.40978 0
M  V30 2346 C 217.031 -1.70054 -1.17853 0
M  V30 2347 C 217.446 -0.409735 -1.843 0
M  V30 2348 O 216.803 0.614183 -1.71855 0
M  V30 2349 C 216.854 -2.83568 -2.24213 0
M  V30 2350 O 216.575 -4.0765 -1.60478 0
M  V30 2351 C 218.076 -3.12947 -3.13973 0
M  V30 2352 H 215.296 -0.569917 -0.354169 0
M  V30 2353 H 217.84 -1.98734 -0.482198 0
M  V30 2354 H 215.995 -2.57409 -2.89516 0
M  V30 2355 H 216.409 -4.70899 -2.30986 0
M  V30 2356 H 217.883 -3.95889 -3.84677 0
M  V30 2357 H 218.36 -2.26472 -3.76307 0
M  V30 2358 H 218.966 -3.40868 -2.5434 0
M  V30 2359 N 217.281 0.66697 -1.42791 0
M  V30 2360 C 218.228 1.7803 -1.4688 0
M  V30 2361 C 219.198 1.6299 -0.319919 0
M  V30 2362 O 220.383 1.83432 -0.525118 0
M  V30 2363 C 217.523 3.1611 -1.38451 0
M  V30 2364 C 216.636 3.42381 -2.63437 0
M  V30 2365 C 215.771 4.70232 -2.47094 0
M  V30 2366 C 214.81 4.89564 -3.67415 0
M  V30 2367 N 213.947 6.08661 -3.49966 0
M  V30 2368 H 218.787 1.7387 -2.42019 0
M  V30 2369 H 216.324 0.84868 -1.20149 0
M  V30 2370 H 218.282 3.95914 -1.31561 0
M  V30 2371 H 216.912 3.19374 -0.469033 0
M  V30 2372 H 215.964 2.56774 -2.80662 0
M  V30 2373 H 217.276 3.52557 -3.52853 0
M  V30 2374 H 216.43 5.5814 -2.37834 0
M  V30 2375 H 215.169 4.62353 -1.5518 0
M  V30 2376 H 214.174 4.00096 -3.77099 0
M  V30 2377 H 215.399 4.99282 -4.6032 0
M  V30 2378 H 213.345 6.0194 -2.60776 0
M  V30 2379 H 213.262 6.19733 -4.32975 0
M  V30 2380 H 214.53 6.99226 -3.44532 0
M  V30 2381 N 218.759 1.29093 0.90403 0
M  V30 2382 C 219.689 1.16401 2.02418 0
M  V30 2383 C 220.67 0.0593085 1.69997 0
M  V30 2384 O 221.855 0.238021 1.92736 0
M  V30 2385 C 218.985 0.835233 3.37107 0
M  V30 2386 C 217.939 1.89578 3.83724 0
M  V30 2387 C 217.265 1.42041 5.15489 0
M  V30 2388 C 218.565 3.30394 4.04521 0
M  V30 2389 H 220.259 2.10109 2.13295 0
M  V30 2390 H 217.805 1.01157 1.02486 0
M  V30 2391 H 219.758 0.733169 4.14973 0
M  V30 2392 H 218.482 -0.137543 3.2631 0
M  V30 2393 H 217.141 1.98715 3.08071 0
M  V30 2394 H 216.789 0.436426 5.01103 0
M  V30 2395 H 216.489 2.12964 5.4765 0
M  V30 2396 H 218.013 1.33176 5.959 0
M  V30 2397 H 219.427 3.24123 4.72882 0
M  V30 2398 H 217.824 3.99237 4.48029 0
M  V30 2399 H 218.894 3.73692 3.09002 0
M  V30 2400 N 220.237 -1.11381 1.11499 0
M  V30 2401 C 221.465 -1.86934 0.88675 0
M  V30 2402 C 221.88 -1.80195 -0.563476 0
M  V30 2403 O 221.237 -1.18367 -1.38908 0
M  V30 2404 C 221.288 -3.35722 1.34064 0
M  V30 2405 O 221.009 -3.4232 2.73401 0
M  V30 2406 C 222.51 -4.2818 1.14791 0
M  V30 2407 H 219.73 -0.591117 0.317523 0
M  V30 2408 H 222.274 -1.40865 1.48248 0
M  V30 2409 H 220.429 -3.79294 0.788355 0
M  V30 2410 H 220.843 -4.34971 2.93087 0
M  V30 2411 H 222.317 -5.30817 1.5145 0
M  V30 2412 H 222.794 -4.39113 0.0875279 0
M  V30 2413 H 223.4 -3.90402 1.68721 0
M  V30 2414 N 221.715 -0.905404 -1.28997 0
M  V30 2415 C 222.678 -0.392253 -2.25819 0
M  V30 2416 C 223.678 0.476753 -1.5357 0
M  V30 2417 O 224.868 0.280994 -1.71919 0
M  V30 2418 C 222 0.438588 -3.38067 0
M  V30 2419 H 223.193 -1.24743 -2.72725 0
M  V30 2420 H 220.746 -0.684051 -1.40536 0
M  V30 2421 H 221.481 1.31352 -2.96508 0
M  V30 2422 H 221.266 -0.184167 -3.91667 0
M  V30 2423 H 222.756 0.78873 -4.10084 0
M  V30 2424 N 223.193 1.4272 -0.668489 0
M  V30 2425 C 224.442 2.00846 -0.185389 0
M  V30 2426 C 224.755 1.53442 1.21305 0
M  V30 2427 O 225.961 2.03944 1.79218 0
M  V30 2428 C 224.417 3.58805 -0.280591 0
M  V30 2429 C 224.025 4.15198 -1.68268 0
M  V30 2430 C 225.769 4.24255 0.14412 0
M  V30 2431 C 223.676 5.655 -1.73099 0
M  V30 2432 H 222.606 0.751145 -0.0655475 0
M  V30 2433 H 225.257 1.63516 -0.832752 0
M  V30 2434 H 223.639 3.93608 0.434553 0
M  V30 2435 H 224.813 3.91866 -2.42441 0
M  V30 2436 H 223.128 3.62176 -2.05469 0
M  V30 2437 H 225.725 5.34547 0.128086 0
M  V30 2438 H 226.068 3.99277 1.17827 0
M  V30 2439 H 226.601 3.94389 -0.519798 0
M  V30 2440 H 223.34 5.95268 -2.74475 0
M  V30 2441 H 222.86 5.90842 -1.03274 0
M  V30 2442 H 224.539 6.29808 -1.48158 0
M  V30 2443 N 224.671 0.411399 1.52136 0
M  V30 2444 C 225.911 -0.163143 2.03748 0
M  V30 2445 C 226.275 -1.42187 1.29022 0
M  V30 2446 O 227.476 -2.075 1.70872 0
M  V30 2447 C 225.747 -0.402651 3.55125 0
M  V30 2448 S 227.306 -0.944315 4.28519 0
M  V30 2449 H 224.124 -0.0439833 0.709638 0
M  V30 2450 H 226.726 0.56484 1.87163 0
M  V30 2451 H 225.43 0.520212 4.0709 0
M  V30 2452 H 224.961 -1.15844 3.75957 0
M  V30 2453 H 226.976 -2.22463 4.43536 0
M  V30 2454 N 226.149 -1.5696 0.141893 0
M  V30 2455 C 227.097 -2.17784 -0.816874 0
M  V30 2456 C 228.091 -1.1334 -1.25899 0
M  V30 2457 O 229.297 -1.316 -1.22806 0
M  V30 2458 H 225.672 -0.697278 -0.281615 0
M  V30 2459 H 227.643 -2.97087 -0.279621 0
M  V30 2460 C 226.392 -2.80983 -2.04802 0
M  V30 2461 H 225.715 -3.61062 -1.7168 0
M  V30 2462 H 227.155 -3.2705 -2.69841 0
M  V30 2463 C 225.614 -1.79228 -2.8527 0
M  V30 2464 O 226.144 -1.25962 -3.8144 0
M  V30 2465 N 224.35 -1.48647 -2.49704 0
M  V30 2466 H 223.897 -1.92155 -1.71564 0
M  V30 2467 H 223.855 -0.808115 -3.03837 0
M  V30 2468 N 227.627 0.131896 -1.57047 0
M  V30 2469 C 228.537 1.1815 -2.02676 0
M  V30 2470 C 229.553 1.46113 -0.944824 0
M  V30 2471 O 230.729 1.57485 -1.25541 0
M  V30 2472 C 227.794 2.49139 -2.41103 0
M  V30 2473 C 226.855 2.28688 -3.63318 0
M  V30 2474 C 226.088 3.53431 -3.99903 0
M  V30 2475 O 226.311 4.60223 -3.36973 0
M  V30 2476 O 225.245 3.45198 -4.93074 0
M  V30 2477 H 229.071 0.824069 -2.92306 0
M  V30 2478 H 226.656 0.341745 -1.45439 0
M  V30 2479 H 228.538 3.26338 -2.66611 0
M  V30 2480 H 227.213 2.84382 -1.54624 0
M  V30 2481 H 226.12 1.4939 -3.42977 0
M  V30 2482 H 227.453 1.98355 -4.50462 0
M  V30 2483 N 229.106 1.52395 0.401703 0
M  V30 2484 C 230.346 1.68498 1.15705 0
M  V30 2485 C 230.71 0.409748 1.87577 0
M  V30 2486 O 231.911 0.446983 2.65058 0
M  V30 2487 C 230.182 2.87789 2.11924 0
M  V30 2488 S 231.741 3.24415 2.95466 0
M  V30 2489 H 228.559 0.593267 0.391862 0
M  V30 2490 H 231.161 1.90408 0.443282 0
M  V30 2491 H 229.865 3.7884 1.57824 0
M  V30 2492 H 229.396 2.68175 2.87829 0
M  V30 2493 H 231.411 2.73614 4.13944 0
M  V30 2494 N 230.584 -0.659388 1.43143 0
M  V30 2495 C 231.832 -1.41654 1.44147 0
M  V30 2496 C 232.153 -1.94893 0.0645739 0
M  V30 2497 O 231.423 -1.74044 -0.899198 0
M  V30 2498 H 230.003 -0.525708 0.530697 0
M  V30 2499 H 232.665 -0.778097 1.78694 0
M  V30 2500 H 231.761 -2.26195 2.1504 0
M  V30 2501 N 232.062 -1.29571 -0.897171 0
M  V30 2502 C 233.025 -1.14913 -1.98312 0
M  V30 2503 C 234.025 -0.0838629 -1.60581 0
M  V30 2504 O 235.215 -0.331006 -1.71026 0
M  V30 2505 C 232.347 -0.757835 -3.3237 0
M  V30 2506 H 233.54 -2.11377 -2.12743 0
M  V30 2507 H 231.093 -1.12793 -1.08201 0
M  V30 2508 H 231.828 0.206837 -3.2364 0
M  V30 2509 H 231.613 -1.52755 -3.61121 0
M  V30 2510 H 233.103 -0.678408 -4.12053 0
M  V30 2511 N 233.54 1.10788 -1.12088 0
M  V30 2512 C 234.45 2.20599 -0.798338 0
M  V30 2513 C 235.466 1.72712 0.21135 0
M  V30 2514 O 236.642 2.01348 0.0458477 0
M  V30 2515 C 233.707 3.45771 -0.253674 0
M  V30 2516 C 232.768 4.08411 -1.32283 0
M  V30 2517 C 232.001 5.27608 -0.80406 0
M  V30 2518 O 232.224 5.69241 0.363478 0
M  V30 2519 O 231.158 5.8101 -1.57198 0
M  V30 2520 H 234.984 2.50614 -1.7154 0
M  V30 2521 H 232.569 1.19454 -0.897275 0
M  V30 2522 H 234.451 4.21376 0.0453691 0
M  V30 2523 H 233.126 3.1739 0.636005 0
M  V30 2524 H 232.033 3.34507 -1.67499 0
M  V30 2525 H 233.366 4.40986 -2.18614 0
M  V30 2526 N 235.018 0.912232 1.28515 0
M  V30 2527 C 235.981 0.404223 2.25607 0
M  V30 2528 C 236.981 -0.468602 1.53821 0
M  V30 2529 O 238.171 -0.271873 1.72065 0
M  V30 2530 C 235.303 -0.420653 3.38295 0
M  V30 2531 H 236.496 1.26188 2.7206 0
M  V30 2532 H 234.049 0.691495 1.40171 0
M  V30 2533 H 234.784 -1.29777 2.97201 0
M  V30 2534 H 234.569 0.204935 3.91564 0
M  V30 2535 H 236.059 -0.766971 4.10496 0
M  V30 2536 N 236.496 -1.42363 0.676048 0
M  V30 2537 C 237.724 -2.05859 0.207268 0
M  V30 2538 C 238.139 -1.50796 -1.13605 0
M  V30 2539 O 237.496 -0.648265 -1.70598 0
M  V30 2540 C 237.547 -3.61248 0.134975 0
M  V30 2541 O 237.268 -4.1427 1.42521 0
M  V30 2542 C 238.769 -4.41859 -0.357151 0
M  V30 2543 H 235.989 -0.663431 0.100503 0
M  V30 2544 H 238.533 -1.82479 0.923136 0
M  V30 2545 H 236.688 -3.83735 -0.531588 0
M  V30 2546 H 237.102 -5.0815 1.29939 0
M  V30 2547 H 238.576 -5.50847 -0.356641 0
M  V30 2548 H 239.053 -4.16536 -1.39264 0
M  V30 2549 H 239.659 -4.24392 0.27772 0
M  V30 2550 N 237.974 -0.419461 -1.51915 0
M  V30 2551 C 238.924 0.418496 -2.24126 0
M  V30 2552 C 239.908 1.00495 -1.25656 0
M  V30 2553 O 241.1 0.926058 -1.50842 0
M  V30 2554 C 238.229 1.52899 -3.07371 0
M  V30 2555 C 237.315 0.952797 -4.13258 0
M  V30 2556 N 237.706 0.104175 -5.05693 0
M  V30 2557 C 236.004 1.22224 -4.28926 0
M  V30 2558 C 236.705 -0.21752 -5.81293 0
M  V30 2559 N 235.681 0.394293 -5.42168 0
M  V30 2560 H 239.483 -0.236048 -2.92951 0
M  V30 2561 H 236.997 -0.230481 -1.60756 0
M  V30 2562 H 238.994 2.14199 -3.57665 0
M  V30 2563 H 237.654 2.18605 -2.40088 0
M  V30 2564 H 238.665 -0.260924 -5.17242 0
M  V30 2565 H 235.342 1.87812 -3.72871 0
M  V30 2566 H 236.732 -0.906992 -6.6575 0
M  V30 2567 N 239.452 1.56882 -0.150215 0
M  V30 2568 C 240.677 2.01027 0.510184 0
M  V30 2569 C 241.102 1.02966 1.57415 0
M  V30 2570 O 240.46 0.00590158 1.81299 0
M  V30 2571 C 240.508 3.43899 1.08472 0
M  V30 2572 O 239.612 3.4885 2.19948 0
M  V30 2573 H 238.953 0.652233 0.124451 0
M  V30 2574 H 241.483 2.03093 -0.247894 0
M  V30 2575 H 241.493 3.82766 1.41259 0
M  V30 2576 H 240.168 4.14776 0.305582 0
M  V30 2577 H 238.745 3.21827 1.88366 0
M  V30 2578 N 240.93 -0.123565 1.57115 0
M  V30 2579 C 241.86 -1.15309 2.03042 0
M  V30 2580 C 242.841 -1.43454 0.914061 0
M  V30 2581 O 244.026 -1.53973 1.18347 0
M  V30 2582 C 241.156 -2.48043 2.43089 0
M  V30 2583 C 240.11 -2.3437 3.58127 0
M  V30 2584 C 239.436 -3.72026 3.84059 0
M  V30 2585 C 240.736 -1.80804 4.90007 0
M  V30 2586 H 242.43 -0.771102 2.893 0
M  V30 2587 H 239.976 -0.369479 1.39179 0
M  V30 2588 H 241.929 -3.20311 2.73823 0
M  V30 2589 H 240.653 -2.88122 1.53796 0
M  V30 2590 H 239.312 -1.64551 3.27595 0
M  V30 2591 H 238.96 -4.09582 2.91979 0
M  V30 2592 H 238.66 -3.63732 4.6149 0
M  V30 2593 H 240.184 -4.45806 4.1724 0
M  V30 2594 H 241.598 -2.42886 5.19307 0
M  V30 2595 H 239.995 -1.83343 5.71407 0
M  V30 2596 H 241.065 -0.76528 4.78823 0
M  V30 2597 N 242.408 -1.52605 -0.393616 0
M  V30 2598 C 243.824 -1.41753 -0.733357 0
M  V30 2599 C 244.024 -0.534293 -1.94287 0
M  V30 2600 O 243.08 -0.0059787 -2.52499 0
M  V30 2601 C 244.393 -2.84531 -0.972772 0
M  V30 2602 C 245.941 -2.93978 -1.07453 0
M  V30 2603 C 246.416 -4.37756 -1.3466 0
M  V30 2604 N 247.907 -4.4106 -1.41492 0
M  V30 2605 C 248.642 -5.49387 -1.642 0
M  V30 2606 N 248.138 -6.67806 -1.8441 0
M  V30 2607 N 249.931 -5.36923 -1.66342 0
M  V30 2608 H 242.082 -2.08555 0.402328 0
M  V30 2609 H 244.345 -0.940654 0.117789 0
M  V30 2610 H 244.051 -3.51353 -0.156204 0
M  V30 2611 H 243.925 -3.26508 -1.88871 0
M  V30 2612 H 246.312 -2.27326 -1.88167 0
M  V30 2613 H 246.393 -2.55435 -0.136605 0
M  V30 2614 H 246.037 -5.04972 -0.544581 0
M  V30 2615 H 245.967 -4.73848 -2.2973 0
M  V30 2616 H 248.458 -3.55705 -1.27601 0
M  V30 2617 H 248.771 -7.46141 -2.01231 0
M  V30 2618 H 247.116 -6.70843 -1.81644 0
M  V30 2619 H 250.307 -4.43381 -1.50102 0
M  V30 2620 H 250.48 -6.21416 -1.837 0
M  V30 2621 N 243.887 0.651787 -1.4349 0
M  V30 2622 C 244.834 1.76462 -1.4876 0
M  V30 2623 C 245.804 1.62641 -0.337189 0
M  V30 2624 O 246.989 1.82864 -0.544544 0
M  V30 2625 C 244.129 3.14623 -1.41796 0
M  V30 2626 C 243.242 3.39568 -2.67053 0
M  V30 2627 C 242.377 4.67585 -2.52068 0
M  V30 2628 C 241.416 4.85639 -3.72587 0
M  V30 2629 N 240.553 6.04915 -3.56402 0
M  V30 2630 H 245.393 1.71293 -2.43849 0
M  V30 2631 H 242.93 0.835889 -1.21043 0
M  V30 2632 H 244.888 3.94496 -1.35753 0
M  V30 2633 H 243.518 3.18859 -0.50288 0
M  V30 2634 H 242.57 2.53783 -2.8337 0
M  V30 2635 H 243.882 3.48795 -3.56572 0
M  V30 2636 H 243.036 5.55586 -2.4374 0
M  V30 2637 H 241.775 4.60681 -1.60075 0
M  V30 2638 H 240.78 3.96073 -3.81321 0
M  V30 2639 H 242.005 4.94372 -4.65589 0
M  V30 2640 H 239.951 5.9914 -2.67146 0
M  V30 2641 H 239.868 6.15106 -4.39524 0
M  V30 2642 H 241.136 6.95533 -3.51929 0
M  V30 2643 N 245.365 1.30045 0.890287 0
M  V30 2644 C 246.614 1.17929 1.63633 0
M  V30 2645 C 246.927 -0.266204 1.9378 0
M  V30 2646 O 248.133 -0.508804 2.6669 0
M  V30 2647 C 246.589 2.06317 2.94892 0
M  V30 2648 C 246.197 3.55745 2.72305 0
M  V30 2649 C 247.941 2.0295 3.72843 0
M  V30 2650 C 245.848 4.36205 3.99348 0
M  V30 2651 H 244.778 0.437782 0.613892 0
M  V30 2652 H 247.429 1.54754 0.986075 0
M  V30 2653 H 245.811 1.6237 3.61182 0
M  V30 2654 H 246.985 4.07805 2.1455 0
M  V30 2655 H 245.3 3.6088 2.07737 0
M  V30 2656 H 247.897 2.60319 4.67053 0
M  V30 2657 H 248.24 1.0117 4.0382 0
M  V30 2658 H 248.773 2.4499 3.13408 0
M  V30 2659 H 245.512 5.38659 3.73533 0
M  V30 2660 H 245.032 3.8891 4.56628 0
M  V30 2661 H 246.711 4.47362 4.67415 0
M  V30 2662 N 246.843 -1.10192 1.12674 0
M  V30 2663 C 248.12 -1.78717 0.794965 0
M  V30 2664 C 248.5 -1.98628 -0.714853 0
M  V30 2665 O 247.848 -1.58135 -1.64941 0
M  V30 2666 C 248.058 -3.11546 1.5729 0
M  V30 2667 C 249.406 -3.86382 1.76052 0
M  V30 2668 O 250.43 -3.21274 1.53823 0
M  V30 2669 O 249.289 -5.03246 2.13087 0
M  V30 2670 H 246.383 -0.774702 0.289423 0
M  V30 2671 H 248.929 -1.16819 1.23091 0
M  V30 2672 H 247.701 -2.92489 2.59935 0
M  V30 2673 H 247.324 -3.81164 1.13137 0
M  V30 2674 N 248.321 -0.919034 -1.28029 0
M  V30 2675 C 249.569 -0.553838 -1.94363 0
M  V30 2676 C 249.89 0.906357 -1.72656 0
M  V30 2677 O 249.16 1.64143 -1.0693 0
M  V30 2678 H 247.74 -0.201834 -0.719216 0
M  V30 2679 H 250.402 -1.16954 -1.55909 0
M  V30 2680 H 249.498 -0.752758 -3.02886 0
M  V30 2681 N 249.799 1.42003 -0.683588 0
M  V30 2682 C 250.746 2.30798 -0.0107309 0
M  V30 2683 C 251.716 1.4645 0.783688 0
M  V30 2684 O 252.901 1.75263 0.754156 0
M  V30 2685 C 250.041 3.3238 0.928306 0
M  V30 2686 C 249.154 4.31814 0.126776 0
M  V30 2687 C 248.289 5.20468 1.06236 0
M  V30 2688 C 247.328 6.11577 0.253035 0
M  V30 2689 N 246.465 6.92754 1.14179 0
M  V30 2690 H 251.305 2.8778 -0.773727 0
M  V30 2691 H 248.842 1.41745 -0.393283 0
M  V30 2692 H 250.8 3.89813 1.48666 0
M  V30 2693 H 249.43 2.76976 1.65783 0
M  V30 2694 H 248.482 3.76427 -0.54833 0
M  V30 2695 H 249.794 4.96276 -0.501192 0
M  V30 2696 H 248.948 5.82677 1.69035 0
M  V30 2697 H 247.687 4.56204 1.7242 0
M  V30 2698 H 246.692 5.48428 -0.388108 0
M  V30 2699 H 247.917 6.77892 -0.404839 0
M  V30 2700 H 245.863 6.3111 1.78987 0
M  V30 2701 H 245.78 7.53855 0.569111 0
M  V30 2702 H 247.048 7.59441 1.75697 0
M  V30 2703 N 251.277 0.427512 1.51691 0
M  V30 2704 C 252.227 -0.406604 2.24345 0
M  V30 2705 C 253.211 -0.998276 1.26187 0
M  V30 2706 O 254.403 -0.918045 1.51331 0
M  V30 2707 C 251.532 -1.51266 3.08177 0
M  V30 2708 C 250.618 -0.930868 4.13758 0
M  V30 2709 N 251.009 -0.0773552 5.05741 0
M  V30 2710 C 249.307 -1.19948 4.29568 0
M  V30 2711 C 250.008 0.248344 5.8117 0
M  V30 2712 N 248.984 -0.365535 5.4237 0
M  V30 2713 H 252.786 0.251581 2.92821 0
M  V30 2714 H 250.3 0.239003 1.60632 0
M  V30 2715 H 252.297 -2.123 3.58796 0
M  V30 2716 H 250.957 -2.17328 2.41244 0
M  V30 2717 H 251.968 0.288351 5.17097 0
M  V30 2718 H 248.645 -1.85832 3.73862 0
M  V30 2719 H 250.035 0.942286 6.6526 0
M  V30 2720 N 252.755 -1.56801 0.158532 0
M  V30 2721 C 253.718 -2.16138 -0.762705 0
M  V30 2722 C 254.718 -1.1061 -1.16713 0
M  V30 2723 O 255.908 -1.36191 -1.08617 0
M  V30 2724 C 253.04 -2.73386 -2.03649 0
M  V30 2725 H 254.233 -2.98886 -0.246354 0
M  V30 2726 H 251.786 -1.56035 -0.0909744 0
M  V30 2727 H 252.521 -1.94335 -2.59623 0
M  V30 2728 H 252.306 -3.50601 -1.75559 0
M  V30 2729 H 253.796 -3.19065 -2.6942 0
M  V30 2730 N 254.233 0.115231 -1.57178 0
M  V30 2731 C 255.51 0.852873 -1.76027 0
M  V30 2732 C 255.89 1.97892 -0.73498 0
M  V30 2733 O 255.238 2.27232 0.24036 0
M  V30 2734 C 255.448 1.36608 -3.21153 0
M  V30 2735 C 256.796 1.81692 -3.83762 0
M  V30 2736 O 257.82 1.46278 -3.24779 0
M  V30 2737 O 256.679 2.47104 -4.87444 0
M  V30 2738 H 253.773 0.405296 -0.720877 0
M  V30 2739 H 256.319 0.0986785 -1.69413 0
M  V30 2740 H 255.091 0.558357 -3.87296 0
M  V30 2741 H 254.714 2.18287 -3.3232 0
M  V30 2742 N 255.711 1.52812 0.385517 0
M  V30 2743 C 256.941 1.71658 1.14966 0
M  V30 2744 C 257.349 0.436253 1.84102 0
M  V30 2745 O 256.692 -0.599313 1.73649 0
M  V30 2746 C 256.754 2.81309 2.23843 0
M  V30 2747 C 256.418 4.22313 1.74644 0
M  V30 2748 C 257.415 5.05352 1.22129 0
M  V30 2749 C 255.1 4.68648 1.80761 0
M  V30 2750 C 257.094 6.32807 0.763838 0
M  V30 2751 C 254.781 5.96086 1.34627 0
M  V30 2752 C 255.779 6.77996 0.825264 0
M  V30 2753 O 255.467 8.03045 0.370669 0
M  V30 2754 H 255.199 0.578022 0.350523 0
M  V30 2755 H 257.753 2.00263 0.456509 0
M  V30 2756 H 255.983 2.48133 2.96592 0
M  V30 2757 H 257.672 2.88524 2.85497 0
M  V30 2758 H 258.438 4.70736 1.16758 0
M  V30 2759 H 254.317 4.04979 2.20256 0
M  V30 2760 H 257.861 6.96689 0.356494 0
M  V30 2761 H 253.758 6.30205 1.39686 0
M  V30 2762 H 254.526 8.17021 0.491829 0
M  V30 2763 N 257.189 -0.644168 1.43834 0
M  V30 2764 C 258.137 -1.77793 1.49974 0
M  V30 2765 C 259.131 -1.65253 0.372536 0
M  V30 2766 O 260.337 -1.7149 0.546924 0
M  V30 2767 H 256.712 -0.58675 0.47035 0
M  V30 2768 H 258.683 -1.69736 2.45423 0
M  V30 2769 C 257.432 -3.16087 1.4486 0
M  V30 2770 H 256.755 -3.26378 2.30905 0
M  V30 2771 H 258.195 -3.95349 1.53217 0
M  V30 2772 C 256.654 -3.36484 0.167463 0
M  V30 2773 O 257.184 -3.94298 -0.767609 0
M  V30 2774 N 255.39 -2.90504 0.0747556 0
M  V30 2775 H 254.937 -2.4364 0.836507 0
M  V30 2776 H 254.895 -3.04527 -0.781714 0
M  V30 2777 N 258.668 -1.30515 -0.883378 0
M  V30 2778 C 259.945 -1.10086 -1.6168 0
M  V30 2779 C 260.325 0.349269 -2.08191 0
M  V30 2780 O 259.673 1.34105 -1.85008 0
M  V30 2781 C 259.883 -2.10315 -2.78511 0
M  V30 2782 C 261.231 -2.42119 -3.48803 0
M  V30 2783 O 262.255 -2.08638 -2.88702 0
M  V30 2784 O 261.114 -2.99396 -4.57192 0
M  V30 2785 H 258.208 -0.422907 -0.710689 0
M  V30 2786 H 260.754 -1.41947 -0.930015 0
M  V30 2787 H 259.526 -3.07917 -2.41459 0
M  V30 2788 H 259.149 -1.79282 -3.54886 0
M  V30 2789 N 260.146 1.09593 -1.13257 0
M  V30 2790 C 261.423 1.78293 -0.804432 0
M  V30 2791 C 261.803 1.99004 0.70431 0
M  V30 2792 O 261.151 1.59007 1.641 0
M  V30 2793 C 261.361 3.10707 -1.5894 0
M  V30 2794 C 262.709 3.85443 -1.78099 0
M  V30 2795 O 263.733 3.20454 -1.55525 0
M  V30 2796 O 262.592 5.02108 -2.15753 0
M  V30 2797 H 259.686 0.773156 -0.293528 0
M  V30 2798 H 262.232 1.16164 -1.23709 0
M  V30 2799 H 261.004 2.91106 -2.61482 0
M  V30 2800 H 260.627 3.80558 -1.15157 0
M  V30 2801 N 261.624 0.925811 1.2754 0
M  V30 2802 C 262.873 0.561084 1.93739 0
M  V30 2803 C 263.186 -0.901685 1.73577 0
M  V30 2804 O 264.392 -1.37511 2.34101 0
M  V30 2805 C 262.848 0.952668 3.47062 0
M  V30 2806 C 262.456 2.43599 3.75983 0
M  V30 2807 C 264.2 0.659103 4.19352 0
M  V30 2808 C 262.107 2.76707 5.22673 0
M  V30 2809 H 261.037 0.206122 0.725279 0
M  V30 2810 H 263.688 1.12637 1.44863 0
M  V30 2811 H 262.07 0.316053 3.94737 0
M  V30 2812 H 263.244 3.12035 3.39073 0
M  V30 2813 H 261.559 2.70125 3.16893 0
M  V30 2814 H 264.156 0.882985 5.27359 0
M  V30 2815 H 264.499 -0.403607 4.14339 0
M  V30 2816 H 265.032 1.25473 3.77494 0
M  V30 2817 H 261.771 3.8188 5.32774 0
M  V30 2818 H 261.291 2.12919 5.60737 0
M  V30 2819 H 262.97 2.6435 5.90532 0
M  V30 2820 N 263.102 -1.41638 0.69111 0
M  V30 2821 C 264.348 -2.01598 0.220519 0
M  V30 2822 C 264.681 -1.54594 -1.17535 0
M  V30 2823 O 263.956 -0.755177 -1.79241 0
M  V30 2824 C 264.239 -3.59062 0.273243 0
M  V30 2825 C 264.092 -4.16203 1.70573 0
M  V30 2826 C 265.411 -4.38546 -0.369457 0
M  V30 2827 H 262.53 -0.732468 0.0816045 0
M  V30 2828 H 265.172 -1.68445 0.878986 0
M  V30 2829 H 263.322 -3.87435 -0.287411 0
M  V30 2830 H 264.994 -3.98722 2.31989 0
M  V30 2831 H 263.237 -3.71414 2.2413 0
M  V30 2832 H 263.908 -5.25358 1.69419 0
M  V30 2833 H 266.384 -4.1596 0.107977 0
M  V30 2834 H 265.26 -5.48069 -0.302002 0
M  V30 2835 H 265.521 -4.17662 -1.44951 0
M  V30 2836 N 264.58 -0.43555 -1.51462 0
M  V30 2837 C 265.527 0.376797 -2.27703 0
M  V30 2838 C 266.497 1.01838 -1.31219 0
M  V30 2839 O 267.682 1.03762 -1.60119 0
M  V30 2840 C 264.822 1.47301 -3.12084 0
M  V30 2841 C 263.935 0.849744 -4.2356 0
M  V30 2842 C 263.07 1.92086 -4.95254 0
M  V30 2843 C 262.109 1.27593 -5.98654 0
M  V30 2844 N 261.246 2.28833 -6.63762 0
M  V30 2845 H 266.086 -0.279734 -2.96684 0
M  V30 2846 H 263.623 -0.149795 -1.46335 0
M  V30 2847 H 265.581 2.11984 -3.59331 0
M  V30 2848 H 264.211 2.0992 -2.45221 0
M  V30 2849 H 263.263 0.0912529 -3.80291 0
M  V30 2850 H 264.575 0.338878 -4.97648 0
M  V30 2851 H 263.729 2.64435 -5.46039 0
M  V30 2852 H 262.468 2.46545 -4.20793 0
M  V30 2853 H 261.473 0.537893 -5.47162 0
M  V30 2854 H 262.698 0.738693 -6.7507 0
M  V30 2855 H 260.644 2.82375 -5.92115 0
M  V30 2856 H 260.561 1.82632 -7.33608 0
M  V30 2857 H 261.829 3.00671 -7.19178 0
M  V30 2858 N 266.058 1.56714 -0.166846 0
M  V30 2859 C 267.307 1.95922 0.479318 0
M  V30 2860 C 267.62 1.05529 1.6469 0
M  V30 2861 O 268.826 1.34399 2.35901 0
M  V30 2862 C 267.282 3.48359 0.90412 0
M  V30 2863 C 266.89 4.47369 -0.237621 0
M  V30 2864 C 268.634 3.96394 1.51896 0
M  V30 2865 C 266.541 5.91039 0.206561 0
M  V30 2866 H 265.471 0.731495 0.18284 0
M  V30 2867 H 268.122 1.81728 -0.254363 0
M  V30 2868 H 266.504 3.57955 1.69365 0
M  V30 2869 H 267.678 4.49485 -1.01489 0
M  V30 2870 H 265.993 4.09366 -0.762128 0
M  V30 2871 H 268.59 5.01186 1.86325 0
M  V30 2872 H 268.933 3.39075 2.41524 0
M  V30 2873 H 269.466 3.89796 0.79395 0
M  V30 2874 H 266.205 6.52221 -0.654834 0
M  V30 2875 H 265.725 5.9224 0.949282 0
M  V30 2876 H 267.404 6.43707 0.651939 0
M  V30 2877 N 267.536 -0.106894 1.57237 0
M  V30 2878 C 268.784 -0.810921 1.85117 0
M  V30 2879 C 269.105 -1.7984 0.753827 0
M  V30 2880 O 268.375 -1.94649 -0.221056 0
M  V30 2881 H 266.955 -0.302466 0.683025 0
M  V30 2882 H 269.617 -0.0913324 1.94686 0
M  V30 2883 H 268.713 -1.34875 2.81452 0
M  V30 2884 N 269.014 -1.53014 -0.377408 0
M  V30 2885 C 270.254 -1.70318 -1.1301 0
M  V30 2886 C 270.618 -0.439538 -1.86901 0
M  V30 2887 O 271.819 -0.489095 -2.64313 0
M  V30 2888 C 270.09 -2.91125 -2.07319 0
M  V30 2889 S 271.649 -3.29075 -2.90268 0
M  V30 2890 H 268.467 -0.599426 -0.382374 0
M  V30 2891 H 271.069 -1.91089 -0.412933 0
M  V30 2892 H 269.773 -3.81303 -1.51777 0
M  V30 2893 H 269.304 -2.7272 -2.83526 0
M  V30 2894 H 271.319 -2.80165 -4.09539 0
M  V30 2895 N 270.492 0.636531 -1.44174 0
M  V30 2896 C 271.424 1.7618 -1.46606 0
M  V30 2897 C 272.437 1.58768 -0.360091 0
M  V30 2898 O 273.626 1.67181 -0.625518 0
M  V30 2899 C 270.726 3.13833 -1.27915 0
M  V30 2900 C 269.899 3.57753 -2.51658 0
M  V30 2901 C 268.958 4.74265 -2.27945 0
M  V30 2902 O 267.984 4.82852 -3.01401 0
M  V30 2903 N 269.186 5.65604 -1.30662 0
M  V30 2904 H 271.951 1.74567 -2.43612 0
M  V30 2905 H 269.512 0.820924 -1.39544 0
M  V30 2906 H 271.504 3.8949 -1.09907 0
M  V30 2907 H 270.074 3.10121 -0.39293 0
M  V30 2908 H 269.294 2.72362 -2.84978 0
M  V30 2909 H 270.582 3.83847 -3.33974 0
M  V30 2910 H 269.98 5.61354 -0.699844 0
M  V30 2911 H 268.537 6.40913 -1.18634 0
M  V30 2912 N 271.97 1.30982 0.876444 0
M  V30 2913 C 272.88 1.2003 2.01569 0
M  V30 2914 C 273.896 0.11838 1.73597 0
M  V30 2915 O 275.072 0.33495 1.98595 0
M  V30 2916 C 272.137 0.901637 3.34771 0
M  V30 2917 C 271.198 2.06979 3.76109 0
M  V30 2918 C 270.431 1.78529 5.02954 0
M  V30 2919 O 270.654 0.717296 5.65872 0
M  V30 2920 O 269.588 2.64019 5.40905 0
M  V30 2921 H 273.414 2.15753 2.13739 0
M  V30 2922 H 270.999 1.10658 1.00375 0
M  V30 2923 H 272.881 0.750645 4.1466 0
M  V30 2924 H 271.556 -0.0256141 3.2369 0
M  V30 2925 H 270.463 2.27616 2.96887 0
M  V30 2926 H 271.796 2.97907 3.91807 0
M  V30 2927 N 273.449 -1.08991 1.13837 0
M  V30 2928 C 274.696 -1.81258 0.902882 0
M  V30 2929 C 275.024 -1.85936 -0.570803 0
M  V30 2930 O 274.279 -1.3267 -1.43865 0
M  V30 2931 C 274.578 -3.27042 1.44147 0
M  V30 2932 C 274.244 -3.4249 2.93276 0
M  V30 2933 C 272.906 -3.46414 3.33992 0
M  V30 2934 C 275.258 -3.4666 3.892 0
M  V30 2935 C 272.586 -3.52091 4.69307 0
M  V30 2936 C 274.938 -3.53872 5.24364 0
M  V30 2937 C 273.602 -3.56066 5.646 0
M  V30 2938 H 272.872 -0.663268 0.330388 0
M  V30 2939 H 275.519 -1.28368 1.42105 0
M  V30 2940 H 273.824 -3.82599 0.844097 0
M  V30 2941 H 275.521 -3.81499 1.23528 0
M  V30 2942 H 272.111 -3.40124 2.60794 0
M  V30 2943 H 276.295 -3.42865 3.58828 0
M  V30 2944 H 271.551 -3.52079 4.9985 0
M  V30 2945 H 275.725 -3.56043 5.98503 0
M  V30 2946 H 273.352 -3.60218 6.69438 0
M  V30 2947 N 274.927 -0.932562 -1.27047 0
M  V30 2948 C 276.157 -0.591173 -1.97961 0
M  V30 2949 C 276.565 0.836219 -1.69717 0
M  V30 2950 O 275.908 1.56801 -0.957036 0
M  V30 2951 C 275.97 -0.743082 -3.51736 0
M  V30 2952 C 275.634 -2.1435 -4.03613 0
M  V30 2953 C 276.631 -3.11815 -4.16014 0
M  V30 2954 C 274.316 -2.46175 -4.37839 0
M  V30 2955 C 276.31 -4.39211 -4.61923 0
M  V30 2956 C 273.997 -3.73806 -4.83438 0
M  V30 2957 C 274.995 -4.70137 -4.95439 0
M  V30 2958 O 274.683 -5.95496 -5.40037 0
M  V30 2959 H 274.415 -0.222375 -0.638377 0
M  V30 2960 H 276.969 -1.25317 -1.62742 0
M  V30 2961 H 275.199 -0.0239739 -3.86693 0
M  V30 2962 H 276.888 -0.40603 -4.03864 0
M  V30 2963 H 277.654 -2.88549 -3.89826 0
M  V30 2964 H 273.533 -1.71936 -4.27737 0
M  V30 2965 H 277.077 -5.14404 -4.71205 0
M  V30 2966 H 272.974 -3.96888 -5.09068 0
M  V30 2967 H 273.742 -5.98554 -5.58279 0
M  V30 2968 N 276.405 1.4127 -0.698611 0
M  V30 2969 C 277.63 2.06024 -0.238512 0
M  V30 2970 C 278.055 1.5224 1.10475 0
M  V30 2971 O 277.413 0.650623 1.69223 0
M  V30 2972 C 277.461 3.59988 -0.209952 0
M  V30 2973 O 276.565 4.04282 0.814235 0
M  V30 2974 H 275.906 0.653829 -0.115775 0
M  V30 2975 H 278.436 1.8098 -0.954326 0
M  V30 2976 H 278.446 4.07979 -0.0418436 0
M  V30 2977 H 277.121 3.98503 -1.1903 0
M  V30 2978 H 275.698 3.6779 0.615234 0
M  V30 2979 N 277.883 0.443576 1.51229 0
M  V30 2980 C 278.846 -0.353132 2.26463 0
M  V30 2981 C 279.846 -0.944338 1.3015 0
M  V30 2982 O 281.036 -0.817813 1.5381 0
M  V30 2983 C 278.168 -1.50023 3.06114 0
M  V30 2984 H 279.361 0.3063 2.98332 0
M  V30 2985 H 276.914 0.196902 1.55055 0
M  V30 2986 H 277.649 -2.19553 2.38677 0
M  V30 2987 H 277.434 -1.08241 3.76864 0
M  V30 2988 H 278.924 -2.06296 3.63087 0
M  V30 2989 N 279.361 -1.56624 0.175154 0
M  V30 2990 C 280.607 -1.9729 -0.469506 0
M  V30 2991 C 280.94 -1.06128 -1.62636 0
M  V30 2992 O 280.215 -0.109183 -1.94193 0
M  V30 2993 C 280.498 -3.47375 -0.948804 0
M  V30 2994 C 280.351 -4.49317 0.208491 0
M  V30 2995 C 281.67 -4.00652 -1.82116 0
M  V30 2996 H 278.789 -0.717317 -0.16919 0
M  V30 2997 H 281.431 -1.88184 0.262062 0
M  V30 2998 H 279.581 -3.55267 -1.57219 0
M  V30 2999 H 281.253 -4.53482 0.845682 0
M  V30 3000 H 279.496 -4.25121 0.863395 0
M  V30 3001 H 280.167 -5.51741 -0.169059 0
M  V30 3002 H 282.643 -3.95416 -1.2956 0
M  V30 3003 H 281.519 -5.06075 -2.12554 0
M  V30 3004 H 281.78 -3.44699 -2.7683 0
M  V30 3005 N 280.839 0.0985539 -1.57292 0
M  V30 3006 C 282.079 0.808332 -1.87737 0
M  V30 3007 C 282.443 1.7607 -0.76572 0
M  V30 3008 O 283.644 2.51358 -0.952499 0
M  V30 3009 C 281.915 1.52093 -3.23423 0
M  V30 3010 S 283.474 2.26947 -3.75554 0
M  V30 3011 H 280.292 0.269377 -0.657995 0
M  V30 3012 H 282.894 0.0656269 -1.9539 0
M  V30 3013 H 281.598 0.81363 -4.02254 0
M  V30 3014 H 281.129 2.30361 -3.189 0
M  V30 3015 H 283.144 3.53027 -3.48692 0
M  V30 3016 N 282.317 1.53212 0.369288 0
M  V30 3017 C 283.733 1.42902 0.710712 0
M  V30 3018 C 283.933 0.565135 1.93413 0
M  V30 3019 O 282.989 0.0461484 2.52458 0
M  V30 3020 C 284.302 2.86042 0.927382 0
M  V30 3021 C 285.85 2.9565 1.02762 0
M  V30 3022 C 286.325 4.39843 1.27679 0
M  V30 3023 N 287.816 4.43256 1.34457 0
M  V30 3024 C 288.551 5.51929 1.55439 0
M  V30 3025 N 288.047 6.70655 1.73762 0
M  V30 3026 N 289.84 5.39502 1.57779 0
M  V30 3027 H 281.991 2.07888 -0.435457 0
M  V30 3028 H 284.254 0.938661 -0.132739 0
M  V30 3029 H 283.96 3.51557 0.100287 0
M  V30 3030 H 283.834 3.29472 1.83653 0
M  V30 3031 H 286.221 2.30291 1.84527 0
M  V30 3032 H 286.302 2.5562 0.0959504 0
M  V30 3033 H 285.946 5.05774 0.464175 0
M  V30 3034 H 285.876 4.77443 2.22162 0
M  V30 3035 H 288.367 3.5769 1.21926 0
M  V30 3036 H 288.68 7.49248 1.89335 0
M  V30 3037 H 287.025 6.73648 1.70948 0
M  V30 3038 H 290.216 4.45713 1.43029 0
M  V30 3039 H 290.389 6.2426 1.7379 0
M  V30 3040 N 283.795 -0.628877 1.44509 0
M  V30 3041 C 284.745 -1.7345 1.47983 0
M  V30 3042 C 285.729 -1.5715 0.345373 0
M  V30 3043 O 286.921 -1.66848 0.590829 0
M  V30 3044 C 284.05 -3.12143 1.42904 0
M  V30 3045 C 283.136 -3.33906 2.61472 0
M  V30 3046 N 283.527 -3.26024 3.86706 0
M  V30 3047 C 281.825 -3.64709 2.56716 0
M  V30 3048 C 282.526 -3.48536 4.65722 0
M  V30 3049 N 281.502 -3.71517 3.96832 0
M  V30 3050 H 285.304 -1.65818 2.42655 0
M  V30 3051 H 282.818 -0.831419 1.39503 0
M  V30 3052 H 284.815 -3.91433 1.43476 0
M  V30 3053 H 283.475 -3.2094 0.492717 0
M  V30 3054 H 284.486 -3.04893 4.18641 0
M  V30 3055 H 281.163 -3.80473 1.71891 0
M  V30 3056 H 282.553 -3.48016 5.74747 0
M  V30 3057 N 285.273 -1.31445 -0.869486 0
M  V30 3058 C 286.223 -1.15731 -1.96444 0
M  V30 3059 C 287.207 -0.0681855 -1.60755 0
M  V30 3060 O 288.399 -0.293154 -1.74555 0
M  V30 3061 C 285.528 -0.867255 -3.32165 0
M  V30 3062 C 284.614 -1.99738 -3.74119 0
M  V30 3063 N 285.005 -3.24447 -3.88031 0
M  V30 3064 C 283.303 -1.89723 -4.03635 0
M  V30 3065 C 284.004 -3.98374 -4.23879 0
M  V30 3066 N 282.98 -3.26547 -4.3459 0
M  V30 3067 H 286.782 -2.10296 -2.05312 0
M  V30 3068 H 284.296 -1.23009 -1.06031 0
M  V30 3069 H 286.293 -0.735668 -4.10358 0
M  V30 3070 H 284.953 0.0701614 -3.24624 0
M  V30 3071 H 285.964 -3.59557 -3.72746 0
M  V30 3072 H 282.641 -1.03449 -4.04481 0
M  V30 3073 H 284.031 -5.05844 -4.42235 0
M  V30 3074 N 286.751 1.08385 -1.14413 0
M  V30 3075 C 287.701 2.13509 -0.79987 0
M  V30 3076 C 288.685 1.5951 0.211059 0
M  V30 3077 O 289.877 1.76995 0.0133694 0
M  V30 3078 C 287.006 3.42162 -0.279297 0
M  V30 3079 C 286.092 4.03042 -1.31976 0
M  V30 3080 N 286.483 4.38327 -2.52395 0
M  V30 3081 C 284.781 4.30379 -1.17004 0
M  V30 3082 C 285.482 4.86428 -3.19003 0
M  V30 3083 N 284.458 4.84547 -2.46405 0
M  V30 3084 H 288.26 2.38609 -1.7159 0
M  V30 3085 H 285.774 1.2572 -1.02802 0
M  V30 3086 H 287.771 4.16898 -0.0143688 0
M  V30 3087 H 286.431 3.18511 0.630923 0
M  V30 3088 H 287.442 4.29349 -2.89621 0
M  V30 3089 H 284.119 4.16281 -0.318854 0
M  V30 3090 H 285.509 5.23107 -4.21674 0
M  V30 3091 N 288.23 0.939286 1.26551 0
M  V30 3092 C 289.177 0.446088 2.26448 0
M  V30 3093 C 290.147 -0.493234 1.58608 0
M  V30 3094 O 291.332 -0.409857 1.86346 0
M  V30 3095 C 288.472 -0.284375 3.43926 0
M  V30 3096 C 287.585 0.690399 4.26448 0
M  V30 3097 C 286.72 -0.0610712 5.31165 0
M  V30 3098 C 285.759 0.905649 6.05363 0
M  V30 3099 N 284.896 0.186055 7.01853 0
M  V30 3100 H 289.736 1.30291 2.68008 0
M  V30 3101 H 287.273 0.65371 1.31776 0
M  V30 3102 H 289.231 -0.724313 4.10864 0
M  V30 3103 H 287.861 -1.10535 3.03285 0
M  V30 3104 H 286.913 1.24885 3.59316 0
M  V30 3105 H 288.225 1.42873 4.779 0
M  V30 3106 H 287.379 -0.56038 6.04106 0
M  V30 3107 H 286.118 -0.832297 4.80546 0
M  V30 3108 H 285.123 1.4161 5.3125 0
M  V30 3109 H 286.348 1.67685 6.58072 0
M  V30 3110 H 284.294 -0.566714 6.53548 0
M  V30 3111 H 284.211 0.863752 7.51049 0
M  V30 3112 H 285.479 -0.292221 7.78952 0
M  V30 3113 N 289.708 -1.40897 0.706093 0
M  V30 3114 C 290.954 -2.01352 0.241889 0
M  V30 3115 C 291.287 -1.55832 -1.15888 0
M  V30 3116 O 290.562 -0.774145 -1.7843 0
M  V30 3117 C 290.845 -3.58752 0.311311 0
M  V30 3118 C 290.698 -4.1437 1.74978 0
M  V30 3119 C 292.017 -4.38914 -0.322922 0
M  V30 3120 H 289.136 -0.731562 0.0893687 0
M  V30 3121 H 291.778 -1.67504 0.896802 0
M  V30 3122 H 289.928 -3.87718 -0.246302 0
M  V30 3123 H 291.6 -3.96239 2.36205 0
M  V30 3124 H 289.843 -3.69016 2.28057 0
M  V30 3125 H 290.514 -5.23532 1.74981 0
M  V30 3126 H 292.99 -4.15822 0.152089 0
M  V30 3127 H 291.866 -5.48358 -0.243855 0
M  V30 3128 H 292.127 -4.19176 -1.40513 0
M  V30 3129 N 291.186 -0.45159 -1.50991 0
M  V30 3130 C 292.597 0.00818571 -1.86698 0
M  V30 3131 C 292.948 1.40661 -1.3678 0
M  V30 3132 O 292.073 2.0391 -0.724546 0
M  V30 3133 C 292.668 0.0216303 -3.38793 0
M  V30 3134 C 291.227 0.425865 -3.73983 0
M  V30 3135 C 290.374 -0.372163 -2.74791 0
M  V30 3136 H 293.325 -0.666785 -1.44013 0
M  V30 3137 H 293.346 0.828078 -3.7138 0
M  V30 3138 H 292.858 -0.996288 -3.75094 0
M  V30 3139 H 290.959 1.44886 -3.43277 0
M  V30 3140 H 291.072 0.140761 -4.78893 0
M  V30 3141 H 289.436 0.171498 -2.54122 0
M  V30 3142 H 290.219 -1.38922 -3.13935 0
M  V30 3143 N 292.664 1.56529 -0.183458 0
M  V30 3144 C 293.612 2.19873 0.758845 0
M  V30 3145 C 294.606 1.16638 1.22849 0
M  V30 3146 O 295.812 1.3481 1.19274 0
M  V30 3147 H 292.187 0.7045 0.263029 0
M  V30 3148 H 294.158 2.97724 0.200755 0
M  V30 3149 C 292.907 2.86314 1.9728 0
M  V30 3150 H 292.23 3.65487 1.62047 0
M  V30 3151 H 293.67 3.3409 2.61075 0
M  V30 3152 C 292.129 1.86729 2.80418 0
M  V30 3153 O 292.659 1.36031 3.77966 0
M  V30 3154 N 290.865 1.55216 2.45675 0
M  V30 3155 H 290.412 1.96636 1.66409 0
M  V30 3156 H 290.37 0.888388 3.01588 0
M  V30 3157 N 294.142 -0.090211 1.57342 0
M  V30 3158 C 295.558 -0.444547 1.53284 0
M  V30 3159 C 295.758 -1.80238 0.900914 0
M  V30 3160 O 294.814 -2.4759 0.495513 0
M  V30 3161 C 296.127 -0.402543 2.97993 0
M  V30 3162 C 297.675 -0.48405 3.09234 0
M  V30 3163 C 298.15 -0.472144 4.5556 0
M  V30 3164 N 299.641 -0.532757 4.60126 0
M  V30 3165 C 300.376 -0.545462 5.708 0
M  V30 3166 N 299.872 -0.514082 6.9089 0
M  V30 3167 N 301.665 -0.59064 5.58988 0
M  V30 3168 H 293.816 0.799121 1.96794 0
M  V30 3169 H 296.079 0.297965 0.899956 0
M  V30 3170 H 295.785 0.528106 3.47712 0
M  V30 3171 H 295.659 -1.21969 3.56936 0
M  V30 3172 H 298.046 -1.40512 2.595 0
M  V30 3173 H 298.127 0.361328 2.53235 0
M  V30 3174 H 297.771 0.445 5.05947 0
M  V30 3175 H 297.701 -1.3348 5.09402 0
M  V30 3176 H 300.192 -0.562006 3.73698 0
M  V30 3177 H 300.505 -0.527195 7.71 0
M  V30 3178 H 298.85 -0.481054 6.93333 0
M  V30 3179 H 302.041 -0.61272 4.64073 0
M  V30 3180 H 302.214 -0.597073 6.45243 0
M  V30 3181 N 295.62 -1.53406 -0.361157 0
M  V30 3182 C 297.031 -1.61442 -0.937728 0
M  V30 3183 C 297.382 -0.48461 -1.90121 0
M  V30 3184 O 296.507 0.388312 -2.12888 0
M  V30 3185 C 297.102 -2.92624 -1.70753 0
M  V30 3186 C 295.661 -3.02981 -2.23337 0
M  V30 3187 C 294.808 -2.5677 -1.04712 0
M  V30 3188 H 297.759 -1.58083 -0.139816 0
M  V30 3189 H 297.78 -2.80675 -2.56908 0
M  V30 3190 H 297.292 -3.74834 -1.00604 0
M  V30 3191 H 295.393 -2.25368 -2.96715 0
M  V30 3192 H 295.506 -4.0814 -2.50916 0
M  V30 3193 H 293.87 -2.11752 -1.41539 0
M  V30 3194 H 294.653 -3.41402 -0.360539 0
M  V30 3195 N 297.098 0.621204 -1.44841 0
M  V30 3196 C 298.328 1.40548 -1.51426 0
M  V30 3197 C 298.736 1.88673 -0.141083 0
M  V30 3198 O 298.079 1.62053 0.865128 0
M  V30 3199 C 298.141 2.65325 -2.42576 0
M  V30 3200 C 297.805 2.3893 -3.89566 0
M  V30 3201 C 298.802 2.00138 -4.79834 0
M  V30 3202 C 296.487 2.52263 -4.3436 0
M  V30 3203 C 298.481 1.75021 -6.129 0
M  V30 3204 C 296.168 2.2676 -5.67471 0
M  V30 3205 C 297.166 1.88199 -6.56559 0
M  V30 3206 O 296.854 1.62986 -7.87204 0
M  V30 3207 H 296.586 0.437122 -0.515655 0
M  V30 3208 H 299.14 0.765987 -1.90583 0
M  V30 3209 H 297.37 3.31947 -1.98364 0
M  V30 3210 H 299.059 3.27347 -2.39998 0
M  V30 3211 H 299.825 1.89386 -4.46495 0
M  V30 3212 H 295.704 2.81246 -3.65269 0
M  V30 3213 H 299.248 1.44848 -6.82396 0
M  V30 3214 H 295.145 2.37125 -6.00368 0
M  V30 3215 H 295.913 1.7715 -7.991 0
M  V30 3216 N 298.576 1.31904 0.862503 0
M  V30 3217 C 299.506 1.22782 1.98612 0
M  V30 3218 C 300.487 0.113362 1.69722 0
M  V30 3219 O 301.672 0.299218 1.91881 0
M  V30 3220 C 298.802 0.942058 3.34279 0
M  V30 3221 C 297.756 2.0169 3.77499 0
M  V30 3222 C 297.082 1.58369 5.10709 0
M  V30 3223 C 298.382 3.43096 3.93805 0
M  V30 3224 H 300.076 2.16788 2.06502 0
M  V30 3225 H 297.622 1.04366 0.992154 0
M  V30 3226 H 299.575 0.864818 4.1243 0
M  V30 3227 H 298.299 -0.0336603 3.26583 0
M  V30 3228 H 296.958 2.08416 3.01593 0
M  V30 3229 H 296.606 0.595628 4.99461 0
M  V30 3230 H 296.306 2.30279 5.40597 0
M  V30 3231 H 297.83 1.52067 5.91361 0
M  V30 3232 H 299.244 3.39003 4.62331 0
M  V30 3233 H 297.641 4.13288 4.35101 0
M  V30 3234 H 298.711 3.83334 2.96957 0
M  V30 3235 N 300.054 -1.07777 1.14986 0
M  V30 3236 C 301.002 -2.16964 0.838406 0
M  V30 3237 C 301.996 -1.68372 -0.186386 0
M  V30 3238 O 303.202 -1.79951 -0.0418465 0
M  V30 3239 H 299.577 -0.708006 0.253439 0
M  V30 3240 H 301.548 -2.40454 1.76704 0
M  V30 3241 C 300.297 -3.4604 0.339335 0
M  V30 3242 H 299.62 -3.83813 1.11927 0
M  V30 3243 H 301.06 -4.23698 0.160021 0
M  V30 3244 C 299.519 -3.23569 -0.938325 0
M  V30 3245 O 300.049 -3.47752 -2.01077 0
M  V30 3246 N 298.255 -2.77079 -0.876117 0
M  V30 3247 H 297.802 -2.576 -0.00322037 0
M  V30 3248 H 297.76 -2.62422 -1.73153 0
M  V30 3249 N 301.532 -0.945985 -1.26051 0
M  V30 3250 C 302.757 -0.612525 -1.98149 0
M  V30 3251 C 303.182 0.806623 -1.69927 0
M  V30 3252 O 302.54 1.54411 -0.950108 0
M  V30 3253 C 302.588 -0.866981 -3.50023 0
M  V30 3254 O 301.692 0.0585333 -4.12358 0
M  V30 3255 H 301.033 -0.23379 -0.621481 0
M  V30 3256 H 303.563 -1.27023 -1.60395 0
M  V30 3257 H 303.573 -0.789792 -4.00283 0
M  V30 3258 H 302.248 -1.90135 -3.69894 0
M  V30 3259 H 300.825 -0.0701241 -3.72834 0
M  V30 3260 N 303.011 1.40521 -0.713556 0
M  V30 3261 C 303.959 2.32549 -0.0485227 0
M  V30 3262 C 304.953 1.51931 0.74922 0
M  V30 3263 O 306.159 1.67745 0.652816 0
M  V30 3264 H 302.534 0.751994 0.00311138 0
M  V30 3265 H 304.505 2.86291 -0.841443 0
M  V30 3266 C 303.254 3.36879 0.860687 0
M  V30 3267 H 302.577 3.98978 0.256246 0
M  V30 3268 H 304.017 4.03772 1.294 0
M  V30 3269 C 302.476 2.72197 1.9852 0
M  V30 3270 O 303.006 2.5837 3.07584 0
M  V30 3271 N 301.212 2.30612 1.76823 0
M  V30 3272 H 300.759 2.42059 0.881217 0
M  V30 3273 H 300.717 1.87672 2.52243 0
M  V30 3274 N 304.489 0.459591 1.5075 0
M  V30 3275 C 305.714 -0.0996819 2.0716 0
M  V30 3276 C 306.139 -1.33761 1.32249 0
M  V30 3277 O 305.497 -1.77551 0.366786 0
M  V30 3278 C 305.545 -0.378226 3.58611 0
M  V30 3279 O 304.649 -1.46081 3.85661 0
M  V30 3280 H 303.99 0.00791392 0.663953 0
M  V30 3281 H 306.52 0.647329 1.9409 0
M  V30 3282 H 306.53 -0.622135 4.03229 0
M  V30 3283 H 305.205 0.526439 4.12555 0
M  V30 3284 H 303.782 -1.20511 3.5289 0
M  V30 3285 N 305.967 -1.56429 0.191757 0
M  V30 3286 C 306.877 -2.22541 -0.742481 0
M  V30 3287 C 307.893 -1.22342 -1.23727 0
M  V30 3288 O 309.069 -1.55069 -1.28513 0
M  V30 3289 C 306.134 -2.8692 -1.94623 0
M  V30 3290 C 305.195 -4.02378 -1.49633 0
M  V30 3291 C 304.428 -4.63678 -2.6427 0
M  V30 3292 O 304.651 -4.23895 -3.81666 0
M  V30 3293 O 303.585 -5.53202 -2.37174 0
M  V30 3294 H 307.411 -3.02977 -0.209462 0
M  V30 3295 H 304.996 -1.49353 -0.0373832 0
M  V30 3296 H 306.878 -3.27663 -2.64982 0
M  V30 3297 H 305.553 -2.09466 -2.46791 0
M  V30 3298 H 304.46 -3.66265 -0.761636 0
M  V30 3299 H 305.793 -4.81487 -1.02134 0
M  V30 3300 N 307.445 0.0818655 -1.57387 0
M  V30 3301 C 308.355 1.11642 -2.06333 0
M  V30 3302 C 309.371 1.43033 -0.99083 0
M  V30 3303 O 310.547 1.53411 -1.30488 0
M  V30 3304 C 307.612 2.41342 -2.48907 0
M  V30 3305 C 306.673 2.17014 -3.7041 0
M  V30 3306 C 305.906 3.4053 -4.10944 0
M  V30 3307 O 306.129 4.4927 -3.51444 0
M  V30 3308 O 305.063 3.29336 -5.03807 0
M  V30 3309 H 308.889 0.730657 -2.9478 0
M  V30 3310 H 306.474 0.295301 -1.46452 0
M  V30 3311 H 308.356 3.17691 -2.76858 0
M  V30 3312 H 307.031 2.79319 -1.63593 0
M  V30 3313 H 305.938 1.38403 -3.47556 0
M  V30 3314 H 307.271 1.83923 -4.56545 0
M  V30 3315 N 308.923 1.53595 0.353017 0
M  V30 3316 C 310.17 1.70385 1.09431 0
M  V30 3317 C 310.498 0.462113 1.88931 0
M  V30 3318 O 309.753 -0.556074 1.87633 0
M  V30 3319 C 310.052 2.91313 2.07054 0
M  V30 3320 C 309.718 4.27308 1.43939 0
M  V30 3321 C 308.38 4.64287 1.26454 0
M  V30 3322 C 310.732 5.11829 0.983883 0
M  V30 3323 C 308.06 5.83412 0.620226 0
M  V30 3324 C 310.412 6.31611 0.353516 0
M  V30 3325 C 309.076 6.67293 0.166272 0
M  V30 3326 H 308.346 0.623484 0.400436 0
M  V30 3327 H 310.993 1.87799 0.374655 0
M  V30 3328 H 309.298 2.68463 2.85368 0
M  V30 3329 H 310.995 3.01497 2.64387 0
M  V30 3330 H 307.585 3.98198 1.58543 0
M  V30 3331 H 311.769 4.838 1.10685 0
M  V30 3332 H 307.025 6.09639 0.463681 0
M  V30 3333 H 311.199 6.964 -0.00757555 0
M  V30 3334 H 308.826 7.59461 -0.335047 0
M  V30 3335 N 310.401 -0.613514 1.45168 0
M  V30 3336 C 311.65 -1.36874 1.4815 0
M  V30 3337 C 311.963 -1.952 0.124982 0
M  V30 3338 O 313.169 -2.71481 0.0324176 0
M  V30 3339 C 311.625 -2.47905 2.60904 0
M  V30 3340 C 311.233 -1.96016 4.02842 0
M  V30 3341 C 312.977 -3.24965 2.73126 0
M  V30 3342 C 310.884 -3.04494 5.06988 0
M  V30 3343 H 309.814 -0.514428 0.551253 0
M  V30 3344 H 312.465 -0.658182 1.7129 0
M  V30 3345 H 310.847 -3.21618 2.31037 0
M  V30 3346 H 312.021 -1.29051 4.4236 0
M  V30 3347 H 310.336 -1.31719 3.95018 0
M  V30 3348 H 312.933 -4.05865 3.48106 0
M  V30 3349 H 313.276 -3.75588 1.79553 0
M  V30 3350 H 313.809 -2.5835 3.0249 0
M  V30 3351 H 310.548 -2.58795 6.0225 0
M  V30 3352 H 310.068 -3.70044 4.72046 0
M  V30 3353 H 311.747 -3.68976 5.31475 0
M  V30 3354 N 311.879 -1.3236 -0.855495 0
M  V30 3355 C 312.826 -1.21225 -1.964 0
M  V30 3356 C 313.796 -0.0946204 -1.6583 0
M  V30 3357 O 314.981 -0.27002 -1.8888 0
M  V30 3358 C 312.121 -0.940419 -3.32039 0
M  V30 3359 C 311.234 -2.14276 -3.75113 0
M  V30 3360 C 310.369 -1.80648 -4.9954 0
M  V30 3361 C 309.408 -2.97208 -5.35102 0
M  V30 3362 N 308.545 -2.63678 -6.50706 0
M  V30 3363 H 313.385 -2.16042 -2.05255 0
M  V30 3364 H 310.922 -1.07451 -1.00463 0
M  V30 3365 H 312.88 -0.763311 -4.10158 0
M  V30 3366 H 311.51 -0.0290413 -3.22787 0
M  V30 3367 H 310.562 -2.43017 -2.92655 0
M  V30 3368 H 311.874 -3.01468 -3.97389 0
M  V30 3369 H 311.028 -1.59484 -5.85363 0
M  V30 3370 H 309.767 -0.906678 -4.79198 0
M  V30 3371 H 308.772 -3.19004 -4.47791 0
M  V30 3372 H 309.997 -3.87918 -5.57401 0
M  V30 3373 H 307.943 -1.76238 -6.31883 0
M  V30 3374 H 307.86 -3.444 -6.72997 0
M  V30 3375 H 309.128 -2.45942 -7.39684 0
M  V30 3376 N 313.357 1.07166 -1.15556 0
M  V30 3377 C 314.604 1.79798 -0.931604 0
M  V30 3378 C 314.932 1.8682 0.54115 0
M  V30 3379 O 314.187 1.34942 1.41736 0
M  V30 3380 C 314.486 3.24707 -1.49332 0
M  V30 3381 C 314.152 3.37781 -2.98688 0
M  V30 3382 C 312.814 3.41057 -3.39461 0
M  V30 3383 C 315.166 3.40424 -3.94665 0
M  V30 3384 C 312.494 3.4458 -4.74849 0
M  V30 3385 C 314.846 3.45485 -5.29927 0
M  V30 3386 C 313.51 3.47039 -5.70193 0
M  V30 3387 H 312.78 0.657928 -0.340898 0
M  V30 3388 H 315.427 1.26091 -1.44129 0
M  V30 3389 H 313.732 3.81208 -0.904859 0
M  V30 3390 H 315.429 3.79486 -1.29582 0
M  V30 3391 H 312.019 3.35932 -2.66172 0
M  V30 3392 H 316.203 3.37113 -3.64237 0
M  V30 3393 H 311.459 3.44083 -5.05388 0
M  V30 3394 H 315.633 3.46476 -6.04092 0
M  V30 3395 H 313.26 3.49522 -6.75084 0
M  V30 3396 N 314.835 0.952656 1.25548 0
M  V30 3397 C 316.082 0.606373 1.93208 0
M  V30 3398 C 316.41 -0.85631 1.74636 0
M  V30 3399 O 315.665 -1.62951 1.08376 0
M  V30 3400 C 315.964 0.908818 3.45652 0
M  V30 3401 C 315.63 2.35722 3.84378 0
M  V30 3402 C 314.292 2.75312 3.9466 0
M  V30 3403 C 316.644 3.29793 4.03591 0
M  V30 3404 C 313.972 4.08047 4.21562 0
M  V30 3405 C 316.324 4.62138 4.31985 0
M  V30 3406 C 314.988 5.01528 4.40484 0
M  V30 3407 H 314.258 0.221888 0.706998 0
M  V30 3408 H 316.905 1.20132 1.49133 0
M  V30 3409 H 315.21 0.231456 3.91116 0
M  V30 3410 H 316.907 0.619498 3.96186 0
M  V30 3411 H 313.497 2.04017 3.76928 0
M  V30 3412 H 317.681 3.00397 3.95064 0
M  V30 3413 H 312.937 4.38212 4.26357 0
M  V30 3414 H 317.111 5.35012 4.45797 0
M  V30 3415 H 314.738 6.04406 4.61083 0
M  V30 3416 N 316.313 -1.40141 0.720998 0
M  V30 3417 C 317.26 -2.30688 0.071919 0
M  V30 3418 C 318.23 -1.48476 -0.744584 0
M  V30 3419 O 319.415 -1.77201 -0.707423 0
M  V30 3420 C 316.555 -3.34724 -0.839855 0
M  V30 3421 C 315.668 -4.31998 -0.0122438 0
M  V30 3422 C 314.803 -5.23102 -0.923995 0
M  V30 3423 C 313.842 -6.12033 -0.0907969 0
M  V30 3424 N 312.979 -6.95537 -0.957718 0
M  V30 3425 H 317.819 -2.85628 0.849755 0
M  V30 3426 H 315.356 -1.40653 0.430726 0
M  V30 3427 H 317.314 -3.93618 -1.38279 0
M  V30 3428 H 315.944 -2.81274 -1.58381 0
M  V30 3429 H 314.996 -3.74841 0.64794 0
M  V30 3430 H 316.308 -4.94772 0.632595 0
M  V30 3431 H 315.462 -5.86953 -1.53527 0
M  V30 3432 H 314.201 -4.60615 -1.60264 0
M  V30 3433 H 313.206 -5.47207 0.533377 0
M  V30 3434 H 314.431 -6.76581 0.584428 0
M  V30 3435 H 312.377 -6.35633 -1.62192 0
M  V30 3436 H 312.294 -7.55099 -0.36904 0
M  V30 3437 H 313.562 -7.63832 -1.555 0
M  V30 3438 N 317.792 -0.46758 -1.50504 0
M  V30 3439 C 318.74 0.342482 -2.30065 0
M  V30 3440 C 319.734 0.993596 -1.37201 0
M  V30 3441 O 320.94 0.925102 -1.54408 0
M  V30 3442 H 317.315 0.129283 -0.740803 0
M  V30 3443 H 319.286 -0.34899 -2.96352 0
M  V30 3444 C 318.035 1.4139 -3.17654 0
M  V30 3445 H 317.358 0.922264 -3.89017 0
M  V30 3446 H 318.798 1.95335 -3.76325 0
M  V30 3447 C 317.257 2.4139 -2.35016 0
M  V30 3448 O 317.787 3.46586 -2.03079 0
M  V30 3449 N 315.993 2.13021 -1.97662 0
M  V30 3450 H 315.54 1.27499 -2.23834 0
M  V30 3451 H 315.498 2.80164 -1.42673 0
M  V30 3452 N 319.27 1.56325 -0.20005 0
M  V30 3453 C 320.217 2.1932 0.718833 0
M  V30 3454 C 321.187 1.14198 1.20615 0
M  V30 3455 O 322.372 1.42469 1.26914 0
M  V30 3456 C 319.512 2.86041 1.93066 0
M  V30 3457 C 318.625 4.05702 1.48425 0
M  V30 3458 C 317.76 4.60266 2.65196 0
M  V30 3459 C 316.799 5.72273 2.17185 0
M  V30 3460 N 315.936 6.21221 3.27152 0
M  V30 3461 H 320.776 2.97486 0.17489 0
M  V30 3462 H 318.313 1.46911 0.0745794 0
M  V30 3463 H 320.271 3.22897 2.64184 0
M  V30 3464 H 318.901 2.1043 2.44783 0
M  V30 3465 H 317.953 3.74475 0.668755 0
M  V30 3466 H 319.265 4.86699 1.09204 0
M  V30 3467 H 318.419 4.99453 3.4443 0
M  V30 3468 H 317.158 3.78386 3.07693 0
M  V30 3469 H 316.163 5.3261 1.36407 0
M  V30 3470 H 317.388 6.55974 1.75713 0
M  V30 3471 H 315.334 5.42263 3.69171 0
M  V30 3472 H 315.251 6.97284 2.92116 0
M  V30 3473 H 316.519 6.65063 4.06585 0
M  V30 3474 N 320.748 -0.0735177 1.57428 0
M  V30 3475 C 321.695 -1.08756 2.0357 0
M  V30 3476 C 322.665 -1.38559 0.916 0
M  V30 3477 O 323.85 -1.49656 1.18354 0
M  V30 3478 C 320.99 -2.39657 2.48311 0
M  V30 3479 C 320.103 -2.16399 3.73892 0
M  V30 3480 C 319.238 -3.40852 4.07423 0
M  V30 3481 C 318.277 -3.1295 5.2605 0
M  V30 3482 N 317.414 -4.29729 5.55228 0
M  V30 3483 H 322.254 -0.687104 2.8997 0
M  V30 3484 H 319.791 -0.327709 1.43403 0
M  V30 3485 H 321.749 -3.16081 2.72303 0
M  V30 3486 H 320.379 -2.77508 1.64891 0
M  V30 3487 H 319.431 -1.30676 3.57251 0
M  V30 3488 H 320.743 -1.91788 4.60455 0
M  V30 3489 H 319.897 -4.25671 4.32306 0
M  V30 3490 H 318.636 -3.68537 3.19425 0
M  V30 3491 H 317.641 -2.26526 5.00965 0
M  V30 3492 H 318.866 -2.86589 6.15665 0
M  V30 3493 H 316.812 -4.57448 4.70188 0
M  V30 3494 H 316.729 -4.08385 6.36206 0
M  V30 3495 H 317.997 -5.1555 5.84661 0
M  V30 3496 N 322.226 -1.5378 -0.344866 0
M  V30 3497 C 323.642 -1.44015 -0.687888 0
M  V30 3498 C 323.842 -0.595834 -1.92489 0
M  V30 3499 O 322.898 -0.0863064 -2.52352 0
M  V30 3500 C 324.211 -2.87481 -0.881758 0
M  V30 3501 C 325.759 -2.97247 -0.980459 0
M  V30 3502 C 326.234 -4.41819 -1.20665 0
M  V30 3503 N 327.725 -4.45339 -1.27389 0
M  V30 3504 C 328.46 -5.54333 -1.46639 0
M  V30 3505 N 327.956 -6.73335 -1.63071 0
M  V30 3506 N 329.749 -5.41944 -1.49176 0
M  V30 3507 H 321.9 -2.07169 0.468475 0
M  V30 3508 H 324.163 -0.93643 0.147655 0
M  V30 3509 H 323.869 -3.51672 -0.0443444 0
M  V30 3510 H 323.743 -3.32352 -1.78388 0
M  V30 3511 H 326.13 -2.33197 -1.8084 0
M  V30 3512 H 326.211 -2.5574 -0.0552713 0
M  V30 3513 H 325.855 -5.06449 -0.383652 0
M  V30 3514 H 325.785 -4.80917 -2.14539 0
M  V30 3515 H 328.276 -3.59585 -1.1622 0
M  V30 3516 H 328.589 -7.52165 -1.77391 0
M  V30 3517 H 326.934 -6.76282 -1.60209 0
M  V30 3518 H 330.125 -4.47932 -1.3592 0
M  V30 3519 H 330.298 -6.26946 -1.63837 0
M  V30 3520 N 323.704 0.605807 -1.45491 0
M  V30 3521 C 324.652 1.73754 -1.54636 0
M  V30 3522 C 325.646 1.64207 -0.416219 0
M  V30 3523 O 326.852 1.69979 -0.592199 0
M  V30 3524 H 323.227 0.574073 -0.485741 0
M  V30 3525 H 325.198 1.63169 -2.49837 0
M  V30 3526 C 323.947 3.12135 -1.53189 0
M  V30 3527 H 323.27 3.20141 -2.39478 0
M  V30 3528 H 324.71 3.91147 -1.63645 0
M  V30 3529 C 323.169 3.35921 -0.256616 0
M  V30 3530 O 323.699 3.96194 0.662798 0
M  V30 3531 N 321.905 2.90204 -0.151751 0
M  V30 3532 H 321.452 2.41336 -0.90081 0
M  V30 3533 H 321.41 3.06492 0.700699 0
M  V30 3534 N 325.182 1.32811 0.848464 0
M  V30 3535 C 326.129 1.22265 1.95755 0
M  V30 3536 C 327.099 0.103413 1.65778 0
M  V30 3537 O 328.284 0.280033 1.88734 0
M  V30 3538 C 325.424 0.958014 3.31536 0
M  V30 3539 C 324.537 2.16262 3.73971 0
M  V30 3540 C 323.672 1.83295 4.98575 0
M  V30 3541 C 322.711 3.00041 5.33518 0
M  V30 3542 N 321.848 2.67125 6.49299 0
M  V30 3543 H 326.688 2.17128 2.04107 0
M  V30 3544 H 324.225 1.07982 0.998913 0
M  V30 3545 H 326.183 0.785052 4.09747 0
M  V30 3546 H 324.813 0.046159 3.22767 0
M  V30 3547 H 323.865 2.44565 2.91362 0
M  V30 3548 H 325.177 3.03572 3.95785 0
M  V30 3549 H 324.331 1.62586 5.84509 0
M  V30 3550 H 323.07 0.932078 4.7871 0
M  V30 3551 H 322.075 3.21374 4.46093 0
M  V30 3552 H 323.3 3.90869 5.55336 0
M  V30 3553 H 321.246 1.79586 6.3094 0
M  V30 3554 H 321.163 3.47965 6.71161 0
M  V30 3555 H 322.431 2.49861 7.3837 0
M  V30 3556 N 326.66 -1.06551 1.16123 0
M  V30 3557 C 327.608 -2.16063 0.861371 0
M  V30 3558 C 328.602 -1.6856 -0.168517 0
M  V30 3559 O 329.808 -1.79986 -0.0227579 0
M  V30 3560 H 326.183 -0.705278 0.260934 0
M  V30 3561 H 328.154 -2.38567 1.79244 0
M  V30 3562 C 326.903 -3.45661 0.376018 0
M  V30 3563 H 326.226 -3.82604 1.15992 0
M  V30 3564 H 327.666 -4.23504 0.204951 0
M  V30 3565 C 326.125 -3.24546 -0.903954 0
M  V30 3566 O 326.655 -3.49865 -1.97377 0
M  V30 3567 N 324.861 -2.77992 -0.846679 0
M  V30 3568 H 324.408 -2.57589 0.0241017 0
M  V30 3569 H 324.366 -2.64244 -1.70359 0
M  V30 3570 N 328.138 -0.959301 -1.25041 0
M  V30 3571 C 329.387 -0.612254 -1.92183 0
M  V30 3572 C 329.7 0.855347 -1.75907 0
M  V30 3573 O 330.906 1.31256 -2.37664 0
M  V30 3574 C 329.362 -1.04435 -3.44414 0
M  V30 3575 C 328.97 -2.53482 -3.69393 0
M  V30 3576 C 330.714 -0.770055 -4.17457 0
M  V30 3577 C 328.621 -2.90468 -5.15153 0
M  V30 3578 H 327.551 -0.225279 -0.719559 0
M  V30 3579 H 330.202 -1.16438 -1.41825 0
M  V30 3580 H 328.584 -0.4206 -3.9376 0
M  V30 3581 H 329.758 -3.20916 -3.30681 0
M  V30 3582 H 328.073 -2.78432 -3.0962 0
M  V30 3583 H 330.67 -1.02249 -5.24832 0
M  V30 3584 H 331.013 0.293611 -4.15263 0
M  V30 3585 H 331.546 -1.35437 -3.74034 0
M  V30 3586 H 328.285 -3.95871 -5.22462 0
M  V30 3587 H 327.805 -2.27711 -5.54894 0
M  V30 3588 H 329.484 -2.79914 -5.83315 0
M  V30 3589 O 329.655 1.36296 -0.866345 0
M  V30 3590 H 330.346 1.88046 -0.464585 0
M  V30 END ATOM
M  V30 BEGIN BOND
M  V30 END BOND
M  V30 END CTAB
M  END
$$$$
