drugbank_target|Q9R381 Aminoglycoside N(6')-acetyltransferase type 1 (DB01992; DB03615)
 OpenBabel12092120233D

  0  0  0     0  0            999 V3000
M  V30 BEGIN CTAB
M  V30 COUNTS 2270 2296 0 0 0
M  V30 BEGIN ATOM
M  V30 1 H -0.908 1.98254 -0.117106 0
M  V30 2 N 0 1.576 0 0
M  V30 3 C 0.933 2.03868 1.02534 0
M  V30 4 C 1.911 0.928543 1.3348 0
M  V30 5 O 3.095 1.19667 1.45644 0
M  V30 6 C 0.222 2.43627 2.35294 0
M  V30 7 C -0.732 3.65373 2.2001 0
M  V30 8 S 0.101 5.13292 1.52614 0
M  V30 9 C 1.257 5.56322 2.86805 0
M  V30 10 H 1.49 2.90518 0.631377 0
M  V30 11 H -0.977 1.52953 0.210867 0
M  V30 12 H 0.981 2.67203 3.11629 0
M  V30 13 H -0.358 1.57376 2.7183 0
M  V30 14 H -1.165 3.90944 3.18086 0
M  V30 15 H -1.563 3.418 1.51819 0
M  V30 16 H 0.729 5.58782 3.83104 0
M  V30 17 H 1.672 6.56266 2.65933 0
M  V30 18 H 2.08 4.83886 2.90714 0
M  V30 19 N 1.4781 -0.272755 1.55222 0
M  V30 20 C 2.7551 -1.02562 1.66555 0
M  V30 21 C 3.1351 -2.04282 0.532189 0
M  V30 22 O 2.4831 -2.23662 -0.467717 0
M  V30 23 C 2.6931 -1.6822 3.05782 0
M  V30 24 C 4.0411 -2.19373 3.63539 0
M  V30 25 O 5.0651 -1.78206 3.08417 0
M  V30 26 O 3.9241 -2.94883 4.60115 0
M  V30 27 H 1.0181 -0.475755 0.676451 0
M  V30 28 H 3.5641 -0.268593 1.67561 0
M  V30 29 H 2.3361 -0.945112 3.79715 0
M  V30 30 H 1.9591 -2.50609 3.08676 0
M  V30 31 N 2.9562 -1.48159 -0.537278 0
M  V30 32 C 4.2052 -1.5506 -1.28993 0
M  V30 33 C 4.5182 -0.226211 -1.94288 0
M  V30 34 O 5.7242 -0.173395 -2.70946 0
M  V30 35 C 4.1802 -2.73429 -2.34018 0
M  V30 36 C 3.7882 -4.1248 -1.74825 0
M  V30 37 C 5.5322 -2.89638 -3.10339 0
M  V30 38 C 3.4392 -5.22121 -2.77747 0
M  V30 39 H 2.3692 -0.577231 -0.485098 0
M  V30 40 H 5.0202 -1.74478 -0.568317 0
M  V30 41 H 3.4022 -2.47431 -3.09182 0
M  V30 42 H 4.5762 -4.48466 -1.05899 0
M  V30 43 H 2.8912 -4.01327 -1.11022 0
M  V30 44 H 5.4882 -3.68718 -3.87235 0
M  V30 45 H 5.8312 -1.9882 -3.65754 0
M  V30 46 H 6.3642 -3.15502 -2.42288 0
M  V30 47 H 3.1032 -6.1488 -2.27161 0
M  V30 48 H 2.6232 -4.90631 -3.45024 0
M  V30 49 H 4.3022 -5.49924 -3.4087 0
M  V30 50 N 4.4343 0.785586 -1.36625 0
M  V30 51 C 5.8503 1.08419 -1.17122 0
M  V30 52 C 6.0503 2.015 0.00208491 0
M  V30 53 O 5.1063 2.43551 0.666278 0
M  V30 54 C 6.4193 1.69498 -2.48377 0
M  V30 55 C 7.9673 1.81821 -2.54775 0
M  V30 56 C 8.4423 2.46315 -3.86126 0
M  V30 57 N 9.9333 2.53779 -3.87492 0
M  V30 58 C 10.6683 3.045 -4.85868 0
M  V30 59 N 10.1643 3.55499 -5.94637 0
M  V30 60 N 11.9573 3.03247 -4.73284 0
M  V30 61 H 4.1083 0.167264 -2.1174 0
M  V30 62 H 6.3713 0.13682 -0.938075 0
M  V30 63 H 6.0773 1.08571 -3.34522 0
M  V30 64 H 5.9513 2.6896 -2.64462 0
M  V30 65 H 8.3383 2.41884 -1.69045 0
M  V30 66 H 8.4193 0.811532 -2.42586 0
M  V30 67 H 8.0633 1.86895 -4.72263 0
M  V30 68 H 7.9933 3.47561 -3.95612 0
M  V30 69 H 10.4843 2.17672 -3.08913 0
M  V30 70 H 10.7973 3.92562 -6.65669 0
M  V30 71 H 9.1423 3.5364 -5.98301 0
M  V30 72 H 12.3333 2.62696 -3.87438 0
M  V30 73 H 12.5063 3.42467 -5.50109 0
M  V30 74 N 5.9124 1.20967 1.01018 0
M  V30 75 C 6.8444 0.922059 2.09835 0
M  V30 76 C 7.8574 -0.0927106 1.62536 0
M  V30 77 O 9.0464 0.139127 1.77957 0
M  V30 78 C 6.1464 0.362004 3.36961 0
M  V30 79 C 5.3194 1.42986 4.13369 0
M  V30 80 C 4.3784 0.879976 5.1879 0
M  V30 81 O 3.4044 1.56219 5.47343 0
M  V30 82 N 4.6064 -0.307396 5.79686 0
M  V30 83 H 7.3714 1.8588 2.35093 0
M  V30 84 H 4.9324 1.11422 1.1746 0
M  V30 85 H 6.9244 -0.0201474 4.04695 0
M  V30 86 H 5.4944 -0.479437 3.08902 0
M  V30 87 H 4.7144 1.98608 3.40512 0
M  V30 88 H 6.0024 2.14885 4.61196 0
M  V30 89 H 5.4004 -0.878796 5.58832 0
M  V30 90 H 3.9574 -0.631115 6.48737 0
M  V30 91 N 7.3905 -1.2043 1.01659 0
M  V30 92 C 8.3235 -2.21924 0.531521 0
M  V30 93 C 9.3015 -1.57054 -0.421032 0
M  V30 94 O 10.4855 -1.85389 -0.341035 0
M  V30 95 C 7.6125 -3.37942 -0.226496 0
M  V30 96 C 6.6585 -4.21115 0.67561 0
M  V30 97 S 7.4915 -4.90674 2.14475 0
M  V30 98 C 8.6475 -6.10113 1.3969 0
M  V30 99 H 8.8805 -2.62725 1.3915 0
M  V30 100 H 6.4135 -1.30481 0.825479 0
M  V30 101 H 8.3715 -4.05196 -0.657738 0
M  V30 102 H 7.0325 -2.956 -1.06205 0
M  V30 103 H 6.2255 -5.03918 0.091108 0
M  V30 104 H 5.8275 -3.59115 1.04463 0
M  V30 105 H 8.1195 -6.7411 0.676897 0
M  V30 106 H 9.0625 -6.73022 2.20107 0
M  V30 107 H 9.4705 -5.57283 0.899786 0
M  V30 108 N 8.8686 -0.792821 -1.36206 0
M  V30 109 C 9.8166 -0.181555 -2.3189 0
M  V30 110 C 10.8106 0.661025 -1.55971 0
M  V30 111 O 12.0166 0.555728 -1.71206 0
M  V30 112 H 8.3916 -0.0399382 -0.750939 0
M  V30 113 H 10.3626 -1.00394 -2.81005 0
M  V30 114 C 9.1116 0.666444 -3.41253 0
M  V30 115 H 8.4346 0.0274489 -3.99791 0
M  V30 116 H 9.8746 1.06076 -4.10517 0
M  V30 117 C 8.3336 1.82614 -2.83114 0
M  V30 118 O 8.8636 2.9229 -2.75553 0
M  V30 119 N 7.0696 1.63333 -2.40356 0
M  V30 120 H 6.6166 0.741217 -2.46706 0
M  V30 121 H 6.5746 2.41087 -2.01803 0
M  V30 122 N 10.3467 1.47872 -0.545128 0
M  V30 123 C 11.2937 2.29849 0.2093 0
M  V30 124 C 12.2637 1.38313 0.919707 0
M  V30 125 O 13.4487 1.67277 0.917772 0
M  V30 126 C 10.5887 3.22019 1.24088 0
M  V30 127 C 9.7017 4.2864 0.537778 0
M  V30 128 C 8.8367 5.07973 1.5536 0
M  V30 129 C 7.8757 6.06381 0.8348 0
M  V30 130 N 7.0127 6.78717 1.79688 0
M  V30 131 H 11.8527 2.93845 -0.49591 0
M  V30 132 H 9.3897 1.44848 -0.256389 0
M  V30 133 H 11.3477 3.73868 1.85144 0
M  V30 134 H 9.9777 2.59914 1.91428 0
M  V30 135 H 9.0297 3.7994 -0.187046 0
M  V30 136 H 10.3417 4.98793 -0.0258907 0
M  V30 137 H 9.4957 5.63912 2.23803 0
M  V30 138 H 8.2347 4.37693 2.15118 0
M  V30 139 H 7.2397 5.49631 0.136388 0
M  V30 140 H 8.4647 6.78665 0.24313 0
M  V30 141 H 6.4107 6.11177 2.38326 0
M  V30 142 H 6.3277 7.44998 1.28505 0
M  V30 143 H 7.5957 7.39237 2.47282 0
M  V30 144 N 11.8248 0.280983 1.55075 0
M  V30 145 C 13.0528 -0.337293 2.04132 0
M  V30 146 C 13.4678 -1.4903 1.15912 0
M  V30 147 O 12.8248 -1.81606 0.180459 0
M  V30 148 C 12.8758 -0.812706 3.52246 0
M  V30 149 O 12.5968 0.294387 4.3711 0
M  V30 150 C 14.0978 -1.4982 4.17216 0
M  V30 151 H 11.3178 -0.0761638 0.666663 0
M  V30 152 H 13.8618 0.414787 2.00249 0
M  V30 153 H 12.0168 -1.51486 3.56554 0
M  V30 154 H 12.4308 -0.0721325 5.2445 0
M  V30 155 H 13.9048 -1.7822 5.22438 0
M  V30 156 H 14.3818 -2.43168 3.65741 0
M  V30 157 H 14.9878 -0.839742 4.16927 0
M  V30 158 N 13.3029 -1.57598 0.00835791 0
M  V30 159 C 14.2529 -2.05431 -0.989045 0
M  V30 160 C 15.2369 -0.950662 -1.29812 0
M  V30 161 O 16.4289 -1.21438 -1.28771 0
M  V30 162 C 13.5579 -2.56801 -2.27833 0
M  V30 163 C 12.6439 -3.74058 -1.99853 0
M  V30 164 N 13.0349 -4.8544 -1.42062 0
M  V30 165 C 11.3329 -3.82148 -2.29953 0
M  V30 166 C 12.0339 -5.66817 -1.30743 0
M  V30 167 N 11.0099 -5.13077 -1.7959 0
M  V30 168 H 14.8119 -2.88955 -0.536853 0
M  V30 169 H 12.3259 -1.61199 -0.197148 0
M  V30 170 H 14.3229 -2.89349 -3.00137 0
M  V30 171 H 12.9829 -1.74699 -2.73698 0
M  V30 172 H 13.9939 -5.0612 -1.09833 0
M  V30 173 H 10.6709 -3.10916 -2.78635 0
M  V30 174 H 12.0609 -6.66343 -0.862328 0
M  V30 175 N 14.781 0.264519 -1.55364 0
M  V30 176 C 15.711 1.33121 -1.91836 0
M  V30 177 C 16.692 1.51101 -0.781192 0
M  V30 178 O 17.877 1.64003 -1.04003 0
M  V30 179 C 15.007 2.68921 -2.19769 0
M  V30 180 C 13.961 2.65661 -3.35571 0
M  V30 181 C 13.287 4.05093 -3.49004 0
M  V30 182 C 14.587 2.24187 -4.71739 0
M  V30 183 H 16.281 1.02844 -2.81182 0
M  V30 184 H 13.827 0.493286 -1.35287 0
M  V30 185 H 15.78 3.43663 -2.43872 0
M  V30 186 H 14.504 3.00799 -1.27231 0
M  V30 187 H 13.163 1.93377 -3.1145 0
M  V30 188 H 12.811 4.34206 -2.53917 0
M  V30 189 H 12.511 4.03804 -4.26868 0
M  V30 190 H 14.035 4.81561 -3.75408 0
M  V30 191 H 15.449 2.88654 -4.9533 0
M  V30 192 H 13.846 2.34044 -5.52579 0
M  V30 193 H 14.916 1.19327 -4.69988 0
M  V30 194 N 16.2591 1.48442 0.529413 0
M  V30 195 C 17.1691 1.6569 1.66084 0
M  V30 196 C 18.1851 0.539432 1.65427 0
M  V30 197 O 19.3611 0.810572 1.84368 0
M  V30 198 C 16.4261 1.69315 3.02545 0
M  V30 199 C 15.4871 2.92694 3.14052 0
M  V30 200 C 14.7201 2.96137 4.44003 0
M  V30 201 O 14.9431 2.07973 5.31134 0
M  V30 202 O 13.8771 3.88312 4.59888 0
M  V30 203 H 17.7031 2.61483 1.54469 0
M  V30 204 H 15.2881 1.3185 0.702567 0
M  V30 205 H 17.1701 1.74217 3.83701 0
M  V30 206 H 15.8451 0.766966 3.14483 0
M  V30 207 H 14.7521 2.93324 2.32189 0
M  V30 208 H 16.0851 3.84699 3.0703 0
M  V30 209 N 17.7372 -0.778329 1.37039 0
M  V30 210 C 18.6872 -1.88142 1.28789 0
M  V30 211 C 19.6712 -1.59923 0.177063 0
M  V30 212 O 20.8632 -1.72165 0.410873 0
M  V30 213 C 17.9922 -3.25518 1.09055 0
M  V30 214 C 17.0782 -3.5971 2.24654 0
M  V30 215 N 17.4692 -3.65131 3.50018 0
M  V30 216 C 15.7672 -3.89837 2.16663 0
M  V30 217 C 16.4682 -3.95882 4.26207 0
M  V30 218 N 15.4442 -4.11441 3.55271 0
M  V30 219 H 19.2462 -1.90575 2.23737 0
M  V30 220 H 16.7602 -0.974435 1.29917 0
M  V30 221 H 18.7572 -4.04423 1.0123 0
M  V30 222 H 17.4172 -3.24353 0.15018 0
M  V30 223 H 18.4282 -3.475 3.84011 0
M  V30 224 H 15.1052 -3.96533 1.30645 0
M  V30 225 H 16.4952 -4.06907 5.34674 0
M  V30 226 N 19.2153 -1.21501 -1.00376 0
M  V30 227 C 20.4613 -1.04457 -1.74529 0
M  V30 228 C 20.8163 0.417386 -1.87818 0
M  V30 229 O 20.1093 1.30556 -1.40234 0
M  V30 230 C 20.3033 -1.67673 -3.15627 0
M  V30 231 C 20.1323 -3.19865 -3.16096 0
M  V30 232 C 18.9023 -3.88915 -3.22604 0
M  V30 233 C 21.1003 -4.16936 -3.01112 0
M  V30 234 N 19.0823 -5.28284 -3.12712 0
M  V30 235 C 20.4533 -5.43066 -2.99131 0
M  V30 236 C 22.5083 -4.07968 -2.85423 0
M  V30 237 C 21.2113 -6.6126 -2.83068 0
M  V30 238 C 23.2373 -5.258 -2.70718 0
M  V30 239 C 22.5993 -6.50842 -2.69414 0
M  V30 240 H 18.6983 -0.436584 -0.648782 0
M  V30 241 H 21.2823 -1.53875 -1.19293 0
M  V30 242 H 19.4533 -1.20822 -3.6913 0
M  V30 243 H 21.1853 -1.43824 -3.78281 0
M  V30 244 H 17.9403 -3.39847 -3.2985 0
M  V30 245 H 18.3643 -6.01284 -3.11105 0
M  V30 246 H 23.0063 -3.1209 -2.85236 0
M  V30 247 H 20.7243 -7.57298 -2.82002 0
M  V30 248 H 24.3103 -5.20683 -2.59577 0
M  V30 249 H 23.1903 -7.40485 -2.5817 0
M  V30 250 N 20.6934 1.19889 -1.02296 0
M  V30 251 C 22.1094 1.41462 -0.738954 0
M  V30 252 C 22.3094 1.89721 0.678846 0
M  V30 253 O 21.3654 2.07016 1.4457 0
M  V30 254 C 22.6784 2.43083 -1.77005 0
M  V30 255 C 24.2264 2.5684 -1.78892 0
M  V30 256 C 24.7014 3.61709 -2.80945 0
M  V30 257 N 26.1924 3.69199 -2.79725 0
M  V30 258 C 26.9274 4.50019 -3.55345 0
M  V30 259 N 26.4234 5.34592 -4.40662 0
M  V30 260 N 28.2164 4.44612 -3.43914 0
M  V30 261 H 20.3674 0.868827 -1.93817 0
M  V30 262 H 22.6304 0.44399 -0.837602 0
M  V30 263 H 22.3364 2.14636 -2.78612 0
M  V30 264 H 22.2104 3.4217 -1.58744 0
M  V30 265 H 24.5974 2.84614 -0.779674 0
M  V30 266 H 24.6784 1.57927 -2.01228 0
M  V30 267 H 24.3224 3.34678 -3.82038 0
M  V30 268 H 24.2524 4.60259 -2.5587 0
M  V30 269 H 26.7434 3.08794 -2.17842 0
M  V30 270 H 27.0564 5.93363 -4.95116 0
M  V30 271 H 25.4014 5.34073 -4.44737 0
M  V30 272 H 28.5924 3.7758 -2.76679 0
M  V30 273 H 28.7654 5.0736 -4.031 0
M  V30 274 N 22.1715 0.800033 1.35784 0
M  V30 275 C 23.4195 0.376597 1.9856 0
M  V30 276 C 23.7405 -1.05812 1.63795 0
M  V30 277 O 23.0105 -1.73103 0.917171 0
M  V30 278 H 21.5905 0.136261 0.734467 0
M  V30 279 H 24.2525 1.02442 1.65806 0
M  V30 280 H 23.3485 0.477002 3.08433 0
M  V30 281 N 23.6496 -1.47581 0.552962 0
M  V30 282 C 24.5796 -2.32762 -0.185451 0
M  V30 283 C 25.5606 -1.43527 -0.912905 0
M  V30 284 O 26.7456 -1.72388 -0.894201 0
M  V30 285 C 23.8756 -3.25219 -1.21859 0
M  V30 286 C 22.8296 -4.23661 -0.607864 0
M  V30 287 C 22.1556 -5.05413 -1.74533 0
M  V30 288 C 23.4556 -5.20481 0.435582 0
M  V30 289 H 25.1496 -2.94749 0.525684 0
M  V30 290 H 22.6956 -1.41738 0.254251 0
M  V30 291 H 24.6486 -3.8365 -1.7433 0
M  V30 292 H 23.3726 -2.61279 -1.95961 0
M  V30 293 H 22.0316 -3.66451 -0.104489 0
M  V30 294 H 21.6796 -4.3788 -2.47529 0
M  V30 295 H 21.3796 -5.72059 -1.34249 0
M  V30 296 H 22.9036 -5.66701 -2.27338 0
M  V30 297 H 24.3176 -5.733 -0.00290157 0
M  V30 298 H 22.7146 -5.95305 0.757067 0
M  V30 299 H 23.7846 -4.66217 1.33303 0
M  V30 300 N 25.1277 -0.289203 -1.54924 0
M  V30 301 C 26.5437 0.0645403 -1.59469 0
M  V30 302 C 26.7437 1.53419 -1.30632 0
M  V30 303 O 25.7997 2.2852 -1.074 0
M  V30 304 C 27.1127 -0.32278 -2.98963 0
M  V30 305 C 28.6607 -0.270564 -3.11828 0
M  V30 306 C 29.1357 -0.632532 -4.53611 0
M  V30 307 N 30.6267 -0.584617 -4.59496 0
M  V30 308 C 31.3617 -0.837314 -5.67254 0
M  V30 309 N 30.8577 -1.15536 -6.83098 0
M  V30 310 N 32.6507 -0.765166 -5.56868 0
M  V30 311 H 24.8017 -1.24714 -1.71931 0
M  V30 312 H 27.0647 -0.504809 -0.802416 0
M  V30 313 H 26.7707 -1.34541 -3.24948 0
M  V30 314 H 26.6447 0.32944 -3.75759 0
M  V30 315 H 29.0317 0.742805 -2.85598 0
M  V30 316 H 29.1127 -0.957242 -2.37214 0
M  V30 317 H 28.7567 -1.64365 -4.80569 0
M  V30 318 H 28.6867 0.07609 -5.26545 0
M  V30 319 H 31.1777 -0.349248 -3.76283 0
M  V30 320 H 31.4907 -1.33447 -7.61191 0
M  V30 321 H 29.8357 -1.19328 -6.84679 0
M  V30 322 H 33.0267 -0.516432 -4.65243 0
M  V30 323 H 33.1997 -0.965477 -6.40767 0
M  V30 324 N 26.6058 1.57591 -0.0167156 0
M  V30 325 C 27.5528 2.09462 0.969251 0
M  V30 326 C 28.5228 0.99381 1.33089 0
M  V30 327 O 29.7078 1.26726 1.42636 0
M  V30 328 C 26.8478 2.61622 2.25051 0
M  V30 329 C 25.9608 3.85666 1.94642 0
M  V30 330 C 25.0958 4.26266 3.16972 0
M  V30 331 C 24.1348 5.43101 2.82326 0
M  V30 332 N 23.2718 5.78915 3.97243 0
M  V30 333 H 28.1118 2.93428 0.519997 0
M  V30 334 H 25.6488 1.45044 0.245087 0
M  V30 335 H 27.6068 2.89949 2.99976 0
M  V30 336 H 26.2368 1.80505 2.67615 0
M  V30 337 H 25.2888 3.64145 1.10013 0
M  V30 338 H 26.6008 4.70678 1.65117 0
M  V30 339 H 25.7548 4.55963 4.00228 0
M  V30 340 H 24.4938 3.39996 3.49648 0
M  V30 341 H 23.4988 5.1311 1.97479 0
M  V30 342 H 24.7238 6.3106 2.50879 0
M  V30 343 H 22.6698 4.95602 4.29785 0
M  V30 344 H 22.5868 6.58539 3.71299 0
M  V30 345 H 23.8548 6.13212 4.81239 0
M  V30 346 N 28.0839 -0.256276 1.55502 0
M  V30 347 C 29.0159 -1.33981 1.85962 0
M  V30 348 C 30.0289 -1.44743 0.745212 0
M  V30 349 O 31.2179 -1.4626 1.02324 0
M  V30 350 C 28.3179 -2.7194 2.02242 0
M  V30 351 C 27.4909 -2.83562 3.33033 0
M  V30 352 C 26.5499 -4.02304 3.39172 0
M  V30 353 O 25.5759 -3.92273 4.12444 0
M  V30 354 N 26.7779 -5.15045 2.67784 0
M  V30 355 H 29.5429 -1.08191 2.7949 0
M  V30 356 H 27.1039 -0.446388 1.55624 0
M  V30 357 H 29.0959 -3.49697 2.03701 0
M  V30 358 H 27.6659 -2.90479 1.15502 0
M  V30 359 H 26.8859 -1.92555 3.43971 0
M  V30 360 H 28.1739 -2.88271 4.19258 0
M  V30 361 H 27.5719 -5.26085 2.07968 0
M  V30 362 H 26.1289 -5.90972 2.74947 0
M  V30 363 N 29.562 -1.4872 -0.521534 0
M  V30 364 C 30.492 -1.66771 -1.63431 0
M  V30 365 C 31.473 -0.516499 -1.62069 0
M  V30 366 O 32.658 -0.750013 -1.79132 0
M  V30 367 C 29.788 -1.71515 -3.01993 0
M  V30 368 C 28.742 -2.86222 -3.18216 0
M  V30 369 C 28.068 -2.76061 -4.57924 0
M  V30 370 C 29.368 -4.27419 -3.00184 0
M  V30 371 H 31.062 -2.59932 -1.48579 0
M  V30 372 H 28.608 -1.25089 -0.713358 0
M  V30 373 H 30.561 -1.82731 -3.7972 0
M  V30 374 H 29.285 -0.749393 -3.17886 0
M  V30 375 H 27.944 -2.74575 -2.42908 0
M  V30 376 H 27.592 -1.77437 -4.70665 0
M  V30 377 H 27.292 -3.53037 -4.69722 0
M  V30 378 H 28.816 -2.89256 -5.37739 0
M  V30 379 H 30.23 -4.39855 -3.67697 0
M  V30 380 H 28.627 -5.05458 -3.2347 0
M  V30 381 H 29.697 -4.43293 -1.96518 0
M  V30 382 N 31.0401 0.771051 -1.3745 0
M  V30 383 C 32.2861 1.53109 -1.339 0
M  V30 384 C 32.6411 1.9225 0.0758401 0
M  V30 385 O 31.9341 1.61264 1.03463 0
M  V30 386 C 32.1281 2.80676 -2.2126 0
M  V30 387 C 31.9571 2.54003 -3.71096 0
M  V30 388 C 30.7271 2.48097 -4.402 0
M  V30 389 C 32.9251 2.21953 -4.63941 0
M  V30 390 N 30.9071 2.13515 -5.75573 0
M  V30 391 C 32.2781 1.97516 -5.87697 0
M  V30 392 C 34.3331 2.08114 -4.5232 0
M  V30 393 C 33.0361 1.60638 -7.01133 0
M  V30 394 C 35.0621 1.72636 -5.65642 0
M  V30 395 C 34.4241 1.4906 -6.88448 0
M  V30 396 H 30.5231 0.56055 -0.54526 0
M  V30 397 H 33.1071 0.899472 -1.72678 0
M  V30 398 H 31.2781 3.41674 -1.84698 0
M  V30 399 H 33.0101 3.46578 -2.08963 0
M  V30 400 H 29.7651 2.63974 -3.93211 0
M  V30 401 H 30.1891 1.98919 -6.47117 0
M  V30 402 H 34.8311 2.25024 -3.57944 0
M  V30 403 H 32.5491 1.42467 -7.95443 0
M  V30 404 H 36.1351 1.62586 -5.58621 0
M  V30 405 H 35.0151 1.22014 -7.7465 0
M  V30 406 N 32.5182 1.22032 0.997298 0
M  V30 407 C 33.9292 1.0397 1.55071 0
M  V30 408 C 34.2802 -0.398192 1.92117 0
M  V30 409 O 33.4052 -1.28254 1.74298 0
M  V30 410 C 34.0002 1.88109 2.81781 0
M  V30 411 C 32.5592 1.74357 3.33581 0
M  V30 412 C 31.7062 1.84846 2.06706 0
M  V30 413 H 34.6572 1.35941 0.818883 0
M  V30 414 H 34.6782 1.39589 3.53971 0
M  V30 415 H 34.1902 2.92754 2.54787 0
M  V30 416 H 32.2912 0.72427 3.65493 0
M  V30 417 H 32.4042 2.56772 4.04481 0
M  V30 418 H 30.7682 1.28238 2.20062 0
M  V30 419 H 31.5512 2.91014 1.82114 0
M  V30 420 N 33.9963 -1.19345 1.0293 0
M  V30 421 C 35.2443 -1.88665 0.724574 0
M  V30 422 C 35.5653 -1.80036 -0.749144 0
M  V30 423 O 34.8353 -1.2111 -1.53978 0
M  V30 424 H 33.4153 -0.698406 0.265025 0
M  V30 425 H 36.0773 -1.44885 1.30362 0
M  V30 426 H 35.1733 -2.94987 1.01926 0
M  V30 427 N 35.4744 -0.807222 -1.35358 0
M  V30 428 C 36.4244 -0.190706 -2.27201 0
M  V30 429 C 37.4084 0.635838 -1.47804 0
M  V30 430 O 38.6004 0.492991 -1.69996 0
M  V30 431 C 35.7294 0.659337 -3.36909 0
M  V30 432 C 34.8154 -0.176971 -4.23731 0
M  V30 433 N 35.2064 -1.24029 -4.90357 0
M  V30 434 C 33.5044 0.0412953 -4.45981 0
M  V30 435 C 34.2054 -1.75092 -5.54723 0
M  V30 436 N 33.1814 -1.05727 -5.33219 0
M  V30 437 H 36.9834 -1.0043 -2.76208 0
M  V30 438 H 34.4974 -0.648445 -1.48892 0
M  V30 439 H 36.4944 1.11706 -4.01656 0
M  V30 440 H 35.1544 1.47127 -2.89454 0
M  V30 441 H 36.1654 -1.62295 -4.91814 0
M  V30 442 H 32.8424 0.82232 -4.09322 0
M  V30 443 H 34.2324 -2.63963 -6.17878 0
M  V30 444 N 36.9525 1.47285 -0.560781 0
M  V30 445 C 38.3635 1.86258 -0.128343 0
M  V30 446 C 38.7145 1.46699 1.30284 0
M  V30 447 O 37.8395 0.871698 1.98067 0
M  V30 448 C 38.4345 3.38044 -0.22614 0
M  V30 449 C 36.9935 3.76096 0.151283 0
M  V30 450 C 36.1405 2.71335 -0.572084 0
M  V30 451 H 39.0915 1.38752 -0.770297 0
M  V30 452 H 39.1125 3.76441 0.554322 0
M  V30 453 H 38.6245 3.66806 -1.26788 0
M  V30 454 H 36.7255 3.52951 1.19399 0
M  V30 455 H 36.8385 4.78641 -0.209765 0
M  V30 456 H 35.2025 2.54696 -0.0147653 0
M  V30 457 H 35.9855 3.02938 -1.61504 0
M  V30 458 N 38.4306 0.297415 1.54768 0
M  V30 459 C 39.7076 -0.365847 1.92148 0
M  V30 460 C 40.0876 -1.71975 1.22424 0
M  V30 461 O 39.4356 -2.25666 0.358739 0
M  V30 462 C 39.6456 -0.484056 3.45627 0
M  V30 463 C 40.9936 -0.756594 4.17805 0
M  V30 464 O 42.0176 -0.568007 3.51642 0
M  V30 465 O 40.8766 -1.11863 5.34929 0
M  V30 466 H 37.9706 -0.203919 0.801465 0
M  V30 467 H 40.5166 0.34521 1.66152 0
M  V30 468 H 39.2886 0.467865 3.88493 0
M  V30 469 H 38.9116 -1.24372 3.77647 0
M  V30 470 N 39.9087 -1.5758 0.0250728 0
M  V30 471 C 41.1857 -1.82917 -0.692873 0
M  V30 472 C 41.5657 -0.908137 -1.90568 0
M  V30 473 O 40.9137 0.0372298 -2.2847 0
M  V30 474 C 41.1237 -3.32034 -1.07492 0
M  V30 475 C 42.4717 -3.98406 -1.46826 0
M  V30 476 O 43.4957 -3.36505 -1.16801 0
M  V30 477 O 42.3547 -5.07497 -2.02754 0
M  V30 478 H 39.4487 -0.754079 -0.33955 0
M  V30 479 H 41.9947 -1.69619 0.0524456 0
M  V30 480 H 40.7667 -3.90728 -0.211552 0
M  V30 481 H 40.3897 -3.50424 -1.87854 0
M  V30 482 N 41.3868 0.248026 -1.55636 0
M  V30 483 C 42.3498 1.29044 -1.89421 0
M  V30 484 C 43.3498 1.41134 -0.770581 0
M  V30 485 O 44.5398 1.39854 -1.03858 0
M  V30 486 C 41.6718 2.66831 -2.12165 0
M  V30 487 H 42.8648 1.00305 -2.82629 0
M  V30 488 H 40.4178 0.487265 -1.48511 0
M  V30 489 H 41.1528 3.00711 -1.21422 0
M  V30 490 H 40.9378 2.59438 -2.93997 0
M  V30 491 H 42.4278 3.42103 -2.3949 0
M  V30 492 N 42.8649 1.48995 0.513639 0
M  V30 493 C 43.8149 1.61127 1.61314 0
M  V30 494 C 44.7989 0.467521 1.53958 0
M  V30 495 O 45.9909 0.719826 1.61702 0
M  V30 496 C 43.1199 1.66937 2.99978 0
M  V30 497 C 42.2059 2.86847 3.12377 0
M  V30 498 N 42.5969 4.11078 2.94701 0
M  V30 499 C 40.8949 2.84521 3.43459 0
M  V30 500 C 41.5959 4.91615 3.10949 0
M  V30 501 N 40.5719 4.24739 3.3926 0
M  V30 502 H 44.3739 2.54909 1.46282 0
M  V30 503 H 41.8879 1.45593 0.719483 0
M  V30 504 H 43.8849 1.73725 3.78979 0
M  V30 505 H 42.5449 0.742831 3.16089 0
M  V30 506 H 43.5559 4.41258 2.71131 0
M  V30 507 H 40.2329 2.01192 3.65825 0
M  V30 508 H 41.6229 6.00264 3.01882 0
M  V30 509 N 44.343 -0.763751 1.37857 0
M  V30 510 C 45.273 -1.89103 1.36975 0
M  V30 511 C 46.254 -1.68439 0.237152 0
M  V30 512 O 47.439 -1.8918 0.438713 0
M  V30 513 C 44.569 -3.26496 1.18395 0
M  V30 514 C 43.523 -3.61741 2.28751 0
M  V30 515 C 42.849 -4.97762 1.95286 0
M  V30 516 C 44.149 -3.67665 3.70972 0
M  V30 517 H 45.843 -1.90099 2.31307 0
M  V30 518 H 43.389 -0.91319 1.11341 0
M  V30 519 H 45.342 -4.05003 1.16406 0
M  V30 520 H 44.066 -3.25955 0.205215 0
M  V30 521 H 42.725 -2.85547 2.29909 0
M  V30 522 H 42.373 -4.93769 0.959221 0
M  V30 523 H 42.073 -5.22313 2.69189 0
M  V30 524 H 43.597 -5.7866 1.94898 0
M  V30 525 H 45.011 -4.36307 3.719 0
M  V30 526 H 43.408 -4.03718 4.43995 0
M  V30 527 H 44.478 -2.68134 4.0402 0
M  V30 528 N 45.8211 -1.22559 -0.990812 0
M  V30 529 C 46.7841 -0.998863 -2.0629 0
M  V30 530 C 47.7841 0.0354834 -1.60761 0
M  V30 531 O 48.9741 -0.203231 -1.7301 0
M  V30 532 C 46.1061 -0.509203 -3.37076 0
M  V30 533 H 47.2991 -1.95014 -2.27837 0
M  V30 534 H 44.8521 -1.04456 -1.16269 0
M  V30 535 H 45.5871 0.446335 -3.21214 0
M  V30 536 H 45.3721 -1.25547 -3.71457 0
M  V30 537 H 46.8621 -0.370888 -4.1595 0
M  V30 538 N 47.2992 1.18797 -1.03562 0
M  V30 539 C 48.5762 1.84469 -0.650434 0
M  V30 540 C 48.9562 1.92319 0.870433 0
M  V30 541 O 48.3042 1.44528 1.76986 0
M  V30 542 C 48.5142 3.2306 -1.32036 0
M  V30 543 C 49.8622 3.9915 -1.44792 0
M  V30 544 O 50.8862 3.32481 -1.27806 0
M  V30 545 O 49.7452 5.18587 -1.72423 0
M  V30 546 H 46.8392 0.795251 -0.226946 0
M  V30 547 H 49.3852 1.26231 -1.13419 0
M  V30 548 H 48.1572 3.1222 -2.3587 0
M  V30 549 H 47.7802 3.88949 -0.8249 0
M  V30 550 N 48.7773 0.814389 1.34928 0
M  V30 551 C 50.0253 0.397636 1.9815 0
M  V30 552 C 50.3463 -1.04069 1.64908 0
M  V30 553 O 49.6163 -1.72121 0.93548 0
M  V30 554 H 48.1963 0.144043 0.732981 0
M  V30 555 H 50.8583 1.04195 1.6471 0
M  V30 556 H 49.9543 0.509688 3.0791 0
M  V30 557 N 50.2554 -1.46986 0.568584 0
M  V30 558 C 51.1654 -2.33942 -0.17555 0
M  V30 559 C 52.1814 -1.48891 -0.90041 0
M  V30 560 O 53.3574 -1.81794 -0.86676 0
M  V30 561 C 50.4224 -3.25811 -1.18524 0
M  V30 562 C 49.4834 -4.26757 -0.466582 0
M  V30 563 C 48.7164 -5.14236 -1.42817 0
M  V30 564 O 48.9394 -5.04379 -2.66379 0
M  V30 565 O 47.8734 -5.94412 -0.946453 0
M  V30 566 H 51.6994 -2.98896 0.538036 0
M  V30 567 H 49.2844 -1.4573 0.329097 0
M  V30 568 H 51.1664 -3.82527 -1.76779 0
M  V30 569 H 49.8414 -2.63471 -1.88055 0
M  V30 570 H 48.7484 -3.73769 0.157451 0
M  V30 571 H 50.0814 -4.91843 0.187485 0
M  V30 572 N 51.7335 -0.305618 -1.54608 0
M  V30 573 C 52.6435 0.57778 -2.27374 0
M  V30 574 C 53.6595 1.14451 -1.31061 0
M  V30 575 O 54.8355 1.16831 -1.6405 0
M  V30 576 C 51.9005 1.73123 -3.00382 0
M  V30 577 C 50.9615 1.19812 -4.12242 0
M  V30 578 C 50.1945 2.2966 -4.81759 0
M  V30 579 O 50.4175 3.49651 -4.50666 0
M  V30 580 O 49.3515 1.96091 -5.69062 0
M  V30 581 H 53.1775 -0.012624 -3.03697 0
M  V30 582 H 50.7625 -0.0719184 -1.49227 0
M  V30 583 H 52.6445 2.40315 -3.4616 0
M  V30 584 H 51.3195 2.30815 -2.26949 0
M  V30 585 H 50.2265 0.491798 -3.70853 0
M  V30 586 H 51.5595 0.666566 -4.87666 0
M  V30 587 N 53.2116 1.57565 -0.0334293 0
M  V30 588 C 54.4606 1.91155 0.643639 0
M  V30 589 C 54.7736 0.91192 1.73042 0
M  V30 590 O 55.9796 1.13923 2.46442 0
M  V30 591 C 54.4356 3.39443 1.1961 0
M  V30 592 C 54.0436 4.47774 0.142381 0
M  V30 593 C 55.7876 3.82094 1.84944 0
M  V30 594 C 53.6946 5.87162 0.706727 0
M  V30 595 H 52.6246 0.713368 0.244176 0
M  V30 596 H 55.2756 1.8323 -0.0994323 0
M  V30 597 H 53.6576 3.42313 1.99092 0
M  V30 598 H 54.8316 4.56469 -0.630296 0
M  V30 599 H 53.1466 4.14352 -0.412446 0
M  V30 600 H 55.7436 4.83591 2.2813 0
M  V30 601 H 56.0866 3.17386 2.69392 0
M  V30 602 H 56.6196 3.81665 1.12145 0
M  V30 603 H 53.3586 6.55424 -0.0997178 0
M  V30 604 H 52.8786 5.82064 1.44779 0
M  V30 605 H 54.5576 6.35866 1.19514 0
M  V30 606 N 54.6897 -0.239769 1.55765 0
M  V30 607 C 55.6197 -1.30052 1.9393 0
M  V30 608 C 56.6007 -1.49839 0.805132 0
M  V30 609 O 57.7857 -1.62328 1.06599 0
M  V30 610 C 54.9157 -2.65391 2.2402 0
M  V30 611 C 53.8697 -2.60289 3.39755 0
M  V30 612 C 53.1957 -3.99489 3.55405 0
M  V30 613 C 54.4957 -2.16654 4.75246 0
M  V30 614 H 56.1897 -0.983573 2.82783 0
M  V30 615 H 53.7357 -0.471701 1.36055 0
M  V30 616 H 55.6887 -3.3974 2.49308 0
M  V30 617 H 54.4127 -2.98736 1.32 0
M  V30 618 H 53.0717 -1.88398 3.14487 0
M  V30 619 H 52.7197 -4.30112 2.60793 0
M  V30 620 H 52.4197 -3.96962 4.33238 0
M  V30 621 H 53.9437 -4.75528 3.83022 0
M  V30 622 H 55.3577 -2.80737 4.99859 0
M  V30 623 H 53.7547 -2.25223 5.56232 0
M  V30 624 H 54.8247 -1.11835 4.71827 0
M  V30 625 N 56.1678 -1.49265 -0.50573 0
M  V30 626 C 57.0998 -1.617 -1.62437 0
M  V30 627 C 58.1128 -0.499924 -1.54934 0
M  V30 628 O 59.3018 -0.771785 -1.60953 0
M  V30 629 C 56.4018 -1.5533 -3.01207 0
M  V30 630 C 55.5748 -2.8249 -3.33943 0
M  V30 631 C 54.6338 -2.69238 -4.52103 0
M  V30 632 O 53.6598 -3.43167 -4.5412 0
M  V30 633 N 54.8618 -1.80468 -5.51735 0
M  V30 634 H 57.6268 -2.58177 -1.52199 0
M  V30 635 H 55.1878 -1.46294 -0.693511 0
M  V30 636 H 57.1798 -1.44125 -3.78167 0
M  V30 637 H 55.7498 -0.667297 -3.05395 0
M  V30 638 H 54.9698 -3.08081 -2.45926 0
M  V30 639 H 56.2578 -3.66802 -3.5261 0
M  V30 640 H 55.6558 -1.19653 -5.52901 0
M  V30 641 H 54.2128 -1.75188 -6.27816 0
M  V30 642 N 57.6459 0.756429 -1.3826 0
M  V30 643 C 58.6089 1.85176 -1.35065 0
M  V30 644 C 59.6089 1.58818 -0.251703 0
M  V30 645 O 60.7989 1.66615 -0.508433 0
M  V30 646 C 57.9309 3.22596 -1.10201 0
M  V30 647 H 59.1239 1.89417 -2.3251 0
M  V30 648 H 56.6769 0.95783 -1.23512 0
M  V30 649 H 57.4119 3.24025 -0.133504 0
M  V30 650 H 57.1969 3.43122 -1.89762 0
M  V30 651 H 58.6869 4.02673 -1.10654 0
M  V30 652 N 59.124 1.23083 0.984299 0
M  V30 653 C 60.401 0.9689 1.69917 0
M  V30 654 C 60.781 -0.513604 2.04757 0
M  V30 655 O 60.129 -1.48383 1.73767 0
M  V30 656 C 60.339 1.87518 2.94343 0
M  V30 657 C 61.687 2.13636 3.6694 0
M  V30 658 O 62.711 1.85036 3.04368 0
M  V30 659 O 61.57 2.62119 4.79537 0
M  V30 660 H 58.664 0.365095 0.742048 0
M  V30 661 H 61.21 1.34107 1.03987 0
M  V30 662 H 59.982 2.87756 2.65164 0
M  V30 663 H 59.605 1.50514 3.6801 0
M  V30 664 N 60.6021 -1.18246 1.0419 0
M  V30 665 C 61.5521 -2.19843 0.604392 0
M  V30 666 C 62.5361 -1.56962 -0.353814 0
M  V30 667 O 63.7281 -1.76156 -0.17267 0
M  V30 668 C 60.8571 -3.43287 -0.0298975 0
M  V30 669 C 59.9431 -4.13288 0.951531 0
M  V30 670 N 60.3341 -4.59271 2.11906 0
M  V30 671 C 58.6321 -4.39165 0.7778 0
M  V30 672 C 59.3331 -5.13173 2.73912 0
M  V30 673 N 58.3091 -5.04763 2.01779 0
M  V30 674 H 62.1111 -2.53089 1.4941 0
M  V30 675 H 59.6251 -1.34465 0.910658 0
M  V30 676 H 61.6221 -4.15334 -0.361037 0
M  V30 677 H 60.2821 -3.11537 -0.915127 0
M  V30 678 H 61.2931 -4.5368 2.49789 0
M  V30 679 H 57.9701 -4.17461 -0.0572331 0
M  V30 680 H 59.3601 -5.58947 3.72864 0
M  V30 681 N 62.0802 -0.821533 -1.34494 0
M  V30 682 C 63.0102 -0.257138 -2.3208 0
M  V30 683 C 63.9912 0.625645 -1.58176 0
M  V30 684 O 65.1762 0.552811 -1.86166 0
M  V30 685 C 62.3062 0.582958 -3.42372 0
M  V30 686 C 61.2602 -0.202571 -4.2752 0
M  V30 687 C 60.5862 0.760179 -5.29269 0
M  V30 688 C 61.8862 -1.40998 -5.02908 0
M  V30 689 H 63.5802 -1.07247 -2.79532 0
M  V30 690 H 61.1262 -0.517163 -1.34393 0
M  V30 691 H 63.0792 0.987972 -4.09655 0
M  V30 692 H 61.8032 1.43133 -2.93565 0
M  V30 693 H 60.4622 -0.588936 -3.61838 0
M  V30 694 H 60.1102 1.60447 -4.76724 0
M  V30 695 H 59.8102 0.238809 -5.87115 0
M  V30 696 H 61.3342 1.16308 -5.9942 0
M  V30 697 H 62.7482 -1.07905 -5.63054 0
M  V30 698 H 61.1452 -1.86689 -5.70322 0
M  V30 699 H 62.2152 -2.1889 -4.32684 0
M  V30 700 N 63.5583 1.46682 -0.576371 0
M  V30 701 C 64.5213 2.28707 0.150239 0
M  V30 702 C 65.5213 1.38035 0.824794 0
M  V30 703 O 66.7113 1.60476 0.677719 0
M  V30 704 C 63.8433 3.18248 1.22192 0
M  V30 705 H 65.0363 2.94423 -0.570521 0
M  V30 706 H 62.5893 1.52688 -0.334078 0
M  V30 707 H 63.3243 2.57265 1.97447 0
M  V30 708 H 63.1093 3.85 0.742812 0
M  V30 709 H 64.5993 3.80001 1.73172 0
M  V30 710 N 65.0364 0.313813 1.54444 0
M  V30 711 C 66.2614 -0.296681 2.05267 0
M  V30 712 C 66.6864 -1.45757 1.18897 0
M  V30 713 O 66.0444 -1.80239 0.195886 0
M  V30 714 C 66.0924 -0.71831 3.53373 0
M  V30 715 O 65.1964 -1.82175 3.69981 0
M  V30 716 H 64.5374 -0.0554061 0.661684 0
M  V30 717 H 67.0674 0.459387 1.99376 0
M  V30 718 H 67.0774 -1.00364 3.95463 0
M  V30 719 H 65.7524 0.130821 4.15694 0
M  V30 720 H 64.3294 -1.53598 3.39797 0
M  V30 721 N 66.5145 -1.57545 0.0417849 0
M  V30 722 C 67.7615 -1.92317 -0.634082 0
M  V30 723 C 68.0895 -0.919334 -1.71402 0
M  V30 724 O 67.3445 0.0698253 -1.95575 0
M  V30 725 C 67.6435 -3.33794 -1.27735 0
M  V30 726 C 67.3095 -4.49716 -0.326543 0
M  V30 727 C 65.9715 -4.81156 -0.0648814 0
M  V30 728 C 68.3235 -5.20182 0.325623 0
M  V30 729 C 65.6515 -5.80414 0.856539 0
M  V30 730 C 68.0035 -6.20424 1.23518 0
M  V30 731 C 66.6675 -6.50298 1.5056 0
M  V30 732 H 65.9375 -0.703736 -0.232027 0
M  V30 733 H 68.5845 -1.91205 0.106259 0
M  V30 734 H 66.8895 -3.31228 -2.09274 0
M  V30 735 H 68.5865 -3.57975 -1.80707 0
M  V30 736 H 65.1765 -4.25176 -0.540665 0
M  V30 737 H 69.3605 -4.96112 0.136546 0
M  V30 738 H 64.6165 -6.019 1.07363 0
M  V30 739 H 68.7905 -6.74141 1.74664 0
M  V30 740 H 66.4175 -7.27025 2.22123 0
M  V30 741 N 67.9926 0.231505 -1.5589 0
M  V30 742 C 69.2416 0.955346 -1.7764 0
M  V30 743 C 69.5546 1.85893 -0.608546 0
M  V30 744 O 70.7606 2.62067 -0.70943 0
M  V30 745 C 69.2166 1.74886 -3.14552 0
M  V30 746 C 68.8246 0.891915 -4.39032 0
M  V30 747 C 70.5686 2.46452 -3.45633 0
M  V30 748 C 68.4756 1.68221 -5.66971 0
M  V30 749 H 67.4056 0.360446 -0.662265 0
M  V30 750 H 70.0566 0.209516 -1.823 0
M  V30 751 H 68.4386 2.53723 -3.04041 0
M  V30 752 H 69.6126 0.144793 -4.60572 0
M  V30 753 H 67.9276 0.288863 -4.15397 0
M  V30 754 H 70.5246 3.06061 -4.38441 0
M  V30 755 H 70.8676 3.18841 -2.67668 0
M  V30 756 H 71.4006 1.74613 -3.57428 0
M  V30 757 H 68.1396 1.00178 -6.478 0
M  V30 758 H 67.6596 2.4042 -5.49507 0
M  V30 759 H 69.3386 2.24544 -6.06786 0
M  V30 760 N 69.4707 1.49531 0.497807 0
M  V30 761 C 70.4337 1.65916 1.58128 0
M  V30 762 C 71.4337 0.530825 1.51786 0
M  V30 763 O 72.6237 0.797342 1.54881 0
M  V30 764 C 69.7557 1.65951 2.9778 0
M  V30 765 H 70.9487 2.62556 1.44929 0
M  V30 766 H 68.5017 1.38611 0.722275 0
M  V30 767 H 69.2367 0.709065 3.16453 0
M  V30 768 H 69.0217 2.47897 3.03792 0
M  V30 769 H 70.5117 1.80673 3.76493 0
M  V30 770 N 70.9488 -0.749086 1.3866 0
M  V30 771 C 71.8818 -1.87111 1.30631 0
M  V30 772 C 72.8598 -1.61572 0.18251 0
M  V30 773 O 74.0438 -1.85019 0.360592 0
M  V30 774 C 71.1708 -3.22815 1.02511 0
M  V30 775 C 70.2168 -3.67234 2.1689 0
M  V30 776 S 71.0498 -3.78245 3.79066 0
M  V30 777 C 72.2058 -5.16761 3.53142 0
M  V30 778 H 72.4388 -1.93636 2.25594 0
M  V30 779 H 69.9718 -0.912525 1.24549 0
M  V30 780 H 71.9298 -4.01181 0.869701 0
M  V30 781 H 70.5908 -3.13964 0.0925884 0
M  V30 782 H 69.7838 -4.65677 1.92771 0
M  V30 783 H 69.3858 -2.96034 2.28561 0
M  V30 784 H 71.6778 -6.02656 3.09534 0
M  V30 785 H 72.6208 -5.45902 4.50995 0
M  V30 786 H 73.0288 -4.85771 2.87554 0
M  V30 787 N 72.4269 -1.23603 -0.977757 0
M  V30 788 C 73.3899 -1.02069 -2.05218 0
M  V30 789 C 74.3899 0.0184305 -1.60789 0
M  V30 790 O 75.5799 -0.221569 -1.72785 0
M  V30 791 C 72.7119 -0.544926 -3.36517 0
M  V30 792 H 73.9049 -1.9742 -2.25755 0
M  V30 793 H 71.4579 -1.05684 -1.15155 0
M  V30 794 H 72.1929 0.412241 -3.21669 0
M  V30 795 H 71.9779 -1.2948 -3.70105 0
M  V30 796 H 73.4679 -0.414985 -4.15533 0
M  V30 797 N 73.905 1.17692 -1.04816 0
M  V30 798 C 75.182 1.83768 -0.669963 0
M  V30 799 C 75.562 1.93232 0.849986 0
M  V30 800 O 74.91 1.46397 1.75443 0
M  V30 801 C 75.12 3.21641 -1.35455 0
M  V30 802 C 76.468 3.97592 -1.49017 0
M  V30 803 O 77.492 3.31107 -1.31326 0
M  V30 804 O 76.351 5.16729 -1.77914 0
M  V30 805 H 73.445 0.792799 -0.235368 0
M  V30 806 H 75.991 1.25021 -1.14751 0
M  V30 807 H 74.763 3.097 -2.39168 0
M  V30 808 H 74.386 3.88052 -0.866107 0
M  V30 809 N 75.3831 0.828654 1.34056 0
M  V30 810 C 76.6311 0.41863 1.97717 0
M  V30 811 C 76.9521 -1.02314 1.66002 0
M  V30 812 O 76.2221 -1.71119 0.953683 0
M  V30 813 H 74.8021 0.151809 0.731412 0
M  V30 814 H 77.4641 1.05936 1.63596 0
M  V30 815 H 76.5601 0.542318 3.07352 0
M  V30 816 N 76.8612 -1.46375 0.584142 0
M  V30 817 C 78.1072 -2.02678 0.0703716 0
M  V30 818 C 78.4402 -1.4545 -1.28678 0
M  V30 819 O 77.7152 -0.62014 -1.84349 0
M  V30 820 C 77.9982 -3.60099 0.00614674 0
M  V30 821 C 77.8512 -4.27709 1.3923 0
M  V30 822 C 79.1702 -4.34598 -0.693742 0
M  V30 823 H 76.2892 -0.736504 0.027047 0
M  V30 824 H 78.9312 -1.74501 0.751615 0
M  V30 825 H 77.0812 -3.84236 -0.574009 0
M  V30 826 H 78.7532 -4.14832 2.01773 0
M  V30 827 H 76.9962 -3.87016 1.95962 0
M  V30 828 H 77.6672 -5.36478 1.29982 0
M  V30 829 H 80.1432 -4.15615 -0.200869 0
M  V30 830 H 79.0192 -5.44318 -0.707714 0
M  V30 831 H 79.2802 -4.05759 -1.75533 0
M  V30 832 N 78.3393 -0.321999 -1.54275 0
M  V30 833 C 79.3023 0.531975 -2.22941 0
M  V30 834 C 80.3023 1.04478 -1.22234 0
M  V30 835 O 81.4923 0.937452 -1.46825 0
M  V30 836 C 78.6243 1.73874 -2.93224 0
M  V30 837 H 79.8173 -0.0682612 -2.99822 0
M  V30 838 H 77.3703 -0.0730644 -1.56129 0
M  V30 839 H 78.1053 2.37825 -2.20476 0
M  V30 840 H 77.8903 1.37847 -3.6707 0
M  V30 841 H 79.3803 2.34496 -3.45545 0
M  V30 842 N 79.8174 1.5752 -0.0501392 0
M  V30 843 C 81.0664 1.91827 0.623328 0
M  V30 844 C 81.3794 0.930222 1.72065 0
M  V30 845 O 82.5854 1.1653 2.4522 0
M  V30 846 C 81.0414 3.40692 1.16003 0
M  V30 847 C 80.6494 4.479 0.0948811 0
M  V30 848 C 82.3934 3.84034 1.80881 0
M  V30 849 C 80.3004 5.87879 0.644411 0
M  V30 850 H 79.2304 0.715918 0.236596 0
M  V30 851 H 81.8814 1.83115 -0.118861 0
M  V30 852 H 80.2634 3.44405 1.9545 0
M  V30 853 H 81.4374 4.55775 -0.678675 0
M  V30 854 H 79.7524 4.13892 -0.45637 0
M  V30 855 H 82.3494 4.85984 2.22988 0
M  V30 856 H 82.6924 3.20225 2.6601 0
M  V30 857 H 83.2254 3.82833 1.0809 0
M  V30 858 H 79.9644 6.55282 -0.169229 0
M  V30 859 H 79.4844 5.83567 1.38598 0
M  V30 860 H 81.1634 6.37098 1.12763 0
M  V30 861 N 81.2955 -0.223234 1.56011 0
M  V30 862 C 82.5435 -0.946003 1.78592 0
M  V30 863 C 82.8645 -1.84936 0.618349 0
M  V30 864 O 82.1345 -1.92473 -0.364833 0
M  V30 865 H 80.7145 -0.352298 0.658707 0
M  V30 866 H 83.3765 -0.235494 1.93472 0
M  V30 867 H 82.4725 -1.55381 2.70672 0
M  V30 868 N 82.7736 -1.49793 -0.48987 0
M  V30 869 C 84.0206 -1.59841 -1.24327 0
M  V30 870 C 84.3486 -0.290135 -1.92324 0
M  V30 871 O 83.6036 0.722749 -1.81865 0
M  V30 872 C 83.9026 -2.71488 -2.32441 0
M  V30 873 C 83.5686 -4.12614 -1.81826 0
M  V30 874 C 82.2306 -4.51017 -1.67742 0
M  V30 875 C 84.5826 -5.00892 -1.4407 0
M  V30 876 C 81.9106 -5.75459 -1.14297 0
M  V30 877 C 84.2626 -6.25863 -0.920742 0
M  V30 878 C 82.9266 -6.63086 -0.766383 0
M  V30 879 H 82.1966 -0.584899 -0.454944 0
M  V30 880 H 84.8436 -1.83663 -0.542215 0
M  V30 881 H 83.1486 -2.4168 -3.0838 0
M  V30 882 H 84.8456 -2.76469 -2.90458 0
M  V30 883 H 81.4356 -3.82307 -1.93751 0
M  V30 884 H 85.6196 -4.7187 -1.53794 0
M  V30 885 H 80.8756 -6.02989 -1.01068 0
M  V30 886 H 85.0496 -6.9364 -0.619448 0
M  V30 887 H 82.6766 -7.59393 -0.350083 0
M  V30 888 N 84.2517 0.741722 -1.39055 0
M  V30 889 C 85.2147 1.83733 -1.37021 0
M  V30 890 C 86.2147 1.58542 -0.268534 0
M  V30 891 O 87.4047 1.66067 -0.526076 0
M  V30 892 C 84.5367 3.2141 -1.13617 0
M  V30 893 H 85.7297 1.86941 -2.34506 0
M  V30 894 H 83.2827 0.944676 -1.24521 0
M  V30 895 H 84.0177 3.23865 -0.167863 0
M  V30 896 H 83.8027 3.4109 -1.93391 0
M  V30 897 H 85.2927 4.01477 -1.14918 0
M  V30 898 N 85.7298 1.2412 0.971189 0
M  V30 899 C 87.0068 0.986867 1.6888 0
M  V30 900 C 87.3868 -0.491857 2.0529 0
M  V30 901 O 86.7348 -1.46531 1.75331 0
M  V30 902 C 86.9448 1.9063 2.92338 0
M  V30 903 C 88.2928 2.17515 3.64654 0
M  V30 904 O 89.3168 1.88254 3.02388 0
M  V30 905 O 88.1758 2.6719 4.7673 0
M  V30 906 H 85.2698 0.372944 0.738134 0
M  V30 907 H 87.8158 1.35203 1.02559 0
M  V30 908 H 86.5878 2.90552 2.62097 0
M  V30 909 H 86.2108 1.54408 3.66393 0
M  V30 910 N 87.2079 -1.17134 1.05439 0
M  V30 911 C 88.1709 -2.19439 0.661764 0
M  V30 912 C 89.1709 -1.58199 -0.288042 0
M  V30 913 O 90.3609 -1.74053 -0.0715803 0
M  V30 914 C 87.4929 -3.40889 -0.0276209 0
M  V30 915 H 88.6859 -2.55688 1.56728 0
M  V30 916 H 86.2389 -1.31259 0.848567 0
M  V30 917 H 86.9739 -3.10187 -0.94629 0
M  V30 918 H 86.7589 -3.86586 0.655238 0
M  V30 919 H 88.2489 -4.16603 -0.288342 0
M  V30 920 N 88.686 -0.835752 -1.33615 0
M  V30 921 C 89.911 -0.442389 -2.02627 0
M  V30 922 C 90.336 0.947735 -1.62479 0
M  V30 923 O 89.694 1.61907 -0.815826 0
M  V30 924 C 89.742 -0.567216 -3.56111 0
M  V30 925 O 88.846 0.407799 -4.10379 0
M  V30 926 H 88.187 -0.180278 -0.639059 0
M  V30 927 H 90.717 -1.12972 -1.70583 0
M  V30 928 H 90.727 -0.447708 -4.05536 0
M  V30 929 H 89.402 -1.58103 -3.84677 0
M  V30 930 H 87.979 0.246107 -3.72087 0
M  V30 931 N 90.1641 1.46063 -0.591896 0
M  V30 932 C 91.4131 2.01547 -0.0786637 0
M  V30 933 C 91.7261 1.46796 1.29268 0
M  V30 934 O 92.9321 1.94157 1.89777 0
M  V30 935 C 91.3881 3.59787 -0.0900024 0
M  V30 936 C 90.9961 4.23534 -1.46023 0
M  V30 937 C 92.7401 4.22895 0.368806 0
M  V30 938 C 90.6471 5.73881 -1.4288 0
M  V30 939 H 89.5771 0.753564 -0.0256388 0
M  V30 940 H 92.2281 1.677 -0.744905 0
M  V30 941 H 90.6101 3.90752 0.642586 0
M  V30 942 H 91.7841 4.04167 -2.21328 0
M  V30 943 H 90.0991 3.72558 -1.85982 0
M  V30 944 H 92.6961 5.33116 0.411258 0
M  V30 945 H 93.0391 3.9247 1.38827 0
M  V30 946 H 93.5721 3.9659 -0.31001 0
M  V30 947 H 90.3111 6.0898 -2.42536 0
M  V30 948 H 89.8311 5.95486 -0.718095 0
M  V30 949 H 91.5101 6.36776 -1.14565 0
M  V30 950 N 91.6422 0.330177 1.54103 0
M  V30 951 C 93.0582 -0.0222371 1.59585 0
M  V30 952 C 93.2582 -1.49902 1.34654 0
M  V30 953 O 92.3142 -2.25592 1.13421 0
M  V30 954 C 93.6272 0.401932 2.98002 0
M  V30 955 C 95.1752 0.353145 3.11001 0
M  V30 956 C 95.6502 0.752576 4.51775 0
M  V30 957 N 97.1412 0.706239 4.57784 0
M  V30 958 C 97.8762 0.987417 5.64834 0
M  V30 959 N 97.3722 1.33607 6.79795 0
M  V30 960 N 99.1652 0.91254 5.54643 0
M  V30 961 H 91.3162 1.29228 1.68564 0
M  V30 962 H 93.5792 0.525906 0.78875 0
M  V30 963 H 93.2852 1.4311 3.21267 0
M  V30 964 H 93.1592 -0.229699 3.765 0
M  V30 965 H 95.5462 -0.666822 2.87467 0
M  V30 966 H 95.6272 1.0198 2.34593 0
M  V30 967 H 95.2712 1.77049 4.76042 0
M  V30 968 H 95.2012 0.0635409 5.26562 0
M  V30 969 H 97.6922 0.44889 3.75224 0
M  V30 970 H 98.0052 1.53582 7.57385 0
M  V30 971 H 96.3502 1.37439 6.81275 0
M  V30 972 H 99.5412 0.639601 4.6371 0
M  V30 973 H 99.7142 1.13503 6.37982 0
M  V30 974 N 93.1203 -1.57491 0.0584922 0
M  V30 975 C 94.0703 -2.08474 -0.923188 0
M  V30 976 C 95.0543 -0.991479 -1.26722 0
M  V30 977 O 96.2463 -1.25473 -1.24842 0
M  V30 978 C 93.3753 -2.6392 -2.19548 0
M  V30 979 C 92.4613 -3.80227 -1.87852 0
M  V30 980 N 92.8523 -4.89714 -1.26546 0
M  V30 981 C 91.1503 -3.89271 -2.17679 0
M  V30 982 C 91.8513 -5.70689 -1.12644 0
M  V30 983 N 90.8273 -5.18531 -1.63176 0
M  V30 984 H 94.6293 -2.90517 -0.444653 0
M  V30 985 H 92.1433 -1.61745 -0.145764 0
M  V30 986 H 94.1403 -2.98752 -2.9078 0
M  V30 987 H 92.8003 -1.83318 -2.68001 0
M  V30 988 H 93.8113 -5.09358 -0.936757 0
M  V30 989 H 90.4883 -3.19623 -2.68602 0
M  V30 990 H 91.8783 -6.6875 -0.6499 0
M  V30 991 N 94.5984 0.214957 -1.56127 0
M  V30 992 C 95.8754 0.963093 -1.70247 0
M  V30 993 C 96.2554 2.02166 -0.60764 0
M  V30 994 O 95.6034 2.25244 0.384385 0
M  V30 995 C 95.8134 1.56756 -3.11815 0
M  V30 996 C 97.1614 2.0573 -3.7143 0
M  V30 997 O 98.1854 1.66637 -3.14818 0
M  V30 998 O 97.0444 2.77603 -4.70743 0
M  V30 999 H 94.1384 0.450321 -0.693643 0
M  V30 1000 H 96.6844 0.206219 -1.68442 0
M  V30 1001 H 95.4564 0.803533 -3.82961 0
M  V30 1002 H 95.0794 2.3898 -3.17765 0
M  V30 1003 N 96.0765 1.50051 0.48192 0
M  V30 1004 C 97.3065 1.63999 1.2565 0
M  V30 1005 C 97.7145 0.318288 1.86504 0
M  V30 1006 O 97.0575 -0.708534 1.69486 0
M  V30 1007 C 97.1195 2.66504 2.4128 0
M  V30 1008 C 96.7835 4.10352 2.01148 0
M  V30 1009 C 97.7805 4.96562 1.54021 0
M  V30 1010 C 95.4655 4.56203 2.10199 0
M  V30 1011 C 97.4595 6.26668 1.16473 0
M  V30 1012 C 95.1465 5.86318 1.72264 0
M  V30 1013 C 96.1445 6.71375 1.25477 0
M  V30 1014 O 95.8325 7.99062 0.880626 0
M  V30 1015 H 95.5645 0.55456 0.386574 0
M  V30 1016 H 98.1185 1.96954 0.582944 0
M  V30 1017 H 96.3485 2.28769 3.11772 0
M  V30 1018 H 98.0375 2.69783 3.03268 0
M  V30 1019 H 98.8035 4.62358 1.46458 0
M  V30 1020 H 94.6825 3.90152 2.45566 0
M  V30 1021 H 98.2265 6.93011 0.798841 0
M  V30 1022 H 94.1235 6.20046 1.79482 0
M  V30 1023 H 94.8915 8.12239 1.01043 0
M  V30 1024 N 97.5546 -0.734337 1.39446 0
M  V30 1025 C 98.8006 -1.49613 1.36908 0
M  V30 1026 C 99.1336 -1.94169 -0.0347829 0
M  V30 1027 O 98.4086 -1.66833 -0.999847 0
M  V30 1028 C 98.6916 -2.73534 2.34203 0
M  V30 1029 C 98.5446 -2.34993 3.83534 0
M  V30 1030 C 99.8636 -3.75635 2.29317 0
M  V30 1031 H 96.9826 -0.542714 0.498629 0
M  V30 1032 H 99.6246 -0.839597 1.70443 0
M  V30 1033 H 97.7746 -3.29553 2.05736 0
M  V30 1034 H 99.4466 -1.84601 4.22753 0
M  V30 1035 H 97.6896 -1.67213 4.00278 0
M  V30 1036 H 98.3606 -3.23738 4.47099 0
M  V30 1037 H 100.837 -3.29203 2.54489 0
M  V30 1038 H 99.7126 -4.60008 2.99472 0
M  V30 1039 H 99.9736 -4.22603 1.29842 0
M  V30 1040 N 99.0327 -1.24633 -0.964593 0
M  V30 1041 C 99.9807 -1.03917 -2.08096 0
M  V30 1042 C 100.975 0.0268581 -1.69379 0
M  V30 1043 O 102.181 -0.127952 -1.79545 0
M  V30 1044 H 98.5557 -0.319044 -0.680966 0
M  V30 1045 H 100.527 -1.98581 -2.22729 0
M  V30 1046 C 99.2757 -0.663983 -3.41301 0
M  V30 1047 H 98.5987 -1.47605 -3.71555 0
M  V30 1048 H 100.039 -0.558663 -4.20303 0
M  V30 1049 C 98.4977 0.629169 -3.30973 0
M  V30 1050 O 99.0277 1.67404 -3.65156 0
M  V30 1051 N 97.2337 0.611057 -2.84103 0
M  V30 1052 H 96.7807 -0.239593 -2.56483 0
M  V30 1053 H 96.7387 1.47647 -2.77575 0
M  V30 1054 N 100.511 1.16574 -1.06058 0
M  V30 1055 C 101.759 1.86677 -0.77434 0
M  V30 1056 C 102.08 1.81959 0.701147 0
M  V30 1057 O 101.35 1.2515 1.50713 0
M  V30 1058 H 99.9298 0.691134 -0.283449 0
M  V30 1059 H 102.592 1.41378 -1.34158 0
M  V30 1060 H 101.688 2.92181 -1.09711 0
M  V30 1061 N 101.989 0.842826 1.3317 0
M  V30 1062 C 103.229 0.446574 1.99462 0
M  V30 1063 C 103.593 -0.976818 1.65295 0
M  V30 1064 O 104.794 -1.477 2.24584 0
M  V30 1065 C 103.065 0.665353 3.51152 0
M  V30 1066 S 104.624 0.364911 4.3728 0
M  V30 1067 H 101.442 0.167803 0.690915 0
M  V30 1068 H 104.044 1.09297 1.62094 0
M  V30 1069 H 102.748 1.7006 3.73507 0
M  V30 1070 H 102.279 0.00494568 3.934 0
M  V30 1071 H 104.294 -0.813761 4.89482 0
M  V30 1072 N 103.467 -1.45747 0.599634 0
M  V30 1073 C 104.744 -1.95585 0.0240846 0
M  V30 1074 C 105.124 -1.54217 -1.44154 0
M  V30 1075 O 104.472 -0.800903 -2.14004 0
M  V30 1076 C 104.682 -3.48344 0.21385 0
M  V30 1077 C 106.03 -4.24504 0.0904902 0
M  V30 1078 O 107.054 -3.55911 0.143558 0
M  V30 1079 O 105.913 -5.46491 -0.0310766 0
M  V30 1080 H 103.007 -0.82602 -0.0402478 0
M  V30 1081 H 105.553 -1.55951 0.669139 0
M  V30 1082 H 104.325 -3.71397 1.23206 0
M  V30 1083 H 103.948 -3.9485 -0.466842 0
M  V30 1084 N 104.945 -0.338344 -1.53925 0
M  V30 1085 C 106.17 0.263987 -2.05713 0
M  V30 1086 C 106.595 1.43847 -1.21201 0
M  V30 1087 O 105.953 1.79904 -0.224535 0
M  V30 1088 C 106.001 0.662 -3.54471 0
M  V30 1089 O 105.105 1.76265 -3.72833 0
M  V30 1090 H 104.446 0.0448722 -0.662482 0
M  V30 1091 H 106.976 -0.491048 -1.9862 0
M  V30 1092 H 106.986 0.940594 -3.9701 0
M  V30 1093 H 105.661 -0.196937 -4.15433 0
M  V30 1094 H 104.238 1.48173 -3.42198 0
M  V30 1095 N 106.423 1.57458 -0.0668435 0
M  V30 1096 C 107.648 1.9804 0.616027 0
M  V30 1097 C 108.073 0.944771 1.62652 0
M  V30 1098 O 107.431 -0.0902094 1.81075 0
M  V30 1099 C 107.479 3.37665 1.26549 0
M  V30 1100 O 106.583 3.36701 2.38131 0
M  V30 1101 H 105.924 0.644719 0.158849 0
M  V30 1102 H 108.454 2.04121 -0.139891 0
M  V30 1103 H 108.464 3.7474 1.6135 0
M  V30 1104 H 107.139 4.12573 0.525016 0
M  V30 1105 H 105.716 3.1139 2.0516 0
M  V30 1106 N 107.901 -0.206675 1.56239 0
M  V30 1107 C 109.312 -0.772383 1.69974 0
M  V30 1108 C 109.663 -1.84353 0.671436 0
M  V30 1109 O 108.788 -2.15695 -0.174491 0
M  V30 1110 C 109.383 -1.40779 3.08167 0
M  V30 1111 C 107.942 -1.92072 3.23706 0
M  V30 1112 C 107.089 -0.786347 2.65917 0
M  V30 1113 H 110.04 0.0182223 1.5869 0
M  V30 1114 H 110.061 -2.27696 3.04852 0
M  V30 1115 H 109.573 -0.627958 3.82986 0
M  V30 1116 H 107.674 -2.7281 2.53782 0
M  V30 1117 H 107.787 -2.09046 4.31087 0
M  V30 1118 H 106.151 -1.1976 2.24788 0
M  V30 1119 H 106.934 -0.0189416 3.43295 0
M  V30 1120 N 109.379 -1.50304 -0.473955 0
M  V30 1121 C 110.625 -1.61389 -1.22806 0
M  V30 1122 C 110.958 -0.311955 -1.91678 0
M  V30 1123 O 110.233 0.686384 -1.81986 0
M  V30 1124 C 110.516 -2.79219 -2.27396 0
M  V30 1125 C 110.369 -4.19286 -1.62848 0
M  V30 1126 C 111.688 -2.92614 -3.28732 0
M  V30 1127 H 108.807 -0.587399 -0.445119 0
M  V30 1128 H 111.449 -1.82681 -0.522265 0
M  V30 1129 H 109.599 -2.61195 -2.87592 0
M  V30 1130 H 111.271 -4.48892 -1.06271 0
M  V30 1131 H 109.514 -4.23677 -0.931693 0
M  V30 1132 H 110.185 -4.97655 -2.38838 0
M  V30 1133 H 112.661 -3.09105 -2.78556 0
M  V30 1134 H 111.537 -3.76688 -3.99246 0
M  V30 1135 H 111.798 -2.03107 -3.92683 0
M  V30 1136 N 110.857 0.726932 -1.39834 0
M  V30 1137 C 112.103 1.48884 -1.377 0
M  V30 1138 C 112.436 1.94185 0.0244852 0
M  V30 1139 O 111.711 1.67361 0.990986 0
M  V30 1140 C 111.994 2.72288 -2.3565 0
M  V30 1141 C 111.847 2.32956 -3.84775 0
M  V30 1142 C 113.166 3.74414 -2.31306 0
M  V30 1143 H 110.285 0.540062 -0.5015 0
M  V30 1144 H 112.927 0.830547 -1.70886 0
M  V30 1145 H 111.077 3.28457 -2.07481 0
M  V30 1146 H 112.749 1.82356 -4.23726 0
M  V30 1147 H 110.992 1.65088 -4.01159 0
M  V30 1148 H 111.663 3.21362 -4.4881 0
M  V30 1149 H 114.139 3.27849 -2.56231 0
M  V30 1150 H 113.015 4.58414 -3.01907 0
M  V30 1151 H 113.276 4.21909 -1.32081 0
M  V30 1152 N 112.336 1.25143 0.95797 0
M  V30 1153 C 113.583 1.09692 1.70217 0
M  V30 1154 C 113.911 -0.362654 1.91089 0
M  V30 1155 O 113.166 -1.28386 1.47701 0
M  V30 1156 C 113.465 1.79272 3.09187 0
M  V30 1157 C 113.131 3.29196 3.08125 0
M  V30 1158 C 111.793 3.70096 3.07543 0
M  V30 1159 C 114.145 4.24995 3.0171 0
M  V30 1160 C 111.473 5.05213 2.9829 0
M  V30 1161 C 113.825 5.60132 2.93999 0
M  V30 1162 C 112.489 6.00365 2.9175 0
M  V30 1163 H 111.759 0.401393 0.622868 0
M  V30 1164 H 114.406 1.55372 1.11945 0
M  V30 1165 H 112.711 1.26014 3.70982 0
M  V30 1166 H 114.408 1.64773 3.65583 0
M  V30 1167 H 110.998 2.96651 3.09348 0
M  V30 1168 H 115.182 3.9439 3.01281 0
M  V30 1169 H 110.438 5.35569 2.94916 0
M  V30 1170 H 114.612 6.3406 2.87996 0
M  V30 1171 H 112.239 7.05023 2.84336 0
M  V30 1172 N 113.814 -1.1601 1.06675 0
M  V30 1173 C 114.744 -2.22688 0.702307 0
M  V30 1174 C 115.725 -1.67306 -0.307032 0
M  V30 1175 O 116.91 -1.93352 -0.181305 0
M  V30 1176 C 114.04 -3.47178 0.092038 0
M  V30 1177 C 112.994 -4.15477 1.02777 0
M  V30 1178 C 112.32 -5.33963 0.28061 0
M  V30 1179 C 113.62 -4.66019 2.35846 0
M  V30 1180 H 115.314 -2.53429 1.59419 0
M  V30 1181 H 112.86 -1.21813 0.767961 0
M  V30 1182 H 114.813 -4.21037 -0.174814 0
M  V30 1183 H 113.537 -3.15749 -0.834877 0
M  V30 1184 H 112.196 -3.43549 1.27944 0
M  V30 1185 H 111.844 -4.98788 -0.649545 0
M  V30 1186 H 111.544 -5.806 0.904258 0
M  V30 1187 H 113.068 -6.10596 0.021396 0
M  V30 1188 H 114.482 -5.3144 2.15045 0
M  V30 1189 H 112.879 -5.23293 2.93743 0
M  V30 1190 H 113.949 -3.82023 2.98641 0
M  V30 1191 N 115.292 -0.849877 -1.32721 0
M  V30 1192 C 116.202 -0.293791 -2.32753 0
M  V30 1193 C 117.218 0.585906 -1.63839 0
M  V30 1194 O 118.394 0.487413 -1.95413 0
M  V30 1195 C 115.459 0.512752 -3.42887 0
M  V30 1196 C 114.52 -0.39252 -4.27502 0
M  V30 1197 C 113.753 0.375625 -5.32377 0
M  V30 1198 O 113.976 1.60613 -5.4732 0
M  V30 1199 O 112.91 -0.256094 -6.01355 0
M  V30 1200 H 116.736 -1.12242 -2.82197 0
M  V30 1201 H 114.321 -0.612685 -1.36259 0
M  V30 1202 H 116.203 0.970704 -4.10067 0
M  V30 1203 H 114.878 1.31826 -2.95641 0
M  V30 1204 H 113.785 -0.898547 -3.63149 0
M  V30 1205 H 115.118 -1.16309 -4.7826 0
M  V30 1206 N 116.77 1.45427 -0.607355 0
M  V30 1207 C 118.018 2.01841 -0.102253 0
M  V30 1208 C 118.339 1.47832 1.27164 0
M  V30 1209 O 117.609 0.672497 1.83995 0
M  V30 1210 H 116.189 0.746188 -0.0348101 0
M  V30 1211 H 118.851 1.78229 -0.7887 0
M  V30 1212 H 117.947 3.12057 -0.0518585 0
M  V30 1213 N 118.248 0.346503 1.53744 0
M  V30 1214 C 119.497 -0.250122 2.00143 0
M  V30 1215 C 119.81 -1.51418 1.23822 0
M  V30 1216 O 121.016 -2.18823 1.60713 0
M  V30 1217 C 119.472 -0.496252 3.56462 0
M  V30 1218 C 119.08 0.752077 4.41642 0
M  V30 1219 C 120.824 -1.05157 4.11269 0
M  V30 1220 C 118.731 0.476583 5.89477 0
M  V30 1221 H 117.661 -0.0972409 0.747703 0
M  V30 1222 H 120.312 0.46229 1.77581 0
M  V30 1223 H 118.694 -1.26944 3.75102 0
M  V30 1224 H 119.868 1.5266 4.34778 0
M  V30 1225 H 118.183 1.22925 3.97842 0
M  V30 1226 H 120.78 -1.27269 5.19333 0
M  V30 1227 H 121.123 -2.00799 3.64672 0
M  V30 1228 H 121.656 -0.339019 3.96353 0
M  V30 1229 H 118.395 1.4028 6.40314 0
M  V30 1230 H 117.915 -0.259794 5.99237 0
M  V30 1231 H 119.594 0.0949315 6.4693 0
M  V30 1232 N 119.726 -1.57421 0.075193 0
M  V30 1233 C 120.973 -1.93618 -0.593146 0
M  V30 1234 C 121.301 -0.955484 -1.69413 0
M  V30 1235 O 120.556 0.0283251 -1.9568 0
M  V30 1236 C 120.855 -3.36428 -1.20626 0
M  V30 1237 C 120.521 -4.50307 -0.231078 0
M  V30 1238 C 119.183 -4.81186 0.0371936 0
M  V30 1239 C 121.535 -5.19374 0.435888 0
M  V30 1240 C 118.863 -5.78466 0.979461 0
M  V30 1241 C 121.215 -6.17665 1.3665 0
M  V30 1242 C 119.879 -6.46958 1.6432 0
M  V30 1243 H 119.149 -0.708499 -0.217047 0
M  V30 1244 H 121.796 -1.90937 0.146793 0
M  V30 1245 H 120.101 -3.35592 -2.02201 0
M  V30 1246 H 121.798 -3.61727 -1.73073 0
M  V30 1247 H 118.388 -4.26227 -0.450357 0
M  V30 1248 H 122.572 -4.95711 0.241748 0
M  V30 1249 H 117.828 -5.99487 1.20106 0
M  V30 1250 H 122.002 -6.70284 1.88924 0
M  V30 1251 H 119.629 -7.2215 2.37494 0
M  V30 1252 N 121.204 0.198386 -1.56346 0
M  V30 1253 C 122.45 0.920648 -1.80698 0
M  V30 1254 C 122.783 1.83045 -0.648697 0
M  V30 1255 O 122.058 1.91308 0.350925 0
M  V30 1256 C 122.341 1.73971 -3.15287 0
M  V30 1257 C 122.194 0.85485 -4.41602 0
M  V30 1258 C 123.513 2.71296 -3.46535 0
M  V30 1259 H 120.632 0.333261 -0.657348 0
M  V30 1260 H 123.274 0.188198 -1.89066 0
M  V30 1261 H 121.424 2.36416 -3.08285 0
M  V30 1262 H 123.096 0.245362 -4.60647 0
M  V30 1263 H 121.339 0.161398 -4.335 0
M  V30 1264 H 122.01 1.46286 -5.32264 0
M  V30 1265 H 124.486 2.18983 -3.53816 0
M  V30 1266 H 123.362 3.2569 -4.41834 0
M  V30 1267 H 123.623 3.5018 -2.69864 0
M  V30 1268 N 122.682 1.50554 0.465978 0
M  V30 1269 C 123.612 1.72722 1.57128 0
M  V30 1270 C 124.593 0.576294 1.6004 0
M  V30 1271 O 125.778 0.81598 1.76225 0
M  V30 1272 C 122.908 1.82605 2.95419 0
M  V30 1273 C 121.862 2.97835 3.07373 0
M  V30 1274 C 121.188 2.92867 4.47363 0
M  V30 1275 C 122.488 4.38265 2.84114 0
M  V30 1276 H 124.182 2.65267 1.38829 0
M  V30 1277 H 121.728 1.2765 0.666441 0
M  V30 1278 H 123.681 1.96698 3.72677 0
M  V30 1279 H 122.405 0.866858 3.14886 0
M  V30 1280 H 121.064 2.83401 2.3255 0
M  V30 1281 H 120.712 1.94783 4.63755 0
M  V30 1282 H 120.412 3.70227 4.56296 0
M  V30 1283 H 121.936 3.09015 5.26633 0
M  V30 1284 H 123.35 4.53198 3.51118 0
M  V30 1285 H 121.747 5.17115 3.04487 0
M  V30 1286 H 122.817 4.50281 1.7993 0
M  V30 1287 N 124.16 -0.719506 1.40217 0
M  V30 1288 C 125.571 -1.29848 1.34151 0
M  V30 1289 C 125.922 -1.96196 0.0131349 0
M  V30 1290 O 125.047 -1.973 -0.88892 0
M  V30 1291 C 125.642 -2.36118 2.42968 0
M  V30 1292 C 124.201 -2.8965 2.40374 0
M  V30 1293 C 123.348 -1.63393 2.24049 0
M  V30 1294 H 126.299 -0.51591 1.5008 0
M  V30 1295 H 126.32 -3.16871 2.10649 0
M  V30 1296 H 125.832 -1.878 3.39636 0
M  V30 1297 H 123.933 -3.42208 1.47392 0
M  V30 1298 H 124.046 -3.4171 3.35814 0
M  V30 1299 H 122.41 -1.88312 1.71495 0
M  V30 1300 H 123.193 -1.17104 3.2271 0
M  V30 1301 N 125.638 -1.25649 -0.95132 0
M  V30 1302 C 126.863 -1.13443 -1.73624 0
M  V30 1303 C 127.288 0.307565 -1.85568 0
M  V30 1304 O 126.646 1.22282 -1.33854 0
M  V30 1305 C 126.694 -1.79723 -3.12621 0
M  V30 1306 O 125.798 -1.07912 -3.98031 0
M  V30 1307 H 125.139 -0.395872 -0.533086 0
M  V30 1308 H 127.669 -1.66276 -1.1922 0
M  V30 1309 H 127.679 -1.86141 -3.63064 0
M  V30 1310 H 126.354 -2.84633 -3.03244 0
M  V30 1311 H 124.931 -1.09398 -3.56492 0
M  V30 1312 N 127.117 1.15442 -1.07289 0
M  V30 1313 C 128.364 1.86213 -0.795668 0
M  V30 1314 C 128.692 1.82291 0.678238 0
M  V30 1315 O 127.947 1.24057 1.51355 0
M  V30 1316 C 128.246 3.3489 -1.24834 0
M  V30 1317 C 127.912 3.59007 -2.72809 0
M  V30 1318 C 126.574 3.65298 -3.13227 0
M  V30 1319 C 128.926 3.68762 -3.68326 0
M  V30 1320 C 126.254 3.78854 -4.4798 0
M  V30 1321 C 128.606 3.83842 -5.0284 0
M  V30 1322 C 127.27 3.88378 -5.4288 0
M  V30 1323 H 126.54 0.681403 -0.291155 0
M  V30 1324 H 129.187 1.36435 -1.34379 0
M  V30 1325 H 127.492 3.8687 -0.619595 0
M  V30 1326 H 129.189 3.88052 -1.01076 0
M  V30 1327 H 125.779 3.5475 -2.40521 0
M  V30 1328 H 129.963 3.63202 -3.38227 0
M  V30 1329 H 125.219 3.80623 -4.78472 0
M  V30 1330 H 129.393 3.90332 -5.76727 0
M  V30 1331 H 127.02 3.98635 -6.47298 0
M  V30 1332 N 128.595 0.856903 1.32268 0
M  V30 1333 C 130.011 0.547061 1.49931 0
M  V30 1334 C 130.211 -0.921781 1.7918 0
M  V30 1335 O 129.267 -1.70469 1.8627 0
M  V30 1336 C 130.58 1.43599 2.64196 0
M  V30 1337 C 132.128 1.43665 2.78081 0
M  V30 1338 C 132.603 2.31085 3.95428 0
M  V30 1339 N 134.094 2.28893 4.02694 0
M  V30 1340 C 134.829 2.93262 4.92732 0
M  V30 1341 N 134.325 3.66751 5.87763 0
M  V30 1342 N 136.118 2.82638 4.85873 0
M  V30 1343 H 128.269 1.8075 1.11549 0
M  V30 1344 H 130.532 0.772144 0.549997 0
M  V30 1345 H 130.238 2.48058 2.49319 0
M  V30 1346 H 130.112 1.12502 3.60032 0
M  V30 1347 H 132.499 0.399701 2.92381 0
M  V30 1348 H 132.58 1.7878 1.82952 0
M  V30 1349 H 132.224 3.34849 3.81888 0
M  V30 1350 H 132.154 1.93302 4.89839 0
M  V30 1351 H 134.645 1.75466 3.34694 0
M  V30 1352 H 134.958 4.13027 6.53168 0
M  V30 1353 H 133.303 3.70859 5.87783 0
M  V30 1354 H 136.494 2.24774 4.10602 0
M  V30 1355 H 136.667 3.33084 5.55841 0
M  V30 1356 N 130.073 -1.45103 0.615059 0
M  V30 1357 C 131.005 -2.28786 -0.13762 0
M  V30 1358 C 132.018 -1.40376 -0.824525 0
M  V30 1359 O 133.207 -1.64681 -0.688662 0
M  V30 1360 C 130.307 -3.16322 -1.21628 0
M  V30 1361 C 129.48 -4.33054 -0.615039 0
M  V30 1362 C 128.539 -5.01743 -1.58556 0
M  V30 1363 O 127.565 -5.58293 -1.10895 0
M  V30 1364 N 128.767 -5.01714 -2.91998 0
M  V30 1365 H 131.532 -2.94025 0.580483 0
M  V30 1366 H 129.093 -1.55373 0.45507 0
M  V30 1367 H 131.085 -3.59139 -1.86552 0
M  V30 1368 H 129.655 -2.52943 -1.83681 0
M  V30 1369 H 128.875 -3.93627 0.21245 0
M  V30 1370 H 130.163 -5.08431 -0.193704 0
M  V30 1371 H 129.561 -4.57075 -3.33316 0
M  V30 1372 H 128.118 -5.48371 -3.52325 0
M  V30 1373 N 131.551 -0.354651 -1.53558 0
M  V30 1374 C 132.967 -0.00315426 -1.596 0
M  V30 1375 C 133.167 1.47741 -1.37021 0
M  V30 1376 O 132.223 2.23759 -1.16996 0
M  V30 1377 C 133.536 -0.44929 -2.97325 0
M  V30 1378 C 135.084 -0.402578 -3.104 0
M  V30 1379 C 135.559 -0.824355 -4.5052 0
M  V30 1380 N 137.05 -0.778979 -4.56603 0
M  V30 1381 C 137.785 -1.07715 -5.63192 0
M  V30 1382 N 137.281 -1.44405 -6.77583 0
M  V30 1383 N 139.074 -1.00066 -5.53121 0
M  V30 1384 H 131.225 -1.31893 -1.66487 0
M  V30 1385 H 133.488 -0.538388 -0.780284 0
M  V30 1386 H 133.194 -1.48202 -3.1895 0
M  V30 1387 H 133.068 0.169772 -3.76818 0
M  V30 1388 H 135.455 0.621004 -2.88492 0
M  V30 1389 H 135.536 -1.05699 -2.32941 0
M  V30 1390 H 135.18 -1.846 -4.73165 0
M  V30 1391 H 135.11 -0.147304 -5.26394 0
M  V30 1392 H 137.601 -0.508528 -3.74463 0
M  V30 1393 H 137.914 -1.65612 -7.54846 0
M  V30 1394 H 136.259 -1.4826 -6.79002 0
M  V30 1395 H 139.45 -0.713293 -4.62633 0
M  V30 1396 H 139.623 -1.23638 -6.36096 0
M  V30 1397 N 133.029 1.57378 -0.0835403 0
M  V30 1398 C 134.277 1.93547 0.581718 0
M  V30 1399 C 134.598 0.96524 1.69435 0
M  V30 1400 O 133.868 0.0153369 1.95894 0
M  V30 1401 H 132.448 0.714521 0.217874 0
M  V30 1402 H 135.11 1.94366 -0.144158 0
M  V30 1403 H 134.206 2.95665 0.999423 0
M  V30 1404 N 134.507 -0.190092 1.56449 0
M  V30 1405 C 135.753 -0.911052 1.81184 0
M  V30 1406 C 136.086 -1.82699 0.658396 0
M  V30 1407 O 135.361 -1.91491 -0.340775 0
M  V30 1408 C 135.644 -1.72297 3.16205 0
M  V30 1409 C 135.497 -0.831419 4.42049 0
M  V30 1410 C 136.816 -2.69454 3.47969 0
M  V30 1411 H 133.935 -0.32977 0.659106 0
M  V30 1412 H 136.577 -0.178169 1.89163 0
M  V30 1413 H 134.727 -2.34778 3.09534 0
M  V30 1414 H 136.399 -0.220929 4.60771 0
M  V30 1415 H 134.642 -0.138406 4.33579 0
M  V30 1416 H 135.313 -1.43461 5.33032 0
M  V30 1417 H 137.789 -2.17104 3.54972 0
M  V30 1418 H 136.665 -3.23342 4.43555 0
M  V30 1419 H 136.926 -3.48744 2.71717 0
M  V30 1420 N 135.985 -1.50799 -0.457987 0
M  V30 1421 C 136.948 -1.7005 -1.53674 0
M  V30 1422 C 137.948 -0.570881 -1.50325 0
M  V30 1423 O 139.138 -0.838126 -1.52712 0
M  V30 1424 C 136.27 -1.73788 -2.93276 0
M  V30 1425 H 137.463 -2.66306 -1.37917 0
M  V30 1426 H 135.016 -1.40477 -0.685271 0
M  V30 1427 H 135.751 -0.792717 -3.14462 0
M  V30 1428 H 135.536 -2.55864 -2.97113 0
M  V30 1429 H 137.026 -1.90591 -3.71571 0
M  V30 1430 N 137.463 0.71206 -1.40597 0
M  V30 1431 C 138.41 1.82613 -1.41142 0
M  V30 1432 C 139.38 1.63925 -0.267903 0
M  V30 1433 O 140.565 1.85009 -0.466495 0
M  V30 1434 C 137.705 3.20354 -1.28324 0
M  V30 1435 C 136.818 3.50589 -2.52411 0
M  V30 1436 C 135.953 4.77855 -2.32009 0
M  V30 1437 C 134.992 5.01005 -3.51654 0
M  V30 1438 N 134.129 6.19487 -3.30425 0
M  V30 1439 H 138.969 1.81482 -2.36365 0
M  V30 1440 H 136.506 0.886475 -1.17388 0
M  V30 1441 H 138.464 3.99899 -1.18899 0
M  V30 1442 H 137.094 3.20705 -0.367189 0
M  V30 1443 H 136.146 2.65573 -2.72351 0
M  V30 1444 H 137.458 3.63604 -3.41458 0
M  V30 1445 H 136.612 5.65424 -2.19956 0
M  V30 1446 H 135.351 4.67056 -1.40392 0
M  V30 1447 H 134.356 4.1189 -3.64179 0
M  V30 1448 H 135.581 5.13674 -4.44202 0
M  V30 1449 H 133.527 6.09932 -2.41494 0
M  V30 1450 H 133.444 6.33194 -4.13039 0
M  V30 1451 H 134.712 7.09834 -3.22113 0
M  V30 1452 N 138.941 1.26152 0.944643 0
M  V30 1453 C 139.873 1.03199 2.04652 0
M  V30 1454 C 140.886 -0.00642356 1.62799 0
M  V30 1455 O 142.075 0.233263 1.76969 0
M  V30 1456 C 139.175 0.540111 3.34568 0
M  V30 1457 C 138.348 1.64697 4.05208 0
M  V30 1458 C 137.407 1.15374 5.13396 0
M  V30 1459 O 136.433 1.85013 5.38293 0
M  V30 1460 N 137.635 0.00031529 5.805 0
M  V30 1461 H 140.4 1.9808 2.2491 0
M  V30 1462 H 137.961 1.17491 1.11389 0
M  V30 1463 H 139.953 0.194401 4.04233 0
M  V30 1464 H 138.523 -0.315021 3.11009 0
M  V30 1465 H 137.743 2.16379 3.29506 0
M  V30 1466 H 139.031 2.3903 4.49157 0
M  V30 1467 H 138.429 -0.581336 5.62705 0
M  V30 1468 H 136.986 -0.286346 6.51171 0
M  V30 1469 N 140.419 -1.14872 1.07899 0
M  V30 1470 C 141.349 -2.2193 0.725887 0
M  V30 1471 C 142.33 -1.67622 -0.28927 0
M  V30 1472 O 143.515 -1.93533 -0.160787 0
M  V30 1473 C 140.645 -3.47061 0.128856 0
M  V30 1474 C 139.599 -4.14363 1.07178 0
M  V30 1475 C 138.925 -5.33636 0.337229 0
M  V30 1476 C 140.225 -4.63492 2.40775 0
M  V30 1477 H 141.919 -2.51724 1.62097 0
M  V30 1478 H 139.465 -1.20991 0.780838 0
M  V30 1479 H 141.418 -4.21199 -0.130147 0
M  V30 1480 H 140.142 -3.16617 -0.80134 0
M  V30 1481 H 138.801 -3.42173 1.3158 0
M  V30 1482 H 138.449 -4.99449 -0.596606 0
M  V30 1483 H 138.149 -5.79609 0.965788 0
M  V30 1484 H 139.673 -6.10539 0.0861567 0
M  V30 1485 H 141.087 -5.2913 2.20669 0
M  V30 1486 H 139.484 -5.20148 2.99276 0
M  V30 1487 H 140.554 -3.78834 3.02676 0
M  V30 1488 N 141.898 -0.863906 -1.31812 0
M  V30 1489 C 143.147 -0.46801 -1.96195 0
M  V30 1490 C 143.46 0.983474 -1.69077 0
M  V30 1491 O 144.666 1.48523 -2.27273 0
M  V30 1492 C 143.122 -0.785995 -3.51212 0
M  V30 1493 C 142.73 -2.25383 -3.87178 0
M  V30 1494 C 144.474 -0.458274 -4.22019 0
M  V30 1495 C 142.381 -2.51455 -5.3528 0
M  V30 1496 H 141.311 -0.171283 -0.734287 0
M  V30 1497 H 143.962 -1.05597 -1.50072 0
M  V30 1498 H 142.344 -0.127359 -3.95795 0
M  V30 1499 H 143.518 -2.95502 -3.53575 0
M  V30 1500 H 141.833 -2.54698 -3.2942 0
M  V30 1501 H 144.43 -0.630369 -5.30971 0
M  V30 1502 H 144.773 0.600834 -4.11941 0
M  V30 1503 H 145.306 -1.07319 -3.8305 0
M  V30 1504 H 142.045 -3.56025 -5.50387 0
M  V30 1505 H 141.565 -1.85923 -5.70257 0
M  V30 1506 H 143.244 -2.35874 -6.02472 0
M  V30 1507 N 143.376 1.44774 -0.622745 0
M  V30 1508 C 144.339 2.29069 0.0774015 0
M  V30 1509 C 145.339 1.4059 0.780461 0
M  V30 1510 O 146.529 1.62551 0.626322 0
M  V30 1511 C 143.661 3.21974 1.12006 0
M  V30 1512 H 144.854 2.92459 -0.663901 0
M  V30 1513 H 142.407 1.51548 -0.382486 0
M  V30 1514 H 143.142 2.63417 1.89162 0
M  V30 1515 H 142.927 3.87168 0.619951 0
M  V30 1516 H 144.417 3.85318 1.60995 0
M  V30 1517 N 144.854 0.36279 1.53368 0
M  V30 1518 C 145.817 -0.472679 2.24273 0
M  V30 1519 C 146.817 -1.012 1.24961 0
M  V30 1520 O 148.007 -0.898194 1.49259 0
M  V30 1521 C 145.139 -1.66039 2.97731 0
M  V30 1522 H 146.332 0.14773 2.99536 0
M  V30 1523 H 143.885 0.114434 1.55881 0
M  V30 1524 H 144.62 -2.31896 2.26704 0
M  V30 1525 H 144.405 -1.28066 3.70596 0
M  V30 1526 H 145.895 -2.25252 3.51641 0
M  V30 1527 N 146.332 -1.57332 0.0918853 0
M  V30 1528 C 147.578 -1.94524 -0.573425 0
M  V30 1529 C 147.911 -0.973578 -1.68033 0
M  V30 1530 O 147.186 -0.00609226 -1.94499 0
M  V30 1531 C 147.469 -3.41858 -1.13161 0
M  V30 1532 C 147.322 -4.4979 -0.0299747 0
M  V30 1533 C 148.641 -3.90435 -2.03098 0
M  V30 1534 H 145.76 -0.70734 -0.206975 0
M  V30 1535 H 148.402 -1.89309 0.161942 0
M  V30 1536 H 146.552 -3.46433 -1.7583 0
M  V30 1537 H 148.224 -4.57327 0.604112 0
M  V30 1538 H 146.467 -4.291 0.636833 0
M  V30 1539 H 147.138 -5.50069 -0.461287 0
M  V30 1540 H 149.614 -3.87992 -1.50338 0
M  V30 1541 H 148.49 -4.94097 -2.39081 0
M  V30 1542 H 148.751 -3.29541 -2.94712 0
M  V30 1543 N 147.81 0.181792 -1.56548 0
M  V30 1544 C 148.742 1.24956 -1.92142 0
M  V30 1545 C 149.755 1.41022 -0.813422 0
M  V30 1546 O 150.944 1.41212 -1.09186 0
M  V30 1547 C 148.044 2.61981 -2.14987 0
M  V30 1548 C 147.217 2.6735 -3.46183 0
M  V30 1549 C 146.276 3.85664 -3.5798 0
M  V30 1550 O 145.302 3.72148 -4.30691 0
M  V30 1551 N 146.504 5.01683 -2.92053 0
M  V30 1552 H 149.269 0.947329 -2.84334 0
M  V30 1553 H 146.83 0.371629 -1.57577 0
M  V30 1554 H 148.822 3.3958 -2.20154 0
M  V30 1555 H 147.392 2.84637 -1.2923 0
M  V30 1556 H 146.612 1.75925 -3.52766 0
M  V30 1557 H 147.9 2.67939 -4.32534 0
M  V30 1558 H 147.298 5.15564 -2.32832 0
M  V30 1559 H 145.855 5.77181 -3.0283 0
M  V30 1560 N 149.288 1.51039 0.449983 0
M  V30 1561 C 150.704 1.38934 0.785462 0
M  V30 1562 C 150.904 0.461817 1.96136 0
M  V30 1563 O 149.96 -0.0877389 2.52348 0
M  V30 1564 C 151.273 2.80724 1.0777 0
M  V30 1565 C 152.821 2.89787 1.1829 0
M  V30 1566 C 153.296 4.32457 1.50815 0
M  V30 1567 N 154.787 4.35505 1.57764 0
M  V30 1568 C 155.522 5.42914 1.84477 0
M  V30 1569 N 155.018 6.60502 2.09068 0
M  V30 1570 N 156.811 5.3038 1.86155 0
M  V30 1571 H 148.962 2.09904 -0.324647 0
M  V30 1572 H 151.225 0.944378 -0.0827957 0
M  V30 1573 H 150.931 3.50531 0.286498 0
M  V30 1574 H 150.805 3.19273 2.00859 0
M  V30 1575 H 153.192 2.20186 1.96474 0
M  V30 1576 H 153.273 2.54752 0.231314 0
M  V30 1577 H 152.917 5.02603 0.731622 0
M  V30 1578 H 152.847 4.64995 2.47158 0
M  V30 1579 H 155.338 3.50724 1.40715 0
M  V30 1580 H 155.651 7.38158 2.28785 0
M  V30 1581 H 153.996 6.63639 2.06416 0
M  V30 1582 H 157.187 4.37505 1.66454 0
M  V30 1583 H 157.36 6.1417 2.06637 0
M  V30 1584 N 150.766 -0.704594 1.40972 0
M  V30 1585 C 152.012 -1.46546 1.41053 0
M  V30 1586 C 152.367 -1.92393 0.0159714 0
M  V30 1587 O 151.66 -1.66017 -0.956506 0
M  V30 1588 C 151.854 -2.698 2.34399 0
M  V30 1589 C 151.683 -2.36008 3.82793 0
M  V30 1590 C 150.453 -2.26812 4.51536 0
M  V30 1591 C 152.651 -1.99565 4.74003 0
M  V30 1592 N 150.633 -1.8581 5.85105 0
M  V30 1593 C 152.004 -1.69251 5.96451 0
M  V30 1594 C 154.059 -1.86296 4.61734 0
M  V30 1595 C 152.762 -1.27003 7.07999 0
M  V30 1596 C 154.788 -1.45452 5.73234 0
M  V30 1597 C 154.15 -1.16043 6.94776 0
M  V30 1598 H 150.249 -0.533896 0.571383 0
M  V30 1599 H 152.833 -0.816061 1.76773 0
M  V30 1600 H 151.004 -3.32473 2.00789 0
M  V30 1601 H 152.736 -3.36214 2.25261 0
M  V30 1602 H 149.491 -2.44913 4.05357 0
M  V30 1603 H 149.915 -1.67817 6.55871 0
M  V30 1604 H 154.557 -2.0769 3.68273 0
M  V30 1605 H 152.275 -1.04353 8.01334 0
M  V30 1606 H 155.861 -1.35748 5.65742 0
M  V30 1607 H 154.741 -0.84915 7.79589 0
M  V30 1608 N 152.244 -1.26651 -0.937939 0
M  V30 1609 C 153.492 -1.12165 -1.68118 0
M  V30 1610 C 153.813 0.334983 -1.92101 0
M  V30 1611 O 153.083 1.23583 -1.52 0
M  V30 1612 H 151.663 -0.412093 -0.623048 0
M  V30 1613 H 154.325 -1.59027 -1.12678 0
M  V30 1614 H 153.421 -1.64289 -2.6536 0
M  V30 1615 N 153.722 1.14298 -1.08507 0
M  V30 1616 C 154.95 1.89219 -0.836876 0
M  V30 1617 C 155.365 1.78638 0.611054 0
M  V30 1618 O 154.722 1.14643 1.41998 0
M  V30 1619 C 154.773 3.39158 -1.25116 0
M  V30 1620 O 154.494 3.49449 -2.64229 0
M  V30 1621 C 155.995 4.31073 -1.03398 0
M  V30 1622 H 153.215 0.599328 -0.301739 0
M  V30 1623 H 155.759 1.44746 -1.44461 0
M  V30 1624 H 153.914 3.81251 -0.687514 0
M  V30 1625 H 154.328 4.42589 -2.81452 0
M  V30 1626 H 155.802 5.34646 -1.37323 0
M  V30 1627 H 156.279 4.3919 0.0289259 0
M  V30 1628 H 156.885 3.94738 -1.58311 0
M  V30 1629 N 155.201 0.870884 1.31352 0
M  V30 1630 C 156.149 0.316445 2.30437 0
M  V30 1631 C 157.143 -0.568965 1.59559 0
M  V30 1632 O 158.349 -0.454964 1.74155 0
M  V30 1633 H 154.724 0.0836521 0.747333 0
M  V30 1634 H 156.695 1.16606 2.74673 0
M  V30 1635 C 155.444 -0.46635 3.44558 0
M  V30 1636 H 154.767 0.205687 3.99271 0
M  V30 1637 H 156.207 -0.819614 4.16003 0
M  V30 1638 C 154.666 -1.65797 2.9328 0
M  V30 1639 O 155.196 -2.75728 2.92125 0
M  V30 1640 N 153.402 -1.49041 2.4947 0
M  V30 1641 H 152.949 -0.59612 2.50608 0
M  V30 1642 H 152.907 -2.28911 2.15516 0
M  V30 1643 N 156.679 -1.44442 0.630414 0
M  V30 1644 C 157.626 -2.30678 -0.0749355 0
M  V30 1645 C 158.596 -1.4344 -0.837502 0
M  V30 1646 O 159.781 -1.72343 -0.818684 0
M  V30 1647 C 156.921 -3.28706 -1.05103 0
M  V30 1648 C 156.034 -4.31046 -0.286954 0
M  V30 1649 C 155.169 -5.16167 -1.2548 0
M  V30 1650 C 154.208 -6.10216 -0.479843 0
M  V30 1651 N 153.345 -6.88039 -1.39811 0
M  V30 1652 H 158.185 -2.90454 0.666386 0
M  V30 1653 H 155.722 -1.43107 0.340404 0
M  V30 1654 H 157.68 -3.84027 -1.63031 0
M  V30 1655 H 156.31 -2.70632 -1.75949 0
M  V30 1656 H 155.362 -3.78203 0.408243 0
M  V30 1657 H 156.674 -4.97794 0.316657 0
M  V30 1658 H 155.828 -5.76002 -1.90544 0
M  V30 1659 H 154.567 -4.49491 -1.89233 0
M  V30 1660 H 153.572 -5.49491 0.184295 0
M  V30 1661 H 154.797 -6.78928 0.152965 0
M  V30 1662 H 152.743 -6.24032 -2.02287 0
M  V30 1663 H 152.66 -7.51223 -0.848508 0
M  V30 1664 H 153.928 -7.52397 -2.03762 0
M  V30 1665 N 158.157 -0.370918 -1.53173 0
M  V30 1666 C 159.405 0.216673 -2.00935 0
M  V30 1667 C 159.726 1.48845 -1.25977 0
M  V30 1668 O 158.996 1.92286 -0.374551 0
M  V30 1669 H 157.576 0.0830565 -0.742368 0
M  V30 1670 H 160.238 -0.49838 -1.8842 0
M  V30 1671 H 159.334 0.439893 -3.08984 0
M  V30 1672 N 159.635 1.57281 -0.100228 0
M  V30 1673 C 160.875 1.96419 0.56558 0
M  V30 1674 C 161.239 0.981265 1.65031 0
M  V30 1675 O 162.44 1.26133 2.37369 0
M  V30 1676 C 160.711 3.39996 1.10171 0
M  V30 1677 S 162.27 4.01134 1.77867 0
M  V30 1678 H 159.088 0.68667 0.184406 0
M  V30 1679 H 161.69 1.94662 -0.180851 0
M  V30 1680 H 160.394 4.09296 0.300803 0
M  V30 1681 H 159.925 3.45361 1.88385 0
M  V30 1682 H 161.94 3.90358 3.06326 0
M  V30 1683 N 161.113 -0.173488 1.56642 0
M  V30 1684 C 162.529 -0.525174 1.50712 0
M  V30 1685 C 162.729 -1.8476 0.804107 0
M  V30 1686 O 161.785 -2.49869 0.363574 0
M  V30 1687 C 163.098 -0.559937 2.95441 0
M  V30 1688 C 164.646 -0.647288 3.06234 0
M  V30 1689 C 165.121 -0.712963 4.52417 0
M  V30 1690 N 166.612 -0.775911 4.56655 0
M  V30 1691 C 167.347 -0.847264 5.67106 0
M  V30 1692 N 166.843 -0.879585 6.87194 0
M  V30 1693 N 168.636 -0.886117 5.55071 0
M  V30 1694 H 160.787 0.693681 2.00753 0
M  V30 1695 H 163.05 0.249841 0.914485 0
M  V30 1696 H 162.756 0.343049 3.50023 0
M  V30 1697 H 162.63 -1.40718 3.49969 0
M  V30 1698 H 165.017 -1.5407 2.51687 0
M  V30 1699 H 165.098 0.226586 2.54794 0
M  V30 1700 H 164.742 0.176183 5.07594 0
M  V30 1701 H 164.672 -1.60295 5.0161 0
M  V30 1702 H 167.163 -0.759304 3.70193 0
M  V30 1703 H 167.476 -0.935144 7.67121 0
M  V30 1704 H 165.821 -0.847898 6.89808 0
M  V30 1705 H 169.012 -0.857853 4.60172 0
M  V30 1706 H 169.185 -0.938263 6.41171 0
M  V30 1707 N 162.591 -1.51276 -0.441967 0
M  V30 1708 C 163.501 -1.75092 -1.56141 0
M  V30 1709 C 164.517 -0.634963 -1.62001 0
M  V30 1710 O 165.693 -0.916686 -1.79329 0
M  V30 1711 C 162.758 -1.86666 -2.92158 0
M  V30 1712 C 161.819 -3.10506 -2.96453 0
M  V30 1713 C 161.052 -3.21519 -4.25982 0
M  V30 1714 O 161.275 -2.38586 -5.18105 0
M  V30 1715 O 160.209 -4.14465 -4.36466 0
M  V30 1716 H 164.035 -2.70044 -1.38961 0
M  V30 1717 H 161.62 -1.35722 -0.624499 0
M  V30 1718 H 163.502 -1.96292 -3.72891 0
M  V30 1719 H 162.177 -0.949014 -3.09476 0
M  V30 1720 H 161.084 -3.06363 -2.14692 0
M  V30 1721 H 162.417 -4.01945 -2.84079 0
M  V30 1722 N 164.069 0.697108 -1.41344 0
M  V30 1723 C 165.002 1.82134 -1.37486 0
M  V30 1724 C 165.98 1.60784 -0.242351 0
M  V30 1725 O 167.164 1.83553 -0.429012 0
M  V30 1726 C 164.291 3.18788 -1.14421 0
M  V30 1727 C 163.337 3.58932 -2.3037 0
M  V30 1728 S 164.17 3.63916 -3.92843 0
M  V30 1729 C 165.326 5.03298 -3.72078 0
M  V30 1730 H 165.559 1.85129 -2.32625 0
M  V30 1731 H 163.092 0.865671 -1.2785 0
M  V30 1732 H 165.05 3.97677 -1.018 0
M  V30 1733 H 163.711 3.13404 -0.20905 0
M  V30 1734 H 162.904 4.58202 -2.09922 0
M  V30 1735 H 162.506 2.87347 -2.39391 0
M  V30 1736 H 164.798 5.90753 -3.31688 0
M  V30 1737 H 165.741 5.28788 -4.70945 0
M  V30 1738 H 166.149 4.74764 -3.05384 0
M  V30 1739 N 165.547 1.27147 0.931209 0
M  V30 1740 C 166.51 1.09615 2.01289 0
M  V30 1741 C 167.51 0.0412581 1.60747 0
M  V30 1742 O 168.7 0.285545 1.71844 0
M  V30 1743 C 165.832 0.669447 3.34262 0
M  V30 1744 H 167.025 2.05662 2.18273 0
M  V30 1745 H 164.578 1.09885 1.11153 0
M  V30 1746 H 165.313 -0.292572 3.22978 0
M  V30 1747 H 165.098 1.43127 3.65044 0
M  V30 1748 H 166.588 0.568921 4.13706 0
M  V30 1749 N 167.025 -1.13721 1.09112 0
M  V30 1750 C 168.25 -1.89314 0.847053 0
M  V30 1751 C 168.675 -1.78416 -0.595774 0
M  V30 1752 O 168.033 -1.12942 -1.41823 0
M  V30 1753 C 168.081 -3.3701 1.28284 0
M  V30 1754 O 167.185 -4.10054 0.439267 0
M  V30 1755 H 166.526 -0.588745 0.307044 0
M  V30 1756 H 169.056 -1.43902 1.45442 0
M  V30 1757 H 169.066 -3.87834 1.26683 0
M  V30 1758 H 167.741 -3.4426 2.33363 0
M  V30 1759 H 166.318 -3.69266 0.519312 0
M  V30 1760 N 168.503 -0.877838 -1.30888 0
M  V30 1761 C 169.78 -0.413052 -1.91189 0
M  V30 1762 C 170.16 1.1056 -1.79832 0
M  V30 1763 O 169.508 1.93771 -1.21099 0
M  V30 1764 C 169.718 -0.903191 -3.3711 0
M  V30 1765 C 171.066 -0.93395 -4.14201 0
M  V30 1766 O 172.09 -0.849373 -3.45925 0
M  V30 1767 O 170.949 -1.05772 -5.36167 0
M  V30 1768 H 168.043 -0.125035 -0.817493 0
M  V30 1769 H 170.589 -0.966269 -1.39504 0
M  V30 1770 H 169.361 -1.94692 -3.39427 0
M  V30 1771 H 168.984 -0.328732 -3.96239 0
M  V30 1772 N 169.982 1.44106 -0.638065 0
M  V30 1773 C 171.21 2.06336 -0.152615 0
M  V30 1774 C 171.625 1.47731 1.17563 0
M  V30 1775 O 170.982 0.602806 1.72257 0
M  V30 1776 C 171.033 3.61479 -0.0391491 0
M  V30 1777 O 170.754 4.17903 -1.31487 0
M  V30 1778 C 172.255 4.40757 0.474176 0
M  V30 1779 H 169.475 0.665862 -0.0828776 0
M  V30 1780 H 172.019 1.84862 -0.87443 0
M  V30 1781 H 170.174 3.82191 0.633142 0
M  V30 1782 H 170.588 5.11416 -1.16421 0
M  V30 1783 H 172.062 5.49707 0.502562 0
M  V30 1784 H 172.539 4.12697 1.50258 0
M  V30 1785 H 173.145 4.24979 -0.165102 0
M  V30 1786 N 171.46 0.379036 1.52974 0
M  V30 1787 C 172.685 -0.209353 2.06341 0
M  V30 1788 C 173.11 -1.40583 1.24972 0
M  V30 1789 O 172.468 -1.79246 0.272155 0
M  V30 1790 C 172.516 -0.567786 3.56102 0
M  V30 1791 O 171.62 -1.66318 3.77375 0
M  V30 1792 H 170.961 -0.0272919 0.663439 0
M  V30 1793 H 173.491 0.543536 1.97248 0
M  V30 1794 H 173.501 -0.835003 3.99364 0
M  V30 1795 H 172.176 0.307013 4.14765 0
M  V30 1796 H 170.753 -1.39048 3.46006 0
M  V30 1797 N 172.938 -1.57226 0.108567 0
M  V30 1798 C 174.349 -1.8195 -0.418464 0
M  V30 1799 C 174.7 -1.02508 -1.67292 0
M  V30 1800 O 173.825 -0.258496 -2.14851 0
M  V30 1801 C 174.42 -3.30028 -0.765979 0
M  V30 1802 C 172.979 -3.55469 -1.23769 0
M  V30 1803 C 172.126 -2.7625 -0.241106 0
M  V30 1804 H 175.077 -1.55149 0.33384 0
M  V30 1805 H 175.098 -3.44086 -1.62434 0
M  V30 1806 H 174.61 -3.87821 0.147219 0
M  V30 1807 H 172.711 -3.03022 -2.16814 0
M  V30 1808 H 172.824 -4.6408 -1.19022 0
M  V30 1809 H 171.188 -2.44133 -0.72602 0
M  V30 1810 H 171.971 -3.36797 0.665007 0
M  V30 1811 N 174.416 0.165178 -1.56732 0
M  V30 1812 C 175.326 1.22423 -2.00125 0
M  V30 1813 C 176.342 1.48084 -0.913619 0
M  V30 1814 O 177.518 1.60112 -1.22172 0
M  V30 1815 C 174.583 2.54197 -2.35764 0
M  V30 1816 C 173.644 2.36343 -3.58386 0
M  V30 1817 C 172.877 3.61834 -3.92316 0
M  V30 1818 O 173.1 4.67267 -3.27135 0
M  V30 1819 O 172.034 3.55579 -4.85641 0
M  V30 1820 H 175.86 0.885886 -2.90492 0
M  V30 1821 H 173.445 0.372518 -1.44681 0
M  V30 1822 H 175.327 3.3192 -2.59629 0
M  V30 1823 H 174.002 2.87598 -1.48557 0
M  V30 1824 H 172.909 1.56632 -3.39731 0
M  V30 1825 H 174.242 2.07865 -4.46154 0
M  V30 1826 N 175.894 1.51508 0.433938 0
M  V30 1827 C 176.842 1.73646 1.54757 0
M  V30 1828 C 177.836 0.602854 1.5831 0
M  V30 1829 O 179.042 0.784318 1.62014 0
M  V30 1830 H 175.417 0.548718 0.51421 0
M  V30 1831 H 177.388 2.66991 1.33261 0
M  V30 1832 C 176.137 1.88172 2.92381 0
M  V30 1833 H 175.46 2.74808 2.90381 0
M  V30 1834 H 176.9 2.07672 3.6966 0
M  V30 1835 C 175.359 0.64239 3.30719 0
M  V30 1836 O 175.889 -0.201362 4.01195 0
M  V30 1837 N 174.095 0.485489 2.86516 0
M  V30 1838 H 173.642 1.17318 2.29334 0
M  V30 1839 H 173.6 -0.342482 3.12529 0
M  V30 1840 N 177.372 -0.689602 1.41712 0
M  V30 1841 C 178.6 -1.47827 1.44758 0
M  V30 1842 C 179.015 -1.88721 0.0545703 0
M  V30 1843 O 178.372 -1.57176 -0.927463 0
M  V30 1844 C 178.423 -2.73698 2.3616 0
M  V30 1845 O 178.144 -2.34524 3.7004 0
M  V30 1846 C 179.645 -3.67389 2.48072 0
M  V30 1847 H 176.865 -0.455357 0.49284 0
M  V30 1848 H 179.409 -0.848574 1.86063 0
M  V30 1849 H 177.564 -3.32891 1.98148 0
M  V30 1850 H 177.978 -3.15701 4.18847 0
M  V30 1851 H 179.452 -4.52475 3.16181 0
M  V30 1852 H 179.929 -4.12284 1.51388 0
M  V30 1853 H 180.535 -3.14097 2.86746 0
M  V30 1854 N 178.85 -1.27639 -0.924453 0
M  V30 1855 C 180.099 -1.13549 -1.66702 0
M  V30 1856 C 180.412 0.317487 -1.93006 0
M  V30 1857 O 181.618 0.579333 -2.65247 0
M  V30 1858 C 180.074 -1.98426 -3.00259 0
M  V30 1859 C 179.682 -3.484 -2.81641 0
M  V30 1860 C 181.426 -1.92993 -3.78092 0
M  V30 1861 C 179.333 -4.25464 -4.10773 0
M  V30 1862 H 178.263 -0.421351 -0.625283 0
M  V30 1863 H 180.914 -1.52085 -1.02676 0
M  V30 1864 H 179.296 -1.52736 -3.6536 0
M  V30 1865 H 180.47 -4.01973 -2.25287 0
M  V30 1866 H 178.785 -3.55245 -2.17232 0
M  V30 1867 H 181.382 -2.47844 -4.7379 0
M  V30 1868 H 181.725 -0.904281 -4.0636 0
M  V30 1869 H 182.258 -2.36595 -3.19793 0
M  V30 1870 H 178.997 -5.28566 -3.87683 0
M  V30 1871 H 178.517 -3.76667 -4.66779 0
M  V30 1872 H 180.196 -4.34812 -4.79111 0
M  V30 1873 N 180.328 1.1314 -1.09713 0
M  V30 1874 C 181.553 1.88862 -0.857081 0
M  V30 1875 C 181.978 1.78729 0.586304 0
M  V30 1876 O 181.336 1.13692 1.41222 0
M  V30 1877 C 181.384 3.36325 -1.30069 0
M  V30 1878 O 180.488 4.09815 -0.461007 0
M  V30 1879 H 179.829 0.587108 -0.310162 0
M  V30 1880 H 182.359 1.43129 -1.46203 0
M  V30 1881 H 182.369 3.87157 -1.28738 0
M  V30 1882 H 181.044 3.43017 -2.35185 0
M  V30 1883 H 179.621 3.68986 -0.538888 0
M  V30 1884 N 181.806 0.884767 1.30421 0
M  V30 1885 C 182.738 0.308655 2.27112 0
M  V30 1886 C 183.751 -0.536655 1.53701 0
M  V30 1887 O 184.94 -0.35624 1.74909 0
M  V30 1888 C 182.04 -0.579782 3.33904 0
M  V30 1889 C 181.213 0.236417 4.36761 0
M  V30 1890 C 180.272 -0.582482 5.22966 0
M  V30 1891 O 179.298 -0.00525502 5.692 0
M  V30 1892 N 180.5 -1.89163 5.48815 0
M  V30 1893 H 183.265 1.13964 2.77186 0
M  V30 1894 H 180.826 0.747731 1.43599 0
M  V30 1895 H 182.818 -1.13366 3.88497 0
M  V30 1896 H 181.388 -1.31144 2.83761 0
M  V30 1897 H 180.608 0.97174 3.82035 0
M  V30 1898 H 181.896 0.795924 5.02536 0
M  V30 1899 H 181.294 -2.38352 5.13035 0
M  V30 1900 H 179.851 -2.39296 6.06284 0
M  V30 1901 N 183.284 -1.43765 0.645699 0
M  V30 1902 C 184.231 -2.30745 -0.0504648 0
M  V30 1903 C 185.201 -1.4432 -0.822241 0
M  V30 1904 O 186.386 -1.73202 -0.800358 0
M  V30 1905 C 183.526 -3.29802 -1.0161 0
M  V30 1906 C 182.639 -4.31326 -0.241219 0
M  V30 1907 C 181.774 -5.17469 -1.19998 0
M  V30 1908 C 180.813 -6.10691 -0.415094 0
M  V30 1909 N 179.95 -6.89483 -1.32506 0
M  V30 1910 H 184.79 -2.8973 0.697155 0
M  V30 1911 H 182.327 -1.42738 0.355563 0
M  V30 1912 H 184.285 -3.85734 -1.58949 0
M  V30 1913 H 182.915 -2.72483 -1.73069 0
M  V30 1914 H 181.967 -3.77749 0.448334 0
M  V30 1915 H 183.279 -4.9743 0.369437 0
M  V30 1916 H 182.433 -5.7799 -1.84424 0
M  V30 1917 H 181.172 -4.51473 -1.84455 0
M  V30 1918 H 180.177 -5.49265 0.242565 0
M  V30 1919 H 181.402 -6.78727 0.224966 0
M  V30 1920 H 179.348 -6.26142 -1.95657 0
M  V30 1921 H 179.265 -7.52081 -0.768783 0
M  V30 1922 H 180.533 -7.54516 -1.9577 0
M  V30 1923 N 184.763 -0.387143 -1.52771 0
M  V30 1924 C 186.009 0.196025 -2.0185 0
M  V30 1925 C 186.342 1.46641 -1.27319 0
M  V30 1926 O 185.617 1.90889 -0.373032 0
M  V30 1927 C 185.9 0.466136 -3.5707 0
M  V30 1928 C 185.753 -0.819385 -4.42274 0
M  V30 1929 C 187.072 1.25768 -4.21747 0
M  V30 1930 H 184.191 0.0697708 -0.73369 0
M  V30 1931 H 186.833 -0.516286 -1.82851 0
M  V30 1932 H 184.983 1.07293 -3.7339 0
M  V30 1933 H 186.655 -1.4563 -4.37709 0
M  V30 1934 H 184.898 -1.43517 -4.09372 0
M  V30 1935 H 185.569 -0.585065 -5.48891 0
M  V30 1936 H 188.045 0.744167 -4.09391 0
M  V30 1937 H 186.921 1.41541 -5.30337 0
M  V30 1938 H 187.182 2.27228 -3.79236 0
M  V30 1939 N 186.241 1.57166 -0.116904 0
M  V30 1940 C 187.191 2.11756 0.845178 0
M  V30 1941 C 188.175 1.03783 1.22955 0
M  V30 1942 O 189.367 1.3002 1.20099 0
M  V30 1943 C 186.496 2.71886 2.09602 0
M  V30 1944 C 185.582 3.86937 1.7361 0
M  V30 1945 N 185.973 4.94073 1.08284 0
M  V30 1946 C 184.271 3.97082 2.03082 0
M  V30 1947 C 184.972 5.74477 0.913855 0
M  V30 1948 N 183.948 5.2423 1.43818 0
M  V30 1949 H 187.75 2.91967 0.336523 0
M  V30 1950 H 185.264 1.62174 0.0856332 0
M  V30 1951 H 187.261 3.09338 2.79492 0
M  V30 1952 H 185.921 1.93138 2.61013 0
M  V30 1953 H 186.932 5.12483 0.747067 0
M  V30 1954 H 183.609 3.29372 2.56554 0
M  V30 1955 H 184.999 6.70701 0.40125 0
M  V30 1956 N 187.719 -0.156864 1.56817 0
M  V30 1957 C 188.651 -1.21883 1.94106 0
M  V30 1958 C 189.664 -1.3971 0.835754 0
M  V30 1959 O 190.853 -1.39457 1.11418 0
M  V30 1960 C 187.953 -2.58527 2.19127 0
M  V30 1961 C 187.126 -2.61809 3.50393 0
M  V30 1962 C 186.185 -3.7992 3.64071 0
M  V30 1963 O 185.211 -3.65249 4.36557 0
M  V30 1964 N 186.413 -4.96973 2.99997 0
M  V30 1965 H 189.178 -0.901974 2.85805 0
M  V30 1966 H 186.739 -0.346513 1.58148 0
M  V30 1967 H 188.731 -3.36034 2.25529 0
M  V30 1968 H 187.301 -2.82545 1.33742 0
M  V30 1969 H 186.521 -1.7029 3.5552 0
M  V30 1970 H 187.809 -2.61024 4.36742 0
M  V30 1971 H 187.207 -5.11794 2.41004 0
M  V30 1972 H 185.764 -5.7229 3.11974 0
M  V30 1973 N 189.197 -1.51736 -0.425897 0
M  V30 1974 C 190.16 -1.73271 -1.50032 0
M  V30 1975 C 191.16 -0.602639 -1.4908 0
M  V30 1976 O 192.35 -0.87033 -1.509 0
M  V30 1977 C 189.482 -1.79969 -2.89523 0
M  V30 1978 H 190.675 -2.69172 -1.32237 0
M  V30 1979 H 188.228 -1.41899 -0.65532 0
M  V30 1980 H 188.963 -0.859241 -3.1271 0
M  V30 1981 H 188.748 -2.62109 -2.91619 0
M  V30 1982 H 190.238 -1.9843 -3.67444 0
M  V30 1983 N 190.675 0.682077 -1.42076 0
M  V30 1984 C 191.605 1.80796 -1.47767 0
M  V30 1985 C 192.586 1.6677 -0.334954 0
M  V30 1986 O 193.771 1.863 -0.548264 0
M  V30 1987 C 190.901 3.19038 -1.37229 0
M  V30 1988 C 189.855 3.47789 -2.49453 0
M  V30 1989 C 189.181 4.8553 -2.23975 0
M  V30 1990 C 190.481 3.45411 -3.91776 0
M  V30 1991 H 192.175 1.7629 -2.41997 0
M  V30 1992 H 189.721 0.846721 -1.16476 0
M  V30 1993 H 191.674 3.97528 -1.39821 0
M  V30 1994 H 190.398 3.24204 -0.394907 0
M  V30 1995 H 189.057 2.71657 -2.46166 0
M  V30 1996 H 188.705 4.87337 -1.24547 0
M  V30 1997 H 188.405 5.0573 -2.99184 0
M  V30 1998 H 189.929 5.66312 -2.28304 0
M  V30 1999 H 191.343 4.13882 -3.96705 0
M  V30 2000 H 189.74 3.77145 -4.66778 0
M  V30 2001 H 190.81 2.44122 -4.18966 0
M  V30 2002 N 192.153 1.28127 0.917671 0
M  V30 2003 C 193.401 1.14825 1.66312 0
M  V30 2004 C 193.722 -0.304379 1.9261 0
M  V30 2005 O 192.992 -1.21149 1.53947 0
M  V30 2006 H 191.572 0.421953 0.616413 0
M  V30 2007 H 194.234 1.608 1.10134 0
M  V30 2008 H 193.33 1.68489 2.62712 0
M  V30 2009 N 193.631 -1.12557 1.10312 0
M  V30 2010 C 194.878 -1.84038 0.844759 0
M  V30 2011 C 195.206 -1.84026 -0.629668 0
M  V30 2012 O 194.461 -1.28026 -1.48013 0
M  V30 2013 C 194.76 -3.31462 1.33669 0
M  V30 2014 C 194.426 -3.51647 2.82232 0
M  V30 2015 C 193.088 -3.56864 3.22802 0
M  V30 2016 C 195.44 -3.58867 3.77974 0
M  V30 2017 C 192.768 -3.66844 4.57867 0
M  V30 2018 C 195.12 -3.70375 5.1284 0
M  V30 2019 C 193.784 -3.73848 5.52986 0
M  V30 2020 H 193.054 -0.673444 0.309119 0
M  V30 2021 H 195.701 -1.32824 1.37949 0
M  V30 2022 H 194.006 -3.85091 0.721949 0
M  V30 2023 H 195.703 -3.85236 1.11329 0
M  V30 2024 H 192.293 -3.48249 2.49842 0
M  V30 2025 H 196.477 -3.54107 3.47738 0
M  V30 2026 H 191.733 -3.67804 4.88396 0
M  V30 2027 H 195.907 -3.74904 5.86873 0
M  V30 2028 H 193.534 -3.81333 6.57639 0
M  V30 2029 N 195.109 -0.891671 -1.2995 0
M  V30 2030 C 196.019 -0.367691 -2.31701 0
M  V30 2031 C 197.035 0.533486 -1.6562 0
M  V30 2032 O 198.211 0.424997 -1.96865 0
M  V30 2033 C 195.276 0.403406 -3.44345 0
M  V30 2034 C 194.337 -0.528328 -4.26037 0
M  V30 2035 C 193.57 0.206063 -5.33302 0
M  V30 2036 O 193.793 1.43119 -5.52153 0
M  V30 2037 O 192.727 -0.447281 -6.00236 0
M  V30 2038 H 196.553 -1.21163 -2.78484 0
M  V30 2039 H 194.138 -0.655725 -1.34241 0
M  V30 2040 H 196.02 0.839753 -4.12948 0
M  V30 2041 H 194.695 1.22354 -2.99685 0
M  V30 2042 H 193.602 -1.01362 -3.60106 0
M  V30 2043 H 194.935 -1.31465 -4.74318 0
M  V30 2044 N 196.587 1.43421 -0.653314 0
M  V30 2045 C 197.497 2.34568 0.0388565 0
M  V30 2046 C 198.513 1.53888 0.81207 0
M  V30 2047 O 199.689 1.86539 0.759294 0
M  V30 2048 C 196.754 3.32167 0.993269 0
M  V30 2049 C 195.815 4.28751 0.216977 0
M  V30 2050 C 195.048 5.21688 1.12593 0
M  V30 2051 O 195.271 5.19052 2.36519 0
M  V30 2052 O 194.205 5.98919 0.598284 0
M  V30 2053 H 198.031 2.95251 -0.711386 0
M  V30 2054 H 195.616 1.43564 -0.413502 0
M  V30 2055 H 197.498 3.92183 1.54176 0
M  V30 2056 H 196.173 2.73987 1.72374 0
M  V30 2057 H 195.08 3.72215 -0.375101 0
M  V30 2058 H 196.413 4.89913 -0.473924 0
M  V30 2059 N 198.065 0.39524 1.52563 0
M  V30 2060 C 199.293 -0.184943 2.06072 0
M  V30 2061 C 199.708 -1.40021 1.26647 0
M  V30 2062 O 199.065 -1.79767 0.314672 0
M  V30 2063 C 199.116 -0.549179 3.57304 0
M  V30 2064 O 198.837 0.617813 4.33722 0
M  V30 2065 C 200.338 -1.18459 4.2718 0
M  V30 2066 H 197.558 -0.0265025 0.670476 0
M  V30 2067 H 200.102 0.562184 1.96621 0
M  V30 2068 H 198.257 -1.2462 3.66809 0
M  V30 2069 H 198.671 0.317091 5.23541 0
M  V30 2070 H 200.145 -1.38976 5.34219 0
M  V30 2071 H 200.622 -2.15368 3.82771 0
M  V30 2072 H 201.228 -0.528163 4.22008 0
M  V30 2073 N 199.544 -1.57102 0.125237 0
M  V30 2074 C 200.454 -2.19191 -0.8362 0
M  V30 2075 C 201.47 -1.16985 -1.28805 0
M  V30 2076 O 202.646 -1.49479 -1.34974 0
M  V30 2077 C 199.711 -2.78407 -2.06617 0
M  V30 2078 C 198.772 -3.9567 -1.66565 0
M  V30 2079 C 198.005 -4.52052 -2.83698 0
M  V30 2080 O 198.228 -4.07326 -3.99302 0
M  V30 2081 O 197.162 -5.42645 -2.60423 0
M  V30 2082 H 200.988 -3.01816 -0.337776 0
M  V30 2083 H 198.573 -1.4906 -0.100695 0
M  V30 2084 H 200.455 -3.16129 -2.7864 0
M  V30 2085 H 199.13 -1.9881 -2.55453 0
M  V30 2086 H 198.037 -3.62705 -0.916296 0
M  V30 2087 H 199.37 -4.76722 -1.22464 0
M  V30 2088 N 201.022 0.148545 -1.56898 0
M  V30 2089 C 202.438 0.501131 -1.51528 0
M  V30 2090 C 202.638 1.83458 -0.833399 0
M  V30 2091 O 201.694 2.49259 -0.40328 0
M  V30 2092 C 203.007 0.512864 -2.96294 0
M  V30 2093 C 204.555 0.598487 -3.07225 0
M  V30 2094 C 205.03 0.640897 -4.53494 0
M  V30 2095 N 206.521 0.703163 -4.57832 0
M  V30 2096 C 207.256 0.756935 -5.68382 0
M  V30 2097 N 206.752 0.770147 -6.88506 0
M  V30 2098 N 208.545 0.797698 -5.56411 0
M  V30 2099 H 200.696 -0.725532 -1.99624 0
M  V30 2100 H 202.959 -0.264358 -0.910395 0
M  V30 2101 H 202.665 -0.398691 -3.49433 0
M  V30 2102 H 202.539 1.35133 -3.52163 0
M  V30 2103 H 204.926 1.50046 -2.54106 0
M  V30 2104 H 205.007 -0.267093 -2.54402 0
M  V30 2105 H 204.651 -0.256915 -5.0725 0
M  V30 2106 H 204.581 1.52295 -5.04097 0
M  V30 2107 H 207.072 0.700314 -3.71354 0
M  V30 2108 H 207.385 0.812983 -7.68512 0
M  V30 2109 H 205.73 0.738049 -6.9107 0
M  V30 2110 H 208.921 0.784535 -4.61479 0
M  V30 2111 H 209.094 0.83614 -6.42583 0
M  V30 2112 N 202.5 1.5196 0.417844 0
M  V30 2113 C 203.746 1.65836 1.16732 0
M  V30 2114 C 204.079 0.382881 1.90388 0
M  V30 2115 O 203.354 -0.618368 1.84408 0
M  V30 2116 C 203.637 2.87466 2.16876 0
M  V30 2117 C 203.49 4.25041 1.47174 0
M  V30 2118 C 204.809 3.04613 3.17646 0
M  V30 2119 H 201.928 0.603515 0.423011 0
M  V30 2120 H 204.57 1.84494 0.454105 0
M  V30 2121 H 202.72 2.71689 2.777 0
M  V30 2122 H 204.392 4.52527 0.895376 0
M  V30 2123 H 202.635 4.26843 0.773806 0
M  V30 2124 H 203.306 5.06176 2.20204 0
M  V30 2125 H 205.782 3.1923 2.66892 0
M  V30 2126 H 204.658 3.91247 3.8499 0
M  V30 2127 H 204.919 2.17541 3.84874 0
M  V30 2128 N 203.978 -0.674533 1.42435 0
M  V30 2129 C 205.227 -1.43034 1.42212 0
M  V30 2130 C 205.54 -1.95555 0.0420788 0
M  V30 2131 O 206.746 -2.71374 -0.0827558 0
M  V30 2132 C 205.202 -2.58748 2.50155 0
M  V30 2133 C 204.81 -2.12925 3.94166 0
M  V30 2134 C 206.554 -3.36257 2.59098 0
M  V30 2135 C 204.461 -3.25723 4.93618 0
M  V30 2136 H 203.391 -0.537345 0.528939 0
M  V30 2137 H 206.042 -0.73024 1.68344 0
M  V30 2138 H 204.424 -3.31128 2.17188 0
M  V30 2139 H 205.598 -1.47697 4.36488 0
M  V30 2140 H 203.913 -1.48354 3.89076 0
M  V30 2141 H 206.51 -4.20264 3.30578 0
M  V30 2142 H 206.853 -3.82866 1.63461 0
M  V30 2143 H 207.386 -2.70947 2.9126 0
M  V30 2144 H 204.125 -2.84105 5.90732 0
M  V30 2145 H 203.645 -3.89732 4.55926 0
M  V30 2146 H 205.324 -3.91186 5.15347 0
M  V30 2147 N 205.456 -1.28612 -0.910864 0
M  V30 2148 C 206.703 -1.15934 -1.66029 0
M  V30 2149 C 207.031 0.291483 -1.92303 0
M  V30 2150 O 206.286 1.22816 -1.52364 0
M  V30 2151 C 206.585 -1.90624 -3.0232 0
M  V30 2152 C 206.251 -3.40405 -2.95695 0
M  V30 2153 C 204.913 -3.81255 -2.93595 0
M  V30 2154 C 207.265 -4.359 -2.85728 0
M  V30 2155 C 204.593 -5.15936 -2.79334 0
M  V30 2156 C 206.945 -5.70657 -2.73007 0
M  V30 2157 C 205.609 -6.10779 -2.69267 0
M  V30 2158 H 204.879 -0.424234 -0.607541 0
M  V30 2159 H 207.526 -1.5942 -1.06101 0
M  V30 2160 H 205.831 -1.39696 -3.6605 0
M  V30 2161 H 207.528 -1.78228 -3.59215 0
M  V30 2162 H 204.118 -3.07927 -2.98125 0
M  V30 2163 H 208.302 -4.053 -2.86436 0
M  V30 2164 H 203.558 -5.46146 -2.74835 0
M  V30 2165 H 207.732 -6.44311 -2.64264 0
M  V30 2166 H 205.359 -7.1509 -2.57974 0
M  V30 2167 N 206.934 1.1197 -1.10907 0
M  V30 2168 C 208.164 1.8713 -0.875553 0
M  V30 2169 C 208.572 1.8016 0.577843 0
M  V30 2170 O 207.915 1.17699 1.41042 0
M  V30 2171 C 207.977 3.37005 -1.2517 0
M  V30 2172 C 207.641 3.67748 -2.71313 0
M  V30 2173 C 208.638 3.65698 -3.69542 0
M  V30 2174 C 206.323 3.96928 -3.07821 0
M  V30 2175 C 208.317 3.92395 -5.023 0
M  V30 2176 C 206.004 4.23284 -4.40765 0
M  V30 2177 C 207.002 4.21005 -5.37814 0
M  V30 2178 O 206.69 4.46704 -6.68364 0
M  V30 2179 H 206.422 0.598786 -0.313737 0
M  V30 2180 H 208.976 1.42568 -1.47863 0
M  V30 2181 H 207.206 3.82146 -0.591741 0
M  V30 2182 H 208.895 3.93519 -0.994877 0
M  V30 2183 H 209.661 3.43211 -3.42682 0
M  V30 2184 H 205.54 3.97841 -2.32902 0
M  V30 2185 H 209.084 3.90531 -5.78041 0
M  V30 2186 H 204.981 4.45246 -4.67361 0
M  V30 2187 H 205.749 4.64299 -6.74069 0
M  V30 2188 N 208.412 0.89855 1.29475 0
M  V30 2189 C 209.828 0.594483 1.48115 0
M  V30 2190 C 210.028 -0.86431 1.82022 0
M  V30 2191 O 209.084 -1.64457 1.91599 0
M  V30 2192 C 210.397 1.51932 2.59494 0
M  V30 2193 C 211.945 1.5244 2.7337 0
M  V30 2194 C 212.42 2.43548 3.87877 0
M  V30 2195 N 213.911 2.41589 3.95208 0
M  V30 2196 C 214.646 3.08789 4.83153 0
M  V30 2197 N 214.142 3.85265 5.75798 0
M  V30 2198 N 215.935 2.97952 4.76635 0
M  V30 2199 H 208.086 1.84207 1.05742 0
M  V30 2200 H 210.349 0.789251 0.525154 0
M  V30 2201 H 210.055 2.55865 2.41301 0
M  V30 2202 H 209.929 1.23899 3.56271 0
M  V30 2203 H 212.316 0.492518 2.90961 0
M  V30 2204 H 212.397 1.8451 1.77172 0
M  V30 2205 H 212.041 3.46829 3.71041 0
M  V30 2206 H 211.971 2.08788 4.83441 0
M  V30 2207 H 214.462 1.86025 3.28943 0
M  V30 2208 H 214.775 4.33598 6.39697 0
M  V30 2209 H 213.12 3.89371 5.75687 0
M  V30 2210 H 216.311 2.37723 4.03244 0
M  V30 2211 H 216.484 3.50599 5.44962 0
M  V30 2212 N 209.89 -1.43072 0.660911 0
M  V30 2213 C 210.837 -2.30785 -0.0259884 0
M  V30 2214 C 211.807 -1.45184 -0.806888 0
M  V30 2215 O 212.992 -1.74041 -0.781943 0
M  V30 2216 C 210.132 -3.30861 -0.981067 0
M  V30 2217 C 209.245 -4.31558 -0.195458 0
M  V30 2218 C 208.38 -5.18712 -1.14503 0
M  V30 2219 C 207.419 -6.11097 -0.350299 0
M  V30 2220 N 206.556 -6.90849 -1.25186 0
M  V30 2221 H 211.396 -2.88975 0.727846 0
M  V30 2222 H 208.933 -1.42353 0.370682 0
M  V30 2223 H 210.891 -3.87399 -1.54849 0
M  V30 2224 H 209.521 -2.74304 -1.70169 0
M  V30 2225 H 208.573 -3.77252 0.488374 0
M  V30 2226 H 209.885 -4.9701 0.422176 0
M  V30 2227 H 209.039 -5.79914 -1.78284 0
M  V30 2228 H 207.778 -4.53404 -1.79656 0
M  V30 2229 H 206.783 -5.48976 0.300808 0
M  V30 2230 H 208.008 -6.7845 0.296941 0
M  V30 2231 H 205.954 -6.28182 -1.89005 0
M  V30 2232 H 205.871 -7.52854 -0.688971 0
M  V30 2233 H 207.139 -7.5655 -1.87757 0
M  V30 2234 N 211.368 -0.403325 -1.52352 0
M  V30 2235 C 212.784 -0.0539281 -1.59509 0
M  V30 2236 C 212.984 1.43307 -1.41652 0
M  V30 2237 O 212.04 2.19924 -1.24056 0
M  V30 2238 C 213.353 -0.543654 -2.95745 0
M  V30 2239 C 214.901 -0.501125 -3.08962 0
M  V30 2240 C 215.376 -0.967267 -4.47669 0
M  V30 2241 N 216.867 -0.923849 -4.53893 0
M  V30 2242 C 217.602 -1.25578 -5.5948 0
M  V30 2243 N 217.098 -1.65889 -6.72646 0
M  V30 2244 N 218.891 -1.17613 -5.49658 0
M  V30 2245 H 211.042 -1.37123 -1.62206 0
M  V30 2246 H 213.305 -0.56294 -0.76276 0
M  V30 2247 H 213.011 -1.58275 -3.14073 0
M  V30 2248 H 212.885 0.0498042 -3.77167 0
M  V30 2249 H 215.272 0.528909 -2.90321 0
M  V30 2250 H 215.353 -1.13056 -2.2946 0
M  V30 2251 H 214.997 -1.9956 -4.67053 0
M  V30 2252 H 214.927 -0.314698 -5.25659 0
M  V30 2253 H 217.418 -0.627403 -3.72655 0
M  V30 2254 H 217.731 -1.89543 -7.49195 0
M  V30 2255 H 216.076 -1.69787 -6.73942 0
M  V30 2256 H 219.267 -0.860115 -4.6013 0
M  V30 2257 H 219.44 -1.43812 -6.3184 0
M  V30 2258 N 212.846 1.57033 -0.133567 0
M  V30 2259 C 214.086 1.97575 0.523789 0
M  V30 2260 C 214.45 1.01605 1.62912 0
M  V30 2261 O 215.651 1.3114 2.3464 0
M  V30 2262 C 213.922 3.42256 1.02935 0
M  V30 2263 S 215.481 4.04817 1.69319 0
M  V30 2264 H 212.299 0.690427 0.169799 0
M  V30 2265 H 214.901 1.94234 -0.222101 0
M  V30 2266 H 213.605 4.09842 0.213917 0
M  V30 2267 H 213.136 3.4928 1.81017 0
M  V30 2268 H 215.151 3.96767 2.97977 0
M  V30 2269 O 214.363 -0.00541248 1.61499 0
M  V30 2270 H 215.054 -0.622816 1.83414 0
M  V30 END ATOM
M  V30 BEGIN BOND
M  V30 END BOND
M  V30 END CTAB
M  END
$$$$
