drugbank_target|Q9RA63 Chaperone protein ClpB (DB04395)
 OpenBabel12092120293D

  0  0  0     0  0            999 V3000
M  V30 BEGIN CTAB
M  V30 COUNTS 13780 13873 0 0 0
M  V30 BEGIN ATOM
M  V30 1 H -0.908 1.98254 -0.117106 0
M  V30 2 N 0 1.576 0 0
M  V30 3 C 0.933 2.03868 1.02534 0
M  V30 4 C 1.911 0.928543 1.3348 0
M  V30 5 O 3.095 1.19667 1.45644 0
M  V30 6 C 0.222 2.43627 2.35294 0
M  V30 7 C -0.732 3.65373 2.2001 0
M  V30 8 S 0.101 5.13292 1.52614 0
M  V30 9 C 1.257 5.56322 2.86805 0
M  V30 10 H 1.49 2.90518 0.631377 0
M  V30 11 H -0.977 1.52953 0.210867 0
M  V30 12 H 0.981 2.67203 3.11629 0
M  V30 13 H -0.358 1.57376 2.7183 0
M  V30 14 H -1.165 3.90944 3.18086 0
M  V30 15 H -1.563 3.418 1.51819 0
M  V30 16 H 0.729 5.58782 3.83104 0
M  V30 17 H 1.672 6.56266 2.65933 0
M  V30 18 H 2.08 4.83886 2.90714 0
M  V30 19 N 1.4781 -0.272755 1.55222 0
M  V30 20 C 2.4261 -1.35705 1.88909 0
M  V30 21 C 3.4201 -1.5112 0.765456 0
M  V30 22 O 4.6261 -1.52901 0.949802 0
M  V30 23 H 1.0011 -0.453868 0.59959 0
M  V30 24 H 2.9721 -1.04544 2.79487 0
M  V30 25 C 1.7211 -2.71049 2.17779 0
M  V30 26 H 1.0441 -2.59979 3.03728 0
M  V30 27 H 2.4841 -3.45858 2.45272 0
M  V30 28 C 0.9431 -3.22165 0.985473 0
M  V30 29 O 1.4731 -4.01096 0.220233 0
M  V30 30 N -0.3209 -2.7985 0.783108 0
M  V30 31 H -0.7739 -2.15775 1.40708 0
M  V30 32 H -0.8159 -3.14397 -0.0130392 0
M  V30 33 N 2.9562 -1.48159 -0.537278 0
M  V30 34 C 3.8862 -1.65029 -1.6519 0
M  V30 35 C 4.8672 -0.499281 -1.62607 0
M  V30 36 O 6.0522 -0.730972 -1.79918 0
M  V30 37 C 3.1822 -1.68303 -3.03795 0
M  V30 38 C 2.1362 -2.8283 -3.21234 0
M  V30 39 C 1.4622 -2.71189 -4.60826 0
M  V30 40 C 2.7622 -4.24211 -3.04701 0
M  V30 41 H 4.4562 -2.58341 -1.51328 0
M  V30 42 H 2.0022 -1.24325 -0.726585 0
M  V30 43 H 3.9552 -1.78693 -3.81637 0
M  V30 44 H 2.6792 -0.715635 -3.18663 0
M  V30 45 H 1.3382 -2.71983 -2.45807 0
M  V30 46 H 0.9862 -1.72435 -4.7252 0
M  V30 47 H 0.6862 -3.48035 -4.7344 0
M  V30 48 H 2.2102 -2.83537 -5.40777 0
M  V30 49 H 3.6242 -4.3593 -3.72341 0
M  V30 50 H 2.0212 -5.01998 -3.28813 0
M  V30 51 H 3.0912 -4.41184 -2.01209 0
M  V30 52 N 4.4343 0.785586 -1.36625 0
M  V30 53 C 5.3443 1.92964 -1.33425 0
M  V30 54 C 6.3603 1.72394 -0.235851 0
M  V30 55 O 7.5363 1.95866 -0.468878 0
M  V30 56 C 4.6013 3.27884 -1.12662 0
M  V30 57 C 3.6623 3.61204 -2.32013 0
M  V30 58 C 2.8953 4.89687 -2.12231 0
M  V30 59 O 3.1183 5.59704 -1.09945 0
M  V30 60 O 2.0523 5.21752 -3.00098 0
M  V30 61 H 5.8783 1.98613 -2.29753 0
M  V30 62 H 3.4633 0.926384 -1.17211 0
M  V30 63 H 5.3453 4.08614 -1.03016 0
M  V30 64 H 4.0203 3.23118 -0.193991 0
M  V30 65 H 2.9273 2.80765 -2.47228 0
M  V30 66 H 4.2603 3.70698 -3.23796 0
M  V30 67 N 5.9124 1.20967 1.01018 0
M  V30 68 C 7.3284 0.965905 1.27053 0
M  V30 69 C 7.5284 -0.350785 1.98423 0
M  V30 70 O 6.5844 -1.07773 2.28344 0
M  V30 71 C 7.8974 2.15294 2.09926 0
M  V30 72 C 9.4454 2.19463 2.23171 0
M  V30 73 C 9.9204 3.3767 3.09424 0
M  V30 74 N 11.4114 3.37724 3.17012 0
M  V30 75 C 12.1464 4.25837 3.83993 0
M  V30 76 N 11.6424 5.24138 4.53047 0
M  V30 77 N 13.4354 4.1366 3.80581 0
M  V30 78 H 5.5864 2.0565 0.531194 0
M  V30 79 H 7.8494 0.90024 0.297106 0
M  V30 80 H 7.5554 3.10684 1.64828 0
M  V30 81 H 7.4294 2.13923 3.10672 0
M  V30 82 H 9.8164 1.24632 2.6749 0
M  V30 83 H 9.8974 2.2488 1.21912 0
M  V30 84 H 9.5414 4.32791 2.65808 0
M  V30 85 H 9.4714 3.29491 4.10784 0
M  V30 86 H 11.9624 2.6658 2.6785 0
M  V30 87 H 12.2754 5.87684 5.01844 0
M  V30 88 H 10.6204 5.28068 4.5185 0
M  V30 89 H 13.8114 3.36127 3.25785 0
M  V30 90 H 13.9844 4.82538 4.32505 0
M  V30 91 N 7.3905 -1.2043 1.01659 0
M  V30 92 C 8.6365 -1.90356 0.716674 0
M  V30 93 C 8.9915 -1.77367 -0.745557 0
M  V30 94 O 8.2845 -1.1471 -1.53467 0
M  V30 95 C 8.4785 -3.40464 1.08714 0
M  V30 96 C 8.3075 -3.6806 2.58384 0
M  V30 97 C 7.0775 -3.86775 3.25167 0
M  V30 98 C 9.2755 -3.70623 3.56572 0
M  V30 99 N 7.2575 -4.01889 4.64067 0
M  V30 100 C 8.6285 -3.91161 4.81034 0
M  V30 101 C 10.6835 -3.53586 3.50544 0
M  V30 102 C 9.3865 -3.96428 6.00198 0
M  V30 103 C 11.4125 -3.60125 4.6911 0
M  V30 104 C 10.7745 -3.81135 5.92381 0
M  V30 105 H 6.8735 -0.716226 0.313918 0
M  V30 106 H 9.4575 -1.44815 1.30141 0
M  V30 107 H 7.6285 -3.84757 0.530745 0
M  V30 108 H 9.3605 -3.97863 0.740763 0
M  V30 109 H 6.1155 -3.85156 2.75594 0
M  V30 110 H 6.5395 -4.13323 5.36184 0
M  V30 111 H 11.1815 -3.36308 2.56235 0
M  V30 112 H 8.8995 -4.12502 6.94887 0
M  V30 113 H 12.4855 -3.4825 4.66062 0
M  V30 114 H 11.3655 -3.86054 6.82592 0
M  V30 115 N 8.8686 -0.792821 -1.36206 0
M  V30 116 C 10.0966 -0.378825 -2.03402 0
M  V30 117 C 10.5116 1.00586 -1.59774 0
M  V30 118 O 9.8686 1.64574 -0.788764 0
M  V30 119 C 9.9196 -0.43683 -3.58851 0
M  V30 120 O 9.6406 -1.76691 -4.00889 0
M  V30 121 C 11.1416 -0.0138943 -4.43298 0
M  V30 122 H 8.3616 -0.155673 -0.652692 0
M  V30 123 H 10.9056 -1.07261 -1.74113 0
M  V30 124 H 9.0606 0.208575 -3.86838 0
M  V30 125 H 9.4746 -1.72011 -4.95492 0
M  V30 126 H 10.9486 -0.105615 -5.51899 0
M  V30 127 H 11.4256 1.03915 -4.2673 0
M  V30 128 H 12.0316 -0.63192 -4.20579 0
M  V30 129 N 10.3467 1.47872 -0.545128 0
M  V30 130 C 11.2787 2.27869 0.246621 0
M  V30 131 C 12.2917 1.36282 0.890561 0
M  V30 132 O 13.4807 1.61207 0.766449 0
M  V30 133 C 10.5807 3.10159 1.36582 0
M  V30 134 C 9.7537 4.29627 0.820954 0
M  V30 135 C 8.8127 4.93607 1.82314 0
M  V30 136 O 7.8387 5.52366 1.37406 0
M  V30 137 N 9.0407 4.87211 3.15603 0
M  V30 138 H 11.8057 2.96459 -0.439539 0
M  V30 139 H 9.3667 1.57367 -0.380421 0
M  V30 140 H 11.3587 3.49829 2.03474 0
M  V30 141 H 9.9287 2.43891 1.9554 0
M  V30 142 H 9.1487 3.94192 -0.0244032 0
M  V30 143 H 10.4367 5.06928 0.436063 0
M  V30 144 H 9.8347 4.40651 3.54744 0
M  V30 145 H 8.3917 5.30937 3.78087 0
M  V30 146 N 11.8248 0.280983 1.55075 0
M  V30 147 C 12.7878 -0.590896 2.21452 0
M  V30 148 C 13.7878 -1.07682 1.19421 0
M  V30 149 O 14.9778 -0.97605 1.44288 0
M  V30 150 C 12.1098 -1.81587 2.88511 0
M  V30 151 H 13.3028 -0.0112554 2.99898 0
M  V30 152 H 10.8558 0.0316438 1.56268 0
M  V30 153 H 11.5908 -2.43587 2.14093 0
M  V30 154 H 11.3758 -1.4753 3.63287 0
M  V30 155 H 12.8658 -2.43575 3.39206 0
M  V30 156 N 13.3029 -1.57598 0.00835791 0
M  V30 157 C 14.2659 -2.07884 -0.965242 0
M  V30 158 C 15.2659 -0.989825 -1.26725 0
M  V30 159 O 16.4559 -1.25218 -1.21104 0
M  V30 160 C 13.5879 -2.52731 -2.28779 0
M  V30 161 H 14.7809 -2.95178 -0.530112 0
M  V30 162 H 12.3339 -1.54458 -0.239283 0
M  V30 163 H 13.0689 -1.68705 -2.76964 0
M  V30 164 H 12.8539 -3.32272 -2.08177 0
M  V30 165 H 14.3439 -2.91933 -2.98605 0
M  V30 166 N 14.781 0.264519 -1.55364 0
M  V30 167 C 16.197 0.61215 -1.47394 0
M  V30 168 C 16.397 1.89134 -0.695018 0
M  V30 169 O 15.453 2.51563 -0.217275 0
M  V30 170 C 16.766 0.731235 -2.91674 0
M  V30 171 C 18.314 0.82473 -3.01939 0
M  V30 172 C 18.789 0.975522 -4.4749 0
M  V30 173 N 20.28 1.04083 -4.51354 0
M  V30 174 C 21.015 1.17646 -5.61201 0
M  V30 175 N 20.511 1.27874 -6.80896 0
M  V30 176 N 22.304 1.20823 -5.48961 0
M  V30 177 H 14.455 -0.575456 -2.04456 0
M  V30 178 H 16.718 -0.196099 -0.927496 0
M  V30 179 H 16.424 -0.138392 -3.51428 0
M  V30 180 H 16.298 1.60883 -3.41169 0
M  V30 181 H 18.685 1.68482 -2.42276 0
M  V30 182 H 18.766 -0.0776479 -2.55682 0
M  V30 183 H 18.41 0.120058 -5.07758 0
M  V30 184 H 18.34 1.89268 -4.91412 0
M  V30 185 H 20.831 0.973846 -3.65136 0
M  V30 186 H 21.144 1.38081 -7.60364 0
M  V30 187 H 19.489 1.24863 -6.83692 0
M  V30 188 H 22.68 1.12469 -4.54388 0
M  V30 189 H 22.853 1.31049 -6.3461 0
M  V30 190 N 16.2591 1.48442 0.529413 0
M  V30 191 C 17.1691 1.6569 1.66084 0
M  V30 192 C 18.1851 0.539432 1.65427 0
M  V30 193 O 19.3611 0.810572 1.84368 0
M  V30 194 C 16.4261 1.69315 3.02545 0
M  V30 195 C 15.4871 2.92694 3.14052 0
M  V30 196 C 14.7201 2.96137 4.44003 0
M  V30 197 O 14.9431 2.07973 5.31134 0
M  V30 198 O 13.8771 3.88312 4.59888 0
M  V30 199 H 17.7031 2.61483 1.54469 0
M  V30 200 H 15.2881 1.3185 0.702567 0
M  V30 201 H 17.1701 1.74217 3.83701 0
M  V30 202 H 15.8451 0.766966 3.14483 0
M  V30 203 H 14.7521 2.93324 2.32189 0
M  V30 204 H 16.0851 3.84699 3.0703 0
M  V30 205 N 17.7372 -0.778329 1.37039 0
M  V30 206 C 18.7002 -1.87301 1.32102 0
M  V30 207 C 19.7002 -1.59198 0.226405 0
M  V30 208 O 20.8902 -1.67403 0.481861 0
M  V30 209 C 18.0222 -3.24309 1.05055 0
M  V30 210 H 19.2152 -1.93093 2.29467 0
M  V30 211 H 16.7682 -0.977358 1.21973 0
M  V30 212 H 17.5032 -3.24196 0.0819373 0
M  V30 213 H 17.2882 -3.46098 1.84279 0
M  V30 214 H 18.7782 -4.04382 1.04234 0
M  V30 215 N 19.2153 -1.21501 -1.00376 0
M  V30 216 C 20.1453 -0.999478 -2.11028 0
M  V30 217 C 21.1263 0.0759671 -1.6993 0
M  V30 218 O 22.3113 -0.0841106 -1.94018 0
M  V30 219 C 19.4413 -0.564709 -3.42678 0
M  V30 220 C 18.3953 -1.58486 -3.97576 0
M  V30 221 C 17.7213 -1.00628 -5.25146 0
M  V30 222 C 19.0213 -2.97204 -4.29496 0
M  V30 223 H 20.7153 -1.92495 -2.29317 0
M  V30 224 H 18.2613 -0.92693 -1.102 0
M  V30 225 H 20.2143 -0.401091 -4.19487 0
M  V30 226 H 18.9383 0.396411 -3.24185 0
M  V30 227 H 17.5973 -1.73606 -3.22888 0
M  V30 228 H 17.2453 -0.0368439 -5.02987 0
M  V30 229 H 16.9453 -1.68771 -5.62841 0
M  V30 230 H 18.4693 -0.854015 -6.04598 0
M  V30 231 H 19.8833 -2.8552 -4.97143 0
M  V30 232 H 18.2803 -3.62372 -4.78338 0
M  V30 233 H 19.3503 -3.47956 -3.3772 0
M  V30 234 N 20.6934 1.19889 -1.02296 0
M  V30 235 C 21.6564 2.21116 -0.603351 0
M  V30 236 C 22.6564 1.5738 0.329884 0
M  V30 237 O 23.8464 1.73802 0.117702 0
M  V30 238 C 20.9784 3.40696 0.117992 0
M  V30 239 H 22.1714 2.59754 -1.49893 0
M  V30 240 H 19.7244 1.33463 -0.813468 0
M  V30 241 H 20.4594 3.07569 1.0282 0
M  V30 242 H 20.2444 3.88188 -0.552511 0
M  V30 243 H 21.7344 4.15692 0.398696 0
M  V30 244 N 22.1715 0.800033 1.35784 0
M  V30 245 C 23.1035 0.163596 2.28615 0
M  V30 246 C 24.1165 -0.633317 1.49976 0
M  V30 247 O 25.3055 -0.466754 1.72289 0
M  V30 248 C 22.4055 -0.790958 3.29541 0
M  V30 249 C 21.5785 -0.0418255 4.3738 0
M  V30 250 C 20.6375 -0.91389 5.18203 0
M  V30 251 O 19.6635 -0.367234 5.68014 0
M  V30 252 N 20.8655 -2.23682 5.35674 0
M  V30 253 H 23.6305 0.96105 2.83873 0
M  V30 254 H 21.1915 0.654894 1.48063 0
M  V30 255 H 23.1835 -1.37844 3.80501 0
M  V30 256 H 21.7535 -1.48925 2.74846 0
M  V30 257 H 20.9735 0.726813 3.87442 0
M  V30 258 H 22.2615 0.474719 5.06581 0
M  V30 259 H 21.6595 -2.70497 4.96838 0
M  V30 260 H 20.2165 -2.77369 5.89839 0
M  V30 261 N 23.6496 -1.47581 0.552962 0
M  V30 262 C 24.6126 -2.28439 -0.186605 0
M  V30 263 C 25.6126 -1.36706 -0.84665 0
M  V30 264 O 26.8026 -1.59378 -0.703164 0
M  V30 265 C 23.9346 -3.16264 -1.2724 0
M  V30 266 H 25.1276 -2.95294 0.523609 0
M  V30 267 H 22.6806 -1.532 0.309745 0
M  V30 268 H 23.4156 -2.54091 -2.01514 0
M  V30 269 H 23.2006 -3.83769 -0.803968 0
M  V30 270 H 24.6906 -3.77198 -1.79196 0
M  V30 271 N 25.1277 -0.289203 -1.54924 0
M  V30 272 C 26.0597 0.625583 -2.20497 0
M  V30 273 C 27.0727 1.10667 -1.19402 0
M  V30 274 O 28.2617 1.02615 -1.46056 0
M  V30 275 C 25.3617 1.86702 -2.82835 0
M  V30 276 C 24.5347 1.5304 -4.09753 0
M  V30 277 C 23.5937 2.62576 -4.56005 0
M  V30 278 O 22.6197 2.28167 -5.21468 0
M  V30 279 N 23.8217 3.92901 -4.27328 0
M  V30 280 H 26.5867 0.0642801 -2.99631 0
M  V30 281 H 24.1477 -0.110896 -1.6152 0
M  V30 282 H 26.1397 2.59304 -3.10715 0
M  V30 283 H 24.7097 2.33702 -2.07611 0
M  V30 284 H 23.9297 0.637564 -3.8901 0
M  V30 285 H 25.2177 1.28072 -4.92418 0
M  V30 286 H 24.6157 4.23671 -3.74859 0
M  V30 287 H 23.1727 4.61837 -4.59946 0
M  V30 288 N 26.6058 1.57591 -0.0167156 0
M  V30 289 C 27.8518 1.91567 0.665582 0
M  V30 290 C 28.1848 0.892298 1.72487 0
M  V30 291 O 27.4598 -0.0867127 1.94307 0
M  V30 292 C 27.7428 3.36069 1.29342 0
M  V30 293 C 27.5958 4.49135 0.244541 0
M  V30 294 C 28.9148 3.803 2.21495 0
M  V30 295 H 26.0338 0.69666 0.240488 0
M  V30 296 H 28.6758 1.89866 -0.0714356 0
M  V30 297 H 26.8258 3.3765 1.92158 0
M  V30 298 H 28.4978 4.59689 -0.385228 0
M  V30 299 H 26.7408 4.3165 -0.431379 0
M  V30 300 H 27.4118 5.47242 0.723207 0
M  V30 301 H 29.8878 3.80377 1.68678 0
M  V30 302 H 28.7638 4.82127 2.62382 0
M  V30 303 H 29.0248 3.15104 3.101 0
M  V30 304 N 28.0839 -0.256276 1.55502 0
M  V30 305 C 29.0139 -1.32102 1.92539 0
M  V30 306 C 29.9949 -1.50684 0.789194 0
M  V30 307 O 31.1799 -1.63449 1.04872 0
M  V30 308 C 28.3099 -2.67752 2.21192 0
M  V30 309 C 27.2639 -2.63878 3.36975 0
M  V30 310 C 26.5899 -4.03236 3.51147 0
M  V30 311 C 27.8899 -2.21682 4.72921 0
M  V30 312 H 29.5839 -1.01351 2.81724 0
M  V30 313 H 27.1299 -0.486105 1.35547 0
M  V30 314 H 29.0829 -3.42365 2.45691 0
M  V30 315 H 27.8069 -3.0012 1.28824 0
M  V30 316 H 26.4659 -1.91722 3.12471 0
M  V30 317 H 26.1139 -4.32854 2.56216 0
M  V30 318 H 25.8139 -4.01535 4.29003 0
M  V30 319 H 27.3379 -4.79563 3.77957 0
M  V30 320 H 28.7519 -2.86023 4.96854 0
M  V30 321 H 27.1489 -2.3111 5.53812 0
M  V30 322 H 28.2189 -1.16833 4.70615 0
M  V30 323 N 29.562 -1.4872 -0.521534 0
M  V30 324 C 30.525 -1.63379 -1.60748 0
M  V30 325 C 31.525 -0.50661 -1.52611 0
M  V30 326 O 32.715 -0.772601 -1.5613 0
M  V30 327 C 29.847 -1.61192 -3.00383 0
M  V30 328 H 31.04 -2.60217 -1.49087 0
M  V30 329 H 28.593 -1.37444 -0.744235 0
M  V30 330 H 29.328 -0.65863 -3.17541 0
M  V30 331 H 29.113 -2.43032 -3.07698 0
M  V30 332 H 30.603 -1.7466 -3.7932 0
M  V30 333 N 31.0401 0.771051 -1.3745 0
M  V30 334 C 31.9721 1.89352 -1.29146 0
M  V30 335 C 32.9851 1.61477 -0.207124 0
M  V30 336 O 34.1741 1.72382 -0.463324 0
M  V30 337 C 31.2741 3.24596 -0.974195 0
M  V30 338 C 30.4471 3.80111 -2.16413 0
M  V30 339 C 29.5061 4.93832 -1.81703 0
M  V30 340 O 28.5321 5.09382 -2.54006 0
M  V30 341 N 29.7341 5.75483 -0.761573 0
M  V30 342 H 32.4991 1.96991 -2.25864 0
M  V30 343 H 30.0601 0.950191 -1.31084 0
M  V30 344 H 32.0521 3.98193 -0.722828 0
M  V30 345 H 30.6221 3.12454 -0.0955527 0
M  V30 346 H 29.8421 2.98284 -2.57721 0
M  V30 347 H 31.1301 4.13932 -2.95867 0
M  V30 348 H 30.5281 5.65469 -0.161609 0
M  V30 349 H 29.0851 6.49302 -0.570064 0
M  V30 350 N 32.5182 1.22032 0.997298 0
M  V30 351 C 33.9342 0.979326 1.26021 0
M  V30 352 C 34.1342 -0.32972 1.98784 0
M  V30 353 O 33.1902 -1.05345 2.29475 0
M  V30 354 C 34.5032 2.17509 2.07631 0
M  V30 355 C 36.0512 2.21817 2.2083 0
M  V30 356 C 36.5262 3.40933 3.05825 0
M  V30 357 N 38.0172 3.41067 3.13412 0
M  V30 358 C 38.7522 4.29885 3.79455 0
M  V30 359 N 38.2482 5.28914 4.47462 0
M  V30 360 N 40.0412 4.17673 3.76173 0
M  V30 361 H 32.1922 2.06202 0.509352 0
M  V30 362 H 34.4552 0.90334 0.287541 0
M  V30 363 H 34.1612 3.12415 1.61524 0
M  V30 364 H 34.0352 2.17206 3.08385 0
M  V30 365 H 36.4222 1.27462 2.66153 0
M  V30 366 H 36.5032 2.2616 1.1952 0
M  V30 367 H 36.1472 4.35586 2.61203 0
M  V30 368 H 36.0772 3.33829 4.07266 0
M  V30 369 H 38.5682 2.69406 2.65007 0
M  V30 370 H 38.8812 5.92973 4.95583 0
M  V30 371 H 37.2262 5.32831 4.46224 0
M  V30 372 H 40.4172 3.39564 3.22202 0
M  V30 373 H 40.5902 4.87098 4.27363 0
M  V30 374 N 33.9963 -1.19345 1.0293 0
M  V30 375 C 34.9293 -2.21347 0.555029 0
M  V30 376 C 35.9073 -1.57492 -0.404351 0
M  V30 377 O 37.0913 -1.85741 -0.321352 0
M  V30 378 C 34.2183 -3.38163 -0.19064 0
M  V30 379 C 33.2643 -4.20375 0.720236 0
M  V30 380 S 34.0973 -4.88371 2.19668 0
M  V30 381 C 35.2533 -6.08597 1.46153 0
M  V30 382 H 35.4863 -2.61235 1.41929 0
M  V30 383 H 33.0193 -1.29598 0.839272 0
M  V30 384 H 34.9773 -4.05871 -0.614724 0
M  V30 385 H 33.6383 -2.9671 -1.03063 0
M  V30 386 H 32.8313 -5.03793 0.14455 0
M  V30 387 H 32.4333 -3.57987 1.08266 0
M  V30 388 H 34.7253 -6.73354 0.748357 0
M  V30 389 H 35.6683 -6.7065 2.27233 0
M  V30 390 H 36.0763 -5.56297 0.958842 0
M  V30 391 N 35.4744 -0.807222 -1.35358 0
M  V30 392 C 36.4214 -0.216037 -2.29787 0
M  V30 393 C 37.3914 0.650278 -1.52842 0
M  V30 394 O 38.5764 0.595227 -1.81278 0
M  V30 395 C 35.7164 0.628893 -3.39321 0
M  V30 396 C 34.8294 -0.257927 -4.31229 0
M  V30 397 C 33.9644 0.595069 -5.27856 0
M  V30 398 C 33.0034 -0.292111 -6.11403 0
M  V30 399 N 32.1404 0.520895 -7.00165 0
M  V30 400 H 36.9804 -1.02671 -2.79755 0
M  V30 401 H 34.5174 -0.517839 -1.37684 0
M  V30 402 H 36.4754 1.13393 -4.01494 0
M  V30 403 H 35.1054 1.40482 -2.90628 0
M  V30 404 H 34.1574 -0.881076 -3.70056 0
M  V30 405 H 35.4694 -0.940759 -4.89848 0
M  V30 406 H 34.6234 1.16522 -5.95405 0
M  V30 407 H 33.3624 1.31146 -4.69736 0
M  V30 408 H 32.3674 -0.874525 -5.428 0
M  V30 409 H 33.5924 -1.00638 -6.71602 0
M  V30 410 H 31.5384 1.22125 -6.44532 0
M  V30 411 H 31.4554 -0.103877 -7.55929 0
M  V30 412 H 32.7234 1.0743 -7.72062 0
M  V30 413 N 36.9525 1.47285 -0.560781 0
M  V30 414 C 37.9025 2.27073 0.205384 0
M  V30 415 C 38.8865 1.34569 0.882044 0
M  V30 416 O 40.0785 1.58899 0.77976 0
M  V30 417 C 37.2075 3.20414 1.23247 0
M  V30 418 C 36.2935 4.20399 0.559041 0
M  V30 419 N 36.6845 5.04423 -0.372927 0
M  V30 420 C 34.9825 4.38536 0.812522 0
M  V30 421 C 35.6835 5.76655 -0.764446 0
M  V30 422 N 34.6595 5.43471 -0.11848 0
M  V30 423 H 38.4615 2.89422 -0.511117 0
M  V30 424 H 35.9755 1.57868 -0.380975 0
M  V30 425 H 37.9725 3.76262 1.79534 0
M  V30 426 H 36.6325 2.59623 1.95002 0
M  V30 427 H 37.6435 5.1248 -0.747287 0
M  V30 428 H 34.3205 3.88913 1.51832 0
M  V30 429 H 35.7105 6.54238 -1.53045 0
M  V30 430 N 38.4306 0.297415 1.54768 0
M  V30 431 C 39.3626 -0.613881 2.20826 0
M  V30 432 C 40.3756 -1.10032 1.19987 0
M  V30 433 O 41.5646 -1.01839 1.46598 0
M  V30 434 C 38.6646 -1.852 2.83821 0
M  V30 435 C 37.8376 -1.50865 4.10559 0
M  V30 436 C 36.8966 -2.60154 4.57391 0
M  V30 437 O 35.9226 -2.25398 5.2267 0
M  V30 438 N 37.1246 -3.90629 4.29406 0
M  V30 439 H 39.8896 -0.048389 2.99661 0
M  V30 440 H 37.4506 0.11946 1.61459 0
M  V30 441 H 39.4426 -2.57652 3.12086 0
M  V30 442 H 38.0126 -2.32597 2.08847 0
M  V30 443 H 37.2326 -0.616925 3.89343 0
M  V30 444 H 38.5206 -1.25458 4.9309 0
M  V30 445 H 37.9186 -4.21677 3.77101 0
M  V30 446 H 36.4756 -4.59391 4.62388 0
M  V30 447 N 39.9087 -1.5758 0.0250728 0
M  V30 448 C 40.8717 -2.08896 -0.943139 0
M  V30 449 C 41.8717 -1.00321 -1.25668 0
M  V30 450 O 43.0617 -1.26495 -1.19769 0
M  V30 451 C 40.1937 -2.55143 -2.26086 0
M  V30 452 H 41.3867 -2.95723 -0.498775 0
M  V30 453 H 38.9397 -1.54703 -0.222888 0
M  V30 454 H 39.6747 -1.71633 -2.75159 0
M  V30 455 H 39.4597 -3.34461 -2.04641 0
M  V30 456 H 40.9497 -2.95083 -2.95492 0
M  V30 457 N 41.3868 0.248026 -1.55636 0
M  V30 458 C 42.6358 0.974134 -1.76617 0
M  V30 459 C 42.9488 1.86528 -0.588796 0
M  V30 460 O 44.1548 2.62805 -0.681594 0
M  V30 461 C 42.6108 1.78213 -3.12679 0
M  V30 462 C 42.2188 0.93843 -4.38061 0
M  V30 463 C 43.9628 2.50104 -3.42999 0
M  V30 464 C 41.8698 1.74225 -5.65155 0
M  V30 465 H 40.7998 0.36745 -0.658405 0
M  V30 466 H 43.4508 0.22884 -1.82067 0
M  V30 467 H 41.8328 2.56933 -3.01333 0
M  V30 468 H 43.0068 0.193635 -4.60393 0
M  V30 469 H 41.3218 0.332905 -4.15067 0
M  V30 470 H 43.9188 3.10694 -4.3517 0
M  V30 471 H 44.2618 3.21662 -2.64271 0
M  V30 472 H 44.7948 1.78395 -3.55556 0
M  V30 473 H 41.5338 1.07043 -6.46701 0
M  V30 474 H 41.0538 2.46235 -5.46926 0
M  V30 475 H 42.7328 2.30967 -6.0437 0
M  V30 476 N 42.8649 1.48995 0.513639 0
M  V30 477 C 44.1419 1.48338 1.27495 0
M  V30 478 C 44.5219 0.204065 2.10111 0
M  V30 479 O 43.8699 -0.813881 2.13514 0
M  V30 480 C 44.0799 2.75498 2.14247 0
M  V30 481 C 45.4279 3.24484 2.73852 0
M  V30 482 O 46.4519 2.76528 2.24523 0
M  V30 483 O 45.3109 4.07974 3.6362 0
M  V30 484 H 42.4049 0.593149 0.576284 0
M  V30 485 H 44.9509 1.61246 0.528948 0
M  V30 486 H 43.7229 3.60109 1.53092 0
M  V30 487 H 43.3459 2.6539 2.96064 0
M  V30 488 N 44.343 -0.763751 1.37857 0
M  V30 489 C 45.273 -1.89103 1.36975 0
M  V30 490 C 46.254 -1.68439 0.237152 0
M  V30 491 O 47.439 -1.8918 0.438713 0
M  V30 492 C 44.569 -3.26496 1.18395 0
M  V30 493 C 43.523 -3.61741 2.28751 0
M  V30 494 C 42.849 -4.97762 1.95286 0
M  V30 495 C 44.149 -3.67665 3.70972 0
M  V30 496 H 45.843 -1.90099 2.31307 0
M  V30 497 H 43.389 -0.91319 1.11341 0
M  V30 498 H 45.342 -4.05003 1.16406 0
M  V30 499 H 44.066 -3.25955 0.205215 0
M  V30 500 H 42.725 -2.85547 2.29909 0
M  V30 501 H 42.373 -4.93769 0.959221 0
M  V30 502 H 42.073 -5.22313 2.69189 0
M  V30 503 H 43.597 -5.7866 1.94898 0
M  V30 504 H 45.011 -4.36307 3.719 0
M  V30 505 H 43.408 -4.03718 4.43995 0
M  V30 506 H 44.478 -2.68134 4.0402 0
M  V30 507 N 45.8211 -1.22559 -0.990812 0
M  V30 508 C 47.2321 -1.04791 -1.54518 0
M  V30 509 C 47.5831 0.387998 -1.92325 0
M  V30 510 O 46.7081 1.27328 -1.74976 0
M  V30 511 C 47.3031 -1.896 -2.80779 0
M  V30 512 C 45.8621 -1.76124 -3.32652 0
M  V30 513 C 45.0091 -1.8594 -2.05722 0
M  V30 514 H 47.9601 -1.36374 -0.811662 0
M  V30 515 H 47.9811 -1.41464 -3.53225 0
M  V30 516 H 47.4931 -2.94101 -2.53231 0
M  V30 517 H 45.5941 -0.743643 -3.65104 0
M  V30 518 H 45.7071 -2.58913 -4.03114 0
M  V30 519 H 44.0711 -1.29403 -2.19379 0
M  V30 520 H 44.8541 -2.91976 -1.80568 0
M  V30 521 N 47.2992 1.18797 -1.03562 0
M  V30 522 C 48.2492 2.20161 -0.592724 0
M  V30 523 C 49.2332 1.56772 0.362133 0
M  V30 524 O 50.4252 1.76062 0.182009 0
M  V30 525 C 47.5542 3.43266 0.0481024 0
M  V30 526 C 46.6402 4.13786 -0.9296 0
M  V30 527 N 47.0312 4.60388 -2.09467 0
M  V30 528 C 45.3292 4.39572 -0.754499 0
M  V30 529 C 46.0302 5.14619 -2.71187 0
M  V30 530 N 45.0062 5.05826 -1.991 0
M  V30 531 H 48.8082 2.53877 -1.48066 0
M  V30 532 H 46.3222 1.34946 -0.903514 0
M  V30 533 H 48.3192 4.15136 0.383058 0
M  V30 534 H 46.9792 3.11048 0.931636 0
M  V30 535 H 47.9902 4.54999 -2.47379 0
M  V30 536 H 44.6672 4.17425 0.0793713 0
M  V30 537 H 46.0572 5.60917 -3.69895 0
M  V30 538 N 48.7773 0.814389 1.34928 0
M  V30 539 C 49.7073 0.244827 2.32213 0
M  V30 540 C 50.6883 -0.634024 1.57842 0
M  V30 541 O 51.8733 -0.562676 1.8587 0
M  V30 542 C 49.0033 -0.601106 3.42058 0
M  V30 543 C 47.9573 0.179896 4.27622 0
M  V30 544 C 47.2833 -0.788237 5.28858 0
M  V30 545 C 48.5833 1.38329 5.03649 0
M  V30 546 H 50.2773 1.05763 2.80097 0
M  V30 547 H 47.8233 0.510029 1.34665 0
M  V30 548 H 49.7763 -1.00968 4.09125 0
M  V30 549 H 48.5003 -1.44688 2.92802 0
M  V30 550 H 47.1593 0.569739 3.62146 0
M  V30 551 H 46.8073 -1.62973 4.75866 0
M  V30 552 H 46.5073 -0.269942 5.8698 0
M  V30 553 H 48.0313 -1.19485 5.98795 0
M  V30 554 H 49.4453 1.04918 5.63618 0
M  V30 555 H 47.8423 1.83662 5.71304 0
M  V30 556 H 48.9123 2.16592 4.33839 0
M  V30 557 N 50.2554 -1.46986 0.568584 0
M  V30 558 C 51.5014 -2.0332 0.0571487 0
M  V30 559 C 51.8564 -1.43384 -1.28291 0
M  V30 560 O 51.1494 -0.584304 -1.82473 0
M  V30 561 C 51.3434 -3.57306 -0.081836 0
M  V30 562 C 51.1724 -4.32174 1.24321 0
M  V30 563 C 49.9424 -4.71633 1.81358 0
M  V30 564 C 52.1404 -4.66598 2.16312 0
M  V30 565 N 50.1224 -5.31191 3.07748 0
M  V30 566 C 51.4934 -5.26578 3.27285 0
M  V30 567 C 53.5484 -4.48527 2.16166 0
M  V30 568 C 52.2514 -5.70395 4.38226 0
M  V30 569 C 54.2774 -4.93351 3.26127 0
M  V30 570 C 53.6394 -5.5339 4.3582 0
M  V30 571 H 49.7384 -0.77943 0.063351 0
M  V30 572 H 52.3224 -1.79323 0.758378 0
M  V30 573 H 50.4934 -3.81046 -0.752207 0
M  V30 574 H 52.2254 -4.00282 -0.59637 0
M  V30 575 H 48.9804 -4.53946 1.35019 0
M  V30 576 H 49.4044 -5.65505 3.72201 0
M  V30 577 H 54.0464 -4.01456 1.32638 0
M  V30 578 H 51.7644 -6.16452 5.22506 0
M  V30 579 H 55.3504 -4.81131 3.27115 0
M  V30 580 H 54.2304 -5.87441 5.19503 0
M  V30 581 N 51.7335 -0.305618 -1.54608 0
M  V30 582 C 52.6965 0.555591 -2.22364 0
M  V30 583 C 53.6965 1.05768 -1.21119 0
M  V30 584 O 54.8865 0.952972 -1.45822 0
M  V30 585 C 52.0185 1.76974 -2.91364 0
M  V30 586 H 53.2115 -0.0364572 -2.99878 0
M  V30 587 H 50.7645 -0.0565007 -1.56198 0
M  V30 588 H 51.4995 2.40151 -2.17941 0
M  V30 589 H 51.2845 1.41732 -3.65588 0
M  V30 590 H 52.7745 2.38148 -3.43038 0
M  V30 591 N 53.2116 1.57565 -0.0334293 0
M  V30 592 C 54.4576 1.92262 0.645226 0
M  V30 593 C 54.7906 0.910543 1.71531 0
M  V30 594 O 54.0656 -0.066099 1.94388 0
M  V30 595 C 54.3486 3.37422 1.2577 0
M  V30 596 C 54.2016 4.49369 0.196891 0
M  V30 597 C 55.5206 3.82628 2.17449 0
M  V30 598 H 52.6396 0.699171 0.233085 0
M  V30 599 H 55.2816 1.89779 -0.0915694 0
M  V30 600 H 53.4316 3.39669 1.88566 0
M  V30 601 H 55.1036 4.59254 -0.433962 0
M  V30 602 H 53.3466 4.31168 -0.477137 0
M  V30 603 H 54.0176 5.47978 0.665124 0
M  V30 604 H 56.4936 3.82145 1.64634 0
M  V30 605 H 55.3696 4.84883 2.57254 0
M  V30 606 H 55.6306 3.18376 3.0674 0
M  V30 607 N 54.6897 -0.239769 1.55765 0
M  V30 608 C 55.6197 -1.30052 1.9393 0
M  V30 609 C 56.6007 -1.49839 0.805132 0
M  V30 610 O 57.7857 -1.62328 1.06599 0
M  V30 611 C 54.9157 -2.65391 2.2402 0
M  V30 612 C 53.8697 -2.60289 3.39755 0
M  V30 613 C 53.1957 -3.99489 3.55405 0
M  V30 614 C 54.4957 -2.16654 4.75246 0
M  V30 615 H 56.1897 -0.983573 2.82783 0
M  V30 616 H 53.7357 -0.471701 1.36055 0
M  V30 617 H 55.6887 -3.3974 2.49308 0
M  V30 618 H 54.4127 -2.98736 1.32 0
M  V30 619 H 53.0717 -1.88398 3.14487 0
M  V30 620 H 52.7197 -4.30112 2.60793 0
M  V30 621 H 52.4197 -3.96962 4.33238 0
M  V30 622 H 53.9437 -4.75528 3.83022 0
M  V30 623 H 55.3577 -2.80737 4.99859 0
M  V30 624 H 53.7547 -2.25223 5.56232 0
M  V30 625 H 54.8247 -1.11835 4.71827 0
M  V30 626 N 56.1678 -1.49265 -0.50573 0
M  V30 627 C 57.0978 -1.68495 -1.61653 0
M  V30 628 C 58.0788 -0.53366 -1.61512 0
M  V30 629 O 59.2638 -0.76897 -1.78327 0
M  V30 630 C 56.3938 -1.74709 -3.00157 0
M  V30 631 C 55.3478 -2.89581 -3.15162 0
M  V30 632 C 54.6738 -2.80903 -4.5497 0
M  V30 633 C 55.9738 -4.30578 -2.95634 0
M  V30 634 H 57.6678 -2.61493 -1.45814 0
M  V30 635 H 55.2138 -1.25838 -0.70005 0
M  V30 636 H 57.1668 -1.86748 -3.77761 0
M  V30 637 H 55.8908 -0.783067 -3.17074 0
M  V30 638 H 54.5498 -2.77136 -2.39982 0
M  V30 639 H 54.1978 -1.82419 -4.68756 0
M  V30 640 H 53.8978 -3.57999 -4.65951 0
M  V30 641 H 55.4218 -2.94944 -5.34641 0
M  V30 642 H 56.8358 -4.4373 -3.63011 0
M  V30 643 H 55.2328 -5.0886 -3.18091 0
M  V30 644 H 56.3028 -4.45352 -1.91806 0
M  V30 645 N 57.6459 0.756429 -1.3826 0
M  V30 646 C 58.5929 1.87011 -1.35261 0
M  V30 647 C 59.5629 1.64695 -0.215616 0
M  V30 648 O 60.7479 1.864 -0.407399 0
M  V30 649 C 57.8879 3.24275 -1.18068 0
M  V30 650 C 57.0009 3.58442 -2.41129 0
M  V30 651 C 56.1359 4.84994 -2.16689 0
M  V30 652 C 55.1749 5.11939 -3.35537 0
M  V30 653 N 54.3119 6.29685 -3.10549 0
M  V30 654 H 59.1519 1.8891 -2.30472 0
M  V30 655 H 56.6889 0.923373 -1.14509 0
M  V30 656 H 58.6469 4.03479 -1.06116 0
M  V30 657 H 57.2769 3.21711 -0.264973 0
M  V30 658 H 56.3289 2.74103 -2.63764 0
M  V30 659 H 57.6409 3.74283 -3.29717 0
M  V30 660 H 56.7949 5.72135 -2.01857 0
M  V30 661 H 55.5339 4.71286 -1.25462 0
M  V30 662 H 54.5389 4.23268 -3.50891 0
M  V30 663 H 55.7639 5.27546 -4.27635 0
M  V30 664 H 53.7099 6.17306 -2.21967 0
M  V30 665 H 53.6269 6.46014 -3.92686 0
M  V30 666 H 54.8949 7.19722 -2.99367 0
M  V30 667 N 59.124 1.23083 0.984299 0
M  V30 668 C 60.401 0.9689 1.69917 0
M  V30 669 C 60.781 -0.513604 2.04757 0
M  V30 670 O 60.129 -1.48383 1.73767 0
M  V30 671 C 60.339 1.87518 2.94343 0
M  V30 672 C 61.687 2.13636 3.6694 0
M  V30 673 O 62.711 1.85036 3.04368 0
M  V30 674 O 61.57 2.62119 4.79537 0
M  V30 675 H 58.664 0.365095 0.742048 0
M  V30 676 H 61.21 1.34107 1.03987 0
M  V30 677 H 59.982 2.87756 2.65164 0
M  V30 678 H 59.605 1.50514 3.6801 0
M  V30 679 N 60.6021 -1.18246 1.0419 0
M  V30 680 C 61.5121 -2.25574 0.644476 0
M  V30 681 C 62.5281 -1.70845 -0.329826 0
M  V30 682 O 63.7041 -2.00554 -0.184443 0
M  V30 683 C 60.7691 -3.46697 0.014877 0
M  V30 684 C 59.8301 -4.16554 1.03834 0
M  V30 685 C 59.0631 -5.31894 0.438692 0
M  V30 686 O 59.2861 -5.65385 -0.754752 0
M  V30 687 O 58.2201 -5.90459 1.168 0
M  V30 688 H 62.0461 -2.61836 1.53869 0
M  V30 689 H 59.6311 -1.25352 0.812854 0
M  V30 690 H 61.5131 -4.20062 -0.335538 0
M  V30 691 H 60.1881 -3.12255 -0.853138 0
M  V30 692 H 59.0951 -3.45251 1.44057 0
M  V30 693 H 60.4281 -4.54998 1.87716 0
M  V30 694 N 62.0802 -0.821533 -1.34494 0
M  V30 695 C 63.4962 -0.507117 -1.51329 0
M  V30 696 C 63.6962 0.968964 -1.76673 0
M  V30 697 O 62.7522 1.75348 -1.81685 0
M  V30 698 C 64.0652 -1.36544 -2.67911 0
M  V30 699 C 65.6132 -1.36242 -2.81793 0
M  V30 700 C 66.0882 -2.2052 -4.01416 0
M  V30 701 N 67.5792 -2.18136 -4.08621 0
M  V30 702 C 68.3142 -2.80095 -5.00334 0
M  V30 703 N 67.8102 -3.51039 -5.9728 0
M  V30 704 N 69.6032 -2.69656 -4.93196 0
M  V30 705 H 61.7542 -1.77729 -1.16302 0
M  V30 706 H 64.0172 -0.757291 -0.570276 0
M  V30 707 H 63.7232 -2.41361 -2.55808 0
M  V30 708 H 63.5972 -1.02917 -3.62888 0
M  V30 709 H 65.9842 -0.322041 -2.93338 0
M  V30 710 H 66.0652 -1.73866 -1.87628 0
M  V30 711 H 65.7092 -3.24607 -3.90631 0
M  V30 712 H 65.6392 -1.80247 -4.94791 0
M  V30 713 H 68.1302 -1.6653 -3.39229 0
M  V30 714 H 68.4432 -3.95565 -6.63889 0
M  V30 715 H 66.7882 -3.55145 -5.97409 0
M  V30 716 H 69.9792 -2.13808 -4.16418 0
M  V30 717 H 70.1522 -3.1823 -5.64476 0
M  V30 718 N 63.5583 1.46682 -0.576371 0
M  V30 719 C 64.7833 2.07304 -0.0630475 0
M  V30 720 C 65.2083 1.42329 1.2298 0
M  V30 721 O 64.5663 0.504865 1.74129 0
M  V30 722 C 64.6143 3.60472 0.095895 0
M  V30 723 O 63.7183 3.95927 1.15394 0
M  V30 724 H 63.0593 0.661288 -0.0599463 0
M  V30 725 H 65.5893 1.88417 -0.797511 0
M  V30 726 H 65.5993 4.06865 0.304071 0
M  V30 727 H 64.2743 4.07157 -0.84828 0
M  V30 728 H 62.8513 3.61252 0.924724 0
M  V30 729 N 65.0364 0.313813 1.54444 0
M  V30 730 C 65.9664 -0.549454 2.26943 0
M  V30 731 C 66.9474 -1.12741 1.27372 0
M  V30 732 O 68.1324 -1.15436 1.56167 0
M  V30 733 C 65.2624 -1.71523 3.01989 0
M  V30 734 C 64.2164 -1.26703 4.08816 0
M  V30 735 C 63.5424 -2.51898 4.71647 0
M  V30 736 C 64.8424 -0.388962 5.2085 0
M  V30 737 H 66.5364 0.0552661 2.99349 0
M  V30 738 H 64.0824 0.0280207 1.43973 0
M  V30 739 H 66.0354 -2.32535 3.51433 0
M  V30 740 H 64.7594 -2.34639 2.27183 0
M  V30 741 H 63.4184 -0.679896 3.6024 0
M  V30 742 H 63.0664 -3.13356 3.93468 0
M  V30 743 H 62.7664 -2.22605 5.43802 0
M  V30 744 H 64.2904 -3.1369 5.23861 0
M  V30 745 H 65.7044 -0.905107 5.6611 0
M  V30 746 H 64.1014 -0.18924 5.99802 0
M  V30 747 H 65.1714 0.582699 4.81386 0
M  V30 748 N 66.5145 -1.57545 0.0417849 0
M  V30 749 C 67.4775 -2.09885 -0.92093 0
M  V30 750 C 68.4775 -1.01648 -1.24596 0
M  V30 751 O 69.6675 -1.27759 -1.1842 0
M  V30 752 C 66.7995 -2.57527 -2.23367 0
M  V30 753 H 67.9925 -2.96236 -0.467382 0
M  V30 754 H 65.5455 -1.5493 -0.206467 0
M  V30 755 H 66.2805 -1.74542 -2.73323 0
M  V30 756 H 66.0655 -3.36613 -2.01083 0
M  V30 757 H 67.5555 -2.98201 -2.92346 0
M  V30 758 N 67.9926 0.231505 -1.5589 0
M  V30 759 C 69.2386 0.954429 -1.79617 0
M  V30 760 C 69.5936 1.82367 -0.613199 0
M  V30 761 O 68.8866 1.87524 0.393094 0
M  V30 762 C 69.0806 1.83577 -3.0665 0
M  V30 763 C 68.9096 1.05334 -4.3719 0
M  V30 764 C 67.6796 0.75225 -4.99669 0
M  V30 765 C 69.8776 0.423444 -5.12554 0
M  V30 766 N 67.8596 -0.052627 -6.13877 0
M  V30 767 C 69.2306 -0.245287 -6.19515 0
M  V30 768 C 71.2856 0.335466 -4.96769 0
M  V30 769 C 69.9886 -0.993566 -7.12405 0
M  V30 770 C 72.0146 -0.399321 -5.9005 0
M  V30 771 C 71.3766 -1.05663 -6.9643 0
M  V30 772 H 67.4756 0.329846 -0.709031 0
M  V30 773 H 70.0596 0.226172 -1.93382 0
M  V30 774 H 68.2306 2.53592 -2.94186 0
M  V30 775 H 69.9626 2.49541 -3.18608 0
M  V30 776 H 66.7176 1.06783 -4.61405 0
M  V30 777 H 67.1416 -0.443609 -6.75545 0
M  V30 778 H 71.7836 0.829311 -4.14587 0
M  V30 779 H 69.5016 -1.49896 -7.94076 0
M  V30 780 H 73.0876 -0.468265 -5.79913 0
M  V30 781 H 71.9676 -1.61612 -7.67366 0
M  V30 782 N 69.4707 1.49531 0.497807 0
M  V30 783 C 70.8867 1.36365 0.829266 0
M  V30 784 C 71.0867 0.399184 1.97506 0
M  V30 785 O 70.1427 -0.167977 2.51941 0
M  V30 786 C 71.4557 2.77153 1.16647 0
M  V30 787 C 73.0037 2.85877 1.27449 0
M  V30 788 C 73.4787 4.2744 1.64497 0
M  V30 789 N 74.9697 4.30265 1.7154 0
M  V30 790 C 75.7047 5.3677 2.01656 0
M  V30 791 N 75.2007 6.53516 2.29976 0
M  V30 792 N 76.9937 5.24189 2.02934 0
M  V30 793 H 69.1447 2.10831 -0.257703 0
M  V30 794 H 71.4077 0.946534 -0.0527091 0
M  V30 795 H 71.1137 3.49442 0.397872 0
M  V30 796 H 70.9877 3.12722 2.10915 0
M  V30 797 H 73.3747 2.13824 2.0338 0
M  V30 798 H 73.4557 2.53887 0.312244 0
M  V30 799 H 73.0997 5.00021 0.891151 0
M  V30 800 H 73.0297 4.56896 2.61827 0
M  V30 801 H 75.5207 3.4607 1.51802 0
M  V30 802 H 75.8337 7.30506 2.52153 0
M  V30 803 H 74.1787 6.56737 2.27425 0
M  V30 804 H 77.3697 4.31988 1.80289 0
M  V30 805 H 77.5427 6.07286 2.26071 0
M  V30 806 N 70.9488 -0.749086 1.3866 0
M  V30 807 C 71.8788 -1.8764 1.38973 0
M  V30 808 C 72.8598 -1.68178 0.255004 0
M  V30 809 O 74.0448 -1.88704 0.458754 0
M  V30 810 C 71.1748 -3.25222 1.21851 0
M  V30 811 C 70.1288 -3.59295 2.32575 0
M  V30 812 C 69.4548 -4.95663 2.00555 0
M  V30 813 C 70.7548 -3.63709 3.7485 0
M  V30 814 H 72.4488 -1.87635 2.3331 0
M  V30 815 H 69.9948 -0.901329 1.12303 0
M  V30 816 H 71.9478 -4.03746 1.20695 0
M  V30 817 H 70.6718 -3.25719 0.239775 0
M  V30 818 H 69.3308 -2.83093 2.32925 0
M  V30 819 H 68.9788 -4.92724 1.01154 0
M  V30 820 H 68.6788 -5.19429 2.74714 0
M  V30 821 H 70.2028 -5.7656 2.01024 0
M  V30 822 H 71.6168 -4.32338 3.76506 0
M  V30 823 H 70.0138 -3.98986 4.48252 0
M  V30 824 H 71.0838 -2.63834 4.06841 0
M  V30 825 N 72.4269 -1.23603 -0.977757 0
M  V30 826 C 73.3569 -1.04401 -2.0886 0
M  V30 827 C 74.3379 0.0399052 -1.70053 0
M  V30 828 O 75.5229 -0.125246 -1.93796 0
M  V30 829 C 72.6529 -0.637269 -3.41403 0
M  V30 830 C 71.6069 -1.66883 -3.94124 0
M  V30 831 C 70.9329 -1.11745 -5.22893 0
M  V30 832 C 72.2329 -3.06247 -4.23096 0
M  V30 833 H 73.9269 -1.97316 -2.25182 0
M  V30 834 H 71.4729 -0.950096 -1.08209 0
M  V30 835 H 73.4259 -0.48998 -4.18542 0
M  V30 836 H 72.1499 0.327557 -3.24953 0
M  V30 837 H 70.8089 -1.80416 -3.19133 0
M  V30 838 H 70.4569 -0.143527 -5.02795 0
M  V30 839 H 70.1569 -1.80672 -5.59134 0
M  V30 840 H 71.6809 -0.982067 -6.02651 0
M  V30 841 H 73.0949 -2.96001 -4.90975 0
M  V30 842 H 71.4919 -3.72436 -4.70544 0
M  V30 843 H 72.5619 -3.55041 -3.30263 0
M  V30 844 N 73.905 1.17692 -1.04816 0
M  V30 845 C 74.815 2.25229 -0.65643 0
M  V30 846 C 75.831 1.71018 0.320761 0
M  V30 847 O 77.007 2.00649 0.173805 0
M  V30 848 C 74.072 3.46684 -0.0332629 0
M  V30 849 C 73.133 4.15997 -1.06042 0
M  V30 850 C 72.366 5.31654 -0.466893 0
M  V30 851 O 72.589 5.65777 0.724758 0
M  V30 852 O 71.523 5.89831 -1.1993 0
M  V30 853 H 75.349 2.61016 -1.55255 0
M  V30 854 H 72.934 1.24919 -0.81949 0
M  V30 855 H 74.816 4.20234 0.313256 0
M  V30 856 H 73.491 3.12703 0.836566 0
M  V30 857 H 72.398 3.44482 -1.45886 0
M  V30 858 H 73.731 4.53996 -1.90127 0
M  V30 859 N 75.3831 0.828654 1.34056 0
M  V30 860 C 76.3301 0.252567 2.29414 0
M  V30 861 C 77.3001 -0.62588 1.53857 0
M  V30 862 O 78.4851 -0.566312 1.82202 0
M  V30 863 C 75.6251 -0.574831 3.40279 0
M  V30 864 C 74.7381 0.326499 4.30764 0
M  V30 865 C 73.8731 -0.511016 5.28736 0
M  V30 866 C 72.9121 0.389342 6.1086 0
M  V30 867 N 72.0491 -0.409439 7.00905 0
M  V30 868 H 76.8891 1.07108 2.78086 0
M  V30 869 H 74.4261 0.539677 1.36843 0
M  V30 870 H 76.3841 -1.06992 4.03248 0
M  V30 871 H 75.0141 -1.35841 2.92826 0
M  V30 872 H 74.0661 0.939837 3.68607 0
M  V30 873 H 75.3781 1.01857 4.88289 0
M  V30 874 H 74.5321 -1.07035 5.97184 0
M  V30 875 H 73.2711 -1.23657 4.71763 0
M  V30 876 H 72.2761 0.960769 5.4134 0
M  V30 877 H 73.5011 1.1131 6.69916 0
M  V30 878 H 71.4471 -1.11856 6.46393 0
M  V30 879 H 71.3641 0.224126 7.55668 0
M  V30 880 H 72.6321 -0.951336 7.73673 0
M  V30 881 N 76.8612 -1.46375 0.584142 0
M  V30 882 C 77.8242 -2.28784 -0.138108 0
M  V30 883 C 78.8242 -1.38471 -0.817462 0
M  V30 884 O 80.0142 -1.60833 -0.669199 0
M  V30 885 C 77.1462 -3.18892 -1.20503 0
M  V30 886 H 78.3392 -2.94117 0.586127 0
M  V30 887 H 75.8922 -1.52509 0.342171 0
M  V30 888 H 76.6272 -2.58309 -1.96079 0
M  V30 889 H 76.4122 -3.85388 -0.722384 0
M  V30 890 H 77.9022 -3.80914 -1.71155 0
M  V30 891 N 78.3393 -0.321999 -1.54275 0
M  V30 892 C 79.5873 0.280489 -2.00144 0
M  V30 893 C 79.9083 1.52777 -1.21178 0
M  V30 894 O 79.1783 1.9338 -0.313187 0
M  V30 895 H 77.7583 0.106632 -0.73935 0
M  V30 896 H 80.4203 -0.438184 -1.8991 0
M  V30 897 H 79.5163 0.537972 -3.07428 0
M  V30 898 N 79.8174 1.5752 -0.0501392 0
M  V30 899 C 80.7804 2.1037 0.909786 0
M  V30 900 C 81.7804 1.02308 1.24056 0
M  V30 901 O 82.9704 1.28385 1.17741 0
M  V30 902 C 80.1024 2.58708 2.21998 0
M  V30 903 H 81.2954 2.96479 0.451665 0
M  V30 904 H 78.8484 1.55038 0.198248 0
M  V30 905 H 79.5834 1.75989 2.72394 0
M  V30 906 H 79.3684 3.37675 1.99295 0
M  V30 907 H 80.8584 2.99747 2.9076 0
M  V30 908 N 81.2955 -0.223234 1.56011 0
M  V30 909 C 82.5725 -0.972108 1.69733 0
M  V30 910 C 82.9525 -2.02485 0.59691 0
M  V30 911 O 82.3005 -2.25037 -0.396324 0
M  V30 912 C 82.5105 -1.58407 3.10979 0
M  V30 913 C 83.8585 -2.07696 3.70334 0
M  V30 914 O 84.8825 -1.68304 3.1393 0
M  V30 915 O 83.7415 -2.80096 4.69264 0
M  V30 916 H 80.8355 -0.453993 0.691245 0
M  V30 917 H 83.3815 -0.215149 1.68331 0
M  V30 918 H 82.1535 -0.823831 3.82529 0
M  V30 919 H 81.7765 -2.40661 3.16493 0
M  V30 920 N 82.7736 -1.49793 -0.48987 0
M  V30 921 C 84.1846 -1.52914 -1.07118 0
M  V30 922 C 84.5356 -0.321738 -1.93544 0
M  V30 923 O 83.6606 0.567338 -2.08831 0
M  V30 924 C 84.2556 -2.771 -1.94938 0
M  V30 925 C 82.8146 -2.82963 -2.48212 0
M  V30 926 C 81.9616 -2.46972 -1.26096 0
M  V30 927 H 84.9126 -1.56329 -0.273289 0
M  V30 928 H 84.9336 -2.57892 -2.79771 0
M  V30 929 H 84.4456 -3.64959 -1.32009 0
M  V30 930 H 82.5466 -1.99411 -3.14748 0
M  V30 931 H 82.6596 -3.85406 -2.84603 0
M  V30 932 H 81.0236 -1.98994 -1.58976 0
M  V30 933 H 81.8066 -3.37118 -0.648581 0
M  V30 934 N 84.2517 0.741722 -1.39055 0
M  V30 935 C 85.1987 1.85566 -1.37237 0
M  V30 936 C 86.1687 1.64457 -0.233072 0
M  V30 937 O 87.3537 1.85957 -0.427147 0
M  V30 938 C 84.4937 3.23004 -1.215 0
M  V30 939 C 83.6067 3.55864 -2.44918 0
M  V30 940 C 82.7417 4.82669 -2.21821 0
M  V30 941 C 81.7807 5.08351 -3.40948 0
M  V30 942 N 80.9177 6.26356 -3.17211 0
M  V30 943 H 85.7577 1.86455 -2.32462 0
M  V30 944 H 83.2947 0.911176 -1.15482 0
M  V30 945 H 85.2527 4.02331 -1.10389 0
M  V30 946 H 83.8827 3.21411 -0.29908 0
M  V30 947 H 82.9347 2.7129 -2.66657 0
M  V30 948 H 84.2467 3.70765 -3.33668 0
M  V30 949 H 83.4007 5.69962 -2.07914 0
M  V30 950 H 82.1397 4.69929 -1.30454 0
M  V30 951 H 81.1447 4.19522 -3.55361 0
M  V30 952 H 82.3697 5.22981 -4.33207 0
M  V30 953 H 80.3157 6.14917 -2.28502 0
M  V30 954 H 80.2327 6.41813 -3.99515 0
M  V30 955 H 81.5007 7.16506 -3.06984 0
M  V30 956 N 85.7298 1.2412 0.971189 0
M  V30 957 C 86.6928 1.03156 2.04674 0
M  V30 958 C 87.6928 -0.00990322 1.60797 0
M  V30 959 O 88.8828 0.230729 1.72665 0
M  V30 960 C 86.0148 0.562765 3.36223 0
M  V30 961 H 87.2078 1.98614 2.24705 0
M  V30 962 H 84.7608 1.06293 1.14593 0
M  V30 963 H 85.4958 -0.395176 3.21883 0
M  V30 964 H 85.2808 1.31441 3.69413 0
M  V30 965 H 86.7708 0.437015 4.15307 0
M  V30 966 N 87.2079 -1.17134 1.05439 0
M  V30 967 C 88.1379 -2.2342 0.678649 0
M  V30 968 C 89.1189 -1.66971 -0.32476 0
M  V30 969 O 90.3039 -1.93149 -0.201802 0
M  V30 970 C 87.4339 -3.47256 0.0552099 0
M  V30 971 C 86.3879 -4.16543 0.98365 0
M  V30 972 C 85.7139 -5.34231 0.223961 0
M  V30 973 C 87.0139 -4.68495 2.3089 0
M  V30 974 H 88.7079 -2.55105 1.56722 0
M  V30 975 H 86.2539 -1.2262 0.754998 0
M  V30 976 H 88.2069 -4.20828 -0.21946 0
M  V30 977 H 86.9309 -3.14846 -0.868319 0
M  V30 978 H 85.5899 -3.44887 1.24293 0
M  V30 979 H 85.2379 -4.98071 -0.702412 0
M  V30 980 H 84.9379 -5.81527 0.842627 0
M  V30 981 H 86.4619 -6.10585 -0.0433671 0
M  V30 982 H 87.8759 -5.33691 2.09396 0
M  V30 983 H 86.2729 -5.26379 2.88176 0
M  V30 984 H 87.3429 -3.85169 2.94572 0
M  V30 985 N 88.686 -0.835752 -1.33615 0
M  V30 986 C 89.633 -0.26473 -2.29277 0
M  V30 987 C 90.603 0.617712 -1.54187 0
M  V30 988 O 91.788 0.556641 -1.825 0
M  V30 989 C 88.928 0.556777 -3.40579 0
M  V30 990 C 88.041 -0.349339 -4.30585 0
M  V30 991 C 87.176 0.482969 -5.29 0
M  V30 992 C 86.215 -0.421732 -6.10645 0
M  V30 993 N 85.352 0.372262 -7.01112 0
M  V30 994 H 90.192 -1.08582 -2.77514 0
M  V30 995 H 87.729 -0.546927 -1.36554 0
M  V30 996 H 89.687 1.04852 -4.03809 0
M  V30 997 H 88.317 1.34286 -2.93542 0
M  V30 998 H 87.369 -0.959372 -3.68104 0
M  V30 999 H 88.681 -1.04445 -4.87742 0
M  V30 1000 H 87.835 1.03866 -5.97743 0
M  V30 1001 H 86.574 1.21153 -4.72412 0
M  V30 1002 H 85.579 -0.989464 -5.40823 0
M  V30 1003 H 86.804 -1.14861 -6.69316 0
M  V30 1004 H 84.75 1.08426 -6.46977 0
M  V30 1005 H 84.667 -0.264198 -7.55538 0
M  V30 1006 H 85.935 0.910293 -7.74167 0
M  V30 1007 N 90.1641 1.46063 -0.591896 0
M  V30 1008 C 91.0741 2.34192 0.13831 0
M  V30 1009 C 92.0901 1.50305 0.876608 0
M  V30 1010 O 93.2661 1.8315 0.837728 0
M  V30 1011 C 90.3311 3.27656 1.13326 0
M  V30 1012 C 89.3921 4.27445 0.39863 0
M  V30 1013 C 88.6251 5.16443 1.34618 0
M  V30 1014 O 88.8481 5.08553 2.58321 0
M  V30 1015 O 87.7821 5.95843 0.851768 0
M  V30 1016 H 91.6081 2.98002 -0.58552 0
M  V30 1017 H 89.1931 1.45188 -0.352239 0
M  V30 1018 H 91.0751 3.85291 1.70671 0
M  V30 1019 H 89.7501 2.6643 1.83839 0
M  V30 1020 H 88.6571 3.73471 -0.216895 0
M  V30 1021 H 89.9901 4.91482 -0.265709 0
M  V30 1022 N 91.6422 0.330177 1.54103 0
M  V30 1023 C 92.5722 -0.525353 2.27513 0
M  V30 1024 C 93.5532 -1.11383 1.2856 0
M  V30 1025 O 94.7382 -1.13773 1.57383 0
M  V30 1026 C 91.8682 -1.6831 3.03791 0
M  V30 1027 C 90.8222 -1.2236 4.10137 0
M  V30 1028 C 90.1482 -2.46882 4.74293 0
M  V30 1029 C 91.4482 -0.333697 5.21233 0
M  V30 1030 H 93.1422 0.087013 2.99274 0
M  V30 1031 H 90.6882 0.0432893 1.43935 0
M  V30 1032 H 92.6412 -2.28795 3.5388 0
M  V30 1033 H 91.3652 -2.32216 2.29659 0
M  V30 1034 H 90.0242 -0.64165 3.60941 0
M  V30 1035 H 89.6722 -3.09165 3.96769 0
M  V30 1036 H 89.3722 -2.16825 5.46133 0
M  V30 1037 H 90.8962 -3.08117 5.27159 0
M  V30 1038 H 92.3102 -0.845013 5.67038 0
M  V30 1039 H 90.7072 -0.125612 5.99969 0
M  V30 1040 H 91.7772 0.633724 4.80741 0
M  V30 1041 N 93.1203 -1.57491 0.0584922 0
M  V30 1042 C 94.0523 -2.08916 -0.942694 0
M  V30 1043 C 95.0653 -1.0185 -1.27006 0
M  V30 1044 O 96.2543 -1.29398 -1.22957 0
M  V30 1045 C 93.3543 -2.52341 -2.26224 0
M  V30 1046 C 92.5273 -3.82827 -2.1157 0
M  V30 1047 C 91.5863 -4.12487 -3.26712 0
M  V30 1048 O 90.6123 -4.82295 -3.02292 0
M  V30 1049 N 91.8143 -3.64978 -4.5141 0
M  V30 1050 H 94.5793 -2.95437 -0.503722 0
M  V30 1051 H 92.1403 -1.61397 -0.12757 0
M  V30 1052 H 94.1323 -2.69254 -3.02133 0
M  V30 1053 H 92.7023 -1.7103 -2.61663 0
M  V30 1054 H 91.9223 -3.75425 -1.20208 0
M  V30 1055 H 93.2103 -4.68263 -1.99015 0
M  V30 1056 H 92.6083 -3.08558 -4.7414 0
M  V30 1057 H 91.1653 -3.87115 -5.2439 0
M  V30 1058 N 94.5984 0.214957 -1.56127 0
M  V30 1059 C 95.5084 1.28727 -1.96129 0
M  V30 1060 C 96.5244 1.50916 -0.866044 0
M  V30 1061 O 97.7004 1.63918 -1.17016 0
M  V30 1062 C 94.7654 2.61569 -2.27558 0
M  V30 1063 C 93.8264 2.47625 -3.50685 0
M  V30 1064 C 93.0594 3.74132 -3.80606 0
M  V30 1065 O 93.2824 4.77438 -3.12104 0
M  V30 1066 O 92.2164 3.70849 -4.74083 0
M  V30 1067 H 96.0424 0.977855 -2.87527 0
M  V30 1068 H 93.6274 0.418358 -1.43423 0
M  V30 1069 H 95.5094 3.40012 -2.48938 0
M  V30 1070 H 94.1844 2.92178 -1.39332 0
M  V30 1071 H 93.0914 1.67361 -3.34576 0
M  V30 1072 H 94.4244 2.21954 -4.39315 0
M  V30 1073 N 96.0765 1.50051 0.48192 0
M  V30 1074 C 97.4925 1.37237 0.814756 0
M  V30 1075 C 97.6925 0.420109 1.97072 0
M  V30 1076 O 96.7485 -0.141246 2.52105 0
M  V30 1077 C 98.0615 2.78375 1.13701 0
M  V30 1078 C 99.6095 2.87213 1.2441 0
M  V30 1079 C 100.084 4.29161 1.59954 0
M  V30 1080 N 101.575 4.32061 1.66967 0
M  V30 1081 C 102.31 5.38879 1.95952 0
M  V30 1082 N 101.806 6.55918 2.23031 0
M  V30 1083 N 103.599 5.26312 1.97363 0
M  V30 1084 H 95.7505 2.10546 -0.28005 0
M  V30 1085 H 98.0135 0.945921 -0.0627454 0
M  V30 1086 H 97.7195 3.49845 0.360787 0
M  V30 1087 H 97.5935 3.14941 2.07586 0
M  V30 1088 H 99.9805 2.15969 2.01101 0
M  V30 1089 H 100.061 2.54204 0.285299 0
M  V30 1090 H 99.7055 5.00938 0.838067 0
M  V30 1091 H 99.6355 4.59648 2.56966 0
M  V30 1092 H 102.126 3.47661 1.48123 0
M  V30 1093 H 102.439 7.33139 2.44391 0
M  V30 1094 H 100.784 6.59112 2.20447 0
M  V30 1095 H 103.975 4.33876 1.75697 0
M  V30 1096 H 104.148 6.09649 2.19618 0
M  V30 1097 N 97.5546 -0.734337 1.39446 0
M  V30 1098 C 98.4646 -1.87879 1.40495 0
M  V30 1099 C 99.4806 -1.714 0.299672 0
M  V30 1100 O 100.657 -1.93991 0.541249 0
M  V30 1101 C 97.7216 -3.23477 1.24754 0
M  V30 1102 C 96.7826 -3.52344 2.45259 0
M  V30 1103 C 96.0156 -4.81473 2.30259 0
M  V30 1104 O 96.2386 -5.55237 1.30643 0
M  V30 1105 O 95.1726 -5.10254 3.19256 0
M  V30 1106 H 98.9986 -1.89949 2.36966 0
M  V30 1107 H 96.5836 -0.882243 1.20569 0
M  V30 1108 H 98.4656 -4.04509 1.18111 0
M  V30 1109 H 97.1406 -3.22176 0.313781 0
M  V30 1110 H 96.0476 -2.71396 2.57478 0
M  V30 1111 H 97.3806 -3.58426 3.37331 0
M  V30 1112 N 99.0327 -1.24633 -0.964593 0
M  V30 1113 C 99.9627 -1.06611 -2.07741 0
M  V30 1114 C 100.944 0.0218666 -1.70086 0
M  V30 1115 O 102.129 -0.145793 -1.93652 0
M  V30 1116 C 99.2587 -0.673444 -3.40708 0
M  V30 1117 C 98.2127 -1.71054 -3.92332 0
M  V30 1118 C 97.5387 -1.17285 -5.21678 0
M  V30 1119 C 98.8387 -3.10718 -4.19824 0
M  V30 1120 H 100.533 -1.99693 -2.23076 0
M  V30 1121 H 98.0787 -0.96152 -1.07195 0
M  V30 1122 H 100.032 -0.534345 -4.17998 0
M  V30 1123 H 98.7557 0.293073 -3.25282 0
M  V30 1124 H 97.4147 -1.83791 -3.17201 0
M  V30 1125 H 97.0627 -0.196847 -5.02615 0
M  V30 1126 H 96.7627 -1.86592 -5.57187 0
M  V30 1127 H 98.2867 -1.04593 -6.01575 0
M  V30 1128 H 99.7007 -3.01192 -4.87808 0
M  V30 1129 H 98.0977 -3.77406 -4.66567 0
M  V30 1130 H 99.1677 -3.58524 -3.26479 0
M  V30 1131 N 100.511 1.16574 -1.06058 0
M  V30 1132 C 101.474 2.19085 -0.673392 0
M  V30 1133 C 102.474 1.5835 0.279648 0
M  V30 1134 O 103.664 1.74088 0.0623488 0
M  V30 1135 C 100.796 3.40899 0.00954234 0
M  V30 1136 H 101.989 2.54853 -1.58081 0
M  V30 1137 H 99.5418 1.30808 -0.855516 0
M  V30 1138 H 100.277 3.10684 0.929826 0
M  V30 1139 H 100.062 3.86233 -0.67573 0
M  V30 1140 H 101.552 4.1675 0.266245 0
M  V30 1141 N 101.989 0.842826 1.3317 0
M  V30 1142 C 103.405 0.531128 1.50503 0
M  V30 1143 C 103.605 -0.940734 1.78192 0
M  V30 1144 O 102.661 -1.72436 1.84451 0
M  V30 1145 C 103.974 1.40789 2.65705 0
M  V30 1146 C 105.522 1.40708 2.79589 0
M  V30 1147 C 105.997 2.26878 3.97857 0
M  V30 1148 N 107.488 2.24609 4.05099 0
M  V30 1149 C 108.223 2.88019 4.95815 0
M  V30 1150 N 107.719 3.60496 5.9162 0
M  V30 1151 N 109.512 2.77469 4.88843 0
M  V30 1152 H 101.663 1.79557 1.1346 0
M  V30 1153 H 103.926 0.766267 0.558156 0
M  V30 1154 H 103.632 2.454 2.51936 0
M  V30 1155 H 103.506 1.08677 3.61205 0
M  V30 1156 H 105.893 0.368668 2.92788 0
M  V30 1157 H 105.974 1.76829 1.84838 0
M  V30 1158 H 105.618 3.3078 3.85418 0
M  V30 1159 H 105.548 1.88096 4.91861 0
M  V30 1160 H 108.039 1.71906 3.36536 0
M  V30 1161 H 108.352 4.06076 6.57512 0
M  V30 1162 H 106.697 3.64604 5.91683 0
M  V30 1163 H 109.888 2.20406 4.12963 0
M  V30 1164 H 110.061 3.2717 5.59342 0
M  V30 1165 N 103.467 -1.45747 0.599634 0
M  V30 1166 C 104.397 -2.33235 -0.111306 0
M  V30 1167 C 105.378 -1.46359 -0.866781 0
M  V30 1168 O 106.563 -1.75146 -0.838904 0
M  V30 1169 C 103.693 -3.28932 -1.11451 0
M  V30 1170 C 102.647 -4.25381 -0.472772 0
M  V30 1171 C 101.973 -5.1071 -1.58365 0
M  V30 1172 C 103.273 -5.18831 0.600948 0
M  V30 1173 H 104.967 -2.92927 0.61919 0
M  V30 1174 H 102.513 -1.40857 0.299215 0
M  V30 1175 H 104.466 -3.89002 -1.62036 0
M  V30 1176 H 103.19 -2.67381 -1.8755 0
M  V30 1177 H 101.849 -3.66598 0.0121472 0
M  V30 1178 H 101.497 -4.45533 -2.33473 0
M  V30 1179 H 101.197 -5.7604 -1.15982 0
M  V30 1180 H 102.721 -5.73647 -2.09194 0
M  V30 1181 H 104.135 -5.73019 0.179491 0
M  V30 1182 H 102.532 -5.92595 0.946076 0
M  V30 1183 H 103.602 -4.6174 1.48068 0
M  V30 1184 N 104.945 -0.338344 -1.53925 0
M  V30 1185 C 106.356 0.146651 -1.86123 0
M  V30 1186 C 106.707 1.5042 -1.2597 0
M  V30 1187 O 105.832 2.08723 -0.571294 0
M  V30 1188 C 106.427 0.272879 -3.37699 0
M  V30 1189 C 104.986 0.702103 -3.69794 0
M  V30 1190 C 104.133 -0.167304 -2.76795 0
M  V30 1191 H 107.084 -0.558123 -1.48562 0
M  V30 1192 H 107.105 1.10128 -3.64214 0
M  V30 1193 H 106.617 -0.715307 -3.81451 0
M  V30 1194 H 104.718 1.6995 -3.31584 0
M  V30 1195 H 104.831 0.495604 -4.7653 0
M  V30 1196 H 103.195 0.359527 -2.5215 0
M  V30 1197 H 103.978 -1.15253 -3.23375 0
M  V30 1198 N 106.423 1.57458 -0.0668435 0
M  V30 1199 C 107.37 2.12439 0.902122 0
M  V30 1200 C 108.34 1.03565 1.2986 0
M  V30 1201 O 109.525 1.312 1.38532 0
M  V30 1202 C 106.665 2.6865 2.16614 0
M  V30 1203 C 105.778 3.91663 1.82274 0
M  V30 1204 C 104.913 4.36134 3.0325 0
M  V30 1205 C 103.952 5.51808 2.64904 0
M  V30 1206 N 103.089 5.9126 3.78624 0
M  V30 1207 H 107.929 2.94934 0.426382 0
M  V30 1208 H 105.466 1.4575 0.198819 0
M  V30 1209 H 107.424 2.99346 2.90599 0
M  V30 1210 H 106.054 1.88928 2.61737 0
M  V30 1211 H 105.106 3.6746 0.983719 0
M  V30 1212 H 106.418 4.75693 1.50059 0
M  V30 1213 H 105.572 4.68465 3.85519 0
M  V30 1214 H 104.311 3.50948 3.38655 0
M  V30 1215 H 103.316 5.19133 1.81055 0
M  V30 1216 H 104.541 6.38722 2.30675 0
M  V30 1217 H 102.487 5.09024 4.138 0
M  V30 1218 H 102.404 6.70018 3.5016 0
M  V30 1219 H 103.672 6.28212 4.61486 0
M  V30 1220 N 107.901 -0.206675 1.56239 0
M  V30 1221 C 109.147 -0.930218 1.80208 0
M  V30 1222 C 109.48 -1.83387 0.638981 0
M  V30 1223 O 108.755 -1.91119 -0.361066 0
M  V30 1224 C 109.038 -1.75641 3.1436 0
M  V30 1225 C 108.891 -0.878257 4.41142 0
M  V30 1226 C 110.21 -2.73129 3.45092 0
M  V30 1227 H 107.329 -0.336742 0.655571 0
M  V30 1228 H 109.971 -0.198222 1.88963 0
M  V30 1229 H 108.121 -2.38048 3.07027 0
M  V30 1230 H 109.793 -0.269787 4.6051 0
M  V30 1231 H 108.036 -0.184385 4.33408 0
M  V30 1232 H 108.707 -1.49106 5.3148 0
M  V30 1233 H 111.183 -2.20856 3.52649 0
M  V30 1234 H 110.059 -3.28028 4.40101 0
M  V30 1235 H 110.32 -3.51606 2.68003 0
M  V30 1236 N 109.379 -1.50304 -0.473955 0
M  V30 1237 C 110.289 -1.7174 -1.5982 0
M  V30 1238 C 111.305 -0.600457 -1.63311 0
M  V30 1239 O 112.481 -0.878441 -1.81233 0
M  V30 1240 C 109.546 -1.80427 -2.96052 0
M  V30 1241 C 108.607 -3.04148 -3.02972 0
M  V30 1242 C 107.84 -3.12411 -4.32706 0
M  V30 1243 O 108.063 -2.27542 -5.23049 0
M  V30 1244 O 106.997 -4.05113 -4.45159 0
M  V30 1245 H 110.823 -2.67035 -1.44657 0
M  V30 1246 H 108.408 -1.34366 -0.653148 0
M  V30 1247 H 110.29 -1.88338 -3.7697 0
M  V30 1248 H 108.965 -0.883156 -3.11419 0
M  V30 1249 H 107.872 -3.0174 -2.21142 0
M  V30 1250 H 109.205 -3.95829 -2.92541 0
M  V30 1251 N 110.857 0.726932 -1.39834 0
M  V30 1252 C 112.105 1.4837 -1.37225 0
M  V30 1253 C 112.426 1.94979 0.0284857 0
M  V30 1254 O 111.696 1.69555 0.981213 0
M  V30 1255 H 110.276 0.55043 -0.505011 0
M  V30 1256 H 112.938 0.862468 -1.74778 0
M  V30 1257 H 112.034 2.36198 -2.04003 0
M  V30 1258 N 112.336 1.25143 0.95797 0
M  V30 1259 C 113.299 1.05321 2.03569 0
M  V30 1260 C 114.299 0.007152 1.60798 0
M  V30 1261 O 115.489 0.24903 1.72411 0
M  V30 1262 C 112.621 0.598394 3.35607 0
M  V30 1263 H 113.814 2.00986 2.22586 0
M  V30 1264 H 111.367 1.07502 1.13459 0
M  V30 1265 H 112.102 -0.361014 3.22284 0
M  V30 1266 H 111.887 1.35351 3.67998 0
M  V30 1267 H 113.377 0.48104 4.1482 0
M  V30 1268 N 113.814 -1.1601 1.06675 0
M  V30 1269 C 114.724 -2.24156 0.692179 0
M  V30 1270 C 115.74 -1.71507 -0.293513 0
M  V30 1271 O 116.916 -2.009 -0.141861 0
M  V30 1272 C 113.981 -3.46587 0.0884131 0
M  V30 1273 C 113.042 -4.14257 1.12646 0
M  V30 1274 C 112.275 -5.30844 0.551416 0
M  V30 1275 O 112.498 -5.66858 -0.634656 0
M  V30 1276 O 111.432 -5.87848 1.29298 0
M  V30 1277 H 115.258 -2.58513 1.59388 0
M  V30 1278 H 112.843 -1.23599 0.83926 0
M  V30 1279 H 114.725 -4.20679 -0.246361 0
M  V30 1280 H 113.4 -3.13994 -0.786712 0
M  V30 1281 H 112.307 -3.42118 1.51348 0
M  V30 1282 H 113.64 -4.50914 1.97325 0
M  V30 1283 N 115.292 -0.849877 -1.32721 0
M  V30 1284 C 116.538 -0.451591 -1.97708 0
M  V30 1285 C 116.871 0.989175 -1.6712 0
M  V30 1286 O 116.146 1.69334 -0.956891 0
M  V30 1287 C 116.429 -0.685598 -3.53513 0
M  V30 1288 C 116.282 -2.17444 -3.93749 0
M  V30 1289 C 117.601 -0.138874 -4.39881 0
M  V30 1290 H 114.72 -0.16555 -0.718166 0
M  V30 1291 H 117.362 -1.06742 -1.57182 0
M  V30 1292 H 115.512 -0.161416 -3.88165 0
M  V30 1293 H 117.184 -2.76433 -3.693 0
M  V30 1294 H 115.427 -2.65476 -3.43081 0
M  V30 1295 H 116.098 -2.28888 -5.02309 0
M  V30 1296 H 118.574 -0.587068 -4.11938 0
M  V30 1297 H 117.45 -0.332213 -5.47894 0
M  V30 1298 H 117.711 0.95806 -4.31594 0
M  V30 1299 N 116.77 1.45427 -0.607355 0
M  V30 1300 C 118.018 2.01841 -0.102253 0
M  V30 1301 C 118.339 1.47832 1.27164 0
M  V30 1302 O 117.609 0.672497 1.83995 0
M  V30 1303 H 116.189 0.746188 -0.0348101 0
M  V30 1304 H 118.851 1.78229 -0.7887 0
M  V30 1305 H 117.947 3.12057 -0.0518585 0
M  V30 1306 N 118.248 0.346503 1.53744 0
M  V30 1307 C 119.18 -0.543316 2.22667 0
M  V30 1308 C 120.193 -1.06159 1.23427 0
M  V30 1309 O 121.382 -0.971235 1.49764 0
M  V30 1310 C 118.482 -1.76076 2.89569 0
M  V30 1311 C 117.655 -1.37727 4.15151 0
M  V30 1312 C 116.714 -2.45471 4.65436 0
M  V30 1313 O 115.74 -2.08655 5.29577 0
M  V30 1314 N 116.942 -3.7677 4.41616 0
M  V30 1315 H 119.707 0.0469703 2.99663 0
M  V30 1316 H 117.268 0.170766 1.60997 0
M  V30 1317 H 119.26 -2.47593 3.20125 0
M  V30 1318 H 117.83 -2.25835 2.16142 0
M  V30 1319 H 117.05 -0.492746 3.91108 0
M  V30 1320 H 118.338 -1.09708 4.96832 0
M  V30 1321 H 117.736 -4.09467 3.90325 0
M  V30 1322 H 116.293 -4.44448 4.7677 0
M  V30 1323 N 119.726 -1.57421 0.075193 0
M  V30 1324 C 120.956 -1.97659 -0.601203 0
M  V30 1325 C 121.364 -0.952427 -1.63479 0
M  V30 1326 O 120.707 0.0688241 -1.83571 0
M  V30 1327 C 120.769 -3.34218 -1.32434 0
M  V30 1328 C 120.433 -4.5484 -0.443826 0
M  V30 1329 C 121.43 -5.19034 0.299969 0
M  V30 1330 C 119.115 -5.00952 -0.367709 0
M  V30 1331 C 121.109 -6.27695 1.10807 0
M  V30 1332 C 118.796 -6.09484 0.444058 0
M  V30 1333 C 119.794 -6.72719 1.18061 0
M  V30 1334 O 119.482 -7.79161 1.97898 0
M  V30 1335 H 119.214 -0.65494 -0.167422 0
M  V30 1336 H 121.768 -2.04886 0.145157 0
M  V30 1337 H 119.998 -3.23615 -2.11685 0
M  V30 1338 H 121.687 -3.59038 -1.89331 0
M  V30 1339 H 122.453 -4.84351 0.250776 0
M  V30 1340 H 118.332 -4.51509 -0.930638 0
M  V30 1341 H 121.876 -6.76982 1.68347 0
M  V30 1342 H 117.773 -6.43601 0.494803 0
M  V30 1343 H 118.541 -7.96055 1.90367 0
M  V30 1344 N 121.204 0.198386 -1.56346 0
M  V30 1345 C 122.134 1.24865 -1.9731 0
M  V30 1346 C 123.115 1.47651 -0.844576 0
M  V30 1347 O 124.3 1.59444 -1.10866 0
M  V30 1348 C 121.43 2.59358 -2.30977 0
M  V30 1349 C 120.384 2.5119 -3.46537 0
M  V30 1350 C 119.71 3.89926 -3.65871 0
M  V30 1351 C 121.01 2.03977 -4.80823 0
M  V30 1352 H 122.704 0.908252 -2.85291 0
M  V30 1353 H 120.25 0.435462 -1.37258 0
M  V30 1354 H 122.203 3.33011 -2.58228 0
M  V30 1355 H 120.927 2.95132 -1.39874 0
M  V30 1356 H 119.586 1.79993 -3.19371 0
M  V30 1357 H 119.234 4.23046 -2.72105 0
M  V30 1358 H 118.934 3.85336 -4.4361 0
M  V30 1359 H 120.458 4.65205 -3.95495 0
M  V30 1360 H 121.872 2.67386 -5.07127 0
M  V30 1361 H 120.269 2.10397 -5.62008 0
M  V30 1362 H 121.339 0.992861 -4.74626 0
M  V30 1363 N 122.682 1.50554 0.465978 0
M  V30 1364 C 123.91 1.65563 1.24083 0
M  V30 1365 C 124.325 0.341051 1.85694 0
M  V30 1366 O 123.682 -0.677543 1.69457 0
M  V30 1367 C 123.733 2.75051 2.34583 0
M  V30 1368 O 123.454 4.01413 1.75497 0
M  V30 1369 C 124.955 3.01078 3.25372 0
M  V30 1370 H 122.175 0.55638 0.375077 0
M  V30 1371 H 124.719 1.96807 0.555624 0
M  V30 1372 H 122.874 2.46486 2.9887 0
M  V30 1373 H 123.288 4.62002 2.48303 0
M  V30 1374 H 124.762 3.81339 3.99105 0
M  V30 1375 H 125.239 2.12349 3.84453 0
M  V30 1376 H 125.845 3.31194 2.66816 0
M  V30 1377 N 124.16 -0.719506 1.40217 0
M  V30 1378 C 125.385 -1.51371 1.4178 0
M  V30 1379 C 125.81 -1.88091 0.0182355 0
M  V30 1380 O 125.168 -1.52997 -0.972707 0
M  V30 1381 C 125.216 -2.768 2.31115 0
M  V30 1382 O 124.32 -3.73349 1.7517 0
M  V30 1383 H 123.661 -0.456529 0.482159 0
M  V30 1384 H 126.191 -0.88644 1.844 0
M  V30 1385 H 126.201 -3.25371 2.46167 0
M  V30 1386 H 124.876 -2.49407 3.3282 0
M  V30 1387 H 123.453 -3.32179 1.69444 0
M  V30 1388 N 125.638 -1.25649 -0.95132 0
M  V30 1389 C 127.054 -1.02542 -1.223 0
M  V30 1390 C 127.254 0.255715 -1.99871 0
M  V30 1391 O 126.31 0.967558 -2.33226 0
M  V30 1392 C 127.623 -2.25065 -1.99415 0
M  V30 1393 C 129.171 -2.29861 -2.12446 0
M  V30 1394 C 129.646 -3.52048 -2.92961 0
M  V30 1395 N 131.137 -3.52465 -3.00538 0
M  V30 1396 C 131.872 -4.43672 -3.63239 0
M  V30 1397 N 131.368 -5.45157 -4.27523 0
M  V30 1398 N 133.161 -4.31346 -3.60412 0
M  V30 1399 H 125.312 -2.07951 -0.432471 0
M  V30 1400 H 127.575 -0.91339 -0.253816 0
M  V30 1401 H 127.281 -3.18194 -1.49817 0
M  V30 1402 H 127.155 -2.28502 -3.00111 0
M  V30 1403 H 129.542 -1.37252 -2.61239 0
M  V30 1404 H 129.623 -2.3044 -1.11044 0
M  V30 1405 H 129.267 -4.44981 -2.44856 0
M  V30 1406 H 129.197 -3.48715 -3.94596 0
M  V30 1407 H 131.688 -2.79056 -2.54826 0
M  V30 1408 H 132.001 -6.10958 -4.73234 0
M  V30 1409 H 130.346 -5.49025 -4.26141 0
M  V30 1410 H 133.537 -3.51288 -3.09377 0
M  V30 1411 H 133.71 -5.02624 -4.0899 0
M  V30 1412 N 127.117 1.15442 -1.07289 0
M  V30 1413 C 128.047 2.22312 -0.714107 0
M  V30 1414 C 129.028 1.67467 0.298155 0
M  V30 1415 O 130.213 1.93445 0.171048 0
M  V30 1416 C 127.343 3.47124 -0.110448 0
M  V30 1417 C 126.297 4.14926 -1.04979 0
M  V30 1418 C 125.623 5.33807 -0.308924 0
M  V30 1419 C 126.923 4.64762 -2.38314 0
M  V30 1420 H 128.617 2.5258 -1.6076 0
M  V30 1421 H 126.163 1.21404 -0.77441 0
M  V30 1422 H 128.116 4.21124 0.152482 0
M  V30 1423 H 126.84 3.16187 0.81812 0
M  V30 1424 H 125.499 3.42866 -1.29764 0
M  V30 1425 H 125.147 4.99126 0.623084 0
M  V30 1426 H 124.847 5.80113 -0.935036 0
M  V30 1427 H 126.371 6.10576 -0.0537771 0
M  V30 1428 H 127.785 5.30292 -2.1786 0
M  V30 1429 H 126.182 5.21728 -2.96514 0
M  V30 1430 H 127.252 3.80434 -3.00663 0
M  V30 1431 N 128.595 0.856903 1.32268 0
M  V30 1432 C 129.82 0.474569 2.01897 0
M  V30 1433 C 130.245 -0.921766 1.63967 0
M  V30 1434 O 129.603 -1.60589 0.84148 0
M  V30 1435 C 129.651 0.623799 3.55164 0
M  V30 1436 O 128.755 -0.342459 4.10976 0
M  V30 1437 H 128.096 0.190422 0.63611 0
M  V30 1438 H 130.626 1.15672 1.68764 0
M  V30 1439 H 130.636 0.512169 4.04773 0
M  V30 1440 H 129.311 1.64202 3.82113 0
M  V30 1441 H 127.888 -0.18688 3.72431 0
M  V30 1442 N 130.073 -1.45103 0.615059 0
M  V30 1443 C 131.321 -2.01784 0.112955 0
M  V30 1444 C 131.642 -1.48504 -1.26378 0
M  V30 1445 O 130.912 -0.682245 -1.83636 0
M  V30 1446 H 129.492 -0.745993 0.0387668 0
M  V30 1447 H 132.154 -1.77808 0.798141 0
M  V30 1448 H 131.25 -3.12025 0.0684069 0
M  V30 1449 N 131.551 -0.354651 -1.53558 0
M  V30 1450 C 132.514 0.484566 -2.24019 0
M  V30 1451 C 133.514 1.01861 -1.24422 0
M  V30 1452 O 134.704 0.906097 -1.4878 0
M  V30 1453 C 131.836 1.67615 -2.96847 0
M  V30 1454 H 133.029 -0.131843 -2.9961 0
M  V30 1455 H 130.582 -0.106165 -1.55939 0
M  V30 1456 H 131.317 2.33095 -2.25471 0
M  V30 1457 H 131.102 1.30029 -3.69912 0
M  V30 1458 H 132.592 2.27114 -3.50441 0
M  V30 1459 N 133.029 1.57378 -0.0835403 0
M  V30 1460 C 133.959 2.1641 0.87686 0
M  V30 1461 C 134.94 1.09429 1.30228 0
M  V30 1462 O 136.125 1.37516 1.37124 0
M  V30 1463 C 133.255 2.73517 2.14022 0
M  V30 1464 C 132.209 3.85769 1.85381 0
M  V30 1465 C 131.535 4.29529 3.18448 0
M  V30 1466 C 132.835 5.09486 1.14984 0
M  V30 1467 H 134.529 2.96914 0.385059 0
M  V30 1468 H 132.075 1.42823 0.18377 0
M  V30 1469 H 134.028 3.13463 2.81636 0
M  V30 1470 H 132.752 1.90252 2.65465 0
M  V30 1471 H 131.411 3.46345 1.20169 0
M  V30 1472 H 131.059 3.43169 3.67755 0
M  V30 1473 H 130.759 5.05204 3.00071 0
M  V30 1474 H 132.283 4.72099 3.8724 0
M  V30 1475 H 133.697 5.46674 1.72687 0
M  V30 1476 H 132.094 5.90515 1.06826 0
M  V30 1477 H 133.164 4.84724 0.130749 0
M  V30 1478 N 134.507 -0.190092 1.56449 0
M  V30 1479 C 135.455 -1.25501 1.95837 0
M  V30 1480 C 136.449 -1.4685 0.844485 0
M  V30 1481 O 137.655 -1.47651 1.02952 0
M  V30 1482 H 134.03 -0.421447 0.622805 0
M  V30 1483 H 136.001 -0.895821 2.84636 0
M  V30 1484 C 134.75 -2.59124 2.31841 0
M  V30 1485 H 134.073 -2.43514 3.17082 0
M  V30 1486 H 135.513 -3.32371 2.6326 0
M  V30 1487 C 133.972 -3.16488 1.15486 0
M  V30 1488 O 134.502 -3.99365 0.432535 0
M  V30 1489 N 132.708 -2.75305 0.930349 0
M  V30 1490 H 132.255 -2.08013 1.51948 0
M  V30 1491 H 132.213 -3.14024 0.153634 0
M  V30 1492 N 135.985 -1.50799 -0.457987 0
M  V30 1493 C 137.401 -1.38515 -0.792819 0
M  V30 1494 C 137.601 -0.451409 -1.96379 0
M  V30 1495 O 136.657 0.10112 -2.52297 0
M  V30 1496 C 137.97 -2.80149 -1.09258 0
M  V30 1497 C 139.518 -2.89156 -1.19825 0
M  V30 1498 C 139.993 -4.31651 -1.53106 0
M  V30 1499 N 141.484 -4.34662 -1.60072 0
M  V30 1500 C 142.219 -5.41928 -1.87354 0
M  V30 1501 N 141.715 -6.59384 -2.12568 0
M  V30 1502 N 143.508 -5.29385 -1.88965 0
M  V30 1503 H 135.659 -2.10073 0.313511 0
M  V30 1504 H 137.922 -0.944803 0.0777862 0
M  V30 1505 H 137.628 -3.50374 -0.305084 0
M  V30 1506 H 137.502 -3.18204 -2.02549 0
M  V30 1507 H 139.889 -2.19141 -1.97639 0
M  V30 1508 H 139.97 -2.54626 -0.244821 0
M  V30 1509 H 139.614 -5.02208 -0.758266 0
M  V30 1510 H 139.544 -4.63678 -2.49621 0
M  V30 1511 H 142.035 -3.49973 -1.42573 0
M  V30 1512 H 142.348 -7.36934 -2.32696 0
M  V30 1513 H 140.693 -6.62535 -2.09933 0
M  V30 1514 H 143.884 -4.36616 -1.68772 0
M  V30 1515 H 144.057 -6.13066 -2.09891 0
M  V30 1516 N 137.463 0.71206 -1.40597 0
M  V30 1517 C 138.426 1.80785 -1.40888 0
M  V30 1518 C 139.426 1.57937 -0.302103 0
M  V30 1519 O 140.616 1.64913 -0.561182 0
M  V30 1520 C 137.748 3.18927 -1.20409 0
M  V30 1521 H 138.941 1.81924 -2.38419 0
M  V30 1522 H 136.494 0.91805 -1.26497 0
M  V30 1523 H 137.229 3.23436 -0.236522 0
M  V30 1524 H 137.014 3.36911 -2.00582 0
M  V30 1525 H 138.504 3.98949 -1.23408 0
M  V30 1526 N 138.941 1.26152 0.944643 0
M  V30 1527 C 139.851 1.09176 2.07648 0
M  V30 1528 C 140.867 0.0261935 1.7398 0
M  V30 1529 O 142.043 0.229208 2.00091 0
M  V30 1530 C 139.108 0.722915 3.39079 0
M  V30 1531 C 138.169 1.86752 3.86552 0
M  V30 1532 C 137.402 1.51617 5.11711 0
M  V30 1533 O 137.625 0.416331 5.68879 0
M  V30 1534 O 136.559 2.34975 5.54139 0
M  V30 1535 H 140.385 2.0412 2.24875 0
M  V30 1536 H 137.97 1.05182 1.061 0
M  V30 1537 H 139.852 0.529787 4.18056 0
M  V30 1538 H 138.527 -0.197159 3.23099 0
M  V30 1539 H 137.434 2.11558 3.08535 0
M  V30 1540 H 138.767 2.76719 4.07047 0
M  V30 1541 N 140.419 -1.14872 1.07899 0
M  V30 1542 C 141.382 -2.17986 0.708161 0
M  V30 1543 C 142.382 -1.58775 -0.25442 0
M  V30 1544 O 143.572 -1.74166 -0.034645 0
M  V30 1545 C 140.704 -3.40871 0.0446929 0
M  V30 1546 H 141.897 -2.52306 1.62116 0
M  V30 1547 H 139.45 -1.2943 0.876218 0
M  V30 1548 H 140.185 -3.12124 -0.880281 0
M  V30 1549 H 139.97 -3.8511 0.737091 0
M  V30 1550 H 141.46 -4.17121 -0.19991 0
M  V30 1551 N 141.898 -0.863906 -1.31812 0
M  V30 1552 C 142.828 -0.330843 -2.31144 0
M  V30 1553 C 143.809 0.575005 -1.60087 0
M  V30 1554 O 144.994 0.493304 -1.8783 0
M  V30 1555 C 142.124 0.47374 -3.44054 0
M  V30 1556 C 141.078 -0.338481 -4.26659 0
M  V30 1557 C 140.404 0.591412 -5.31419 0
M  V30 1558 C 141.704 -1.56926 -4.98168 0
M  V30 1559 H 143.398 -1.16086 -2.75979 0
M  V30 1560 H 140.944 -0.559657 -1.32679 0
M  V30 1561 H 142.897 0.857143 -4.12591 0
M  V30 1562 H 141.621 1.33721 -2.9797 0
M  V30 1563 H 140.28 -0.703754 -3.59782 0
M  V30 1564 H 139.928 1.45199 -4.81587 0
M  V30 1565 H 139.628 0.0519022 -5.87577 0
M  V30 1566 H 141.152 0.97179 -6.02817 0
M  V30 1567 H 142.566 -1.25764 -5.59336 0
M  V30 1568 H 140.963 -2.04739 -5.64094 0
M  V30 1569 H 142.033 -2.32544 -4.25501 0
M  V30 1570 N 143.376 1.44774 -0.622745 0
M  V30 1571 C 144.309 2.27792 0.136329 0
M  V30 1572 C 145.287 1.38041 0.859264 0
M  V30 1573 O 146.471 1.67478 0.86506 0
M  V30 1574 C 143.598 3.16776 1.19878 0
M  V30 1575 C 142.644 4.22575 0.57731 0
M  V30 1576 S 143.477 5.31825 -0.626294 0
M  V30 1577 C 144.633 6.24377 0.436378 0
M  V30 1578 H 144.866 2.91824 -0.567967 0
M  V30 1579 H 142.399 1.48838 -0.410677 0
M  V30 1580 H 144.357 3.68596 1.80686 0
M  V30 1581 H 143.018 2.5198 1.87523 0
M  V30 1582 H 142.211 4.84818 1.37721 0
M  V30 1583 H 141.813 3.73974 0.0440439 0
M  V30 1584 H 144.105 6.64689 1.31128 0
M  V30 1585 H 145.048 7.07941 -0.150271 0
M  V30 1586 H 145.456 5.59381 0.758513 0
M  V30 1587 N 144.854 0.36279 1.53368 0
M  V30 1588 C 145.764 -0.492994 2.29362 0
M  V30 1589 C 146.78 -1.09507 1.35219 0
M  V30 1590 O 147.956 -1.10662 1.68273 0
M  V30 1591 C 145.021 -1.61855 3.066 0
M  V30 1592 C 144.082 -1.04429 4.16405 0
M  V30 1593 C 143.315 -2.11621 4.89951 0
M  V30 1594 O 143.538 -3.32684 4.63333 0
M  V30 1595 O 142.472 -1.74835 5.75948 0
M  V30 1596 H 146.298 0.125331 3.03441 0
M  V30 1597 H 143.883 0.127253 1.48857 0
M  V30 1598 H 145.765 -2.27302 3.54841 0
M  V30 1599 H 144.44 -2.22233 2.3536 0
M  V30 1600 H 143.347 -0.353819 3.72423 0
M  V30 1601 H 144.68 -0.485113 4.89804 0
M  V30 1602 N 146.332 -1.57332 0.0918853 0
M  V30 1603 C 147.242 -2.17368 -0.882505 0
M  V30 1604 C 148.258 -1.14226 -1.31257 0
M  V30 1605 O 149.434 -1.46582 -1.38115 0
M  V30 1606 C 146.499 -2.73962 -2.12476 0
M  V30 1607 C 145.56 -3.92048 -1.7492 0
M  V30 1608 C 144.793 -4.45933 -2.93223 0
M  V30 1609 O 145.016 -3.98764 -4.07852 0
M  V30 1610 O 143.95 -5.36999 -2.71875 0
M  V30 1611 H 147.776 -3.01031 -0.40172 0
M  V30 1612 H 145.361 -1.48813 -0.132291 0
M  V30 1613 H 147.243 -3.10147 -2.85283 0
M  V30 1614 H 145.918 -1.93347 -2.59613 0
M  V30 1615 H 144.825 -3.6068 -0.993025 0
M  V30 1616 H 146.158 -4.74017 -1.32548 0
M  V30 1617 N 147.81 0.181792 -1.56548 0
M  V30 1618 C 148.74 1.22765 -1.98623 0
M  V30 1619 C 149.721 1.46747 -0.860189 0
M  V30 1620 O 150.906 1.58259 -1.12551 0
M  V30 1621 C 148.036 2.56894 -2.33715 0
M  V30 1622 C 146.99 2.475 -3.49182 0
M  V30 1623 C 146.316 3.86023 -3.69986 0
M  V30 1624 C 147.616 1.98866 -4.82959 0
M  V30 1625 H 149.31 0.877942 -2.86239 0
M  V30 1626 H 146.856 0.42088 -1.37712 0
M  V30 1627 H 148.809 3.30253 -2.61746 0
M  V30 1628 H 147.533 2.93632 -1.42997 0
M  V30 1629 H 146.192 1.76596 -3.21262 0
M  V30 1630 H 145.84 4.20136 -2.76576 0
M  V30 1631 H 145.54 3.80609 -4.47672 0
M  V30 1632 H 147.064 4.60984 -4.00407 0
M  V30 1633 H 148.478 2.61992 -5.09934 0
M  V30 1634 H 146.875 2.04424 -5.64208 0
M  V30 1635 H 147.945 0.942465 -4.75653 0
M  V30 1636 N 149.288 1.51039 0.449983 0
M  V30 1637 C 150.235 1.71439 1.54523 0
M  V30 1638 C 151.205 0.555871 1.56522 0
M  V30 1639 O 152.39 0.788871 1.73728 0
M  V30 1640 C 149.53 1.83384 2.92343 0
M  V30 1641 C 148.643 3.10873 2.9997 0
M  V30 1642 C 147.778 3.13488 4.28834 0
M  V30 1643 C 146.817 4.35343 4.30282 0
M  V30 1644 N 145.954 4.35579 5.5065 0
M  V30 1645 H 150.794 2.64934 1.36433 0
M  V30 1646 H 148.331 1.31312 0.662982 0
M  V30 1647 H 150.289 1.88291 3.72293 0
M  V30 1648 H 148.919 0.933086 3.0902 0
M  V30 1649 H 147.971 3.15336 2.12761 0
M  V30 1650 H 149.283 4.00814 2.96901 0
M  V30 1651 H 148.437 3.17241 5.17149 0
M  V30 1652 H 147.176 2.21414 4.34543 0
M  V30 1653 H 146.181 4.3178 3.40362 0
M  V30 1654 H 147.406 5.28668 4.26248 0
M  V30 1655 H 145.352 3.46369 5.57104 0
M  V30 1656 H 145.269 5.19313 5.49409 0
M  V30 1657 H 146.537 4.43507 6.41032 0
M  V30 1658 N 150.766 -0.704594 1.40972 0
M  V30 1659 C 152.043 -1.45847 1.30338 0
M  V30 1660 C 152.423 -2.10973 -0.0732344 0
M  V30 1661 O 151.771 -2.00997 -1.08685 0
M  V30 1662 C 151.981 -2.48525 2.45023 0
M  V30 1663 C 153.329 -3.1404 2.8577 0
M  V30 1664 O 154.353 -2.58848 2.44696 0
M  V30 1665 O 153.212 -4.13981 3.56766 0
M  V30 1666 H 150.306 -0.649092 0.512454 0
M  V30 1667 H 152.852 -0.735836 1.52917 0
M  V30 1668 H 151.624 -1.98994 3.36923 0
M  V30 1669 H 151.247 -3.2831 2.24272 0
M  V30 1670 N 152.244 -1.26651 -0.937939 0
M  V30 1671 C 153.66 -1.03834 -1.21205 0
M  V30 1672 C 153.86 0.234502 -2.00131 0
M  V30 1673 O 152.916 0.942767 -2.3424 0
M  V30 1674 C 154.229 -2.27167 -1.97017 0
M  V30 1675 C 155.777 -2.32101 -2.09996 0
M  V30 1676 C 156.252 -3.55136 -2.8921 0
M  V30 1677 N 157.743 -3.55632 -2.96783 0
M  V30 1678 C 158.478 -4.475 -3.58512 0
M  V30 1679 N 157.974 -5.4966 -4.21717 0
M  V30 1680 N 159.767 -4.35145 -3.55816 0
M  V30 1681 H 151.918 -2.08398 -0.410391 0
M  V30 1682 H 154.181 -0.916031 -0.244114 0
M  V30 1683 H 153.887 -3.19765 -1.46434 0
M  V30 1684 H 153.761 -2.31672 -2.97671 0
M  V30 1685 H 156.148 -1.40015 -2.59769 0
M  V30 1686 H 156.229 -2.31605 -1.08594 0
M  V30 1687 H 155.873 -4.47553 -2.40123 0
M  V30 1688 H 155.803 -3.5288 -3.90875 0
M  V30 1689 H 158.294 -2.81743 -2.51852 0
M  V30 1690 H 158.607 -6.15943 -4.66727 0
M  V30 1691 H 156.952 -5.53514 -4.20294 0
M  V30 1692 H 160.143 -3.5455 -3.05634 0
M  V30 1693 H 160.316 -5.06934 -4.03636 0
M  V30 1694 N 153.722 1.14298 -1.08507 0
M  V30 1695 C 154.952 1.88945 -0.835663 0
M  V30 1696 C 155.36 1.78894 0.615928 0
M  V30 1697 O 154.703 1.1468 1.43506 0
M  V30 1698 C 154.765 3.39585 -1.17994 0
M  V30 1699 C 154.429 3.7342 -2.63451 0
M  V30 1700 C 155.426 3.73454 -3.61702 0
M  V30 1701 C 153.111 4.03368 -2.99332 0
M  V30 1702 C 155.105 4.02961 -4.93864 0
M  V30 1703 C 152.792 4.32538 -4.31687 0
M  V30 1704 C 153.79 4.32318 -5.28763 0
M  V30 1705 O 153.478 4.6078 -6.58739 0
M  V30 1706 H 153.21 0.605307 -0.300965 0
M  V30 1707 H 155.764 1.45673 -1.44806 0
M  V30 1708 H 153.994 3.83315 -0.51055 0
M  V30 1709 H 155.683 3.9554 -0.911182 0
M  V30 1710 H 156.449 3.50403 -3.35325 0
M  V30 1711 H 152.328 4.02692 -2.24411 0
M  V30 1712 H 155.872 4.02704 -5.69627 0
M  V30 1713 H 151.769 4.55059 -4.57812 0
M  V30 1714 H 152.537 4.78492 -6.64069 0
M  V30 1715 N 155.201 0.870884 1.31352 0
M  V30 1716 C 156.447 0.482987 1.96965 0
M  V30 1717 C 156.78 -0.962462 1.68672 0
M  V30 1718 O 156.055 -1.6779 0.98371 0
M  V30 1719 C 156.338 0.741752 3.52378 0
M  V30 1720 C 156.191 2.2368 3.9024 0
M  V30 1721 C 157.51 0.208838 4.39604 0
M  V30 1722 H 154.629 0.176955 0.715441 0
M  V30 1723 H 157.271 1.09229 1.55464 0
M  V30 1724 H 155.421 0.223149 3.87859 0
M  V30 1725 H 157.093 2.82273 3.64856 0
M  V30 1726 H 155.336 2.70901 3.38814 0
M  V30 1727 H 156.007 2.3685 4.98604 0
M  V30 1728 H 158.483 0.652529 4.10952 0
M  V30 1729 H 157.359 0.419336 5.47296 0
M  V30 1730 H 157.62 -0.889275 4.33064 0
M  V30 1731 N 156.679 -1.44442 0.630414 0
M  V30 1732 C 157.642 -2.29107 -0.0652523 0
M  V30 1733 C 158.642 -1.41002 -0.772995 0
M  V30 1734 O 159.832 -1.62881 -0.617692 0
M  V30 1735 C 156.964 -3.22564 -1.10296 0
M  V30 1736 H 158.157 -2.92103 0.679401 0
M  V30 1737 H 155.71 -1.51343 0.390517 0
M  V30 1738 H 156.445 -2.64416 -1.87762 0
M  V30 1739 H 156.23 -3.87491 -0.59941 0
M  V30 1740 H 157.72 -3.86167 -1.5895 0
M  V30 1741 N 158.157 -0.370918 -1.53173 0
M  V30 1742 C 159.403 0.217423 -2.01631 0
M  V30 1743 C 159.736 1.47983 -1.25756 0
M  V30 1744 O 159.011 1.91274 -0.352764 0
M  V30 1745 C 159.294 0.503982 -3.56556 0
M  V30 1746 C 159.147 -0.77243 -4.43118 0
M  V30 1747 C 160.466 1.30234 -4.20389 0
M  V30 1748 H 157.585 0.0775486 -0.732909 0
M  V30 1749 H 160.227 -0.496863 -1.83388 0
M  V30 1750 H 158.377 1.11248 -3.72231 0
M  V30 1751 H 160.049 -1.4098 -4.39229 0
M  V30 1752 H 158.292 -1.39167 -4.10871 0
M  V30 1753 H 158.963 -0.526815 -5.4948 0
M  V30 1754 H 161.439 0.787546 -4.08579 0
M  V30 1755 H 160.315 1.47158 -5.28806 0
M  V30 1756 H 160.576 2.31237 -3.76805 0
M  V30 1757 N 159.635 1.57281 -0.100228 0
M  V30 1758 C 160.912 1.86014 0.604812 0
M  V30 1759 C 161.292 0.998025 1.86018 0
M  V30 1760 O 160.64 0.0718184 2.28387 0
M  V30 1761 C 160.85 3.36784 0.915278 0
M  V30 1762 C 162.198 4.04957 1.27651 0
M  V30 1763 O 163.222 3.41695 1.00613 0
M  V30 1764 O 162.081 5.16593 1.7831 0
M  V30 1765 H 159.175 0.76942 0.303185 0
M  V30 1766 H 161.721 1.69176 -0.133313 0
M  V30 1767 H 160.493 3.91292 0.0248896 0
M  V30 1768 H 160.116 3.58987 1.70921 0
M  V30 1769 N 161.113 -0.173488 1.56642 0
M  V30 1770 C 162.341 -0.906095 1.86004 0
M  V30 1771 C 162.756 -1.75921 0.685355 0
M  V30 1772 O 162.113 -1.79198 -0.345578 0
M  V30 1773 C 162.164 -1.78462 3.14378 0
M  V30 1774 O 161.885 -0.965914 4.27319 0
M  V30 1775 C 163.386 -2.62707 3.57071 0
M  V30 1776 H 160.606 -0.263341 0.617165 0
M  V30 1777 H 163.15 -0.174236 2.03756 0
M  V30 1778 H 161.305 -2.46984 2.98459 0
M  V30 1779 H 161.719 -1.56655 5.00559 0
M  V30 1780 H 163.193 -3.19969 4.49804 0
M  V30 1781 H 163.67 -3.37472 2.81086 0
M  V30 1782 H 164.276 -1.99521 3.75595 0
M  V30 1783 N 162.591 -1.51276 -0.441967 0
M  V30 1784 C 163.521 -1.752 -1.54361 0
M  V30 1785 C 164.502 -0.601682 -1.59103 0
M  V30 1786 O 165.687 -0.843913 -1.74905 0
M  V30 1787 C 162.817 -1.87282 -2.92477 0
M  V30 1788 C 161.771 -3.02687 -3.02596 0
M  V30 1789 C 161.097 -2.99947 -4.42647 0
M  V30 1790 C 162.397 -4.4273 -2.77106 0
M  V30 1791 H 164.091 -2.67442 -1.34592 0
M  V30 1792 H 161.637 -1.28694 -0.646048 0
M  V30 1793 H 163.59 -2.02602 -3.695 0
M  V30 1794 H 162.314 -0.916844 -3.13467 0
M  V30 1795 H 160.973 -2.87065 -2.28012 0
M  V30 1796 H 160.621 -2.02136 -4.60597 0
M  V30 1797 H 160.321 -3.77439 -4.50348 0
M  V30 1798 H 161.845 -3.17354 -5.2165 0
M  V30 1799 H 163.259 -4.58727 -3.43864 0
M  V30 1800 H 161.656 -5.21893 -2.96222 0
M  V30 1801 H 162.726 -4.53087 -1.72744 0
M  V30 1802 N 164.069 0.697108 -1.41344 0
M  V30 1803 C 165.315 1.4593 -1.40827 0
M  V30 1804 C 165.648 1.94193 -0.0167098 0
M  V30 1805 O 164.923 1.69425 0.955263 0
M  V30 1806 C 165.206 2.67229 -2.41373 0
M  V30 1807 C 165.059 2.24741 -3.8963 0
M  V30 1808 C 166.378 3.69423 -2.39196 0
M  V30 1809 H 163.497 0.529303 -0.512842 0
M  V30 1810 H 166.139 0.794112 -1.72609 0
M  V30 1811 H 164.289 3.23982 -2.14401 0
M  V30 1812 H 165.961 1.73327 -4.27499 0
M  V30 1813 H 164.204 1.56542 -4.0457 0
M  V30 1814 H 164.875 3.1177 -4.55525 0
M  V30 1815 H 167.351 3.2234 -2.63128 0
M  V30 1816 H 166.227 4.51907 -3.11563 0
M  V30 1817 H 166.488 4.19012 -1.41001 0
M  V30 1818 N 165.547 1.27147 0.931209 0
M  V30 1819 C 166.477 1.12081 2.04842 0
M  V30 1820 C 167.458 0.0232364 1.70084 0
M  V30 1821 O 168.643 0.197085 1.93197 0
M  V30 1822 C 165.773 0.76354 3.38803 0
M  V30 1823 C 164.727 1.81396 3.87659 0
M  V30 1824 C 164.053 1.31075 5.18385 0
M  V30 1825 C 165.353 3.21739 4.11438 0
M  V30 1826 H 167.047 2.05537 2.17703 0
M  V30 1827 H 164.593 0.989603 1.04608 0
M  V30 1828 H 166.546 0.644982 4.16435 0
M  V30 1829 H 165.27 -0.206727 3.25945 0
M  V30 1830 H 163.929 1.92136 3.12217 0
M  V30 1831 H 163.577 0.330037 5.01916 0
M  V30 1832 H 163.277 2.013 5.52044 0
M  V30 1833 H 164.801 1.20506 5.98591 0
M  V30 1834 H 166.215 3.14019 4.79651 0
M  V30 1835 H 164.612 3.89644 4.56397 0
M  V30 1836 H 165.682 3.67054 3.16859 0
M  V30 1837 N 167.025 -1.13721 1.09112 0
M  V30 1838 C 167.988 -2.17222 0.731241 0
M  V30 1839 C 168.988 -1.59035 -0.237566 0
M  V30 1840 O 170.178 -1.74192 -0.0161704 0
M  V30 1841 C 167.31 -3.40804 0.0808443 0
M  V30 1842 H 168.503 -2.50573 1.64783 0
M  V30 1843 H 166.056 -1.28493 0.889897 0
M  V30 1844 H 166.791 -3.1304 -0.847127 0
M  V30 1845 H 166.576 -3.84306 0.777896 0
M  V30 1846 H 168.066 -4.1731 -0.155657 0
M  V30 1847 N 168.503 -0.877838 -1.30888 0
M  V30 1848 C 169.433 -0.35534 -2.3078 0
M  V30 1849 C 170.414 0.557994 -1.60687 0
M  V30 1850 O 171.599 0.473355 -1.88343 0
M  V30 1851 C 168.729 0.437221 -3.44537 0
M  V30 1852 C 167.683 -0.383715 -4.26276 0
M  V30 1853 C 167.009 0.535014 -5.32017 0
M  V30 1854 C 168.309 -1.62201 -4.96476 0
M  V30 1855 H 170.003 -1.19007 -2.74732 0
M  V30 1856 H 167.549 -0.573698 -1.32078 0
M  V30 1857 H 169.502 0.813334 -4.13477 0
M  V30 1858 H 168.226 1.30553 -2.99372 0
M  V30 1859 H 166.885 -0.741874 -3.59015 0
M  V30 1860 H 166.533 1.40083 -4.831 0
M  V30 1861 H 166.233 -0.0104211 -5.87599 0
M  V30 1862 H 167.757 0.907799 -6.03814 0
M  V30 1863 H 169.171 -1.31689 -5.5797 0
M  V30 1864 H 167.568 -2.10711 -5.61891 0
M  V30 1865 H 168.638 -2.37044 -4.23011 0
M  V30 1866 N 169.982 1.44106 -0.638065 0
M  V30 1867 C 170.945 2.29138 0.0531013 0
M  V30 1868 C 171.945 1.41409 0.765506 0
M  V30 1869 O 173.135 1.63206 0.609046 0
M  V30 1870 C 170.267 3.23144 1.08584 0
M  V30 1871 H 171.46 2.91739 -0.694883 0
M  V30 1872 H 169.013 1.51134 -0.398538 0
M  V30 1873 H 169.748 2.65408 1.86357 0
M  V30 1874 H 169.533 3.87804 0.578852 0
M  V30 1875 H 171.023 3.87004 1.56899 0
M  V30 1876 N 171.46 0.379036 1.52974 0
M  V30 1877 C 172.37 -0.468639 2.29872 0
M  V30 1878 C 173.386 -1.08067 1.36373 0
M  V30 1879 O 174.562 -1.08871 1.69438 0
M  V30 1880 C 171.627 -1.58594 3.083 0
M  V30 1881 C 170.688 -1.00007 4.17489 0
M  V30 1882 C 169.921 -2.06413 4.92168 0
M  V30 1883 O 170.144 -3.27751 4.66835 0
M  V30 1884 O 169.078 -1.68717 5.7777 0
M  V30 1885 H 172.904 0.157508 3.03291 0
M  V30 1886 H 170.489 0.143035 1.48714 0
M  V30 1887 H 172.371 -2.23525 3.57232 0
M  V30 1888 H 171.046 -2.19724 2.37703 0
M  V30 1889 H 169.953 -0.314299 3.72777 0
M  V30 1890 H 171.286 -0.433135 4.90291 0
M  V30 1891 N 172.938 -1.57226 0.108567 0
M  V30 1892 C 173.901 -2.13602 -0.831082 0
M  V30 1893 C 174.901 -1.06841 -1.20173 0
M  V30 1894 O 176.091 -1.32666 -1.12895 0
M  V30 1895 C 173.223 -2.66769 -2.12243 0
M  V30 1896 H 174.416 -2.97951 -0.341317 0
M  V30 1897 H 171.969 -1.55667 -0.14057 0
M  V30 1898 H 172.704 -1.85977 -2.65675 0
M  V30 1899 H 172.489 -3.44839 -1.86625 0
M  V30 1900 H 173.979 -3.10332 -2.79435 0
M  V30 1901 N 174.416 0.165178 -1.56732 0
M  V30 1902 C 175.644 0.896218 -1.86482 0
M  V30 1903 C 176.059 1.75555 -0.694675 0
M  V30 1904 O 175.416 1.79379 0.33607 0
M  V30 1905 C 175.467 1.76792 -3.1532 0
M  V30 1906 O 175.188 0.943239 -4.27825 0
M  V30 1907 C 176.689 2.6081 -3.58459 0
M  V30 1908 H 173.909 0.260064 -0.618553 0
M  V30 1909 H 176.453 0.163428 -2.03846 0
M  V30 1910 H 174.608 2.45398 -2.99764 0
M  V30 1911 H 175.022 1.53998 -5.01383 0
M  V30 1912 H 176.496 3.17579 -4.51495 0
M  V30 1913 H 176.973 3.35977 -2.82872 0
M  V30 1914 H 177.579 1.97526 -3.76648 0
M  V30 1915 N 175.894 1.51508 0.433938 0
M  V30 1916 C 177.305 1.56784 1.01369 0
M  V30 1917 C 177.656 0.393349 1.92217 0
M  V30 1918 O 176.781 -0.489441 2.10792 0
M  V30 1919 C 177.376 2.84144 1.8452 0
M  V30 1920 C 175.935 2.9198 2.37539 0
M  V30 1921 C 175.082 2.51482 1.16843 0
M  V30 1922 H 178.033 1.57236 0.215081 0
M  V30 1923 H 178.054 2.68098 2.70007 0
M  V30 1924 H 177.566 3.69607 1.18373 0
M  V30 1925 H 175.667 2.10955 3.0713 0
M  V30 1926 H 175.78 3.95704 2.70103 0
M  V30 1927 H 174.144 2.04758 1.51481 0
M  V30 1928 H 174.927 3.39293 0.523015 0
M  V30 1929 N 177.372 -0.689602 1.41712 0
M  V30 1930 C 178.62 -1.4468 1.4111 0
M  V30 1931 C 178.941 -1.94986 0.0232196 0
M  V30 1932 O 178.211 -1.72097 -0.935913 0
M  V30 1933 H 176.791 -0.536847 0.519427 0
M  V30 1934 H 179.453 -0.815825 1.77004 0
M  V30 1935 H 178.549 -2.30706 2.10193 0
M  V30 1936 N 178.85 -1.27639 -0.924453 0
M  V30 1937 C 179.78 -1.13166 -2.04244 0
M  V30 1938 C 180.761 -0.032256 -1.70069 0
M  V30 1939 O 181.946 -0.207328 -1.9309 0
M  V30 1940 C 179.076 -0.781496 -3.38393 0
M  V30 1941 C 178.03 -1.83449 -3.86692 0
M  V30 1942 C 177.356 -1.33822 -5.17683 0
M  V30 1943 C 178.656 -3.23917 -4.09726 0
M  V30 1944 H 180.35 -2.06689 -2.1661 0
M  V30 1945 H 177.896 -0.995136 -1.04082 0
M  V30 1946 H 179.849 -0.667057 -4.16087 0
M  V30 1947 H 178.573 0.189439 -3.2605 0
M  V30 1948 H 177.232 -1.93789 -3.11193 0
M  V30 1949 H 176.88 -0.35665 -5.01734 0
M  V30 1950 H 176.58 -2.04224 -5.50968 0
M  V30 1951 H 178.104 -1.23679 -5.97943 0
M  V30 1952 H 179.518 -3.16559 -4.77978 0
M  V30 1953 H 177.915 -3.92059 -4.54324 0
M  V30 1954 H 178.985 -3.68729 -3.14908 0
M  V30 1955 N 180.328 1.1314 -1.09713 0
M  V30 1956 C 181.739 1.66029 -0.853885 0
M  V30 1957 C 182.09 1.86241 0.617142 0
M  V30 1958 O 181.215 1.5834 1.47503 0
M  V30 1959 C 181.81 3.01599 -1.5435 0
M  V30 1960 C 180.369 3.51467 -1.34714 0
M  V30 1961 C 179.516 2.26648 -1.59769 0
M  V30 1962 H 182.467 0.970226 -1.25588 0
M  V30 1963 H 182.488 3.67709 -0.978267 0
M  V30 1964 H 182 2.86856 -2.6141 0
M  V30 1965 H 180.101 3.71408 -0.297838 0
M  V30 1966 H 180.214 4.314 -2.08401 0
M  V30 1967 H 178.578 2.33385 -1.01998 0
M  V30 1968 H 179.361 2.14467 -2.68065 0
M  V30 1969 N 181.806 0.884767 1.30421 0
M  V30 1970 C 183.054 0.502112 1.95763 0
M  V30 1971 C 183.375 -0.951815 1.70192 0
M  V30 1972 O 182.645 -1.6692 1.0254 0
M  V30 1973 H 181.225 0.182694 0.724315 0
M  V30 1974 H 183.887 1.1278 1.58955 0
M  V30 1975 H 182.983 0.672188 3.04775 0
M  V30 1976 N 183.284 -1.43765 0.645699 0
M  V30 1977 C 184.214 -2.33471 -0.0370477 0
M  V30 1978 C 185.195 -1.49042 -0.819779 0
M  V30 1979 O 186.38 -1.77726 -0.782758 0
M  V30 1980 C 183.51 -3.32311 -1.0093 0
M  V30 1981 C 182.464 -4.2667 -0.337201 0
M  V30 1982 C 181.79 -5.1549 -1.42037 0
M  V30 1983 C 183.09 -5.16657 0.765706 0
M  V30 1984 H 184.784 -2.90809 0.712069 0
M  V30 1985 H 182.33 -1.39834 0.343876 0
M  V30 1986 H 184.283 -3.9396 -1.49578 0
M  V30 1987 H 183.007 -2.73213 -1.78948 0
M  V30 1988 H 181.666 -3.66374 0.128771 0
M  V30 1989 H 181.314 -4.52735 -2.1918 0
M  V30 1990 H 181.014 -5.79438 -0.975966 0
M  V30 1991 H 182.538 -5.80012 -1.90838 0
M  V30 1992 H 183.952 -5.72158 0.361702 0
M  V30 1993 H 182.349 -5.89286 1.13413 0
M  V30 1994 H 183.419 -4.56796 1.62683 0
M  V30 1995 N 184.763 -0.387143 -1.52771 0
M  V30 1996 C 185.673 0.456442 -2.30117 0
M  V30 1997 C 186.689 1.07342 -1.36944 0
M  V30 1998 O 187.865 1.07971 -1.70013 0
M  V30 1999 C 184.93 1.56957 -3.09136 0
M  V30 2000 C 183.991 0.977916 -4.18014 0
M  V30 2001 C 183.224 2.038 -4.93256 0
M  V30 2002 O 183.447 3.25271 -4.68567 0
M  V30 2003 O 182.381 1.6565 -5.78657 0
M  V30 2004 H 186.207 -0.17359 -3.03203 0
M  V30 2005 H 183.792 -0.150919 -1.48636 0
M  V30 2006 H 185.674 2.21628 -3.58412 0
M  V30 2007 H 184.349 2.18461 -2.38865 0
M  V30 2008 H 183.256 0.294525 -3.72939 0
M  V30 2009 H 184.589 0.407128 -4.90513 0
M  V30 2010 N 186.241 1.57166 -0.116904 0
M  V30 2011 C 187.204 2.14039 0.819742 0
M  V30 2012 C 188.204 1.07477 1.19605 0
M  V30 2013 O 189.394 1.33263 1.1219 0
M  V30 2014 C 186.526 2.67891 2.10826 0
M  V30 2015 H 187.719 2.98128 0.325511 0
M  V30 2016 H 185.272 1.55739 0.132312 0
M  V30 2017 H 186.007 1.87384 2.64685 0
M  V30 2018 H 185.792 3.45823 1.84793 0
M  V30 2019 H 187.282 3.11809 2.77785 0
M  V30 2020 N 187.719 -0.156864 1.56817 0
M  V30 2021 C 188.649 -1.19589 2.00551 0
M  V30 2022 C 189.63 -1.4536 0.883426 0
M  V30 2023 O 190.815 -1.56449 1.15054 0
M  V30 2024 C 187.945 -2.53143 2.37773 0
M  V30 2025 C 186.899 -2.41913 3.53075 0
M  V30 2026 C 186.225 -3.80088 3.76081 0
M  V30 2027 C 187.525 -1.91157 4.86062 0
M  V30 2028 H 189.219 -0.832293 2.87599 0
M  V30 2029 H 186.765 -0.398918 1.38364 0
M  V30 2030 H 188.718 -3.26047 2.66967 0
M  V30 2031 H 187.442 -2.91319 1.4765 0
M  V30 2032 H 186.101 -1.71462 3.24031 0
M  V30 2033 H 185.749 -4.15683 2.83225 0
M  V30 2034 H 185.449 -3.73439 4.53671 0
M  V30 2035 H 186.973 -4.54556 4.0769 0
M  V30 2036 H 188.387 -2.53846 5.14038 0
M  V30 2037 H 186.784 -1.95422 5.67389 0
M  V30 2038 H 187.854 -0.866673 4.77092 0
M  V30 2039 N 189.197 -1.51736 -0.425897 0
M  V30 2040 C 190.144 -1.73875 -1.51776 0
M  V30 2041 C 191.114 -0.580702 -1.55618 0
M  V30 2042 O 192.299 -0.81641 -1.72451 0
M  V30 2043 C 189.439 -1.88012 -2.89388 0
M  V30 2044 C 188.552 -3.15606 -2.94986 0
M  V30 2045 C 187.687 -3.20271 -4.23793 0
M  V30 2046 C 186.726 -4.42134 -4.23302 0
M  V30 2047 N 185.863 -4.44284 -5.43651 0
M  V30 2048 H 190.703 -2.67071 -1.32201 0
M  V30 2049 H 188.24 -1.32351 -0.642008 0
M  V30 2050 H 190.198 -1.9419 -3.69251 0
M  V30 2051 H 188.828 -0.98213 -3.07496 0
M  V30 2052 H 187.88 -3.18681 -2.07717 0
M  V30 2053 H 189.192 -4.05486 -2.90486 0
M  V30 2054 H 188.346 -3.25428 -5.12036 0
M  V30 2055 H 187.085 -2.28299 -4.30965 0
M  V30 2056 H 186.09 -4.3714 -3.3345 0
M  V30 2057 H 187.315 -5.35382 -4.17783 0
M  V30 2058 H 185.261 -3.55188 -5.51523 0
M  V30 2059 H 185.178 -5.27988 -5.41078 0
M  V30 2060 H 186.446 -4.53649 -6.33895 0
M  V30 2061 N 190.675 0.682077 -1.42076 0
M  V30 2062 C 191.923 1.4393 -1.41876 0
M  V30 2063 C 192.244 1.94971 -0.0335599 0
M  V30 2064 O 191.514 1.72591 0.926773 0
M  V30 2065 H 190.094 0.534085 -0.522267 0
M  V30 2066 H 192.756 0.806427 -1.77434 0
M  V30 2067 H 191.852 2.29588 -2.11414 0
M  V30 2068 N 192.153 1.28127 0.917671 0
M  V30 2069 C 193.116 1.11744 2.00115 0
M  V30 2070 C 194.116 0.0583052 1.60694 0
M  V30 2071 O 195.306 0.303755 1.71531 0
M  V30 2072 C 192.438 0.704862 3.33533 0
M  V30 2073 H 193.631 2.07966 2.16079 0
M  V30 2074 H 191.184 1.11058 1.09981 0
M  V30 2075 H 191.919 -0.258299 3.2327 0
M  V30 2076 H 191.704 1.4699 3.63505 0
M  V30 2077 H 193.194 0.612768 4.1308 0
M  V30 2078 N 193.631 -1.12557 1.10312 0
M  V30 2079 C 194.561 -2.20341 0.772798 0
M  V30 2080 C 195.542 -1.68198 -0.25365 0
M  V30 2081 O 196.727 -1.93831 -0.119699 0
M  V30 2082 C 193.857 -3.46709 0.202443 0
M  V30 2083 C 192.811 -4.11996 1.15943 0
M  V30 2084 C 192.137 -5.328 0.450345 0
M  V30 2085 C 193.437 -4.5828 2.50552 0
M  V30 2086 H 195.131 -2.48229 1.674 0
M  V30 2087 H 192.677 -1.19308 0.806326 0
M  V30 2088 H 194.63 -4.2138 -0.0407752 0
M  V30 2089 H 193.354 -3.18245 -0.734001 0
M  V30 2090 H 192.013 -3.39305 1.38808 0
M  V30 2091 H 191.661 -5.00602 -0.490531 0
M  V30 2092 H 191.361 -5.7743 1.08851 0
M  V30 2093 H 192.885 -6.10219 0.215642 0
M  V30 2094 H 194.299 -5.2433 2.31843 0
M  V30 2095 H 192.696 -5.13683 3.10242 0
M  V30 2096 H 193.766 -3.72329 3.10643 0
M  V30 2097 N 195.109 -0.891671 -1.2995 0
M  V30 2098 C 196.056 -0.361736 -2.27948 0
M  V30 2099 C 197.026 0.551761 -1.56668 0
M  V30 2100 O 198.211 0.478736 -1.84696 0
M  V30 2101 C 195.351 0.411825 -3.42634 0
M  V30 2102 C 194.464 -0.531651 -4.28716 0
M  V30 2103 C 193.599 0.258167 -5.30572 0
M  V30 2104 C 192.638 -0.680349 -6.08307 0
M  V30 2105 N 191.775 0.0745613 -7.0206 0
M  V30 2106 H 196.615 -1.20254 -2.72659 0
M  V30 2107 H 194.152 -0.604352 -1.34112 0
M  V30 2108 H 196.11 0.876304 -4.07893 0
M  V30 2109 H 194.74 1.21715 -2.98974 0
M  V30 2110 H 193.792 -1.11463 -3.63703 0
M  V30 2111 H 195.104 -1.25038 -4.82874 0
M  V30 2112 H 194.258 0.784204 -6.0161 0
M  V30 2113 H 192.997 1.01008 -4.77126 0
M  V30 2114 H 192.002 -1.21796 -5.3614 0
M  V30 2115 H 193.227 -1.43145 -6.63842 0
M  V30 2116 H 191.173 0.808883 -6.50994 0
M  V30 2117 H 191.09 -0.584409 -7.53738 0
M  V30 2118 H 192.358 0.581123 -7.77331 0
M  V30 2119 N 196.587 1.43421 -0.653314 0
M  V30 2120 C 197.497 2.34568 0.0388565 0
M  V30 2121 C 198.513 1.53888 0.81207 0
M  V30 2122 O 199.689 1.86539 0.759294 0
M  V30 2123 C 196.754 3.32167 0.993269 0
M  V30 2124 C 195.815 4.28751 0.216977 0
M  V30 2125 C 195.048 5.21688 1.12593 0
M  V30 2126 O 195.271 5.19052 2.36519 0
M  V30 2127 O 194.205 5.98919 0.598284 0
M  V30 2128 H 198.031 2.95251 -0.711386 0
M  V30 2129 H 195.616 1.43564 -0.413502 0
M  V30 2130 H 197.498 3.92183 1.54176 0
M  V30 2131 H 196.173 2.73987 1.72374 0
M  V30 2132 H 195.08 3.72215 -0.375101 0
M  V30 2133 H 196.413 4.89913 -0.473924 0
M  V30 2134 N 198.065 0.39524 1.52563 0
M  V30 2135 C 198.995 -0.428384 2.29537 0
M  V30 2136 C 199.976 -1.05831 1.33169 0
M  V30 2137 O 201.161 -1.06995 1.62067 0
M  V30 2138 C 198.291 -1.55274 3.10656 0
M  V30 2139 C 197.245 -1.04855 4.14957 0
M  V30 2140 C 196.571 -2.26543 4.84337 0
M  V30 2141 C 197.871 -0.112324 5.22179 0
M  V30 2142 H 199.565 0.213867 2.98635 0
M  V30 2143 H 197.111 0.104298 1.43622 0
M  V30 2144 H 199.064 -2.1358 3.63265 0
M  V30 2145 H 197.788 -2.22266 2.39302 0
M  V30 2146 H 196.447 -0.487985 3.63338 0
M  V30 2147 H 196.095 -2.92059 4.09525 0
M  V30 2148 H 195.795 -1.93466 5.54837 0
M  V30 2149 H 197.319 -2.85481 5.39753 0
M  V30 2150 H 198.733 -0.603752 5.70112 0
M  V30 2151 H 197.13 0.128968 5.99961 0
M  V30 2152 H 198.2 0.837052 4.77621 0
M  V30 2153 N 199.544 -1.57102 0.125237 0
M  V30 2154 C 200.96 -1.57915 -0.231322 0
M  V30 2155 C 201.16 -1.13833 -1.66266 0
M  V30 2156 O 200.216 -0.828581 -2.38518 0
M  V30 2157 C 201.529 -3.00699 0.00766489 0
M  V30 2158 C 203.077 -3.12947 -0.0577483 0
M  V30 2159 C 203.552 -4.57742 0.153626 0
M  V30 2160 N 205.043 -4.63092 0.0998073 0
M  V30 2161 C 205.778 -5.72905 0.238174 0
M  V30 2162 N 205.274 -6.91445 0.433057 0
M  V30 2163 N 207.067 -5.6182 0.177308 0
M  V30 2164 H 199.218 -1.84055 1.06007 0
M  V30 2165 H 201.481 -0.850905 0.417929 0
M  V30 2166 H 201.187 -3.3726 0.997431 0
M  V30 2167 H 201.061 -3.70236 -0.721452 0
M  V30 2168 H 203.448 -2.7624 -1.03804 0
M  V30 2169 H 203.529 -2.4594 0.70335 0
M  V30 2170 H 203.173 -4.95149 1.13092 0
M  V30 2171 H 203.103 -5.22848 -0.627534 0
M  V30 2172 H 205.594 -3.77871 -0.047051 0
M  V30 2173 H 205.907 -7.70985 0.529332 0
M  V30 2174 H 204.252 -6.93415 0.469109 0
M  V30 2175 H 207.443 -4.68093 0.0259748 0
M  V30 2176 H 207.616 -6.47357 0.288582 0
M  V30 2177 N 201.022 0.148545 -1.56898 0
M  V30 2178 C 202.27 0.859717 -1.82902 0
M  V30 2179 C 202.591 1.81775 -0.70588 0
M  V30 2180 O 201.861 1.93994 0.272586 0
M  V30 2181 H 200.441 0.320469 -0.674766 0
M  V30 2182 H 203.103 0.142918 -1.94375 0
M  V30 2183 H 202.199 1.4229 -2.77777 0
M  V30 2184 N 202.5 1.5196 0.417844 0
M  V30 2185 C 203.748 1.65263 1.16329 0
M  V30 2186 C 204.069 0.380634 1.91249 0
M  V30 2187 O 203.339 -0.604214 1.86349 0
M  V30 2188 H 201.919 0.60912 0.432414 0
M  V30 2189 H 204.581 1.88969 0.477162 0
M  V30 2190 H 203.677 2.4896 1.88217 0
M  V30 2191 N 203.978 -0.674533 1.42435 0
M  V30 2192 C 205.394 -0.98769 1.25367 0
M  V30 2193 C 205.594 -2.00879 0.158044 0
M  V30 2194 O 204.65 -2.48075 -0.470633 0
M  V30 2195 C 205.963 -1.49224 2.6106 0
M  V30 2196 C 207.511 -1.61 2.68417 0
M  V30 2197 C 207.986 -2.14852 4.04478 0
M  V30 2198 N 209.477 -2.22185 4.06434 0
M  V30 2199 C 210.212 -2.64928 5.08528 0
M  V30 2200 N 209.708 -3.07121 6.21006 0
M  V30 2201 N 211.501 -2.64679 4.95885 0
M  V30 2202 H 203.652 0.00152503 2.124 0
M  V30 2203 H 205.915 -0.0618434 0.945981 0
M  V30 2204 H 205.621 -0.816453 3.42092 0
M  V30 2205 H 205.495 -2.47094 2.84999 0
M  V30 2206 H 207.882 -2.27686 1.87732 0
M  V30 2207 H 207.963 -0.616195 2.48267 0
M  V30 2208 H 207.607 -1.48775 4.85622 0
M  V30 2209 H 207.537 -3.15024 4.2198 0
M  V30 2210 H 210.028 -1.92435 3.25234 0
M  V30 2211 H 210.341 -3.38423 6.94759 0
M  V30 2212 H 208.686 -3.04978 6.24511 0
M  V30 2213 H 211.877 -2.31078 4.07088 0
M  V30 2214 H 212.05 -2.9767 5.75584 0
M  V30 2215 N 205.456 -1.28612 -0.910864 0
M  V30 2216 C 206.684 -1.18792 -1.69399 0
M  V30 2217 C 207.099 0.253039 -1.87097 0
M  V30 2218 O 206.456 1.17071 -1.40003 0
M  V30 2219 C 206.507 -1.88511 -3.08457 0
M  V30 2220 O 206.228 -3.26979 -2.91576 0
M  V30 2221 C 207.729 -1.85029 -4.02839 0
M  V30 2222 H 204.949 -0.412233 -0.529438 0
M  V30 2223 H 207.493 -1.69788 -1.13984 0
M  V30 2224 H 205.648 -1.41379 -3.60681 0
M  V30 2225 H 206.062 -3.61936 -3.79608 0
M  V30 2226 H 207.536 -2.38395 -4.97867 0
M  V30 2227 H 208.013 -0.823303 -4.31414 0
M  V30 2228 H 208.619 -2.31853 -3.56545 0
M  V30 2229 N 206.934 1.1197 -1.10907 0
M  V30 2230 C 208.18 1.8386 -0.855773 0
M  V30 2231 C 208.513 1.84134 0.617103 0
M  V30 2232 O 207.788 1.29041 1.45529 0
M  V30 2233 C 208.071 3.31305 -1.411 0
M  V30 2234 C 207.924 3.39456 -2.9511 0
M  V30 2235 C 209.243 4.2721 -1.05736 0
M  V30 2236 H 206.362 0.667545 -0.312334 0
M  V30 2237 H 209.004 1.31331 -1.37303 0
M  V30 2238 H 207.154 3.76169 -0.97105 0
M  V30 2239 H 208.826 3.03191 -3.47668 0
M  V30 2240 H 207.069 2.79849 -3.31462 0
M  V30 2241 H 207.74 4.43209 -3.29044 0
M  V30 2242 H 210.216 3.90497 -1.43706 0
M  V30 2243 H 209.092 5.28775 -1.47269 0
M  V30 2244 H 209.353 4.42088 0.0325958 0
M  V30 2245 N 208.412 0.89855 1.29475 0
M  V30 2246 C 209.344 0.332726 2.26772 0
M  V30 2247 C 210.357 -0.520323 1.54261 0
M  V30 2248 O 211.546 -0.337668 1.75277 0
M  V30 2249 C 208.646 -0.544334 3.345 0
M  V30 2250 C 207.819 0.282728 4.36485 0
M  V30 2251 C 206.878 -0.526982 5.23555 0
M  V30 2252 O 205.904 0.0551165 5.69173 0
M  V30 2253 N 207.106 -1.83331 5.5079 0
M  V30 2254 H 209.871 1.16897 2.75962 0
M  V30 2255 H 207.432 0.762919 1.42798 0
M  V30 2256 H 209.424 -1.09239 3.89678 0
M  V30 2257 H 207.994 -1.28127 2.85136 0
M  V30 2258 H 207.214 1.01221 3.80983 0
M  V30 2259 H 208.502 0.84918 5.01664 0
M  V30 2260 H 207.9 -2.32898 5.15534 0
M  V30 2261 H 206.457 -2.32852 6.08788 0
M  V30 2262 N 209.89 -1.43072 0.660911 0
M  V30 2263 C 211.118 -2.06067 0.185422 0
M  V30 2264 C 211.533 -1.49582 -1.15198 0
M  V30 2265 O 210.89 -0.630134 -1.71276 0
M  V30 2266 C 210.941 -3.61371 0.0966523 0
M  V30 2267 O 210.662 -4.15758 1.38119 0
M  V30 2268 C 212.163 -4.41455 -0.403996 0
M  V30 2269 H 209.383 -0.664459 0.0934604 0
M  V30 2270 H 211.927 -1.83447 0.90373 0
M  V30 2271 H 210.082 -3.8315 -0.572259 0
M  V30 2272 H 210.496 -5.09499 1.24542 0
M  V30 2273 H 211.97 -5.50437 -0.415045 0
M  V30 2274 H 212.447 -4.15036 -1.43674 0
M  V30 2275 H 213.053 -4.24663 0.232691 0
M  V30 2276 N 211.368 -0.403325 -1.52352 0
M  V30 2277 C 212.278 0.432009 -2.30588 0
M  V30 2278 C 213.294 1.05884 -1.38075 0
M  V30 2279 O 214.47 1.06161 -1.71148 0
M  V30 2280 C 211.535 1.53669 -3.10784 0
M  V30 2281 C 210.596 0.933525 -4.19027 0
M  V30 2282 C 209.829 1.98557 -4.9539 0
M  V30 2283 O 210.052 3.20283 -4.71991 0
M  V30 2284 O 208.986 1.59504 -5.80381 0
M  V30 2285 H 212.812 -0.205739 -3.03002 0
M  V30 2286 H 210.397 -0.166675 -1.48467 0
M  V30 2287 H 212.279 2.17814 -3.60742 0
M  V30 2288 H 210.954 2.15915 -2.41169 0
M  V30 2289 H 209.861 0.254954 -3.7323 0
M  V30 2290 H 211.194 0.35508 -4.90918 0
M  V30 2291 N 212.846 1.57033 -0.133567 0
M  V30 2292 C 213.796 2.12641 0.822671 0
M  V30 2293 C 214.78 1.05081 1.21847 0
M  V30 2294 O 215.972 1.31287 1.18713 0
M  V30 2295 C 213.101 2.74094 2.06706 0
M  V30 2296 C 212.187 3.88757 1.69497 0
M  V30 2297 N 212.578 4.95194 1.03037 0
M  V30 2298 C 210.876 3.99213 1.98859 0
M  V30 2299 C 211.577 5.75414 0.852873 0
M  V30 2300 N 210.553 5.25726 1.3825 0
M  V30 2301 H 214.355 2.92308 0.305537 0
M  V30 2302 H 211.869 1.62256 0.0684276 0
M  V30 2303 H 213.866 3.12285 2.76195 0
M  V30 2304 H 212.526 1.95896 2.5895 0
M  V30 2305 H 213.537 5.13247 0.692669 0
M  V30 2306 H 210.214 3.32075 2.53047 0
M  V30 2307 H 211.604 6.71089 0.330091 0
M  V30 2308 N 214.325 -0.140222 1.56975 0
M  V30 2309 C 215.288 -1.15689 1.97861 0
M  V30 2310 C 216.288 -1.3549 0.865974 0
M  V30 2311 O 217.478 -1.32367 1.13246 0
M  V30 2312 C 214.61 -2.51582 2.30042 0
M  V30 2313 H 215.803 -0.805971 2.88867 0
M  V30 2314 H 213.356 -0.383801 1.51515 0
M  V30 2315 H 214.091 -2.91632 1.41849 0
M  V30 2316 H 213.876 -2.38569 3.11171 0
M  V30 2317 H 215.366 -3.24792 2.62488 0
M  V30 2318 N 215.803 -1.52179 -0.40978 0
M  V30 2319 C 216.713 -1.78364 -1.52392 0
M  V30 2320 C 217.729 -0.669183 -1.60617 0
M  V30 2321 O 218.905 -0.954518 -1.77344 0
M  V30 2322 C 215.97 -1.92822 -2.88133 0
M  V30 2323 C 215.031 -3.16725 -2.898 0
M  V30 2324 C 214.264 -3.30483 -4.19067 0
M  V30 2325 O 214.487 -2.49522 -5.12928 0
M  V30 2326 O 213.421 -4.2363 -4.27576 0
M  V30 2327 H 217.247 -2.72931 -1.33201 0
M  V30 2328 H 214.832 -1.37016 -0.59557 0
M  V30 2329 H 216.714 -2.04157 -3.68643 0
M  V30 2330 H 215.389 -1.01444 -3.07393 0
M  V30 2331 H 214.296 -3.10848 -2.08146 0
M  V30 2332 H 215.629 -4.07881 -2.75489 0
M  V30 2333 N 217.281 0.66697 -1.42791 0
M  V30 2334 C 218.506 1.46004 -1.47301 0
M  V30 2335 C 218.931 1.87894 -0.0880317 0
M  V30 2336 O 218.289 1.56502 0.915253 0
M  V30 2337 C 218.337 2.68031 -2.41229 0
M  V30 2338 O 217.441 3.6659 -1.88906 0
M  V30 2339 H 216.782 0.43832 -0.49877 0
M  V30 2340 H 219.312 0.817391 -1.87563 0
M  V30 2341 H 219.322 3.1601 -2.58073 0
M  V30 2342 H 217.997 2.36883 -3.41847 0
M  V30 2343 H 216.574 3.25661 -1.81656 0
M  V30 2344 N 218.759 1.29093 0.90403 0
M  V30 2345 C 219.987 1.19689 1.68766 0
M  V30 2346 C 220.402 -0.243113 1.87228 0
M  V30 2347 O 219.759 -1.16326 1.40621 0
M  V30 2348 C 219.81 1.90144 3.07453 0
M  V30 2349 O 219.531 3.2852 2.89838 0
M  V30 2350 C 221.032 1.87162 4.01852 0
M  V30 2351 H 218.252 0.415035 0.527244 0
M  V30 2352 H 220.796 1.7039 1.13082 0
M  V30 2353 H 218.951 1.43289 3.59926 0
M  V30 2354 H 219.365 3.63944 3.77684 0
M  V30 2355 H 220.839 2.41032 4.96596 0
M  V30 2356 H 221.316 0.84617 4.30972 0
M  V30 2357 H 221.922 2.33741 3.5531 0
M  V30 2358 N 220.237 -1.11381 1.11499 0
M  V30 2359 C 221.467 -1.86663 0.885464 0
M  V30 2360 C 221.875 -1.80464 -0.568281 0
M  V30 2361 O 221.218 -1.18445 -1.40415 0
M  V30 2362 C 221.28 -3.36337 1.26956 0
M  V30 2363 C 220.944 -3.66304 2.73259 0
M  V30 2364 C 221.941 -3.63733 3.71476 0
M  V30 2365 C 219.626 -3.9529 3.09921 0
M  V30 2366 C 221.62 -3.89725 5.04374 0
M  V30 2367 C 219.307 -4.20941 4.43004 0
M  V30 2368 C 220.305 -4.18147 5.40039 0
M  V30 2369 O 219.993 -4.43153 6.70724 0
M  V30 2370 H 219.725 -0.597114 0.316908 0
M  V30 2371 H 222.279 -1.41782 1.48617 0
M  V30 2372 H 220.509 -3.81826 0.611999 0
M  V30 2373 H 222.198 -3.92986 1.01573 0
M  V30 2374 H 222.964 -3.41389 3.44498 0
M  V30 2375 H 218.843 -3.966 2.35009 0
M  V30 2376 H 222.387 -3.8746 5.80104 0
M  V30 2377 H 218.284 -4.42761 4.69716 0
M  V30 2378 H 219.052 -4.60717 6.76522 0
M  V30 2379 N 221.715 -0.905404 -1.28997 0
M  V30 2380 C 222.663 -0.377431 -2.29517 0
M  V30 2381 C 223.657 0.526461 -1.61012 0
M  V30 2382 O 224.863 0.40863 -1.753 0
M  V30 2383 H 221.238 -0.103437 -0.744852 0
M  V30 2384 H 223.209 -1.23848 -2.71485 0
M  V30 2385 C 221.958 0.374833 -3.45674 0
M  V30 2386 H 221.281 -0.311474 -3.98585 0
M  V30 2387 H 222.721 0.70903 -4.1803 0
M  V30 2388 C 221.18 1.57963 -2.97572 0
M  V30 2389 O 221.71 2.67886 -2.99333 0
M  V30 2390 N 219.916 1.42375 -2.53333 0
M  V30 2391 H 219.463 0.529466 -2.521 0
M  V30 2392 H 219.421 2.23117 -2.21509 0
M  V30 2393 N 223.193 1.4272 -0.668489 0
M  V30 2394 C 224.156 2.292 0.00448567 0
M  V30 2395 C 225.156 1.43001 0.735339 0
M  V30 2396 O 226.346 1.64461 0.57429 0
M  V30 2397 C 223.478 3.25375 1.01705 0
M  V30 2398 H 224.671 2.90199 -0.756608 0
M  V30 2399 H 222.224 1.50254 -0.430506 0
M  V30 2400 H 222.959 2.69301 1.80686 0
M  V30 2401 H 222.744 3.88944 0.496463 0
M  V30 2402 H 224.234 3.90245 1.48655 0
M  V30 2403 N 224.671 0.411399 1.52136 0
M  V30 2404 C 225.601 -0.404015 2.29978 0
M  V30 2405 C 226.582 -1.04412 1.34284 0
M  V30 2406 O 227.767 -1.0527 1.63192 0
M  V30 2407 C 224.897 -1.5197 3.12286 0
M  V30 2408 C 223.851 -1.00448 4.16046 0
M  V30 2409 C 223.177 -2.21393 4.86712 0
M  V30 2410 C 224.477 -0.0569336 5.22269 0
M  V30 2411 H 226.171 0.245529 2.98392 0
M  V30 2412 H 223.717 0.119525 1.43503 0
M  V30 2413 H 225.67 -2.09715 3.6551 0
M  V30 2414 H 224.394 -2.19716 2.41646 0
M  V30 2415 H 223.053 -0.449421 3.63835 0
M  V30 2416 H 222.701 -2.87699 4.12599 0
M  V30 2417 H 222.401 -1.87571 5.56858 0
M  V30 2418 H 223.925 -2.7974 5.4275 0
M  V30 2419 H 225.339 -0.54325 5.7072 0
M  V30 2420 H 223.736 0.192594 5.99791 0
M  V30 2421 H 224.806 0.887663 4.76706 0
M  V30 2422 N 226.149 -1.5696 0.141893 0
M  V30 2423 C 227.059 -2.20066 -0.812905 0
M  V30 2424 C 228.075 -1.18344 -1.27557 0
M  V30 2425 O 229.251 -1.50902 -1.33381 0
M  V30 2426 C 226.316 -2.80583 -2.03652 0
M  V30 2427 C 225.377 -3.97414 -1.62359 0
M  V30 2428 C 224.61 -4.55036 -2.78887 0
M  V30 2429 O 224.833 -4.11538 -3.94959 0
M  V30 2430 O 223.767 -5.45376 -2.54653 0
M  V30 2431 H 227.593 -3.02157 -0.305746 0
M  V30 2432 H 225.178 -1.49159 -0.0848799 0
M  V30 2433 H 227.06 -3.19067 -2.75272 0
M  V30 2434 H 225.735 -2.01508 -2.5333 0
M  V30 2435 H 224.642 -3.63656 -0.877775 0
M  V30 2436 H 225.975 -4.77994 -1.17401 0
M  V30 2437 N 227.627 0.131896 -1.57047 0
M  V30 2438 C 228.559 1.1878 -1.9602 0
M  V30 2439 C 229.572 1.38363 -0.857875 0
M  V30 2440 O 230.761 1.37666 -1.13623 0
M  V30 2441 C 227.861 2.55008 -2.23213 0
M  V30 2442 C 227.034 2.56201 -3.54513 0
M  V30 2443 C 226.093 3.7408 -3.70069 0
M  V30 2444 O 225.119 3.58258 -4.42312 0
M  V30 2445 N 226.321 4.92137 -3.07866 0
M  V30 2446 H 229.086 0.85639 -2.87204 0
M  V30 2447 H 226.647 0.321309 -1.5868 0
M  V30 2448 H 228.639 3.32404 -2.30846 0
M  V30 2449 H 227.209 2.80382 -1.3822 0
M  V30 2450 H 226.429 1.64613 -3.58185 0
M  V30 2451 H 227.717 2.54043 -4.4084 0
M  V30 2452 H 227.115 5.07895 -2.49116 0
M  V30 2453 H 225.672 5.67254 -3.21039 0
M  V30 2454 N 229.106 1.52395 0.401703 0
M  V30 2455 C 230.336 1.70429 1.1678 0
M  V30 2456 C 230.744 0.416702 1.84554 0
M  V30 2457 O 230.087 -0.617697 1.73003 0
M  V30 2458 C 230.149 2.78919 2.26814 0
M  V30 2459 C 229.813 4.20437 1.79113 0
M  V30 2460 C 230.81 5.04028 1.27482 0
M  V30 2461 C 228.495 4.66704 1.85722 0
M  V30 2462 C 230.489 6.31961 0.830913 0
M  V30 2463 C 228.176 5.94625 1.40942 0
M  V30 2464 C 229.174 6.77082 0.897128 0
M  V30 2465 O 228.862 8.02607 0.455822 0
M  V30 2466 H 228.594 0.574272 0.356634 0
M  V30 2467 H 231.148 1.99767 0.477724 0
M  V30 2468 H 229.378 2.44973 2.99207 0
M  V30 2469 H 231.067 2.8548 2.88541 0
M  V30 2470 H 231.833 4.69471 1.21744 0
M  V30 2471 H 227.712 4.0262 2.24539 0
M  V30 2472 H 231.256 6.96271 0.430368 0
M  V30 2473 H 227.153 6.28688 1.46362 0
M  V30 2474 H 227.921 8.16453 0.578457 0
M  V30 2475 N 230.584 -0.659388 1.43143 0
M  V30 2476 C 231.832 -1.41654 1.44147 0
M  V30 2477 C 232.153 -1.94893 0.0645739 0
M  V30 2478 O 231.423 -1.74044 -0.899198 0
M  V30 2479 H 230.003 -0.525708 0.530697 0
M  V30 2480 H 232.665 -0.778097 1.78694 0
M  V30 2481 H 231.761 -2.26195 2.1504 0
M  V30 2482 N 232.062 -1.29571 -0.897171 0
M  V30 2483 C 233.311 -1.1706 -1.64256 0
M  V30 2484 C 233.624 0.276476 -1.93636 0
M  V30 2485 O 234.83 0.52294 -2.66416 0
M  V30 2486 C 233.286 -2.0475 -2.95982 0
M  V30 2487 C 232.894 -3.54295 -2.74187 0
M  V30 2488 C 234.638 -2.0097 -3.73914 0
M  V30 2489 C 232.545 -4.34081 -4.01656 0
M  V30 2490 H 231.475 -0.43452 -0.616205 0
M  V30 2491 H 234.126 -1.54229 -0.994268 0
M  V30 2492 H 232.508 -1.60452 -3.62038 0
M  V30 2493 H 233.682 -4.06662 -2.1671 0
M  V30 2494 H 231.997 -3.59773 -2.09648 0
M  V30 2495 H 234.594 -2.57838 -4.68427 0
M  V30 2496 H 234.937 -0.990273 -4.0435 0
M  V30 2497 H 235.47 -2.43325 -3.14703 0
M  V30 2498 H 232.209 -5.36671 -3.76384 0
M  V30 2499 H 231.729 -3.86483 -4.58684 0
M  V30 2500 H 233.408 -4.44877 -4.69781 0
M  V30 2501 N 233.54 1.10788 -1.12088 0
M  V30 2502 C 234.817 1.79136 -0.785476 0
M  V30 2503 C 235.197 1.98246 0.725377 0
M  V30 2504 O 234.545 1.57258 1.65778 0
M  V30 2505 C 234.755 3.12375 -1.55636 0
M  V30 2506 C 236.103 3.8731 -1.74001 0
M  V30 2507 O 237.127 3.22085 -1.52117 0
M  V30 2508 O 235.986 5.04369 -2.10415 0
M  V30 2509 H 233.08 0.776226 -0.285311 0
M  V30 2510 H 235.626 1.1747 -1.2247 0
M  V30 2511 H 234.398 2.93863 -2.5838 0
M  V30 2512 H 234.021 3.81758 -1.11114 0
M  V30 2513 N 235.018 0.912232 1.28515 0
M  V30 2514 C 235.948 0.416403 2.29757 0
M  V30 2515 C 236.929 -0.515194 1.6211 0
M  V30 2516 O 238.114 -0.423253 1.89532 0
M  V30 2517 C 235.244 -0.34572 3.45575 0
M  V30 2518 C 234.198 0.496599 4.25109 0
M  V30 2519 C 233.524 -0.393771 5.33248 0
M  V30 2520 C 234.824 1.75307 4.92001 0
M  V30 2521 H 236.518 1.26249 2.7148 0
M  V30 2522 H 234.064 0.608515 1.30511 0
M  V30 2523 H 236.017 -0.703422 4.15488 0
M  V30 2524 H 234.741 -1.2257 3.02728 0
M  V30 2525 H 233.4 0.8368 3.56922 0
M  V30 2526 H 233.048 -1.27225 4.86644 0
M  V30 2527 H 232.748 0.166209 5.87365 0
M  V30 2528 H 234.272 -0.747389 6.06009 0
M  V30 2529 H 235.686 1.46437 5.54283 0
M  V30 2530 H 234.083 2.25534 5.56106 0
M  V30 2531 H 235.153 2.48176 4.16577 0
M  V30 2532 N 236.496 -1.42363 0.676048 0
M  V30 2533 C 237.724 -2.05859 0.207268 0
M  V30 2534 C 238.139 -1.50796 -1.13605 0
M  V30 2535 O 237.496 -0.648265 -1.70598 0
M  V30 2536 C 237.547 -3.61248 0.134975 0
M  V30 2537 O 237.268 -4.1427 1.42521 0
M  V30 2538 C 238.769 -4.41859 -0.357151 0
M  V30 2539 H 235.989 -0.663431 0.100503 0
M  V30 2540 H 238.533 -1.82479 0.923136 0
M  V30 2541 H 236.688 -3.83735 -0.531588 0
M  V30 2542 H 237.102 -5.0815 1.29939 0
M  V30 2543 H 238.576 -5.50847 -0.356641 0
M  V30 2544 H 239.053 -4.16536 -1.39264 0
M  V30 2545 H 239.659 -4.24392 0.27772 0
M  V30 2546 N 237.974 -0.419461 -1.51915 0
M  V30 2547 C 239.39 -0.0708431 -1.59443 0
M  V30 2548 C 239.59 1.41796 -1.43164 0
M  V30 2549 O 238.646 2.18596 -1.26381 0
M  V30 2550 C 239.959 -0.574991 -2.95151 0
M  V30 2551 C 241.507 -0.533867 -3.08413 0
M  V30 2552 C 241.982 -1.01469 -4.46618 0
M  V30 2553 N 243.473 -0.971939 -4.52888 0
M  V30 2554 C 244.208 -1.31505 -5.58116 0
M  V30 2555 N 243.704 -1.73014 -6.70849 0
M  V30 2556 N 245.497 -1.23436 -5.48379 0
M  V30 2557 H 237.648 -1.38836 -1.60743 0
M  V30 2558 H 239.911 -0.570998 -0.756747 0
M  V30 2559 H 239.617 -1.61597 -3.12377 0
M  V30 2560 H 239.491 0.00979777 -3.77199 0
M  V30 2561 H 241.878 0.498086 -2.90866 0
M  V30 2562 H 241.959 -1.15484 -2.28248 0
M  V30 2563 H 241.603 -2.04502 -4.6491 0
M  V30 2564 H 241.533 -0.370433 -5.25295 0
M  V30 2565 H 244.024 -0.666893 -3.71969 0
M  V30 2566 H 244.337 -1.97479 -7.47143 0
M  V30 2567 H 242.682 -1.76926 -6.72103 0
M  V30 2568 H 245.873 -0.908869 -4.59192 0
M  V30 2569 H 246.046 -1.50506 -6.30279 0
M  V30 2570 N 239.452 1.56882 -0.150215 0
M  V30 2571 C 240.382 2.19935 0.784284 0
M  V30 2572 C 241.363 1.14854 1.25469 0
M  V30 2573 O 242.548 1.43209 1.31168 0
M  V30 2574 C 239.678 2.82349 2.02229 0
M  V30 2575 C 238.632 3.93285 1.68853 0
M  V30 2576 C 237.958 4.42649 2.99944 0
M  V30 2577 C 239.258 5.13904 0.932714 0
M  V30 2578 H 240.952 2.9828 0.258781 0
M  V30 2579 H 238.498 1.43473 0.123029 0
M  V30 2580 H 240.451 3.25126 2.68088 0
M  V30 2581 H 239.175 2.0134 2.57157 0
M  V30 2582 H 237.834 3.5113 1.05371 0
M  V30 2583 H 237.482 3.58458 3.52869 0
M  V30 2584 H 237.182 5.17476 2.78374 0
M  V30 2585 H 238.706 4.88099 3.66868 0
M  V30 2586 H 240.12 5.53506 1.49345 0
M  V30 2587 H 238.517 5.94515 0.81684 0
M  V30 2588 H 239.587 4.84842 -0.0749568 0
M  V30 2589 N 240.93 -0.123565 1.57115 0
M  V30 2590 C 241.893 -1.13583 1.99076 0
M  V30 2591 C 242.893 -1.34564 0.880296 0
M  V30 2592 O 244.083 -1.31158 1.14644 0
M  V30 2593 C 241.215 -2.49128 2.32698 0
M  V30 2594 H 242.408 -0.775287 2.89706 0
M  V30 2595 H 239.961 -0.36771 1.51913 0
M  V30 2596 H 240.696 -2.90111 1.44934 0
M  V30 2597 H 240.481 -2.35255 3.13684 0
M  V30 2598 H 241.971 -3.2199 2.65918 0
M  V30 2599 N 242.408 -1.52605 -0.393616 0
M  V30 2600 C 243.371 -1.76415 -1.46323 0
M  V30 2601 C 244.371 -0.634126 -1.47768 0
M  V30 2602 O 245.561 -0.902142 -1.4902 0
M  V30 2603 C 242.693 -1.8607 -2.85641 0
M  V30 2604 H 243.886 -2.71916 -1.26498 0
M  V30 2605 H 241.439 -1.43257 -0.625073 0
M  V30 2606 H 242.174 -0.925378 -3.10817 0
M  V30 2607 H 241.959 -2.68235 -2.85993 0
M  V30 2608 H 243.449 -2.06179 -3.63153 0
M  V30 2609 N 243.887 0.651787 -1.4349 0
M  V30 2610 C 244.797 1.79368 -1.5121 0
M  V30 2611 C 245.813 1.69361 -0.399093 0
M  V30 2612 O 246.989 1.90505 -0.653431 0
M  V30 2613 C 244.054 3.15653 -1.43401 0
M  V30 2614 C 243.115 3.37446 -2.65384 0
M  V30 2615 C 242.348 4.67229 -2.57939 0
M  V30 2616 O 242.571 5.46676 -1.62792 0
M  V30 2617 O 241.505 4.90773 -3.48462 0
M  V30 2618 H 245.331 1.7581 -2.47638 0
M  V30 2619 H 242.916 0.810447 -1.25507 0
M  V30 2620 H 244.798 3.96935 -1.41494 0
M  V30 2621 H 243.473 3.19798 -0.501085 0
M  V30 2622 H 242.38 2.55923 -2.72863 0
M  V30 2623 H 243.713 3.38148 -3.57654 0
M  V30 2624 N 245.365 1.30045 0.890287 0
M  V30 2625 C 246.613 1.18327 1.63839 0
M  V30 2626 C 246.934 -0.263455 1.93212 0
M  V30 2627 O 246.204 -1.17856 1.56482 0
M  V30 2628 H 244.784 0.434933 0.607324 0
M  V30 2629 H 247.446 1.631 1.06698 0
M  V30 2630 H 246.542 1.74024 2.59079 0
M  V30 2631 N 246.843 -1.10192 1.12674 0
M  V30 2632 C 247.79 -2.16606 0.796906 0
M  V30 2633 C 248.76 -1.64394 -0.237476 0
M  V30 2634 O 249.945 -1.90474 -0.111484 0
M  V30 2635 C 247.085 -3.44116 0.26043 0
M  V30 2636 C 246.198 -4.10268 1.35293 0
M  V30 2637 C 245.333 -5.25507 0.775621 0
M  V30 2638 C 244.372 -5.83567 1.84706 0
M  V30 2639 N 243.509 -6.90179 1.28829 0
M  V30 2640 H 248.349 -2.44163 1.70846 0
M  V30 2641 H 245.886 -1.19846 0.85295 0
M  V30 2642 H 247.844 -4.17143 -0.0686814 0
M  V30 2643 H 246.474 -3.16901 -0.614274 0
M  V30 2644 H 245.526 -3.35184 1.79877 0
M  V30 2645 H 246.838 -4.4946 2.16303 0
M  V30 2646 H 245.992 -6.05398 0.397327 0
M  V30 2647 H 244.731 -4.87656 -0.0656581 0
M  V30 2648 H 243.736 -5.02344 2.23452 0
M  V30 2649 H 244.961 -6.23482 2.69161 0
M  V30 2650 H 242.907 -6.54322 0.468881 0
M  V30 2651 H 242.824 -7.28097 2.03497 0
M  V30 2652 H 244.092 -7.73844 0.937311 0
M  V30 2653 N 248.321 -0.919034 -1.28029 0
M  V30 2654 C 249.251 -0.428581 -2.29533 0
M  V30 2655 C 250.232 0.50659 -1.62381 0
M  V30 2656 O 251.417 0.413195 -1.89753 0
M  V30 2657 C 248.547 0.327388 -3.45753 0
M  V30 2658 C 247.501 -0.519137 -4.2484 0
M  V30 2659 C 246.827 0.365486 -5.33449 0
M  V30 2660 C 248.127 -1.77914 -4.91064 0
M  V30 2661 H 249.821 -1.27687 -2.70807 0
M  V30 2662 H 247.367 -0.615428 -1.30186 0
M  V30 2663 H 249.32 0.681378 -4.15855 0
M  V30 2664 H 248.044 1.20963 -3.03374 0
M  V30 2665 H 246.703 -0.855717 -3.56473 0
M  V30 2666 H 246.351 1.24642 -4.87312 0
M  V30 2667 H 246.051 -0.197356 -5.87268 0
M  V30 2668 H 247.575 0.715241 -6.06396 0
M  V30 2669 H 248.989 -1.49374 -5.53498 0
M  V30 2670 H 247.386 -2.2848 -5.54903 0
M  V30 2671 H 248.456 -2.50382 -4.15255 0
M  V30 2672 N 249.799 1.42003 -0.683588 0
M  V30 2673 C 251.076 1.95112 -0.138075 0
M  V30 2674 C 251.456 1.62359 1.34918 0
M  V30 2675 O 250.804 0.924311 2.08971 0
M  V30 2676 C 251.014 3.46505 -0.416581 0
M  V30 2677 C 252.362 4.23254 -0.337834 0
M  V30 2678 O 253.386 3.54468 -0.35082 0
M  V30 2679 O 252.245 5.45743 -0.287596 0
M  V30 2680 H 249.339 0.826961 -0.00797996 0
M  V30 2681 H 251.885 1.51784 -0.758924 0
M  V30 2682 H 250.657 3.63582 -1.4465 0
M  V30 2683 H 250.28 3.969 0.235839 0
M  V30 2684 N 251.277 0.427512 1.51691 0
M  V30 2685 C 252.688 -0.0378867 1.86662 0
M  V30 2686 C 253.039 -1.42819 1.34525 0
M  V30 2687 O 252.164 -2.05037 0.692014 0
M  V30 2688 C 252.759 -0.0755266 3.38716 0
M  V30 2689 C 251.318 -0.485309 3.73258 0
M  V30 2690 C 250.465 0.328399 2.75349 0
M  V30 2691 H 253.416 0.64379 1.45055 0
M  V30 2692 H 253.437 -0.887056 3.70016 0
M  V30 2693 H 252.949 0.936487 3.76632 0
M  V30 2694 H 251.05 -1.50329 3.40928 0
M  V30 2695 H 251.163 -0.21693 4.78609 0
M  V30 2696 H 249.527 -0.211905 2.53817 0
M  V30 2697 H 250.31 1.3391 3.16106 0
M  V30 2698 N 252.755 -1.56801 0.158532 0
M  V30 2699 C 254.001 -1.96781 -0.490405 0
M  V30 2700 C 254.334 -1.04397 -1.63753 0
M  V30 2701 O 253.609 -0.0885805 -1.94298 0
M  V30 2702 C 253.892 -3.4635 -0.985594 0
M  V30 2703 C 253.745 -4.49512 0.160824 0
M  V30 2704 C 255.064 -3.98697 -1.86355 0
M  V30 2705 H 252.183 -0.715482 -0.176788 0
M  V30 2706 H 254.825 -1.88451 0.242088 0
M  V30 2707 H 252.975 -3.53579 -1.60978 0
M  V30 2708 H 254.647 -4.54353 0.797537 0
M  V30 2709 H 252.89 -4.26013 0.818256 0
M  V30 2710 H 253.561 -5.51531 -0.227569 0
M  V30 2711 H 256.037 -3.94019 -1.33746 0
M  V30 2712 H 254.913 -5.03792 -2.17909 0
M  V30 2713 H 255.174 -3.41744 -2.8047 0
M  V30 2714 N 254.233 0.115231 -1.57178 0
M  V30 2715 C 255.482 0.820945 -1.84237 0
M  V30 2716 C 255.795 1.80866 -0.744761 0
M  V30 2717 O 257.001 2.56083 -0.901871 0
M  V30 2718 C 255.457 1.51072 -3.26658 0
M  V30 2719 C 255.065 0.563795 -4.44438 0
M  V30 2720 C 256.809 2.20134 -3.62962 0
M  V30 2721 C 254.716 1.25701 -5.77887 0
M  V30 2722 H 253.646 0.310328 -0.687177 0
M  V30 2723 H 256.297 0.0737134 -1.83352 0
M  V30 2724 H 254.679 2.30471 -3.22024 0
M  V30 2725 H 255.853 -0.197247 -4.60378 0
M  V30 2726 H 254.168 -0.0200638 -4.16395 0
M  V30 2727 H 256.765 2.72696 -4.59936 0
M  V30 2728 H 257.108 2.98107 -2.90582 0
M  V30 2729 H 257.641 1.47619 -3.69396 0
M  V30 2730 H 254.38 0.518493 -6.53446 0
M  V30 2731 H 253.9 1.98997 -5.65827 0
M  V30 2732 H 255.579 1.78915 -6.2177 0
M  V30 2733 N 255.711 1.52812 0.385517 0
M  V30 2734 C 256.959 1.67694 1.12797 0
M  V30 2735 C 257.28 0.421115 1.90399 0
M  V30 2736 O 256.55 -0.564551 1.87589 0
M  V30 2737 H 255.13 0.618155 0.419396 0
M  V30 2738 H 257.792 1.89938 0.436972 0
M  V30 2739 H 256.888 2.52896 1.82894 0
M  V30 2740 N 257.189 -0.644168 1.43834 0
M  V30 2741 C 258.605 -0.960875 1.27434 0
M  V30 2742 C 258.805 -2.00499 0.200618 0
M  V30 2743 O 257.861 -2.49018 -0.417906 0
M  V30 2744 C 259.174 -1.43653 2.64167 0
M  V30 2745 C 260.722 -1.55271 2.71772 0
M  V30 2746 C 261.197 -2.06224 4.08944 0
M  V30 2747 N 262.688 -2.13513 4.11055 0
M  V30 2748 C 263.423 -2.54081 5.14033 0
M  V30 2749 N 262.919 -2.9388 6.27381 0
M  V30 2750 N 264.712 -2.54101 5.01387 0
M  V30 2751 H 256.863 0.0465779 2.12349 0
M  V30 2752 H 259.126 -0.0417638 0.94708 0
M  V30 2753 H 258.832 -0.743706 3.43747 0
M  V30 2754 H 258.706 -2.40993 2.90176 0
M  V30 2755 H 261.093 -2.23653 1.92519 0
M  V30 2756 H 261.174 -0.563395 2.49519 0
M  V30 2757 H 260.818 -1.38441 4.88668 0
M  V30 2758 H 260.748 -3.06003 4.28567 0
M  V30 2759 H 263.239 -1.85493 3.29242 0
M  V30 2760 H 263.552 -3.2361 7.01781 0
M  V30 2761 H 261.897 -2.91663 6.30839 0
M  V30 2762 H 265.088 -2.22391 4.11898 0
M  V30 2763 H 265.261 -2.85394 5.81768 0
M  V30 2764 N 258.668 -1.30515 -0.883378 0
M  V30 2765 C 259.945 -1.10086 -1.6168 0
M  V30 2766 C 260.325 0.349269 -2.08191 0
M  V30 2767 O 259.673 1.34105 -1.85008 0
M  V30 2768 C 259.883 -2.10315 -2.78511 0
M  V30 2769 C 261.231 -2.42119 -3.48803 0
M  V30 2770 O 262.255 -2.08638 -2.88702 0
M  V30 2771 O 261.114 -2.99396 -4.57192 0
M  V30 2772 H 258.208 -0.422907 -0.710689 0
M  V30 2773 H 260.754 -1.41947 -0.930015 0
M  V30 2774 H 259.526 -3.07917 -2.41459 0
M  V30 2775 H 259.149 -1.79282 -3.54886 0
M  V30 2776 N 260.146 1.09593 -1.13257 0
M  V30 2777 C 261.056 2.19739 -0.821691 0
M  V30 2778 C 262.072 1.72926 0.19302 0
M  V30 2779 O 263.248 2.01385 0.0244895 0
M  V30 2780 C 260.313 3.45482 -0.290333 0
M  V30 2781 C 259.374 4.06985 -1.36607 0
M  V30 2782 C 258.607 5.26726 -0.859975 0
M  V30 2783 O 258.83 5.69594 0.303082 0
M  V30 2784 O 257.764 5.7931 -1.63351 0
M  V30 2785 H 261.59 2.48781 -1.74189 0
M  V30 2786 H 259.175 1.18496 -0.909894 0
M  V30 2787 H 261.057 4.214 0.000674022 0
M  V30 2788 H 259.732 3.18047 0.602306 0
M  V30 2789 H 258.639 3.32712 -1.71037 0
M  V30 2790 H 259.972 4.38643 -2.23279 0
M  V30 2791 N 261.624 0.925811 1.2754 0
M  V30 2792 C 262.534 0.428993 2.30644 0
M  V30 2793 C 263.55 -0.489387 1.66976 0
M  V30 2794 O 264.726 -0.372653 1.97922 0
M  V30 2795 C 261.791 -0.311967 3.45294 0
M  V30 2796 C 260.852 0.641098 4.24486 0
M  V30 2797 C 260.085 -0.0645955 5.33661 0
M  V30 2798 O 260.308 -1.28429 5.55754 0
M  V30 2799 O 259.242 0.606265 5.98839 0
M  V30 2800 H 263.068 1.28504 2.75173 0
M  V30 2801 H 260.653 0.691086 1.32455 0
M  V30 2802 H 262.535 -0.729972 4.15029 0
M  V30 2803 H 261.21 -1.14365 3.02824 0
M  V30 2804 H 260.117 1.10874 3.57292 0
M  V30 2805 H 261.45 1.43995 4.70666 0
M  V30 2806 N 263.102 -1.41638 0.69111 0
M  V30 2807 C 264.351 -2.00526 0.217318 0
M  V30 2808 C 264.664 -1.55353 -1.18848 0
M  V30 2809 O 265.87 -2.06769 -1.75951 0
M  V30 2810 C 264.326 -3.58313 0.337639 0
M  V30 2811 C 263.934 -4.12469 1.74852 0
M  V30 2812 C 265.678 -4.24431 -0.0766066 0
M  V30 2813 C 263.585 -5.62675 1.82074 0
M  V30 2814 H 262.515 -0.750008 0.0774893 0
M  V30 2815 H 265.166 -1.6217 0.858661 0
M  V30 2816 H 263.548 -3.9425 -0.371879 0
M  V30 2817 H 264.722 -3.8796 2.48644 0
M  V30 2818 H 263.037 -3.58861 2.11205 0
M  V30 2819 H 265.634 -5.34683 -0.0430284 0
M  V30 2820 H 265.977 -4.01101 -1.1146 0
M  V30 2821 H 266.51 -3.93512 0.582476 0
M  V30 2822 H 263.249 -5.90826 2.83911 0
M  V30 2823 H 262.769 -5.89124 1.12661 0
M  V30 2824 H 264.448 -6.27371 1.58159 0
M  V30 2825 N 264.58 -0.43555 -1.51462 0
M  V30 2826 C 265.996 -0.0877501 -1.59359 0
M  V30 2827 C 266.196 1.4027 -1.4466 0
M  V30 2828 O 265.252 2.17243 -1.28693 0
M  V30 2829 C 266.565 -0.606264 -2.94525 0
M  V30 2830 C 268.113 -0.566548 -3.0783 0
M  V30 2831 C 268.588 -1.06201 -4.45517 0
M  V30 2832 N 270.079 -1.01992 -4.51832 0
M  V30 2833 C 270.814 -1.37417 -5.5669 0
M  V30 2834 N 270.31 -1.80119 -6.68976 0
M  V30 2835 N 272.103 -1.29245 -5.47039 0
M  V30 2836 H 264.254 -1.40533 -1.59261 0
M  V30 2837 H 266.517 -0.578992 -0.750648 0
M  V30 2838 H 266.223 -1.64901 -3.10645 0
M  V30 2839 H 266.097 -0.0302097 -3.77188 0
M  V30 2840 H 268.484 0.467208 -2.91378 0
M  V30 2841 H 268.565 -1.17898 -2.2701 0
M  V30 2842 H 268.209 -2.09422 -4.62715 0
M  V30 2843 H 268.139 -0.426127 -5.24873 0
M  V30 2844 H 270.63 -0.706308 -3.71241 0
M  V30 2845 H 270.943 -2.05392 -7.45006 0
M  V30 2846 H 269.288 -1.84044 -6.70189 0
M  V30 2847 H 272.479 -0.957522 -4.58202 0
M  V30 2848 H 272.652 -1.57182 -6.28648 0
M  V30 2849 N 266.058 1.56714 -0.166846 0
M  V30 2850 C 267.474 1.58473 0.189372 0
M  V30 2851 C 267.674 1.18201 1.63189 0
M  V30 2852 O 266.73 0.891528 2.36237 0
M  V30 2853 C 268.043 3.00573 -0.0873872 0
M  V30 2854 C 269.591 3.1299 -0.0252443 0
M  V30 2855 C 270.066 4.57174 -0.274934 0
M  V30 2856 N 271.557 4.62665 -0.222553 0
M  V30 2857 C 272.292 5.72072 -0.389985 0
M  V30 2858 N 271.788 6.90054 -0.616229 0
M  V30 2859 N 273.581 5.61153 -0.326202 0
M  V30 2860 H 265.732 1.8118 -1.10849 0
M  V30 2861 H 267.995 0.839525 -0.440342 0
M  V30 2862 H 267.701 3.34497 -1.0865 0
M  V30 2863 H 267.575 3.72019 0.623037 0
M  V30 2864 H 269.962 2.78895 0.96444 0
M  V30 2865 H 270.043 2.43989 -0.768309 0
M  V30 2866 H 269.687 4.91976 -1.26181 0
M  V30 2867 H 269.617 5.24328 0.48869 0
M  V30 2868 H 272.108 3.77863 -0.0531512 0
M  V30 2869 H 272.421 7.69311 -0.733559 0
M  V30 2870 H 270.766 6.91927 -0.652791 0
M  V30 2871 H 273.957 4.67859 -0.150072 0
M  V30 2872 H 274.13 6.46364 -0.460116 0
M  V30 2873 N 267.536 -0.106894 1.57237 0
M  V30 2874 C 268.782 -0.81373 1.85759 0
M  V30 2875 C 269.115 -1.78952 0.754315 0
M  V30 2876 O 268.39 -1.93029 -0.23879 0
M  V30 2877 C 268.673 -1.55293 3.24894 0
M  V30 2878 C 268.526 -0.595929 4.45835 0
M  V30 2879 C 269.845 -2.5063 3.61763 0
M  V30 2880 H 266.964 -0.294369 0.67566 0
M  V30 2881 H 269.606 -0.0776472 1.89841 0
M  V30 2882 H 267.756 -2.1804 3.21544 0
M  V30 2883 H 269.428 0.0236262 4.61294 0
M  V30 2884 H 267.671 0.0916191 4.33703 0
M  V30 2885 H 268.342 -1.15004 5.39887 0
M  V30 2886 H 270.818 -1.97982 3.65981 0
M  V30 2887 H 269.694 -2.99376 4.60071 0
M  V30 2888 H 269.955 -3.3385 2.89821 0
M  V30 2889 N 269.014 -1.53014 -0.377408 0
M  V30 2890 C 270.263 -1.67845 -1.11853 0
M  V30 2891 C 270.576 -0.430625 -1.90801 0
M  V30 2892 O 271.782 -0.459261 -2.67587 0
M  V30 2893 C 270.238 -2.96668 -2.03756 0
M  V30 2894 C 269.846 -4.28671 -1.30175 0
M  V30 2895 C 271.59 -3.20865 -2.77932 0
M  V30 2896 C 269.497 -5.48591 -2.20911 0
M  V30 2897 H 268.427 -0.625343 -0.421263 0
M  V30 2898 H 271.078 -1.79514 -0.380409 0
M  V30 2899 H 269.46 -2.78773 -2.8125 0
M  V30 2900 H 270.634 -4.57157 -0.578259 0
M  V30 2901 H 268.949 -4.10825 -0.679108 0
M  V30 2902 H 271.546 -4.07642 -3.46024 0
M  V30 2903 H 271.889 -2.36424 -3.4265 0
M  V30 2904 H 272.422 -3.39379 -2.07525 0
M  V30 2905 H 269.161 -6.35474 -1.6079 0
M  V30 2906 H 268.681 -5.244 -2.91144 0
M  V30 2907 H 270.36 -5.8292 -2.80736 0
M  V30 2908 N 270.492 0.636531 -1.44174 0
M  V30 2909 C 271.424 1.7618 -1.46606 0
M  V30 2910 C 272.437 1.58768 -0.360091 0
M  V30 2911 O 273.626 1.67181 -0.625518 0
M  V30 2912 C 270.726 3.13833 -1.27915 0
M  V30 2913 C 269.899 3.57753 -2.51658 0
M  V30 2914 C 268.958 4.74265 -2.27945 0
M  V30 2915 O 267.984 4.82852 -3.01401 0
M  V30 2916 N 269.186 5.65604 -1.30662 0
M  V30 2917 H 271.951 1.74567 -2.43612 0
M  V30 2918 H 269.512 0.820924 -1.39544 0
M  V30 2919 H 271.504 3.8949 -1.09907 0
M  V30 2920 H 270.074 3.10121 -0.39293 0
M  V30 2921 H 269.294 2.72362 -2.84978 0
M  V30 2922 H 270.582 3.83847 -3.33974 0
M  V30 2923 H 269.98 5.61354 -0.699844 0
M  V30 2924 H 268.537 6.40913 -1.18634 0
M  V30 2925 N 271.97 1.30982 0.876444 0
M  V30 2926 C 273.219 1.19658 1.62373 0
M  V30 2927 C 273.532 -0.245636 1.94052 0
M  V30 2928 O 274.738 -0.48049 2.67214 0
M  V30 2929 C 273.194 2.09433 2.92687 0
M  V30 2930 C 272.802 3.58613 2.68516 0
M  V30 2931 C 274.546 2.06893 3.70669 0
M  V30 2932 C 272.453 4.40416 3.94699 0
M  V30 2933 H 271.383 0.444268 0.609214 0
M  V30 2934 H 274.034 1.55791 0.969605 0
M  V30 2935 H 272.416 1.66191 3.59439 0
M  V30 2936 H 273.59 4.10058 2.10212 0
M  V30 2937 H 271.905 3.63063 2.03898 0
M  V30 2938 H 274.502 2.65258 4.64265 0
M  V30 2939 H 274.845 1.05448 4.02724 0
M  V30 2940 H 275.378 2.48301 3.10792 0
M  V30 2941 H 272.117 5.42591 3.67798 0
M  V30 2942 H 271.637 3.93731 4.52477 0
M  V30 2943 H 273.316 4.52294 4.62644 0
M  V30 2944 N 273.449 -1.08991 1.13837 0
M  V30 2945 C 274.379 -2.17771 0.842507 0
M  V30 2946 C 275.36 -1.6892 -0.20001 0
M  V30 2947 O 276.545 -1.94113 -0.0579731 0
M  V30 2948 C 273.675 -3.4589 0.312644 0
M  V30 2949 C 272.629 -4.08099 1.28992 0
M  V30 2950 C 271.955 -5.31098 0.619623 0
M  V30 2951 C 273.255 -4.50077 2.65005 0
M  V30 2952 H 274.949 -2.42777 1.75213 0
M  V30 2953 H 272.495 -1.16682 0.843875 0
M  V30 2954 H 274.448 -4.21297 0.0933043 0
M  V30 2955 H 273.172 -3.20419 -0.632382 0
M  V30 2956 H 271.831 -3.34717 1.49533 0
M  V30 2957 H 271.479 -5.0191 -0.33102 0
M  V30 2958 H 271.179 -5.73674 1.27167 0
M  V30 2959 H 272.703 -6.09224 0.409669 0
M  V30 2960 H 274.117 -5.16688 2.48407 0
M  V30 2961 H 272.514 -5.03553 3.26427 0
M  V30 2962 H 273.584 -3.62257 3.22332 0
M  V30 2963 N 274.927 -0.932562 -1.27047 0
M  V30 2964 C 275.857 -0.452902 -2.29066 0
M  V30 2965 C 276.838 0.489338 -1.62909 0
M  V30 2966 O 278.023 0.393046 -1.90181 0
M  V30 2967 C 275.153 0.290698 -3.46081 0
M  V30 2968 C 274.107 -0.564168 -4.24265 0
M  V30 2969 C 273.433 0.308886 -5.33807 0
M  V30 2970 C 274.733 -1.83112 -4.89149 0
M  V30 2971 H 276.427 -1.30552 -2.69437 0
M  V30 2972 H 273.973 -0.629201 -1.29526 0
M  V30 2973 H 275.926 0.637233 -4.16554 0
M  V30 2974 H 274.65 1.17738 -3.0464 0
M  V30 2975 H 273.309 -0.893477 -3.55545 0
M  V30 2976 H 272.957 1.19467 -4.88607 0
M  V30 2977 H 272.657 -0.259633 -5.87026 0
M  V30 2978 H 274.181 0.650884 -6.07121 0
M  V30 2979 H 275.595 -1.55236 -5.51883 0
M  V30 2980 H 273.992 -2.34353 -5.52448 0
M  V30 2981 H 275.062 -2.54772 -4.12576 0
M  V30 2982 N 276.405 1.4127 -0.698611 0
M  V30 2983 C 277.821 1.55241 -0.370462 0
M  V30 2984 C 278.021 1.67351 1.12231 0
M  V30 2985 O 277.077 1.65363 1.90818 0
M  V30 2986 C 278.39 2.78997 -1.12165 0
M  V30 2987 C 279.938 2.92797 -1.1063 0
M  V30 2988 C 280.413 4.19445 -1.8393 0
M  V30 2989 N 281.904 4.26409 -1.80914 0
M  V30 2990 C 282.639 5.23271 -2.34467 0
M  V30 2991 N 282.135 6.26145 -2.96504 0
M  V30 2992 N 283.928 5.15232 -2.24706 0
M  V30 2993 H 276.079 1.31654 -1.66676 0
M  V30 2994 H 278.342 0.635393 -0.703548 0
M  V30 2995 H 278.048 2.76268 -2.17644 0
M  V30 2996 H 277.922 3.70606 -0.702209 0
M  V30 2997 H 280.309 2.95039 -0.0597713 0
M  V30 2998 H 280.39 2.02353 -1.56483 0
M  V30 2999 H 280.034 4.17964 -2.88563 0
M  V30 3000 H 279.964 5.08866 -1.35509 0
M  V30 3001 H 282.455 3.527 -1.35687 0
M  V30 3002 H 282.768 6.96451 -3.34927 0
M  V30 3003 H 281.113 6.26638 -3.00583 0
M  V30 3004 H 284.304 4.33789 -1.7591 0
M  V30 3005 H 284.477 5.90552 -2.66745 0
M  V30 3006 N 277.883 0.443576 1.51229 0
M  V30 3007 C 279.299 0.0962001 1.5931 0
M  V30 3008 C 279.499 -1.39501 1.45402 0
M  V30 3009 O 278.555 -2.16557 1.29843 0
M  V30 3010 C 279.868 0.621875 2.94199 0
M  V30 3011 C 281.416 0.582865 3.07525 0
M  V30 3012 C 281.891 1.08562 4.44948 0
M  V30 3013 N 283.382 1.04387 4.51284 0
M  V30 3014 C 284.117 1.40368 5.55954 0
M  V30 3015 N 283.613 1.83664 6.68011 0
M  V30 3016 N 285.406 1.32145 5.46346 0
M  V30 3017 H 277.557 1.41376 1.58514 0
M  V30 3018 H 279.82 0.582965 0.747567 0
M  V30 3019 H 279.526 1.66546 3.09767 0
M  V30 3020 H 279.4 0.0502125 3.77167 0
M  V30 3021 H 281.787 -0.451749 2.91622 0
M  V30 3022 H 281.868 1.191 2.26382 0
M  V30 3023 H 281.512 2.11873 4.61598 0
M  V30 3024 H 281.442 0.453956 5.2464 0
M  V30 3025 H 283.933 0.725986 3.70861 0
M  V30 3026 H 284.246 2.0934 7.43906 0
M  V30 3027 H 282.591 1.87596 6.69203 0
M  V30 3028 H 285.782 0.981808 4.57688 0
M  V30 3029 H 285.955 1.60514 6.27805 0
M  V30 3030 N 279.361 -1.56624 0.175154 0
M  V30 3031 C 280.589 -2.01374 -0.474971 0
M  V30 3032 C 281.004 -1.05537 -1.56548 0
M  V30 3033 O 280.361 -0.0568668 -1.82411 0
M  V30 3034 C 280.412 -3.45923 -1.04975 0
M  V30 3035 O 280.133 -4.381 -0.00276605 0
M  V30 3036 C 281.634 -4.06093 -1.77773 0
M  V30 3037 H 278.854 -0.659962 -0.121206 0
M  V30 3038 H 281.398 -2.02601 0.27801 0
M  V30 3039 H 279.553 -3.45458 -1.75321 0
M  V30 3040 H 279.967 -5.22753 -0.427681 0
M  V30 3041 H 281.441 -5.09147 -2.13245 0
M  V30 3042 H 281.918 -3.48405 -2.67414 0
M  V30 3043 H 282.524 -4.10272 -1.12059 0
M  V30 3044 N 280.839 0.0985539 -1.57292 0
M  V30 3045 C 281.786 1.11981 -2.01814 0
M  V30 3046 C 282.756 1.39999 -0.89384 0
M  V30 3047 O 283.941 1.5152 -1.15958 0
M  V30 3048 C 281.081 2.43577 -2.44467 0
M  V30 3049 C 280.194 2.2232 -3.70402 0
M  V30 3050 C 279.329 3.4729 -4.01949 0
M  V30 3051 C 278.368 3.2128 -5.21005 0
M  V30 3052 N 277.505 4.38507 -5.48321 0
M  V30 3053 H 282.345 0.733149 -2.88841 0
M  V30 3054 H 279.882 0.350482 -1.42864 0
M  V30 3055 H 281.84 3.20373 -2.6724 0
M  V30 3056 H 280.47 2.80097 -1.60455 0
M  V30 3057 H 279.522 1.36343 -3.55126 0
M  V30 3058 H 280.834 1.99089 -4.57345 0
M  V30 3059 H 279.988 4.32495 -4.25479 0
M  V30 3060 H 278.727 3.73572 -3.13521 0
M  V30 3061 H 277.732 2.34468 -4.97298 0
M  V30 3062 H 278.957 2.96348 -6.11028 0
M  V30 3063 H 276.903 4.64871 -4.62851 0
M  V30 3064 H 276.82 4.18455 -6.29628 0
M  V30 3065 H 278.088 5.24787 -5.76385 0
M  V30 3066 N 282.317 1.53212 0.369288 0
M  V30 3067 C 283.265 1.80054 1.47253 0
M  V30 3068 C 284.259 0.669456 1.55611 0
M  V30 3069 O 285.465 0.852328 1.58541 0
M  V30 3070 H 281.84 0.570034 0.490475 0
M  V30 3071 H 283.811 2.72403 1.21817 0
M  V30 3072 C 282.56 2.00403 2.84137 0
M  V30 3073 H 281.883 2.86876 2.78464 0
M  V30 3074 H 283.323 2.23164 3.60519 0
M  V30 3075 C 281.782 0.782081 3.27697 0
M  V30 3076 O 282.312 -0.0310205 4.01688 0
M  V30 3077 N 280.518 0.606573 2.84199 0
M  V30 3078 H 280.065 1.26939 2.24152 0
M  V30 3079 H 280.023 -0.20962 3.137 0
M  V30 3080 N 283.795 -0.628877 1.44509 0
M  V30 3081 C 284.743 -1.76193 1.51852 0
M  V30 3082 C 285.737 -1.64849 0.390042 0
M  V30 3083 O 286.943 -1.709 0.565082 0
M  V30 3084 H 283.318 -0.581728 0.476547 0
M  V30 3085 H 285.289 -1.67123 2.47209 0
M  V30 3086 C 284.038 -3.14533 1.48204 0
M  V30 3087 H 283.361 -3.23911 2.34354 0
M  V30 3088 H 284.801 -3.93701 1.57402 0
M  V30 3089 C 283.26 -3.36287 0.203142 0
M  V30 3090 O 283.79 -3.9509 -0.725745 0
M  V30 3091 N 281.996 -2.90408 0.105563 0
M  V30 3092 H 281.543 -2.42739 0.862301 0
M  V30 3093 H 281.501 -3.05339 -0.749371 0
M  V30 3094 N 285.273 -1.31445 -0.869486 0
M  V30 3095 C 286.684 -1.19042 -1.43826 0
M  V30 3096 C 287.035 0.202919 -1.95148 0
M  V30 3097 O 286.16 1.10071 -1.86315 0
M  V30 3098 C 286.755 -2.15499 -2.6143 0
M  V30 3099 C 285.314 -2.07028 -3.14351 0
M  V30 3100 C 284.461 -2.04701 -1.87063 0
M  V30 3101 H 287.412 -1.43489 -0.677984 0
M  V30 3102 H 287.433 -1.74488 -3.38134 0
M  V30 3103 H 286.945 -3.16899 -2.24046 0
M  V30 3104 H 285.046 -1.08825 -3.56354 0
M  V30 3105 H 285.159 -2.96157 -3.766 0
M  V30 3106 H 283.523 -1.49724 -2.06046 0
M  V30 3107 H 284.306 -3.07857 -1.51917 0
M  V30 3108 N 286.751 1.08385 -1.14413 0
M  V30 3109 C 287.997 1.81044 -0.913834 0
M  V30 3110 C 288.33 1.86004 0.558209 0
M  V30 3111 O 287.605 1.33606 1.4135 0
M  V30 3112 C 287.888 3.26648 -1.51569 0
M  V30 3113 C 287.741 3.29895 -3.0576 0
M  V30 3114 C 289.06 4.23629 -1.19273 0
M  V30 3115 H 286.179 0.65727 -0.333414 0
M  V30 3116 H 288.821 1.26896 -1.41412 0
M  V30 3117 H 286.971 3.72889 -1.09023 0
M  V30 3118 H 288.643 2.91977 -3.57137 0
M  V30 3119 H 286.886 2.69163 -3.40197 0
M  V30 3120 H 287.557 4.32516 -3.42977 0
M  V30 3121 H 290.033 3.85727 -1.56057 0
M  V30 3122 H 288.909 5.23822 -1.64017 0
M  V30 3123 H 289.17 4.41968 -0.108068 0
M  V30 3124 N 288.23 0.939286 1.26551 0
M  V30 3125 C 289.16 0.465044 2.28822 0
M  V30 3126 C 290.141 -0.480692 1.63167 0
M  V30 3127 O 291.326 -0.382955 1.90387 0
M  V30 3128 C 288.456 -0.27234 3.46231 0
M  V30 3129 C 287.41 0.58666 4.2396 0
M  V30 3130 C 286.736 -0.280573 5.33963 0
M  V30 3131 C 288.036 1.85704 4.88171 0
M  V30 3132 H 289.73 1.31979 2.68741 0
M  V30 3133 H 287.276 0.636061 1.29191 0
M  V30 3134 H 289.229 -0.615133 4.16886 0
M  V30 3135 H 287.953 -1.16121 3.0526 0
M  V30 3136 H 286.612 0.91232 3.55067 0
M  V30 3137 H 286.26 -1.16874 4.89234 0
M  V30 3138 H 285.96 0.29076 5.8688 0
M  V30 3139 H 287.484 -0.618678 6.07458 0
M  V30 3140 H 288.898 1.58161 5.51052 0
M  V30 3141 H 287.295 2.37279 5.51197 0
M  V30 3142 H 288.365 2.56957 4.11219 0
M  V30 3143 N 289.708 -1.40897 0.706093 0
M  V30 3144 C 290.957 -2.00284 0.238574 0
M  V30 3145 C 291.27 -1.56604 -1.17194 0
M  V30 3146 O 292.476 -2.08624 -1.73748 0
M  V30 3147 C 290.932 -3.57934 0.375623 0
M  V30 3148 C 290.54 -4.10591 1.79217 0
M  V30 3149 C 292.284 -4.24488 -0.0315857 0
M  V30 3150 C 290.191 -5.60712 1.88032 0
M  V30 3151 H 289.121 -0.749144 0.0854398 0
M  V30 3152 H 291.772 -1.61251 0.875813 0
M  V30 3153 H 290.154 -3.94622 -0.330042 0
M  V30 3154 H 291.328 -3.85301 2.52745 0
M  V30 3155 H 289.643 -3.56601 2.15 0
M  V30 3156 H 292.24 -5.34698 0.0136842 0
M  V30 3157 H 292.583 -4.02261 -1.072 0
M  V30 3158 H 293.116 -3.92873 0.624181 0
M  V30 3159 H 289.855 -5.87781 2.90161 0
M  V30 3160 H 289.375 -5.87896 1.18903 0
M  V30 3161 H 291.054 -6.25658 1.64805 0
M  V30 3162 N 291.186 -0.45159 -1.50991 0
M  V30 3163 C 292.434 0.109857 -2.01801 0
M  V30 3164 C 292.755 1.41958 -1.3369 0
M  V30 3165 O 292.025 1.9003 -0.475951 0
M  V30 3166 H 290.605 0.0435884 -0.745727 0
M  V30 3167 H 293.267 -0.597557 -1.85514 0
M  V30 3168 H 292.363 0.275489 -3.10882 0
M  V30 3169 N 292.664 1.56529 -0.183458 0
M  V30 3170 C 293.574 2.22144 0.754272 0
M  V30 3171 C 294.59 1.21684 1.24374 0
M  V30 3172 O 295.766 1.54385 1.29333 0
M  V30 3173 C 292.831 2.85884 1.96141 0
M  V30 3174 C 291.892 4.01579 1.51765 0
M  V30 3175 C 291.125 4.6227 2.66725 0
M  V30 3176 O 291.348 4.21865 3.83909 0
M  V30 3177 O 290.282 5.51936 2.40104 0
M  V30 3178 H 294.108 3.02861 0.225527 0
M  V30 3179 H 291.693 1.49331 0.0453032 0
M  V30 3180 H 293.575 3.26253 2.66715 0
M  V30 3181 H 292.25 2.08154 2.47899 0
M  V30 3182 H 291.157 3.65856 0.781049 0
M  V30 3183 H 292.49 4.80938 1.04686 0
M  V30 3184 N 294.142 -0.090211 1.57342 0
M  V30 3185 C 295.553 -0.644173 1.75235 0
M  V30 3186 C 295.904 -1.78865 0.806335 0
M  V30 3187 O 295.029 -2.16395 -0.0140128 0
M  V30 3188 C 295.624 -1.17532 3.1776 0
M  V30 3189 C 294.183 -1.67531 3.37061 0
M  V30 3190 C 293.33 -0.58693 2.71017 0
M  V30 3191 H 296.281 0.135884 1.58117 0
M  V30 3192 H 296.302 -2.04455 3.20902 0
M  V30 3193 H 295.814 -0.342138 3.86589 0
M  V30 3194 H 293.915 -2.53234 2.73319 0
M  V30 3195 H 294.028 -1.76493 4.45406 0
M  V30 3196 H 292.392 -1.02756 2.33052 0
M  V30 3197 H 293.175 0.235758 3.4249 0
M  V30 3198 N 295.62 -1.53406 -0.361157 0
M  V30 3199 C 296.868 -1.69467 -1.10115 0
M  V30 3200 C 297.189 -0.451352 -1.89705 0
M  V30 3201 O 296.459 0.534636 -1.88463 0
M  V30 3202 H 295.039 -0.624749 -0.409508 0
M  V30 3203 H 297.701 -1.90609 -0.406699 0
M  V30 3204 H 296.797 -2.55774 -1.78847 0
M  V30 3205 N 297.098 0.621204 -1.44841 0
M  V30 3206 C 298.344 1.3826 -1.48365 0
M  V30 3207 C 298.677 1.93831 -0.119624 0
M  V30 3208 O 297.952 1.74251 0.864111 0
M  V30 3209 C 298.235 2.54058 -2.55199 0
M  V30 3210 C 298.088 2.03772 -4.00995 0
M  V30 3211 C 299.407 3.56225 -2.58442 0
M  V30 3212 H 296.526 0.501374 -0.540179 0
M  V30 3213 H 299.168 0.7015 -1.76576 0
M  V30 3214 H 297.318 3.12162 -2.31274 0
M  V30 3215 H 298.99 1.50423 -4.36086 0
M  V30 3216 H 297.233 1.34876 -4.12299 0
M  V30 3217 H 297.904 2.87185 -4.71411 0
M  V30 3218 H 300.38 3.07939 -2.79844 0
M  V30 3219 H 299.256 4.34756 -3.3508 0
M  V30 3220 H 299.517 4.10949 -1.63013 0
M  V30 3221 N 298.576 1.31904 0.862503 0
M  V30 3222 C 299.824 1.21776 1.61292 0
M  V30 3223 C 300.145 -0.222413 1.93727 0
M  V30 3224 O 299.415 -1.1451 1.58947 0
M  V30 3225 H 297.995 0.447717 0.597962 0
M  V30 3226 H 300.657 1.65326 1.03215 0
M  V30 3227 H 299.753 1.7948 2.5533 0
M  V30 3228 N 300.054 -1.07777 1.14986 0
M  V30 3229 C 301.001 -2.14867 0.842672 0
M  V30 3230 C 301.971 -1.6486 -0.202552 0
M  V30 3231 O 303.156 -1.90668 -0.0710568 0
M  V30 3232 C 300.296 -3.43486 0.333363 0
M  V30 3233 C 299.409 -4.07306 1.43965 0
M  V30 3234 C 298.544 -5.23744 0.886914 0
M  V30 3235 C 297.583 -5.79517 1.97043 0
M  V30 3236 N 296.72 -6.87291 1.4344 0
M  V30 3237 H 301.56 -2.40485 1.75986 0
M  V30 3238 H 299.097 -1.1801 0.878179 0
M  V30 3239 H 301.055 -4.17195 0.0198163 0
M  V30 3240 H 299.685 -3.18133 -0.546916 0
M  V30 3241 H 298.737 -3.31293 1.86946 0
M  V30 3242 H 300.049 -4.44771 2.25788 0
M  V30 3243 H 299.203 -6.04419 0.525651 0
M  V30 3244 H 297.942 -4.87685 0.0377957 0
M  V30 3245 H 296.947 -4.97491 2.34057 0
M  V30 3246 H 298.172 -6.17632 2.82325 0
M  V30 3247 H 296.118 -6.5318 0.607567 0
M  V30 3248 H 296.035 -7.23617 2.18895 0
M  V30 3249 H 297.303 -7.71682 1.10124 0
M  V30 3250 N 301.532 -0.945985 -1.26051 0
M  V30 3251 C 302.76 -0.613025 -1.9761 0
M  V30 3252 C 303.175 0.813035 -1.70397 0
M  V30 3253 O 302.532 1.54274 -0.974979 0
M  V30 3254 C 302.583 -0.85159 -3.51326 0
M  V30 3255 O 302.304 -2.22157 -3.77595 0
M  V30 3256 C 303.805 -0.529831 -4.40122 0
M  V30 3257 H 301.025 -0.230593 -0.630133 0
M  V30 3258 H 303.569 -1.268 -1.60443 0
M  V30 3259 H 301.724 -0.243151 -3.86636 0
M  V30 3260 H 302.138 -2.2852 -4.721 0
M  V30 3261 H 303.612 -0.747348 -5.46917 0
M  V30 3262 H 304.089 0.535341 -4.35925 0
M  V30 3263 H 304.695 -1.11721 -4.10364 0
M  V30 3264 N 303.011 1.40521 -0.713556 0
M  V30 3265 C 303.974 2.29098 -0.0684347 0
M  V30 3266 C 304.974 1.45268 0.689472 0
M  V30 3267 O 306.164 1.66205 0.521677 0
M  V30 3268 C 303.296 3.28446 0.913024 0
M  V30 3269 H 304.489 2.87645 -0.84855 0
M  V30 3270 H 302.042 1.48809 -0.47809 0
M  V30 3271 H 302.777 2.74913 1.72027 0
M  V30 3272 H 302.562 3.90327 0.372472 0
M  V30 3273 H 304.052 3.94777 1.36165 0
M  V30 3274 N 304.489 0.459591 1.5075 0
M  V30 3275 C 305.738 -0.100971 2.01447 0
M  V30 3276 C 306.051 -1.41816 1.34713 0
M  V30 3277 O 307.257 -2.06299 1.76502 0
M  V30 3278 C 305.713 -0.23047 3.59161 0
M  V30 3279 C 305.321 1.0776 4.34847 0
M  V30 3280 C 307.065 -0.743608 4.17936 0
M  V30 3281 C 304.972 0.91253 5.84317 0
M  V30 3282 H 303.902 -0.0415102 0.752856 0
M  V30 3283 H 306.553 0.592742 1.73663 0
M  V30 3284 H 304.935 -0.987703 3.83485 0
M  V30 3285 H 306.109 1.8449 4.22256 0
M  V30 3286 H 304.424 1.52097 3.87628 0
M  V30 3287 H 307.021 -0.883959 5.27343 0
M  V30 3288 H 307.364 -1.73196 3.78562 0
M  V30 3289 H 307.897 -0.04408 3.97776 0
M  V30 3290 H 304.636 1.87391 6.28144 0
M  V30 3291 H 304.156 0.185422 5.99513 0
M  V30 3292 H 305.835 0.574547 6.44444 0
M  V30 3293 N 305.967 -1.56429 0.191757 0
M  V30 3294 C 307.213 -1.97777 -0.448554 0
M  V30 3295 C 307.546 -1.07847 -1.61501 0
M  V30 3296 O 306.821 -0.129774 -1.94067 0
M  V30 3297 C 307.104 -3.48362 -0.911906 0
M  V30 3298 C 306.957 -4.4907 0.256136 0
M  V30 3299 C 308.276 -4.02561 -1.77857 0
M  V30 3300 H 305.395 -0.719071 -0.161572 0
M  V30 3301 H 308.037 -1.87896 0.282007 0
M  V30 3302 H 306.187 -3.56914 -1.53442 0
M  V30 3303 H 307.859 -4.5256 0.893733 0
M  V30 3304 H 306.102 -4.24181 0.908436 0
M  V30 3305 H 306.773 -5.51889 -0.11053 0
M  V30 3306 H 309.249 -3.96767 -1.25359 0
M  V30 3307 H 308.125 -5.08301 -2.07174 0
M  V30 3308 H 308.386 -3.47616 -2.73158 0
M  V30 3309 N 307.445 0.0818655 -1.57387 0
M  V30 3310 C 308.355 1.11642 -2.06333 0
M  V30 3311 C 309.371 1.43033 -0.99083 0
M  V30 3312 O 310.547 1.53411 -1.30488 0
M  V30 3313 C 307.612 2.41342 -2.48907 0
M  V30 3314 C 306.673 2.17014 -3.7041 0
M  V30 3315 C 305.906 3.4053 -4.10944 0
M  V30 3316 O 306.129 4.4927 -3.51444 0
M  V30 3317 O 305.063 3.29336 -5.03807 0
M  V30 3318 H 308.889 0.730657 -2.9478 0
M  V30 3319 H 306.474 0.295301 -1.46452 0
M  V30 3320 H 308.356 3.17691 -2.76858 0
M  V30 3321 H 307.031 2.79319 -1.63593 0
M  V30 3322 H 305.938 1.38403 -3.47556 0
M  V30 3323 H 307.271 1.83923 -4.56545 0
M  V30 3324 N 308.923 1.53595 0.353017 0
M  V30 3325 C 310.171 1.70049 1.09215 0
M  V30 3326 C 310.492 0.461406 1.89463 0
M  V30 3327 O 309.762 -0.524633 1.88744 0
M  V30 3328 H 308.342 0.626912 0.40619 0
M  V30 3329 H 311.004 1.90822 0.396585 0
M  V30 3330 H 310.1 2.56718 1.77488 0
M  V30 3331 N 310.401 -0.613514 1.45168 0
M  V30 3332 C 311.331 -1.7354 1.56225 0
M  V30 3333 C 312.312 -1.64981 0.41414 0
M  V30 3334 O 313.497 -1.83472 0.636526 0
M  V30 3335 C 310.627 -3.12128 1.52295 0
M  V30 3336 C 309.581 -3.35491 2.65762 0
M  V30 3337 C 308.907 -4.74291 2.46885 0
M  V30 3338 C 310.207 -3.26325 4.0781 0
M  V30 3339 H 311.901 -1.64543 2.50132 0
M  V30 3340 H 309.447 -0.790185 1.20383 0
M  V30 3341 H 311.4 -3.90404 1.58628 0
M  V30 3342 H 310.124 -3.2195 0.549139 0
M  V30 3343 H 308.783 -2.59603 2.58847 0
M  V30 3344 H 308.431 -4.80839 1.47657 0
M  V30 3345 H 308.131 -4.9088 3.22972 0
M  V30 3346 H 309.655 -5.54775 2.55063 0
M  V30 3347 H 311.069 -3.94483 4.16 0
M  V30 3348 H 309.466 -3.54445 4.8424 0
M  V30 3349 H 310.536 -2.23855 4.30136 0
M  V30 3350 N 311.879 -1.3236 -0.855495 0
M  V30 3351 C 312.842 -1.21164 -1.94556 0
M  V30 3352 C 313.842 -0.134908 -1.60233 0
M  V30 3353 O 315.032 -0.385249 -1.69887 0
M  V30 3354 C 312.164 -0.863192 -3.29791 0
M  V30 3355 H 313.357 -2.18038 -2.05911 0
M  V30 3356 H 310.91 -1.16179 -1.04557 0
M  V30 3357 H 311.645 0.103769 -3.24134 0
M  V30 3358 H 311.43 -1.64166 -3.56078 0
M  V30 3359 H 312.92 -0.809156 -4.09686 0
M  V30 3360 N 313.357 1.07166 -1.15556 0
M  V30 3361 C 314.289 2.14341 -0.811815 0
M  V30 3362 C 315.302 1.61835 0.177015 0
M  V30 3363 O 316.491 1.78439 -0.0464996 0
M  V30 3364 C 313.591 3.38387 -0.186481 0
M  V30 3365 C 312.764 4.20238 -1.21321 0
M  V30 3366 C 311.823 5.2266 -0.609302 0
M  V30 3367 O 310.849 5.54719 -1.27576 0
M  V30 3368 N 312.051 5.77306 0.608099 0
M  V30 3369 H 314.816 2.44431 -1.73417 0
M  V30 3370 H 312.377 1.23089 -1.0517 0
M  V30 3371 H 314.369 4.04044 0.230339 0
M  V30 3372 H 312.939 3.05994 0.639249 0
M  V30 3373 H 312.159 3.50369 -1.80652 0
M  V30 3374 H 313.447 4.71736 -1.90638 0
M  V30 3375 H 312.845 5.53513 1.1679 0
M  V30 3376 H 311.402 6.44583 0.96725 0
M  V30 3377 N 314.835 0.952656 1.25548 0
M  V30 3378 C 316.251 0.656769 1.4546 0
M  V30 3379 C 316.451 -0.78633 1.85524 0
M  V30 3380 O 315.507 -1.56183 1.98402 0
M  V30 3381 C 316.82 1.62801 2.52817 0
M  V30 3382 C 318.368 1.63897 2.66659 0
M  V30 3383 C 318.843 2.5978 3.77198 0
M  V30 3384 N 320.334 2.58133 3.84606 0
M  V30 3385 C 321.069 3.29003 4.69621 0
M  V30 3386 N 320.565 4.09339 5.58939 0
M  V30 3387 N 322.358 3.179 4.63569 0
M  V30 3388 H 314.509 1.88526 0.978344 0
M  V30 3389 H 316.772 0.810815 0.491206 0
M  V30 3390 H 316.478 2.65869 2.30232 0
M  V30 3391 H 316.352 1.38898 3.50695 0
M  V30 3392 H 318.739 0.615481 2.8861 0
M  V30 3393 H 318.82 1.91858 1.69187 0
M  V30 3394 H 318.464 3.62254 3.55997 0
M  V30 3395 H 318.394 2.29105 4.7415 0
M  V30 3396 H 320.885 1.99809 3.20757 0
M  V30 3397 H 321.198 4.6034 6.20731 0
M  V30 3398 H 319.543 4.13438 5.58654 0
M  V30 3399 H 322.734 2.54612 3.92798 0
M  V30 3400 H 322.907 3.73398 5.29602 0
M  V30 3401 N 316.313 -1.40141 0.720998 0
M  V30 3402 C 317.562 -2.0002 0.259804 0
M  V30 3403 C 317.875 -1.57839 -1.15526 0
M  V30 3404 O 319.081 -2.10455 -1.71525 0
M  V30 3405 C 317.537 -3.57516 0.413566 0
M  V30 3406 C 317.145 -4.08667 1.83562 0
M  V30 3407 C 318.889 -4.24498 0.0134387 0
M  V30 3408 C 316.796 -5.58686 1.93968 0
M  V30 3409 H 315.726 -0.748195 0.0933806 0
M  V30 3410 H 318.377 -1.60313 0.892866 0
M  V30 3411 H 316.759 -3.9495 -0.288169 0
M  V30 3412 H 317.933 -3.82598 2.56817 0
M  V30 3413 H 316.248 -3.543 2.1877 0
M  V30 3414 H 318.845 -5.34654 0.0703954 0
M  V30 3415 H 319.188 -4.03375 -1.02927 0
M  V30 3416 H 319.721 -3.92188 0.665815 0
M  V30 3417 H 316.46 -5.8467 2.96379 0
M  V30 3418 H 315.98 -5.86602 1.25131 0
M  V30 3419 H 317.659 -6.23875 1.71431 0
M  V30 3420 N 317.792 -0.46758 -1.50504 0
M  V30 3421 C 319.038 0.0887532 -2.02606 0
M  V30 3422 C 319.371 1.39686 -1.34913 0
M  V30 3423 O 318.646 1.88644 -0.473694 0
M  V30 3424 C 318.929 0.276206 -3.59039 0
M  V30 3425 C 318.782 -1.05267 -4.37309 0
M  V30 3426 C 320.101 1.03235 -4.27821 0
M  V30 3427 H 317.22 0.0307814 -0.736357 0
M  V30 3428 H 319.862 -0.612485 -1.79857 0
M  V30 3429 H 318.012 0.8735 -3.78553 0
M  V30 3430 H 319.684 -1.68628 -4.29374 0
M  V30 3431 H 317.927 -1.65015 -4.01189 0
M  V30 3432 H 318.598 -0.875197 -5.45018 0
M  V30 3433 H 321.074 0.526111 -4.12761 0
M  V30 3434 H 319.95 1.1323 -5.37094 0
M  V30 3435 H 320.211 2.06806 -3.90748 0
M  V30 3436 N 319.27 1.56325 -0.20005 0
M  V30 3437 C 320.217 2.1932 0.718833 0
M  V30 3438 C 321.187 1.14198 1.20615 0
M  V30 3439 O 322.372 1.42469 1.26914 0
M  V30 3440 C 319.512 2.86041 1.93066 0
M  V30 3441 C 318.625 4.05702 1.48425 0
M  V30 3442 C 317.76 4.60266 2.65196 0
M  V30 3443 C 316.799 5.72273 2.17185 0
M  V30 3444 N 315.936 6.21221 3.27152 0
M  V30 3445 H 320.776 2.97486 0.17489 0
M  V30 3446 H 318.313 1.46911 0.0745794 0
M  V30 3447 H 320.271 3.22897 2.64184 0
M  V30 3448 H 318.901 2.1043 2.44783 0
M  V30 3449 H 317.953 3.74475 0.668755 0
M  V30 3450 H 319.265 4.86699 1.09204 0
M  V30 3451 H 318.419 4.99453 3.4443 0
M  V30 3452 H 317.158 3.78386 3.07693 0
M  V30 3453 H 316.163 5.3261 1.36407 0
M  V30 3454 H 317.388 6.55974 1.75713 0
M  V30 3455 H 315.334 5.42263 3.69171 0
M  V30 3456 H 315.251 6.97284 2.92116 0
M  V30 3457 H 316.519 6.65063 4.06585 0
M  V30 3458 N 320.748 -0.0735177 1.57428 0
M  V30 3459 C 321.996 -0.771472 1.86796 0
M  V30 3460 C 322.317 -1.78201 0.791804 0
M  V30 3461 O 321.587 -1.95074 -0.179718 0
M  V30 3462 H 320.167 -0.28791 0.689287 0
M  V30 3463 H 322.829 -0.0500161 1.94836 0
M  V30 3464 H 321.925 -1.28874 2.8425 0
M  V30 3465 N 322.226 -1.5378 -0.344866 0
M  V30 3466 C 323.503 -1.61589 -1.10219 0
M  V30 3467 C 323.883 -0.436316 -2.06542 0
M  V30 3468 O 323.231 0.571543 -2.21237 0
M  V30 3469 C 323.441 -2.97602 -1.82301 0
M  V30 3470 C 324.789 -3.5291 -2.36093 0
M  V30 3471 O 325.813 -2.99768 -1.924 0
M  V30 3472 O 324.672 -4.45859 -3.16026 0
M  V30 3473 H 321.766 -0.653522 -0.506792 0
M  V30 3474 H 324.312 -1.66126 -0.346465 0
M  V30 3475 H 323.084 -3.74893 -1.12121 0
M  V30 3476 H 322.707 -2.9665 -2.64735 0
M  V30 3477 N 323.704 0.605807 -1.45491 0
M  V30 3478 C 324.95 1.36679 -1.49823 0
M  V30 3479 C 325.283 1.93693 -0.140175 0
M  V30 3480 O 324.558 1.75158 0.845581 0
M  V30 3481 C 324.841 2.51337 -2.57879 0
M  V30 3482 C 324.694 1.99508 -4.03134 0
M  V30 3483 C 326.013 3.53463 -2.62205 0
M  V30 3484 H 323.132 0.495617 -0.545466 0
M  V30 3485 H 325.774 0.682732 -1.7731 0
M  V30 3486 H 323.924 3.09691 -2.34571 0
M  V30 3487 H 325.596 1.45789 -4.37656 0
M  V30 3488 H 323.839 1.30496 -4.13707 0
M  V30 3489 H 324.51 2.82169 -4.74431 0
M  V30 3490 H 326.986 3.04953 -2.83095 0
M  V30 3491 H 325.862 4.31178 -3.39672 0
M  V30 3492 H 326.123 4.09197 -1.67363 0
M  V30 3493 N 325.182 1.32811 0.848464 0
M  V30 3494 C 326.593 1.21315 1.41914 0
M  V30 3495 C 326.944 -0.171847 1.95446 0
M  V30 3496 O 326.069 -1.07093 1.88043 0
M  V30 3497 C 326.664 2.19631 2.57968 0
M  V30 3498 C 325.223 2.12003 3.11017 0
M  V30 3499 C 324.37 2.07651 1.83783 0
M  V30 3500 H 327.321 1.44549 0.655071 0
M  V30 3501 H 327.342 1.79845 3.35315 0
M  V30 3502 H 326.854 3.20423 2.18976 0
M  V30 3503 H 324.955 1.14481 3.54577 0
M  V30 3504 H 325.068 3.02111 3.71841 0
M  V30 3505 H 323.432 1.52983 2.03638 0
M  V30 3506 H 324.215 3.10235 1.47 0
M  V30 3507 N 326.66 -1.06551 1.16123 0
M  V30 3508 C 327.57 -2.17484 0.879662 0
M  V30 3509 C 328.586 -1.73377 -0.147104 0
M  V30 3510 O 329.762 -2.01379 0.0289128 0
M  V30 3511 C 326.827 -3.44591 0.381829 0
M  V30 3512 C 325.888 -4.0322 1.4735 0
M  V30 3513 C 325.121 -5.24261 0.999324 0
M  V30 3514 O 325.344 -5.70198 -0.151957 0
M  V30 3515 O 324.278 -5.74775 1.78653 0
M  V30 3516 H 328.104 -2.44075 1.80724 0
M  V30 3517 H 325.689 -1.16042 0.940992 0
M  V30 3518 H 327.571 -4.21254 0.111053 0
M  V30 3519 H 326.246 -3.19532 -0.51777 0
M  V30 3520 H 325.153 -3.2806 1.79798 0
M  V30 3521 H 326.486 -4.32568 2.34831 0
M  V30 3522 N 328.138 -0.959301 -1.25041 0
M  V30 3523 C 329.386 -0.615393 -1.92503 0
M  V30 3524 C 329.707 0.850969 -1.75452 0
M  V30 3525 O 328.977 1.60658 -1.12098 0
M  V30 3526 H 327.557 -0.224613 -0.712431 0
M  V30 3527 H 330.219 -1.21855 -1.5211 0
M  V30 3528 H 329.315 -0.848738 -3.00338 0
M  V30 3529 N 329.616 1.39756 -0.72842 0
M  V30 3530 C 330.546 2.33289 -0.0991354 0
M  V30 3531 C 331.527 1.53568 0.731489 0
M  V30 3532 O 332.712 1.81987 0.677807 0
M  V30 3533 C 329.842 3.3763 0.813834 0
M  V30 3534 C 328.796 4.2791 0.0878663 0
M  V30 3535 C 328.122 5.22894 1.11741 0
M  V30 3536 C 329.422 5.11314 -1.06563 0
M  V30 3537 H 331.116 2.86163 -0.880408 0
M  V30 3538 H 328.662 1.37591 -0.424819 0
M  V30 3539 H 330.615 4.0201 1.26355 0
M  V30 3540 H 329.339 2.83181 1.62715 0
M  V30 3541 H 327.998 3.65 -0.342159 0
M  V30 3542 H 327.646 4.64744 1.92412 0
M  V30 3543 H 327.346 5.84143 0.636477 0
M  V30 3544 H 328.87 5.90151 1.56697 0
M  V30 3545 H 330.284 5.69076 -0.694671 0
M  V30 3546 H 328.681 5.81671 -1.47577 0
M  V30 3547 H 329.751 4.46534 -1.89038 0
M  V30 3548 N 331.094 0.475555 1.50254 0
M  V30 3549 C 332.041 -0.316293 2.28622 0
M  V30 3550 C 333.011 -0.983227 1.33873 0
M  V30 3551 O 334.196 -0.994805 1.62814 0
M  V30 3552 C 331.336 -1.38975 3.1588 0
M  V30 3553 C 330.449 -0.737146 4.25664 0
M  V30 3554 C 329.584 -1.78887 5.00173 0
M  V30 3555 C 328.623 -1.11676 6.01826 0
M  V30 3556 N 327.76 -2.11154 6.69596 0
M  V30 3557 H 332.6 0.358297 2.95838 0
M  V30 3558 H 330.137 0.188541 1.45887 0
M  V30 3559 H 332.095 -2.02383 3.64825 0
M  V30 3560 H 330.725 -2.03344 2.50701 0
M  V30 3561 H 329.777 0.0096065 3.80399 0
M  V30 3562 H 331.089 -0.206816 4.98371 0
M  V30 3563 H 330.243 -2.49865 5.52859 0
M  V30 3564 H 328.982 -2.35302 4.27182 0
M  V30 3565 H 327.987 -0.392633 5.48396 0
M  V30 3566 H 329.212 -0.55945 6.76792 0
M  V30 3567 H 327.158 -2.66577 5.99394 0
M  V30 3568 H 327.075 -1.63118 7.38193 0
M  V30 3569 H 328.343 -2.81497 7.26897 0
M  V30 3570 N 332.573 -1.56217 0.208337 0
M  V30 3571 C 333.821 -1.97558 -0.426076 0
M  V30 3572 C 334.142 -1.09683 -1.61229 0
M  V30 3573 O 333.412 -0.170956 -1.95153 0
M  V30 3574 H 331.992 -0.729575 -0.160405 0
M  V30 3575 H 334.654 -1.92606 0.298155 0
M  V30 3576 H 333.75 -3.02672 -0.761312 0
M  V30 3577 N 334.051 0.0651679 -1.57465 0
M  V30 3578 C 334.998 1.07675 -2.04144 0
M  V30 3579 C 335.968 1.38071 -0.923335 0
M  V30 3580 O 337.153 1.49026 -1.19146 0
M  V30 3581 C 334.293 2.38337 -2.49579 0
M  V30 3582 C 333.406 2.14413 -3.75035 0
M  V30 3583 C 332.541 3.38686 -4.09225 0
M  V30 3584 C 331.58 3.10156 -5.27702 0
M  V30 3585 N 330.717 4.26778 -5.57499 0
M  V30 3586 H 335.557 0.671716 -2.90331 0
M  V30 3587 H 333.094 0.3201 -1.43575 0
M  V30 3588 H 335.052 3.14632 -2.73975 0
M  V30 3589 H 333.682 2.7663 -1.6636 0
M  V30 3590 H 332.734 1.2878 -3.57939 0
M  V30 3591 H 334.046 1.89344 -4.61466 0
M  V30 3592 H 333.2 4.23373 -4.34558 0
M  V30 3593 H 331.939 3.66837 -3.21374 0
M  V30 3594 H 330.944 2.23866 -5.02159 0
M  V30 3595 H 332.169 2.8332 -6.17176 0
M  V30 3596 H 330.115 4.54948 -4.72608 0
M  V30 3597 H 330.032 4.05005 -6.38362 0
M  V30 3598 H 331.3 5.12443 -5.87386 0
M  V30 3599 N 335.529 1.53961 0.336706 0
M  V30 3600 C 336.945 1.44378 0.680241 0
M  V30 3601 C 337.145 0.606034 1.9217 0
M  V30 3602 O 336.201 0.099688 2.52303 0
M  V30 3603 C 337.514 2.87945 0.8665 0
M  V30 3604 C 339.062 2.97763 0.964682 0
M  V30 3605 C 339.537 4.42453 1.18321 0
M  V30 3606 N 341.028 4.46008 1.25025 0
M  V30 3607 C 341.763 5.55102 1.43697 0
M  V30 3608 N 341.259 6.7419 1.59498 0
M  V30 3609 N 343.052 5.42727 1.463 0
M  V30 3610 H 335.203 2.06918 -0.479455 0
M  V30 3611 H 337.466 0.935634 -0.152619 0
M  V30 3612 H 337.172 3.51691 0.0256937 0
M  V30 3613 H 337.046 3.33293 1.76623 0
M  V30 3614 H 339.433 2.34153 1.796 0
M  V30 3615 H 339.514 2.55766 0.041708 0
M  V30 3616 H 339.158 5.06645 0.356788 0
M  V30 3617 H 339.088 4.82048 2.11985 0
M  V30 3618 H 341.579 3.60196 1.14312 0
M  V30 3619 H 341.892 7.53095 1.734 0
M  V30 3620 H 340.237 6.77123 1.56621 0
M  V30 3621 H 343.428 4.48647 1.33543 0
M  V30 3622 H 343.601 6.27806 1.6051 0
M  V30 3623 N 337.007 -0.598083 1.45811 0
M  V30 3624 C 338.256 -1.35295 1.49594 0
M  V30 3625 C 338.569 -1.95057 0.145679 0
M  V30 3626 O 339.775 -2.71431 0.0612099 0
M  V30 3627 C 338.231 -2.45124 2.63519 0
M  V30 3628 C 337.839 -1.91732 4.04899 0
M  V30 3629 C 339.583 -3.2205 2.76558 0
M  V30 3630 C 337.49 -2.991 5.1019 0
M  V30 3631 H 336.42 -0.508552 0.556679 0
M  V30 3632 H 339.071 -0.639977 1.71978 0
M  V30 3633 H 337.453 -3.19149 2.34435 0
M  V30 3634 H 338.627 -1.24352 4.43704 0
M  V30 3635 H 336.942 -1.27522 3.96393 0
M  V30 3636 H 339.539 -4.0215 3.52391 0
M  V30 3637 H 339.882 -3.73663 1.83526 0
M  V30 3638 H 340.415 -2.55127 3.05213 0
M  V30 3639 H 337.154 -2.52393 6.04961 0
M  V30 3640 H 336.674 -3.65017 4.75944 0
M  V30 3641 H 338.353 -3.63318 5.35359 0
M  V30 3642 N 338.485 -1.33259 -0.841409 0
M  V30 3643 C 339.731 -1.24757 -1.59886 0
M  V30 3644 C 340.064 0.186913 -1.93298 0
M  V30 3645 O 339.339 1.12757 -1.5848 0
M  V30 3646 C 339.622 -2.12036 -2.91055 0
M  V30 3647 C 339.475 -3.63929 -2.6434 0
M  V30 3648 C 340.794 -1.9916 -3.92458 0
M  V30 3649 H 337.913 -0.454542 -0.580138 0
M  V30 3650 H 340.555 -1.63335 -0.970647 0
M  V30 3651 H 338.705 -1.79265 -3.44669 0
M  V30 3652 H 340.377 -4.06978 -2.17178 0
M  V30 3653 H 338.62 -3.85935 -1.98082 0
M  V30 3654 H 339.291 -4.20341 -3.57796 0
M  V30 3655 H 341.767 -2.27895 -3.48143 0
M  V30 3656 H 340.643 -2.62484 -4.82072 0
M  V30 3657 H 340.904 -0.963082 -4.31482 0
M  V30 3658 N 339.963 1.05934 -1.16686 0
M  V30 3659 C 341.188 1.83029 -0.975455 0
M  V30 3660 C 341.613 1.82096 0.471452 0
M  V30 3661 O 340.971 1.22443 1.33706 0
M  V30 3662 C 341.019 3.27372 -1.51195 0
M  V30 3663 O 340.123 4.06054 -0.720701 0
M  V30 3664 H 339.464 0.566194 -0.346872 0
M  V30 3665 H 341.994 1.33541 -1.55009 0
M  V30 3666 H 342.004 3.78186 -1.53099 0
M  V30 3667 H 340.679 3.27366 -2.56523 0
M  V30 3668 H 339.256 3.64812 -0.772458 0
M  V30 3669 N 341.441 0.965919 1.2453 0
M  V30 3670 C 342.371 0.513476 2.27784 0
M  V30 3671 C 343.352 -0.445974 1.6415 0
M  V30 3672 O 344.537 -0.342485 1.91156 0
M  V30 3673 C 341.667 -0.198839 3.4673 0
M  V30 3674 C 340.621 0.676456 4.2262 0
M  V30 3675 C 339.947 -0.167248 5.34438 0
M  V30 3676 C 341.247 1.96017 4.84123 0
M  V30 3677 H 342.941 1.3765 2.65881 0
M  V30 3678 H 340.487 0.663321 1.27813 0
M  V30 3679 H 342.44 -0.526567 4.18097 0
M  V30 3680 H 341.164 -1.0962 3.07654 0
M  V30 3681 H 339.823 0.98743 3.53052 0
M  V30 3682 H 339.471 -1.0647 4.91603 0
M  V30 3683 H 339.171 0.415181 5.86131 0
M  V30 3684 H 340.695 -0.489688 6.08633 0
M  V30 3685 H 342.109 1.69814 5.47573 0
M  V30 3686 H 340.506 2.48918 5.4604 0
M  V30 3687 H 341.576 2.65622 4.05676 0
M  V30 3688 N 342.919 -1.39368 0.735821 0
M  V30 3689 C 343.851 -2.2913 0.0567723 0
M  V30 3690 C 344.864 -1.46859 -0.702589 0
M  V30 3691 O 346.053 -1.69925 -0.546616 0
M  V30 3692 C 343.153 -3.25492 -0.943823 0
M  V30 3693 C 342.326 -4.36709 -0.24581 0
M  V30 3694 C 341.385 -5.13376 -1.15463 0
M  V30 3695 O 340.411 -5.65683 -0.631803 0
M  V30 3696 N 341.613 -5.24656 -2.48427 0
M  V30 3697 H 344.378 -2.88047 0.827582 0
M  V30 3698 H 341.939 -1.50957 0.585112 0
M  V30 3699 H 343.931 -3.73657 -1.55443 0
M  V30 3700 H 342.501 -2.676 -1.61583 0
M  V30 3701 H 341.721 -3.9041 0.545286 0
M  V30 3702 H 343.009 -5.08244 0.237891 0
M  V30 3703 H 342.407 -4.83679 -2.93379 0
M  V30 3704 H 340.964 -5.76258 -3.04582 0
M  V30 3705 N 344.397 -0.483516 -1.5 0
M  V30 3706 C 345.33 0.350427 -2.25493 0
M  V30 3707 C 346.308 0.985549 -1.29328 0
M  V30 3708 O 347.492 1.01906 -1.58579 0
M  V30 3709 C 344.619 1.49202 -3.04066 0
M  V30 3710 C 343.665 0.973036 -4.15252 0
M  V30 3711 S 344.498 -0.122237 -5.3536 0
M  V30 3712 C 345.654 1.02294 -6.17484 0
M  V30 3713 H 345.887 -0.290381 -2.95878 0
M  V30 3714 H 343.42 -0.268562 -1.52046 0
M  V30 3715 H 345.378 2.14623 -3.49925 0
M  V30 3716 H 344.039 2.10438 -2.33183 0
M  V30 3717 H 343.232 1.82804 -4.69679 0
M  V30 3718 H 342.834 0.396335 -3.71894 0
M  V30 3719 H 345.126 1.93195 -6.49371 0
M  V30 3720 H 346.069 0.517664 -7.06205 0
M  V30 3721 H 346.477 1.28238 -5.49741 0
M  V30 3722 N 345.875 1.56104 -0.216619 0
M  V30 3723 C 347.123 1.97781 0.415593 0
M  V30 3724 C 347.444 1.10536 1.60645 0
M  V30 3725 O 346.714 0.181303 1.95059 0
M  V30 3726 H 345.294 0.730415 0.156534 0
M  V30 3727 H 347.956 1.92445 -0.308366 0
M  V30 3728 H 347.052 3.03072 0.74525 0
M  V30 3729 N 347.353 -0.0568162 1.57498 0
M  V30 3730 C 348.578 -0.769402 1.92601 0
M  V30 3731 C 349.003 -1.69559 0.814336 0
M  V30 3732 O 348.361 -1.79811 -0.231903 0
M  V30 3733 C 348.409 -1.52634 3.26704 0
M  V30 3734 O 347.513 -2.63797 3.16994 0
M  V30 3735 H 346.854 -0.208909 0.63028 0
M  V30 3736 H 349.384 -0.0205798 2.0459 0
M  V30 3737 H 349.394 -1.90234 3.60936 0
M  V30 3738 H 348.069 -0.846875 4.07186 0
M  V30 3739 H 346.646 -2.28943 2.94346 0
M  V30 3740 N 348.832 -1.54138 -0.328536 0
M  V30 3741 C 349.762 -1.86167 -1.40939 0
M  V30 3742 C 350.743 -0.718044 -1.54202 0
M  V30 3743 O 351.928 -0.971328 -1.68163 0
M  V30 3744 C 349.058 -2.08461 -2.77779 0
M  V30 3745 C 348.012 -3.24299 -2.7931 0
M  V30 3746 C 347.338 -3.31955 -4.19178 0
M  V30 3747 C 348.638 -4.62065 -2.43502 0
M  V30 3748 H 350.332 -2.76689 -1.14383 0
M  V30 3749 H 347.878 -1.33132 -0.548806 0
M  V30 3750 H 349.831 -2.29453 -3.53454 0
M  V30 3751 H 348.555 -1.14684 -3.05802 0
M  V30 3752 H 347.214 -3.03187 -2.0609 0
M  V30 3753 H 346.862 -2.35745 -4.44335 0
M  V30 3754 H 346.562 -4.09805 -4.2111 0
M  V30 3755 H 348.086 -3.55175 -4.96672 0
M  V30 3756 H 349.5 -4.8297 -3.08889 0
M  V30 3757 H 347.897 -5.42429 -2.56693 0
M  V30 3758 H 348.967 -4.64652 -1.38659 0
M  V30 3759 N 350.31 0.590341 -1.46126 0
M  V30 3760 C 351.24 1.71032 -1.58966 0
M  V30 3761 C 352.221 1.64302 -0.440335 0
M  V30 3762 O 353.406 1.82436 -0.665634 0
M  V30 3763 C 350.536 3.09665 -1.57241 0
M  V30 3764 C 349.49 3.31221 -2.71066 0
M  V30 3765 C 348.816 4.70303 -2.54399 0
M  V30 3766 C 350.116 3.19796 -4.1295 0
M  V30 3767 H 351.81 1.60543 -2.52718 0
M  V30 3768 H 349.356 0.770933 -1.21625 0
M  V30 3769 H 351.309 3.87831 -1.64819 0
M  V30 3770 H 350.033 3.21036 -0.600289 0
M  V30 3771 H 348.692 2.55452 -2.62944 0
M  V30 3772 H 348.34 4.78429 -1.55288 0
M  V30 3773 H 348.04 4.85679 -3.30741 0
M  V30 3774 H 349.564 5.50647 -2.63857 0
M  V30 3775 H 350.978 3.87815 -4.22223 0
M  V30 3776 H 349.375 3.46696 -4.89818 0
M  V30 3777 H 350.445 2.16983 -4.33643 0
M  V30 3778 N 351.788 1.33704 0.83433 0
M  V30 3779 C 352.751 1.24244 1.92603 0
M  V30 3780 C 353.751 0.160383 1.59998 0
M  V30 3781 O 354.941 0.412228 1.69252 0
M  V30 3782 C 352.073 0.91555 3.28376 0
M  V30 3783 H 353.266 2.21287 2.02416 0
M  V30 3784 H 350.819 1.17827 1.02696 0
M  V30 3785 H 351.554 -0.0521886 3.24258 0
M  V30 3786 H 351.339 1.69811 3.53422 0
M  V30 3787 H 352.829 0.874231 4.08347 0
M  V30 3788 N 353.266 -1.05314 1.17247 0
M  V30 3789 C 354.514 -1.77941 0.958194 0
M  V30 3790 C 354.835 -1.88089 -0.514556 0
M  V30 3791 O 354.105 -1.39676 -1.37359 0
M  V30 3792 H 352.685 -0.659116 0.351533 0
M  V30 3793 H 355.347 -1.27166 1.47699 0
M  V30 3794 H 354.443 -2.79663 1.38546 0
M  V30 3795 N 354.744 -0.972509 -1.24016 0
M  V30 3796 C 355.707 -0.511403 -2.23422 0
M  V30 3797 C 356.707 0.394679 -1.55881 0
M  V30 3798 O 357.897 0.189469 -1.73167 0
M  V30 3799 C 355.029 0.258769 -3.39916 0
M  V30 3800 H 356.222 -1.39024 -2.6573 0
M  V30 3801 H 353.775 -0.757585 -1.36713 0
M  V30 3802 H 354.51 1.1545 -3.03054 0
M  V30 3803 H 354.295 -0.391522 -3.9014 0
M  V30 3804 H 355.785 0.570244 -4.13688 0
M  V30 3805 N 356.222 1.38976 -0.743202 0
M  V30 3806 C 357.169 2.30544 -0.10861 0
M  V30 3807 C 358.139 1.49642 0.720869 0
M  V30 3808 O 359.324 1.78304 0.679142 0
M  V30 3809 C 356.464 3.36018 0.786496 0
M  V30 3810 C 355.577 4.31963 -0.0564849 0
M  V30 3811 C 354.712 5.24506 0.840657 0
M  V30 3812 C 353.751 6.121 -0.00658363 0
M  V30 3813 N 352.888 6.96973 0.846943 0
M  V30 3814 H 357.728 2.8424 -0.895088 0
M  V30 3815 H 355.265 1.3995 -0.453048 0
M  V30 3816 H 357.223 3.95768 1.31999 0
M  V30 3817 H 355.853 2.83758 1.53887 0
M  V30 3818 H 354.905 3.73763 -0.707492 0
M  V30 3819 H 356.217 4.93703 -0.711229 0
M  V30 3820 H 355.371 5.89322 1.4417 0
M  V30 3821 H 354.11 4.63107 1.52916 0
M  V30 3822 H 353.115 5.46289 -0.620366 0
M  V30 3823 H 354.34 6.75565 -0.691992 0
M  V30 3824 H 352.286 6.38133 1.52059 0
M  V30 3825 H 352.203 7.5559 0.248864 0
M  V30 3826 H 353.471 7.6621 1.43328 0
M  V30 3827 N 357.7 0.491464 1.49741 0
M  V30 3828 C 358.93 -0.0534375 2.06531 0
M  V30 3829 C 359.338 -1.32233 1.35318 0
M  V30 3830 O 358.681 -1.78781 0.422243 0
M  V30 3831 C 358.743 -0.387034 3.57411 0
M  V30 3832 C 358.407 0.782764 4.50246 0
M  V30 3833 C 359.404 1.67059 4.92329 0
M  V30 3834 C 357.089 0.978866 4.9267 0
M  V30 3835 C 359.083 2.73874 5.75562 0
M  V30 3836 C 356.77 2.05022 5.75682 0
M  V30 3837 C 357.768 2.92851 6.17031 0
M  V30 3838 O 357.456 3.98138 6.98385 0
M  V30 3839 H 357.188 0.0129324 0.675876 0
M  V30 3840 H 359.742 0.685238 1.93633 0
M  V30 3841 H 357.972 -1.17918 3.68283 0
M  V30 3842 H 359.661 -0.869419 3.96479 0
M  V30 3843 H 360.427 1.53086 4.60206 0
M  V30 3844 H 356.306 0.304646 4.59992 0
M  V30 3845 H 359.85 3.42458 6.07757 0
M  V30 3846 H 355.747 2.18993 6.07217 0
M  V30 3847 H 356.515 3.95374 7.16674 0
M  V30 3848 N 359.178 -1.55987 0.224894 0
M  V30 3849 C 360.594 -1.59066 -0.130426 0
M  V30 3850 C 360.794 -1.24176 -1.5869 0
M  V30 3851 O 359.85 -0.978592 -2.32766 0
M  V30 3852 C 361.163 -3.00042 0.198883 0
M  V30 3853 C 362.711 -3.1268 0.141391 0
M  V30 3854 C 363.186 -4.55839 0.444422 0
M  V30 3855 N 364.677 -4.6152 0.394115 0
M  V30 3856 C 365.412 -5.70231 0.602038 0
M  V30 3857 N 364.908 -6.87291 0.871914 0
M  V30 3858 N 366.701 -5.59555 0.534245 0
M  V30 3859 H 358.852 -1.76941 1.17497 0
M  V30 3860 H 361.115 -0.822604 0.471197 0
M  V30 3861 H 360.821 -3.30234 1.2099 0
M  V30 3862 H 360.695 -3.74075 -0.484535 0
M  V30 3863 H 363.082 -2.82283 -0.860265 0
M  V30 3864 H 363.163 -2.40969 0.858335 0
M  V30 3865 H 362.807 -4.86954 1.44353 0
M  V30 3866 H 362.737 -5.2578 -0.293752 0
M  V30 3867 H 365.228 -3.77405 0.193356 0
M  V30 3868 H 365.541 -7.66058 1.01858 0
M  V30 3869 H 363.886 -6.89028 0.909145 0
M  V30 3870 H 367.077 -4.6698 0.323612 0
M  V30 3871 H 367.25 -6.44211 0.699693 0
M  V30 3872 N 360.656 0.0484629 -1.57525 0
M  V30 3873 C 361.904 0.741657 -1.88 0
M  V30 3874 C 362.225 1.76918 -0.820054 0
M  V30 3875 O 361.495 1.95335 0.148661 0
M  V30 3876 H 360.075 0.276908 -0.69378 0
M  V30 3877 H 362.737 0.019013 -1.94891 0
M  V30 3878 H 361.833 1.24336 -2.86264 0
M  V30 3879 N 362.134 1.5431 0.320358 0
M  V30 3880 C 363.044 1.86946 1.41734 0
M  V30 3881 C 364.06 0.761689 1.56443 0
M  V30 3882 O 365.236 1.05629 1.71477 0
M  V30 3883 C 362.301 2.09293 2.76401 0
M  V30 3884 C 361.362 3.33082 2.70841 0
M  V30 3885 C 360.595 3.54353 3.99086 0
M  V30 3886 O 360.818 2.79002 4.97508 0
M  V30 3887 O 359.752 4.47838 4.0215 0
M  V30 3888 H 363.578 2.80232 1.17062 0
M  V30 3889 H 361.163 1.40255 0.514673 0
M  V30 3890 H 363.045 2.25303 3.56113 0
M  V30 3891 H 361.72 1.19194 3.00956 0
M  V30 3892 H 360.627 3.22454 1.89668 0
M  V30 3893 H 361.96 4.23249 2.5124 0
M  V30 3894 N 363.613 -0.582584 1.46437 0
M  V30 3895 C 364.86 -1.34079 1.51753 0
M  V30 3896 C 365.188 -1.93762 0.169299 0
M  V30 3897 O 364.443 -1.76989 -0.835062 0
M  V30 3898 C 364.742 -2.48964 2.56421 0
M  V30 3899 C 364.408 -2.07273 4.00436 0
M  V30 3900 C 363.07 -1.95618 4.39644 0
M  V30 3901 C 365.422 -1.75111 4.90903 0
M  V30 3902 C 362.75 -1.5006 5.67185 0
M  V30 3903 C 365.102 -1.31032 6.18881 0
M  V30 3904 C 363.766 -1.17954 6.56996 0
M  V30 3905 H 363.036 -0.49063 0.555304 0
M  V30 3906 H 365.683 -0.656007 1.79913 0
M  V30 3907 H 363.988 -3.22889 2.21923 0
M  V30 3908 H 365.685 -3.07178 2.57765 0
M  V30 3909 H 362.275 -2.17279 3.69443 0
M  V30 3910 H 366.459 -1.83001 4.61329 0
M  V30 3911 H 361.715 -1.38577 5.95488 0
M  V30 3912 H 365.889 -1.052 6.88408 0
M  V30 3913 H 363.516 -0.824279 7.55718 0
M  V30 3914 N 365.091 -1.34144 -0.827227 0
M  V30 3915 C 366.001 -1.27428 -1.96975 0
M  V30 3916 C 367.017 -0.182728 -1.73038 0
M  V30 3917 O 368.193 -0.408426 -1.97215 0
M  V30 3918 C 365.258 -1.02526 -3.31194 0
M  V30 3919 C 364.319 -2.20796 -3.68168 0
M  V30 3920 C 363.552 -1.97073 -4.95982 0
M  V30 3921 O 363.775 -0.926822 -5.6282 0
M  V30 3922 O 362.709 -2.83912 -5.30733 0
M  V30 3923 H 366.535 -2.23537 -2.05584 0
M  V30 3924 H 364.12 -1.14307 -0.961989 0
M  V30 3925 H 366.002 -0.904026 -4.11589 0
M  V30 3926 H 364.677 -0.0945389 -3.23562 0
M  V30 3927 H 363.584 -2.38477 -2.88235 0
M  V30 3928 H 364.917 -3.12243 -3.8048 0
M  V30 3929 N 366.569 1.04691 -1.17803 0
M  V30 3930 C 367.479 2.16057 -0.914151 0
M  V30 3931 C 368.495 1.73589 0.119503 0
M  V30 3932 O 369.671 2.01308 -0.0609468 0
M  V30 3933 C 366.736 3.4394 -0.436603 0
M  V30 3934 C 365.797 4.00825 -1.53746 0
M  V30 3935 C 365.03 5.22604 -1.0826 0
M  V30 3936 O 365.253 5.70367 0.0612244 0
M  V30 3937 O 364.187 5.7186 -1.87775 0
M  V30 3938 H 368.013 2.41169 -1.84584 0
M  V30 3939 H 365.598 1.1453 -0.959334 0
M  V30 3940 H 367.48 4.21024 -0.178057 0
M  V30 3941 H 366.155 3.20316 0.466869 0
M  V30 3942 H 365.062 3.25158 -1.84995 0
M  V30 3943 H 366.395 4.28778 -2.41683 0
M  V30 3944 N 368.047 0.979072 1.23499 0
M  V30 3945 C 369.463 0.687475 1.44034 0
M  V30 3946 C 369.663 -0.746801 1.8715 0
M  V30 3947 O 368.719 -1.51939 2.0167 0
M  V30 3948 C 370.032 1.68127 2.49307 0
M  V30 3949 C 371.58 1.69516 2.63122 0
M  V30 3950 C 372.055 2.67723 3.71603 0
M  V30 3951 N 373.546 2.66233 3.79044 0
M  V30 3952 C 374.281 3.38891 4.62537 0
M  V30 3953 N 373.777 4.21103 5.50131 0
M  V30 3954 N 375.57 3.27661 4.56721 0
M  V30 3955 H 367.721 1.90559 0.938135 0
M  V30 3956 H 369.984 0.821051 0.473897 0
M  V30 3957 H 369.69 2.70693 2.2454 0
M  V30 3958 H 369.564 1.46306 3.4767 0
M  V30 3959 H 371.951 0.676561 2.8724 0
M  V30 3960 H 372.032 1.95404 1.65079 0
M  V30 3961 H 371.676 3.69724 3.48233 0
M  V30 3962 H 371.606 2.39111 4.69184 0
M  V30 3963 H 374.097 2.06568 3.16446 0
M  V30 3964 H 374.41 4.73403 6.10827 0
M  V30 3965 H 372.755 4.25195 5.49759 0
M  V30 3966 H 375.946 2.62887 3.87309 0
M  V30 3967 H 376.119 3.84547 5.21562 0
M  V30 3968 N 369.525 -1.3858 0.750561 0
M  V30 3969 C 370.455 -2.33102 0.136237 0
M  V30 3970 C 371.436 -1.54713 -0.706965 0
M  V30 3971 O 372.621 -1.83043 -0.648769 0
M  V30 3972 C 369.751 -3.38882 -0.760017 0
M  V30 3973 C 368.705 -4.27995 -0.0197785 0
M  V30 3974 C 368.031 -5.24605 -1.03408 0
M  V30 3975 C 369.331 -5.09554 1.14684 0
M  V30 3976 H 371.025 -2.84726 0.925822 0
M  V30 3977 H 368.571 -1.36898 0.446654 0
M  V30 3978 H 370.524 -4.0397 -1.19943 0
M  V30 3979 H 369.248 -2.85734 -1.58189 0
M  V30 3980 H 367.907 -3.64409 0.400184 0
M  V30 3981 H 367.555 -4.67746 -1.84994 0
M  V30 3982 H 367.255 -5.85081 -0.543464 0
M  V30 3983 H 368.779 -5.9257 -1.47288 0
M  V30 3984 H 370.193 -5.67899 0.785118 0
M  V30 3985 H 368.59 -5.7925 1.56812 0
M  V30 3986 H 369.66 -4.4347 1.96118 0
M  V30 3987 N 371.003 -0.499398 -1.49478 0
M  V30 3988 C 371.95 0.279881 -2.29097 0
M  V30 3989 C 372.92 0.961805 -1.3542 0
M  V30 3990 O 374.105 0.968777 -1.64376 0
M  V30 3991 C 371.245 1.33932 -3.18051 0
M  V30 3992 C 370.358 0.669333 -4.26783 0
M  V30 3993 C 369.493 1.70907 -5.02955 0
M  V30 3994 C 368.532 1.02087 -6.03527 0
M  V30 3995 N 367.669 2.00474 -6.7287 0
M  V30 3996 H 372.509 -0.405317 -2.95231 0
M  V30 3997 H 370.046 -0.211726 -1.45568 0
M  V30 3998 H 372.004 1.96553 -3.67998 0
M  V30 3999 H 370.634 1.9933 -2.53904 0
M  V30 4000 H 369.686 -0.0701234 -3.80335 0
M  V30 4001 H 370.998 0.127503 -4.98637 0
M  V30 4002 H 370.152 2.41037 -5.56764 0
M  V30 4003 H 368.891 2.28476 -4.30871 0
M  V30 4004 H 367.896 0.305338 -5.48951 0
M  V30 4005 H 369.121 0.451708 -6.77596 0
M  V30 4006 H 367.067 2.57007 -6.03559 0
M  V30 4007 H 366.984 1.51353 -7.40694 0
M  V30 4008 H 368.252 2.69897 -7.31284 0
M  V30 4009 N 372.481 1.55866 -0.233164 0
M  V30 4010 C 373.444 2.1953 0.658715 0
M  V30 4011 C 374.444 1.16053 1.11303 0
M  V30 4012 O 375.634 1.41218 1.01996 0
M  V30 4013 C 372.766 2.82791 1.90373 0
M  V30 4014 H 373.959 2.99721 0.10347 0
M  V30 4015 H 371.512 1.56291 0.0164245 0
M  V30 4016 H 372.247 2.06501 2.50056 0
M  V30 4017 H 372.032 3.58578 1.58632 0
M  V30 4018 H 373.522 3.31556 2.53891 0
M  V30 4019 N 373.959 -0.0401083 1.57549 0
M  V30 4020 C 375.205 -0.734211 1.89043 0
M  V30 4021 C 375.538 -1.75591 0.829535 0
M  V30 4022 O 374.813 -1.93868 -0.156706 0
M  V30 4023 C 375.096 -1.41374 3.31188 0
M  V30 4024 C 374.949 -0.406299 4.47961 0
M  V30 4025 C 376.268 -2.35061 3.72068 0
M  V30 4026 H 373.387 -0.265447 0.687537 0
M  V30 4027 H 376.029 0.00294087 1.9 0
M  V30 4028 H 374.179 -2.04206 3.30503 0
M  V30 4029 H 375.851 0.219255 4.60779 0
M  V30 4030 H 374.094 0.275485 4.32924 0
M  V30 4031 H 374.765 -0.920022 5.44279 0
M  V30 4032 H 377.241 -1.82282 3.74049 0
M  V30 4033 H 376.117 -2.79593 4.72355 0
M  V30 4034 H 376.378 -3.21258 3.0372 0
M  V30 4035 N 375.437 -1.54477 -0.31217 0
M  V30 4036 C 376.686 -1.72438 -1.04633 0
M  V30 4037 C 376.999 -0.511163 -1.88803 0
M  V30 4038 O 378.205 -0.572341 -2.65399 0
M  V30 4039 C 376.661 -3.05043 -1.9099 0
M  V30 4040 C 376.269 -4.33806 -1.11877 0
M  V30 4041 C 378.013 -3.32364 -2.64073 0
M  V30 4042 C 375.92 -5.57467 -1.97445 0
M  V30 4043 H 374.85 -0.642647 -0.394361 0
M  V30 4044 H 377.501 -1.80966 -0.303929 0
M  V30 4045 H 375.883 -2.90451 -2.69173 0
M  V30 4046 H 377.057 -4.59199 -0.383843 0
M  V30 4047 H 375.372 -4.13336 -0.504252 0
M  V30 4048 H 377.969 -4.21951 -3.28423 0
M  V30 4049 H 378.312 -2.50745 -3.32314 0
M  V30 4050 H 378.845 -3.47875 -1.92944 0
M  V30 4051 H 375.584 -6.41722 -1.33692 0
M  V30 4052 H 375.104 -5.36277 -2.6864 0
M  V30 4053 H 376.783 -5.94303 -2.5576 0
M  V30 4054 N 376.915 0.57481 -1.46744 0
M  V30 4055 C 377.847 1.69804 -1.53946 0
M  V30 4056 C 378.86 1.57098 -0.427106 0
M  V30 4057 O 380.049 1.64378 -0.695863 0
M  V30 4058 C 377.149 3.08125 -1.4111 0
M  V30 4059 C 376.322 3.46757 -2.66605 0
M  V30 4060 C 375.381 4.6417 -2.47855 0
M  V30 4061 O 374.407 4.69634 -3.21609 0
M  V30 4062 N 375.609 5.59553 -1.54534 0
M  V30 4063 H 378.374 1.64077 -2.50796 0
M  V30 4064 H 375.935 0.761 -1.429 0
M  V30 4065 H 377.927 3.84478 -1.26328 0
M  V30 4066 H 376.497 3.08175 -0.524109 0
M  V30 4067 H 375.717 2.6003 -2.96274 0
M  V30 4068 H 377.005 3.69337 -3.49954 0
M  V30 4069 H 376.403 5.57881 -0.937304 0
M  V30 4070 H 374.96 6.35304 -1.45711 0
M  V30 4071 N 378.394 1.34581 0.820102 0
M  V30 4072 C 379.304 1.28471 1.96297 0
M  V30 4073 C 380.32 0.191902 1.72939 0
M  V30 4074 O 381.496 0.418879 1.96996 0
M  V30 4075 C 378.561 1.04281 3.30645 0
M  V30 4076 C 377.622 2.22745 3.66992 0
M  V30 4077 C 376.855 1.997 4.9493 0
M  V30 4078 O 377.078 0.956656 5.6232 0
M  V30 4079 O 376.012 2.86723 5.2922 0
M  V30 4080 H 379.838 2.24624 2.04396 0
M  V30 4081 H 377.423 1.14816 0.955913 0
M  V30 4082 H 379.305 0.925841 4.11104 0
M  V30 4083 H 377.98 0.111697 3.23507 0
M  V30 4084 H 376.887 2.40003 2.86966 0
M  V30 4085 H 378.22 3.14257 3.78819 0
M  V30 4086 N 379.872 -1.04064 1.18357 0
M  V30 4087 C 381.118 -1.77528 0.980397 0
M  V30 4088 C 381.451 -1.87948 -0.48879 0
M  V30 4089 O 380.726 -1.3876 -1.36293 0
M  V30 4090 C 381.009 -3.20797 1.63588 0
M  V30 4091 C 380.862 -3.1832 3.17793 0
M  V30 4092 C 382.181 -4.18911 1.34914 0
M  V30 4093 H 379.3 -0.644443 0.357578 0
M  V30 4094 H 381.942 -1.2156 1.46024 0
M  V30 4095 H 380.092 -3.68586 1.22788 0
M  V30 4096 H 381.764 -2.78521 3.67728 0
M  V30 4097 H 380.007 -2.56351 3.49952 0
M  V30 4098 H 380.678 -4.19489 3.58794 0
M  V30 4099 H 383.154 -3.7967 1.70265 0
M  V30 4100 H 382.03 -5.17374 1.83346 0
M  V30 4101 H 382.291 -4.41262 0.272027 0
M  V30 4102 N 381.35 -0.985608 -1.22978 0
M  V30 4103 C 382.596 -0.65836 -1.91816 0
M  V30 4104 C 382.929 0.806692 -1.76653 0
M  V30 4105 O 382.204 1.58252 -1.13078 0
M  V30 4106 C 382.487 -1.056 -3.44268 0
M  V30 4107 C 382.34 -2.57906 -3.68516 0
M  V30 4108 C 383.659 -0.603781 -4.35939 0
M  V30 4109 H 380.778 -0.24065 -0.696604 0
M  V30 4110 H 383.42 -1.22783 -1.44998 0
M  V30 4111 H 381.57 -0.571445 -3.84274 0
M  V30 4112 H 383.242 -3.13976 -3.3796 0
M  V30 4113 H 381.485 -3.00305 -3.13048 0
M  V30 4114 H 382.156 -2.80779 -4.75255 0
M  V30 4115 H 384.632 -1.01987 -4.03408 0
M  V30 4116 H 383.508 -0.910383 -5.41298 0
M  V30 4117 H 383.769 0.495761 -4.39312 0
M  V30 4118 N 382.828 1.3818 -0.7579 0
M  V30 4119 C 383.76 2.2901 -0.0932177 0
M  V30 4120 C 384.773 1.47958 0.679136 0
M  V30 4121 O 385.962 1.70773 0.519514 0
M  V30 4122 C 383.062 3.26953 0.89192 0
M  V30 4123 C 382.235 4.37045 0.176303 0
M  V30 4124 C 381.294 5.15148 1.07281 0
M  V30 4125 O 380.32 5.66616 0.541728 0
M  V30 4126 N 381.522 5.28542 2.40049 0
M  V30 4127 H 384.287 2.86694 -0.873303 0
M  V30 4128 H 381.848 1.50007 -0.609054 0
M  V30 4129 H 383.84 3.76083 1.49479 0
M  V30 4130 H 382.41 2.70136 1.57306 0
M  V30 4131 H 381.63 3.89493 -0.607328 0
M  V30 4132 H 382.918 5.07801 -0.318718 0
M  V30 4133 H 382.316 4.88285 2.85647 0
M  V30 4134 H 380.873 5.8103 2.95376 0
M  V30 4135 N 384.306 0.507319 1.49211 0
M  V30 4136 C 385.531 -0.033725 2.07373 0
M  V30 4137 C 385.956 -1.29485 1.36437 0
M  V30 4138 O 385.314 -1.76294 0.423087 0
M  V30 4139 C 385.362 -0.263945 3.59633 0
M  V30 4140 O 384.466 -1.33737 3.90113 0
M  V30 4141 H 383.807 0.0290331 0.663365 0
M  V30 4142 H 386.337 0.708749 1.91932 0
M  V30 4143 H 386.347 -0.493536 4.05004 0
M  V30 4144 H 385.022 0.657424 4.10671 0
M  V30 4145 H 383.599 -1.09224 3.56545 0
M  V30 4146 N 385.784 -1.5574 0.241426 0
M  V30 4147 C 386.716 -2.18469 -0.693091 0
M  V30 4148 C 387.729 -1.15942 -1.14286 0
M  V30 4149 O 388.918 -1.42832 -1.07058 0
M  V30 4150 C 386.018 -2.7696 -1.95311 0
M  V30 4151 C 385.191 -4.04853 -1.65568 0
M  V30 4152 C 384.25 -4.47715 -2.76474 0
M  V30 4153 O 383.276 -5.14205 -2.44094 0
M  V30 4154 N 384.478 -4.15044 -4.05855 0
M  V30 4155 H 387.243 -2.99292 -0.156388 0
M  V30 4156 H 384.804 -1.61784 0.0611752 0
M  V30 4157 H 386.796 -3.02594 -2.68736 0
M  V30 4158 H 385.366 -2.00326 -2.39975 0
M  V30 4159 H 384.586 -3.86865 -0.756886 0
M  V30 4160 H 385.874 -4.88246 -1.43153 0
M  V30 4161 H 385.272 -3.61654 -4.34998 0
M  V30 4162 H 383.829 -4.45526 -4.75762 0
M  V30 4163 N 387.262 0.0317525 -1.57568 0
M  V30 4164 C 388.51 0.721676 -1.88776 0
M  V30 4165 C 388.831 1.76039 -0.838772 0
M  V30 4166 O 388.101 1.95482 0.127935 0
M  V30 4167 H 386.681 0.269534 -0.696678 0
M  V30 4168 H 389.343 -0.00165879 -1.949 0
M  V30 4169 H 388.439 1.21293 -2.87566 0
M  V30 4170 N 388.74 1.54641 0.303973 0
M  V30 4171 C 389.65 1.88439 1.39743 0
M  V30 4172 C 390.666 0.778239 1.55626 0
M  V30 4173 O 391.842 1.07442 1.70347 0
M  V30 4174 C 388.907 2.12212 2.74166 0
M  V30 4175 C 387.968 3.35936 2.67293 0
M  V30 4176 C 387.201 3.58566 3.95305 0
M  V30 4177 O 387.424 2.84263 4.9452 0
M  V30 4178 O 386.358 4.52078 3.97378 0
M  V30 4179 H 390.184 2.81458 1.14083 0
M  V30 4180 H 387.769 1.40793 0.499768 0
M  V30 4181 H 389.651 2.29067 3.53704 0
M  V30 4182 H 388.326 1.22379 2.99675 0
M  V30 4183 H 387.233 3.24448 1.86237 0
M  V30 4184 H 388.566 4.2589 2.46736 0
M  V30 4185 N 390.218 -0.567019 1.47046 0
M  V30 4186 C 391.464 -1.32658 1.53394 0
M  V30 4187 C 391.797 -1.93254 0.19148 0
M  V30 4188 O 391.072 -1.77338 -0.798844 0
M  V30 4189 C 391.355 -2.44412 2.64452 0
M  V30 4190 C 391.208 -1.88749 4.08282 0
M  V30 4191 C 392.527 -3.46387 2.71485 0
M  V30 4192 H 389.646 -0.48098 0.558415 0
M  V30 4193 H 392.288 -0.635481 1.79058 0
M  V30 4194 H 390.438 -3.03363 2.427 0
M  V30 4195 H 392.11 -1.34134 4.41368 0
M  V30 4196 H 390.353 -1.19481 4.17021 0
M  V30 4197 H 391.024 -2.69491 4.81745 0
M  V30 4198 H 393.5 -2.9734 2.91081 0
M  V30 4199 H 392.376 -4.2202 3.50985 0
M  V30 4200 H 392.637 -4.04616 1.78153 0
M  V30 4201 N 391.696 -1.35014 -0.812953 0
M  V30 4202 C 392.945 -1.27269 -1.56479 0
M  V30 4203 C 393.258 0.152771 -1.95002 0
M  V30 4204 O 394.464 0.352451 -2.69203 0
M  V30 4205 C 392.92 -2.23159 -2.82362 0
M  V30 4206 C 392.528 -3.71016 -2.511 0
M  V30 4207 C 394.272 -2.24342 -3.60376 0
M  V30 4208 C 392.179 -4.58746 -3.73237 0
M  V30 4209 H 391.109 -0.472829 -0.587324 0
M  V30 4210 H 393.76 -1.6024 -0.894171 0
M  V30 4211 H 392.142 -1.83151 -3.51101 0
M  V30 4212 H 393.316 -4.1962 -1.90409 0
M  V30 4213 H 391.631 -3.72378 -1.86343 0
M  V30 4214 H 394.228 -2.87107 -4.51081 0
M  V30 4215 H 394.571 -1.24542 -3.97234 0
M  V30 4216 H 395.104 -2.62846 -2.98591 0
M  V30 4217 H 391.843 -5.59521 -3.41492 0
M  V30 4218 H 391.363 -4.14871 -4.33176 0
M  V30 4219 H 393.042 -4.73852 -4.40537 0
M  V30 4220 N 393.175 1.03435 -1.18907 0
M  V30 4221 C 394.105 2.13503 -0.945448 0
M  V30 4222 C 395.086 1.69682 0.119189 0
M  V30 4223 O 396.271 1.94169 -0.034707 0
M  V30 4224 C 393.401 3.44004 -0.477316 0
M  V30 4225 C 392.355 4.0148 -1.48316 0
M  V30 4226 C 391.681 5.27537 -0.872311 0
M  V30 4227 C 392.981 4.36921 -2.86177 0
M  V30 4228 H 394.675 2.34141 -1.86597 0
M  V30 4229 H 392.221 1.12523 -0.898584 0
M  V30 4230 H 394.174 4.20372 -0.294204 0
M  V30 4231 H 392.898 3.23072 0.478786 0
M  V30 4232 H 391.557 3.27201 -1.65332 0
M  V30 4233 H 391.205 5.02917 0.0911752 0
M  V30 4234 H 390.905 5.66954 -1.54393 0
M  V30 4235 H 392.429 6.06576 -0.699871 0
M  V30 4236 H 393.843 5.04248 -2.72776 0
M  V30 4237 H 392.24 4.87405 -3.50081 0
M  V30 4238 H 393.31 3.46466 -3.39248 0
M  V30 4239 N 394.653 0.992116 1.22453 0
M  V30 4240 C 395.9 0.667534 1.91181 0
M  V30 4241 C 396.228 -0.800317 1.77271 0
M  V30 4242 O 395.483 -1.59421 1.13505 0
M  V30 4243 C 395.782 1.01832 3.42586 0
M  V30 4244 C 395.448 2.47831 3.76684 0
M  V30 4245 C 394.11 2.87729 3.85701 0
M  V30 4246 C 396.462 3.42466 3.92895 0
M  V30 4247 C 393.79 4.21252 4.08367 0
M  V30 4248 C 396.142 4.75648 4.17064 0
M  V30 4249 C 394.806 5.15288 4.24305 0
M  V30 4250 H 394.076 0.244268 0.699581 0
M  V30 4251 H 396.723 1.24816 1.45235 0
M  V30 4252 H 395.028 0.355769 3.90181 0
M  V30 4253 H 396.725 0.745228 3.94014 0
M  V30 4254 H 393.315 2.15905 3.70247 0
M  V30 4255 H 397.499 3.12814 3.85307 0
M  V30 4256 H 392.755 4.51554 4.122 0
M  V30 4257 H 396.929 5.48924 4.2855 0
M  V30 4258 H 394.556 6.18769 4.41621 0
M  V30 4259 N 396.131 -1.37776 0.765217 0
M  V30 4260 C 397.38 -1.99092 0.323307 0
M  V30 4261 C 397.693 -1.61434 -1.10446 0
M  V30 4262 O 398.899 -2.15805 -1.64743 0
M  V30 4263 C 397.355 -3.56019 0.527098 0
M  V30 4264 C 396.963 -4.0262 1.96471 0
M  V30 4265 C 398.707 -4.2424 0.148483 0
M  V30 4266 C 396.614 -5.52233 2.11644 0
M  V30 4267 H 395.544 -0.744846 0.117137 0
M  V30 4268 H 398.195 -1.57391 0.943417 0
M  V30 4269 H 396.577 -3.95667 -0.162372 0
M  V30 4270 H 397.751 -3.74234 2.68859 0
M  V30 4271 H 396.066 -3.47161 2.29931 0
M  V30 4272 H 398.663 -5.34159 0.240456 0
M  V30 4273 H 399.006 -4.06446 -0.900422 0
M  V30 4274 H 399.539 -3.89872 0.79025 0
M  V30 4275 H 396.278 -5.74945 3.1483 0
M  V30 4276 H 395.798 -5.82324 1.4373 0
M  V30 4277 H 397.477 -6.18106 1.91193 0
M  V30 4278 N 397.609 -0.515225 -1.4894 0
M  V30 4279 C 398.886 0.0879088 -1.95402 0
M  V30 4280 C 399.266 1.52745 -1.45712 0
M  V30 4281 O 398.614 2.18238 -0.677093 0
M  V30 4282 C 398.824 -0.0141055 -3.48997 0
M  V30 4283 C 400.172 0.152646 -4.24326 0
M  V30 4284 O 401.196 0.0604025 -3.56149 0
M  V30 4285 O 400.055 0.34384 -5.45417 0
M  V30 4286 H 397.149 0.0874636 -0.822362 0
M  V30 4287 H 399.695 -0.578775 -1.59525 0
M  V30 4288 H 398.467 -1.01745 -3.77841 0
M  V30 4289 H 398.09 0.692091 -3.9153 0
M  V30 4290 N 399.087 1.5561 -0.249682 0
M  V30 4291 C 399.997 2.25143 0.659375 0
M  V30 4292 C 401.013 1.2685 1.19101 0
M  V30 4293 O 402.189 1.59732 1.22669 0
M  V30 4294 C 399.254 2.93945 1.8384 0
M  V30 4295 C 398.315 4.07655 1.34596 0
M  V30 4296 C 397.548 4.73167 2.46878 0
M  V30 4297 O 397.771 4.37768 3.65671 0
M  V30 4298 O 396.705 5.61623 2.16478 0
M  V30 4299 H 400.531 3.03545 0.0968698 0
M  V30 4300 H 398.116 1.49389 -0.018074 0
M  V30 4301 H 399.998 3.37271 2.52638 0
M  V30 4302 H 398.673 2.18481 2.38847 0
M  V30 4303 H 397.58 3.68839 0.625174 0
M  V30 4304 H 398.913 4.84946 0.841941 0
M  V30 4305 N 400.565 -0.0233959 1.57583 0
M  V30 4306 C 401.495 -1.02162 2.09965 0
M  V30 4307 C 402.476 -1.3735 1.00344 0
M  V30 4308 O 403.661 -1.46135 1.27899 0
M  V30 4309 C 400.791 -2.32081 2.58371 0
M  V30 4310 C 399.745 -2.1112 3.72307 0
M  V30 4311 C 399.071 -3.46848 4.06941 0
M  V30 4312 C 400.371 -1.49276 5.00514 0
M  V30 4313 H 402.065 -0.585557 2.93618 0
M  V30 4314 H 399.611 -0.280218 1.41247 0
M  V30 4315 H 401.564 -3.02249 2.93639 0
M  V30 4316 H 400.288 -2.77758 1.71808 0
M  V30 4317 H 398.947 -1.43384 3.37397 0
M  V30 4318 H 398.595 -3.90184 3.17436 0
M  V30 4319 H 398.295 -3.33646 4.83688 0
M  V30 4320 H 399.819 -4.18369 4.44747 0
M  V30 4321 H 401.233 -2.09368 5.33702 0
M  V30 4322 H 399.63 -1.46632 5.8191 0
M  V30 4323 H 400.7 -0.459217 4.82721 0
M  V30 4324 N 402.043 -1.548 -0.295768 0
M  V30 4325 C 402.993 -1.82497 -1.3667 0
M  V30 4326 C 403.977 -0.682434 -1.45711 0
M  V30 4327 O 405.169 -0.943207 -1.49775 0
M  V30 4328 C 402.298 -2.08036 -2.73086 0
M  V30 4329 C 401.384 -3.28488 -2.68247 0
M  V30 4330 N 401.775 -4.48924 -2.33025 0
M  V30 4331 C 400.073 -3.3062 -2.99343 0
M  V30 4332 C 400.774 -5.30956 -2.37613 0
M  V30 4333 N 399.75 -4.68805 -2.75178 0
M  V30 4334 H 403.552 -2.73175 -1.0841 0
M  V30 4335 H 401.066 -1.5437 -0.504361 0
M  V30 4336 H 403.063 -2.26027 -3.5031 0
M  V30 4337 H 401.723 -1.18629 -3.02254 0
M  V30 4338 H 402.734 -4.75432 -2.05389 0
M  V30 4339 H 399.411 -2.51336 -3.33371 0
M  V30 4340 H 400.801 -6.37199 -2.13135 0
M  V30 4341 N 403.521 0.559213 -1.47345 0
M  V30 4342 C 404.749 1.34194 -1.57479 0
M  V30 4343 C 405.164 1.87463 -0.224261 0
M  V30 4344 O 404.521 1.64888 0.782185 0
M  V30 4345 C 404.572 2.51324 -2.59843 0
M  V30 4346 O 404.293 2.00256 -3.89653 0
M  V30 4347 C 405.794 3.43563 -2.80142 0
M  V30 4348 H 403.014 0.409136 -0.531835 0
M  V30 4349 H 405.558 0.677609 -1.92947 0
M  V30 4350 H 403.713 3.13699 -2.27314 0
M  V30 4351 H 404.127 2.76708 -4.4557 0
M  V30 4352 H 405.601 4.2217 -3.55635 0
M  V30 4353 H 406.078 3.9698 -1.87892 0
M  V30 4354 H 406.684 2.87005 -3.1386 0
M  V30 4355 N 404.999 1.35443 0.805782 0
M  V30 4356 C 406.245 1.28952 1.56522 0
M  V30 4357 C 406.578 -0.135597 1.93726 0
M  V30 4358 O 405.853 -1.08516 1.61414 0
M  V30 4359 C 406.136 2.19678 2.85331 0
M  V30 4360 C 405.989 3.7081 2.54598 0
M  V30 4361 C 407.308 2.09495 3.8704 0
M  V30 4362 H 404.427 0.469764 0.567883 0
M  V30 4363 H 407.069 1.65851 0.927001 0
M  V30 4364 H 405.219 1.8834 3.39795 0
M  V30 4365 H 406.891 4.12593 2.06312 0
M  V30 4366 H 405.134 3.91051 1.8778 0
M  V30 4367 H 405.805 4.29679 3.46525 0
M  V30 4368 H 408.281 2.37045 3.41978 0
M  V30 4369 H 407.157 2.75173 4.74943 0
M  V30 4370 H 407.418 1.07714 4.28777 0
M  V30 4371 N 406.477 -1.02803 1.19454 0
M  V30 4372 C 407.723 -1.76478 0.999171 0
M  V30 4373 C 408.056 -1.88456 -0.468828 0
M  V30 4374 O 407.331 -1.40198 -1.34814 0
M  V30 4375 C 407.614 -3.19044 1.66981 0
M  V30 4376 C 407.467 -3.14932 3.21151 0
M  V30 4377 C 408.786 -4.17456 1.39349 0
M  V30 4378 H 405.905 -0.640614 0.364393 0
M  V30 4379 H 408.547 -1.20005 1.47305 0
M  V30 4380 H 406.697 -3.67263 1.2669 0
M  V30 4381 H 408.369 -2.74605 3.70661 0
M  V30 4382 H 406.612 -2.52625 3.52652 0
M  V30 4383 H 407.283 -4.1566 3.63223 0
M  V30 4384 H 409.759 -3.77842 1.74283 0
M  V30 4385 H 408.635 -5.154 1.88823 0
M  V30 4386 H 408.896 -4.40949 0.318813 0
M  V30 4387 N 407.956 -0.998596 -1.21925 0
M  V30 4388 C 409.204 -0.676325 -1.90448 0
M  V30 4389 C 409.525 0.794719 -1.78071 0
M  V30 4390 O 408.795 1.5701 -1.17152 0
M  V30 4391 H 407.375 -0.247165 -0.704925 0
M  V30 4392 H 410.037 -1.26633 -1.48156 0
M  V30 4393 H 409.133 -0.943858 -2.97486 0
M  V30 4394 N 409.434 1.37368 -0.772513 0
M  V30 4395 C 410.397 2.28601 -0.165541 0
M  V30 4396 C 411.397 1.48062 0.627238 0
M  V30 4397 O 412.587 1.68268 0.450715 0
M  V30 4398 C 409.719 3.32023 0.772897 0
M  V30 4399 H 410.912 2.83787 -0.969787 0
M  V30 4400 H 408.465 1.46647 -0.540775 0
M  V30 4401 H 409.2 2.81962 1.60212 0
M  V30 4402 H 408.985 3.91555 0.206585 0
M  V30 4403 H 410.475 4.00197 1.19298 0
M  V30 4404 N 410.912 0.523116 1.48665 0
M  V30 4405 C 412.16 -0.0134497 2.02096 0
M  V30 4406 C 412.481 -1.35418 1.40311 0
M  V30 4407 O 411.751 -1.87543 0.566074 0
M  V30 4408 H 410.331 -0.00795915 0.746958 0
M  V30 4409 H 412.993 0.685388 1.82451 0
M  V30 4410 H 412.089 -0.126849 3.11842 0
M  V30 4411 N 412.39 -1.55475 0.257931 0
M  V30 4412 C 413.337 -2.21837 -0.636939 0
M  V30 4413 C 414.307 -1.18596 -1.16294 0
M  V30 4414 O 415.492 -1.47081 -1.21539 0
M  V30 4415 C 412.632 -2.9301 -1.82317 0
M  V30 4416 C 411.745 -4.10931 -1.33265 0
M  V30 4417 C 410.88 -4.69791 -2.47931 0
M  V30 4418 C 409.919 -5.7994 -1.95796 0
M  V30 4419 N 409.056 -6.32935 -3.0387 0
M  V30 4420 H 413.896 -2.9793 -0.0643591 0
M  V30 4421 H 411.433 -1.47086 -0.0200031 0
M  V30 4422 H 413.391 -3.3248 -2.52018 0
M  V30 4423 H 412.021 -2.1937 -2.36805 0
M  V30 4424 H 411.073 -3.76699 -0.52931 0
M  V30 4425 H 412.385 -4.90417 -0.910654 0
M  V30 4426 H 411.539 -5.11892 -3.25656 0
M  V30 4427 H 410.278 -3.89545 -2.93438 0
M  V30 4428 H 409.283 -5.37305 -1.16546 0
M  V30 4429 H 410.508 -6.62043 -1.51246 0
M  V30 4430 H 408.454 -5.55591 -3.48791 0
M  V30 4431 H 408.371 -7.07645 -2.66035 0
M  V30 4432 H 409.639 -6.79695 -3.81621 0
M  V30 4433 N 413.868 0.0150385 -1.57593 0
M  V30 4434 C 414.831 0.995996 -2.06428 0
M  V30 4435 C 415.831 1.2818 -0.970903 0
M  V30 4436 O 417.021 1.22949 -1.23406 0
M  V30 4437 C 414.153 2.32506 -2.49307 0
M  V30 4438 H 415.346 0.573873 -2.94358 0
M  V30 4439 H 412.899 0.262186 -1.54085 0
M  V30 4440 H 413.634 2.79438 -1.64575 0
M  V30 4441 H 413.419 2.13087 -3.29145 0
M  V30 4442 H 414.909 3.02906 -2.87468 0
M  V30 4443 N 415.346 1.54954 0.287554 0
M  V30 4444 C 416.256 1.8991 1.37736 0
M  V30 4445 C 417.272 0.794701 1.54792 0
M  V30 4446 O 418.448 1.09243 1.69198 0
M  V30 4447 C 415.513 2.15108 2.71899 0
M  V30 4448 C 414.574 3.38752 2.63715 0
M  V30 4449 C 413.807 3.62739 3.91479 0
M  V30 4450 O 414.03 2.89492 4.91478 0
M  V30 4451 O 412.964 4.56267 3.92561 0
M  V30 4452 H 416.79 2.82652 1.11092 0
M  V30 4453 H 414.375 1.41315 0.484807 0
M  V30 4454 H 416.257 2.32806 3.51254 0
M  V30 4455 H 414.932 1.25551 2.9836 0
M  V30 4456 H 413.839 3.26405 1.82786 0
M  V30 4457 H 415.172 4.28483 2.42205 0
M  V30 4458 N 416.824 -0.551391 1.4764 0
M  V30 4459 C 418.072 -1.30572 1.54258 0
M  V30 4460 C 418.393 -1.93877 0.208963 0
M  V30 4461 O 417.663 -1.80234 -0.767619 0
M  V30 4462 H 416.243 -0.484894 0.568231 0
M  V30 4463 H 418.905 -0.643402 1.83974 0
M  V30 4464 H 418.001 -2.09621 2.31226 0
M  V30 4465 N 418.302 -1.35869 -0.798587 0
M  V30 4466 C 419.265 -1.29307 -1.89242 0
M  V30 4467 C 420.265 -0.202747 -1.59517 0
M  V30 4468 O 421.455 -0.456957 -1.681 0
M  V30 4469 C 418.587 -1.00229 -3.25833 0
M  V30 4470 H 419.78 -2.26576 -1.96478 0
M  V30 4471 H 417.333 -1.20509 -0.995358 0
M  V30 4472 H 418.068 -0.033801 -3.24282 0
M  V30 4473 H 417.853 -1.79121 -3.48795 0
M  V30 4474 H 419.343 -0.98219 -4.05885 0
M  V30 4475 N 419.78 1.02168 -1.19998 0
M  V30 4476 C 421.026 1.75945 -1.00852 0
M  V30 4477 C 421.359 1.88702 0.458828 0
M  V30 4478 O 420.634 1.40911 1.34069 0
M  V30 4479 C 420.917 3.18154 -1.68671 0
M  V30 4480 C 420.77 3.13224 -3.22817 0
M  V30 4481 C 422.089 4.16711 -1.41561 0
M  V30 4482 H 419.208 0.638673 -0.367785 0
M  V30 4483 H 421.85 1.19222 -1.4794 0
M  V30 4484 H 420 3.66586 -1.28636 0
M  V30 4485 H 421.672 2.72635 -3.72112 0
M  V30 4486 H 419.915 2.50751 -3.53986 0
M  V30 4487 H 420.586 4.13728 -3.65422 0
M  V30 4488 H 423.062 3.76913 -1.76284 0
M  V30 4489 H 421.938 5.14391 -1.91553 0
M  V30 4490 H 422.199 4.40774 -0.342193 0
M  V30 4491 N 421.258 1.00505 1.21394 0
M  V30 4492 C 422.535 0.603277 1.86064 0
M  V30 4493 C 422.915 -0.919095 1.90042 0
M  V30 4494 O 422.263 -1.80607 1.39977 0
M  V30 4495 C 422.473 1.23772 3.26315 0
M  V30 4496 C 423.821 1.34586 4.02705 0
M  V30 4497 O 424.845 1.19304 3.35626 0
M  V30 4498 O 423.704 1.59169 5.22807 0
M  V30 4499 H 420.798 0.206634 0.800769 0
M  V30 4500 H 423.344 1.1017 1.29076 0
M  V30 4501 H 422.116 2.27848 3.18121 0
M  V30 4502 H 421.739 0.725648 3.90922 0
M  V30 4503 N 422.737 -1.36956 0.779787 0
M  V30 4504 C 423.7 -2.2851 0.177662 0
M  V30 4505 C 424.7 -1.48393 -0.619377 0
M  V30 4506 O 425.89 -1.68505 -0.441785 0
M  V30 4507 C 423.022 -3.32428 -0.755279 0
M  V30 4508 H 424.215 -2.83269 0.984823 0
M  V30 4509 H 421.768 -1.46358 0.548544 0
M  V30 4510 H 422.503 -2.82808 -1.58714 0
M  V30 4511 H 422.288 -3.91659 -0.185817 0
M  V30 4512 H 423.778 -4.00824 -1.17174 0
M  V30 4513 N 424.215 -0.530993 -1.48385 0
M  V30 4514 C 425.463 0.00273189 -2.021 0
M  V30 4515 C 425.784 1.34672 -1.41027 0
M  V30 4516 O 425.054 1.8724 -0.576012 0
M  V30 4517 H 423.634 0.00399774 -0.746989 0
M  V30 4518 H 426.296 -0.695054 -1.82085 0
M  V30 4519 H 425.392 0.11031 -3.11905 0
M  V30 4520 N 425.693 1.55336 -0.266172 0
M  V30 4521 C 426.641 2.23587 0.641228 0
M  V30 4522 C 427.635 1.22986 1.16494 0
M  V30 4523 O 428.841 1.40943 1.1196 0
M  V30 4524 H 425.216 0.717452 0.225315 0
M  V30 4525 H 427.187 2.9837 0.0426561 0
M  V30 4526 C 425.936 2.96369 1.81826 0
M  V30 4527 H 425.259 3.73563 1.42445 0
M  V30 4528 H 426.699 3.47459 2.42998 0
M  V30 4529 C 425.158 2.0133 2.70125 0
M  V30 4530 O 425.688 1.55875 3.70224 0
M  V30 4531 N 423.894 1.6802 2.37102 0
M  V30 4532 H 423.441 2.05181 1.55751 0
M  V30 4533 H 423.399 1.047 2.96454 0
M  V30 4534 N 427.171 -0.0066808 1.57599 0
M  V30 4535 C 428.104 -1.03397 2.03431 0
M  V30 4536 C 429.082 -1.33872 0.922877 0
M  V30 4537 O 430.266 -1.4615 1.19048 0
M  V30 4538 C 427.393 -2.36325 2.42628 0
M  V30 4539 C 426.439 -2.21557 3.64438 0
M  V30 4540 S 427.272 -1.54789 5.12641 0
M  V30 4541 C 428.428 -2.8916 5.55101 0
M  V30 4542 H 428.661 -0.643687 2.90248 0
M  V30 4543 H 426.194 -0.217349 1.52863 0
M  V30 4544 H 428.152 -3.12759 2.65879 0
M  V30 4545 H 426.813 -2.72495 1.56222 0
M  V30 4546 H 426.006 -3.1974 3.89592 0
M  V30 4547 H 425.608 -1.53267 3.41153 0
M  V30 4548 H 427.9 -3.8547 5.57153 0
M  V30 4549 H 428.843 -2.68713 6.55133 0
M  V30 4550 H 429.251 -2.92762 4.82649 0
M  V30 4551 N 428.649 -1.55105 -0.279332 0
M  V30 4552 C 429.579 -1.90557 -1.34945 0
M  V30 4553 C 430.56 -0.766738 -1.51839 0
M  V30 4554 O 431.745 -1.02434 -1.64988 0
M  V30 4555 C 428.875 -2.17193 -2.71006 0
M  V30 4556 C 427.829 -3.33021 -2.68851 0
M  V30 4557 C 427.155 -3.45123 -4.08405 0
M  V30 4558 C 428.455 -4.69578 -2.28678 0
M  V30 4559 H 430.149 -2.80188 -1.05522 0
M  V30 4560 H 427.695 -1.34811 -0.506173 0
M  V30 4561 H 429.648 -2.40581 -3.45975 0
M  V30 4562 H 428.372 -1.24355 -3.01999 0
M  V30 4563 H 427.031 -3.0959 -1.9634 0
M  V30 4564 H 426.679 -2.49762 -4.3661 0
M  V30 4565 H 426.379 -4.22995 -4.07859 0
M  V30 4566 H 427.903 -3.70796 -4.85121 0
M  V30 4567 H 429.317 -4.92553 -2.93368 0
M  V30 4568 H 427.714 -5.5032 -2.39306 0
M  V30 4569 H 428.784 -4.68828 -1.23807 0
M  V30 4570 N 430.127 0.543554 -1.4793 0
M  V30 4571 C 431.074 1.64942 -1.6144 0
M  V30 4572 C 432.044 1.59692 -0.456903 0
M  V30 4573 O 433.229 1.78321 -0.678688 0
M  V30 4574 C 430.369 3.03238 -1.64744 0
M  V30 4575 C 429.482 3.18823 -2.91506 0
M  V30 4576 C 428.617 4.47599 -2.86057 0
M  V30 4577 C 427.656 4.56664 -4.07584 0
M  V30 4578 N 426.793 5.76811 -4.00292 0
M  V30 4579 H 431.633 1.52733 -2.55884 0
M  V30 4580 H 429.17 0.7438 -1.2691 0
M  V30 4581 H 431.128 3.83339 -1.64641 0
M  V30 4582 H 429.758 3.1425 -0.738017 0
M  V30 4583 H 428.81 2.32064 -3.01414 0
M  V30 4584 H 430.122 3.21384 -3.81463 0
M  V30 4585 H 429.276 5.35975 -2.84281 0
M  V30 4586 H 428.015 4.47538 -1.93807 0
M  V30 4587 H 427.02 3.66697 -4.09651 0
M  V30 4588 H 428.245 4.58474 -5.00978 0
M  V30 4589 H 426.191 5.77673 -3.10853 0
M  V30 4590 H 426.108 5.80808 -4.8394 0
M  V30 4591 H 427.376 6.67512 -4.02553 0
M  V30 4592 N 431.605 1.3629 0.791371 0
M  V30 4593 C 433.016 1.27225 1.36641 0
M  V30 4594 C 433.367 -0.0887968 1.95999 0
M  V30 4595 O 432.492 -0.990207 1.92416 0
M  V30 4596 C 433.087 2.30375 2.48421 0
M  V30 4597 C 431.646 2.25004 3.01746 0
M  V30 4598 C 430.793 2.15259 1.7481 0
M  V30 4599 H 433.744 1.47198 0.593173 0
M  V30 4600 H 433.765 1.93905 3.27385 0
M  V30 4601 H 433.277 3.29422 2.05189 0
M  V30 4602 H 431.378 1.29417 3.49403 0
M  V30 4603 H 431.491 3.1761 3.58693 0
M  V30 4604 H 429.855 1.61482 1.96966 0
M  V30 4605 H 430.638 3.16191 1.33709 0
M  V30 4606 N 433.083 -1.0153 1.20538 0
M  V30 4607 C 434.046 -2.0826 0.957098 0
M  V30 4608 C 435.046 -1.60657 -0.0678655 0
M  V30 4609 O 436.236 -1.73385 0.168332 0
M  V30 4610 C 433.368 -3.38033 0.441188 0
M  V30 4611 H 434.561 -2.31719 1.90384 0
M  V30 4612 H 432.114 -1.1835 1.02093 0
M  V30 4613 H 432.849 -3.20249 -0.510961 0
M  V30 4614 H 432.634 -3.73911 1.18038 0
M  V30 4615 H 434.124 -4.16613 0.287009 0
M  V30 4616 N 434.561 -1.01147 -1.20859 0
M  V30 4617 C 435.491 -0.597663 -2.25722 0
M  V30 4618 C 436.472 0.384744 -1.65692 0
M  V30 4619 O 437.657 0.271303 -1.92296 0
M  V30 4620 C 434.787 0.0700149 -3.47229 0
M  V30 4621 C 433.741 -0.832843 -4.19819 0
M  V30 4622 C 433.067 -0.0312202 -5.34691 0
M  V30 4623 C 434.367 -2.1385 -4.76514 0
M  V30 4624 H 436.061 -1.47423 -2.60589 0
M  V30 4625 H 433.607 -0.710301 -1.25263 0
M  V30 4626 H 435.56 0.37103 -4.19763 0
M  V30 4627 H 434.284 0.981259 -3.11511 0
M  V30 4628 H 432.943 -1.11778 -3.49144 0
M  V30 4629 H 432.591 0.881515 -4.95215 0
M  V30 4630 H 432.291 -0.632434 -5.84187 0
M  V30 4631 H 433.815 0.26346 -6.10031 0
M  V30 4632 H 435.229 -1.9002 -5.40893 0
M  V30 4633 H 433.626 -2.69012 -5.36426 0
M  V30 4634 H 434.696 -2.80495 -3.95538 0
M  V30 4635 N 436.039 1.36541 -0.78704 0
M  V30 4636 C 437.002 2.28413 -0.189778 0
M  V30 4637 C 438.002 1.48719 0.611499 0
M  V30 4638 O 439.192 1.68737 0.432842 0
M  V30 4639 C 436.324 3.32824 0.737638 0
M  V30 4640 H 437.517 2.82743 -0.999831 0
M  V30 4641 H 435.07 1.46065 -0.556298 0
M  V30 4642 H 435.805 2.83646 1.57212 0
M  V30 4643 H 435.59 3.91752 0.165044 0
M  V30 4644 H 437.08 4.0144 1.15047 0
M  V30 4645 N 437.518 0.538854 1.48102 0
M  V30 4646 C 438.934 0.19732 1.58376 0
M  V30 4647 C 439.134 -1.29971 1.5398 0
M  V30 4648 O 438.19 -2.07861 1.43352 0
M  V30 4649 C 439.503 0.807716 2.89649 0
M  V30 4650 C 441.051 0.77726 3.03196 0
M  V30 4651 C 441.526 1.36639 4.37143 0
M  V30 4652 N 443.017 1.32875 4.43732 0
M  V30 4653 C 443.752 1.7544 5.45901 0
M  V30 4654 N 443.248 2.25776 6.54979 0
M  V30 4655 N 445.041 1.66623 5.36836 0
M  V30 4656 H 437.192 1.5117 1.49202 0
M  V30 4657 H 439.455 0.629327 0.708979 0
M  V30 4658 H 439.161 1.85909 2.98548 0
M  V30 4659 H 439.035 0.289975 3.76084 0
M  V30 4660 H 441.422 -0.265374 2.93904 0
M  V30 4661 H 441.503 1.33256 2.18349 0
M  V30 4662 H 441.147 2.408 4.47189 0
M  V30 4663 H 441.077 0.786689 5.20691 0
M  V30 4664 H 443.568 0.96037 3.65493 0
M  V30 4665 H 443.881 2.56226 7.29087 0
M  V30 4666 H 442.226 2.29775 6.55918 0
M  V30 4667 H 445.417 1.27089 4.50517 0
M  V30 4668 H 445.59 2.00115 6.16326 0
M  V30 4669 N 438.996 -1.55193 0.274407 0
M  V30 4670 C 440.244 -1.99187 -0.341902 0
M  V30 4671 C 440.565 -1.16422 -1.56431 0
M  V30 4672 O 439.835 -0.253573 -1.94252 0
M  V30 4673 H 438.415 -0.735721 -0.129317 0
M  V30 4674 H 441.077 -1.91168 0.379578 0
M  V30 4675 H 440.173 -3.05629 -0.632253 0
M  V30 4676 N 440.474 -0.00167713 -1.576 0
M  V30 4677 C 441.384 1.00548 -2.1196 0
M  V30 4678 C 442.4 1.3758 -1.06526 0
M  V30 4679 O 443.576 1.46278 -1.38436 0
M  V30 4680 C 440.641 2.27809 -2.6135 0
M  V30 4681 C 439.702 1.97074 -3.81393 0
M  V30 4682 C 438.935 3.18267 -4.28417 0
M  V30 4683 O 439.158 4.30009 -3.74765 0
M  V30 4684 O 438.092 3.02167 -5.20556 0
M  V30 4685 H 441.918 0.573373 -2.98238 0
M  V30 4686 H 439.503 0.217255 -1.47812 0
M  V30 4687 H 441.385 3.02568 -2.93309 0
M  V30 4688 H 440.06 2.70254 -1.78169 0
M  V30 4689 H 438.967 1.19785 -3.54404 0
M  V30 4690 H 440.3 1.59464 -4.65652 0
M  V30 4691 N 441.952 1.55251 0.271103 0
M  V30 4692 C 442.882 1.9127 1.33933 0
M  V30 4693 C 443.863 0.77478 1.5143 0
M  V30 4694 O 445.048 1.03307 1.64442 0
M  V30 4695 C 442.178 2.18627 2.69851 0
M  V30 4696 C 441.132 3.34442 2.67081 0
M  V30 4697 C 440.458 3.47284 4.06569 0
M  V30 4698 C 441.758 4.70784 2.26185 0
M  V30 4699 H 443.452 2.80744 1.04035 0
M  V30 4700 H 440.998 1.35077 0.499017 0
M  V30 4701 H 442.951 2.42413 3.44694 0
M  V30 4702 H 441.675 1.25955 3.01335 0
M  V30 4703 H 440.334 3.10627 1.94695 0
M  V30 4704 H 439.982 2.52074 4.35279 0
M  V30 4705 H 439.682 4.25152 4.0561 0
M  V30 4706 H 441.206 3.73363 4.83148 0
M  V30 4707 H 442.62 4.94102 2.90751 0
M  V30 4708 H 441.017 5.51582 2.36384 0
M  V30 4709 H 442.087 4.69478 1.21319 0
M  V30 4710 N 443.43 -0.535701 1.48216 0
M  V30 4711 C 444.846 -0.863701 1.3421 0
M  V30 4712 C 445.046 -1.98458 0.34879 0
M  V30 4713 O 444.102 -2.51432 -0.23204 0
M  V30 4714 C 445.415 -1.23662 2.74095 0
M  V30 4715 C 446.963 -1.34683 2.82541 0
M  V30 4716 C 447.438 -1.75322 4.23115 0
M  V30 4717 N 448.929 -1.82434 4.2576 0
M  V30 4718 C 449.664 -2.15252 5.31464 0
M  V30 4719 N 449.16 -2.46533 6.47452 0
M  V30 4720 N 450.953 -2.16209 5.18855 0
M  V30 4721 H 443.104 0.203965 2.11418 0
M  V30 4722 H 445.367 0.0286033 0.947568 0
M  V30 4723 H 445.073 -0.486674 3.48316 0
M  V30 4724 H 444.947 -2.18805 3.07253 0
M  V30 4725 H 447.334 -2.08756 2.08579 0
M  V30 4726 H 447.415 -0.376756 2.5301 0
M  V30 4727 H 447.059 -1.01812 4.97591 0
M  V30 4728 H 446.989 -2.7337 4.50085 0
M  V30 4729 H 449.48 -1.6056 3.42095 0
M  V30 4730 H 449.793 -2.70662 7.23852 0
M  V30 4731 H 448.138 -2.44065 6.50736 0
M  V30 4732 H 451.329 -1.91224 4.2726 0
M  V30 4733 H 451.502 -2.41453 6.01335 0
M  V30 4734 N 444.908 -1.36708 -0.784132 0
M  V30 4735 C 445.838 -1.34153 -1.91116 0
M  V30 4736 C 446.819 -0.212121 -1.68772 0
M  V30 4737 O 448.004 -0.410581 -1.8981 0
M  V30 4738 C 445.134 -1.13535 -3.28218 0
M  V30 4739 C 444.088 -2.23356 -3.65097 0
M  V30 4740 C 443.414 -1.87875 -5.00607 0
M  V30 4741 C 444.714 -3.65473 -3.73131 0
M  V30 4742 H 446.408 -2.28459 -1.93512 0
M  V30 4743 H 443.954 -1.09973 -0.929618 0
M  V30 4744 H 445.907 -1.10381 -4.06687 0
M  V30 4745 H 444.631 -0.156804 -3.26223 0
M  V30 4746 H 443.29 -2.25645 -2.88929 0
M  V30 4747 H 442.938 -0.885814 -4.95139 0
M  V30 4748 H 442.638 -2.61406 -5.26252 0
M  V30 4749 H 444.162 -1.86286 -5.81489 0
M  V30 4750 H 445.576 -3.65382 -4.41779 0
M  V30 4751 H 443.973 -4.37953 -4.10265 0
M  V30 4752 H 445.043 -3.99995 -2.74102 0
M  V30 4753 N 446.386 1.0089 -1.21074 0
M  V30 4754 C 447.635 1.74019 -1.01981 0
M  V30 4755 C 447.948 1.90408 0.447665 0
M  V30 4756 O 449.154 2.60707 0.757906 0
M  V30 4757 C 447.61 3.13026 -1.77603 0
M  V30 4758 C 447.218 3.04623 -3.28495 0
M  V30 4759 C 448.962 3.90312 -1.66904 0
M  V30 4760 C 446.869 4.38685 -3.96623 0
M  V30 4761 H 445.799 0.652422 -0.377971 0
M  V30 4762 H 448.45 1.12755 -1.44771 0
M  V30 4763 H 446.832 3.74878 -1.27604 0
M  V30 4764 H 448.006 2.52032 -3.85767 0
M  V30 4765 H 446.321 2.40827 -3.39693 0
M  V30 4766 H 448.918 4.8951 -2.15138 0
M  V30 4767 H 449.261 4.11558 -0.62658 0
M  V30 4768 H 449.794 3.35104 -2.14359 0
M  V30 4769 H 446.533 4.22641 -5.01054 0
M  V30 4770 H 446.053 4.91252 -3.4414 0
M  V30 4771 H 447.732 5.075 -4.01314 0
M  V30 4772 N 447.864 1.01787 1.20321 0
M  V30 4773 C 449.112 0.706538 1.89347 0
M  V30 4774 C 449.433 -0.766289 1.79313 0
M  V30 4775 O 448.703 -1.55126 1.19635 0
M  V30 4776 H 447.283 0.258348 0.700903 0
M  V30 4777 H 449.945 1.28974 1.46122 0
M  V30 4778 H 449.041 0.991066 2.95946 0
M  V30 4779 N 449.342 -1.36122 0.79427 0
M  V30 4780 C 450.305 -2.28309 0.201889 0
M  V30 4781 C 451.305 -1.49041 -0.603603 0
M  V30 4782 O 452.495 -1.68964 -0.423888 0
M  V30 4783 C 449.627 -3.3321 -0.719978 0
M  V30 4784 H 450.82 -2.82208 1.01481 0
M  V30 4785 H 448.373 -1.45768 0.564037 0
M  V30 4786 H 449.108 -2.84475 -1.55706 0
M  V30 4787 H 448.893 -3.91835 -0.144266 0
M  V30 4788 H 450.383 -4.02044 -1.12916 0
M  V30 4789 N 450.82 -0.546701 -1.47814 0
M  V30 4790 C 452.048 -0.0232857 -2.06887 0
M  V30 4791 C 452.463 1.26571 -1.4009 0
M  V30 4792 O 451.82 1.7569 -0.493906 0
M  V30 4793 C 451.871 0.186975 -3.61016 0
M  V30 4794 O 451.592 -1.05097 -4.25307 0
M  V30 4795 C 453.093 0.748872 -4.36929 0
M  V30 4796 H 450.313 -0.0410763 -0.669742 0
M  V30 4797 H 452.857 -0.757117 -1.89968 0
M  V30 4798 H 451.012 0.870903 -3.77484 0
M  V30 4799 H 451.426 -0.842121 -5.17695 0
M  V30 4800 H 452.9 0.845334 -5.45489 0
M  V30 4801 H 453.377 1.75772 -4.02493 0
M  V30 4802 H 453.983 0.100979 -4.2518 0
M  V30 4803 N 452.299 1.55045 -0.282633 0
M  V30 4804 C 453.527 2.04168 0.33512 0
M  V30 4805 C 453.942 1.16071 1.48906 0
M  V30 4806 O 453.299 0.182391 1.81586 0
M  V30 4807 C 453.35 3.52332 0.808957 0
M  V30 4808 O 453.071 4.37078 -0.299038 0
M  V30 4809 C 454.572 4.17375 1.49375 0
M  V30 4810 H 451.792 0.666744 0.0754543 0
M  V30 4811 H 454.336 2.00205 -0.416918 0
M  V30 4812 H 452.491 3.56715 1.51106 0
M  V30 4813 H 452.905 5.24458 0.0665514 0
M  V30 4814 H 454.379 5.22627 1.77664 0
M  V30 4815 H 454.856 3.65999 2.42778 0
M  V30 4816 H 455.462 4.17016 0.835305 0
M  V30 4817 N 453.777 0.010035 1.57597 0
M  V30 4818 C 454.707 -0.976857 2.12084 0
M  V30 4819 C 455.688 -1.35191 1.03235 0
M  V30 4820 O 456.873 -1.43389 1.3097 0
M  V30 4821 C 454.003 -2.26548 2.63236 0
M  V30 4822 C 452.957 -2.03175 3.76701 0
M  V30 4823 C 452.283 -3.38138 4.14206 0
M  V30 4824 C 453.583 -1.38625 5.03568 0
M  V30 4825 H 455.277 -0.523145 2.94794 0
M  V30 4826 H 452.823 -0.250195 1.4181 0
M  V30 4827 H 454.776 -2.95952 2.99984 0
M  V30 4828 H 453.5 -2.74051 1.77661 0
M  V30 4829 H 452.159 -1.36195 3.40362 0
M  V30 4830 H 451.807 -3.83363 3.25641 0
M  V30 4831 H 451.507 -3.23312 4.90656 0
M  V30 4832 H 453.031 -4.08841 4.53521 0
M  V30 4833 H 454.445 -1.98 5.38023 0
M  V30 4834 H 452.842 -1.34256 5.84889 0
M  V30 4835 H 453.912 -0.356722 4.83586 0
M  V30 4836 N 455.255 -1.55392 -0.262866 0
M  V30 4837 C 456.532 -1.67204 -1.01499 0
M  V30 4838 C 456.912 -0.545186 -2.03939 0
M  V30 4839 O 456.26 0.453467 -2.23955 0
M  V30 4840 C 456.47 -3.06847 -1.6627 0
M  V30 4841 C 457.818 -3.64928 -2.17054 0
M  V30 4842 O 458.842 -3.09545 -1.76239 0
M  V30 4843 O 457.701 -4.61984 -2.91947 0
M  V30 4844 H 454.795 -0.679467 -0.471438 0
M  V30 4845 H 457.341 -1.67729 -0.257918 0
M  V30 4846 H 456.113 -3.80309 -0.920915 0
M  V30 4847 H 455.736 -3.10266 -2.48638 0
M  V30 4848 N 456.733 0.527833 -1.48498 0
M  V30 4849 C 457.643 1.65907 -1.65867 0
M  V30 4850 C 458.659 1.6537 -0.541192 0
M  V30 4851 O 459.835 1.84282 -0.812534 0
M  V30 4852 C 456.9 3.02364 -1.69637 0
M  V30 4853 C 455.961 3.1374 -2.93028 0
M  V30 4854 C 455.194 4.43688 -2.96609 0
M  V30 4855 O 455.417 5.30913 -2.08538 0
M  V30 4856 O 454.351 4.59475 -3.88802 0
M  V30 4857 H 458.177 1.5419 -2.61647 0
M  V30 4858 H 455.762 0.701163 -1.31924 0
M  V30 4859 H 457.644 3.83515 -1.74625 0
M  V30 4860 H 456.319 3.14401 -0.770312 0
M  V30 4861 H 455.226 2.31877 -2.93571 0
M  V30 4862 H 456.559 3.06621 -3.85026 0
M  V30 4863 N 458.211 1.37122 0.776871 0
M  V30 4864 C 459.441 1.35034 1.56363 0
M  V30 4865 C 459.849 -0.0674681 1.8908 0
M  V30 4866 O 459.192 -1.03826 1.51545 0
M  V30 4867 C 459.254 2.11894 2.90415 0
M  V30 4868 C 458.918 3.60897 2.80362 0
M  V30 4869 C 459.915 4.54887 2.51742 0
M  V30 4870 C 457.6 4.03951 2.98545 0
M  V30 4871 C 459.594 5.89909 2.41426 0
M  V30 4872 C 457.281 5.3906 2.87849 0
M  V30 4873 C 458.279 6.31852 2.5933 0
M  V30 4874 O 457.967 7.64479 2.48651 0
M  V30 4875 H 457.699 0.464402 0.49123 0
M  V30 4876 H 460.253 1.80992 0.971127 0
M  V30 4877 H 458.483 1.60618 3.51765 0
M  V30 4878 H 460.172 2.02505 3.51776 0
M  V30 4879 H 460.938 4.22934 2.37385 0
M  V30 4880 H 456.817 3.3209 3.19746 0
M  V30 4881 H 460.361 6.62304 2.19086 0
M  V30 4882 H 456.258 5.70617 3.01773 0
M  V30 4883 H 457.026 7.74742 2.64039 0
M  V30 4884 N 459.689 -1.00246 1.21608 0
M  V30 4885 C 461.105 -1.26435 0.973975 0
M  V30 4886 C 461.305 -1.98642 -0.338143 0
M  V30 4887 O 460.361 -2.29026 -1.06317 0
M  V30 4888 C 461.674 -2.08551 2.16626 0
M  V30 4889 C 463.222 -2.21769 2.20879 0
M  V30 4890 C 463.697 -3.07267 3.39633 0
M  V30 4891 N 465.188 -3.14855 3.39736 0
M  V30 4892 C 465.923 -3.81274 4.28273 0
M  V30 4893 N 465.419 -4.497 5.27012 0
M  V30 4894 N 467.212 -3.7794 4.16074 0
M  V30 4895 H 459.363 -0.518089 2.05984 0
M  V30 4896 H 461.626 -0.291368 0.902113 0
M  V30 4897 H 461.332 -1.62847 3.11727 0
M  V30 4898 H 461.206 -3.09303 2.15897 0
M  V30 4899 H 463.593 -2.66691 1.26332 0
M  V30 4900 H 463.674 -1.20478 2.25652 0
M  V30 4901 H 463.318 -2.63047 4.34475 0
M  V30 4902 H 463.248 -4.08678 3.321 0
M  V30 4903 H 465.739 -2.66147 2.6828 0
M  V30 4904 H 466.052 -4.98092 5.90867 0
M  V30 4905 H 464.397 -4.48479 5.30935 0
M  V30 4906 H 467.588 -3.23638 3.38195 0
M  V30 4907 H 467.761 -4.29424 4.85282 0
M  V30 4908 N 461.167 -1.02423 -1.1978 0
M  V30 4909 C 462.077 -0.610919 -2.26506 0
M  V30 4910 C 463.093 0.355152 -1.70337 0
M  V30 4911 O 464.269 0.214195 -2.00258 0
M  V30 4912 C 461.334 0.0365921 -3.46681 0
M  V30 4913 C 460.395 -0.976389 -4.18049 0
M  V30 4914 C 459.628 -0.359683 -5.32487 0
M  V30 4915 O 459.851 0.838601 -5.64202 0
M  V30 4916 O 458.785 -1.08022 -5.92127 0
M  V30 4917 H 462.611 -1.49965 -2.64091 0
M  V30 4918 H 460.196 -0.794156 -1.26545 0
M  V30 4919 H 462.078 0.39786 -4.19518 0
M  V30 4920 H 460.753 0.899398 -3.10954 0
M  V30 4921 H 459.66 -1.38916 -3.47352 0
M  V30 4922 H 460.993 -1.80941 -4.57735 0
M  V30 4923 N 462.645 1.35699 -0.801477 0
M  V30 4924 C 463.894 1.98165 -0.375979 0
M  V30 4925 C 464.207 1.64306 1.06127 0
M  V30 4926 O 465.413 2.20097 1.58964 0
M  V30 4927 C 463.869 3.54497 -0.621305 0
M  V30 4928 C 463.477 3.9727 -2.07076 0
M  V30 4929 C 465.221 4.23697 -0.26091 0
M  V30 4930 C 463.128 5.46427 -2.26211 0
M  V30 4931 H 462.058 0.741478 -0.136844 0
M  V30 4932 H 464.709 1.54834 -0.984814 0
M  V30 4933 H 463.091 3.95958 0.0574112 0
M  V30 4934 H 464.265 3.66974 -2.78687 0
M  V30 4935 H 462.58 3.40943 -2.39054 0
M  V30 4936 H 465.177 5.33334 -0.381994 0
M  V30 4937 H 465.52 4.0869 0.792344 0
M  V30 4938 H 466.053 3.87639 -0.893339 0
M  V30 4939 H 462.792 5.66396 -3.29963 0
M  V30 4940 H 462.312 5.78309 -1.59119 0
M  V30 4941 H 463.991 6.12819 -2.07513 0
M  V30 4942 N 464.123 0.554532 1.47522 0
M  V30 4943 C 465.033 -0.197865 2.33764 0
M  V30 4944 C 466.049 -0.914576 1.48025 0
M  V30 4945 O 467.225 -0.884067 1.80959 0
M  V30 4946 C 464.29 -1.21628 3.24665 0
M  V30 4947 C 463.351 -0.507283 4.26292 0
M  V30 4948 C 462.584 -1.47718 5.1285 0
M  V30 4949 O 462.807 -2.7118 5.01814 0
M  V30 4950 O 461.741 -1.00313 5.93482 0
M  V30 4951 H 465.567 0.50949 2.99396 0
M  V30 4952 H 463.152 0.315176 1.46038 0
M  V30 4953 H 465.034 -1.80421 3.80823 0
M  V30 4954 H 463.709 -1.9056 2.61665 0
M  V30 4955 H 462.616 0.121778 3.73902 0
M  V30 4956 H 463.949 0.140544 4.91999 0
M  V30 4957 N 465.601 -1.54893 0.290851 0
M  V30 4958 C 466.548 -2.23138 -0.58974 0
M  V30 4959 C 467.518 -1.21036 -1.13752 0
M  V30 4960 O 468.703 -1.49626 -1.18392 0
M  V30 4961 C 465.843 -2.96811 -1.76061 0
M  V30 4962 C 464.956 -4.13665 -1.24519 0
M  V30 4963 C 464.091 -4.74944 -2.3791 0
M  V30 4964 C 463.13 -5.83963 -1.83451 0
M  V30 4965 N 462.267 -6.39239 -2.90376 0
M  V30 4966 H 467.107 -2.98 -0.00114915 0
M  V30 4967 H 464.644 -1.47096 0.0112006 0
M  V30 4968 H 466.602 -3.37751 -2.44909 0
M  V30 4969 H 465.232 -2.24344 -2.32098 0
M  V30 4970 H 464.284 -3.77737 -0.449288 0
M  V30 4971 H 465.596 -4.92238 -0.806424 0
M  V30 4972 H 464.75 -5.18684 -3.14724 0
M  V30 4973 H 463.489 -3.95682 -2.85109 0
M  V30 4974 H 462.494 -5.39657 -1.05122 0
M  V30 4975 H 463.719 -6.65103 -1.37169 0
M  V30 4976 H 461.665 -5.62864 -3.36927 0
M  V30 4977 H 461.582 -7.13129 -2.50965 0
M  V30 4978 H 462.85 -6.87637 -3.67118 0
M  V30 4979 N 467.08 -0.0183926 -1.57589 0
M  V30 4980 C 468.357 0.700621 -1.82622 0
M  V30 4981 C 468.737 1.90951 -0.90005 0
M  V30 4982 O 468.085 2.28452 0.0469145 0
M  V30 4983 C 468.295 1.08899 -3.31575 0
M  V30 4984 C 469.643 1.48514 -3.9778 0
M  V30 4985 O 470.667 1.18227 -3.36007 0
M  V30 4986 O 469.526 2.04903 -5.06633 0
M  V30 4987 H 466.62 0.342743 -0.752633 0
M  V30 4988 H 469.166 -0.0452548 -1.6964 0
M  V30 4989 H 467.938 0.228113 -3.90635 0
M  V30 4990 H 467.561 1.89338 -3.49624 0
M  V30 4991 N 468.558 1.5553 0.254621 0
M  V30 4992 C 469.969 1.67518 0.824286 0
M  V30 4993 C 470.32 0.614429 1.86331 0
M  V30 4994 O 469.445 -0.240736 2.15057 0
M  V30 4995 C 470.04 3.03692 1.50189 0
M  V30 4996 C 468.599 3.17646 2.01935 0
M  V30 4997 C 467.746 2.63373 0.867746 0
M  V30 4998 H 470.697 1.58671 0.0305843 0
M  V30 4999 H 470.718 2.97706 2.36962 0
M  V30 5000 H 470.23 3.80874 0.745431 0
M  V30 5001 H 468.331 2.45273 2.80485 0
M  V30 5002 H 468.444 4.24455 2.22204 0
M  V30 5003 H 466.808 2.20999 1.26616 0
M  V30 5004 H 467.591 3.43074 0.124498 0
M  V30 5005 N 470.036 -0.519951 1.48776 0
M  V30 5006 C 470.999 -1.60574 1.6355 0
M  V30 5007 C 471.999 -1.52557 0.508234 0
M  V30 5008 O 473.189 -1.56047 0.774262 0
M  V30 5009 C 470.321 -3.00211 1.61512 0
M  V30 5010 H 471.514 -1.4881 2.60376 0
M  V30 5011 H 469.067 -0.742772 1.37523 0
M  V30 5012 H 469.802 -3.17471 0.662009 0
M  V30 5013 H 469.587 -3.07439 2.43359 0
M  V30 5014 H 471.077 -3.79134 1.75064 0
M  V30 5015 N 471.514 -1.37532 -0.769588 0
M  V30 5016 C 472.444 -1.36172 -1.89682 0
M  V30 5017 C 473.425 -0.23001 -1.68538 0
M  V30 5018 O 474.61 -0.43069 -1.89364 0
M  V30 5019 C 471.74 -1.1701 -3.26995 0
M  V30 5020 C 470.694 -2.27216 -3.62708 0
M  V30 5021 C 470.02 -1.93174 -4.98586 0
M  V30 5022 C 471.32 -3.6941 -3.69234 0
M  V30 5023 H 473.014 -2.30499 -1.91078 0
M  V30 5024 H 470.56 -1.10953 -0.917902 0
M  V30 5025 H 472.513 -1.14688 -4.05493 0
M  V30 5026 H 471.237 -0.191395 -3.26039 0
M  V30 5027 H 469.896 -2.28697 -2.86519 0
M  V30 5028 H 469.544 -0.938281 -4.94171 0
M  V30 5029 H 469.244 -2.66973 -5.23449 0
M  V30 5030 H 470.768 -1.92443 -5.79481 0
M  V30 5031 H 472.182 -3.70047 -4.37879 0
M  V30 5032 H 470.579 -4.4228 -4.05597 0
M  V30 5033 H 471.649 -4.0288 -2.69844 0
M  V30 5034 N 472.992 0.995999 -1.22138 0
M  V30 5035 C 473.902 2.11985 -1.00496 0
M  V30 5036 C 474.918 1.7394 0.0457701 0
M  V30 5037 O 476.094 2.00868 -0.146273 0
M  V30 5038 C 473.159 3.41779 -0.582086 0
M  V30 5039 C 472.22 3.93943 -1.70608 0
M  V30 5040 C 471.453 5.17542 -1.30328 0
M  V30 5041 O 471.676 5.70114 -0.180743 0
M  V30 5042 O 470.61 5.63382 -2.11861 0
M  V30 5043 H 474.436 2.33123 -1.94647 0
M  V30 5044 H 472.021 1.10358 -1.00705 0
M  V30 5045 H 473.903 4.1989 -0.356467 0
M  V30 5046 H 472.578 3.22007 0.330592 0
M  V30 5047 H 471.485 3.17019 -1.98619 0
M  V30 5048 H 472.818 4.18141 -2.59651 0
M  V30 5049 N 474.47 1.03057 1.19235 0
M  V30 5050 C 475.886 0.747947 1.40989 0
M  V30 5051 C 476.086 -0.666752 1.90149 0
M  V30 5052 O 475.142 -1.43249 2.07933 0
M  V30 5053 C 476.455 1.7855 2.41951 0
M  V30 5054 C 478.003 1.80524 2.55695 0
M  V30 5055 C 478.478 2.83243 3.59913 0
M  V30 5056 N 479.969 2.8207 3.67411 0
M  V30 5057 C 480.704 3.58204 4.47747 0
M  V30 5058 N 480.2 4.44057 5.31775 0
M  V30 5059 N 481.993 3.46738 4.42413 0
M  V30 5060 H 474.144 1.94367 0.856468 0
M  V30 5061 H 476.407 0.840412 0.438647 0
M  V30 5062 H 476.113 2.79973 2.12857 0
M  V30 5063 H 475.987 1.6092 3.41152 0
M  V30 5064 H 478.374 0.79778 2.84112 0
M  V30 5065 H 478.455 2.02229 1.56643 0
M  V30 5066 H 478.099 3.84161 3.32239 0
M  V30 5067 H 478.029 2.58795 4.5862 0
M  V30 5068 H 480.52 2.19803 3.074 0
M  V30 5069 H 480.833 4.98884 5.90199 0
M  V30 5070 H 479.178 4.48129 5.3123 0
M  V30 5071 H 482.369 2.79077 3.75811 0
M  V30 5072 H 482.542 4.06322 5.04783 0
M  V30 5073 N 475.948 -1.35272 0.808662 0
M  V30 5074 C 477.364 -1.51806 0.492653 0
M  V30 5075 C 477.564 -1.7574 -0.985778 0
M  V30 5076 O 476.62 -1.80003 -1.77074 0
M  V30 5077 C 477.933 -2.69202 1.33981 0
M  V30 5078 C 479.481 -2.8308 1.33547 0
M  V30 5079 C 479.956 -4.03502 2.16679 0
M  V30 5080 N 481.447 -4.10684 2.14227 0
M  V30 5081 C 482.182 -5.02984 2.75308 0
M  V30 5082 N 481.678 -6.00603 3.45323 0
M  V30 5083 N 483.471 -4.95746 2.64938 0
M  V30 5084 H 475.622 -1.17993 1.76611 0
M  V30 5085 H 477.885 -0.577476 0.751814 0
M  V30 5086 H 477.591 -2.581 2.38909 0
M  V30 5087 H 477.465 -3.63854 0.994491 0
M  V30 5088 H 479.852 -2.93631 0.294036 0
M  V30 5089 H 479.933 -1.89278 1.72068 0
M  V30 5090 H 479.577 -3.93711 3.20864 0
M  V30 5091 H 479.507 -4.96489 1.75517 0
M  V30 5092 H 481.998 -3.40802 1.63285 0
M  V30 5093 H 482.311 -6.67633 3.89212 0
M  V30 5094 H 480.656 -6.0077 3.49428 0
M  V30 5095 H 483.847 -4.18439 2.09825 0
M  V30 5096 H 484.02 -5.67487 3.12829 0
M  V30 5097 N 477.426 -0.562348 -1.47226 0
M  V30 5098 C 478.673 -0.0402165 -2.0246 0
M  V30 5099 C 479.001 1.31169 -1.43614 0
M  V30 5100 O 478.256 1.86805 -0.5833 0
M  V30 5101 C 478.555 0.0969817 -3.57268 0
M  V30 5102 C 478.221 -1.1847 -4.35058 0
M  V30 5103 C 476.883 -1.53588 -4.56031 0
M  V30 5104 C 479.235 -2.03378 -4.79882 0
M  V30 5105 C 476.563 -2.73452 -5.19077 0
M  V30 5106 C 478.915 -3.2245 -5.44251 0
M  V30 5107 C 477.579 -3.57876 -5.63455 0
M  V30 5108 H 476.849 -0.0147163 -0.740854 0
M  V30 5109 H 479.496 -0.734895 -1.76838 0
M  V30 5110 H 477.801 0.87466 -3.81912 0
M  V30 5111 H 479.498 0.516408 -3.97661 0
M  V30 5112 H 476.088 -0.90126 -4.19017 0
M  V30 5113 H 480.272 -1.77553 -4.63453 0
M  V30 5114 H 475.528 -3.01062 -5.32139 0
M  V30 5115 H 479.702 -3.88526 -5.77945 0
M  V30 5116 H 477.329 -4.50849 -6.12078 0
M  V30 5117 N 478.904 1.54736 -0.299062 0
M  V30 5118 C 479.836 2.20891 0.61153 0
M  V30 5119 C 480.849 1.20104 1.09904 0
M  V30 5120 O 482.038 1.46707 1.01683 0
M  V30 5121 C 479.138 2.84018 1.84897 0
M  V30 5122 C 478.311 4.10719 1.50428 0
M  V30 5123 C 477.37 4.57667 2.59667 0
M  V30 5124 O 476.396 5.2291 2.24842 0
M  V30 5125 N 477.598 4.29821 3.90172 0
M  V30 5126 H 480.363 2.99666 0.0452001 0
M  V30 5127 H 477.924 1.61446 -0.121178 0
M  V30 5128 H 479.916 3.1236 2.5732 0
M  V30 5129 H 478.486 2.09095 2.32375 0
M  V30 5130 H 477.706 3.89408 0.612781 0
M  V30 5131 H 478.994 4.93223 1.24934 0
M  V30 5132 H 478.392 3.77549 4.21276 0
M  V30 5133 H 476.949 4.62877 4.58899 0
M  V30 5134 N 480.382 0.0267497 1.57577 0
M  V30 5135 C 481.793 -0.512413 1.79531 0
M  V30 5136 C 482.144 -1.72391 0.936791 0
M  V30 5137 O 481.269 -2.15903 0.146543 0
M  V30 5138 C 481.864 -0.936378 3.25603 0
M  V30 5139 C 480.423 -1.42067 3.4856 0
M  V30 5140 C 479.57 -0.384278 2.74624 0
M  V30 5141 H 482.521 0.252797 1.56674 0
M  V30 5142 H 482.542 -1.80088 3.35184 0
M  V30 5143 H 482.054 -0.0544332 3.88062 0
M  V30 5144 H 480.155 -2.32262 2.9135 0
M  V30 5145 H 480.268 -1.42968 4.57271 0
M  V30 5146 H 478.632 -0.851855 2.40032 0
M  V30 5147 H 479.415 0.489159 3.39797 0
M  V30 5148 N 481.861 -1.55662 -0.24637 0
M  V30 5149 C 483.107 -1.77782 -0.975779 0
M  V30 5150 C 483.44 -0.592103 -1.84953 0
M  V30 5151 O 482.715 0.409588 -1.90138 0
M  V30 5152 C 482.998 -3.09788 -1.83584 0
M  V30 5153 C 482.851 -4.38764 -0.990241 0
M  V30 5154 C 484.17 -3.38029 -2.81823 0
M  V30 5155 H 481.289 -0.646789 -0.353317 0
M  V30 5156 H 483.931 -1.88398 -0.246248 0
M  V30 5157 H 482.081 -3.00869 -2.45784 0
M  V30 5158 H 483.753 -4.59675 -0.386897 0
M  V30 5159 H 481.996 -4.32798 -0.294626 0
M  V30 5160 H 482.667 -5.27514 -1.62584 0
M  V30 5161 H 485.143 -3.46915 -2.2976 0
M  V30 5162 H 484.019 -4.3161 -3.39122 0
M  V30 5163 H 484.28 -2.58968 -3.58313 0
M  V30 5164 N 483.339 0.512053 -1.4905 0
M  V30 5165 C 484.569 1.28928 -1.61434 0
M  V30 5166 C 484.977 1.87107 -0.280647 0
M  V30 5167 O 484.32 1.68024 0.742537 0
M  V30 5168 C 484.382 2.466 -2.61588 0
M  V30 5169 C 484.046 2.09375 -4.06216 0
M  V30 5170 C 485.043 1.63994 -4.93358 0
M  V30 5171 C 482.728 2.19348 -4.51876 0
M  V30 5172 C 484.722 1.29076 -6.24194 0
M  V30 5173 C 482.409 1.84041 -5.82728 0
M  V30 5174 C 483.407 1.38978 -6.68711 0
M  V30 5175 O 483.095 1.04144 -7.97126 0
M  V30 5176 H 482.827 0.397668 -0.546659 0
M  V30 5177 H 485.381 0.622507 -1.9574 0
M  V30 5178 H 483.611 3.16318 -2.22441 0
M  V30 5179 H 485.3 3.08642 -2.63619 0
M  V30 5180 H 486.066 1.55744 -4.59313 0
M  V30 5181 H 481.945 2.53376 -3.85125 0
M  V30 5182 H 485.489 0.938303 -6.91261 0
M  V30 5183 H 481.386 1.91938 -6.16304 0
M  V30 5184 H 482.154 1.17387 -8.10039 0
M  V30 5185 N 484.817 1.37938 0.762283 0
M  V30 5186 C 486.063 1.33866 1.52341 0
M  V30 5187 C 486.396 -0.0738961 1.94059 0
M  V30 5188 O 485.671 -1.03326 1.64785 0
M  V30 5189 C 485.954 2.28644 2.78197 0
M  V30 5190 C 485.807 3.78722 2.42672 0
M  V30 5191 C 487.126 2.21702 3.80179 0
M  V30 5192 H 484.245 0.487593 0.55265 0
M  V30 5193 H 486.887 1.68717 0.873767 0
M  V30 5194 H 485.037 1.99055 3.33631 0
M  V30 5195 H 486.709 4.18948 1.93081 0
M  V30 5196 H 484.952 3.96827 1.75244 0
M  V30 5197 H 485.623 4.40486 3.3268 0
M  V30 5198 H 488.099 2.47805 3.34263 0
M  V30 5199 H 486.975 2.90143 4.65949 0
M  V30 5200 H 487.236 1.21301 4.25133 0
M  V30 5201 N 486.295 -0.989507 1.22664 0
M  V30 5202 C 487.572 -1.70326 0.961688 0
M  V30 5203 C 487.952 -2.04537 -0.522279 0
M  V30 5204 O 487.3 -1.73136 -1.49118 0
M  V30 5205 C 487.51 -2.95135 1.86269 0
M  V30 5206 C 488.858 -3.67842 2.12078 0
M  V30 5207 O 489.882 -3.0515 1.83745 0
M  V30 5208 O 488.741 -4.80644 2.60083 0
M  V30 5209 H 485.835 -0.743589 0.361946 0
M  V30 5210 H 488.381 -1.04555 1.33665 0
M  V30 5211 H 487.153 -2.66382 2.8663 0
M  V30 5212 H 486.776 -3.68645 1.48952 0
M  V30 5213 N 487.773 -1.03688 -1.18687 0
M  V30 5214 C 488.683 -0.634908 -2.25845 0
M  V30 5215 C 489.699 0.337065 -1.70704 0
M  V30 5216 O 490.875 0.192943 -2.00474 0
M  V30 5217 C 487.94 -0.000180054 -3.467 0
M  V30 5218 C 487.001 -1.02067 -4.1699 0
M  V30 5219 C 486.234 -0.41614 -5.32075 0
M  V30 5220 O 486.457 0.778712 -5.65059 0
M  V30 5221 O 485.391 -1.14296 -5.90948 0
M  V30 5222 H 489.217 -1.52757 -2.62486 0
M  V30 5223 H 486.802 -0.807533 -1.25695 0
M  V30 5224 H 488.684 0.353342 -4.19916 0
M  V30 5225 H 487.359 0.866367 -3.11891 0
M  V30 5226 H 486.266 -1.42592 -3.45859 0
M  V30 5227 H 487.599 -1.85786 -4.5579 0
M  V30 5228 N 489.251 1.34841 -0.815825 0
M  V30 5229 C 490.662 1.80937 -0.46029 0
M  V30 5230 C 491.013 1.67685 1.01863 0
M  V30 5231 O 490.138 1.21277 1.79223 0
M  V30 5232 C 490.733 3.28509 -0.828708 0
M  V30 5233 C 489.292 3.72712 -0.525644 0
M  V30 5234 C 488.439 2.56676 -1.04941 0
M  V30 5235 H 491.39 1.22688 -1.00664 0
M  V30 5236 H 491.411 3.80279 -0.129757 0
M  V30 5237 H 490.923 3.38122 -1.90513 0
M  V30 5238 H 489.024 3.68642 0.541666 0
M  V30 5239 H 489.137 4.67119 -1.06474 0
M  V30 5240 H 487.501 2.50302 -0.471286 0
M  V30 5241 H 488.284 2.69063 -2.13214 0
M  V30 5242 N 490.729 0.570148 1.46925 0
M  V30 5243 C 491.957 0.0561966 2.06824 0
M  V30 5244 C 492.372 -1.24326 1.42086 0
M  V30 5245 O 491.729 -1.74882 0.521794 0
M  V30 5246 C 491.78 -0.129517 3.61268 0
M  V30 5247 O 491.501 1.1185 4.23581 0
M  V30 5248 C 493.002 -0.679266 4.38065 0
M  V30 5249 H 490.222 0.0517261 0.669003 0
M  V30 5250 H 492.766 0.787243 1.8874 0
M  V30 5251 H 490.921 -0.810739 3.78822 0
M  V30 5252 H 491.335 0.924375 5.1629 0
M  V30 5253 H 492.809 -0.758445 5.46765 0
M  V30 5254 H 493.286 -1.69346 4.05239 0
M  V30 5255 H 493.892 -0.0333237 4.25287 0
M  V30 5256 N 492.207 -1.54576 0.307264 0
M  V30 5257 C 493.453 -2.0056 -0.300612 0
M  V30 5258 C 493.786 -1.1953 -1.53057 0
M  V30 5259 O 493.061 -0.27337 -1.92569 0
M  V30 5260 C 493.344 -3.54167 -0.650987 0
M  V30 5261 C 493.197 -4.45933 0.588539 0
M  V30 5262 C 494.516 -4.14645 -1.47506 0
M  V30 5263 H 491.635 -0.729075 -0.107788 0
M  V30 5264 H 494.277 -1.85286 0.420606 0
M  V30 5265 H 492.427 -3.67313 -1.26544 0
M  V30 5266 H 494.099 -4.44683 1.22697 0
M  V30 5267 H 492.342 -4.16274 1.22058 0
M  V30 5268 H 493.013 -5.51189 0.299153 0
M  V30 5269 H 495.489 -4.04973 -0.955821 0
M  V30 5270 H 494.365 -5.22269 -1.68899 0
M  V30 5271 H 494.626 -3.66921 -2.4662 0
M  V30 5272 N 493.685 -0.035106 -1.57561 0
M  V30 5273 C 494.595 0.960295 -2.14046 0
M  V30 5274 C 495.611 1.3529 -1.0942 0
M  V30 5275 O 496.787 1.43309 -1.41508 0
M  V30 5276 C 493.852 2.22214 -2.66124 0
M  V30 5277 C 492.913 1.8894 -3.85487 0
M  V30 5278 C 492.146 3.09109 -4.35072 0
M  V30 5279 O 492.369 4.21963 -3.83802 0
M  V30 5280 O 491.303 2.91058 -5.26848 0
M  V30 5281 H 495.129 0.509983 -2.99387 0
M  V30 5282 H 492.714 0.185853 -1.48239 0
M  V30 5283 H 494.596 2.96279 -2.99661 0
M  V30 5284 H 493.271 2.66414 -1.83862 0
M  V30 5285 H 492.178 1.12241 -3.56865 0
M  V30 5286 H 493.511 1.49551 -4.6893 0
M  V30 5287 N 495.163 1.55791 0.238111 0
M  V30 5288 C 496.073 1.94196 1.31625 0
M  V30 5289 C 497.089 0.843545 1.52185 0
M  V30 5290 O 498.265 1.1457 1.65637 0
M  V30 5291 C 495.33 2.2365 2.64918 0
M  V30 5292 C 494.391 3.46971 2.52804 0
M  V30 5293 C 493.624 3.7501 3.79741 0
M  V30 5294 O 493.847 3.04982 4.82019 0
M  V30 5295 O 492.781 4.68525 3.77846 0
M  V30 5296 H 496.607 2.86044 1.02043 0
M  V30 5297 H 494.192 1.42786 0.439603 0
M  V30 5298 H 496.074 2.43863 3.4367 0
M  V30 5299 H 494.749 1.34979 2.94215 0
M  V30 5300 H 493.656 3.32055 1.72309 0
M  V30 5301 H 494.989 4.35971 2.28451 0
M  V30 5302 N 496.642 -0.504142 1.49319 0
M  V30 5303 C 497.87 -1.28256 1.62351 0
M  V30 5304 C 498.285 -1.86502 0.293682 0
M  V30 5305 O 497.642 -1.67678 -0.720449 0
M  V30 5306 C 497.693 -2.41507 2.68992 0
M  V30 5307 O 497.414 -1.85656 3.96817 0
M  V30 5308 C 498.915 -3.32929 2.927 0
M  V30 5309 H 496.135 -0.389115 0.546654 0
M  V30 5310 H 498.679 -0.605531 1.95329 0
M  V30 5311 H 496.834 -3.05046 2.38801 0
M  V30 5312 H 497.248 -2.59981 4.55533 0
M  V30 5313 H 498.722 -4.0868 3.71058 0
M  V30 5314 H 499.199 -3.89733 2.02496 0
M  V30 5315 H 499.805 -2.75158 3.24296 0
M  V30 5316 N 498.12 -1.38341 -0.754957 0
M  V30 5317 C 499.369 -1.33791 -1.5094 0
M  V30 5318 C 499.682 0.0699267 -1.95475 0
M  V30 5319 O 500.888 0.237956 -2.70455 0
M  V30 5320 C 499.344 -2.34934 -2.72643 0
M  V30 5321 C 498.952 -3.81332 -2.35138 0
M  V30 5322 C 500.696 -2.39425 -3.50536 0
M  V30 5323 C 498.603 -4.74164 -3.53444 0
M  V30 5324 H 497.533 -0.497314 -0.566741 0
M  V30 5325 H 500.184 -1.63888 -0.825403 0
M  V30 5326 H 498.566 -1.97878 -3.43017 0
M  V30 5327 H 499.74 -4.27319 -1.7244 0
M  V30 5328 H 498.055 -3.79946 -1.70382 0
M  V30 5329 H 500.652 -3.0598 -4.38498 0
M  V30 5330 H 500.995 -1.41278 -3.91594 0
M  V30 5331 H 501.528 -2.75274 -2.87174 0
M  V30 5332 H 498.267 -5.73501 -3.17453 0
M  V30 5333 H 497.787 -4.3287 -4.15191 0
M  V30 5334 H 499.466 -4.92111 -4.20043 0
M  V30 5335 N 499.598 0.982988 -1.23187 0
M  V30 5336 C 500.823 1.76455 -1.08988 0
M  V30 5337 C 501.248 1.84726 0.354691 0
M  V30 5338 O 500.606 1.30699 1.25649 0
M  V30 5339 C 500.654 3.17094 -1.71708 0
M  V30 5340 O 499.758 4.00648 -0.977477 0
M  V30 5341 H 499.099 0.542988 -0.382177 0
M  V30 5342 H 501.629 1.23413 -1.63188 0
M  V30 5343 H 501.639 3.67684 -1.76841 0
M  V30 5344 H 500.314 3.10389 -2.76823 0
M  V30 5345 H 498.891 3.59161 -1.0029 0
M  V30 5346 N 501.076 1.04316 1.18135 0
M  V30 5347 C 502.325 0.74319 1.87509 0
M  V30 5348 C 502.638 -0.732136 1.81381 0
M  V30 5349 O 503.844 -1.14572 2.46141 0
M  V30 5350 C 502.3 1.27913 3.36402 0
M  V30 5351 C 501.908 2.78326 3.51053 0
M  V30 5352 C 503.652 1.0558 4.11161 0
M  V30 5353 C 501.559 3.25266 4.93919 0
M  V30 5354 H 500.489 0.274313 0.702331 0
M  V30 5355 H 503.14 1.25931 1.33467 0
M  V30 5356 H 501.522 0.690853 3.89927 0
M  V30 5357 H 502.696 3.42933 3.07788 0
M  V30 5358 H 501.011 2.991 2.89704 0
M  V30 5359 H 503.608 1.38161 5.16542 0
M  V30 5360 H 503.951 -0.00684729 4.16299 0
M  V30 5361 H 504.484 1.60882 3.63816 0
M  V30 5362 H 501.223 4.30922 4.9395 0
M  V30 5363 H 500.743 2.65396 5.3789 0
M  V30 5364 H 502.422 3.19433 5.62647 0
M  V30 5365 N 502.554 -1.34406 0.822964 0
M  V30 5366 C 503.484 -2.32052 0.259608 0
M  V30 5367 C 504.465 -1.58243 -0.623961 0
M  V30 5368 O 505.65 -1.86224 -0.55083 0
M  V30 5369 C 502.78 -3.42434 -0.579314 0
M  V30 5370 C 501.734 -4.27499 0.20712 0
M  V30 5371 C 501.06 -5.29349 -0.754547 0
M  V30 5372 C 502.36 -5.02758 1.41533 0
M  V30 5373 H 504.054 -2.79418 1.07545 0
M  V30 5374 H 501.6 -1.34338 0.518593 0
M  V30 5375 H 503.553 -4.0976 -0.983612 0
M  V30 5376 H 502.277 -2.93717 -1.4282 0
M  V30 5377 H 500.936 -3.61776 0.592787 0
M  V30 5378 H 500.584 -4.76895 -1.59939 0
M  V30 5379 H 500.284 -5.8714 -0.232561 0
M  V30 5380 H 501.808 -5.99544 -1.1567 0
M  V30 5381 H 503.222 -5.62938 1.08504 0
M  V30 5382 H 501.619 -5.70123 1.87296 0
M  V30 5383 H 502.689 -4.32451 2.1935 0
M  V30 5384 N 504.032 -0.577932 -1.46621 0
M  V30 5385 C 505.448 -0.239242 -1.57797 0
M  V30 5386 C 505.648 1.25843 -1.57371 0
M  V30 5387 O 504.704 2.03988 -1.48813 0
M  V30 5388 C 506.017 -0.884227 -2.87405 0
M  V30 5389 C 507.565 -0.857373 -3.01028 0
M  V30 5390 C 508.04 -1.48181 -4.33366 0
M  V30 5391 N 509.531 -1.44593 -4.40053 0
M  V30 5392 C 510.266 -1.89852 -5.41058 0
M  V30 5393 N 509.762 -2.43062 -6.48762 0
M  V30 5394 N 511.555 -1.80797 -5.3223 0
M  V30 5395 H 503.706 -1.55073 -1.45142 0
M  V30 5396 H 505.969 -0.647903 -0.692044 0
M  V30 5397 H 505.675 -1.93759 -2.93514 0
M  V30 5398 H 505.549 -0.389585 -3.75183 0
M  V30 5399 H 507.936 0.187357 -2.94505 0
M  V30 5400 H 508.017 -1.38999 -2.14739 0
M  V30 5401 H 507.661 -2.52572 -4.40647 0
M  V30 5402 H 507.591 -0.924464 -5.18422 0
M  V30 5403 H 510.082 -1.05694 -3.62819 0
M  V30 5404 H 510.395 -2.75466 -7.22038 0
M  V30 5405 H 508.74 -2.47085 -6.49595 0
M  V30 5406 H 511.931 -1.38989 -4.46989 0
M  V30 5407 H 512.104 -2.16385 -6.10804 0
M  V30 5408 N 505.51 1.54411 -0.315457 0
M  V30 5409 C 506.758 2.00023 0.288971 0
M  V30 5410 C 507.079 1.20529 1.5329 0
M  V30 5411 O 506.349 0.304986 1.93511 0
M  V30 5412 H 504.929 0.738891 0.109766 0
M  V30 5413 H 507.591 1.90094 -0.430129 0
M  V30 5414 H 506.687 3.07198 0.550999 0
M  V30 5415 N 506.988 0.0434614 1.5754 0
M  V30 5416 C 507.918 -0.931651 2.14109 0
M  V30 5417 C 508.899 -1.32971 1.06079 0
M  V30 5418 O 510.084 -1.40579 1.33982 0
M  V30 5419 C 507.214 -2.20914 2.67982 0
M  V30 5420 C 506.168 -1.95139 3.80926 0
M  V30 5421 C 505.494 -3.29276 4.21285 0
M  V30 5422 C 506.794 -1.27913 5.06395 0
M  V30 5423 H 508.488 -0.460497 2.95837 0
M  V30 5424 H 506.034 -0.220058 1.42309 0
M  V30 5425 H 507.987 -2.89522 3.06194 0
M  V30 5426 H 506.711 -2.70221 1.83434 0
M  V30 5427 H 505.37 -1.28945 3.43175 0
M  V30 5428 H 505.018 -3.76369 3.33699 0
M  V30 5429 H 504.718 -3.12831 4.97404 0
M  V30 5430 H 506.242 -3.99129 4.62091 0
M  V30 5431 H 507.656 -1.86544 5.42102 0
M  V30 5432 H 506.053 -1.2182 5.87605 0
M  V30 5433 H 507.123 -0.254066 4.84234 0
M  V30 5434 N 508.466 -1.55915 -0.229846 0
M  V30 5435 C 509.413 -1.91734 -1.28478 0
M  V30 5436 C 510.383 -0.773539 -1.46988 0
M  V30 5437 O 511.568 -1.02871 -1.60693 0
M  V30 5438 C 508.708 -2.23224 -2.63182 0
M  V30 5439 C 507.821 -3.50497 -2.52539 0
M  V30 5440 C 506.956 -3.71474 -3.79711 0
M  V30 5441 C 505.995 -4.92289 -3.63755 0
M  V30 5442 N 505.132 -5.09698 -4.82858 0
M  V30 5443 H 509.972 -2.81692 -0.972308 0
M  V30 5444 H 507.509 -1.39429 -0.468815 0
M  V30 5445 H 509.467 -2.3949 -3.41614 0
M  V30 5446 H 508.097 -1.36451 -2.92542 0
M  V30 5447 H 507.149 -3.4247 -1.65585 0
M  V30 5448 H 508.461 -4.39079 -2.36666 0
M  V30 5449 H 507.615 -3.87791 -4.66586 0
M  V30 5450 H 506.354 -2.81157 -3.985 0
M  V30 5451 H 505.359 -4.7593 -2.75264 0
M  V30 5452 H 506.584 -5.84083 -3.46445 0
M  V30 5453 H 504.53 -4.22322 -5.01976 0
M  V30 5454 H 504.447 -5.92399 -4.69681 0
M  V30 5455 H 505.715 -5.30443 -5.71183 0
M  V30 5456 N 509.944 0.496216 -1.49584 0
M  V30 5457 C 510.854 1.62352 -1.69349 0
M  V30 5458 C 511.87 1.64184 -0.576147 0
M  V30 5459 O 513.046 1.82517 -0.85144 0
M  V30 5460 C 510.111 2.98698 -1.76013 0
M  V30 5461 C 509.172 3.07454 -2.99617 0
M  V30 5462 C 508.405 4.37296 -3.05953 0
M  V30 5463 O 508.628 5.2637 -2.19752 0
M  V30 5464 O 507.562 4.51124 -3.9846 0
M  V30 5465 H 511.388 1.48606 -2.64859 0
M  V30 5466 H 508.973 0.673022 -1.33382 0
M  V30 5467 H 510.855 3.79725 -1.82721 0
M  V30 5468 H 509.53 3.12696 -0.836828 0
M  V30 5469 H 508.437 2.25597 -2.98424 0
M  V30 5470 H 509.77 2.98385 -3.91443 0
M  V30 5471 N 511.423 1.38739 0.74761 0
M  V30 5472 C 512.37 1.36449 1.86146 0
M  V30 5473 C 513.34 0.226098 1.64554 0
M  V30 5474 O 514.525 0.41926 1.86137 0
M  V30 5475 C 511.665 1.2013 3.23516 0
M  V30 5476 C 510.778 2.43407 3.56899 0
M  V30 5477 C 509.913 2.19773 4.83605 0
M  V30 5478 C 508.952 3.3879 5.09792 0
M  V30 5479 N 508.089 3.14553 6.27695 0
M  V30 5480 H 512.929 2.3167 1.87438 0
M  V30 5481 H 510.466 1.15094 0.916063 0
M  V30 5482 H 512.424 1.08683 4.02795 0
M  V30 5483 H 511.054 0.285453 3.21535 0
M  V30 5484 H 510.106 2.65504 2.72418 0
M  V30 5485 H 511.418 3.32094 3.72176 0
M  V30 5486 H 510.572 2.05496 5.70838 0
M  V30 5487 H 509.311 1.28461 4.70478 0
M  V30 5488 H 508.316 3.53579 4.21025 0
M  V30 5489 H 509.541 4.30986 5.24812 0
M  V30 5490 H 507.487 2.25893 6.1588 0
M  V30 5491 H 507.404 3.96791 6.435 0
M  V30 5492 H 508.672 3.03943 7.17801 0
M  V30 5493 N 512.901 -0.976442 1.23707 0
M  V30 5494 C 514.131 -1.75087 1.09673 0
M  V30 5495 C 514.539 -1.85852 -0.354344 0
M  V30 5496 O 513.882 -1.33985 -1.25673 0
M  V30 5497 C 513.944 -3.19272 1.65245 0
M  V30 5498 C 513.608 -3.32004 3.14042 0
M  V30 5499 C 514.605 -3.18017 4.11292 0
M  V30 5500 C 512.29 -3.56525 3.53829 0
M  V30 5501 C 514.284 -3.28363 5.46312 0
M  V30 5502 C 511.971 -3.6651 4.88993 0
M  V30 5503 C 512.969 -3.52439 5.85043 0
M  V30 5504 O 512.657 -3.62063 7.1775 0
M  V30 5505 H 512.389 -0.556164 0.384262 0
M  V30 5506 H 514.943 -1.23518 1.64111 0
M  V30 5507 H 513.173 -3.72107 1.05231 0
M  V30 5508 H 514.862 -3.7849 1.46629 0
M  V30 5509 H 515.628 -2.98966 3.81896 0
M  V30 5510 H 511.507 -3.66547 2.79579 0
M  V30 5511 H 515.051 -3.17297 6.21263 0
M  V30 5512 H 510.948 -3.85072 5.18063 0
M  V30 5513 H 511.716 -3.78833 7.25553 0
M  V30 5514 N 514.379 -1.04941 -1.1758 0
M  V30 5515 C 515.289 -0.658826 -2.25159 0
M  V30 5516 C 516.305 0.318941 -1.71052 0
M  V30 5517 O 517.481 0.171669 -2.00667 0
M  V30 5518 C 514.546 -0.0369522 -3.4668 0
M  V30 5519 C 513.607 -1.06484 -4.15884 0
M  V30 5520 C 512.84 -0.472551 -5.31604 0
M  V30 5521 O 513.063 0.718736 -5.65854 0
M  V30 5522 O 511.997 -1.20557 -5.89703 0
M  V30 5523 H 515.823 -1.55533 -2.60851 0
M  V30 5524 H 513.408 -0.820819 -1.24832 0
M  V30 5525 H 515.29 0.308784 -4.20267 0
M  V30 5526 H 513.965 0.833238 -3.12792 0
M  V30 5527 H 512.872 -1.46253 -3.44327 0
M  V30 5528 H 514.205 -1.9061 -4.53794 0
M  V30 5529 N 515.857 1.33968 -0.830081 0
M  V30 5530 C 517.103 1.98357 -0.422191 0
M  V30 5531 C 517.436 1.65633 1.01387 0
M  V30 5532 O 516.711 0.931648 1.70735 0
M  V30 5533 C 516.994 3.54492 -0.633043 0
M  V30 5534 C 516.847 3.96934 -2.11574 0
M  V30 5535 C 518.166 4.40039 -0.0735584 0
M  V30 5536 H 515.285 0.720544 -0.154871 0
M  V30 5537 H 517.927 1.58749 -1.04397 0
M  V30 5538 H 516.077 3.88361 -0.103775 0
M  V30 5539 H 517.749 3.73363 -2.7092 0
M  V30 5540 H 515.992 3.46984 -2.60354 0
M  V30 5541 H 516.663 5.05651 -2.21406 0
M  V30 5542 H 519.139 4.12764 -0.52585 0
M  V30 5543 H 518.015 5.48327 -0.250841 0
M  V30 5544 H 518.276 4.30124 1.02202 0
M  V30 5545 N 517.335 0.585699 1.46312 0
M  V30 5546 C 518.285 -0.166813 2.27389 0
M  V30 5547 C 519.269 -0.859076 1.36047 0
M  V30 5548 O 520.461 -0.752678 1.60199 0
M  V30 5549 C 517.59 -1.17791 3.2246 0
M  V30 5550 C 516.676 -0.487605 4.21288 0
M  V30 5551 N 517.067 0.45849 5.03718 0
M  V30 5552 C 515.365 -0.737971 4.39852 0
M  V30 5553 C 516.066 0.862213 5.75275 0
M  V30 5554 N 515.042 0.210707 5.43191 0
M  V30 5555 H 518.844 0.560167 2.88512 0
M  V30 5556 H 516.358 0.407715 1.57199 0
M  V30 5557 H 518.355 -1.73122 3.79255 0
M  V30 5558 H 517.015 -1.90568 2.62896 0
M  V30 5559 H 518.026 0.834163 5.11138 0
M  V30 5560 H 514.703 -1.45209 3.91434 0
M  V30 5561 H 516.093 1.64128 6.51546 0
M  V30 5562 N 518.813 -1.54241 0.323641 0
M  V30 5563 C 519.763 -2.21071 -0.557833 0
M  V30 5564 C 520.747 -1.19126 -1.08157 0
M  V30 5565 O 521.939 -1.44755 -1.01857 0
M  V30 5566 C 519.068 -2.97208 -1.71821 0
M  V30 5567 C 518.154 -4.06491 -1.20936 0
M  V30 5568 N 518.545 -5.04052 -0.420202 0
M  V30 5569 C 516.843 -4.20443 -1.48808 0
M  V30 5570 C 517.544 -5.81516 -0.146413 0
M  V30 5571 N 516.52 -5.38641 -0.732562 0
M  V30 5572 H 520.322 -2.93853 0.0523921 0
M  V30 5573 H 517.836 -1.61883 0.129502 0
M  V30 5574 H 519.833 -3.4357 -2.36146 0
M  V30 5575 H 518.493 -2.25947 -2.33191 0
M  V30 5576 H 519.504 -5.17862 -0.0630401 0
M  V30 5577 H 516.181 -3.60396 -2.10762 0
M  V30 5578 H 517.571 -6.70119 0.488895 0
M  V30 5579 N 520.291 -0.0518155 -1.57515 0
M  V30 5580 C 521.539 0.620595 -1.92336 0
M  V30 5581 C 521.86 1.71345 -0.930907 0
M  V30 5582 O 521.13 1.95885 0.0241341 0
M  V30 5583 H 519.71 0.232226 -0.709986 0
M  V30 5584 H 522.372 -0.104969 -1.94617 0
M  V30 5585 H 521.468 1.05879 -2.93592 0
M  V30 5586 N 521.769 1.56035 0.221574 0
M  V30 5587 C 523.015 1.79312 0.947372 0
M  V30 5588 C 523.348 0.621453 1.83988 0
M  V30 5589 O 522.623 -0.379287 1.90766 0
M  V30 5590 C 522.906 3.1267 1.78633 0
M  V30 5591 C 522.759 4.40284 0.920312 0
M  V30 5592 C 524.078 3.4247 2.7641 0
M  V30 5593 H 521.197 0.652328 0.342982 0
M  V30 5594 H 523.839 1.88765 0.216244 0
M  V30 5595 H 521.989 3.04741 2.40967 0
M  V30 5596 H 523.661 4.60232 0.313718 0
M  V30 5597 H 521.904 4.33212 0.225734 0
M  V30 5598 H 522.575 5.30033 1.54171 0
M  V30 5599 H 525.051 3.50526 2.24211 0
M  V30 5600 H 523.927 4.3695 3.32213 0
M  V30 5601 H 524.188 2.64635 3.54148 0
M  V30 5602 N 523.247 -0.488276 1.49845 0
M  V30 5603 C 524.663 -0.820566 1.3689 0
M  V30 5604 C 524.863 -1.97248 0.411752 0
M  V30 5605 O 523.919 -2.52042 -0.151931 0
M  V30 5606 C 525.232 -1.1488 2.77891 0
M  V30 5607 C 526.78 -1.25626 2.86683 0
M  V30 5608 C 527.255 -1.61772 4.28479 0
M  V30 5609 N 528.746 -1.68797 4.31349 0
M  V30 5610 C 529.481 -1.98235 5.38043 0
M  V30 5611 N 528.977 -2.2581 6.54967 0
M  V30 5612 N 530.77 -1.99593 5.2547 0
M  V30 5613 H 522.921 0.271123 2.10662 0
M  V30 5614 H 525.184 0.058735 0.946179 0
M  V30 5615 H 524.89 -0.375614 3.49688 0
M  V30 5616 H 524.764 -2.08919 3.14058 0
M  V30 5617 H 527.151 -2.02014 2.15114 0
M  V30 5618 H 527.232 -0.296072 2.54081 0
M  V30 5619 H 526.876 -0.859295 5.00578 0
M  V30 5620 H 526.806 -2.58912 4.58554 0
M  V30 5621 H 529.297 -1.49595 3.4703 0
M  V30 5622 H 529.61 -2.47497 7.32096 0
M  V30 5623 H 527.955 -2.23239 6.58171 0
M  V30 5624 H 531.146 -1.77535 4.33127 0
M  V30 5625 H 531.319 -2.222 6.08713 0
M  V30 5626 N 524.725 -1.39134 -0.740242 0
M  V30 5627 C 525.974 -1.35384 -1.49512 0
M  V30 5628 C 526.287 0.04919 -1.95538 0
M  V30 5629 O 527.493 0.209257 -2.70692 0
M  V30 5630 C 525.949 -2.37812 -2.70136 0
M  V30 5631 C 525.557 -3.83804 -2.31081 0
M  V30 5632 C 527.301 -2.4313 -3.47977 0
M  V30 5633 C 525.208 -4.77886 -3.48395 0
M  V30 5634 H 524.138 -0.503297 -0.561434 0
M  V30 5635 H 526.789 -1.64754 -0.807974 0
M  V30 5636 H 525.171 -2.01505 -3.40899 0
M  V30 5637 H 526.345 -4.29123 -1.67898 0
M  V30 5638 H 524.66 -3.81732 -1.66343 0
M  V30 5639 H 527.257 -3.10614 -4.35228 0
M  V30 5640 H 527.6 -1.45423 -3.90074 0
M  V30 5641 H 528.133 -2.78304 -2.84239 0
M  V30 5642 H 524.872 -5.76836 -3.11353 0
M  V30 5643 H 524.392 -4.3725 -4.10576 0
M  V30 5644 H 526.071 -4.96538 -4.148 0
M  V30 5645 N 526.204 0.969867 -1.24223 0
M  V30 5646 C 527.429 1.75289 -1.10853 0
M  V30 5647 C 527.854 1.85091 0.335079 0
M  V30 5648 O 527.212 1.32024 1.24255 0
M  V30 5649 C 527.26 3.15255 -1.75062 0
M  V30 5650 O 526.364 3.99589 -1.01992 0
M  V30 5651 H 525.705 0.538904 -0.387915 0
M  V30 5652 H 528.235 1.21675 -1.64488 0
M  V30 5653 H 528.245 3.65787 -1.80731 0
M  V30 5654 H 526.92 3.07436 -2.801 0
M  V30 5655 H 525.497 3.58077 -1.04094 0
M  V30 5656 N 527.682 1.05563 1.17022 0
M  V30 5657 C 528.959 0.68165 1.83338 0
M  V30 5658 C 529.339 -0.837665 1.93769 0
M  V30 5659 O 528.687 -1.74507 1.47511 0
M  V30 5660 C 528.897 1.375 3.20772 0
M  V30 5661 C 530.245 1.51545 3.96635 0
M  V30 5662 O 531.269 1.33431 3.30264 0
M  V30 5663 O 530.128 1.812 5.15586 0
M  V30 5664 H 527.222 0.240412 0.791285 0
M  V30 5665 H 529.768 1.15545 1.24288 0
M  V30 5666 H 528.54 2.41135 3.08171 0
M  V30 5667 H 528.163 0.890798 3.87493 0
M  V30 5668 N 529.16 -1.33526 0.837174 0
M  V30 5669 C 530.385 -2.0258 0.444545 0
M  V30 5670 C 530.81 -1.6258 -0.946006 0
M  V30 5671 O 530.168 -0.817548 -1.6182 0
M  V30 5672 C 530.216 -3.5605 0.571006 0
M  V30 5673 O 529.32 -4.10422 -0.403431 0
M  V30 5674 H 528.661 -0.638866 0.180958 0
M  V30 5675 H 531.191 -1.70462 1.13154 0
M  V30 5676 H 531.201 -4.05488 0.452024 0
M  V30 5677 H 529.876 -3.84509 1.58512 0
M  V30 5678 H 528.453 -3.72113 -0.242147 0
M  V30 5679 N 530.638 -0.59345 -1.46 0
M  V30 5680 C 531.601 0.123538 -2.28867 0
M  V30 5681 C 532.601 0.808628 -1.38989 0
M  V30 5682 O 533.791 0.658945 -1.61256 0
M  V30 5683 C 530.923 1.1847 -3.19653 0
M  V30 5684 H 532.116 -0.604843 -2.93737 0
M  V30 5685 H 529.669 -0.351875 -1.52288 0
M  V30 5686 H 530.404 1.94431 -2.59552 0
M  V30 5687 H 530.189 0.69783 -3.8584 0
M  V30 5688 H 531.679 1.68726 -3.81997 0
M  V30 5689 N 532.116 1.54067 -0.331816 0
M  V30 5690 C 533.365 1.99895 0.269209 0
M  V30 5691 C 533.678 1.22371 1.52593 0
M  V30 5692 O 534.884 1.58618 2.20347 0
M  V30 5693 C 533.34 3.55972 0.530244 0
M  V30 5694 C 532.948 4.4234 -0.709901 0
M  V30 5695 C 534.692 4.10247 1.09077 0
M  V30 5696 C 532.599 5.89905 -0.420312 0
M  V30 5697 H 531.529 0.746741 0.104371 0
M  V30 5698 H 534.18 1.78014 -0.445324 0
M  V30 5699 H 532.562 3.73873 1.30518 0
M  V30 5700 H 533.736 4.36215 -1.48504 0
M  V30 5701 H 532.051 3.98997 -1.19123 0
M  V30 5702 H 534.648 5.18095 1.32219 0
M  V30 5703 H 534.991 3.62739 2.0427 0
M  V30 5704 H 535.524 3.96011 0.376824 0
M  V30 5705 H 532.263 6.41623 -1.34164 0
M  V30 5706 H 531.783 5.98962 0.316962 0
M  V30 5707 H 533.462 6.46991 -0.0331956 0
M  V30 5708 N 533.594 0.0601682 1.57485 0
M  V30 5709 C 534.843 -0.611101 1.9222 0
M  V30 5710 C 535.156 -1.71469 0.941159 0
M  V30 5711 O 536.362 -2.44473 1.18089 0
M  V30 5712 C 534.818 -1.13832 3.41424 0
M  V30 5713 C 534.426 -0.0663596 4.47951 0
M  V30 5714 C 536.17 -1.78432 3.85178 0
M  V30 5715 C 534.077 -0.606965 5.88277 0
M  V30 5716 H 533.007 -0.232033 0.71741 0
M  V30 5717 H 535.658 0.130518 1.83035 0
M  V30 5718 H 534.04 -1.93254 3.45643 0
M  V30 5719 H 535.214 0.707682 4.55333 0
M  V30 5720 H 533.529 0.482715 4.13593 0
M  V30 5721 H 536.126 -2.1989 4.87394 0
M  V30 5722 H 536.469 -2.63966 3.21913 0
M  V30 5723 H 537.002 -1.05651 3.83514 0
M  V30 5724 H 533.741 0.21095 6.5516 0
M  V30 5725 H 533.261 -1.34879 5.84438 0
M  V30 5726 H 534.94 -1.08704 6.37803 0
M  V30 5727 N 535.072 -1.5615 -0.213296 0
M  V30 5728 C 536.035 -1.92249 -1.24792 0
M  V30 5729 C 537.035 -0.801828 -1.39382 0
M  V30 5730 O 538.225 -1.06948 -1.37506 0
M  V30 5731 C 535.357 -2.18056 -2.62039 0
M  V30 5732 H 536.55 -2.84793 -0.939845 0
M  V30 5733 H 534.103 -1.49559 -0.454062 0
M  V30 5734 H 534.838 -1.2809 -2.97932 0
M  V30 5735 H 534.623 -2.99703 -2.52825 0
M  V30 5736 H 536.113 -2.47051 -3.36683 0
M  V30 5737 N 536.55 0.480323 -1.50102 0
M  V30 5738 C 537.513 1.56181 -1.6775 0
M  V30 5739 C 538.513 1.51156 -0.548503 0
M  V30 5740 O 539.703 1.5394 -0.815363 0
M  V30 5741 C 536.835 2.95823 -1.69415 0
M  V30 5742 H 538.028 1.41855 -2.6423 0
M  V30 5743 H 535.581 0.70605 -1.39444 0
M  V30 5744 H 536.316 3.15604 -0.745948 0
M  V30 5745 H 536.101 3.00878 -2.51425 0
M  V30 5746 H 537.591 3.74359 -1.85054 0
M  V30 5747 N 538.028 1.39524 0.732853 0
M  V30 5748 C 538.991 1.38189 1.82857 0
M  V30 5749 C 539.991 0.278624 1.58368 0
M  V30 5750 O 541.181 0.536639 1.65728 0
M  V30 5751 C 538.313 1.15661 3.2068 0
M  V30 5752 H 539.506 2.35692 1.85444 0
M  V30 5753 H 537.059 1.2512 0.936728 0
M  V30 5754 H 537.794 0.188482 3.23752 0
M  V30 5755 H 537.579 1.95559 3.39852 0
M  V30 5756 H 539.069 1.17472 4.00737 0
M  V30 5757 N 539.506 -0.963266 1.24736 0
M  V30 5758 C 540.734 -1.74166 1.11686 0
M  V30 5759 C 541.149 -1.8589 -0.330187 0
M  V30 5760 O 540.506 -1.35042 -1.2276 0
M  V30 5761 C 540.557 -3.15989 1.75595 0
M  V30 5762 O 540.278 -3.04847 3.14642 0
M  V30 5763 C 541.779 -4.10145 1.68213 0
M  V30 5764 H 538.999 -0.546031 0.389989 0
M  V30 5765 H 541.543 -1.20907 1.64929 0
M  V30 5766 H 539.698 -3.66219 1.26343 0
M  V30 5767 H 540.112 -3.9425 3.4593 0
M  V30 5768 H 541.586 -5.07299 2.17604 0
M  V30 5769 H 542.063 -4.3445 0.644208 0
M  V30 5770 H 542.669 -3.65827 2.16912 0
M  V30 5771 N 540.985 -1.06182 -1.16461 0
M  V30 5772 C 541.915 -0.692861 -2.22984 0
M  V30 5773 C 542.896 0.314122 -1.67174 0
M  V30 5774 O 544.081 0.189499 -1.93273 0
M  V30 5775 C 541.211 -0.07732 -3.47214 0
M  V30 5776 C 540.165 -1.01015 -4.15909 0
M  V30 5777 C 539.491 -0.257973 -5.34077 0
M  V30 5778 C 540.791 -2.33868 -4.67015 0
M  V30 5779 H 542.485 -1.58343 -2.54102 0
M  V30 5780 H 540.031 -0.76279 -1.22137 0
M  V30 5781 H 541.984 0.19266 -4.20959 0
M  V30 5782 H 540.708 0.848254 -3.15392 0
M  V30 5783 H 539.367 -1.26486 -3.44088 0
M  V30 5784 H 539.015 0.670684 -4.98509 0
M  V30 5785 H 538.715 -0.879638 -5.80979 0
M  V30 5786 H 540.239 0.00448788 -6.106 0
M  V30 5787 H 541.653 -2.1279 -5.32347 0
M  V30 5788 H 540.05 -2.91522 -5.24533 0
M  V30 5789 H 541.12 -2.97019 -3.83286 0
M  V30 5790 N 542.463 1.3308 -0.844243 0
M  V30 5791 C 543.688 2.02341 -0.455282 0
M  V30 5792 C 544.113 1.6308 0.93737 0
M  V30 5793 O 543.471 0.826118 1.61385 0
M  V30 5794 C 543.519 3.55743 -0.58988 0
M  V30 5795 O 542.623 4.1063 0.38166 0
M  V30 5796 H 541.964 0.637898 -0.184343 0
M  V30 5797 H 544.494 1.6986 -1.14056 0
M  V30 5798 H 544.504 4.05243 -0.473522 0
M  V30 5799 H 543.179 3.83662 -1.60549 0
M  V30 5800 H 541.756 3.72236 0.22241 0
M  V30 5801 N 543.941 0.601185 1.45683 0
M  V30 5802 C 544.891 -0.142686 2.27553 0
M  V30 5803 C 545.875 -0.844598 1.3695 0
M  V30 5804 O 547.067 -0.735644 1.60988 0
M  V30 5805 C 544.196 -1.14364 3.23691 0
M  V30 5806 C 543.282 -0.442894 4.21781 0
M  V30 5807 N 543.673 0.51189 5.03203 0
M  V30 5808 C 541.971 -0.691277 4.4061 0
M  V30 5809 C 542.672 0.92318 5.74328 0
M  V30 5810 N 541.648 0.268308 5.42937 0
M  V30 5811 H 545.45 0.590736 2.87902 0
M  V30 5812 H 542.964 0.424365 1.56757 0
M  V30 5813 H 544.961 -1.6909 3.8107 0
M  V30 5814 H 543.621 -1.87768 2.64902 0
M  V30 5815 H 544.632 0.888329 5.10225 0
M  V30 5816 H 541.309 -1.41049 3.92952 0
M  V30 5817 H 542.699 1.71029 6.49768 0
M  V30 5818 N 545.419 -1.53889 0.339982 0
M  V30 5819 C 546.835 -1.59595 -0.0120752 0
M  V30 5820 C 547.035 -1.35605 -1.49042 0
M  V30 5821 O 546.091 -1.14856 -2.24865 0
M  V30 5822 C 547.404 -2.9774 0.420898 0
M  V30 5823 C 548.952 -3.1077 0.37294 0
M  V30 5824 C 549.427 -4.51286 0.781327 0
M  V30 5825 N 550.918 -4.57325 0.735374 0
M  V30 5826 C 551.653 -5.64194 1.02336 0
M  V30 5827 N 551.149 -6.7893 1.37933 0
M  V30 5828 N 552.942 -5.54051 0.947838 0
M  V30 5829 H 545.093 -1.67738 1.30299 0
M  V30 5830 H 547.356 -0.785385 0.530918 0
M  V30 5831 H 547.062 -3.20349 1.45152 0
M  V30 5832 H 546.936 -3.76639 -0.205721 0
M  V30 5833 H 549.323 -2.87886 -0.648505 0
M  V30 5834 H 549.404 -2.33939 1.03472 0
M  V30 5835 H 549.048 -4.74905 1.80077 0
M  V30 5836 H 548.978 -5.26511 0.0970679 0
M  V30 5837 H 551.469 -3.74931 0.472773 0
M  V30 5838 H 551.782 -7.56392 1.58402 0
M  V30 5839 H 550.127 -6.80386 1.41774 0
M  V30 5840 H 553.318 -4.63293 0.669115 0
M  V30 5841 H 553.491 -6.37246 1.17563 0
M  V30 5842 N 546.897 -0.0685191 -1.57451 0
M  V30 5843 C 548.127 0.609577 -1.97402 0
M  V30 5844 C 548.535 1.63882 -0.945489 0
M  V30 5845 O 547.878 1.8354 0.0766052 0
M  V30 5846 C 547.94 1.3385 -3.33653 0
M  V30 5847 C 547.604 0.463103 -4.54648 0
M  V30 5848 C 548.601 -0.277964 -5.19156 0
M  V30 5849 C 546.286 0.388941 -5.00792 0
M  V30 5850 C 548.28 -1.08145 -6.28159 0
M  V30 5851 C 545.967 -0.418217 -6.09667 0
M  V30 5852 C 546.965 -1.15208 -6.73213 0
M  V30 5853 O 546.653 -1.94594 -7.79993 0
M  V30 5854 H 546.385 0.170197 -0.654224 0
M  V30 5855 H 548.939 -0.13647 -2.04946 0
M  V30 5856 H 547.169 2.13055 -3.22714 0
M  V30 5857 H 548.858 1.90851 -3.58233 0
M  V30 5858 H 549.624 -0.230241 -4.84453 0
M  V30 5859 H 545.503 0.949769 -4.5111 0
M  V30 5860 H 549.047 -1.65476 -6.7769 0
M  V30 5861 H 544.944 -0.467515 -6.43805 0
M  V30 5862 H 545.712 -1.8699 -7.96854 0
M  V30 5863 N 548.375 1.56261 0.205012 0
M  V30 5864 C 549.624 1.79236 0.925058 0
M  V30 5865 C 549.937 0.640011 1.84833 0
M  V30 5866 O 551.143 0.753809 2.60826 0
M  V30 5867 C 549.599 3.17475 1.69522 0
M  V30 5868 C 549.207 4.40482 0.817269 0
M  V30 5869 C 550.951 3.49766 2.4055 0
M  V30 5870 C 548.858 5.69744 1.58573 0
M  V30 5871 H 547.788 0.668287 0.349153 0
M  V30 5872 H 550.439 1.82629 0.178544 0
M  V30 5873 H 548.821 3.08304 2.48526 0
M  V30 5874 H 549.995 4.60752 0.0665988 0
M  V30 5875 H 548.31 4.15827 0.218316 0
M  V30 5876 H 550.907 4.43573 2.98575 0
M  V30 5877 H 551.25 2.73041 3.14252 0
M  V30 5878 H 551.783 3.60341 1.68522 0
M  V30 5879 H 548.522 6.49407 0.891679 0
M  V30 5880 H 548.042 5.53509 2.31059 0
M  V30 5881 H 549.721 6.1051 2.14212 0
M  V30 5882 N 549.853 -0.472356 1.50355 0
M  V30 5883 C 551.081 -1.24784 1.65035 0
M  V30 5884 C 551.496 -1.85837 0.333176 0
M  V30 5885 O 550.853 -1.69168 -0.68472 0
M  V30 5886 C 550.904 -2.35747 2.74054 0
M  V30 5887 O 550.625 -1.77197 4.00665 0
M  V30 5888 C 552.126 -3.26645 2.99696 0
M  V30 5889 H 549.346 -0.377432 0.554785 0
M  V30 5890 H 551.89 -0.563962 1.9657 0
M  V30 5891 H 550.045 -2.99912 2.45217 0
M  V30 5892 H 550.459 -2.5026 4.60945 0
M  V30 5893 H 551.933 -4.00718 3.79644 0
M  V30 5894 H 552.41 -3.8535 2.10718 0
M  V30 5895 H 553.016 -2.68218 3.3006 0
M  V30 5896 N 551.331 -1.39911 -0.725443 0
M  V30 5897 C 552.241 -1.41688 -1.8698 0
M  V30 5898 C 553.257 -0.310579 -1.71206 0
M  V30 5899 O 554.433 -0.55359 -1.93642 0
M  V30 5900 C 551.498 -1.26811 -3.22676 0
M  V30 5901 C 550.559 -2.47497 -3.50776 0
M  V30 5902 C 549.792 -2.3332 -4.79997 0
M  V30 5903 O 550.015 -1.34175 -5.54394 0
M  V30 5904 O 548.949 -3.22498 -5.08211 0
M  V30 5905 H 552.775 -2.38171 -1.88436 0
M  V30 5906 H 550.36 -1.21128 -0.874548 0
M  V30 5907 H 552.242 -1.20684 -4.03749 0
M  V30 5908 H 550.917 -0.334289 -3.21969 0
M  V30 5909 H 549.824 -2.59201 -2.69751 0
M  V30 5910 H 551.157 -3.39606 -3.5627 0
M  V30 5911 N 552.809 0.956637 -1.25245 0
M  V30 5912 C 554.225 1.22733 -1.02023 0
M  V30 5913 C 554.425 1.99761 0.264186 0
M  V30 5914 O 553.481 2.32814 0.977436 0
M  V30 5915 C 554.794 2.00367 -2.24217 0
M  V30 5916 C 556.342 2.13418 -2.28958 0
M  V30 5917 C 556.817 2.9445 -3.50803 0
M  V30 5918 N 558.308 3.02029 -3.51187 0
M  V30 5919 C 559.043 3.65116 -4.42129 0
M  V30 5920 N 558.539 4.2983 -5.43339 0
M  V30 5921 N 560.332 3.62237 -4.29815 0
M  V30 5922 H 552.483 0.441282 -2.07765 0
M  V30 5923 H 554.746 0.257686 -0.912306 0
M  V30 5924 H 554.452 1.51165 -3.17556 0
M  V30 5925 H 554.326 3.01077 -2.27228 0
M  V30 5926 H 556.713 2.61819 -1.36143 0
M  V30 5927 H 556.794 1.1202 -2.29968 0
M  V30 5928 H 556.438 2.46741 -4.43939 0
M  V30 5929 H 556.368 3.9607 -3.47039 0
M  V30 5930 H 558.859 2.56007 -2.77973 0
M  V30 5931 H 559.172 4.75819 -6.08947 0
M  V30 5932 H 557.517 4.28465 -5.47214 0
M  V30 5933 H 560.708 3.10863 -3.49974 0
M  V30 5934 H 560.881 4.11117 -5.00886 0
M  V30 5935 N 554.287 1.06798 1.15896 0
M  V30 5936 C 555.703 0.792423 1.38538 0
M  V30 5937 C 555.903 -0.60592 1.92174 0
M  V30 5938 O 554.959 -1.36561 2.12385 0
M  V30 5939 C 556.272 1.86157 2.36149 0
M  V30 5940 C 557.82 1.88567 2.49823 0
M  V30 5941 C 558.295 2.9455 3.5072 0
M  V30 5942 N 559.786 2.93616 3.58251 0
M  V30 5943 C 560.521 3.72267 4.36125 0
M  V30 5944 N 560.017 4.60751 5.17379 0
M  V30 5945 N 561.81 3.60637 4.31158 0
M  V30 5946 H 553.961 1.96993 0.794198 0
M  V30 5947 H 556.224 0.853942 0.411688 0
M  V30 5948 H 555.93 2.86603 2.03843 0
M  V30 5949 H 555.804 1.71692 3.3586 0
M  V30 5950 H 558.191 0.887765 2.8143 0
M  V30 5951 H 558.272 2.0711 1.5013 0
M  V30 5952 H 557.916 3.94537 3.19849 0
M  V30 5953 H 557.846 2.73255 4.50155 0
M  V30 5954 H 560.337 2.29472 3.00252 0
M  V30 5955 H 560.65 5.17408 5.74028 0
M  V30 5956 H 558.995 4.64803 5.16704 0
M  V30 5957 H 562.186 2.90892 3.66742 0
M  V30 5958 H 562.359 4.22176 4.91601 0
M  V30 5959 N 555.766 -1.3263 0.851289 0
M  V30 5960 C 556.696 -2.31449 0.308771 0
M  V30 5961 C 557.677 -1.59531 -0.590255 0
M  V30 5962 O 558.862 -1.87351 -0.511205 0
M  V30 5963 C 555.992 -3.43586 -0.506548 0
M  V30 5964 C 554.946 -4.26963 0.297753 0
M  V30 5965 C 554.272 -5.30831 -0.642094 0
M  V30 5966 C 555.572 -4.99643 1.52166 0
M  V30 5967 H 557.266 -2.77074 1.13447 0
M  V30 5968 H 554.812 -1.33207 0.546971 0
M  V30 5969 H 556.765 -4.11754 -0.896474 0
M  V30 5970 H 555.489 -2.96681 -1.36558 0
M  V30 5971 H 554.148 -3.60437 0.669391 0
M  V30 5972 H 553.796 -4.8018 -1.49788 0
M  V30 5973 H 553.496 -5.87501 -0.107968 0
M  V30 5974 H 555.02 -6.01862 -1.02927 0
M  V30 5975 H 556.434 -5.6051 1.20421 0
M  V30 5976 H 554.831 -5.66022 1.99347 0
M  V30 5977 H 555.901 -4.27701 2.28474 0
M  V30 5978 N 557.244 -0.608902 -1.45362 0
M  V30 5979 C 558.655 -0.189511 -1.85736 0
M  V30 5980 C 559.006 1.2539 -1.50903 0
M  V30 5981 O 558.131 1.95094 -0.936347 0
M  V30 5982 C 558.726 -0.33716 -3.37118 0
M  V30 5983 C 557.285 0.0275487 -3.7639 0
M  V30 5984 C 556.432 -0.660983 -2.69307 0
M  V30 5985 H 559.383 -0.815499 -1.36144 0
M  V30 5986 H 559.404 0.430257 -3.7806 0
M  V30 5987 H 558.916 -1.38779 -3.62439 0
M  V30 5988 H 557.017 1.0773 -3.56686 0
M  V30 5989 H 557.13 -0.367018 -4.77692 0
M  V30 5990 H 555.494 -0.0984958 -2.54509 0
M  V30 5991 H 556.277 -1.71377 -2.97464 0
M  V30 5992 N 558.722 1.53707 -0.348139 0
M  V30 5993 C 559.999 1.93247 0.302475 0
M  V30 5994 C 560.379 1.28012 1.67857 0
M  V30 5995 O 559.727 0.43274 2.24365 0
M  V30 5996 C 559.937 3.47031 0.370159 0
M  V30 5997 C 561.285 4.20066 0.61882 0
M  V30 5998 O 562.309 3.53319 0.452087 0
M  V30 5999 O 561.168 5.38318 0.94215 0
M  V30 6000 H 558.262 0.807736 0.177458 0
M  V30 6001 H 560.808 1.64927 -0.399651 0
M  V30 6002 H 559.58 3.86745 -0.59534 0
M  V30 6003 H 559.203 3.81532 1.11888 0
M  V30 6004 N 560.2 0.0768682 1.57412 0
M  V30 6005 C 561.147 -0.888577 2.13009 0
M  V30 6006 C 562.117 -1.29198 1.0439 0
M  V30 6007 O 563.302 -1.37694 1.3208 0
M  V30 6008 C 560.442 -2.14899 2.70023 0
M  V30 6009 C 559.555 -1.79777 3.92816 0
M  V30 6010 C 558.69 -3.00467 4.38056 0
M  V30 6011 C 557.729 -2.61385 5.53484 0
M  V30 6012 N 556.866 -3.74851 5.93659 0
M  V30 6013 H 561.706 -0.407593 2.95199 0
M  V30 6014 H 559.243 -0.189534 1.45874 0
M  V30 6015 H 561.201 -2.88688 3.0119 0
M  V30 6016 H 559.831 -2.60529 1.9059 0
M  V30 6017 H 558.883 -0.960301 3.68079 0
M  V30 6018 H 560.195 -1.47027 4.76639 0
M  V30 6019 H 559.349 -3.82529 4.7091 0
M  V30 6020 H 558.088 -3.36413 3.53097 0
M  V30 6021 H 557.093 -1.77746 5.20275 0
M  V30 6022 H 558.318 -2.26603 6.40178 0
M  V30 6023 H 556.264 -4.1055 5.11649 0
M  V30 6024 H 556.181 -3.45887 6.72234 0
M  V30 6025 H 557.449 -4.57477 6.31138 0
M  V30 6026 N 561.678 -1.56367 -0.196722 0
M  V30 6027 C 562.641 -1.93561 -1.22746 0
M  V30 6028 C 563.641 -0.816566 -1.38524 0
M  V30 6029 O 564.831 -1.084 -1.36363 0
M  V30 6030 C 561.963 -2.20823 -2.59712 0
M  V30 6031 H 563.156 -2.85774 -0.909586 0
M  V30 6032 H 560.709 -1.50032 -0.438174 0
M  V30 6033 H 561.444 -1.31243 -2.96557 0
M  V30 6034 H 561.229 -3.02368 -2.49632 0
M  V30 6035 H 562.719 -2.50608 -3.34044 0
M  V30 6036 N 563.156 0.464375 -1.50603 0
M  V30 6037 C 564.405 1.21277 -1.61167 0
M  V30 6038 C 564.718 1.92953 -0.320704 0
M  V30 6039 O 565.924 2.69778 -0.30534 0
M  V30 6040 C 564.38 2.20403 -2.84518 0
M  V30 6041 C 563.988 1.54499 -4.20516 0
M  V30 6042 C 565.732 2.95843 -3.0443 0
M  V30 6043 C 563.639 2.51951 -5.35047 0
M  V30 6044 H 562.569 0.456367 -0.600204 0
M  V30 6045 H 565.22 0.48254 -1.77042 0
M  V30 6046 H 563.602 2.96746 -2.62217 0
M  V30 6047 H 564.776 0.83899 -4.53098 0
M  V30 6048 H 563.091 0.913152 -4.06264 0
M  V30 6049 H 565.688 3.6879 -3.87167 0
M  V30 6050 H 566.031 3.55622 -2.16423 0
M  V30 6051 H 566.564 2.26611 -3.26944 0
M  V30 6052 H 563.303 1.96901 -6.25228 0
M  V30 6053 H 562.823 3.20683 -5.06875 0
M  V30 6054 H 564.502 3.13643 -5.65895 0
M  V30 6055 N 564.634 1.40294 0.718013 0
M  V30 6056 C 565.911 1.2894 1.47084 0
M  V30 6057 C 566.291 -0.0933625 2.10893 0
M  V30 6058 O 565.639 -1.10598 1.99951 0
M  V30 6059 C 565.849 2.4264 2.50852 0
M  V30 6060 C 567.197 2.8276 3.16752 0
M  V30 6061 O 568.221 2.42215 2.61171 0
M  V30 6062 O 567.08 3.528 4.17366 0
M  V30 6063 H 564.174 0.506236 0.653952 0
M  V30 6064 H 566.72 1.52208 0.750394 0
M  V30 6065 H 565.492 3.35009 2.022 0
M  V30 6066 H 565.115 2.21129 3.30435 0
M  V30 6067 N 566.112 -0.949982 1.2575 0
M  V30 6068 C 567.042 -2.06483 1.09028 0
M  V30 6069 C 568.023 -1.701 -0.00201532 0
M  V30 6070 O 569.208 -1.93469 0.168383 0
M  V30 6071 C 566.338 -3.39899 0.71316 0
M  V30 6072 C 565.292 -3.90309 1.75621 0
M  V30 6073 C 564.618 -5.20274 1.23365 0
M  V30 6074 C 565.918 -4.16169 3.15596 0
M  V30 6075 H 567.612 -2.20731 2.02283 0
M  V30 6076 H 565.158 -1.06066 0.973964 0
M  V30 6077 H 567.111 -4.17346 0.58309 0
M  V30 6078 H 565.835 -3.25602 -0.255091 0
M  V30 6079 H 564.494 -3.15035 1.8748 0
M  V30 6080 H 564.142 -5.02351 0.255491 0
M  V30 6081 H 563.842 -5.54971 1.93082 0
M  V30 6082 H 565.366 -6.00314 1.11607 0
M  V30 6083 H 566.78 -4.84259 3.06864 0
M  V30 6084 H 565.177 -4.62131 3.82825 0
M  V30 6085 H 566.247 -3.22273 3.6231 0
M  V30 6086 N 567.59 -1.07411 -1.15328 0
M  V30 6087 C 568.839 -0.792643 -1.85473 0
M  V30 6088 C 569.152 0.683789 -1.83259 0
M  V30 6089 O 570.358 1.08005 -2.49093 0
M  V30 6090 C 568.814 -1.36787 -3.32892 0
M  V30 6091 C 568.422 -2.87536 -3.43551 0
M  V30 6092 C 570.166 -1.16444 -4.08217 0
M  V30 6093 C 568.073 -3.38247 -4.85122 0
M  V30 6094 H 567.003 -0.292838 -0.694811 0
M  V30 6095 H 569.654 -1.29426 -1.30082 0
M  V30 6096 H 568.036 -0.793993 -3.87958 0
M  V30 6097 H 569.21 -3.50973 -2.98588 0
M  V30 6098 H 567.525 -3.06676 -2.81672 0
M  V30 6099 H 570.122 -1.51808 -5.12697 0
M  V30 6100 H 570.465 -0.10353 -4.16171 0
M  V30 6101 H 570.998 -1.70472 -3.59422 0
M  V30 6102 H 567.737 -4.43866 -4.82351 0
M  V30 6103 H 567.257 -2.79564 -5.30664 0
M  V30 6104 H 568.936 -3.34238 -5.5398 0
M  V30 6105 N 569.068 1.32177 -0.85831 0
M  V30 6106 C 570.345 1.91781 -0.384624 0
M  V30 6107 C 570.725 1.78171 1.13217 0
M  V30 6108 O 570.073 1.18209 1.95548 0
M  V30 6109 C 570.283 3.38414 -0.853047 0
M  V30 6110 C 571.631 4.15542 -0.872359 0
M  V30 6111 O 572.655 3.47148 -0.797926 0
M  V30 6112 O 571.514 5.37678 -0.978009 0
M  V30 6113 H 568.608 0.819259 -0.112886 0
M  V30 6114 H 571.154 1.40923 -0.945453 0
M  V30 6115 H 569.926 3.4228 -1.89632 0
M  V30 6116 H 569.549 3.96683 -0.269874 0
M  V30 6117 N 570.547 0.616602 1.45037 0
M  V30 6118 C 571.457 -0.0985401 2.34393 0
M  V30 6119 C 572.473 -0.850971 1.51771 0
M  V30 6120 O 573.649 -0.806521 1.84546 0
M  V30 6121 C 570.714 -1.07748 3.29532 0
M  V30 6122 C 569.775 -0.326022 4.2806 0
M  V30 6123 C 569.008 -1.25833 5.18654 0
M  V30 6124 O 569.231 -2.49652 5.12864 0
M  V30 6125 O 568.165 -0.750512 5.97203 0
M  V30 6126 H 571.991 0.636016 2.96966 0
M  V30 6127 H 569.576 0.376832 1.44569 0
M  V30 6128 H 571.458 -1.64107 3.88133 0
M  V30 6129 H 570.133 -1.79291 2.69512 0
M  V30 6130 H 569.04 0.280253 3.73049 0
M  V30 6131 H 570.373 0.349091 4.9096 0
M  V30 6132 N 572.025 -1.5352 0.356285 0
M  V30 6133 C 572.988 -2.24071 -0.482182 0
M  V30 6134 C 573.988 -1.24531 -1.01729 0
M  V30 6135 O 575.178 -1.48876 -0.904513 0
M  V30 6136 C 572.31 -2.97025 -1.67299 0
M  V30 6137 H 573.503 -2.99596 0.135031 0
M  V30 6138 H 571.056 -1.55928 0.107825 0
M  V30 6139 H 571.791 -2.25719 -2.32855 0
M  V30 6140 H 571.576 -3.7005 -1.29636 0
M  V30 6141 H 573.066 -3.50683 -2.26741 0
M  V30 6142 N 573.503 -0.0852151 -1.57369 0
M  V30 6143 C 574.466 0.8627 -2.12344 0
M  V30 6144 C 575.466 1.21746 -1.05046 0
M  V30 6145 O 576.656 1.14852 -1.30976 0
M  V30 6146 C 573.788 2.1618 -2.63589 0
M  V30 6147 H 574.981 0.385511 -2.97412 0
M  V30 6148 H 572.534 0.163663 -1.55441 0
M  V30 6149 H 573.269 2.68406 -1.82013 0
M  V30 6150 H 573.054 1.91723 -3.4203 0
M  V30 6151 H 574.544 2.84011 -3.06149 0
M  V30 6152 N 574.981 1.5647 0.188427 0
M  V30 6153 C 575.944 1.9421 1.21718 0
M  V30 6154 C 576.944 0.823901 1.38089 0
M  V30 6155 O 578.134 1.09122 1.35787 0
M  V30 6156 C 575.266 2.22197 2.58537 0
M  V30 6157 H 576.459 2.86252 0.894418 0
M  V30 6158 H 574.012 1.50263 0.430211 0
M  V30 6159 H 574.747 1.32814 2.95856 0
M  V30 6160 H 574.532 3.03688 2.48025 0
M  V30 6161 H 576.022 2.52376 3.3271 0
M  V30 6162 N 576.459 -0.456382 1.50847 0
M  V30 6163 C 577.875 -0.791345 1.386 0
M  V30 6164 C 578.075 -1.9633 0.453498 0
M  V30 6165 O 577.131 -2.52308 -0.0984353 0
M  V30 6166 C 578.444 -1.08959 2.80265 0
M  V30 6167 C 579.992 -1.19517 2.89283 0
M  V30 6168 C 580.467 -1.52647 4.31814 0
M  V30 6169 N 581.958 -1.59609 4.34832 0
M  V30 6170 C 582.693 -1.86777 5.42127 0
M  V30 6171 N 582.189 -2.11866 6.59609 0
M  V30 6172 N 583.982 -1.88402 5.29586 0
M  V30 6173 H 576.133 0.315746 2.1004 0
M  V30 6174 H 578.396 0.0787916 0.94472 0
M  V30 6175 H 578.102 -0.301355 3.50407 0
M  V30 6176 H 577.976 -2.02211 3.18419 0
M  V30 6177 H 580.363 -1.97406 2.19351 0
M  V30 6178 H 580.444 -0.242111 2.54652 0
M  V30 6179 H 580.088 -0.752922 5.02288 0
M  V30 6180 H 580.018 -2.49127 4.63943 0
M  V30 6181 H 582.509 -1.42201 3.50125 0
M  V30 6182 H 582.822 -2.31912 7.37182 0
M  V30 6183 H 581.167 -2.09228 6.62758 0
M  V30 6184 H 584.358 -1.68307 4.36795 0
M  V30 6185 H 584.531 -2.09238 6.13289 0
M  V30 6186 N 577.937 -1.40673 -0.710563 0
M  V30 6187 C 578.867 -1.44095 -1.83736 0
M  V30 6188 C 579.848 -0.301286 -1.67411 0
M  V30 6189 O 581.033 -0.510618 -1.87367 0
M  V30 6190 C 578.163 -1.30773 -3.21738 0
M  V30 6191 C 577.117 -2.42395 -3.52745 0
M  V30 6192 C 576.443 -2.14147 -4.89944 0
M  V30 6193 C 577.743 -3.84738 -3.53234 0
M  V30 6194 H 579.437 -2.38396 -1.81129 0
M  V30 6195 H 576.983 -1.14746 -0.870017 0
M  V30 6196 H 578.936 -1.31783 -4.00264 0
M  V30 6197 H 577.66 -0.329507 -3.24934 0
M  V30 6198 H 576.319 -2.40643 -2.76562 0
M  V30 6199 H 575.967 -1.14703 -4.89747 0
M  V30 6200 H 575.667 -2.88934 -5.11655 0
M  V30 6201 H 577.191 -2.16848 -5.70797 0
M  V30 6202 H 578.605 -3.88286 -4.2179 0
M  V30 6203 H 577.002 -4.59085 -3.86473 0
M  V30 6204 H 578.072 -4.13962 -2.52514 0
M  V30 6205 N 579.415 0.9433 -1.26252 0
M  V30 6206 C 580.831 1.21644 -1.03319 0
M  V30 6207 C 581.031 2.0003 0.242983 0
M  V30 6208 O 580.087 2.33838 0.952688 0
M  V30 6209 C 581.4 1.97978 -2.2633 0
M  V30 6210 C 582.948 2.10978 -2.31209 0
M  V30 6211 C 583.423 2.90713 -3.53907 0
M  V30 6212 N 584.914 2.98287 -3.54371 0
M  V30 6213 C 585.649 3.60406 -4.45976 0
M  V30 6214 N 585.145 4.24043 -5.47868 0
M  V30 6215 N 586.938 3.57658 -4.33633 0
M  V30 6216 H 579.089 0.419221 -2.08222 0
M  V30 6217 H 581.352 0.247995 -0.914988 0
M  V30 6218 H 581.058 1.47788 -3.19142 0
M  V30 6219 H 580.932 2.9865 -2.30408 0
M  V30 6220 H 583.319 2.6036 -1.38913 0
M  V30 6221 H 583.4 1.09575 -2.31143 0
M  V30 6222 H 583.044 2.42018 -4.46531 0
M  V30 6223 H 582.974 3.92367 -3.5122 0
M  V30 6224 H 585.465 2.53044 -2.80673 0
M  V30 6225 H 585.778 4.69334 -6.13959 0
M  V30 6226 H 584.123 4.22637 -5.51728 0
M  V30 6227 H 587.314 3.07134 -3.53251 0
M  V30 6228 H 587.487 4.05782 -5.05218 0
M  V30 6229 N 580.893 1.08022 1.14757 0
M  V30 6230 C 581.826 0.650738 2.18725 0
M  V30 6231 C 582.804 -0.335496 1.59101 0
M  V30 6232 O 583.988 -0.240295 1.86962 0
M  V30 6233 C 581.115 -0.0434377 3.38672 0
M  V30 6234 C 580.161 0.90232 4.16846 0
M  V30 6235 S 580.994 2.40693 4.78359 0
M  V30 6236 C 582.15 1.72475 6.01667 0
M  V30 6237 H 582.383 1.53152 2.54817 0
M  V30 6238 H 579.916 0.894823 1.25826 0
M  V30 6239 H 581.874 -0.437684 4.0816 0
M  V30 6240 H 580.535 -0.900659 3.0091 0
M  V30 6241 H 579.728 0.363445 5.02688 0
M  V30 6242 H 579.33 1.23728 3.52941 0
M  V30 6243 H 581.622 1.0404 6.69464 0
M  V30 6244 H 582.565 2.56175 6.60136 0
M  V30 6245 H 582.973 1.19979 5.51602 0
M  V30 6246 N 582.371 -1.3172 0.865308 0
M  V30 6247 C 583.334 -2.26918 0.322627 0
M  V30 6248 C 584.334 -1.52031 -0.523751 0
M  V30 6249 O 585.524 -1.70973 -0.333727 0
M  V30 6250 C 582.656 -3.36558 -0.542338 0
M  V30 6251 H 583.849 -2.76432 1.16298 0
M  V30 6252 H 581.402 -1.42573 0.640512 0
M  V30 6253 H 582.137 -2.92329 -1.40407 0
M  V30 6254 H 581.922 -3.92048 0.0636395 0
M  V30 6255 H 583.412 -4.07465 -0.91446 0
M  V30 6256 N 583.85 -0.624285 -1.44708 0
M  V30 6257 C 584.779 0.0717025 -2.3339 0
M  V30 6258 C 585.76 0.841814 -1.47809 0
M  V30 6259 O 586.946 0.809056 -1.76544 0
M  V30 6260 C 584.076 1.05852 -3.30776 0
M  V30 6261 C 583.029 0.400503 -4.26122 0
M  V30 6262 C 582.356 1.49674 -5.13324 0
M  V30 6263 C 583.656 -0.688924 -5.17737 0
M  V30 6264 H 585.35 -0.668819 -2.91834 0
M  V30 6265 H 582.896 -0.32308 -1.40329 0
M  V30 6266 H 584.849 1.5541 -3.91696 0
M  V30 6267 H 583.572 1.82984 -2.70526 0
M  V30 6268 H 582.231 -0.0743687 -3.66525 0
M  V30 6269 H 581.88 2.25877 -4.49431 0
M  V30 6270 H 581.58 1.06188 -5.77926 0
M  V30 6271 H 583.104 1.99427 -5.77115 0
M  V30 6272 H 584.518 -0.276724 -5.72632 0
M  V30 6273 H 582.915 -1.04652 -5.90904 0
M  V30 6274 H 583.985 -1.55884 -4.5916 0
M  V30 6275 N 585.328 1.53329 -0.364422 0
M  V30 6276 C 586.238 2.29414 0.490552 0
M  V30 6277 C 587.254 1.35335 1.09363 0
M  V30 6278 O 588.43 1.68391 1.10483 0
M  V30 6279 C 585.495 3.06772 1.61529 0
M  V30 6280 C 584.556 4.16516 1.03986 0
M  V30 6281 C 583.789 4.90176 2.111 0
M  V30 6282 O 584.012 4.63687 3.32191 0
M  V30 6283 O 582.946 5.76134 1.74222 0
M  V30 6284 H 586.772 3.03428 -0.12856 0
M  V30 6285 H 584.357 1.48843 -0.128837 0
M  V30 6286 H 586.239 3.55082 2.26924 0
M  V30 6287 H 584.914 2.35596 2.21983 0
M  V30 6288 H 583.821 3.7246 0.349856 0
M  V30 6289 H 585.154 4.89855 0.4799 0
M  V30 6290 N 586.806 0.0935595 1.57322 0
M  V30 6291 C 588.031 -0.582324 1.99057 0
M  V30 6292 C 588.456 -1.61025 0.972242 0
M  V30 6293 O 587.814 -1.81202 -0.0594622 0
M  V30 6294 C 587.862 -1.20799 3.39765 0
M  V30 6295 O 586.966 -2.32382 3.40694 0
M  V30 6296 H 586.307 -0.147884 0.647323 0
M  V30 6297 H 588.837 0.174516 2.03854 0
M  V30 6298 H 588.847 -1.54966 3.77425 0
M  V30 6299 H 587.522 -0.454914 4.13405 0
M  V30 6300 H 586.099 -1.99845 3.14827 0
M  V30 6301 N 588.284 -1.56567 -0.180126 0
M  V30 6302 C 589.247 -1.94852 -1.20686 0
M  V30 6303 C 590.247 -0.831212 -1.3765 0
M  V30 6304 O 591.437 -1.09841 -1.35206 0
M  V30 6305 C 588.569 -2.23565 -2.57355 0
M  V30 6306 H 589.762 -2.86722 -0.879225 0
M  V30 6307 H 587.315 -1.50489 -0.422237 0
M  V30 6308 H 588.05 -1.34381 -2.95148 0
M  V30 6309 H 587.835 -3.04999 -2.46411 0
M  V30 6310 H 589.325 -2.54137 -3.31367 0
M  V30 6311 N 589.762 0.448376 -1.51087 0
M  V30 6312 C 591.173 1.0286 -1.5581 0
M  V30 6313 C 591.524 1.92583 -0.374989 0
M  V30 6314 O 590.649 2.10316 0.509533 0
M  V30 6315 C 591.244 1.87223 -2.8237 0
M  V30 6316 C 589.803 2.40314 -2.897 0
M  V30 6317 C 588.95 1.19238 -2.50355 0
M  V30 6318 H 591.901 0.230075 -1.57023 0
M  V30 6319 H 591.922 2.72553 -2.6551 0
M  V30 6320 H 591.434 1.21894 -3.68461 0
M  V30 6321 H 589.535 3.09129 -2.08014 0
M  V30 6322 H 589.648 2.73866 -3.93108 0
M  V30 6323 H 588.012 1.53428 -2.03303 0
M  V30 6324 H 588.795 0.555367 -3.38778 0
M  V30 6325 N 591.24 1.41047 0.703093 0
M  V30 6326 C 592.15 1.44645 1.84703 0
M  V30 6327 C 593.166 0.337778 1.7069 0
M  V30 6328 O 594.342 0.584327 1.92737 0
M  V30 6329 C 591.407 1.31928 3.20618 0
M  V30 6330 C 590.468 2.53047 3.46794 0
M  V30 6331 C 589.701 2.40927 4.76224 0
M  V30 6332 O 589.924 1.42978 5.5219 0
M  V30 6333 O 588.858 3.30543 5.03016 0
M  V30 6334 H 592.684 2.41139 1.84624 0
M  V30 6335 H 590.269 1.22504 0.855167 0
M  V30 6336 H 592.151 1.27092 4.01778 0
M  V30 6337 H 590.826 0.385469 3.21397 0
M  V30 6338 H 589.733 2.6346 2.65593 0
M  V30 6339 H 591.066 3.45231 3.50822 0
M  V30 6340 N 592.718 -0.936591 1.26751 0
M  V30 6341 C 593.628 -2.06949 1.10496 0
M  V30 6342 C 594.644 -1.7396 0.037271 0
M  V30 6343 O 595.82 -1.99941 0.241944 0
M  V30 6344 C 592.885 -3.38612 0.744491 0
M  V30 6345 C 591.946 -3.85355 1.89209 0
M  V30 6346 C 591.179 -5.10735 1.54873 0
M  V30 6347 O 591.402 -5.68602 0.452546 0
M  V30 6348 O 590.336 -5.52632 2.38499 0
M  V30 6349 H 594.162 -2.23571 2.05547 0
M  V30 6350 H 591.747 -1.05428 1.05855 0
M  V30 6351 H 593.629 -4.17711 0.556396 0
M  V30 6352 H 592.304 -3.23218 -0.176582 0
M  V30 6353 H 591.211 -3.07182 2.13518 0
M  V30 6354 H 592.544 -4.05277 2.79305 0
M  V30 6355 N 594.196 -1.08629 -1.14182 0
M  V30 6356 C 595.445 -0.812271 -1.84621 0
M  V30 6357 C 595.758 0.664313 -1.83973 0
M  V30 6358 O 596.964 1.05357 -2.50224 0
M  V30 6359 C 595.42 -1.4031 -3.31423 0
M  V30 6360 C 595.028 -2.91164 -3.40481 0
M  V30 6361 C 596.772 -1.20767 -4.06959 0
M  V30 6362 C 594.679 -3.43373 -4.81507 0
M  V30 6363 H 593.609 -0.30019 -0.691666 0
M  V30 6364 H 596.26 -1.30798 -1.28701 0
M  V30 6365 H 594.642 -0.835096 -3.87094 0
M  V30 6366 H 595.816 -3.5412 -2.94848 0
M  V30 6367 H 594.131 -3.09646 -2.78403 0
M  V30 6368 H 596.728 -1.57237 -5.11058 0
M  V30 6369 H 597.071 -0.147664 -4.16038 0
M  V30 6370 H 597.604 -1.74274 -3.57594 0
M  V30 6371 H 594.343 -4.48958 -4.77616 0
M  V30 6372 H 593.863 -2.85176 -5.27669 0
M  V30 6373 H 595.542 -3.40095 -5.50404 0
M  V30 6374 N 595.674 1.31259 -0.872281 0
M  V30 6375 C 596.951 1.91362 -0.404943 0
M  V30 6376 C 597.331 1.79362 1.11321 0
M  V30 6377 O 596.679 1.20277 1.94283 0
M  V30 6378 C 596.889 3.3749 -0.888893 0
M  V30 6379 C 598.237 4.14593 -0.916384 0
M  V30 6380 O 599.261 3.46282 -0.834701 0
M  V30 6381 O 598.12 5.3661 -1.03498 0
M  V30 6382 H 595.214 0.818016 -0.121569 0
M  V30 6383 H 597.76 1.39912 -0.960346 0
M  V30 6384 H 596.532 3.40249 -1.93251 0
M  V30 6385 H 596.155 3.96375 -0.311932 0
M  V30 6386 N 597.152 0.631951 1.44375 0
M  V30 6387 C 598.115 -0.0628142 2.29114 0
M  V30 6388 C 599.115 -0.771494 1.41084 0
M  V30 6389 O 600.305 -0.615959 1.62947 0
M  V30 6390 C 597.437 -1.09953 3.22681 0
M  V30 6391 H 598.63 0.682509 2.92031 0
M  V30 6392 H 596.183 0.392128 1.51301 0
M  V30 6393 H 596.918 -1.87481 2.64616 0
M  V30 6394 H 596.703 -0.595286 3.87555 0
M  V30 6395 H 598.193 -1.58538 3.86336 0
M  V30 6396 N 598.631 -1.53133 0.372548 0
M  V30 6397 C 599.561 -2.28876 -0.462412 0
M  V30 6398 C 600.542 -1.31583 -1.07796 0
M  V30 6399 O 601.727 -1.60461 -1.09389 0
M  V30 6400 C 598.857 -3.08317 -1.59868 0
M  V30 6401 C 597.811 -4.13355 -1.11003 0
M  V30 6402 C 597.137 -4.8092 -2.33708 0
M  V30 6403 C 598.437 -5.21955 -0.18983 0
M  V30 6404 H 600.131 -2.9892 0.169511 0
M  V30 6405 H 597.677 -1.43761 0.0829658 0
M  V30 6406 H 599.63 -3.60055 -2.18949 0
M  V30 6407 H 598.354 -2.35976 -2.25794 0
M  V30 6408 H 597.013 -3.62573 -0.541869 0
M  V30 6409 H 596.661 -4.05144 -2.98106 0
M  V30 6410 H 596.361 -5.51904 -2.01682 0
M  V30 6411 H 597.885 -5.35455 -2.93462 0
M  V30 6412 H 599.299 -5.69153 -0.688319 0
M  V30 6413 H 597.696 -6.00087 0.0398887 0
M  V30 6414 H 598.766 -4.78811 0.766057 0
M  V30 6415 N 600.109 -0.101901 -1.5727 0
M  V30 6416 C 601.019 0.868647 -2.17926 0
M  V30 6417 C 602.035 1.30527 -1.1506 0
M  V30 6418 O 603.211 1.37178 -1.47459 0
M  V30 6419 C 600.276 2.10727 -2.75309 0
M  V30 6420 C 599.337 1.7242 -3.93154 0
M  V30 6421 C 598.57 2.90377 -4.47791 0
M  V30 6422 O 598.793 4.05305 -4.01353 0
M  V30 6423 O 597.727 2.6845 -5.38719 0
M  V30 6424 H 601.553 0.382544 -3.01281 0
M  V30 6425 H 599.138 0.122812 -1.48894 0
M  V30 6426 H 601.02 2.83303 -3.11958 0
M  V30 6427 H 599.695 2.58376 -1.94996 0
M  V30 6428 H 598.602 0.970039 -3.61305 0
M  V30 6429 H 599.935 1.29528 -4.74851 0
M  V30 6430 N 601.587 1.56661 0.17182 0
M  V30 6431 C 603.003 1.50768 0.52357 0
M  V30 6432 C 603.203 0.806072 1.84675 0
M  V30 6433 O 602.259 0.366233 2.4983 0
M  V30 6434 C 603.572 2.955 0.556793 0
M  V30 6435 C 605.12 3.06303 0.644029 0
M  V30 6436 C 605.595 4.52492 0.708148 0
M  V30 6437 N 607.086 4.56737 0.771051 0
M  V30 6438 C 607.821 5.67196 0.841229 0
M  V30 6439 N 607.317 6.87287 0.872272 0
M  V30 6440 N 609.11 5.55165 0.88021 0
M  V30 6441 H 601.261 2.00679 -0.695817 0
M  V30 6442 H 603.524 0.914219 -0.250814 0
M  V30 6443 H 603.23 3.49986 -0.346774 0
M  V30 6444 H 603.104 3.50119 1.40346 0
M  V30 6445 H 605.491 2.51851 1.53802 0
M  V30 6446 H 605.572 2.5477 -0.229297 0
M  V30 6447 H 605.216 5.07575 -0.181585 0
M  V30 6448 H 605.146 5.01781 1.59761 0
M  V30 6449 H 607.637 3.70274 0.755364 0
M  V30 6450 H 607.95 7.6722 0.92698 0
M  V30 6451 H 606.295 6.89898 0.840557 0
M  V30 6452 H 609.486 4.60263 0.852956 0
M  V30 6453 H 609.659 6.41271 0.931439 0
M  V30 6454 N 603.065 -0.440357 1.51323 0
M  V30 6455 C 604.012 -1.53429 1.72419 0
M  V30 6456 C 604.982 -1.56165 0.565826 0
M  V30 6457 O 606.167 -1.73222 0.799917 0
M  V30 6458 C 603.307 -2.91169 1.85242 0
M  V30 6459 C 602.42 -2.97985 3.12777 0
M  V30 6460 C 601.555 -4.26829 3.16212 0
M  V30 6461 C 600.594 -4.27501 4.38074 0
M  V30 6462 N 599.731 -5.47866 4.39076 0
M  V30 6463 H 604.571 -1.34743 2.65797 0
M  V30 6464 H 602.108 -0.654608 1.31732 0
M  V30 6465 H 604.066 -3.71087 1.90658 0
M  V30 6466 H 602.696 -3.0842 0.952744 0
M  V30 6467 H 601.748 -2.10749 3.16685 0
M  V30 6468 H 603.06 -2.94342 4.02696 0
M  V30 6469 H 602.214 -5.15118 3.20527 0
M  V30 6470 H 600.953 -4.33124 2.24176 0
M  V30 6471 H 599.958 -3.37606 4.33938 0
M  V30 6472 H 601.183 -4.22873 5.31371 0
M  V30 6473 H 599.129 -5.54887 3.49909 0
M  V30 6474 H 599.046 -5.46091 5.22801 0
M  V30 6475 H 600.314 -6.38195 4.4758 0
M  V30 6476 N 604.543 -1.41418 -0.695603 0
M  V30 6477 C 605.49 -1.43264 -1.80954 0
M  V30 6478 C 606.46 -0.287016 -1.63601 0
M  V30 6479 O 607.645 -0.488054 -1.84452 0
M  V30 6480 C 604.785 -1.32054 -3.18835 0
M  V30 6481 C 603.898 -2.56485 -3.4762 0
M  V30 6482 C 603.033 -2.3757 -4.75115 0
M  V30 6483 C 602.072 -3.57477 -4.96867 0
M  V30 6484 N 601.209 -3.37632 -6.15588 0
M  V30 6485 H 606.049 -2.38467 -1.78711 0
M  V30 6486 H 603.586 -1.18415 -0.872715 0
M  V30 6487 H 605.544 -1.23558 -3.98484 0
M  V30 6488 H 604.174 -0.404592 -3.20254 0
M  V30 6489 H 603.226 -2.75432 -2.62376 0
M  V30 6490 H 604.538 -3.45678 -3.59594 0
M  V30 6491 H 603.692 -2.2654 -5.62818 0
M  V30 6492 H 602.431 -1.45834 -4.65386 0
M  V30 6493 H 601.436 -3.68961 -4.07612 0
M  V30 6494 H 602.661 -4.50167 -5.08455 0
M  V30 6495 H 600.607 -2.48596 -6.07072 0
M  V30 6496 H 600.524 -4.20401 -6.2833 0
M  V30 6497 H 601.792 -3.30375 -7.06026 0
M  V30 6498 N 606.021 0.929856 -1.27246 0
M  V30 6499 C 606.951 2.04722 -1.12299 0
M  V30 6500 C 607.932 1.70082 -0.0250464 0
M  V30 6501 O 609.117 1.93176 -0.199141 0
M  V30 6502 C 606.247 3.38721 -0.767145 0
M  V30 6503 C 605.201 3.87466 -1.81808 0
M  V30 6504 C 604.527 5.18246 -1.31626 0
M  V30 6505 C 605.827 4.11095 -3.22177 0
M  V30 6506 H 607.521 2.17485 -2.05769 0
M  V30 6507 H 605.067 1.04503 -0.990715 0
M  V30 6508 H 607.02 4.16366 -0.649413 0
M  V30 6509 H 605.744 3.25967 0.203259 0
M  V30 6510 H 604.403 3.12012 -1.92468 0
M  V30 6511 H 604.051 5.01881 -0.335378 0
M  V30 6512 H 603.751 5.51829 -2.01887 0
M  V30 6513 H 605.275 5.98462 -1.21143 0
M  V30 6514 H 606.689 4.79316 -3.1453 0
M  V30 6515 H 605.086 4.55982 -3.90129 0
M  V30 6516 H 606.156 3.16468 -3.67391 0
M  V30 6517 N 607.499 1.09233 1.13605 0
M  V30 6518 C 608.431 0.687794 2.18637 0
M  V30 6519 C 609.444 -0.26936 1.60556 0
M  V30 6520 O 610.633 -0.0557162 1.78413 0
M  V30 6521 C 607.733 -0.00751901 3.38899 0
M  V30 6522 C 606.906 0.97067 4.26494 0
M  V30 6523 C 605.965 0.309129 5.25291 0
M  V30 6524 O 604.991 0.956149 5.61112 0
M  V30 6525 N 606.193 -0.937555 5.72879 0
M  V30 6526 H 608.958 1.59141 2.53957 0
M  V30 6527 H 606.519 0.979515 1.28907 0
M  V30 6528 H 608.511 -0.461238 4.02063 0
M  V30 6529 H 607.081 -0.813353 3.01833 0
M  V30 6530 H 606.301 1.603 3.60135 0
M  V30 6531 H 607.589 1.63323 4.81875 0
M  V30 6532 H 606.987 -1.48281 5.4592 0
M  V30 6533 H 605.544 -1.33463 6.3799 0
M  V30 6534 N 608.977 -1.30795 0.87923 0
M  V30 6535 C 609.907 -2.30742 0.357796 0
M  V30 6536 C 610.888 -1.60747 -0.556283 0
M  V30 6537 O 612.073 -1.88393 -0.47135 0
M  V30 6538 C 609.203 -3.44583 -0.433555 0
M  V30 6539 C 608.157 -4.26235 0.388251 0
M  V30 6540 C 607.483 -5.32073 -0.529352 0
M  V30 6541 C 608.783 -4.96303 1.62729 0
M  V30 6542 H 610.477 -2.74605 1.19299 0
M  V30 6543 H 608.023 -1.32017 0.575104 0
M  V30 6544 H 609.976 -4.13563 -0.808934 0
M  V30 6545 H 608.7 -2.99511 -1.30234 0
M  V30 6546 H 607.359 -3.58936 0.745695 0
M  V30 6547 H 607.007 -4.83249 -1.39569 0
M  V30 6548 H 606.707 -5.87598 0.0166741 0
M  V30 6549 H 608.231 -6.0391 -0.901373 0
M  V30 6550 H 609.645 -5.5783 1.32283 0
M  V30 6551 H 608.042 -5.61666 2.11309 0
M  V30 6552 H 609.112 -4.22758 2.37494 0
M  V30 6553 N 610.455 -0.639598 -1.44038 0
M  V30 6554 C 611.365 0.0612377 -2.3452 0
M  V30 6555 C 612.381 0.826717 -1.53106 0
M  V30 6556 O 613.557 0.777059 -1.85806 0
M  V30 6557 C 610.622 1.02492 -3.31204 0
M  V30 6558 C 609.683 0.25788 -4.28525 0
M  V30 6559 C 608.916 1.17566 -5.2059 0
M  V30 6560 O 609.139 2.41461 -5.16771 0
M  V30 6561 O 608.073 0.655407 -5.98321 0
M  V30 6562 H 611.899 -0.68318 -2.95916 0
M  V30 6563 H 609.484 -0.399784 -1.43952 0
M  V30 6564 H 611.366 1.57911 -3.90694 0
M  V30 6565 H 610.041 1.7498 -2.7233 0
M  V30 6566 H 608.948 -0.339566 -3.72556 0
M  V30 6567 H 610.281 -0.427154 -4.90343 0
M  V30 6568 N 611.933 1.52934 -0.380664 0
M  V30 6569 C 613.182 2.00651 0.205477 0
M  V30 6570 C 613.495 1.27164 1.48623 0
M  V30 6571 O 614.701 1.65547 2.15189 0
M  V30 6572 C 613.157 3.57479 0.416726 0
M  V30 6573 C 612.765 4.39857 -0.850268 0
M  V30 6574 C 614.509 4.13509 0.959702 0
M  V30 6575 C 612.416 5.88269 -0.607773 0
M  V30 6576 H 611.346 0.749684 0.0805614 0
M  V30 6577 H 613.997 1.76508 -0.501732 0
M  V30 6578 H 612.379 3.77836 1.18557 0
M  V30 6579 H 613.553 4.31269 -1.62307 0
M  V30 6580 H 611.868 3.95005 -1.31756 0
M  V30 6581 H 614.465 5.22039 1.15669 0
M  V30 6582 H 614.808 3.69054 1.92626 0
M  V30 6583 H 615.341 3.9701 0.250645 0
M  V30 6584 H 612.08 6.3703 -1.54509 0
M  V30 6585 H 611.6 5.99667 0.126247 0
M  V30 6586 H 613.279 6.46558 -0.239014 0
M  V30 6587 N 613.412 0.11024 1.57214 0
M  V30 6588 C 614.322 -0.857077 2.18383 0
M  V30 6589 C 615.338 -1.29915 1.1575 0
M  V30 6590 O 616.514 -1.36394 1.48184 0
M  V30 6591 C 613.579 -2.09264 2.76423 0
M  V30 6592 C 612.64 -1.70333 3.94063 0
M  V30 6593 C 611.873 -2.87999 4.49324 0
M  V30 6594 O 612.096 -4.0317 4.03497 0
M  V30 6595 O 611.03 -2.6559 5.40135 0
M  V30 6596 H 614.856 -0.366561 3.0148 0
M  V30 6597 H 612.441 -0.114914 1.48957 0
M  V30 6598 H 614.323 -2.81644 3.13456 0
M  V30 6599 H 612.998 -2.57339 1.96363 0
M  V30 6600 H 611.905 -0.950864 3.61814 0
M  V30 6601 H 613.238 -1.27007 4.75531 0
M  V30 6602 N 614.89 -1.56749 -0.16351 0
M  V30 6603 C 616.306 -1.51043 -0.515567 0
M  V30 6604 C 616.506 -0.815855 -1.84245 0
M  V30 6605 O 615.562 -0.379477 -2.49632 0
M  V30 6606 C 616.875 -2.95791 -0.541114 0
M  V30 6607 C 618.423 -3.0664 -0.627776 0
M  V30 6608 C 618.898 -4.52861 -0.684141 0
M  V30 6609 N 620.389 -4.5714 -0.746818 0
M  V30 6610 C 621.124 -5.67634 -0.811137 0
M  V30 6611 N 620.62 -6.8774 -0.835811 0
M  V30 6612 N 622.413 -5.55624 -0.850756 0
M  V30 6613 H 614.564 -2.00307 0.70645 0
M  V30 6614 H 616.827 -0.912876 0.255659 0
M  V30 6615 H 616.533 -3.49797 0.365329 0
M  V30 6616 H 616.407 -3.50858 -1.38487 0
M  V30 6617 H 618.794 -2.52663 -1.52464 0
M  V30 6618 H 618.875 -2.54645 0.242805 0
M  V30 6619 H 618.519 -5.07472 0.2085 0
M  V30 6620 H 618.449 -5.02621 -1.57098 0
M  V30 6621 H 620.94 -3.70669 -0.735717 0
M  V30 6622 H 621.253 -7.67701 -0.886279 0
M  V30 6623 H 619.598 -6.90334 -0.803958 0
M  V30 6624 H 622.789 -4.60709 -0.828535 0
M  V30 6625 H 622.962 -6.41756 -0.897418 0
M  V30 6626 N 616.368 0.432326 -1.51554 0
M  V30 6627 C 617.278 1.55023 -1.76082 0
M  V30 6628 C 618.294 1.61593 -0.645265 0
M  V30 6629 O 619.47 1.78742 -0.928086 0
M  V30 6630 C 616.535 2.90964 -1.88523 0
M  V30 6631 C 615.596 2.9447 -3.12388 0
M  V30 6632 C 614.829 4.23926 -3.24225 0
M  V30 6633 O 615.052 5.16576 -2.4188 0
M  V30 6634 O 613.986 4.33818 -4.17235 0
M  V30 6635 H 617.812 1.37238 -2.70923 0
M  V30 6636 H 615.397 0.615845 -1.36117 0
M  V30 6637 H 617.279 3.71633 -1.98662 0
M  V30 6638 H 615.954 3.08865 -0.9687 0
M  V30 6639 H 614.861 2.12737 -3.07723 0
M  V30 6640 H 616.194 2.81514 -4.03746 0
M  V30 6641 N 617.846 1.41785 0.688094 0
M  V30 6642 C 618.809 1.43936 1.78368 0
M  V30 6643 C 619.809 0.328866 1.57401 0
M  V30 6644 O 620.999 0.589093 1.63937 0
M  V30 6645 C 618.131 1.25804 3.16838 0
M  V30 6646 H 619.324 2.41472 1.77852 0
M  V30 6647 H 616.877 1.28037 0.896448 0
M  V30 6648 H 617.612 0.291386 3.22988 0
M  V30 6649 H 617.397 2.06272 3.33458 0
M  V30 6650 H 618.887 1.30162 3.96797 0
M  V30 6651 N 619.324 -0.923095 1.27737 0
M  V30 6652 C 620.254 -2.04124 1.13383 0
M  V30 6653 C 621.235 -1.70066 0.0340658 0
M  V30 6654 O 622.42 -1.93068 0.209383 0
M  V30 6655 C 619.55 -3.3831 0.785097 0
M  V30 6656 C 618.504 -3.86496 1.8386 0
M  V30 6657 C 617.83 -5.1754 1.34373 0
M  V30 6658 C 619.13 -4.09381 3.24353 0
M  V30 6659 H 620.824 -2.1639 2.06919 0
M  V30 6660 H 618.37 -1.03976 0.996243 0
M  V30 6661 H 620.323 -4.16016 0.671485 0
M  V30 6662 H 619.047 -3.2607 -0.185969 0
M  V30 6663 H 617.706 -3.10987 1.9412 0
M  V30 6664 H 617.354 -5.01696 0.361989 0
M  V30 6665 H 617.054 -5.50751 2.04811 0
M  V30 6666 H 618.578 -5.97811 1.24315 0
M  V30 6667 H 619.992 -4.77641 3.17067 0
M  V30 6668 H 618.389 -4.53906 3.92542 0
M  V30 6669 H 619.459 -3.14515 3.69064 0
M  V30 6670 N 620.802 -1.09834 -1.13024 0
M  V30 6671 C 621.749 -0.741522 -2.18564 0
M  V30 6672 C 622.719 0.279236 -1.63736 0
M  V30 6673 O 623.904 0.159923 -1.90129 0
M  V30 6674 C 621.044 -0.17277 -3.44667 0
M  V30 6675 C 620.157 -1.24808 -4.13578 0
M  V30 6676 C 619.292 -0.641631 -5.27311 0
M  V30 6677 C 618.331 -1.69795 -5.88078 0
M  V30 6678 N 617.468 -1.11223 -6.93234 0
M  V30 6679 H 622.308 -1.64576 -2.48432 0
M  V30 6680 H 619.845 -0.822174 -1.21978 0
M  V30 6681 H 621.803 0.17482 -4.16834 0
M  V30 6682 H 620.433 0.694725 -3.15235 0
M  V30 6683 H 619.485 -1.71288 -3.39653 0
M  V30 6684 H 620.797 -2.04795 -4.54819 0
M  V30 6685 H 619.951 -0.243128 -6.06213 0
M  V30 6686 H 618.69 0.189742 -4.87331 0
M  V30 6687 H 617.695 -2.10595 -5.07868 0
M  V30 6688 H 618.92 -2.53206 -6.3013 0
M  V30 6689 H 616.866 -0.302208 -6.55304 0
M  V30 6690 H 616.783 -1.84901 -7.3304 0
M  V30 6691 H 618.051 -0.740068 -7.75979 0
M  V30 6692 N 622.28 1.30327 -0.886154 0
M  V30 6693 C 623.227 2.28099 -0.352069 0
M  V30 6694 C 624.197 1.56433 0.558397 0
M  V30 6695 O 625.382 1.84492 0.486561 0
M  V30 6696 C 622.522 3.42456 0.426346 0
M  V30 6697 C 621.635 4.28938 -0.513472 0
M  V30 6698 C 620.77 5.30458 0.280657 0
M  V30 6699 C 619.809 6.0859 -0.654556 0
M  V30 6700 N 618.946 7.02022 0.104322 0
M  V30 6701 H 623.786 2.73166 -1.19097 0
M  V30 6702 H 621.323 1.34367 -0.598662 0
M  V30 6703 H 623.281 4.07518 0.893587 0
M  V30 6704 H 621.911 2.98455 1.22981 0
M  V30 6705 H 620.963 3.64173 -1.09921 0
M  V30 6706 H 622.275 4.83399 -1.2299 0
M  V30 6707 H 621.429 6.01273 0.8097 0
M  V30 6708 H 620.168 4.76693 1.03029 0
M  V30 6709 H 619.173 5.36651 -1.19522 0
M  V30 6710 H 620.398 6.64443 -1.4033 0
M  V30 6711 H 618.344 6.50645 0.836472 0
M  V30 6712 H 618.261 7.53979 -0.552453 0
M  V30 6713 H 619.529 7.77077 0.614069 0
M  V30 6714 N 623.758 0.647228 1.43697 0
M  V30 6715 C 624.668 -0.0487997 2.34549 0
M  V30 6716 C 625.684 -0.818586 1.53542 0
M  V30 6717 O 626.86 -0.767195 1.86215 0
M  V30 6718 C 623.925 -1.00734 3.31743 0
M  V30 6719 C 622.986 -0.23515 4.28655 0
M  V30 6720 C 622.219 -1.14803 5.21206 0
M  V30 6721 O 622.442 -2.38717 5.18045 0
M  V30 6722 O 621.376 -0.623667 5.9866 0
M  V30 6723 H 625.202 0.698863 2.9555 0
M  V30 6724 H 622.787 0.407412 1.43738 0
M  V30 6725 H 624.669 -1.55837 3.91526 0
M  V30 6726 H 623.344 -1.73534 2.73254 0
M  V30 6727 H 622.251 0.359319 3.7237 0
M  V30 6728 H 623.584 0.453152 4.9011 0
M  V30 6729 N 625.236 -1.5273 0.388769 0
M  V30 6730 C 626.183 -2.26437 -0.446639 0
M  V30 6731 C 627.153 -1.28025 -1.05824 0
M  V30 6732 O 628.338 -1.56852 -1.08637 0
M  V30 6733 C 625.478 -3.07407 -1.56828 0
M  V30 6734 C 624.591 -4.20747 -0.979589 0
M  V30 6735 C 623.726 -4.89113 -2.07224 0
M  V30 6736 C 622.765 -5.94447 -1.45942 0
M  V30 6737 N 621.902 -6.56411 -2.49135 0
M  V30 6738 H 626.742 -2.97404 0.18837 0
M  V30 6739 H 624.279 -1.46727 0.104725 0
M  V30 6740 H 626.237 -3.52642 -2.22934 0
M  V30 6741 H 624.867 -2.3865 -2.17361 0
M  V30 6742 H 623.919 -3.7983 -0.208151 0
M  V30 6743 H 625.231 -4.9637 -0.491747 0
M  V30 6744 H 624.385 -5.3765 -2.81101 0
M  V30 6745 H 623.124 -4.13013 -2.59368 0
M  V30 6746 H 622.129 -5.4525 -0.705894 0
M  V30 6747 H 623.354 -6.7248 -0.945932 0
M  V30 6748 H 621.3 -5.83152 -3.00449 0
M  V30 6749 H 621.217 -7.27645 -2.05105 0
M  V30 6750 H 622.485 -7.09592 -3.22644 0
M  V30 6751 N 626.714 -0.118576 -1.57153 0
M  V30 6752 C 627.991 0.583062 -1.86708 0
M  V30 6753 C 628.371 1.84841 -1.01967 0
M  V30 6754 O 627.719 2.28288 -0.0984673 0
M  V30 6755 C 627.929 0.875912 -3.3783 0
M  V30 6756 C 629.277 1.22916 -4.0642 0
M  V30 6757 O 630.301 0.966188 -3.42846 0
M  V30 6758 O 629.16 1.72269 -5.18638 0
M  V30 6759 H 626.254 0.294185 -0.772906 0
M  V30 6760 H 628.8 -0.153048 -1.69008 0
M  V30 6761 H 627.572 -0.0207776 -3.91294 0
M  V30 6762 H 627.195 1.66719 -3.60958 0
M  V30 6763 N 628.193 1.56834 0.155195 0
M  V30 6764 C 629.604 1.72421 0.716082 0
M  V30 6765 C 629.955 0.731685 1.82046 0
M  V30 6766 O 629.08 -0.103481 2.16152 0
M  V30 6767 C 629.675 3.12629 1.30571 0
M  V30 6768 C 628.234 3.29846 1.81325 0
M  V30 6769 C 627.381 2.68359 0.698494 0
M  V30 6770 H 630.332 1.58544 -0.0703861 0
M  V30 6771 H 630.353 3.12174 2.1755 0
M  V30 6772 H 629.865 3.84844 0.501701 0
M  V30 6773 H 627.966 2.62614 2.64319 0
M  V30 6774 H 628.079 4.37727 1.9476 0
M  V30 6775 H 626.443 2.28604 1.12305 0
M  V30 6776 H 627.226 3.43171 -0.0939366 0
M  V30 6777 N 629.671 -0.424282 1.51781 0
M  V30 6778 C 630.948 -1.18464 1.55646 0
M  V30 6779 C 631.328 -2.08529 0.328438 0
M  V30 6780 O 630.676 -2.17969 -0.685693 0
M  V30 6781 C 630.886 -1.97514 2.87731 0
M  V30 6782 C 632.234 -2.54106 3.40169 0
M  V30 6783 O 633.258 -2.07711 2.89369 0
M  V30 6784 O 632.117 -3.38759 4.28841 0
M  V30 6785 H 629.211 -0.540055 0.626314 0
M  V30 6786 H 631.757 -0.432291 1.64102 0
M  V30 6787 H 630.529 -1.31444 3.68562 0
M  V30 6788 H 630.152 -2.79787 2.82498 0
M  V30 6789 N 631.149 -1.42148 -0.680565 0
M  V30 6790 C 632.374 -1.45901 -1.47403 0
M  V30 6791 C 632.799 -0.0700985 -1.87969 0
M  V30 6792 O 632.157 0.930145 -1.55621 0
M  V30 6793 C 632.205 -2.38661 -2.70321 0
M  V30 6794 O 631.309 -1.85399 -3.68376 0
M  V30 6795 H 630.65 -0.494565 -0.443059 0
M  V30 6796 H 633.18 -1.86774 -0.835251 0
M  V30 6797 H 633.19 -2.55046 -3.18458 0
M  V30 6798 H 631.865 -3.39571 -2.40134 0
M  V30 6799 H 630.442 -1.78541 -3.2738 0
M  V30 6800 N 632.627 0.916307 -1.28225 0
M  V30 6801 C 633.559 2.02303 -1.07732 0
M  V30 6802 C 634.572 1.62773 -0.0298421 0
M  V30 6803 O 635.761 1.76406 -0.272626 0
M  V30 6804 C 632.861 3.33282 -0.614504 0
M  V30 6805 C 632.034 4.01439 -1.73682 0
M  V30 6806 C 631.093 5.10698 -1.26781 0
M  V30 6807 O 630.119 5.34038 -1.96958 0
M  V30 6808 N 631.321 5.80355 -0.129624 0
M  V30 6809 H 634.086 2.20442 -2.03041 0
M  V30 6810 H 631.647 1.08744 -1.19943 0
M  V30 6811 H 633.639 4.03699 -0.284397 0
M  V30 6812 H 632.209 3.11633 0.245664 0
M  V30 6813 H 631.429 3.24604 -2.23665 0
M  V30 6814 H 632.717 4.43721 -2.48976 0
M  V30 6815 H 632.115 5.6386 0.455847 0
M  V30 6816 H 630.672 6.51647 0.141224 0
M  V30 6817 N 634.105 1.10431 1.1244 0
M  V30 6818 C 635.015 0.765502 2.21759 0
M  V30 6819 C 636.031 -0.236966 1.72379 0
M  V30 6820 O 637.207 -0.0757329 2.01258 0
M  V30 6821 C 634.272 0.202316 3.46109 0
M  V30 6822 C 633.333 1.26205 4.1033 0
M  V30 6823 C 632.566 0.725648 5.28744 0
M  V30 6824 O 632.789 -0.447942 5.68638 0
M  V30 6825 O 631.723 1.48555 5.83279 0
M  V30 6826 H 635.549 1.67801 2.53133 0
M  V30 6827 H 633.134 0.879443 1.20773 0
M  V30 6828 H 635.016 -0.107918 4.21262 0
M  V30 6829 H 633.691 -0.683052 3.16411 0
M  V30 6830 H 632.598 1.62514 3.36957 0
M  V30 6831 H 633.931 2.12044 4.44183 0
M  V30 6832 N 635.583 -1.29855 0.893053 0
M  V30 6833 C 636.999 -1.48366 0.588199 0
M  V30 6834 C 637.199 -1.81654 -0.872018 0
M  V30 6835 O 636.255 -1.909 -1.65268 0
M  V30 6836 C 637.568 -2.60136 1.5083 0
M  V30 6837 C 639.116 -2.74014 1.51279 0
M  V30 6838 C 639.591 -3.88905 2.41902 0
M  V30 6839 N 641.082 -3.96228 2.39911 0
M  V30 6840 C 641.817 -4.84458 3.06738 0
M  V30 6841 N 641.313 -5.77426 3.8282 0
M  V30 6842 N 643.106 -4.77894 2.95929 0
M  V30 6843 H 635.257 -1.06522 1.83757 0
M  V30 6844 H 637.52 -0.528495 0.787018 0
M  V30 6845 H 637.226 -2.42383 2.54839 0
M  V30 6846 H 637.1 -3.56793 1.22388 0
M  V30 6847 H 639.487 -2.91167 0.480179 0
M  V30 6848 H 639.568 -1.77952 1.83757 0
M  V30 6849 H 639.212 -3.72508 3.45253 0
M  V30 6850 H 639.142 -4.84322 2.06737 0
M  V30 6851 H 641.633 -3.29728 1.84629 0
M  V30 6852 H 641.946 -6.41529 4.30883 0
M  V30 6853 H 640.291 -5.77332 3.86927 0
M  V30 6854 H 643.482 -4.04248 2.36012 0
M  V30 6855 H 643.655 -5.46444 3.48286 0
M  V30 6856 N 637.061 -0.65484 -1.43351 0
M  V30 6857 C 637.991 0.0221809 -2.33489 0
M  V30 6858 C 638.972 0.810272 -1.49561 0
M  V30 6859 O 640.157 0.771426 -1.78221 0
M  V30 6860 C 637.287 0.988117 -3.32947 0
M  V30 6861 C 636.241 0.310026 -4.26876 0
M  V30 6862 C 635.567 1.38752 -5.16384 0
M  V30 6863 C 636.867 -0.798589 -5.16159 0
M  V30 6864 H 638.561 -0.730571 -2.9035 0
M  V30 6865 H 636.107 -0.352773 -1.39612 0
M  V30 6866 H 638.06 1.47067 -3.94904 0
M  V30 6867 H 636.784 1.77205 -2.74346 0
M  V30 6868 H 635.443 -0.152097 -3.66284 0
M  V30 6869 H 635.091 2.16293 -4.54121 0
M  V30 6870 H 634.791 0.939051 -5.80048 0
M  V30 6871 H 636.315 1.87141 -5.81215 0
M  V30 6872 H 637.729 -0.398126 -5.71916 0
M  V30 6873 H 636.126 -1.17163 -5.88552 0
M  V30 6874 H 637.196 -1.65588 -4.55751 0
M  V30 6875 N 638.539 1.52521 -0.396863 0
M  V30 6876 C 639.486 2.26671 0.434624 0
M  V30 6877 C 640.456 1.28584 1.05144 0
M  V30 6878 O 641.641 1.57426 1.07804 0
M  V30 6879 C 638.781 3.08234 1.55196 0
M  V30 6880 C 637.894 4.21261 0.957262 0
M  V30 6881 C 637.029 4.90205 2.04627 0
M  V30 6882 C 636.068 5.95213 1.42787 0
M  V30 6883 N 635.205 6.57723 2.45651 0
M  V30 6884 H 640.045 2.973 -0.204139 0
M  V30 6885 H 637.582 1.46669 -0.112505 0
M  V30 6886 H 639.54 3.53819 2.2106 0
M  V30 6887 H 638.17 2.398 2.16092 0
M  V30 6888 H 637.222 3.79935 0.188005 0
M  V30 6889 H 638.534 4.96624 0.465416 0
M  V30 6890 H 637.688 5.39133 2.78246 0
M  V30 6891 H 636.427 4.14383 2.57174 0
M  V30 6892 H 635.432 5.45616 0.676968 0
M  V30 6893 H 636.657 6.72972 0.910255 0
M  V30 6894 H 634.603 5.84737 2.97353 0
M  V30 6895 H 634.52 7.28723 2.01243 0
M  V30 6896 H 635.788 7.11293 3.18876 0
M  V30 6897 N 640.017 0.126909 1.57088 0
M  V30 6898 C 640.98 -0.806097 2.14557 0
M  V30 6899 C 641.98 -1.18918 1.08236 0
M  V30 6900 O 643.17 -1.11339 1.33975 0
M  V30 6901 C 640.302 -2.09116 2.69227 0
M  V30 6902 H 641.495 -0.306522 2.98329 0
M  V30 6903 H 639.048 -0.122393 1.5582 0
M  V30 6904 H 639.783 -2.63486 1.89065 0
M  V30 6905 H 639.568 -1.82588 3.46993 0
M  V30 6906 H 641.058 -2.75794 3.13572 0
M  V30 6907 N 641.495 -1.56914 -0.146875 0
M  V30 6908 C 642.744 -1.82546 -0.857898 0
M  V30 6909 C 643.057 -0.708169 -1.8233 0
M  V30 6910 O 644.263 -0.850093 -2.57848 0
M  V30 6911 C 642.719 -3.23548 -1.57623 0
M  V30 6912 C 642.327 -4.43212 -0.653224 0
M  V30 6913 C 644.071 -3.58453 -2.27402 0
M  V30 6914 C 641.978 -5.75237 -1.37318 0
M  V30 6915 H 640.908 -0.680786 -0.32411 0
M  V30 6916 H 643.559 -1.83166 -0.110639 0
M  V30 6917 H 641.941 -3.17315 -2.36912 0
M  V30 6918 H 643.115 -4.60682 0.104452 0
M  V30 6919 H 641.43 -4.16351 -0.0638336 0
M  V30 6920 H 644.027 -4.54349 -2.81907 0
M  V30 6921 H 644.37 -2.84516 -3.03901 0
M  V30 6922 H 644.903 -3.66347 -1.55032 0
M  V30 6923 H 641.642 -6.52269 -0.650041 0
M  V30 6924 H 641.162 -5.61703 -2.10357 0
M  V30 6925 H 642.841 -6.18039 -1.91406 0
M  V30 6926 N 642.974 0.416227 -1.52004 0
M  V30 6927 C 643.884 1.53147 -1.77717 0
M  V30 6928 C 644.9 1.609 -0.662368 0
M  V30 6929 O 646.076 1.77747 -0.946991 0
M  V30 6930 C 643.141 2.88948 -1.91598 0
M  V30 6931 C 642.202 2.9114 -3.15493 0
M  V30 6932 C 641.435 4.20464 -3.28703 0
M  V30 6933 O 641.658 5.13981 -2.47345 0
M  V30 6934 O 640.592 4.29368 -4.21813 0
M  V30 6935 H 644.418 1.34357 -2.72363 0
M  V30 6936 H 642.003 0.601373 -1.36762 0
M  V30 6937 H 643.885 3.69505 -2.02593 0
M  V30 6938 H 642.56 3.07821 -1.00141 0
M  V30 6939 H 641.467 2.09461 -3.09962 0
M  V30 6940 H 642.8 2.77216 -4.06709 0
M  V30 6941 N 644.452 1.42507 0.673017 0
M  V30 6942 C 645.415 1.4582 1.76831 0
M  V30 6943 C 646.415 0.345542 1.57043 0
M  V30 6944 O 647.605 0.606447 1.63303 0
M  V30 6945 C 644.737 1.29158 3.15485 0
M  V30 6946 H 645.93 2.43345 1.7528 0
M  V30 6947 H 643.483 1.28981 0.882817 0
M  V30 6948 H 644.218 0.325626 3.22661 0
M  V30 6949 H 644.003 2.09797 3.31252 0
M  V30 6950 H 645.493 1.34363 3.95394 0
M  V30 6951 N 645.93 -0.909495 1.28709 0
M  V30 6952 C 646.84 -2.04558 1.14861 0
M  V30 6953 C 647.856 -1.73842 0.0741621 0
M  V30 6954 O 649.032 -1.99383 0.2843 0
M  V30 6955 C 646.097 -3.36957 0.816148 0
M  V30 6956 C 645.158 -3.81255 1.97341 0
M  V30 6957 C 644.391 -5.07335 1.65671 0
M  V30 6958 O 644.614 -5.67514 0.573053 0
M  V30 6959 O 643.548 -5.47449 2.50167 0
M  V30 6960 H 647.374 -2.19161 2.10243 0
M  V30 6961 H 644.959 -1.03159 1.08068 0
M  V30 6962 H 646.841 -4.16436 0.644873 0
M  V30 6963 H 645.516 -3.2352 -0.107983 0
M  V30 6964 H 644.423 -3.02584 2.19986 0
M  V30 6965 H 645.756 -3.99261 2.87839 0
M  V30 6966 N 647.408 -1.11026 -1.11852 0
M  V30 6967 C 648.657 -0.851249 -1.82857 0
M  V30 6968 C 648.97 0.62514 -1.85341 0
M  V30 6969 O 650.176 1.00026 -2.52403 0
M  V30 6970 C 648.632 -1.47309 -3.28372 0
M  V30 6971 C 648.24 -2.9832 -3.34229 0
M  V30 6972 C 649.984 -1.29373 -4.04306 0
M  V30 6973 C 647.891 -3.53509 -4.74115 0
M  V30 6974 H 646.821 -0.314794 -0.685143 0
M  V30 6975 H 649.472 -1.33499 -1.25898 0
M  V30 6976 H 647.854 -0.917017 -3.85236 0
M  V30 6977 H 649.028 -3.60295 -2.87271 0
M  V30 6978 H 647.343 -3.15482 -2.71772 0
M  V30 6979 H 649.94 -1.68042 -5.07608 0
M  V30 6980 H 650.283 -0.235879 -4.15631 0
M  V30 6981 H 650.816 -1.8182 -3.53817 0
M  V30 6982 H 647.555 -4.58987 -4.67986 0
M  V30 6983 H 647.075 -2.96305 -5.21501 0
M  V30 6984 H 648.754 -3.51693 -5.43066 0
M  V30 6985 N 648.886 1.2938 -0.899927 0
M  V30 6986 C 649.849 2.25983 -0.382677 0
M  V30 6987 C 650.849 1.53366 0.483259 0
M  V30 6988 O 652.039 1.71798 0.28828 0
M  V30 6989 C 649.171 3.37878 0.452915 0
M  V30 6990 H 650.364 2.73252 -1.23586 0
M  V30 6991 H 647.917 1.40825 -0.678088 0
M  V30 6992 H 648.652 2.95949 1.32608 0
M  V30 6993 H 648.437 3.91742 -0.167562 0
M  V30 6994 H 649.927 4.09746 0.806107 0
M  V30 6995 N 650.364 0.662433 1.43002 0
M  V30 6996 C 651.311 -0.0235324 2.30788 0
M  V30 6997 C 652.281 -0.805342 1.4527 0
M  V30 6998 O 653.466 -0.78009 1.74124 0
M  V30 6999 C 650.606 -0.977545 3.30965 0
M  V30 7000 C 649.719 -0.190865 4.31578 0
M  V30 7001 C 648.854 -1.13951 5.18834 0
M  V30 7002 C 647.893 -0.343796 6.11134 0
M  V30 7003 N 647.03 -1.2445 6.90982 0
M  V30 7004 H 651.87 0.730921 2.88897 0
M  V30 7005 H 649.407 0.372197 1.42313 0
M  V30 7006 H 651.365 -1.54437 3.87563 0
M  V30 7007 H 649.995 -1.69877 2.74484 0
M  V30 7008 H 649.047 0.492388 3.772 0
M  V30 7009 H 650.359 0.427464 4.96965 0
M  V30 7010 H 649.513 -1.77666 5.80103 0
M  V30 7011 H 648.252 -1.79174 4.53595 0
M  V30 7012 H 647.257 0.30665 5.48944 0
M  V30 7013 H 648.482 0.304161 6.78419 0
M  V30 7014 H 646.428 -1.88336 6.28383 0
M  V30 7015 H 646.345 -0.680959 7.52927 0
M  V30 7016 H 647.613 -1.86952 7.56749 0
M  V30 7017 N 651.842 -1.52309 0.404946 0
M  V30 7018 C 652.772 -2.29805 -0.41376 0
M  V30 7019 C 653.753 -1.3384 -1.0498 0
M  V30 7020 O 654.938 -1.62745 -1.05961 0
M  V30 7021 C 652.068 -3.11639 -1.53292 0
M  V30 7022 C 651.022 -4.15616 -1.02211 0
M  V30 7023 C 650.348 -4.8577 -2.23455 0
M  V30 7024 C 651.648 -5.2224 -0.0790725 0
M  V30 7025 H 653.342 -2.98493 0.232878 0
M  V30 7026 H 650.888 -1.43552 0.113441 0
M  V30 7027 H 652.841 -3.64618 -2.11262 0
M  V30 7028 H 651.565 -2.40712 -2.20738 0
M  V30 7029 H 650.224 -3.63641 -0.46484 0
M  V30 7030 H 649.872 -4.11376 -2.89445 0
M  V30 7031 H 649.572 -5.56058 -1.89929 0
M  V30 7032 H 651.096 -5.4156 -2.82038 0
M  V30 7033 H 652.51 -5.70485 -0.567438 0
M  V30 7034 H 650.907 -5.99867 0.167167 0
M  V30 7035 H 651.977 -4.77078 0.867447 0
M  V30 7036 N 653.32 -0.135238 -1.57019 0
M  V30 7037 C 654.548 0.526066 -2.001 0
M  V30 7038 C 654.963 1.59184 -1.01519 0
M  V30 7039 O 654.32 1.82497 -0.0104258 0
M  V30 7040 C 654.371 1.13744 -3.43139 0
M  V30 7041 O 654.092 0.114259 -4.37951 0
M  V30 7042 C 655.593 1.8805 -4.01438 0
M  V30 7043 H 652.813 0.137962 -0.656664 0
M  V30 7044 H 655.357 -0.226359 -2.03243 0
M  V30 7045 H 653.512 1.84056 -3.40885 0
M  V30 7046 H 653.926 0.56058 -5.21496 0
M  V30 7047 H 655.4 2.26133 -5.03555 0
M  V30 7048 H 655.877 2.76194 -3.41487 0
M  V30 7049 H 656.483 1.22464 -4.07287 0
M  V30 7050 N 654.798 1.5699 0.138552 0
M  V30 7051 C 655.708 2.02174 1.19008 0
M  V30 7052 C 656.724 0.938622 1.46512 0
M  V30 7053 O 657.9 1.24872 1.58016 0
M  V30 7054 C 654.965 2.40045 2.50159 0
M  V30 7055 C 654.026 3.62346 2.30226 0
M  V30 7056 C 653.259 3.98401 3.55123 0
M  V30 7057 O 653.482 3.35019 4.61647 0
M  V30 7058 O 652.416 4.91606 3.47285 0
M  V30 7059 H 656.242 2.91954 0.836452 0
M  V30 7060 H 653.827 1.45293 0.347907 0
M  V30 7061 H 655.709 2.65225 3.27465 0
M  V30 7062 H 654.384 1.53417 2.85035 0
M  V30 7063 H 653.291 3.42341 1.50843 0
M  V30 7064 H 654.624 4.49617 2.00262 0
M  V30 7065 N 656.276 -0.40816 1.52223 0
M  V30 7066 C 657.186 -1.52202 1.78526 0
M  V30 7067 C 658.202 -1.60546 0.670892 0
M  V30 7068 O 659.378 -1.77242 0.956404 0
M  V30 7069 C 656.443 -2.87928 1.93128 0
M  V30 7070 C 655.504 -2.89463 3.17033 0
M  V30 7071 C 654.737 -4.18715 3.30929 0
M  V30 7072 O 654.96 -5.12662 2.50067 0
M  V30 7073 O 653.894 -4.27125 4.24084 0
M  V30 7074 H 657.72 -1.32911 2.73072 0
M  V30 7075 H 655.305 -0.594112 1.37079 0
M  V30 7076 H 657.187 -3.68426 2.04549 0
M  V30 7077 H 655.862 -3.07285 1.01772 0
M  V30 7078 H 654.769 -2.07815 3.11069 0
M  V30 7079 H 656.102 -2.75055 4.08174 0
M  V30 7080 N 657.755 -1.42862 -0.66545 0
M  V30 7081 C 659.004 -1.43119 -1.42126 0
M  V30 7082 C 659.317 -0.0545297 -1.95524 0
M  V30 7083 O 660.523 0.0654747 -2.71421 0
M  V30 7084 C 658.979 -2.51797 -2.5715 0
M  V30 7085 C 658.587 -3.95514 -2.10411 0
M  V30 7086 C 660.331 -2.61233 -3.346 0
M  V30 7087 C 658.238 -4.95682 -3.22573 0
M  V30 7088 H 657.168 -0.532349 -0.533966 0
M  V30 7089 H 659.819 -1.68806 -0.719506 0
M  V30 7090 H 658.201 -2.19292 -3.29738 0
M  V30 7091 H 659.375 -4.3742 -1.44915 0
M  V30 7092 H 657.69 -3.90012 -1.45874 0
M  V30 7093 H 660.287 -3.33248 -4.18151 0
M  V30 7094 H 660.63 -1.65896 -3.81817 0
M  V30 7095 H 661.163 -2.9298 -2.69087 0
M  V30 7096 H 657.902 -5.92529 -2.80338 0
M  V30 7097 H 657.422 -4.58399 -3.86821 0
M  V30 7098 H 659.101 -5.17828 -3.87896 0
M  V30 7099 N 659.233 0.902656 -1.29189 0
M  V30 7100 C 660.196 1.98797 -1.14071 0
M  V30 7101 C 661.196 1.60615 -0.0770549 0
M  V30 7102 O 662.386 1.71165 -0.323753 0
M  V30 7103 C 659.518 3.32688 -0.743739 0
M  V30 7104 H 660.711 2.13637 -2.10473 0
M  V30 7105 H 658.264 1.08678 -1.12334 0
M  V30 7106 H 658.999 3.23549 0.220554 0
M  V30 7107 H 658.784 3.61765 -1.51223 0
M  V30 7108 H 660.274 4.12337 -0.660935 0
M  V30 7109 N 660.711 1.11618 1.11262 0
M  V30 7110 C 661.658 0.7762 2.17356 0
M  V30 7111 C 662.628 -0.253152 1.6416 0
M  V30 7112 O 663.813 -0.129655 1.90359 0
M  V30 7113 C 660.953 0.227581 3.44349 0
M  V30 7114 C 660.066 1.31372 4.1154 0
M  V30 7115 C 659.201 0.72544 5.26223 0
M  V30 7116 C 658.24 1.7913 5.85302 0
M  V30 7117 N 657.377 1.22237 6.91377 0
M  V30 7118 H 662.217 1.68508 2.45783 0
M  V30 7119 H 659.754 0.841475 1.20655 0
M  V30 7120 H 661.712 -0.108483 4.17059 0
M  V30 7121 H 660.342 -0.644486 3.16301 0
M  V30 7122 H 659.394 1.7667 3.36885 0
M  V30 7123 H 660.706 2.12005 4.51504 0
M  V30 7124 H 659.86 0.339541 6.05749 0
M  V30 7125 H 658.599 -0.112188 4.87571 0
M  V30 7126 H 657.604 2.18648 5.04453 0
M  V30 7127 H 658.829 2.63199 6.26022 0
M  V30 7128 H 656.775 0.406423 6.5474 0
M  V30 7129 H 656.692 1.9654 7.30006 0
M  V30 7130 H 657.96 0.863426 7.74703 0
M  V30 7131 N 662.189 -1.289 0.906776 0
M  V30 7132 C 663.119 -2.29932 0.406659 0
M  V30 7133 C 664.1 -1.6189 -0.522061 0
M  V30 7134 O 665.285 -1.8935 -0.431283 0
M  V30 7135 C 662.415 -3.45425 -0.360366 0
M  V30 7136 C 661.369 -4.25316 0.478574 0
M  V30 7137 C 660.695 -5.33076 -0.416373 0
M  V30 7138 C 661.995 -4.92739 1.7322 0
M  V30 7139 H 663.689 -2.72013 1.25097 0
M  V30 7140 H 661.235 -1.30768 0.602977 0
M  V30 7141 H 663.188 -4.15186 -0.721029 0
M  V30 7142 H 661.912 -3.02206 -1.23852 0
M  V30 7143 H 660.571 -3.57273 0.821662 0
M  V30 7144 H 660.219 -4.86101 -1.29287 0
M  V30 7145 H 659.919 -5.8743 0.141309 0
M  V30 7146 H 661.443 -6.05686 -0.773072 0
M  V30 7147 H 662.857 -5.54898 1.44086 0
M  V30 7148 H 661.254 -5.57057 2.23175 0
M  V30 7149 H 662.324 -4.17625 2.46408 0
M  V30 7150 N 663.667 -0.670007 -1.42649 0
M  V30 7151 C 665.083 -0.33911 -1.55956 0
M  V30 7152 C 665.283 1.1558 -1.65056 0
M  V30 7153 O 664.339 1.94111 -1.61485 0
M  V30 7154 C 665.652 -1.06522 -2.812 0
M  V30 7155 C 667.2 -1.04708 -2.94966 0
M  V30 7156 C 667.675 -1.75442 -4.23065 0
M  V30 7157 N 669.166 -1.72286 -4.29967 0
M  V30 7158 C 669.901 -2.23877 -5.27889 0
M  V30 7159 N 669.397 -2.83829 -6.31991 0
M  V30 7160 N 671.19 -2.14279 -5.19654 0
M  V30 7161 H 663.341 -1.6399 -1.34986 0
M  V30 7162 H 665.604 -0.690603 -0.649439 0
M  V30 7163 H 665.31 -2.12033 -2.80597 0
M  V30 7164 H 665.184 -0.627398 -3.71946 0
M  V30 7165 H 667.571 -0.000315966 -2.951 0
M  V30 7166 H 667.652 -1.52374 -2.05465 0
M  V30 7167 H 667.296 -2.80084 -4.23693 0
M  V30 7168 H 667.226 -1.25229 -5.11493 0
M  V30 7169 H 669.717 -1.28554 -3.55362 0
M  V30 7170 H 670.03 -3.20827 -7.03057 0
M  V30 7171 H 668.375 -2.87896 -6.32567 0
M  V30 7172 H 671.566 -1.67135 -4.37245 0
M  V30 7173 H 671.739 -2.54792 -5.95806 0
M  V30 7174 N 665.145 1.52092 -0.413018 0
M  V30 7175 C 666.108 2.25706 0.398687 0
M  V30 7176 C 667.108 1.28221 0.970368 0
M  V30 7177 O 668.298 1.52131 0.848635 0
M  V30 7178 C 665.43 3.03029 1.5616 0
M  V30 7179 H 666.623 2.98888 -0.246131 0
M  V30 7180 H 664.176 1.5542 -0.165622 0
M  V30 7181 H 664.911 2.34205 2.24317 0
M  V30 7182 H 664.696 3.74606 1.15812 0
M  V30 7183 H 666.186 3.58857 2.13569 0
M  V30 7184 N 666.623 0.143563 1.56945 0
M  V30 7185 C 667.533 -0.810562 2.20152 0
M  V30 7186 C 668.549 -1.27431 1.1848 0
M  V30 7187 O 669.725 -1.33221 1.51044 0
M  V30 7188 C 666.79 -2.03353 2.80799 0
M  V30 7189 C 665.851 -1.61936 3.97587 0
M  V30 7190 C 665.084 -2.78403 4.55332 0
M  V30 7191 O 665.307 -3.94521 4.11958 0
M  V30 7192 O 664.241 -2.54073 5.45647 0
M  V30 7193 H 668.067 -0.30253 3.02189 0
M  V30 7194 H 665.652 -0.0832925 1.49168 0
M  V30 7195 H 667.534 -2.74932 3.19359 0
M  V30 7196 H 666.209 -2.53116 2.01777 0
M  V30 7197 H 665.116 -0.873904 3.6375 0
M  V30 7198 H 666.449 -1.16892 4.78118 0
M  V30 7199 N 668.101 -1.57061 -0.130224 0
M  V30 7200 C 669.347 -1.85412 -0.836295 0
M  V30 7201 C 669.702 -0.729831 -1.7802 0
M  V30 7202 O 668.995 0.271021 -1.89673 0
M  V30 7203 C 669.189 -3.17878 -1.63365 0
M  V30 7204 C 669.018 -4.43086 -0.768453 0
M  V30 7205 C 667.788 -5.03488 -0.427598 0
M  V30 7206 C 669.986 -5.14219 -0.0911495 0
M  V30 7207 N 667.968 -6.12253 0.449439 0
M  V30 7208 C 669.339 -6.16632 0.645341 0
M  V30 7209 C 671.394 -4.97898 -0.0135625 0
M  V30 7210 C 670.097 -7.0449 1.45212 0
M  V30 7211 C 672.123 -5.86234 0.780001 0
M  V30 7212 C 671.485 -6.88141 1.50472 0
M  V30 7213 H 667.584 -0.728875 -0.283311 0
M  V30 7214 H 670.168 -1.9444 -0.100662 0
M  V30 7215 H 668.339 -3.09967 -2.3404 0
M  V30 7216 H 670.071 -3.34076 -2.28419 0
M  V30 7217 H 666.826 -4.67344 -0.767264 0
M  V30 7218 H 667.25 -6.71263 0.879476 0
M  V30 7219 H 671.892 -4.19082 -0.559511 0
M  V30 7220 H 669.61 -7.82722 2.00926 0
M  V30 7221 H 673.196 -5.75671 0.842246 0
M  V30 7222 H 672.076 -7.55311 2.1089 0
M  V30 7223 N 669.579 0.400081 -1.52437 0
M  V30 7224 C 670.489 1.51253 -1.79331 0
M  V30 7225 C 671.505 1.60188 -0.679396 0
M  V30 7226 O 672.681 1.76733 -0.965791 0
M  V30 7227 C 669.746 2.869 -1.94652 0
M  V30 7228 C 668.807 2.87777 -3.18564 0
M  V30 7229 C 668.04 4.16954 -3.33145 0
M  V30 7230 O 668.263 5.11329 -2.52783 0
M  V30 7231 O 667.197 4.2487 -4.26343 0
M  V30 7232 H 671.023 1.31461 -2.73773 0
M  V30 7233 H 668.608 0.586834 -1.37392 0
M  V30 7234 H 670.49 3.67336 -2.065 0
M  V30 7235 H 669.165 3.06741 -1.034 0
M  V30 7236 H 668.072 2.06162 -3.12167 0
M  V30 7237 H 669.405 2.72886 -4.09627 0
M  V30 7238 N 671.057 1.43213 0.657864 0
M  V30 7239 C 672.473 1.26511 0.972992 0
M  V30 7240 C 672.673 0.181477 2.00681 0
M  V30 7241 O 671.729 -0.441649 2.48608 0
M  V30 7242 C 673.042 2.62784 1.46168 0
M  V30 7243 C 674.59 2.70278 1.57857 0
M  V30 7244 C 675.065 4.06958 2.10117 0
M  V30 7245 N 676.556 4.08999 2.17426 0
M  V30 7246 C 677.291 5.11585 2.58975 0
M  V30 7247 N 676.787 6.24548 2.99853 0
M  V30 7248 N 678.58 4.9894 2.58873 0
M  V30 7249 H 670.731 2.12384 -0.0263129 0
M  V30 7250 H 672.994 0.946638 0.0507992 0
M  V30 7251 H 672.7 3.43022 0.776474 0
M  V30 7252 H 672.574 2.87863 2.43751 0
M  V30 7253 H 674.961 1.90376 2.25479 0
M  V30 7254 H 675.042 2.4897 0.587179 0
M  V30 7255 H 674.686 4.87325 1.43098 0
M  V30 7256 H 674.616 4.25628 3.10078 0
M  V30 7257 H 677.107 3.27457 1.88627 0
M  V30 7258 H 677.42 6.98661 3.30292 0
M  V30 7259 H 675.765 6.28027 2.97669 0
M  V30 7260 H 678.956 4.09757 2.26311 0
M  V30 7261 H 679.129 5.79019 2.90932 0
M  V30 7262 N 672.536 -0.895792 1.29666 0
M  V30 7263 C 673.446 -2.03329 1.17024 0
M  V30 7264 C 674.462 -1.73753 0.0925962 0
M  V30 7265 O 675.638 -1.99071 0.305431 0
M  V30 7266 C 672.703 -3.36072 0.851841 0
M  V30 7267 C 671.764 -3.7914 2.01373 0
M  V30 7268 C 670.997 -5.05549 1.71043 0
M  V30 7269 O 671.22 -5.66874 0.633213 0
M  V30 7270 O 670.154 -5.44764 2.5596 0
M  V30 7271 H 673.98 -2.16918 2.12556 0
M  V30 7272 H 671.565 -1.02007 1.09156 0
M  V30 7273 H 673.447 -4.15729 0.689006 0
M  V30 7274 H 672.122 -3.23616 -0.0736634 0
M  V30 7275 H 671.029 -3.00233 2.23183 0
M  V30 7276 H 672.362 -3.96186 2.92058 0
M  V30 7277 N 674.014 -1.12206 -1.10668 0
M  V30 7278 C 675.43 -0.857619 -1.346 0
M  V30 7279 C 675.63 0.513542 -1.94846 0
M  V30 7280 O 674.686 1.26273 -2.18658 0
M  V30 7281 C 675.999 -1.97212 -2.26998 0
M  V30 7282 C 677.547 -2.00272 -2.40542 0
M  V30 7283 C 678.022 -3.10948 -3.36267 0
M  V30 7284 N 679.513 -3.10375 -3.43834 0
M  V30 7285 C 680.248 -3.92651 -4.17867 0
M  V30 7286 N 679.744 -4.84911 -4.94807 0
M  V30 7287 N 681.537 -3.80798 -4.1346 0
M  V30 7288 H 673.688 -2.00558 -0.699306 0
M  V30 7289 H 675.951 -0.872612 -0.370477 0
M  V30 7290 H 675.657 -2.96002 -1.89936 0
M  V30 7291 H 675.531 -1.87521 -3.27286 0
M  V30 7292 H 677.918 -1.02103 -2.76874 0
M  V30 7293 H 677.999 -2.14037 -1.40077 0
M  V30 7294 H 677.643 -4.09348 -3.00661 0
M  V30 7295 H 677.573 -2.94421 -4.36605 0
M  V30 7296 H 680.064 -2.43536 -2.88961 0
M  V30 7297 H 680.377 -5.44207 -5.48688 0
M  V30 7298 H 678.722 -4.88926 -4.93939 0
M  V30 7299 H 681.913 -3.08058 -3.52445 0
M  V30 7300 H 682.086 -4.4515 -4.70898 0
M  V30 7301 N 675.492 1.28418 -0.913599 0
M  V30 7302 C 676.402 2.31043 -0.406965 0
M  V30 7303 C 677.418 1.66501 0.505298 0
M  V30 7304 O 678.594 1.97558 0.391522 0
M  V30 7305 C 675.659 3.4498 0.344901 0
M  V30 7306 C 674.72 4.25078 -0.600563 0
M  V30 7307 C 673.953 5.33575 0.115516 0
M  V30 7308 O 674.176 5.54503 1.33727 0
M  V30 7309 O 673.11 5.9939 -0.549095 0
M  V30 7310 H 676.936 2.76387 -1.25873 0
M  V30 7311 H 674.521 1.33109 -0.678415 0
M  V30 7312 H 676.403 4.14314 0.769542 0
M  V30 7313 H 675.078 3.01719 1.1725 0
M  V30 7314 H 673.985 3.58334 -1.0746 0
M  V30 7315 H 675.318 4.72018 -1.39497 0
M  V30 7316 N 676.97 0.677563 1.42291 0
M  V30 7317 C 678.219 0.198173 2.00724 0
M  V30 7318 C 678.532 -1.20325 1.54211 0
M  V30 7319 O 679.738 -1.77916 2.05081 0
M  V30 7320 C 678.194 0.303432 3.58619 0
M  V30 7321 C 677.802 1.70909 4.14119 0
M  V30 7322 C 679.546 -0.117103 4.24338 0
M  V30 7323 C 677.453 1.76696 5.64387 0
M  V30 7324 H 676.383 0.070329 0.750713 0
M  V30 7325 H 679.034 0.843147 1.62982 0
M  V30 7326 H 677.416 -0.409482 3.93877 0
M  V30 7327 H 678.59 2.44931 3.90315 0
M  V30 7328 H 676.905 2.07771 3.6086 0
M  V30 7329 H 679.502 -0.0940471 5.34617 0
M  V30 7330 H 679.845 -1.15283 4.00019 0
M  V30 7331 H 680.378 0.5449 3.9405 0
M  V30 7332 H 677.117 2.7826 5.93508 0
M  V30 7333 H 676.637 1.07034 5.90173 0
M  V30 7334 H 678.316 1.52166 6.28852 0
M  V30 7335 N 678.448 -1.51871 0.421078 0
M  V30 7336 C 679.378 -2.30231 -0.389363 0
M  V30 7337 C 680.359 -1.34946 -1.03555 0
M  V30 7338 O 681.544 -1.63859 -1.04229 0
M  V30 7339 C 678.674 -3.13247 -1.49979 0
M  V30 7340 C 677.628 -4.16677 -0.977966 0
M  V30 7341 C 676.954 -4.88112 -2.1829 0
M  V30 7342 C 678.254 -5.22295 -0.0236775 0
M  V30 7343 H 679.948 -2.98229 0.264524 0
M  V30 7344 H 677.494 -1.43424 0.12866 0
M  V30 7345 H 679.447 -3.66838 -2.07383 0
M  V30 7346 H 678.171 -2.4304 -2.18173 0
M  V30 7347 H 676.83 -3.64114 -0.426245 0
M  V30 7348 H 676.478 -4.14423 -2.85066 0
M  V30 7349 H 676.178 -5.58041 -1.84021 0
M  V30 7350 H 677.702 -5.44521 -2.76278 0
M  V30 7351 H 679.116 -5.71055 -0.506899 0
M  V30 7352 H 677.513 -5.99656 0.230782 0
M  V30 7353 H 678.583 -4.76131 0.917999 0
M  V30 7354 N 679.926 -0.151884 -1.56866 0
M  V30 7355 C 681.342 0.204486 -1.58285 0
M  V30 7356 C 681.542 1.6431 -1.16639 0
M  V30 7357 O 680.598 2.37077 -0.868946 0
M  V30 7358 C 681.911 -0.0587019 -3.00643 0
M  V30 7359 C 683.459 0.00462303 -3.13 0
M  V30 7360 C 683.934 -0.231297 -4.57416 0
M  V30 7361 N 685.425 -0.178394 -4.62856 0
M  V30 7362 C 686.16 -0.335379 -5.72418 0
M  V30 7363 N 685.656 -0.550355 -6.90611 0
M  V30 7364 N 687.449 -0.272641 -5.61438 0
M  V30 7365 H 679.6 -1.09116 -1.82229 0
M  V30 7366 H 681.863 -0.432311 -0.843689 0
M  V30 7367 H 681.569 -1.05453 -3.35518 0
M  V30 7368 H 681.443 0.658508 -3.71407 0
M  V30 7369 H 683.83 0.991009 -2.77962 0
M  V30 7370 H 683.911 -0.744992 -2.44711 0
M  V30 7371 H 683.555 -1.2148 -4.93158 0
M  V30 7372 H 683.485 0.5387 -5.23837 0
M  V30 7373 H 685.976 -0.0170923 -3.77896 0
M  V30 7374 H 686.289 -0.660116 -7.69976 0
M  V30 7375 H 684.634 -0.586736 -6.92519 0
M  V30 7376 H 687.825 -0.105421 -4.67981 0
M  V30 7377 H 687.998 -0.398418 -6.46774 0
M  V30 7378 N 681.404 1.57128 0.121893 0
M  V30 7379 C 682.351 2.0013 1.14964 0
M  V30 7380 C 683.321 0.872959 1.4131 0
M  V30 7381 O 684.506 1.13696 1.53225 0
M  V30 7382 C 681.646 2.40824 2.4718 0
M  V30 7383 C 680.759 3.67061 2.27794 0
M  V30 7384 C 679.894 3.96749 3.53219 0
M  V30 7385 C 678.933 5.16178 3.28978 0
M  V30 7386 N 678.07 5.41751 4.46599 0
M  V30 7387 H 682.91 2.8772 0.775947 0
M  V30 7388 H 680.447 1.42328 0.371652 0
M  V30 7389 H 682.405 2.62454 3.24305 0
M  V30 7390 H 681.035 1.56279 2.82448 0
M  V30 7391 H 680.087 3.53063 1.416 0
M  V30 7392 H 681.399 4.5434 2.05857 0
M  V30 7393 H 680.553 4.19012 4.38764 0
M  V30 7394 H 679.292 3.07941 3.78185 0
M  V30 7395 H 678.297 4.93762 2.41824 0
M  V30 7396 H 679.522 6.06561 3.05386 0
M  V30 7397 H 677.468 4.55899 4.71691 0
M  V30 7398 H 677.385 6.23347 4.27756 0
M  V30 7399 H 678.653 5.68531 5.33285 0
M  V30 7400 N 682.882 -0.391992 1.52647 0
M  V30 7401 C 683.812 -1.48517 1.8018 0
M  V30 7402 C 684.793 -1.57039 0.653667 0
M  V30 7403 O 685.978 -1.72036 0.900962 0
M  V30 7404 C 683.108 -2.86161 1.96797 0
M  V30 7405 C 682.062 -2.92481 3.12472 0
M  V30 7406 C 681.388 -4.32546 3.14338 0
M  V30 7407 C 682.688 -2.624 4.51601 0
M  V30 7408 H 684.382 -1.25726 2.71723 0
M  V30 7409 H 681.928 -0.603387 1.30749 0
M  V30 7410 H 683.881 -3.62639 2.14641 0
M  V30 7411 H 682.605 -3.10283 1.01941 0
M  V30 7412 H 681.264 -2.18451 2.94406 0
M  V30 7413 H 680.912 -4.53703 2.1717 0
M  V30 7414 H 680.612 -4.37695 3.92042 0
M  V30 7415 H 682.136 -5.10934 3.34333 0
M  V30 7416 H 683.55 -3.28596 4.69785 0
M  V30 7417 H 681.947 -2.78903 5.3135 0
M  V30 7418 H 683.017 -1.57754 4.58521 0
M  V30 7419 N 684.36 -1.4356 -0.65026 0
M  V30 7420 C 685.776 -1.27025 -0.966269 0
M  V30 7421 C 685.976 -0.192117 -2.00582 0
M  V30 7422 O 685.032 0.428459 -2.48838 0
M  V30 7423 C 686.345 -2.63556 -1.44772 0
M  V30 7424 C 687.893 -2.71111 -1.56421 0
M  V30 7425 C 688.368 -4.08067 -2.07956 0
M  V30 7426 N 689.859 -4.10146 -2.15254 0
M  V30 7427 C 690.594 -5.12952 -2.56258 0
M  V30 7428 N 690.09 -6.26129 -2.96537 0
M  V30 7429 N 691.883 -5.00306 -2.56224 0
M  V30 7430 H 684.034 -2.12367 0.0375758 0
M  V30 7431 H 686.297 -0.946894 -0.0457782 0
M  V30 7432 H 686.003 -3.43429 -0.758271 0
M  V30 7433 H 685.877 -2.89152 -2.42221 0
M  V30 7434 H 688.264 -1.91569 -2.24467 0
M  V30 7435 H 688.345 -2.49277 -0.573967 0
M  V30 7436 H 687.989 -4.88077 -1.40511 0
M  V30 7437 H 687.919 -4.27266 -3.07817 0
M  V30 7438 H 690.41 -3.28453 -1.86887 0
M  V30 7439 H 690.723 -7.00403 -3.26582 0
M  V30 7440 H 689.068 -6.29597 -2.94334 0
M  V30 7441 H 692.259 -4.10952 -2.24135 0
M  V30 7442 H 692.432 -5.80553 -2.87857 0
M  V30 7443 N 685.838 0.888903 -1.30139 0
M  V30 7444 C 686.748 2.02705 -1.18101 0
M  V30 7445 C 687.764 1.73702 -0.101809 0
M  V30 7446 O 688.94 1.98906 -0.315984 0
M  V30 7447 C 686.005 3.35616 -0.869651 0
M  V30 7448 C 685.066 3.78067 -2.03381 0
M  V30 7449 C 684.299 5.04635 -1.73721 0
M  V30 7450 O 684.522 5.66531 -0.663267 0
M  V30 7451 O 683.456 5.43399 -2.58845 0
M  V30 7452 H 687.282 2.15788 -2.13704 0
M  V30 7453 H 684.867 1.01426 -1.09695 0
M  V30 7454 H 686.749 4.15358 -0.711043 0
M  V30 7455 H 685.424 3.23651 0.0565002 0
M  V30 7456 H 684.331 2.99046 -2.24772 0
M  V30 7457 H 685.664 3.94631 -2.94155 0
M  V30 7458 N 687.317 1.12792 1.10072 0
M  V30 7459 C 688.28 0.802264 2.14701 0
M  V30 7460 C 689.28 -0.18515 1.59731 0
M  V30 7461 O 690.47 0.041109 1.74151 0
M  V30 7462 C 687.602 0.19285 3.40354 0
M  V30 7463 H 688.795 1.72932 2.45019 0
M  V30 7464 H 686.348 0.931662 1.25498 0
M  V30 7465 H 687.083 -0.743748 3.15656 0
M  V30 7466 H 686.868 0.903827 3.81541 0
M  V30 7467 H 688.358 -0.0183704 4.17596 0
M  V30 7468 N 688.795 -1.27931 0.920396 0
M  V30 7469 C 689.727 -2.26175 0.371169 0
M  V30 7470 C 690.74 -1.55122 -0.494065 0
M  V30 7471 O 691.929 -1.75825 -0.30787 0
M  V30 7472 C 689.029 -3.35376 -0.487481 0
M  V30 7473 C 688.202 -4.35943 0.356772 0
M  V30 7474 C 687.261 -5.24374 -0.438042 0
M  V30 7475 O 686.287 -5.68998 0.151715 0
M  V30 7476 N 687.489 -5.53823 -1.73956 0
M  V30 7477 H 690.254 -2.73938 1.21564 0
M  V30 7478 H 687.815 -1.41482 0.787047 0
M  V30 7479 H 689.807 -3.91476 -1.02609 0
M  V30 7480 H 688.377 -2.87269 -1.23269 0
M  V30 7481 H 687.597 -3.7921 1.07672 0
M  V30 7482 H 688.885 -5.0015 0.934206 0
M  V30 7483 H 688.283 -5.19413 -2.24114 0
M  V30 7484 H 686.84 -6.12653 -2.22486 0
M  V30 7485 N 690.273 -0.685099 -1.4193 0
M  V30 7486 C 691.223 0.00977295 -2.27998 0
M  V30 7487 C 692.207 0.763315 -1.41641 0
M  V30 7488 O 693.399 0.640532 -1.65004 0
M  V30 7489 C 690.528 0.952972 -3.29808 0
M  V30 7490 C 689.614 0.196231 -4.23646 0
M  V30 7491 N 690.005 -0.804401 -4.99363 0
M  V30 7492 C 688.303 0.433213 -4.43891 0
M  V30 7493 C 689.004 -1.25646 -5.67968 0
M  V30 7494 N 687.98 -0.5844 -5.4045 0
M  V30 7495 H 691.782 -0.757586 -2.83968 0
M  V30 7496 H 689.296 -0.515037 -1.54017 0
M  V30 7497 H 691.293 1.46585 -3.9028 0
M  V30 7498 H 689.953 1.72004 -2.75399 0
M  V30 7499 H 690.964 -1.18429 -5.04177 0
M  V30 7500 H 687.641 1.17899 -4.00507 0
M  V30 7501 H 689.031 -2.08622 -6.38691 0
M  V30 7502 N 691.751 1.51645 -0.429126 0
M  V30 7503 C 693.167 1.59394 -0.080994 0
M  V30 7504 C 693.367 1.44064 1.40882 0
M  V30 7505 O 692.423 1.27771 2.17786 0
M  V30 7506 C 693.736 2.94779 -0.593773 0
M  V30 7507 C 695.284 3.08067 -0.553494 0
M  V30 7508 C 695.759 4.45963 -1.04311 0
M  V30 7509 N 697.25 4.5226 -1.00076 0
M  V30 7510 C 697.985 5.57268 -1.35056 0
M  V30 7511 N 697.481 6.69734 -1.77282 0
M  V30 7512 N 699.274 5.47582 -1.26925 0
M  V30 7513 H 691.425 1.59856 -1.39857 0
M  V30 7514 H 693.688 0.753095 -0.575805 0
M  V30 7515 H 693.394 3.11342 -1.63583 0
M  V30 7516 H 693.268 3.77197 -0.0142202 0
M  V30 7517 H 695.655 2.91177 0.479556 0
M  V30 7518 H 695.736 2.27508 -1.16935 0
M  V30 7519 H 695.38 4.63598 -2.07459 0
M  V30 7520 H 695.31 5.25049 -0.403873 0
M  V30 7521 H 697.801 3.71537 -0.690564 0
M  V30 7522 H 698.114 7.4587 -2.02232 0
M  V30 7523 H 696.459 6.70963 -1.81202 0
M  V30 7524 H 699.65 4.58604 -0.93809 0
M  V30 7525 H 699.823 6.29308 -1.54516 0
M  V30 7526 N 693.229 0.160201 1.56784 0
M  V30 7527 C 694.159 -0.770264 2.2043 0
M  V30 7528 C 695.14 -1.24736 1.15651 0
M  V30 7529 O 696.325 -1.30253 1.44041 0
M  V30 7530 C 693.455 -2.00427 2.83631 0
M  V30 7531 C 692.409 -1.66345 3.94352 0
M  V30 7532 C 691.735 -2.97119 4.4455 0
M  V30 7533 C 693.035 -0.899972 5.14488 0
M  V30 7534 H 694.729 -0.239783 2.98438 0
M  V30 7535 H 692.275 -0.113891 1.43549 0
M  V30 7536 H 694.228 -2.66012 3.26827 0
M  V30 7537 H 692.952 -2.5587 2.02973 0
M  V30 7538 H 691.611 -1.03133 3.51794 0
M  V30 7539 H 691.259 -3.5058 3.60698 0
M  V30 7540 H 690.959 -2.75073 5.19238 0
M  V30 7541 H 692.483 -3.63753 4.90425 0
M  V30 7542 H 693.897 -1.45818 5.54446 0
M  V30 7543 H 692.294 -0.778968 5.95023 0
M  V30 7544 H 693.364 0.105827 4.84785 0
M  V30 7545 N 694.707 -1.5719 -0.113559 0
M  V30 7546 C 695.984 -1.76117 -0.850999 0
M  V30 7547 C 696.364 -0.737085 -1.97814 0
M  V30 7548 O 695.712 0.237942 -2.27258 0
M  V30 7549 C 695.922 -3.21298 -1.36266 0
M  V30 7550 C 697.27 -3.83955 -1.81283 0
M  V30 7551 O 698.294 -3.24934 -1.45933 0
M  V30 7552 O 697.153 -4.87707 -2.46585 0
M  V30 7553 H 694.247 -0.721308 -0.404529 0
M  V30 7554 H 696.793 -1.69423 -0.0968756 0
M  V30 7555 H 695.565 -3.87355 -0.554235 0
M  V30 7556 H 695.188 -3.32552 -2.17933 0
M  V30 7557 N 696.185 0.383891 -1.52853 0
M  V30 7558 C 697.095 1.49343 -1.80925 0
M  V30 7559 C 698.111 1.59458 -0.696348 0
M  V30 7560 O 699.287 1.75698 -0.984481 0
M  V30 7561 C 696.352 2.84819 -1.97684 0
M  V30 7562 C 695.413 2.84382 -3.21598 0
M  V30 7563 C 694.646 4.13397 -3.37548 0
M  V30 7564 O 694.869 5.08619 -2.58192 0
M  V30 7565 O 693.803 4.20325 -4.30826 0
M  V30 7566 H 697.629 1.2855 -2.75152 0
M  V30 7567 H 695.214 0.572229 -1.38007 0
M  V30 7568 H 697.096 3.65125 -2.10385 0
M  V30 7569 H 695.771 3.05627 -1.06647 0
M  V30 7570 H 694.678 2.0284 -3.14336 0
M  V30 7571 H 696.011 2.68526 -4.12498 0
M  V30 7572 N 697.663 1.43903 0.642637 0
M  V30 7573 C 698.909 1.46296 1.40447 0
M  V30 7574 C 699.242 0.0908361 1.93987 0
M  V30 7575 O 698.517 -0.889884 1.72949 0
M  V30 7576 C 698.8 2.51399 2.57819 0
M  V30 7577 C 698.653 3.97926 2.09702 0
M  V30 7578 C 699.972 2.53125 3.60022 0
M  V30 7579 H 697.091 0.532676 0.509338 0
M  V30 7580 H 699.733 1.75515 0.727635 0
M  V30 7581 H 697.883 2.26614 3.1556 0
M  V30 7582 H 699.555 4.33804 1.5688 0
M  V30 7583 H 697.798 4.10252 1.40982 0
M  V30 7584 H 698.469 4.67096 2.94152 0
M  V30 7585 H 700.945 2.75242 3.12059 0
M  V30 7586 H 699.821 3.28589 4.39682 0
M  V30 7587 H 700.082 1.56895 4.13324 0
M  V30 7588 N 699.141 -0.881989 1.30609 0
M  V30 7589 C 700.557 -1.16576 1.09005 0
M  V30 7590 C 700.757 -2.00961 -0.14727 0
M  V30 7591 O 699.813 -2.38117 -0.840036 0
M  V30 7592 C 701.126 -1.86954 2.35518 0
M  V30 7593 C 702.674 -1.99706 2.41011 0
M  V30 7594 C 703.149 -2.73497 3.67374 0
M  V30 7595 N 704.64 -2.8104 3.68199 0
M  V30 7596 C 705.375 -3.38718 4.62664 0
M  V30 7597 N 704.871 -3.97421 5.67475 0
M  V30 7598 N 706.664 -3.36561 4.50203 0
M  V30 7599 H 698.815 -0.319398 2.09985 0
M  V30 7600 H 701.078 -0.204058 0.925778 0
M  V30 7601 H 700.784 -1.32393 3.2583 0
M  V30 7602 H 700.658 -2.87317 2.44395 0
M  V30 7603 H 703.045 -2.53436 1.51176 0
M  V30 7604 H 703.126 -0.984218 2.36108 0
M  V30 7605 H 702.77 -2.20438 4.57569 0
M  V30 7606 H 702.7 -3.75163 3.6954 0
M  V30 7607 H 705.191 -2.39365 2.92426 0
M  V30 7608 H 705.504 -4.39507 6.35652 0
M  V30 7609 H 703.849 -3.95832 5.71264 0
M  V30 7610 H 707.04 -2.8993 3.67503 0
M  V30 7611 H 707.213 -3.81215 5.24003 0
M  V30 7612 N 700.619 -1.13374 -1.09472 0
M  V30 7613 C 702.035 -0.871846 -1.33682 0
M  V30 7614 C 702.235 0.492847 -1.9538 0
M  V30 7615 O 701.291 1.23946 -2.19985 0
M  V30 7616 C 702.604 -1.99608 -2.24893 0
M  V30 7617 C 704.152 -2.02812 -2.38404 0
M  V30 7618 C 704.627 -3.14497 -3.3295 0
M  V30 7619 N 706.118 -3.14004 -3.40523 0
M  V30 7620 C 706.853 -3.97061 -4.13679 0
M  V30 7621 N 706.349 -4.90131 -4.89636 0
M  V30 7622 N 708.142 -3.85162 -4.09398 0
M  V30 7623 H 700.293 -2.01288 -0.677995 0
M  V30 7624 H 702.556 -0.876492 -0.361201 0
M  V30 7625 H 702.262 -2.98 -1.86786 0
M  V30 7626 H 702.136 -1.90981 -3.25278 0
M  V30 7627 H 704.523 -1.05034 -2.75775 0
M  V30 7628 H 704.604 -2.15511 -1.37799 0
M  V30 7629 H 704.248 -4.12514 -2.96302 0
M  V30 7630 H 704.178 -2.99035 -4.33458 0
M  V30 7631 H 706.669 -2.46587 -2.86362 0
M  V30 7632 H 706.982 -5.49996 -5.42885 0
M  V30 7633 H 705.327 -4.94138 -4.88726 0
M  V30 7634 H 708.518 -3.11779 -3.49158 0
M  V30 7635 H 708.691 -4.5012 -4.6615 0
M  V30 7636 N 702.098 1.27442 -0.927168 0
M  V30 7637 C 703.008 2.30599 -0.431448 0
M  V30 7638 C 704.024 1.67028 0.48761 0
M  V30 7639 O 705.2 1.97962 0.370546 0
M  V30 7640 C 702.265 3.45327 0.308292 0
M  V30 7641 C 701.326 4.24418 -0.645615 0
M  V30 7642 C 700.559 5.33667 0.0589164 0
M  V30 7643 O 700.782 5.5589 1.27838 0
M  V30 7644 O 699.716 5.98774 -0.612638 0
M  V30 7645 H 703.542 2.75036 -1.28797 0
M  V30 7646 H 701.127 1.32382 -0.692495 0
M  V30 7647 H 703.009 4.15107 0.725555 0
M  V30 7648 H 701.684 3.02945 1.14043 0
M  V30 7649 H 700.591 3.57174 -1.11255 0
M  V30 7650 H 701.924 4.70512 -1.44496 0
M  V30 7651 N 703.576 0.692616 1.41565 0
M  V30 7652 C 704.825 0.219452 2.00503 0
M  V30 7653 C 705.138 -1.18683 1.55479 0
M  V30 7654 O 706.344 -1.75731 2.06956 0
M  V30 7655 C 704.8 0.341451 3.58277 0
M  V30 7656 C 704.408 1.75291 4.12283 0
M  V30 7657 C 706.152 -0.0720899 4.24439 0
M  V30 7658 C 704.059 1.82673 5.62481 0
M  V30 7659 H 702.989 0.0782874 0.749925 0
M  V30 7660 H 705.64 0.860386 1.62079 0
M  V30 7661 H 704.022 -0.367683 3.94289 0
M  V30 7662 H 705.196 2.49057 3.87695 0
M  V30 7663 H 703.511 2.11587 3.58636 0
M  V30 7664 H 706.108 -0.0373385 5.34687 0
M  V30 7665 H 706.451 -1.11034 4.0122 0
M  V30 7666 H 706.984 0.586663 3.9345 0
M  V30 7667 H 703.723 2.84539 5.90523 0
M  V30 7668 H 703.243 1.13288 5.89004 0
M  V30 7669 H 704.922 1.58827 6.27203 0
M  V30 7670 N 705.054 -1.51416 0.437162 0
M  V30 7671 C 705.964 -2.31493 -0.380537 0
M  V30 7672 C 706.98 -1.40399 -1.02782 0
M  V30 7673 O 708.156 -1.73471 -1.02323 0
M  V30 7674 C 705.221 -3.1413 -1.46709 0
M  V30 7675 C 704.282 -4.21003 -0.839953 0
M  V30 7676 C 703.515 -4.9969 -1.87473 0
M  V30 7677 O 703.738 -4.79008 -3.09689 0
M  V30 7678 O 702.672 -5.8379 -1.46536 0
M  V30 7679 H 706.498 -3.02469 0.273183 0
M  V30 7680 H 704.083 -1.48059 0.199706 0
M  V30 7681 H 705.965 -3.65505 -2.09724 0
M  V30 7682 H 704.64 -2.45919 -2.10489 0
M  V30 7683 H 703.547 -3.73706 -0.171752 0
M  V30 7684 H 704.88 -4.91587 -0.245638 0
M  V30 7685 N 706.532 -0.168513 -1.56696 0
M  V30 7686 C 707.462 0.758563 -2.20835 0
M  V30 7687 C 708.443 1.24121 -1.1631 0
M  V30 7688 O 709.628 1.29487 -1.4473 0
M  V30 7689 C 706.758 1.9892 -2.8469 0
M  V30 7690 C 705.712 1.64252 -3.95228 0
M  V30 7691 C 705.038 2.94757 -4.46119 0
M  V30 7692 C 706.338 0.872675 -5.14958 0
M  V30 7693 H 708.032 0.223953 -2.98561 0
M  V30 7694 H 705.578 0.106277 -1.43607 0
M  V30 7695 H 707.531 2.64275 -3.28233 0
M  V30 7696 H 706.255 2.5479 -2.04327 0
M  V30 7697 H 704.914 1.01266 -3.52336 0
M  V30 7698 H 704.562 3.48662 -3.62552 0
M  V30 7699 H 704.262 2.72316 -5.2069 0
M  V30 7700 H 705.786 3.61147 -4.92347 0
M  V30 7701 H 707.2 1.42875 -5.55211 0
M  V30 7702 H 705.597 0.747402 -5.95428 0
M  V30 7703 H 706.667 -0.131535 -4.84722 0
M  V30 7704 N 708.01 1.57248 0.105221 0
M  V30 7705 C 708.973 2.00388 1.11252 0
M  V30 7706 C 709.973 0.89594 1.33527 0
M  V30 7707 O 711.163 1.16166 1.29811 0
M  V30 7708 C 708.295 2.35589 2.46395 0
M  V30 7709 H 709.488 2.90591 0.741424 0
M  V30 7710 H 707.041 1.52332 0.349956 0
M  V30 7711 H 707.776 1.4831 2.884 0
M  V30 7712 H 707.561 3.16408 2.31578 0
M  V30 7713 H 709.051 2.69658 3.18864 0
M  V30 7714 N 709.488 -0.375779 1.53054 0
M  V30 7715 C 710.398 -1.48381 1.81715 0
M  V30 7716 C 711.414 -1.59087 0.704795 0
M  V30 7717 O 712.59 -1.75174 0.993785 0
M  V30 7718 C 709.655 -2.83767 1.99192 0
M  V30 7719 C 708.716 -2.82673 3.23102 0
M  V30 7720 C 707.949 -4.11601 3.39736 0
M  V30 7721 O 708.172 -5.07243 2.60885 0
M  V30 7722 O 707.106 -4.18034 4.33049 0
M  V30 7723 H 710.932 -1.27089 2.7583 0
M  V30 7724 H 708.517 -0.564902 1.38308 0
M  V30 7725 H 710.399 -3.64004 2.12318 0
M  V30 7726 H 709.074 -3.05057 1.08267 0
M  V30 7727 H 707.981 -2.0117 3.15407 0
M  V30 7728 H 709.314 -2.66335 4.13916 0
M  V30 7729 N 710.966 -1.44241 -0.634997 0
M  V30 7730 C 712.382 -1.28043 -0.952742 0
M  V30 7731 C 712.582 -0.21338 -2.00367 0
M  V30 7732 O 711.638 0.402042 -2.49279 0
M  V30 7733 C 712.951 -2.65076 -1.41968 0
M  V30 7734 C 714.499 -2.72755 -1.53537 0
M  V30 7735 C 714.974 -4.10249 -2.03616 0
M  V30 7736 N 716.465 -4.12406 -2.10892 0
M  V30 7737 C 717.2 -5.15641 -2.50803 0
M  V30 7738 N 716.696 -6.29239 -2.89879 0
M  V30 7739 N 718.489 -5.02995 -2.50903 0
M  V30 7740 H 710.64 -2.12315 0.060098 0
M  V30 7741 H 712.903 -0.947326 -0.0357325 0
M  V30 7742 H 712.609 -3.44213 -0.721804 0
M  V30 7743 H 712.483 -2.91704 -2.39141 0
M  V30 7744 H 714.87 -1.93939 -2.22422 0
M  V30 7745 H 714.951 -2.49872 -0.547496 0
M  V30 7746 H 714.595 -4.8954 -1.35327 0
M  V30 7747 H 714.525 -4.30507 -3.03268 0
M  V30 7748 H 717.016 -3.30417 -1.83393 0
M  V30 7749 H 717.329 -7.03827 -3.19135 0
M  V30 7750 H 715.674 -6.32683 -2.8764 0
M  V30 7751 H 718.865 -4.13306 -2.19763 0
M  V30 7752 H 719.038 -5.83574 -2.81683 0
M  V30 7753 N 712.444 0.87505 -1.31075 0
M  V30 7754 C 713.376 1.98773 -1.14114 0
M  V30 7755 C 714.389 1.62595 -0.0816119 0
M  V30 7756 O 715.578 1.75449 -0.32861 0
M  V30 7757 C 712.678 3.31159 -0.720224 0
M  V30 7758 C 711.851 3.9571 -1.86366 0
M  V30 7759 C 710.91 5.06407 -1.42965 0
M  V30 7760 O 709.936 5.27501 -2.13848 0
M  V30 7761 N 711.138 5.79649 -0.314194 0
M  V30 7762 H 713.903 2.1387 -2.09951 0
M  V30 7763 H 711.464 1.04873 -1.23342 0
M  V30 7764 H 713.456 4.0259 -0.412687 0
M  V30 7765 H 712.026 3.12257 0.146396 0
M  V30 7766 H 711.246 3.17324 -2.33879 0
M  V30 7767 H 712.534 4.35576 -2.62966 0
M  V30 7768 H 711.932 5.65025 0.276228 0
M  V30 7769 H 710.489 6.51766 -0.0661641 0
M  V30 7770 N 713.922 1.13953 1.08869 0
M  V30 7771 C 715.152 0.926825 1.84644 0
M  V30 7772 C 715.56 -0.527941 1.81685 0
M  V30 7773 O 714.903 -1.37742 1.21543 0
M  V30 7774 C 714.965 1.34416 3.33426 0
M  V30 7775 C 714.629 2.81351 3.60126 0
M  V30 7776 C 715.626 3.79486 3.55368 0
M  V30 7777 C 713.311 3.1865 3.88288 0
M  V30 7778 C 715.305 5.1293 3.78393 0
M  V30 7779 C 712.992 4.5227 4.10968 0
M  V30 7780 C 713.99 5.4922 4.06013 0
M  V30 7781 O 713.678 6.80429 4.28102 0
M  V30 7782 H 713.41 0.33013 0.589907 0
M  V30 7783 H 715.964 1.51738 1.38436 0
M  V30 7784 H 714.194 0.696901 3.80368 0
M  V30 7785 H 715.883 1.10302 3.90626 0
M  V30 7786 H 716.649 3.52017 3.3363 0
M  V30 7787 H 712.528 2.43785 3.91267 0
M  V30 7788 H 716.072 5.88591 3.74442 0
M  V30 7789 H 711.969 4.79462 4.32188 0
M  V30 7790 H 712.737 6.86617 4.45533 0
M  V30 7791 N 715.4 -1.26948 0.933913 0
M  V30 7792 C 716.677 -1.89212 0.495784 0
M  V30 7793 C 717.057 -1.84469 -1.02637 0
M  V30 7794 O 716.405 -1.29409 -1.88323 0
M  V30 7795 C 716.615 -3.32865 1.0489 0
M  V30 7796 C 717.963 -4.09749 1.11315 0
M  V30 7797 O 718.987 -3.41905 0.998966 0
M  V30 7798 O 717.846 -5.31061 1.28983 0
M  V30 7799 H 714.94 -0.811284 0.160459 0
M  V30 7800 H 717.486 -1.35171 1.02601 0
M  V30 7801 H 716.258 -3.30642 2.09265 0
M  V30 7802 H 715.881 -3.94435 0.500692 0
M  V30 7803 N 716.879 -0.700114 -1.41195 0
M  V30 7804 C 717.809 -0.0521132 -2.33442 0
M  V30 7805 C 718.79 0.76228 -1.52063 0
M  V30 7806 O 719.975 0.714336 -1.80585 0
M  V30 7807 C 717.105 0.881693 -3.35922 0
M  V30 7808 C 716.059 0.174062 -4.27646 0
M  V30 7809 C 715.385 1.22254 -5.20536 0
M  V30 7810 C 716.685 -0.962396 -5.13357 0
M  V30 7811 H 718.379 -0.822574 -2.87879 0
M  V30 7812 H 715.925 -0.397011 -1.38419 0
M  V30 7813 H 717.878 1.34429 -3.99383 0
M  V30 7814 H 716.602 1.68387 -2.79845 0
M  V30 7815 H 715.261 -0.268551 -3.65615 0
M  V30 7816 H 714.909 2.01736 -4.60773 0
M  V30 7817 H 714.609 0.754038 -5.82742 0
M  V30 7818 H 716.133 1.68555 -5.86874 0
M  V30 7819 H 717.547 -0.579875 -5.7036 0
M  V30 7820 H 715.944 -1.35828 -5.84526 0
M  V30 7821 H 717.014 -1.80003 -4.50252 0
M  V30 7822 N 718.357 1.51182 -0.445186 0
M  V30 7823 C 719.305 2.29531 0.376597 0
M  V30 7824 C 720.299 1.35711 1.01385 0
M  V30 7825 O 721.505 1.53018 0.947922 0
M  V30 7826 H 717.88 0.738803 0.140267 0
M  V30 7827 H 719.851 2.96838 -0.304958 0
M  V30 7828 C 718.6 3.1552 1.4609 0
M  V30 7829 H 717.923 3.87605 0.979912 0
M  V30 7830 H 719.363 3.73384 2.009 0
M  V30 7831 C 717.822 2.31406 2.44852 0
M  V30 7832 O 718.352 1.97912 3.49562 0
M  V30 7833 N 716.558 1.94478 2.15932 0
M  V30 7834 H 716.105 2.21917 1.30808 0
M  V30 7835 H 716.063 1.38498 2.82251 0
M  V30 7836 N 719.835 0.176821 1.56605 0
M  V30 7837 C 721.251 -0.179278 1.5859 0
M  V30 7838 C 721.451 -1.62433 1.19238 0
M  V30 7839 O 720.507 -2.35665 0.906552 0
M  V30 7840 C 721.82 0.106524 3.00511 0
M  V30 7841 C 723.368 0.0451731 3.12967 0
M  V30 7842 C 723.843 0.304038 4.5699 0
M  V30 7843 N 725.334 0.252008 4.62514 0
M  V30 7844 C 726.069 0.426404 5.71812 0
M  V30 7845 N 725.565 0.660155 6.89648 0
M  V30 7846 N 727.358 0.361926 5.60934 0
M  V30 7847 H 719.509 1.12001 1.8047 0
M  V30 7848 H 721.772 0.445679 0.836704 0
M  V30 7849 H 721.478 1.10778 3.33798 0
M  V30 7850 H 721.352 -0.599337 3.72408 0
M  V30 7851 H 723.739 -0.946662 2.79504 0
M  V30 7852 H 723.82 0.78383 2.43495 0
M  V30 7853 H 723.464 1.29311 4.91163 0
M  V30 7854 H 723.394 -0.455294 5.24628 0
M  V30 7855 H 725.885 0.0772102 3.77821 0
M  V30 7856 H 726.198 0.782529 7.68828 0
M  V30 7857 H 724.543 0.696835 6.91498 0
M  V30 7858 H 727.734 0.17986 4.67754 0
M  V30 7859 H 727.907 0.501263 6.46058 0
M  V30 7860 N 721.313 -1.57302 -0.09688 0
M  V30 7861 C 722.276 -2.00976 -1.10188 0
M  V30 7862 C 723.276 -0.903009 -1.3305 0
M  V30 7863 O 724.466 -1.16853 -1.29194 0
M  V30 7864 C 721.598 -2.36893 -2.45142 0
M  V30 7865 H 722.791 -2.9098 -0.726003 0
M  V30 7866 H 720.344 -1.52515 -0.341872 0
M  V30 7867 H 721.079 -1.49837 -2.8761 0
M  V30 7868 H 720.864 -3.17632 -2.29897 0
M  V30 7869 H 722.354 -2.71345 -3.1743 0
M  V30 7870 N 722.791 0.367657 -1.53252 0
M  V30 7871 C 723.754 1.43308 -1.78873 0
M  V30 7872 C 724.754 1.46671 -0.659115 0
M  V30 7873 O 725.944 1.47468 -0.927306 0
M  V30 7874 C 723.076 2.82442 -1.90892 0
M  V30 7875 H 724.269 1.21864 -2.74024 0
M  V30 7876 H 721.822 0.600668 -1.44297 0
M  V30 7877 H 722.557 3.09202 -0.978 0
M  V30 7878 H 722.342 2.81399 -2.73051 0
M  V30 7879 H 723.832 3.59601 -2.12314 0
M  V30 7880 N 724.269 1.44576 0.627338 0
M  V30 7881 C 725.179 1.54232 1.76776 0
M  V30 7882 C 726.195 0.427782 1.6866 0
M  V30 7883 O 727.371 0.685671 1.89369 0
M  V30 7884 C 724.436 1.48738 3.13174 0
M  V30 7885 C 723.497 2.71074 3.32893 0
M  V30 7886 C 722.73 2.65832 4.62784 0
M  V30 7887 O 722.953 1.72048 5.43834 0
M  V30 7888 O 721.887 3.56742 4.84787 0
M  V30 7889 H 725.713 2.50586 1.71582 0
M  V30 7890 H 723.298 1.26865 0.789028 0
M  V30 7891 H 725.18 1.48211 3.94476 0
M  V30 7892 H 723.855 0.555292 3.18902 0
M  V30 7893 H 722.762 2.77168 2.51254 0
M  V30 7894 H 724.095 3.63342 3.32029 0
M  V30 7895 N 725.747 -0.868086 1.31537 0
M  V30 7896 C 726.677 -1.99131 1.21939 0
M  V30 7897 C 727.658 -1.69768 0.106166 0
M  V30 7898 O 728.843 -1.92006 0.291081 0
M  V30 7899 C 725.973 -3.34676 0.927879 0
M  V30 7900 C 724.927 -3.7835 2.00088 0
M  V30 7901 C 724.253 -5.11375 1.56203 0
M  V30 7902 C 725.553 -3.95256 3.41424 0
M  V30 7903 H 727.247 -2.07419 2.15911 0
M  V30 7904 H 724.793 -0.996569 1.03945 0
M  V30 7905 H 726.746 -4.12793 0.847327 0
M  V30 7906 H 725.47 -3.26565 -0.0475042 0
M  V30 7907 H 724.129 -3.02474 2.07135 0
M  V30 7908 H 723.777 -4.99709 0.57445 0
M  V30 7909 H 723.477 -5.41568 2.27985 0
M  V30 7910 H 725.001 -5.92001 1.49558 0
M  V30 7911 H 726.415 -4.63764 3.3704 0
M  V30 7912 H 724.812 -4.36849 4.1144 0
M  V30 7913 H 725.882 -2.98579 3.82072 0
M  V30 7914 N 727.225 -1.14528 -1.08264 0
M  V30 7915 C 728.641 -0.885976 -1.3275 0
M  V30 7916 C 728.841 0.472096 -1.95892 0
M  V30 7917 O 727.897 1.21606 -2.21288 0
M  V30 7918 C 729.21 -2.01982 -2.22764 0
M  V30 7919 C 730.758 -2.05329 -2.36239 0
M  V30 7920 C 731.233 -3.1801 -3.29596 0
M  V30 7921 N 732.724 -3.17598 -3.37173 0
M  V30 7922 C 733.459 -4.01426 -4.09444 0
M  V30 7923 N 732.955 -4.95297 -4.8441 0
M  V30 7924 N 734.748 -3.89482 -4.0529 0
M  V30 7925 H 726.899 -2.01996 -0.656607 0
M  V30 7926 H 729.162 -0.880274 -0.351884 0
M  V30 7927 H 728.868 -2.99964 -1.83615 0
M  V30 7928 H 728.742 -1.94421 -3.23234 0
M  V30 7929 H 731.129 -1.07953 -2.74646 0
M  V30 7930 H 731.21 -2.1696 -1.35506 0
M  V30 7931 H 730.854 -4.15633 -2.9191 0
M  V30 7932 H 730.784 -3.03616 -4.30261 0
M  V30 7933 H 733.275 -2.4961 -2.83731 0
M  V30 7934 H 733.588 -5.55723 -5.37021 0
M  V30 7935 H 731.933 -4.99293 -4.83457 0
M  V30 7936 H 735.124 -3.15465 -3.45832 0
M  V30 7937 H 735.297 -4.55039 -4.6135 0
M  V30 7938 N 728.703 1.26451 -0.940633 0
M  V30 7939 C 729.933 1.97581 -0.603766 0
M  V30 7940 C 730.341 1.70246 0.825395 0
M  V30 7941 O 729.684 0.967001 1.56188 0
M  V30 7942 C 729.746 3.51256 -0.765463 0
M  V30 7943 C 729.41 4.0224 -2.16915 0
M  V30 7944 C 730.407 4.1402 -3.14457 0
M  V30 7945 C 728.092 4.36263 -2.48958 0
M  V30 7946 C 730.086 4.59117 -4.42143 0
M  V30 7947 C 727.773 4.81048 -3.76877 0
M  V30 7948 C 728.771 4.92436 -4.73282 0
M  V30 7949 O 728.459 5.36234 -5.98923 0
M  V30 7950 H 728.191 0.636948 -0.226436 0
M  V30 7951 H 730.745 1.61941 -1.2635 0
M  V30 7952 H 728.975 3.86669 -0.0485956 0
M  V30 7953 H 730.664 4.03597 -0.431738 0
M  V30 7954 H 731.43 3.87981 -2.91026 0
M  V30 7955 H 727.309 4.26634 -1.74656 0
M  V30 7956 H 730.853 4.6792 -5.17394 0
M  V30 7957 H 726.75 5.06531 -4.00121 0
M  V30 7958 H 727.518 5.54456 -6.02097 0
M  V30 7959 N 730.181 0.707592 1.40822 0
M  V30 7960 C 731.429 0.243189 2.00632 0
M  V30 7961 C 731.75 -1.16512 1.56365 0
M  V30 7962 O 731.02 -1.78841 0.799553 0
M  V30 7963 H 729.6 0.0869203 0.741926 0
M  V30 7964 H 732.262 0.911438 1.72275 0
M  V30 7965 H 731.358 0.270014 3.1093 0
M  V30 7966 N 731.66 -1.50943 0.453197 0
M  V30 7967 C 732.57 -2.31884 -0.355963 0
M  V30 7968 C 733.586 -1.41481 -1.01287 0
M  V30 7969 O 734.762 -1.74546 -1.00477 0
M  V30 7970 C 731.827 -3.15668 -1.43369 0
M  V30 7971 C 730.888 -4.2187 -0.795253 0
M  V30 7972 C 730.121 -5.0165 -1.82162 0
M  V30 7973 O 730.344 -4.82266 -3.04592 0
M  V30 7974 O 729.278 -5.85311 -1.40336 0
M  V30 7975 H 733.104 -3.02162 0.305248 0
M  V30 7976 H 730.689 -1.47839 0.215398 0
M  V30 7977 H 732.571 -3.67709 -2.05836 0
M  V30 7978 H 731.246 -2.48137 -2.07869 0
M  V30 7979 H 730.153 -3.73867 -0.132106 0
M  V30 7980 H 731.486 -4.9182 -0.193484 0
M  V30 7981 N 733.138 -0.185124 -1.56509 0
M  V30 7982 C 734.068 0.735098 -2.21627 0
M  V30 7983 C 735.049 1.2288 -1.1762 0
M  V30 7984 O 736.234 1.27945 -1.46095 0
M  V30 7985 C 733.364 1.95889 -2.86783 0
M  V30 7986 C 732.318 1.6005 -3.96948 0
M  V30 7987 C 731.644 2.90009 -4.4922 0
M  V30 7988 C 732.944 0.818008 -5.15855 0
M  V30 7989 H 734.638 0.192274 -2.98782 0
M  V30 7990 H 732.184 0.0910393 -1.43712 0
M  V30 7991 H 734.137 2.60779 -3.31017 0
M  V30 7992 H 732.861 2.52608 -2.07018 0
M  V30 7993 H 731.52 0.975237 -3.5339 0
M  V30 7994 H 731.168 3.44797 -3.6623 0
M  V30 7995 H 730.868 2.66778 -5.23549 0
M  V30 7996 H 732.392 3.55904 -4.9615 0
M  V30 7997 H 733.806 1.36979 -5.56695 0
M  V30 7998 H 732.203 0.684207 -5.96187 0
M  V30 7999 H 733.273 -0.182939 -4.84555 0
M  V30 8000 N 734.616 1.57351 0.0885366 0
M  V30 8001 C 736.027 1.75303 0.642308 0
M  V30 8002 C 736.378 0.808238 1.78779 0
M  V30 8003 O 735.503 -0.01171 2.16397 0
M  V30 8004 C 736.098 3.17885 1.17194 0
M  V30 8005 C 734.657 3.37239 1.67172 0
M  V30 8006 C 733.804 2.7108 0.584045 0
M  V30 8007 H 736.755 1.58103 -0.137567 0
M  V30 8008 H 736.776 3.2112 2.04114 0
M  V30 8009 H 736.288 3.86625 0.338024 0
M  V30 8010 H 734.389 2.73588 2.52943 0
M  V30 8011 H 734.502 4.45594 1.76019 0
M  V30 8012 H 732.866 2.33161 1.02508 0
M  V30 8013 H 733.649 3.42464 -0.239403 0
M  V30 8014 N 736.094 -0.359525 1.53444 0
M  V30 8015 C 737.041 -1.44073 1.8031 0
M  V30 8016 C 738.011 -1.52946 0.647811 0
M  V30 8017 O 739.196 -1.68739 0.890614 0
M  V30 8018 C 736.336 -2.80941 2.00416 0
M  V30 8019 C 735.449 -2.80986 3.28132 0
M  V30 8020 C 734.584 -4.09468 3.38393 0
M  V30 8021 C 733.623 -4.03679 4.60119 0
M  V30 8022 N 732.76 -5.23821 4.675 0
M  V30 8023 H 737.6 -1.20464 2.72566 0
M  V30 8024 H 735.137 -0.583859 1.35017 0
M  V30 8025 H 737.095 -3.60459 2.1006 0
M  V30 8026 H 735.725 -3.02936 1.11489 0
M  V30 8027 H 734.777 -1.93666 3.27411 0
M  V30 8028 H 736.089 -2.72583 4.17732 0
M  V30 8029 H 735.243 -4.97404 3.47382 0
M  V30 8030 H 733.982 -4.20632 2.4682 0
M  V30 8031 H 732.987 -3.14129 4.51224 0
M  V30 8032 H 734.212 -3.94112 5.5304 0
M  V30 8033 H 732.158 -5.35559 3.7883 0
M  V30 8034 H 732.075 -5.17611 5.51013 0
M  V30 8035 H 733.343 -6.13572 4.8078 0
M  V30 8036 N 737.572 -1.44907 -0.619662 0
M  V30 8037 C 738.502 -1.55488 -1.742 0
M  V30 8038 C 739.483 -0.407143 -1.65156 0
M  V30 8039 O 740.668 -0.628743 -1.8374 0
M  V30 8040 C 737.798 -1.5097 -3.1277 0
M  V30 8041 C 736.752 -2.64337 -3.36615 0
M  V30 8042 C 736.078 -2.44872 -4.75333 0
M  V30 8043 C 737.378 -4.06423 -3.28051 0
M  V30 8044 H 739.072 -2.49432 -1.65602 0
M  V30 8045 H 736.618 -1.20047 -0.795281 0
M  V30 8046 H 738.571 -1.56971 -3.91073 0
M  V30 8047 H 737.295 -0.535486 -3.2218 0
M  V30 8048 H 735.954 -2.57744 -2.60698 0
M  V30 8049 H 735.602 -1.45617 -4.81461 0
M  V30 8050 H 735.302 -3.20888 -4.92244 0
M  V30 8051 H 736.826 -2.52709 -5.55851 0
M  V30 8052 H 738.24 -4.14324 -3.96243 0
M  V30 8053 H 736.637 -4.82733 -3.56495 0
M  V30 8054 H 737.707 -4.29183 -2.25676 0
M  V30 8055 N 739.05 0.861098 -1.31996 0
M  V30 8056 C 739.96 2.00154 -1.22374 0
M  V30 8057 C 740.976 1.73447 -0.138631 0
M  V30 8058 O 742.152 1.98191 -0.358104 0
M  V30 8059 C 739.217 3.33696 -0.940645 0
M  V30 8060 C 738.278 3.73668 -2.11355 0
M  V30 8061 C 737.511 5.00837 -1.84386 0
M  V30 8062 O 737.734 5.64996 -0.783287 0
M  V30 8063 O 736.668 5.37787 -2.70313 0
M  V30 8064 H 740.494 2.11207 -2.18233 0
M  V30 8065 H 738.079 0.990768 -1.11822 0
M  V30 8066 H 739.961 4.13756 -0.798987 0
M  V30 8067 H 738.636 3.23698 -0.0121636 0
M  V30 8068 H 737.543 2.94211 -2.31065 0
M  V30 8069 H 738.876 3.88303 -3.02459 0
M  V30 8070 N 740.528 1.15101 1.07655 0
M  V30 8071 C 741.491 0.847625 2.12951 0
M  V30 8072 C 742.491 -0.151227 1.60087 0
M  V30 8073 O 743.681 0.0780399 1.74025 0
M  V30 8074 C 740.813 0.265 3.39868 0
M  V30 8075 H 742.006 1.7809 2.41296 0
M  V30 8076 H 739.559 0.958072 1.23494 0
M  V30 8077 H 740.294 -0.676625 3.17163 0
M  V30 8078 H 740.079 0.984554 3.79538 0
M  V30 8079 H 741.569 0.0702121 4.17541 0
M  V30 8080 N 742.006 -1.2595 0.947325 0
M  V30 8081 C 742.916 -2.29883 0.468079 0
M  V30 8082 C 743.932 -1.67783 -0.460975 0
M  V30 8083 O 745.108 -1.98526 -0.339006 0
M  V30 8084 C 742.173 -3.45773 -0.253315 0
M  V30 8085 C 741.234 -4.23337 0.713054 0
M  V30 8086 C 740.467 -5.33694 0.025993 0
M  V30 8087 O 740.69 -5.57853 -1.18978 0
M  V30 8088 O 739.624 -5.97724 0.70782 0
M  V30 8089 H 743.45 -2.72952 1.33156 0
M  V30 8090 H 741.035 -1.31263 0.713468 0
M  V30 8091 H 742.917 -4.16209 -0.659423 0
M  V30 8092 H 741.592 -3.04721 -1.09209 0
M  V30 8093 H 740.499 -3.55359 1.16923 0
M  V30 8094 H 741.832 -4.68154 1.51963 0
M  V30 8095 N 743.484 -0.715051 -1.40445 0
M  V30 8096 C 744.73 -0.254705 -2.01194 0
M  V30 8097 C 745.063 1.14894 -1.56567 0
M  V30 8098 O 744.338 1.77933 -0.785491 0
M  V30 8099 C 744.621 -0.334148 -3.58546 0
M  V30 8100 C 744.474 -1.77613 -4.13248 0
M  V30 8101 C 745.793 0.294968 -4.3911 0
M  V30 8102 H 742.912 -0.094025 -0.730978 0
M  V30 8103 H 745.554 -0.907449 -1.66929 0
M  V30 8104 H 743.704 0.221609 -3.87867 0
M  V30 8105 H 745.376 -2.38723 -3.94727 0
M  V30 8106 H 743.619 -2.30402 -3.67556 0
M  V30 8107 H 744.29 -1.78311 -5.22407 0
M  V30 8108 H 746.766 -0.178563 -4.15717 0
M  V30 8109 H 745.642 0.208934 -5.48502 0
M  V30 8110 H 745.903 1.37841 -4.20062 0
M  V30 8111 N 744.962 1.50701 -0.461195 0
M  V30 8112 C 745.872 2.32069 0.343661 0
M  V30 8113 C 746.888 1.42016 1.00535 0
M  V30 8114 O 748.064 1.75077 0.995498 0
M  V30 8115 C 745.129 3.16424 1.41692 0
M  V30 8116 C 744.19 4.22286 0.772869 0
M  V30 8117 C 743.423 5.02609 1.79499 0
M  V30 8118 O 743.646 4.83874 3.0203 0
M  V30 8119 O 742.58 5.86047 1.3723 0
M  V30 8120 H 746.406 3.01996 -0.321268 0
M  V30 8121 H 743.991 1.47723 -0.223235 0
M  V30 8122 H 745.873 3.68795 2.03883 0
M  V30 8123 H 744.548 2.49236 2.0655 0
M  V30 8124 H 743.455 3.73931 0.112277 0
M  V30 8125 H 744.788 4.91915 0.167399 0
M  V30 8126 N 746.441 0.193421 1.56409 0
M  V30 8127 C 747.404 -0.714371 2.17783 0
M  V30 8128 C 748.404 -1.1422 1.13183 0
M  V30 8129 O 749.594 -1.05557 1.38576 0
M  V30 8130 C 746.726 -1.97509 2.77855 0
M  V30 8131 H 747.919 -0.179714 2.99361 0
M  V30 8132 H 745.472 -0.0561944 1.56199 0
M  V30 8133 H 746.207 -2.5523 2.0007 0
M  V30 8134 H 745.992 -1.67706 3.54425 0
M  V30 8135 H 747.482 -2.62246 3.24987 0
M  V30 8136 N 747.919 -1.57396 -0.0801906 0
M  V30 8137 C 748.849 -2.06145 -1.09665 0
M  V30 8138 C 749.83 -0.953273 -1.40878 0
M  V30 8139 O 751.015 -1.22548 -1.50651 0
M  V30 8140 C 748.145 -2.49836 -2.41245 0
M  V30 8141 C 747.099 -3.64454 -2.24405 0
M  V30 8142 C 746.425 -3.94172 -3.61293 0
M  V30 8143 C 747.725 -4.94807 -1.67223 0
M  V30 8144 H 749.419 -2.91316 -0.691028 0
M  V30 8145 H 746.965 -1.40145 -0.330957 0
M  V30 8146 H 748.918 -2.82552 -3.12638 0
M  V30 8147 H 747.642 -1.61683 -2.83771 0
M  V30 8148 H 746.301 -3.32008 -1.55454 0
M  V30 8149 H 745.949 -3.03163 -4.01374 0
M  V30 8150 H 745.649 -4.71345 -3.50867 0
M  V30 8151 H 747.173 -4.29376 -4.3413 0
M  V30 8152 H 748.587 -5.25807 -2.28472 0
M  V30 8153 H 746.984 -5.76245 -1.67515 0
M  V30 8154 H 748.054 -4.80751 -0.632944 0
M  V30 8155 N 749.397 0.351382 -1.53633 0
M  V30 8156 C 750.622 1.11718 -1.74739 0
M  V30 8157 C 751.047 1.81829 -0.481657 0
M  V30 8158 O 750.405 1.72264 0.565233 0
M  V30 8159 C 750.453 2.11234 -2.92254 0
M  V30 8160 O 749.557 3.186 -2.61855 0
M  V30 8161 H 748.898 0.323482 -0.579875 0
M  V30 8162 H 751.428 0.404167 -2.00568 0
M  V30 8163 H 751.438 2.54591 -3.18822 0
M  V30 8164 H 750.113 1.59599 -3.84058 0
M  V30 8165 H 748.69 2.80115 -2.4615 0
M  V30 8166 N 750.875 1.45233 0.611969 0
M  V30 8167 C 751.785 1.56098 1.7513 0
M  V30 8168 C 752.801 0.445646 1.68196 0
M  V30 8169 O 753.977 0.705718 1.88631 0
M  V30 8170 C 751.042 1.52052 3.11579 0
M  V30 8171 C 750.103 2.74589 3.29999 0
M  V30 8172 C 749.336 2.70726 4.59938 0
M  V30 8173 O 749.559 1.77806 5.41979 0
M  V30 8174 O 748.493 3.61864 4.80976 0
M  V30 8175 H 752.319 2.52392 1.68914 0
M  V30 8176 H 749.904 1.27695 0.775528 0
M  V30 8177 H 751.786 1.52387 3.92882 0
M  V30 8178 H 750.461 0.589085 3.18295 0
M  V30 8179 H 749.368 2.79817 2.48301 0
M  V30 8180 H 750.701 3.66843 3.28157 0
M  V30 8181 N 752.353 -0.854086 1.3245 0
M  V30 8182 C 753.3 -1.96271 1.21434 0
M  V30 8183 C 754.27 -1.6582 0.0963851 0
M  V30 8184 O 755.455 -1.88851 0.27203 0
M  V30 8185 C 752.595 -3.31939 0.943952 0
M  V30 8186 C 751.708 -3.74885 2.14675 0
M  V30 8187 C 750.843 -4.99347 1.81179 0
M  V30 8188 C 749.882 -5.34785 2.97777 0
M  V30 8189 N 749.019 -6.50425 2.6437 0
M  V30 8190 H 753.859 -2.05025 2.16261 0
M  V30 8191 H 751.396 -1.00348 1.07558 0
M  V30 8192 H 753.354 -4.10076 0.767675 0
M  V30 8193 H 751.984 -3.22784 0.0324763 0
M  V30 8194 H 751.036 -2.92396 2.43328 0
M  V30 8195 H 752.348 -3.97068 3.01891 0
M  V30 8196 H 751.502 -5.85193 1.60107 0
M  V30 8197 H 750.241 -4.79101 0.911777 0
M  V30 8198 H 749.246 -4.47451 3.1948 0
M  V30 8199 H 750.471 -5.56988 3.88511 0
M  V30 8200 H 748.417 -6.31695 1.7691 0
M  V30 8201 H 748.334 -6.7263 3.45116 0
M  V30 8202 H 749.602 -7.39422 2.46729 0
M  V30 8203 N 753.831 -1.1567 -1.07043 0
M  V30 8204 C 754.761 -0.879348 -2.16309 0
M  V30 8205 C 755.742 0.171311 -1.69235 0
M  V30 8206 O 756.927 0.0250175 -1.94184 0
M  V30 8207 C 754.057 -0.371307 -3.45309 0
M  V30 8208 C 753.011 -1.359 -4.05851 0
M  V30 8209 C 752.337 -0.709678 -5.29969 0
M  V30 8210 C 753.637 -2.72606 -4.45514 0
M  V30 8211 H 755.331 -1.79308 -2.39768 0
M  V30 8212 H 752.877 -0.863558 -1.15233 0
M  V30 8213 H 754.83 -0.164798 -4.21078 0
M  V30 8214 H 753.554 0.577906 -3.21446 0
M  V30 8215 H 752.213 -1.55193 -3.32131 0
M  V30 8216 H 751.861 0.245782 -5.02399 0
M  V30 8217 H 751.561 -1.36886 -5.71433 0
M  V30 8218 H 753.085 -0.513015 -6.08441 0
M  V30 8219 H 754.499 -2.57141 -5.12398 0
M  V30 8220 H 752.896 -3.34927 -4.97939 0
M  V30 8221 H 753.966 -3.28434 -3.56734 0
M  V30 8222 N 755.309 1.25446 -0.953992 0
M  V30 8223 C 756.725 1.4539 -0.658316 0
M  V30 8224 C 756.925 1.85607 0.784356 0
M  V30 8225 O 755.981 1.98568 1.55972 0
M  V30 8226 C 757.294 2.52643 -1.6307 0
M  V30 8227 C 758.842 2.66484 -1.64181 0
M  V30 8228 C 759.317 3.76921 -2.60182 0
M  V30 8229 N 760.808 3.84331 -2.58542 0
M  V30 8230 C 761.543 4.69271 -3.29503 0
M  V30 8231 N 761.039 5.58503 -4.09934 0
M  V30 8232 N 762.832 4.6323 -3.18393 0
M  V30 8233 H 754.983 0.976337 -1.8863 0
M  V30 8234 H 757.246 0.490343 -0.811337 0
M  V30 8235 H 756.952 2.29949 -2.66114 0
M  V30 8236 H 756.826 3.50547 -1.39271 0
M  V30 8237 H 759.213 2.88545 -0.618552 0
M  V30 8238 H 759.294 1.68982 -1.92038 0
M  V30 8239 H 758.938 3.55612 -3.62633 0
M  V30 8240 H 758.868 4.73906 -2.29609 0
M  V30 8241 H 761.359 3.20544 -2.0015 0
M  V30 8242 H 761.672 6.20241 -4.61 0
M  V30 8243 H 760.017 5.58214 -4.14032 0
M  V30 8244 H 763.208 3.92527 -2.5503 0
M  V30 8245 H 763.381 5.29204 -3.73961 0
M  V30 8246 N 756.787 0.722489 1.40064 0
M  V30 8247 C 758.035 0.264455 2.00362 0
M  V30 8248 C 758.356 -1.14847 1.57592 0
M  V30 8249 O 757.626 -1.77982 0.818477 0
M  V30 8250 H 756.206 0.0947846 0.740962 0
M  V30 8251 H 758.868 0.929659 1.71299 0
M  V30 8252 H 757.964 0.302977 3.10626 0
M  V30 8253 N 758.265 -1.50454 0.469181 0
M  V30 8254 C 759.228 -2.2703 -0.314643 0
M  V30 8255 C 760.228 -1.31734 -0.922111 0
M  V30 8256 O 761.418 -1.55176 -0.791588 0
M  V30 8257 C 758.55 -3.08616 -1.44806 0
M  V30 8258 H 759.743 -2.97769 0.356892 0
M  V30 8259 H 757.296 -1.54698 0.223191 0
M  V30 8260 H 758.031 -2.42369 -2.1547 0
M  V30 8261 H 757.816 -3.78647 -1.01829 0
M  V30 8262 H 759.306 -3.66536 -2.00103 0
M  V30 8263 N 759.743 -0.201713 -1.56304 0
M  V30 8264 C 761.159 0.154025 -1.58855 0
M  V30 8265 C 761.359 1.60516 -1.21807 0
M  V30 8266 O 760.415 2.34193 -0.94393 0
M  V30 8267 C 761.728 -0.154319 -3.00304 0
M  V30 8268 C 763.276 -0.0949578 -3.12856 0
M  V30 8269 C 763.751 -0.376703 -4.56448 0
M  V30 8270 N 765.242 -0.325558 -4.62054 0
M  V30 8271 C 765.977 -0.51732 -5.71062 0
M  V30 8272 N 765.473 -0.769789 -6.8851 0
M  V30 8273 N 767.266 -0.45112 -5.60287 0
M  V30 8274 H 759.417 -1.14858 -1.78666 0
M  V30 8275 H 761.68 -0.458934 -0.829508 0
M  V30 8276 H 761.386 -1.16074 -3.31994 0
M  V30 8277 H 761.26 0.540014 -3.73314 0
M  V30 8278 H 763.647 0.902075 -2.80974 0
M  V30 8279 H 763.728 -0.822468 -2.42217 0
M  V30 8280 H 763.372 -1.37108 -4.89044 0
M  V30 8281 H 763.302 0.371772 -5.25286 0
M  V30 8282 H 765.793 -0.137308 -3.7765 0
M  V30 8283 H 766.106 -0.904744 -7.67486 0
M  V30 8284 H 764.451 -0.806758 -6.90302 0
M  V30 8285 H 767.642 -0.254253 -4.67409 0
M  V30 8286 H 767.815 -0.603982 -6.45179 0
M  V30 8287 N 761.222 1.57436 0.0718424 0
M  V30 8288 C 762.469 1.87248 0.771007 0
M  V30 8289 C 762.797 0.793441 1.7758 0
M  V30 8290 O 762.052 -0.210565 1.94564 0
M  V30 8291 C 762.351 3.23723 1.51455 0
M  V30 8292 C 762.017 4.46194 0.649736 0
M  V30 8293 C 760.679 4.79438 0.411409 0
M  V30 8294 C 763.031 5.21176 0.05004 0
M  V30 8295 C 760.359 5.85077 -0.436096 0
M  V30 8296 C 762.711 6.27712 -0.784919 0
M  V30 8297 C 761.375 6.59457 -1.03312 0
M  V30 8298 H 760.645 0.685188 0.282132 0
M  V30 8299 H 763.292 1.91474 0.0317896 0
M  V30 8300 H 761.597 3.15287 2.32597 0
M  V30 8301 H 763.294 3.44023 2.06031 0
M  V30 8302 H 759.884 4.20175 0.84562 0
M  V30 8303 H 764.068 4.95806 0.221282 0
M  V30 8304 H 759.324 6.08071 -0.637136 0
M  V30 8305 H 763.498 6.84974 -1.25635 0
M  V30 8306 H 761.125 7.4114 -1.6916 0
M  V30 8307 N 762.7 -0.34323 1.53817 0
M  V30 8308 C 763.946 -1.08504 1.71332 0
M  V30 8309 C 764.279 -1.88294 0.475285 0
M  V30 8310 O 763.554 -1.87205 -0.527688 0
M  V30 8311 C 763.837 -2.02597 2.97702 0
M  V30 8312 C 763.69 -1.26268 4.31713 0
M  V30 8313 C 765.009 -3.0241 3.19744 0
M  V30 8314 H 762.128 -0.393072 0.623429 0
M  V30 8315 H 764.77 -0.363579 1.86489 0
M  V30 8316 H 762.92 -2.64118 2.8491 0
M  V30 8317 H 764.592 -0.673594 4.56356 0
M  V30 8318 H 762.835 -0.564696 4.30109 0
M  V30 8319 H 763.506 -1.95253 5.16314 0
M  V30 8320 H 765.982 -2.51004 3.31868 0
M  V30 8321 H 764.858 -3.65449 4.09558 0
M  V30 8322 H 765.119 -3.73806 2.36054 0
M  V30 8323 N 764.178 -1.45556 -0.604258 0
M  V30 8324 C 765.594 -1.30035 -0.925368 0
M  V30 8325 C 765.794 -0.255833 -1.99869 0
M  V30 8326 O 764.85 0.349076 -2.50075 0
M  V30 8327 C 766.163 -2.68028 -1.36314 0
M  V30 8328 C 767.711 -2.75951 -1.47717 0
M  V30 8329 C 768.186 -4.14476 -1.94868 0
M  V30 8330 N 769.677 -4.16787 -2.02097 0
M  V30 8331 C 770.412 -5.20845 -2.39809 0
M  V30 8332 N 769.908 -6.35246 -2.76467 0
M  V30 8333 N 771.701 -5.08204 -2.40177 0
M  V30 8334 H 763.852 -2.1214 0.10512 0
M  V30 8335 H 766.115 -0.947871 -0.0156303 0
M  V30 8336 H 765.821 -3.45667 -0.648628 0
M  V30 8337 H 765.695 -2.96711 -2.329 0
M  V30 8338 H 768.082 -1.98613 -2.18258 0
M  V30 8339 H 768.163 -2.50977 -0.494371 0
M  V30 8340 H 767.807 -4.923 -1.24912 0
M  V30 8341 H 767.737 -4.36843 -2.94068 0
M  V30 8342 H 770.228 -3.34233 -1.76343 0
M  V30 8343 H 770.541 -7.10438 -3.04134 0
M  V30 8344 H 768.886 -6.38642 -2.74155 0
M  V30 8345 H 772.077 -4.17874 -2.10947 0
M  V30 8346 H 772.25 -5.89417 -2.69242 0
M  V30 8347 N 765.656 0.84705 -1.32902 0
M  V30 8348 C 766.586 1.97166 -1.25091 0
M  V30 8349 C 767.567 1.69578 -0.133161 0
M  V30 8350 O 768.752 1.91519 -0.321591 0
M  V30 8351 C 765.882 3.33157 -0.981006 0
M  V30 8352 C 764.836 3.75119 -2.06082 0
M  V30 8353 C 764.162 5.08826 -1.64318 0
M  V30 8354 C 765.462 3.89774 -3.47669 0
M  V30 8355 H 767.156 2.03958 -2.19184 0
M  V30 8356 H 764.702 0.979907 -1.05517 0
M  V30 8357 H 766.655 4.11393 -0.912891 0
M  V30 8358 H 765.379 3.266 -0.00445559 0
M  V30 8359 H 764.038 2.9914 -2.11921 0
M  V30 8360 H 763.686 4.98732 -0.653876 0
M  V30 8361 H 763.386 5.37873 -2.36572 0
M  V30 8362 H 764.91 5.89546 -1.58958 0
M  V30 8363 H 766.324 4.58343 -3.44376 0
M  V30 8364 H 764.721 4.30248 -4.18338 0
M  V30 8365 H 765.791 2.92463 -3.86773 0
M  V30 8366 N 767.134 1.16236 1.06428 0
M  V30 8367 C 768.044 0.881976 2.1739 0
M  V30 8368 C 769.06 -0.145259 1.73393 0
M  V30 8369 O 770.236 0.0310558 2.01376 0
M  V30 8370 C 767.301 0.385496 3.4455 0
M  V30 8371 C 766.362 1.47779 4.03063 0
M  V30 8372 C 765.595 1.0049 5.24154 0
M  V30 8373 O 765.818 -0.145889 5.70213 0
M  V30 8374 O 764.752 1.79265 5.74585 0
M  V30 8375 H 768.578 1.80983 2.43883 0
M  V30 8376 H 766.163 0.942226 1.15942 0
M  V30 8377 H 768.045 0.115536 4.21242 0
M  V30 8378 H 766.72 -0.514369 3.19587 0
M  V30 8379 H 765.627 1.80147 3.27869 0
M  V30 8380 H 766.96 2.35291 4.32318 0
M  V30 8381 N 768.612 -1.24939 0.960631 0
M  V30 8382 C 769.858 -1.93104 0.61958 0
M  V30 8383 C 770.191 -1.74991 -0.84212 0
M  V30 8384 O 769.466 -1.09867 -1.60498 0
M  V30 8385 C 769.749 -3.46326 0.986422 0
M  V30 8386 C 769.602 -3.73638 2.50429 0
M  V30 8387 C 770.921 -4.37067 0.515827 0
M  V30 8388 H 768.04 -0.701311 0.226566 0
M  V30 8389 H 770.682 -1.47442 1.19836 0
M  V30 8390 H 768.832 -3.85348 0.493907 0
M  V30 8391 H 770.504 -3.44217 3.07103 0
M  V30 8392 H 768.747 -3.19035 2.93937 0
M  V30 8393 H 769.418 -4.80815 2.71147 0
M  V30 8394 H 771.894 -4.05381 0.938389 0
M  V30 8395 H 770.77 -5.43022 0.80114 0
M  V30 8396 H 771.031 -4.38224 -0.584171 0
M  V30 8397 N 770.09 -0.729906 -1.39679 0
M  V30 8398 C 771.318 -0.285709 -2.04918 0
M  V30 8399 C 771.733 1.07765 -1.55023 0
M  V30 8400 O 771.09 1.67999 -0.712923 0
M  V30 8401 C 771.141 -0.272793 -3.60469 0
M  V30 8402 O 770.862 -1.58233 -4.08527 0
M  V30 8403 C 772.363 0.188199 -4.429 0
M  V30 8404 H 769.583 -0.125758 -0.65911 0
M  V30 8405 H 772.127 -0.992129 -1.78821 0
M  V30 8406 H 770.282 0.384699 -3.85485 0
M  V30 8407 H 770.696 -1.49245 -5.02818 0
M  V30 8408 H 772.17 0.14608 -5.51807 0
M  V30 8409 H 772.647 1.2326 -4.21549 0
M  V30 8410 H 773.253 -0.439541 -4.23023 0
M  V30 8411 N 771.568 1.50203 -0.477153 0
M  V30 8412 C 772.478 2.32421 0.319027 0
M  V30 8413 C 773.494 1.43075 0.990233 0
M  V30 8414 O 774.67 1.76123 0.976873 0
M  V30 8415 C 771.735 3.17909 1.38328 0
M  V30 8416 C 770.796 4.23082 0.728036 0
M  V30 8417 C 770.029 5.04484 1.74158 0
M  V30 8418 O 770.252 4.8705 2.96881 0
M  V30 8419 O 769.186 5.8747 1.31006 0
M  V30 8420 H 773.012 3.01638 -0.353281 0
M  V30 8421 H 770.597 1.47478 -0.238891 0
M  V30 8422 H 772.479 3.70937 1.9996 0
M  V30 8423 H 771.154 2.51413 2.03895 0
M  V30 8424 H 770.061 3.7403 0.07261 0
M  V30 8425 H 771.394 4.92065 0.115216 0
M  V30 8426 N 773.046 0.209999 1.56195 0
M  V30 8427 C 773.956 -0.716459 2.23392 0
M  V30 8428 C 774.972 -1.22291 1.23778 0
M  V30 8429 O 776.148 -1.26694 1.56558 0
M  V30 8430 C 773.213 -1.91261 2.89172 0
M  V30 8431 C 772.274 -1.44927 4.04097 0
M  V30 8432 C 771.507 -2.5884 4.66731 0
M  V30 8433 O 771.73 -3.76693 4.2832 0
M  V30 8434 O 770.664 -2.30701 5.55932 0
M  V30 8435 H 774.49 -0.174089 3.03201 0
M  V30 8436 H 772.075 -0.0199505 1.49387 0
M  V30 8437 H 773.957 -2.6114 3.30733 0
M  V30 8438 H 772.632 -2.4433 2.12331 0
M  V30 8439 H 771.539 -0.718839 3.67129 0
M  V30 8440 H 772.872 -0.965084 4.82646 0
M  V30 8441 N 774.524 -1.57472 -0.0634922 0
M  V30 8442 C 775.801 -1.78736 -0.794538 0
M  V30 8443 C 776.181 -0.799645 -1.95369 0
M  V30 8444 O 775.529 0.165521 -2.279 0
M  V30 8445 C 775.739 -3.25471 -1.25975 0
M  V30 8446 C 777.087 -3.89528 -1.68976 0
M  V30 8447 O 778.111 -3.29412 -1.35521 0
M  V30 8448 O 776.97 -4.95305 -2.30944 0
M  V30 8449 H 774.064 -0.733813 -0.381376 0
M  V30 8450 H 776.61 -1.69646 -0.0429258 0
M  V30 8451 H 775.382 -3.88922 -0.430721 0
M  V30 8452 H 775.005 -3.39317 -2.07243 0
M  V30 8453 N 776.003 0.335068 -1.53997 0
M  V30 8454 C 777.252 1.07182 -1.70865 0
M  V30 8455 C 777.565 1.89541 -0.483078 0
M  V30 8456 O 778.771 2.66219 -0.532879 0
M  V30 8457 C 777.227 1.95497 -3.02174 0
M  V30 8458 C 776.835 1.18304 -4.32097 0
M  V30 8459 C 778.579 2.68978 -3.28407 0
M  V30 8460 C 776.486 2.05699 -5.54474 0
M  V30 8461 H 775.416 0.403857 -0.636722 0
M  V30 8462 H 778.067 0.33076 -1.80494 0
M  V30 8463 H 776.449 2.73456 -2.86423 0
M  V30 8464 H 777.623 0.451969 -4.58578 0
M  V30 8465 H 775.938 0.565556 -4.12541 0
M  V30 8466 H 778.535 3.34651 -4.17029 0
M  V30 8467 H 778.878 3.36 -2.45784 0
M  V30 8468 H 779.411 1.98087 -3.44973 0
M  V30 8469 H 776.15 1.43204 -6.39666 0
M  V30 8470 H 775.67 2.76572 -5.32229 0
M  V30 8471 H 777.349 2.64554 -5.90441 0
M  V30 8472 N 777.481 1.45874 0.596531 0
M  V30 8473 C 778.444 1.54988 1.68853 0
M  V30 8474 C 779.444 0.428302 1.54991 0
M  V30 8475 O 780.634 0.692158 1.59859 0
M  V30 8476 C 777.766 1.457 3.08195 0
M  V30 8477 H 778.959 2.52294 1.62135 0
M  V30 8478 H 776.512 1.33479 0.813206 0
M  V30 8479 H 777.247 0.496204 3.20481 0
M  V30 8480 H 777.032 2.27061 3.19665 0
M  V30 8481 H 778.522 1.55133 3.87716 0
M  V30 8482 N 778.959 -0.83999 1.33349 0
M  V30 8483 C 779.869 -1.98182 1.25543 0
M  V30 8484 C 780.885 -1.73204 0.166208 0
M  V30 8485 O 782.061 -1.97596 0.389589 0
M  V30 8486 C 779.126 -3.32157 0.993614 0
M  V30 8487 C 778.187 -3.70258 2.17273 0
M  V30 8488 C 777.42 -4.9784 1.92331 0
M  V30 8489 O 777.643 -5.63679 0.873074 0
M  V30 8490 O 776.577 -5.33418 2.78835 0
M  V30 8491 H 780.403 -2.07708 2.21565 0
M  V30 8492 H 777.988 -0.972852 1.13384 0
M  V30 8493 H 779.87 -4.12433 0.864711 0
M  V30 8494 H 778.545 -3.23637 0.0636596 0
M  V30 8495 H 777.452 -2.90497 2.35716 0
M  V30 8496 H 778.785 -3.83442 3.08598 0
M  V30 8497 N 780.437 -1.16799 -1.0581 0
M  V30 8498 C 781.686 -0.94698 -1.78088 0
M  V30 8499 C 781.999 0.526016 -1.88394 0
M  V30 8500 O 783.205 0.865061 -2.5735 0
M  V30 8501 C 781.661 -1.64508 -3.20102 0
M  V30 8502 C 781.269 -3.15618 -3.17946 0
M  V30 8503 C 783.013 -1.50622 -3.96879 0
M  V30 8504 C 780.92 -3.78144 -4.5471 0
M  V30 8505 H 779.85 -0.35067 -0.667493 0
M  V30 8506 H 782.501 -1.39985 -1.18645 0
M  V30 8507 H 780.883 -1.11993 -3.79834 0
M  V30 8508 H 782.057 -3.75016 -2.67768 0
M  V30 8509 H 780.372 -3.29444 -2.54667 0
M  V30 8510 H 782.969 -1.94713 -4.97987 0
M  V30 8511 H 783.312 -0.455864 -4.13797 0
M  V30 8512 H 783.845 -2.00319 -3.43682 0
M  V30 8513 H 780.584 -4.83149 -4.42998 0
M  V30 8514 H 780.104 -3.23532 -5.05062 0
M  V30 8515 H 781.783 -3.79986 -5.2366 0
M  V30 8516 N 781.915 1.24427 -0.967243 0
M  V30 8517 C 783.161 1.92772 -0.629812 0
M  V30 8518 C 783.494 1.75436 0.832827 0
M  V30 8519 O 782.769 1.10716 1.59913 0
M  V30 8520 C 783.052 3.45798 -1.00477 0
M  V30 8521 C 782.905 3.72304 -2.52407 0
M  V30 8522 C 784.224 4.36787 -0.538999 0
M  V30 8523 H 781.343 0.700099 -0.230282 0
M  V30 8524 H 783.985 1.46805 -1.20616 0
M  V30 8525 H 782.135 3.8508 -0.514336 0
M  V30 8526 H 783.807 3.42584 -3.08924 0
M  V30 8527 H 782.05 3.17472 -2.95625 0
M  V30 8528 H 782.721 4.7937 -2.73693 0
M  V30 8529 H 785.197 4.04877 -0.959874 0
M  V30 8530 H 784.073 5.4259 -0.829926 0
M  V30 8531 H 784.334 4.38527 0.560923 0
M  V30 8532 N 783.393 0.737304 1.3929 0
M  V30 8533 C 784.618 0.295237 2.05288 0
M  V30 8534 C 785.043 -1.06235 1.55228 0
M  V30 8535 O 784.401 -1.67365 0.697043 0
M  V30 8536 C 784.449 0.309146 3.59272 0
M  V30 8537 O 783.553 -0.702437 4.06374 0
M  V30 8538 H 782.894 0.133762 0.650387 0
M  V30 8539 H 785.424 1.00387 1.78279 0
M  V30 8540 H 785.434 0.154336 4.07708 0
M  V30 8541 H 784.109 1.29974 3.95069 0
M  V30 8542 H 782.686 -0.513574 3.69346 0
M  V30 8543 N 784.871 -1.49948 0.485112 0
M  V30 8544 C 786.287 -1.58984 0.140096 0
M  V30 8545 C 786.487 -1.49194 -1.35438 0
M  V30 8546 O 785.543 -1.35765 -2.12894 0
M  V30 8547 C 786.856 -2.92372 0.702769 0
M  V30 8548 C 788.404 -3.05801 0.66745 0
M  V30 8549 C 788.879 -4.41785 1.20791 0
M  V30 8550 N 790.37 -4.48234 1.16792 0
M  V30 8551 C 791.105 -5.51871 1.55646 0
M  V30 8552 N 790.601 -6.62692 2.02016 0
M  V30 8553 N 792.394 -5.42494 1.47161 0
M  V30 8554 H 784.545 -1.54555 1.45693 0
M  V30 8555 H 786.808 -0.731206 0.603359 0
M  V30 8556 H 786.514 -3.05056 1.75025 0
M  V30 8557 H 786.388 -3.76885 0.154205 0
M  V30 8558 H 788.775 -2.92757 -0.371157 0
M  V30 8559 H 788.856 -2.23011 1.25298 0
M  V30 8560 H 788.5 -4.55579 2.24522 0
M  V30 8561 H 788.43 -5.23188 0.598464 0
M  V30 8562 H 790.921 -3.68718 0.827982 0
M  V30 8563 H 791.234 -7.3785 2.29775 0
M  V30 8564 H 789.579 -6.63775 2.05979 0
M  V30 8565 H 792.77 -4.54806 1.10765 0
M  V30 8566 H 792.943 -6.2314 1.77766 0
M  V30 8567 N 786.349 -0.21828 -1.56081 0
M  V30 8568 C 787.595 0.408181 -1.99262 0
M  V30 8569 C 787.95 1.57618 -1.10337 0
M  V30 8570 O 787.243 1.90991 -0.15263 0
M  V30 8571 C 787.437 0.894782 -3.46018 0
M  V30 8572 C 787.266 -0.224528 -4.49139 0
M  V30 8573 C 786.036 -0.689843 -5.00569 0
M  V30 8574 C 788.234 -1.04165 -5.03641 0
M  V30 8575 N 786.216 -1.78455 -5.8739 0
M  V30 8576 C 787.587 -1.98529 -5.87355 0
M  V30 8577 C 789.642 -1.08146 -4.86013 0
M  V30 8578 C 788.345 -2.96549 -6.55325 0
M  V30 8579 C 790.371 -2.04982 -5.5474 0
M  V30 8580 C 789.733 -2.98086 -6.38219 0
M  V30 8581 H 785.832 0.116127 -0.77333 0
M  V30 8582 H 788.416 -0.3293 -1.91895 0
M  V30 8583 H 786.587 1.60163 -3.53839 0
M  V30 8584 H 788.319 1.49379 -3.76122 0
M  V30 8585 H 785.074 -0.279021 -4.72777 0
M  V30 8586 H 785.498 -2.33381 -6.35502 0
M  V30 8587 H 790.14 -0.375581 -4.21129 0
M  V30 8588 H 787.858 -3.68101 -7.19394 0
M  V30 8589 H 791.444 -2.08732 -5.43067 0
M  V30 8590 H 790.324 -3.71794 -6.90463 0
M  V30 8591 N 787.827 1.57504 0.0551401 0
M  V30 8592 C 789.055 1.92294 0.76358 0
M  V30 8593 C 789.47 0.815774 1.70266 0
M  V30 8594 O 788.827 -0.209772 1.8129 0
M  V30 8595 C 788.878 3.26914 1.54302 0
M  V30 8596 O 788.599 4.33375 0.641666 0
M  V30 8597 C 790.1 3.75825 2.35097 0
M  V30 8598 H 787.32 0.635229 0.216159 0
M  V30 8599 H 789.864 2.0449 0.0204385 0
M  V30 8600 H 788.019 3.16196 2.23828 0
M  V30 8601 H 788.433 5.10927 1.1855 0
M  V30 8602 H 789.907 4.72603 2.8522 0
M  V30 8603 H 790.384 3.0568 3.15367 0
M  V30 8604 H 790.99 3.89542 1.70696 0
M  V30 8605 N 789.305 -0.326896 1.54172 0
M  V30 8606 C 790.553 -1.06313 1.71878 0
M  V30 8607 C 790.874 -1.88652 0.493498 0
M  V30 8608 O 790.144 -1.89608 -0.492522 0
M  V30 8609 H 788.724 -0.39549 0.633716 0
M  V30 8610 H 791.386 -0.364139 1.91468 0
M  V30 8611 H 790.482 -1.73105 2.59694 0
M  V30 8612 N 790.784 -1.46188 -0.588786 0
M  V30 8613 C 792.033 -1.50452 -1.34339 0
M  V30 8614 C 792.346 -0.158096 -1.9496 0
M  V30 8615 O 793.552 -0.0784918 -2.71387 0
M  V30 8616 C 792.008 -2.65074 -2.43441 0
M  V30 8617 C 791.616 -4.06111 -1.8915 0
M  V30 8618 C 793.36 -2.78603 -3.20282 0
M  V30 8619 C 791.267 -5.12084 -2.95845 0
M  V30 8620 H 790.197 -0.559905 -0.504997 0
M  V30 8621 H 792.848 -1.72382 -0.629014 0
M  V30 8622 H 791.23 -2.36462 -3.1765 0
M  V30 8623 H 792.404 -4.44487 -1.21524 0
M  V30 8624 H 790.719 -3.97197 -1.24995 0
M  V30 8625 H 793.316 -3.54944 -3.99898 0
M  V30 8626 H 793.659 -1.85902 -3.72486 0
M  V30 8627 H 794.192 -3.06832 -2.53178 0
M  V30 8628 H 790.931 -6.06556 -2.48535 0
M  V30 8629 H 790.451 -4.78259 -3.61979 0
M  V30 8630 H 792.13 -5.37661 -3.59902 0
M  V30 8631 N 792.262 0.832906 -1.33792 0
M  V30 8632 C 793.673 1.40489 -1.22963 0
M  V30 8633 C 794.024 1.95633 0.149026 0
M  V30 8634 O 793.149 1.8928 1.04891 0
M  V30 8635 C 793.744 2.55387 -2.22627 0
M  V30 8636 C 792.303 3.08522 -2.15618 0
M  V30 8637 C 791.45 1.81347 -2.09782 0
M  V30 8638 H 794.401 0.638156 -1.45304 0
M  V30 8639 H 794.422 3.33193 -1.83746 0
M  V30 8640 H 793.934 2.15222 -3.22957 0
M  V30 8641 H 792.035 3.53217 -1.18611 0
M  V30 8642 H 792.148 3.6829 -3.0643 0
M  V30 8643 H 790.512 2.01839 -1.55349 0
M  V30 8644 H 791.295 1.43369 -3.1193 0
M  V30 8645 N 793.74 1.17359 1.05189 0
M  V30 8646 C 794.986 0.963413 1.78455 0
M  V30 8647 C 795.319 -0.506703 1.87473 0
M  V30 8648 O 794.594 -1.37611 1.37453 0
M  V30 8649 C 794.877 1.60519 3.22344 0
M  V30 8650 C 794.73 3.14741 3.21338 0
M  V30 8651 C 796.049 1.3091 4.20179 0
M  V30 8652 H 793.168 0.351412 0.647826 0
M  V30 8653 H 795.81 1.44858 1.22948 0
M  V30 8654 H 793.96 1.19265 3.69741 0
M  V30 8655 H 795.632 3.65053 2.82017 0
M  V30 8656 H 793.875 3.4749 2.59679 0
M  V30 8657 H 794.546 3.54775 4.22894 0
M  V30 8658 H 797.022 1.66635 3.81277 0
M  V30 8659 H 795.898 1.784 5.191 0
M  V30 8660 H 796.159 0.229908 4.41502 0
M  V30 8661 N 795.218 -1.23913 0.973828 0
M  V30 8662 C 796.443 -1.96735 0.656511 0
M  V30 8663 C 796.868 -1.71682 -0.768571 0
M  V30 8664 O 796.226 -0.984267 -1.52256 0
M  V30 8665 C 796.274 -3.48004 0.944735 0
M  V30 8666 O 795.378 -4.12387 0.0333357 0
M  V30 8667 H 794.719 -0.616119 0.247575 0
M  V30 8668 H 797.249 -1.57525 1.30564 0
M  V30 8669 H 797.259 -3.98424 0.87876 0
M  V30 8670 H 795.934 -3.65567 1.98328 0
M  V30 8671 H 794.511 -3.72585 0.153157 0
M  V30 8672 N 796.696 -0.74468 -1.38897 0
M  V30 8673 C 797.643 -0.111064 -2.30533 0
M  V30 8674 C 798.613 0.719276 -1.49719 0
M  V30 8675 O 799.798 0.677244 -1.78376 0
M  V30 8676 C 796.938 0.78292 -3.36102 0
M  V30 8677 C 796.051 -0.0610817 -4.31957 0
M  V30 8678 C 795.186 0.835075 -5.24595 0
M  V30 8679 C 794.225 -0.0130974 -6.12099 0
M  V30 8680 N 793.362 0.839525 -6.97063 0
M  V30 8681 H 798.202 -0.898113 -2.84144 0
M  V30 8682 H 795.739 -0.454537 -1.39901 0
M  V30 8683 H 797.697 1.31578 -3.95908 0
M  V30 8684 H 796.327 1.53585 -2.83922 0
M  V30 8685 H 795.379 -0.711469 -3.73687 0
M  V30 8686 H 796.691 -0.716482 -4.93627 0
M  V30 8687 H 795.845 1.43542 -5.89475 0
M  V30 8688 H 794.584 1.52423 -4.63269 0
M  V30 8689 H 793.589 -0.626179 -5.46223 0
M  V30 8690 H 794.814 -0.699181 -6.75491 0
M  V30 8691 H 792.76 1.5138 -6.38295 0
M  V30 8692 H 792.677 0.240823 -7.55616 0
M  V30 8693 H 793.945 1.42513 -7.66362 0
M  V30 8694 N 798.174 1.49689 -0.493057 0
M  V30 8695 C 799.104 2.31826 0.279073 0
M  V30 8696 C 800.085 1.39733 0.969987 0
M  V30 8697 O 801.27 1.68646 0.962925 0
M  V30 8698 C 798.4 3.20046 1.34862 0
M  V30 8699 C 797.354 4.20869 0.77805 0
M  V30 8700 C 796.68 4.97971 1.94753 0
M  V30 8701 C 797.98 5.21813 -0.225543 0
M  V30 8702 H 799.674 2.96627 -0.406512 0
M  V30 8703 H 797.22 1.42647 -0.196943 0
M  V30 8704 H 799.173 3.76315 1.89645 0
M  V30 8705 H 797.897 2.53172 2.06328 0
M  V30 8706 H 796.556 3.65733 0.252036 0
M  V30 8707 H 796.204 4.27552 2.64969 0
M  V30 8708 H 795.904 5.66186 1.57187 0
M  V30 8709 H 797.428 5.57082 2.49984 0
M  V30 8710 H 798.842 5.72823 0.233864 0
M  V30 8711 H 797.239 5.97872 -0.516622 0
M  V30 8712 H 798.309 4.71209 -1.14412 0
M  V30 8713 N 799.652 0.226554 1.55963 0
M  V30 8714 C 800.582 -0.676079 2.23498 0
M  V30 8715 C 801.563 -1.19718 1.20837 0
M  V30 8716 O 802.748 -1.24027 1.49436 0
M  V30 8717 C 799.878 -1.88217 2.91876 0
M  V30 8718 C 798.832 -1.4947 4.01052 0
M  V30 8719 C 798.158 -2.77997 4.56751 0
M  V30 8720 C 799.458 -0.680951 5.17842 0
M  V30 8721 H 801.152 -0.112989 2.99187 0
M  V30 8722 H 798.698 -0.0529046 1.43903 0
M  V30 8723 H 800.651 -2.51911 3.37815 0
M  V30 8724 H 799.375 -2.47031 2.13643 0
M  V30 8725 H 798.034 -0.881199 3.55852 0
M  V30 8726 H 797.682 -3.34966 3.75243 0
M  V30 8727 H 797.382 -2.52803 5.30438 0
M  V30 8728 H 798.906 -3.42625 5.05411 0
M  V30 8729 H 800.32 -1.22171 5.60131 0
M  V30 8730 H 798.717 -0.525898 5.97791 0
M  V30 8731 H 799.787 0.311346 4.83899 0
M  V30 8732 N 801.13 -1.57531 -0.0467866 0
M  V30 8733 C 802.04 -2.08768 -1.07018 0
M  V30 8734 C 803.056 -1.02245 -1.40791 0
M  V30 8735 O 804.232 -1.33873 -1.50466 0
M  V30 8736 C 801.297 -2.54221 -2.35738 0
M  V30 8737 C 800.358 -3.75152 -2.08709 0
M  V30 8738 C 799.591 -4.18428 -3.31291 0
M  V30 8739 O 799.814 -3.61365 -4.4133 0
M  V30 8740 O 798.748 -5.11018 -3.18032 0
M  V30 8741 H 802.574 -2.96334 -0.664812 0
M  V30 8742 H 800.159 -1.47074 -0.262605 0
M  V30 8743 H 802.041 -2.83866 -3.11445 0
M  V30 8744 H 800.716 -1.69774 -2.75605 0
M  V30 8745 H 799.623 -3.50553 -1.30627 0
M  V30 8746 H 800.956 -4.60528 -1.73708 0
M  V30 8747 N 802.608 0.318715 -1.54344 0
M  V30 8748 C 803.856 1.054 -1.72439 0
M  V30 8749 C 804.177 1.88388 -0.503495 0
M  V30 8750 O 803.447 1.89866 0.48246 0
M  V30 8751 H 802.027 0.392124 -0.635805 0
M  V30 8752 H 804.689 0.35398 -1.91659 0
M  V30 8753 H 803.785 1.71726 -2.60608 0
M  V30 8754 N 804.086 1.46499 0.581025 0
M  V30 8755 C 804.996 1.59778 1.71779 0
M  V30 8756 C 806.012 0.481223 1.67213 0
M  V30 8757 O 807.188 0.74557 1.87091 0
M  V30 8758 C 804.253 1.58626 3.08283 0
M  V30 8759 C 803.314 2.81527 3.241 0
M  V30 8760 C 802.547 2.80421 4.54092 0
M  V30 8761 O 802.77 1.89262 5.38085 0
M  V30 8762 O 801.704 3.71984 4.73193 0
M  V30 8763 H 805.53 2.55918 1.63523 0
M  V30 8764 H 803.115 1.29311 0.748267 0
M  V30 8765 H 804.997 1.60686 3.89561 0
M  V30 8766 H 803.672 0.656467 3.16973 0
M  V30 8767 H 802.579 2.85021 2.42309 0
M  V30 8768 H 803.912 3.73721 3.20302 0
M  V30 8769 N 805.565 -0.825799 1.34232 0
M  V30 8770 C 806.981 -1.11848 1.13851 0
M  V30 8771 C 807.181 -2.01405 -0.0619031 0
M  V30 8772 O 806.237 -2.41465 -0.738287 0
M  V30 8773 C 807.55 -1.76797 2.43235 0
M  V30 8774 C 809.098 -1.89304 2.49265 0
M  V30 8775 C 809.573 -2.57669 3.78643 0
M  V30 8776 N 811.064 -2.65171 3.79788 0
M  V30 8777 C 811.799 -3.1879 4.76614 0
M  V30 8778 N 811.295 -3.72995 5.83821 0
M  V30 8779 N 813.088 -3.17164 4.64073 0
M  V30 8780 H 805.239 -0.230049 2.11151 0
M  V30 8781 H 807.502 -0.164609 0.9336 0
M  V30 8782 H 807.208 -1.18455 3.31152 0
M  V30 8783 H 807.082 -2.76693 2.56361 0
M  V30 8784 H 809.469 -2.46796 1.6179 0
M  V30 8785 H 809.55 -0.883191 2.4007 0
M  V30 8786 H 809.194 -2.00833 4.66507 0
M  V30 8787 H 809.124 -3.59152 3.8512 0
M  V30 8788 H 811.615 -2.26746 3.02315 0
M  V30 8789 H 811.928 -4.12151 6.53721 0
M  V30 8790 H 810.273 -3.71246 5.87538 0
M  V30 8791 H 813.464 -2.74082 3.79469 0
M  V30 8792 H 813.637 -3.58647 5.397 0
M  V30 8793 N 807.043 -1.17915 -1.04565 0
M  V30 8794 C 807.953 -0.916449 -2.15959 0
M  V30 8795 C 808.969 0.117655 -1.73602 0
M  V30 8796 O 810.145 -0.063089 -2.01301 0
M  V30 8797 C 807.21 -0.440262 -3.43893 0
M  V30 8798 C 806.271 -1.54172 -4.00661 0
M  V30 8799 C 805.504 -1.08816 -5.22489 0
M  V30 8800 O 805.727 0.0551547 -5.70373 0
M  V30 8801 O 804.661 -1.88383 -5.7166 0
M  V30 8802 H 808.487 -1.8484 -2.40972 0
M  V30 8803 H 806.072 -0.960552 -1.14428 0
M  V30 8804 H 807.954 -0.182537 -4.21004 0
M  V30 8805 H 806.629 0.46346 -3.20365 0
M  V30 8806 H 805.536 -1.85341 -3.24961 0
M  V30 8807 H 806.869 -2.42139 -4.2852 0
M  V30 8808 N 808.521 1.23394 -0.980386 0
M  V30 8809 C 809.468 2.24859 -0.520298 0
M  V30 8810 C 810.438 1.60144 0.440821 0
M  V30 8811 O 811.623 1.87593 0.348369 0
M  V30 8812 C 808.763 3.44675 0.171145 0
M  V30 8813 C 807.876 4.23947 -0.830233 0
M  V30 8814 C 807.011 5.31079 -0.113597 0
M  V30 8815 C 806.05 6.02058 -1.10419 0
M  V30 8816 N 805.187 7.00862 -0.416709 0
M  V30 8817 H 810.027 2.63579 -1.39032 0
M  V30 8818 H 807.564 1.29556 -0.696682 0
M  V30 8819 H 809.522 4.13024 0.588838 0
M  V30 8820 H 808.152 3.06755 1.00504 0
M  V30 8821 H 807.204 3.55016 -1.36631 0
M  V30 8822 H 808.516 4.72945 -1.58508 0
M  V30 8823 H 807.67 6.05622 0.36146 0
M  V30 8824 H 806.409 4.83022 0.673854 0
M  V30 8825 H 805.414 5.26307 -1.59 0
M  V30 8826 H 806.639 6.52203 -1.8923 0
M  V30 8827 H 804.585 6.55057 0.351535 0
M  V30 8828 H 804.502 7.47804 -1.11021 0
M  V30 8829 H 805.77 7.79492 0.0359606 0
M  V30 8830 N 809.999 0.752036 1.385 0
M  V30 8831 C 810.929 0.138718 2.33088 0
M  V30 8832 C 811.91 -0.705318 1.54788 0
M  V30 8833 O 813.095 -0.646821 1.83112 0
M  V30 8834 C 810.225 -0.75641 3.38963 0
M  V30 8835 C 809.179 -0.0152239 4.27997 0
M  V30 8836 C 808.505 -1.0285 5.24715 0
M  V30 8837 C 809.805 1.15226 5.09431 0
M  V30 8838 H 811.499 0.928852 2.84627 0
M  V30 8839 H 809.045 0.448111 1.3685 0
M  V30 8840 H 810.998 -1.19513 4.04097 0
M  V30 8841 H 809.722 -1.57885 2.85902 0
M  V30 8842 H 808.381 0.404061 3.64366 0
M  V30 8843 H 808.029 -1.84496 4.67943 0
M  V30 8844 H 807.729 -0.537238 5.85139 0
M  V30 8845 H 809.253 -1.46657 5.92726 0
M  V30 8846 H 810.667 0.791161 5.67815 0
M  V30 8847 H 809.064 1.57428 5.79082 0
M  V30 8848 H 810.134 1.9659 4.43261 0
M  V30 8849 N 811.477 -1.49425 0.500989 0
M  V30 8850 C 812.407 -2.31971 -0.266775 0
M  V30 8851 C 813.388 -1.40245 -0.962563 0
M  V30 8852 O 814.573 -1.69154 -0.953968 0
M  V30 8853 C 811.703 -3.20757 -1.33163 0
M  V30 8854 C 810.657 -4.21275 -0.75572 0
M  V30 8855 C 809.983 -4.98997 -1.92109 0
M  V30 8856 C 811.283 -5.21686 0.253213 0
M  V30 8857 H 812.977 -2.96408 0.422237 0
M  V30 8858 H 810.523 -1.4254 0.204505 0
M  V30 8859 H 812.476 -3.77315 -1.87646 0
M  V30 8860 H 811.2 -2.54263 -2.04983 0
M  V30 8861 H 809.859 -3.65861 -0.232637 0
M  V30 8862 H 809.507 -4.28951 -2.62698 0
M  V30 8863 H 809.207 -5.67011 -1.54182 0
M  V30 8864 H 810.731 -5.584 -2.47026 0
M  V30 8865 H 812.145 -5.72939 -0.203483 0
M  V30 8866 H 810.542 -5.9759 0.548322 0
M  V30 8867 H 811.612 -4.70596 1.16909 0
M  V30 8868 N 812.955 -0.234822 -1.55841 0
M  V30 8869 C 814.371 0.120295 -1.59146 0
M  V30 8870 C 814.571 1.57896 -1.25184 0
M  V30 8871 O 813.627 2.32138 -0.993393 0
M  V30 8872 C 814.94 -0.217984 -2.99909 0
M  V30 8873 C 816.488 -0.161298 -3.12584 0
M  V30 8874 C 816.963 -0.473438 -4.55546 0
M  V30 8875 N 818.454 -0.423494 -4.6126 0
M  V30 8876 C 819.189 -0.638334 -5.69836 0
M  V30 8877 N 818.685 -0.915659 -6.86722 0
M  V30 8878 N 820.478 -0.569864 -5.59204 0
M  V30 8879 H 812.629 -1.18622 -1.76189 0
M  V30 8880 H 814.892 -0.476426 -0.819587 0
M  V30 8881 H 814.598 -1.2309 -3.29457 0
M  V30 8882 H 814.472 0.460707 -3.74376 0
M  V30 8883 H 816.859 0.842274 -2.82825 0
M  V30 8884 H 816.94 -0.873661 -2.40418 0
M  V30 8885 H 816.584 -1.47451 -4.86025 0
M  V30 8886 H 816.514 0.260268 -5.25956 0
M  V30 8887 H 819.005 -0.217383 -3.77274 0
M  V30 8888 H 819.318 -1.06734 -7.65394 0
M  V30 8889 H 817.663 -0.953 -6.88435 0
M  V30 8890 H 820.854 -0.35334 -4.66765 0
M  V30 8891 H 821.027 -0.740698 -6.43753 0
M  V30 8892 N 814.433 1.57553 0.0384317 0
M  V30 8893 C 815.363 2.0898 1.04161 0
M  V30 8894 C 816.344 0.99029 1.38301 0
M  V30 8895 O 817.529 1.26499 1.47349 0
M  V30 8896 C 814.659 2.56145 2.34536 0
M  V30 8897 C 813.613 3.70275 2.14663 0
M  V30 8898 C 812.939 4.03612 3.50715 0
M  V30 8899 C 814.239 4.99067 1.54045 0
M  V30 8900 H 815.933 2.93046 0.613548 0
M  V30 8901 H 813.479 1.40973 0.293684 0
M  V30 8902 H 815.432 2.90741 3.05037 0
M  V30 8903 H 814.156 1.6915 2.79385 0
M  V30 8904 H 812.815 3.36013 1.46597 0
M  V30 8905 H 812.463 3.13698 3.93195 0
M  V30 8906 H 812.163 4.80482 3.38247 0
M  V30 8907 H 813.687 4.40735 4.22593 0
M  V30 8908 H 815.101 5.3168 2.14451 0
M  V30 8909 H 813.498 5.80484 1.52178 0
M  V30 8910 H 814.568 4.8226 0.505259 0
M  V30 8911 N 815.911 -0.310526 1.54511 0
M  V30 8912 C 816.821 -1.4054 1.87844 0
M  V30 8913 C 817.837 -1.55954 0.771635 0
M  V30 8914 O 819.013 -1.70801 1.06719 0
M  V30 8915 C 816.078 -2.75063 2.11048 0
M  V30 8916 C 815.139 -2.68715 3.348 0
M  V30 8917 C 814.372 -3.96821 3.56887 0
M  V30 8918 O 814.595 -4.95721 2.82165 0
M  V30 8919 O 813.529 -3.99291 4.50389 0
M  V30 8920 H 817.355 -1.15275 2.80972 0
M  V30 8921 H 814.94 -0.505732 1.4058 0
M  V30 8922 H 816.822 -3.54671 2.27566 0
M  V30 8923 H 815.497 -3.00191 1.21108 0
M  V30 8924 H 814.404 -1.87611 3.23655 0
M  V30 8925 H 815.737 -2.4854 4.2484 0
M  V30 8926 N 817.389 -1.46805 -0.573248 0
M  V30 8927 C 818.299 -1.60687 -1.70929 0
M  V30 8928 C 819.315 -0.490084 -1.66956 0
M  V30 8929 O 820.491 -0.755482 -1.86693 0
M  V30 8930 C 817.556 -1.60259 -3.07438 0
M  V30 8931 C 816.617 -2.83242 -3.22603 0
M  V30 8932 C 815.85 -2.82825 -4.52599 0
M  V30 8933 O 816.073 -1.92113 -5.37074 0
M  V30 8934 O 815.007 -3.74489 -4.71213 0
M  V30 8935 H 818.833 -2.56782 -1.62163 0
M  V30 8936 H 816.418 -1.29706 -0.741399 0
M  V30 8937 H 818.3 -1.6275 -3.88704 0
M  V30 8938 H 816.975 -0.673268 -3.16621 0
M  V30 8939 H 815.882 -2.86302 -2.40794 0
M  V30 8940 H 817.215 -3.75415 -3.18315 0
M  V30 8941 N 818.867 0.818669 -1.34668 0
M  V30 8942 C 819.777 1.9616 -1.2868 0
M  V30 8943 C 820.793 1.72918 -0.193742 0
M  V30 8944 O 821.969 1.96951 -0.420975 0
M  V30 8945 C 819.034 3.30534 -1.04633 0
M  V30 8946 C 818.095 3.66755 -2.23136 0
M  V30 8947 C 817.328 4.94717 -2.00227 0
M  V30 8948 O 817.551 5.62218 -0.96264 0
M  V30 8949 O 816.485 5.28915 -2.87286 0
M  V30 8950 H 820.311 2.04157 -2.24842 0
M  V30 8951 H 817.896 0.954691 -1.14917 0
M  V30 8952 H 819.778 4.11005 -0.930216 0
M  V30 8953 H 818.453 3.23495 -0.115139 0
M  V30 8954 H 817.36 2.8671 -2.40308 0
M  V30 8955 H 818.693 3.78484 -3.1466 0
M  V30 8956 N 820.346 1.18468 1.03938 0
M  V30 8957 C 821.276 0.936389 2.13902 0
M  V30 8958 C 822.257 -0.126381 1.6963 0
M  V30 8959 O 823.442 0.0264757 1.94182 0
M  V30 8960 C 820.572 0.462729 3.44204 0
M  V30 8961 C 819.526 1.46613 4.02105 0
M  V30 8962 C 818.852 0.84994 5.27902 0
M  V30 8963 C 820.152 2.84323 4.3813 0
M  V30 8964 H 821.846 1.85602 2.3493 0
M  V30 8965 H 819.392 0.893806 1.12903 0
M  V30 8966 H 821.345 0.276382 4.20493 0
M  V30 8967 H 820.069 -0.492477 3.22866 0
M  V30 8968 H 818.728 1.63944 3.27899 0
M  V30 8969 H 818.376 -0.112493 5.02874 0
M  V30 8970 H 818.076 1.51988 5.67603 0
M  V30 8971 H 819.6 0.674152 6.06867 0
M  V30 8972 H 821.014 2.70636 5.054 0
M  V30 8973 H 819.411 3.48012 4.88884 0
M  V30 8974 H 820.481 3.37776 3.47901 0
M  V30 8975 N 821.824 -1.22873 0.986916 0
M  V30 8976 C 822.774 -2.2237 0.503547 0
M  V30 8977 C 823.758 -1.55186 -0.424998 0
M  V30 8978 O 824.95 -1.75186 -0.252791 0
M  V30 8979 C 822.079 -3.42794 -0.186355 0
M  V30 8980 C 821.165 -4.17196 0.762143 0
M  V30 8981 N 821.556 -4.68453 1.9075 0
M  V30 8982 C 819.854 -4.42255 0.576797 0
M  V30 8983 C 820.555 -5.25126 2.50235 0
M  V30 8984 N 819.531 -5.13437 1.7856 0
M  V30 8985 H 823.333 -2.59636 1.37718 0
M  V30 8986 H 820.847 -1.38476 0.848415 0
M  V30 8987 H 822.844 -4.13256 -0.549993 0
M  V30 8988 H 821.504 -3.07042 -1.05619 0
M  V30 8989 H 822.515 -4.64595 2.28848 0
M  V30 8990 H 819.192 -4.16766 -0.247474 0
M  V30 8991 H 820.582 -5.75363 3.46997 0
M  V30 8992 N 823.302 -0.75937 -1.38099 0
M  V30 8993 C 824.249 -0.135508 -2.30402 0
M  V30 8994 C 825.219 0.703356 -1.50473 0
M  V30 8995 O 826.404 0.658287 -1.79084 0
M  V30 8996 C 823.544 0.747228 -3.36913 0
M  V30 8997 C 822.657 -0.106893 -4.31868 0
M  V30 8998 C 821.792 0.779388 -5.25451 0
M  V30 8999 C 820.831 -0.0780179 -6.1205 0
M  V30 9000 N 819.968 0.765545 -6.97914 0
M  V30 9001 H 824.808 -0.9282 -2.83176 0
M  V30 9002 H 822.345 -0.46935 -1.39411 0
M  V30 9003 H 824.303 1.27371 -3.97281 0
M  V30 9004 H 822.933 1.50565 -2.85535 0
M  V30 9005 H 821.985 -0.751063 -3.72912 0
M  V30 9006 H 823.297 -0.768798 -4.9284 0
M  V30 9007 H 822.451 1.37282 -5.90964 0
M  V30 9008 H 821.19 1.47501 -4.6486 0
M  V30 9009 H 820.195 -0.684078 -5.45528 0
M  V30 9010 H 821.42 -0.770786 -6.74712 0
M  V30 9011 H 819.366 1.44601 -6.39864 0
M  V30 9012 H 819.283 0.160666 -7.55829 0
M  V30 9013 H 820.551 1.34377 -7.6783 0
M  V30 9014 N 824.78 1.49157 -0.508906 0
M  V30 9015 C 826.196 1.58741 -0.165372 0
M  V30 9016 C 826.396 1.5133 1.33047 0
M  V30 9017 O 825.452 1.39135 2.10707 0
M  V30 9018 C 826.765 2.91217 -0.749194 0
M  V30 9019 C 828.313 3.047 -0.716015 0
M  V30 9020 C 828.788 4.39807 -1.27804 0
M  V30 9021 N 830.279 4.46319 -1.23908 0
M  V30 9022 C 831.014 5.49325 -1.64406 0
M  V30 9023 N 830.51 6.59395 -2.12534 0
M  V30 9024 N 832.303 5.40084 -1.55773 0
M  V30 9025 H 824.454 1.52217 -1.48134 0
M  V30 9026 H 826.717 0.721514 -0.614915 0
M  V30 9027 H 826.423 3.02233 -1.79856 0
M  V30 9028 H 826.297 3.76592 -0.214144 0
M  V30 9029 H 828.684 2.9331 0.324535 0
M  V30 9030 H 828.765 2.2099 -1.2883 0
M  V30 9031 H 828.409 4.5195 -2.31741 0
M  V30 9032 H 828.339 5.2217 -0.681623 0
M  V30 9033 H 830.83 3.67354 -0.886537 0
M  V30 9034 H 831.143 7.34102 -2.41485 0
M  V30 9035 H 829.488 6.60414 -2.16513 0
M  V30 9036 H 832.679 4.52986 -1.17987 0
M  V30 9037 H 832.852 6.20233 -1.87657 0
M  V30 9038 N 826.258 0.243083 1.55714 0
M  V30 9039 C 827.504 -0.383287 1.99145 0
M  V30 9040 C 827.837 -1.57868 1.13098 0
M  V30 9041 O 827.112 -1.93535 0.193509 0
M  V30 9042 C 827.395 -0.796879 3.51172 0
M  V30 9043 C 827.248 0.403642 4.47985 0
M  V30 9044 C 828.567 -1.64525 4.08191 0
M  V30 9045 H 825.686 -0.137843 0.723995 0
M  V30 9046 H 828.328 0.343631 1.86867 0
M  V30 9047 H 826.478 -1.41625 3.61766 0
M  V30 9048 H 828.15 1.04204 4.49376 0
M  V30 9049 H 826.393 1.04741 4.20965 0
M  V30 9050 H 827.064 0.0709794 5.51954 0
M  V30 9051 H 829.54 -1.12246 4.00674 0
M  V30 9052 H 828.416 -1.9035 5.14838 0
M  V30 9053 H 828.677 -2.61582 3.56409 0
M  V30 9054 N 827.736 -1.57571 -0.0300757 0
M  V30 9055 C 828.982 -1.89506 -0.722159 0
M  V30 9056 C 829.315 -0.840699 -1.7506 0
M  V30 9057 O 828.59 0.144358 -1.93964 0
M  V30 9058 C 828.873 -3.32081 -1.39262 0
M  V30 9059 C 828.726 -4.48211 -0.377768 0
M  V30 9060 C 830.045 -3.73557 -2.32687 0
M  V30 9061 H 827.164 -0.689213 -0.261064 0
M  V30 9062 H 829.806 -1.89994 0.0150388 0
M  V30 9063 H 827.956 -3.31796 -2.02098 0
M  V30 9064 H 829.628 -4.6063 0.248591 0
M  V30 9065 H 827.871 -4.3274 0.303045 0
M  V30 9066 H 828.542 -5.44854 -0.885347 0
M  V30 9067 H 831.018 -3.75202 -1.79896 0
M  V30 9068 H 829.894 -4.74125 -2.7658 0
M  V30 9069 H 830.155 -3.05759 -3.19317 0
M  V30 9070 N 829.214 0.302327 -1.54673 0
M  V30 9071 C 830.462 1.03565 -1.73547 0
M  V30 9072 C 830.783 1.87843 -0.523448 0
M  V30 9073 O 830.053 1.90367 0.462295 0
M  V30 9074 H 828.633 0.385358 -0.639928 0
M  V30 9075 H 831.295 0.333632 -1.92023 0
M  V30 9076 H 830.391 1.68952 -2.62415 0
M  V30 9077 N 830.692 1.47107 0.565454 0
M  V30 9078 C 831.624 1.55024 1.6882 0
M  V30 9079 C 832.637 0.4371 1.56822 0
M  V30 9080 O 833.826 0.706315 1.63931 0
M  V30 9081 C 830.926 1.43069 3.0722 0
M  V30 9082 C 830.099 2.68807 3.45053 0
M  V30 9083 C 829.158 2.50806 4.62583 0
M  V30 9084 O 828.184 3.24593 4.67577 0
M  V30 9085 N 829.386 1.58093 5.58558 0
M  V30 9086 H 832.151 2.51836 1.62477 0
M  V30 9087 H 829.712 1.43382 0.751885 0
M  V30 9088 H 831.704 1.28773 3.83666 0
M  V30 9089 H 830.274 0.543721 3.07835 0
M  V30 9090 H 829.494 2.97923 2.58138 0
M  V30 9091 H 830.782 3.52298 3.67101 0
M  V30 9092 H 830.18 0.972807 5.57273 0
M  V30 9093 H 828.737 1.49753 6.34364 0
M  V30 9094 N 832.17 -0.811516 1.35101 0
M  V30 9095 C 833.447 -1.55491 1.18667 0
M  V30 9096 C 833.827 -2.09775 -0.236189 0
M  V30 9097 O 833.175 -1.91989 -1.23905 0
M  V30 9098 C 833.385 -2.66732 2.25067 0
M  V30 9099 C 834.733 -3.35201 2.60625 0
M  V30 9100 O 835.757 -2.76998 2.23943 0
M  V30 9101 O 834.616 -4.40334 3.23679 0
M  V30 9102 H 831.71 -0.686783 0.460716 0
M  V30 9103 H 834.256 -0.851903 1.46768 0
M  V30 9104 H 833.028 -2.24457 3.20523 0
M  V30 9105 H 832.651 -3.44673 1.98208 0
M  V30 9106 N 833.648 -1.19017 -1.03309 0
M  V30 9107 C 834.558 -0.939303 -2.14975 0
M  V30 9108 C 835.574 0.0992359 -1.73717 0
M  V30 9109 O 836.75 -0.0844362 -2.01223 0
M  V30 9110 C 833.815 -0.476712 -3.43407 0
M  V30 9111 C 832.876 -1.58413 -3.99003 0
M  V30 9112 C 832.109 -1.14352 -5.21305 0
M  V30 9113 O 832.332 -0.00534408 -5.704 0
M  V30 9114 O 831.266 -1.94436 -5.6963 0
M  V30 9115 H 835.092 -1.87386 -2.38998 0
M  V30 9116 H 832.677 -0.972635 -1.13403 0
M  V30 9117 H 834.559 -0.22718 -4.20787 0
M  V30 9118 H 833.234 0.429455 -3.20839 0
M  V30 9119 H 832.141 -1.88777 -3.22977 0
M  V30 9120 H 833.474 -2.4667 -4.25928 0
M  V30 9121 N 835.127 1.22348 -0.993418 0
M  V30 9122 C 836.09 2.22522 -0.549251 0
M  V30 9123 C 837.09 1.56529 0.368164 0
M  V30 9124 O 838.28 1.73463 0.16005 0
M  V30 9125 C 835.412 3.40307 0.201037 0
M  V30 9126 H 836.605 2.63332 -1.43515 0
M  V30 9127 H 834.158 1.35407 -0.78068 0
M  V30 9128 H 834.893 3.0497 1.10289 0
M  V30 9129 H 834.678 3.8942 -0.457685 0
M  V30 9130 H 836.168 4.14597 0.499946 0
M  V30 9131 N 836.605 0.766683 1.37694 0
M  V30 9132 C 837.854 0.325425 1.99057 0
M  V30 9133 C 838.167 -1.10275 1.61551 0
M  V30 9134 O 839.373 -1.64513 2.1598 0
M  V30 9135 C 837.829 0.530886 3.55963 0
M  V30 9136 C 837.437 1.96899 4.02411 0
M  V30 9137 C 839.181 0.152997 4.24224 0
M  V30 9138 C 837.088 2.12232 5.52007 0
M  V30 9139 H 836.018 0.117929 0.744721 0
M  V30 9140 H 838.669 0.945091 1.5729 0
M  V30 9141 H 837.051 -0.158162 3.95684 0
M  V30 9142 H 838.225 2.69258 3.73948 0
M  V30 9143 H 836.54 2.303 3.46916 0
M  V30 9144 H 839.137 0.24614 5.34133 0
M  V30 9145 H 839.48 -0.896096 4.06541 0
M  V30 9146 H 840.013 0.794398 3.89787 0
M  V30 9147 H 836.752 3.15442 5.7461 0
M  V30 9148 H 836.272 1.4435 5.82171 0
M  V30 9149 H 837.951 1.9185 6.17902 0
M  V30 9150 N 838.083 -1.48885 0.516809 0
M  V30 9151 C 839.499 -1.58651 0.173788 0
M  V30 9152 C 839.699 -1.52033 -1.32243 0
M  V30 9153 O 838.755 -1.40251 -2.09967 0
M  V30 9154 C 840.068 -2.90816 0.764628 0
M  V30 9155 C 841.616 -3.04316 0.732164 0
M  V30 9156 C 842.091 -4.39123 1.30135 0
M  V30 9157 N 843.582 -4.45656 1.26273 0
M  V30 9158 C 844.317 -5.48446 1.67317 0
M  V30 9159 N 843.813 -6.58258 2.16028 0
M  V30 9160 N 845.606 -5.39251 1.58635 0
M  V30 9161 H 837.757 -1.5143 1.48939 0
M  V30 9162 H 840.02 -0.718243 0.618733 0
M  V30 9163 H 839.726 -3.01275 1.81456 0
M  V30 9164 H 839.6 -3.76473 0.234113 0
M  V30 9165 H 841.987 -2.93478 -0.308975 0
M  V30 9166 H 842.068 -2.20303 1.3 0
M  V30 9167 H 841.712 -4.50714 2.34135 0
M  V30 9168 H 841.642 -5.21801 0.709305 0
M  V30 9169 H 844.133 -3.66879 0.906006 0
M  V30 9170 H 844.446 -7.32811 2.45374 0
M  V30 9171 H 842.791 -6.59257 2.20013 0
M  V30 9172 H 845.982 -4.52354 1.20387 0
M  V30 9173 H 846.155 -6.19229 1.90944 0
M  V30 9174 N 839.561 -0.251338 -1.55583 0
M  V30 9175 C 840.524 0.63305 -2.20284 0
M  V30 9176 C 841.524 1.09941 -1.17344 0
M  V30 9177 O 842.714 1.00341 -1.42399 0
M  V30 9178 C 839.846 1.8706 -2.84993 0
M  V30 9179 H 841.039 0.0684846 -2.99822 0
M  V30 9180 H 838.592 -0.00181653 -1.563 0
M  V30 9181 H 839.327 2.47629 -2.09405 0
M  V30 9182 H 839.112 1.54436 -3.60405 0
M  V30 9183 H 840.602 2.50004 -3.34496 0
M  V30 9184 N 841.039 1.57585 0.0217189 0
M  V30 9185 C 842.285 1.89887 0.712099 0
M  V30 9186 C 842.618 0.849971 1.74611 0
M  V30 9187 O 841.893 -0.13407 1.94037 0
M  V30 9188 C 842.176 3.32815 1.37499 0
M  V30 9189 C 842.029 4.48405 0.353993 0
M  V30 9190 C 843.348 3.74786 2.30703 0
M  V30 9191 H 840.467 0.690588 0.257405 0
M  V30 9192 H 843.109 1.89983 -0.0251145 0
M  V30 9193 H 841.259 3.32863 2.00335 0
M  V30 9194 H 842.931 4.60491 -0.273015 0
M  V30 9195 H 841.174 4.32573 -0.32599 0
M  V30 9196 H 841.845 5.45316 0.85644 0
M  V30 9197 H 844.321 3.76151 1.77904 0
M  V30 9198 H 843.197 4.75585 2.74061 0
M  V30 9199 H 843.458 3.07449 3.17691 0
M  V30 9200 N 842.517 -0.29412 1.54831 0
M  V30 9201 C 843.48 -1.3461 1.85507 0
M  V30 9202 C 844.48 -1.43359 0.728343 0
M  V30 9203 O 845.67 -1.42875 0.996609 0
M  V30 9204 C 842.802 -2.73012 2.0415 0
M  V30 9205 H 843.995 -1.08651 2.79526 0
M  V30 9206 H 841.548 -0.531138 1.46999 0
M  V30 9207 H 842.283 -3.04183 1.12441 0
M  V30 9208 H 842.068 -2.68051 2.86166 0
M  V30 9209 H 843.558 -3.49061 2.29229 0
M  V30 9210 N 843.995 -1.47404 -0.557645 0
M  V30 9211 C 845.272 -1.44488 -1.31843 0
M  V30 9212 C 845.652 -0.1416 -2.10625 0
M  V30 9213 O 845 0.876908 -2.11004 0
M  V30 9214 C 845.21 -2.69016 -2.22331 0
M  V30 9215 C 846.558 -3.16212 -2.83364 0
M  V30 9216 O 847.582 -2.69741 -2.32634 0
M  V30 9217 O 846.441 -3.96999 -3.75571 0
M  V30 9218 H 843.535 -0.57578 -0.593639 0
M  V30 9219 H 846.081 -1.59605 -0.576584 0
M  V30 9220 H 844.853 -3.55406 -1.63715 0
M  V30 9221 H 844.476 -2.56484 -3.03812 0
M  V30 9222 N 845.473 0.80434 -1.35529 0
M  V30 9223 C 846.436 1.89788 -1.28503 0
M  V30 9224 C 847.436 1.59601 -0.195983 0
M  V30 9225 O 848.626 1.68292 -0.449827 0
M  V30 9226 C 845.758 3.26255 -0.98847 0
M  V30 9227 H 846.951 1.97436 -2.25741 0
M  V30 9228 H 844.504 1.00046 -1.20086 0
M  V30 9229 H 845.239 3.24294 -0.0200541 0
M  V30 9230 H 845.024 3.49551 -1.77641 0
M  V30 9231 H 846.514 4.06298 -0.964975 0
M  V30 9232 N 846.951 1.19563 1.02676 0
M  V30 9233 C 848.2 0.993864 1.75514 0
M  V30 9234 C 848.513 -0.475882 1.89723 0
M  V30 9235 O 849.719 -0.796525 2.59553 0
M  V30 9236 C 848.175 1.72937 3.15628 0
M  V30 9237 C 847.783 3.23937 3.09466 0
M  V30 9238 C 849.527 1.61092 3.92746 0
M  V30 9239 C 847.434 3.90067 4.44524 0
M  V30 9240 H 846.364 0.368244 0.657961 0
M  V30 9241 H 849.015 1.43081 1.14891 0
M  V30 9242 H 847.397 1.22025 3.76731 0
M  V30 9243 H 848.571 3.81983 2.57731 0
M  V30 9244 H 846.886 3.3608 2.45843 0
M  V30 9245 H 849.483 2.07848 4.92649 0
M  V30 9246 H 849.826 0.565415 4.12442 0
M  V30 9247 H 850.359 2.09361 3.3825 0
M  V30 9248 H 847.098 4.94725 4.30032 0
M  V30 9249 H 846.618 3.36809 4.96306 0
M  V30 9250 H 848.297 3.93736 5.13401 0
M  V30 9251 N 848.429 -1.21819 0.999893 0
M  V30 9252 C 849.845 -1.42847 0.711824 0
M  V30 9253 C 850.045 -1.88391 -0.714928 0
M  V30 9254 O 849.101 -2.0422 -1.48494 0
M  V30 9255 C 850.414 -2.46417 1.72334 0
M  V30 9256 C 851.962 -2.60207 1.73958 0
M  V30 9257 C 852.437 -3.67005 2.73992 0
M  V30 9258 N 853.928 -3.7447 2.72628 0
M  V30 9259 C 854.663 -4.56718 3.46693 0
M  V30 9260 N 854.159 -5.42904 4.3038 0
M  V30 9261 N 855.952 -4.51094 3.35366 0
M  V30 9262 H 848.103 -0.905656 1.92124 0
M  V30 9263 H 850.366 -0.459893 0.828977 0
M  V30 9264 H 850.072 -2.19914 2.74465 0
M  V30 9265 H 849.946 -3.45137 1.52186 0
M  V30 9266 H 852.333 -2.8605 0.725217 0
M  V30 9267 H 852.414 -1.61739 1.98177 0
M  V30 9268 H 852.058 -3.41908 3.75582 0
M  V30 9269 H 851.988 -4.65058 2.4704 0
M  V30 9270 H 854.479 -3.12895 2.11909 0
M  V30 9271 H 854.792 -6.02704 4.83702 0
M  V30 9272 H 853.137 -5.42463 4.34464 0
M  V30 9273 H 856.328 -3.82791 2.69423 0
M  V30 9274 H 856.501 -5.1496 3.93344 0
M  V30 9275 N 849.908 -0.773975 -1.37286 0
M  V30 9276 C 851.324 -0.45386 -1.53011 0
M  V30 9277 C 851.524 1.03018 -1.73175 0
M  V30 9278 O 850.58 1.81597 -1.75438 0
M  V30 9279 C 851.893 -1.27087 -2.72524 0
M  V30 9280 C 853.441 -1.26299 -2.86387 0
M  V30 9281 C 853.916 -2.0634 -4.08886 0
M  V30 9282 N 855.407 -2.03706 -4.16003 0
M  V30 9283 C 856.142 -2.62418 -5.09828 0
M  V30 9284 N 855.638 -3.29926 -6.09197 0
M  V30 9285 N 857.431 -2.52236 -5.02328 0
M  V30 9286 H 849.582 -1.73551 -1.22449 0
M  V30 9287 H 851.845 -0.736874 -0.596423 0
M  V30 9288 H 851.551 -2.32263 -2.64096 0
M  V30 9289 H 851.425 -0.90157 -3.66267 0
M  V30 9290 H 853.812 -0.219213 -2.94285 0
M  V30 9291 H 853.893 -1.67195 -1.93596 0
M  V30 9292 H 853.537 -3.10741 -4.01749 0
M  V30 9293 H 853.467 -1.62825 -5.00795 0
M  V30 9294 H 855.958 -1.54559 -3.44848 0
M  V30 9295 H 856.271 -3.72095 -6.77322 0
M  V30 9296 H 854.616 -3.34026 -6.09469 0
M  V30 9297 H 857.807 -1.99108 -4.23643 0
M  V30 9298 H 857.98 -2.98286 -5.75265 0
M  V30 9299 N 851.386 1.48609 -0.524698 0
M  V30 9300 C 852.349 2.28041 0.230166 0
M  V30 9301 C 853.349 1.35065 0.872584 0
M  V30 9302 O 854.539 1.58007 0.73345 0
M  V30 9303 C 851.671 3.13778 1.33252 0
M  V30 9304 H 852.864 2.96239 -0.467161 0
M  V30 9305 H 850.417 1.53763 -0.280452 0
M  V30 9306 H 851.152 2.502 2.06327 0
M  V30 9307 H 850.937 3.82165 0.877058 0
M  V30 9308 H 852.427 3.7371 1.86362 0
M  V30 9309 N 852.864 0.259585 1.55447 0
M  V30 9310 C 854.28 -0.094961 1.59317 0
M  V30 9311 C 854.48 -1.55884 1.2768 0
M  V30 9312 O 853.536 -2.30528 1.0302 0
M  V30 9313 C 854.849 0.265669 2.99524 0
M  V30 9314 C 856.397 0.211007 3.12288 0
M  V30 9315 C 856.872 0.545851 4.54736 0
M  V30 9316 N 858.363 0.496823 4.60528 0
M  V30 9317 C 859.098 0.728909 5.68748 0
M  V30 9318 N 858.594 1.02479 6.85179 0
M  V30 9319 N 860.387 0.658756 5.58226 0
M  V30 9320 H 852.538 1.2141 1.7428 0
M  V30 9321 H 854.801 0.489404 0.811904 0
M  V30 9322 H 854.507 1.28316 3.27457 0
M  V30 9323 H 854.381 -0.401089 3.75061 0
M  V30 9324 H 856.768 -0.797172 2.84129 0
M  V30 9325 H 856.849 0.911799 2.38998 0
M  V30 9326 H 856.493 1.55164 4.83618 0
M  V30 9327 H 856.423 -0.17656 5.26304 0
M  V30 9328 H 858.914 0.277376 3.76881 0
M  V30 9329 H 859.227 1.18897 7.63599 0
M  V30 9330 H 857.572 1.0624 6.86832 0
M  V30 9331 H 860.763 0.427553 4.66143 0
M  V30 9332 H 860.936 0.84302 6.42493 0
M  V30 9333 N 854.342 -1.57594 -0.0133615 0
M  V30 9334 C 855.305 -2.06534 -0.993799 0
M  V30 9335 C 856.305 -0.972267 -1.28077 0
M  V30 9336 O 857.495 -1.23537 -1.22818 0
M  V30 9337 C 854.627 -2.49554 -2.3224 0
M  V30 9338 H 855.82 -2.94419 -0.570741 0
M  V30 9339 H 853.373 -1.54113 -0.260546 0
M  V30 9340 H 854.108 -1.64872 -2.79263 0
M  V30 9341 H 853.893 -3.29371 -2.12737 0
M  V30 9342 H 855.383 -2.8779 -3.026 0
M  V30 9343 N 855.82 0.285905 -1.54985 0
M  V30 9344 C 857.068 1.01718 -1.74636 0
M  V30 9345 C 857.389 1.87277 -0.543342 0
M  V30 9346 O 856.659 1.90847 0.442078 0
M  V30 9347 H 855.239 0.378549 -0.643979 0
M  V30 9348 H 857.901 0.313247 -1.92366 0
M  V30 9349 H 856.997 1.66159 -2.64192 0
M  V30 9350 N 857.298 1.47698 0.54982 0
M  V30 9351 C 858.228 1.63622 1.66583 0
M  V30 9352 C 859.209 0.485477 1.63025 0
M  V30 9353 O 860.394 0.715692 1.80531 0
M  V30 9354 C 857.524 1.65721 3.05211 0
M  V30 9355 C 856.478 2.80097 3.2362 0
M  V30 9356 C 855.804 2.67272 4.63109 0
M  V30 9357 C 857.104 4.21612 3.08286 0
M  V30 9358 H 858.798 2.57049 1.53512 0
M  V30 9359 H 856.344 1.23705 0.737099 0
M  V30 9360 H 858.297 1.75451 3.83138 0
M  V30 9361 H 857.021 0.688593 3.19258 0
M  V30 9362 H 855.68 2.69889 2.48104 0
M  V30 9363 H 855.328 1.68422 4.73965 0
M  V30 9364 H 855.028 3.44008 4.76374 0
M  V30 9365 H 856.552 2.78942 5.43161 0
M  V30 9366 H 857.966 4.32758 3.76024 0
M  V30 9367 H 856.363 4.99193 3.33057 0
M  V30 9368 H 857.433 4.39462 2.04942 0
M  V30 9369 N 858.776 -0.797141 1.35954 0
M  V30 9370 C 859.723 -1.90944 1.2965 0
M  V30 9371 C 860.693 -1.65262 0.166628 0
M  V30 9372 O 861.878 -1.87527 0.351883 0
M  V30 9373 C 859.018 -3.27637 1.08389 0
M  V30 9374 C 858.131 -3.65442 2.30382 0
M  V30 9375 C 857.266 -4.91213 2.02195 0
M  V30 9376 C 856.305 -5.21674 3.20191 0
M  V30 9377 N 855.442 -6.38627 2.91719 0
M  V30 9378 H 860.282 -1.95668 2.24762 0
M  V30 9379 H 857.819 -0.95696 1.11717 0
M  V30 9380 H 859.777 -4.06451 0.940912 0
M  V30 9381 H 858.407 -3.22355 0.169351 0
M  V30 9382 H 857.459 -2.81813 2.55511 0
M  V30 9383 H 858.771 -3.83907 3.18461 0
M  V30 9384 H 857.925 -5.77876 1.84783 0
M  V30 9385 H 856.664 -4.74803 1.11416 0
M  V30 9386 H 855.669 -4.33498 3.38171 0
M  V30 9387 H 856.894 -5.40009 4.11786 0
M  V30 9388 H 854.84 -6.23623 2.03543 0
M  V30 9389 H 854.757 -6.57387 3.73334 0
M  V30 9390 H 856.025 -7.28292 2.77868 0
M  V30 9391 N 860.254 -1.20106 -1.0204 0
M  V30 9392 C 861.531 -0.918029 -1.72718 0
M  V30 9393 C 861.911 0.574163 -2.03142 0
M  V30 9394 O 861.259 1.53476 -1.69285 0
M  V30 9395 C 861.469 -1.78698 -2.9978 0
M  V30 9396 C 862.817 -2.02648 -3.7312 0
M  V30 9397 O 863.841 -1.75919 -3.09727 0
M  V30 9398 O 862.7 -2.47767 -4.87107 0
M  V30 9399 H 859.794 -0.342904 -0.752559 0
M  V30 9400 H 862.34 -1.30961 -1.07923 0
M  V30 9401 H 861.112 -2.79757 -2.7359 0
M  V30 9402 H 860.735 -1.39522 -3.72316 0
M  V30 9403 N 861.732 1.21287 -1.00634 0
M  V30 9404 C 863.143 1.72136 -0.722914 0
M  V30 9405 C 863.494 1.8091 0.759338 0
M  V30 9406 O 862.619 1.46458 1.59308 0
M  V30 9407 C 863.214 3.12633 -1.30561 0
M  V30 9408 C 861.773 3.60833 -1.07127 0
M  V30 9409 C 860.92 2.38326 -1.4176 0
M  V30 9410 H 863.871 1.06445 -1.17708 0
M  V30 9411 H 863.892 3.74174 -0.690937 0
M  V30 9412 H 863.404 3.06215 -2.38441 0
M  V30 9413 H 861.505 3.72599 -0.00968671 0
M  V30 9414 H 861.618 4.46226 -1.74411 0
M  V30 9415 H 859.982 2.40575 -0.836412 0
M  V30 9416 H 860.765 2.34558 -2.50674 0
M  V30 9417 N 863.21 0.781244 1.36873 0
M  V30 9418 C 864.158 0.161889 2.32036 0
M  V30 9419 C 865.152 -0.674225 1.55405 0
M  V30 9420 O 866.358 -0.570223 1.70729 0
M  V30 9421 H 862.733 0.0335702 0.75125 0
M  V30 9422 H 864.704 0.980078 2.81846 0
M  V30 9423 C 863.453 -0.695352 3.40676 0
M  V30 9424 H 862.776 -0.0613425 3.99753 0
M  V30 9425 H 864.216 -1.09553 4.09602 0
M  V30 9426 C 862.675 -1.85008 2.81556 0
M  V30 9427 O 863.205 -2.94616 2.73065 0
M  V30 9428 N 861.411 -1.65364 2.38962 0
M  V30 9429 H 860.958 -0.762106 2.46068 0
M  V30 9430 H 860.916 -2.42789 1.99752 0
M  V30 9431 N 864.689 -1.48329 0.532571 0
M  V30 9432 C 866.105 -1.58458 0.190605 0
M  V30 9433 C 866.305 -1.53427 -1.30623 0
M  V30 9434 O 865.361 -1.4247 -2.08467 0
M  V30 9435 C 866.674 -2.89989 0.79543 0
M  V30 9436 C 868.222 -3.03523 0.7644 0
M  V30 9437 C 868.697 -4.37718 1.34785 0
M  V30 9438 N 870.188 -4.44292 1.30993 0
M  V30 9439 C 870.923 -5.4664 1.73124 0
M  V30 9440 N 870.419 -6.5593 2.22997 0
M  V30 9441 N 872.212 -5.37538 1.64346 0
M  V30 9442 H 864.363 -1.49842 1.50537 0
M  V30 9443 H 866.626 -0.71164 0.626316 0
M  V30 9444 H 866.332 -2.99333 1.84642 0
M  V30 9445 H 866.206 -3.76203 0.27403 0
M  V30 9446 H 868.593 -2.93789 -0.277831 0
M  V30 9447 H 868.674 -2.18912 1.3233 0
M  V30 9448 H 868.318 -4.48206 2.38902 0
M  V30 9449 H 868.248 -5.21019 0.764609 0
M  V30 9450 H 870.739 -3.65897 0.944868 0
M  V30 9451 H 871.052 -7.30167 2.53133 0
M  V30 9452 H 869.397 -6.56886 2.26992 0
M  V30 9453 H 872.588 -4.51052 1.25178 0
M  V30 9454 H 872.761 -6.17169 1.97501 0
M  V30 9455 N 866.167 -0.267825 -1.55308 0
M  V30 9456 C 867.578 0.231344 -1.85261 0
M  V30 9457 C 867.929 1.56006 -1.18982 0
M  V30 9458 O 867.054 2.1111 -0.475554 0
M  V30 9459 C 867.649 0.426537 -3.36104 0
M  V30 9460 C 866.208 0.869945 -3.66209 0
M  V30 9461 C 865.355 -0.0409522 -2.7727 0
M  V30 9462 H 868.306 -0.489821 -1.50952 0
M  V30 9463 H 868.327 1.26616 -3.58816 0
M  V30 9464 H 867.839 -0.540678 -3.84315 0
M  V30 9465 H 865.94 1.84889 -3.23492 0
M  V30 9466 H 866.053 0.712316 -4.73775 0
M  V30 9467 H 864.417 0.474097 -2.50249 0
M  V30 9468 H 865.2 -1.00392 -3.28293 0
M  V30 9469 N 867.645 1.57599 0.00500368 0
M  V30 9470 C 868.894 1.89528 0.690061 0
M  V30 9471 C 869.207 0.869451 1.75214 0
M  V30 9472 O 870.413 1.07879 2.49147 0
M  V30 9473 C 868.869 3.36425 1.27852 0
M  V30 9474 C 868.477 4.47293 0.251531 0
M  V30 9475 C 870.221 3.77471 1.94206 0
M  V30 9476 C 868.128 5.85264 0.8497 0
M  V30 9477 H 867.058 0.707201 0.2615 0
M  V30 9478 H 869.709 1.83418 -0.0547209 0
M  V30 9479 H 868.091 3.37356 2.07381 0
M  V30 9480 H 869.265 4.5787 -0.518796 0
M  V30 9481 H 867.58 4.15235 -0.311281 0
M  V30 9482 H 870.177 4.77884 2.39855 0
M  V30 9483 H 870.52 3.10722 2.77051 0
M  V30 9484 H 871.053 3.78817 1.21419 0
M  V30 9485 H 867.792 6.55472 0.0601408 0
M  V30 9486 H 867.312 5.78361 1.5893 0
M  V30 9487 H 868.991 6.32762 1.34984 0
M  V30 9488 N 869.123 -0.277682 1.55134 0
M  V30 9489 C 870.371 -1.00791 1.75173 0
M  V30 9490 C 870.692 -1.86987 0.553266 0
M  V30 9491 O 869.962 -1.91079 -0.43195 0
M  V30 9492 H 868.542 -0.375129 0.645978 0
M  V30 9493 H 871.204 -0.303041 1.9253 0
M  V30 9494 H 870.3 -1.64756 2.6507 0
M  V30 9495 N 870.601 -1.47988 -0.541979 0
M  V30 9496 C 871.826 -1.59286 -1.32826 0
M  V30 9497 C 872.251 -0.24894 -1.86445 0
M  V30 9498 O 871.609 0.777581 -1.63778 0
M  V30 9499 C 871.657 -2.6334 -2.46343 0
M  V30 9500 O 870.761 -2.19667 -3.49028 0
M  V30 9501 H 870.102 -0.534543 -0.393903 0
M  V30 9502 H 872.632 -1.93885 -0.653427 0
M  V30 9503 H 872.642 -2.84238 -2.92699 0
M  V30 9504 H 871.317 -3.60913 -2.06675 0
M  V30 9505 H 869.894 -2.08932 -3.08872 0
M  V30 9506 N 872.079 0.78992 -1.36375 0
M  V30 9507 C 873.326 1.54777 -1.30576 0
M  V30 9508 C 873.654 1.94159 0.115095 0
M  V30 9509 O 872.909 1.62918 1.08426 0
M  V30 9510 C 873.208 2.83698 -2.17371 0
M  V30 9511 C 872.874 2.63457 -3.65925 0
M  V30 9512 C 871.536 2.57645 -4.06415 0
M  V30 9513 C 873.888 2.44833 -4.60115 0
M  V30 9514 C 871.216 2.31174 -5.39236 0
M  V30 9515 C 873.568 2.19889 -5.93154 0
M  V30 9516 C 872.232 2.1251 -6.32768 0
M  V30 9517 H 871.502 0.566371 -0.477813 0
M  V30 9518 H 874.149 0.91138 -1.68422 0
M  V30 9519 H 872.454 3.51802 -1.72459 0
M  V30 9520 H 874.151 3.41487 -2.10209 0
M  V30 9521 H 870.741 2.68836 -3.33804 0
M  V30 9522 H 874.925 2.48325 -4.29707 0
M  V30 9523 H 870.181 2.23942 -5.68911 0
M  V30 9524 H 874.355 2.04473 -6.65705 0
M  V30 9525 H 871.982 1.91761 -7.35616 0
M  V30 9526 N 873.557 1.20646 1.01402 0
M  V30 9527 C 874.487 0.98155 2.11867 0
M  V30 9528 C 875.468 -0.0903712 1.6986 0
M  V30 9529 O 876.653 0.0676586 1.94082 0
M  V30 9530 C 873.783 0.535636 3.43145 0
M  V30 9531 C 872.737 1.55109 3.98905 0
M  V30 9532 C 872.063 0.961725 5.2598 0
M  V30 9533 C 873.363 2.93552 4.32001 0
M  V30 9534 H 875.057 1.90544 2.3094 0
M  V30 9535 H 872.603 0.917554 1.10982 0
M  V30 9536 H 874.556 0.365512 4.19812 0
M  V30 9537 H 873.28 -0.423882 3.23838 0
M  V30 9538 H 871.939 1.70862 3.24348 0
M  V30 9539 H 871.587 -0.00580108 5.03 0
M  V30 9540 H 871.287 1.63993 5.64252 0
M  V30 9541 H 872.811 0.802726 6.053 0
M  V30 9542 H 874.225 2.81295 4.99546 0
M  V30 9543 H 872.622 3.58303 4.81393 0
M  V30 9544 H 873.692 3.4508 3.40658 0
M  V30 9545 N 875.035 -1.20752 1.01276 0
M  V30 9546 C 876.282 -1.90021 0.699887 0
M  V30 9547 C 876.61 -1.78604 -0.770113 0
M  V30 9548 O 875.865 -1.16195 -1.57471 0
M  V30 9549 C 876.164 -3.40808 1.07633 0
M  V30 9550 C 875.83 -3.72423 2.54189 0
M  V30 9551 C 874.492 -3.80762 2.94234 0
M  V30 9552 C 876.844 -3.87025 3.49086 0
M  V30 9553 C 874.172 -4.01158 4.28123 0
M  V30 9554 C 876.524 -4.0893 4.82658 0
M  V30 9555 C 875.188 -4.15498 5.22415 0
M  V30 9556 H 874.458 -0.695335 0.256107 0
M  V30 9557 H 877.105 -1.43096 1.27263 0
M  V30 9558 H 875.41 -3.89521 0.421944 0
M  V30 9559 H 877.107 -3.92693 0.811997 0
M  V30 9560 H 873.697 -3.66529 2.22158 0
M  V30 9561 H 877.881 -3.79942 3.19309 0
M  V30 9562 H 873.137 -4.04476 4.58486 0
M  V30 9563 H 877.311 -4.19172 5.56119 0
M  V30 9564 H 874.938 -4.31055 6.26176 0
M  V30 9565 N 876.513 -0.788492 -1.36457 0
M  V30 9566 C 877.443 -0.200468 -2.32638 0
M  V30 9567 C 878.424 0.664031 -1.56603 0
M  V30 9568 O 879.609 0.598045 -1.84762 0
M  V30 9569 C 876.739 0.666274 -3.40849 0
M  V30 9570 C 875.693 -0.0982574 -4.27887 0
M  V30 9571 C 875.019 0.889018 -5.27258 0
M  V30 9572 C 876.319 -1.28692 -5.06197 0
M  V30 9573 H 878.013 -1.00399 -2.82065 0
M  V30 9574 H 875.559 -0.484237 -1.35614 0
M  V30 9575 H 877.512 1.08757 -4.07124 0
M  V30 9576 H 876.236 1.50249 -2.89987 0
M  V30 9577 H 874.895 -0.500525 -3.63167 0
M  V30 9578 H 874.543 1.72024 -4.7267 0
M  V30 9579 H 874.243 0.381909 -5.86358 0
M  V30 9580 H 875.767 1.30891 -5.96406 0
M  V30 9581 H 877.181 -0.941429 -5.65517 0
M  V30 9582 H 875.578 -1.72726 -5.74705 0
M  V30 9583 H 876.648 -2.08273 -4.37893 0
M  V30 9584 N 877.991 1.48044 -0.54043 0
M  V30 9585 C 879.239 2.02097 -0.0101367 0
M  V30 9586 C 879.56 1.41881 1.33771 0
M  V30 9587 O 878.83 0.587923 1.8687 0
M  V30 9588 H 877.41 0.747 -0.000758716 0
M  V30 9589 H 880.072 1.81639 -0.706634 0
M  V30 9590 H 879.168 3.11969 0.0904474 0
M  V30 9591 N 879.47 0.276058 1.55163 0
M  V30 9592 C 880.881 -0.221516 1.85381 0
M  V30 9593 C 881.232 -1.55372 1.19808 0
M  V30 9594 O 880.357 -2.10855 0.486742 0
M  V30 9595 C 880.952 -0.408706 3.36326 0
M  V30 9596 C 879.511 -0.850512 3.66665 0
M  V30 9597 C 878.658 0.055656 2.77244 0
M  V30 9598 H 881.609 0.497819 1.5069 0
M  V30 9599 H 881.63 -1.24711 3.59482 0
M  V30 9600 H 881.142 0.561052 3.84023 0
M  V30 9601 H 879.243 -1.83171 3.24468 0
M  V30 9602 H 879.356 -0.687181 4.74146 0
M  V30 9603 H 877.72 -0.460819 2.50497 0
M  V30 9604 H 878.503 1.02131 3.27756 0
M  V30 9605 N 880.948 -1.576 0.00335426 0
M  V30 9606 C 882.176 -1.94996 -0.691685 0
M  V30 9607 C 882.591 -0.878405 -1.67121 0
M  V30 9608 O 881.948 0.142343 -1.81944 0
M  V30 9609 C 881.999 -3.32416 -1.42063 0
M  V30 9610 O 881.72 -4.35458 -0.48038 0
M  V30 9611 C 883.221 -3.84291 -2.20987 0
M  V30 9612 H 880.441 -0.642814 -0.192434 0
M  V30 9613 H 882.985 -2.04425 0.0554706 0
M  V30 9614 H 881.14 -3.24285 -2.11939 0
M  V30 9615 H 881.554 -5.14975 -0.995054 0
M  V30 9616 H 883.028 -4.82863 -2.67483 0
M  V30 9617 H 883.505 -3.17174 -3.03805 0
M  V30 9618 H 884.111 -3.95609 -1.56121 0
M  V30 9619 N 882.426 0.269451 -1.5528 0
M  V30 9620 C 883.674 0.998604 -1.75705 0
M  V30 9621 C 883.995 1.86691 -0.563175 0
M  V30 9622 O 883.265 1.91305 0.421811 0
M  V30 9623 H 881.845 0.371698 -0.647958 0
M  V30 9624 H 884.507 0.292826 -1.92688 0
M  V30 9625 H 883.603 1.63348 -2.6594 0
M  V30 9626 N 883.904 1.48273 0.534124 0
M  V30 9627 C 885.15 1.56311 1.29208 0
M  V30 9628 C 885.483 0.234481 1.92779 0
M  V30 9629 O 884.758 -0.759143 1.79073 0
M  V30 9630 C 885.041 2.69831 2.3846 0
M  V30 9631 C 884.894 4.12385 1.79608 0
M  V30 9632 C 886.213 2.79133 3.40254 0
M  V30 9633 H 883.332 0.56899 0.468422 0
M  V30 9634 H 885.974 1.80429 0.595438 0
M  V30 9635 H 884.124 2.49397 2.97881 0
M  V30 9636 H 885.796 4.44246 1.24269 0
M  V30 9637 H 884.039 4.19579 1.10162 0
M  V30 9638 H 884.71 4.87629 2.58693 0
M  V30 9639 H 887.186 2.97632 2.90783 0
M  V30 9640 H 886.062 3.60298 4.14097 0
M  V30 9641 H 886.323 1.87122 4.00547 0
M  V30 9642 N 885.382 -0.782676 1.36792 0
M  V30 9643 C 886.63 -1.53778 1.31136 0
M  V30 9644 C 886.951 -1.94706 -0.107014 0
M  V30 9645 O 886.221 -1.65465 -1.04872 0
M  V30 9646 H 884.801 -0.570328 0.482426 0
M  V30 9647 H 887.463 -0.932181 1.71162 0
M  V30 9648 H 886.559 -2.44224 1.94321 0
M  V30 9649 N 886.86 -1.21182 -1.00761 0
M  V30 9650 C 887.807 -0.968741 -2.09485 0
M  V30 9651 C 888.777 0.104325 -1.65772 0
M  V30 9652 O 889.962 -0.0422587 -1.90753 0
M  V30 9653 C 887.102 -0.536686 -3.40901 0
M  V30 9654 C 886.215 -1.6789 -3.98041 0
M  V30 9655 C 885.35 -1.19627 -5.17555 0
M  V30 9656 C 884.389 -2.31099 -5.66798 0
M  V30 9657 N 883.526 -1.83988 -6.77564 0
M  V30 9658 H 888.366 -1.89952 -2.29613 0
M  V30 9659 H 885.903 -0.946688 -1.12589 0
M  V30 9660 H 887.861 -0.26745 -4.16342 0
M  V30 9661 H 886.491 0.357092 -3.20819 0
M  V30 9662 H 885.543 -2.06284 -3.19611 0
M  V30 9663 H 886.855 -2.51794 -4.30582 0
M  V30 9664 H 886.009 -0.883539 -6.00232 0
M  V30 9665 H 884.748 -0.327244 -4.86601 0
M  V30 9666 H 883.753 -2.63178 -4.82719 0
M  V30 9667 H 884.978 -3.18493 -5.99782 0
M  V30 9668 H 882.924 -0.994257 -6.48422 0
M  V30 9669 H 882.841 -2.61466 -7.09346 0
M  V30 9670 H 884.109 -1.55741 -7.63783 0
M  V30 9671 N 888.338 1.20213 -1.01915 0
M  V30 9672 C 889.566 1.93622 -0.729255 0
M  V30 9673 C 889.981 1.74923 0.710444 0
M  V30 9674 O 889.338 1.06484 1.48214 0
M  V30 9675 C 889.389 3.45651 -1.05865 0
M  V30 9676 O 889.11 3.63741 -2.44181 0
M  V30 9677 C 890.611 4.36201 -0.790176 0
M  V30 9678 H 887.831 0.615333 -0.267594 0
M  V30 9679 H 890.375 1.52633 -1.36101 0
M  V30 9680 H 888.53 3.84511 -0.47225 0
M  V30 9681 H 888.944 4.57702 -2.56143 0
M  V30 9682 H 890.418 5.41516 -1.07071 0
M  V30 9683 H 890.895 4.38334 0.275609 0
M  V30 9684 H 891.501 4.03008 -1.35885 0
M  V30 9685 N 889.816 0.795718 1.36037 0
M  V30 9686 C 890.726 0.199784 2.33748 0
M  V30 9687 C 891.742 -0.651436 1.61345 0
M  V30 9688 O 892.918 -0.565743 1.93291 0
M  V30 9689 C 889.983 -0.650475 3.40543 0
M  V30 9690 C 889.044 0.219974 4.28736 0
M  V30 9691 C 888.277 -0.589798 5.30431 0
M  V30 9692 O 888.5 -1.82532 5.40406 0
M  V30 9693 O 887.434 0.0136187 6.01898 0
M  V30 9694 H 891.26 1.00782 2.8649 0
M  V30 9695 H 888.845 0.557293 1.38617 0
M  V30 9696 H 890.727 -1.13512 4.05824 0
M  V30 9697 H 889.402 -1.4363 2.9009 0
M  V30 9698 H 888.309 0.751516 3.66474 0
M  V30 9699 H 889.642 0.969468 4.82558 0
M  V30 9700 N 891.294 -1.47756 0.548274 0
M  V30 9701 C 892.224 -2.32702 -0.19284 0
M  V30 9702 C 893.205 -1.43237 -0.917457 0
M  V30 9703 O 894.39 -1.72103 -0.89967 0
M  V30 9704 C 891.52 -3.24831 -1.22891 0
M  V30 9705 C 890.474 -4.23466 -0.621312 0
M  V30 9706 C 889.8 -5.04856 -1.76137 0
M  V30 9707 C 891.1 -5.20616 0.419055 0
M  V30 9708 H 892.794 -2.94914 0.516323 0
M  V30 9709 H 890.34 -1.41818 0.24975 0
M  V30 9710 H 892.293 -3.83094 -1.75547 0
M  V30 9711 H 891.017 -2.60656 -1.9679 0
M  V30 9712 H 889.676 -3.66416 -0.116123 0
M  V30 9713 H 889.324 -4.37091 -2.48918 0
M  V30 9714 H 889.024 -5.71629 -1.36065 0
M  V30 9715 H 890.548 -5.65976 -2.29136 0
M  V30 9716 H 891.962 -5.73296 -0.0211034 0
M  V30 9717 H 890.359 -5.95543 0.738163 0
M  V30 9718 H 891.429 -4.66638 1.31822 0
M  V30 9719 N 892.772 -0.284283 -1.55015 0
M  V30 9720 C 893.735 0.586182 -2.21577 0
M  V30 9721 C 894.735 1.07427 -1.1965 0
M  V30 9722 O 895.925 0.972977 -1.44495 0
M  V30 9723 C 893.057 1.80973 -2.88897 0
M  V30 9724 H 894.25 0.00487253 -2.999 0
M  V30 9725 H 891.803 -0.0349696 -1.56261 0
M  V30 9726 H 892.538 2.43131 -2.14611 0
M  V30 9727 H 892.323 1.46757 -3.636 0
M  V30 9728 H 893.813 2.42853 -3.39724 0
M  V30 9729 N 894.251 1.57596 -0.0117121 0
M  V30 9730 C 895.198 2.09153 0.975897 0
M  V30 9731 C 896.168 0.989579 1.33404 0
M  V30 9732 O 897.353 1.26273 1.43038 0
M  V30 9733 C 894.493 2.60906 2.2588 0
M  V30 9734 C 893.606 3.85046 1.95866 0
M  V30 9735 C 892.741 4.25257 3.18323 0
M  V30 9736 C 891.78 5.42202 2.84049 0
M  V30 9737 N 890.917 5.77651 3.99079 0
M  V30 9738 H 895.757 2.93261 0.52931 0
M  V30 9739 H 893.294 1.44965 0.249691 0
M  V30 9740 H 895.252 2.88995 3.00895 0
M  V30 9741 H 893.882 1.79654 2.68187 0
M  V30 9742 H 892.934 3.63794 1.11168 0
M  V30 9743 H 894.246 4.70151 1.66611 0
M  V30 9744 H 893.4 4.5469 4.01674 0
M  V30 9745 H 892.139 3.38884 3.50726 0
M  V30 9746 H 891.144 5.1248 1.99107 0
M  V30 9747 H 892.369 6.3026 2.52881 0
M  V30 9748 H 890.315 4.94235 4.31356 0
M  V30 9749 H 890.232 6.57356 3.73388 0
M  V30 9750 H 891.5 6.11681 4.83183 0
M  V30 9751 N 895.729 -0.261212 1.5542 0
M  V30 9752 C 896.957 -1.00916 1.8062 0
M  V30 9753 C 897.372 -1.79494 0.585444 0
M  V30 9754 O 896.729 -1.76974 -0.445702 0
M  V30 9755 C 896.78 -1.95841 3.03856 0
M  V30 9756 O 896.501 -1.20445 4.21218 0
M  V30 9757 C 898.002 -2.82352 3.41749 0
M  V30 9758 H 895.222 -0.297596 0.601397 0
M  V30 9759 H 897.766 -0.288427 2.02456 0
M  V30 9760 H 895.921 -2.63361 2.84112 0
M  V30 9761 H 896.335 -1.84528 4.90968 0
M  V30 9762 H 897.809 -3.44733 4.31118 0
M  V30 9763 H 898.286 -3.5273 2.61683 0
M  V30 9764 H 898.892 -2.20306 3.63793 0
M  V30 9765 N 897.207 -1.48554 -0.526253 0
M  V30 9766 C 898.137 -1.66252 -1.63959 0
M  V30 9767 C 899.118 -0.511351 -1.62232 0
M  V30 9768 O 900.303 -0.744322 -1.7937 0
M  V30 9769 C 897.433 -1.70556 -3.02536 0
M  V30 9770 C 896.387 -2.8521 -3.19123 0
M  V30 9771 C 895.713 -2.74606 -4.58798 0
M  V30 9772 C 897.013 -4.26463 -3.0154 0
M  V30 9773 H 898.707 -2.59459 -1.49404 0
M  V30 9774 H 896.253 -1.24862 -0.717326 0
M  V30 9775 H 898.206 -1.81524 -3.80298 0
M  V30 9776 H 896.93 -0.739297 -3.18123 0
M  V30 9777 H 895.589 -2.73802 -2.43779 0
M  V30 9778 H 895.237 -1.75941 -4.71226 0
M  V30 9779 H 894.937 -3.51544 -4.70841 0
M  V30 9780 H 896.461 -2.87548 -5.38655 0
M  V30 9781 H 897.875 -4.38685 -3.69091 0
M  V30 9782 H 896.272 -5.04428 -3.25073 0
M  V30 9783 H 897.342 -4.42667 -1.97925 0
M  V30 9784 N 898.685 0.775411 -1.37205 0
M  V30 9785 C 899.648 1.8702 -1.325 0
M  V30 9786 C 900.648 1.5915 -0.229793 0
M  V30 9787 O 901.838 1.673 -0.485423 0
M  V30 9788 C 898.97 3.24085 -1.05745 0
M  V30 9789 H 900.163 1.92604 -2.29878 0
M  V30 9790 H 897.716 0.97476 -1.22181 0
M  V30 9791 H 898.451 3.24178 -0.0888371 0
M  V30 9792 H 898.236 3.45705 -1.85016 0
M  V30 9793 H 899.726 4.0416 -1.05094 0
M  V30 9794 N 900.163 1.21714 1.00117 0
M  V30 9795 C 901.126 0.981338 2.07129 0
M  V30 9796 C 902.126 -0.0491116 1.60725 0
M  V30 9797 O 903.316 0.188555 1.73177 0
M  V30 9798 C 900.448 0.480608 3.37495 0
M  V30 9799 H 901.641 1.93075 2.29482 0
M  V30 9800 H 899.194 1.03467 1.17151 0
M  V30 9801 H 899.929 -0.473552 3.20824 0
M  V30 9802 H 899.714 1.22393 3.72508 0
M  V30 9803 H 901.204 0.33561 4.16249 0
M  V30 9804 N 901.641 -1.19671 1.02551 0
M  V30 9805 C 902.869 -1.93233 0.739513 0
M  V30 9806 C 903.284 -1.75298 -0.701158 0
M  V30 9807 O 902.641 -1.07269 -1.47647 0
M  V30 9808 C 902.692 -3.45085 1.07697 0
M  V30 9809 O 902.413 -3.62441 2.46106 0
M  V30 9810 C 903.914 -4.35776 0.813298 0
M  V30 9811 H 901.134 -0.613905 0.270853 0
M  V30 9812 H 903.678 -1.51909 1.36909 0
M  V30 9813 H 901.833 -3.84255 0.492635 0
M  V30 9814 H 902.247 -4.56337 2.58567 0
M  V30 9815 H 903.721 -5.40941 1.09941 0
M  V30 9816 H 904.198 -4.38474 -0.252359 0
M  V30 9817 H 904.804 -4.02282 1.38021 0
M  V30 9818 N 903.119 -0.802921 -1.35613 0
M  V30 9819 C 904.049 -0.225131 -2.32412 0
M  V30 9820 C 905.03 0.647383 -1.57299 0
M  V30 9821 O 906.215 0.578414 -1.85386 0
M  V30 9822 C 903.345 0.630085 -3.41537 0
M  V30 9823 C 902.299 -0.143635 -4.27759 0
M  V30 9824 C 901.625 0.833046 -5.28171 0
M  V30 9825 C 902.925 -1.34054 -5.04804 0
M  V30 9826 H 904.619 -1.03385 -2.80984 0
M  V30 9827 H 902.165 -0.498593 -1.35093 0
M  V30 9828 H 904.118 1.04433 -4.08254 0
M  V30 9829 H 902.842 1.47165 -2.91565 0
M  V30 9830 H 901.501 -0.539015 -3.62616 0
M  V30 9831 H 901.149 1.67001 -4.74468 0
M  V30 9832 H 900.849 0.319697 -5.8673 0
M  V30 9833 H 902.373 1.24558 -5.97761 0
M  V30 9834 H 903.787 -1.00136 -5.64487 0
M  V30 9835 H 902.184 -1.78812 -5.72841 0
M  V30 9836 H 903.254 -2.12906 -4.35659 0
M  V30 9837 N 904.597 1.47463 -0.556102 0
M  V30 9838 C 905.844 2.02475 -0.0316337 0
M  V30 9839 C 906.172 1.43057 1.31777 0
M  V30 9840 O 905.427 0.575376 1.87051 0
M  V30 9841 C 905.726 3.57224 0.112126 0
M  V30 9842 C 905.392 4.35557 -1.16624 0
M  V30 9843 C 904.054 4.56678 -1.51654 0
M  V30 9844 C 906.406 4.8074 -2.01342 0
M  V30 9845 C 903.734 5.20231 -2.7125 0
M  V30 9846 C 906.086 5.45613 -3.2014 0
M  V30 9847 C 904.75 5.64967 -3.55484 0
M  V30 9848 H 904.02 0.74091 -0.0115756 0
M  V30 9849 H 906.667 1.77148 -0.727392 0
M  V30 9850 H 904.972 3.81538 0.890842 0
M  V30 9851 H 906.669 3.97438 0.533261 0
M  V30 9852 H 903.259 4.19395 -0.883489 0
M  V30 9853 H 907.443 4.64201 -1.75587 0
M  V30 9854 H 902.699 5.3341 -2.98804 0
M  V30 9855 H 906.873 5.79587 -3.86073 0
M  V30 9856 H 904.5 6.13984 -4.4825 0
M  V30 9857 N 906.075 0.2925 1.54862 0
M  V30 9858 C 907.352 -0.371946 1.92031 0
M  V30 9859 C 907.732 -1.72363 1.21878 0
M  V30 9860 O 907.08 -2.25779 0.351573 0
M  V30 9861 C 907.29 -0.495027 3.45471 0
M  V30 9862 C 908.638 -0.769855 4.17562 0
M  V30 9863 O 909.662 -0.579168 3.5146 0
M  V30 9864 O 908.521 -1.13561 5.34571 0
M  V30 9865 H 905.615 -0.206463 0.800813 0
M  V30 9866 H 908.161 0.339933 1.6626 0
M  V30 9867 H 906.933 0.455528 3.88639 0
M  V30 9868 H 906.556 -1.2557 3.7725 0
M  V30 9869 N 907.553 -1.57587 0.0200696 0
M  V30 9870 C 908.781 -1.95718 -0.670964 0
M  V30 9871 C 909.196 -0.896081 -1.6618 0
M  V30 9872 O 908.553 0.123037 -1.82085 0
M  V30 9873 C 908.604 -3.33904 -1.38529 0
M  V30 9874 O 908.325 -4.35943 -0.434167 0
M  V30 9875 C 909.826 -3.86614 -2.16898 0
M  V30 9876 H 907.046 -0.644819 -0.185606 0
M  V30 9877 H 909.59 -2.04354 0.0771495 0
M  V30 9878 H 907.745 -3.26515 -2.08487 0
M  V30 9879 H 908.159 -5.16001 -0.940378 0
M  V30 9880 H 909.633 -4.85673 -2.62346 0
M  V30 9881 H 910.11 -3.20379 -3.00423 0
M  V30 9882 H 910.716 -3.97243 -1.51916 0
M  V30 9883 N 909.032 0.252966 -1.55557 0
M  V30 9884 C 909.942 1.33472 -1.92931 0
M  V30 9885 C 910.958 1.52983 -0.828985 0
M  V30 9886 O 912.134 1.66723 -1.12984 0
M  V30 9887 C 909.199 2.6704 -2.21112 0
M  V30 9888 C 908.26 2.56103 -3.44542 0
M  V30 9889 C 907.493 3.83302 -3.71369 0
M  V30 9890 O 907.716 4.84907 -3.00368 0
M  V30 9891 O 906.65 3.823 -4.64898 0
M  V30 9892 H 910.476 1.04768 -2.85057 0
M  V30 9893 H 908.061 0.453208 -1.4236 0
M  V30 9894 H 909.943 3.45981 -2.40572 0
M  V30 9895 H 908.618 2.95489 -1.32166 0
M  V30 9896 H 907.525 1.7547 -3.30396 0
M  V30 9897 H 908.858 2.32601 -4.33772 0
M  V30 9898 N 910.51 1.48831 0.518367 0
M  V30 9899 C 911.42 1.6692 1.64848 0
M  V30 9900 C 912.436 0.551711 1.65022 0
M  V30 9901 O 913.612 0.824251 1.83761 0
M  V30 9902 C 910.677 1.71559 3.01278 0
M  V30 9903 C 909.738 2.9502 3.11868 0
M  V30 9904 C 908.971 2.99428 4.4179 0
M  V30 9905 O 909.194 2.11914 5.29574 0
M  V30 9906 O 908.128 3.91719 4.5699 0
M  V30 9907 H 911.954 2.62623 1.52521 0
M  V30 9908 H 909.539 1.32368 0.692749 0
M  V30 9909 H 911.421 1.77064 3.82396 0
M  V30 9910 H 910.096 0.790316 3.13904 0
M  V30 9911 H 909.003 2.95042 2.30003 0
M  V30 9912 H 910.336 3.8697 3.04163 0
M  V30 9913 N 911.988 -0.768124 1.37614 0
M  V30 9914 C 912.951 -1.86314 1.3349 0
M  V30 9915 C 913.951 -1.59025 0.23823 0
M  V30 9916 O 915.141 -1.6704 0.494288 0
M  V30 9917 C 912.273 -3.23519 1.07462 0
M  V30 9918 H 913.466 -1.91382 2.30896 0
M  V30 9919 H 911.019 -0.968267 1.22696 0
M  V30 9920 H 911.754 -3.24127 0.106028 0
M  V30 9921 H 911.539 -3.44719 1.86846 0
M  V30 9922 H 913.029 -4.03597 1.07236 0
M  V30 9923 N 913.466 -1.22244 -0.994698 0
M  V30 9924 C 914.399 -0.934168 -2.08203 0
M  V30 9925 C 915.377 0.122231 -1.6214 0
M  V30 9926 O 916.561 -0.00896598 -1.88498 0
M  V30 9927 C 913.688 -0.404646 -3.36274 0
M  V30 9928 C 912.734 -1.44544 -4.01259 0
M  V30 9929 S 913.567 -3.01816 -4.42343 0
M  V30 9930 C 914.723 -2.50497 -5.73587 0
M  V30 9931 H 914.956 -1.85493 -2.32335 0
M  V30 9932 H 912.489 -1.0533 -1.12893 0
M  V30 9933 H 914.447 -0.105719 -4.10364 0
M  V30 9934 H 913.108 0.494971 -3.10176 0
M  V30 9935 H 912.301 -1.02478 -4.93472 0
M  V30 9936 H 911.903 -1.69298 -3.33488 0
M  V30 9937 H 914.195 -1.91626 -6.49835 0
M  V30 9938 H 915.138 -3.41193 -6.20478 0
M  V30 9939 H 915.546 -1.91845 -5.30901 0
M  V30 9940 N 914.944 1.19125 -1.03184 0
M  V30 9941 C 916.193 1.8821 -0.725264 0
M  V30 9942 C 916.506 1.80674 0.749411 0
M  V30 9943 O 917.712 2.45037 1.16915 0
M  V30 9944 C 916.168 3.37607 -1.24697 0
M  V30 9945 C 915.776 3.53693 -2.74964 0
M  V30 9946 C 917.52 4.12149 -1.01652 0
M  V30 9947 C 915.427 4.97001 -3.20538 0
M  V30 9948 H 914.357 0.704916 -0.267599 0
M  V30 9949 H 917.008 1.34663 -1.24652 0
M  V30 9950 H 915.39 3.90569 -0.653614 0
M  V30 9951 H 916.564 3.11046 -3.39981 0
M  V30 9952 H 914.879 2.92544 -2.96322 0
M  V30 9953 H 917.476 5.17837 -1.33226 0
M  V30 9954 H 917.819 4.16274 0.0465712 0
M  V30 9955 H 918.352 3.65334 -1.57403 0
M  V30 9956 H 915.091 4.9804 -4.26189 0
M  V30 9957 H 914.611 5.40398 -2.60251 0
M  V30 9958 H 916.29 5.65669 -3.14049 0
M  V30 9959 N 916.422 0.810101 1.35185 0
M  V30 9960 C 917.838 0.494269 1.51754 0
M  V30 9961 C 918.038 -0.983907 1.75845 0
M  V30 9962 O 917.094 -1.76882 1.80191 0
M  V30 9963 C 918.407 1.34268 2.69059 0
M  V30 9964 C 919.955 1.33848 2.82938 0
M  V30 9965 C 920.43 2.17109 4.03271 0
M  V30 9966 N 921.921 2.14664 4.10456 0
M  V30 9967 C 922.656 2.75843 5.02691 0
M  V30 9968 N 922.152 3.45962 6.00235 0
M  V30 9969 N 923.945 2.65465 4.95464 0
M  V30 9970 H 916.096 1.76736 1.17805 0
M  V30 9971 H 918.359 0.752429 0.576676 0
M  V30 9972 H 918.065 2.39183 2.57845 0
M  V30 9973 H 917.939 0.998362 3.63748 0
M  V30 9974 H 920.326 0.29716 2.936 0
M  V30 9975 H 920.407 1.72269 1.89095 0
M  V30 9976 H 920.051 3.21283 3.93369 0
M  V30 9977 H 919.981 1.76046 4.96302 0
M  V30 9978 H 922.472 1.63648 3.40628 0
M  V30 9979 H 922.785 3.89922 6.67219 0
M  V30 9980 H 921.13 3.50067 6.00398 0
M  V30 9981 H 924.321 2.1027 4.18215 0
M  V30 9982 H 924.494 3.13433 5.67154 0
M  V30 9983 N 917.9 -1.47166 0.563914 0
M  V30 9984 C 919.149 -2.0166 0.0401871 0
M  V30 9985 C 919.462 -1.44303 -1.32046 0
M  V30 9986 O 920.668 -1.905 -1.93448 0
M  V30 9987 C 919.124 -3.59894 0.0213257 0
M  V30 9988 C 918.732 -4.26244 1.37914 0
M  V30 9989 C 920.476 -4.22114 -0.449442 0
M  V30 9990 C 918.383 -5.76503 1.31902 0
M  V30 9991 H 917.313 -0.753916 0.0112534 0
M  V30 9992 H 919.964 -1.69091 0.712766 0
M  V30 9993 H 918.346 -3.89454 -0.717038 0
M  V30 9994 H 919.52 -4.08317 2.13574 0
M  V30 9995 H 917.835 -3.76039 1.78839 0
M  V30 9996 H 920.432 -5.32234 -0.51292 0
M  V30 9997 H 920.775 -3.89749 -1.46291 0
M  V30 9998 H 921.308 -3.9711 0.23427 0
M  V30 9999 H 918.047 -6.13498 2.3087 0
M  V30 10000 H 917.567 -5.96748 0.604324 0
M  V30 10001 H 919.246 -6.38846 1.02392 0
M  V30 10002 N 919.378 -0.300708 -1.54705 0
M  V30 10003 C 920.655 0.361757 -1.92226 0
M  V30 10004 C 921.035 1.71714 -1.2279 0
M  V30 10005 O 920.383 2.2559 -0.363542 0
M  V30 10006 C 920.593 0.476699 -3.45729 0
M  V30 10007 C 921.941 0.7477 -4.17965 0
M  V30 10008 O 922.965 0.560521 -3.51762 0
M  V30 10009 O 921.824 1.10724 -5.35166 0
M  V30 10010 H 918.918 0.202213 -0.801897 0
M  V30 10011 H 921.464 -0.348746 -1.66078 0
M  V30 10012 H 920.236 -0.476132 -3.88392 0
M  V30 10013 H 919.859 1.23568 -3.77911 0
M  V30 10014 N 920.856 1.57574 -0.0284266 0
M  V30 10015 C 921.789 2.05684 0.988401 0
M  V30 10016 C 922.767 0.952468 1.31783 0
M  V30 10017 O 923.951 1.22274 1.43462 0
M  V30 10018 C 921.078 2.47832 2.30862 0
M  V30 10019 C 920.124 3.69282 2.13384 0
M  V30 10020 S 920.957 5.15962 1.43331 0
M  V30 10021 C 922.113 5.61404 2.76723 0
M  V30 10022 H 922.346 2.9161 0.578873 0
M  V30 10023 H 919.879 1.53309 0.183244 0
M  V30 10024 H 921.837 2.7278 3.06759 0
M  V30 10025 H 920.498 1.62253 2.68947 0
M  V30 10026 H 919.691 3.96618 3.10983 0
M  V30 10027 H 919.293 3.44482 1.45629 0
M  V30 10028 H 921.585 5.65601 3.72963 0
M  V30 10029 H 922.528 6.60956 2.54053 0
M  V30 10030 H 922.936 4.89051 2.81939 0
M  V30 10031 N 922.334 -0.244713 1.55689 0
M  V30 10032 C 923.562 -0.989944 1.8168 0
M  V30 10033 C 923.977 -1.78863 0.604449 0
M  V30 10034 O 923.334 -1.77437 -0.426907 0
M  V30 10035 C 923.385 -1.92607 3.05916 0
M  V30 10036 O 923.106 -1.1597 4.22472 0
M  V30 10037 C 924.607 -2.78711 3.44724 0
M  V30 10038 H 921.827 -0.2912 0.604519 0
M  V30 10039 H 924.371 -0.266938 2.0275 0
M  V30 10040 H 922.526 -2.60333 2.8689 0
M  V30 10041 H 922.94 -1.79311 4.92898 0
M  V30 10042 H 924.414 -3.40141 4.34751 0
M  V30 10043 H 924.891 -3.49935 2.6541 0
M  V30 10044 H 925.497 -2.16435 3.66109 0
M  V30 10045 N 923.813 -1.49104 -0.510467 0
M  V30 10046 C 924.723 -1.67792 -1.6396 0
M  V30 10047 C 925.739 -0.560454 -1.64727 0
M  V30 10048 O 926.915 -0.833985 -1.83321 0
M  V30 10049 C 923.98 -1.73154 -3.00364 0
M  V30 10050 C 923.041 -2.9667 -3.10299 0
M  V30 10051 C 922.274 -3.01767 -4.40196 0
M  V30 10052 O 922.497 -2.1472 -5.28443 0
M  V30 10053 O 921.431 -3.94137 -4.54906 0
M  V30 10054 H 925.257 -2.63428 -1.51126 0
M  V30 10055 H 922.842 -1.32734 -0.685719 0
M  V30 10056 H 924.724 -1.79089 -3.81451 0
M  V30 10057 H 923.399 -0.806952 -3.1348 0
M  V30 10058 H 922.306 -2.96257 -2.28435 0
M  V30 10059 H 923.639 -3.88578 -3.02106 0
M  V30 10060 N 925.291 0.760815 -1.38019 0
M  V30 10061 C 926.521 1.54776 -1.3685 0
M  V30 10062 C 926.929 1.89146 0.0453971 0
M  V30 10063 O 926.272 1.52746 1.0205 0
M  V30 10064 C 926.334 2.87923 -2.15269 0
M  V30 10065 C 925.998 2.76131 -3.64144 0
M  V30 10066 C 926.995 2.46417 -4.57794 0
M  V30 10067 C 924.68 2.9381 -4.07408 0
M  V30 10068 C 926.674 2.34525 -5.92686 0
M  V30 10069 C 924.361 2.81539 -5.42383 0
M  V30 10070 C 925.359 2.51938 -6.34836 0
M  V30 10071 O 925.047 2.39713 -7.67329 0
M  V30 10072 H 924.779 0.485776 -0.470104 0
M  V30 10073 H 927.333 0.949939 -1.82113 0
M  V30 10074 H 925.563 3.49867 -1.64712 0
M  V30 10075 H 927.252 3.49389 -2.06596 0
M  V30 10076 H 928.018 2.32433 -4.25676 0
M  V30 10077 H 923.897 3.15849 -3.35799 0
M  V30 10078 H 927.441 2.11342 -6.64816 0
M  V30 10079 H 923.338 2.95093 -5.741 0
M  V30 10080 H 924.106 2.5498 -7.77771 0
M  V30 10081 N 926.769 1.22769 0.988202 0
M  V30 10082 C 927.702 0.945196 2.07705 0
M  V30 10083 C 928.68 -0.11363 1.62202 0
M  V30 10084 O 929.864 0.0189624 1.8849 0
M  V30 10085 C 926.991 0.422474 3.36055 0
M  V30 10086 C 926.037 1.4667 4.00487 0
M  V30 10087 S 926.87 3.04158 4.40736 0
M  V30 10088 C 928.026 2.53536 5.7225 0
M  V30 10089 H 928.259 1.86723 2.31348 0
M  V30 10090 H 925.792 1.05928 1.12333 0
M  V30 10091 H 927.75 0.12748 4.10302 0
M  V30 10092 H 926.411 -0.478515 3.10434 0
M  V30 10093 H 925.604 1.05093 4.92921 0
M  V30 10094 H 925.206 1.71064 3.32585 0
M  V30 10095 H 927.498 1.95069 6.4881 0
M  V30 10096 H 928.441 3.44479 6.1866 0
M  V30 10097 H 928.849 1.94658 5.29876 0
M  V30 10098 N 928.247 -1.18576 1.03814 0
M  V30 10099 C 929.157 -2.25778 0.637311 0
M  V30 10100 C 930.173 -1.7074 -0.335248 0
M  V30 10101 O 931.349 -2.00494 -0.19081 0
M  V30 10102 C 928.414 -3.467 0.00386953 0
M  V30 10103 C 927.475 -4.16881 1.02511 0
M  V30 10104 C 926.708 -5.32031 0.421802 0
M  V30 10105 O 926.931 -5.65142 -0.772699 0
M  V30 10106 O 925.865 -5.90826 1.14925 0
M  V30 10107 H 929.691 -2.62323 1.53037 0
M  V30 10108 H 927.276 -1.25609 0.80887 0
M  V30 10109 H 929.158 -4.19953 -0.348873 0
M  V30 10110 H 927.833 -3.11983 -0.863047 0
M  V30 10111 H 926.74 -3.45707 1.4296 0
M  V30 10112 H 928.073 -4.55592 1.86271 0
M  V30 10113 N 929.725 -0.817259 -1.34754 0
M  V30 10114 C 930.672 -0.233108 -2.2962 0
M  V30 10115 C 931.642 0.638902 -1.53321 0
M  V30 10116 O 932.827 0.581739 -1.81715 0
M  V30 10117 C 929.967 0.603659 -3.39779 0
M  V30 10118 C 929.08 -0.289967 -4.31026 0
M  V30 10119 C 928.215 0.555825 -5.28284 0
M  V30 10120 C 927.254 -0.337539 -6.11169 0
M  V30 10121 N 926.391 0.468847 -7.00533 0
M  V30 10122 H 931.231 -1.04747 -2.78984 0
M  V30 10123 H 928.768 -0.528056 -1.37295 0
M  V30 10124 H 930.726 1.10407 -4.02326 0
M  V30 10125 H 929.356 1.38319 -2.91664 0
M  V30 10126 H 928.408 -0.908552 -3.69391 0
M  V30 10127 H 929.72 -0.977136 -4.89135 0
M  V30 10128 H 928.874 1.12094 -5.96255 0
M  V30 10129 H 927.613 1.27652 -4.70698 0
M  V30 10130 H 926.618 -0.914839 -5.42135 0
M  V30 10131 H 927.843 -1.05626 -6.70835 0
M  V30 10132 H 925.789 1.17332 -6.45422 0
M  V30 10133 H 925.706 -0.160052 -7.55831 0
M  V30 10134 H 926.974 1.01689 -7.72839 0
M  V30 10135 N 931.203 1.46865 -0.571711 0
M  V30 10136 C 932.153 2.27219 0.188503 0
M  V30 10137 C 933.137 1.35221 0.872019 0
M  V30 10138 O 934.329 1.59474 0.76793 0
M  V30 10139 C 931.458 3.21321 1.20862 0
M  V30 10140 C 930.544 4.20803 0.527783 0
M  V30 10141 N 930.935 5.04132 -0.410403 0
M  V30 10142 C 929.233 4.39128 0.779909 0
M  V30 10143 C 929.934 5.76071 -0.80728 0
M  V30 10144 N 928.91 5.43368 -0.158865 0
M  V30 10145 H 932.712 2.89034 -0.532611 0
M  V30 10146 H 930.226 1.57581 -0.392696 0
M  V30 10147 H 932.223 3.77586 1.76733 0
M  V30 10148 H 930.883 2.61065 1.93067 0
M  V30 10149 H 931.894 5.11911 -0.785351 0
M  V30 10150 H 928.571 3.90031 1.48937 0
M  V30 10151 H 929.961 6.53082 -1.57903 0
M  V30 10152 N 932.681 0.308908 1.54543 0
M  V30 10153 C 933.644 -0.550857 2.22482 0
M  V30 10154 C 934.644 -1.0551 1.21344 0
M  V30 10155 O 935.834 -0.949866 1.46025 0
M  V30 10156 C 932.966 -1.76354 2.9174 0
M  V30 10157 H 934.159 0.0428395 2.99869 0
M  V30 10158 H 931.712 0.059825 1.56185 0
M  V30 10159 H 932.447 -2.39686 2.18451 0
M  V30 10160 H 932.232 -1.40954 3.65889 0
M  V30 10161 H 933.722 -2.37417 3.43545 0
M  V30 10162 N 934.159 -1.57557 0.0367827 0
M  V30 10163 C 935.405 -1.92399 -0.641133 0
M  V30 10164 C 935.738 -0.914191 -1.71336 0
M  V30 10165 O 935.013 0.0619616 -1.94401 0
M  V30 10166 C 935.296 -3.37689 -1.25052 0
M  V30 10167 C 935.149 -4.4941 -0.187326 0
M  V30 10168 C 936.468 -3.8309 -2.16634 0
M  V30 10169 H 933.587 -0.699666 -0.231597 0
M  V30 10170 H 936.229 -1.89759 0.0956083 0
M  V30 10171 H 934.379 -3.40069 -1.87843 0
M  V30 10172 H 936.051 -4.59161 0.443736 0
M  V30 10173 H 934.294 -4.31065 0.486313 0
M  V30 10174 H 934.965 -5.48119 -0.653459 0
M  V30 10175 H 937.441 -3.82494 -1.63821 0
M  V30 10176 H 936.317 -4.85429 -2.56222 0
M  V30 10177 H 936.578 -3.19028 -3.06062 0
M  V30 10178 N 935.637 0.236453 -1.55816 0
M  V30 10179 C 936.862 0.98449 -1.82545 0
M  V30 10180 C 937.287 1.77755 -0.615206 0
M  V30 10181 O 936.645 1.75982 0.435895 0
M  V30 10182 C 936.693 1.88973 -3.07118 0
M  V30 10183 O 935.797 2.98298 -2.84766 0
M  V30 10184 H 935.138 0.279577 -0.602273 0
M  V30 10185 H 937.668 0.254277 -2.03014 0
M  V30 10186 H 937.678 2.3024 -3.36829 0
M  V30 10187 H 936.353 1.30671 -3.94839 0
M  V30 10188 H 934.93 2.61085 -2.6625 0
M  V30 10189 N 937.115 1.49373 0.502552 0
M  V30 10190 C 938.531 1.36101 0.833591 0
M  V30 10191 C 938.731 0.392911 1.97632 0
M  V30 10192 O 937.787 -0.175975 2.51886 0
M  V30 10193 C 939.1 2.76782 1.17526 0
M  V30 10194 C 940.648 2.85471 1.28356 0
M  V30 10195 C 941.123 4.26915 1.65853 0
M  V30 10196 N 942.614 4.29719 1.72905 0
M  V30 10197 C 943.349 5.36127 2.0336 0
M  V30 10198 N 942.845 6.52782 2.32049 0
M  V30 10199 N 944.638 5.23542 2.04598 0
M  V30 10200 H 936.789 2.10912 -0.251008 0
M  V30 10201 H 939.052 0.946696 -0.0497037 0
M  V30 10202 H 938.758 3.49314 0.408965 0
M  V30 10203 H 938.632 3.1205 2.11907 0
M  V30 10204 H 941.019 2.13177 2.04058 0
M  V30 10205 H 941.1 2.53787 0.320304 0
M  V30 10206 H 940.744 4.99735 0.907022 0
M  V30 10207 H 940.674 4.56063 2.63276 0
M  V30 10208 H 943.165 3.45586 1.529 0
M  V30 10209 H 943.478 7.29701 2.54471 0
M  V30 10210 H 941.823 6.56011 2.29509 0
M  V30 10211 H 945.014 4.31413 1.8166 0
M  V30 10212 H 945.187 6.06565 2.27998 0
M  V30 10213 N 938.594 -0.753485 1.38421 0
M  V30 10214 C 939.524 -1.8808 1.38377 0
M  V30 10215 C 940.505 -1.68258 0.249664 0
M  V30 10216 O 941.69 -1.88848 0.45276 0
M  V30 10217 C 938.82 -3.25608 1.20818 0
M  V30 10218 C 937.774 -3.60032 2.31433 0
M  V30 10219 C 937.1 -4.96297 1.9898 0
M  V30 10220 C 938.4 -3.64898 3.73694 0
M  V30 10221 H 940.094 -1.88375 2.32713 0
M  V30 10222 H 937.64 -0.90489 1.12017 0
M  V30 10223 H 939.593 -4.04127 1.19412 0
M  V30 10224 H 938.317 -3.25793 0.229433 0
M  V30 10225 H 936.976 -2.83831 2.32025 0
M  V30 10226 H 936.624 -4.93043 0.995889 0
M  V30 10227 H 936.324 -5.20298 2.73063 0
M  V30 10228 H 937.848 -5.77196 1.99193 0
M  V30 10229 H 939.262 -4.33531 3.75132 0
M  V30 10230 H 937.659 -4.00407 4.46983 0
M  V30 10231 H 938.729 -2.65124 4.06002 0
M  V30 10232 N 940.072 -1.23292 -0.981677 0
M  V30 10233 C 941.321 -1.05832 -1.71705 0
M  V30 10234 C 941.634 0.40514 -1.91358 0
M  V30 10235 O 942.84 0.699645 -2.6233 0
M  V30 10236 C 941.296 -1.84532 -3.08992 0
M  V30 10237 C 940.904 -3.35199 -2.9723 0
M  V30 10238 C 942.648 -1.75557 -3.86497 0
M  V30 10239 C 940.555 -4.06296 -4.29741 0
M  V30 10240 H 939.485 -0.39241 -0.64384 0
M  V30 10241 H 942.136 -1.47247 -1.09502 0
M  V30 10242 H 940.518 -1.35923 -3.71942 0
M  V30 10243 H 941.692 -3.91286 -2.43377 0
M  V30 10244 H 940.007 -3.44973 -2.332 0
M  V30 10245 H 942.604 -2.25989 -4.84596 0
M  V30 10246 H 942.947 -0.718101 -4.1006 0
M  V30 10247 H 943.48 -2.21771 -3.30246 0
M  V30 10248 H 940.219 -5.10344 -4.11375 0
M  V30 10249 H 939.739 -3.54997 -4.83464 0
M  V30 10250 H 941.418 -4.12519 -4.98434 0
M  V30 10251 N 941.55 1.18024 -1.04442 0
M  V30 10252 C 942.798 1.87727 -0.74854 0
M  V30 10253 C 943.119 1.80975 0.726156 0
M  V30 10254 O 942.389 1.23061 1.52423 0
M  V30 10255 H 940.969 0.694974 -0.273897 0
M  V30 10256 H 943.631 1.43213 -1.32197 0
M  V30 10257 H 942.727 2.93665 -1.05674 0
M  V30 10258 N 943.028 0.824394 1.34319 0
M  V30 10259 C 943.991 0.252696 2.27803 0
M  V30 10260 C 944.991 -0.570254 1.50349 0
M  V30 10261 O 946.181 -0.386145 1.69866 0
M  V30 10262 C 943.313 -0.645575 3.34731 0
M  V30 10263 H 944.506 1.07742 2.79878 0
M  V30 10264 H 942.059 0.596367 1.44475 0
M  V30 10265 H 942.794 -1.4933 2.87873 0
M  V30 10266 H 942.579 -0.0569478 3.92059 0
M  V30 10267 H 944.069 -1.03933 4.0446 0
M  V30 10268 N 944.506 -1.46559 0.579492 0
M  V30 10269 C 945.917 -1.8608 0.152052 0
M  V30 10270 C 946.268 -1.48346 -1.28405 0
M  V30 10271 O 945.393 -0.89685 -1.9694 0
M  V30 10272 C 945.988 -3.37729 0.269171 0
M  V30 10273 C 944.547 -3.76258 -0.103376 0
M  V30 10274 C 943.694 -2.70584 0.60659 0
M  V30 10275 H 946.645 -1.3776 0.787904 0
M  V30 10276 H 946.666 -3.77116 -0.506339 0
M  V30 10277 H 946.178 -3.65162 1.31448 0
M  V30 10278 H 944.279 -3.54443 -1.14895 0
M  V30 10279 H 944.392 -4.78335 0.270701 0
M  V30 10280 H 942.756 -2.54656 0.0471984 0
M  V30 10281 H 943.539 -3.00856 1.65349 0
M  V30 10282 N 945.984 -0.3171 -1.54377 0
M  V30 10283 C 947.395 0.172287 -1.85903 0
M  V30 10284 C 947.746 1.52141 -1.23885 0
M  V30 10285 O 946.871 2.0949 -0.542476 0
M  V30 10286 C 947.466 0.319392 -3.37291 0
M  V30 10287 C 946.025 0.752998 -3.68791 0
M  V30 10288 C 945.172 -0.129143 -2.76999 0
M  V30 10289 H 948.123 -0.537597 -1.49317 0
M  V30 10290 H 948.144 1.15137 -3.62662 0
M  V30 10291 H 947.656 -0.662671 -3.82401 0
M  V30 10292 H 945.757 1.74504 -3.2921 0
M  V30 10293 H 945.87 0.561228 -4.75801 0
M  V30 10294 H 944.234 0.394242 -2.5163 0
M  V30 10295 H 945.017 -1.10785 -3.24933 0
M  V30 10296 N 947.462 1.57535 -0.0451378 0
M  V30 10297 C 948.71 1.92071 0.628743 0
M  V30 10298 C 949.031 0.923635 1.71738 0
M  V30 10299 O 948.301 -0.0324376 1.95873 0
M  V30 10300 H 946.881 0.708995 0.235233 0
M  V30 10301 H 949.543 1.9466 -0.0967177 0
M  V30 10302 H 948.639 2.9314 1.07123 0
M  V30 10303 N 948.94 -0.228186 1.55939 0
M  V30 10304 C 950.17 -0.969211 1.82455 0
M  V30 10305 C 950.578 -1.78714 0.621133 0
M  V30 10306 O 949.921 -1.78841 -0.419694 0
M  V30 10307 C 949.983 -1.94088 3.02605 0
M  V30 10308 C 949.647 -1.30811 4.37878 0
M  V30 10309 C 950.644 -0.701275 5.15149 0
M  V30 10310 C 948.329 -1.32187 4.84595 0
M  V30 10311 C 950.323 -0.116631 6.37293 0
M  V30 10312 C 948.01 -0.733375 6.06683 0
M  V30 10313 C 949.008 -0.131804 6.82873 0
M  V30 10314 O 948.696 0.447549 8.02653 0
M  V30 10315 H 948.428 -0.289951 0.610659 0
M  V30 10316 H 950.982 -0.250576 2.03866 0
M  V30 10317 H 949.212 -2.69833 2.76996 0
M  V30 10318 H 950.901 -2.5469 3.1605 0
M  V30 10319 H 951.667 -0.683022 4.80166 0
M  V30 10320 H 947.546 -1.77949 4.25271 0
M  V30 10321 H 951.09 0.353539 6.96704 0
M  V30 10322 H 946.987 -0.749019 6.4114 0
M  V30 10323 H 947.755 0.341224 8.17788 0
M  V30 10324 N 950.418 -1.49637 -0.494624 0
M  V30 10325 C 951.664 -1.59681 -1.25019 0
M  V30 10326 C 951.997 -0.285511 -1.9209 0
M  V30 10327 O 951.272 0.711398 -1.81023 0
M  V30 10328 C 951.555 -2.76058 -2.31222 0
M  V30 10329 C 951.408 -4.17002 -1.68611 0
M  V30 10330 C 952.727 -2.88056 -3.32734 0
M  V30 10331 H 949.846 -0.581209 -0.453172 0
M  V30 10332 H 952.488 -1.81944 -0.547391 0
M  V30 10333 H 950.638 -2.57207 -2.91164 0
M  V30 10334 H 952.31 -4.47385 -1.12447 0
M  V30 10335 H 950.553 -4.22352 -0.989991 0
M  V30 10336 H 951.224 -4.94316 -2.45674 0
M  V30 10337 H 953.7 -3.05237 -2.82789 0
M  V30 10338 H 952.576 -3.71151 -4.04399 0
M  V30 10339 H 952.837 -1.97676 -3.95445 0
M  V30 10340 N 951.896 0.746133 -1.38819 0
M  V30 10341 C 953.144 1.50247 -1.35167 0
M  V30 10342 C 953.465 1.94921 0.0553531 0
M  V30 10343 O 952.735 1.68187 1.00449 0
M  V30 10344 H 951.315 0.557337 -0.497377 0
M  V30 10345 H 953.977 0.886472 -1.73573 0
M  V30 10346 H 953.073 2.38986 -2.00728 0
M  V30 10347 N 953.375 1.23811 0.975125 0
M  V30 10348 C 954.605 1.0986 1.7497 0
M  V30 10349 C 955.013 -0.352366 1.8589 0
M  V30 10350 O 954.356 -1.2553 1.34119 0
M  V30 10351 C 954.418 1.65584 3.19096 0
M  V30 10352 C 954.082 3.14395 3.3167 0
M  V30 10353 C 955.079 4.1163 3.17579 0
M  V30 10354 C 952.764 3.54208 3.56149 0
M  V30 10355 C 954.758 5.46661 3.27781 0
M  V30 10356 C 952.445 4.89382 3.65989 0
M  V30 10357 C 953.443 5.85418 3.51817 0
M  V30 10358 O 953.131 7.18135 3.61299 0
M  V30 10359 H 952.863 0.384854 0.555755 0
M  V30 10360 H 955.417 1.64242 1.23343 0
M  V30 10361 H 953.647 1.05627 3.71994 0
M  V30 10362 H 955.336 1.47032 3.78334 0
M  V30 10363 H 956.102 3.82214 2.98559 0
M  V30 10364 H 951.981 2.79968 3.66249 0
M  V30 10365 H 955.525 6.21601 3.16636 0
M  V30 10366 H 951.422 5.18473 3.84521 0
M  V30 10367 H 952.19 7.25956 3.78061 0
M  V30 10368 N 954.853 -1.17469 1.05066 0
M  V30 10369 C 955.763 -2.25089 0.661222 0
M  V30 10370 C 956.779 -1.71086 -0.31712 0
M  V30 10371 O 957.955 -2.00685 -0.169534 0
M  V30 10372 C 955.02 -3.46676 0.0406415 0
M  V30 10373 C 954.081 -4.15771 1.06927 0
M  V30 10374 C 953.314 -5.31553 0.478208 0
M  V30 10375 O 953.537 -5.6593 -0.712714 0
M  V30 10376 O 952.471 -5.89574 1.21185 0
M  V30 10377 H 956.297 -2.60685 1.5581 0
M  V30 10378 H 953.882 -1.24744 0.822147 0
M  V30 10379 H 955.764 -4.203 -0.304312 0
M  V30 10380 H 954.439 -3.1288 -0.829909 0
M  V30 10381 H 953.346 -3.44171 1.46619 0
M  V30 10382 H 954.679 -4.53591 1.91092 0
M  V30 10383 N 956.331 -0.831506 -1.3388 0
M  V30 10384 C 957.241 -0.261688 -2.33136 0
M  V30 10385 C 958.257 0.608429 -1.63016 0
M  V30 10386 O 959.433 0.514297 -1.94723 0
M  V30 10387 C 956.498 0.559957 -3.42148 0
M  V30 10388 C 955.559 -0.333569 -4.28002 0
M  V30 10389 C 954.792 0.448956 -5.31808 0
M  V30 10390 O 955.015 1.6814 -5.45055 0
M  V30 10391 O 953.949 -0.173197 -6.01651 0
M  V30 10392 H 957.775 -1.08343 -2.83717 0
M  V30 10393 H 955.36 -0.593849 -1.3709 0
M  V30 10394 H 957.242 1.02712 -4.08691 0
M  V30 10395 H 955.917 1.35888 -2.93796 0
M  V30 10396 H 954.824 -0.848416 -3.64352 0
M  V30 10397 H 956.157 -1.09707 -4.79818 0
M  V30 10398 N 957.809 1.4625 -0.587256 0
M  V30 10399 C 959.057 2.01963 -0.0744273 0
M  V30 10400 C 959.378 1.46065 1.29189 0
M  V30 10401 O 958.648 0.647077 1.84905 0
M  V30 10402 H 957.228 0.746597 -0.0245236 0
M  V30 10403 H 959.89 1.79299 -0.764063 0
M  V30 10404 H 958.986 3.12099 -0.00884894 0
M  V30 10405 N 959.287 0.325282 1.54207 0
M  V30 10406 C 960.535 -0.276229 2.00203 0
M  V30 10407 C 960.856 -1.52519 1.21503 0
M  V30 10408 O 960.126 -1.93313 0.317302 0
M  V30 10409 H 958.706 -0.105059 0.739575 0
M  V30 10410 H 961.368 0.442225 1.89817 0
M  V30 10411 H 960.464 -0.531427 3.07542 0
M  V30 10412 N 960.765 -1.57509 0.0534917 0
M  V30 10413 C 961.697 -2.08616 -0.949322 0
M  V30 10414 C 962.71 -1.01446 -1.27328 0
M  V30 10415 O 963.899 -1.29007 -1.23367 0
M  V30 10416 C 960.999 -2.51622 -2.27024 0
M  V30 10417 C 960.172 -3.82154 -2.12785 0
M  V30 10418 C 959.231 -4.11448 -3.2802 0
M  V30 10419 O 958.257 -4.81333 -3.03822 0
M  V30 10420 N 959.459 -3.63543 -4.52567 0
M  V30 10421 H 962.224 -2.95275 -0.5131 0
M  V30 10422 H 959.785 -1.61355 -0.132693 0
M  V30 10423 H 961.777 -2.68293 -3.02986 0
M  V30 10424 H 960.347 -1.70198 -2.62205 0
M  V30 10425 H 959.567 -3.75041 -1.21399 0
M  V30 10426 H 960.855 -4.67629 -2.00501 0
M  V30 10427 H 960.253 -3.07051 -4.75117 0
M  V30 10428 H 958.81 -3.85448 -5.25617 0
M  V30 10429 N 962.243 0.219913 -1.56058 0
M  V30 10430 C 963.173 1.27572 -1.9557 0
M  V30 10431 C 964.154 1.48801 -0.824148 0
M  V30 10432 O 965.339 1.60957 -1.08658 0
M  V30 10433 C 962.469 2.62517 -2.27381 0
M  V30 10434 C 961.423 2.55941 -3.43042 0
M  V30 10435 C 960.749 3.94931 -3.60463 0
M  V30 10436 C 962.049 2.10584 -4.77966 0
M  V30 10437 H 963.743 0.947482 -2.84013 0
M  V30 10438 H 961.289 0.454337 -1.36645 0
M  V30 10439 H 963.242 3.36538 -2.53615 0
M  V30 10440 H 961.966 2.97031 -1.35794 0
M  V30 10441 H 960.625 1.84377 -3.1686 0
M  V30 10442 H 960.273 4.26756 -2.66249 0
M  V30 10443 H 959.973 3.91413 -4.38258 0
M  V30 10444 H 961.497 4.70611 -3.89046 0
M  V30 10445 H 962.911 2.74349 -5.03394 0
M  V30 10446 H 961.308 2.18122 -5.59055 0
M  V30 10447 H 962.378 1.05818 -4.73213 0
M  V30 10448 N 963.721 1.49897 0.486681 0
M  V30 10449 C 964.949 1.63837 1.26353 0
M  V30 10450 C 965.364 0.315428 1.86146 0
M  V30 10451 O 964.721 -0.700831 1.68507 0
M  V30 10452 C 964.772 2.71792 2.38351 0
M  V30 10453 O 964.493 3.98956 1.81013 0
M  V30 10454 C 965.994 2.96566 3.2949 0
M  V30 10455 H 963.214 0.551158 0.382709 0
M  V30 10456 H 965.758 1.96023 0.582694 0
M  V30 10457 H 963.913 2.42344 3.02238 0
M  V30 10458 H 964.327 4.58536 2.54647 0
M  V30 10459 H 965.801 3.75803 4.04322 0
M  V30 10460 H 966.278 2.07031 3.87343 0
M  V30 10461 H 966.884 3.27485 2.71355 0
M  V30 10462 N 965.199 -0.738761 1.39212 0
M  V30 10463 C 966.109 -1.88324 1.39897 0
M  V30 10464 C 967.125 -1.71494 0.294229 0
M  V30 10465 O 968.301 -1.94162 0.535087 0
M  V30 10466 C 965.366 -3.23871 1.23726 0
M  V30 10467 C 964.427 -3.53121 2.44139 0
M  V30 10468 C 963.66 -4.82202 2.2873 0
M  V30 10469 O 963.883 -5.55649 1.28879 0
M  V30 10470 O 962.817 -5.11265 3.17634 0
M  V30 10471 H 966.643 -1.90701 2.36362 0
M  V30 10472 H 964.228 -0.886067 1.20288 0
M  V30 10473 H 966.11 -4.04882 1.16826 0
M  V30 10474 H 964.785 -3.22274 0.303551 0
M  V30 10475 H 963.692 -2.72212 2.56615 0
M  V30 10476 H 965.025 -3.59495 3.36191 0
M  V30 10477 N 966.677 -1.24326 -0.968545 0
M  V30 10478 C 967.64 -1.03591 -2.04454 0
M  V30 10479 C 968.64 0.0064809 -1.60799 0
M  V30 10480 O 969.83 -0.234404 -1.72616 0
M  V30 10481 C 966.962 -0.56992 -3.36102 0
M  V30 10482 H 968.155 -1.99092 -2.24282 0
M  V30 10483 H 965.708 -1.06537 -1.14366 0
M  V30 10484 H 966.443 0.388325 -3.21967 0
M  V30 10485 H 966.228 -1.32227 -3.69132 0
M  V30 10486 H 967.718 -0.445854 -4.15213 0
M  V30 10487 N 968.156 1.1691 -1.05688 0
M  V30 10488 C 969.402 1.8757 -0.771071 0
M  V30 10489 C 969.735 1.8113 0.700399 0
M  V30 10490 O 969.01 1.22273 1.5126 0
M  V30 10491 C 969.293 3.37392 -1.25851 0
M  V30 10492 C 969.146 3.52556 -2.79329 0
M  V30 10493 C 970.465 4.31585 -0.861512 0
M  V30 10494 H 967.584 0.681089 -0.281579 0
M  V30 10495 H 970.226 1.37453 -1.31174 0
M  V30 10496 H 968.376 3.80204 -0.798563 0
M  V30 10497 H 970.048 3.18725 -3.33485 0
M  V30 10498 H 968.291 2.94668 -3.1836 0
M  V30 10499 H 968.962 4.57748 -3.08498 0
M  V30 10500 H 971.438 3.96642 -1.25756 0
M  V30 10501 H 970.314 5.34939 -1.23012 0
M  V30 10502 H 970.575 4.4148 0.234089 0
M  V30 10503 N 969.634 0.838594 1.33437 0
M  V30 10504 C 971.05 0.526347 1.50671 0
M  V30 10505 C 971.25 -0.946387 1.77893 0
M  V30 10506 O 970.306 -1.7302 1.83903 0
M  V30 10507 C 971.619 1.39945 2.6615 0
M  V30 10508 C 973.167 1.3982 2.80035 0
M  V30 10509 C 973.642 2.25614 3.98576 0
M  V30 10510 N 975.133 2.23322 4.0581 0
M  V30 10511 C 975.868 2.86443 4.96727 0
M  V30 10512 N 975.364 3.58616 5.92762 0
M  V30 10513 N 977.157 2.75915 4.89722 0
M  V30 10514 H 969.308 1.79195 1.1403 0
M  V30 10515 H 971.571 0.764491 0.560586 0
M  V30 10516 H 971.277 2.44599 2.52714 0
M  V30 10517 H 971.151 1.07529 3.61548 0
M  V30 10518 H 973.538 0.35937 2.92904 0
M  V30 10519 H 973.619 1.76241 1.85399 0
M  V30 10520 H 973.263 3.29555 3.86466 0
M  V30 10521 H 973.193 1.86533 4.92456 0
M  V30 10522 H 975.684 1.70836 3.37081 0
M  V30 10523 H 975.997 4.03987 6.58798 0
M  V30 10524 H 974.342 3.62724 5.92838 0
M  V30 10525 H 977.533 2.19094 4.13661 0
M  V30 10526 H 977.706 3.25393 5.60378 0
M  V30 10527 N 971.112 -1.45937 0.595003 0
M  V30 10528 C 972.528 -1.57507 0.257641 0
M  V30 10529 C 972.728 -1.58829 -1.23998 0
M  V30 10530 O 971.784 -1.51183 -2.02237 0
M  V30 10531 C 973.097 -2.86354 0.917708 0
M  V30 10532 C 974.645 -3.00007 0.892446 0
M  V30 10533 C 975.12 -4.31607 1.53229 0
M  V30 10534 N 976.611 -4.38336 1.49719 0
M  V30 10535 C 977.346 -5.38805 1.96154 0
M  V30 10536 N 976.842 -6.45882 2.50617 0
M  V30 10537 N 978.635 -5.30084 1.86997 0
M  V30 10538 H 970.786 -1.43322 1.56756 0
M  V30 10539 H 973.049 -0.684436 0.655936 0
M  V30 10540 H 972.755 -2.91233 1.97171 0
M  V30 10541 H 972.629 -3.74703 0.433344 0
M  V30 10542 H 975.016 -2.94703 -0.152975 0
M  V30 10543 H 975.097 -2.13103 1.41495 0
M  V30 10544 H 974.741 -4.3767 2.57697 0
M  V30 10545 H 974.671 -5.17308 0.984903 0
M  V30 10546 H 977.162 -3.6156 1.09921 0
M  V30 10547 H 977.475 -7.18774 2.83874 0
M  V30 10548 H 975.82 -6.46668 2.54649 0
M  V30 10549 H 979.011 -4.45337 1.44196 0
M  V30 10550 H 979.184 -6.08237 2.23499 0
M  V30 10551 N 972.59 -0.333456 -1.54032 0
M  V30 10552 C 974.006 0.0188405 -1.59589 0
M  V30 10553 C 974.206 1.49615 -1.34972 0
M  V30 10554 O 973.262 2.2535 -1.13901 0
M  V30 10555 C 974.575 -0.408273 -2.97915 0
M  V30 10556 C 976.123 -0.359763 -3.10926 0
M  V30 10557 C 976.598 -0.76219 -4.51613 0
M  V30 10558 N 978.089 -0.715981 -4.57633 0
M  V30 10559 C 978.824 -0.999436 -5.64623 0
M  V30 10560 N 978.32 -1.35053 -6.79509 0
M  V30 10561 N 980.113 -0.924343 -5.54448 0
M  V30 10562 H 972.264 -1.29587 -1.68289 0
M  V30 10563 H 974.527 -0.527584 -0.787629 0
M  V30 10564 H 974.233 -1.43793 -3.20962 0
M  V30 10565 H 974.107 0.221685 -3.76548 0
M  V30 10566 H 976.494 0.660703 -2.87609 0
M  V30 10567 H 976.575 -1.02479 -2.34375 0
M  V30 10568 H 976.219 -1.78062 -4.75664 0
M  V30 10569 H 976.149 -0.0747478 -5.26547 0
M  V30 10570 H 978.64 -0.456875 -3.75128 0
M  V30 10571 H 978.953 -1.55194 -7.57057 0
M  V30 10572 H 977.298 -1.38889 -6.80981 0
M  V30 10573 H 980.489 -0.649469 -4.63573 0
M  V30 10574 H 980.662 -1.1486 -6.37739 0
M  V30 10575 N 974.068 1.57479 -0.061844 0
M  V30 10576 C 975.479 1.80627 0.472295 0
M  V30 10577 C 975.83 0.97496 1.70261 0
M  V30 10578 O 974.955 0.1946 2.15523 0
M  V30 10579 C 975.55 3.27608 0.863616 0
M  V30 10580 C 974.109 3.51638 1.34267 0
M  V30 10581 C 973.256 2.75412 0.323009 0
M  V30 10582 H 976.207 1.56072 -0.287634 0
M  V30 10583 H 976.228 3.39113 1.72577 0
M  V30 10584 H 975.74 3.88087 -0.0320226 0
M  V30 10585 H 973.841 2.96452 2.25714 0
M  V30 10586 H 973.954 4.60342 1.32747 0
M  V30 10587 H 972.318 2.4187 0.798175 0
M  V30 10588 H 973.101 3.38623 -0.564729 0
M  V30 10589 N 975.546 -0.211634 1.56173 0
M  V30 10590 C 976.776 -0.949805 1.83473 0
M  V30 10591 C 977.184 -1.78045 0.640053 0
M  V30 10592 O 976.527 -1.79277 -0.400702 0
M  V30 10593 C 976.589 -1.90868 3.04647 0
M  V30 10594 C 976.253 -1.26159 4.39241 0
M  V30 10595 C 977.25 -0.646597 5.15863 0
M  V30 10596 C 974.935 -1.27039 4.85969 0
M  V30 10597 C 976.929 -0.0490313 6.37381 0
M  V30 10598 C 974.616 -0.668987 6.07427 0
M  V30 10599 C 975.614 -0.0593687 6.82974 0
M  V30 10600 O 975.302 0.532656 8.02133 0
M  V30 10601 H 975.034 -0.283458 0.6137 0
M  V30 10602 H 977.588 -0.22894 2.0412 0
M  V30 10603 H 975.818 -2.6688 2.79843 0
M  V30 10604 H 977.507 -2.51323 3.18734 0
M  V30 10605 H 978.273 -0.632056 4.80864 0
M  V30 10606 H 974.152 -1.73429 4.27134 0
M  V30 10607 H 977.696 0.427414 6.96289 0
M  V30 10608 H 973.593 -0.680975 6.41898 0
M  V30 10609 H 974.361 0.427942 8.17381 0
M  V30 10610 N 977.024 -1.50153 -0.478725 0
M  V30 10611 C 978.249 -1.64776 -1.2595 0
M  V30 10612 C 978.674 -0.327794 -1.85222 0
M  V30 10613 O 978.032 0.707418 -1.66929 0
M  V30 10614 C 978.08 -2.73551 -2.34952 0
M  V30 10615 O 977.184 -2.34273 -3.39397 0
M  V30 10616 H 976.525 -0.550769 -0.370877 0
M  V30 10617 H 979.055 -1.96482 -0.570605 0
M  V30 10618 H 979.065 -2.96397 -2.8038 0
M  V30 10619 H 977.74 -3.69354 -1.91181 0
M  V30 10620 H 976.317 -2.21844 -2.99733 0
M  V30 10621 N 978.502 0.731368 -1.39602 0
M  V30 10622 C 979.748 1.49321 -1.37227 0
M  V30 10623 C 980.081 1.94176 0.0306502 0
M  V30 10624 O 979.356 1.67046 0.996294 0
M  V30 10625 C 979.639 2.73035 -2.34784 0
M  V30 10626 C 979.492 2.34176 -3.84033 0
M  V30 10627 C 980.811 3.75146 -2.30116 0
M  V30 10628 H 977.93 0.541652 -0.499783 0
M  V30 10629 H 980.572 0.835968 -1.70621 0
M  V30 10630 H 978.722 3.29114 -2.06437 0
M  V30 10631 H 980.394 1.83701 -4.23145 0
M  V30 10632 H 978.637 1.66361 -4.00633 0
M  V30 10633 H 979.308 3.22786 -4.47787 0
M  V30 10634 H 981.784 3.28661 -2.55189 0
M  V30 10635 H 980.66 4.5937 -3.00451 0
M  V30 10636 H 980.921 4.22326 -1.30741 0
M  V30 10637 N 979.98 1.24838 0.961938 0
M  V30 10638 C 981.229 1.0855 1.69999 0
M  V30 10639 C 981.542 -0.374645 1.91979 0
M  V30 10640 O 982.748 -0.657822 2.6341 0
M  V30 10641 C 981.204 1.89424 3.06017 0
M  V30 10642 C 980.812 3.39885 2.9186 0
M  V30 10643 C 982.556 1.81684 3.83655 0
M  V30 10644 C 980.463 4.13082 4.23223 0
M  V30 10645 H 979.393 0.402603 0.637516 0
M  V30 10646 H 982.044 1.4897 1.07146 0
M  V30 10647 H 980.426 1.41823 3.69733 0
M  V30 10648 H 981.6 3.95108 2.37121 0
M  V30 10649 H 979.915 3.4864 2.27683 0
M  V30 10650 H 982.512 2.3367 4.80939 0
M  V30 10651 H 982.855 0.783247 4.08865 0
M  V30 10652 H 983.388 2.26997 3.26676 0
M  V30 10653 H 980.127 5.16824 4.03204 0
M  V30 10654 H 979.647 3.62644 4.77755 0
M  V30 10655 H 981.326 4.20397 4.91808 0
M  V30 10656 N 981.458 -1.16348 1.06306 0
M  V30 10657 C 982.388 -2.2291 0.695234 0
M  V30 10658 C 983.369 -1.67208 -0.312343 0
M  V30 10659 O 984.554 -1.93293 -0.187442 0
M  V30 10660 C 981.684 -3.47205 0.0810149 0
M  V30 10661 C 980.638 -4.15801 1.01458 0
M  V30 10662 C 979.964 -5.3405 0.263656 0
M  V30 10663 C 981.264 -4.66766 2.34365 0
M  V30 10664 H 982.958 -2.53934 1.58613 0
M  V30 10665 H 980.504 -1.22056 0.76409 0
M  V30 10666 H 982.457 -4.2098 -0.18818 0
M  V30 10667 H 981.181 -3.15482 -0.844897 0
M  V30 10668 H 979.84 -3.43954 1.26852 0
M  V30 10669 H 979.488 -4.9858 -0.665378 0
M  V30 10670 H 979.188 -5.80885 0.88582 0
M  V30 10671 H 980.712 -6.106 0.00200994 0
M  V30 10672 H 982.126 -5.3212 2.13356 0
M  V30 10673 H 980.523 -5.24223 2.9208 0
M  V30 10674 H 981.593 -3.82969 2.97426 0
M  V30 10675 N 982.937 -0.845659 -1.3299 0
M  V30 10676 C 984.184 -0.444653 -1.97558 0
M  V30 10677 C 984.512 0.997682 -1.66963 0
M  V30 10678 O 983.767 1.71349 -0.94541 0
M  V30 10679 C 984.066 -0.6201 -3.51979 0
M  V30 10680 C 983.732 -2.03155 -4.02541 0
M  V30 10681 C 982.394 -2.4176 -4.16059 0
M  V30 10682 C 984.746 -2.95317 -4.29462 0
M  V30 10683 C 982.074 -3.71818 -4.53837 0
M  V30 10684 C 984.426 -4.24863 -4.68694 0
M  V30 10685 C 983.09 -4.63416 -4.80419 0
M  V30 10686 H 982.36 -0.16271 -0.722915 0
M  V30 10687 H 985.007 -1.07399 -1.58549 0
M  V30 10688 H 983.312 0.092513 -3.91691 0
M  V30 10689 H 985.009 -0.290012 -3.9995 0
M  V30 10690 H 981.599 -1.72174 -3.92497 0
M  V30 10691 H 985.783 -2.66726 -4.18534 0
M  V30 10692 H 981.039 -4.01484 -4.61108 0
M  V30 10693 H 985.213 -4.96347 -4.8848 0
M  V30 10694 H 982.84 -5.6424 -5.09448 0
M  V30 10695 N 984.415 1.45619 -0.602734 0
M  V30 10696 C 985.692 1.9558 -0.0282472 0
M  V30 10697 C 986.072 1.54523 1.43826 0
M  V30 10698 O 985.42 0.805456 2.13833 0
M  V30 10699 C 985.63 3.48298 -0.221263 0
M  V30 10700 C 986.978 4.24483 -0.0995249 0
M  V30 10701 O 988.002 3.55879 -0.151132 0
M  V30 10702 O 986.861 5.46497 0.0194454 0
M  V30 10703 H 983.955 0.826104 0.0384897 0
M  V30 10704 H 986.501 1.55808 -0.672456 0
M  V30 10705 H 985.273 3.71134 -1.23997 0
M  V30 10706 H 984.896 3.94948 0.458437 0
M  V30 10707 N 985.893 0.34162 1.53853 0
M  V30 10708 C 986.803 -0.524555 2.2866 0
M  V30 10709 C 987.819 -1.1136 1.33697 0
M  V30 10710 O 988.995 -1.1297 1.66732 0
M  V30 10711 C 986.06 -1.66065 3.04341 0
M  V30 10712 C 985.121 -1.10158 4.14926 0
M  V30 10713 C 984.354 -2.18353 4.86988 0
M  V30 10714 O 984.577 -3.39038 4.58704 0
M  V30 10715 O 983.511 -1.82756 5.73484 0
M  V30 10716 H 987.337 0.0835014 3.03585 0
M  V30 10717 H 984.922 0.106727 1.49018 0
M  V30 10718 H 986.804 -2.3217 3.51674 0
M  V30 10719 H 985.479 -2.25456 2.32275 0
M  V30 10720 H 984.386 -0.405109 3.719 0
M  V30 10721 H 985.719 -0.552567 4.89088 0
M  V30 10722 N 987.371 -1.57444 0.0701946 0
M  V30 10723 C 988.62 -1.92605 -0.598849 0
M  V30 10724 C 988.933 -0.952058 -1.70866 0
M  V30 10725 O 990.139 -1.19643 -2.43716 0
M  V30 10726 C 988.595 -3.42142 -1.11655 0
M  V30 10727 C 988.203 -4.47984 -0.0378355 0
M  V30 10728 C 989.947 -3.86307 -1.75975 0
M  V30 10729 C 987.854 -5.88652 -0.569495 0
M  V30 10730 H 986.784 -0.718873 -0.22746 0
M  V30 10731 H 989.435 -1.82948 0.14217 0
M  V30 10732 H 987.817 -3.46866 -1.91049 0
M  V30 10733 H 988.991 -4.54874 0.736661 0
M  V30 10734 H 987.306 -4.13277 0.50904 0
M  V30 10735 H 989.903 -4.88784 -2.16782 0
M  V30 10736 H 990.246 -3.23587 -2.61911 0
M  V30 10737 H 990.779 -3.84179 -1.03206 0
M  V30 10738 H 987.518 -6.55013 0.252662 0
M  V30 10739 H 987.038 -5.85285 -1.31155 0
M  V30 10740 H 988.717 -6.38482 -1.04641 0
M  V30 10741 N 988.849 0.203349 -1.56283 0
M  V30 10742 C 989.759 1.27266 -1.9708 0
M  V30 10743 C 990.775 1.50268 -0.877236 0
M  V30 10744 O 991.951 1.63044 -1.18231 0
M  V30 10745 C 989.016 2.59871 -2.29495 0
M  V30 10746 C 988.077 2.45012 -3.52516 0
M  V30 10747 C 987.31 3.71293 -3.83376 0
M  V30 10748 O 987.533 4.75106 -3.15643 0
M  V30 10749 O 986.467 3.67316 -4.76826 0
M  V30 10750 H 990.293 0.956461 -2.88246 0
M  V30 10751 H 987.878 0.407688 -1.4373 0
M  V30 10752 H 989.76 3.38152 -2.51458 0
M  V30 10753 H 988.435 2.91135 -1.415 0
M  V30 10754 H 987.342 1.6487 -3.35811 0
M  V30 10755 H 988.675 2.18683 -4.40952 0
M  V30 10756 N 990.327 1.50405 0.470755 0
M  V30 10757 C 991.274 1.69293 1.56871 0
M  V30 10758 C 992.244 0.534248 1.57274 0
M  V30 10759 O 993.429 0.764855 1.74799 0
M  V30 10760 C 990.569 1.79338 2.94842 0
M  V30 10761 C 989.682 3.06709 3.04226 0
M  V30 10762 C 988.817 3.07548 4.33114 0
M  V30 10763 C 987.856 4.29372 4.36241 0
M  V30 10764 N 986.993 4.27949 5.56601 0
M  V30 10765 H 991.833 2.63029 1.40071 0
M  V30 10766 H 989.37 1.30386 0.681016 0
M  V30 10767 H 991.328 1.83143 3.74853 0
M  V30 10768 H 989.958 0.890411 3.10277 0
M  V30 10769 H 989.01 3.12374 2.17086 0
M  V30 10770 H 990.322 3.96684 3.02396 0
M  V30 10771 H 989.476 3.10084 5.21472 0
M  V30 10772 H 988.215 2.15404 4.37553 0
M  V30 10773 H 987.22 4.27048 3.4628 0
M  V30 10774 H 988.445 5.22743 4.33493 0
M  V30 10775 H 986.391 3.38658 5.61824 0
M  V30 10776 H 986.308 5.11692 5.56513 0
M  V30 10777 H 987.576 4.34631 6.47083 0
M  V30 10778 N 991.805 -0.723954 1.39988 0
M  V30 10779 C 992.768 -1.81973 1.3935 0
M  V30 10780 C 993.768 -1.58187 0.288702 0
M  V30 10781 O 994.958 -1.65383 0.547181 0
M  V30 10782 C 992.09 -3.19937 1.177 0
M  V30 10783 H 993.283 -1.83939 2.36868 0
M  V30 10784 H 990.836 -0.928742 1.25714 0
M  V30 10785 H 991.571 -3.23625 0.209093 0
M  V30 10786 H 991.356 -3.386 1.97719 0
M  V30 10787 H 992.846 -3.99981 1.20022 0
M  V30 10788 N 993.283 -1.25346 -0.955304 0
M  V30 10789 C 994.233 -1.02358 -2.03732 0
M  V30 10790 C 995.217 0.0392941 -1.60852 0
M  V30 10791 O 996.409 -0.175959 -1.76123 0
M  V30 10792 C 993.538 -0.643552 -3.37214 0
M  V30 10793 C 992.624 -1.74315 -3.8662 0
M  V30 10794 N 993.015 -2.97816 -4.08827 0
M  V30 10795 C 991.313 -1.62351 -4.15401 0
M  V30 10796 C 992.014 -3.69185 -4.4953 0
M  V30 10797 N 990.99 -2.96803 -4.55422 0
M  V30 10798 H 994.792 -1.96119 -2.18894 0
M  V30 10799 H 992.306 -1.15655 -1.14007 0
M  V30 10800 H 994.303 -0.460053 -4.14354 0
M  V30 10801 H 992.963 0.286738 -3.23431 0
M  V30 10802 H 993.974 -3.33868 -3.95919 0
M  V30 10803 H 990.651 -0.762133 -4.10485 0
M  V30 10804 H 992.041 -4.7519 -4.7502 0
M  V30 10805 N 994.761 1.15782 -1.06922 0
M  V30 10806 C 996.172 1.68062 -0.813144 0
M  V30 10807 C 996.523 1.84681 0.662374 0
M  V30 10808 O 995.648 1.54696 1.51321 0
M  V30 10809 C 996.243 3.05273 -1.46949 0
M  V30 10810 C 994.802 3.54647 -1.26104 0
M  V30 10811 C 993.949 2.30477 -1.54194 0
M  V30 10812 H 996.9 1.00056 -1.23185 0
M  V30 10813 H 996.921 3.69986 -0.888308 0
M  V30 10814 H 996.433 2.93145 -2.54337 0
M  V30 10815 H 994.534 3.72024 -0.20718 0
M  V30 10816 H 994.647 4.36354 -1.97819 0
M  V30 10817 H 993.011 2.35803 -0.96276 0
M  V30 10818 H 993.794 2.2094 -2.62755 0
M  V30 10819 N 996.239 0.8527 1.3254 0
M  V30 10820 C 997.516 0.376491 1.91942 0
M  V30 10821 C 997.896 -1.13972 1.7769 0
M  V30 10822 O 997.244 -1.96047 1.17379 0
M  V30 10823 C 997.454 0.838694 3.38773 0
M  V30 10824 C 998.802 0.854736 4.15908 0
M  V30 10825 O 999.826 0.783203 3.47483 0
M  V30 10826 O 998.685 0.955207 5.38087 0
M  V30 10827 H 995.779 0.109412 0.81973 0
M  V30 10828 H 998.325 0.93947 1.41322 0
M  V30 10829 H 997.097 1.88179 3.43081 0
M  V30 10830 H 996.72 0.253055 3.96794 0
M  V30 10831 N 997.718 -1.45297 0.610449 0
M  V30 10832 C 998.964 -2.02518 0.106917 0
M  V30 10833 C 999.297 -1.47747 -1.26034 0
M  V30 10834 O 998.572 -0.65329 -1.832 0
M  V30 10835 C 998.855 -3.6003 0.0710975 0
M  V30 10836 C 998.708 -4.25128 1.46922 0
M  V30 10837 C 1000.03 -4.35778 -0.61524 0
M  V30 10838 H 997.146 -0.735896 0.040327 0
M  V30 10839 H 999.788 -1.73117 0.782968 0
M  V30 10840 H 997.938 -3.85209 -0.504611 0
M  V30 10841 H 999.61 -4.11125 2.09223 0
M  V30 10842 H 997.853 -3.83418 2.02911 0
M  V30 10843 H 998.524 -5.34046 1.39637 0
M  V30 10844 H 1001 -4.1591 -0.125871 0
M  V30 10845 H 999.876 -5.45506 -0.609419 0
M  V30 10846 H 1000.14 -4.08859 -1.68186 0
M  V30 10847 N 999.196 -0.349774 -1.5367 0
M  V30 10848 C 1000.44 0.244827 -2.01015 0
M  V30 10849 C 1000.77 1.50057 -1.23746 0
M  V30 10850 O 1000.03 1.9315 -0.314872 0
M  V30 10851 C 1000.32 0.598311 -3.52356 0
M  V30 10852 C 999.991 -0.56127 -4.47393 0
M  V30 10853 C 998.653 -0.879481 -4.73095 0
M  V30 10854 C 1001 -1.3389 -5.03709 0
M  V30 10855 C 998.333 -1.97758 -5.52366 0
M  V30 10856 C 1000.68 -2.4273 -5.84179 0
M  V30 10857 C 999.349 -2.75103 -6.08173 0
M  V30 10858 H 998.619 0.0895884 -0.735564 0
M  V30 10859 H 1001.27 -0.478975 -1.85413 0
M  V30 10860 H 999.571 1.40291 -3.65822 0
M  V30 10861 H 1001.27 1.07036 -3.86451 0
M  V30 10862 H 997.858 -0.303201 -4.27526 0
M  V30 10863 H 1002.04 -1.10632 -4.83812 0
M  V30 10864 H 997.298 -2.23257 -5.6918 0
M  V30 10865 H 1001.47 -3.03412 -6.26828 0
M  V30 10866 H 999.099 -3.60317 -6.69385 0
M  V30 10867 N 1000.67 1.57404 -0.0785433 0
M  V30 10868 C 1001.62 2.14316 0.903949 0
M  V30 10869 C 1002.62 1.08176 1.30362 0
M  V30 10870 O 1003.82 1.26546 1.28008 0
M  V30 10871 H 1000.2 0.685367 0.309477 0
M  V30 10872 H 1002.17 2.95719 0.399081 0
M  V30 10873 C 1000.92 2.72504 2.15956 0
M  V30 10874 H 1000.24 3.53853 1.86087 0
M  V30 10875 H 1001.68 3.15914 2.82798 0
M  V30 10876 C 1000.14 1.6759 2.92259 0
M  V30 10877 O 1000.67 1.10492 3.86205 0
M  V30 10878 N 998.875 1.38467 2.5549 0
M  V30 10879 H 998.422 1.85088 1.79166 0
M  V30 10880 H 998.38 0.685053 3.06846 0
M  V30 10881 N 1002.15 -0.195058 1.56388 0
M  V30 10882 C 1003.4 -0.913626 1.79821 0
M  V30 10883 C 1003.71 -1.84422 0.651767 0
M  V30 10884 O 1004.92 -2.6034 0.770402 0
M  V30 10885 C 1003.38 -1.67497 3.18548 0
M  V30 10886 C 1002.98 -0.789205 4.40994 0
M  V30 10887 C 1004.73 -2.38318 3.5129 0
M  V30 10888 C 1002.63 -1.54942 5.70742 0
M  V30 10889 H 1001.56 -0.344891 0.670497 0
M  V30 10890 H 1004.22 -0.166912 1.82739 0
M  V30 10891 H 1002.6 -2.46557 3.0988 0
M  V30 10892 H 1003.77 -0.0372595 4.60785 0
M  V30 10893 H 1002.09 -0.191834 4.15958 0
M  V30 10894 H 1004.68 -2.95745 4.45465 0
M  V30 10895 H 1005.03 -3.12507 2.75037 0
M  V30 10896 H 1005.56 -1.66224 3.61406 0
M  V30 10897 H 1002.3 -0.85031 6.49962 0
M  V30 10898 H 1001.82 -2.2753 5.54969 0
M  V30 10899 H 1003.5 -2.1032 6.11861 0
M  V30 10900 N 1003.63 -1.50653 -0.462772 0
M  V30 10901 C 1004.56 -1.73056 -1.5676 0
M  V30 10902 C 1005.54 -0.579699 -1.59917 0
M  V30 10903 O 1006.73 -0.819729 -1.76051 0
M  V30 10904 C 1003.86 -1.83234 -2.9503 0
M  V30 10905 C 1002.81 -2.98488 -3.06739 0
M  V30 10906 C 1002.14 -2.93818 -4.46738 0
M  V30 10907 C 1003.44 -4.38869 -2.83181 0
M  V30 10908 H 1005.13 -2.65562 -1.38265 0
M  V30 10909 H 1002.68 -1.27792 -0.663722 0
M  V30 10910 H 1004.63 -1.97491 -3.72257 0
M  V30 10911 H 1003.35 -0.873558 -3.14701 0
M  V30 10912 H 1002.01 -2.83895 -2.31946 0
M  V30 10913 H 1001.66 -1.95769 -4.63339 0
M  V30 10914 H 1001.36 -3.71197 -4.55507 0
M  V30 10915 H 1002.88 -3.10135 -5.25974 0
M  V30 10916 H 1004.3 -4.53945 -3.50153 0
M  V30 10917 H 1002.69 -5.17762 -3.03386 0
M  V30 10918 H 1003.76 -4.50663 -1.78972 0
M  V30 10919 N 1005.11 0.71652 -1.4037 0
M  V30 10920 C 1006.04 1.84345 -1.43315 0
M  V30 10921 C 1007.02 1.67537 -0.294186 0
M  V30 10922 O 1008.2 1.87582 -0.502671 0
M  V30 10923 C 1005.33 3.2229 -1.29408 0
M  V30 10924 C 1004.29 3.53769 -2.40897 0
M  V30 10925 C 1003.61 4.90847 -2.12068 0
M  V30 10926 C 1004.91 3.54862 -3.83237 0
M  V30 10927 H 1006.61 1.82138 -2.37626 0
M  V30 10928 H 1004.15 0.874873 -1.14376 0
M  V30 10929 H 1006.11 4.00819 -1.30085 0
M  V30 10930 H 1004.83 3.2507 -0.31573 0
M  V30 10931 H 1003.49 2.77579 -2.39469 0
M  V30 10932 H 1003.14 4.90229 -1.12626 0
M  V30 10933 H 1002.84 5.12875 -2.86762 0
M  V30 10934 H 1004.36 5.71711 -2.14426 0
M  V30 10935 H 1005.78 4.23432 -3.86494 0
M  V30 10936 H 1004.17 3.88416 -4.57442 0
M  V30 10937 H 1005.24 2.54266 -4.12888 0
M  V30 10938 N 1006.59 1.25851 0.948643 0
M  V30 10939 C 1007.52 1.02549 2.04979 0
M  V30 10940 C 1008.53 -0.0115923 1.62796 0
M  V30 10941 O 1009.72 0.227643 1.77042 0
M  V30 10942 C 1006.82 0.529486 3.34738 0
M  V30 10943 C 1005.99 1.6341 4.05729 0
M  V30 10944 C 1005.05 1.13743 5.1376 0
M  V30 10945 O 1004.08 1.83303 5.38877 0
M  V30 10946 N 1005.28 -0.0181151 5.80497 0
M  V30 10947 H 1008.05 1.97365 2.25537 0
M  V30 10948 H 1005.61 1.17137 1.11761 0
M  V30 10949 H 1007.6 0.181566 4.04293 0
M  V30 10950 H 1006.17 -0.324893 3.10907 0
M  V30 10951 H 1005.39 2.15331 3.30191 0
M  V30 10952 H 1006.68 2.37603 4.49914 0
M  V30 10953 H 1006.07 -0.599198 5.62518 0
M  V30 10954 H 1004.63 -0.307019 6.51077 0
M  V30 10955 N 1008.06 -1.15214 1.07534 0
M  V30 10956 C 1009.31 -1.85388 0.794617 0
M  V30 10957 C 1009.63 -1.83331 -0.681838 0
M  V30 10958 O 1010.83 -2.49207 -1.0774 0
M  V30 10959 C 1009.29 -3.32747 1.37141 0
M  V30 10960 C 1008.9 -3.43244 2.87902 0
M  V30 10961 C 1010.64 -4.08093 1.16879 0
M  V30 10962 C 1008.55 -4.84762 3.38763 0
M  V30 10963 H 1007.48 -0.694499 0.293577 0
M  V30 10964 H 1010.13 -1.29944 1.29564 0
M  V30 10965 H 1008.51 -3.87874 0.798121 0
M  V30 10966 H 1009.68 -2.98214 3.51291 0
M  V30 10967 H 1008 -2.81345 3.06975 0
M  V30 10968 H 1010.6 -5.12535 1.52353 0
M  V30 10969 H 1010.94 -4.1616 0.107958 0
M  V30 10970 H 1011.47 -3.59241 1.70854 0
M  V30 10971 H 1008.21 -4.81879 4.4438 0
M  V30 10972 H 1007.73 -5.30366 2.80128 0
M  V30 10973 H 1009.41 -5.53624 3.34827 0
M  V30 10974 N 1009.54 -0.859717 -1.32086 0
M  V30 10975 C 1010.47 -0.323502 -2.31248 0
M  V30 10976 C 1011.45 0.580085 -1.59903 0
M  V30 10977 O 1012.64 0.499265 -1.87673 0
M  V30 10978 C 1009.77 0.484661 -3.43902 0
M  V30 10979 C 1008.72 -0.324933 -4.26765 0
M  V30 10980 C 1008.05 0.608281 -5.31229 0
M  V30 10981 C 1009.35 -1.55344 -4.98664 0
M  V30 10982 H 1011.04 -1.15209 -2.76346 0
M  V30 10983 H 1008.59 -0.555442 -1.32856 0
M  V30 10984 H 1010.54 0.870238 -4.12316 0
M  V30 10985 H 1009.27 1.34666 -2.97544 0
M  V30 10986 H 1007.92 -0.692328 -3.60003 0
M  V30 10987 H 1007.57 1.46727 -4.81124 0
M  V30 10988 H 1007.27 0.0705571 -5.87558 0
M  V30 10989 H 1008.8 0.990925 -6.02506 0
M  V30 10990 H 1010.21 -1.23987 -5.59732 0
M  V30 10991 H 1008.61 -2.02947 -5.64741 0
M  V30 10992 H 1009.68 -2.31192 -4.26237 0
M  V30 10993 N 1011.02 1.44971 -0.618145 0
M  V30 10994 C 1012.3 1.95539 -0.0489895 0
M  V30 10995 C 1012.68 1.5604 1.42179 0
M  V30 10996 O 1012.03 0.82809 2.12967 0
M  V30 10997 C 1012.24 3.48044 -0.258193 0
M  V30 10998 C 1013.58 4.24354 -0.144541 0
M  V30 10999 O 1014.61 3.55699 -0.18887 0
M  V30 11000 O 1013.47 5.46486 -0.038519 0
M  V30 11001 H 1010.56 0.826466 0.0297256 0
M  V30 11002 H 1013.11 1.55086 -0.688944 0
M  V30 11003 H 1011.88 3.69798 -1.27926 0
M  V30 11004 H 1011.5 3.95412 0.416522 0
M  V30 11005 N 1012.5 0.357919 1.53482 0
M  V30 11006 C 1013.78 -0.290164 1.93436 0
M  V30 11007 C 1014.16 -1.67039 1.29079 0
M  V30 11008 O 1013.5 -2.24085 0.447017 0
M  V30 11009 C 1013.71 -0.348055 3.4726 0
M  V30 11010 C 1015.06 -0.59206 4.20452 0
M  V30 11011 O 1016.09 -0.429581 3.536 0
M  V30 11012 O 1014.94 -0.907855 5.38907 0
M  V30 11013 H 1012.04 -0.172312 0.80885 0
M  V30 11014 H 1014.58 0.410144 1.64669 0
M  V30 11015 H 1013.36 0.619953 3.86358 0
M  V30 11016 H 1012.98 -1.09457 3.82237 0
M  V30 11017 N 1013.98 -1.5736 0.0868897 0
M  V30 11018 C 1015.22 -1.9367 -0.577598 0
M  V30 11019 C 1015.55 -0.968844 -1.69229 0
M  V30 11020 O 1014.82 -0.0195061 -1.9589 0
M  V30 11021 H 1013.4 -0.714983 -0.216353 0
M  V30 11022 H 1016.06 -1.94335 0.148294 0
M  V30 11023 H 1015.15 -2.95877 -0.993128 0
M  V30 11024 N 1015.45 0.186762 -1.56489 0
M  V30 11025 C 1016.87 0.537933 -1.50261 0
M  V30 11026 C 1017.07 1.85435 -0.788414 0
M  V30 11027 O 1016.13 2.50168 -0.342377 0
M  V30 11028 C 1017.44 0.584965 -2.94955 0
M  V30 11029 C 1018.99 0.673228 -3.05674 0
M  V30 11030 C 1019.46 0.751294 -4.51796 0
M  V30 11031 N 1020.95 0.814599 -4.55981 0
M  V30 11032 C 1021.69 0.895313 -5.66367 0
M  V30 11033 N 1021.18 0.937814 -6.86423 0
M  V30 11034 N 1022.98 0.933145 -5.543 0
M  V30 11035 H 1015.13 -0.676636 -2.01334 0
M  V30 11036 H 1017.39 -0.242079 -0.916571 0
M  V30 11037 H 1017.1 -0.313361 -3.50301 0
M  V30 11038 H 1016.97 1.4368 -3.48763 0
M  V30 11039 H 1019.36 1.56198 -2.50372 0
M  V30 11040 H 1019.44 -0.204976 -2.54977 0
M  V30 11041 H 1019.08 -0.133143 -5.07725 0
M  V30 11042 H 1019.01 1.64542 -5.00233 0
M  V30 11043 H 1021.5 0.790662 -3.69536 0
M  V30 11044 H 1021.82 1.00015 -7.66301 0
M  V30 11045 H 1020.16 0.906351 -6.89065 0
M  V30 11046 H 1023.35 0.896836 -4.59428 0
M  V30 11047 H 1023.53 0.992588 -6.40353 0
M  V30 11048 N 1016.93 1.50896 0.454776 0
M  V30 11049 C 1017.86 1.73885 1.5584 0
M  V30 11050 C 1018.84 0.588172 1.59607 0
M  V30 11051 O 1020.03 0.829054 1.75614 0
M  V30 11052 C 1017.16 1.84796 2.94054 0
M  V30 11053 C 1016.11 3.00111 3.05152 0
M  V30 11054 C 1015.44 2.96183 4.45174 0
M  V30 11055 C 1016.74 4.40365 2.80849 0
M  V30 11056 H 1018.43 2.66292 1.36854 0
M  V30 11057 H 1015.98 1.28142 0.656936 0
M  V30 11058 H 1017.93 1.99462 3.71204 0
M  V30 11059 H 1016.66 0.890235 3.14233 0
M  V30 11060 H 1015.31 2.85121 2.30438 0
M  V30 11061 H 1014.96 1.98224 4.62295 0
M  V30 11062 H 1014.66 3.73608 4.53532 0
M  V30 11063 H 1016.19 3.1292 5.24322 0
M  V30 11064 H 1017.6 4.55795 3.47741 0
M  V30 11065 H 1016 5.19363 3.00636 0
M  V30 11066 H 1017.07 4.51606 1.76579 0
M  V30 11067 N 1018.41 -0.709066 1.40748 0
M  V30 11068 C 1019.64 -1.49808 1.42707 0
M  V30 11069 C 1020.05 -1.88778 0.0285574 0
M  V30 11070 O 1019.41 -1.55883 -0.949035 0
M  V30 11071 C 1019.46 -2.76926 2.32366 0
M  V30 11072 O 1019.18 -2.39602 3.66773 0
M  V30 11073 C 1020.68 -3.70773 2.42986 0
M  V30 11074 H 1017.9 -0.462106 0.486517 0
M  V30 11075 H 1020.45 -0.874135 1.84876 0
M  V30 11076 H 1018.6 -3.3559 1.93541 0
M  V30 11077 H 1019.02 -3.21443 4.14457 0
M  V30 11078 H 1020.49 -4.56789 3.09916 0
M  V30 11079 H 1020.97 -4.14332 1.45691 0
M  V30 11080 H 1021.57 -3.18019 2.8239 0
M  V30 11081 N 1019.89 -1.26353 -0.941956 0
M  V30 11082 C 1021.17 -1.02601 -1.6653 0
M  V30 11083 C 1021.55 0.44381 -2.06382 0
M  V30 11084 O 1020.89 1.42399 -1.78703 0
M  V30 11085 C 1021.1 -1.97401 -2.87809 0
M  V30 11086 C 1022.45 -2.25967 -3.59478 0
M  V30 11087 O 1023.48 -1.95261 -2.97912 0
M  V30 11088 O 1022.34 -2.78244 -4.70364 0
M  V30 11089 H 1019.43 -0.39007 -0.729228 0
M  V30 11090 H 1021.98 -1.37559 -0.993754 0
M  V30 11091 H 1020.75 -2.9659 -2.55245 0
M  V30 11092 H 1020.37 -1.62918 -3.62689 0
M  V30 11093 N 1021.37 1.14642 -1.08144 0
M  V30 11094 C 1022.59 1.90025 -0.830972 0
M  V30 11095 C 1023.02 1.77904 0.610879 0
M  V30 11096 O 1022.38 1.11735 1.42776 0
M  V30 11097 C 1022.42 3.38085 -1.25422 0
M  V30 11098 O 1021.53 4.10412 -0.404486 0
M  V30 11099 H 1020.87 0.591327 -0.302041 0
M  V30 11100 H 1023.4 1.4513 -1.44216 0
M  V30 11101 H 1023.41 3.88894 -1.23391 0
M  V30 11102 H 1022.08 3.46226 -2.30435 0
M  V30 11103 H 1020.66 3.69693 -0.487987 0
M  V30 11104 N 1022.85 0.866709 1.31628 0
M  V30 11105 C 1023.8 0.291712 2.26126 0
M  V30 11106 C 1024.78 -0.569375 1.50489 0
M  V30 11107 O 1025.97 -0.416786 1.72023 0
M  V30 11108 C 1023.1 -0.508624 3.39511 0
M  V30 11109 C 1022.19 0.365524 4.22522 0
M  V30 11110 N 1022.58 1.45747 4.84346 0
M  V30 11111 C 1020.88 0.157384 4.45722 0
M  V30 11112 C 1021.58 1.99625 5.46374 0
M  V30 11113 N 1020.55 1.29371 5.27981 0
M  V30 11114 H 1024.35 1.12633 2.71461 0
M  V30 11115 H 1021.87 0.714118 1.45857 0
M  V30 11116 H 1023.87 -0.937057 4.06233 0
M  V30 11117 H 1022.53 -1.34089 2.9572 0
M  V30 11118 H 1023.54 1.84039 4.84097 0
M  V30 11119 H 1020.21 -0.639193 4.12578 0
M  V30 11120 H 1021.6 2.91222 6.05508 0
M  V30 11121 N 1024.32 -1.44642 0.625825 0
M  V30 11122 C 1025.57 -2.01695 0.127948 0
M  V30 11123 C 1025.89 -1.49439 -1.25271 0
M  V30 11124 O 1025.16 -0.695873 -1.83124 0
M  V30 11125 H 1023.74 -0.745685 0.0443096 0
M  V30 11126 H 1026.4 -1.7721 0.811332 0
M  V30 11127 H 1025.5 -3.11966 0.0915933 0
M  V30 11128 N 1025.8 -0.366053 -1.5329 0
M  V30 11129 C 1027.22 -0.0150149 -1.59593 0
M  V30 11130 C 1027.42 1.46719 -1.38116 0
M  V30 11131 O 1026.47 2.22884 -1.18656 0
M  V30 11132 C 1027.79 -0.471374 -2.96982 0
M  V30 11133 C 1029.33 -0.425634 -3.10092 0
M  V30 11134 C 1029.81 -0.857812 -4.49895 0
M  V30 11135 N 1031.3 -0.81289 -4.56011 0
M  V30 11136 C 1032.04 -1.11898 -5.62376 0
M  V30 11137 N 1031.53 -1.49436 -6.76491 0
M  V30 11138 N 1033.32 -1.04174 -5.52362 0
M  V30 11139 H 1025.48 -1.33127 -1.65502 0
M  V30 11140 H 1027.74 -0.544172 -0.776261 0
M  V30 11141 H 1027.44 -1.50569 -3.1784 0
M  V30 11142 H 1027.32 0.141764 -3.76934 0
M  V30 11143 H 1029.71 0.599548 -2.88945 0
M  V30 11144 H 1029.79 -1.07427 -2.32149 0
M  V30 11145 H 1029.43 -1.88111 -4.7178 0
M  V30 11146 H 1029.36 -0.186419 -5.2627 0
M  V30 11147 H 1031.85 -0.536343 -3.74075 0
M  V30 11148 H 1032.16 -1.71217 -7.53594 0
M  V30 11149 H 1030.51 -1.53302 -6.77882 0
M  V30 11150 H 1033.7 -0.747654 -4.62091 0
M  V30 11151 H 1033.87 -1.28362 -6.35159 0
M  V30 11152 N 1027.28 1.57312 -0.0952337 0
M  V30 11153 C 1028.51 1.98697 0.57682 0
M  V30 11154 C 1028.92 0.974347 1.61716 0
M  V30 11155 O 1028.28 -0.036022 1.82464 0
M  V30 11156 C 1028.33 3.40133 1.2244 0
M  V30 11157 O 1028.05 4.37518 0.225678 0
M  V30 11158 C 1029.55 3.96522 1.98205 0
M  V30 11159 H 1026.77 0.65294 0.154629 0
M  V30 11160 H 1029.32 2.03754 -0.174562 0
M  V30 11161 H 1027.47 3.3609 1.92671 0
M  V30 11162 H 1027.89 5.199 0.693116 0
M  V30 11163 H 1029.36 4.97637 2.38875 0
M  V30 11164 H 1029.84 3.34347 2.84796 0
M  V30 11165 H 1030.44 4.04038 1.3279 0
M  V30 11166 N 1028.76 -0.17846 1.56586 0
M  V30 11167 C 1030 -0.897562 1.81856 0
M  V30 11168 C 1030.34 -1.82204 0.671955 0
M  V30 11169 O 1029.61 -1.91739 -0.326535 0
M  V30 11170 C 1029.89 -1.69942 3.17477 0
M  V30 11171 C 1029.75 -0.798545 4.42655 0
M  V30 11172 C 1031.07 -2.66861 3.49962 0
M  V30 11173 H 1028.19 -0.324863 0.661539 0
M  V30 11174 H 1030.83 -0.164106 1.8929 0
M  V30 11175 H 1028.98 -2.32471 3.11271 0
M  V30 11176 H 1030.65 -0.18668 4.60922 0
M  V30 11177 H 1028.89 -0.106181 4.3367 0
M  V30 11178 H 1029.56 -1.39496 5.34083 0
M  V30 11179 H 1032.04 -2.1446 3.56576 0
M  V30 11180 H 1030.92 -3.20037 4.45946 0
M  V30 11181 H 1031.18 -3.46715 2.74301 0
M  V30 11182 N 1030.24 -1.51135 -0.446768 0
M  V30 11183 C 1031.51 -1.5387 -1.20762 0
M  V30 11184 C 1031.89 -0.297446 -2.08994 0
M  V30 11185 O 1031.24 0.717975 -2.16927 0
M  V30 11186 C 1031.45 -2.84767 -2.01764 0
M  V30 11187 C 1032.8 -3.3636 -2.59128 0
M  V30 11188 O 1033.82 -2.86254 -2.11984 0
M  V30 11189 O 1032.68 -4.23765 -3.45088 0
M  V30 11190 H 1029.78 -0.618228 -0.549293 0
M  V30 11191 H 1032.32 -1.63442 -0.456605 0
M  V30 11192 H 1031.09 -3.6657 -1.36901 0
M  V30 11193 H 1030.72 -2.78313 -2.8395 0
M  V30 11194 N 1031.71 0.701592 -1.41122 0
M  V30 11195 C 1032.96 1.4616 -1.40155 0
M  V30 11196 C 1033.29 1.94498 -0.00861553 0
M  V30 11197 O 1032.54 1.69484 0.978452 0
M  V30 11198 C 1032.84 2.693 -2.34973 0
M  V30 11199 C 1032.51 2.39652 -3.81939 0
M  V30 11200 C 1031.17 2.31277 -4.21977 0
M  V30 11201 C 1033.52 2.15076 -4.74755 0
M  V30 11202 C 1030.85 1.96413 -5.52846 0
M  V30 11203 C 1033.2 1.81722 -6.05937 0
M  V30 11204 C 1031.87 1.71838 -6.45002 0
M  V30 11205 H 1031.14 0.534837 -0.512865 0
M  V30 11206 H 1033.78 0.802425 -1.73878 0
M  V30 11207 H 1032.09 3.40123 -1.94484 0
M  V30 11208 H 1033.79 3.27427 -2.31501 0
M  V30 11209 H 1030.38 2.47063 -3.50226 0
M  V30 11210 H 1034.56 2.20495 -4.4463 0
M  V30 11211 H 1029.82 1.87308 -5.82001 0
M  V30 11212 H 1033.99 1.61723 -6.77362 0
M  V30 11213 H 1031.62 1.44591 -7.46323 0
M  V30 11214 N 1033.19 1.2685 0.935242 0
M  V30 11215 C 1034.61 1.04091 1.20984 0
M  V30 11216 C 1034.81 -0.230242 2.0018 0
M  V30 11217 O 1033.86 -0.93778 2.3444 0
M  V30 11218 C 1035.18 2.27586 1.96533 0
M  V30 11219 C 1036.72 2.32547 2.09501 0
M  V30 11220 C 1037.2 3.55751 2.88454 0
M  V30 11221 N 1038.69 3.56263 2.96025 0
M  V30 11222 C 1039.43 4.48262 3.57559 0
M  V30 11223 N 1038.92 5.50557 4.20546 0
M  V30 11224 N 1040.71 4.35901 3.5489 0
M  V30 11225 H 1032.87 2.08484 0.405954 0
M  V30 11226 H 1035.13 0.916548 0.242164 0
M  V30 11227 H 1034.83 3.20076 1.45753 0
M  V30 11228 H 1034.71 2.32305 2.97177 0
M  V30 11229 H 1037.1 1.40568 2.5947 0
M  V30 11230 H 1037.18 2.31836 1.08101 0
M  V30 11231 H 1036.82 4.48063 2.3917 0
M  V30 11232 H 1036.75 3.53711 3.90123 0
M  V30 11233 H 1039.24 2.82278 2.51252 0
M  V30 11234 H 1039.55 6.16935 4.65415 0
M  V30 11235 H 1037.9 5.54407 4.19115 0
M  V30 11236 H 1041.09 3.552 3.04879 0
M  V30 11237 H 1041.26 5.07792 4.02557 0
M  V30 11238 N 1034.67 -1.14067 1.0875 0
M  V30 11239 C 1035.62 -2.21332 0.715195 0
M  V30 11240 C 1036.61 -1.67059 -0.280679 0
M  V30 11241 O 1037.82 -1.79432 -0.142874 0
M  V30 11242 H 1034.19 -0.721126 0.213264 0
M  V30 11243 H 1036.16 -2.50002 1.62916 0
M  V30 11244 C 1034.91 -3.474 0.144401 0
M  V30 11245 H 1034.24 -3.89495 0.901884 0
M  V30 11246 H 1035.68 -4.23928 -0.0782564 0
M  V30 11247 C 1034.14 -3.17787 -1.11862 0
M  V30 11248 O 1034.67 -3.35906 -2.20295 0
M  V30 11249 N 1032.87 -2.71719 -1.03039 0
M  V30 11250 H 1032.42 -2.57175 -0.14793 0
M  V30 11251 H 1032.38 -2.52281 -1.87621 0
M  V30 11252 N 1036.15 -0.873678 -1.31166 0
M  V30 11253 C 1037.38 -0.501043 -2.00742 0
M  V30 11254 C 1037.79 0.907477 -1.65561 0
M  V30 11255 O 1037.15 1.59507 -0.886771 0
M  V30 11256 C 1037.2 -0.652877 -3.55556 0
M  V30 11257 O 1036.92 -2.00593 -3.89479 0
M  V30 11258 C 1038.42 -0.281742 -4.42404 0
M  V30 11259 H 1035.64 -0.194829 -0.642092 0
M  V30 11260 H 1038.19 -1.17587 -1.67313 0
M  V30 11261 H 1036.34 -0.0255627 -3.87392 0
M  V30 11262 H 1036.75 -2.01638 -4.84193 0
M  V30 11263 H 1038.23 -0.43892 -5.50252 0
M  V30 11264 H 1038.71 0.779389 -4.32229 0
M  V30 11265 H 1039.31 -0.88491 -4.15992 0
M  V30 11266 N 1037.63 1.44308 -0.633487 0
M  V30 11267 C 1038.87 2.02322 -0.139123 0
M  V30 11268 C 1039.21 1.49733 1.23667 0
M  V30 11269 O 1038.48 0.682353 1.82138 0
M  V30 11270 C 1038.76 3.59871 -0.128366 0
M  V30 11271 C 1038.62 4.22737 -1.53667 0
M  V30 11272 C 1039.94 4.36702 0.545834 0
M  V30 11273 H 1037.05 0.735161 -0.0520293 0
M  V30 11274 H 1039.7 1.7185 -0.810411 0
M  V30 11275 H 1037.85 3.85963 0.443263 0
M  V30 11276 H 1039.52 4.07744 -2.15737 0
M  V30 11277 H 1037.76 3.80142 -2.08985 0
M  V30 11278 H 1038.43 5.31757 -1.48116 0
M  V30 11279 H 1040.91 4.16057 0.0596879 0
M  V30 11280 H 1039.78 5.46407 0.522557 0
M  V30 11281 H 1040.05 4.11483 1.6166 0
M  V30 11282 N 1039.1 0.374177 1.53094 0
M  V30 11283 C 1040.35 -0.213981 2.00562 0
M  V30 11284 C 1040.67 -1.4916 1.26533 0
M  V30 11285 O 1041.87 -2.15889 1.64634 0
M  V30 11286 C 1040.33 -0.431876 3.57299 0
M  V30 11287 C 1039.94 0.831615 4.40214 0
M  V30 11288 C 1041.68 -0.977222 4.13099 0
M  V30 11289 C 1039.59 0.582831 5.88521 0
M  V30 11290 H 1038.52 -0.0837386 0.749336 0
M  V30 11291 H 1041.17 0.494245 1.76719 0
M  V30 11292 H 1039.55 -1.20158 3.7733 0
M  V30 11293 H 1040.72 1.60477 4.31953 0
M  V30 11294 H 1039.04 1.30081 3.9556 0
M  V30 11295 H 1041.64 -1.17881 5.21544 0
M  V30 11296 H 1041.98 -1.94189 3.68234 0
M  V30 11297 H 1042.51 -0.267473 3.969 0
M  V30 11298 H 1039.25 1.51807 6.37679 0
M  V30 11299 H 1038.77 -0.151666 5.99608 0
M  V30 11300 H 1040.45 0.211604 6.46654 0
M  V30 11301 N 1040.58 -1.57259 0.103575 0
M  V30 11302 C 1041.83 -1.93832 -0.55786 0
M  V30 11303 C 1042.14 -0.988087 -1.68808 0
M  V30 11304 O 1043.35 -1.24786 -2.41124 0
M  V30 11305 C 1041.81 -3.44433 -1.04373 0
M  V30 11306 C 1041.41 -4.47963 0.0571971 0
M  V30 11307 C 1043.16 -3.89953 -1.67742 0
M  V30 11308 C 1041.07 -5.89727 -0.444505 0
M  V30 11309 H 1040 -0.723536 -0.212161 0
M  V30 11310 H 1042.65 -1.82606 0.180944 0
M  V30 11311 H 1041.03 -3.50841 -1.83648 0
M  V30 11312 H 1042.2 -4.53209 0.83298 0
M  V30 11313 H 1040.52 -4.12104 0.596588 0
M  V30 11314 H 1043.11 -4.93272 -2.06365 0
M  V30 11315 H 1043.46 -3.2907 -2.54988 0
M  V30 11316 H 1043.99 -3.86281 -0.950342 0
M  V30 11317 H 1040.73 -6.5433 0.391543 0
M  V30 11318 H 1040.25 -5.87935 -1.18711 0
M  V30 11319 H 1041.93 -6.40558 -0.910739 0
M  V30 11320 N 1042.06 0.170153 -1.56679 0
M  V30 11321 C 1042.99 1.21285 -1.9953 0
M  V30 11322 C 1043.97 1.46104 -0.871071 0
M  V30 11323 O 1045.16 1.57419 -1.13724 0
M  V30 11324 C 1042.29 2.5515 -2.35618 0
M  V30 11325 C 1041.24 2.44898 -3.51011 0
M  V30 11326 C 1040.57 3.83263 -3.72845 0
M  V30 11327 C 1041.87 1.95271 -4.84424 0
M  V30 11328 H 1043.56 0.856646 -2.86883 0
M  V30 11329 H 1041.11 0.410634 -1.38021 0
M  V30 11330 H 1043.06 3.28299 -2.64193 0
M  V30 11331 H 1041.78 2.92561 -1.45175 0
M  V30 11332 H 1040.44 1.74203 -3.22566 0
M  V30 11333 H 1040.09 4.18069 -2.79691 0
M  V30 11334 H 1039.79 3.77272 -4.50488 0
M  V30 11335 H 1041.31 4.57996 -4.03822 0
M  V30 11336 H 1042.73 2.58195 -5.11867 0
M  V30 11337 H 1041.13 2.00225 -5.65712 0
M  V30 11338 H 1042.2 0.90709 -4.7634 0
M  V30 11339 N 1043.54 1.5137 0.438746 0
M  V30 11340 C 1044.77 1.67774 1.21077 0
M  V30 11341 C 1045.18 0.374489 1.85049 0
M  V30 11342 O 1044.54 -0.646867 1.70651 0
M  V30 11343 C 1044.59 2.79238 2.29584 0
M  V30 11344 O 1044.31 4.04513 1.68228 0
M  V30 11345 C 1045.81 3.06898 3.19888 0
M  V30 11346 H 1043.03 0.563054 0.364981 0
M  V30 11347 H 1045.58 1.97777 0.520035 0
M  V30 11348 H 1043.73 2.51837 2.94375 0
M  V30 11349 H 1044.14 4.66405 2.3993 0
M  V30 11350 H 1045.62 3.88476 3.92162 0
M  V30 11351 H 1046.1 2.19249 3.80561 0
M  V30 11352 H 1046.7 3.35952 2.60799 0
M  V30 11353 N 1045.02 -0.694098 1.41492 0
M  V30 11354 C 1046.24 -1.48789 1.44488 0
M  V30 11355 C 1046.67 -1.88028 0.0521588 0
M  V30 11356 O 1046.02 -1.54727 -0.944952 0
M  V30 11357 C 1046.07 -2.72586 2.3607 0
M  V30 11358 O 1045.18 -3.70128 1.81876 0
M  V30 11359 H 1044.52 -0.447758 0.490315 0
M  V30 11360 H 1047.05 -0.853036 1.85969 0
M  V30 11361 H 1047.06 -3.20877 2.51995 0
M  V30 11362 H 1045.73 -2.43363 3.37264 0
M  V30 11363 H 1044.31 -3.29069 1.75408 0
M  V30 11364 N 1046.49 -1.27344 -0.928501 0
M  V30 11365 C 1047.44 -1.09835 -2.05034 0
M  V30 11366 C 1048.44 -0.0216643 -1.69386 0
M  V30 11367 O 1049.64 -0.179323 -1.79105 0
M  V30 11368 H 1046.02 -0.338416 -0.671549 0
M  V30 11369 H 1047.99 -2.04879 -2.1695 0
M  V30 11370 C 1046.74 -0.761462 -3.3926 0
M  V30 11371 H 1046.06 -1.58186 -3.67175 0
M  V30 11372 H 1047.5 -0.678812 -4.18531 0
M  V30 11373 C 1045.96 0.534118 -3.32639 0
M  V30 11374 O 1046.49 1.56877 -3.69801 0
M  V30 11375 N 1044.7 0.529437 -2.85736 0
M  V30 11376 H 1044.24 -0.312954 -2.55692 0
M  V30 11377 H 1044.2 1.39637 -2.81689 0
M  V30 11378 N 1047.97 1.13488 -1.09353 0
M  V30 11379 C 1048.9 2.20988 -0.75409 0
M  V30 11380 C 1049.88 1.67977 0.267901 0
M  V30 11381 O 1051.07 1.93722 0.136128 0
M  V30 11382 C 1048.2 3.46869 -0.173042 0
M  V30 11383 C 1047.15 4.12965 -1.12446 0
M  V30 11384 C 1046.48 5.33163 -0.405157 0
M  V30 11385 C 1047.78 4.60388 -2.46658 0
M  V30 11386 H 1049.47 2.49639 -1.6529 0
M  V30 11387 H 1047.02 1.19987 -0.796182 0
M  V30 11388 H 1048.97 4.21331 0.0764988 0
M  V30 11389 H 1047.7 3.17611 0.760956 0
M  V30 11390 H 1046.35 3.40469 -1.35927 0
M  V30 11391 H 1046 5.00169 0.532955 0
M  V30 11392 H 1045.7 5.78332 -1.03952 0
M  V30 11393 H 1047.23 6.1038 -0.163899 0
M  V30 11394 H 1048.64 5.26276 -2.27389 0
M  V30 11395 H 1047.04 5.16294 -3.05876 0
M  V30 11396 H 1048.11 3.74949 -3.07476 0
M  V30 11397 N 1049.45 0.880621 1.30701 0
M  V30 11398 C 1050.7 0.495894 1.95922 0
M  V30 11399 C 1051.02 -0.957214 1.69889 0
M  V30 11400 O 1050.29 -1.67245 1.0201 0
M  V30 11401 H 1048.87 0.180394 0.724891 0
M  V30 11402 H 1051.53 1.12274 1.59313 0
M  V30 11403 H 1050.63 0.662508 3.04987 0
M  V30 11404 N 1050.93 -1.4397 0.641131 0
M  V30 11405 C 1052.15 -2.06818 0.155318 0
M  V30 11406 C 1052.58 -1.47665 -1.16519 0
M  V30 11407 O 1051.94 -0.58192 -1.71707 0
M  V30 11408 C 1051.99 -3.60542 0.0647537 0
M  V30 11409 O 1051.09 -4.00674 -0.976447 0
M  V30 11410 H 1050.43 -0.657962 0.0893404 0
M  V30 11411 H 1052.96 -1.84678 0.88064 0
M  V30 11412 H 1052.97 -4.07816 -0.122552 0
M  V30 11413 H 1051.65 -4.02975 1.02878 0
M  V30 11414 H 1050.22 -3.65013 -0.762905 0
M  V30 11415 N 1052.41 -0.382291 -1.52893 0
M  V30 11416 C 1053.82 0.0932841 -1.86467 0
M  V30 11417 C 1054.17 1.4675 -1.30226 0
M  V30 11418 O 1053.29 2.07001 -0.63084 0
M  V30 11419 C 1053.89 0.176048 -3.38342 0
M  V30 11420 C 1052.45 0.595904 -3.71653 0
M  V30 11421 C 1051.6 -0.246511 -2.76202 0
M  V30 11422 H 1054.55 -0.600443 -1.46903 0
M  V30 11423 H 1054.57 0.996512 -3.67219 0
M  V30 11424 H 1054.08 -0.824264 -3.79246 0
M  V30 11425 H 1052.18 1.60384 -3.36315 0
M  V30 11426 H 1052.29 0.358919 -4.77754 0
M  V30 11427 H 1050.66 0.287162 -2.53076 0
M  V30 11428 H 1051.44 -1.24467 -3.19942 0
M  V30 11429 N 1053.89 1.57202 -0.111913 0
M  V30 11430 C 1054.82 2.17957 0.837683 0
M  V30 11431 C 1055.8 1.1176 1.28233 0
M  V30 11432 O 1056.98 1.39967 1.34621 0
M  V30 11433 C 1054.11 2.77333 2.09054 0
M  V30 11434 C 1053.07 3.8905 1.78393 0
M  V30 11435 C 1052.39 4.35203 3.10649 0
M  V30 11436 C 1053.69 5.11477 1.05775 0
M  V30 11437 H 1055.39 2.9756 0.331441 0
M  V30 11438 H 1052.93 1.43131 0.157979 0
M  V30 11439 H 1054.88 3.18492 2.75936 0
M  V30 11440 H 1053.61 1.95009 2.6199 0
M  V30 11441 H 1052.27 3.48456 1.13903 0
M  V30 11442 H 1051.92 3.49747 3.61506 0
M  V30 11443 H 1051.62 5.10534 2.9091 0
M  V30 11444 H 1053.14 4.79007 3.78661 0
M  V30 11445 H 1054.55 5.497 1.62798 0
M  V30 11446 H 1052.95 5.92346 0.961573 0
M  V30 11447 H 1054.02 4.84881 0.043297 0
M  V30 11448 N 1055.36 -0.161842 1.56767 0
M  V30 11449 C 1056.61 -0.875278 1.81719 0
M  V30 11450 C 1056.93 -1.82998 0.690739 0
M  V30 11451 O 1058.13 -2.58648 0.82545 0
M  V30 11452 C 1056.59 -1.60703 3.22029 0
M  V30 11453 C 1056.2 -0.695486 4.42569 0
M  V30 11454 C 1057.94 -2.30813 3.56266 0
M  V30 11455 C 1055.85 -1.42801 5.73901 0
M  V30 11456 H 1054.78 -0.330591 0.677662 0
M  V30 11457 H 1057.43 -0.128112 1.83052 0
M  V30 11458 H 1055.81 -2.39929 3.1504 0
M  V30 11459 H 1056.98 0.0604882 4.6076 0
M  V30 11460 H 1055.3 -0.10356 4.16271 0
M  V30 11461 H 1057.9 -2.86229 4.51638 0
M  V30 11462 H 1058.24 -3.06603 2.81604 0
M  V30 11463 H 1058.77 -1.5852 3.64851 0
M  V30 11464 H 1055.51 -0.712253 6.51619 0
M  V30 11465 H 1055.03 -2.15707 5.5967 0
M  V30 11466 H 1056.71 -1.97295 6.16185 0
M  V30 11467 N 1056.84 -1.516 -0.430713 0
M  V30 11468 C 1057.77 -1.76342 -1.53054 0
M  V30 11469 C 1058.75 -0.61349 -1.58652 0
M  V30 11470 O 1059.94 -0.856888 -1.74273 0
M  V30 11471 C 1057.07 -1.8945 -2.91077 0
M  V30 11472 C 1056.02 -3.04928 -3.00339 0
M  V30 11473 C 1055.35 -3.03228 -4.40405 0
M  V30 11474 C 1056.65 -4.44777 -2.73808 0
M  V30 11475 H 1058.34 -2.68435 -1.326 0
M  V30 11476 H 1055.89 -1.29171 -0.636466 0
M  V30 11477 H 1057.84 -2.05343 -3.67984 0
M  V30 11478 H 1056.56 -0.940114 -3.12777 0
M  V30 11479 H 1055.22 -2.88751 -2.25872 0
M  V30 11480 H 1054.87 -2.05553 -4.59083 0
M  V30 11481 H 1054.57 -3.80776 -4.47531 0
M  V30 11482 H 1056.1 -3.21222 -5.19277 0
M  V30 11483 H 1057.51 -4.6127 -3.40445 0
M  V30 11484 H 1055.91 -5.2408 -2.92335 0
M  V30 11485 H 1056.98 -4.54358 -1.69372 0
M  V30 11486 N 1058.32 0.686584 -1.41858 0
M  V30 11487 C 1059.23 1.83002 -1.46791 0
M  V30 11488 C 1060.25 1.70284 -0.357675 0
M  V30 11489 O 1061.42 1.92042 -0.606781 0
M  V30 11490 C 1058.49 3.19056 -1.35661 0
M  V30 11491 C 1057.55 3.43817 -2.57077 0
M  V30 11492 C 1056.78 4.7338 -2.46469 0
M  V30 11493 O 1057 5.50483 -1.49413 0
M  V30 11494 O 1055.94 4.99124 -3.36391 0
M  V30 11495 H 1059.76 1.81797 -2.43277 0
M  V30 11496 H 1057.35 0.840812 -1.23494 0
M  V30 11497 H 1059.23 4.00267 -1.31773 0
M  V30 11498 H 1057.91 3.20925 -0.422951 0
M  V30 11499 H 1056.81 2.625 -2.66541 0
M  V30 11500 H 1058.15 3.4677 -3.49302 0
M  V30 11501 N 1059.8 1.27835 0.921735 0
M  V30 11502 C 1061.05 1.14296 1.66676 0
M  V30 11503 C 1061.37 -0.310493 1.92512 0
M  V30 11504 O 1060.64 -1.21637 1.53562 0
M  V30 11505 H 1059.22 0.419994 0.617749 0
M  V30 11506 H 1061.88 1.60449 1.10644 0
M  V30 11507 H 1060.97 1.67654 2.63246 0
M  V30 11508 N 1061.28 -1.12907 1.09954 0
M  V30 11509 C 1062.21 -2.20585 0.765799 0
M  V30 11510 C 1063.19 -1.68117 -0.258989 0
M  V30 11511 O 1064.37 -1.93792 -0.125853 0
M  V30 11512 C 1061.5 -3.46772 0.191435 0
M  V30 11513 C 1060.46 -4.12363 1.14635 0
M  V30 11514 C 1059.78 -5.3294 0.433426 0
M  V30 11515 C 1061.08 -4.59073 2.49096 0
M  V30 11516 H 1062.78 -2.48759 1.66612 0
M  V30 11517 H 1060.32 -1.19563 0.802534 0
M  V30 11518 H 1062.27 -4.21365 -0.0541535 0
M  V30 11519 H 1061 -3.18011 -0.744101 0
M  V30 11520 H 1059.66 -3.39744 1.37731 0
M  V30 11521 H 1059.31 -5.00444 -0.506422 0
M  V30 11522 H 1059.01 -5.77772 1.07018 0
M  V30 11523 H 1060.53 -6.10284 0.196267 0
M  V30 11524 H 1061.94 -5.25063 2.30177 0
M  V30 11525 H 1060.34 -5.14665 3.0861 0
M  V30 11526 H 1061.41 -3.73313 3.0946 0
M  V30 11527 N 1062.75 -0.88754 -1.30232 0
M  V30 11528 C 1063.69 -0.313488 -2.27046 0
M  V30 11529 C 1064.7 0.533383 -1.53814 0
M  V30 11530 O 1065.89 0.352516 -1.74984 0
M  V30 11531 C 1062.99 0.572674 -3.34026 0
M  V30 11532 C 1062.16 -0.245712 -4.36709 0
M  V30 11533 C 1061.22 0.57135 -5.23089 0
M  V30 11534 O 1060.25 -0.00685948 -5.692 0
M  V30 11535 N 1061.45 1.87994 -5.49216 0
M  V30 11536 H 1064.21 -1.14553 -2.76943 0
M  V30 11537 H 1061.77 -0.750785 -1.43439 0
M  V30 11538 H 1063.77 1.12539 -3.88738 0
M  V30 11539 H 1062.34 1.3054 -2.84039 0
M  V30 11540 H 1061.56 -0.979869 -3.81827 0
M  V30 11541 H 1062.84 -0.806618 -5.02366 0
M  V30 11542 H 1062.24 2.3726 -5.13541 0
M  V30 11543 H 1060.8 2.38005 -6.06792 0
M  V30 11544 N 1064.23 1.43628 -0.648757 0
M  V30 11545 C 1065.18 2.30755 0.0455536 0
M  V30 11546 C 1066.15 1.44495 0.819168 0
M  V30 11547 O 1067.33 1.73372 0.79667 0
M  V30 11548 C 1064.47 3.30017 1.00908 0
M  V30 11549 C 1063.59 4.31376 0.232039 0
M  V30 11550 C 1062.72 5.17723 1.18897 0
M  V30 11551 C 1061.76 6.10778 0.402096 0
M  V30 11552 N 1060.9 6.89763 1.31038 0
M  V30 11553 H 1065.74 2.89581 -0.70332 0
M  V30 11554 H 1063.28 1.42662 -0.3586 0
M  V30 11555 H 1065.23 3.86072 1.58128 0
M  V30 11556 H 1063.86 2.72851 1.72488 0
M  V30 11557 H 1062.92 3.77652 -0.456373 0
M  V30 11558 H 1064.23 4.9735 -0.380023 0
M  V30 11559 H 1063.38 5.78381 1.83194 0
M  V30 11560 H 1062.12 4.51864 1.83494 0
M  V30 11561 H 1061.13 5.49212 -0.254255 0
M  V30 11562 H 1062.35 6.78678 -0.239411 0
M  V30 11563 H 1060.3 6.26557 1.94324 0
M  V30 11564 H 1060.21 7.52243 0.752774 0
M  V30 11565 H 1061.48 7.54931 1.94164 0
M  V30 11566 N 1065.71 0.390394 1.52688 0
M  V30 11567 C 1066.96 -0.191067 2.01195 0
M  V30 11568 C 1067.28 -1.47229 1.27862 0
M  V30 11569 O 1066.55 -1.91793 0.399007 0
M  V30 11570 H 1065.13 -0.073596 0.743366 0
M  V30 11571 H 1067.79 0.522334 1.8777 0
M  V30 11572 H 1066.89 -0.40051 3.0952 0
M  V30 11573 N 1067.19 -1.57141 0.120249 0
M  V30 11574 C 1068.43 -1.9632 -0.531989 0
M  V30 11575 C 1068.79 -1.00265 -1.64209 0
M  V30 11576 O 1068.08 -0.0328969 -1.91572 0
M  V30 11577 C 1068.28 -3.39745 -1.10941 0
M  V30 11578 C 1068.11 -4.49664 -0.0567772 0
M  V30 11579 C 1066.88 -5.03903 0.375466 0
M  V30 11580 C 1069.07 -5.09169 0.724667 0
M  V30 11581 N 1067.06 -5.974 1.41374 0
M  V30 11582 C 1068.43 -5.98621 1.61411 0
M  V30 11583 C 1070.48 -4.91825 0.775417 0
M  V30 11584 C 1069.18 -6.72587 2.54988 0
M  V30 11585 C 1071.21 -5.66473 1.69891 0
M  V30 11586 C 1070.57 -6.55611 2.57592 0
M  V30 11587 H 1066.67 -0.764554 -0.164259 0
M  V30 11588 H 1069.26 -1.93579 0.208656 0
M  V30 11589 H 1067.43 -3.43131 -1.81977 0
M  V30 11590 H 1069.16 -3.66045 -1.72607 0
M  V30 11591 H 1065.91 -4.73597 -0.0171723 0
M  V30 11592 H 1066.34 -6.48852 1.93184 0
M  V30 11593 H 1070.98 -4.22653 0.111497 0
M  V30 11594 H 1068.7 -7.41005 3.22393 0
M  V30 11595 H 1072.28 -5.55057 1.74363 0
M  V30 11596 H 1071.16 -7.12361 3.27889 0
M  V30 11597 N 1068.67 0.153526 -1.5685 0
M  V30 11598 C 1070.08 0.714247 -1.72498 0
M  V30 11599 C 1070.43 1.81968 -0.733621 0
M  V30 11600 O 1069.55 2.16163 0.10118 0
M  V30 11601 C 1070.15 1.30238 -3.12767 0
M  V30 11602 C 1068.71 1.80974 -3.30038 0
M  V30 11603 C 1067.85 0.695638 -2.68433 0
M  V30 11604 H 1070.81 -0.0720733 -1.58536 0
M  V30 11605 H 1070.83 2.17217 -3.12405 0
M  V30 11606 H 1070.34 0.497605 -3.84897 0
M  V30 11607 H 1068.44 2.64039 -2.62895 0
M  V30 11608 H 1068.55 1.94294 -4.37934 0
M  V30 11609 H 1066.92 1.12061 -2.28723 0
M  V30 11610 H 1067.7 -0.0975885 -3.43161 0
M  V30 11611 N 1070.14 1.51827 0.422667 0
M  V30 11612 C 1071.37 1.68803 1.19117 0
M  V30 11613 C 1071.78 0.391228 1.85111 0
M  V30 11614 O 1071.13 -0.64148 1.72136 0
M  V30 11615 C 1071.19 2.75767 2.30636 0
M  V30 11616 C 1070.85 4.17929 1.8489 0
M  V30 11617 C 1071.85 5.02223 1.34416 0
M  V30 11618 C 1069.53 4.641 1.92136 0
M  V30 11619 C 1071.53 6.30756 0.917925 0
M  V30 11620 C 1069.21 5.92626 1.49123 0
M  V30 11621 C 1070.21 6.75782 0.990352 0
M  V30 11622 O 1069.9 8.01902 0.566386 0
M  V30 11623 H 1069.63 0.569303 0.364514 0
M  V30 11624 H 1072.19 1.9909 0.505208 0
M  V30 11625 H 1070.42 2.40827 3.02555 0
M  V30 11626 H 1072.11 2.81476 2.92448 0
M  V30 11627 H 1072.87 4.67749 1.28202 0
M  V30 11628 H 1068.75 3.99488 2.30066 0
M  V30 11629 H 1072.29 6.95612 0.52628 0
M  V30 11630 H 1068.19 6.26611 1.55012 0
M  V30 11631 H 1068.96 8.15579 0.690918 0
M  V30 11632 N 1071.62 -0.679052 1.4222 0
M  V30 11633 C 1072.53 -1.82221 1.47759 0
M  V30 11634 C 1073.55 -1.70092 0.3667 0
M  V30 11635 O 1074.72 -1.91718 0.616957 0
M  V30 11636 C 1071.79 -3.18332 1.37351 0
M  V30 11637 C 1070.85 -3.42449 2.58896 0
M  V30 11638 C 1070.08 -4.72067 2.48976 0
M  V30 11639 O 1070.31 -5.49683 1.5233 0
M  V30 11640 O 1069.24 -4.97333 3.39033 0
M  V30 11641 H 1073.07 -1.80504 2.44238 0
M  V30 11642 H 1070.65 -0.834251 1.23938 0
M  V30 11643 H 1072.53 -3.99563 1.33893 0
M  V30 11644 H 1071.21 -3.20696 0.439965 0
M  V30 11645 H 1070.12 -2.61083 2.6793 0
M  V30 11646 H 1071.45 -3.44912 3.51136 0
M  V30 11647 N 1073.1 -1.28322 -0.914942 0
M  V30 11648 C 1074.52 -1.06003 -1.19313 0
M  V30 11649 C 1074.72 0.198366 -2.00521 0
M  V30 11650 O 1073.77 0.900364 -2.35902 0
M  V30 11651 C 1075.09 -2.30684 -1.92887 0
M  V30 11652 C 1076.63 -2.35851 -2.05775 0
M  V30 11653 C 1077.11 -3.60295 -2.82757 0
M  V30 11654 N 1078.6 -3.60928 -2.9032 0
M  V30 11655 C 1079.33 -4.53894 -3.50383 0
M  V30 11656 N 1078.83 -5.57178 -4.11734 0
M  V30 11657 N 1080.62 -4.41492 -3.4791 0
M  V30 11658 H 1072.77 -2.09104 -0.372735 0
M  V30 11659 H 1075.04 -0.920285 -0.227552 0
M  V30 11660 H 1074.74 -3.22355 -1.40643 0
M  V30 11661 H 1074.62 -2.37003 -2.93444 0
M  V30 11662 H 1077 -1.44678 -2.57201 0
M  V30 11663 H 1077.09 -2.33526 -1.04399 0
M  V30 11664 H 1076.73 -4.51811 -2.32011 0
M  V30 11665 H 1076.66 -3.59873 -3.84446 0
M  V30 11666 H 1079.15 -2.8624 -2.46729 0
M  V30 11667 H 1079.46 -6.24261 -4.55541 0
M  V30 11668 H 1077.81 -5.61005 -4.10242 0
M  V30 11669 H 1081 -3.60005 -2.99189 0
M  V30 11670 H 1081.17 -5.14132 -3.94427 0
M  V30 11671 N 1074.58 1.12322 -1.10551 0
M  V30 11672 C 1075.83 1.83216 -0.84349 0
M  V30 11673 C 1076.14 1.85075 0.632992 0
M  V30 11674 O 1077.35 2.51976 1.01095 0
M  V30 11675 C 1075.8 3.28994 -1.45915 0
M  V30 11676 C 1075.41 3.3549 -2.96901 0
M  V30 11677 C 1077.15 4.0485 -1.27657 0
M  V30 11678 C 1075.06 4.7561 -3.51496 0
M  V30 11679 H 1073.99 0.686471 -0.311887 0
M  V30 11680 H 1076.64 1.26463 -1.32964 0
M  V30 11681 H 1075.02 3.85621 -0.900678 0
M  V30 11682 H 1076.2 2.88795 -3.59074 0
M  V30 11683 H 1074.51 2.73107 -3.14327 0
M  V30 11684 H 1077.11 5.08316 -1.65889 0
M  V30 11685 H 1077.45 4.15727 -0.218258 0
M  V30 11686 H 1077.99 3.54584 -1.80318 0
M  V30 11687 H 1074.73 4.69927 -4.56999 0
M  V30 11688 H 1074.25 5.22753 -2.94091 0
M  V30 11689 H 1075.92 5.44552 -3.49388 0
M  V30 11690 N 1076.06 0.894434 1.2976 0
M  V30 11691 C 1077.47 0.589778 1.48303 0
M  V30 11692 C 1077.67 -0.870085 1.81746 0
M  V30 11693 O 1076.73 -1.65065 1.91076 0
M  V30 11694 C 1078.04 1.51107 2.59975 0
M  V30 11695 C 1079.59 1.51571 2.73853 0
M  V30 11696 C 1080.06 2.42316 3.88648 0
M  V30 11697 N 1081.56 2.40333 3.95973 0
M  V30 11698 C 1082.29 3.07254 4.84131 0
M  V30 11699 N 1081.79 3.83435 5.77018 0
M  V30 11700 N 1083.58 2.96438 4.77578 0
M  V30 11701 H 1075.73 1.83871 1.06327 0
M  V30 11702 H 1077.99 0.78758 0.527657 0
M  V30 11703 H 1077.7 2.55097 2.42112 0
M  V30 11704 H 1077.57 1.22767 3.56662 0
M  V30 11705 H 1079.96 0.483277 2.91116 0
M  V30 11706 H 1080.04 1.83946 1.77757 0
M  V30 11707 H 1079.69 3.4565 3.72141 0
M  V30 11708 H 1079.62 2.07252 4.84101 0
M  V30 11709 H 1082.11 1.84979 3.29532 0
M  V30 11710 H 1082.42 4.31565 6.4107 0
M  V30 11711 H 1080.76 3.87542 5.7692 0
M  V30 11712 H 1083.96 2.36442 4.03996 0
M  V30 11713 H 1084.13 3.48867 5.46073 0
M  V30 11714 N 1077.53 -1.43282 0.656365 0
M  V30 11715 C 1078.81 -1.9534 0.100816 0
M  V30 11716 C 1079.19 -1.59755 -1.37992 0
M  V30 11717 O 1078.54 -0.884264 -2.10697 0
M  V30 11718 C 1078.75 -3.47237 0.35038 0
M  V30 11719 C 1080.1 -4.23822 0.257001 0
M  V30 11720 O 1081.12 -3.55073 0.283111 0
M  V30 11721 O 1079.98 -5.46192 0.183397 0
M  V30 11722 H 1077.07 -0.826963 -0.00780287 0
M  V30 11723 H 1079.62 -1.53205 0.72982 0
M  V30 11724 H 1078.39 -3.66276 1.37685 0
M  V30 11725 H 1078.02 -3.96378 -0.311539 0
M  V30 11726 N 1079.01 -0.398486 -1.52479 0
M  V30 11727 C 1079.92 0.439328 -2.3045 0
M  V30 11728 C 1080.94 1.06322 -1.37738 0
M  V30 11729 O 1082.12 1.06704 -1.7081 0
M  V30 11730 C 1079.18 1.54655 -3.10294 0
M  V30 11731 C 1078.24 0.946824 -4.18729 0
M  V30 11732 C 1077.47 2.00129 -4.94757 0
M  V30 11733 O 1077.7 3.2178 -4.70971 0
M  V30 11734 O 1076.63 1.61345 -5.79872 0
M  V30 11735 H 1080.46 -0.196118 -3.03066 0
M  V30 11736 H 1078.04 -0.161961 -1.4852 0
M  V30 11737 H 1079.92 2.18958 -3.60049 0
M  V30 11738 H 1078.6 2.1668 -2.40482 0
M  V30 11739 H 1077.51 0.266802 -3.73147 0
M  V30 11740 H 1078.84 0.370664 -4.90802 0
M  V30 11741 N 1080.49 1.57075 -0.12858 0
M  V30 11742 C 1081.74 1.9581 0.527868 0
M  V30 11743 C 1082.07 1.01253 1.65715 0
M  V30 11744 O 1081.35 0.0514853 1.94432 0
M  V30 11745 C 1081.63 3.44406 1.05151 0
M  V30 11746 C 1081.48 4.49737 -0.0750113 0
M  V30 11747 C 1082.8 3.95069 1.9393 0
M  V30 11748 H 1079.92 0.711978 0.19041 0
M  V30 11749 H 1082.56 1.88879 -0.206081 0
M  V30 11750 H 1080.71 3.50443 1.67697 0
M  V30 11751 H 1082.38 4.55793 -0.710685 0
M  V30 11752 H 1080.63 4.27497 -0.736809 0
M  V30 11753 H 1081.3 5.50996 0.332779 0
M  V30 11754 H 1083.77 3.91395 1.41241 0
M  V30 11755 H 1082.65 4.99542 2.27484 0
M  V30 11756 H 1082.91 3.36329 2.86941 0
M  V30 11757 N 1081.97 -0.145205 1.5693 0
M  V30 11758 C 1083.22 -0.857516 1.83447 0
M  V30 11759 C 1083.54 -1.81088 0.709739 0
M  V30 11760 O 1082.8 -1.9337 -0.301097 0
M  V30 11761 C 1083.1 -1.66391 3.16305 0
M  V30 11762 C 1082.76 -0.857171 4.42678 0
M  V30 11763 C 1081.43 -0.634611 4.76997 0
M  V30 11764 C 1083.78 -0.293105 5.20375 0
M  V30 11765 C 1081.11 0.162693 5.86474 0
M  V30 11766 C 1083.46 0.491248 6.3069 0
M  V30 11767 C 1082.12 0.724368 6.63558 0
M  V30 11768 H 1081.39 -0.313787 0.671281 0
M  V30 11769 H 1084.04 -0.121074 1.91117 0
M  V30 11770 H 1082.34 -2.47051 3.04094 0
M  V30 11771 H 1084.04 -2.21855 3.34038 0
M  V30 11772 H 1080.63 -1.0407 4.15773 0
M  V30 11773 H 1084.82 -0.452326 4.94234 0
M  V30 11774 H 1080.07 0.352788 6.10381 0
M  V30 11775 H 1084.25 0.935449 6.90089 0
M  V30 11776 H 1081.87 1.34403 7.48224 0
M  V30 11777 N 1083.45 -1.52049 -0.414609 0
M  V30 11778 C 1084.39 -1.74998 -1.5048 0
M  V30 11779 C 1085.36 -0.592251 -1.55182 0
M  V30 11780 O 1086.55 -0.829203 -1.7184 0
M  V30 11781 C 1083.69 -1.90157 -2.87983 0
M  V30 11782 C 1082.8 -3.17789 -2.92633 0
M  V30 11783 C 1081.94 -3.23411 -4.21401 0
M  V30 11784 C 1080.98 -4.45267 -4.20004 0
M  V30 11785 N 1080.11 -4.48312 -5.40334 0
M  V30 11786 H 1084.95 -2.68046 -1.30212 0
M  V30 11787 H 1082.49 -1.32824 -0.632154 0
M  V30 11788 H 1084.45 -1.96929 -3.67797 0
M  V30 11789 H 1083.08 -1.00496 -3.06758 0
M  V30 11790 H 1082.13 -3.20216 -2.05343 0
M  V30 11791 H 1083.44 -4.07634 -2.87465 0
M  V30 11792 H 1082.6 -3.29224 -5.09604 0
M  V30 11793 H 1081.34 -2.31495 -4.29257 0
M  V30 11794 H 1080.34 -4.39606 -3.30192 0
M  V30 11795 H 1081.57 -5.38472 -4.13793 0
M  V30 11796 H 1079.51 -3.59277 -5.48868 0
M  V30 11797 H 1079.43 -5.31994 -5.37139 0
M  V30 11798 H 1080.7 -4.58347 -6.30506 0
M  V30 11799 N 1084.93 0.6715 -1.42579 0
M  V30 11800 C 1086.17 1.43366 -1.43436 0
M  V30 11801 C 1086.5 1.94131 -0.0517339 0
M  V30 11802 O 1085.78 1.71121 0.924548 0
M  V30 11803 C 1086.06 2.62832 -2.46154 0
M  V30 11804 C 1085.92 2.17677 -3.9362 0
M  V30 11805 C 1087.23 3.65049 -2.4582 0
M  V30 11806 H 1084.35 0.519967 -0.522306 0
M  V30 11807 H 1087 0.762849 -1.74013 0
M  V30 11808 H 1085.15 3.20062 -2.2021 0
M  V30 11809 H 1086.82 1.65588 -4.30556 0
M  V30 11810 H 1085.06 1.49219 -4.07328 0
M  V30 11811 H 1085.73 3.03503 -4.61075 0
M  V30 11812 H 1088.21 3.17541 -2.68899 0
M  V30 11813 H 1087.08 4.46213 -3.19664 0
M  V30 11814 H 1087.34 4.16401 -1.48536 0
M  V30 11815 N 1086.4 1.28806 0.908124 0
M  V30 11816 C 1087.33 1.15758 2.02787 0
M  V30 11817 C 1088.31 0.053911 1.70015 0
M  V30 11818 O 1089.5 0.231901 1.9281 0
M  V30 11819 C 1086.63 0.824526 3.37371 0
M  V30 11820 C 1085.58 1.88359 3.84324 0
M  V30 11821 C 1084.91 1.40404 5.15937 0
M  V30 11822 C 1086.21 3.29108 4.05568 0
M  V30 11823 H 1087.9 2.09431 2.13961 0
M  V30 11824 H 1085.45 1.00831 1.02806 0
M  V30 11825 H 1087.4 0.71999 4.15204 0
M  V30 11826 H 1086.13 -0.147902 3.26265 0
M  V30 11827 H 1084.79 1.97736 3.087 0
M  V30 11828 H 1084.43 0.420515 5.01239 0
M  V30 11829 H 1084.13 2.11224 5.48323 0
M  V30 11830 H 1085.66 1.31283 5.9632 0
M  V30 11831 H 1087.07 3.2262 4.73909 0
M  V30 11832 H 1085.47 3.97812 4.49294 0
M  V30 11833 H 1086.54 3.72709 3.10187 0
M  V30 11834 N 1087.88 -1.11734 1.11145 0
M  V30 11835 C 1088.81 -2.17438 0.724804 0
M  V30 11836 C 1089.83 -1.6099 -0.242069 0
M  V30 11837 O 1091.02 -1.78482 -0.0254259 0
M  V30 11838 C 1088.12 -3.38863 0.050004 0
M  V30 11839 C 1087.29 -4.24785 1.04292 0
M  V30 11840 C 1086.35 -5.24691 0.398243 0
M  V30 11841 O 1085.37 -5.59408 1.05125 0
M  V30 11842 N 1086.58 -5.74388 -0.840184 0
M  V30 11843 H 1089.34 -2.51219 1.63429 0
M  V30 11844 H 1086.9 -1.27226 1.00125 0
M  V30 11845 H 1088.89 -4.02788 -0.392929 0
M  V30 11846 H 1087.46 -3.0317 -0.762005 0
M  V30 11847 H 1086.68 -3.57363 1.6639 0
M  V30 11848 H 1087.97 -4.79033 1.71478 0
M  V30 11849 H 1087.37 -5.48359 -1.38994 0
M  V30 11850 H 1085.93 -6.40163 -1.22615 0
M  V30 11851 N 1089.36 -0.901303 -1.29284 0
M  V30 11852 C 1090.29 -0.337552 -2.26701 0
M  V30 11853 C 1091.3 0.517039 -1.54371 0
M  V30 11854 O 1092.49 0.333937 -1.75349 0
M  V30 11855 C 1089.59 0.537214 -3.34615 0
M  V30 11856 C 1088.77 -0.292017 -4.36424 0
M  V30 11857 C 1087.83 0.515837 -5.23666 0
M  V30 11858 O 1086.85 -0.0672303 -5.6916 0
M  V30 11859 N 1088.05 1.82159 -5.51179 0
M  V30 11860 H 1090.82 -1.17484 -2.75713 0
M  V30 11861 H 1088.38 -0.765957 -1.42635 0
M  V30 11862 H 1090.37 1.0841 -3.8991 0
M  V30 11863 H 1088.94 1.2752 -2.85408 0
M  V30 11864 H 1088.16 -1.02031 -3.80767 0
M  V30 11865 H 1089.45 -0.859855 -5.01482 0
M  V30 11866 H 1088.85 2.318 -5.16028 0
M  V30 11867 H 1087.4 2.31556 -6.09282 0
M  V30 11868 N 1090.84 1.42931 -0.663954 0
M  V30 11869 C 1091.79 2.27958 0.0436184 0
M  V30 11870 C 1092.77 1.40493 0.784258 0
M  V30 11871 O 1093.96 1.64035 0.664956 0
M  V30 11872 C 1091.09 3.28357 1.00183 0
M  V30 11873 C 1090.18 4.23308 0.259099 0
M  V30 11874 N 1090.57 5.00502 -0.730182 0
M  V30 11875 C 1088.87 4.43199 0.499061 0
M  V30 11876 C 1089.57 5.69771 -1.17201 0
M  V30 11877 N 1088.54 5.41258 -0.504105 0
M  V30 11878 H 1092.35 2.85061 -0.715348 0
M  V30 11879 H 1089.86 1.54764 -0.492117 0
M  V30 11880 H 1091.86 3.88061 1.52362 0
M  V30 11881 H 1090.52 2.72815 1.76074 0
M  V30 11882 H 1091.53 5.0588 -1.10932 0
M  V30 11883 H 1088.21 3.98713 1.23831 0
M  V30 11884 H 1089.6 6.41718 -1.99117 0
M  V30 11885 N 1092.32 0.406567 1.52266 0
M  V30 11886 C 1093.56 -0.170053 2.01785 0
M  V30 11887 C 1093.89 -1.45361 1.2923 0
M  V30 11888 O 1093.15 -1.91849 0.386342 0
M  V30 11889 C 1093.44 -0.467124 3.54334 0
M  V30 11890 C 1093.11 0.72693 4.45002 0
M  V30 11891 C 1091.77 1.05446 4.69505 0
M  V30 11892 C 1094.12 1.52493 4.98393 0
M  V30 11893 C 1091.45 2.18123 5.44646 0
M  V30 11894 C 1093.8 2.64244 5.74768 0
M  V30 11895 C 1092.47 2.97486 5.97544 0
M  V30 11896 H 1091.74 -0.0622267 0.738383 0
M  V30 11897 H 1094.39 0.54746 1.83508 0
M  V30 11898 H 1092.69 -1.26617 3.70777 0
M  V30 11899 H 1094.39 -0.926194 3.90157 0
M  V30 11900 H 1090.98 0.461666 4.26106 0
M  V30 11901 H 1095.16 1.28512 4.79373 0
M  V30 11902 H 1090.42 2.44228 5.60502 0
M  V30 11903 H 1094.59 3.26468 6.15136 0
M  V30 11904 H 1092.22 3.84913 6.5555 0
M  V30 11905 N 1093.79 -1.57004 0.136909 0
M  V30 11906 C 1095.21 -1.58082 -0.21958 0
M  V30 11907 C 1095.41 -1.15065 -1.65415 0
M  V30 11908 O 1094.47 -0.846284 -2.37896 0
M  V30 11909 C 1095.78 -3.00685 0.0300112 0
M  V30 11910 C 1097.33 -3.12981 -0.0344899 0
M  V30 11911 C 1097.8 -4.57615 0.187639 0
M  V30 11912 N 1099.29 -4.63005 0.134219 0
M  V30 11913 C 1100.03 -5.72712 0.280743 0
M  V30 11914 N 1099.52 -6.91104 0.48443 0
M  V30 11915 N 1101.32 -5.61673 0.219055 0
M  V30 11916 H 1093.47 -1.83262 1.07372 0
M  V30 11917 H 1095.73 -0.847776 0.424241 0
M  V30 11918 H 1095.44 -3.36509 1.02247 0
M  V30 11919 H 1095.31 -3.70762 -0.693918 0
M  V30 11920 H 1097.7 -2.77004 -1.01749 0
M  V30 11921 H 1097.78 -2.45411 0.721608 0
M  V30 11922 H 1097.42 -4.94295 1.16769 0
M  V30 11923 H 1097.35 -5.23299 -0.588661 0
M  V30 11924 H 1099.84 -3.77895 -0.0189681 0
M  V30 11925 H 1100.16 -7.7057 0.586613 0
M  V30 11926 H 1098.5 -6.93047 0.520627 0
M  V30 11927 H 1101.69 -4.68061 0.0607606 0
M  V30 11928 H 1101.87 -6.47125 0.336683 0
M  V30 11929 N 1095.27 0.136881 -1.57004 0
M  V30 11930 C 1096.68 0.695911 -1.73245 0
M  V30 11931 C 1097.03 1.8118 -0.75288 0
M  V30 11932 O 1096.16 2.16258 0.0782477 0
M  V30 11933 C 1096.75 1.26914 -3.14131 0
M  V30 11934 C 1095.31 1.77463 -3.31939 0
M  V30 11935 C 1094.46 0.667128 -2.69156 0
M  V30 11936 H 1097.41 -0.0888841 -1.58451 0
M  V30 11937 H 1097.43 2.13892 -3.14691 0
M  V30 11938 H 1096.94 0.456754 -3.85403 0
M  V30 11939 H 1095.05 2.61236 -2.65681 0
M  V30 11940 H 1095.16 1.89638 -4.39971 0
M  V30 11941 H 1093.52 1.09629 -2.29899 0
M  V30 11942 H 1094.31 -0.13398 -3.43038 0
M  V30 11943 N 1096.75 1.52266 0.40654 0
M  V30 11944 C 1097.66 1.78688 1.52012 0
M  V30 11945 C 1098.68 0.6726 1.60475 0
M  V30 11946 O 1099.85 0.95829 1.77141 0
M  V30 11947 C 1096.92 1.93434 2.87722 0
M  V30 11948 C 1095.98 3.17341 2.89125 0
M  V30 11949 C 1095.21 3.31374 4.18362 0
M  V30 11950 O 1095.43 2.50613 5.12396 0
M  V30 11951 O 1094.37 4.24539 4.26674 0
M  V30 11952 H 1098.19 2.73213 1.3262 0
M  V30 11953 H 1095.78 1.37142 0.592653 0
M  V30 11954 H 1097.66 2.04941 3.68208 0
M  V30 11955 H 1096.34 1.02099 3.07177 0
M  V30 11956 H 1095.24 3.1129 2.07483 0
M  V30 11957 H 1096.58 4.08466 2.7462 0
M  V30 11958 N 1098.23 -0.663929 1.42933 0
M  V30 11959 C 1099.48 -1.42393 1.43981 0
M  V30 11960 C 1099.8 -1.94407 0.0601802 0
M  V30 11961 O 1099.06 -1.72019 -0.933172 0
M  V30 11962 C 1099.36 -2.62976 2.4203 0
M  V30 11963 C 1099.02 -2.29441 3.88159 0
M  V30 11964 C 1097.69 -2.20007 4.27961 0
M  V30 11965 C 1100.04 -2.02413 4.8029 0
M  V30 11966 C 1097.37 -1.81686 5.57859 0
M  V30 11967 C 1099.72 -1.65592 6.10542 0
M  V30 11968 C 1098.38 -1.54676 6.49332 0
M  V30 11969 H 1097.65 -0.521051 0.526865 0
M  V30 11970 H 1100.3 -0.756042 1.75944 0
M  V30 11971 H 1098.6 -3.34847 2.03433 0
M  V30 11972 H 1100.3 -3.21174 2.40101 0
M  V30 11973 H 1096.89 -2.3769 3.56653 0
M  V30 11974 H 1101.07 -2.08628 4.5032 0
M  V30 11975 H 1096.33 -1.71812 5.86763 0
M  V30 11976 H 1100.5 -1.43707 6.81411 0
M  V30 11977 H 1098.13 -1.24752 7.49894 0
M  V30 11978 N 1099.71 -1.29285 -0.901281 0
M  V30 11979 C 1100.64 -1.16832 -2.0217 0
M  V30 11980 C 1101.62 -0.0629265 -1.69984 0
M  V30 11981 O 1102.8 -0.242123 -1.92685 0
M  V30 11982 C 1099.93 -0.842406 -3.36929 0
M  V30 11983 C 1098.89 -1.90394 -3.8332 0
M  V30 11984 C 1098.21 -1.43138 -5.15185 0
M  V30 11985 C 1099.51 -3.31254 -4.03817 0
M  V30 11986 H 1101.21 -2.10562 -2.12847 0
M  V30 11987 H 1098.75 -1.01375 -1.0227 0
M  V30 11988 H 1100.71 -0.741999 -4.14816 0
M  V30 11989 H 1099.43 0.130598 -3.26339 0
M  V30 11990 H 1098.09 -1.99371 -3.07647 0
M  V30 11991 H 1097.74 -0.447091 -5.01009 0
M  V30 11992 H 1097.44 -2.14129 -5.47195 0
M  V30 11993 H 1098.96 -1.34444 -5.95615 0
M  V30 11994 H 1100.37 -3.25129 -4.72191 0
M  V30 11995 H 1098.77 -4.00189 -4.47178 0
M  V30 11996 H 1099.84 -3.74349 -3.08206 0
M  V30 11997 N 1101.18 1.11143 -1.11736 0
M  V30 11998 C 1102.13 2.19358 -0.773626 0
M  V30 11999 C 1103.13 1.67744 0.236288 0
M  V30 12000 O 1104.33 1.79748 0.09525 0
M  V30 12001 H 1100.71 0.715218 -0.232309 0
M  V30 12002 H 1102.68 2.45594 -1.69487 0
M  V30 12003 C 1101.43 3.46895 -0.236457 0
M  V30 12004 H 1100.75 3.86967 -1.00483 0
M  V30 12005 H 1102.19 4.23986 -0.034168 0
M  V30 12006 C 1100.65 3.20641 1.03397 0
M  V30 12007 O 1101.18 3.41629 2.11312 0
M  V30 12008 N 1099.39 2.74356 0.957986 0
M  V30 12009 H 1098.93 2.57477 0.0796924 0
M  V30 12010 H 1098.89 2.57166 1.80867 0
M  V30 12011 N 1102.66 0.908147 1.28804 0
M  V30 12012 C 1104.08 0.605474 1.47669 0
M  V30 12013 C 1104.28 -0.850759 1.82659 0
M  V30 12014 O 1103.33 -1.63029 1.92816 0
M  V30 12015 C 1104.65 1.53856 2.58358 0
M  V30 12016 C 1106.2 1.54467 2.7223 0
M  V30 12017 C 1106.67 2.46424 3.86056 0
M  V30 12018 N 1108.16 2.44519 3.93402 0
M  V30 12019 C 1108.9 3.12371 4.80845 0
M  V30 12020 N 1108.39 3.89533 5.72919 0
M  V30 12021 N 1110.19 3.01486 4.74407 0
M  V30 12022 H 1102.34 1.84988 1.04371 0
M  V30 12023 H 1104.6 0.793132 0.519274 0
M  V30 12024 H 1104.31 2.57651 2.39393 0
M  V30 12025 H 1104.18 1.26543 3.5534 0
M  V30 12026 H 1106.57 0.514127 2.90587 0
M  V30 12027 H 1106.65 1.85821 1.75796 0
M  V30 12028 H 1106.29 3.49577 3.68454 0
M  V30 12029 H 1106.22 2.12375 4.81876 0
M  V30 12030 H 1108.71 1.88464 3.27551 0
M  V30 12031 H 1109.03 4.3834 6.36457 0
M  V30 12032 H 1107.37 3.93639 5.72777 0
M  V30 12033 H 1110.56 2.40713 4.01466 0
M  V30 12034 H 1110.73 3.5464 5.42342 0
M  V30 12035 N 1104.14 -1.42577 0.671525 0
M  V30 12036 C 1105.07 -2.33499 0.00506984 0
M  V30 12037 C 1106.05 -1.50497 -0.792763 0
M  V30 12038 O 1107.24 -1.79109 -0.750574 0
M  V30 12039 C 1104.37 -3.34077 -0.949194 0
M  V30 12040 C 1103.32 -4.27208 -0.260187 0
M  V30 12041 C 1102.65 -5.17968 -1.32716 0
M  V30 12042 C 1103.95 -5.15192 0.858772 0
M  V30 12043 H 1105.64 -2.89477 0.764407 0
M  V30 12044 H 1103.19 -1.39191 0.369043 0
M  V30 12045 H 1105.14 -3.96594 -1.42448 0
M  V30 12046 H 1103.86 -2.76396 -1.73991 0
M  V30 12047 H 1102.52 -3.66082 0.194834 0
M  V30 12048 H 1102.17 -4.56615 -2.10979 0
M  V30 12049 H 1101.87 -5.81104 -0.871293 0
M  V30 12050 H 1103.39 -5.83359 -1.80345 0
M  V30 12051 H 1104.81 -5.71412 0.464844 0
M  V30 12052 H 1103.21 -5.87144 1.24023 0
M  V30 12053 H 1104.28 -4.53787 1.70895 0
M  V30 12054 N 1105.62 -0.414636 -1.52048 0
M  V30 12055 C 1106.9 0.218172 -1.94379 0
M  V30 12056 C 1107.28 1.62133 -1.35189 0
M  V30 12057 O 1106.62 2.22271 -0.529877 0
M  V30 12058 C 1106.83 0.218932 -3.48313 0
M  V30 12059 C 1108.18 0.435604 -4.2236 0
M  V30 12060 O 1109.21 0.298049 -3.54951 0
M  V30 12061 O 1108.06 0.707217 -5.41905 0
M  V30 12062 H 1105.16 0.142173 -0.814688 0
M  V30 12063 H 1107.7 -0.470977 -1.63033 0
M  V30 12064 H 1106.48 -0.76292 -3.83791 0
M  V30 12065 H 1106.1 0.951949 -3.86036 0
M  V30 12066 N 1107.1 1.56929 -0.145233 0
M  V30 12067 C 1108.01 2.20238 0.808219 0
M  V30 12068 C 1109.02 1.18615 1.27304 0
M  V30 12069 O 1110.2 1.51186 1.3306 0
M  V30 12070 C 1107.26 2.81016 2.03055 0
M  V30 12071 C 1106.32 3.97759 1.61512 0
M  V30 12072 C 1105.56 4.55628 2.77918 0
M  V30 12073 O 1105.78 4.12378 3.94082 0
M  V30 12074 O 1104.71 5.45917 2.53492 0
M  V30 12075 H 1108.54 3.02221 0.299314 0
M  V30 12076 H 1106.13 1.49176 0.0817051 0
M  V30 12077 H 1108.01 3.19652 2.74592 0
M  V30 12078 H 1106.68 2.02047 2.52901 0
M  V30 12079 H 1105.59 3.63842 0.870033 0
M  V30 12080 H 1106.92 4.78242 1.16383 0
M  V30 12081 N 1108.58 -0.128553 1.57075 0
M  V30 12082 C 1109.82 -0.836536 1.83535 0
M  V30 12083 C 1110.14 -1.81491 0.7294 0
M  V30 12084 O 1111.34 -2.56838 0.880128 0
M  V30 12085 C 1109.8 -1.53836 3.25365 0
M  V30 12086 C 1109.41 -0.601454 4.43944 0
M  V30 12087 C 1111.15 -2.23204 3.61082 0
M  V30 12088 C 1109.06 -1.30596 5.768 0
M  V30 12089 H 1107.99 -0.316142 0.684522 0
M  V30 12090 H 1110.64 -0.0892555 1.83283 0
M  V30 12091 H 1109.02 -2.33192 3.20058 0
M  V30 12092 H 1110.2 0.158209 4.60528 0
M  V30 12093 H 1108.51 -0.0152393 4.16397 0
M  V30 12094 H 1111.11 -2.76585 4.57608 0
M  V30 12095 H 1111.45 -3.0056 2.88044 0
M  V30 12096 H 1111.98 -1.50746 3.68131 0
M  V30 12097 H 1108.72 -0.573874 6.52983 0
M  V30 12098 H 1108.24 -2.03787 5.6412 0
M  V30 12099 H 1109.92 -1.8418 6.20231 0
M  V30 12100 N 1110.05 -1.5248 -0.398459 0
M  V30 12101 C 1111.3 -1.67309 -1.1461 0
M  V30 12102 C 1111.63 -0.407095 -1.89885 0
M  V30 12103 O 1110.91 0.594834 -1.85181 0
M  V30 12104 C 1111.19 -2.90204 -2.13198 0
M  V30 12105 C 1111.04 -4.26881 -1.4175 0
M  V30 12106 C 1112.36 -3.08634 -3.13741 0
M  V30 12107 H 1109.48 -0.608853 -0.415292 0
M  V30 12108 H 1112.12 -1.85057 -0.430573 0
M  V30 12109 H 1110.27 -2.75204 -2.74218 0
M  V30 12110 H 1111.95 -4.53631 -0.837676 0
M  V30 12111 H 1110.19 -4.27793 -0.719387 0
M  V30 12112 H 1110.86 -5.08939 -2.1374 0
M  V30 12113 H 1113.34 -3.22603 -2.62805 0
M  V30 12114 H 1112.21 -3.96117 -3.79977 0
M  V30 12115 H 1112.47 -2.22425 -3.82073 0
M  V30 12116 N 1111.53 0.65634 -1.43283 0
M  V30 12117 C 1112.78 1.41837 -1.44949 0
M  V30 12118 C 1113.11 1.94065 -0.0723212 0
M  V30 12119 O 1112.39 1.72092 0.906346 0
M  V30 12120 C 1112.67 2.60206 -2.48927 0
M  V30 12121 C 1112.52 2.1349 -3.95907 0
M  V30 12122 C 1113.84 3.62421 -2.49678 0
M  V30 12123 H 1110.96 0.514398 -0.527792 0
M  V30 12124 H 1113.6 0.74435 -1.74813 0
M  V30 12125 H 1111.75 3.17708 -2.23592 0
M  V30 12126 H 1113.42 1.61012 -4.32288 0
M  V30 12127 H 1111.67 1.4489 -4.08888 0
M  V30 12128 H 1112.34 2.98596 -4.64268 0
M  V30 12129 H 1114.81 3.14671 -2.72252 0
M  V30 12130 H 1113.69 4.42798 -3.24378 0
M  V30 12131 H 1113.95 4.14802 -1.52944 0
M  V30 12132 N 1113.01 1.29761 0.894412 0
M  V30 12133 C 1114.26 1.18039 1.64539 0
M  V30 12134 C 1114.58 -0.26697 1.92659 0
M  V30 12135 O 1113.84 -1.20865 1.53916 0
M  V30 12136 C 1114.14 1.94458 2.99868 0
M  V30 12137 C 1113.8 3.44143 2.91336 0
M  V30 12138 C 1112.47 3.84963 2.88716 0
M  V30 12139 C 1114.82 4.39503 2.80154 0
M  V30 12140 C 1112.15 5.19451 2.72741 0
M  V30 12141 C 1114.5 5.74088 2.65718 0
M  V30 12142 C 1113.16 6.14159 2.61467 0
M  V30 12143 H 1112.43 0.431936 0.60209 0
M  V30 12144 H 1115.08 1.60758 1.04063 0
M  V30 12145 H 1113.38 1.44346 3.64241 0
M  V30 12146 H 1115.08 1.82788 3.56917 0
M  V30 12147 H 1111.67 3.11699 2.9418 0
M  V30 12148 H 1115.86 4.08915 2.81251 0
M  V30 12149 H 1111.11 5.49602 2.67858 0
M  V30 12150 H 1115.29 6.47625 2.56038 0
M  V30 12151 H 1112.91 7.18317 2.48847 0
M  V30 12152 N 1114.49 -1.10549 1.12324 0
M  V30 12153 C 1115.9 -1.34508 0.85905 0
M  V30 12154 C 1116.1 -1.94901 -0.511468 0
M  V30 12155 O 1115.16 -2.18793 -1.2604 0
M  V30 12156 C 1116.47 -2.26788 1.97453 0
M  V30 12157 C 1118.02 -2.40328 2.00528 0
M  V30 12158 C 1118.5 -3.35936 3.11305 0
M  V30 12159 N 1119.99 -3.43504 3.1074 0
M  V30 12160 C 1120.72 -4.17449 3.93096 0
M  V30 12161 N 1120.22 -4.9429 4.85437 0
M  V30 12162 N 1122.01 -4.13055 3.81237 0
M  V30 12163 H 1114.16 -0.697171 2.00632 0
M  V30 12164 H 1116.42 -0.369548 0.873005 0
M  V30 12165 H 1116.13 -1.89621 2.96204 0
M  V30 12166 H 1116 -3.27086 1.87869 0
M  V30 12167 H 1118.39 -2.76765 1.02397 0
M  V30 12168 H 1118.47 -1.39849 2.14186 0
M  V30 12169 H 1118.12 -3.00225 4.09667 0
M  V30 12170 H 1118.05 -4.36291 2.94886 0
M  V30 12171 H 1120.54 -2.88702 2.43843 0
M  V30 12172 H 1120.85 -5.48109 5.4479 0
M  V30 12173 H 1119.2 -4.93419 4.89452 0
M  V30 12174 H 1122.39 -3.52117 3.08433 0
M  V30 12175 H 1122.56 -4.70424 4.45651 0
M  V30 12176 N 1115.97 -0.914965 -1.28321 0
M  V30 12177 C 1117.38 -0.59512 -1.76961 0
M  V30 12178 C 1117.73 0.88958 -1.74874 0
M  V30 12179 O 1116.85 1.6959 -1.34418 0
M  V30 12180 C 1117.45 -1.07353 -3.21342 0
M  V30 12181 C 1116.01 -0.804577 -3.677 0
M  V30 12182 C 1115.15 -1.23955 -2.48053 0
M  V30 12183 H 1118.1 -1.0961 -1.14767 0
M  V30 12184 H 1118.13 -0.415506 -3.78225 0
M  V30 12185 H 1117.64 -2.15413 -3.22829 0
M  V30 12186 H 1115.74 0.26277 -3.71672 0
M  V30 12187 H 1115.85 -1.41317 -4.57784 0
M  V30 12188 H 1114.22 -0.658274 -2.46046 0
M  V30 12189 H 1115 -2.32853 -2.52258 0
M  V30 12190 N 1117.44 1.42219 -0.679077 0
M  V30 12191 C 1118.37 2.33493 -0.0174528 0
M  V30 12192 C 1119.35 1.50915 0.78477 0
M  V30 12193 O 1120.54 1.79504 0.741065 0
M  V30 12194 C 1117.67 3.34576 0.931463 0
M  V30 12195 C 1116.62 4.2734 0.237527 0
M  V30 12196 C 1115.95 5.18664 1.29967 0
M  V30 12197 C 1117.25 5.14729 -0.886082 0
M  V30 12198 H 1118.94 2.89068 -0.779748 0
M  V30 12199 H 1116.49 1.38993 -0.376419 0
M  V30 12200 H 1118.44 3.97343 1.40343 0
M  V30 12201 H 1117.17 2.77315 1.72523 0
M  V30 12202 H 1115.83 3.65973 -0.214245 0
M  V30 12203 H 1115.47 4.57727 2.08554 0
M  V30 12204 H 1115.17 5.81558 0.840463 0
M  V30 12205 H 1116.7 5.84308 1.77249 0
M  V30 12206 H 1118.11 5.71158 -0.495141 0
M  V30 12207 H 1116.51 5.86478 -1.27135 0
M  V30 12208 H 1117.58 4.52874 -1.733 0
M  V30 12209 N 1118.92 0.422693 1.51826 0
M  V30 12210 C 1120.15 -0.147744 2.06372 0
M  V30 12211 C 1120.56 -1.37714 1.29152 0
M  V30 12212 O 1119.92 -1.7917 0.347046 0
M  V30 12213 C 1119.97 -0.484642 3.58237 0
M  V30 12214 O 1119.69 0.695944 4.32537 0
M  V30 12215 C 1121.19 -1.10734 4.29247 0
M  V30 12216 H 1118.41 -0.0144047 0.670845 0
M  V30 12217 H 1120.96 0.597558 1.95575 0
M  V30 12218 H 1119.11 -1.17984 3.68997 0
M  V30 12219 H 1119.53 0.411471 5.22884 0
M  V30 12220 H 1121 -1.29318 5.36639 0
M  V30 12221 H 1121.48 -2.08429 3.86593 0
M  V30 12222 H 1122.08 -0.451958 4.22892 0
M  V30 12223 N 1120.4 -1.5685 0.153553 0
M  V30 12224 C 1121.35 -2.1709 -0.783626 0
M  V30 12225 C 1122.32 -1.10567 -1.23952 0
M  V30 12226 O 1123.5 -1.38638 -1.31088 0
M  V30 12227 C 1120.64 -2.80183 -2.01473 0
M  V30 12228 C 1119.75 -4.01117 -1.60403 0
M  V30 12229 C 1118.89 -4.5219 -2.78743 0
M  V30 12230 C 1117.93 -5.65574 -2.34079 0
M  V30 12231 N 1117.07 -6.11235 -3.4545 0
M  V30 12232 H 1121.91 -2.96836 -0.263127 0
M  V30 12233 H 1119.44 -1.46625 -0.11816 0
M  V30 12234 H 1121.4 -3.14912 -2.73654 0
M  V30 12235 H 1120.03 -2.03071 -2.50923 0
M  V30 12236 H 1119.08 -3.72325 -0.779631 0
M  V30 12237 H 1120.39 -4.83243 -1.23605 0
M  V30 12238 H 1119.55 -4.89008 -3.59105 0
M  V30 12239 H 1118.29 -3.69085 -3.18791 0
M  V30 12240 H 1117.29 -5.28326 -1.52158 0
M  V30 12241 H 1118.52 -6.50468 -1.95109 0
M  V30 12242 H 1116.46 -5.31064 -3.85106 0
M  V30 12243 H 1116.38 -6.88304 -3.12687 0
M  V30 12244 H 1117.65 -6.527 -4.26149 0
M  V30 12245 N 1121.88 0.120221 -1.57141 0
M  V30 12246 C 1122.79 1.16641 -2.03549 0
M  V30 12247 C 1123.8 1.45407 -0.955656 0
M  V30 12248 O 1124.98 1.56547 -1.26708 0
M  V30 12249 C 1122.04 2.4734 -2.42948 0
M  V30 12250 C 1121.11 2.25982 -3.65008 0
M  V30 12251 C 1120.34 3.50449 -4.02518 0
M  V30 12252 O 1120.56 4.57706 -3.40384 0
M  V30 12253 O 1119.5 3.41524 -4.95626 0
M  V30 12254 H 1123.32 0.802323 -2.9291 0
M  V30 12255 H 1120.91 0.330927 -1.45689 0
M  V30 12256 H 1122.79 3.24348 -2.69029 0
M  V30 12257 H 1121.46 2.83225 -1.56733 0
M  V30 12258 H 1120.37 1.46837 -3.44078 0
M  V30 12259 H 1121.7 1.95002 -4.51924 0
M  V30 12260 N 1123.36 1.52689 0.390367 0
M  V30 12261 C 1124.29 1.73622 1.49626 0
M  V30 12262 C 1125.3 0.616682 1.50668 0
M  V30 12263 O 1126.49 0.892341 1.54595 0
M  V30 12264 C 1123.59 1.77859 2.88477 0
M  V30 12265 C 1122.76 3.07146 3.11416 0
M  V30 12266 C 1121.82 3.02949 4.30242 0
M  V30 12267 O 1120.85 3.76816 4.26613 0
M  V30 12268 N 1122.05 2.22039 5.36357 0
M  V30 12269 H 1124.82 2.69037 1.32057 0
M  V30 12270 H 1122.38 1.51159 0.579867 0
M  V30 12271 H 1124.37 1.72559 3.66067 0
M  V30 12272 H 1122.94 0.898367 2.99413 0
M  V30 12273 H 1122.16 3.25947 2.21703 0
M  V30 12274 H 1123.45 3.92637 3.23595 0
M  V30 12275 H 1122.84 1.6149 5.4216 0
M  V30 12276 H 1121.4 2.2258 6.12619 0
M  V30 12277 N 1124.83 -0.648732 1.43629 0
M  V30 12278 C 1126.08 -1.40446 1.44768 0
M  V30 12279 C 1126.4 -1.95447 0.0773445 0
M  V30 12280 O 1127.6 -2.71479 -0.0337942 0
M  V30 12281 C 1126.06 -2.54194 2.54781 0
M  V30 12282 C 1125.67 -2.05781 3.97942 0
M  V30 12283 C 1127.41 -3.31529 2.65121 0
M  V30 12284 C 1125.32 -3.16767 4.99412 0
M  V30 12285 H 1124.25 -0.527717 0.538545 0
M  V30 12286 H 1126.9 -0.699756 1.69634 0
M  V30 12287 H 1125.28 -3.27156 2.23125 0
M  V30 12288 H 1126.45 -1.398 4.39081 0
M  V30 12289 H 1124.77 -1.41312 3.91688 0
M  V30 12290 H 1127.37 -4.14233 3.38105 0
M  V30 12291 H 1127.71 -3.79855 1.70341 0
M  V30 12292 H 1128.24 -2.65649 2.961 0
M  V30 12293 H 1124.98 -2.73404 5.9576 0
M  V30 12294 H 1124.5 -3.81445 4.62882 0
M  V30 12295 H 1126.18 -3.81827 5.22319 0
M  V30 12296 N 1126.31 -1.30234 -0.887518 0
M  V30 12297 C 1127.73 -1.0851 -1.17037 0
M  V30 12298 C 1127.93 0.155788 -2.00897 0
M  V30 12299 O 1126.98 0.850123 -2.37759 0
M  V30 12300 C 1128.3 -2.34723 -1.87951 0
M  V30 12301 C 1129.85 -2.40163 -2.00726 0
M  V30 12302 C 1130.32 -3.66211 -2.75051 0
M  V30 12303 N 1131.81 -3.67004 -2.82599 0
M  V30 12304 C 1132.55 -4.61224 -3.40676 0
M  V30 12305 N 1132.04 -5.65786 -3.99823 0
M  V30 12306 N 1133.84 -4.48772 -3.38467 0
M  V30 12307 H 1125.99 -2.09847 -0.328297 0
M  V30 12308 H 1128.25 -0.924904 -0.20798 0
M  V30 12309 H 1127.96 -3.25265 -1.33773 0
M  V30 12310 H 1127.83 -2.43175 -2.8835 0
M  V30 12311 H 1130.22 -1.50101 -2.54074 0
M  V30 12312 H 1130.3 -2.35688 -0.994218 0
M  V30 12313 H 1129.94 -4.56631 -2.22376 0
M  V30 12314 H 1129.87 -3.67947 -3.76726 0
M  V30 12315 H 1132.36 -2.91409 -2.40602 0
M  V30 12316 H 1132.68 -6.33783 -4.42197 0
M  V30 12317 H 1131.02 -5.69581 -3.9825 0
M  V30 12318 H 1134.21 -3.6627 -2.91485 0
M  V30 12319 H 1134.38 -5.22382 -3.83433 0
M  V30 12320 N 1127.79 1.09952 -1.12909 0
M  V30 12321 C 1128.72 2.16257 -0.759305 0
M  V30 12322 C 1129.74 1.61355 0.216427 0
M  V30 12323 O 1130.92 1.785 -0.00297224 0
M  V30 12324 C 1128.02 3.38741 -0.103908 0
M  V30 12325 C 1127.2 4.23072 -1.11037 0
M  V30 12326 C 1126.26 5.23991 -0.481667 0
M  V30 12327 O 1125.28 5.57665 -1.14011 0
M  V30 12328 N 1126.48 5.75652 0.748698 0
M  V30 12329 H 1129.25 2.48588 -1.67405 0
M  V30 12330 H 1126.81 1.25617 -1.02137 0
M  V30 12331 H 1128.8 4.03362 0.328799 0
M  V30 12332 H 1127.37 3.04344 0.713677 0
M  V30 12333 H 1126.59 3.5467 -1.72054 0
M  V30 12334 H 1127.88 4.76244 -1.79078 0
M  V30 12335 H 1127.28 5.505 1.30253 0
M  V30 12336 H 1125.84 6.42033 1.12415 0
M  V30 12337 N 1129.27 0.921757 1.27833 0
M  V30 12338 C 1130.52 0.55493 1.93916 0
M  V30 12339 C 1130.83 -0.907191 1.7329 0
M  V30 12340 O 1132.04 -1.38253 2.33663 0
M  V30 12341 C 1130.49 0.941644 3.47363 0
M  V30 12342 C 1130.1 2.42404 3.76755 0
M  V30 12343 C 1131.84 0.645785 4.19559 0
M  V30 12344 C 1129.75 2.75046 5.23549 0
M  V30 12345 H 1128.68 0.203818 0.72593 0
M  V30 12346 H 1131.33 1.12176 1.4522 0
M  V30 12347 H 1129.71 0.303519 3.94835 0
M  V30 12348 H 1130.89 3.10957 3.40062 0
M  V30 12349 H 1129.2 2.69118 3.17749 0
M  V30 12350 H 1131.8 0.866237 5.27637 0
M  V30 12351 H 1132.14 -0.41676 4.14209 0
M  V30 12352 H 1132.68 1.24274 3.7789 0
M  V30 12353 H 1129.42 3.80186 5.33984 0
M  V30 12354 H 1128.94 2.11138 5.6141 0
M  V30 12355 H 1130.61 2.62474 5.91368 0
M  V30 12356 N 1130.75 -1.41857 0.686609 0
M  V30 12357 C 1131.99 -2.01666 0.214118 0
M  V30 12358 C 1132.33 -1.5422 -1.18025 0
M  V30 12359 O 1131.6 -0.749482 -1.7948 0
M  V30 12360 C 1131.88 -3.59147 0.261841 0
M  V30 12361 C 1131.74 -4.16742 1.69251 0
M  V30 12362 C 1133.06 -4.38427 -0.383378 0
M  V30 12363 H 1130.17 -0.732724 0.0792785 0
M  V30 12364 H 1132.82 -1.68724 0.873633 0
M  V30 12365 H 1130.97 -3.87342 -0.29971 0
M  V30 12366 H 1132.64 -3.99456 2.30722 0
M  V30 12367 H 1130.88 -3.72124 2.2295 0
M  V30 12368 H 1131.55 -5.25894 1.6775 0
M  V30 12369 H 1134.03 -4.15992 0.0947701 0
M  V30 12370 H 1132.9 -5.4797 -0.319401 0
M  V30 12371 H 1133.17 -4.172 -1.46276 0
M  V30 12372 N 1132.22 -0.430739 -1.51599 0
M  V30 12373 C 1133.13 0.390347 -2.3133 0
M  V30 12374 C 1134.15 1.03376 -1.39962 0
M  V30 12375 O 1135.33 1.03057 -1.73035 0
M  V30 12376 C 1132.39 1.48039 -3.13505 0
M  V30 12377 C 1131.45 0.857792 -4.20643 0
M  V30 12378 C 1130.69 1.89589 -4.9889 0
M  V30 12379 O 1130.91 3.11717 -4.77691 0
M  V30 12380 O 1129.84 1.49009 -5.83164 0
M  V30 12381 H 1133.67 -0.260358 -3.02582 0
M  V30 12382 H 1131.25 -0.193428 -1.48143 0
M  V30 12383 H 1133.14 2.11272 -3.64612 0
M  V30 12384 H 1131.81 2.1153 -2.45024 0
M  V30 12385 H 1130.72 0.187592 -3.73629 0
M  V30 12386 H 1132.05 0.266474 -4.91478 0
M  V30 12387 N 1133.7 1.56767 -0.161869 0
M  V30 12388 C 1134.95 1.95769 0.485536 0
M  V30 12389 C 1135.26 1.05006 1.65025 0
M  V30 12390 O 1136.47 1.33649 2.36326 0
M  V30 12391 C 1134.93 3.4807 0.915176 0
M  V30 12392 C 1134.53 4.47443 -0.223416 0
M  V30 12393 C 1136.28 3.95909 1.53153 0
M  V30 12394 C 1134.19 5.90971 0.225325 0
M  V30 12395 H 1133.12 0.730911 0.185161 0
M  V30 12396 H 1135.77 1.81808 -0.248592 0
M  V30 12397 H 1134.15 3.57415 1.705 0
M  V30 12398 H 1135.32 4.49805 -1.00061 0
M  V30 12399 H 1133.64 4.09606 -0.749127 0
M  V30 12400 H 1136.23 5.00592 1.87915 0
M  V30 12401 H 1136.58 3.38307 2.42599 0
M  V30 12402 H 1137.11 3.89542 0.806322 0
M  V30 12403 H 1133.85 6.52426 -0.634124 0
M  V30 12404 H 1133.37 5.91936 0.96808 0
M  V30 12405 H 1135.05 6.43497 0.672373 0
M  V30 12406 N 1135.18 -0.111886 1.57202 0
M  V30 12407 C 1136.11 -1.16274 1.97517 0
M  V30 12408 C 1137.13 -1.37259 0.875425 0
M  V30 12409 O 1138.31 -1.36208 1.15367 0
M  V30 12410 C 1135.41 -2.52145 2.26442 0
M  V30 12411 C 1134.59 -2.51666 3.57747 0
M  V30 12412 C 1133.65 -3.69337 3.74802 0
M  V30 12413 O 1132.67 -3.52596 4.46839 0
M  V30 12414 N 1133.87 -4.88177 3.14108 0
M  V30 12415 H 1136.64 -0.819747 2.88271 0
M  V30 12416 H 1134.2 -0.301076 1.59076 0
M  V30 12417 H 1136.19 -3.29437 2.3506 0
M  V30 12418 H 1134.76 -2.78599 1.41779 0
M  V30 12419 H 1133.98 -1.60038 3.60252 0
M  V30 12420 H 1135.27 -2.48408 4.44039 0
M  V30 12421 H 1134.67 -5.04682 2.55564 0
M  V30 12422 H 1133.23 -5.6312 3.28237 0
M  V30 12423 N 1136.66 -1.52894 -0.382264 0
M  V30 12424 C 1137.59 -1.81122 -1.47367 0
M  V30 12425 C 1138.57 -0.663653 -1.56619 0
M  V30 12426 O 1139.75 -0.911898 -1.71459 0
M  V30 12427 C 1136.88 -1.98615 -2.84902 0
M  V30 12428 C 1135.84 -3.14328 -2.90485 0
M  V30 12429 C 1135.16 -3.17086 -4.30535 0
M  V30 12430 C 1136.46 -4.53263 -2.59519 0
M  V30 12431 H 1138.16 -2.72518 -1.23993 0
M  V30 12432 H 1135.7 -1.3113 -0.595049 0
M  V30 12433 H 1137.66 -2.16946 -3.61265 0
M  V30 12434 H 1136.38 -1.03915 -3.09628 0
M  V30 12435 H 1135.04 -2.95791 -2.16572 0
M  V30 12436 H 1134.69 -2.20055 -4.52311 0
M  V30 12437 H 1134.39 -3.94821 -4.3519 0
M  V30 12438 H 1135.91 -3.3758 -5.08795 0
M  V30 12439 H 1137.33 -4.71867 -3.25598 0
M  V30 12440 H 1135.72 -5.33115 -2.75514 0
M  V30 12441 H 1136.79 -4.59516 -1.54831 0
M  V30 12442 N 1138.14 0.641106 -1.43971 0
M  V30 12443 C 1139.36 1.43324 -1.4991 0
M  V30 12444 C 1139.79 1.87705 -0.121908 0
M  V30 12445 O 1139.15 1.58127 0.886875 0
M  V30 12446 C 1139.19 2.63637 -2.46025 0
M  V30 12447 O 1138.3 3.63123 -1.95488 0
M  V30 12448 H 1137.64 0.429252 -0.506595 0
M  V30 12449 H 1140.17 0.783427 -1.89007 0
M  V30 12450 H 1140.18 3.11304 -2.63731 0
M  V30 12451 H 1138.85 2.30678 -3.46064 0
M  V30 12452 H 1137.43 3.22332 -1.87501 0
M  V30 12453 N 1139.62 1.30703 0.880598 0
M  V30 12454 C 1140.85 1.22536 1.66339 0
M  V30 12455 C 1141.25 -0.213507 1.87991 0
M  V30 12456 O 1140.6 -1.15236 1.43061 0
M  V30 12457 C 1140.66 1.88798 3.05934 0
M  V30 12458 C 1140.32 3.38131 3.07435 0
M  V30 12459 C 1141.32 4.34053 2.86171 0
M  V30 12460 C 1139 3.79651 3.28893 0
M  V30 12461 C 1141 5.69469 2.86328 0
M  V30 12462 C 1138.69 5.15182 3.2868 0
M  V30 12463 C 1139.68 6.09902 3.07423 0
M  V30 12464 O 1139.37 7.42957 3.07034 0
M  V30 12465 H 1139.1 0.425018 0.525677 0
M  V30 12466 H 1141.66 1.72939 1.1082 0
M  V30 12467 H 1139.89 1.3293 3.63134 0
M  V30 12468 H 1141.58 1.74691 3.66385 0
M  V30 12469 H 1142.34 4.03307 2.69385 0
M  V30 12470 H 1138.22 3.06365 3.44473 0
M  V30 12471 H 1141.77 6.43375 2.69655 0
M  V30 12472 H 1137.66 5.45567 3.45002 0
M  V30 12473 H 1138.43 7.52 3.23169 0
M  V30 12474 N 1141.09 -1.09351 1.1349 0
M  V30 12475 C 1142.02 -2.18037 0.835588 0
M  V30 12476 C 1143 -1.68856 -0.205373 0
M  V30 12477 O 1144.19 -1.94094 -0.0641357 0
M  V30 12478 C 1141.32 -3.45987 0.301661 0
M  V30 12479 C 1140.27 -4.08507 1.27696 0
M  V30 12480 C 1139.6 -5.31292 0.602758 0
M  V30 12481 C 1140.9 -4.50916 2.63575 0
M  V30 12482 H 1142.59 -2.43332 1.74441 0
M  V30 12483 H 1140.14 -1.1695 0.840166 0
M  V30 12484 H 1142.09 -4.21324 0.079928 0
M  V30 12485 H 1140.82 -3.20217 -0.642552 0
M  V30 12486 H 1139.48 -3.3519 1.4847 0
M  V30 12487 H 1139.12 -5.01802 -0.346953 0
M  V30 12488 H 1138.82 -5.74075 1.25345 0
M  V30 12489 H 1140.35 -6.09351 0.390325 0
M  V30 12490 H 1141.76 -5.17474 2.46765 0
M  V30 12491 H 1140.16 -5.04586 3.24827 0
M  V30 12492 H 1141.23 -3.63279 3.2118 0
M  V30 12493 N 1142.57 -0.928524 -1.27343 0
M  V30 12494 C 1143.99 -0.62889 -1.46687 0
M  V30 12495 C 1144.19 0.821592 -1.83989 0
M  V30 12496 O 1143.24 1.59941 -1.95385 0
M  V30 12497 C 1144.56 -1.57947 -2.55878 0
M  V30 12498 C 1146.1 -1.58778 -2.69738 0
M  V30 12499 C 1146.58 -2.52535 -3.82087 0
M  V30 12500 N 1148.07 -2.50747 -3.89462 0
M  V30 12501 C 1148.81 -3.19981 -4.75814 0
M  V30 12502 N 1148.3 -3.98598 -5.66649 0
M  V30 12503 N 1150.09 -3.08996 -4.69551 0
M  V30 12504 H 1142.25 -1.86625 -1.01414 0
M  V30 12505 H 1144.51 -0.801293 -0.50659 0
M  V30 12506 H 1144.21 -2.61427 -2.35264 0
M  V30 12507 H 1144.09 -1.3218 -3.53282 0
M  V30 12508 H 1146.48 -0.560292 -2.89732 0
M  V30 12509 H 1146.56 -1.88594 -1.72817 0
M  V30 12510 H 1146.2 -3.55395 -3.62846 0
M  V30 12511 H 1146.13 -2.20015 -4.78436 0
M  V30 12512 H 1148.62 -1.93651 -3.24511 0
M  V30 12513 H 1148.93 -4.4841 -6.29403 0
M  V30 12514 H 1147.28 -4.02701 -5.66442 0
M  V30 12515 H 1150.47 -2.4707 -3.97585 0
M  V30 12516 H 1150.64 -3.63223 -5.36631 0
M  V30 12517 N 1144.05 1.41491 -0.694123 0
M  V30 12518 C 1145.01 2.2917 -0.0368562 0
M  V30 12519 C 1146.01 1.44305 0.709426 0
M  V30 12520 O 1147.2 1.6547 0.544533 0
M  V30 12521 C 1144.33 3.27156 0.958201 0
M  V30 12522 H 1145.53 2.88787 -0.808829 0
M  V30 12523 H 1143.08 1.49453 -0.457538 0
M  V30 12524 H 1143.82 2.72516 1.75799 0
M  V30 12525 H 1143.6 3.89776 0.426227 0
M  V30 12526 H 1145.09 3.92863 1.41592 0
M  V30 12527 N 1145.53 0.438773 1.51369 0
M  V30 12528 C 1146.94 0.0911416 1.5934 0
M  V30 12529 C 1147.14 -1.39962 1.44958 0
M  V30 12530 O 1146.2 -2.16968 1.29155 0
M  V30 12531 C 1147.51 0.612531 2.94395 0
M  V30 12532 C 1149.06 0.573098 3.07709 0
M  V30 12533 C 1149.54 1.07149 4.4529 0
M  V30 12534 N 1151.03 1.02953 4.51614 0
M  V30 12535 C 1151.76 1.38602 5.56397 0
M  V30 12536 N 1151.26 1.81543 6.68591 0
M  V30 12537 N 1153.05 1.30409 5.46763 0
M  V30 12538 H 1145.2 1.40872 1.58962 0
M  V30 12539 H 1147.46 0.580589 0.749414 0
M  V30 12540 H 1147.17 1.65562 3.10294 0
M  V30 12541 H 1147.04 0.0382375 3.77181 0
M  V30 12542 H 1149.43 -0.461006 2.91477 0
M  V30 12543 H 1149.51 1.18381 2.26759 0
M  V30 12544 H 1149.16 2.10406 4.62268 0
M  V30 12545 H 1149.09 0.437297 5.24781 0
M  V30 12546 H 1151.58 0.714208 3.7109 0
M  V30 12547 H 1151.89 2.06977 7.44567 0
M  V30 12548 H 1150.24 1.8547 6.69795 0
M  V30 12549 H 1153.43 0.967272 4.57997 0
M  V30 12550 H 1153.6 1.5852 6.28312 0
M  V30 12551 N 1147.01 -1.56678 0.170181 0
M  V30 12552 C 1147.94 -2.20916 -0.756213 0
M  V30 12553 C 1148.92 -1.16442 -1.23997 0
M  V30 12554 O 1150.1 -1.44867 -1.29333 0
M  V30 12555 C 1147.23 -2.84901 -1.98617 0
M  V30 12556 C 1146.19 -3.95403 -1.63831 0
M  V30 12557 C 1145.51 -4.46432 -2.94282 0
M  V30 12558 C 1146.81 -5.15051 -0.867195 0
M  V30 12559 H 1148.51 -2.98585 -0.220776 0
M  V30 12560 H 1146.05 -1.43619 -0.104748 0
M  V30 12561 H 1148 -3.28514 -2.63926 0
M  V30 12562 H 1146.73 -2.04598 -2.54572 0
M  V30 12563 H 1145.39 -3.52444 -1.00891 0
M  V30 12564 H 1145.04 -3.62923 -3.48276 0
M  V30 12565 H 1144.74 -5.20979 -2.71762 0
M  V30 12566 H 1146.26 -4.92731 -3.60622 0
M  V30 12567 H 1147.67 -5.55363 -1.42285 0
M  V30 12568 H 1146.07 -5.95507 -0.741065 0
M  V30 12569 H 1147.14 -4.84707 0.136693 0
M  V30 12570 N 1148.48 0.103547 -1.57259 0
M  V30 12571 C 1149.45 1.11039 -2.00507 0
M  V30 12572 C 1150.45 1.33432 -0.897361 0
M  V30 12573 O 1151.64 1.29688 -1.16304 0
M  V30 12574 C 1148.77 2.46144 -2.35851 0
M  V30 12575 H 1149.96 0.738332 -2.90669 0
M  V30 12576 H 1147.51 0.348334 -1.52369 0
M  V30 12577 H 1148.25 2.88242 -1.48617 0
M  V30 12578 H 1148.03 2.31241 -3.16654 0
M  V30 12579 H 1149.52 3.18577 -2.69997 0
M  V30 12580 N 1149.96 1.53094 0.37415 0
M  V30 12581 C 1150.87 1.81872 1.48188 0
M  V30 12582 C 1151.89 0.706487 1.59012 0
M  V30 12583 O 1153.06 0.995648 1.75068 0
M  V30 12584 C 1150.13 1.99494 2.83554 0
M  V30 12585 C 1149.19 3.23402 2.82329 0
M  V30 12586 C 1148.42 3.40174 4.11239 0
M  V30 12587 O 1148.65 2.61425 5.06965 0
M  V30 12588 O 1147.58 4.33493 4.17573 0
M  V30 12589 H 1151.41 2.75965 1.26795 0
M  V30 12590 H 1148.99 1.38368 0.56343 0
M  V30 12591 H 1150.87 2.12705 3.63778 0
M  V30 12592 H 1149.55 1.08591 3.04942 0
M  V30 12593 H 1148.45 3.15621 2.00834 0
M  V30 12594 H 1149.79 4.14199 2.65894 0
M  V30 12595 N 1151.44 -0.633461 1.44309 0
M  V30 12596 C 1152.39 -1.74554 1.50995 0
M  V30 12597 C 1153.36 -1.62199 0.357873 0
M  V30 12598 O 1154.54 -1.82156 0.567787 0
M  V30 12599 C 1151.68 -3.12792 1.45791 0
M  V30 12600 C 1150.79 -3.3614 2.71356 0
M  V30 12601 C 1149.93 -4.64337 2.58002 0
M  V30 12602 C 1148.97 -4.80855 3.78741 0
M  V30 12603 N 1148.11 -6.00327 3.64077 0
M  V30 12604 H 1152.95 -1.68174 2.46011 0
M  V30 12605 H 1150.48 -0.820407 1.22097 0
M  V30 12606 H 1152.44 -3.92735 1.40765 0
M  V30 12607 H 1151.07 -3.18193 0.543445 0
M  V30 12608 H 1150.12 -2.50154 2.86579 0
M  V30 12609 H 1151.43 -3.44226 3.60985 0
M  V30 12610 H 1150.59 -5.52437 2.50795 0
M  V30 12611 H 1149.33 -4.58605 1.65929 0
M  V30 12612 H 1148.33 -3.91185 3.86334 0
M  V30 12613 H 1149.56 -4.88403 4.71847 0
M  V30 12614 H 1147.5 -5.9569 2.74754 0
M  V30 12615 H 1147.42 -6.09459 4.47321 0
M  V30 12616 H 1148.69 -6.90995 3.60758 0
M  V30 12617 N 1152.92 -1.31168 -0.873655 0
M  V30 12618 C 1154.33 -1.09745 -1.1588 0
M  V30 12619 C 1154.53 0.134471 -2.01051 0
M  V30 12620 O 1153.59 0.824857 -2.38647 0
M  V30 12621 C 1154.9 -2.36704 -1.85451 0
M  V30 12622 C 1156.45 -2.42278 -1.98167 0
M  V30 12623 C 1156.93 -3.69108 -2.71152 0
M  V30 12624 N 1158.42 -3.69981 -2.7869 0
M  V30 12625 C 1159.15 -4.64811 -3.35765 0
M  V30 12626 N 1158.65 -5.69995 -3.938 0
M  V30 12627 N 1160.44 -4.52337 -3.33688 0
M  V30 12628 H 1152.59 -2.10184 -0.306021 0
M  V30 12629 H 1154.86 -0.927058 -0.198159 0
M  V30 12630 H 1154.56 -3.26666 -1.30316 0
M  V30 12631 H 1154.44 -2.46219 -2.85755 0
M  V30 12632 H 1156.82 -1.52787 -2.52468 0
M  V30 12633 H 1156.9 -2.3673 -0.969164 0
M  V30 12634 H 1156.55 -4.58963 -2.1752 0
M  V30 12635 H 1156.48 -3.71922 -3.72803 0
M  V30 12636 H 1158.97 -2.93944 -2.37498 0
M  V30 12637 H 1159.28 -6.38438 -4.3545 0
M  V30 12638 H 1157.63 -5.73773 -3.92186 0
M  V30 12639 H 1160.82 -3.69341 -2.87584 0
M  V30 12640 H 1160.99 -5.2642 -3.77871 0
M  V30 12641 N 1154.4 1.08748 -1.14068 0
M  V30 12642 C 1155.65 1.8044 -0.901352 0
M  V30 12643 C 1155.96 1.86995 0.573791 0
M  V30 12644 O 1157.16 2.55065 0.930275 0
M  V30 12645 C 1155.62 3.24185 -1.56308 0
M  V30 12646 C 1155.23 3.25875 -3.07424 0
M  V30 12647 C 1156.97 4.00584 -1.40473 0
M  V30 12648 C 1154.88 4.64186 -3.66449 0
M  V30 12649 H 1153.81 0.676201 -0.333569 0
M  V30 12650 H 1156.46 1.22169 -1.3692 0
M  V30 12651 H 1154.84 3.82561 -1.0229 0
M  V30 12652 H 1156.02 2.77225 -3.6808 0
M  V30 12653 H 1154.33 2.62969 -3.22856 0
M  V30 12654 H 1156.93 5.02781 -1.81976 0
M  V30 12655 H 1157.27 4.14823 -0.350408 0
M  V30 12656 H 1157.8 3.48668 -1.91508 0
M  V30 12657 H 1154.54 4.5515 -4.71719 0
M  V30 12658 H 1154.06 5.13132 -3.10574 0
M  V30 12659 H 1155.74 5.33161 -3.66536 0
M  V30 12660 N 1155.87 0.935264 1.26849 0
M  V30 12661 C 1157.1 0.595704 1.98661 0
M  V30 12662 C 1157.52 -0.821001 1.69237 0
M  V30 12663 O 1156.88 -1.55211 0.936982 0
M  V30 12664 C 1156.93 0.837275 3.50745 0
M  V30 12665 O 1156.03 -0.0934914 4.12294 0
M  V30 12666 H 1155.38 0.228512 0.623441 0
M  V30 12667 H 1157.91 1.25658 1.61466 0
M  V30 12668 H 1157.92 0.755827 4.00938 0
M  V30 12669 H 1156.59 1.86993 3.71492 0
M  V30 12670 H 1155.17 0.0385124 3.7288 0
M  V30 12671 N 1157.35 -1.41121 0.701616 0
M  V30 12672 C 1158.28 -2.33436 0.0545974 0
M  V30 12673 C 1159.26 -1.52144 -0.760662 0
M  V30 12674 O 1160.45 -1.80661 -0.712414 0
M  V30 12675 C 1157.58 -3.36015 -0.878117 0
M  V30 12676 C 1156.53 -4.27664 -0.169511 0
M  V30 12677 C 1155.86 -5.20666 -1.21699 0
M  V30 12678 C 1157.16 -5.13254 0.967859 0
M  V30 12679 H 1158.85 -2.87791 0.825637 0
M  V30 12680 H 1156.4 -1.38377 0.398484 0
M  V30 12681 H 1158.35 -3.99526 -1.34004 0
M  V30 12682 H 1157.08 -2.80024 -1.68089 0
M  V30 12683 H 1155.73 -3.65586 0.272441 0
M  V30 12684 H 1155.38 -4.60987 -2.01246 0
M  V30 12685 H 1155.08 -5.82822 -0.747836 0
M  V30 12686 H 1156.61 -5.87053 -1.6793 0
M  V30 12687 H 1158.02 -5.70298 0.585944 0
M  V30 12688 H 1156.42 -5.84381 1.3645 0
M  V30 12689 H 1157.49 -4.5006 1.80483 0
M  V30 12690 N 1158.83 -0.446794 -1.51134 0
M  V30 12691 C 1159.74 0.36579 -2.31731 0
M  V30 12692 C 1160.76 1.01886 -1.41051 0
M  V30 12693 O 1161.93 1.01216 -1.74119 0
M  V30 12694 C 1159 1.44705 -3.15058 0
M  V30 12695 C 1158.06 0.813129 -4.21529 0
M  V30 12696 C 1157.29 1.84287 -5.00873 0
M  V30 12697 O 1157.51 3.06633 -4.8097 0
M  V30 12698 O 1156.45 1.42816 -5.84711 0
M  V30 12699 H 1160.27 -0.292436 -3.02289 0
M  V30 12700 H 1157.86 -0.209129 -1.47929 0
M  V30 12701 H 1159.74 2.07393 -3.66833 0
M  V30 12702 H 1158.42 2.08919 -2.47254 0
M  V30 12703 H 1157.32 0.147953 -3.73807 0
M  V30 12704 H 1158.66 0.214331 -4.91733 0
M  V30 12705 N 1160.31 1.56586 -0.178487 0
M  V30 12706 C 1161.24 2.21313 0.744486 0
M  V30 12707 C 1162.22 1.17098 1.23377 0
M  V30 12708 O 1163.4 1.45551 1.28563 0
M  V30 12709 C 1160.53 2.8595 1.97103 0
M  V30 12710 C 1159.49 3.96266 1.61732 0
M  V30 12711 C 1158.81 4.47987 2.91911 0
M  V30 12712 C 1160.11 5.15503 0.839868 0
M  V30 12713 H 1161.81 2.98698 0.204938 0
M  V30 12714 H 1159.35 1.43672 0.0971306 0
M  V30 12715 H 1161.31 3.29909 2.6218 0
M  V30 12716 H 1160.03 2.05946 2.53484 0
M  V30 12717 H 1158.69 3.52974 0.990208 0
M  V30 12718 H 1158.34 3.64765 3.46346 0
M  V30 12719 H 1158.04 5.22413 2.68995 0
M  V30 12720 H 1159.56 4.94637 3.58004 0
M  V30 12721 H 1160.98 5.5611 1.39337 0
M  V30 12722 H 1159.37 5.95891 0.709473 0
M  V30 12723 H 1160.44 4.84628 -0.162396 0
M  V30 12724 N 1161.79 -0.095206 1.57312 0
M  V30 12725 C 1163.01 -0.81227 1.90289 0
M  V30 12726 C 1163.43 -1.72287 0.772178 0
M  V30 12727 O 1162.79 -1.80698 -0.255841 0
M  V30 12728 C 1162.84 -1.62572 3.22882 0
M  V30 12729 O 1162.56 -0.75175 4.31602 0
M  V30 12730 C 1164.06 -2.44585 3.6972 0
M  V30 12731 H 1161.28 -0.232256 0.629522 0
M  V30 12732 H 1163.82 -0.0724733 2.04372 0
M  V30 12733 H 1161.98 -2.31803 3.10397 0
M  V30 12734 H 1162.39 -1.31514 5.07744 0
M  V30 12735 H 1163.87 -2.97155 4.65191 0
M  V30 12736 H 1164.34 -3.23044 2.97555 0
M  V30 12737 H 1164.95 -1.80554 3.85072 0
M  V30 12738 N 1163.26 -1.53291 -0.366026 0
M  V30 12739 C 1164.17 -1.82656 -1.47221 0
M  V30 12740 C 1165.19 -0.71491 -1.58635 0
M  V30 12741 O 1166.37 -1.00492 -1.74538 0
M  V30 12742 C 1163.43 -2.00995 -2.82492 0
M  V30 12743 C 1162.49 -3.24895 -2.8061 0
M  V30 12744 C 1161.73 -3.4235 -4.09429 0
M  V30 12745 O 1161.95 -2.6411 -5.05571 0
M  V30 12746 O 1160.88 -4.35702 -4.15268 0
M  V30 12747 H 1164.71 -2.76634 -1.2533 0
M  V30 12748 H 1162.29 -1.38665 -0.556084 0
M  V30 12749 H 1164.18 -2.14632 -3.62645 0
M  V30 12750 H 1162.85 -1.10207 -3.04362 0
M  V30 12751 H 1161.76 -3.16682 -1.99157 0
M  V30 12752 H 1163.09 -4.15604 -2.63694 0
M  V30 12753 N 1164.74 0.6258 -1.44643 0
M  V30 12754 C 1165.71 1.71941 -1.51555 0
M  V30 12755 C 1166.71 1.55822 -0.396988 0
M  V30 12756 O 1167.9 1.61221 -0.65981 0
M  V30 12757 C 1165.03 3.11068 -1.39461 0
M  V30 12758 H 1166.22 1.67185 -2.48976 0
M  V30 12759 H 1163.77 0.839934 -1.31814 0
M  V30 12760 H 1164.51 3.21416 -0.431534 0
M  V30 12761 H 1164.29 3.24175 -2.20574 0
M  V30 12762 H 1165.78 3.90762 -1.4729 0
M  V30 12763 N 1166.22 1.31629 0.866686 0
M  V30 12764 C 1167.18 1.1951 1.95576 0
M  V30 12765 C 1168.18 0.121319 1.60342 0
M  V30 12766 O 1169.37 0.370832 1.70207 0
M  V30 12767 C 1166.51 0.835201 3.30511 0
M  V30 12768 H 1167.7 2.16285 2.07752 0
M  V30 12769 H 1165.25 1.15288 1.05539 0
M  V30 12770 H 1165.99 -0.131245 3.24034 0
M  V30 12771 H 1165.77 1.61142 3.57457 0
M  V30 12772 H 1167.26 0.774393 4.10357 0
M  V30 12773 N 1167.7 -1.08142 1.14644 0
M  V30 12774 C 1168.65 -2.15133 0.835845 0
M  V30 12775 C 1169.62 -1.64795 -0.207785 0
M  V30 12776 O 1170.8 -1.90644 -0.07711 0
M  V30 12777 C 1167.94 -3.4359 0.322456 0
M  V30 12778 C 1167.05 -4.07761 1.42671 0
M  V30 12779 C 1166.19 -5.24022 0.870281 0
M  V30 12780 C 1165.23 -5.8014 1.95202 0
M  V30 12781 N 1164.37 -6.87743 1.41257 0
M  V30 12782 H 1169.21 -2.41042 1.75222 0
M  V30 12783 H 1166.74 -1.18288 0.874428 0
M  V30 12784 H 1168.7 -4.17199 0.00657059 0
M  V30 12785 H 1167.33 -3.17958 -0.557014 0
M  V30 12786 H 1166.38 -3.31885 1.85893 0
M  V30 12787 H 1167.69 -4.45485 2.24375 0
M  V30 12788 H 1166.85 -6.04582 0.506459 0
M  V30 12789 H 1165.59 -4.87695 0.0223118 0
M  V30 12790 H 1164.59 -4.98232 2.32476 0
M  V30 12791 H 1165.82 -6.18525 2.80363 0
M  V30 12792 H 1163.76 -6.5337 0.586826 0
M  V30 12793 H 1163.68 -7.24308 2.16596 0
M  V30 12794 H 1164.95 -7.72028 1.07674 0
M  V30 12795 N 1169.18 -0.941978 -1.26351 0
M  V30 12796 C 1170.45 -0.507822 -1.88893 0
M  V30 12797 C 1170.83 1.0146 -1.85119 0
M  V30 12798 O 1170.18 1.87495 -1.30606 0
M  V30 12799 C 1170.39 -1.07007 -3.3219 0
M  V30 12800 C 1171.74 -1.13922 -4.09032 0
M  V30 12801 O 1172.76 -1.02072 -3.41262 0
M  V30 12802 O 1171.62 -1.32362 -5.30229 0
M  V30 12803 H 1168.72 -0.165621 -0.810246 0
M  V30 12804 H 1171.26 -1.03459 -1.34515 0
M  V30 12805 H 1170.04 -2.11366 -3.29302 0
M  V30 12806 H 1169.66 -0.525797 -3.94108 0
M  V30 12807 N 1170.66 1.40747 -0.709091 0
M  V30 12808 C 1171.9 2.01003 -0.24581 0
M  V30 12809 C 1172.23 1.56203 1.15891 0
M  V30 12810 O 1171.49 0.770166 1.79908 0
M  V30 12811 C 1171.78 3.56404 -0.266685 0
M  V30 12812 C 1171.45 4.20762 -1.6208 0
M  V30 12813 C 1170.11 4.38056 -1.99148 0
M  V30 12814 C 1172.46 4.56723 -2.51105 0
M  V30 12815 C 1169.79 4.88591 -3.248 0
M  V30 12816 C 1172.14 5.08654 -3.76103 0
M  V30 12817 C 1170.81 5.24158 -4.13297 0
M  V30 12818 H 1170.08 0.73552 -0.0899481 0
M  V30 12819 H 1172.73 1.68451 -0.910844 0
M  V30 12820 H 1171.03 3.88825 0.481915 0
M  V30 12821 H 1172.73 4.0085 0.109509 0
M  V30 12822 H 1169.32 4.07685 -1.32252 0
M  V30 12823 H 1173.5 4.43004 -2.23744 0
M  V30 12824 H 1168.76 4.98779 -3.53595 0
M  V30 12825 H 1172.93 5.35457 -4.45262 0
M  V30 12826 H 1170.56 5.63079 -5.10731 0
M  V30 12827 N 1172.13 0.454803 1.50895 0
M  V30 12828 C 1173.06 -0.337982 2.31041 0
M  V30 12829 C 1174.04 -1.00523 1.37219 0
M  V30 12830 O 1175.23 -1.00553 1.66141 0
M  V30 12831 C 1172.36 -1.42964 3.1651 0
M  V30 12832 C 1171.31 -0.884907 4.18752 0
M  V30 12833 C 1170.64 -2.07363 4.92854 0
M  V30 12834 C 1171.94 0.0926716 5.22218 0
M  V30 12835 H 1173.63 0.33089 2.97566 0
M  V30 12836 H 1171.18 0.160577 1.43102 0
M  V30 12837 H 1173.13 -1.9916 3.71367 0
M  V30 12838 H 1171.86 -2.12705 2.47839 0
M  V30 12839 H 1170.52 -0.345031 3.64973 0
M  V30 12840 H 1170.16 -2.75764 4.2067 0
M  V30 12841 H 1169.86 -1.71545 5.62002 0
M  V30 12842 H 1171.39 -2.6408 5.5054 0
M  V30 12843 H 1172.8 -0.379568 5.72042 0
M  V30 12844 H 1171.2 0.3643 5.98993 0
M  V30 12845 H 1172.27 1.02383 4.73968 0
M  V30 12846 N 1173.61 -1.56489 0.186789 0
M  V30 12847 C 1174.57 -2.17478 -0.723596 0
M  V30 12848 C 1175.57 -1.12698 -1.14699 0
M  V30 12849 O 1176.76 -1.38128 -1.06143 0
M  V30 12850 C 1173.9 -2.77015 -1.98685 0
M  V30 12851 H 1175.09 -2.99282 -0.192403 0
M  V30 12852 H 1172.64 -1.56174 -0.0628153 0
M  V30 12853 H 1173.38 -1.98987 -2.56076 0
M  V30 12854 H 1173.16 -3.53711 -1.69207 0
M  V30 12855 H 1174.65 -3.23872 -2.63622 0
M  V30 12856 N 1175.09 0.086862 -1.5736 0
M  V30 12857 C 1176 1.12297 -2.05977 0
M  V30 12858 C 1177.02 1.43347 -0.986284 0
M  V30 12859 O 1178.19 1.53825 -1.3 0
M  V30 12860 C 1175.26 2.42131 -2.4814 0
M  V30 12861 C 1174.32 2.18189 -3.69719 0
M  V30 12862 C 1173.55 3.41833 -4.09861 0
M  V30 12863 O 1173.77 4.50383 -3.50016 0
M  V30 12864 O 1172.71 3.30934 -5.02759 0
M  V30 12865 H 1176.53 0.740012 -2.94546 0
M  V30 12866 H 1174.12 0.29995 -1.46358 0
M  V30 12867 H 1176 3.18568 -2.75848 0
M  V30 12868 H 1174.68 2.79837 -1.62705 0
M  V30 12869 H 1173.58 1.39506 -3.47115 0
M  V30 12870 H 1174.92 1.85372 -4.55959 0
M  V30 12871 N 1176.57 1.53483 0.357892 0
M  V30 12872 C 1177.98 1.43426 0.700073 0
M  V30 12873 C 1178.18 0.579493 1.92987 0
M  V30 12874 O 1177.24 0.0649086 2.52417 0
M  V30 12875 C 1178.55 2.86723 0.906099 0
M  V30 12876 C 1180.1 2.96405 1.00563 0
M  V30 12877 C 1180.58 4.4078 1.24407 0
M  V30 12878 N 1182.07 4.44243 1.3116 0
M  V30 12879 C 1182.8 5.53069 1.51333 0
M  V30 12880 N 1182.3 6.71928 1.68774 0
M  V30 12881 N 1184.09 5.40659 1.53765 0
M  V30 12882 H 1176.24 2.07559 -0.450894 0
M  V30 12883 H 1178.5 0.937649 -0.139711 0
M  V30 12884 H 1178.21 3.51622 0.0741579 0
M  V30 12885 H 1178.08 3.30827 1.81199 0
M  V30 12886 H 1180.47 2.31656 1.8281 0
M  V30 12887 H 1180.55 2.55684 0.0769512 0
M  V30 12888 H 1180.2 5.06105 0.426575 0
M  V30 12889 H 1180.13 4.7908 2.18608 0
M  V30 12890 H 1182.62 3.58587 1.19265 0
M  V30 12891 H 1182.93 7.50634 1.83762 0
M  V30 12892 H 1181.28 6.749 1.65937 0
M  V30 12893 H 1184.47 4.46764 1.39713 0
M  V30 12894 H 1184.64 6.25535 1.69146 0
M  V30 12895 N 1178.05 -0.61812 1.44973 0
M  V30 12896 C 1179.29 -1.37468 1.48145 0
M  V30 12897 C 1179.61 -1.94628 0.120366 0
M  V30 12898 O 1178.88 -1.76548 -0.848982 0
M  V30 12899 H 1177.46 -0.510293 0.545536 0
M  V30 12900 H 1180.13 -0.726598 1.8085 0
M  V30 12901 H 1179.22 -2.19944 2.2143 0
M  V30 12902 N 1179.52 -1.32087 -0.859693 0
M  V30 12903 C 1180.75 -1.25167 -1.64368 0
M  V30 12904 C 1181.16 0.183572 -1.88307 0
M  V30 12905 O 1180.5 1.12945 -1.44876 0
M  V30 12906 C 1180.57 -1.93641 -3.02892 0
M  V30 12907 C 1180.23 -3.4298 -3.02017 0
M  V30 12908 C 1181.23 -4.38551 -2.79229 0
M  V30 12909 C 1178.91 -3.84835 -3.22812 0
M  V30 12910 C 1180.91 -5.73952 -2.77232 0
M  V30 12911 C 1178.59 -5.20346 -3.20442 0
M  V30 12912 C 1179.59 -6.14716 -2.97681 0
M  V30 12913 O 1179.28 -7.47748 -2.95175 0
M  V30 12914 H 1179.01 -0.433327 -0.518848 0
M  V30 12915 H 1181.57 -1.7468 -1.08055 0
M  V30 12916 H 1179.8 -1.3869 -3.60974 0
M  V30 12917 H 1181.48 -1.80497 -3.63559 0
M  V30 12918 H 1182.25 -4.07542 -2.62935 0
M  V30 12919 H 1178.13 -3.11806 -3.39555 0
M  V30 12920 H 1181.67 -6.47584 -2.59385 0
M  V30 12921 H 1177.57 -5.50987 -3.36279 0
M  V30 12922 H 1178.34 -7.57046 -3.11165 0
M  V30 12923 N 1181 1.07532 -1.15215 0
M  V30 12924 C 1182.28 1.76813 -0.83646 0
M  V30 12925 C 1182.66 2.00242 0.6683 0
M  V30 12926 O 1182.01 1.61941 1.61206 0
M  V30 12927 C 1182.22 3.0779 -1.64519 0
M  V30 12928 C 1183.56 3.82168 -1.85022 0
M  V30 12929 O 1184.59 3.17596 -1.61279 0
M  V30 12930 O 1183.45 4.98135 -2.24775 0
M  V30 12931 H 1180.54 0.767736 -0.307426 0
M  V30 12932 H 1183.09 1.13914 -1.25784 0
M  V30 12933 H 1181.86 2.86342 -2.6669 0
M  V30 12934 H 1181.48 3.78419 -1.22002 0
M  V30 12935 N 1182.48 0.948665 1.2585 0
M  V30 12936 C 1183.89 0.641829 1.75321 0
M  V30 12937 C 1184.24 -0.842903 1.77171 0
M  V30 12938 O 1183.37 -1.65967 1.38867 0
M  V30 12939 C 1183.96 1.15835 3.18383 0
M  V30 12940 C 1182.52 0.901784 3.65438 0
M  V30 12941 C 1181.67 1.30489 2.44679 0
M  V30 12942 H 1184.62 1.12614 1.1182 0
M  V30 12943 H 1184.64 0.515639 3.7699 0
M  V30 12944 H 1184.15 2.23897 3.17004 0
M  V30 12945 H 1182.25 -0.164135 3.72238 0
M  V30 12946 H 1182.37 1.53405 4.53876 0
M  V30 12947 H 1180.73 0.723278 2.44215 0
M  V30 12948 H 1181.51 2.3946 2.45996 0
M  V30 12949 N 1183.96 -1.40369 0.716545 0
M  V30 12950 C 1185.2 -2.01167 0.256846 0
M  V30 12951 C 1185.54 -1.56689 -1.14727 0
M  V30 12952 O 1184.81 -0.787384 -1.7785 0
M  V30 12953 C 1185.1 -3.58511 0.337963 0
M  V30 12954 C 1184.95 -4.13059 1.78052 0
M  V30 12955 C 1186.27 -4.39142 -0.290295 0
M  V30 12956 H 1183.39 -0.730877 0.0948028 0
M  V30 12957 H 1186.03 -1.66833 0.909225 0
M  V30 12958 H 1184.18 -3.87891 -0.217482 0
M  V30 12959 H 1185.85 -3.94472 2.39143 0
M  V30 12960 H 1184.09 -3.67311 2.30793 0
M  V30 12961 H 1184.76 -5.22217 1.78867 0
M  V30 12962 H 1187.24 -4.15697 0.182987 0
M  V30 12963 H 1186.12 -5.48524 -0.203097 0
M  V30 12964 H 1186.38 -4.20209 -1.37394 0
M  V30 12965 N 1185.44 -0.462799 -1.50652 0
M  V30 12966 C 1186.68 0.0950445 -2.02277 0
M  V30 12967 C 1187.01 1.40465 -1.34536 0
M  V30 12968 O 1186.27 1.90283 -0.457279 0
M  V30 12969 C 1186.57 0.335294 -3.55824 0
M  V30 12970 C 1186.23 -0.891589 -4.41997 0
M  V30 12971 C 1184.89 -1.22799 -4.65268 0
M  V30 12972 C 1187.25 -1.70885 -4.9239 0
M  V30 12973 C 1184.57 -2.38186 -5.36175 0
M  V30 12974 C 1186.93 -2.85394 -5.64564 0
M  V30 12975 C 1185.59 -3.19458 -5.86091 0
M  V30 12976 H 1184.86 0.0347793 -0.740183 0
M  V30 12977 H 1187.51 -0.61519 -1.8135 0
M  V30 12978 H 1185.81 1.12769 -3.7522 0
M  V30 12979 H 1187.51 0.780752 -3.93326 0
M  V30 12980 H 1184.1 -0.619495 -4.24099 0
M  V30 12981 H 1188.28 -1.46215 -4.74273 0
M  V30 12982 H 1183.54 -2.64862 -5.51052 0
M  V30 12983 H 1187.71 -3.49073 -6.02595 0
M  V30 12984 H 1185.34 -4.08978 -6.40813 0
M  V30 12985 N 1186.91 1.56388 -0.195085 0
M  V30 12986 C 1188.16 1.97189 0.44281 0
M  V30 12987 C 1188.48 1.08312 1.62153 0
M  V30 12988 O 1187.75 0.154404 1.95291 0
M  V30 12989 H 1186.33 0.728188 0.166585 0
M  V30 12990 H 1189 1.92852 -0.281815 0
M  V30 12991 H 1188.09 3.02016 0.786945 0
M  V30 12992 N 1188.39 -0.0785156 1.57404 0
M  V30 12993 C 1189.36 -1.07835 2.02248 0
M  V30 12994 C 1190.36 -1.31987 0.918475 0
M  V30 12995 O 1191.55 -1.27821 1.18353 0
M  V30 12996 C 1188.68 -2.42361 2.39737 0
M  V30 12997 H 1189.87 -0.691995 2.91807 0
M  V30 12998 H 1187.42 -0.32405 1.52904 0
M  V30 12999 H 1188.16 -2.85841 1.53183 0
M  V30 13000 H 1187.94 -2.26174 3.20293 0
M  V30 13001 H 1189.43 -3.14241 2.75031 0
M  V30 13002 N 1189.87 -1.5367 -0.349747 0
M  V30 13003 C 1191.29 -1.43796 -0.692457 0
M  V30 13004 C 1191.49 -0.58972 -1.92677 0
M  V30 13005 O 1190.54 -0.078294 -2.52379 0
M  V30 13006 C 1191.86 -2.872 -0.890881 0
M  V30 13007 C 1193.4 -2.96935 -0.989892 0
M  V30 13008 C 1193.88 -4.41433 -1.22068 0
M  V30 13009 N 1195.37 -4.44932 -1.28802 0
M  V30 13010 C 1196.1 -5.53864 -1.48398 0
M  V30 13011 N 1195.6 -6.72814 -1.65208 0
M  V30 13012 N 1197.39 -5.41467 -1.50896 0
M  V30 13013 H 1189.54 -2.07317 0.461895 0
M  V30 13014 H 1191.81 -0.936895 0.144681 0
M  V30 13015 H 1191.51 -3.51656 -0.0555095 0
M  V30 13016 H 1191.39 -3.31784 -1.79442 0
M  V30 13017 H 1193.77 -2.32622 -1.81579 0
M  V30 13018 H 1193.86 -2.55721 -0.0633906 0
M  V30 13019 H 1193.5 -5.06325 -0.399729 0
M  V30 13020 H 1193.43 -4.80233 -2.16064 0
M  V30 13021 H 1195.92 -3.59214 -1.17361 0
M  V30 13022 H 1196.23 -7.51598 -1.79779 0
M  V30 13023 H 1194.58 -6.7577 -1.62356 0
M  V30 13024 H 1197.77 -4.47498 -1.37342 0
M  V30 13025 H 1197.94 -6.26423 -1.65826 0
M  V30 13026 N 1191.35 0.610423 -1.45298 0
M  V30 13027 C 1192.76 1.19234 -1.43667 0
M  V30 13028 C 1193.11 1.95523 -0.162794 0
M  V30 13029 O 1192.24 2.03507 0.735789 0
M  V30 13030 C 1192.83 2.16892 -2.60276 0
M  V30 13031 C 1191.39 2.70465 -2.61774 0
M  V30 13032 C 1190.54 1.45821 -2.35863 0
M  V30 13033 H 1193.49 0.399895 -1.53579 0
M  V30 13034 H 1193.51 2.99875 -2.34212 0
M  V30 13035 H 1193.02 1.61339 -3.52975 0
M  V30 13036 H 1191.12 3.29965 -1.73072 0
M  V30 13037 H 1191.23 3.15092 -3.60907 0
M  V30 13038 H 1189.6 1.74678 -1.85364 0
M  V30 13039 H 1190.38 0.921403 -3.30704 0
M  V30 13040 N 1192.83 1.32541 0.852676 0
M  V30 13041 C 1193.76 1.24254 1.97694 0
M  V30 13042 C 1194.74 0.125971 1.69633 0
M  V30 13043 O 1195.92 0.31347 1.91653 0
M  V30 13044 C 1193.05 0.966874 3.3357 0
M  V30 13045 C 1192.01 2.0449 3.75989 0
M  V30 13046 C 1191.33 1.6216 5.09518 0
M  V30 13047 C 1192.63 3.46013 3.91244 0
M  V30 13048 H 1194.33 2.18317 2.04886 0
M  V30 13049 H 1191.87 1.05101 0.984371 0
M  V30 13050 H 1193.83 0.895444 4.11776 0
M  V30 13051 H 1192.55 -0.0093893 3.26599 0
M  V30 13052 H 1191.21 2.10651 3.00036 0
M  V30 13053 H 1190.86 0.632729 4.99005 0
M  V30 13054 H 1190.56 2.3429 5.38871 0
M  V30 13055 H 1192.08 1.56457 5.90215 0
M  V30 13056 H 1193.49 3.4243 4.59799 0
M  V30 13057 H 1191.89 4.1651 4.32017 0
M  V30 13058 H 1192.96 3.8553 2.941 0
M  V30 13059 N 1194.3 -1.0692 1.15784 0
M  V30 13060 C 1195.72 -1.31707 0.901408 0
M  V30 13061 C 1195.92 -1.96429 -0.449203 0
M  V30 13062 O 1194.98 -2.22692 -1.19015 0
M  V30 13063 C 1196.29 -2.20391 2.04568 0
M  V30 13064 C 1197.84 -2.33827 2.08072 0
M  V30 13065 C 1198.31 -3.25862 3.21835 0
M  V30 13066 N 1199.8 -3.33444 3.21511 0
M  V30 13067 C 1200.54 -4.04731 4.06177 0
M  V30 13068 N 1200.03 -4.78596 5.00917 0
M  V30 13069 N 1201.83 -4.00717 3.94185 0
M  V30 13070 H 1193.98 -0.632989 2.02749 0
M  V30 13071 H 1196.24 -0.341587 0.88432 0
M  V30 13072 H 1195.95 -1.80102 3.02087 0
M  V30 13073 H 1195.82 -3.20943 1.9818 0
M  V30 13074 H 1198.21 -2.73367 1.11151 0
M  V30 13075 H 1198.29 -1.32964 2.18527 0
M  V30 13076 H 1197.93 -2.8704 4.19012 0
M  V30 13077 H 1197.86 -4.26689 3.08617 0
M  V30 13078 H 1200.35 -2.80798 2.52905 0
M  V30 13079 H 1200.67 -5.30499 5.61952 0
M  V30 13080 H 1199.01 -4.77598 5.04902 0
M  V30 13081 H 1202.2 -3.42126 3.1948 0
M  V30 13082 H 1202.38 -4.56008 4.60392 0
M  V30 13083 N 1195.78 -0.955326 -1.25345 0
M  V30 13084 C 1197.2 -0.659863 -1.4532 0
M  V30 13085 C 1197.4 0.78238 -1.85691 0
M  V30 13086 O 1196.45 1.5576 -1.98734 0
M  V30 13087 C 1197.77 -1.63339 -2.5247 0
M  V30 13088 C 1199.32 -1.64464 -2.66309 0
M  V30 13089 C 1199.79 -2.60583 -3.76644 0
M  V30 13090 N 1201.28 -2.58951 -3.84055 0
M  V30 13091 C 1202.02 -3.30002 -4.6892 0
M  V30 13092 N 1201.51 -4.10528 -5.58067 0
M  V30 13093 N 1203.31 -3.18886 -4.62891 0
M  V30 13094 H 1195.46 -1.88734 -0.97433 0
M  V30 13095 H 1197.72 -0.811858 -0.48948 0
M  V30 13096 H 1197.43 -2.66358 -2.29665 0
M  V30 13097 H 1197.3 -1.39644 -3.50399 0
M  V30 13098 H 1199.69 -0.621622 -2.88479 0
M  V30 13099 H 1199.77 -1.92218 -1.68778 0
M  V30 13100 H 1199.41 -3.63011 -3.55226 0
M  V30 13101 H 1199.34 -2.30113 -4.73662 0
M  V30 13102 H 1201.83 -2.00491 -3.20331 0
M  V30 13103 H 1202.15 -4.6166 -6.1975 0
M  V30 13104 H 1200.49 -4.14626 -5.57773 0
M  V30 13105 H 1203.68 -2.55447 -3.92255 0
M  V30 13106 H 1203.85 -3.74524 -5.28806 0
M  V30 13107 N 1197.26 1.39987 -0.723979 0
M  V30 13108 C 1198.51 2.01028 -0.267511 0
M  V30 13109 C 1198.84 1.57295 1.13894 0
M  V30 13110 O 1198.12 0.796805 1.7743 0
M  V30 13111 C 1198.4 3.58326 -0.356971 0
M  V30 13112 C 1198.25 4.12109 -1.8024 0
M  V30 13113 C 1199.57 4.39289 0.267003 0
M  V30 13114 H 1196.69 0.730364 -0.0986775 0
M  V30 13115 H 1199.33 1.66348 -0.91806 0
M  V30 13116 H 1197.48 3.88001 0.196908 0
M  V30 13117 H 1199.15 3.93199 -2.41231 0
M  V30 13118 H 1197.4 3.66082 -2.32737 0
M  V30 13119 H 1198.07 5.21261 -1.81634 0
M  V30 13120 H 1200.54 4.15595 -0.20503 0
M  V30 13121 H 1199.42 5.48624 0.174004 0
M  V30 13122 H 1199.68 4.20931 1.35164 0
M  V30 13123 N 1198.74 0.470782 1.50404 0
M  V30 13124 C 1199.99 -0.0859981 2.01517 0
M  V30 13125 C 1200.3 -1.40811 1.35763 0
M  V30 13126 O 1201.51 -2.04982 1.7803 0
M  V30 13127 C 1199.96 -0.203773 3.59323 0
M  V30 13128 C 1199.57 1.10989 4.34034 0
M  V30 13129 C 1201.32 -0.712528 4.18477 0
M  V30 13130 C 1199.22 0.955928 5.83623 0
M  V30 13131 H 1198.15 -0.0359142 0.753144 0
M  V30 13132 H 1200.8 0.605631 1.73218 0
M  V30 13133 H 1199.19 -0.959177 3.84208 0
M  V30 13134 H 1200.36 1.87623 4.20873 0
M  V30 13135 H 1198.67 1.54973 3.86487 0
M  V30 13136 H 1201.27 -0.844745 5.27985 0
M  V30 13137 H 1201.61 -1.70377 3.79838 0
M  V30 13138 H 1202.15 -0.0145179 3.97797 0
M  V30 13139 H 1198.89 1.92054 6.26734 0
M  V30 13140 H 1198.41 0.22997 5.99359 0
M  V30 13141 H 1200.09 0.622423 6.43999 0
M  V30 13142 N 1200.22 -1.56282 0.203376 0
M  V30 13143 C 1201.15 -2.16714 -0.74616 0
M  V30 13144 C 1202.16 -1.13121 -1.17079 0
M  V30 13145 O 1203.35 -1.40179 -1.10509 0
M  V30 13146 C 1200.45 -2.72115 -2.02007 0
M  V30 13147 C 1199.62 -4.00695 -1.75391 0
M  V30 13148 C 1198.68 -4.40839 -2.8731 0
M  V30 13149 O 1197.71 -5.081 -2.56561 0
M  V30 13150 N 1198.91 -4.05024 -4.15856 0
M  V30 13151 H 1201.68 -2.98821 -0.229326 0
M  V30 13152 H 1199.24 -1.61885 0.0217049 0
M  V30 13153 H 1201.23 -2.95951 -2.76035 0
M  V30 13154 H 1199.8 -1.94415 -2.44789 0
M  V30 13155 H 1199.02 -3.84905 -0.851 0
M  V30 13156 H 1200.31 -4.8461 -1.55017 0
M  V30 13157 H 1199.71 -3.50938 -4.43688 0
M  V30 13158 H 1198.26 -4.33792 -4.86485 0
M  V30 13159 N 1201.7 0.070167 -1.57444 0
M  V30 13160 C 1203.11 0.424991 -1.53838 0
M  V30 13161 C 1203.31 1.79076 -0.923793 0
M  V30 13162 O 1202.37 2.46939 -0.527002 0
M  V30 13163 C 1203.68 0.364562 -2.98482 0
M  V30 13164 C 1205.23 0.444631 -3.09826 0
M  V30 13165 C 1205.7 0.414093 -4.56124 0
M  V30 13166 N 1207.19 0.474119 -4.60767 0
M  V30 13167 C 1207.93 0.472729 -5.71448 0
M  V30 13168 N 1207.43 0.426059 -6.91489 0
M  V30 13169 N 1209.22 0.519408 -5.59695 0
M  V30 13170 H 1201.37 -0.824117 -1.9576 0
M  V30 13171 H 1203.63 -0.309401 -0.896089 0
M  V30 13172 H 1203.34 -0.572343 -3.47012 0
M  V30 13173 H 1203.21 1.17414 -3.5846 0
M  V30 13174 H 1205.6 1.37196 -2.61269 0
M  V30 13175 H 1205.68 -0.393547 -2.52755 0
M  V30 13176 H 1205.32 -0.509394 -5.05339 0
M  V30 13177 H 1205.25 1.26983 -5.11061 0
M  V30 13178 H 1207.75 0.514371 -3.74383 0
M  V30 13179 H 1208.06 0.428969 -7.71609 0
M  V30 13180 H 1206.4 0.392722 -6.9389 0
M  V30 13181 H 1209.59 0.553573 -4.64815 0
M  V30 13182 H 1209.77 0.514856 -6.45951 0
M  V30 13183 N 1203.17 1.53854 0.341593 0
M  V30 13184 C 1204.08 1.84975 1.44297 0
M  V30 13185 C 1205.1 0.740057 1.57477 0
M  V30 13186 O 1206.28 1.03256 1.72917 0
M  V30 13187 C 1203.34 2.05464 2.79259 0
M  V30 13188 C 1202.4 3.29318 2.75405 0
M  V30 13189 C 1201.63 3.4882 4.03931 0
M  V30 13190 O 1201.86 2.7212 5.01305 0
M  V30 13191 O 1200.79 4.42253 4.08284 0
M  V30 13192 H 1204.62 2.78592 1.20913 0
M  V30 13193 H 1202.2 1.39532 0.533953 0
M  V30 13194 H 1204.08 2.20374 3.59184 0
M  V30 13195 H 1202.76 1.15035 3.0257 0
M  V30 13196 H 1201.67 3.1981 1.94094 0
M  V30 13197 H 1203 4.19746 2.57049 0
M  V30 13198 N 1204.65 -0.602709 1.4562 0
M  V30 13199 C 1205.58 -1.72374 1.5751 0
M  V30 13200 C 1206.56 -1.64669 0.426389 0
M  V30 13201 O 1207.75 -1.82994 0.650143 0
M  V30 13202 C 1204.88 -3.10987 1.5461 0
M  V30 13203 C 1203.83 -3.33507 2.68248 0
M  V30 13204 C 1203.16 -4.72443 2.50403 0
M  V30 13205 C 1204.46 -3.23285 4.10224 0
M  V30 13206 H 1206.15 -1.62679 2.51348 0
M  V30 13207 H 1203.7 -0.781217 1.20967 0
M  V30 13208 H 1205.65 -3.89214 1.61525 0
M  V30 13209 H 1204.37 -3.21533 0.573049 0
M  V30 13210 H 1203.03 -2.57672 2.60769 0
M  V30 13211 H 1202.68 -4.79729 1.51226 0
M  V30 13212 H 1202.38 -4.88466 3.26611 0
M  V30 13213 H 1203.91 -5.52864 2.59179 0
M  V30 13214 H 1205.32 -3.91381 4.1892 0
M  V30 13215 H 1203.72 -3.50837 4.86861 0
M  V30 13216 H 1204.79 -2.20652 4.31788 0
M  V30 13217 N 1206.13 -1.32992 -0.845635 0
M  V30 13218 C 1207.04 -1.24701 -1.98713 0
M  V30 13219 C 1208.06 -0.158864 -1.73273 0
M  V30 13220 O 1209.23 -0.381209 -1.97759 0
M  V30 13221 C 1206.3 -0.979524 -3.32575 0
M  V30 13222 C 1205.36 -2.15701 -3.71176 0
M  V30 13223 C 1204.59 -1.90219 -4.98651 0
M  V30 13224 O 1204.81 -0.849171 -5.64044 0
M  V30 13225 O 1203.75 -2.76571 -5.34595 0
M  V30 13226 H 1207.57 -2.20683 -2.08645 0
M  V30 13227 H 1205.16 -1.12971 -0.97765 0
M  V30 13228 H 1207.04 -0.847219 -4.12796 0
M  V30 13229 H 1205.72 -0.0499398 -3.23661 0
M  V30 13230 H 1204.62 -2.34483 -2.91494 0
M  V30 13231 H 1205.96 -3.0697 -3.84747 0
M  V30 13232 N 1207.61 1.06304 -1.1635 0
M  V30 13233 C 1208.84 1.82799 -0.96913 0
M  V30 13234 C 1209.25 1.82526 0.482659 0
M  V30 13235 O 1208.61 1.24437 1.33498 0
M  V30 13236 C 1208.66 3.29417 -1.48884 0
M  V30 13237 O 1208.38 3.29803 -2.88377 0
M  V30 13238 C 1209.88 4.22642 -1.33748 0
M  V30 13239 H 1207.1 0.576388 -0.343537 0
M  V30 13240 H 1209.64 1.34122 -1.54375 0
M  V30 13241 H 1207.8 3.75406 -0.956509 0
M  V30 13242 H 1208.21 4.21486 -3.1217 0
M  V30 13243 H 1209.69 5.23545 -1.74942 0
M  V30 13244 H 1210.16 4.38287 -0.283021 0
M  V30 13245 H 1210.77 3.82499 -1.85942 0
M  V30 13246 N 1209.09 0.96196 1.24836 0
M  V30 13247 C 1210.5 0.660388 1.7463 0
M  V30 13248 C 1210.85 -0.824064 1.78055 0
M  V30 13249 O 1209.97 -1.64485 1.40619 0
M  V30 13250 C 1210.57 1.19205 3.17137 0
M  V30 13251 C 1209.13 0.940493 3.64461 0
M  V30 13252 C 1208.27 1.33076 2.43282 0
M  V30 13253 H 1211.22 1.13794 1.1062 0
M  V30 13254 H 1211.25 0.555595 3.76422 0
M  V30 13255 H 1210.76 2.27247 3.14612 0
M  V30 13256 H 1208.86 -0.124645 3.72391 0
M  V30 13257 H 1208.97 1.5821 4.52224 0
M  V30 13258 H 1207.34 0.749139 2.43434 0
M  V30 13259 H 1208.12 2.42055 2.43442 0
M  V30 13260 N 1210.56 -1.39601 0.731392 0
M  V30 13261 C 1211.49 -2.33268 0.1041 0
M  V30 13262 C 1212.47 -1.53724 -0.728219 0
M  V30 13263 O 1213.66 -1.82131 -0.673933 0
M  V30 13264 C 1210.79 -3.37802 -0.806646 0
M  V30 13265 C 1209.74 -4.27928 -0.0787588 0
M  V30 13266 C 1209.07 -5.23131 -1.10628 0
M  V30 13267 C 1210.37 -5.11086 1.07651 0
M  V30 13268 H 1212.06 -2.85975 0.886496 0
M  V30 13269 H 1209.61 -1.375 0.427746 0
M  V30 13270 H 1211.56 -4.02278 -1.25499 0
M  V30 13271 H 1210.29 -2.83527 -1.62112 0
M  V30 13272 H 1208.95 -3.64926 0.349926 0
M  V30 13273 H 1208.59 -4.65152 -1.91422 0
M  V30 13274 H 1208.29 -5.84277 -0.624043 0
M  V30 13275 H 1209.82 -5.90483 -1.5544 0
M  V30 13276 H 1211.23 -5.68927 0.706781 0
M  V30 13277 H 1209.63 -5.81356 1.48814 0
M  V30 13278 H 1210.7 -4.46131 1.89988 0
M  V30 13279 N 1212.04 -0.478751 -1.50152 0
M  V30 13280 C 1213.01 0.300181 -2.27226 0
M  V30 13281 C 1214.01 0.913705 -1.32318 0
M  V30 13282 O 1215.2 0.781692 -1.55677 0
M  V30 13283 C 1212.33 1.42838 -3.09532 0
M  V30 13284 H 1213.52 -0.375845 -2.97536 0
M  V30 13285 H 1211.07 -0.233037 -1.54553 0
M  V30 13286 H 1211.81 2.13923 -2.43737 0
M  V30 13287 H 1211.59 0.994161 -3.79287 0
M  V30 13288 H 1213.08 1.97765 -3.67802 0
M  V30 13289 N 1213.52 1.56172 -0.211661 0
M  V30 13290 C 1214.45 2.17107 0.734657 0
M  V30 13291 C 1215.47 1.1374 1.16478 0
M  V30 13292 O 1216.65 1.40763 1.09764 0
M  V30 13293 C 1213.75 2.73182 2.00561 0
M  V30 13294 C 1212.93 4.0162 1.73264 0
M  V30 13295 C 1211.99 4.42357 2.84968 0
M  V30 13296 O 1211.01 5.09453 2.53863 0
M  V30 13297 N 1212.21 4.07223 4.13702 0
M  V30 13298 H 1214.98 2.98939 0.213475 0
M  V30 13299 H 1212.54 1.61872 -0.0302898 0
M  V30 13300 H 1214.53 2.97411 2.74461 0
M  V30 13301 H 1213.1 1.9571 2.43754 0
M  V30 13302 H 1212.32 3.85351 0.830575 0
M  V30 13303 H 1213.61 4.85426 1.52445 0
M  V30 13304 H 1213.01 3.53286 4.4182 0
M  V30 13305 H 1211.57 4.36366 4.84178 0
M  V30 13306 N 1215 -0.0618163 1.57479 0
M  V30 13307 C 1215.95 -1.0724 2.04373 0
M  V30 13308 C 1216.92 -1.37875 0.926271 0
M  V30 13309 O 1218.1 -1.48772 1.19463 0
M  V30 13310 C 1215.24 -2.37805 2.50085 0
M  V30 13311 C 1214.35 -2.13614 3.7549 0
M  V30 13312 C 1213.49 -3.37814 4.09945 0
M  V30 13313 C 1212.53 -3.09032 5.28361 0
M  V30 13314 N 1211.66 -4.25591 5.58406 0
M  V30 13315 H 1216.5 -0.665536 2.90473 0
M  V30 13316 H 1214.04 -0.317043 1.43643 0
M  V30 13317 H 1216 -3.14048 2.74644 0
M  V30 13318 H 1214.63 -2.76275 1.66948 0
M  V30 13319 H 1213.68 -1.28017 3.58212 0
M  V30 13320 H 1214.99 -1.88361 4.61867 0
M  V30 13321 H 1214.15 -4.22447 4.35458 0
M  V30 13322 H 1212.89 -3.66153 3.22154 0
M  V30 13323 H 1211.89 -2.22797 5.02635 0
M  V30 13324 H 1213.12 -2.82006 6.17778 0
M  V30 13325 H 1211.06 -4.53941 4.73575 0
M  V30 13326 H 1210.98 -4.03646 6.39223 0
M  V30 13327 H 1212.25 -5.11191 5.88476 0
M  V30 13328 N 1216.48 -1.54033 -0.333429 0
M  V30 13329 C 1217.73 -1.70979 -1.07 0
M  V30 13330 C 1218.04 -0.485095 -1.89489 0
M  V30 13331 O 1219.24 -0.535712 -2.66162 0
M  V30 13332 C 1217.7 -3.02382 -1.95175 0
M  V30 13333 C 1217.31 -4.32223 -1.17844 0
M  V30 13334 C 1219.05 -3.28693 -2.68628 0
M  V30 13335 C 1216.96 -5.54693 -2.05109 0
M  V30 13336 H 1215.89 -0.637152 -0.403179 0
M  V30 13337 H 1218.54 -1.80529 -0.328839 0
M  V30 13338 H 1216.92 -2.86714 -2.73151 0
M  V30 13339 H 1218.1 -4.58626 -0.447089 0
M  V30 13340 H 1216.41 -4.12601 -0.561166 0
M  V30 13341 H 1219.01 -4.17385 -3.34207 0
M  V30 13342 H 1219.35 -2.46141 -3.35738 0
M  V30 13343 H 1219.88 -3.45183 -1.9772 0
M  V30 13344 H 1216.62 -6.39818 -1.42523 0
M  V30 13345 H 1216.14 -5.32524 -2.76005 0
M  V30 13346 H 1217.82 -5.90722 -2.63926 0
M  V30 13347 N 1217.95 0.594978 -1.45938 0
M  V30 13348 C 1218.88 1.71536 -1.58422 0
M  V30 13349 C 1219.87 1.64441 -0.435116 0
M  V30 13350 O 1221.05 1.82647 -0.659839 0
M  V30 13351 C 1218.18 3.10163 -1.56257 0
M  V30 13352 C 1217.13 3.3208 -2.70013 0
M  V30 13353 C 1216.46 4.71108 -2.52905 0
M  V30 13354 C 1217.76 3.21105 -4.11933 0
M  V30 13355 H 1219.45 1.61344 -2.52207 0
M  V30 13356 H 1217 0.774791 -1.2138 0
M  V30 13357 H 1218.95 3.88352 -1.63587 0
M  V30 13358 H 1217.68 3.21225 -0.590093 0
M  V30 13359 H 1216.34 2.56286 -2.62132 0
M  V30 13360 H 1215.98 4.7892 -1.53768 0
M  V30 13361 H 1215.68 4.86727 -3.29197 0
M  V30 13362 H 1217.21 5.51482 -2.62107 0
M  V30 13363 H 1218.62 3.89153 -4.2099 0
M  V30 13364 H 1217.02 3.4825 -4.88715 0
M  V30 13365 H 1218.09 2.18359 -4.32952 0
M  V30 13366 N 1219.43 1.33438 0.838571 0
M  V30 13367 C 1220.4 1.23632 1.92997 0
M  V30 13368 C 1221.4 0.155302 1.60048 0
M  V30 13369 O 1222.59 0.406852 1.69382 0
M  V30 13370 C 1219.72 0.90512 3.28665 0
M  V30 13371 H 1220.91 2.20643 2.03117 0
M  V30 13372 H 1218.46 1.17501 1.03069 0
M  V30 13373 H 1219.2 -0.0624833 3.2424 0
M  V30 13374 H 1218.98 1.68688 3.53959 0
M  V30 13375 H 1220.47 0.861262 4.08622 0
M  V30 13376 N 1220.91 -1.05686 1.16912 0
M  V30 13377 C 1222.16 -1.78244 0.95254 0
M  V30 13378 C 1222.48 -1.87924 -0.520525 0
M  V30 13379 O 1221.75 -1.39239 -1.37802 0
M  V30 13380 H 1220.33 -0.660228 0.349439 0
M  V30 13381 H 1222.99 -1.27634 1.47294 0
M  V30 13382 H 1222.09 -2.80102 1.37657 0
M  V30 13383 N 1222.39 -0.968567 -1.24324 0
M  V30 13384 C 1223.3 -0.50703 -2.29055 0
M  V30 13385 C 1224.31 0.432431 -1.68541 0
M  V30 13386 O 1225.49 0.30526 -1.99073 0
M  V30 13387 C 1222.56 0.194589 -3.46153 0
M  V30 13388 C 1221.62 -0.784805 -4.22066 0
M  V30 13389 C 1220.85 -0.116574 -5.33573 0
M  V30 13390 O 1221.07 1.09492 -5.59792 0
M  V30 13391 O 1220.01 -0.809171 -5.96436 0
M  V30 13392 H 1223.83 -1.3777 -2.70653 0
M  V30 13393 H 1221.42 -0.735645 -1.30033 0
M  V30 13394 H 1223.3 0.588684 -4.17268 0
M  V30 13395 H 1221.97 1.04021 -3.06531 0
M  V30 13396 H 1220.88 -1.22938 -3.53323 0
M  V30 13397 H 1222.21 -1.59887 -4.65507 0
M  V30 13398 N 1223.87 1.39211 -0.738786 0
M  V30 13399 C 1225.11 2.00733 -0.288817 0
M  V30 13400 C 1225.45 1.58494 1.1222 0
M  V30 13401 O 1224.72 0.815579 1.76575 0
M  V30 13402 C 1225 3.57928 -0.394956 0
M  V30 13403 C 1224.86 4.10174 -1.84601 0
M  V30 13404 C 1226.18 4.39548 0.220395 0
M  V30 13405 H 1223.29 0.729276 -0.106418 0
M  V30 13406 H 1225.94 1.65365 -0.935652 0
M  V30 13407 H 1224.09 3.88188 0.155744 0
M  V30 13408 H 1225.76 3.90618 -2.45388 0
M  V30 13409 H 1224 3.63593 -2.36607 0
M  V30 13410 H 1224.67 5.19305 -1.87152 0
M  V30 13411 H 1227.15 4.15354 -0.249098 0
M  V30 13412 H 1226.02 5.48778 0.115806 0
M  V30 13413 H 1226.29 4.22341 1.30691 0
M  V30 13414 N 1225.34 0.486708 1.49896 0
M  V30 13415 C 1226.29 -0.299294 2.28851 0
M  V30 13416 C 1227.26 -0.973251 1.346 0
M  V30 13417 O 1228.45 -0.982678 1.63548 0
M  V30 13418 C 1225.59 -1.36624 3.16904 0
M  V30 13419 C 1224.7 -0.705492 4.262 0
M  V30 13420 C 1223.83 -1.75165 5.01488 0
M  V30 13421 C 1222.87 -1.072 6.0264 0
M  V30 13422 N 1222.01 -2.06172 6.71147 0
M  V30 13423 H 1226.85 0.380272 2.95564 0
M  V30 13424 H 1224.39 0.199377 1.45743 0
M  V30 13425 H 1226.35 -1.99666 3.66319 0
M  V30 13426 H 1224.98 -2.01476 2.52205 0
M  V30 13427 H 1224.03 0.0378757 3.80381 0
M  V30 13428 H 1225.34 -0.169774 4.98511 0
M  V30 13429 H 1224.49 -2.45749 5.547 0
M  V30 13430 H 1223.23 -2.3212 4.28919 0
M  V30 13431 H 1222.24 -0.351868 5.48673 0
M  V30 13432 H 1223.46 -0.509139 6.77189 0
M  V30 13433 H 1221.41 -2.62115 6.01358 0
M  V30 13434 H 1221.33 -1.57627 7.39385 0
M  V30 13435 H 1222.59 -2.76088 7.28969 0
M  V30 13436 N 1226.82 -1.56058 0.219941 0
M  V30 13437 C 1227.73 -2.23844 -0.70222 0
M  V30 13438 C 1228.75 -1.24554 -1.215 0
M  V30 13439 O 1229.93 -1.57362 -1.25695 0
M  V30 13440 C 1226.99 -2.90384 -1.89416 0
M  V30 13441 C 1226.05 -4.05012 -1.42351 0
M  V30 13442 C 1225.28 -4.68369 -2.55863 0
M  V30 13443 O 1225.51 -4.3071 -3.73958 0
M  V30 13444 O 1224.44 -5.5739 -2.27157 0
M  V30 13445 H 1228.27 -3.03305 -0.15478 0
M  V30 13446 H 1225.85 -1.49396 -0.010438 0
M  V30 13447 H 1227.73 -3.32389 -2.59028 0
M  V30 13448 H 1226.41 -2.13883 -2.42973 0
M  V30 13449 H 1225.32 -3.67579 -0.695448 0
M  V30 13450 H 1226.65 -4.83251 -0.934332 0
M  V30 13451 N 1228.3 0.053464 -1.57509 0
M  V30 13452 C 1229.55 0.747622 -1.87763 0
M  V30 13453 C 1229.87 1.77178 -0.814433 0
M  V30 13454 O 1229.14 1.95287 0.154862 0
M  V30 13455 H 1227.72 0.279109 -0.692898 0
M  V30 13456 H 1230.38 0.0252006 -1.94884 0
M  V30 13457 H 1229.48 1.25244 -2.85868 0
M  V30 13458 N 1229.78 1.54207 0.325255 0
M  V30 13459 C 1231.06 1.6298 1.08153 0
M  V30 13460 C 1231.44 0.462583 2.05969 0
M  V30 13461 O 1230.78 -0.543323 2.21947 0
M  V30 13462 C 1230.99 2.999 1.78497 0
M  V30 13463 C 1232.34 3.55888 2.3158 0
M  V30 13464 O 1233.37 3.02194 1.88566 0
M  V30 13465 O 1232.23 4.49847 3.10322 0
M  V30 13466 H 1229.32 0.659923 0.498429 0
M  V30 13467 H 1231.87 1.66553 0.325282 0
M  V30 13468 H 1230.64 3.7629 1.07338 0
M  V30 13469 H 1230.26 2.99997 2.60936 0
M  V30 13470 N 1231.26 -0.58723 1.46251 0
M  V30 13471 C 1232.67 -0.910129 1.31106 0
M  V30 13472 C 1232.87 -1.99557 0.279141 0
M  V30 13473 O 1231.93 -2.50466 -0.319867 0
M  V30 13474 C 1233.24 -1.33177 2.69601 0
M  V30 13475 C 1234.79 -1.44486 2.77656 0
M  V30 13476 C 1235.27 -1.90018 4.16722 0
M  V30 13477 N 1236.76 -1.97219 4.19117 0
M  V30 13478 C 1237.49 -2.33714 5.23608 0
M  V30 13479 N 1236.99 -2.69034 6.3843 0
M  V30 13480 N 1238.78 -2.3423 5.10972 0
M  V30 13481 H 1230.93 0.12987 2.12003 0
M  V30 13482 H 1233.19 -0.00456718 0.947989 0
M  V30 13483 H 1232.9 -0.608243 3.464 0
M  V30 13484 H 1232.77 -2.29421 2.99409 0
M  V30 13485 H 1235.16 -2.15926 2.01147 0
M  V30 13486 H 1235.24 -0.465047 2.51537 0
M  V30 13487 H 1234.89 -1.19159 4.93724 0
M  V30 13488 H 1234.82 -2.88949 4.40245 0
M  V30 13489 H 1237.31 -1.72431 3.36268 0
M  V30 13490 H 1237.62 -2.95822 7.13939 0
M  V30 13491 H 1235.97 -2.66683 6.41798 0
M  V30 13492 H 1239.16 -2.06056 4.20308 0
M  V30 13493 H 1239.33 -2.62345 5.92519 0
M  V30 13494 N 1232.74 -1.33881 -0.831482 0
M  V30 13495 C 1233.98 -1.25942 -1.58955 0
M  V30 13496 C 1234.31 0.172542 -1.93432 0
M  V30 13497 O 1233.59 1.11577 -1.59314 0
M  V30 13498 C 1233.87 -2.14193 -2.89471 0
M  V30 13499 C 1233.73 -3.65883 -2.61628 0
M  V30 13500 C 1235.04 -2.02071 -3.90967 0
M  V30 13501 H 1232.16 -0.458841 -0.576744 0
M  V30 13502 H 1234.81 -1.64052 -0.958482 0
M  V30 13503 H 1232.96 -1.81821 -3.43327 0
M  V30 13504 H 1234.63 -4.08581 -2.14148 0
M  V30 13505 H 1232.87 -3.87397 -1.95208 0
M  V30 13506 H 1233.54 -4.22988 -3.54662 0
M  V30 13507 H 1236.02 -2.30476 -3.46439 0
M  V30 13508 H 1234.89 -2.66059 -4.80108 0
M  V30 13509 H 1235.15 -0.995121 -4.30755 0
M  V30 13510 N 1234.21 1.05064 -1.1747 0
M  V30 13511 C 1235.15 2.12842 -0.850344 0
M  V30 13512 C 1236.16 1.62128 0.147796 0
M  V30 13513 O 1237.35 1.78327 -0.0786774 0
M  V30 13514 C 1234.45 3.37995 -0.247486 0
M  V30 13515 C 1233.62 4.17981 -1.28881 0
M  V30 13516 C 1232.68 5.21476 -0.703476 0
M  V30 13517 O 1231.71 5.52327 -1.37561 0
M  V30 13518 N 1232.91 5.78309 0.50387 0
M  V30 13519 H 1235.67 2.41264 -1.77797 0
M  V30 13520 H 1233.23 1.21172 -1.07373 0
M  V30 13521 H 1235.23 4.04394 0.157424 0
M  V30 13522 H 1233.8 3.07097 0.583952 0
M  V30 13523 H 1233.02 3.47054 -1.86942 0
M  V30 13524 H 1234.3 4.6822 -1.99116 0
M  V30 13525 H 1233.7 5.5553 1.06787 0
M  V30 13526 H 1232.26 6.46223 0.850828 0
M  V30 13527 N 1235.69 0.975146 1.23809 0
M  V30 13528 C 1236.94 0.642074 1.92367 0
M  V30 13529 C 1237.27 -0.82164 1.75962 0
M  V30 13530 O 1236.55 -1.59205 1.11732 0
M  V30 13531 C 1236.83 1.02677 3.45151 0
M  V30 13532 C 1236.68 2.54773 3.7069 0
M  V30 13533 C 1238 0.5668 4.36435 0
M  V30 13534 H 1235.12 0.234735 0.698619 0
M  V30 13535 H 1237.76 1.21549 1.46034 0
M  V30 13536 H 1235.91 0.538846 3.84745 0
M  V30 13537 H 1237.58 3.11099 3.4061 0
M  V30 13538 H 1235.83 2.97641 3.15583 0
M  V30 13539 H 1236.5 2.7674 4.77618 0
M  V30 13540 H 1238.97 0.985635 4.04258 0
M  V30 13541 H 1237.85 0.864458 5.4205 0
M  V30 13542 H 1238.11 -0.532989 4.38875 0
M  V30 13543 N 1237.17 -1.38817 0.746158 0
M  V30 13544 C 1238.45 -1.94303 0.224841 0
M  V30 13545 C 1238.83 -1.68207 -1.27552 0
M  V30 13546 O 1238.17 -1.01647 -2.04646 0
M  V30 13547 C 1238.38 -3.44306 0.5705 0
M  V30 13548 C 1239.73 -4.21329 0.526015 0
M  V30 13549 O 1240.76 -3.52554 0.508351 0
M  V30 13550 O 1239.62 -5.4392 0.530383 0
M  V30 13551 H 1236.71 -0.825785 0.0448047 0
M  V30 13552 H 1239.26 -1.48253 0.825775 0
M  V30 13553 H 1238.03 -3.56779 1.60701 0
M  V30 13554 H 1237.65 -3.97556 -0.0588271 0
M  V30 13555 N 1238.65 -0.49465 -1.49636 0
M  V30 13556 C 1239.89 0.0521945 -2.02733 0
M  V30 13557 C 1240.23 1.3723 -1.37411 0
M  V30 13558 O 1239.5 1.87758 -0.507642 0
M  V30 13559 C 1239.78 0.2114 -3.59479 0
M  V30 13560 C 1239.64 -1.13138 -4.35339 0
M  V30 13561 C 1240.96 0.955015 -4.29613 0
M  V30 13562 H 1238.08 0.0174946 -0.736792 0
M  V30 13563 H 1240.72 -0.644827 -1.78723 0
M  V30 13564 H 1238.87 0.805078 -3.80067 0
M  V30 13565 H 1240.54 -1.76345 -4.26263 0
M  V30 13566 H 1238.78 -1.72224 -3.98147 0
M  V30 13567 H 1239.45 -0.97336 -5.4335 0
M  V30 13568 H 1241.93 0.451575 -4.13642 0
M  V30 13569 H 1240.81 1.03524 -5.39049 0
M  V30 13570 H 1241.07 1.99724 -3.94414 0
M  V30 13571 N 1240.13 1.55939 -0.228214 0
M  V30 13572 C 1241.37 1.98084 0.400884 0
M  V30 13573 C 1241.69 1.11727 1.59819 0
M  V30 13574 O 1240.96 0.195794 1.94919 0
M  V30 13575 H 1239.54 0.731558 0.151102 0
M  V30 13576 H 1242.21 1.92211 -0.322659 0
M  V30 13577 H 1241.3 3.03617 0.722706 0
M  V30 13578 N 1241.6 -0.0451101 1.57535 0
M  V30 13579 C 1243.02 -0.59372 1.77008 0
M  V30 13580 C 1243.37 -1.76482 0.857233 0
M  V30 13581 O 1242.49 -2.16347 0.0479703 0
M  V30 13582 C 1243.09 -1.08383 3.20996 0
M  V30 13583 C 1241.65 -1.57808 3.41721 0
M  V30 13584 C 1240.79 -0.509067 2.72587 0
M  V30 13585 H 1243.74 0.181114 1.57663 0
M  V30 13586 H 1243.76 -1.95181 3.26626 0
M  V30 13587 H 1243.28 -0.231276 3.8741 0
M  V30 13588 H 1241.38 -2.45302 2.8046 0
M  V30 13589 H 1241.49 -1.63664 4.50279 0
M  V30 13590 H 1239.85 -0.960389 2.359 0
M  V30 13591 H 1240.64 0.333753 3.41674 0
M  V30 13592 N 1243.08 -1.54377 -0.317073 0
M  V30 13593 C 1244.05 -1.83488 -1.37349 0
M  V30 13594 C 1245.05 -0.706981 -1.44424 0
M  V30 13595 O 1246.24 -0.975289 -1.44339 0
M  V30 13596 C 1243.37 -2.00074 -2.76013 0
M  V30 13597 H 1244.56 -2.77883 -1.12789 0
M  V30 13598 H 1242.11 -1.46194 -0.552902 0
M  V30 13599 H 1242.85 -1.07913 -3.05819 0
M  V30 13600 H 1242.63 -2.82155 -2.7227 0
M  V30 13601 H 1244.12 -2.24022 -3.52426 0
M  V30 13602 N 1244.56 0.579466 -1.4656 0
M  V30 13603 C 1245.81 1.33492 -1.51738 0
M  V30 13604 C 1246.13 1.94241 -0.171926 0
M  V30 13605 O 1245.4 1.78737 0.801875 0
M  V30 13606 H 1243.98 0.49565 -0.558874 0
M  V30 13607 H 1246.64 0.678394 -1.82712 0
M  V30 13608 H 1245.74 2.13995 -2.27183 0
M  V30 13609 N 1246.04 1.3432 0.824371 0
M  V30 13610 C 1246.97 1.2842 1.95014 0
M  V30 13611 C 1247.95 0.161925 1.69328 0
M  V30 13612 O 1249.13 0.354052 1.90945 0
M  V30 13613 C 1246.26 1.03741 3.31444 0
M  V30 13614 C 1245.22 2.12419 3.71567 0
M  V30 13615 C 1244.54 1.72931 5.05963 0
M  V30 13616 C 1245.84 3.54235 3.83817 0
M  V30 13617 H 1247.54 2.22614 2.00209 0
M  V30 13618 H 1245.08 1.07165 0.961856 0
M  V30 13619 H 1247.04 0.982586 4.09784 0
M  V30 13620 H 1245.76 0.0598892 3.26545 0
M  V30 13621 H 1244.42 2.16968 2.955 0
M  V30 13622 H 1244.07 0.738433 4.9755 0
M  V30 13623 H 1243.77 2.45668 5.3378 0
M  V30 13624 H 1245.29 1.68941 5.86763 0
M  V30 13625 H 1246.71 3.52106 4.52432 0
M  V30 13626 H 1245.1 4.25581 4.23085 0
M  V30 13627 H 1246.17 3.91682 2.85856 0
M  V30 13628 N 1247.52 -1.0444 1.18026 0
M  V30 13629 C 1248.76 -1.77838 0.974756 0
M  V30 13630 C 1249.1 -1.87792 -0.494755 0
M  V30 13631 O 1248.37 -1.38327 -1.36733 0
M  V30 13632 C 1248.65 -3.21315 1.62569 0
M  V30 13633 C 1248.51 -3.19327 3.16781 0
M  V30 13634 C 1249.83 -4.19337 1.33583 0
M  V30 13635 H 1246.94 -0.645575 0.35553 0
M  V30 13636 H 1249.59 -1.22023 1.45638 0
M  V30 13637 H 1247.74 -3.68974 1.21617 0
M  V30 13638 H 1249.41 -2.79687 3.66842 0
M  V30 13639 H 1247.65 -2.57461 3.49137 0
M  V30 13640 H 1248.32 -4.20626 3.5746 0
M  V30 13641 H 1250.8 -3.80208 1.69059 0
M  V30 13642 H 1249.67 -5.17953 1.81702 0
M  V30 13643 H 1249.94 -4.41346 0.258016 0
M  V30 13644 N 1248.99 -0.981699 -1.2329 0
M  V30 13645 C 1250.24 -0.651302 -1.9174 0
M  V30 13646 C 1250.57 0.815318 -1.76587 0
M  V30 13647 O 1249.82 1.60377 -1.1215 0
M  V30 13648 C 1250.12 -0.989244 -3.43437 0
M  V30 13649 C 1249.79 -2.44629 -3.78771 0
M  V30 13650 C 1248.45 -2.84449 -3.88127 0
M  V30 13651 C 1250.8 -3.39123 -3.95784 0
M  V30 13652 C 1248.13 -4.17775 -4.11923 0
M  V30 13653 C 1250.48 -4.72095 -4.21081 0
M  V30 13654 C 1249.15 -5.11672 -4.28659 0
M  V30 13655 H 1248.42 -0.238328 -0.701627 0
M  V30 13656 H 1251.06 -1.2358 -1.46288 0
M  V30 13657 H 1249.37 -0.322677 -3.90469 0
M  V30 13658 H 1251.07 -0.711796 -3.94632 0
M  V30 13659 H 1247.66 -2.12759 -3.72064 0
M  V30 13660 H 1251.84 -3.09536 -3.87945 0
M  V30 13661 H 1247.1 -4.48043 -4.16013 0
M  V30 13662 H 1251.27 -5.45271 -4.33189 0
M  V30 13663 H 1248.9 -6.15003 -4.46851 0
M  V30 13664 N 1250.47 1.3842 -0.753509 0
M  V30 13665 C 1251.44 2.28808 -0.134022 0
M  V30 13666 C 1252.44 1.47184 0.647583 0
M  V30 13667 O 1253.63 1.67631 0.473861 0
M  V30 13668 C 1250.76 3.30926 0.81858 0
M  V30 13669 H 1251.95 2.85097 -0.930586 0
M  V30 13670 H 1249.5 1.47378 -0.520514 0
M  V30 13671 H 1250.24 2.79728 1.64082 0
M  V30 13672 H 1250.02 3.91234 0.260526 0
M  V30 13673 H 1251.51 3.98515 1.24802 0
M  V30 13674 N 1251.95 0.502579 1.49372 0
M  V30 13675 C 1253.2 -0.0414423 2.02758 0
M  V30 13676 C 1253.53 -1.36499 1.38136 0
M  V30 13677 O 1252.8 -1.87487 0.517593 0
M  V30 13678 C 1253.09 -0.192333 3.59586 0
M  V30 13679 C 1252.94 1.15445 4.34733 0
M  V30 13680 C 1254.26 -0.932218 4.30114 0
M  V30 13681 H 1251.38 -0.0135869 0.736875 0
M  V30 13682 H 1254.02 0.654296 1.78379 0
M  V30 13683 H 1252.17 -0.78491 3.80488 0
M  V30 13684 H 1253.84 1.78603 4.25322 0
M  V30 13685 H 1252.09 1.74333 3.97228 0
M  V30 13686 H 1252.76 1.00216 5.42827 0
M  V30 13687 H 1255.23 -0.429632 4.13876 0
M  V30 13688 H 1254.11 -1.00664 5.39591 0
M  V30 13689 H 1254.37 -1.9763 3.95468 0
M  V30 13690 N 1253.43 -1.55816 0.23648 0
M  V30 13691 C 1254.84 -1.84757 -0.268622 0
M  V30 13692 C 1255.19 -1.15815 -1.58371 0
M  V30 13693 O 1254.32 -0.432923 -2.12025 0
M  V30 13694 C 1254.91 -3.35177 -0.494167 0
M  V30 13695 C 1253.47 -3.64382 -0.943551 0
M  V30 13696 C 1252.62 -2.77296 -0.0149191 0
M  V30 13697 H 1255.57 -1.51908 0.459308 0
M  V30 13698 H 1255.59 -3.56192 -1.3382 0
M  V30 13699 H 1255.1 -3.85327 0.463138 0
M  V30 13700 H 1253.2 -3.19701 -1.91369 0
M  V30 13701 H 1253.31 -4.72244 -0.807626 0
M  V30 13702 H 1251.68 -2.49243 -0.524419 0
M  V30 13703 H 1252.46 -3.30249 0.937571 0
M  V30 13704 N 1254.91 0.036755 -1.57557 0
M  V30 13705 C 1255.87 1.02435 -2.05036 0
M  V30 13706 C 1256.87 1.29506 -0.953146 0
M  V30 13707 O 1258.06 1.24638 -1.217 0
M  V30 13708 C 1255.19 2.3592 -2.46079 0
M  V30 13709 H 1256.38 0.614384 -2.93539 0
M  V30 13710 H 1253.94 0.283396 -1.53709 0
M  V30 13711 H 1254.67 2.8168 -1.60708 0
M  V30 13712 H 1254.46 2.17603 -3.26177 0
M  V30 13713 H 1255.95 3.06839 -2.83266 0
M  V30 13714 N 1256.39 1.54543 0.308881 0
M  V30 13715 C 1257.8 1.45581 0.654088 0
M  V30 13716 C 1258 0.640597 1.91046 0
M  V30 13717 O 1257.06 0.14518 2.52082 0
M  V30 13718 C 1258.37 2.89461 0.814422 0
M  V30 13719 C 1259.92 2.99455 0.910817 0
M  V30 13720 C 1260.39 4.44515 1.10321 0
M  V30 13721 N 1261.88 4.4819 1.1696 0
M  V30 13722 C 1262.62 5.57604 1.33661 0
M  V30 13723 N 1262.12 6.76957 1.47311 0
M  V30 13724 N 1263.91 5.45278 1.36487 0
M  V30 13725 H 1256.06 2.06019 -0.516699 0
M  V30 13726 H 1258.32 0.932729 -0.169471 0
M  V30 13727 H 1258.03 3.5168 -0.0377455 0
M  V30 13728 H 1257.9 3.36425 1.70582 0
M  V30 13729 H 1260.29 2.37355 1.75348 0
M  V30 13730 H 1260.37 2.558 -0.00443172 0
M  V30 13731 H 1260.01 5.07206 0.265346 0
M  V30 13732 H 1259.94 4.85793 2.03256 0
M  V30 13733 H 1262.44 3.62199 1.07796 0
M  V30 13734 H 1262.75 7.561 1.59788 0
M  V30 13735 H 1261.09 6.79837 1.44382 0
M  V30 13736 H 1264.28 4.50983 1.25429 0
M  V30 13737 H 1264.46 6.30599 1.4916 0
M  V30 13738 N 1257.86 -0.571685 1.46866 0
M  V30 13739 C 1259.11 -1.33145 1.52972 0
M  V30 13740 C 1259.44 -1.93314 0.185344 0
M  V30 13741 O 1258.72 -1.77083 -0.80447 0
M  V30 13742 C 1259 -2.4525 2.63675 0
M  V30 13743 C 1258.85 -1.90044 4.0768 0
M  V30 13744 C 1260.17 -3.47247 2.70384 0
M  V30 13745 H 1257.29 -0.482751 0.556885 0
M  V30 13746 H 1259.93 -0.641163 1.78855 0
M  V30 13747 H 1258.08 -3.04132 2.41735 0
M  V30 13748 H 1259.76 -1.35535 4.4094 0
M  V30 13749 H 1258 -1.20805 4.1664 0
M  V30 13750 H 1258.67 -2.71019 4.80887 0
M  V30 13751 H 1261.15 -2.98263 2.90135 0
M  V30 13752 H 1260.02 -4.23132 3.49643 0
M  V30 13753 H 1260.28 -4.05179 1.76868 0
M  V30 13754 N 1259.34 -1.34755 -0.817236 0
M  V30 13755 C 1260.25 -1.28888 -1.96023 0
M  V30 13756 C 1261.27 -0.195582 -1.72897 0
M  V30 13757 O 1262.44 -0.423071 -1.96906 0
M  V30 13758 C 1259.51 -1.04985 -3.30423 0
M  V30 13759 C 1258.57 -2.23526 -3.66517 0
M  V30 13760 C 1257.8 -2.00753 -4.94504 0
M  V30 13761 O 1258.03 -0.968622 -5.62116 0
M  V30 13762 O 1256.96 -2.87848 -5.28608 0
M  V30 13763 H 1260.79 -2.25059 -2.03917 0
M  V30 13764 H 1258.37 -1.15019 -0.953467 0
M  V30 13765 H 1260.25 -0.934589 -4.10906 0
M  V30 13766 H 1258.93 -0.118582 -3.23483 0
M  V30 13767 H 1257.83 -2.40613 -2.86455 0
M  V30 13768 H 1259.17 -3.15062 -3.78149 0
M  V30 13769 N 1260.82 1.03812 -1.18578 0
M  V30 13770 C 1261.78 2.10049 -0.91718 0
M  V30 13771 C 1262.78 1.60498 0.0985122 0
M  V30 13772 O 1263.97 1.73674 -0.135213 0
M  V30 13773 C 1261.1 3.38813 -0.376599 0
M  V30 13774 H 1262.3 2.3531 -1.85927 0
M  V30 13775 H 1259.85 1.20277 -0.998156 0
M  V30 13776 H 1260.59 3.19216 0.571983 0
M  V30 13777 H 1260.37 3.76096 -1.10881 0
M  V30 13778 H 1261.86 4.17084 -0.207453 0
M  V30 13779 O 1262.34 1.11669 1.16672 0
M  V30 13780 H 1263.03 0.824158 1.75292 0
M  V30 END ATOM
M  V30 BEGIN BOND
M  V30 END BOND
M  V30 END CTAB
M  END
$$$$
