drugbank_target|Q9RA47 Methylenetetrahydrofolate reductase (DB03147)
 OpenBabel12092120263D

  0  0  0     0  0            999 V3000
M  V30 BEGIN CTAB
M  V30 COUNTS 3602 3648 0 0 0
M  V30 BEGIN ATOM
M  V30 1 H -0.908 1.98254 -0.117106 0
M  V30 2 N 0 1.576 0 0
M  V30 3 C 0.933 2.03868 1.02534 0
M  V30 4 C 1.911 0.928543 1.3348 0
M  V30 5 O 3.095 1.19667 1.45644 0
M  V30 6 C 0.222 2.43627 2.35294 0
M  V30 7 C -0.732 3.65373 2.2001 0
M  V30 8 S 0.101 5.13292 1.52614 0
M  V30 9 C 1.257 5.56322 2.86805 0
M  V30 10 H 1.49 2.90518 0.631377 0
M  V30 11 H -0.977 1.52953 0.210867 0
M  V30 12 H 0.981 2.67203 3.11629 0
M  V30 13 H -0.358 1.57376 2.7183 0
M  V30 14 H -1.165 3.90944 3.18086 0
M  V30 15 H -1.563 3.418 1.51819 0
M  V30 16 H 0.729 5.58782 3.83104 0
M  V30 17 H 1.672 6.56266 2.65933 0
M  V30 18 H 2.08 4.83886 2.90714 0
M  V30 19 N 1.4781 -0.272755 1.55222 0
M  V30 20 C 2.4251 -1.33716 1.88119 0
M  V30 21 C 3.3951 -1.49066 0.73271 0
M  V30 22 O 4.5801 -1.63469 0.984002 0
M  V30 23 C 1.7201 -2.69238 2.15882 0
M  V30 24 C 0.8331 -2.62108 3.43399 0
M  V30 25 C -0.0319 -3.89811 3.60861 0
M  V30 26 C -0.9929 -3.77193 4.8207 0
M  V30 27 N -1.8559 -4.9673 4.96189 0
M  V30 28 H 2.9841 -1.04962 2.78903 0
M  V30 29 H 0.5211 -0.507088 1.38083 0
M  V30 30 H 2.4791 -3.48089 2.29978 0
M  V30 31 H 1.1091 -2.96194 1.28331 0
M  V30 32 H 0.1611 -1.74967 3.37773 0
M  V30 33 H 1.4731 -2.48685 4.32386 0
M  V30 34 H 0.6271 -4.77103 3.74777 0
M  V30 35 H -0.6339 -4.06102 2.7006 0
M  V30 36 H -1.6289 -2.88284 4.68159 0
M  V30 37 H -0.4039 -3.62421 5.74307 0
M  V30 38 H -2.4579 -5.13431 4.08319 0
M  V30 39 H -2.5409 -4.85839 5.79221 0
M  V30 40 H -1.2729 -5.85594 5.1449 0
M  V30 41 N 2.9562 -1.48159 -0.537278 0
M  V30 42 C 4.2052 -1.5506 -1.28993 0
M  V30 43 C 4.5182 -0.226211 -1.94288 0
M  V30 44 O 5.7242 -0.173395 -2.70946 0
M  V30 45 C 4.1802 -2.73429 -2.34018 0
M  V30 46 C 3.7882 -4.1248 -1.74825 0
M  V30 47 C 5.5322 -2.89638 -3.10339 0
M  V30 48 C 3.4392 -5.22121 -2.77747 0
M  V30 49 H 2.3692 -0.577231 -0.485098 0
M  V30 50 H 5.0202 -1.74478 -0.568317 0
M  V30 51 H 3.4022 -2.47431 -3.09182 0
M  V30 52 H 4.5762 -4.48466 -1.05899 0
M  V30 53 H 2.8912 -4.01327 -1.11022 0
M  V30 54 H 5.4882 -3.68718 -3.87235 0
M  V30 55 H 5.8312 -1.9882 -3.65754 0
M  V30 56 H 6.3642 -3.15502 -2.42288 0
M  V30 57 H 3.1032 -6.1488 -2.27161 0
M  V30 58 H 2.6232 -4.90631 -3.45024 0
M  V30 59 H 4.3022 -5.49924 -3.4087 0
M  V30 60 N 4.4343 0.785586 -1.36625 0
M  V30 61 C 5.8503 1.08419 -1.17122 0
M  V30 62 C 6.0503 2.015 0.00208491 0
M  V30 63 O 5.1063 2.43551 0.666278 0
M  V30 64 C 6.4193 1.69498 -2.48377 0
M  V30 65 C 7.9673 1.81821 -2.54775 0
M  V30 66 C 8.4423 2.46315 -3.86126 0
M  V30 67 N 9.9333 2.53779 -3.87492 0
M  V30 68 C 10.6683 3.045 -4.85868 0
M  V30 69 N 10.1643 3.55499 -5.94637 0
M  V30 70 N 11.9573 3.03247 -4.73284 0
M  V30 71 H 4.1083 0.167264 -2.1174 0
M  V30 72 H 6.3713 0.13682 -0.938075 0
M  V30 73 H 6.0773 1.08571 -3.34522 0
M  V30 74 H 5.9513 2.6896 -2.64462 0
M  V30 75 H 8.3383 2.41884 -1.69045 0
M  V30 76 H 8.4193 0.811532 -2.42586 0
M  V30 77 H 8.0633 1.86895 -4.72263 0
M  V30 78 H 7.9933 3.47561 -3.95612 0
M  V30 79 H 10.4843 2.17672 -3.08913 0
M  V30 80 H 10.7973 3.92562 -6.65669 0
M  V30 81 H 9.1423 3.5364 -5.98301 0
M  V30 82 H 12.3333 2.62696 -3.87438 0
M  V30 83 H 12.5063 3.42467 -5.50109 0
M  V30 84 N 5.9124 1.20967 1.01018 0
M  V30 85 C 7.1894 0.93264 1.71934 0
M  V30 86 C 7.5694 -0.55692 2.03621 0
M  V30 87 O 6.9174 -1.52035 1.7058 0
M  V30 88 C 7.1274 1.81233 2.98254 0
M  V30 89 C 8.4754 2.05804 3.71389 0
M  V30 90 O 9.4994 1.78539 3.08225 0
M  V30 91 O 8.3584 2.51888 4.84989 0
M  V30 92 H 5.4524 0.349272 0.749625 0
M  V30 93 H 7.9984 1.31871 1.06808 0
M  V30 94 H 6.7704 2.82067 2.71208 0
M  V30 95 H 6.3934 1.42674 3.7112 0
M  V30 96 N 7.3905 -1.2043 1.01659 0
M  V30 97 C 8.3205 -2.25466 0.607226 0
M  V30 98 C 9.3015 -1.65853 -0.377716 0
M  V30 99 O 10.4865 -1.92409 -0.263149 0
M  V30 100 C 7.6165 -3.47256 -0.0552949 0
M  V30 101 C 6.5705 -4.19462 0.850632 0
M  V30 102 C 5.8965 -5.34673 0.0538859 0
M  V30 103 C 7.1965 -4.75603 2.15868 0
M  V30 104 H 8.8905 -2.59962 1.48526 0
M  V30 105 H 6.4365 -1.2496 0.715605 0
M  V30 106 H 8.3895 -4.19917 -0.353233 0
M  V30 107 H 7.1135 -3.11924 -0.968045 0
M  V30 108 H 5.7725 -3.48667 1.13257 0
M  V30 109 H 5.4205 -4.95585 -0.860514 0
M  V30 110 H 5.1205 -5.83913 0.657192 0
M  V30 111 H 6.6445 -6.10138 -0.237598 0
M  V30 112 H 8.0585 -5.40083 1.92311 0
M  V30 113 H 6.4555 -5.3528 2.71284 0
M  V30 114 H 7.5255 -3.94346 2.82169 0
M  V30 115 N 8.8686 -0.792821 -1.36206 0
M  V30 116 C 9.7986 -0.207853 -2.32573 0
M  V30 117 C 10.7796 0.659055 -1.56813 0
M  V30 118 O 11.9646 0.592176 -1.84951 0
M  V30 119 C 9.0946 0.655449 -3.41059 0
M  V30 120 C 8.0486 -0.111842 -4.27854 0
M  V30 121 C 7.3746 0.872274 -5.27537 0
M  V30 122 C 8.6746 -1.30299 -5.05786 0
M  V30 123 H 10.3686 -1.01294 -2.81744 0
M  V30 124 H 7.9146 -0.48854 -1.3546 0
M  V30 125 H 9.8676 1.07464 -4.07467 0
M  V30 126 H 8.5916 1.49328 -2.90463 0
M  V30 127 H 7.2506 -0.512053 -3.63006 0
M  V30 128 H 6.8986 1.70523 -4.73214 0
M  V30 129 H 6.5986 0.363291 -5.86476 0
M  V30 130 H 8.1226 1.28996 -5.96818 0
M  V30 131 H 9.5366 -0.959379 -5.65216 0
M  V30 132 H 7.9336 -1.7455 -5.74154 0
M  V30 133 H 9.0036 -2.09663 -4.37229 0
M  V30 134 N 10.3467 1.47872 -0.545128 0
M  V30 135 C 11.2937 2.29849 0.2093 0
M  V30 136 C 12.2637 1.38313 0.919707 0
M  V30 137 O 13.4487 1.67277 0.917772 0
M  V30 138 C 10.5887 3.22019 1.24088 0
M  V30 139 C 9.7017 4.2864 0.537778 0
M  V30 140 C 8.8367 5.07973 1.5536 0
M  V30 141 C 7.8757 6.06381 0.8348 0
M  V30 142 N 7.0127 6.78717 1.79688 0
M  V30 143 H 11.8527 2.93845 -0.49591 0
M  V30 144 H 9.3897 1.44848 -0.256389 0
M  V30 145 H 11.3477 3.73868 1.85144 0
M  V30 146 H 9.9777 2.59914 1.91428 0
M  V30 147 H 9.0297 3.7994 -0.187046 0
M  V30 148 H 10.3417 4.98793 -0.0258907 0
M  V30 149 H 9.4957 5.63912 2.23803 0
M  V30 150 H 8.2347 4.37693 2.15118 0
M  V30 151 H 7.2397 5.49631 0.136388 0
M  V30 152 H 8.4647 6.78665 0.24313 0
M  V30 153 H 6.4107 6.11177 2.38326 0
M  V30 154 H 6.3277 7.44998 1.28505 0
M  V30 155 H 7.5957 7.39237 2.47282 0
M  V30 156 N 11.8248 0.280983 1.55075 0
M  V30 157 C 12.7878 -0.590896 2.21452 0
M  V30 158 C 13.7878 -1.07682 1.19421 0
M  V30 159 O 14.9778 -0.97605 1.44288 0
M  V30 160 C 12.1098 -1.81587 2.88511 0
M  V30 161 H 13.3028 -0.0112554 2.99898 0
M  V30 162 H 10.8558 0.0316438 1.56268 0
M  V30 163 H 11.5908 -2.43587 2.14093 0
M  V30 164 H 11.3758 -1.4753 3.63287 0
M  V30 165 H 12.8658 -2.43575 3.39206 0
M  V30 166 N 13.3029 -1.57598 0.00835791 0
M  V30 167 C 14.7189 -1.55764 -0.347822 0
M  V30 168 C 14.9189 -1.01186 -1.74252 0
M  V30 169 O 13.9749 -0.649371 -2.44007 0
M  V30 170 C 15.2879 -2.99927 -0.215407 0
M  V30 171 C 16.8359 -3.11656 -0.289725 0
M  V30 172 C 17.3109 -4.57621 -0.18634 0
M  V30 173 N 18.8019 -4.62557 -0.243978 0
M  V30 174 C 19.5369 -5.73094 -0.18745 0
M  V30 175 N 19.0329 -6.92753 -0.0810331 0
M  V30 176 N 20.8259 -5.61588 -0.239925 0
M  V30 177 H 12.9769 -1.91411 0.92062 0
M  V30 178 H 15.2399 -0.879562 0.353659 0
M  V30 179 H 14.9459 -3.43729 0.744512 0
M  V30 180 H 14.8199 -3.63865 -0.994097 0
M  V30 181 H 17.2069 -2.67779 -1.24009 0
M  V30 182 H 17.2879 -2.5048 0.51898 0
M  V30 183 H 16.9319 -5.02174 0.760519 0
M  V30 184 H 16.8619 -5.16752 -1.01364 0
M  V30 185 H 19.3529 -3.76481 -0.327217 0
M  V30 186 H 19.6659 -7.72787 -0.0440241 0
M  V30 187 H 18.0109 -6.94984 -0.0465419 0
M  V30 188 H 21.2019 -4.66996 -0.321317 0
M  V30 189 H 21.3749 -6.47714 -0.192407 0
M  V30 190 N 14.781 0.264519 -1.55364 0
M  V30 191 C 16.197 0.61215 -1.47394 0
M  V30 192 C 16.397 1.89134 -0.695018 0
M  V30 193 O 15.453 2.51563 -0.217275 0
M  V30 194 C 16.766 0.731235 -2.91674 0
M  V30 195 C 18.314 0.82473 -3.01939 0
M  V30 196 C 18.789 0.975522 -4.4749 0
M  V30 197 N 20.28 1.04083 -4.51354 0
M  V30 198 C 21.015 1.17646 -5.61201 0
M  V30 199 N 20.511 1.27874 -6.80896 0
M  V30 200 N 22.304 1.20823 -5.48961 0
M  V30 201 H 14.455 -0.575456 -2.04456 0
M  V30 202 H 16.718 -0.196099 -0.927496 0
M  V30 203 H 16.424 -0.138392 -3.51428 0
M  V30 204 H 16.298 1.60883 -3.41169 0
M  V30 205 H 18.685 1.68482 -2.42276 0
M  V30 206 H 18.766 -0.0776479 -2.55682 0
M  V30 207 H 18.41 0.120058 -5.07758 0
M  V30 208 H 18.34 1.89268 -4.91412 0
M  V30 209 H 20.831 0.973846 -3.65136 0
M  V30 210 H 21.144 1.38081 -7.60364 0
M  V30 211 H 19.489 1.24863 -6.83692 0
M  V30 212 H 22.68 1.12469 -4.54388 0
M  V30 213 H 22.853 1.31049 -6.3461 0
M  V30 214 N 16.2591 1.48442 0.529413 0
M  V30 215 C 17.5071 1.56179 1.28267 0
M  V30 216 C 17.8281 0.237721 1.93546 0
M  V30 217 O 17.0981 -0.740779 1.81354 0
M  V30 218 H 15.6781 0.575367 0.476405 0
M  V30 219 H 18.3401 1.84909 0.61602 0
M  V30 220 H 17.4361 2.34312 2.06165 0
M  V30 221 N 17.7372 -0.778329 1.37039 0
M  V30 222 C 19.1482 -1.35421 1.28523 0
M  V30 223 C 19.4992 -1.96075 -0.0700901 0
M  V30 224 O 18.6242 -1.93352 -0.971801 0
M  V30 225 C 19.2192 -2.46211 2.32735 0
M  V30 226 C 17.7782 -2.99585 2.27873 0
M  V30 227 C 16.9252 -1.72748 2.16918 0
M  V30 228 H 19.8762 -0.5791 1.47757 0
M  V30 229 H 19.8972 -3.2552 1.9702 0
M  V30 230 H 19.4092 -2.02036 3.31365 0
M  V30 231 H 17.5102 -3.48152 1.32745 0
M  V30 232 H 17.6232 -3.55646 3.21018 0
M  V30 233 H 15.9872 -1.95416 1.63354 0
M  V30 234 H 16.7702 -1.30686 3.17452 0
M  V30 235 N 19.2153 -1.21501 -1.00376 0
M  V30 236 C 20.1453 -0.999478 -2.11028 0
M  V30 237 C 21.1263 0.0759671 -1.6993 0
M  V30 238 O 22.3113 -0.0841106 -1.94018 0
M  V30 239 C 19.4413 -0.564709 -3.42678 0
M  V30 240 C 18.3953 -1.58486 -3.97576 0
M  V30 241 C 17.7213 -1.00628 -5.25146 0
M  V30 242 C 19.0213 -2.97204 -4.29496 0
M  V30 243 H 20.7153 -1.92495 -2.29317 0
M  V30 244 H 18.2613 -0.92693 -1.102 0
M  V30 245 H 20.2143 -0.401091 -4.19487 0
M  V30 246 H 18.9383 0.396411 -3.24185 0
M  V30 247 H 17.5973 -1.73606 -3.22888 0
M  V30 248 H 17.2453 -0.0368439 -5.02987 0
M  V30 249 H 16.9453 -1.68771 -5.62841 0
M  V30 250 H 18.4693 -0.854015 -6.04598 0
M  V30 251 H 19.8833 -2.8552 -4.97143 0
M  V30 252 H 18.2803 -3.62372 -4.78338 0
M  V30 253 H 19.3503 -3.47956 -3.3772 0
M  V30 254 N 20.6934 1.19889 -1.02296 0
M  V30 255 C 21.9404 1.8942 -0.715972 0
M  V30 256 C 22.2684 1.79251 0.754944 0
M  V30 257 O 21.5234 1.17526 1.56481 0
M  V30 258 C 21.8224 3.39883 -1.10518 0
M  V30 259 C 21.4884 3.70254 -2.57337 0
M  V30 260 C 20.1504 3.78254 -2.97452 0
M  V30 261 C 22.5024 3.84052 -3.52354 0
M  V30 262 C 19.8304 3.97514 -4.31509 0
M  V30 263 C 22.1824 4.04824 -4.86108 0
M  V30 264 C 20.8464 4.11054 -5.25919 0
M  V30 265 H 20.1164 0.693138 -0.261993 0
M  V30 266 H 22.7634 1.42012 -1.28472 0
M  V30 267 H 21.0684 3.8915 -0.454953 0
M  V30 268 H 22.7654 3.9199 -0.845261 0
M  V30 269 H 19.3554 3.64632 -2.25258 0
M  V30 270 H 23.5394 3.77221 -3.22518 0
M  V30 271 H 18.7954 4.00574 -4.61898 0
M  V30 272 H 22.9694 4.14442 -5.59653 0
M  V30 273 H 20.5964 4.2573 -6.29808 0
M  V30 274 N 22.1715 0.800033 1.35784 0
M  V30 275 C 23.3965 0.388511 2.03729 0
M  V30 276 C 23.8215 -0.990481 1.5991 0
M  V30 277 O 23.1795 -1.64013 0.772612 0
M  V30 278 C 23.2275 0.4726 3.5749 0
M  V30 279 O 22.3315 -0.51646 4.09153 0
M  V30 280 H 21.6725 0.163271 0.643614 0
M  V30 281 H 24.2025 1.0841 1.73518 0
M  V30 282 H 24.2125 0.34003 4.06581 0
M  V30 283 H 22.8875 1.47848 3.88734 0
M  V30 284 H 21.4645 -0.344673 3.71304 0
M  V30 285 N 23.6496 -1.47581 0.552962 0
M  V30 286 C 24.8966 -2.02482 0.0273243 0
M  V30 287 C 25.2246 -1.42776 -1.32081 0
M  V30 288 O 24.4796 -0.571393 -1.87173 0
M  V30 289 C 24.7786 -3.57199 -0.119728 0
M  V30 290 C 24.4446 -4.35804 1.15697 0
M  V30 291 C 23.1066 -4.57 1.50681 0
M  V30 292 C 25.4586 -4.81167 2.00319 0
M  V30 293 C 22.7866 -5.20807 2.70142 0
M  V30 294 C 25.1386 -5.46293 3.18978 0
M  V30 295 C 23.8026 -5.65722 3.54281 0
M  V30 296 H 23.0726 -0.740933 0.00999866 0
M  V30 297 H 25.7196 -1.77302 0.72362 0
M  V30 298 H 24.0246 -3.81348 -0.89896 0
M  V30 299 H 25.7216 -3.97324 -0.541718 0
M  V30 300 H 22.3116 -4.19582 0.874561 0
M  V30 301 H 26.4956 -4.64574 1.74599 0
M  V30 302 H 21.7516 -5.34045 2.97668 0
M  V30 303 H 25.9256 -5.80407 3.84838 0
M  V30 304 H 23.5526 -6.14936 4.46942 0
M  V30 305 N 25.1277 -0.289203 -1.54924 0
M  V30 306 C 26.0377 0.601863 -2.26748 0
M  V30 307 C 27.0537 1.15834 -1.2984 0
M  V30 308 O 28.2297 1.18564 -1.62802 0
M  V30 309 C 25.2947 1.76299 -2.98529 0
M  V30 310 C 24.3557 1.24178 -4.10948 0
M  V30 311 C 23.5887 2.34757 -4.79296 0
M  V30 312 O 23.8117 3.54411 -4.46933 0
M  V30 313 O 22.7457 2.02115 -5.66951 0
M  V30 314 H 26.5717 0.0195879 -3.03694 0
M  V30 315 H 24.1567 -0.0560868 -1.49295 0
M  V30 316 H 26.0387 2.43973 -3.43592 0
M  V30 317 H 24.7137 2.33209 -2.24488 0
M  V30 318 H 23.6207 0.531104 -3.70311 0
M  V30 319 H 24.9537 0.718252 -4.86931 0
M  V30 320 N 26.6058 1.57591 -0.0167156 0
M  V30 321 C 27.8528 1.91283 0.664597 0
M  V30 322 C 28.1808 0.891949 1.72842 0
M  V30 323 O 27.4358 -0.100931 1.9544 0
M  V30 324 C 27.7348 3.3172 1.33029 0
M  V30 325 C 27.4008 4.4914 0.398047 0
M  V30 326 C 26.0628 4.80992 0.141421 0
M  V30 327 C 28.4148 5.20634 -0.242825 0
M  V30 328 C 25.7428 5.81703 -0.764092 0
M  V30 329 C 28.0948 6.22311 -1.13632 0
M  V30 330 C 26.7588 6.52611 -1.40196 0
M  V30 331 H 26.0288 0.699956 0.243193 0
M  V30 332 H 28.6758 1.9135 -0.0758267 0
M  V30 333 H 26.9808 3.27856 2.14517 0
M  V30 334 H 28.6778 3.55055 1.86379 0
M  V30 335 H 25.2678 4.24262 0.608238 0
M  V30 336 H 29.4518 4.96267 -0.0576019 0
M  V30 337 H 24.7078 6.03532 -0.977732 0
M  V30 338 H 28.8818 6.76834 -1.63917 0
M  V30 339 H 26.5088 7.30467 -2.10529 0
M  V30 340 N 28.0839 -0.256276 1.55502 0
M  V30 341 C 29.3309 -0.985619 1.76895 0
M  V30 342 C 29.6589 -1.85671 0.579355 0
M  V30 343 O 28.9139 -1.90744 -0.437651 0
M  V30 344 C 29.2129 -1.88432 3.03691 0
M  V30 345 C 28.8789 -1.16936 4.35473 0
M  V30 346 C 27.5409 -0.97173 4.71286 0
M  V30 347 C 29.8929 -0.661889 5.1698 0
M  V30 348 C 27.2209 -0.254179 5.86149 0
M  V30 349 C 29.5729 0.042149 6.32586 0
M  V30 350 C 28.2369 0.25134 6.67027 0
M  V30 351 H 27.5069 -0.360663 0.647304 0
M  V30 352 H 30.1539 -0.256483 1.89775 0
M  V30 353 H 28.4589 -2.68021 2.85783 0
M  V30 354 H 30.1559 -2.45015 3.1744 0
M  V30 355 H 26.7459 -1.33332 4.07333 0
M  V30 356 H 30.9299 -0.802145 4.89775 0
M  V30 357 H 26.1859 -0.0815408 6.11346 0
M  V30 358 H 30.3599 0.443049 6.94989 0
M  V30 359 H 27.9869 0.809314 7.5588 0
M  V30 360 N 29.562 -1.4872 -0.521534 0
M  V30 361 C 30.973 -1.50607 -1.10337 0
M  V30 362 C 31.324 -0.280612 -1.94183 0
M  V30 363 O 30.449 0.611507 -2.0758 0
M  V30 364 C 31.044 -2.72903 -2.00772 0
M  V30 365 C 29.603 -2.77634 -2.54158 0
M  V30 366 C 28.75 -2.44241 -1.31307 0
M  V30 367 H 31.701 -1.55714 -0.306388 0
M  V30 368 H 31.722 -2.519 -2.85178 0
M  V30 369 H 31.234 -3.62077 -1.39721 0
M  V30 370 H 29.335 -1.92689 -3.18907 0
M  V30 371 H 29.448 -3.79283 -2.92714 0
M  V30 372 H 27.812 -1.95577 -1.63161 0
M  V30 373 H 28.595 -3.35666 -0.719943 0
M  V30 374 N 31.0401 0.771051 -1.3745 0
M  V30 375 C 32.4511 1.34737 -1.29239 0
M  V30 376 C 32.8021 1.96109 0.0596908 0
M  V30 377 O 31.9271 1.93865 0.961534 0
M  V30 378 C 32.5221 2.44973 -2.34037 0
M  V30 379 C 31.0811 2.98372 -2.29458 0
M  V30 380 C 30.2281 1.71595 -2.17831 0
M  V30 381 H 33.1791 0.571256 -1.48062 0
M  V30 382 H 33.2001 3.24471 -1.98744 0
M  V30 383 H 32.7121 2.00276 -3.32432 0
M  V30 384 H 30.8131 3.47443 -1.34589 0
M  V30 385 H 30.9261 3.53939 -3.229 0
M  V30 386 H 29.2901 1.94547 -1.64388 0
M  V30 387 H 30.0731 1.29001 -3.18141 0
M  V30 388 N 32.5182 1.22032 0.997298 0
M  V30 389 C 33.4652 0.986467 2.08656 0
M  V30 390 C 34.4352 -0.0902671 1.65855 0
M  V30 391 O 35.6202 0.0584294 1.90711 0
M  V30 392 C 32.7602 0.565569 3.40434 0
M  V30 393 C 31.8732 1.71259 3.96604 0
M  V30 394 C 31.0082 1.24011 5.16522 0
M  V30 395 C 30.0472 2.35896 5.64818 0
M  V30 396 N 29.1842 1.89726 6.7598 0
M  V30 397 H 34.0242 1.91892 2.27994 0
M  V30 398 H 31.5612 0.956199 1.11782 0
M  V30 399 H 33.5192 0.302738 4.161 0
M  V30 400 H 32.1492 -0.329879 3.2111 0
M  V30 401 H 31.2012 2.08986 3.17851 0
M  V30 402 H 32.5132 2.55436 4.28432 0
M  V30 403 H 31.6672 0.934395 5.99461 0
M  V30 404 H 30.4062 0.368487 4.86306 0
M  V30 405 H 29.4112 2.67261 4.8047 0
M  V30 406 H 30.6362 3.23567 5.97061 0
M  V30 407 H 28.5822 1.0492 6.47555 0
M  V30 408 H 28.4992 2.67471 7.07103 0
M  V30 409 H 29.7672 1.62211 7.62435 0
M  V30 410 N 33.9963 -1.19345 1.0293 0
M  V30 411 C 35.2733 -1.84811 0.640642 0
M  V30 412 C 35.6533 -1.91855 -0.88062 0
M  V30 413 O 35.0013 -1.43587 -1.7775 0
M  V30 414 C 35.2113 -3.23755 1.30321 0
M  V30 415 C 36.5593 -3.99912 1.42673 0
M  V30 416 O 37.5833 -3.33155 1.26041 0
M  V30 417 O 36.4423 -5.19494 1.6967 0
M  V30 418 H 33.5363 -0.796443 0.222726 0
M  V30 419 H 36.0823 -1.26831 1.12748 0
M  V30 420 H 34.8543 -3.13466 2.34211 0
M  V30 421 H 34.4773 -3.89381 0.804261 0
M  V30 422 N 35.4744 -0.807222 -1.35358 0
M  V30 423 C 36.8854 -0.44876 -1.81226 0
M  V30 424 C 37.2364 1.02929 -1.67033 0
M  V30 425 O 36.3614 1.79991 -1.20133 0
M  V30 426 C 36.9564 -0.807774 -3.2903 0
M  V30 427 C 35.5154 -0.501901 -3.73039 0
M  V30 428 C 34.6624 -1.03304 -2.57339 0
M  V30 429 H 37.6134 -0.998808 -1.23327 0
M  V30 430 H 37.6344 -0.10554 -3.80354 0
M  V30 431 H 37.1464 -1.88357 -3.39328 0
M  V30 432 H 35.2474 0.565128 -3.68289 0
M  V30 433 H 35.3604 -1.03497 -4.67787 0
M  V30 434 H 33.7244 -0.455339 -2.50597 0
M  V30 435 H 34.5074 -2.11496 -2.70415 0
M  V30 436 N 36.9525 1.47285 -0.560781 0
M  V30 437 C 37.8625 2.33846 0.187954 0
M  V30 438 C 38.8785 1.48412 0.908293 0
M  V30 439 O 40.0545 1.81332 0.876388 0
M  V30 440 C 37.1195 3.25178 1.2025 0
M  V30 441 C 36.1805 4.26504 0.489208 0
M  V30 442 C 35.4135 5.13472 1.45542 0
M  V30 443 O 35.6365 5.02959 2.6905 0
M  V30 444 O 34.5705 5.93902 0.977963 0
M  V30 445 H 38.3965 2.99177 -0.522177 0
M  V30 446 H 35.9815 1.45903 -0.321364 0
M  V30 447 H 37.8635 3.81584 1.78805 0
M  V30 448 H 36.5385 2.6247 1.89449 0
M  V30 449 H 35.4455 3.73847 -0.137627 0
M  V30 450 H 36.7785 4.91935 -0.161399 0
M  V30 451 N 38.4306 0.297415 1.54768 0
M  V30 452 C 39.6786 -0.312295 1.99673 0
M  V30 453 C 39.9996 -1.54686 1.18732 0
M  V30 454 O 39.2696 -1.93854 0.282382 0
M  V30 455 H 37.8496 -0.118381 0.73756 0
M  V30 456 H 40.5116 0.407915 1.90583 0
M  V30 457 H 39.6076 -0.586813 3.06534 0
M  V30 458 N 39.9087 -1.5758 0.0250728 0
M  V30 459 C 40.8187 -2.1343 -0.973905 0
M  V30 460 C 41.8347 -1.08556 -1.35984 0
M  V30 461 O 43.0107 -1.40592 -1.44207 0
M  V30 462 C 40.0757 -2.64703 -2.23904 0
M  V30 463 C 39.1367 -3.84276 -1.91391 0
M  V30 464 C 38.3697 -4.33095 -3.11873 0
M  V30 465 O 38.5927 -3.81107 -4.24398 0
M  V30 466 O 37.5267 -5.24984 -2.94406 0
M  V30 467 H 41.3527 -2.99057 -0.529036 0
M  V30 468 H 38.9377 -1.48118 -0.195288 0
M  V30 469 H 40.8197 -2.97769 -2.98181 0
M  V30 470 H 39.4947 -1.82161 -2.6758 0
M  V30 471 H 38.4017 -3.56143 -1.14511 0
M  V30 472 H 39.7347 -4.67968 -1.52534 0
M  V30 473 N 41.3868 0.248026 -1.55636 0
M  V30 474 C 42.2968 1.32859 -1.93354 0
M  V30 475 C 43.3128 1.52719 -0.833838 0
M  V30 476 O 44.4888 1.66363 -1.13513 0
M  V30 477 C 41.5538 2.66337 -2.21958 0
M  V30 478 C 40.6148 2.55008 -3.45354 0
M  V30 479 C 39.8478 3.82121 -3.72584 0
M  V30 480 O 40.0708 4.83951 -3.01907 0
M  V30 481 O 39.0048 3.80822 -4.6611 0
M  V30 482 H 42.8308 1.03862 -2.85388 0
M  V30 483 H 40.4158 0.448686 -1.42503 0
M  V30 484 H 42.2978 3.45216 -2.4167 0
M  V30 485 H 40.9728 2.95068 -1.33103 0
M  V30 486 H 39.8798 1.7442 -3.30951 0
M  V30 487 H 41.2128 2.31222 -4.34508 0
M  V30 488 N 42.8649 1.48995 0.513639 0
M  V30 489 C 43.8279 1.64229 1.59879 0
M  V30 490 C 44.8279 0.514696 1.5234 0
M  V30 491 O 46.0179 0.78087 1.55718 0
M  V30 492 C 43.1499 1.62783 2.99524 0
M  V30 493 H 44.3429 2.61004 1.47705 0
M  V30 494 H 41.8959 1.37837 0.736936 0
M  V30 495 H 42.6309 0.675461 3.17188 0
M  V30 496 H 42.4159 2.4466 3.06404 0
M  V30 497 H 43.9059 1.76669 3.78388 0
M  V30 498 N 44.343 -0.763751 1.37857 0
M  V30 499 C 45.273 -1.89103 1.36975 0
M  V30 500 C 46.254 -1.68439 0.237152 0
M  V30 501 O 47.439 -1.8918 0.438713 0
M  V30 502 C 44.569 -3.26496 1.18395 0
M  V30 503 C 43.523 -3.61741 2.28751 0
M  V30 504 C 42.849 -4.97762 1.95286 0
M  V30 505 C 44.149 -3.67665 3.70972 0
M  V30 506 H 45.843 -1.90099 2.31307 0
M  V30 507 H 43.389 -0.91319 1.11341 0
M  V30 508 H 45.342 -4.05003 1.16406 0
M  V30 509 H 44.066 -3.25955 0.205215 0
M  V30 510 H 42.725 -2.85547 2.29909 0
M  V30 511 H 42.373 -4.93769 0.959221 0
M  V30 512 H 42.073 -5.22313 2.69189 0
M  V30 513 H 43.597 -5.7866 1.94898 0
M  V30 514 H 45.011 -4.36307 3.719 0
M  V30 515 H 43.408 -4.03718 4.43995 0
M  V30 516 H 44.478 -2.68134 4.0402 0
M  V30 517 N 45.8211 -1.22559 -0.990812 0
M  V30 518 C 47.0681 -1.05141 -1.73065 0
M  V30 519 C 47.3961 0.413191 -1.9006 0
M  V30 520 O 46.6511 1.32257 -1.44245 0
M  V30 521 C 46.9501 -1.71011 -3.13831 0
M  V30 522 C 46.6161 -3.20911 -3.16745 0
M  V30 523 C 45.2781 -3.61812 -3.17247 0
M  V30 524 C 47.6301 -4.16846 -3.12872 0
M  V30 525 C 44.9581 -4.97127 -3.1158 0
M  V30 526 C 47.3101 -5.5214 -3.08746 0
M  V30 527 C 45.9741 -5.92419 -3.07565 0
M  V30 528 H 45.2441 -0.384738 -0.633291 0
M  V30 529 H 47.8911 -1.5235 -1.16025 0
M  V30 530 H 46.1961 -1.16133 -3.74193 0
M  V30 531 H 47.8931 -1.55023 -3.69823 0
M  V30 532 H 44.4831 -2.88344 -3.17105 0
M  V30 533 H 48.6671 -3.86263 -3.11632 0
M  V30 534 H 43.9231 -5.27562 -3.09012 0
M  V30 535 H 48.0971 -6.26201 -3.04705 0
M  V30 536 H 45.7241 -6.97236 -3.02929 0
M  V30 537 N 47.2992 1.18797 -1.03562 0
M  V30 538 C 48.7152 1.40671 -0.753917 0
M  V30 539 C 48.9152 1.9043 0.658686 0
M  V30 540 O 47.9712 2.08538 1.42366 0
M  V30 541 C 49.2842 2.41192 -1.79574 0
M  V30 542 C 50.8322 2.54928 -1.81606 0
M  V30 543 C 51.3072 3.58709 -2.84766 0
M  V30 544 N 52.7982 3.66212 -2.83625 0
M  V30 545 C 53.5332 4.46225 -3.60098 0
M  V30 546 N 53.0292 5.29888 -4.46308 0
M  V30 547 N 54.8222 4.40939 -3.4861 0
M  V30 548 H 46.9732 0.848221 -1.94728 0
M  V30 549 H 49.2362 0.435081 -0.842264 0
M  V30 550 H 48.9422 2.11669 -2.80872 0
M  V30 551 H 48.8162 3.40467 -1.62365 0
M  V30 552 H 51.2032 2.83771 -0.809817 0
M  V30 553 H 51.2842 1.55784 -2.02891 0
M  V30 554 H 50.9282 3.30607 -3.85566 0
M  V30 555 H 50.8582 4.57519 -2.60737 0
M  V30 556 H 53.3492 3.06466 -2.21105 0
M  V30 557 H 53.6622 5.88078 -5.01382 0
M  V30 558 H 52.0072 5.29326 -4.50377 0
M  V30 559 H 55.1982 3.74624 -2.80668 0
M  V30 560 H 55.3712 5.03056 -4.08459 0
M  V30 561 N 48.7773 0.814389 1.34928 0
M  V30 562 C 50.0053 0.411136 2.02774 0
M  V30 563 C 50.4203 -0.980316 1.61354 0
M  V30 564 O 49.7773 -1.63299 0.814847 0
M  V30 565 C 49.8283 0.493865 3.58111 0
M  V30 566 O 49.5493 1.83047 3.98027 0
M  V30 567 C 51.0503 0.0844174 4.4322 0
M  V30 568 H 48.2703 0.166037 0.650133 0
M  V30 569 H 50.8143 1.10018 1.72384 0
M  V30 570 H 48.9693 -0.147006 3.87121 0
M  V30 571 H 49.3833 1.79872 4.92693 0
M  V30 572 H 50.8573 0.193404 5.51661 0
M  V30 573 H 51.3343 -0.97113 4.28329 0
M  V30 574 H 51.9403 0.69875 4.19521 0
M  V30 575 N 50.2554 -1.46986 0.568584 0
M  V30 576 C 51.1854 -2.32946 -0.160753 0
M  V30 577 C 52.1664 -1.44487 -0.897631 0
M  V30 578 O 53.3514 -1.73327 -0.875867 0
M  V30 579 C 50.4814 -3.26494 -1.18403 0
M  V30 580 C 49.4354 -4.24282 -0.562895 0
M  V30 581 C 48.7614 -5.07236 -1.69163 0
M  V30 582 C 50.0614 -5.19989 0.490761 0
M  V30 583 H 51.7554 -2.94175 0.556916 0
M  V30 584 H 49.3014 -1.4146 0.26927 0
M  V30 585 H 51.2544 -3.85477 -1.70251 0
M  V30 586 H 49.9784 -2.63343 -1.93179 0
M  V30 587 H 48.6374 -3.66541 -0.0656164 0
M  V30 588 H 48.2854 -4.4048 -2.42871 0
M  V30 589 H 47.9854 -5.7345 -1.28174 0
M  V30 590 H 49.5094 -5.6908 -2.21314 0
M  V30 591 H 50.9234 -5.73271 0.0579047 0
M  V30 592 H 49.3204 -5.94469 0.820165 0
M  V30 593 H 50.3904 -4.64777 1.3824 0
M  V30 594 N 51.7335 -0.305618 -1.54608 0
M  V30 595 C 52.6435 0.57778 -2.27374 0
M  V30 596 C 53.6595 1.14451 -1.31061 0
M  V30 597 O 54.8355 1.16831 -1.6405 0
M  V30 598 C 51.9005 1.73123 -3.00382 0
M  V30 599 C 50.9615 1.19812 -4.12242 0
M  V30 600 C 50.1945 2.2966 -4.81759 0
M  V30 601 O 50.4175 3.49651 -4.50666 0
M  V30 602 O 49.3515 1.96091 -5.69062 0
M  V30 603 H 53.1775 -0.012624 -3.03697 0
M  V30 604 H 50.7625 -0.0719184 -1.49227 0
M  V30 605 H 52.6445 2.40315 -3.4616 0
M  V30 606 H 51.3195 2.30815 -2.26949 0
M  V30 607 H 50.2265 0.491798 -3.70853 0
M  V30 608 H 51.5595 0.666566 -4.87666 0
M  V30 609 N 53.2116 1.57565 -0.0334293 0
M  V30 610 C 54.1216 2.13943 0.962572 0
M  V30 611 C 55.1376 1.09276 1.35406 0
M  V30 612 O 56.3136 1.41355 1.4346 0
M  V30 613 C 53.3786 2.65887 2.22497 0
M  V30 614 C 52.4396 3.85286 1.8935 0
M  V30 615 C 51.6726 4.34743 3.09571 0
M  V30 616 O 51.8956 3.83352 4.22371 0
M  V30 617 O 50.8296 5.26538 2.91618 0
M  V30 618 H 54.6556 2.99333 0.513169 0
M  V30 619 H 52.2406 1.4822 0.18743 0
M  V30 620 H 54.1226 2.99346 2.96598 0
M  V30 621 H 52.7976 1.83578 2.6661 0
M  V30 622 H 51.7046 3.56746 1.1262 0
M  V30 623 H 53.0376 4.68771 1.5005 0
M  V30 624 N 54.6897 -0.239769 1.55765 0
M  V30 625 C 55.6197 -1.30052 1.9393 0
M  V30 626 C 56.6007 -1.49839 0.805132 0
M  V30 627 O 57.7857 -1.62328 1.06599 0
M  V30 628 C 54.9157 -2.65391 2.2402 0
M  V30 629 C 53.8697 -2.60289 3.39755 0
M  V30 630 C 53.1957 -3.99489 3.55405 0
M  V30 631 C 54.4957 -2.16654 4.75246 0
M  V30 632 H 56.1897 -0.983573 2.82783 0
M  V30 633 H 53.7357 -0.471701 1.36055 0
M  V30 634 H 55.6887 -3.3974 2.49308 0
M  V30 635 H 54.4127 -2.98736 1.32 0
M  V30 636 H 53.0717 -1.88398 3.14487 0
M  V30 637 H 52.7197 -4.30112 2.60793 0
M  V30 638 H 52.4197 -3.96962 4.33238 0
M  V30 639 H 53.9437 -4.75528 3.83022 0
M  V30 640 H 55.3577 -2.80737 4.99859 0
M  V30 641 H 53.7547 -2.25223 5.56232 0
M  V30 642 H 54.8247 -1.11835 4.71827 0
M  V30 643 N 56.1678 -1.49265 -0.50573 0
M  V30 644 C 57.1148 -1.65585 -1.6078 0
M  V30 645 C 58.0848 -0.497396 -1.58478 0
M  V30 646 O 59.2698 -0.72385 -1.76536 0
M  V30 647 C 56.4098 -1.72408 -2.98948 0
M  V30 648 C 55.5228 -2.99525 -3.11301 0
M  V30 649 C 54.6578 -2.97356 -4.40174 0
M  V30 650 C 53.6968 -4.19074 -4.46143 0
M  V30 651 N 52.8338 -4.14841 -5.66437 0
M  V30 652 H 57.6738 -2.59688 -1.46172 0
M  V30 653 H 55.2108 -1.28761 -0.711261 0
M  V30 654 H 57.1688 -1.74344 -3.79025 0
M  V30 655 H 55.7988 -0.817753 -3.1227 0
M  V30 656 H 54.8508 -3.07222 -2.24318 0
M  V30 657 H 56.1628 -3.89518 -3.11572 0
M  V30 658 H 55.3168 -2.97829 -5.28567 0
M  V30 659 H 54.0558 -2.05133 -4.42461 0
M  V30 660 H 53.0608 -4.1885 -3.56153 0
M  V30 661 H 54.2858 -5.12483 -4.45575 0
M  V30 662 H 52.2318 -3.25453 -5.69575 0
M  V30 663 H 52.1488 -4.98564 -5.68304 0
M  V30 664 H 53.4168 -4.1941 -6.57051 0
M  V30 665 N 57.6459 0.756429 -1.3826 0
M  V30 666 C 58.6089 1.85176 -1.35065 0
M  V30 667 C 59.6089 1.58818 -0.251703 0
M  V30 668 O 60.7989 1.66615 -0.508433 0
M  V30 669 C 57.9309 3.22596 -1.10201 0
M  V30 670 H 59.1239 1.89417 -2.3251 0
M  V30 671 H 56.6769 0.95783 -1.23512 0
M  V30 672 H 57.4119 3.24025 -0.133504 0
M  V30 673 H 57.1969 3.43122 -1.89762 0
M  V30 674 H 58.6869 4.02673 -1.10654 0
M  V30 675 N 59.124 1.23083 0.984299 0
M  V30 676 C 60.371 1.06057 1.72505 0
M  V30 677 C 60.699 -0.403105 1.90277 0
M  V30 678 O 59.954 -1.3149 1.44944 0
M  V30 679 C 60.253 1.72673 3.1292 0
M  V30 680 C 59.919 3.22586 3.15038 0
M  V30 681 C 58.581 3.63489 3.15324 0
M  V30 682 C 60.933 4.185 3.10657 0
M  V30 683 C 58.261 4.98772 3.08939 0
M  V30 684 C 60.613 5.53769 3.05814 0
M  V30 685 C 59.277 5.94041 3.04419 0
M  V30 686 H 58.547 0.388091 0.631242 0
M  V30 687 H 61.194 1.52963 1.15215 0
M  V30 688 H 59.499 1.18116 3.73572 0
M  V30 689 H 61.196 1.56982 3.68996 0
M  V30 690 H 57.786 2.90022 3.15571 0
M  V30 691 H 61.97 3.87911 3.09579 0
M  V30 692 H 57.226 5.29193 3.0621 0
M  V30 693 H 61.4 6.27808 3.0138 0
M  V30 694 H 59.027 6.98833 2.99227 0
M  V30 695 N 60.6021 -1.18246 1.0419 0
M  V30 696 C 62.0181 -1.40269 0.761366 0
M  V30 697 C 62.2181 -1.90777 -0.648578 0
M  V30 698 O 61.2741 -2.0929 -1.41258 0
M  V30 699 C 62.5871 -2.40237 1.8085 0
M  V30 700 C 64.1351 -2.53961 1.82955 0
M  V30 701 C 64.6101 -3.57194 2.86664 0
M  V30 702 N 66.1011 -3.64702 2.85563 0
M  V30 703 C 66.8361 -4.44309 3.6246 0
M  V30 704 N 66.3321 -5.27514 4.49111 0
M  V30 705 N 68.1251 -4.39084 3.50944 0
M  V30 706 H 60.2761 -0.837882 1.95175 0
M  V30 707 H 62.5391 -0.430608 0.84456 0
M  V30 708 H 62.2451 -2.10176 2.81991 0
M  V30 709 H 62.1191 -3.39601 1.64168 0
M  V30 710 H 64.5061 -2.83338 0.824855 0
M  V30 711 H 64.5871 -1.54706 2.03715 0
M  V30 712 H 64.2311 -3.28558 3.87314 0
M  V30 713 H 64.1611 -4.5613 2.6316 0
M  V30 714 H 66.6521 -3.05289 2.22727 0
M  V30 715 H 66.9651 -5.85411 5.04493 0
M  V30 716 H 65.3101 -5.2693 4.53178 0
M  V30 717 H 68.5011 -3.7313 2.82651 0
M  V30 718 H 68.6741 -5.00883 4.11121 0
M  V30 719 N 62.0802 -0.821533 -1.34494 0
M  V30 720 C 63.4912 -0.467956 -1.8074 0
M  V30 721 C 63.8422 1.01151 -1.68116 0
M  V30 722 O 62.9672 1.78707 -1.22036 0
M  V30 723 C 63.5622 -0.842627 -3.28154 0
M  V30 724 C 62.1212 -0.541439 -3.72485 0
M  V30 725 C 61.2682 -1.06028 -2.56229 0
M  V30 726 H 64.2192 -1.01183 -1.22261 0
M  V30 727 H 64.2402 -0.145876 -3.8022 0
M  V30 728 H 63.7522 -1.91945 -3.37311 0
M  V30 729 H 61.8532 0.526034 -3.68868 0
M  V30 730 H 61.9662 -1.08453 -4.66663 0
M  V30 731 H 60.3302 -0.481892 -2.501 0
M  V30 732 H 61.1132 -2.14352 -2.68157 0
M  V30 733 N 63.5583 1.46682 -0.576371 0
M  V30 734 C 64.5213 2.28707 0.150239 0
M  V30 735 C 65.5213 1.38035 0.824794 0
M  V30 736 O 66.7113 1.60476 0.677719 0
M  V30 737 C 63.8433 3.18248 1.22192 0
M  V30 738 H 65.0363 2.94423 -0.570521 0
M  V30 739 H 62.5893 1.52688 -0.334078 0
M  V30 740 H 63.3243 2.57265 1.97447 0
M  V30 741 H 63.1093 3.85 0.742812 0
M  V30 742 H 64.5993 3.80001 1.73172 0
M  V30 743 N 65.0364 0.313813 1.54444 0
M  V30 744 C 66.2834 -0.291675 2.00388 0
M  V30 745 C 66.6114 -1.52904 1.2021 0
M  V30 746 O 65.8664 -1.93833 0.269707 0
M  V30 747 C 66.1654 -0.680386 3.50864 0
M  V30 748 C 65.8314 0.456699 4.48581 0
M  V30 749 C 64.4934 0.768824 4.75018 0
M  V30 750 C 66.8454 1.22098 5.06697 0
M  V30 751 C 64.1734 1.84812 5.56831 0
M  V30 752 C 66.5254 2.29029 5.89685 0
M  V30 753 C 65.1894 2.60834 6.14428 0
M  V30 754 H 64.4594 -0.106732 0.733273 0
M  V30 755 H 67.1064 0.43557 1.86481 0
M  V30 756 H 65.4114 -1.48791 3.62448 0
M  V30 757 H 67.1084 -1.16026 3.83847 0
M  V30 758 H 63.6984 0.203337 4.28117 0
M  V30 759 H 67.8824 0.993096 4.86263 0
M  V30 760 H 63.1384 2.09912 5.74236 0
M  V30 761 H 67.3124 2.887 6.33739 0
M  V30 762 H 64.9394 3.44596 6.77612 0
M  V30 763 N 66.5145 -1.57545 0.0417849 0
M  V30 764 C 67.7605 -1.92601 -0.635021 0
M  V30 765 C 68.0935 -0.919627 -1.71045 0
M  V30 766 O 67.3685 0.0557892 -1.9442 0
M  V30 767 C 67.6515 -3.38085 -1.23979 0
M  V30 768 C 67.5045 -4.49467 -0.173057 0
M  V30 769 C 68.8235 -3.83776 -2.15416 0
M  V30 770 H 65.9425 -0.700397 -0.229374 0
M  V30 771 H 68.5845 -1.89728 0.101633 0
M  V30 772 H 66.7345 -3.40664 -1.86762 0
M  V30 773 H 68.4065 -4.59018 0.458312 0
M  V30 774 H 66.6495 -4.30909 0.499996 0
M  V30 775 H 67.3205 -5.48323 -0.636054 0
M  V30 776 H 69.7965 -3.83013 -1.62605 0
M  V30 777 H 68.6725 -4.8624 -2.54679 0
M  V30 778 H 68.9335 -3.19998 -3.05047 0
M  V30 779 N 67.9926 0.231505 -1.5589 0
M  V30 780 C 69.2176 0.978689 -1.82856 0
M  V30 781 C 69.6426 1.77559 -0.620846 0
M  V30 782 O 69.0006 1.76119 0.430305 0
M  V30 783 C 69.0486 1.87997 -3.07716 0
M  V30 784 O 68.1526 2.97393 -2.85712 0
M  V30 785 H 67.4936 0.277663 -0.603158 0
M  V30 786 H 70.0236 0.24783 -2.03093 0
M  V30 787 H 70.0336 2.2917 -3.37558 0
M  V30 788 H 68.7086 1.29417 -3.95252 0
M  V30 789 H 67.2856 2.60238 -2.67078 0
M  V30 790 N 69.4707 1.49531 0.497807 0
M  V30 791 C 70.7197 1.58426 1.24837 0
M  V30 792 C 71.0327 0.277643 1.93619 0
M  V30 793 O 72.2387 0.24517 2.70391 0
M  V30 794 C 70.6947 2.79538 2.26686 0
M  V30 795 C 70.3027 4.16971 1.63828 0
M  V30 796 C 72.0467 2.97764 3.0255 0
M  V30 797 C 69.9537 5.29301 2.63807 0
M  V30 798 H 68.8837 0.58989 0.469623 0
M  V30 799 H 71.5347 1.75923 0.521857 0
M  V30 800 H 69.9167 2.55542 3.02514 0
M  V30 801 H 71.0907 4.51116 0.939711 0
M  V30 802 H 69.4057 4.04129 1.00342 0
M  V30 803 H 72.0027 3.78856 3.77323 0
M  V30 804 H 72.3457 2.08448 3.60354 0
M  V30 805 H 72.8787 3.21815 2.33838 0
M  V30 806 H 69.6177 6.20687 2.10779 0
M  V30 807 H 69.1377 4.99606 3.31894 0
M  V30 808 H 70.8167 5.58768 3.2617 0
M  V30 809 N 70.9488 -0.749086 1.3866 0
M  V30 810 C 72.1768 -1.53834 1.38358 0
M  V30 811 C 72.5918 -1.88783 -0.0255219 0
M  V30 812 O 71.9488 -1.53101 -0.993292 0
M  V30 813 C 71.9998 -2.83468 2.2434 0
M  V30 814 O 71.7208 -2.50008 3.5976 0
M  V30 815 C 73.2218 -3.7758 2.32267 0
M  V30 816 H 70.4418 -0.47585 0.473083 0
M  V30 817 H 72.9858 -0.926726 1.82297 0
M  V30 818 H 71.1408 -3.40995 1.83851 0
M  V30 819 H 71.5548 -3.33182 4.05081 0
M  V30 820 H 73.0288 -4.65478 2.96706 0
M  V30 821 H 73.5058 -4.18334 1.33765 0
M  V30 822 H 74.1118 -3.25976 2.73166 0
M  V30 823 N 72.4269 -1.23603 -0.977757 0
M  V30 824 C 73.6569 -1.09487 -1.75203 0
M  V30 825 C 74.0649 0.356321 -1.85814 0
M  V30 826 O 73.4079 1.25816 -1.33851 0
M  V30 827 C 73.4699 -1.64905 -3.19447 0
M  V30 828 C 73.1339 -3.13688 -3.32338 0
M  V30 829 C 74.1309 -4.10953 -3.18455 0
M  V30 830 C 71.8159 -3.53449 -3.56902 0
M  V30 831 C 73.8099 -5.45962 -3.28944 0
M  V30 832 C 71.4969 -4.88602 -3.6703 0
M  V30 833 C 72.4949 -5.84668 -3.53062 0
M  V30 834 O 72.1829 -7.17365 -3.62826 0
M  V30 835 H 71.9149 -0.38367 -0.556573 0
M  V30 836 H 74.4689 -1.6398 -1.23693 0
M  V30 837 H 72.6989 -1.04835 -3.72218 0
M  V30 838 H 74.3879 -1.46226 -3.78646 0
M  V30 839 H 75.1539 -3.81577 -2.99372 0
M  V30 840 H 71.0329 -2.79188 -3.66844 0
M  V30 841 H 74.5769 -6.20925 -3.17958 0
M  V30 842 H 70.4739 -5.17653 -3.85623 0
M  V30 843 H 71.2419 -7.2515 -3.79605 0
M  V30 844 N 73.905 1.17692 -1.04816 0
M  V30 845 C 75.153 1.87488 -0.754497 0
M  V30 846 C 75.474 1.81205 0.720407 0
M  V30 847 O 74.744 1.23544 1.52032 0
M  V30 848 H 73.324 0.694101 -0.276102 0
M  V30 849 H 75.986 1.42793 -1.32651 0
M  V30 850 H 75.082 2.93328 -1.06606 0
M  V30 851 N 75.3831 0.828654 1.34056 0
M  V30 852 C 76.3461 0.259927 2.27721 0
M  V30 853 C 77.3461 -0.565478 1.50529 0
M  V30 854 O 78.5361 -0.38075 1.69988 0
M  V30 855 C 75.6681 -0.634944 3.34935 0
M  V30 856 H 76.8611 1.0863 2.79534 0
M  V30 857 H 74.4141 0.600951 1.44285 0
M  V30 858 H 75.1491 -1.48416 2.88346 0
M  V30 859 H 74.9341 -0.0444999 3.92075 0
M  V30 860 H 76.4241 -1.02648 4.04788 0
M  V30 861 N 76.8612 -1.46375 0.584142 0
M  V30 862 C 77.7942 -2.27351 -0.196676 0
M  V30 863 C 78.7722 -1.35715 -0.895561 0
M  V30 864 O 79.9562 -1.65126 -0.90916 0
M  V30 865 C 77.0832 -3.13486 -1.28235 0
M  V30 866 C 76.1292 -4.20896 -0.689145 0
M  V30 867 S 76.9622 -5.33299 0.48507 0
M  V30 868 C 78.1182 -6.23 -0.601767 0
M  V30 869 H 78.3512 -2.93228 0.490395 0
M  V30 870 H 75.8842 -1.49875 0.371071 0
M  V30 871 H 77.8422 -3.63676 -1.90395 0
M  V30 872 H 76.5032 -2.4692 -1.94138 0
M  V30 873 H 75.6962 -4.80997 -1.50527 0
M  V30 874 H 75.2982 -3.73726 -0.143181 0
M  V30 875 H 77.5902 -6.60979 -1.48705 0
M  V30 876 H 78.5332 -7.0809 -0.0374799 0
M  V30 877 H 78.9412 -5.57173 -0.906557 0
M  V30 878 N 78.3393 -0.321999 -1.54275 0
M  V30 879 C 79.5873 0.280489 -2.00144 0
M  V30 880 C 79.9083 1.52777 -1.21178 0
M  V30 881 O 79.1783 1.9338 -0.313187 0
M  V30 882 H 77.7583 0.106632 -0.73935 0
M  V30 883 H 80.4203 -0.438184 -1.8991 0
M  V30 884 H 79.5163 0.537972 -3.07428 0
M  V30 885 N 79.8174 1.5752 -0.0501392 0
M  V30 886 C 81.0424 1.97376 0.636997 0
M  V30 887 C 81.4674 0.927466 1.63645 0
M  V30 888 O 80.8254 -0.10941 1.8097 0
M  V30 889 C 80.8734 3.36304 1.30123 0
M  V30 890 O 79.9774 3.34156 2.41689 0
M  V30 891 H 79.3184 0.642998 0.165679 0
M  V30 892 H 81.8484 2.04258 -0.118233 0
M  V30 893 H 81.8584 3.73008 1.65315 0
M  V30 894 H 80.5334 4.11993 0.568746 0
M  V30 895 H 79.1104 3.09196 2.08451 0
M  V30 896 N 81.2955 -0.223234 1.56011 0
M  V30 897 C 82.5235 -0.964812 1.83027 0
M  V30 898 C 82.9385 -1.78013 0.62904 0
M  V30 899 O 82.2955 -1.78008 -0.402414 0
M  V30 900 C 82.3465 -1.88373 3.08542 0
M  V30 901 O 82.0675 -1.10137 4.2403 0
M  V30 902 C 83.5685 -2.73934 3.48533 0
M  V30 903 H 80.7885 -0.282842 0.608475 0
M  V30 904 H 83.3325 -0.238971 2.03099 0
M  V30 905 H 81.4875 -2.56354 2.9045 0
M  V30 906 H 81.9015 -1.72501 4.95322 0
M  V30 907 H 83.3755 -3.34117 4.39397 0
M  V30 908 H 83.8525 -3.46244 2.70207 0
M  V30 909 H 84.4585 -2.11369 3.69057 0
M  V30 910 N 82.7736 -1.49793 -0.48987 0
M  V30 911 C 84.1896 -1.36803 -0.822022 0
M  V30 912 C 84.3896 -0.409652 -1.97292 0
M  V30 913 O 83.4456 0.154614 -2.52026 0
M  V30 914 C 84.7586 -2.77768 -1.15175 0
M  V30 915 C 86.3066 -2.86549 -1.25931 0
M  V30 916 C 86.7816 -4.28306 -1.62228 0
M  V30 917 N 88.2726 -4.31169 -1.69256 0
M  V30 918 C 89.0076 -5.37832 -1.98807 0
M  V30 919 N 88.5036 -6.54726 -2.26507 0
M  V30 920 N 90.2966 -5.25258 -2.00152 0
M  V30 921 H 82.4476 -2.10691 0.268881 0
M  V30 922 H 84.7106 -0.946241 0.057728 0
M  V30 923 H 84.4166 -3.49648 -0.379335 0
M  V30 924 H 84.2906 -3.13836 -2.09253 0
M  V30 925 H 86.6776 -2.14899 -2.02243 0
M  V30 926 H 86.7586 -2.54049 -0.298776 0
M  V30 927 H 86.4026 -5.00486 -0.864622 0
M  V30 928 H 86.3326 -4.58279 -2.594 0
M  V30 929 H 88.8236 -3.4687 -1.49965 0
M  V30 930 H 89.1366 -7.31833 -2.48276 0
M  V30 931 H 87.4816 -6.57933 -2.23939 0
M  V30 932 H 90.6726 -4.32938 -1.77996 0
M  V30 933 H 90.8456 -6.08476 -2.22848 0
M  V30 934 N 84.2517 0.741722 -1.39055 0
M  V30 935 C 85.1617 1.88621 -1.39496 0
M  V30 936 C 86.1777 1.71557 -0.290578 0
M  V30 937 O 87.3537 1.94275 -0.530954 0
M  V30 938 C 84.4187 3.24134 -1.23037 0
M  V30 939 C 83.4797 3.5364 -2.43387 0
M  V30 940 C 82.7127 4.82687 -2.27703 0
M  V30 941 O 82.9357 5.55922 -1.27696 0
M  V30 942 O 81.8697 5.1194 -3.16545 0
M  V30 943 H 85.6957 1.91203 -2.35956 0
M  V30 944 H 83.2807 0.888625 -1.20099 0
M  V30 945 H 85.1627 4.0513 -1.15964 0
M  V30 946 H 83.8377 3.22337 -0.296691 0
M  V30 947 H 82.7447 2.72758 -2.56035 0
M  V30 948 H 84.0777 3.60209 -3.35425 0
M  V30 949 N 85.7298 1.2412 0.971189 0
M  V30 950 C 87.1458 1.00584 1.23916 0
M  V30 951 C 87.3458 -0.287481 1.99439 0
M  V30 952 O 86.4018 -1.00454 2.31658 0
M  V30 953 C 87.7148 2.21864 2.0297 0
M  V30 954 C 89.2628 2.26452 2.16076 0
M  V30 955 C 89.7378 3.47343 2.98524 0
M  V30 956 N 91.2288 3.47639 3.06107 0
M  V30 957 C 91.9638 4.37837 3.70251 0
M  V30 958 N 91.4598 5.38286 4.36142 0
M  V30 959 N 93.2528 4.25558 3.67228 0
M  V30 960 H 85.4038 2.07236 0.465499 0
M  V30 961 H 87.6668 0.909236 0.268315 0
M  V30 962 H 87.3728 3.15771 1.54861 0
M  V30 963 H 87.2468 2.23698 3.03709 0
M  V30 964 H 89.6338 1.33078 2.6339 0
M  V30 965 H 89.7148 2.28645 1.14696 0
M  V30 966 H 89.3588 4.41029 2.51905 0
M  V30 967 H 89.2888 3.42393 4.00093 0
M  V30 968 H 91.7798 2.74966 2.59233 0
M  V30 969 H 92.0928 6.03352 4.82894 0
M  V30 970 H 90.4378 5.42176 4.34822 0
M  V30 971 H 93.6288 3.46322 3.14927 0
M  V30 972 H 93.8018 4.96054 4.16935 0
M  V30 973 N 87.2079 -1.17134 1.05439 0
M  V30 974 C 88.4329 -1.91913 0.786396 0
M  V30 975 C 88.8579 -1.7643 -0.652234 0
M  V30 976 O 88.2159 -1.08372 -1.45345 0
M  V30 977 C 88.2639 -3.40921 1.17497 0
M  V30 978 O 87.3679 -4.11244 0.308589 0
M  V30 979 H 86.7089 -0.598215 0.288158 0
M  V30 980 H 89.2389 -1.48457 1.4079 0
M  V30 981 H 89.2489 -3.91668 1.14281 0
M  V30 982 H 87.9239 -3.5151 2.22292 0
M  V30 983 H 86.5009 -3.70731 0.40157 0
M  V30 984 N 88.686 -0.835752 -1.33615 0
M  V30 985 C 89.932 -0.430596 -1.98176 0
M  V30 986 C 90.265 1.00684 -1.66061 0
M  V30 987 O 89.54 1.70339 -0.938877 0
M  V30 988 C 89.823 -0.648065 -3.5422 0
M  V30 989 C 89.676 -2.13255 -3.96033 0
M  V30 990 C 90.995 -0.0922113 -4.40003 0
M  V30 991 H 88.114 -0.157924 -0.719881 0
M  V30 992 H 90.756 -1.05069 -1.58305 0
M  V30 993 H 88.906 -0.120237 -3.88314 0
M  V30 994 H 90.578 -2.725 -3.72211 0
M  V30 995 H 88.821 -2.61823 -3.45878 0
M  V30 996 H 89.492 -2.23547 -5.04708 0
M  V30 997 H 91.968 -0.543343 -4.12537 0
M  V30 998 H 90.844 -0.274083 -5.48215 0
M  V30 999 H 91.105 1.00378 -4.30554 0
M  V30 1000 N 90.1641 1.46063 -0.591896 0
M  V30 1001 C 91.1271 2.28854 0.125973 0
M  V30 1002 C 92.1271 1.38903 0.810107 0
M  V30 1003 O 93.3171 1.61186 0.66066 0
M  V30 1004 C 90.4491 3.19526 1.1881 0
M  V30 1005 H 91.6421 2.93802 -0.601717 0
M  V30 1006 H 89.1951 1.52325 -0.350254 0
M  V30 1007 H 89.9301 2.59345 1.94707 0
M  V30 1008 H 89.7151 3.85766 0.701936 0
M  V30 1009 H 91.2051 3.81817 1.69132 0
M  V30 1010 N 91.6422 0.330177 1.54103 0
M  V30 1011 C 92.8882 -0.263542 2.01685 0
M  V30 1012 C 93.2432 -1.49258 1.21408 0
M  V30 1013 O 92.5362 -1.89395 0.289852 0
M  V30 1014 C 92.7302 -0.643134 3.51566 0
M  V30 1015 C 92.5592 0.547571 4.46354 0
M  V30 1016 C 91.3292 1.04873 4.94297 0
M  V30 1017 C 93.5272 1.40184 4.94826 0
M  V30 1018 N 91.5092 2.20316 5.73005 0
M  V30 1019 C 92.8802 2.40335 5.71524 0
M  V30 1020 C 94.9352 1.42884 4.76958 0
M  V30 1021 C 93.6382 3.42998 6.32254 0
M  V30 1022 C 95.6642 2.44421 5.38528 0
M  V30 1023 C 95.0262 3.43298 6.15082 0
M  V30 1024 H 91.1252 -0.0601026 0.779687 0
M  V30 1025 H 93.7092 0.466714 1.89023 0
M  V30 1026 H 91.8802 -1.34251 3.6446 0
M  V30 1027 H 93.6122 -1.21889 3.85908 0
M  V30 1028 H 90.3672 0.618956 4.69538 0
M  V30 1029 H 90.7912 2.78565 6.17034 0
M  V30 1030 H 95.4332 0.678049 4.17328 0
M  V30 1031 H 93.1512 4.1898 6.91 0
M  V30 1032 H 96.7372 2.4732 5.26616 0
M  V30 1033 H 95.6172 4.20579 6.61878 0
M  V30 1034 N 93.1203 -1.57491 0.0584922 0
M  V30 1035 C 94.0833 -2.1085 -0.898617 0
M  V30 1036 C 95.0833 -1.02964 -1.23511 0
M  V30 1037 O 96.2733 -1.29007 -1.17059 0
M  V30 1038 C 93.4053 -2.59881 -2.20623 0
M  V30 1039 H 94.5983 -2.96715 -0.435936 0
M  V30 1040 H 92.1513 -1.55141 -0.190023 0
M  V30 1041 H 92.8863 -1.77431 -2.71457 0
M  V30 1042 H 92.6713 -3.38727 -1.97501 0
M  V30 1043 H 94.1613 -3.01285 -2.89166 0
M  V30 1044 N 94.5984 0.214957 -1.56127 0
M  V30 1045 C 95.5304 1.29004 -1.89448 0
M  V30 1046 C 96.5434 1.42716 -0.783326 0
M  V30 1047 O 97.7324 1.43496 -1.06166 0
M  V30 1048 C 94.8324 2.66482 -2.09381 0
M  V30 1049 C 94.0054 2.74633 -3.40434 0
M  V30 1050 C 93.0644 3.9317 -3.49719 0
M  V30 1051 O 92.0904 3.812 -4.227 0
M  V30 1052 N 93.2924 5.07765 -2.81346 0
M  V30 1053 H 96.0574 1.00743 -2.82261 0
M  V30 1054 H 93.6184 0.40497 -1.56753 0
M  V30 1055 H 95.6104 3.44173 -2.12901 0
M  V30 1056 H 94.1804 2.87314 -1.23163 0
M  V30 1057 H 93.4004 1.83368 -3.48955 0
M  V30 1058 H 94.6884 2.77054 -4.26754 0
M  V30 1059 H 94.0864 5.20386 -2.21843 0
M  V30 1060 H 92.6434 5.83474 -2.90519 0
M  V30 1061 N 96.0765 1.50051 0.48192 0
M  V30 1062 C 97.4925 1.37237 0.814756 0
M  V30 1063 C 97.6925 0.420109 1.97072 0
M  V30 1064 O 96.7485 -0.141246 2.52105 0
M  V30 1065 C 98.0615 2.78375 1.13701 0
M  V30 1066 C 99.6095 2.87213 1.2441 0
M  V30 1067 C 100.084 4.29161 1.59954 0
M  V30 1068 N 101.575 4.32061 1.66967 0
M  V30 1069 C 102.31 5.38879 1.95952 0
M  V30 1070 N 101.806 6.55918 2.23031 0
M  V30 1071 N 103.599 5.26312 1.97363 0
M  V30 1072 H 95.7505 2.10546 -0.28005 0
M  V30 1073 H 98.0135 0.945921 -0.0627454 0
M  V30 1074 H 97.7195 3.49845 0.360787 0
M  V30 1075 H 97.5935 3.14941 2.07586 0
M  V30 1076 H 99.9805 2.15969 2.01101 0
M  V30 1077 H 100.061 2.54204 0.285299 0
M  V30 1078 H 99.7055 5.00938 0.838067 0
M  V30 1079 H 99.6355 4.59648 2.56966 0
M  V30 1080 H 102.126 3.47661 1.48123 0
M  V30 1081 H 102.439 7.33139 2.44391 0
M  V30 1082 H 100.784 6.59112 2.20447 0
M  V30 1083 H 103.975 4.33876 1.75697 0
M  V30 1084 H 104.148 6.09649 2.19618 0
M  V30 1085 N 97.5546 -0.734337 1.39446 0
M  V30 1086 C 98.8036 -1.48937 1.36017 0
M  V30 1087 C 99.1166 -1.95557 -0.0409005 0
M  V30 1088 O 100.323 -2.70779 -0.19778 0
M  V30 1089 C 98.7786 -2.69125 2.38955 0
M  V30 1090 C 98.3866 -2.29452 3.8478 0
M  V30 1091 C 100.131 -3.46944 2.44603 0
M  V30 1092 C 98.0376 -3.46366 4.79358 0
M  V30 1093 H 96.9676 -0.559296 0.505672 0
M  V30 1094 H 99.6186 -0.800983 1.65095 0
M  V30 1095 H 98.0006 -3.40041 2.02948 0
M  V30 1096 H 99.1746 -1.66077 4.29831 0
M  V30 1097 H 97.4896 -1.64723 3.82433 0
M  V30 1098 H 100.087 -4.33907 3.12456 0
M  V30 1099 H 100.43 -3.89454 1.47076 0
M  V30 1100 H 100.963 -2.83056 2.79507 0
M  V30 1101 H 97.7016 -3.08905 5.78151 0
M  V30 1102 H 97.2216 -4.08719 4.38986 0
M  V30 1103 H 98.9006 -4.12691 4.98292 0
M  V30 1104 N 99.0327 -1.24633 -0.964593 0
M  V30 1105 C 99.9647 -0.999302 -2.06268 0
M  V30 1106 C 100.978 0.0323226 -1.62768 0
M  V30 1107 O 102.167 -0.205079 -1.77318 0
M  V30 1108 C 99.2667 -0.486816 -3.35385 0
M  V30 1109 C 98.4397 -1.5823 -4.07777 0
M  V30 1110 C 97.4987 -1.07191 -5.15166 0
M  V30 1111 O 96.5247 -1.76426 -5.41168 0
M  V30 1112 N 97.7267 0.0920373 -5.80427 0
M  V30 1113 H 100.492 -1.94477 -2.28033 0
M  V30 1114 H 98.0527 -1.15704 -1.13244 0
M  V30 1115 H 100.045 -0.130066 -4.04491 0
M  V30 1116 H 98.6147 0.364459 -3.10468 0
M  V30 1117 H 97.8347 -2.11109 -3.32906 0
M  V30 1118 H 99.1227 -2.31854 -4.52903 0
M  V30 1119 H 98.5207 0.670784 -5.61709 0
M  V30 1120 H 97.0777 0.389905 -6.50633 0
M  V30 1121 N 100.511 1.16574 -1.06058 0
M  V30 1122 C 101.736 1.91493 -0.796562 0
M  V30 1123 C 102.161 1.76773 0.642868 0
M  V30 1124 O 101.519 1.09142 1.44768 0
M  V30 1125 C 101.567 3.40293 -1.19303 0
M  V30 1126 O 100.671 4.11074 -0.330394 0
M  V30 1127 H 100.012 0.596678 -0.291326 0
M  V30 1128 H 102.542 1.47708 -1.41575 0
M  V30 1129 H 102.552 3.91057 -1.16356 0
M  V30 1130 H 101.227 3.50326 -2.24153 0
M  V30 1131 H 99.8038 3.70513 -0.421225 0
M  V30 1132 N 101.989 0.842826 1.3317 0
M  V30 1133 C 102.919 0.294028 2.31641 0
M  V30 1134 C 103.9 -0.600401 1.59151 0
M  V30 1135 O 105.085 -0.523124 1.87022 0
M  V30 1136 C 102.215 -0.528416 3.43257 0
M  V30 1137 C 101.169 0.27056 4.27144 0
M  V30 1138 C 100.495 -0.675881 5.30411 0
M  V30 1139 C 101.795 1.48981 5.00602 0
M  V30 1140 H 103.489 1.11681 2.77791 0
M  V30 1141 H 101.035 0.538478 1.33553 0
M  V30 1142 H 102.988 -0.922674 4.11175 0
M  V30 1143 H 101.712 -1.38445 2.95805 0
M  V30 1144 H 100.371 0.646427 3.60856 0
M  V30 1145 H 100.019 -1.52842 4.79216 0
M  V30 1146 H 99.7189 -0.145374 5.8742 0
M  V30 1147 H 101.243 -1.06757 6.01195 0
M  V30 1148 H 102.657 1.16849 5.61266 0
M  V30 1149 H 101.054 1.95739 5.6728 0
M  V30 1150 H 102.124 2.25746 4.29147 0
M  V30 1151 N 103.467 -1.45747 0.599634 0
M  V30 1152 C 104.715 -2.01893 0.0915472 0
M  V30 1153 C 105.036 -1.47155 -1.27946 0
M  V30 1154 O 104.306 -0.66273 -1.84349 0
M  V30 1155 H 102.886 -0.746363 0.0308524 0
M  V30 1156 H 105.548 -1.78645 0.779237 0
M  V30 1157 H 104.644 -3.1208 0.0353086 0
M  V30 1158 N 104.945 -0.338344 -1.53925 0
M  V30 1159 C 105.875 0.51328 -2.27789 0
M  V30 1160 C 106.856 1.107 -1.29149 0
M  V30 1161 O 108.041 1.12937 -1.57984 0
M  V30 1162 C 105.171 1.66697 -3.04679 0
M  V30 1163 C 104.125 1.20183 -4.1078 0
M  V30 1164 C 103.451 2.44363 -4.75595 0
M  V30 1165 C 104.751 0.30605 -5.21403 0
M  V30 1166 H 106.445 -0.102883 -2.99223 0
M  V30 1167 H 103.991 -0.0509219 -1.4391 0
M  V30 1168 H 105.944 2.26915 -3.55088 0
M  V30 1169 H 104.668 2.30995 -2.30887 0
M  V30 1170 H 103.327 0.622499 -3.61276 0
M  V30 1171 H 102.975 3.07057 -3.98403 0
M  V30 1172 H 102.675 2.13925 -5.47275 0
M  V30 1173 H 104.199 3.05317 -5.28786 0
M  V30 1174 H 105.613 0.814929 -5.67478 0
M  V30 1175 H 104.01 0.0937929 -6.00027 0
M  V30 1176 H 105.08 -0.65921 -4.80398 0
M  V30 1177 N 106.423 1.57458 -0.0668435 0
M  V30 1178 C 107.371 2.13639 0.919851 0
M  V30 1179 C 108.365 1.07204 1.31163 0
M  V30 1180 O 109.571 1.25591 1.28945 0
M  V30 1181 H 105.946 0.683048 0.314562 0
M  V30 1182 H 107.917 2.95415 0.421047 0
M  V30 1183 C 106.666 2.70892 2.17975 0
M  V30 1184 H 105.989 3.5246 1.88711 0
M  V30 1185 H 107.429 3.13803 2.85138 0
M  V30 1186 C 105.888 1.65414 2.93496 0
M  V30 1187 O 106.418 1.07619 3.87015 0
M  V30 1188 N 104.624 1.36564 2.56512 0
M  V30 1189 H 104.171 1.83751 1.80536 0
M  V30 1190 H 104.129 0.66223 3.07347 0
M  V30 1191 N 107.901 -0.206675 1.56239 0
M  V30 1192 C 109.312 -0.772383 1.69974 0
M  V30 1193 C 109.663 -1.84353 0.671436 0
M  V30 1194 O 108.788 -2.15695 -0.174491 0
M  V30 1195 C 109.383 -1.40779 3.08167 0
M  V30 1196 C 107.942 -1.92072 3.23706 0
M  V30 1197 C 107.089 -0.786347 2.65917 0
M  V30 1198 H 110.04 0.0182223 1.5869 0
M  V30 1199 H 110.061 -2.27696 3.04852 0
M  V30 1200 H 109.573 -0.627958 3.82986 0
M  V30 1201 H 107.674 -2.7281 2.53782 0
M  V30 1202 H 107.787 -2.09046 4.31087 0
M  V30 1203 H 106.151 -1.1976 2.24788 0
M  V30 1204 H 106.934 -0.0189416 3.43295 0
M  V30 1205 N 109.379 -1.50304 -0.473955 0
M  V30 1206 C 110.309 -1.71886 -1.58042 0
M  V30 1207 C 111.29 -0.567799 -1.60344 0
M  V30 1208 O 112.475 -0.806623 -1.76656 0
M  V30 1209 C 109.605 -1.81036 -2.96384 0
M  V30 1210 C 108.559 -2.962 -3.08949 0
M  V30 1211 C 107.885 -2.9049 -4.48909 0
M  V30 1212 C 109.185 -4.36752 -2.86434 0
M  V30 1213 H 110.879 -2.64527 -1.40234 0
M  V30 1214 H 108.425 -1.27295 -0.673201 0
M  V30 1215 H 110.378 -1.94719 -3.73714 0
M  V30 1216 H 109.102 -0.850147 -3.15341 0
M  V30 1217 H 107.761 -2.82164 -2.3405 0
M  V30 1218 H 107.409 -1.92321 -4.64781 0
M  V30 1219 H 107.109 -3.67802 -4.58253 0
M  V30 1220 H 108.633 -3.06218 -5.28264 0
M  V30 1221 H 110.047 -4.5133 -3.53517 0
M  V30 1222 H 108.444 -5.15493 -3.07225 0
M  V30 1223 H 109.514 -4.49321 -1.82316 0
M  V30 1224 N 110.857 0.726932 -1.39834 0
M  V30 1225 C 111.82 1.82269 -1.38962 0
M  V30 1226 C 112.82 1.58248 -0.285334 0
M  V30 1227 O 114.01 1.65499 -0.54366 0
M  V30 1228 C 111.142 3.20186 -1.17019 0
M  V30 1229 H 112.335 1.84443 -2.36476 0
M  V30 1230 H 109.888 0.931416 -1.25516 0
M  V30 1231 H 110.623 3.23669 -0.202204 0
M  V30 1232 H 110.408 3.3902 -1.96998 0
M  V30 1233 H 111.898 4.00235 -1.1917 0
M  V30 1234 N 112.336 1.25143 0.95797 0
M  V30 1235 C 113.286 1.01924 2.0395 0
M  V30 1236 C 114.27 -0.0427175 1.60843 0
M  V30 1237 O 115.462 0.17221 1.7616 0
M  V30 1238 C 112.591 0.636373 3.3735 0
M  V30 1239 C 111.677 1.73492 3.8699 0
M  V30 1240 N 112.068 2.96945 4.0946 0
M  V30 1241 C 110.366 1.61467 4.15746 0
M  V30 1242 C 111.067 3.68228 4.50315 0
M  V30 1243 N 110.043 2.95833 4.56053 0
M  V30 1244 H 113.845 1.95653 2.19311 0
M  V30 1245 H 111.359 1.15413 1.14253 0
M  V30 1246 H 113.356 0.451233 4.14451 0
M  V30 1247 H 112.016 -0.293621 3.2337 0
M  V30 1248 H 113.027 3.33025 3.96629 0
M  V30 1249 H 109.704 0.753394 4.10646 0
M  V30 1250 H 111.094 4.74178 4.76031 0
M  V30 1251 N 113.814 -1.1601 1.06675 0
M  V30 1252 C 114.744 -2.22688 0.702307 0
M  V30 1253 C 115.725 -1.67306 -0.307032 0
M  V30 1254 O 116.91 -1.93352 -0.181305 0
M  V30 1255 C 114.04 -3.47178 0.092038 0
M  V30 1256 C 112.994 -4.15477 1.02777 0
M  V30 1257 C 112.32 -5.33963 0.28061 0
M  V30 1258 C 113.62 -4.66019 2.35846 0
M  V30 1259 H 115.314 -2.53429 1.59419 0
M  V30 1260 H 112.86 -1.21813 0.767961 0
M  V30 1261 H 114.813 -4.21037 -0.174814 0
M  V30 1262 H 113.537 -3.15749 -0.834877 0
M  V30 1263 H 112.196 -3.43549 1.27944 0
M  V30 1264 H 111.844 -4.98788 -0.649545 0
M  V30 1265 H 111.544 -5.806 0.904258 0
M  V30 1266 H 113.068 -6.10596 0.021396 0
M  V30 1267 H 114.482 -5.3144 2.15045 0
M  V30 1268 H 112.879 -5.23293 2.93743 0
M  V30 1269 H 113.949 -3.82023 2.98641 0
M  V30 1270 N 115.292 -0.849877 -1.32721 0
M  V30 1271 C 116.52 -0.464754 -2.01613 0
M  V30 1272 C 116.935 0.937191 -1.63897 0
M  V30 1273 O 116.292 1.61081 -0.857856 0
M  V30 1274 C 116.343 -0.588638 -3.56675 0
M  V30 1275 O 116.064 -1.93535 -3.93034 0
M  V30 1276 C 117.565 -0.2019 -4.4284 0
M  V30 1277 H 114.785 -0.183215 -0.645502 0
M  V30 1278 H 117.329 -1.1455 -1.69407 0
M  V30 1279 H 115.484 0.0443159 -3.87375 0
M  V30 1280 H 115.898 -1.92871 -4.87751 0
M  V30 1281 H 117.372 -0.339599 -5.50954 0
M  V30 1282 H 117.849 0.857224 -4.30753 0
M  V30 1283 H 118.455 -0.809733 -4.17521 0
M  V30 1284 N 116.77 1.45427 -0.607355 0
M  V30 1285 C 118.016 2.0254 -0.102607 0
M  V30 1286 C 118.349 1.47478 1.26348 0
M  V30 1287 O 117.624 0.64939 1.83339 0
M  V30 1288 C 117.907 3.60044 -0.0634347 0
M  V30 1289 C 117.76 4.2544 -1.46017 0
M  V30 1290 C 119.079 4.35646 0.624514 0
M  V30 1291 H 116.198 0.73598 -0.0387607 0
M  V30 1292 H 118.84 1.73284 -0.779282 0
M  V30 1293 H 116.99 3.85101 0.512808 0
M  V30 1294 H 118.662 4.11569 -2.08347 0
M  V30 1295 H 116.905 3.83849 -2.02094 0
M  V30 1296 H 117.576 5.34342 -1.385 0
M  V30 1297 H 120.052 4.15882 0.134723 0
M  V30 1298 H 118.928 5.45376 0.621028 0
M  V30 1299 H 119.189 4.08501 1.69055 0
M  V30 1300 N 118.248 0.346503 1.53744 0
M  V30 1301 C 119.211 -0.496439 2.23759 0
M  V30 1302 C 120.211 -1.0252 1.2388 0
M  V30 1303 O 121.401 -0.913974 1.48297 0
M  V30 1304 C 118.533 -1.69187 2.95954 0
M  V30 1305 H 119.726 0.115952 2.99676 0
M  V30 1306 H 117.279 0.0978939 1.55993 0
M  V30 1307 H 118.014 -2.34288 2.24231 0
M  V30 1308 H 117.799 -1.31989 3.69217 0
M  V30 1309 H 119.289 -2.28969 3.49232 0
M  V30 1310 N 119.726 -1.57421 0.075193 0
M  V30 1311 C 120.974 -1.93236 -0.591974 0
M  V30 1312 C 121.295 -0.956241 -1.69944 0
M  V30 1313 O 120.565 -0.00494792 -1.95899 0
M  V30 1314 H 119.145 -0.713355 -0.22166 0
M  V30 1315 H 121.807 -1.9444 0.133848 0
M  V30 1316 H 120.903 -2.95131 -1.01509 0
M  V30 1317 N 121.204 0.198386 -1.56346 0
M  V30 1318 C 122.136 1.26987 -1.90806 0
M  V30 1319 C 123.149 1.41877 -0.798419 0
M  V30 1320 O 124.338 1.42362 -1.07682 0
M  V30 1321 C 121.438 2.64246 -2.12196 0
M  V30 1322 C 120.611 2.71007 -3.43328 0
M  V30 1323 C 119.67 3.89439 -3.5387 0
M  V30 1324 O 118.696 3.76695 -4.26719 0
M  V30 1325 N 119.898 5.04752 -2.86715 0
M  V30 1326 H 122.663 0.977433 -2.83313 0
M  V30 1327 H 120.224 0.388322 -1.57174 0
M  V30 1328 H 122.216 3.41896 -2.1654 0
M  V30 1329 H 120.786 2.85992 -1.26204 0
M  V30 1330 H 120.006 1.79657 -3.50881 0
M  V30 1331 H 121.294 2.72512 -4.29668 0
M  V30 1332 H 120.692 5.18004 -2.2735 0
M  V30 1333 H 119.249 5.8036 -2.96691 0
M  V30 1334 N 122.682 1.50554 0.465978 0
M  V30 1335 C 123.907 1.65838 1.24549 0
M  V30 1336 C 124.332 0.343486 1.84937 0
M  V30 1337 O 123.69 -0.69324 1.67523 0
M  V30 1338 C 123.738 2.75533 2.32624 0
M  V30 1339 O 122.842 2.37142 3.37398 0
M  V30 1340 H 122.183 0.553893 0.366194 0
M  V30 1341 H 124.713 1.96959 0.553927 0
M  V30 1342 H 124.723 2.98763 2.77857 0
M  V30 1343 H 123.398 3.70962 1.88043 0
M  V30 1344 H 121.975 2.24377 2.97841 0
M  V30 1345 N 124.16 -0.719506 1.40217 0
M  V30 1346 C 125.576 -1.02707 1.22161 0
M  V30 1347 C 125.776 -2.0128 0.0940557 0
M  V30 1348 O 124.832 -2.46452 -0.549318 0
M  V30 1349 C 126.145 -1.57454 2.56181 0
M  V30 1350 C 127.693 -1.69458 2.63159 0
M  V30 1351 C 128.168 -2.27611 3.97438 0
M  V30 1352 N 129.659 -2.35002 3.99159 0
M  V30 1353 C 130.394 -2.80972 4.99842 0
M  V30 1354 N 129.89 -3.26723 6.10921 0
M  V30 1355 N 131.683 -2.80321 4.87213 0
M  V30 1356 H 123.834 -0.0660492 2.12297 0
M  V30 1357 H 126.097 -0.0919077 0.943534 0
M  V30 1358 H 125.803 -0.924873 3.39321 0
M  V30 1359 H 125.677 -2.56036 2.76993 0
M  V30 1360 H 128.064 -2.33543 1.80393 0
M  V30 1361 H 128.145 -0.694867 2.46181 0
M  V30 1362 H 127.789 -1.6415 4.80643 0
M  V30 1363 H 127.719 -3.2829 4.11744 0
M  V30 1364 H 130.21 -2.02685 3.18947 0
M  V30 1365 H 130.523 -3.60355 6.8364 0
M  V30 1366 H 128.868 -3.24692 6.14492 0
M  V30 1367 H 132.059 -2.43912 3.9953 0
M  V30 1368 H 132.232 -3.15831 5.65822 0
M  V30 1369 N 125.638 -1.25649 -0.95132 0
M  V30 1370 C 126.585 -1.06323 -2.04851 0
M  V30 1371 C 127.555 0.0286491 -1.66075 0
M  V30 1372 O 128.74 -0.12917 -1.90362 0
M  V30 1373 C 125.88 -0.691529 -3.381 0
M  V30 1374 C 124.993 -1.85861 -3.89974 0
M  V30 1375 C 124.128 -1.43096 -5.11563 0
M  V30 1376 C 123.167 -2.56696 -5.55674 0
M  V30 1377 N 122.304 -2.14684 -6.68472 0
M  V30 1378 H 127.144 -2.00222 -2.20715 0
M  V30 1379 H 124.681 -0.997027 -1.08156 0
M  V30 1380 H 126.639 -0.456963 -4.1469 0
M  V30 1381 H 125.269 0.210474 -3.22113 0
M  V30 1382 H 124.321 -2.20639 -3.09875 0
M  V30 1383 H 125.633 -2.71161 -4.18657 0
M  V30 1384 H 124.787 -1.15624 -5.9558 0
M  V30 1385 H 123.526 -0.548722 -4.84603 0
M  V30 1386 H 122.531 -2.84909 -4.7022 0
M  V30 1387 H 123.756 -3.45503 -5.8464 0
M  V30 1388 H 121.702 -1.28881 -6.43215 0
M  V30 1389 H 121.619 -2.9353 -6.96689 0
M  V30 1390 H 122.887 -1.90397 -7.5589 0
M  V30 1391 N 127.117 1.15442 -1.07289 0
M  V30 1392 C 128.027 2.23786 -0.704057 0
M  V30 1393 C 129.043 1.7166 0.284413 0
M  V30 1394 O 130.219 2.00972 0.131205 0
M  V30 1395 C 127.284 3.46535 -0.106792 0
M  V30 1396 C 126.345 4.13654 -1.14842 0
M  V30 1397 C 125.578 5.30544 -0.57956 0
M  V30 1398 O 125.801 5.67187 0.604585 0
M  V30 1399 O 124.735 5.87154 -1.32414 0
M  V30 1400 H 128.561 2.57664 -1.60757 0
M  V30 1401 H 126.146 1.23152 -0.845803 0
M  V30 1402 H 128.028 4.20804 0.224048 0
M  V30 1403 H 126.703 3.14407 0.770049 0
M  V30 1404 H 125.61 3.4131 -1.5316 0
M  V30 1405 H 126.943 4.49861 -1.99714 0
M  V30 1406 N 128.595 0.856903 1.32268 0
M  V30 1407 C 129.841 0.462069 1.97466 0
M  V30 1408 C 130.174 -0.980298 1.67642 0
M  V30 1409 O 129.449 -1.68824 0.965858 0
M  V30 1410 C 129.732 0.704336 3.53145 0
M  V30 1411 C 129.585 2.19529 3.9259 0
M  V30 1412 C 130.904 0.1622 4.39801 0
M  V30 1413 H 128.023 0.169357 0.717278 0
M  V30 1414 H 130.665 1.07574 1.56614 0
M  V30 1415 H 128.815 0.181999 3.88073 0
M  V30 1416 H 130.487 2.78387 3.67829 0
M  V30 1417 H 128.73 2.67292 3.41668 0
M  V30 1418 H 129.401 2.31549 5.01088 0
M  V30 1419 H 131.877 0.608905 4.11621 0
M  V30 1420 H 130.753 0.361265 5.4771 0
M  V30 1421 H 131.014 -0.935158 4.32096 0
M  V30 1422 N 130.073 -1.45103 0.615059 0
M  V30 1423 C 131.036 -2.29025 -0.0895485 0
M  V30 1424 C 132.036 -1.40174 -0.787906 0
M  V30 1425 O 133.226 -1.62217 -0.634933 0
M  V30 1426 C 130.358 -3.21376 -1.13711 0
M  V30 1427 H 131.551 -2.92807 0.648382 0
M  V30 1428 H 129.104 -1.51749 0.374444 0
M  V30 1429 H 129.839 -2.6241 -1.90556 0
M  V30 1430 H 129.624 -3.86834 -0.640475 0
M  V30 1431 H 131.114 -3.84459 -1.63036 0
M  V30 1432 N 131.551 -0.354651 -1.53558 0
M  V30 1433 C 132.461 0.50515 -2.29097 0
M  V30 1434 C 133.477 1.10223 -1.34636 0
M  V30 1435 O 134.653 1.11553 -1.67684 0
M  V30 1436 C 131.718 1.63479 -3.05738 0
M  V30 1437 C 130.779 1.06636 -4.15845 0
M  V30 1438 C 130.012 2.14217 -4.88822 0
M  V30 1439 O 130.235 3.35137 -4.61562 0
M  V30 1440 O 129.169 1.77887 -5.75013 0
M  V30 1441 H 132.995 -0.109237 -3.03503 0
M  V30 1442 H 130.58 -0.119357 -1.48922 0
M  V30 1443 H 132.462 2.2918 -3.5363 0
M  V30 1444 H 131.137 2.23478 -2.34178 0
M  V30 1445 H 130.044 0.373565 -3.7223 0
M  V30 1446 H 131.377 0.511081 -4.89539 0
M  V30 1447 N 133.029 1.57378 -0.0835403 0
M  V30 1448 C 134.275 1.94217 0.583733 0
M  V30 1449 C 134.608 0.964653 1.68547 0
M  V30 1450 O 133.883 -0.00422258 1.945 0
M  V30 1451 C 134.166 3.41253 1.14972 0
M  V30 1452 C 134.019 4.49768 0.0538277 0
M  V30 1453 C 135.338 3.89352 2.05166 0
M  V30 1454 H 132.457 0.706233 0.210724 0
M  V30 1455 H 135.099 1.89392 -0.1519 0
M  V30 1456 H 133.249 3.45496 1.77665 0
M  V30 1457 H 134.921 4.57641 -0.579851 0
M  V30 1458 H 133.164 4.29432 -0.614068 0
M  V30 1459 H 133.835 5.49817 0.490452 0
M  V30 1460 H 136.311 3.87189 1.52393 0
M  V30 1461 H 135.187 4.92822 2.41698 0
M  V30 1462 H 135.448 3.27973 2.96456 0
M  V30 1463 N 134.507 -0.190092 1.56449 0
M  V30 1464 C 135.437 -1.23816 1.97969 0
M  V30 1465 C 136.418 -1.47201 0.852395 0
M  V30 1466 O 137.603 -1.58854 1.1171 0
M  V30 1467 C 134.733 -2.5813 2.3235 0
M  V30 1468 C 133.687 -2.49348 3.47864 0
M  V30 1469 C 133.013 -3.8798 3.67934 0
M  V30 1470 C 134.313 -2.01424 4.81898 0
M  V30 1471 H 136.007 -0.89311 2.85769 0
M  V30 1472 H 133.553 -0.428177 1.37487 0
M  V30 1473 H 135.506 -3.31637 2.59991 0
M  V30 1474 H 134.23 -2.94386 1.41438 0
M  V30 1475 H 132.889 -1.78297 3.20321 0
M  V30 1476 H 132.537 -4.21597 2.74344 0
M  V30 1477 H 132.237 -3.82978 4.45648 0
M  V30 1478 H 133.761 -4.63101 3.97957 0
M  V30 1479 H 135.175 -2.64693 5.08538 0
M  V30 1480 H 133.572 -2.07413 5.63116 0
M  V30 1481 H 134.642 -0.967677 4.75146 0
M  V30 1482 N 135.985 -1.50799 -0.457987 0
M  V30 1483 C 136.935 -1.67003 -1.55222 0
M  V30 1484 C 137.919 -0.52434 -1.52117 0
M  V30 1485 O 139.111 -0.779345 -1.58919 0
M  V30 1486 C 136.24 -1.77956 -2.93576 0
M  V30 1487 C 135.326 -2.98243 -3.01516 0
M  V30 1488 N 135.717 -4.21732 -2.79241 0
M  V30 1489 C 134.015 -2.97072 -3.32662 0
M  V30 1490 C 134.716 -5.02817 -2.92489 0
M  V30 1491 N 133.692 -4.37038 -3.23262 0
M  V30 1492 H 137.494 -2.60163 -1.36721 0
M  V30 1493 H 135.008 -1.48163 -0.664952 0
M  V30 1494 H 137.005 -1.87671 -3.72271 0
M  V30 1495 H 135.665 -0.859634 -3.13114 0
M  V30 1496 H 136.676 -4.51016 -2.54567 0
M  V30 1497 H 133.353 -2.14631 -3.58106 0
M  V30 1498 H 134.743 -6.11054 -2.79396 0
M  V30 1499 N 137.463 0.71206 -1.40597 0
M  V30 1500 C 138.879 1.02058 -1.22704 0
M  V30 1501 C 139.079 2.01228 -0.104729 0
M  V30 1502 O 138.135 2.4674 0.53624 0
M  V30 1503 C 139.448 1.56094 -2.57012 0
M  V30 1504 C 140.996 1.6806 -2.64054 0
M  V30 1505 C 141.471 2.25501 -3.9864 0
M  V30 1506 N 142.962 2.32882 -4.004 0
M  V30 1507 C 143.697 2.78317 -5.01325 0
M  V30 1508 N 143.193 3.23478 -6.12645 0
M  V30 1509 N 144.986 2.77733 -4.88693 0
M  V30 1510 H 137.137 0.0547896 -2.12329 0
M  V30 1511 H 139.4 0.0869027 -0.944008 0
M  V30 1512 H 139.106 0.906865 -3.39807 0
M  V30 1513 H 138.98 2.54564 -2.78347 0
M  V30 1514 H 141.367 2.32583 -1.81629 0
M  V30 1515 H 141.448 0.681802 -2.46546 0
M  V30 1516 H 141.092 1.61598 -4.81506 0
M  V30 1517 H 141.022 3.26102 -4.13479 0
M  V30 1518 H 143.513 2.00991 -3.20017 0
M  V30 1519 H 143.826 3.56725 -6.85542 0
M  V30 1520 H 142.171 3.21429 -6.16205 0
M  V30 1521 H 145.362 2.4179 -4.00818 0
M  V30 1522 H 145.535 3.12826 -5.67489 0
M  V30 1523 N 138.941 1.26152 0.944643 0
M  V30 1524 C 140.188 1.11492 1.69044 0
M  V30 1525 C 140.516 -0.342366 1.91463 0
M  V30 1526 O 139.771 -1.26812 1.49054 0
M  V30 1527 C 140.07 1.82541 3.07268 0
M  V30 1528 C 139.736 3.32445 3.04616 0
M  V30 1529 C 138.398 3.73337 3.036 0
M  V30 1530 C 140.75 4.28171 2.97185 0
M  V30 1531 C 138.078 5.08348 2.92915 0
M  V30 1532 C 140.43 5.63218 2.88041 0
M  V30 1533 C 139.094 6.03426 2.85366 0
M  V30 1534 H 138.364 0.407977 0.618576 0
M  V30 1535 H 141.011 1.56551 1.10291 0
M  V30 1536 H 139.316 1.29941 3.69625 0
M  V30 1537 H 141.013 1.68642 3.63815 0
M  V30 1538 H 137.603 2.99915 3.06185 0
M  V30 1539 H 141.787 3.97563 2.97081 0
M  V30 1540 H 137.043 5.38667 2.89219 0
M  V30 1541 H 141.217 6.37078 2.81254 0
M  V30 1542 H 138.844 7.07999 2.76842 0
M  V30 1543 N 140.419 -1.14872 1.07899 0
M  V30 1544 C 141.665 -1.86064 0.806725 0
M  V30 1545 C 141.998 -1.82434 -0.665706 0
M  V30 1546 O 141.273 -1.25138 -1.48899 0
M  V30 1547 C 141.556 -3.34929 1.32267 0
M  V30 1548 C 141.409 -3.47161 2.86006 0
M  V30 1549 C 142.728 -4.29863 0.943717 0
M  V30 1550 H 139.847 -0.675591 0.294526 0
M  V30 1551 H 142.489 -1.34925 1.33773 0
M  V30 1552 H 140.639 -3.78611 0.870974 0
M  V30 1553 H 142.311 -3.12302 3.39507 0
M  V30 1554 H 140.554 -2.88539 3.23925 0
M  V30 1555 H 141.225 -4.51777 3.17177 0
M  V30 1556 H 143.701 -3.9417 1.33302 0
M  V30 1557 H 142.577 -5.32494 1.33198 0
M  V30 1558 H 142.838 -4.41846 -0.149796 0
M  V30 1559 N 141.898 -0.863906 -1.31812 0
M  V30 1560 C 142.808 -0.318461 -2.32428 0
M  V30 1561 C 143.824 0.568496 -1.64451 0
M  V30 1562 O 145 0.46666 -1.95919 0
M  V30 1563 C 142.065 0.476355 -3.43412 0
M  V30 1564 C 141.126 -0.43784 -4.27061 0
M  V30 1565 C 140.359 0.319138 -5.32745 0
M  V30 1566 O 140.582 1.54799 -5.48993 0
M  V30 1567 O 139.516 -0.319861 -6.01049 0
M  V30 1568 H 143.342 -1.15229 -2.80991 0
M  V30 1569 H 140.927 -0.627103 -1.35602 0
M  V30 1570 H 142.809 0.927156 -4.11074 0
M  V30 1571 H 141.484 1.28683 -2.97022 0
M  V30 1572 H 140.391 -0.937013 -3.62175 0
M  V30 1573 H 141.724 -1.21375 -4.77 0
M  V30 1574 N 143.376 1.44774 -0.622745 0
M  V30 1575 C 144.601 2.06999 -0.128968 0
M  V30 1576 C 145.026 1.4617 1.1839 0
M  V30 1577 O 144.384 0.560007 1.72434 0
M  V30 1578 C 144.432 3.60595 -0.0188351 0
M  V30 1579 O 143.536 3.99398 1.02739 0
M  V30 1580 H 142.877 0.659047 -0.0809544 0
M  V30 1581 H 145.407 1.85784 -0.85705 0
M  V30 1582 H 145.417 4.07627 0.174476 0
M  V30 1583 H 144.092 4.04252 -0.977384 0
M  V30 1584 H 142.669 3.64011 0.809326 0
M  V30 1585 N 144.854 0.36279 1.53368 0
M  V30 1586 C 146.102 -0.227326 2.00817 0
M  V30 1587 C 146.423 -1.49511 1.25186 0
M  V30 1588 O 145.693 -1.92482 0.364348 0
M  V30 1589 H 144.273 -0.0869923 0.741917 0
M  V30 1590 H 146.935 0.488381 1.88682 0
M  V30 1591 H 146.031 -0.456273 3.08747 0
M  V30 1592 N 146.332 -1.57332 0.0918853 0
M  V30 1593 C 147.578 -1.94524 -0.573425 0
M  V30 1594 C 147.911 -0.973578 -1.68033 0
M  V30 1595 O 147.186 -0.00609226 -1.94499 0
M  V30 1596 C 147.469 -3.41858 -1.13161 0
M  V30 1597 C 147.322 -4.4979 -0.0299747 0
M  V30 1598 C 148.641 -3.90435 -2.03098 0
M  V30 1599 H 145.76 -0.70734 -0.206975 0
M  V30 1600 H 148.402 -1.89309 0.161942 0
M  V30 1601 H 146.552 -3.46433 -1.7583 0
M  V30 1602 H 148.224 -4.57327 0.604112 0
M  V30 1603 H 146.467 -4.291 0.636833 0
M  V30 1604 H 147.138 -5.50069 -0.461287 0
M  V30 1605 H 149.614 -3.87992 -1.50338 0
M  V30 1606 H 148.49 -4.94097 -2.39081 0
M  V30 1607 H 148.751 -3.29541 -2.94712 0
M  V30 1608 N 147.81 0.181792 -1.56548 0
M  V30 1609 C 148.72 1.24538 -1.98815 0
M  V30 1610 C 149.736 1.49045 -0.897861 0
M  V30 1611 O 150.912 1.61399 -1.20467 0
M  V30 1612 C 147.977 2.56683 -2.33055 0
M  V30 1613 C 147.038 2.40131 -3.55859 0
M  V30 1614 C 146.271 3.65975 -3.88456 0
M  V30 1615 O 146.494 4.70711 -3.22161 0
M  V30 1616 O 145.428 3.6071 -4.81842 0
M  V30 1617 H 149.254 0.916647 -2.89536 0
M  V30 1618 H 146.839 0.387842 -1.44278 0
M  V30 1619 H 148.721 3.34655 -2.56094 0
M  V30 1620 H 147.396 2.89157 -1.45498 0
M  V30 1621 H 146.303 1.60226 -3.38051 0
M  V30 1622 H 147.636 2.12585 -4.43924 0
M  V30 1623 N 149.288 1.51039 0.449983 0
M  V30 1624 C 150.236 1.71995 1.5659 0
M  V30 1625 C 151.23 0.586029 1.5894 0
M  V30 1626 O 152.436 0.76709 1.62837 0
M  V30 1627 H 148.811 0.543233 0.520001 0
M  V30 1628 H 150.782 2.65562 1.36085 0
M  V30 1629 C 149.531 1.8506 2.9436 0
M  V30 1630 H 148.854 2.71712 2.93279 0
M  V30 1631 H 150.294 2.0374 3.71842 0
M  V30 1632 C 148.753 0.607277 3.31382 0
M  V30 1633 O 149.283 -0.243903 4.00959 0
M  V30 1634 N 147.489 0.455073 2.87015 0
M  V30 1635 H 147.036 1.14879 2.30566 0
M  V30 1636 H 146.994 -0.375611 3.12148 0
M  V30 1637 N 150.766 -0.704594 1.40972 0
M  V30 1638 C 151.696 -1.83124 1.44872 0
M  V30 1639 C 152.677 -1.67281 0.30838 0
M  V30 1640 O 153.862 -1.87149 0.518556 0
M  V30 1641 C 150.992 -3.21181 1.32136 0
M  V30 1642 C 149.946 -3.51714 2.43888 0
M  V30 1643 C 149.272 -4.89032 2.16222 0
M  V30 1644 C 150.572 -3.516 3.86232 0
M  V30 1645 H 152.266 -1.80117 2.39161 0
M  V30 1646 H 149.812 -0.865145 1.15114 0
M  V30 1647 H 151.765 -3.99702 1.33479 0
M  V30 1648 H 150.489 -3.24791 0.343279 0
M  V30 1649 H 149.148 -2.75539 2.41813 0
M  V30 1650 H 148.796 -4.89256 1.16778 0
M  V30 1651 H 148.496 -5.10426 2.911 0
M  V30 1652 H 150.02 -5.69873 2.19265 0
M  V30 1653 H 151.434 -4.2014 3.9007 0
M  V30 1654 H 149.831 -3.84523 4.60719 0
M  V30 1655 H 150.901 -2.50757 4.15029 0
M  V30 1656 N 152.244 -1.26651 -0.937939 0
M  V30 1657 C 153.174 -1.10993 -2.05433 0
M  V30 1658 C 154.155 -0.0142161 -1.70094 0
M  V30 1659 O 155.34 -0.186837 -1.93299 0
M  V30 1660 C 152.47 -0.745561 -3.39203 0
M  V30 1661 C 151.424 -1.79337 -3.88616 0
M  V30 1662 C 150.75 -1.28324 -5.19073 0
M  V30 1663 C 152.05 -3.19553 -4.13138 0
M  V30 1664 H 153.744 -2.0438 -2.1879 0
M  V30 1665 H 151.29 -0.984041 -1.05131 0
M  V30 1666 H 153.243 -0.622888 -4.16771 0
M  V30 1667 H 151.967 0.22401 -3.25831 0
M  V30 1668 H 150.626 -1.90477 -3.13231 0
M  V30 1669 H 150.274 -0.303414 -5.02084 0
M  V30 1670 H 149.974 -1.98369 -5.53103 0
M  V30 1671 H 151.498 -1.1733 -5.99221 0
M  V30 1672 H 152.912 -3.11471 -4.81309 0
M  V30 1673 H 151.309 -3.87218 -4.58457 0
M  V30 1674 H 152.379 -3.65368 -3.18801 0
M  V30 1675 N 153.722 1.14298 -1.08507 0
M  V30 1676 C 154.685 2.17607 -0.719711 0
M  V30 1677 C 155.685 1.58907 0.245997 0
M  V30 1678 O 156.875 1.74181 0.0254081 0
M  V30 1679 C 154.007 3.40842 -0.0627695 0
M  V30 1680 H 155.2 2.51443 -1.63452 0
M  V30 1681 H 152.753 1.28963 -0.88307 0
M  V30 1682 H 153.488 3.12587 0.863716 0
M  V30 1683 H 153.273 3.84713 -0.757504 0
M  V30 1684 H 154.763 4.17221 0.177786 0
M  V30 1685 N 155.201 0.870884 1.31352 0
M  V30 1686 C 156.131 0.343096 2.30966 0
M  V30 1687 C 157.112 -0.566507 1.60389 0
M  V30 1688 O 158.297 -0.483336 1.88089 0
M  V30 1689 C 155.427 -0.455487 3.443 0
M  V30 1690 C 154.381 0.361103 4.26474 0
M  V30 1691 C 153.707 -0.563221 5.31725 0
M  V30 1692 C 155.007 1.59566 4.97329 0
M  V30 1693 H 156.701 1.17548 2.75359 0
M  V30 1694 H 154.247 0.566686 1.32381 0
M  V30 1695 H 156.2 -0.83525 4.13039 0
M  V30 1696 H 154.924 -1.32139 2.98675 0
M  V30 1697 H 153.583 0.722825 3.59403 0
M  V30 1698 H 153.231 -1.42643 4.82351 0
M  V30 1699 H 152.931 -0.0207409 5.87596 0
M  V30 1700 H 154.455 -0.939808 6.03324 0
M  V30 1701 H 155.869 1.28728 5.58661 0
M  V30 1702 H 154.266 2.07728 5.63 0
M  V30 1703 H 155.336 2.34798 4.24262 0
M  V30 1704 N 156.679 -1.44442 0.630414 0
M  V30 1705 C 158.095 -1.56832 0.295973 0
M  V30 1706 C 158.295 -1.61806 -1.20088 0
M  V30 1707 O 157.351 -1.5607 -1.9849 0
M  V30 1708 C 158.664 -2.84031 0.987264 0
M  V30 1709 C 160.212 -2.97742 0.96534 0
M  V30 1710 C 160.687 -4.27743 1.63708 0
M  V30 1711 N 162.178 -4.34555 1.60364 0
M  V30 1712 C 162.913 -5.33862 2.09234 0
M  V30 1713 N 162.409 -6.39578 2.66292 0
M  V30 1714 N 164.202 -5.25366 1.99867 0
M  V30 1715 H 156.353 -1.39457 1.60205 0
M  V30 1716 H 158.616 -0.668237 0.672431 0
M  V30 1717 H 158.322 -2.86338 2.04215 0
M  V30 1718 H 158.196 -3.73534 0.524588 0
M  V30 1719 H 160.583 -2.94989 -0.0810639 0
M  V30 1720 H 160.664 -2.09589 1.4665 0
M  V30 1721 H 160.308 -4.31255 2.68293 0
M  V30 1722 H 160.238 -5.14752 1.11076 0
M  V30 1723 H 162.729 -3.58772 1.18705 0
M  V30 1724 H 163.042 -7.11637 3.01317 0
M  V30 1725 H 161.387 -6.40265 2.70343 0
M  V30 1726 H 164.578 -4.41688 1.55013 0
M  V30 1727 H 164.751 -6.02606 2.38265 0
M  V30 1728 N 158.157 -0.370918 -1.53173 0
M  V30 1729 C 159.405 0.216673 -2.00935 0
M  V30 1730 C 159.726 1.48845 -1.25977 0
M  V30 1731 O 158.996 1.92286 -0.374551 0
M  V30 1732 H 157.576 0.0830565 -0.742368 0
M  V30 1733 H 160.238 -0.49838 -1.8842 0
M  V30 1734 H 159.334 0.439893 -3.08984 0
M  V30 1735 N 159.635 1.57281 -0.100228 0
M  V30 1736 C 160.912 1.86014 0.604812 0
M  V30 1737 C 161.292 0.998025 1.86018 0
M  V30 1738 O 160.64 0.0718184 2.28387 0
M  V30 1739 C 160.85 3.36784 0.915278 0
M  V30 1740 C 162.198 4.04957 1.27651 0
M  V30 1741 O 163.222 3.41695 1.00613 0
M  V30 1742 O 162.081 5.16593 1.7831 0
M  V30 1743 H 159.175 0.76942 0.303185 0
M  V30 1744 H 161.721 1.69176 -0.133313 0
M  V30 1745 H 160.493 3.91292 0.0248896 0
M  V30 1746 H 160.116 3.58987 1.70921 0
M  V30 1747 N 161.113 -0.173488 1.56642 0
M  V30 1748 C 162.524 -0.736155 1.71574 0
M  V30 1749 C 162.875 -1.82888 0.710389 0
M  V30 1750 O 162 -2.16017 -0.1287 0
M  V30 1751 C 162.595 -1.34211 3.11083 0
M  V30 1752 C 161.154 -1.85162 3.27707 0
M  V30 1753 C 160.301 -0.729765 2.67525 0
M  V30 1754 H 163.252 0.0518786 1.58615 0
M  V30 1755 H 163.273 -2.21178 3.09613 0
M  V30 1756 H 162.785 -0.546579 3.84232 0
M  V30 1757 H 160.886 -2.67366 2.59512 0
M  V30 1758 H 160.999 -1.99855 4.35425 0
M  V30 1759 H 159.363 -1.14965 2.27278 0
M  V30 1760 H 160.146 0.0538806 3.43258 0
M  V30 1761 N 162.591 -1.51276 -0.441967 0
M  V30 1762 C 164.002 -1.56244 -1.02199 0
M  V30 1763 C 164.353 -0.383149 -1.92422 0
M  V30 1764 O 163.478 0.500613 -2.1053 0
M  V30 1765 C 164.073 -2.83162 -1.86024 0
M  V30 1766 C 162.632 -2.90716 -2.39084 0
M  V30 1767 C 161.779 -2.50858 -1.18175 0
M  V30 1768 H 164.73 -1.5712 -0.223416 0
M  V30 1769 H 164.751 -2.66663 -2.71425 0
M  V30 1770 H 164.263 -3.68974 -1.20331 0
M  V30 1771 H 162.364 -2.09323 -3.08244 0
M  V30 1772 H 162.477 -3.94266 -2.72198 0
M  V30 1773 H 160.841 -2.03951 -1.52565 0
M  V30 1774 H 161.624 -3.3901 -0.541001 0
M  V30 1775 N 164.069 0.697108 -1.41344 0
M  V30 1776 C 165.485 1.00751 -1.2378 0
M  V30 1777 C 165.685 2.01105 -0.126066 0
M  V30 1778 O 164.741 2.47295 0.51004 0
M  V30 1779 C 166.054 1.53359 -2.58653 0
M  V30 1780 C 167.602 1.6525 -2.65822 0
M  V30 1781 C 168.077 2.2126 -4.01009 0
M  V30 1782 N 169.568 2.28622 -4.02847 0
M  V30 1783 C 170.303 2.72984 -5.04249 0
M  V30 1784 N 169.799 3.16962 -6.16041 0
M  V30 1785 N 171.592 2.72534 -4.91611 0
M  V30 1786 H 163.743 0.0322662 -2.12375 0
M  V30 1787 H 166.006 0.0768853 -0.944877 0
M  V30 1788 H 165.712 0.870773 -3.4075 0
M  V30 1789 H 165.586 2.51597 -2.81032 0
M  V30 1790 H 167.973 2.30644 -1.84086 0
M  V30 1791 H 168.054 0.655614 -2.47256 0
M  V30 1792 H 167.698 1.56482 -4.83193 0
M  V30 1793 H 167.628 3.21698 -4.16915 0
M  V30 1794 H 170.119 1.97585 -3.22131 0
M  V30 1795 H 170.432 3.49434 -6.89287 0
M  V30 1796 H 168.777 3.14875 -6.1958 0
M  V30 1797 H 171.968 2.37525 -4.0336 0
M  V30 1798 H 172.141 3.06789 -5.70775 0
M  V30 1799 N 165.547 1.27147 0.931209 0
M  V30 1800 C 166.795 1.13055 1.6752 0
M  V30 1801 C 167.116 -0.324791 1.92276 0
M  V30 1802 O 166.386 -1.22775 1.52654 0
M  V30 1803 H 164.966 0.415391 0.620854 0
M  V30 1804 H 167.628 1.59623 1.11833 0
M  V30 1805 H 166.724 1.65694 2.64485 0
M  V30 1806 N 167.025 -1.13721 1.09112 0
M  V30 1807 C 167.935 -2.22638 0.73957 0
M  V30 1808 C 168.951 -1.72091 -0.257068 0
M  V30 1809 O 170.127 -2.01155 -0.0992154 0
M  V30 1810 C 167.192 -3.46322 0.16191 0
M  V30 1811 C 166.253 -4.11775 1.21408 0
M  V30 1812 C 165.486 -5.29555 0.663891 0
M  V30 1813 O 165.709 -5.68077 -0.514274 0
M  V30 1814 O 164.643 -5.84973 1.41738 0
M  V30 1815 H 168.469 -2.55074 1.64836 0
M  V30 1816 H 166.054 -1.21791 0.865289 0
M  V30 1817 H 167.936 -4.21107 -0.157073 0
M  V30 1818 H 166.611 -3.15593 -0.719932 0
M  V30 1819 H 165.518 -3.3883 1.58571 0
M  V30 1820 H 166.851 -4.46627 2.06845 0
M  V30 1821 N 168.503 -0.877838 -1.30888 0
M  V30 1822 C 169.919 -0.570844 -1.49042 0
M  V30 1823 C 170.119 0.893159 -1.80624 0
M  V30 1824 O 169.175 1.67485 -1.88958 0
M  V30 1825 C 170.488 -1.47784 -2.61878 0
M  V30 1826 C 172.036 -1.48071 -2.75761 0
M  V30 1827 C 172.511 -2.37347 -3.91702 0
M  V30 1828 N 174.002 -2.35271 -3.99001 0
M  V30 1829 C 174.737 -3.01063 -4.88004 0
M  V30 1830 N 174.233 -3.76055 -5.81854 0
M  V30 1831 N 176.026 -2.90332 -4.81315 0
M  V30 1832 H 168.177 -1.82502 -1.0866 0
M  V30 1833 H 170.44 -0.780797 -0.537644 0
M  V30 1834 H 170.146 -2.51993 -2.45341 0
M  V30 1835 H 170.02 -1.18215 -3.58197 0
M  V30 1836 H 172.407 -0.446166 -2.91708 0
M  V30 1837 H 172.488 -1.81668 -1.80085 0
M  V30 1838 H 172.132 -3.40883 -3.76512 0
M  V30 1839 H 172.062 -2.01071 -4.86701 0
M  V30 1840 H 174.553 -1.80768 -3.3186 0
M  V30 1841 H 174.866 -4.23366 -6.46514 0
M  V30 1842 H 173.211 -3.80163 -5.81808 0
M  V30 1843 H 176.402 -2.31278 -4.06974 0
M  V30 1844 H 176.575 -3.41885 -5.50471 0
M  V30 1845 N 169.982 1.44106 -0.638065 0
M  V30 1846 C 171.228 2.02277 -0.145546 0
M  V30 1847 C 171.561 1.50125 1.23191 0
M  V30 1848 O 170.836 0.688133 1.8192 0
M  V30 1849 C 171.119 3.59829 -0.139791 0
M  V30 1850 C 170.972 4.22247 -1.55008 0
M  V30 1851 C 172.291 4.36873 0.531966 0
M  V30 1852 H 169.41 0.734992 -0.0543632 0
M  V30 1853 H 172.052 1.71592 -0.815863 0
M  V30 1854 H 170.202 3.86102 0.431007 0
M  V30 1855 H 171.874 4.07057 -2.1703 0
M  V30 1856 H 170.117 3.79476 -2.10191 0
M  V30 1857 H 170.788 5.31284 -1.49804 0
M  V30 1858 H 173.264 4.16074 0.0464781 0
M  V30 1859 H 172.14 5.4657 0.505206 0
M  V30 1860 H 172.401 4.11995 1.60352 0
M  V30 1861 N 171.46 0.379036 1.52974 0
M  V30 1862 C 172.707 -0.206421 2.01445 0
M  V30 1863 C 173.035 -1.47668 1.26587 0
M  V30 1864 O 172.29 -1.92514 0.351675 0
M  V30 1865 C 172.589 -0.53096 3.53434 0
M  V30 1866 C 172.255 0.646546 4.46241 0
M  V30 1867 C 170.917 0.969604 4.7133 0
M  V30 1868 C 173.269 1.43479 5.01062 0
M  V30 1869 C 170.597 2.08263 5.48492 0
M  V30 1870 C 172.949 2.53834 5.7944 0
M  V30 1871 C 171.613 2.86659 6.02812 0
M  V30 1872 H 170.883 -0.0755349 0.73714 0
M  V30 1873 H 173.53 0.514271 1.84465 0
M  V30 1874 H 171.835 -1.33285 3.68432 0
M  V30 1875 H 173.532 -0.996417 3.88423 0
M  V30 1876 H 170.122 0.384734 4.2687 0
M  V30 1877 H 174.306 1.19844 4.81613 0
M  V30 1878 H 169.562 2.34078 5.64816 0
M  V30 1879 H 173.736 3.15319 6.20924 0
M  V30 1880 H 171.363 3.73026 6.62387 0
M  V30 1881 N 172.938 -1.57226 0.108567 0
M  V30 1882 C 174.354 -1.5766 -0.248058 0
M  V30 1883 C 174.554 -1.12063 -1.67464 0
M  V30 1884 O 173.61 -0.803236 -2.39383 0
M  V30 1885 C 174.923 -3.0069 -0.0242287 0
M  V30 1886 C 176.471 -3.12868 -0.0909372 0
M  V30 1887 C 176.946 -4.57879 0.105067 0
M  V30 1888 N 178.437 -4.63172 0.0506846 0
M  V30 1889 C 179.172 -5.73126 0.177396 0
M  V30 1890 N 178.668 -6.91866 0.359696 0
M  V30 1891 N 180.461 -5.61977 0.117709 0
M  V30 1892 H 172.612 -1.85169 1.04049 0
M  V30 1893 H 174.875 -0.85529 0.40888 0
M  V30 1894 H 174.581 -3.38299 0.961604 0
M  V30 1895 H 174.455 -3.6945 -0.76068 0
M  V30 1896 H 176.842 -2.75124 -1.06729 0
M  V30 1897 H 176.923 -2.46672 0.677225 0
M  V30 1898 H 176.567 -4.96321 1.07834 0
M  V30 1899 H 176.497 -5.22153 -0.682954 0
M  V30 1900 H 178.988 -3.778 -0.0871266 0
M  V30 1901 H 179.301 -7.71503 0.447529 0
M  V30 1902 H 177.646 -6.93874 0.395536 0
M  V30 1903 H 180.837 -4.68094 -0.0236741 0
M  V30 1904 H 181.01 -6.47627 0.219905 0
M  V30 1905 N 174.416 0.165178 -1.56732 0
M  V30 1906 C 175.827 0.727046 -1.71962 0
M  V30 1907 C 176.178 1.82508 -0.720078 0
M  V30 1908 O 175.303 2.16082 0.117242 0
M  V30 1909 C 175.898 1.32559 -3.11791 0
M  V30 1910 C 174.457 1.83422 -3.28684 0
M  V30 1911 C 173.604 0.715567 -2.67908 0
M  V30 1912 H 176.555 -0.0602896 -1.58585 0
M  V30 1913 H 176.576 2.19533 -3.10782 0
M  V30 1914 H 176.088 0.526195 -3.84516 0
M  V30 1915 H 174.189 2.65986 -2.60926 0
M  V30 1916 H 174.302 1.97543 -4.36478 0
M  V30 1917 H 172.666 1.13758 -2.27884 0
M  V30 1918 H 173.449 -0.0720836 -3.43224 0
M  V30 1919 N 175.894 1.51508 0.433938 0
M  V30 1920 C 176.844 1.69451 1.52546 0
M  V30 1921 C 177.828 0.548474 1.51263 0
M  V30 1922 O 179.02 0.804529 1.57659 0
M  V30 1923 C 176.149 1.82604 2.90707 0
M  V30 1924 C 175.235 3.03002 2.96733 0
M  V30 1925 N 175.626 4.26121 2.72496 0
M  V30 1926 C 173.924 3.02327 3.27894 0
M  V30 1927 C 174.625 5.07407 2.84452 0
M  V30 1928 N 173.601 4.42126 3.16269 0
M  V30 1929 H 177.403 2.62305 1.32564 0
M  V30 1930 H 174.917 1.49202 0.641297 0
M  V30 1931 H 176.914 1.93569 3.69238 0
M  V30 1932 H 175.574 0.909339 3.11707 0
M  V30 1933 H 176.585 4.55009 2.4736 0
M  V30 1934 H 173.262 2.20301 3.54646 0
M  V30 1935 H 174.652 6.15422 2.69639 0
M  V30 1936 N 177.372 -0.689602 1.41712 0
M  V30 1937 C 178.783 -1.26973 1.36875 0
M  V30 1938 C 179.134 -1.96124 0.054748 0
M  V30 1939 O 178.259 -1.99141 -0.84687 0
M  V30 1940 C 178.854 -2.30912 2.47922 0
M  V30 1941 C 177.413 -2.84486 2.46464 0
M  V30 1942 C 176.56 -1.58603 2.27465 0
M  V30 1943 H 179.511 -0.48396 1.51141 0
M  V30 1944 H 179.532 -3.12331 2.17323 0
M  V30 1945 H 179.044 -1.80554 3.43543 0
M  V30 1946 H 177.145 -3.39005 1.54617 0
M  V30 1947 H 177.258 -3.34511 3.42986 0
M  V30 1948 H 175.622 -1.84632 1.75451 0
M  V30 1949 H 176.405 -1.10233 3.25121 0
M  V30 1950 N 178.85 -1.27639 -0.924453 0
M  V30 1951 C 179.76 -1.12466 -2.05885 0
M  V30 1952 C 180.776 -0.053869 -1.73917 0
M  V30 1953 O 181.952 -0.261012 -1.99702 0
M  V30 1954 C 179.017 -0.776768 -3.37886 0
M  V30 1955 C 178.078 -1.92878 -3.83532 0
M  V30 1956 C 177.311 -1.59739 -5.09234 0
M  V30 1957 O 177.534 -0.506782 -5.68144 0
M  V30 1958 O 176.468 -2.43761 -5.50331 0
M  V30 1959 H 180.294 -2.07671 -2.21599 0
M  V30 1960 H 177.879 -1.06857 -1.04413 0
M  V30 1961 H 179.761 -0.596229 -4.17161 0
M  V30 1962 H 178.436 0.145732 -3.23372 0
M  V30 1963 H 177.343 -2.1644 -3.0513 0
M  V30 1964 H 178.676 -2.8316 -4.02593 0
M  V30 1965 N 180.328 1.1314 -1.09713 0
M  V30 1966 C 181.576 1.84119 -0.833338 0
M  V30 1967 C 181.897 1.84097 0.642904 0
M  V30 1968 O 181.167 1.29881 1.46655 0
M  V30 1969 H 179.747 0.681766 -0.305293 0
M  V30 1970 H 182.409 1.37038 -1.38588 0
M  V30 1971 H 181.505 2.88543 -1.18951 0
M  V30 1972 N 181.806 0.884767 1.30421 0
M  V30 1973 C 183.053 0.503105 1.96151 0
M  V30 1974 C 183.381 -0.947676 1.69851 0
M  V30 1975 O 182.636 -1.68467 0.995861 0
M  V30 1976 C 182.935 0.724318 3.49983 0
M  V30 1977 C 182.601 2.15015 3.96332 0
M  V30 1978 C 181.263 2.54005 4.08699 0
M  V30 1979 C 183.615 3.07936 4.20505 0
M  V30 1980 C 180.943 3.85128 4.42599 0
M  V30 1981 C 183.295 4.3859 4.55874 0
M  V30 1982 C 181.959 4.77474 4.66449 0
M  V30 1983 H 181.229 0.184099 0.717766 0
M  V30 1984 H 183.876 1.12058 1.55291 0
M  V30 1985 H 182.181 0.0238086 3.91793 0
M  V30 1986 H 183.878 0.408617 3.98913 0
M  V30 1987 H 180.468 1.8375 3.87213 0
M  V30 1988 H 184.652 2.79033 4.10431 0
M  V30 1989 H 179.908 4.14996 4.48986 0
M  V30 1990 H 184.082 5.10629 4.7353 0
M  V30 1991 H 181.709 5.79115 4.92473 0
M  V30 1992 N 183.284 -1.43765 0.645699 0
M  V30 1993 C 184.7 -1.56509 0.312591 0
M  V30 1994 C 184.9 -1.6307 -1.18365 0
M  V30 1995 O 183.956 -1.58167 -1.96824 0
M  V30 1996 C 185.269 -2.82968 1.01733 0
M  V30 1997 C 186.817 -2.96701 0.996865 0
M  V30 1998 C 187.292 -4.25982 1.68236 0
M  V30 1999 N 188.783 -4.32829 1.64964 0
M  V30 2000 C 189.518 -5.31613 2.14885 0
M  V30 2001 N 189.014 -6.36718 2.73061 0
M  V30 2002 N 190.807 -5.23217 2.05428 0
M  V30 2003 H 182.958 -1.3775 1.61675 0
M  V30 2004 H 185.221 -0.661067 0.679481 0
M  V30 2005 H 184.927 -2.84156 2.0724 0
M  V30 2006 H 184.801 -3.72957 0.564177 0
M  V30 2007 H 187.188 -2.95058 -0.0497719 0
M  V30 2008 H 187.269 -2.08022 1.48865 0
M  V30 2009 H 186.913 -4.28386 2.72852 0
M  V30 2010 H 186.843 -5.13545 1.16529 0
M  V30 2011 H 189.334 -3.57493 1.22503 0
M  V30 2012 H 189.647 -7.08401 3.08848 0
M  V30 2013 H 187.992 -6.37362 2.77118 0
M  V30 2014 H 191.183 -4.40019 1.59689 0
M  V30 2015 H 191.356 -6.00045 2.44643 0
M  V30 2016 N 184.763 -0.387143 -1.52771 0
M  V30 2017 C 185.993 0.195585 -2.05672 0
M  V30 2018 C 186.401 1.41241 -1.25887 0
M  V30 2019 O 185.744 1.81265 -0.298081 0
M  V30 2020 C 185.806 0.632327 -3.53895 0
M  V30 2021 C 185.47 -0.470739 -4.54569 0
M  V30 2022 C 186.467 -1.32746 -5.02667 0
M  V30 2023 C 184.152 -0.637151 -4.98243 0
M  V30 2024 C 186.146 -2.33574 -5.93061 0
M  V30 2025 C 183.833 -1.64877 -5.88438 0
M  V30 2026 C 184.831 -2.49649 -6.35739 0
M  V30 2027 O 184.519 -3.49082 -7.24153 0
M  V30 2028 H 184.251 0.033658 -0.675162 0
M  V30 2029 H 186.805 -0.550221 -1.97893 0
M  V30 2030 H 185.035 1.43008 -3.59285 0
M  V30 2031 H 186.724 1.14048 -3.89548 0
M  V30 2032 H 187.49 -1.21019 -4.69659 0
M  V30 2033 H 183.369 0.0129567 -4.60998 0
M  V30 2034 H 186.913 -2.99777 -6.29904 0
M  V30 2035 H 182.81 -1.76643 -6.2086 0
M  V30 2036 H 183.578 -3.45065 -7.42208 0
M  V30 2037 N 186.241 1.57166 -0.116904 0
M  V30 2038 C 187.204 2.14039 0.819742 0
M  V30 2039 C 188.204 1.07477 1.19605 0
M  V30 2040 O 189.394 1.33263 1.1219 0
M  V30 2041 C 186.526 2.67891 2.10826 0
M  V30 2042 H 187.719 2.98128 0.325511 0
M  V30 2043 H 185.272 1.55739 0.132312 0
M  V30 2044 H 186.007 1.87384 2.64685 0
M  V30 2045 H 185.792 3.45823 1.84793 0
M  V30 2046 H 187.282 3.11809 2.77785 0
M  V30 2047 N 187.719 -0.156864 1.56817 0
M  V30 2048 C 188.682 -1.17781 1.96622 0
M  V30 2049 C 189.682 -1.36401 0.851555 0
M  V30 2050 O 190.872 -1.33561 1.11836 0
M  V30 2051 C 188.004 -2.54008 2.27361 0
M  V30 2052 H 189.197 -0.836564 2.87996 0
M  V30 2053 H 186.75 -0.39985 1.51099 0
M  V30 2054 H 187.485 -2.9312 1.38748 0
M  V30 2055 H 187.27 -2.41856 3.08623 0
M  V30 2056 H 188.76 -3.27558 2.59029 0
M  V30 2057 N 189.197 -1.51736 -0.425897 0
M  V30 2058 C 190.107 -1.76738 -1.54275 0
M  V30 2059 C 191.123 -0.65211 -1.61318 0
M  V30 2060 O 192.299 -0.935654 -1.78346 0
M  V30 2061 C 189.364 -1.89755 -2.90162 0
M  V30 2062 C 188.425 -3.13633 -2.93143 0
M  V30 2063 C 187.658 -3.2602 -4.22548 0
M  V30 2064 O 187.881 -2.44067 -5.15546 0
M  V30 2065 O 186.815 -4.19071 -4.32046 0
M  V30 2066 H 190.641 -2.71502 -1.36089 0
M  V30 2067 H 188.226 -1.36376 -0.610069 0
M  V30 2068 H 190.108 -2.00236 -3.70788 0
M  V30 2069 H 188.783 -0.981785 -3.08452 0
M  V30 2070 H 187.69 -3.08622 -2.11431 0
M  V30 2071 H 189.023 -4.04936 -2.798 0
M  V30 2072 N 190.675 0.682077 -1.42076 0
M  V30 2073 C 191.605 1.80796 -1.47767 0
M  V30 2074 C 192.586 1.6677 -0.334954 0
M  V30 2075 O 193.771 1.863 -0.548264 0
M  V30 2076 C 190.901 3.19038 -1.37229 0
M  V30 2077 C 189.855 3.47789 -2.49453 0
M  V30 2078 C 189.181 4.8553 -2.23975 0
M  V30 2079 C 190.481 3.45411 -3.91776 0
M  V30 2080 H 192.175 1.7629 -2.41997 0
M  V30 2081 H 189.721 0.846721 -1.16476 0
M  V30 2082 H 191.674 3.97528 -1.39821 0
M  V30 2083 H 190.398 3.24204 -0.394907 0
M  V30 2084 H 189.057 2.71657 -2.46166 0
M  V30 2085 H 188.705 4.87337 -1.24547 0
M  V30 2086 H 188.405 5.0573 -2.99184 0
M  V30 2087 H 189.929 5.66312 -2.28304 0
M  V30 2088 H 191.343 4.13882 -3.96705 0
M  V30 2089 H 189.74 3.77145 -4.66778 0
M  V30 2090 H 190.81 2.44122 -4.18966 0
M  V30 2091 N 192.153 1.28127 0.917671 0
M  V30 2092 C 193.399 1.15223 1.66888 0
M  V30 2093 C 193.732 -0.299293 1.9188 0
M  V30 2094 O 193.007 -1.21805 1.51637 0
M  V30 2095 C 193.29 1.94706 3.02922 0
M  V30 2096 C 193.143 3.47898 2.85109 0
M  V30 2097 C 194.462 1.75939 4.03402 0
M  V30 2098 H 191.581 0.419946 0.605652 0
M  V30 2099 H 194.223 1.57398 1.06423 0
M  V30 2100 H 192.373 1.58864 3.54534 0
M  V30 2101 H 194.045 3.93624 2.40537 0
M  V30 2102 H 192.288 3.7373 2.20246 0
M  V30 2103 H 192.959 3.98765 3.81694 0
M  V30 2104 H 195.435 2.07209 3.60837 0
M  V30 2105 H 194.311 2.33931 4.96556 0
M  V30 2106 H 194.572 0.709877 4.36364 0
M  V30 2107 N 193.631 -1.12557 1.10312 0
M  V30 2108 C 194.594 -2.16434 0.75424 0
M  V30 2109 C 195.594 -1.59278 -0.220685 0
M  V30 2110 O 196.784 -1.742 0.00230591 0
M  V30 2111 C 193.916 -3.40699 0.116987 0
M  V30 2112 H 195.109 -2.48811 1.67431 0
M  V30 2113 H 192.662 -1.27542 0.903475 0
M  V30 2114 H 193.397 -3.13921 -0.813877 0
M  V30 2115 H 193.182 -3.83459 0.818613 0
M  V30 2116 H 194.672 -4.17451 -0.111387 0
M  V30 2117 N 195.109 -0.891671 -1.2995 0
M  V30 2118 C 196.039 -0.379797 -2.30391 0
M  V30 2119 C 197.02 0.540919 -1.6127 0
M  V30 2120 O 198.205 0.453352 -1.88834 0
M  V30 2121 C 195.335 0.400654 -3.44981 0
M  V30 2122 C 194.289 -0.428905 -4.25846 0
M  V30 2123 C 193.615 0.478557 -5.32554 0
M  V30 2124 C 194.915 -1.67458 -4.94727 0
M  V30 2125 H 196.609 -1.21914 -2.73454 0
M  V30 2126 H 194.155 -0.587675 -1.31462 0
M  V30 2127 H 196.108 0.769434 -4.14316 0
M  V30 2128 H 194.832 1.27371 -3.0074 0
M  V30 2129 H 193.491 -0.779911 -3.58208 0
M  V30 2130 H 193.139 1.34951 -4.84559 0
M  V30 2131 H 192.839 -0.0727433 -5.87555 0
M  V30 2132 H 194.363 0.843705 -6.04743 0
M  V30 2133 H 195.777 -1.376 -5.56542 0
M  V30 2134 H 194.174 -2.16659 -5.59624 0
M  V30 2135 H 195.244 -2.41518 -4.20473 0
M  V30 2136 N 196.587 1.43421 -0.653314 0
M  V30 2137 C 197.836 2.01032 -0.164076 0
M  V30 2138 C 198.149 1.52147 1.22926 0
M  V30 2139 O 199.355 2.02031 1.81371 0
M  V30 2140 C 197.811 3.59082 -0.24252 0
M  V30 2141 C 197.419 4.1696 -1.63855 0
M  V30 2142 C 199.163 4.24079 0.18911 0
M  V30 2143 C 197.07 5.67304 -1.67092 0
M  V30 2144 H 196 0.751798 -0.0575769 0
M  V30 2145 H 198.651 1.6439 -0.815362 0
M  V30 2146 H 197.033 3.93125 0.476276 0
M  V30 2147 H 198.207 3.94416 -2.38271 0
M  V30 2148 H 196.522 3.64335 -2.01616 0
M  V30 2149 H 199.119 5.34381 0.184775 0
M  V30 2150 H 199.462 3.98005 1.22056 0
M  V30 2151 H 199.995 3.94918 -0.477938 0
M  V30 2152 H 196.734 5.98145 -2.68146 0
M  V30 2153 H 196.254 5.91904 -0.970014 0
M  V30 2154 H 197.933 6.31344 -1.4147 0
M  V30 2155 N 198.065 0.39524 1.52563 0
M  V30 2156 C 199.481 0.0454682 1.59535 0
M  V30 2157 C 199.681 -1.44056 1.4089 0
M  V30 2158 O 198.737 -2.20579 1.22888 0
M  V30 2159 C 200.05 0.527963 2.96029 0
M  V30 2160 C 201.598 0.484733 3.09224 0
M  V30 2161 C 202.073 0.943512 4.48176 0
M  V30 2162 N 203.564 0.899765 4.54377 0
M  V30 2163 C 204.299 1.22609 5.60138 0
M  V30 2164 N 203.795 1.62319 6.73516 0
M  V30 2165 N 205.588 1.14696 5.50274 0
M  V30 2166 H 197.739 1.36261 1.62931 0
M  V30 2167 H 200.002 0.558887 0.765735 0
M  V30 2168 H 199.708 1.56607 3.14908 0
M  V30 2169 H 199.582 -0.0698056 3.77135 0
M  V30 2170 H 201.969 -0.544298 2.90037 0
M  V30 2171 H 202.05 1.11838 2.30056 0
M  V30 2172 H 201.694 1.9708 4.68104 0
M  V30 2173 H 201.624 0.286817 5.25818 0
M  V30 2174 H 204.115 0.607632 3.72983 0
M  V30 2175 H 204.428 1.85567 7.5019 0
M  V30 2176 H 202.773 1.66211 6.74833 0
M  V30 2177 H 205.964 0.835701 4.6058 0
M  V30 2178 H 206.137 1.40459 6.32594 0
M  V30 2179 N 199.544 -1.57102 0.125237 0
M  V30 2180 C 200.454 -2.19191 -0.8362 0
M  V30 2181 C 201.47 -1.16985 -1.28805 0
M  V30 2182 O 202.646 -1.49479 -1.34974 0
M  V30 2183 C 199.711 -2.78407 -2.06617 0
M  V30 2184 C 198.772 -3.9567 -1.66565 0
M  V30 2185 C 198.005 -4.52052 -2.83698 0
M  V30 2186 O 198.228 -4.07326 -3.99302 0
M  V30 2187 O 197.162 -5.42645 -2.60423 0
M  V30 2188 H 200.988 -3.01816 -0.337776 0
M  V30 2189 H 198.573 -1.4906 -0.100695 0
M  V30 2190 H 200.455 -3.16129 -2.7864 0
M  V30 2191 H 199.13 -1.9881 -2.55453 0
M  V30 2192 H 198.037 -3.62705 -0.916296 0
M  V30 2193 H 199.37 -4.76722 -1.22464 0
M  V30 2194 N 201.022 0.148545 -1.56898 0
M  V30 2195 C 202.438 0.501131 -1.51528 0
M  V30 2196 C 202.638 1.83458 -0.833399 0
M  V30 2197 O 201.694 2.49259 -0.40328 0
M  V30 2198 C 203.007 0.512864 -2.96294 0
M  V30 2199 C 204.555 0.598487 -3.07225 0
M  V30 2200 C 205.03 0.640897 -4.53494 0
M  V30 2201 N 206.521 0.703163 -4.57832 0
M  V30 2202 C 207.256 0.756935 -5.68382 0
M  V30 2203 N 206.752 0.770147 -6.88506 0
M  V30 2204 N 208.545 0.797698 -5.56411 0
M  V30 2205 H 200.696 -0.725532 -1.99624 0
M  V30 2206 H 202.959 -0.264358 -0.910395 0
M  V30 2207 H 202.665 -0.398691 -3.49433 0
M  V30 2208 H 202.539 1.35133 -3.52163 0
M  V30 2209 H 204.926 1.50046 -2.54106 0
M  V30 2210 H 205.007 -0.267093 -2.54402 0
M  V30 2211 H 204.651 -0.256915 -5.0725 0
M  V30 2212 H 204.581 1.52295 -5.04097 0
M  V30 2213 H 207.072 0.700314 -3.71354 0
M  V30 2214 H 207.385 0.812983 -7.68512 0
M  V30 2215 H 205.73 0.738049 -6.9107 0
M  V30 2216 H 208.921 0.784535 -4.61479 0
M  V30 2217 H 209.094 0.83614 -6.42583 0
M  V30 2218 N 202.5 1.5196 0.417844 0
M  V30 2219 C 203.73 1.69181 1.18581 0
M  V30 2220 C 204.138 0.397104 1.84986 0
M  V30 2221 O 203.481 -0.636011 1.72339 0
M  V30 2222 C 203.543 2.76497 2.29759 0
M  V30 2223 C 203.207 4.18514 1.83563 0
M  V30 2224 C 204.204 5.02648 1.32821 0
M  V30 2225 C 201.889 4.64708 1.90661 0
M  V30 2226 C 203.883 6.31044 0.897894 0
M  V30 2227 C 201.57 5.93096 1.47241 0
M  V30 2228 C 202.568 6.76093 0.968891 0
M  V30 2229 O 202.256 8.02078 0.540924 0
M  V30 2230 H 201.988 0.570457 0.362705 0
M  V30 2231 H 204.542 1.99249 0.498885 0
M  V30 2232 H 202.772 2.41786 3.01789 0
M  V30 2233 H 204.461 2.82403 2.91553 0
M  V30 2234 H 205.227 4.68154 1.26716 0
M  V30 2235 H 201.106 4.00216 2.28797 0
M  V30 2236 H 204.65 6.95776 0.504192 0
M  V30 2237 H 200.547 6.271 1.53022 0
M  V30 2238 H 201.315 8.15794 0.66502 0
M  V30 2239 N 203.978 -0.674533 1.42435 0
M  V30 2240 C 205.226 -1.43175 1.42637 0
M  V30 2241 C 205.547 -1.94951 0.0438992 0
M  V30 2242 O 204.817 -1.7308 -0.917607 0
M  V30 2243 H 203.397 -0.531307 0.525092 0
M  V30 2244 H 206.059 -0.797006 1.77859 0
M  V30 2245 H 205.155 -2.28463 2.12629 0
M  V30 2246 N 205.456 -1.28612 -0.910864 0
M  V30 2247 C 206.733 -1.06632 -1.63979 0
M  V30 2248 C 207.113 0.393351 -2.07403 0
M  V30 2249 O 206.461 1.37999 -1.82122 0
M  V30 2250 C 206.671 -2.0436 -2.8291 0
M  V30 2251 C 208.019 -2.34666 -3.5386 0
M  V30 2252 O 209.043 -2.02467 -2.93062 0
M  V30 2253 O 207.902 -2.89631 -4.63439 0
M  V30 2254 H 204.996 -0.407737 -0.7195 0
M  V30 2255 H 207.542 -1.39942 -0.959914 0
M  V30 2256 H 206.314 -3.02727 -2.47936 0
M  V30 2257 H 205.937 -1.71714 -3.58609 0
M  V30 2258 N 206.934 1.1197 -1.10907 0
M  V30 2259 C 208.35 1.35591 -0.841852 0
M  V30 2260 C 208.55 1.94233 0.536246 0
M  V30 2261 O 207.606 2.1717 1.28816 0
M  V30 2262 C 208.919 2.29284 -1.94549 0
M  V30 2263 C 210.467 2.42862 -1.97451 0
M  V30 2264 C 210.942 3.39873 -3.07002 0
M  V30 2265 N 212.433 3.47433 -3.06341 0
M  V30 2266 C 213.168 4.22421 -3.87748 0
M  V30 2267 N 212.664 5.00432 -4.79103 0
M  V30 2268 N 214.457 4.17876 -3.75946 0
M  V30 2269 H 206.608 0.722664 -1.99728 0
M  V30 2270 H 208.871 0.380635 -0.868229 0
M  V30 2271 H 208.577 1.93378 -2.93765 0
M  V30 2272 H 208.451 3.29452 -1.83688 0
M  V30 2273 H 210.838 2.78046 -0.988645 0
M  V30 2274 H 210.919 1.42566 -2.12388 0
M  V30 2275 H 210.563 3.05417 -4.05811 0
M  V30 2276 H 210.493 4.40011 -2.89306 0
M  V30 2277 H 212.984 2.91784 -2.40147 0
M  V30 2278 H 213.297 5.55002 -5.37766 0
M  V30 2279 H 211.642 4.99612 -4.83128 0
M  V30 2280 H 214.833 3.56016 -3.03924 0
M  V30 2281 H 215.006 4.76061 -4.39624 0
M  V30 2282 N 208.412 0.89855 1.29475 0
M  V30 2283 C 209.658 0.524658 1.95896 0
M  V30 2284 C 209.991 -0.926468 1.70676 0
M  V30 2285 O 209.266 -1.65665 1.01908 0
M  V30 2286 C 209.549 0.81633 3.50725 0
M  V30 2287 C 209.402 2.31907 3.85408 0
M  V30 2288 C 210.721 0.302038 4.39062 0
M  V30 2289 H 207.84 0.19209 0.711527 0
M  V30 2290 H 210.482 1.12502 1.53112 0
M  V30 2291 H 208.632 0.305369 3.87298 0
M  V30 2292 H 210.304 2.89949 3.58786 0
M  V30 2293 H 208.547 2.78027 3.32992 0
M  V30 2294 H 209.218 2.47373 4.93468 0
M  V30 2295 H 211.694 0.739551 4.09475 0
M  V30 2296 H 210.57 0.535331 5.46283 0
M  V30 2297 H 210.831 -0.797216 4.34853 0
M  V30 2298 N 209.89 -1.43072 0.660911 0
M  V30 2299 C 211.115 -2.06584 0.183805 0
M  V30 2300 C 211.54 -1.49257 -1.14472 0
M  V30 2301 O 210.898 -0.605528 -1.70889 0
M  V30 2302 C 210.946 -3.60418 0.114434 0
M  V30 2303 O 210.05 -4.01981 -0.921137 0
M  V30 2304 H 209.391 -0.656669 0.0983994 0
M  V30 2305 H 211.921 -1.83447 0.906006 0
M  V30 2306 H 211.931 -4.07946 -0.0663394 0
M  V30 2307 H 210.606 -4.01519 1.08422 0
M  V30 2308 H 209.183 -3.66029 -0.71253 0
M  V30 2309 N 211.368 -0.403325 -1.52352 0
M  V30 2310 C 212.614 0.174605 -2.02047 0
M  V30 2311 C 212.947 1.45282 -1.28867 0
M  V30 2312 O 212.222 1.90483 -0.393257 0
M  V30 2313 C 212.505 0.428238 -3.57545 0
M  V30 2314 C 212.358 -0.866248 -4.4138 0
M  V30 2315 C 213.677 1.21287 -4.23057 0
M  V30 2316 H 210.796 0.0619851 -0.734389 0
M  V30 2317 H 213.438 -0.53565 -1.82293 0
M  V30 2318 H 211.588 1.03327 -3.74507 0
M  V30 2319 H 213.26 -1.50265 -4.3614 0
M  V30 2320 H 211.503 -1.47851 -4.07827 0
M  V30 2321 H 212.174 -0.643249 -5.48239 0
M  V30 2322 H 214.65 0.700703 -4.10158 0
M  V30 2323 H 213.526 1.35909 -5.31808 0
M  V30 2324 H 213.787 2.23193 -3.81625 0
M  V30 2325 N 212.846 1.57033 -0.133567 0
M  V30 2326 C 214.094 1.953 0.519848 0
M  V30 2327 C 214.415 1.01866 1.66278 0
M  V30 2328 O 213.685 0.0776513 1.95746 0
M  V30 2329 H 212.265 0.721091 0.195032 0
M  V30 2330 H 214.927 1.93809 -0.205921 0
M  V30 2331 H 214.023 2.98695 0.904854 0
M  V30 2332 N 214.325 -0.140222 1.56975 0
M  V30 2333 C 215.573 -0.850005 1.83356 0
M  V30 2334 C 215.894 -1.81399 0.71551 0
M  V30 2335 O 215.164 -1.94136 -0.262294 0
M  V30 2336 H 213.744 -0.316886 0.676456 0
M  V30 2337 H 216.406 -0.132608 1.94448 0
M  V30 2338 H 215.502 -1.40814 2.78528 0
M  V30 2339 N 215.803 -1.52179 -0.40978 0
M  V30 2340 C 216.766 -1.74853 -1.48186 0
M  V30 2341 C 217.766 -0.618417 -1.48433 0
M  V30 2342 O 218.956 -0.886286 -1.49969 0
M  V30 2343 C 216.088 -1.8303 -2.87598 0
M  V30 2344 H 217.281 -2.70559 -1.29374 0
M  V30 2345 H 214.834 -1.42586 -0.640233 0
M  V30 2346 H 215.569 -0.89236 -3.11781 0
M  V30 2347 H 215.354 -2.65187 -2.88822 0
M  V30 2348 H 216.844 -2.02316 -3.65319 0
M  V30 2349 N 217.281 0.66697 -1.42791 0
M  V30 2350 C 218.244 1.76211 -1.46568 0
M  V30 2351 C 219.244 1.56896 -0.352196 0
M  V30 2352 O 220.434 1.63044 -0.613364 0
M  V30 2353 C 217.566 3.14935 -1.30494 0
M  V30 2354 H 218.759 1.74247 -2.44086 0
M  V30 2355 H 216.312 0.877342 -1.29354 0
M  V30 2356 H 217.047 3.2252 -0.339301 0
M  V30 2357 H 216.832 3.30359 -2.11199 0
M  V30 2358 H 218.322 3.94821 -1.36038 0
M  V30 2359 N 218.759 1.29093 0.90403 0
M  V30 2360 C 219.989 1.19516 1.68522 0
M  V30 2361 C 220.397 -0.24738 1.87576 0
M  V30 2362 O 219.74 -1.17798 1.40959 0
M  V30 2363 C 219.802 1.83249 3.0929 0
M  V30 2364 C 219.466 3.32531 3.13484 0
M  V30 2365 C 220.463 4.28821 2.93953 0
M  V30 2366 C 218.148 3.73656 3.35688 0
M  V30 2367 C 220.142 5.64212 2.96553 0
M  V30 2368 C 217.829 5.0917 3.37919 0
M  V30 2369 C 218.827 6.04258 3.18373 0
M  V30 2370 O 218.515 7.37298 3.20385 0
M  V30 2371 H 218.247 0.415467 0.533257 0
M  V30 2372 H 220.801 1.70912 1.13922 0
M  V30 2373 H 219.031 1.26358 3.65473 0
M  V30 2374 H 220.72 1.68054 3.69476 0
M  V30 2375 H 221.486 3.98382 2.76616 0
M  V30 2376 H 217.365 3.00101 3.49943 0
M  V30 2377 H 220.909 6.38407 2.81216 0
M  V30 2378 H 216.806 5.39256 3.54787 0
M  V30 2379 H 217.574 7.46048 3.36681 0
M  V30 2380 N 220.237 -1.11381 1.11499 0
M  V30 2381 C 221.648 -1.6465 0.880191 0
M  V30 2382 C 221.999 -1.87199 -0.587434 0
M  V30 2383 O 221.124 -1.60667 -1.44966 0
M  V30 2384 C 221.719 -2.99105 1.59128 0
M  V30 2385 C 220.278 -3.49279 1.40289 0
M  V30 2386 C 219.425 -2.24077 1.63354 0
M  V30 2387 H 222.376 -0.950123 1.27116 0
M  V30 2388 H 222.397 -3.66107 1.03664 0
M  V30 2389 H 221.909 -2.82661 2.65941 0
M  V30 2390 H 220.01 -3.70887 0.356888 0
M  V30 2391 H 220.123 -4.2803 2.15238 0
M  V30 2392 H 218.487 -2.31733 1.05698 0
M  V30 2393 H 219.27 -2.10175 2.71443 0
M  V30 2394 N 221.715 -0.905404 -1.28997 0
M  V30 2395 C 222.625 -0.392246 -2.31298 0
M  V30 2396 C 223.641 0.515889 -1.66176 0
M  V30 2397 O 224.817 0.404093 -1.97304 0
M  V30 2398 C 221.882 0.36686 -3.44754 0
M  V30 2399 C 220.943 -0.573485 -4.25452 0
M  V30 2400 C 220.176 0.149488 -5.33491 0
M  V30 2401 O 220.399 1.37255 -5.5364 0
M  V30 2402 O 219.333 -0.510919 -5.99728 0
M  V30 2403 H 223.159 -1.2411 -2.77183 0
M  V30 2404 H 220.744 -0.669926 -1.33538 0
M  V30 2405 H 222.626 0.795907 -4.13816 0
M  V30 2406 H 221.301 1.19169 -3.00966 0
M  V30 2407 H 220.208 -1.05176 -3.59011 0
M  V30 2408 H 221.541 -1.36489 -4.72897 0
M  V30 2409 N 223.193 1.4272 -0.668489 0
M  V30 2410 C 224.441 2.01226 -0.187769 0
M  V30 2411 C 224.762 1.53092 1.2078 0
M  V30 2412 O 224.032 0.74993 1.80977 0
M  V30 2413 H 222.612 0.744041 -0.0664272 0
M  V30 2414 H 225.274 1.74723 -0.863583 0
M  V30 2415 H 224.37 3.11556 -0.184166 0
M  V30 2416 N 224.671 0.411399 1.52136 0
M  V30 2417 C 225.621 -0.430376 2.23901 0
M  V30 2418 C 226.605 -1.0116 1.25121 0
M  V30 2419 O 227.797 -0.934044 1.50348 0
M  V30 2420 C 224.926 -1.54527 3.06556 0
M  V30 2421 C 224.012 -0.9747 4.12747 0
M  V30 2422 N 224.403 -0.130991 5.0563 0
M  V30 2423 C 222.701 -1.24497 4.28271 0
M  V30 2424 C 223.402 0.186689 5.814 0
M  V30 2425 N 222.378 -0.42304 5.41951 0
M  V30 2426 H 226.18 0.220509 2.93072 0
M  V30 2427 H 223.694 0.221952 1.60876 0
M  V30 2428 H 225.691 -2.16093 3.56524 0
M  V30 2429 H 224.351 -2.19875 2.38925 0
M  V30 2430 H 225.362 0.23349 5.17373 0
M  V30 2431 H 222.039 -1.89787 3.7187 0
M  V30 2432 H 223.429 0.871673 6.66222 0
M  V30 2433 N 226.149 -1.5696 0.141893 0
M  V30 2434 C 227.56 -1.82797 -0.379776 0
M  V30 2435 C 227.911 -1.06033 -1.6508 0
M  V30 2436 O 227.036 -0.304011 -2.14254 0
M  V30 2437 C 227.631 -3.31578 -0.695802 0
M  V30 2438 C 226.19 -3.58014 -1.16201 0
M  V30 2439 C 225.337 -2.76699 -0.182455 0
M  V30 2440 H 228.288 -1.54406 0.366675 0
M  V30 2441 H 228.309 -3.47454 -1.55099 0
M  V30 2442 H 227.821 -3.87421 0.229449 0
M  V30 2443 H 225.922 -3.07553 -2.10338 0
M  V30 2444 H 226.035 -4.66501 -1.09151 0
M  V30 2445 H 224.399 -2.45618 -0.674072 0
M  V30 2446 H 225.182 -3.35311 0.736297 0
M  V30 2447 N 227.627 0.131896 -1.57047 0
M  V30 2448 C 228.537 1.1815 -2.02676 0
M  V30 2449 C 229.553 1.46113 -0.944824 0
M  V30 2450 O 230.729 1.57485 -1.25541 0
M  V30 2451 C 227.794 2.49139 -2.41103 0
M  V30 2452 C 226.855 2.28688 -3.63318 0
M  V30 2453 C 226.088 3.53431 -3.99903 0
M  V30 2454 O 226.311 4.60223 -3.36973 0
M  V30 2455 O 225.245 3.45198 -4.93074 0
M  V30 2456 H 229.071 0.824069 -2.92306 0
M  V30 2457 H 226.656 0.341745 -1.45439 0
M  V30 2458 H 228.538 3.26338 -2.66611 0
M  V30 2459 H 227.213 2.84382 -1.54624 0
M  V30 2460 H 226.12 1.4939 -3.42977 0
M  V30 2461 H 227.453 1.98355 -4.50462 0
M  V30 2462 N 229.106 1.52395 0.401703 0
M  V30 2463 C 230.331 1.70972 1.17403 0
M  V30 2464 C 230.756 0.421615 1.83314 0
M  V30 2465 O 230.114 -0.621564 1.70312 0
M  V30 2466 C 230.162 2.85151 2.20728 0
M  V30 2467 O 229.266 2.51238 3.27037 0
M  V30 2468 H 228.607 0.568927 0.342372 0
M  V30 2469 H 231.137 1.99131 0.469891 0
M  V30 2470 H 231.147 3.10279 2.64936 0
M  V30 2471 H 229.822 3.78603 1.7214 0
M  V30 2472 H 228.399 2.36808 2.88057 0
M  V30 2473 N 230.584 -0.659388 1.43143 0
M  V30 2474 C 231.494 -1.80167 1.50256 0
M  V30 2475 C 232.51 -1.69571 0.390106 0
M  V30 2476 O 233.686 -1.90849 0.643319 0
M  V30 2477 C 230.751 -3.16409 1.41725 0
M  V30 2478 C 229.812 -3.38848 2.63591 0
M  V30 2479 C 229.045 -4.68591 2.55458 0
M  V30 2480 O 229.268 -5.47532 1.59891 0
M  V30 2481 O 228.202 -4.92614 3.45854 0
M  V30 2482 H 232.028 -1.77121 2.46702 0
M  V30 2483 H 229.613 -0.817092 1.25076 0
M  V30 2484 H 231.495 -3.9768 1.39387 0
M  V30 2485 H 230.17 -3.20059 0.484118 0
M  V30 2486 H 229.077 -2.57366 2.71502 0
M  V30 2487 H 230.41 -3.4004 3.55856 0
M  V30 2488 N 232.062 -1.29571 -0.897171 0
M  V30 2489 C 233.287 -1.20705 -1.68656 0
M  V30 2490 C 233.712 0.228582 -1.86706 0
M  V30 2491 O 233.07 1.16494 -1.3892 0
M  V30 2492 C 233.118 -1.9282 -3.04717 0
M  V30 2493 O 232.222 -1.24697 -3.93096 0
M  V30 2494 H 231.563 -0.418126 -0.515816 0
M  V30 2495 H 234.093 -1.71183 -1.12061 0
M  V30 2496 H 234.103 -2.01372 -3.54843 0
M  V30 2497 H 232.778 -2.97239 -2.90899 0
M  V30 2498 H 231.355 -1.2442 -3.51531 0
M  V30 2499 N 233.54 1.10788 -1.12088 0
M  V30 2500 C 234.47 2.19083 -0.807755 0
M  V30 2501 C 235.451 1.6858 0.226859 0
M  V30 2502 O 236.636 1.93997 0.0888475 0
M  V30 2503 C 233.766 3.46344 -0.257576 0
M  V30 2504 C 232.72 4.101 -1.22483 0
M  V30 2505 C 232.046 5.32016 -0.535052 0
M  V30 2506 C 233.346 4.54236 -2.57811 0
M  V30 2507 H 235.04 2.45534 -1.71328 0
M  V30 2508 H 232.586 1.1801 -0.825205 0
M  V30 2509 H 234.539 4.21392 -0.0262679 0
M  V30 2510 H 233.263 3.19373 0.683278 0
M  V30 2511 H 231.922 3.37054 -1.44189 0
M  V30 2512 H 231.57 5.01319 0.410827 0
M  V30 2513 H 231.27 5.75625 -1.18024 0
M  V30 2514 H 232.794 6.09799 -0.312695 0
M  V30 2515 H 234.208 5.20575 -2.40155 0
M  V30 2516 H 232.605 5.08682 -3.18375 0
M  V30 2517 H 233.675 3.6734 -3.16528 0
M  V30 2518 N 235.018 0.912232 1.28515 0
M  V30 2519 C 235.928 0.404506 2.31086 0
M  V30 2520 C 236.944 -0.50707 1.66448 0
M  V30 2521 O 238.12 -0.393624 1.97516 0
M  V30 2522 C 235.185 -0.348572 3.44943 0
M  V30 2523 C 234.246 0.59604 4.25142 0
M  V30 2524 C 233.479 -0.121194 5.33562 0
M  V30 2525 O 233.702 -1.34317 5.5436 0
M  V30 2526 O 232.636 0.542716 5.99448 0
M  V30 2527 H 236.462 1.25579 2.76521 0
M  V30 2528 H 234.047 0.676998 1.33181 0
M  V30 2529 H 235.929 -0.77395 4.14232 0
M  V30 2530 H 234.604 -1.17571 3.01594 0
M  V30 2531 H 233.511 1.07079 3.58448 0
M  V30 2532 H 234.844 1.38995 4.72167 0
M  V30 2533 N 236.496 -1.42363 0.676048 0
M  V30 2534 C 237.459 -2.29199 0.00766941 0
M  V30 2535 C 238.459 -1.43389 -0.727745 0
M  V30 2536 O 239.649 -1.64764 -0.56556 0
M  V30 2537 C 236.781 -3.2591 -0.999785 0
M  V30 2538 H 237.974 -2.89794 0.771988 0
M  V30 2539 H 235.527 -1.50024 0.438468 0
M  V30 2540 H 236.262 -2.70256 -1.79255 0
M  V30 2541 H 236.047 -3.89202 -0.475829 0
M  V30 2542 H 237.537 -3.91028 -1.46583 0
M  V30 2543 N 237.974 -0.419461 -1.51915 0
M  V30 2544 C 239.251 0.211999 -1.94448 0
M  V30 2545 C 239.631 1.61703 -1.35703 0
M  V30 2546 O 238.979 2.22102 -0.536931 0
M  V30 2547 C 239.189 0.207872 -3.4838 0
M  V30 2548 C 240.537 0.422192 -4.22496 0
M  V30 2549 O 241.561 0.286778 -3.55044 0
M  V30 2550 O 240.42 0.690009 -5.42126 0
M  V30 2551 H 237.514 0.139586 -0.815135 0
M  V30 2552 H 240.06 -0.476151 -1.62883 0
M  V30 2553 H 238.832 -0.775102 -3.83546 0
M  V30 2554 H 238.455 0.939688 -3.86336 0
M  V30 2555 N 239.452 1.56882 -0.150215 0
M  V30 2556 C 240.382 2.19935 0.784284 0
M  V30 2557 C 241.363 1.14854 1.25469 0
M  V30 2558 O 242.548 1.43209 1.31168 0
M  V30 2559 C 239.678 2.82349 2.02229 0
M  V30 2560 C 238.632 3.93285 1.68853 0
M  V30 2561 C 237.958 4.42649 2.99944 0
M  V30 2562 C 239.258 5.13904 0.932714 0
M  V30 2563 H 240.952 2.9828 0.258781 0
M  V30 2564 H 238.498 1.43473 0.123029 0
M  V30 2565 H 240.451 3.25126 2.68088 0
M  V30 2566 H 239.175 2.0134 2.57157 0
M  V30 2567 H 237.834 3.5113 1.05371 0
M  V30 2568 H 237.482 3.58458 3.52869 0
M  V30 2569 H 237.182 5.17476 2.78374 0
M  V30 2570 H 238.706 4.88099 3.66868 0
M  V30 2571 H 240.12 5.53506 1.49345 0
M  V30 2572 H 238.517 5.94515 0.81684 0
M  V30 2573 H 239.587 4.84842 -0.0749568 0
M  V30 2574 N 240.93 -0.123565 1.57115 0
M  V30 2575 C 242.346 -0.476961 1.52306 0
M  V30 2576 C 242.546 -1.82109 0.86248 0
M  V30 2577 O 241.602 -2.48586 0.442884 0
M  V30 2578 C 242.915 -0.465661 2.97073 0
M  V30 2579 C 244.463 -0.549534 3.08138 0
M  V30 2580 C 244.938 -0.568669 4.54456 0
M  V30 2581 N 246.429 -0.630237 4.58892 0
M  V30 2582 C 247.164 -0.666415 5.69514 0
M  V30 2583 N 246.66 -0.660514 6.89644 0
M  V30 2584 N 248.453 -0.709077 5.5761 0
M  V30 2585 H 240.604 0.757198 1.98445 0
M  V30 2586 H 242.867 0.278808 0.906074 0
M  V30 2587 H 242.573 0.454232 3.48754 0
M  V30 2588 H 242.447 -1.29513 3.54269 0
M  V30 2589 H 244.834 -1.45985 2.56461 0
M  V30 2590 H 244.915 0.307532 2.53945 0
M  V30 2591 H 244.559 0.337581 5.06777 0
M  V30 2592 H 244.489 -1.44256 5.06456 0
M  V30 2593 H 246.98 -0.641146 3.72421 0
M  V30 2594 H 247.293 -0.690616 7.69708 0
M  V30 2595 H 245.638 -0.628012 6.92157 0
M  V30 2596 H 248.829 -0.711019 4.62668 0
M  V30 2597 H 249.002 -0.733804 6.43832 0
M  V30 2598 N 242.408 -1.52605 -0.393616 0
M  V30 2599 C 243.358 -1.73436 -1.48 0
M  V30 2600 C 244.342 -0.588386 -1.49756 0
M  V30 2601 O 245.534 -0.846047 -1.5547 0
M  V30 2602 C 242.663 -1.90247 -2.85764 0
M  V30 2603 C 241.749 -3.10763 -2.88595 0
M  V30 2604 N 242.14 -4.33196 -2.61103 0
M  V30 2605 C 240.438 -3.10914 -3.19763 0
M  V30 2606 C 241.139 -5.1477 -2.70899 0
M  V30 2607 N 240.115 -4.50356 -3.04435 0
M  V30 2608 H 243.917 -2.65727 -1.25563 0
M  V30 2609 H 241.431 -1.5085 -0.601513 0
M  V30 2610 H 243.428 -2.03291 -3.63976 0
M  V30 2611 H 242.088 -0.991663 -3.09186 0
M  V30 2612 H 243.099 -4.61408 -2.35209 0
M  V30 2613 H 239.776 -2.29626 -3.4868 0
M  V30 2614 H 241.166 -6.22355 -2.53227 0
M  V30 2615 N 243.887 0.651787 -1.4349 0
M  V30 2616 C 245.134 1.41167 -1.45183 0
M  V30 2617 C 245.462 1.94349 -0.0766601 0
M  V30 2618 O 244.717 1.72804 0.918555 0
M  V30 2619 C 245.016 2.60914 -2.44251 0
M  V30 2620 C 244.682 2.26142 -3.9009 0
M  V30 2621 C 243.344 2.16371 -4.2981 0
M  V30 2622 C 245.696 1.98334 -4.81989 0
M  V30 2623 C 243.024 1.7695 -5.5938 0
M  V30 2624 C 245.376 1.6041 -6.11924 0
M  V30 2625 C 244.04 1.49166 -6.5062 0
M  V30 2626 H 243.31 0.516566 -0.531263 0
M  V30 2627 H 245.957 0.741099 -1.76579 0
M  V30 2628 H 244.262 3.3311 -2.06265 0
M  V30 2629 H 245.959 3.19127 -2.42815 0
M  V30 2630 H 242.549 2.34658 -3.58655 0
M  V30 2631 H 246.733 2.04803 -4.52072 0
M  V30 2632 H 241.989 1.66831 -5.88198 0
M  V30 2633 H 246.163 1.37925 -6.82605 0
M  V30 2634 H 243.79 1.1839 -7.50925 0
M  V30 2635 N 245.365 1.30045 0.890287 0
M  V30 2636 C 246.312 1.15976 1.99545 0
M  V30 2637 C 247.282 0.0506202 1.66023 0
M  V30 2638 O 248.467 0.219847 1.89529 0
M  V30 2639 C 245.607 0.852054 3.34416 0
M  V30 2640 C 244.72 2.04255 3.80662 0
M  V30 2641 C 243.855 1.6734 5.04154 0
M  V30 2642 C 242.894 2.82916 5.42794 0
M  V30 2643 N 242.031 2.46333 6.57468 0
M  V30 2644 H 246.871 2.10524 2.10911 0
M  V30 2645 H 244.408 1.04749 1.03276 0
M  V30 2646 H 246.366 0.654296 4.12037 0
M  V30 2647 H 244.996 -0.0565502 3.2275 0
M  V30 2648 H 244.048 2.35172 2.98995 0
M  V30 2649 H 245.36 2.90826 4.05242 0
M  V30 2650 H 244.514 1.43908 5.89386 0
M  V30 2651 H 243.253 0.779308 4.81433 0
M  V30 2652 H 242.258 3.0702 4.56091 0
M  V30 2653 H 243.483 3.73004 5.6749 0
M  V30 2654 H 241.429 1.59423 6.36334 0
M  V30 2655 H 241.346 3.26436 6.81891 0
M  V30 2656 H 242.614 2.26244 7.45945 0
M  V30 2657 N 246.843 -1.10192 1.12674 0
M  V30 2658 C 247.806 -2.14786 0.799979 0
M  V30 2659 C 248.806 -1.59711 -0.18685 0
M  V30 2660 O 249.996 -1.74156 0.0392558 0
M  V30 2661 C 247.128 -3.40374 0.189228 0
M  V30 2662 H 248.321 -2.45203 1.72671 0
M  V30 2663 H 245.874 -1.25597 0.930326 0
M  V30 2664 H 246.609 -3.15577 -0.747107 0
M  V30 2665 H 246.394 -3.81637 0.899766 0
M  V30 2666 H 247.884 -4.17594 -0.0228143 0
M  V30 2667 N 248.321 -0.919034 -1.28029 0
M  V30 2668 C 249.268 -0.410005 -2.27129 0
M  V30 2669 C 250.238 0.518405 -1.57803 0
M  V30 2670 O 251.423 0.439451 -1.8567 0
M  V30 2671 C 248.563 0.339054 -3.4343 0
M  V30 2672 C 247.676 -0.622468 -4.27492 0
M  V30 2673 C 246.811 0.145567 -5.31001 0
M  V30 2674 C 245.85 -0.809226 -6.06727 0
M  V30 2675 N 244.987 -0.0743728 -7.02061 0
M  V30 2676 H 249.827 -1.26011 -2.70047 0
M  V30 2677 H 247.364 -0.632663 -1.328 0
M  V30 2678 H 249.322 0.789586 -4.0966 0
M  V30 2679 H 247.952 1.15346 -3.01488 0
M  V30 2680 H 247.004 -1.19153 -3.61257 0
M  V30 2681 H 248.316 -1.35252 -4.80113 0
M  V30 2682 H 247.47 0.656417 -6.03139 0
M  V30 2683 H 246.209 0.908643 -4.79161 0
M  V30 2684 H 245.214 -1.3314 -5.33436 0
M  V30 2685 H 246.439 -1.57194 -6.60656 0
M  V30 2686 H 244.385 0.670616 -6.52563 0
M  V30 2687 H 244.302 -0.744157 -7.52329 0
M  V30 2688 H 245.57 0.416109 -7.78389 0
M  V30 2689 N 249.799 1.42003 -0.683588 0
M  V30 2690 C 251.045 2.01712 -0.209825 0
M  V30 2691 C 251.378 1.53968 1.18353 0
M  V30 2692 O 250.653 0.745661 1.79639 0
M  V30 2693 C 250.936 3.59202 -0.254197 0
M  V30 2694 C 250.789 4.17102 -1.68363 0
M  V30 2695 C 252.108 4.38344 0.392709 0
M  V30 2696 H 249.227 0.732891 -0.0777189 0
M  V30 2697 H 251.869 1.68909 -0.87004 0
M  V30 2698 H 250.019 3.87278 0.307954 0
M  V30 2699 H 251.691 3.99946 -2.29871 0
M  V30 2700 H 249.934 3.72597 -2.22157 0
M  V30 2701 H 250.605 5.26249 -1.6663 0
M  V30 2702 H 253.081 4.16011 -0.0859162 0
M  V30 2703 H 251.957 5.47901 0.331063 0
M  V30 2704 H 252.218 4.16887 1.47164 0
M  V30 2705 N 251.277 0.427512 1.51691 0
M  V30 2706 C 252.187 -0.39527 2.31246 0
M  V30 2707 C 253.203 -1.03674 1.39742 0
M  V30 2708 O 254.379 -1.03425 1.72816 0
M  V30 2709 C 251.444 -1.48706 3.13189 0
M  V30 2710 C 250.505 -0.866743 4.20459 0
M  V30 2711 C 249.738 -1.90651 4.98486 0
M  V30 2712 O 249.961 -3.12733 4.77026 0
M  V30 2713 O 248.895 -1.5025 5.82845 0
M  V30 2714 H 252.721 0.253918 3.02637 0
M  V30 2715 H 250.306 0.190274 1.48183 0
M  V30 2716 H 252.188 -2.12047 3.64162 0
M  V30 2717 H 250.863 -2.12051 2.44573 0
M  V30 2718 H 249.77 -0.195544 3.73589 0
M  V30 2719 H 251.103 -0.276934 4.9142 0
M  V30 2720 N 252.755 -1.56801 0.158532 0
M  V30 2721 C 253.718 -2.16138 -0.762705 0
M  V30 2722 C 254.718 -1.1061 -1.16713 0
M  V30 2723 O 255.908 -1.36191 -1.08617 0
M  V30 2724 C 253.04 -2.73386 -2.03649 0
M  V30 2725 H 254.233 -2.98886 -0.246354 0
M  V30 2726 H 251.786 -1.56035 -0.0909744 0
M  V30 2727 H 252.521 -1.94335 -2.59623 0
M  V30 2728 H 252.306 -3.50601 -1.75559 0
M  V30 2729 H 253.796 -3.19065 -2.6942 0
M  V30 2730 N 254.233 0.115231 -1.57178 0
M  V30 2731 C 255.481 0.820727 -1.84685 0
M  V30 2732 C 255.802 1.80237 -0.744279 0
M  V30 2733 O 255.072 1.94529 0.231375 0
M  V30 2734 H 253.652 0.306084 -0.681411 0
M  V30 2735 H 256.314 0.101656 -1.94635 0
M  V30 2736 H 255.41 1.36366 -2.80733 0
M  V30 2737 N 255.711 1.52812 0.385517 0
M  V30 2738 C 256.641 1.80808 1.47752 0
M  V30 2739 C 257.622 0.660318 1.5676 0
M  V30 2740 O 258.807 0.908246 1.71652 0
M  V30 2741 C 255.937 1.98008 2.85324 0
M  V30 2742 C 254.891 3.13709 2.91154 0
M  V30 2743 C 254.217 3.16169 4.31209 0
M  V30 2744 C 255.517 4.52709 2.60483 0
M  V30 2745 H 257.211 2.72253 1.24573 0
M  V30 2746 H 254.757 1.31003 0.597839 0
M  V30 2747 H 256.71 2.16176 3.61726 0
M  V30 2748 H 255.434 1.03255 3.09848 0
M  V30 2749 H 254.093 2.95329 2.17201 0
M  V30 2750 H 253.741 2.19092 4.52778 0
M  V30 2751 H 253.441 3.93894 4.36029 0
M  V30 2752 H 254.965 3.36496 5.09512 0
M  V30 2753 H 256.379 4.71173 3.26602 0
M  V30 2754 H 254.776 5.32528 2.76648 0
M  V30 2755 H 255.846 4.59186 1.55809 0
M  V30 2756 N 257.189 -0.644168 1.43834 0
M  V30 2757 C 258.466 -1.40188 1.36406 0
M  V30 2758 C 258.846 -2.11094 0.0163124 0
M  V30 2759 O 258.194 -2.05426 -1.00062 0
M  V30 2760 C 258.404 -2.3791 2.55343 0
M  V30 2761 C 259.752 -3.01637 2.98832 0
M  V30 2762 O 260.776 -2.48237 2.55455 0
M  V30 2763 O 259.635 -3.98477 3.74003 0
M  V30 2764 H 256.729 -0.626773 0.539523 0
M  V30 2765 H 259.275 -0.670317 1.559 0
M  V30 2766 H 258.047 -1.84525 3.4506 0
M  V30 2767 H 257.67 -3.18503 2.37995 0
M  V30 2768 N 258.668 -1.30515 -0.883378 0
M  V30 2769 C 259.915 -1.1943 -1.63532 0
M  V30 2770 C 260.243 0.250627 -1.92878 0
M  V30 2771 O 259.498 1.19556 -1.54935 0
M  V30 2772 C 259.797 -1.96994 -2.98209 0
M  V30 2773 C 259.463 -3.466 -2.88408 0
M  V30 2774 C 258.125 -3.87397 -2.85442 0
M  V30 2775 C 260.477 -4.41863 -2.76418 0
M  V30 2776 C 257.805 -5.21745 -2.68327 0
M  V30 2777 C 260.157 -5.7632 -2.60841 0
M  V30 2778 C 258.821 -6.16354 -2.56251 0
M  V30 2779 H 258.091 -0.437025 -0.598406 0
M  V30 2780 H 260.738 -1.61635 -1.02696 0
M  V30 2781 H 259.043 -1.47429 -3.63004 0
M  V30 2782 H 260.74 -1.85808 -3.55354 0
M  V30 2783 H 257.33 -3.14182 -2.91527 0
M  V30 2784 H 261.514 -4.11285 -2.77775 0
M  V30 2785 H 256.77 -5.51853 -2.63189 0
M  V30 2786 H 260.944 -6.49772 -2.50538 0
M  V30 2787 H 258.571 -7.20401 -2.42748 0
M  V30 2788 N 260.146 1.09593 -1.13257 0
M  V30 2789 C 261.109 2.14359 -0.811358 0
M  V30 2790 C 262.109 1.59808 0.178377 0
M  V30 2791 O 263.299 1.74132 -0.0484911 0
M  V30 2792 C 260.431 3.40269 -0.207276 0
M  V30 2793 H 261.624 2.44284 -1.73969 0
M  V30 2794 H 259.177 1.25102 -0.936973 0
M  V30 2795 H 259.912 3.15969 0.73036 0
M  V30 2796 H 259.697 3.81154 -0.919992 0
M  V30 2797 H 261.187 4.176 0.000667944 0
M  V30 2798 N 261.624 0.925811 1.2754 0
M  V30 2799 C 262.873 0.561084 1.93739 0
M  V30 2800 C 263.186 -0.901685 1.73577 0
M  V30 2801 O 264.392 -1.37511 2.34101 0
M  V30 2802 C 262.848 0.952668 3.47062 0
M  V30 2803 C 262.456 2.43599 3.75983 0
M  V30 2804 C 264.2 0.659103 4.19352 0
M  V30 2805 C 262.107 2.76707 5.22673 0
M  V30 2806 H 261.037 0.206122 0.725279 0
M  V30 2807 H 263.688 1.12637 1.44863 0
M  V30 2808 H 262.07 0.316053 3.94737 0
M  V30 2809 H 263.244 3.12035 3.39073 0
M  V30 2810 H 261.559 2.70125 3.16893 0
M  V30 2811 H 264.156 0.882985 5.27359 0
M  V30 2812 H 264.499 -0.403607 4.14339 0
M  V30 2813 H 265.032 1.25473 3.77494 0
M  V30 2814 H 261.771 3.8188 5.32774 0
M  V30 2815 H 261.291 2.12919 5.60737 0
M  V30 2816 H 262.97 2.6435 5.90532 0
M  V30 2817 N 263.102 -1.41638 0.69111 0
M  V30 2818 C 264.33 -2.05628 0.22909 0
M  V30 2819 C 264.745 -1.51992 -1.11999 0
M  V30 2820 O 264.102 -0.666322 -1.69901 0
M  V30 2821 C 264.153 -3.61084 0.173283 0
M  V30 2822 O 263.874 -4.12735 1.46907 0
M  V30 2823 C 265.375 -4.42213 -0.310266 0
M  V30 2824 H 262.595 -0.662327 0.107534 0
M  V30 2825 H 265.139 -1.81489 0.942438 0
M  V30 2826 H 263.294 -3.84278 -0.490858 0
M  V30 2827 H 263.708 -5.06743 1.35322 0
M  V30 2828 H 265.182 -5.51194 -0.298196 0
M  V30 2829 H 265.659 -4.1799 -1.34838 0
M  V30 2830 H 266.265 -4.24074 0.322716 0
M  V30 2831 N 264.58 -0.43555 -1.51462 0
M  V30 2832 C 265.512 0.41257 -2.25456 0
M  V30 2833 C 266.525 0.987822 -1.29406 0
M  V30 2834 O 267.714 0.882266 -1.55172 0
M  V30 2835 C 264.814 1.58894 -2.99342 0
M  V30 2836 C 263.987 1.13288 -4.22474 0
M  V30 2837 C 263.046 2.17917 -4.78956 0
M  V30 2838 O 262.072 1.77425 -5.40841 0
M  V30 2839 N 263.274 3.50382 -4.62832 0
M  V30 2840 H 266.039 -0.221603 -2.9888 0
M  V30 2841 H 263.6 -0.264342 -1.59727 0
M  V30 2842 H 265.592 2.28508 -3.34015 0
M  V30 2843 H 264.162 2.12849 -2.28941 0
M  V30 2844 H 263.382 0.263881 -3.93316 0
M  V30 2845 H 264.67 0.805542 -5.02383 0
M  V30 2846 H 264.068 3.86013 -4.13534 0
M  V30 2847 H 262.625 4.15895 -5.01871 0
M  V30 2848 N 266.058 1.56714 -0.166846 0
M  V30 2849 C 266.988 2.20754 0.760913 0
M  V30 2850 C 267.969 1.16178 1.24244 0
M  V30 2851 O 269.154 1.44592 1.29641 0
M  V30 2852 C 266.284 2.84478 1.99223 0
M  V30 2853 C 265.238 3.95053 1.64672 0
M  V30 2854 C 264.564 4.45805 2.95232 0
M  V30 2855 C 265.864 5.14865 0.878155 0
M  V30 2856 H 267.558 2.98537 0.22713 0
M  V30 2857 H 265.104 1.43596 0.107805 0
M  V30 2858 H 267.057 3.27951 2.64624 0
M  V30 2859 H 265.781 2.04056 2.55007 0
M  V30 2860 H 264.44 3.52228 1.01641 0
M  V30 2861 H 264.088 3.62181 3.49047 0
M  V30 2862 H 263.788 5.204 2.7287 0
M  V30 2863 H 265.312 4.91962 3.6167 0
M  V30 2864 H 266.726 5.55059 1.43466 0
M  V30 2865 H 265.123 5.95348 0.753738 0
M  V30 2866 H 266.193 4.84735 -0.126377 0
M  V30 2867 N 267.536 -0.106894 1.57237 0
M  V30 2868 C 268.783 -0.812526 1.85484 0
M  V30 2869 C 269.111 -1.79304 0.753687 0
M  V30 2870 O 268.366 -1.94047 -0.253853 0
M  V30 2871 C 268.665 -1.58628 3.20268 0
M  V30 2872 C 268.331 -0.748967 4.44636 0
M  V30 2873 C 266.993 -0.518104 4.78403 0
M  V30 2874 C 269.345 -0.166122 5.20935 0
M  V30 2875 C 266.673 0.305659 5.85903 0
M  V30 2876 C 269.025 0.644899 6.29304 0
M  V30 2877 C 267.689 0.885965 6.61594 0
M  V30 2878 H 266.959 -0.297324 0.678734 0
M  V30 2879 H 269.606 -0.0744332 1.91355 0
M  V30 2880 H 267.911 -2.39562 3.10028 0
M  V30 2881 H 269.608 -2.13643 3.39349 0
M  V30 2882 H 266.198 -0.939006 4.18187 0
M  V30 2883 H 270.382 -0.33167 4.95191 0
M  V30 2884 H 265.638 0.501528 6.0934 0
M  V30 2885 H 269.812 1.10345 6.87602 0
M  V30 2886 H 267.439 1.52609 7.44725 0
M  V30 2887 N 269.014 -1.53014 -0.377408 0
M  V30 2888 C 270.261 -1.68623 -1.12128 0
M  V30 2889 C 270.589 -0.431997 -1.89642 0
M  V30 2890 O 269.844 0.585855 -1.86725 0
M  V30 2891 C 270.143 -2.87982 -2.11663 0
M  V30 2892 C 269.809 -4.24964 -1.50719 0
M  V30 2893 C 268.471 -4.62217 -1.33825 0
M  V30 2894 C 270.823 -5.10199 -1.06519 0
M  V30 2895 C 268.151 -5.82352 -0.712963 0
M  V30 2896 C 270.503 -6.30969 -0.453955 0
M  V30 2897 C 269.167 -6.66944 -0.272411 0
M  V30 2898 H 268.437 -0.617034 -0.410305 0
M  V30 2899 H 271.084 -1.8718 -0.404484 0
M  V30 2900 H 269.389 -2.63889 -2.89603 0
M  V30 2901 H 271.086 -2.97253 -2.6915 0
M  V30 2902 H 267.676 -3.95626 -1.64858 0
M  V30 2903 H 271.86 -4.81978 -1.18368 0
M  V30 2904 H 267.116 -6.08824 -0.560611 0
M  V30 2905 H 271.29 -6.96324 -0.103217 0
M  V30 2906 H 268.917 -7.59898 0.214181 0
M  V30 2907 N 270.492 0.636531 -1.44174 0
M  V30 2908 C 271.44 1.76995 -1.50915 0
M  V30 2909 C 272.434 1.65053 -0.381295 0
M  V30 2910 O 273.64 1.71197 -0.55601 0
M  V30 2911 H 270.015 0.584247 -0.473455 0
M  V30 2912 H 271.986 1.68432 -2.4632 0
M  V30 2913 C 270.735 3.15314 -1.46534 0
M  V30 2914 H 270.058 3.25149 -2.32633 0
M  V30 2915 H 271.498 3.9453 -1.55312 0
M  V30 2916 C 269.957 3.3639 -0.185305 0
M  V30 2917 O 270.487 3.94699 0.746688 0
M  V30 2918 N 268.693 2.9046 -0.0901606 0
M  V30 2919 H 268.24 2.43193 -0.849416 0
M  V30 2920 H 268.198 3.04937 0.765553 0
M  V30 2921 N 271.97 1.30982 0.876444 0
M  V30 2922 C 272.918 1.18006 2.00443 0
M  V30 2923 C 273.912 0.0898871 1.69161 0
M  V30 2924 O 275.118 0.251333 1.78237 0
M  V30 2925 H 271.493 0.365196 0.65737 0
M  V30 2926 H 273.464 2.13453 2.0852 0
M  V30 2927 C 272.213 0.897521 3.35916 0
M  V30 2928 H 271.536 1.7285 3.60504 0
M  V30 2929 H 272.976 0.846874 4.15456 0
M  V30 2930 C 271.435 -0.399674 3.34521 0
M  V30 2931 O 271.965 -1.41852 3.7582 0
M  V30 2932 N 270.171 -0.413893 2.87637 0
M  V30 2933 H 269.718 0.41571 2.54224 0
M  V30 2934 H 269.676 -1.28175 2.87086 0
M  V30 2935 N 273.449 -1.08991 1.13837 0
M  V30 2936 C 274.412 -2.13925 0.822715 0
M  V30 2937 C 275.412 -1.599 -0.1699 0
M  V30 2938 O 276.602 -1.74104 0.0577251 0
M  V30 2939 C 273.734 -3.40155 0.225318 0
M  V30 2940 H 274.927 -2.43358 1.75262 0
M  V30 2941 H 272.48 -1.24603 0.943594 0
M  V30 2942 H 273.215 -3.16352 -0.713594 0
M  V30 2943 H 273 -3.80661 0.940193 0
M  V30 2944 H 274.49 -4.17594 0.0214784 0
M  V30 2945 N 274.927 -0.932562 -1.27047 0
M  V30 2946 C 275.877 -0.406392 -2.24349 0
M  V30 2947 C 276.861 0.492066 -1.53191 0
M  V30 2948 O 278.053 0.328717 -1.73921 0
M  V30 2949 C 275.182 0.335214 -3.41659 0
M  V30 2950 C 274.268 -0.58004 -4.20115 0
M  V30 2951 N 274.659 -1.70203 -4.76303 0
M  V30 2952 C 272.957 -0.383974 -4.44344 0
M  V30 2953 C 273.658 -2.27167 -5.35509 0
M  V30 2954 N 272.634 -1.56068 -5.20715 0
M  V30 2955 H 276.436 -1.26299 -2.65378 0
M  V30 2956 H 273.95 -0.787408 -1.42034 0
M  V30 2957 H 275.947 0.729142 -4.10474 0
M  V30 2958 H 274.607 1.18868 -3.0216 0
M  V30 2959 H 275.618 -2.08433 -4.74106 0
M  V30 2960 H 272.295 0.428436 -4.15296 0
M  V30 2961 H 273.685 -3.21654 -5.89905 0
M  V30 2962 N 276.405 1.4127 -0.698611 0
M  V30 2963 C 277.635 2.05205 -0.239644 0
M  V30 2964 C 278.043 1.52684 1.11733 0
M  V30 2965 O 277.386 0.671222 1.70998 0
M  V30 2966 C 277.448 3.59289 -0.123126 0
M  V30 2967 C 277.112 4.34619 -1.41263 0
M  V30 2968 C 278.109 4.63701 -2.35111 0
M  V30 2969 C 275.794 4.73837 -1.66684 0
M  V30 2970 C 277.788 5.30966 -3.52639 0
M  V30 2971 C 275.475 5.40837 -2.84498 0
M  V30 2972 C 276.473 5.69329 -3.77298 0
M  V30 2973 O 276.161 6.34949 -4.93047 0
M  V30 2974 H 275.893 0.66723 -0.108537 0
M  V30 2975 H 278.447 1.81974 -0.952602 0
M  V30 2976 H 276.677 3.81272 0.645628 0
M  V30 2977 H 278.366 4.04797 0.299056 0
M  V30 2978 H 279.132 4.33882 -2.16729 0
M  V30 2979 H 275.011 4.51039 -0.953135 0
M  V30 2980 H 278.555 5.53121 -4.25091 0
M  V30 2981 H 274.452 5.70075 -3.02795 0
M  V30 2982 H 275.22 6.53445 -4.92902 0
M  V30 2983 N 277.883 0.443576 1.51229 0
M  V30 2984 C 279.13 -0.120796 2.02139 0
M  V30 2985 C 279.458 -1.42166 1.32736 0
M  V30 2986 O 278.713 -1.90849 0.43301 0
M  V30 2987 C 279.012 -0.380579 3.55368 0
M  V30 2988 C 278.678 0.83523 4.43097 0
M  V30 2989 C 277.34 1.16864 4.66794 0
M  V30 2990 C 279.692 1.64601 4.94526 0
M  V30 2991 C 277.02 2.31339 5.39165 0
M  V30 2992 C 279.372 2.78181 5.68153 0
M  V30 2993 C 278.036 3.11969 5.90112 0
M  V30 2994 H 277.306 -0.0442023 0.73968 0
M  V30 2995 H 279.953 0.592046 1.82118 0
M  V30 2996 H 278.258 -1.17538 3.73754 0
M  V30 2997 H 279.955 -0.830777 3.923 0
M  V30 2998 H 276.545 0.565437 4.24854 0
M  V30 2999 H 280.729 1.40163 4.76097 0
M  V30 3000 H 275.985 2.57823 5.5438 0
M  V30 3001 H 280.159 3.41371 6.06992 0
M  V30 3002 H 277.786 4.00784 6.45969 0
M  V30 3003 N 279.361 -1.56624 0.175154 0
M  V30 3004 C 280.609 -1.96609 -0.467885 0
M  V30 3005 C 280.93 -1.06238 -1.63519 0
M  V30 3006 O 280.2 -0.129523 -1.95471 0
M  V30 3007 H 278.78 -0.726008 -0.175845 0
M  V30 3008 H 281.442 -1.93195 0.257234 0
M  V30 3009 H 280.538 -3.00989 -0.825342 0
M  V30 3010 N 280.839 0.0985539 -1.57292 0
M  V30 3011 C 282.086 0.802678 -1.85912 0
M  V30 3012 C 282.414 1.78901 -0.763186 0
M  V30 3013 O 281.669 1.94178 0.243559 0
M  V30 3014 C 281.968 1.56927 -3.21105 0
M  V30 3015 C 281.634 0.725376 -4.45027 0
M  V30 3016 C 280.296 0.492726 -4.78671 0
M  V30 3017 C 282.648 0.138493 -5.21016 0
M  V30 3018 C 279.976 -0.336727 -5.85733 0
M  V30 3019 C 282.328 -0.678264 -6.28953 0
M  V30 3020 C 280.992 -0.921039 -6.61115 0
M  V30 3021 H 280.262 0.293721 -0.680301 0
M  V30 3022 H 282.909 0.0642841 -1.91392 0
M  V30 3023 H 281.214 2.37914 -3.11294 0
M  V30 3024 H 282.911 2.11841 -3.40477 0
M  V30 3025 H 279.501 0.916815 -4.18679 0
M  V30 3026 H 283.685 0.305404 -4.95359 0
M  V30 3027 H 278.941 -0.533836 -6.09065 0
M  V30 3028 H 283.115 -1.1399 -6.87007 0
M  V30 3029 H 280.742 -1.56556 -7.43905 0
M  V30 3030 N 282.317 1.53212 0.369288 0
M  V30 3031 C 283.247 1.82365 1.45826 0
M  V30 3032 C 284.228 0.676907 1.56051 0
M  V30 3033 O 285.413 0.926401 1.70679 0
M  V30 3034 C 282.543 2.01023 2.83208 0
M  V30 3035 C 281.497 3.1678 2.8781 0
M  V30 3036 C 280.823 3.20724 4.27832 0
M  V30 3037 C 282.123 4.55447 2.55667 0
M  V30 3038 H 283.817 2.73559 1.21678 0
M  V30 3039 H 281.363 1.3163 0.583911 0
M  V30 3040 H 283.316 2.20001 3.59413 0
M  V30 3041 H 282.04 1.06536 3.08736 0
M  V30 3042 H 280.699 2.97616 2.14056 0
M  V30 3043 H 280.347 2.23882 4.50429 0
M  V30 3044 H 280.047 3.98496 4.31827 0
M  V30 3045 H 281.571 3.41881 5.05915 0
M  V30 3046 H 282.985 4.74611 3.21586 0
M  V30 3047 H 281.382 5.35432 2.70984 0
M  V30 3048 H 282.452 4.60812 1.5093 0
M  V30 3049 N 283.795 -0.628877 1.44509 0
M  V30 3050 C 284.705 -1.7694 1.54044 0
M  V30 3051 C 285.721 -1.68705 0.425987 0
M  V30 3052 O 286.897 -1.89442 0.683656 0
M  V30 3053 C 283.962 -3.13332 1.48405 0
M  V30 3054 C 283.023 -3.33181 2.70719 0
M  V30 3055 C 282.256 -4.63067 2.6534 0
M  V30 3056 O 282.479 -5.44017 1.71469 0
M  V30 3057 O 281.413 -4.85167 3.56226 0
M  V30 3058 H 285.239 -1.71848 2.50403 0
M  V30 3059 H 282.824 -0.790378 1.26781 0
M  V30 3060 H 284.706 -3.94634 1.47791 0
M  V30 3061 H 283.381 -3.1896 0.551898 0
M  V30 3062 H 282.288 -2.51549 2.769 0
M  V30 3063 H 283.621 -3.32416 3.62988 0
M  V30 3064 N 285.273 -1.31445 -0.869486 0
M  V30 3065 C 286.689 -1.10113 -1.15531 0
M  V30 3066 C 286.889 0.128087 -2.01092 0
M  V30 3067 O 285.945 0.817276 -2.38908 0
M  V30 3068 C 287.258 -2.37291 -1.84698 0
M  V30 3069 C 288.806 -2.42906 -1.97397 0
M  V30 3070 C 289.281 -3.69967 -2.69979 0
M  V30 3071 N 290.772 -3.70864 -2.77514 0
M  V30 3072 C 291.507 -4.65875 -3.34287 0
M  V30 3073 N 291.003 -5.71242 -3.91988 0
M  V30 3074 N 292.796 -4.53394 -3.3225 0
M  V30 3075 H 284.947 -2.1028 -0.299347 0
M  V30 3076 H 287.21 -0.927683 -0.195214 0
M  V30 3077 H 286.916 -3.27078 -1.29278 0
M  V30 3078 H 286.79 -2.47125 -2.84972 0
M  V30 3079 H 289.177 -1.53588 -2.51982 0
M  V30 3080 H 289.258 -2.37036 -0.961643 0
M  V30 3081 H 288.902 -4.59652 -2.16062 0
M  V30 3082 H 288.832 -3.73103 -3.7162 0
M  V30 3083 H 291.323 -2.94697 -2.36563 0
M  V30 3084 H 291.636 -6.39817 -4.33421 0
M  V30 3085 H 289.981 -5.75015 -3.90362 0
M  V30 3086 H 293.172 -3.70252 -2.8641 0
M  V30 3087 H 293.345 -5.27617 -3.76197 0
M  V30 3088 N 286.751 1.08385 -1.14413 0
M  V30 3089 C 287.714 2.13486 -0.834048 0
M  V30 3090 C 288.714 1.59988 0.161418 0
M  V30 3091 O 289.904 1.74071 -0.0669575 0
M  V30 3092 C 287.036 3.4003 -0.243354 0
M  V30 3093 H 288.229 2.42425 -1.7655 0
M  V30 3094 H 285.782 1.24101 -0.950189 0
M  V30 3095 H 286.517 3.16726 0.696807 0
M  V30 3096 H 286.302 3.80157 -0.960367 0
M  V30 3097 H 287.792 4.17577 -0.0436242 0
M  V30 3098 N 288.23 0.939286 1.26551 0
M  V30 3099 C 289.646 0.641304 1.46149 0
M  V30 3100 C 289.846 -0.805964 1.84679 0
M  V30 3101 O 288.902 -1.58278 1.96734 0
M  V30 3102 C 290.215 1.6011 2.54529 0
M  V30 3103 C 291.763 1.6106 2.68382 0
M  V30 3104 C 292.238 2.55765 3.79932 0
M  V30 3105 N 293.729 2.5404 3.87322 0
M  V30 3106 C 294.464 3.24004 4.73085 0
M  V30 3107 N 293.96 4.03388 5.63249 0
M  V30 3108 N 295.753 3.12965 4.66914 0
M  V30 3109 H 287.904 1.87478 0.998285 0
M  V30 3110 H 290.167 0.805559 0.499779 0
M  V30 3111 H 289.873 2.63412 2.33039 0
M  V30 3112 H 289.747 1.35171 3.52149 0
M  V30 3113 H 292.134 0.584835 2.89247 0
M  V30 3114 H 292.215 1.90053 1.71212 0
M  V30 3115 H 291.859 3.58458 3.5982 0
M  V30 3116 H 291.789 2.24063 4.76554 0
M  V30 3117 H 294.28 1.96396 3.22858 0
M  V30 3118 H 294.593 4.5373 6.25579 0
M  V30 3119 H 292.938 4.07489 5.63008 0
M  V30 3120 H 296.129 2.50432 3.95476 0
M  V30 3121 H 296.302 3.67759 5.33533 0
M  V30 3122 N 289.708 -1.40897 0.706093 0
M  V30 3123 C 291.124 -1.55042 0.37869 0
M  V30 3124 C 291.324 -1.67944 -1.11342 0
M  V30 3125 O 290.38 -1.66372 -1.89938 0
M  V30 3126 C 291.693 -2.78398 1.13643 0
M  V30 3127 C 293.241 -2.92206 1.12181 0
M  V30 3128 C 293.716 -4.18463 1.86152 0
M  V30 3129 N 295.207 -4.25443 1.83173 0
M  V30 3130 C 295.942 -5.2202 2.37239 0
M  V30 3131 N 295.438 -6.24563 2.99821 0
M  V30 3132 N 297.231 -5.14033 2.27435 0
M  V30 3133 H 289.382 -1.30769 1.67372 0
M  V30 3134 H 291.645 -0.631653 0.706907 0
M  V30 3135 H 291.351 -2.7511 2.19106 0
M  V30 3136 H 291.225 -3.70228 0.721853 0
M  V30 3137 H 293.612 -2.95004 0.0754171 0
M  V30 3138 H 293.693 -2.01521 1.57554 0
M  V30 3139 H 293.337 -4.16427 2.90776 0
M  V30 3140 H 293.267 -5.08141 1.38206 0
M  V30 3141 H 295.758 -3.51976 1.37556 0
M  V30 3142 H 296.071 -6.94665 3.38616 0
M  V30 3143 H 294.416 -6.25035 3.03902 0
M  V30 3144 H 297.607 -4.3285 1.78208 0
M  V30 3145 H 297.78 -5.89129 2.69873 0
M  V30 3146 N 291.186 -0.45159 -1.50991 0
M  V30 3147 C 292.149 0.341117 -2.26647 0
M  V30 3148 C 293.149 0.937422 -1.30649 0
M  V30 3149 O 294.339 0.809644 -1.54241 0
M  V30 3150 C 291.471 1.48398 -3.06905 0
M  V30 3151 H 292.664 -0.322117 -2.98165 0
M  V30 3152 H 290.217 -0.205122 -1.54948 0
M  V30 3153 H 290.952 2.18284 -2.39838 0
M  V30 3154 H 290.737 1.06241 -3.77432 0
M  V30 3155 H 292.227 2.04367 -3.64176 0
M  V30 3156 N 292.664 1.56529 -0.183458 0
M  V30 3157 C 293.912 1.96855 0.457452 0
M  V30 3158 C 294.233 1.07104 1.62953 0
M  V30 3159 O 293.503 0.139887 1.954 0
M  V30 3160 H 292.083 0.72693 0.171992 0
M  V30 3161 H 294.745 1.93056 -0.267476 0
M  V30 3162 H 293.841 3.01423 0.809368 0
M  V30 3163 N 294.142 -0.090211 1.57342 0
M  V30 3164 C 295.391 -0.791531 1.8552 0
M  V30 3165 C 295.704 -1.79659 0.773441 0
M  V30 3166 O 296.91 -2.54616 0.942497 0
M  V30 3167 C 295.366 -1.45856 3.2902 0
M  V30 3168 C 294.974 -0.493017 4.45279 0
M  V30 3169 C 296.718 -2.14332 3.66418 0
M  V30 3170 C 294.625 -1.16491 5.79814 0
M  V30 3171 H 293.555 -0.299356 0.692027 0
M  V30 3172 H 296.206 -0.0445343 1.83446 0
M  V30 3173 H 294.588 -2.25318 3.2565 0
M  V30 3174 H 295.762 0.270464 4.60006 0
M  V30 3175 H 294.077 0.0863061 4.16311 0
M  V30 3176 H 296.674 -2.65344 4.64216 0
M  V30 3177 H 297.017 -2.93447 2.95287 0
M  V30 3178 H 297.55 -1.41724 3.71698 0
M  V30 3179 H 294.289 -0.41447 6.54188 0
M  V30 3180 H 293.809 -1.8997 5.68921 0
M  V30 3181 H 295.488 -1.69001 6.24538 0
M  V30 3182 N 295.62 -1.53406 -0.361157 0
M  V30 3183 C 296.868 -1.69467 -1.10115 0
M  V30 3184 C 297.189 -0.451352 -1.89705 0
M  V30 3185 O 296.459 0.534636 -1.88463 0
M  V30 3186 H 295.039 -0.624749 -0.409508 0
M  V30 3187 H 297.701 -1.90609 -0.406699 0
M  V30 3188 H 296.797 -2.55774 -1.78847 0
M  V30 3189 N 297.098 0.621204 -1.44841 0
M  V30 3190 C 298.347 1.37658 -1.47422 0
M  V30 3191 C 298.66 1.95264 -0.114629 0
M  V30 3192 O 299.866 2.71494 -0.0180199 0
M  V30 3193 C 298.322 2.49285 -2.59586 0
M  V30 3194 C 297.93 1.98149 -4.01797 0
M  V30 3195 C 299.674 3.26409 -2.71399 0
M  V30 3196 C 297.581 3.07178 -5.05367 0
M  V30 3197 H 296.511 0.517344 -0.548517 0
M  V30 3198 H 299.162 0.667257 -1.70938 0
M  V30 3199 H 297.544 3.22839 -2.29328 0
M  V30 3200 H 298.718 1.31395 -4.41669 0
M  V30 3201 H 297.033 1.33812 -3.94314 0
M  V30 3202 H 299.63 4.07706 -3.45948 0
M  V30 3203 H 299.973 3.76535 -1.77559 0
M  V30 3204 H 300.506 2.5995 -3.01116 0
M  V30 3205 H 297.245 2.61985 -6.00869 0
M  V30 3206 H 296.765 3.72542 -4.70077 0
M  V30 3207 H 298.444 3.71789 -5.29511 0
M  V30 3208 N 298.576 1.31904 0.862503 0
M  V30 3209 C 299.987 1.19803 1.43193 0
M  V30 3210 C 300.338 -0.192567 1.95253 0
M  V30 3211 O 299.463 -1.09081 1.86896 0
M  V30 3212 C 300.058 2.16883 2.60283 0
M  V30 3213 C 298.617 2.08692 3.13248 0
M  V30 3214 C 297.764 2.05691 1.85975 0
M  V30 3215 H 300.715 1.43846 0.670365 0
M  V30 3216 H 300.736 1.76278 3.37204 0
M  V30 3217 H 300.248 3.18083 2.22363 0
M  V30 3218 H 298.349 1.10713 3.55771 0
M  V30 3219 H 298.462 2.9815 3.75025 0
M  V30 3220 H 296.826 1.50814 2.05249 0
M  V30 3221 H 297.609 3.08659 1.50282 0
M  V30 3222 N 300.054 -1.07777 1.14986 0
M  V30 3223 C 301.303 -1.79669 0.916617 0
M  V30 3224 C 301.616 -1.87474 -0.557917 0
M  V30 3225 O 302.822 -2.55845 -0.908617 0
M  V30 3226 C 301.278 -3.22848 1.59051 0
M  V30 3227 C 300.886 -3.23257 3.10176 0
M  V30 3228 C 302.63 -3.99379 1.43864 0
M  V30 3229 C 300.537 -4.61063 3.70372 0
M  V30 3230 H 299.467 -0.673349 0.33929 0
M  V30 3231 H 302.118 -1.21003 1.37951 0
M  V30 3232 H 300.5 -3.8168 1.0553 0
M  V30 3233 H 301.674 -2.74095 3.70417 0
M  V30 3234 H 299.989 -2.60222 3.25074 0
M  V30 3235 H 302.586 -5.0122 1.86232 0
M  V30 3236 H 302.929 -4.14511 0.385564 0
M  V30 3237 H 303.462 -3.47032 1.94457 0
M  V30 3238 H 300.201 -4.51135 4.7556 0
M  V30 3239 H 299.721 -5.1048 3.14913 0
M  V30 3240 H 301.4 -5.30034 3.71043 0
M  V30 3241 N 301.532 -0.945985 -1.26051 0
M  V30 3242 C 302.462 -0.477172 -2.28572 0
M  V30 3243 C 303.443 0.472032 -1.63419 0
M  V30 3244 O 304.628 0.372853 -1.90587 0
M  V30 3245 C 301.758 0.253975 -3.4637 0
M  V30 3246 C 300.712 -0.609135 -4.23643 0
M  V30 3247 C 300.038 0.252252 -5.34105 0
M  V30 3248 C 301.338 -1.8829 -4.8718 0
M  V30 3249 H 303.032 -1.33402 -2.68038 0
M  V30 3250 H 300.578 -0.642904 -1.28852 0
M  V30 3251 H 302.531 0.593016 -4.17207 0
M  V30 3252 H 301.255 1.145 -3.05871 0
M  V30 3253 H 299.914 -0.931138 -3.54578 0
M  V30 3254 H 299.562 1.14278 -4.89846 0
M  V30 3255 H 299.262 -0.32188 -5.86718 0
M  V30 3256 H 300.786 0.586454 -6.07777 0
M  V30 3257 H 302.2 -1.61081 -5.50205 0
M  V30 3258 H 300.597 -2.40199 -5.49931 0
M  V30 3259 H 301.667 -2.59134 -4.09851 0
M  V30 3260 N 303.011 1.40521 -0.713556 0
M  V30 3261 C 304.422 1.83853 -0.324807 0
M  V30 3262 C 304.773 1.59667 1.14021 0
M  V30 3263 O 303.898 1.07649 1.87725 0
M  V30 3264 C 304.493 3.33751 -0.582746 0
M  V30 3265 C 303.052 3.75584 -0.247727 0
M  V30 3266 C 302.199 2.63753 -0.856121 0
M  V30 3267 H 305.15 1.29817 -0.91286 0
M  V30 3268 H 305.171 3.80194 0.152682 0
M  V30 3269 H 304.683 3.51322 -1.64908 0
M  V30 3270 H 302.784 3.63608 0.813624 0
M  V30 3271 H 302.897 4.7373 -0.715307 0
M  V30 3272 H 301.261 2.53108 -0.28432 0
M  V30 3273 H 302.044 2.84137 -1.92668 0
M  V30 3274 N 304.489 0.459591 1.5075 0
M  V30 3275 C 305.737 -0.0991532 2.01857 0
M  V30 3276 C 306.058 -1.41247 1.34441 0
M  V30 3277 O 305.328 -1.89775 0.486022 0
M  V30 3278 H 303.908 -0.039633 0.745948 0
M  V30 3279 H 306.57 0.607387 1.85194 0
M  V30 3280 H 305.666 -0.258998 3.11023 0
M  V30 3281 N 305.967 -1.56429 0.191757 0
M  V30 3282 C 307.216 -1.9666 -0.448088 0
M  V30 3283 C 307.529 -1.08136 -1.62991 0
M  V30 3284 O 308.735 -1.38135 -2.33733 0
M  V30 3285 C 307.191 -3.49753 -0.848585 0
M  V30 3286 C 306.799 -4.46935 0.308764 0
M  V30 3287 C 308.543 -3.9876 -1.4557 0
M  V30 3288 C 306.45 -5.91293 -0.112506 0
M  V30 3289 H 305.38 -0.734312 -0.171179 0
M  V30 3290 H 308.031 -1.81301 0.283242 0
M  V30 3291 H 306.413 -3.60604 -1.63649 0
M  V30 3292 H 307.587 -4.47813 1.08627 0
M  V30 3293 H 305.902 -4.08102 0.827158 0
M  V30 3294 H 308.499 -5.04086 -1.78328 0
M  V30 3295 H 308.842 -3.42875 -2.36099 0
M  V30 3296 H 309.375 -3.9101 -0.731836 0
M  V30 3297 H 306.114 -6.51097 0.758514 0
M  V30 3298 H 305.634 -5.93676 -0.854941 0
M  V30 3299 H 307.313 -6.44663 -0.549448 0
M  V30 3300 N 307.445 0.0818655 -1.57387 0
M  V30 3301 C 308.378 1.12986 -1.98266 0
M  V30 3302 C 309.356 1.38123 -0.857954 0
M  V30 3303 O 310.54 1.51663 -1.1194 0
M  V30 3304 C 307.667 2.47632 -2.31076 0
M  V30 3305 C 306.713 2.38693 -3.53452 0
M  V30 3306 S 307.546 1.79071 -5.04672 0
M  V30 3307 C 308.702 3.15316 -5.40673 0
M  V30 3308 H 308.935 0.781435 -2.86846 0
M  V30 3309 H 306.468 0.290034 -1.51651 0
M  V30 3310 H 308.426 3.25089 -2.50654 0
M  V30 3311 H 307.087 2.79638 -1.43043 0
M  V30 3312 H 306.28 3.37964 -3.73893 0
M  V30 3313 H 305.882 1.69369 -3.33452 0
M  V30 3314 H 308.174 4.11613 -5.38127 0
M  V30 3315 H 309.117 2.99664 -6.41566 0
M  V30 3316 H 309.525 3.15457 -4.68132 0
M  V30 3317 N 308.923 1.53595 0.353017 0
M  V30 3318 C 310.334 1.61937 0.929153 0
M  V30 3319 C 310.685 0.494686 1.89861 0
M  V30 3320 O 309.81 -0.377017 2.1309 0
M  V30 3321 C 310.405 2.93526 1.69199 0
M  V30 3322 C 308.964 3.04161 2.21727 0
M  V30 3323 C 308.111 2.57322 1.03348 0
M  V30 3324 H 311.062 1.58155 0.131431 0
M  V30 3325 H 311.083 2.82034 2.55416 0
M  V30 3326 H 310.595 3.75362 0.986144 0
M  V30 3327 H 308.696 2.26938 2.95516 0
M  V30 3328 H 308.809 4.09465 2.48748 0
M  V30 3329 H 307.173 2.12499 1.40414 0
M  V30 3330 H 307.956 3.41588 0.342428 0
M  V30 3331 N 310.401 -0.613514 1.45168 0
M  V30 3332 C 311.647 -1.37471 1.49096 0
M  V30 3333 C 311.98 -1.93765 0.129901 0
M  V30 3334 O 311.255 -1.74707 -0.854858 0
M  V30 3335 C 311.538 -2.52701 2.56542 0
M  V30 3336 C 311.391 -2.01643 4.0207 0
M  V30 3337 C 312.71 -3.54849 2.60327 0
M  V30 3338 H 309.829 -0.498502 0.54283 0
M  V30 3339 H 312.471 -0.692125 1.76945 0
M  V30 3340 H 310.621 -3.10931 2.32926 0
M  V30 3341 H 312.293 -1.48108 4.36877 0
M  V30 3342 H 310.536 -1.32688 4.13009 0
M  V30 3343 H 311.207 -2.84681 4.72928 0
M  V30 3344 H 313.683 -3.0645 2.81474 0
M  V30 3345 H 312.559 -4.32973 3.37381 0
M  V30 3346 H 312.82 -4.10079 1.6519 0
M  V30 3347 N 311.879 -1.3236 -0.855495 0
M  V30 3348 C 313.107 -1.2587 -1.64208 0
M  V30 3349 C 313.522 0.173457 -1.88002 0
M  V30 3350 O 312.879 1.11027 -1.44842 0
M  V30 3351 C 312.93 -2.01424 -3.00184 0
M  V30 3352 O 312.651 -3.39051 -2.77445 0
M  V30 3353 C 314.152 -2.01948 -3.94629 0
M  V30 3354 H 311.372 -0.434318 -0.511477 0
M  V30 3355 H 313.916 -1.74469 -1.0668 0
M  V30 3356 H 312.071 -1.56549 -3.5436 0
M  V30 3357 H 312.485 -3.77711 -3.63916 0
M  V30 3358 H 313.959 -2.59297 -4.87308 0
M  V30 3359 H 314.436 -1.00554 -4.27534 0
M  V30 3360 H 315.042 -2.46767 -3.4639 0
M  V30 3361 N 313.357 1.07166 -1.15556 0
M  V30 3362 C 314.582 1.84053 -0.955988 0
M  V30 3363 C 315.007 1.81586 0.490739 0
M  V30 3364 O 314.365 1.21018 1.34997 0
M  V30 3365 C 314.413 3.28957 -1.47714 0
M  V30 3366 O 313.517 4.06795 -0.677593 0
M  V30 3367 H 312.858 0.569842 -0.340847 0
M  V30 3368 H 315.388 1.35178 -1.53584 0
M  V30 3369 H 315.398 3.79788 -1.4908 0
M  V30 3370 H 314.073 3.30068 -2.53037 0
M  V30 3371 H 312.65 3.6561 -0.733721 0
M  V30 3372 N 314.835 0.952656 1.25548 0
M  V30 3373 C 316.065 0.622592 1.96996 0
M  V30 3374 C 316.473 -0.809112 1.71026 0
M  V30 3375 O 315.816 -1.55258 0.981861 0
M  V30 3376 C 315.878 0.798946 3.5051 0
M  V30 3377 C 315.542 2.20744 4.00151 0
M  V30 3378 C 316.539 3.18394 4.11001 0
M  V30 3379 C 314.224 2.5311 4.33867 0
M  V30 3380 C 316.218 4.46504 4.54877 0
M  V30 3381 C 313.905 3.8145 4.7743 0
M  V30 3382 C 314.903 4.77959 4.87897 0
M  V30 3383 O 314.591 6.04012 5.30494 0
M  V30 3384 H 314.323 0.232503 0.634758 0
M  V30 3385 H 316.877 1.2789 1.60728 0
M  V30 3386 H 315.107 0.0854903 3.86605 0
M  V30 3387 H 316.796 0.47023 4.03167 0
M  V30 3388 H 317.562 2.94715 3.85186 0
M  V30 3389 H 313.441 1.78719 4.24948 0
M  V30 3390 H 316.985 5.21835 4.62962 0
M  V30 3391 H 312.882 4.04936 5.0269 0
M  V30 3392 H 313.65 6.0736 5.48685 0
M  V30 3393 N 316.313 -1.40141 0.720998 0
M  V30 3394 C 317.729 -1.54632 0.395113 0
M  V30 3395 C 317.929 -1.69115 -1.09555 0
M  V30 3396 O 316.985 -1.68377 -1.88163 0
M  V30 3397 C 318.298 -2.77177 1.1659 0
M  V30 3398 C 319.846 -2.91 1.15274 0
M  V30 3399 C 320.321 -4.16465 1.90579 0
M  V30 3400 N 321.812 -4.23476 1.87675 0
M  V30 3401 C 322.547 -5.19475 2.42762 0
M  V30 3402 N 322.043 -6.21348 3.06428 0
M  V30 3403 N 323.836 -5.11592 2.32874 0
M  V30 3404 H 315.987 -1.28986 1.68749 0
M  V30 3405 H 318.25 -0.62412 0.713567 0
M  V30 3406 H 317.956 -2.72771 2.22011 0
M  V30 3407 H 317.83 -3.69442 0.76108 0
M  V30 3408 H 320.217 -2.94907 0.106702 0
M  V30 3409 H 320.298 -1.99838 1.59682 0
M  V30 3410 H 319.942 -4.1332 2.95176 0
M  V30 3411 H 319.872 -5.06646 1.43587 0
M  V30 3412 H 322.363 -3.50497 1.41281 0
M  V30 3413 H 322.676 -6.91034 3.45965 0
M  V30 3414 H 321.021 -6.21777 3.10514 0
M  V30 3415 H 324.212 -4.30936 1.82789 0
M  V30 3416 H 324.385 -5.86233 2.76106 0
M  V30 3417 N 317.792 -0.46758 -1.50504 0
M  V30 3418 C 318.724 0.364655 -2.26281 0
M  V30 3419 C 319.737 0.960151 -1.31472 0
M  V30 3420 O 320.926 0.849153 -1.57008 0
M  V30 3421 C 318.026 1.52509 -3.02645 0
M  V30 3422 C 317.199 1.04302 -4.24782 0
M  V30 3423 C 316.258 2.07709 -4.8347 0
M  V30 3424 O 315.284 1.65913 -5.44483 0
M  V30 3425 N 316.486 3.40485 -4.70159 0
M  V30 3426 H 319.251 -0.28495 -2.98342 0
M  V30 3427 H 316.812 -0.298163 -1.59131 0
M  V30 3428 H 318.804 2.21371 -3.38787 0
M  V30 3429 H 317.374 2.07945 -2.33404 0
M  V30 3430 H 316.594 0.180393 -3.93787 0
M  V30 3431 H 317.882 0.698798 -5.03978 0
M  V30 3432 H 317.28 3.77155 -4.21629 0
M  V30 3433 H 315.837 4.05156 -5.1058 0
M  V30 3434 N 319.27 1.56325 -0.20005 0
M  V30 3435 C 320.495 2.02548 0.44597 0
M  V30 3436 C 320.92 1.07922 1.5406 0
M  V30 3437 O 320.278 0.0635775 1.81188 0
M  V30 3438 C 320.326 3.47175 0.974761 0
M  V30 3439 O 319.43 3.55671 2.08739 0
M  V30 3440 H 318.771 0.655862 0.103638 0
M  V30 3441 H 321.301 2.02201 -0.312381 0
M  V30 3442 H 321.311 3.87067 1.2901 0
M  V30 3443 H 319.986 4.15538 0.17347 0
M  V30 3444 H 318.563 3.27657 1.78032 0
M  V30 3445 N 320.748 -0.0735177 1.57428 0
M  V30 3446 C 321.711 -1.07192 2.02589 0
M  V30 3447 C 322.711 -1.31695 0.922661 0
M  V30 3448 O 323.901 -1.27445 1.18758 0
M  V30 3449 C 321.033 -2.41599 2.40506 0
M  V30 3450 H 322.226 -0.682727 2.92025 0
M  V30 3451 H 319.779 -0.319193 1.53006 0
M  V30 3452 H 320.514 -2.85354 1.5409 0
M  V30 3453 H 320.299 -2.25156 3.21009 0
M  V30 3454 H 321.789 -3.13367 2.76027 0
M  V30 3455 N 322.226 -1.5378 -0.344866 0
M  V30 3456 C 323.189 -1.80981 -1.40637 0
M  V30 3457 C 324.189 -0.680816 -1.45676 0
M  V30 3458 O 325.379 -0.949095 -1.46075 0
M  V30 3459 C 322.511 -1.95063 -2.79577 0
M  V30 3460 H 323.704 -2.75803 -1.17783 0
M  V30 3461 H 321.257 -1.45173 -0.579181 0
M  V30 3462 H 321.992 -1.02379 -3.07716 0
M  V30 3463 H 321.777 -2.77198 -2.77315 0
M  V30 3464 H 323.267 -2.17629 -3.56409 0
M  V30 3465 N 323.704 0.605807 -1.45491 0
M  V30 3466 C 324.929 1.39625 -1.53361 0
M  V30 3467 C 325.354 1.87351 -0.167645 0
M  V30 3468 O 324.712 1.60243 0.848051 0
M  V30 3469 C 324.76 2.57559 -2.5238 0
M  V30 3470 O 323.864 3.58248 -2.04285 0
M  V30 3471 H 323.205 0.416771 -0.516912 0
M  V30 3472 H 325.735 0.737103 -1.90861 0
M  V30 3473 H 325.745 3.0478 -2.71244 0
M  V30 3474 H 324.42 2.22171 -3.51586 0
M  V30 3475 H 322.997 3.17664 -1.95305 0
M  V30 3476 N 325.182 1.32811 0.848464 0
M  V30 3477 C 326.593 1.21315 1.41914 0
M  V30 3478 C 326.944 -0.171847 1.95446 0
M  V30 3479 O 326.069 -1.07093 1.88043 0
M  V30 3480 C 326.664 2.19631 2.57968 0
M  V30 3481 C 325.223 2.12003 3.11017 0
M  V30 3482 C 324.37 2.07651 1.83783 0
M  V30 3483 H 327.321 1.44549 0.655071 0
M  V30 3484 H 327.342 1.79845 3.35315 0
M  V30 3485 H 326.854 3.20423 2.18976 0
M  V30 3486 H 324.955 1.14481 3.54577 0
M  V30 3487 H 325.068 3.02111 3.71841 0
M  V30 3488 H 323.432 1.52983 2.03638 0
M  V30 3489 H 324.215 3.10235 1.47 0
M  V30 3490 N 326.66 -1.06551 1.16123 0
M  V30 3491 C 328.076 -1.3142 0.905585 0
M  V30 3492 C 328.276 -1.96571 -0.442964 0
M  V30 3493 O 327.332 -2.23068 -1.18308 0
M  V30 3494 C 328.645 -2.19741 2.05267 0
M  V30 3495 C 330.193 -2.33165 2.08813 0
M  V30 3496 C 330.668 -3.24838 3.22868 0
M  V30 3497 N 332.159 -3.32421 3.22568 0
M  V30 3498 C 332.894 -4.0344 4.0746 0
M  V30 3499 N 332.39 -4.77003 5.02434 0
M  V30 3500 N 334.183 -3.99464 3.95456 0
M  V30 3501 H 326.334 -0.626548 2.02949 0
M  V30 3502 H 328.597 -0.338777 0.8854 0
M  V30 3503 H 328.303 -1.79142 3.02657 0
M  V30 3504 H 328.177 -3.20313 1.99198 0
M  V30 3505 H 330.564 -2.73013 1.12018 0
M  V30 3506 H 330.645 -1.3227 2.18948 0
M  V30 3507 H 330.289 -2.85708 4.19921 0
M  V30 3508 H 330.219 -4.25707 3.0997 0
M  V30 3509 H 332.71 -2.79994 2.53795 0
M  V30 3510 H 333.023 -5.28712 5.63634 0
M  V30 3511 H 331.368 -4.75992 5.06415 0
M  V30 3512 H 334.559 -3.4111 3.20564 0
M  V30 3513 H 334.732 -4.54544 4.61837 0
M  V30 3514 N 328.138 -0.959301 -1.25041 0
M  V30 3515 C 329.363 -0.633507 -1.97488 0
M  V30 3516 C 329.788 0.788555 -1.70773 0
M  V30 3517 O 329.146 1.53394 -0.966431 0
M  V30 3518 C 329.194 -0.904057 -3.49083 0
M  V30 3519 O 328.298 0.0147939 -4.12397 0
M  V30 3520 H 327.639 -0.240368 -0.618966 0
M  V30 3521 H 330.169 -1.28717 -1.59038 0
M  V30 3522 H 330.179 -0.832203 -3.99423 0
M  V30 3523 H 328.854 -1.94048 -3.67856 0
M  V30 3524 H 327.431 -0.109664 -3.72739 0
M  V30 3525 N 329.616 1.39756 -0.72842 0
M  V30 3526 C 330.579 2.29012 -0.0927297 0
M  V30 3527 C 331.579 1.45992 0.674025 0
M  V30 3528 O 332.769 1.66749 0.50402 0
M  V30 3529 C 329.901 3.29396 0.878137 0
M  V30 3530 H 331.094 2.86729 -0.879011 0
M  V30 3531 H 328.647 1.48293 -0.493847 0
M  V30 3532 H 329.382 2.76722 1.69101 0
M  V30 3533 H 329.167 3.907 0.331051 0
M  V30 3534 H 330.657 3.96199 1.3197 0
M  V30 3535 N 331.094 0.475555 1.50254 0
M  V30 3536 C 332.342 -0.077738 2.0195 0
M  V30 3537 C 332.663 -1.39813 1.35931 0
M  V30 3538 O 331.933 -1.89249 0.506123 0
M  V30 3539 H 330.513 -0.031719 0.746326 0
M  V30 3540 H 333.175 0.626995 1.84539 0
M  V30 3541 H 332.271 -0.225995 3.11281 0
M  V30 3542 N 332.573 -1.56217 0.208337 0
M  V30 3543 C 333.989 -1.58919 -0.14729 0
M  V30 3544 C 334.189 -1.22486 -1.59998 0
M  V30 3545 O 333.245 -0.953849 -2.3379 0
M  V30 3546 C 334.558 -3.00236 0.167048 0
M  V30 3547 C 336.106 -3.12813 0.108219 0
M  V30 3548 C 336.581 -4.56284 0.396049 0
M  V30 3549 N 338.072 -4.61912 0.345142 0
M  V30 3550 C 338.807 -5.70837 0.541523 0
M  V30 3551 N 338.303 -6.88178 0.798968 0
M  V30 3552 N 340.096 -5.60091 0.474867 0
M  V30 3553 H 332.247 -1.78177 1.15614 0
M  V30 3554 H 334.51 -0.827555 0.462446 0
M  V30 3555 H 334.216 -3.31499 1.1748 0
M  V30 3556 H 334.09 -3.7354 -0.524184 0
M  V30 3557 H 336.477 -2.81354 -0.890157 0
M  V30 3558 H 336.558 -2.41866 0.832729 0
M  V30 3559 H 336.202 -4.88458 1.3918 0
M  V30 3560 H 336.132 -5.25439 -0.349502 0
M  V30 3561 H 338.623 -3.77589 0.153316 0
M  V30 3562 H 338.936 -7.67095 0.93727 0
M  V30 3563 H 337.281 -6.89953 0.836013 0
M  V30 3564 H 340.472 -4.67297 0.274064 0
M  V30 3565 H 340.645 -6.44917 0.631326 0
M  V30 3566 N 334.051 0.0651679 -1.57465 0
M  V30 3567 C 335.014 1.06117 -2.03155 0
M  V30 3568 C 336.014 1.31204 -0.929632 0
M  V30 3569 O 337.204 1.26813 -1.19432 0
M  V30 3570 C 334.336 2.4032 -2.41783 0
M  V30 3571 H 335.529 0.667231 -2.92383 0
M  V30 3572 H 333.082 0.311075 -1.53173 0
M  V30 3573 H 333.817 2.84532 -1.55601 0
M  V30 3574 H 333.602 2.23451 -3.22199 0
M  V30 3575 H 335.092 3.11898 -2.77685 0
M  V30 3576 N 335.529 1.53961 0.336706 0
M  V30 3577 C 336.754 1.75797 1.10046 0
M  V30 3578 C 337.179 0.498985 1.81361 0
M  V30 3579 O 336.537 -0.548769 1.72795 0
M  V30 3580 C 336.585 2.94257 2.08436 0
M  V30 3581 O 335.689 2.64883 3.16087 0
M  V30 3582 H 335.03 0.582936 0.317934 0
M  V30 3583 H 337.56 2.00945 0.38501 0
M  V30 3584 H 337.57 3.21237 2.51537 0
M  V30 3585 H 336.245 3.85564 1.55927 0
M  V30 3586 H 334.822 2.48812 2.77753 0
M  V30 3587 N 337.007 -0.598083 1.45811 0
M  V30 3588 C 338.418 -1.18011 1.44673 0
M  V30 3589 C 338.769 -1.95378 0.179364 0
M  V30 3590 O 337.894 -2.04124 -0.718509 0
M  V30 3591 C 338.489 -2.14677 2.62105 0
M  V30 3592 C 337.048 -2.68236 2.64057 0
M  V30 3593 C 336.195 -1.43816 2.37091 0
M  V30 3594 H 339.146 -0.38686 1.53913 0
M  V30 3595 H 339.167 -2.97878 2.36746 0
M  V30 3596 H 338.679 -1.5834 3.5433 0
M  V30 3597 H 336.78 -3.28486 1.75864 0
M  V30 3598 H 336.893 -3.12021 3.63566 0
M  V30 3599 H 335.257 -1.731 1.86838 0
M  V30 3600 H 336.04 -0.893333 3.31473 0
M  V30 3601 O 338.524 -1.43439 -0.742122 0
M  V30 3602 H 339.215 -1.3475 -1.39148 0
M  V30 END ATOM
M  V30 BEGIN BOND
M  V30 END BOND
M  V30 END CTAB
M  END
$$$$
