drugbank_target|Q9RBW8 TbuX (DB04233)
 OpenBabel12092120443D

  0  0  0     0  0            999 V3000
M  V30 BEGIN CTAB
M  V30 COUNTS 6693 6763 0 0 0
M  V30 BEGIN ATOM
M  V30 1 H -0.908 1.98254 -0.117106 0
M  V30 2 N 0 1.576 0 0
M  V30 3 C 0.933 2.03868 1.02534 0
M  V30 4 C 1.911 0.928543 1.3348 0
M  V30 5 O 3.095 1.19667 1.45644 0
M  V30 6 C 0.222 2.43627 2.35294 0
M  V30 7 C -0.732 3.65373 2.2001 0
M  V30 8 S 0.101 5.13292 1.52614 0
M  V30 9 C 1.257 5.56322 2.86805 0
M  V30 10 H 1.49 2.90518 0.631377 0
M  V30 11 H -0.977 1.52953 0.210867 0
M  V30 12 H 0.981 2.67203 3.11629 0
M  V30 13 H -0.358 1.57376 2.7183 0
M  V30 14 H -1.165 3.90944 3.18086 0
M  V30 15 H -1.563 3.418 1.51819 0
M  V30 16 H 0.729 5.58782 3.83104 0
M  V30 17 H 1.672 6.56266 2.65933 0
M  V30 18 H 2.08 4.83886 2.90714 0
M  V30 19 N 1.4781 -0.272755 1.55222 0
M  V30 20 C 2.4251 -1.33716 1.88119 0
M  V30 21 C 3.3951 -1.49066 0.73271 0
M  V30 22 O 4.5801 -1.63469 0.984002 0
M  V30 23 C 1.7201 -2.69238 2.15882 0
M  V30 24 C 0.8331 -2.62108 3.43399 0
M  V30 25 C -0.0319 -3.89811 3.60861 0
M  V30 26 C -0.9929 -3.77193 4.8207 0
M  V30 27 N -1.8559 -4.9673 4.96189 0
M  V30 28 H 2.9841 -1.04962 2.78903 0
M  V30 29 H 0.5211 -0.507088 1.38083 0
M  V30 30 H 2.4791 -3.48089 2.29978 0
M  V30 31 H 1.1091 -2.96194 1.28331 0
M  V30 32 H 0.1611 -1.74967 3.37773 0
M  V30 33 H 1.4731 -2.48685 4.32386 0
M  V30 34 H 0.6271 -4.77103 3.74777 0
M  V30 35 H -0.6339 -4.06102 2.7006 0
M  V30 36 H -1.6289 -2.88284 4.68159 0
M  V30 37 H -0.4039 -3.62421 5.74307 0
M  V30 38 H -2.4579 -5.13431 4.08319 0
M  V30 39 H -2.5409 -4.85839 5.79221 0
M  V30 40 H -1.2729 -5.85594 5.1449 0
M  V30 41 N 2.9562 -1.48159 -0.537278 0
M  V30 42 C 4.2042 -1.55497 -1.29094 0
M  V30 43 C 4.5252 -0.227454 -1.93669 0
M  V30 44 O 3.7952 0.750386 -1.80959 0
M  V30 45 H 2.3752 -0.572832 -0.47945 0
M  V30 46 H 5.0372 -1.84579 -0.625818 0
M  V30 47 H 4.1332 -2.33216 -2.07405 0
M  V30 48 N 4.4343 0.785586 -1.36625 0
M  V30 49 C 5.3823 1.91978 -1.31329 0
M  V30 50 C 6.3763 1.68162 -0.204416 0
M  V30 51 O 7.5823 1.76122 -0.371645 0
M  V30 52 H 3.9573 0.631087 -0.408942 0
M  V30 53 H 5.9283 1.93562 -2.27104 0
M  V30 54 C 4.6773 3.29055 -1.12329 0
M  V30 55 H 4.0003 3.4795 -1.96903 0
M  V30 56 H 5.4403 4.08756 -1.12671 0
M  V30 57 C 3.8993 3.36461 0.171861 0
M  V30 58 O 4.4293 3.84576 1.16035 0
M  V30 59 N 2.6353 2.89782 0.217846 0
M  V30 60 H 2.1823 2.50819 -0.587183 0
M  V30 61 H 2.1403 2.95119 1.08408 0
M  V30 62 N 5.9124 1.20967 1.01018 0
M  V30 63 C 7.1424 1.04803 1.78044 0
M  V30 64 C 7.5504 -0.405462 1.84804 0
M  V30 65 O 6.8934 -1.2932 1.30468 0
M  V30 66 C 6.9554 1.56377 3.23707 0
M  V30 67 C 6.6194 3.04767 3.40538 0
M  V30 68 C 7.6164 4.02366 3.29239 0
M  V30 69 C 5.3014 3.43862 3.66147 0
M  V30 70 C 7.2954 5.37049 3.43304 0
M  V30 71 C 4.9824 4.78699 3.79855 0
M  V30 72 C 5.9804 5.75101 3.68439 0
M  V30 73 O 5.6684 7.07493 3.81719 0
M  V30 74 H 5.4004 0.368778 0.56655 0
M  V30 75 H 7.9544 1.60642 1.27997 0
M  V30 76 H 6.1844 0.949297 3.74867 0
M  V30 77 H 7.8734 1.36136 3.8239 0
M  V30 78 H 8.6394 3.73506 3.09384 0
M  V30 79 H 4.5184 2.69364 3.74118 0
M  V30 80 H 8.0624 6.12277 3.34309 0
M  V30 81 H 3.9594 5.07247 3.99213 0
M  V30 82 H 4.7274 7.1483 3.98697 0
M  V30 83 N 7.3905 -1.2043 1.01659 0
M  V30 84 C 8.6365 -1.90079 0.706963 0
M  V30 85 C 8.9695 -1.78648 -0.761474 0
M  V30 86 O 8.2445 -1.17069 -1.55323 0
M  V30 87 C 8.5275 -3.41469 1.14327 0
M  V30 88 C 8.3805 -3.61833 2.67201 0
M  V30 89 C 9.6995 -4.34261 0.714529 0
M  V30 90 H 6.8185 -0.690254 0.2583 0
M  V30 91 H 9.4605 -1.41826 1.26433 0
M  V30 92 H 7.6105 -3.82696 0.669056 0
M  V30 93 H 9.2825 -3.2986 3.22475 0
M  V30 94 H 7.5255 -3.05304 3.08175 0
M  V30 95 H 8.1965 -4.67955 2.92783 0
M  V30 96 H 10.6725 -4.00682 1.12221 0
M  V30 97 H 9.5485 -5.38806 1.04784 0
M  V30 98 H 9.8095 -4.40431 -0.383799 0
M  V30 99 N 8.8686 -0.792821 -1.36206 0
M  V30 100 C 10.2846 -0.474903 -1.52371 0
M  V30 101 C 10.4846 1.00622 -1.74578 0
M  V30 102 O 9.5406 1.79162 -1.77924 0
M  V30 103 C 10.8536 -1.3083 -2.70747 0
M  V30 104 C 12.4016 -1.30234 -2.84619 0
M  V30 105 C 12.8766 -2.11956 -4.06004 0
M  V30 106 N 14.3676 -2.09419 -4.13156 0
M  V30 107 C 15.1026 -2.69419 -5.06163 0
M  V30 108 N 14.5986 -3.3829 -6.04592 0
M  V30 109 N 16.3916 -2.59134 -4.98804 0
M  V30 110 H 8.5426 -1.75222 -1.20046 0
M  V30 111 H 10.8056 -0.745024 -0.586211 0
M  V30 112 H 10.5116 -2.35881 -2.6087 0
M  V30 113 H 10.3856 -0.95196 -3.6499 0
M  V30 114 H 12.7726 -0.259748 -2.93955 0
M  V30 115 H 12.8536 -1.69847 -1.91274 0
M  V30 116 H 12.4976 -3.16248 -3.97429 0
M  V30 117 H 12.4276 -1.69711 -4.98503 0
M  V30 118 H 14.9186 -1.59297 -3.42685 0
M  V30 119 H 15.2316 -3.81394 -6.7213 0
M  V30 120 H 13.5766 -3.42393 -6.04807 0
M  V30 121 H 16.7676 -2.04927 -4.20859 0
M  V30 122 H 16.9406 -3.06185 -5.711 0
M  V30 123 N 10.3467 1.47872 -0.545128 0
M  V30 124 C 11.3097 2.28337 0.198717 0
M  V30 125 C 12.3097 1.36255 0.853888 0
M  V30 126 O 13.4997 1.59003 0.711606 0
M  V30 127 C 10.6317 3.15585 1.28915 0
M  V30 128 H 11.8247 2.95567 -0.507941 0
M  V30 129 H 9.3777 1.53362 -0.301616 0
M  V30 130 H 10.1127 2.53019 2.02859 0
M  V30 131 H 9.8977 3.83337 0.824309 0
M  V30 132 H 11.3877 3.76243 1.81194 0
M  V30 133 N 11.8248 0.280983 1.55075 0
M  V30 134 C 12.7878 -0.590896 2.21452 0
M  V30 135 C 13.7878 -1.07682 1.19421 0
M  V30 136 O 14.9778 -0.97605 1.44288 0
M  V30 137 C 12.1098 -1.81587 2.88511 0
M  V30 138 H 13.3028 -0.0112554 2.99898 0
M  V30 139 H 10.8558 0.0316438 1.56268 0
M  V30 140 H 11.5908 -2.43587 2.14093 0
M  V30 141 H 11.3758 -1.4753 3.63287 0
M  V30 142 H 12.8658 -2.43575 3.39206 0
M  V30 143 N 13.3029 -1.57598 0.00835791 0
M  V30 144 C 14.5309 -1.95214 -0.68549 0
M  V30 145 C 14.9459 -0.883706 -1.66841 0
M  V30 146 O 14.3029 0.136565 -1.81988 0
M  V30 147 C 14.3539 -3.32865 -1.41007 0
M  V30 148 O 14.0749 -4.35609 -0.466552 0
M  V30 149 C 15.5759 -3.84991 -2.19765 0
M  V30 150 H 12.7959 -0.643422 -0.190392 0
M  V30 151 H 15.3399 -2.04406 0.0619607 0
M  V30 152 H 13.4949 -3.24956 -2.10908 0
M  V30 153 H 13.9089 -5.15288 -0.978699 0
M  V30 154 H 15.3829 -4.8371 -2.65948 0
M  V30 155 H 15.8599 -3.18137 -3.02796 0
M  V30 156 H 16.4659 -3.96103 -1.54864 0
M  V30 157 N 14.781 0.264519 -1.55364 0
M  V30 158 C 15.744 1.31046 -1.88042 0
M  V30 159 C 16.744 1.41943 -0.755569 0
M  V30 160 O 17.934 1.40947 -1.02369 0
M  V30 161 C 15.066 2.69067 -2.09323 0
M  V30 162 H 16.259 1.03297 -2.81549 0
M  V30 163 H 13.812 0.502989 -1.47986 0
M  V30 164 H 14.547 3.01982 -1.18226 0
M  V30 165 H 14.332 2.62542 -2.91229 0
M  V30 166 H 15.822 3.44623 -2.35848 0
M  V30 167 N 16.2591 1.48442 0.529413 0
M  V30 168 C 17.5081 1.55742 1.28169 0
M  V30 169 C 17.8211 0.236511 1.94165 0
M  V30 170 O 19.0271 0.187761 2.7085 0
M  V30 171 C 17.4831 2.74667 2.32564 0
M  V30 172 C 17.0911 4.13402 1.72636 0
M  V30 173 C 18.8351 2.9128 3.08798 0
M  V30 174 C 16.7421 5.23587 2.74975 0
M  V30 175 H 15.6721 0.579796 0.48203 0
M  V30 176 H 18.3231 1.74776 0.559056 0
M  V30 177 H 16.7051 2.49067 3.07866 0
M  V30 178 H 17.8791 4.49022 1.03519 0
M  V30 179 H 16.1941 4.0191 1.08892 0
M  V30 180 H 18.7911 3.70767 3.85274 0
M  V30 181 H 19.1341 2.00757 3.64695 0
M  V30 182 H 19.6671 3.16782 2.40611 0
M  V30 183 H 16.4061 6.16076 2.23897 0
M  V30 184 H 15.9261 4.92454 3.42417 0
M  V30 185 H 17.6051 5.51724 3.37949 0
M  V30 186 N 17.7372 -0.778329 1.37039 0
M  V30 187 C 18.9772 -1.54973 1.33276 0
M  V30 188 C 19.3412 -1.91816 -0.0839376 0
M  V30 189 O 20.5422 -2.6767 -0.246228 0
M  V30 190 C 18.8132 -2.78517 2.23971 0
M  V30 191 S 20.3722 -3.6865 2.37997 0
M  V30 192 H 17.1902 -0.530639 0.473226 0
M  V30 193 H 19.7922 -0.915806 1.72723 0
M  V30 194 H 18.4962 -2.4952 3.25835 0
M  V30 195 H 18.0272 -3.46875 1.85584 0
M  V30 196 H 20.0422 -4.70182 1.58567 0
M  V30 197 N 19.2153 -1.21501 -1.00376 0
M  V30 198 C 20.4613 -1.03452 -1.74429 0
M  V30 199 C 20.7943 0.430764 -1.89362 0
M  V30 200 O 20.0693 1.31962 -1.42886 0
M  V30 201 C 20.3523 -1.73375 -3.15615 0
M  V30 202 C 20.2053 -3.27431 -3.08397 0
M  V30 203 C 21.5243 -1.47732 -4.14564 0
M  V30 204 H 18.6433 -0.377226 -0.633143 0
M  V30 205 H 21.2853 -1.49693 -1.17013 0
M  V30 206 H 19.4353 -1.34064 -3.64636 0
M  V30 207 H 21.1073 -3.76119 -2.67081 0
M  V30 208 H 19.3503 -3.5767 -2.45468 0
M  V30 209 H 20.0213 -3.71524 -4.08258 0
M  V30 210 H 22.4973 -1.8186 -3.74254 0
M  V30 211 H 21.3733 -1.99169 -5.11491 0
M  V30 212 H 21.6343 -0.407589 -4.40217 0
M  V30 213 N 20.6934 1.19889 -1.02296 0
M  V30 214 C 21.6564 2.21116 -0.603351 0
M  V30 215 C 22.6564 1.5738 0.329884 0
M  V30 216 O 23.8464 1.73802 0.117702 0
M  V30 217 C 20.9784 3.40696 0.117992 0
M  V30 218 H 22.1714 2.59754 -1.49893 0
M  V30 219 H 19.7244 1.33463 -0.813468 0
M  V30 220 H 20.4594 3.07569 1.0282 0
M  V30 221 H 20.2444 3.88188 -0.552511 0
M  V30 222 H 21.7344 4.15692 0.398696 0
M  V30 223 N 22.1715 0.800033 1.35784 0
M  V30 224 C 23.4205 0.37387 1.98205 0
M  V30 225 C 23.7335 -1.06302 1.64193 0
M  V30 226 O 24.9395 -1.59198 2.19928 0
M  V30 227 C 23.3955 0.617532 3.54562 0
M  V30 228 C 23.0035 2.06654 3.9749 0
M  V30 229 C 24.7475 0.256401 4.23725 0
M  V30 230 C 22.6545 2.2563 5.46667 0
M  V30 231 H 21.5845 0.136055 0.741623 0
M  V30 232 H 24.2355 0.983166 1.54939 0
M  V30 233 H 22.6175 -0.0616248 3.95952 0
M  V30 234 H 23.7915 2.78296 3.67271 0
M  V30 235 H 22.1065 2.38691 3.41197 0
M  V30 236 H 24.7035 0.376318 5.33374 0
M  V30 237 H 25.0465 -0.796692 4.08606 0
M  V30 238 H 25.5795 0.889214 3.87734 0
M  V30 239 H 22.3185 3.2936 5.66747 0
M  V30 240 H 21.8385 1.58504 5.78478 0
M  V30 241 H 23.5175 2.06861 6.1304 0
M  V30 242 N 23.6496 -1.47581 0.552962 0
M  V30 243 C 24.8896 -2.04379 0.0296245 0
M  V30 244 C 25.2536 -1.4185 -1.29393 0
M  V30 245 O 26.4546 -1.89669 -1.90471 0
M  V30 246 C 24.7256 -3.57339 -0.0661371 0
M  V30 247 S 26.2846 -4.35511 -0.536213 0
M  V30 248 H 23.1026 -0.710625 0.0230991 0
M  V30 249 H 25.7046 -1.81005 0.738734 0
M  V30 250 H 24.4086 -4.00374 0.901596 0
M  V30 251 H 23.9396 -3.85202 -0.798931 0
M  V30 252 H 25.9546 -4.6253 -1.79668 0
M  V30 253 N 25.1277 -0.289203 -1.54924 0
M  V30 254 C 26.3757 0.322879 -1.99504 0
M  V30 255 C 26.6967 1.55313 -1.1791 0
M  V30 256 O 25.9667 1.94001 -0.272097 0
M  V30 257 H 24.5467 0.122291 -0.736922 0
M  V30 258 H 27.2087 -0.397802 -1.90797 0
M  V30 259 H 26.3047 0.603061 -3.06218 0
M  V30 260 N 26.6058 1.57591 -0.0167156 0
M  V30 261 C 27.8338 1.95575 0.675128 0
M  V30 262 C 28.2488 0.892542 1.6637 0
M  V30 263 O 27.6058 -0.126912 1.82058 0
M  V30 264 C 27.6568 3.33608 1.39239 0
M  V30 265 O 27.3778 4.3585 0.443444 0
M  V30 266 C 28.8788 3.86151 2.17721 0
M  V30 267 H 26.0988 0.644423 0.186978 0
M  V30 268 H 28.6428 2.0437 -0.0728 0
M  V30 269 H 26.7978 3.2607 2.09182 0
M  V30 270 H 27.2118 5.158 0.951358 0
M  V30 271 H 28.6858 4.85114 2.63379 0
M  V30 272 H 29.1628 3.19738 3.01105 0
M  V30 273 H 29.7688 3.96918 1.52761 0
M  V30 274 N 28.0839 -0.256276 1.55502 0
M  V30 275 C 29.0339 -1.31981 1.85916 0
M  V30 276 C 30.0179 -1.43927 0.719296 0
M  V30 277 O 31.2099 -1.47326 0.981019 0
M  V30 278 C 28.3389 -2.67703 2.14918 0
M  V30 279 C 27.4249 -2.59801 3.35208 0
M  V30 280 N 27.8159 -2.21524 4.54709 0
M  V30 281 C 26.1139 -2.90832 3.38131 0
M  V30 282 C 26.8149 -2.24024 5.36832 0
M  V30 283 N 25.7909 -2.63158 4.75656 0
M  V30 284 H 29.5929 -1.01423 2.75845 0
M  V30 285 H 27.1069 -0.464911 1.55603 0
M  V30 286 H 29.1039 -3.44445 2.34869 0
M  V30 287 H 27.7639 -2.99137 1.26282 0
M  V30 288 H 28.7749 -1.93223 4.80505 0
M  V30 289 H 25.4519 -3.26867 2.59739 0
M  V30 290 H 26.8419 -1.9685 6.42417 0
M  V30 291 N 29.562 -1.4872 -0.521534 0
M  V30 292 C 30.525 -1.63379 -1.60748 0
M  V30 293 C 31.525 -0.50661 -1.52611 0
M  V30 294 O 32.715 -0.772601 -1.5613 0
M  V30 295 C 29.847 -1.61192 -3.00383 0
M  V30 296 H 31.04 -2.60217 -1.49087 0
M  V30 297 H 28.593 -1.37444 -0.744235 0
M  V30 298 H 29.328 -0.65863 -3.17541 0
M  V30 299 H 29.113 -2.43032 -3.07698 0
M  V30 300 H 30.603 -1.7466 -3.7932 0
M  V30 301 N 31.0401 0.771051 -1.3745 0
M  V30 302 C 32.4561 1.07171 -1.18265 0
M  V30 303 C 32.6561 2.01491 -0.019287 0
M  V30 304 O 31.7121 2.44244 0.640408 0
M  V30 305 C 33.0251 1.66854 -2.50161 0
M  V30 306 C 34.5731 1.79109 -2.56689 0
M  V30 307 C 35.0481 2.42205 -3.88717 0
M  V30 308 N 36.5391 2.49655 -3.90162 0
M  V30 309 C 37.2741 2.9933 -4.8907 0
M  V30 310 N 36.7701 3.49172 -5.98374 0
M  V30 311 N 38.5631 2.9821 -4.76474 0
M  V30 312 H 30.7141 0.144796 -2.11906 0
M  V30 313 H 32.9771 0.126863 -0.939473 0
M  V30 314 H 32.6831 1.05017 -3.35655 0
M  V30 315 H 32.5571 2.6614 -2.673 0
M  V30 316 H 34.9441 2.40077 -1.71601 0
M  V30 317 H 35.0251 0.785757 -2.43433 0
M  V30 318 H 34.6691 1.81875 -4.74219 0
M  V30 319 H 34.5991 3.43345 -3.99276 0
M  V30 320 H 37.0901 2.14383 -3.11205 0
M  V30 321 H 37.4031 3.8548 -6.69795 0
M  V30 322 H 35.7481 3.47275 -6.02018 0
M  V30 323 H 38.9391 2.58572 -3.90203 0
M  V30 324 H 39.1121 3.36613 -5.53711 0
M  V30 325 N 32.5182 1.22032 0.997298 0
M  V30 326 C 33.4812 0.987909 2.06816 0
M  V30 327 C 34.4812 -0.0440084 1.6074 0
M  V30 328 O 35.6712 0.194053 1.73116 0
M  V30 329 C 32.8032 0.49132 3.37341 0
M  V30 330 H 33.9962 1.93803 2.28868 0
M  V30 331 H 31.5492 1.03838 1.16822 0
M  V30 332 H 32.2842 -0.463364 3.20973 0
M  V30 333 H 32.0692 1.23575 3.72118 0
M  V30 334 H 33.5592 0.348824 4.16141 0
M  V30 335 N 33.9963 -1.19345 1.0293 0
M  V30 336 C 35.2243 -1.92997 0.745644 0
M  V30 337 C 35.6393 -1.75519 -0.695589 0
M  V30 338 O 34.9963 -1.07737 -1.47306 0
M  V30 339 C 35.0473 -3.44741 1.08792 0
M  V30 340 O 34.7683 -3.61658 2.47256 0
M  V30 341 C 36.2693 -4.35515 0.827129 0
M  V30 342 H 33.4893 -0.613042 0.272801 0
M  V30 343 H 36.0333 -1.51473 1.3739 0
M  V30 344 H 34.1883 -3.84097 0.504832 0
M  V30 345 H 34.6023 -4.55514 2.60015 0
M  V30 346 H 36.0763 -5.40589 1.11658 0
M  V30 347 H 36.5533 -4.38552 -0.238436 0
M  V30 348 H 37.1593 -4.01841 1.39297 0
M  V30 349 N 35.4744 -0.807222 -1.35358 0
M  V30 350 C 36.7514 -0.311126 -1.9311 0
M  V30 351 C 37.1314 1.19937 -1.73719 0
M  V30 352 O 36.4794 1.99918 -1.10657 0
M  V30 353 C 36.6894 -0.723226 -3.41424 0
M  V30 354 C 38.0374 -0.713078 -4.18569 0
M  V30 355 O 39.0614 -0.664811 -3.49941 0
M  V30 356 O 37.9204 -0.772022 -5.41019 0
M  V30 357 H 35.0144 -0.081526 -0.822972 0
M  V30 358 H 37.5604 -0.890962 -1.4443 0
M  V30 359 H 36.3324 -1.76426 -3.4927 0
M  V30 360 H 35.9554 -0.118232 -3.97424 0
M  V30 361 N 36.9525 1.47285 -0.560781 0
M  V30 362 C 38.1985 2.02764 -0.0381184 0
M  V30 363 C 38.5315 1.43384 1.30976 0
M  V30 364 O 37.8065 0.590733 1.85312 0
M  V30 365 C 38.0895 3.60064 0.0511427 0
M  V30 366 C 37.9425 4.2987 -1.32408 0
M  V30 367 C 39.2615 4.33439 0.762795 0
M  V30 368 H 36.3805 0.736841 -0.0153264 0
M  V30 369 H 39.0225 1.75675 -0.723759 0
M  V30 370 H 37.1725 3.83274 0.635065 0
M  V30 371 H 38.8445 4.17989 -1.95148 0
M  V30 372 H 37.0875 3.90085 -1.8978 0
M  V30 373 H 37.7585 5.38478 -1.21431 0
M  V30 374 H 40.2345 4.15243 0.266965 0
M  V30 375 H 39.1105 5.43124 0.794221 0
M  V30 376 H 39.3715 4.02915 1.81966 0
M  V30 377 N 38.4306 0.297415 1.54768 0
M  V30 378 C 39.6776 -0.312913 2.00068 0
M  V30 379 C 40.0056 -1.54171 1.18582 0
M  V30 380 O 39.2606 -1.94108 0.249133 0
M  V30 381 C 39.5596 -0.717561 3.50123 0
M  V30 382 C 39.2256 0.409095 4.4904 0
M  V30 383 C 37.8876 0.718399 4.75807 0
M  V30 384 C 40.2396 1.16717 5.07963 0
M  V30 385 C 37.5676 1.78896 5.5876 0
M  V30 386 C 39.9196 2.22762 5.92081 0
M  V30 387 C 38.5836 2.54303 6.1716 0
M  V30 388 H 37.8536 -0.114503 0.7321 0
M  V30 389 H 40.5006 0.415767 1.86932 0
M  V30 390 H 38.8056 -1.52627 3.60849 0
M  V30 391 H 40.5026 -1.20091 3.82595 0
M  V30 392 H 37.0926 0.157918 4.28309 0
M  V30 393 H 41.2766 0.941466 4.87289 0
M  V30 394 H 36.5326 2.0381 5.7643 0
M  V30 395 H 40.7066 2.81962 6.36765 0
M  V30 396 H 38.3336 3.3739 6.81229 0
M  V30 397 N 39.9087 -1.5758 0.0250728 0
M  V30 398 C 40.8567 -2.11125 -0.97617 0
M  V30 399 C 41.8507 -1.03689 -1.33959 0
M  V30 400 O 43.0567 -1.22128 -1.3223 0
M  V30 401 H 39.4317 -0.674468 -0.332561 0
M  V30 402 H 41.4027 -2.94194 -0.499223 0
M  V30 403 C 40.1517 -2.65017 -2.2508 0
M  V30 404 H 39.4747 -3.47333 -1.9799 0
M  V30 405 H 40.9147 -3.06133 -2.93357 0
M  V30 406 C 39.3737 -1.57574 -2.97779 0
M  V30 407 O 39.9037 -0.973203 -3.89733 0
M  V30 408 N 38.1097 -1.29716 -2.60043 0
M  V30 409 H 37.6567 -1.789 -1.85345 0
M  V30 410 H 37.6147 -0.58051 -3.08994 0
M  V30 411 N 41.3868 0.248026 -1.55636 0
M  V30 412 C 42.3168 1.31079 -1.93237 0
M  V30 413 C 43.2978 1.50264 -0.797174 0
M  V30 414 O 44.4828 1.62891 -1.05737 0
M  V30 415 C 41.6128 2.66575 -2.22609 0
M  V30 416 C 40.5668 2.62087 -3.3837 0
M  V30 417 C 39.8928 4.01369 -3.53281 0
M  V30 418 C 41.1928 2.19171 -4.7409 0
M  V30 419 H 42.8868 0.998556 -2.82257 0
M  V30 420 H 40.4328 0.47891 -1.35803 0
M  V30 421 H 42.3858 3.41057 -2.47503 0
M  V30 422 H 41.1098 2.99432 -1.30414 0
M  V30 423 H 39.7688 1.90063 -3.13483 0
M  V30 424 H 39.4168 4.31489 -2.58508 0
M  V30 425 H 39.1168 3.99254 -4.31127 0
M  V30 426 H 40.6408 4.77552 -3.80495 0
M  V30 427 H 42.0548 2.83384 -4.98363 0
M  V30 428 H 40.4518 2.2817 -5.5503 0
M  V30 429 H 41.5218 1.14336 -4.71227 0
M  V30 430 N 42.8649 1.48995 0.513639 0
M  V30 431 C 43.7749 1.67443 1.64317 0
M  V30 432 C 44.7909 0.556947 1.64846 0
M  V30 433 O 45.9669 0.830082 1.83498 0
M  V30 434 C 43.0319 1.72515 3.00732 0
M  V30 435 C 42.0929 2.96009 3.1093 0
M  V30 436 C 41.3259 3.00829 4.40837 0
M  V30 437 O 41.5489 2.13594 5.28898 0
M  V30 438 O 40.4829 3.93168 4.55744 0
M  V30 439 H 44.3089 2.63106 1.51687 0
M  V30 440 H 41.8939 1.32588 0.688543 0
M  V30 441 H 43.7759 1.78277 3.81831 0
M  V30 442 H 42.4509 0.800278 3.13651 0
M  V30 443 H 41.3579 2.9577 2.29065 0
M  V30 444 H 42.6909 3.87934 3.02933 0
M  V30 445 N 44.343 -0.763751 1.37857 0
M  V30 446 C 45.591 -1.51957 1.33243 0
M  V30 447 C 45.912 -1.94835 -0.0801709 0
M  V30 448 O 45.182 -1.66894 -1.02582 0
M  V30 449 H 43.762 -0.563626 0.49024 0
M  V30 450 H 46.424 -0.908504 1.7243 0
M  V30 451 H 45.52 -2.41523 1.97669 0
M  V30 452 N 45.8211 -1.22559 -0.990812 0
M  V30 453 C 47.0681 -1.05141 -1.73065 0
M  V30 454 C 47.3961 0.413191 -1.9006 0
M  V30 455 O 46.6511 1.32257 -1.44245 0
M  V30 456 C 46.9501 -1.71011 -3.13831 0
M  V30 457 C 46.6161 -3.20911 -3.16745 0
M  V30 458 C 45.2781 -3.61812 -3.17247 0
M  V30 459 C 47.6301 -4.16846 -3.12872 0
M  V30 460 C 44.9581 -4.97127 -3.1158 0
M  V30 461 C 47.3101 -5.5214 -3.08746 0
M  V30 462 C 45.9741 -5.92419 -3.07565 0
M  V30 463 H 45.2441 -0.384738 -0.633291 0
M  V30 464 H 47.8911 -1.5235 -1.16025 0
M  V30 465 H 46.1961 -1.16133 -3.74193 0
M  V30 466 H 47.8931 -1.55023 -3.69823 0
M  V30 467 H 44.4831 -2.88344 -3.17105 0
M  V30 468 H 48.6671 -3.86263 -3.11632 0
M  V30 469 H 43.9231 -5.27562 -3.09012 0
M  V30 470 H 48.0971 -6.26201 -3.04705 0
M  V30 471 H 45.7241 -6.97236 -3.02929 0
M  V30 472 N 47.2992 1.18797 -1.03562 0
M  V30 473 C 48.5472 1.88278 -0.734569 0
M  V30 474 C 48.8682 1.8043 0.739586 0
M  V30 475 O 48.1382 1.21925 1.53333 0
M  V30 476 H 46.7182 0.696991 -0.268725 0
M  V30 477 H 49.3802 1.44192 -1.31129 0
M  V30 478 H 48.4762 2.94443 -1.03489 0
M  V30 479 N 48.7773 0.814389 1.34928 0
M  V30 480 C 50.1883 0.458364 1.80986 0
M  V30 481 C 50.5393 -1.02042 1.67577 0
M  V30 482 O 49.6643 -1.79352 1.21086 0
M  V30 483 C 50.2593 0.825212 3.28597 0
M  V30 484 C 48.8183 0.521677 3.72767 0
M  V30 485 C 47.9653 1.04668 2.56788 0
M  V30 486 H 50.9163 1.00533 1.22795 0
M  V30 487 H 50.9373 0.12571 3.80292 0
M  V30 488 H 50.4493 1.90154 3.38324 0
M  V30 489 H 48.5503 -0.545589 3.68584 0
M  V30 490 H 48.6633 1.05977 4.67232 0
M  V30 491 H 47.0273 0.468622 2.50352 0
M  V30 492 H 47.8103 2.12927 2.6929 0
M  V30 493 N 50.2554 -1.46986 0.568584 0
M  V30 494 C 51.5014 -2.02741 0.0488709 0
M  V30 495 C 51.8344 -1.44077 -1.30214 0
M  V30 496 O 51.1094 -0.600552 -1.84996 0
M  V30 497 C 51.3924 -3.60086 -0.032047 0
M  V30 498 C 51.2454 -4.29162 1.34686 0
M  V30 499 C 52.5644 -4.33838 -0.739798 0
M  V30 500 H 49.6834 -0.736749 0.0192338 0
M  V30 501 H 52.3254 -1.75289 0.733065 0
M  V30 502 H 50.4754 -3.83606 -0.61473 0
M  V30 503 H 52.1474 -4.16948 1.97362 0
M  V30 504 H 50.3904 -3.89073 1.91846 0
M  V30 505 H 51.0614 -5.37826 1.24285 0
M  V30 506 H 53.5374 -4.15378 -0.244939 0
M  V30 507 H 52.4134 -5.43537 -0.765406 0
M  V30 508 H 52.6744 -4.03875 -1.79827 0
M  V30 509 N 51.7335 -0.305618 -1.54608 0
M  V30 510 C 52.9585 0.307562 -2.05107 0
M  V30 511 C 53.3835 1.46385 -1.18123 0
M  V30 512 O 52.7415 1.8034 -0.186324 0
M  V30 513 C 52.7895 0.73704 -3.52987 0
M  V30 514 O 51.8935 1.84134 -3.6901 0
M  V30 515 H 51.2345 0.0589143 -0.661381 0
M  V30 516 H 53.7645 -0.448807 -1.99617 0
M  V30 517 H 53.7745 1.02459 -3.94925 0
M  V30 518 H 52.4495 -0.108773 -4.15758 0
M  V30 519 H 51.0265 1.55398 -3.38978 0
M  V30 520 N 53.2116 1.57565 -0.0334293 0
M  V30 521 C 54.6276 1.56297 0.322997 0
M  V30 522 C 54.8276 1.03945 1.7262 0
M  V30 523 O 53.8836 0.688109 2.42943 0
M  V30 524 C 55.1966 3.00232 0.167664 0
M  V30 525 C 56.7446 3.12078 0.240107 0
M  V30 526 C 57.2196 4.57859 0.113513 0
M  V30 527 N 58.7106 4.62887 0.170359 0
M  V30 528 C 59.4456 5.73319 0.0962517 0
M  V30 529 N 58.9416 6.92794 -0.0291881 0
M  V30 530 N 60.7346 5.61898 0.150551 0
M  V30 531 H 52.8856 1.89923 -0.950956 0
M  V30 532 H 55.1486 0.873824 -0.367608 0
M  V30 533 H 54.8546 3.42501 -0.799102 0
M  V30 534 H 54.7286 3.654 0.936083 0
M  V30 535 H 57.1156 2.69718 1.19733 0
M  V30 536 H 57.1966 2.49623 -0.558763 0
M  V30 537 H 56.8406 5.009 -0.840314 0
M  V30 538 H 56.7706 5.18299 0.931302 0
M  V30 539 H 59.2616 3.76954 0.26728 0
M  V30 540 H 59.5746 7.7276 -0.0789252 0
M  V30 541 H 57.9196 6.94971 -0.0640299 0
M  V30 542 H 61.1106 4.67448 0.246981 0
M  V30 543 H 61.2836 6.47938 0.0893365 0
M  V30 544 N 54.6897 -0.239769 1.55765 0
M  V30 545 C 55.6527 -1.28038 1.90103 0
M  V30 546 C 56.6527 -1.40723 0.778055 0
M  V30 547 O 57.8427 -1.39301 1.04599 0
M  V30 548 C 54.9747 -2.65702 2.13577 0
M  V30 549 H 56.1677 -0.988048 2.83157 0
M  V30 550 H 53.7207 -0.479382 1.48767 0
M  V30 551 H 54.4557 -3.00063 1.23015 0
M  V30 552 H 54.2407 -2.57875 2.95369 0
M  V30 553 H 55.7307 -3.40828 2.41301 0
M  V30 554 N 56.1678 -1.49265 -0.50573 0
M  V30 555 C 57.1008 -1.60183 -1.62532 0
M  V30 556 C 58.0788 -0.451107 -1.56217 0
M  V30 557 O 59.2628 -0.666016 -1.76342 0
M  V30 558 C 56.3898 -1.55238 -3.01029 0
M  V30 559 C 55.4358 -2.7545 -3.25621 0
M  V30 560 S 56.2688 -4.37174 -3.09256 0
M  V30 561 C 57.4248 -4.34866 -4.50158 0
M  V30 562 H 57.6578 -2.54894 -1.53025 0
M  V30 563 H 55.1908 -1.38098 -0.690535 0
M  V30 564 H 57.1488 -1.53071 -3.80893 0
M  V30 565 H 55.8098 -0.618238 -3.07956 0
M  V30 566 H 55.0028 -2.68197 -4.26716 0
M  V30 567 H 54.6048 -2.75005 -2.53472 0
M  V30 568 H 56.8968 -4.06295 -5.42154 0
M  V30 569 H 57.8398 -5.36223 -4.62462 0
M  V30 570 H 58.2478 -3.65007 -4.30616 0
M  V30 571 N 57.6459 0.756429 -1.3826 0
M  V30 572 C 58.8939 1.51248 -1.34047 0
M  V30 573 C 59.2149 1.94875 0.0698372 0
M  V30 574 O 58.4849 1.67436 1.01696 0
M  V30 575 H 57.0649 0.561018 -0.493222 0
M  V30 576 H 59.7269 0.899347 -1.7291 0
M  V30 577 H 58.8229 2.40472 -1.98947 0
M  V30 578 N 59.124 1.23083 0.984299 0
M  V30 579 C 60.372 1.05848 1.72165 0
M  V30 580 C 60.693 -0.406049 1.90726 0
M  V30 581 O 59.963 -1.29139 1.47309 0
M  V30 582 H 58.543 0.388685 0.637913 0
M  V30 583 H 61.205 1.54736 1.18503 0
M  V30 584 H 60.301 1.54327 2.71274 0
M  V30 585 N 60.6021 -1.18246 1.0419 0
M  V30 586 C 61.8301 -1.92195 0.766072 0
M  V30 587 C 62.2451 -1.76247 -0.676933 0
M  V30 588 O 61.6021 -1.09293 -1.46155 0
M  V30 589 C 61.6531 -3.43568 1.12442 0
M  V30 590 O 61.3741 -3.59015 2.51078 0
M  V30 591 C 62.8751 -4.34613 0.873275 0
M  V30 592 H 60.0951 -0.610114 0.279288 0
M  V30 593 H 62.6391 -1.50007 1.38989 0
M  V30 594 H 60.7941 -3.8354 0.545542 0
M  V30 595 H 61.2081 -4.5273 2.64831 0
M  V30 596 H 62.6821 -5.39374 1.17385 0
M  V30 597 H 63.1591 -4.38781 -0.191909 0
M  V30 598 H 63.7651 -4.00341 1.43551 0
M  V30 599 N 62.0802 -0.821533 -1.34494 0
M  V30 600 C 63.3282 -0.408139 -1.97936 0
M  V30 601 C 63.6492 1.03193 -1.65457 0
M  V30 602 O 62.9192 1.71622 -0.944595 0
M  V30 603 H 61.4992 -0.147928 -0.732206 0
M  V30 604 H 64.1612 -1.05067 -1.64155 0
M  V30 605 H 63.2572 -0.52601 -3.07635 0
M  V30 606 N 63.5583 1.46682 -0.576371 0
M  V30 607 C 64.5213 2.28707 0.150239 0
M  V30 608 C 65.5213 1.38035 0.824794 0
M  V30 609 O 66.7113 1.60476 0.677719 0
M  V30 610 C 63.8433 3.18248 1.22192 0
M  V30 611 H 65.0363 2.94423 -0.570521 0
M  V30 612 H 62.5893 1.52688 -0.334078 0
M  V30 613 H 63.3243 2.57265 1.97447 0
M  V30 614 H 63.1093 3.85 0.742812 0
M  V30 615 H 64.5993 3.80001 1.73172 0
M  V30 616 N 65.0364 0.313813 1.54444 0
M  V30 617 C 65.9994 -0.54379 2.22656 0
M  V30 618 C 66.9994 -1.05124 1.21678 0
M  V30 619 O 68.1894 -0.945225 1.46325 0
M  V30 620 C 65.3214 -1.75427 2.92298 0
M  V30 621 H 66.5144 0.0523599 2.99854 0
M  V30 622 H 64.0674 0.0647834 1.56166 0
M  V30 623 H 64.8024 -2.38991 2.19211 0
M  V30 624 H 64.5874 -1.39791 3.66334 0
M  V30 625 H 66.0774 -2.36325 3.44297 0
M  V30 626 N 66.5145 -1.57545 0.0417849 0
M  V30 627 C 67.7615 -1.92317 -0.634082 0
M  V30 628 C 68.0895 -0.919334 -1.71402 0
M  V30 629 O 67.3445 0.0698253 -1.95575 0
M  V30 630 C 67.6435 -3.33794 -1.27735 0
M  V30 631 C 67.3095 -4.49716 -0.326543 0
M  V30 632 C 65.9715 -4.81156 -0.0648814 0
M  V30 633 C 68.3235 -5.20182 0.325623 0
M  V30 634 C 65.6515 -5.80414 0.856539 0
M  V30 635 C 68.0035 -6.20424 1.23518 0
M  V30 636 C 66.6675 -6.50298 1.5056 0
M  V30 637 H 65.9375 -0.703736 -0.232027 0
M  V30 638 H 68.5845 -1.91205 0.106259 0
M  V30 639 H 66.8895 -3.31228 -2.09274 0
M  V30 640 H 68.5865 -3.57975 -1.80707 0
M  V30 641 H 65.1765 -4.25176 -0.540665 0
M  V30 642 H 69.3605 -4.96112 0.136546 0
M  V30 643 H 64.6165 -6.019 1.07363 0
M  V30 644 H 68.7905 -6.74141 1.74664 0
M  V30 645 H 66.4175 -7.27025 2.22123 0
M  V30 646 N 67.9926 0.231505 -1.5589 0
M  V30 647 C 69.2696 0.981096 -1.69215 0
M  V30 648 C 69.6496 2.02799 -0.586164 0
M  V30 649 O 68.9976 2.24823 0.408253 0
M  V30 650 C 69.2076 1.60054 -3.10135 0
M  V30 651 C 70.5556 2.09658 -3.69227 0
M  V30 652 O 71.5796 1.69967 -3.13033 0
M  V30 653 O 70.4386 2.8258 -4.67772 0
M  V30 654 H 67.5326 0.457653 -0.688827 0
M  V30 655 H 70.0786 0.224073 -1.68214 0
M  V30 656 H 68.8506 0.844105 -3.82087 0
M  V30 657 H 68.4736 2.42336 -3.15212 0
M  V30 658 N 69.4707 1.49531 0.497807 0
M  V30 659 C 70.7197 1.58426 1.24837 0
M  V30 660 C 71.0327 0.277643 1.93619 0
M  V30 661 O 72.2387 0.24517 2.70391 0
M  V30 662 C 70.6947 2.79538 2.26686 0
M  V30 663 C 70.3027 4.16971 1.63828 0
M  V30 664 C 72.0467 2.97764 3.0255 0
M  V30 665 C 69.9537 5.29301 2.63807 0
M  V30 666 H 68.8837 0.58989 0.469623 0
M  V30 667 H 71.5347 1.75923 0.521857 0
M  V30 668 H 69.9167 2.55542 3.02514 0
M  V30 669 H 71.0907 4.51116 0.939711 0
M  V30 670 H 69.4057 4.04129 1.00342 0
M  V30 671 H 72.0027 3.78856 3.77323 0
M  V30 672 H 72.3457 2.08448 3.60354 0
M  V30 673 H 72.8787 3.21815 2.33838 0
M  V30 674 H 69.6177 6.20687 2.10779 0
M  V30 675 H 69.1377 4.99606 3.31894 0
M  V30 676 H 70.8167 5.58768 3.2617 0
M  V30 677 N 70.9488 -0.749086 1.3866 0
M  V30 678 C 72.1968 -1.50535 1.34847 0
M  V30 679 C 72.5178 -1.94909 -0.0595016 0
M  V30 680 O 71.7878 -1.67973 -1.00806 0
M  V30 681 H 70.3678 -0.558395 0.49619 0
M  V30 682 H 73.0298 -0.890165 1.73384 0
M  V30 683 H 72.1258 -2.39413 2.00219 0
M  V30 684 N 72.4269 -1.23603 -0.977757 0
M  V30 685 C 73.8379 -1.06424 -1.53398 0
M  V30 686 C 74.1889 0.367578 -1.92726 0
M  V30 687 O 73.3139 1.25465 -1.76316 0
M  V30 688 C 73.9089 -1.92568 -2.78753 0
M  V30 689 C 72.4679 -1.79642 -3.30765 0
M  V30 690 C 71.6149 -1.88111 -2.03739 0
M  V30 691 H 74.5659 -1.37227 -0.797152 0
M  V30 692 H 74.5869 -1.45203 -3.51705 0
M  V30 693 H 74.0989 -2.96771 -2.50098 0
M  V30 694 H 72.1999 -0.782325 -3.64294 0
M  V30 695 H 72.3129 -2.63174 -4.00345 0
M  V30 696 H 70.6769 -1.31723 -2.17994 0
M  V30 697 H 71.4599 -2.93875 -1.77461 0
M  V30 698 N 73.905 1.17692 -1.04816 0
M  V30 699 C 74.868 2.19787 -0.650117 0
M  V30 700 C 75.868 1.58044 0.296427 0
M  V30 701 O 77.058 1.74012 0.0808097 0
M  V30 702 C 74.19 3.40869 0.0456987 0
M  V30 703 H 75.383 2.56516 -1.5537 0
M  V30 704 H 72.936 1.31708 -0.841594 0
M  V30 705 H 73.671 3.09681 0.962726 0
M  V30 706 H 73.456 3.86928 -0.634727 0
M  V30 707 H 74.946 4.16445 0.310432 0
M  V30 708 N 75.3831 0.828654 1.34056 0
M  V30 709 C 76.3461 0.259927 2.27721 0
M  V30 710 C 77.3461 -0.565478 1.50529 0
M  V30 711 O 78.5361 -0.38075 1.69988 0
M  V30 712 C 75.6681 -0.634944 3.34935 0
M  V30 713 H 76.8611 1.0863 2.79534 0
M  V30 714 H 74.4141 0.600951 1.44285 0
M  V30 715 H 75.1491 -1.48416 2.88346 0
M  V30 716 H 74.9341 -0.0444999 3.92075 0
M  V30 717 H 76.4241 -1.02648 4.04788 0
M  V30 718 N 76.8612 -1.46375 0.584142 0
M  V30 719 C 77.7942 -2.27351 -0.196676 0
M  V30 720 C 78.7722 -1.35715 -0.895561 0
M  V30 721 O 79.9562 -1.65126 -0.90916 0
M  V30 722 C 77.0832 -3.13486 -1.28235 0
M  V30 723 C 76.1292 -4.20896 -0.689145 0
M  V30 724 S 76.9622 -5.33299 0.48507 0
M  V30 725 C 78.1182 -6.23 -0.601767 0
M  V30 726 H 78.3512 -2.93228 0.490395 0
M  V30 727 H 75.8842 -1.49875 0.371071 0
M  V30 728 H 77.8422 -3.63676 -1.90395 0
M  V30 729 H 76.5032 -2.4692 -1.94138 0
M  V30 730 H 75.6962 -4.80997 -1.50527 0
M  V30 731 H 75.2982 -3.73726 -0.143181 0
M  V30 732 H 77.5902 -6.60979 -1.48705 0
M  V30 733 H 78.5332 -7.0809 -0.0374799 0
M  V30 734 H 78.9412 -5.57173 -0.906557 0
M  V30 735 N 78.3393 -0.321999 -1.54275 0
M  V30 736 C 79.2723 0.58718 -2.20516 0
M  V30 737 C 80.2503 1.11693 -1.18167 0
M  V30 738 O 81.4343 1.18122 -1.46899 0
M  V30 739 C 78.5613 1.80554 -2.86562 0
M  V30 740 C 77.6073 1.40718 -4.02617 0
M  V30 741 S 78.4403 0.445218 -5.33646 0
M  V30 742 C 79.5963 1.6709 -6.03185 0
M  V30 743 H 79.8293 0.0244875 -2.9729 0
M  V30 744 H 77.3623 -0.106087 -1.54035 0
M  V30 745 H 79.3203 2.50462 -3.25237 0
M  V30 746 H 77.9813 2.33942 -2.09595 0
M  V30 747 H 77.1743 2.31501 -4.47687 0
M  V30 748 H 76.7763 0.78782 -3.65608 0
M  V30 749 H 79.0683 2.60856 -6.25268 0
M  V30 750 H 80.0113 1.26239 -6.96756 0
M  V30 751 H 80.4193 1.85716 -5.33076 0
M  V30 752 N 79.8174 1.5752 -0.0501392 0
M  V30 753 C 80.7274 2.14952 0.939827 0
M  V30 754 C 81.7434 1.10706 1.34239 0
M  V30 755 O 82.9194 1.42869 1.41952 0
M  V30 756 C 79.9844 2.68232 2.19665 0
M  V30 757 C 79.0454 3.87272 1.85253 0
M  V30 758 C 78.2784 4.38002 3.04943 0
M  V30 759 O 78.5014 3.87811 4.18281 0
M  V30 760 O 77.4354 5.29602 2.86017 0
M  V30 761 H 81.2614 2.9986 0.481392 0
M  V30 762 H 78.8464 1.4841 0.171699 0
M  V30 763 H 80.7284 3.02475 2.93406 0
M  V30 764 H 79.4034 1.86395 2.64648 0
M  V30 765 H 78.3104 3.5792 1.0883 0
M  V30 766 H 79.6434 4.70336 1.4507 0
M  V30 767 N 81.2955 -0.223234 1.56011 0
M  V30 768 C 82.2435 -1.29627 1.93131 0
M  V30 769 C 83.2375 -1.48608 0.813146 0
M  V30 770 O 84.4435 -1.49802 0.997966 0
M  V30 771 H 80.8185 -0.434563 0.613726 0
M  V30 772 H 82.7895 -0.955995 2.82672 0
M  V30 773 C 81.5385 -2.63983 2.26292 0
M  V30 774 H 80.8615 -2.50185 3.11846 0
M  V30 775 H 82.3015 -3.3788 2.56151 0
M  V30 776 C 80.7605 -3.18866 1.08747 0
M  V30 777 O 81.2905 -4.00192 0.347727 0
M  V30 778 N 79.4965 -2.77217 0.871743 0
M  V30 779 H 79.0435 -2.1119 1.47501 0
M  V30 780 H 79.0015 -3.1428 0.0869905 0
M  V30 781 N 82.7736 -1.49793 -0.48987 0
M  V30 782 C 84.1846 -1.52914 -1.07118 0
M  V30 783 C 84.5356 -0.321738 -1.93544 0
M  V30 784 O 83.6606 0.567338 -2.08831 0
M  V30 785 C 84.2556 -2.771 -1.94938 0
M  V30 786 C 82.8146 -2.82963 -2.48212 0
M  V30 787 C 81.9616 -2.46972 -1.26096 0
M  V30 788 H 84.9126 -1.56329 -0.273289 0
M  V30 789 H 84.9336 -2.57892 -2.79771 0
M  V30 790 H 84.4456 -3.64959 -1.32009 0
M  V30 791 H 82.5466 -1.99411 -3.14748 0
M  V30 792 H 82.6596 -3.85406 -2.84603 0
M  V30 793 H 81.0236 -1.98994 -1.58976 0
M  V30 794 H 81.8066 -3.37118 -0.648581 0
M  V30 795 N 84.2517 0.741722 -1.39055 0
M  V30 796 C 85.2147 1.83733 -1.37021 0
M  V30 797 C 86.2147 1.58542 -0.268534 0
M  V30 798 O 87.4047 1.66067 -0.526076 0
M  V30 799 C 84.5367 3.2141 -1.13617 0
M  V30 800 H 85.7297 1.86941 -2.34506 0
M  V30 801 H 83.2827 0.944676 -1.24521 0
M  V30 802 H 84.0177 3.23865 -0.167863 0
M  V30 803 H 83.8027 3.4109 -1.93391 0
M  V30 804 H 85.2927 4.01477 -1.14918 0
M  V30 805 N 85.7298 1.2412 0.971189 0
M  V30 806 C 86.9578 1.10575 1.74874 0
M  V30 807 C 87.3728 -0.342017 1.85676 0
M  V30 808 O 86.7298 -1.23617 1.34258 0
M  V30 809 C 86.7808 1.73579 3.171 0
M  V30 810 O 86.5018 3.12695 3.06844 0
M  V30 811 C 88.0028 1.65598 4.11208 0
M  V30 812 H 85.2228 0.386504 0.548503 0
M  V30 813 H 87.7668 1.64156 1.21955 0
M  V30 814 H 85.9218 1.24009 3.67016 0
M  V30 815 H 86.3358 3.43412 3.96445 0
M  V30 816 H 87.8098 2.1437 5.08674 0
M  V30 817 H 88.2868 0.616532 4.34851 0
M  V30 818 H 88.8928 2.14578 3.67201 0
M  V30 819 N 87.2079 -1.17134 1.05439 0
M  V30 820 C 88.1379 -2.2342 0.678649 0
M  V30 821 C 89.1189 -1.66971 -0.32476 0
M  V30 822 O 90.3039 -1.93149 -0.201802 0
M  V30 823 C 87.4339 -3.47256 0.0552099 0
M  V30 824 C 86.3879 -4.16543 0.98365 0
M  V30 825 C 85.7139 -5.34231 0.223961 0
M  V30 826 C 87.0139 -4.68495 2.3089 0
M  V30 827 H 88.7079 -2.55105 1.56722 0
M  V30 828 H 86.2539 -1.2262 0.754998 0
M  V30 829 H 88.2069 -4.20828 -0.21946 0
M  V30 830 H 86.9309 -3.14846 -0.868319 0
M  V30 831 H 85.5899 -3.44887 1.24293 0
M  V30 832 H 85.2379 -4.98071 -0.702412 0
M  V30 833 H 84.9379 -5.81527 0.842627 0
M  V30 834 H 86.4619 -6.10585 -0.0433671 0
M  V30 835 H 87.8759 -5.33691 2.09396 0
M  V30 836 H 86.2729 -5.26379 2.88176 0
M  V30 837 H 87.3429 -3.85169 2.94572 0
M  V30 838 N 88.686 -0.835752 -1.33615 0
M  V30 839 C 89.934 -0.429109 -1.97492 0
M  V30 840 C 90.255 1.01433 -1.66543 0
M  V30 841 O 89.525 1.70611 -0.962744 0
M  V30 842 H 88.105 -0.155686 -0.730596 0
M  V30 843 H 90.767 -1.06802 -1.63031 0
M  V30 844 H 89.863 -0.55861 -3.0706 0
M  V30 845 N 90.1641 1.46063 -0.591896 0
M  V30 846 C 91.0941 2.33172 0.123673 0
M  V30 847 C 92.0751 1.45897 0.87453 0
M  V30 848 O 93.2601 1.74698 0.848181 0
M  V30 849 C 90.3901 3.28336 1.13194 0
M  V30 850 C 89.3441 4.25124 0.495324 0
M  V30 851 C 88.6701 5.09863 1.61071 0
M  V30 852 C 89.9701 5.19143 -0.573425 0
M  V30 853 H 91.6641 2.93252 -0.603646 0
M  V30 854 H 89.2101 1.41014 -0.291741 0
M  V30 855 H 91.1631 3.88137 1.64097 0
M  V30 856 H 89.8871 2.66383 1.88965 0
M  V30 857 H 88.5461 3.66599 0.00729452 0
M  V30 858 H 88.1941 4.44288 2.35832 0
M  V30 859 H 87.8941 5.75417 1.19035 0
M  V30 860 H 89.4181 5.72529 2.12233 0
M  V30 861 H 90.8321 5.73106 -0.1491 0
M  V30 862 H 89.2291 5.93089 -0.914636 0
M  V30 863 H 90.2991 4.62519 -1.45617 0
M  V30 864 N 91.6422 0.330177 1.54103 0
M  V30 865 C 92.5752 -0.575477 2.20825 0
M  V30 866 C 93.5532 -1.11064 1.18758 0
M  V30 867 O 94.7372 -1.17341 1.47524 0
M  V30 868 C 91.8642 -1.79032 2.87516 0
M  V30 869 C 90.9102 -1.38581 4.03358 0
M  V30 870 S 91.7432 -0.416911 5.33875 0
M  V30 871 C 92.8992 -1.63889 6.04062 0
M  V30 872 H 93.1322 -0.00872114 2.97299 0
M  V30 873 H 90.6652 0.114254 1.53977 0
M  V30 874 H 92.6232 -2.48734 3.2656 0
M  V30 875 H 91.2842 -2.32827 2.10832 0
M  V30 876 H 90.4772 -2.29123 4.48908 0
M  V30 877 H 90.0792 -0.768419 3.66021 0
M  V30 878 H 92.3712 -2.57536 6.26643 0
M  V30 879 H 93.3142 -1.22542 6.97416 0
M  V30 880 H 93.7222 -1.82887 5.34053 0
M  V30 881 N 93.1203 -1.57491 0.0584922 0
M  V30 882 C 94.3683 -1.92597 -0.612436 0
M  V30 883 C 94.6893 -0.938162 -1.70949 0
M  V30 884 O 93.9593 0.0158301 -1.95894 0
M  V30 885 H 92.5393 -0.710964 -0.229214 0
M  V30 886 H 95.2013 -1.94571 0.113218 0
M  V30 887 H 94.2973 -2.94038 -1.04633 0
M  V30 888 N 94.5984 0.214957 -1.56127 0
M  V30 889 C 95.5084 1.28727 -1.96129 0
M  V30 890 C 96.5244 1.50916 -0.866044 0
M  V30 891 O 97.7004 1.63918 -1.17016 0
M  V30 892 C 94.7654 2.61569 -2.27558 0
M  V30 893 C 93.8264 2.47625 -3.50685 0
M  V30 894 C 93.0594 3.74132 -3.80606 0
M  V30 895 O 93.2824 4.77438 -3.12104 0
M  V30 896 O 92.2164 3.70849 -4.74083 0
M  V30 897 H 96.0424 0.977855 -2.87527 0
M  V30 898 H 93.6274 0.418358 -1.43423 0
M  V30 899 H 95.5094 3.40012 -2.48938 0
M  V30 900 H 94.1844 2.92178 -1.39332 0
M  V30 901 H 93.0914 1.67361 -3.34576 0
M  V30 902 H 94.4244 2.21954 -4.39315 0
M  V30 903 N 96.0765 1.50051 0.48192 0
M  V30 904 C 97.3245 1.60181 1.23234 0
M  V30 905 C 97.6455 0.299176 1.92691 0
M  V30 906 O 96.9155 -0.682708 1.83619 0
M  V30 907 H 95.4955 0.590232 0.457859 0
M  V30 908 H 98.1575 1.86775 0.556881 0
M  V30 909 H 97.2535 2.40753 1.98607 0
M  V30 910 N 97.5546 -0.734337 1.39446 0
M  V30 911 C 98.9706 -1.03997 1.21065 0
M  V30 912 C 99.1706 -2.01369 0.0727019 0
M  V30 913 O 98.2266 -2.45856 -0.575426 0
M  V30 914 C 99.5396 -1.60163 2.54496 0
M  V30 915 C 101.088 -1.7224 2.61347 0
M  V30 916 C 101.563 -2.31814 3.95002 0
M  V30 917 N 103.054 -2.39223 3.96644 0
M  V30 918 C 103.789 -2.86258 4.96834 0
M  V30 919 N 103.285 -3.33184 6.07421 0
M  V30 920 N 105.078 -2.85473 4.84213 0
M  V30 921 H 97.2286 -0.0885624 2.12215 0
M  V30 922 H 99.4916 -0.10191 0.942506 0
M  V30 923 H 99.1976 -0.960811 3.38321 0
M  V30 924 H 99.0716 -2.5896 2.74262 0
M  V30 925 H 101.459 -2.35443 1.77906 0
M  V30 926 H 101.54 -0.720939 2.4543 0
M  V30 927 H 101.184 -1.69238 4.78875 0
M  V30 928 H 101.114 -3.32638 4.08239 0
M  V30 929 H 103.605 -2.06057 3.16779 0
M  V30 930 H 103.918 -3.67586 6.7978 0
M  V30 931 H 102.263 -3.31191 6.11013 0
M  V30 932 H 105.454 -2.48136 3.96921 0
M  V30 933 H 105.627 -3.21814 5.62441 0
M  V30 934 N 99.0327 -1.24633 -0.964593 0
M  V30 935 C 99.9827 -1.00841 -2.04487 0
M  V30 936 C 100.967 0.0512468 -1.60818 0
M  V30 937 O 102.159 -0.162865 -1.76249 0
M  V30 938 C 99.2877 -0.618474 -3.37683 0
M  V30 939 C 98.3737 -1.71437 -3.87905 0
M  V30 940 N 98.7647 -2.9477 -4.11029 0
M  V30 941 C 97.0627 -1.5926 -4.16596 0
M  V30 942 C 97.7637 -3.65834 -4.52261 0
M  V30 943 N 96.7397 -2.9341 -4.57615 0
M  V30 944 H 100.542 -1.94487 -2.20345 0
M  V30 945 H 98.0557 -1.14805 -1.14863 0
M  V30 946 H 100.053 -0.429247 -4.14684 0
M  V30 947 H 98.7127 0.310766 -3.23209 0
M  V30 948 H 99.7237 -3.30917 -3.9839 0
M  V30 949 H 96.4007 -0.731606 -4.1104 0
M  V30 950 H 97.7907 -4.71646 -4.78539 0
M  V30 951 N 100.511 1.16574 -1.06058 0
M  V30 952 C 101.758 1.87047 -0.775873 0
M  V30 953 C 102.086 1.81562 0.697534 0
M  V30 954 O 101.341 1.22445 1.52662 0
M  V30 955 C 101.64 3.36195 -1.21275 0
M  V30 956 C 101.306 3.6188 -2.68986 0
M  V30 957 C 99.9678 3.68599 -3.09335 0
M  V30 958 C 102.32 3.72648 -3.64394 0
M  V30 959 C 99.6478 3.83584 -4.43937 0
M  V30 960 C 102 3.89154 -4.98741 0
M  V30 961 C 100.664 3.94114 -5.3873 0
M  V30 962 H 99.9338 0.684452 -0.283912 0
M  V30 963 H 102.581 1.37853 -1.32925 0
M  V30 964 H 100.886 3.87505 -0.578528 0
M  V30 965 H 102.583 3.89103 -0.969542 0
M  V30 966 H 99.1728 3.57281 -2.36744 0
M  V30 967 H 103.357 3.66769 -3.34356 0
M  V30 968 H 98.6128 3.85677 -4.74409 0
M  V30 969 H 102.787 3.96427 -5.72554 0
M  V30 970 H 100.414 4.05478 -6.43033 0
M  V30 971 N 101.989 0.842826 1.3317 0
M  V30 972 C 103.214 0.453129 2.02389 0
M  V30 973 C 103.639 -0.939105 1.6298 0
M  V30 974 O 102.997 -1.61472 0.8244 0
M  V30 975 C 103.045 0.586094 3.55805 0
M  V30 976 O 102.149 -0.386029 4.10589 0
M  V30 977 H 101.49 0.183664 0.638094 0
M  V30 978 H 104.02 1.13875 1.69981 0
M  V30 979 H 104.03 0.469209 4.05293 0
M  V30 980 H 102.705 1.6014 3.83833 0
M  V30 981 H 101.282 -0.226371 3.72212 0
M  V30 982 N 103.467 -1.45747 0.599634 0
M  V30 983 C 104.397 -2.33235 -0.111306 0
M  V30 984 C 105.378 -1.46359 -0.866781 0
M  V30 985 O 106.563 -1.75146 -0.838904 0
M  V30 986 C 103.693 -3.28932 -1.11451 0
M  V30 987 C 102.647 -4.25381 -0.472772 0
M  V30 988 C 101.973 -5.1071 -1.58365 0
M  V30 989 C 103.273 -5.18831 0.600948 0
M  V30 990 H 104.967 -2.92927 0.61919 0
M  V30 991 H 102.513 -1.40857 0.299215 0
M  V30 992 H 104.466 -3.89002 -1.62036 0
M  V30 993 H 103.19 -2.67381 -1.8755 0
M  V30 994 H 101.849 -3.66598 0.0121472 0
M  V30 995 H 101.497 -4.45533 -2.33473 0
M  V30 996 H 101.197 -5.7604 -1.15982 0
M  V30 997 H 102.721 -5.73647 -2.09194 0
M  V30 998 H 104.135 -5.73019 0.179491 0
M  V30 999 H 102.532 -5.92595 0.946076 0
M  V30 1000 H 103.602 -4.6174 1.48068 0
M  V30 1001 N 104.945 -0.338344 -1.53925 0
M  V30 1002 C 106.193 0.259245 -2.0043 0
M  V30 1003 C 106.514 1.51484 -1.22791 0
M  V30 1004 O 105.784 1.93037 -0.33368 0
M  V30 1005 H 104.364 0.0987845 -0.740439 0
M  V30 1006 H 107.026 -0.458302 -1.89435 0
M  V30 1007 H 106.122 0.505334 -3.07982 0
M  V30 1008 N 106.423 1.57458 -0.0668435 0
M  V30 1009 C 107.353 2.15468 0.899764 0
M  V30 1010 C 108.334 1.08042 1.31381 0
M  V30 1011 O 109.519 1.36054 1.38574 0
M  V30 1012 C 106.649 2.71232 2.16911 0
M  V30 1013 C 105.603 3.83781 1.89463 0
M  V30 1014 C 104.929 4.26127 3.22986 0
M  V30 1015 C 106.229 5.08238 1.20381 0
M  V30 1016 H 107.923 2.96488 0.416529 0
M  V30 1017 H 105.469 1.4262 0.198908 0
M  V30 1018 H 107.422 3.10458 2.84945 0
M  V30 1019 H 106.146 1.87426 2.67468 0
M  V30 1020 H 104.805 3.45051 1.23836 0
M  V30 1021 H 104.453 3.39249 3.71374 0
M  V30 1022 H 104.153 5.01993 3.05413 0
M  V30 1023 H 105.677 4.67966 3.92225 0
M  V30 1024 H 107.091 5.44811 1.78475 0
M  V30 1025 H 105.488 5.89349 1.13083 0
M  V30 1026 H 106.558 4.84558 0.182153 0
M  V30 1027 N 107.901 -0.206675 1.56239 0
M  V30 1028 C 109.178 -0.954051 1.70755 0
M  V30 1029 C 109.558 -2.01841 0.618353 0
M  V30 1030 O 108.906 -2.25444 -0.372434 0
M  V30 1031 C 109.116 -1.551 3.12642 0
M  V30 1032 C 110.464 -2.03757 3.72516 0
M  V30 1033 O 111.488 -1.64965 3.15698 0
M  V30 1034 O 110.347 -2.75103 4.72208 0
M  V30 1035 H 107.441 -0.446636 0.696021 0
M  V30 1036 H 109.987 -0.197283 1.68549 0
M  V30 1037 H 108.759 -0.783212 3.83382 0
M  V30 1038 H 108.382 -2.37291 3.19028 0
M  V30 1039 N 109.379 -1.50304 -0.473955 0
M  V30 1040 C 110.625 -1.61389 -1.22806 0
M  V30 1041 C 110.958 -0.311955 -1.91678 0
M  V30 1042 O 110.233 0.686384 -1.81986 0
M  V30 1043 C 110.516 -2.79219 -2.27396 0
M  V30 1044 C 110.369 -4.19286 -1.62848 0
M  V30 1045 C 111.688 -2.92614 -3.28732 0
M  V30 1046 H 108.807 -0.587399 -0.445119 0
M  V30 1047 H 111.449 -1.82681 -0.522265 0
M  V30 1048 H 109.599 -2.61195 -2.87592 0
M  V30 1049 H 111.271 -4.48892 -1.06271 0
M  V30 1050 H 109.514 -4.23677 -0.931693 0
M  V30 1051 H 110.185 -4.97655 -2.38838 0
M  V30 1052 H 112.661 -3.09105 -2.78556 0
M  V30 1053 H 111.537 -3.76688 -3.99246 0
M  V30 1054 H 111.798 -2.03107 -3.92683 0
M  V30 1055 N 110.857 0.726932 -1.39834 0
M  V30 1056 C 112.103 1.48884 -1.377 0
M  V30 1057 C 112.436 1.94185 0.0244852 0
M  V30 1058 O 111.711 1.67361 0.990986 0
M  V30 1059 C 111.994 2.72288 -2.3565 0
M  V30 1060 C 111.847 2.32956 -3.84775 0
M  V30 1061 C 113.166 3.74414 -2.31306 0
M  V30 1062 H 110.285 0.540062 -0.5015 0
M  V30 1063 H 112.927 0.830547 -1.70886 0
M  V30 1064 H 111.077 3.28457 -2.07481 0
M  V30 1065 H 112.749 1.82356 -4.23726 0
M  V30 1066 H 110.992 1.65088 -4.01159 0
M  V30 1067 H 111.663 3.21362 -4.4881 0
M  V30 1068 H 114.139 3.27849 -2.56231 0
M  V30 1069 H 113.015 4.58414 -3.01907 0
M  V30 1070 H 113.276 4.21909 -1.32081 0
M  V30 1071 N 112.336 1.25143 0.95797 0
M  V30 1072 C 113.561 1.12521 1.74223 0
M  V30 1073 C 113.986 -0.317402 1.85403 0
M  V30 1074 O 113.344 -1.2299 1.33204 0
M  V30 1075 C 113.392 1.78062 3.1357 0
M  V30 1076 O 112.496 1.058 3.98598 0
M  V30 1077 H 111.837 0.39304 0.535178 0
M  V30 1078 H 114.367 1.65641 1.201 0
M  V30 1079 H 114.377 1.84213 3.64046 0
M  V30 1080 H 113.052 2.83021 3.04749 0
M  V30 1081 H 111.629 1.07506 3.57067 0
M  V30 1082 N 113.814 -1.1601 1.06675 0
M  V30 1083 C 115.042 -1.90527 0.806667 0
M  V30 1084 C 115.457 -1.77643 -0.639396 0
M  V30 1085 O 114.814 -1.12369 -1.43803 0
M  V30 1086 C 114.865 -3.41106 1.19705 0
M  V30 1087 O 114.586 -3.53608 2.58636 0
M  V30 1088 C 116.087 -4.32663 0.965266 0
M  V30 1089 H 113.307 -0.604053 0.292166 0
M  V30 1090 H 115.851 -1.47026 1.4214 0
M  V30 1091 H 114.006 -3.82296 0.626774 0
M  V30 1092 H 114.42 -4.47011 2.74375 0
M  V30 1093 H 115.894 -5.36763 1.288 0
M  V30 1094 H 116.371 -4.39089 -0.0987936 0
M  V30 1095 H 116.977 -3.97206 1.52011 0
M  V30 1096 N 115.292 -0.849877 -1.32721 0
M  V30 1097 C 116.569 -0.372405 -1.92022 0
M  V30 1098 C 116.949 1.1435 -1.77447 0
M  V30 1099 O 116.297 1.96296 -1.16962 0
M  V30 1100 C 116.507 -0.831482 -3.3895 0
M  V30 1101 C 117.855 -0.845882 -4.16089 0
M  V30 1102 O 118.879 -0.775806 -3.47649 0
M  V30 1103 O 117.738 -0.943753 -5.38289 0
M  V30 1104 H 114.832 -0.107667 -0.819961 0
M  V30 1105 H 117.378 -0.93646 -1.41522 0
M  V30 1106 H 116.15 -1.87448 -3.4348 0
M  V30 1107 H 115.773 -0.24461 -3.96847 0
M  V30 1108 N 116.77 1.45427 -0.607355 0
M  V30 1109 C 118.019 2.01452 -0.100036 0
M  V30 1110 C 118.332 1.48159 1.27704 0
M  V30 1111 O 119.538 1.96159 1.87707 0
M  V30 1112 C 117.994 3.59672 -0.128158 0
M  V30 1113 C 117.602 4.21962 -1.50507 0
M  V30 1114 C 119.346 4.23262 0.323932 0
M  V30 1115 C 117.253 5.72333 -1.48959 0
M  V30 1116 H 116.183 0.75325 -0.0336299 0
M  V30 1117 H 118.834 1.66901 -0.76265 0
M  V30 1118 H 117.216 3.91411 0.601105 0
M  V30 1119 H 118.39 4.01796 -2.25602 0
M  V30 1120 H 116.705 3.70565 -1.89923 0
M  V30 1121 H 119.302 5.33522 0.354691 0
M  V30 1122 H 119.645 3.93921 1.34656 0
M  V30 1123 H 120.178 3.96239 -0.352056 0
M  V30 1124 H 116.917 6.06373 -2.48981 0
M  V30 1125 H 116.437 5.94691 -0.781214 0
M  V30 1126 H 118.116 6.35525 -1.21313 0
M  V30 1127 N 118.248 0.346503 1.53744 0
M  V30 1128 C 119.195 -0.508914 2.25119 0
M  V30 1129 C 120.165 -1.09315 1.25058 0
M  V30 1130 O 121.35 -1.12921 1.53797 0
M  V30 1131 C 118.49 -1.65246 3.02965 0
M  V30 1132 C 117.603 -1.09525 4.17886 0
M  V30 1133 C 116.738 -2.20634 4.83212 0
M  V30 1134 C 115.777 -1.62279 5.90196 0
M  V30 1135 N 114.914 -2.67143 6.49291 0
M  V30 1136 H 119.754 0.106283 2.9781 0
M  V30 1137 H 117.291 0.0642227 1.4696 0
M  V30 1138 H 119.249 -2.32574 3.4636 0
M  V30 1139 H 117.879 -2.2386 2.32565 0
M  V30 1140 H 116.931 -0.312818 3.79112 0
M  V30 1141 H 118.243 -0.628444 4.94825 0
M  V30 1142 H 117.397 -2.95821 5.29693 0
M  V30 1143 H 116.136 -2.70659 4.05703 0
M  V30 1144 H 115.141 -0.855989 5.43096 0
M  V30 1145 H 116.366 -1.13102 6.69615 0
M  V30 1146 H 114.312 -3.16417 5.74645 0
M  V30 1147 H 114.229 -2.25093 7.21713 0
M  V30 1148 H 115.497 -3.4209 7.00425 0
M  V30 1149 N 119.726 -1.57421 0.075193 0
M  V30 1150 C 120.972 -1.93905 -0.594025 0
M  V30 1151 C 121.305 -0.955701 -1.69056 0
M  V30 1152 O 120.58 0.0145373 -1.94495 0
M  V30 1153 C 120.863 -3.40638 -1.1678 0
M  V30 1154 C 120.716 -4.49733 -0.0776792 0
M  V30 1155 C 122.035 -3.88259 -2.07228 0
M  V30 1156 H 119.154 -0.705105 -0.214466 0
M  V30 1157 H 121.796 -1.8947 0.141854 0
M  V30 1158 H 119.946 -3.44549 -1.79494 0
M  V30 1159 H 121.618 -4.57942 0.555573 0
M  V30 1160 H 119.861 -4.29751 0.591286 0
M  V30 1161 H 120.532 -5.49549 -0.519603 0
M  V30 1162 H 123.008 -3.86376 -1.54445 0
M  V30 1163 H 121.884 -4.91533 -2.44308 0
M  V30 1164 H 122.145 -3.26396 -2.98191 0
M  V30 1165 N 121.204 0.198386 -1.56346 0
M  V30 1166 C 122.432 0.935572 -1.84539 0
M  V30 1167 C 122.847 1.76989 -0.657281 0
M  V30 1168 O 122.204 1.78626 0.374043 0
M  V30 1169 C 122.255 1.8344 -3.11499 0
M  V30 1170 O 121.976 1.03377 -4.25728 0
M  V30 1171 C 123.477 2.68355 -3.52846 0
M  V30 1172 H 120.697 0.273126 -0.612897 0
M  V30 1173 H 123.241 0.20663 -2.03453 0
M  V30 1174 H 121.396 2.51701 -2.94492 0
M  V30 1175 H 121.81 1.64599 -4.98003 0
M  V30 1176 H 123.284 3.27085 -4.44657 0
M  V30 1177 H 123.761 3.41901 -2.75681 0
M  V30 1178 H 124.367 2.05471 -3.72373 0
M  V30 1179 N 122.682 1.50554 0.465978 0
M  V30 1180 C 123.63 1.70324 1.58406 0
M  V30 1181 C 124.624 0.569139 1.59553 0
M  V30 1182 O 125.83 0.749776 1.63641 0
M  V30 1183 H 122.205 0.537688 0.525734 0
M  V30 1184 H 124.176 2.64104 1.38894 0
M  V30 1185 C 122.925 1.81928 2.96307 0
M  V30 1186 H 122.248 2.68586 2.96144 0
M  V30 1187 H 123.688 1.99784 3.73982 0
M  V30 1188 C 122.147 0.572095 3.32007 0
M  V30 1189 O 122.677 -0.286416 4.00678 0
M  V30 1190 N 120.883 0.424606 2.87481 0
M  V30 1191 H 120.43 1.12427 2.31771 0
M  V30 1192 H 120.388 -0.408697 3.11732 0
M  V30 1193 N 124.16 -0.719506 1.40217 0
M  V30 1194 C 125.388 -1.50864 1.41589 0
M  V30 1195 C 125.803 -1.88794 0.0145275 0
M  V30 1196 O 125.16 -1.55174 -0.960594 0
M  V30 1197 C 125.211 -2.78646 2.30302 0
M  V30 1198 O 124.932 -2.42321 3.64983 0
M  V30 1199 C 126.433 -3.72569 2.40224 0
M  V30 1200 H 123.653 -0.465709 0.48307 0
M  V30 1201 H 126.197 -0.88785 1.84221 0
M  V30 1202 H 124.352 -3.37019 1.91042 0
M  V30 1203 H 124.766 -3.24514 4.12057 0
M  V30 1204 H 126.24 -4.5908 3.06512 0
M  V30 1205 H 126.717 -4.15403 1.42608 0
M  V30 1206 H 127.323 -3.20109 2.80019 0
M  V30 1207 N 125.638 -1.25649 -0.95132 0
M  V30 1208 C 126.601 -1.06399 -2.03007 0
M  V30 1209 C 127.601 -0.0156794 -1.60792 0
M  V30 1210 O 128.791 -0.25817 -1.72276 0
M  V30 1211 C 125.923 -0.616184 -3.35285 0
M  V30 1212 H 127.116 -2.02164 -2.21517 0
M  V30 1213 H 124.669 -1.08103 -1.12887 0
M  V30 1214 H 125.404 0.343917 -3.22471 0
M  V30 1215 H 125.189 -1.37301 -3.67275 0
M  V30 1216 H 126.679 -0.503032 -4.14559 0
M  V30 1217 N 127.117 1.15442 -1.07289 0
M  V30 1218 C 128.345 1.90096 -0.81676 0
M  V30 1219 C 128.76 1.7798 0.629966 0
M  V30 1220 O 128.117 1.1313 1.43206 0
M  V30 1221 C 128.168 3.40466 -1.21512 0
M  V30 1222 O 127.889 3.52232 -2.60508 0
M  V30 1223 C 129.39 4.32145 -0.988198 0
M  V30 1224 H 126.61 0.602495 -0.295366 0
M  V30 1225 H 129.154 1.4627 -1.42918 0
M  V30 1226 H 127.309 3.81958 -0.647039 0
M  V30 1227 H 127.723 4.45549 -2.76742 0
M  V30 1228 H 129.197 5.36072 -1.31645 0
M  V30 1229 H 129.674 4.39135 0.0755063 0
M  V30 1230 H 130.28 3.96395 -1.54115 0
M  V30 1231 N 128.595 0.856903 1.32268 0
M  V30 1232 C 129.843 0.460474 1.96784 0
M  V30 1233 C 130.164 -0.987701 1.68135 0
M  V30 1234 O 129.434 -1.69058 0.989765 0
M  V30 1235 H 128.014 0.167289 0.728027 0
M  V30 1236 H 130.676 1.09383 1.61312 0
M  V30 1237 H 129.772 0.60739 3.06133 0
M  V30 1238 N 130.073 -1.45103 0.615059 0
M  V30 1239 C 130.983 -2.34382 -0.101034 0
M  V30 1240 C 131.999 -1.51681 -0.852585 0
M  V30 1241 O 133.175 -1.8446 -0.808484 0
M  V30 1242 C 130.24 -3.29417 -1.08099 0
M  V30 1243 C 129.301 -4.28025 -0.330577 0
M  V30 1244 C 128.534 -5.1852 -1.26385 0
M  V30 1245 O 128.757 -5.12598 -2.50198 0
M  V30 1246 O 127.691 -5.97122 -0.756866 0
M  V30 1247 H 131.517 -2.97033 0.632855 0
M  V30 1248 H 129.102 -1.4461 0.375293 0
M  V30 1249 H 130.984 -3.87958 -1.6452 0
M  V30 1250 H 129.659 -2.69321 -1.79577 0
M  V30 1251 H 128.566 -3.73078 0.276283 0
M  V30 1252 H 129.899 -4.90997 0.343866 0
M  V30 1253 N 131.551 -0.354651 -1.53558 0
M  V30 1254 C 132.779 0.239515 -2.05509 0
M  V30 1255 C 133.194 1.4333 -1.2289 0
M  V30 1256 O 132.551 1.80538 -0.266899 0
M  V30 1257 C 132.602 0.643719 -3.55723 0
M  V30 1258 O 132.323 -0.502602 -4.35207 0
M  V30 1259 C 133.824 1.29743 -4.23889 0
M  V30 1260 H 131.044 0.0442697 -0.669538 0
M  V30 1261 H 133.588 -0.509856 -1.98042 0
M  V30 1262 H 131.743 1.34302 -3.63376 0
M  V30 1263 H 132.157 -0.178172 -5.24197 0
M  V30 1264 H 133.631 1.53091 -5.30346 0
M  V30 1265 H 134.108 2.25441 -3.76926 0
M  V30 1266 H 134.714 0.639865 -4.20459 0
M  V30 1267 N 133.029 1.57378 -0.0835403 0
M  V30 1268 C 133.992 2.12252 0.864959 0
M  V30 1269 C 134.992 1.04916 1.21858 0
M  V30 1270 O 136.182 1.30853 1.14991 0
M  V30 1271 C 133.314 2.63358 2.16461 0
M  V30 1272 H 134.507 2.97371 0.388676 0
M  V30 1273 H 132.06 1.55423 0.165317 0
M  V30 1274 H 132.795 1.81727 2.686 0
M  V30 1275 H 132.58 3.41826 1.92087 0
M  V30 1276 H 134.07 3.05847 2.84337 0
M  V30 1277 N 134.507 -0.190092 1.56449 0
M  V30 1278 C 135.732 -0.929864 1.85387 0
M  V30 1279 C 136.157 -1.7585 0.667704 0
M  V30 1280 O 135.515 -1.77198 -0.383459 0
M  V30 1281 C 135.563 -1.79773 3.12593 0
M  V30 1282 O 134.667 -2.89713 2.93496 0
M  V30 1283 H 134.008 -0.261574 0.610307 0
M  V30 1284 H 136.538 -0.193896 2.03679 0
M  V30 1285 H 136.548 -2.20139 3.43515 0
M  V30 1286 H 135.223 -1.18892 3.98544 0
M  V30 1287 H 133.8 -2.53065 2.73884 0
M  V30 1288 N 135.985 -1.50799 -0.457987 0
M  V30 1289 C 137.21 -1.66496 -1.23668 0
M  V30 1290 C 137.635 -0.353288 -1.84752 0
M  V30 1291 O 136.993 0.684346 -1.67888 0
M  V30 1292 C 137.041 -2.76763 -2.3116 0
M  V30 1293 O 136.145 -2.38928 -3.36136 0
M  V30 1294 H 135.486 -0.555828 -0.363252 0
M  V30 1295 H 138.016 -1.9725 -0.543474 0
M  V30 1296 H 138.026 -3.00232 -2.76269 0
M  V30 1297 H 136.701 -3.71954 -1.86073 0
M  V30 1298 H 135.278 -2.25953 -2.96647 0
M  V30 1299 N 137.463 0.71206 -1.40597 0
M  V30 1300 C 138.711 1.46907 -1.38791 0
M  V30 1301 C 139.032 1.94998 0.00780391 0
M  V30 1302 O 138.302 1.70587 0.963174 0
M  V30 1303 H 136.882 0.545043 -0.51082 0
M  V30 1304 H 139.544 0.843882 -1.75683 0
M  V30 1305 H 138.64 2.34021 -2.06496 0
M  V30 1306 N 138.941 1.26152 0.944643 0
M  V30 1307 C 139.889 1.07215 2.06417 0
M  V30 1308 C 140.883 9.2007e-05 1.694 0
M  V30 1309 O 142.089 0.1565 1.79318 0
M  V30 1310 H 138.464 0.329837 0.675805 0
M  V30 1311 H 140.435 2.02099 2.19541 0
M  V30 1312 C 139.184 0.718197 3.40202 0
M  V30 1313 H 138.507 1.53497 3.69159 0
M  V30 1314 H 139.947 0.625459 4.19361 0
M  V30 1315 C 138.406 -0.576435 3.31932 0
M  V30 1316 O 138.936 -1.61574 3.67773 0
M  V30 1317 N 137.142 -0.565781 2.85039 0
M  V30 1318 H 136.689 0.280367 2.5607 0
M  V30 1319 H 136.647 -1.43213 2.79888 0
M  V30 1320 N 140.419 -1.14872 1.07899 0
M  V30 1321 C 141.369 -2.17809 0.674027 0
M  V30 1322 C 142.353 -1.58008 -0.303699 0
M  V30 1323 O 143.545 -1.76616 -0.11654 0
M  V30 1324 C 140.674 -3.43208 0.0793318 0
M  V30 1325 C 139.76 -4.10051 1.08253 0
M  V30 1326 N 140.151 -4.52296 2.2641 0
M  V30 1327 C 138.449 -4.36469 0.917124 0
M  V30 1328 C 139.15 -5.04199 2.901 0
M  V30 1329 N 138.126 -4.98088 2.17736 0
M  V30 1330 H 141.928 -2.48207 1.57386 0
M  V30 1331 H 139.442 -1.315 0.952976 0
M  V30 1332 H 141.439 -4.16272 -0.228719 0
M  V30 1333 H 140.099 -3.14291 -0.815551 0
M  V30 1334 H 141.11 -4.45504 2.64096 0
M  V30 1335 H 137.787 -4.17432 0.0756078 0
M  V30 1336 H 139.177 -5.46802 3.90458 0
M  V30 1337 N 141.898 -0.863906 -1.31812 0
M  V30 1338 C 143.146 -0.470904 -1.96537 0
M  V30 1339 C 143.467 0.978771 -1.68657 0
M  V30 1340 O 142.737 1.6853 -0.998717 0
M  V30 1341 H 141.317 -0.171148 -0.72713 0
M  V30 1342 H 143.979 -1.10236 -1.60729 0
M  V30 1343 H 143.075 -0.623616 -3.05806 0
M  V30 1344 N 143.376 1.44774 -0.622745 0
M  V30 1345 C 144.324 2.32387 0.0994683 0
M  V30 1346 C 145.318 1.46859 0.844326 0
M  V30 1347 O 146.524 1.63254 0.758174 0
M  V30 1348 H 142.899 0.750273 0.0509291 0
M  V30 1349 H 144.87 2.91062 -0.65767 0
M  V30 1350 C 143.619 3.30723 1.07319 0
M  V30 1351 H 142.942 3.96541 0.509462 0
M  V30 1352 H 144.382 3.94725 1.54817 0
M  V30 1353 C 142.841 2.59021 2.15429 0
M  V30 1354 O 143.371 2.38286 3.23393 0
M  V30 1355 N 141.577 2.189 1.91131 0
M  V30 1356 H 141.124 2.35964 1.03337 0
M  V30 1357 H 141.082 1.71251 2.63668 0
M  V30 1358 N 144.854 0.36279 1.53368 0
M  V30 1359 C 145.802 -0.500155 2.27159 0
M  V30 1360 C 146.796 -1.08575 1.3003 0
M  V30 1361 O 148.002 -1.02927 1.47668 0
M  V30 1362 H 144.377 -0.180009 0.730138 0
M  V30 1363 H 146.348 0.14401 2.98052 0
M  V30 1364 C 145.097 -1.62937 3.07159 0
M  V30 1365 H 144.42 -1.18806 3.8174 0
M  V30 1366 H 145.86 -2.20795 3.61975 0
M  V30 1367 C 144.319 -2.57007 2.17829 0
M  V30 1368 O 144.849 -3.59752 1.78721 0
M  V30 1369 N 143.055 -2.26131 1.82518 0
M  V30 1370 H 142.602 -1.42616 2.14519 0
M  V30 1371 H 142.56 -2.89327 1.23034 0
M  V30 1372 N 146.332 -1.57332 0.0918853 0
M  V30 1373 C 147.28 -2.15075 -0.885747 0
M  V30 1374 C 148.274 -1.09277 -1.29441 0
M  V30 1375 O 149.48 -1.27627 -1.26931 0
M  V30 1376 H 145.855 -0.687966 -0.303656 0
M  V30 1377 H 147.826 -2.96047 -0.373995 0
M  V30 1378 C 146.575 -2.74325 -2.13638 0
M  V30 1379 H 145.898 -3.55418 -1.8308 0
M  V30 1380 H 147.338 -3.183 -2.80109 0
M  V30 1381 C 145.797 -1.70062 -2.90827 0
M  V30 1382 O 146.327 -1.13763 -3.85254 0
M  V30 1383 N 144.533 -1.40628 -2.54307 0
M  V30 1384 H 144.08 -1.866 -1.7759 0
M  V30 1385 H 144.038 -0.711043 -3.06254 0
M  V30 1386 N 147.81 0.181792 -1.56548 0
M  V30 1387 C 149.058 0.89832 -1.81038 0
M  V30 1388 C 149.379 1.83232 -0.667164 0
M  V30 1389 O 148.649 1.93372 0.313673 0
M  V30 1390 H 147.229 0.33471 -0.667816 0
M  V30 1391 H 149.891 0.184116 -1.94028 0
M  V30 1392 H 148.987 1.4815 -2.74696 0
M  V30 1393 N 149.288 1.51039 0.449983 0
M  V30 1394 C 150.699 1.557 1.03026 0
M  V30 1395 C 151.05 0.372939 1.92623 0
M  V30 1396 O 150.175 -0.511771 2.10261 0
M  V30 1397 C 150.77 2.82171 1.87523 0
M  V30 1398 C 149.329 2.89444 2.40622 0
M  V30 1399 C 148.476 2.50228 1.19504 0
M  V30 1400 H 151.427 1.56999 0.231745 0
M  V30 1401 H 151.448 2.65219 2.72835 0
M  V30 1402 H 150.96 3.68331 1.22286 0
M  V30 1403 H 149.061 2.07685 3.0935 0
M  V30 1404 H 149.174 3.92816 2.74285 0
M  V30 1405 H 147.538 2.03139 1.53644 0
M  V30 1406 H 148.321 3.38719 0.558972 0
M  V30 1407 N 150.766 -0.704594 1.40972 0
M  V30 1408 C 151.996 -1.49138 1.42974 0
M  V30 1409 C 152.404 -1.89175 0.0308406 0
M  V30 1410 O 151.747 -1.56734 -0.958138 0
M  V30 1411 C 151.809 -2.79016 2.26694 0
M  V30 1412 C 151.473 -2.61236 3.74973 0
M  V30 1413 C 152.47 -2.27773 4.67349 0
M  V30 1414 C 150.155 -2.77158 4.18914 0
M  V30 1415 C 152.149 -2.10457 6.01653 0
M  V30 1416 C 149.836 -2.59459 5.53285 0
M  V30 1417 C 150.834 -2.26158 6.4447 0
M  V30 1418 O 150.522 -2.08605 7.76363 0
M  V30 1419 H 150.254 -0.466443 0.489292 0
M  V30 1420 H 152.808 -0.8758 1.85793 0
M  V30 1421 H 151.038 -3.42947 1.78673 0
M  V30 1422 H 152.727 -3.40782 2.20504 0
M  V30 1423 H 153.493 -2.15095 4.34694 0
M  V30 1424 H 149.372 -3.02064 3.48251 0
M  V30 1425 H 152.916 -1.84387 6.72791 0
M  V30 1426 H 148.813 -2.71725 5.85522 0
M  V30 1427 H 149.581 -2.23439 7.87412 0
M  V30 1428 N 152.244 -1.26651 -0.937939 0
M  V30 1429 C 153.491 -1.12387 -1.6845 0
M  V30 1430 C 153.819 0.332208 -1.91642 0
M  V30 1431 O 153.074 1.2602 -1.49725 0
M  V30 1432 C 153.373 -1.84168 -3.06295 0
M  V30 1433 C 153.039 -3.34056 -3.02849 0
M  V30 1434 C 151.701 -3.74942 -3.01616 0
M  V30 1435 C 154.053 -4.29741 -2.9491 0
M  V30 1436 C 151.381 -5.09894 -2.90215 0
M  V30 1437 C 153.733 -5.64738 -2.8505 0
M  V30 1438 C 152.397 -6.0493 -2.82162 0
M  V30 1439 H 151.667 -0.411252 -0.616403 0
M  V30 1440 H 154.314 -1.57134 -1.09459 0
M  V30 1441 H 152.619 -1.319 -3.6893 0
M  V30 1442 H 154.316 -1.70569 -3.62915 0
M  V30 1443 H 150.906 -3.01534 -3.0459 0
M  V30 1444 H 155.09 -3.99133 -2.94969 0
M  V30 1445 H 150.346 -5.40194 -2.86358 0
M  V30 1446 H 154.52 -6.38561 -2.77872 0
M  V30 1447 H 152.147 -7.09457 -2.73084 0
M  V30 1448 N 153.722 1.14298 -1.08507 0
M  V30 1449 C 154.685 2.17607 -0.719711 0
M  V30 1450 C 155.685 1.58907 0.245997 0
M  V30 1451 O 156.875 1.74181 0.0254081 0
M  V30 1452 C 154.007 3.40842 -0.0627695 0
M  V30 1453 H 155.2 2.51443 -1.63452 0
M  V30 1454 H 152.753 1.28963 -0.88307 0
M  V30 1455 H 153.488 3.12587 0.863716 0
M  V30 1456 H 153.273 3.84713 -0.757504 0
M  V30 1457 H 154.763 4.17221 0.177786 0
M  V30 1458 N 155.201 0.870884 1.31352 0
M  V30 1459 C 156.612 0.534714 1.78879 0
M  V30 1460 C 156.963 -0.948423 1.71754 0
M  V30 1461 O 156.088 -1.74055 1.28584 0
M  V30 1462 C 156.683 0.963839 3.24801 0
M  V30 1463 C 155.242 0.679311 3.70219 0
M  V30 1464 C 154.389 1.15465 2.52117 0
M  V30 1465 H 157.34 1.05651 1.18421 0
M  V30 1466 H 157.361 0.286892 3.79417 0
M  V30 1467 H 156.873 2.04332 3.29955 0
M  V30 1468 H 154.974 -0.388769 3.70566 0
M  V30 1469 H 155.087 1.25698 4.62317 0
M  V30 1470 H 153.451 0.574383 2.48139 0
M  V30 1471 H 154.234 2.24157 2.60016 0
M  V30 1472 N 156.679 -1.44442 0.630414 0
M  V30 1473 C 157.611 -2.2892 -0.113347 0
M  V30 1474 C 158.624 -1.41243 -0.80959 0
M  V30 1475 O 159.813 -1.65402 -0.671156 0
M  V30 1476 C 156.913 -3.17594 -1.18266 0
M  V30 1477 C 156.086 -4.33682 -0.569073 0
M  V30 1478 C 155.145 -5.03397 -1.53226 0
M  V30 1479 O 154.171 -5.59438 -1.04967 0
M  V30 1480 N 155.373 -5.04783 -2.86661 0
M  V30 1481 H 158.138 -2.93392 0.611636 0
M  V30 1482 H 155.699 -1.54881 0.471523 0
M  V30 1483 H 157.691 -3.61097 -1.82732 0
M  V30 1484 H 156.261 -2.54876 -1.80988 0
M  V30 1485 H 155.481 -3.9338 0.254187 0
M  V30 1486 H 156.769 -5.08608 -0.139767 0
M  V30 1487 H 156.167 -4.60584 -3.28449 0
M  V30 1488 H 154.724 -5.52077 -3.46489 0
M  V30 1489 N 158.157 -0.370918 -1.53173 0
M  V30 1490 C 159.385 0.217704 -2.05751 0
M  V30 1491 C 159.8 1.42018 -1.24404 0
M  V30 1492 O 159.157 1.80245 -0.286033 0
M  V30 1493 C 159.208 0.605954 -3.56385 0
M  V30 1494 O 158.929 -0.548734 -4.3465 0
M  V30 1495 C 160.43 1.2524 -4.25241 0
M  V30 1496 H 157.65 0.0371659 -0.66997 0
M  V30 1497 H 160.194 -0.530832 -1.9749 0
M  V30 1498 H 158.349 1.3044 -3.6478 0
M  V30 1499 H 158.763 -0.23376 -5.23979 0
M  V30 1500 H 160.237 1.47458 -5.3194 0
M  V30 1501 H 160.714 2.2143 -3.79296 0
M  V30 1502 H 161.32 0.595233 -4.21114 0
M  V30 1503 N 159.635 1.57281 -0.100228 0
M  V30 1504 C 160.598 2.13158 0.842398 0
M  V30 1505 C 161.598 1.06202 1.20738 0
M  V30 1506 O 162.788 1.32066 1.13597 0
M  V30 1507 C 159.92 2.65639 2.13655 0
M  V30 1508 H 161.113 2.97766 0.357114 0
M  V30 1509 H 158.666 1.5559 0.148823 0
M  V30 1510 H 159.401 1.84566 2.66657 0
M  V30 1511 H 159.186 3.43844 1.88451 0
M  V30 1512 H 160.676 3.08846 2.81077 0
M  V30 1513 N 161.113 -0.173488 1.56642 0
M  V30 1514 C 162.36 -0.890465 1.81871 0
M  V30 1515 C 162.688 -1.82339 0.67696 0
M  V30 1516 O 161.943 -1.92795 -0.335926 0
M  V30 1517 C 162.242 -1.72069 3.13252 0
M  V30 1518 C 161.908 -0.936878 4.41059 0
M  V30 1519 C 160.57 -0.720545 4.75775 0
M  V30 1520 C 162.922 -0.386919 5.19762 0
M  V30 1521 C 160.25 0.0568829 5.86672 0
M  V30 1522 C 162.602 0.37741 6.31473 0
M  V30 1523 C 161.266 0.604563 6.64757 0
M  V30 1524 H 160.536 -0.325844 0.665512 0
M  V30 1525 H 163.183 -0.155527 1.90867 0
M  V30 1526 H 161.488 -2.52496 2.99588 0
M  V30 1527 H 163.185 -2.27844 3.29982 0
M  V30 1528 H 159.775 -1.11553 4.13828 0
M  V30 1529 H 163.959 -0.541398 4.93338 0
M  V30 1530 H 159.215 0.242635 6.10918 0
M  V30 1531 H 163.389 0.810825 6.91664 0
M  V30 1532 H 161.016 1.20885 7.50527 0
M  V30 1533 N 162.591 -1.51276 -0.441967 0
M  V30 1534 C 163.837 -1.63958 -1.19355 0
M  V30 1535 C 164.17 -0.352543 -1.90973 0
M  V30 1536 O 163.445 0.647627 -1.83401 0
M  V30 1537 C 163.728 -2.83979 -2.21422 0
M  V30 1538 C 163.581 -4.22646 -1.53918 0
M  V30 1539 C 164.9 -2.99521 -3.22451 0
M  V30 1540 H 162.019 -0.596709 -0.432559 0
M  V30 1541 H 164.661 -1.83748 -0.483398 0
M  V30 1542 H 162.811 -2.67237 -2.81987 0
M  V30 1543 H 164.483 -4.51045 -0.967256 0
M  V30 1544 H 162.726 -4.25558 -0.841615 0
M  V30 1545 H 163.397 -5.02609 -2.28229 0
M  V30 1546 H 165.873 -3.14944 -2.71937 0
M  V30 1547 H 164.749 -3.85072 -3.91166 0
M  V30 1548 H 165.01 -2.11391 -3.88287 0
M  V30 1549 N 164.069 0.697108 -1.41344 0
M  V30 1550 C 165.299 1.48377 -1.43763 0
M  V30 1551 C 165.707 1.89156 -0.0408726 0
M  V30 1552 O 165.05 1.57239 0.949812 0
M  V30 1553 C 165.112 2.7781 -2.2817 0
M  V30 1554 C 164.776 2.59244 -3.76353 0
M  V30 1555 C 165.773 2.25292 -4.68551 0
M  V30 1556 C 163.458 2.74933 -4.20378 0
M  V30 1557 C 165.452 2.07264 -6.02761 0
M  V30 1558 C 163.139 2.56521 -5.54653 0
M  V30 1559 C 164.137 2.22737 -6.4566 0
M  V30 1560 O 163.825 2.04485 -7.77458 0
M  V30 1561 H 163.557 0.463842 -0.491759 0
M  V30 1562 H 166.111 0.865934 -1.86255 0
M  V30 1563 H 164.341 3.41995 -1.8049 0
M  V30 1564 H 166.03 3.39608 -2.22309 0
M  V30 1565 H 166.796 2.12787 -4.35829 0
M  V30 1566 H 162.675 3.00213 -3.49848 0
M  V30 1567 H 166.219 1.80817 -6.73759 0
M  V30 1568 H 162.116 2.68616 -5.86955 0
M  V30 1569 H 162.884 2.1926 -7.88586 0
M  V30 1570 N 165.547 1.27147 0.931209 0
M  V30 1571 C 166.963 1.04475 1.20653 0
M  V30 1572 C 167.163 -0.223885 2.00252 0
M  V30 1573 O 166.219 -0.930332 2.34736 0
M  V30 1574 C 167.532 2.28209 1.95809 0
M  V30 1575 C 169.08 2.33211 2.08762 0
M  V30 1576 C 169.555 3.56665 2.87323 0
M  V30 1577 N 171.046 3.57201 2.94892 0
M  V30 1578 C 171.781 4.49395 3.56134 0
M  V30 1579 N 171.277 5.51889 4.18796 0
M  V30 1580 N 173.07 4.37026 3.53504 0
M  V30 1581 H 165.221 2.08612 0.399333 0
M  V30 1582 H 167.484 0.917312 0.239253 0
M  V30 1583 H 167.19 3.20538 1.44736 0
M  V30 1584 H 167.064 2.33247 2.96438 0
M  V30 1585 H 169.451 1.41391 2.59023 0
M  V30 1586 H 169.532 2.32178 1.07364 0
M  V30 1587 H 169.176 4.4882 2.37746 0
M  V30 1588 H 169.106 3.54948 3.88998 0
M  V30 1589 H 171.597 2.83074 2.50354 0
M  V30 1590 H 171.91 6.18409 4.63454 0
M  V30 1591 H 170.255 5.55735 4.17353 0
M  V30 1592 H 173.446 3.56166 3.03749 0
M  V30 1593 H 173.619 5.09067 4.00942 0
M  V30 1594 N 167.025 -1.13721 1.09112 0
M  V30 1595 C 167.957 -2.1871 0.685467 0
M  V30 1596 C 168.97 -1.60527 -0.271068 0
M  V30 1597 O 170.159 -1.78407 -0.0576148 0
M  V30 1598 C 167.259 -3.38898 -0.0111255 0
M  V30 1599 C 166.432 -4.26597 0.966131 0
M  V30 1600 C 165.491 -5.25324 0.303539 0
M  V30 1601 O 164.517 -5.61213 0.950177 0
M  V30 1602 N 165.719 -5.72779 -0.943651 0
M  V30 1603 H 168.484 -2.54126 1.58871 0
M  V30 1604 H 166.045 -1.29012 0.978143 0
M  V30 1605 H 168.037 -4.02014 -0.465517 0
M  V30 1606 H 166.607 -3.01747 -0.816565 0
M  V30 1607 H 165.827 -3.60306 1.59917 0
M  V30 1608 H 167.115 -4.82048 1.6281 0
M  V30 1609 H 166.513 -5.45762 -1.48862 0
M  V30 1610 H 165.07 -6.37847 -1.34142 0
M  V30 1611 N 168.503 -0.877838 -1.30888 0
M  V30 1612 C 169.751 -0.491723 -1.96027 0
M  V30 1613 C 170.072 0.960827 -1.69685 0
M  V30 1614 O 169.342 1.67462 -1.01654 0
M  V30 1615 H 167.922 -0.17885 -0.725273 0
M  V30 1616 H 170.584 -1.11935 -1.59551 0
M  V30 1617 H 169.68 -0.656016 -3.05128 0
M  V30 1618 N 169.982 1.44106 -0.638065 0
M  V30 1619 C 171.398 1.56672 -0.304286 0
M  V30 1620 C 171.598 1.6244 1.19228 0
M  V30 1621 O 170.654 1.57121 1.9766 0
M  V30 1622 C 171.967 2.83503 -1.00231 0
M  V30 1623 C 173.515 2.97226 -0.981116 0
M  V30 1624 C 173.99 4.26868 -1.65974 0
M  V30 1625 N 175.481 4.33698 -1.62666 0
M  V30 1626 C 176.216 5.32745 -2.12063 0
M  V30 1627 N 175.712 6.38157 -2.6968 0
M  V30 1628 N 177.505 5.24299 -2.02651 0
M  V30 1629 H 169.656 1.38605 -1.60942 0
M  V30 1630 H 171.919 0.664661 -0.675965 0
M  V30 1631 H 171.625 2.85251 -2.0573 0
M  V30 1632 H 171.499 3.73251 -0.54439 0
M  V30 1633 H 173.886 2.95027 0.0654188 0
M  V30 1634 H 173.967 2.08808 -1.47759 0
M  V30 1635 H 173.611 4.29826 -2.70576 0
M  V30 1636 H 173.541 5.14156 -1.13804 0
M  V30 1637 H 176.032 3.58138 -1.20606 0
M  V30 1638 H 176.345 7.10029 -3.05087 0
M  V30 1639 H 174.69 6.38823 -2.73734 0
M  V30 1640 H 177.881 4.4086 -1.57353 0
M  V30 1641 H 178.054 6.01334 -2.41457 0
M  V30 1642 N 171.46 0.379036 1.52974 0
M  V30 1643 C 172.69 -0.20649 2.05566 0
M  V30 1644 C 173.098 -1.41906 1.25137 0
M  V30 1645 O 172.441 -1.81421 0.288464 0
M  V30 1646 C 172.503 -0.651086 3.53555 0
M  V30 1647 C 172.167 0.446626 4.54812 0
M  V30 1648 C 173.164 1.30079 5.03364 0
M  V30 1649 C 170.849 0.610719 4.98573 0
M  V30 1650 C 172.843 2.30426 5.94292 0
M  V30 1651 C 170.53 1.61754 5.89304 0
M  V30 1652 C 171.528 2.46274 6.37054 0
M  V30 1653 O 171.216 3.45237 7.25994 0
M  V30 1654 H 170.948 -0.0372381 0.674974 0
M  V30 1655 H 173.502 0.539718 1.98182 0
M  V30 1656 H 171.732 -1.44911 3.58522 0
M  V30 1657 H 173.421 -1.16112 3.88938 0
M  V30 1658 H 174.187 1.18527 4.70294 0
M  V30 1659 H 170.066 -0.0374044 4.60985 0
M  V30 1660 H 173.61 2.96432 6.31485 0
M  V30 1661 H 169.507 1.73348 6.21788 0
M  V30 1662 H 170.275 3.41124 7.44027 0
M  V30 1663 N 172.938 -1.57226 0.108567 0
M  V30 1664 C 173.901 -2.13602 -0.831082 0
M  V30 1665 C 174.901 -1.06841 -1.20173 0
M  V30 1666 O 176.091 -1.32666 -1.12895 0
M  V30 1667 C 173.223 -2.66769 -2.12243 0
M  V30 1668 H 174.416 -2.97951 -0.341317 0
M  V30 1669 H 171.969 -1.55667 -0.14057 0
M  V30 1670 H 172.704 -1.85977 -2.65675 0
M  V30 1671 H 172.489 -3.44839 -1.86625 0
M  V30 1672 H 173.979 -3.10332 -2.79435 0
M  V30 1673 N 174.416 0.165178 -1.56732 0
M  V30 1674 C 175.663 0.880807 -1.8234 0
M  V30 1675 C 175.991 1.81977 -0.686621 0
M  V30 1676 O 175.246 1.92971 0.325697 0
M  V30 1677 C 175.545 1.70405 -3.1416 0
M  V30 1678 C 175.211 0.913475 -4.4155 0
M  V30 1679 C 173.873 0.695303 -4.7615 0
M  V30 1680 C 176.225 0.359349 -5.1996 0
M  V30 1681 C 173.553 -0.0879947 -5.86634 0
M  V30 1682 C 175.905 -0.410893 -6.31264 0
M  V30 1683 C 174.569 -0.639808 -6.64427 0
M  V30 1684 H 173.839 0.32231 -0.667231 0
M  V30 1685 H 176.486 0.145402 -1.90947 0
M  V30 1686 H 174.791 2.50903 -3.00923 0
M  V30 1687 H 176.488 2.26091 -3.31186 0
M  V30 1688 H 173.078 1.09357 -4.14414 0
M  V30 1689 H 177.262 0.515228 -4.93618 0
M  V30 1690 H 172.518 -0.27503 -6.10781 0
M  V30 1691 H 176.692 -0.847494 -6.91224 0
M  V30 1692 H 174.319 -1.24864 -7.49875 0
M  V30 1693 N 175.894 1.51508 0.433938 0
M  V30 1694 C 177.142 1.6402 1.18075 0
M  V30 1695 C 177.463 0.360328 1.91642 0
M  V30 1696 O 176.733 -0.623945 1.85698 0
M  V30 1697 H 175.313 0.6045 0.43885 0
M  V30 1698 H 177.975 1.88452 0.497178 0
M  V30 1699 H 177.071 2.46949 1.90847 0
M  V30 1700 N 177.372 -0.689602 1.41712 0
M  V30 1701 C 178.335 -1.78521 1.43746 0
M  V30 1702 C 179.335 -1.57436 0.327191 0
M  V30 1703 O 180.525 -1.64 0.587348 0
M  V30 1704 C 177.657 -3.16971 1.25467 0
M  V30 1705 H 178.85 -1.78108 2.41283 0
M  V30 1706 H 176.403 -0.89781 1.27942 0
M  V30 1707 H 177.138 -3.23019 0.287948 0
M  V30 1708 H 176.923 -3.33678 2.05917 0
M  V30 1709 H 178.413 -3.96935 1.2974 0
M  V30 1710 N 178.85 -1.27639 -0.924453 0
M  V30 1711 C 180.098 -1.13941 -1.66918 0
M  V30 1712 C 180.419 0.314589 -1.92446 0
M  V30 1713 O 179.689 1.21964 -1.53303 0
M  V30 1714 H 178.269 -0.418678 -0.618642 0
M  V30 1715 H 180.931 -1.60213 -1.10985 0
M  V30 1716 H 180.027 -1.67094 -2.63602 0
M  V30 1717 N 180.328 1.1314 -1.09713 0
M  V30 1718 C 181.577 1.83838 -0.829851 0
M  V30 1719 C 181.89 1.84599 0.646728 0
M  V30 1720 O 183.096 2.51218 1.02965 0
M  V30 1721 C 181.552 3.30069 -1.43466 0
M  V30 1722 C 181.16 3.37688 -2.94399 0
M  V30 1723 C 182.904 4.05788 -1.24645 0
M  V30 1724 C 180.811 4.78209 -3.47952 0
M  V30 1725 H 179.741 0.68877 -0.306777 0
M  V30 1726 H 182.392 1.27448 -1.3202 0
M  V30 1727 H 180.774 3.8628 -0.871996 0
M  V30 1728 H 181.948 2.91456 -3.56918 0
M  V30 1729 H 180.263 2.75436 -3.12289 0
M  V30 1730 H 182.86 5.09535 -1.62107 0
M  V30 1731 H 183.203 4.15878 -0.187357 0
M  V30 1732 H 183.736 3.55915 -1.77678 0
M  V30 1733 H 180.475 4.73311 -4.53495 0
M  V30 1734 H 179.995 5.24924 -2.90198 0
M  V30 1735 H 181.674 5.47133 -3.45332 0
M  V30 1736 N 181.806 0.884767 1.30421 0
M  V30 1737 C 183.053 0.503105 1.96151 0
M  V30 1738 C 183.381 -0.947676 1.69851 0
M  V30 1739 O 182.636 -1.68467 0.995861 0
M  V30 1740 C 182.935 0.724318 3.49983 0
M  V30 1741 C 182.601 2.15015 3.96332 0
M  V30 1742 C 181.263 2.54005 4.08699 0
M  V30 1743 C 183.615 3.07936 4.20505 0
M  V30 1744 C 180.943 3.85128 4.42599 0
M  V30 1745 C 183.295 4.3859 4.55874 0
M  V30 1746 C 181.959 4.77474 4.66449 0
M  V30 1747 H 181.229 0.184099 0.717766 0
M  V30 1748 H 183.876 1.12058 1.55291 0
M  V30 1749 H 182.181 0.0238086 3.91793 0
M  V30 1750 H 183.878 0.408617 3.98913 0
M  V30 1751 H 180.468 1.8375 3.87213 0
M  V30 1752 H 184.652 2.79033 4.10431 0
M  V30 1753 H 179.908 4.14996 4.48986 0
M  V30 1754 H 184.082 5.10629 4.7353 0
M  V30 1755 H 181.709 5.79115 4.92473 0
M  V30 1756 N 183.284 -1.43765 0.645699 0
M  V30 1757 C 184.247 -2.29163 -0.0409488 0
M  V30 1758 C 185.247 -1.41813 -0.757996 0
M  V30 1759 O 186.437 -1.63527 -0.600382 0
M  V30 1760 C 183.569 -3.23716 -1.06869 0
M  V30 1761 H 184.762 -2.91366 0.710345 0
M  V30 1762 H 182.315 -1.5092 0.406547 0
M  V30 1763 H 183.05 -2.66393 -1.84947 0
M  V30 1764 H 182.835 -3.88105 -0.558277 0
M  V30 1765 H 184.325 -3.87831 -1.54845 0
M  V30 1766 N 184.763 -0.387143 -1.52771 0
M  V30 1767 C 185.673 0.456442 -2.30117 0
M  V30 1768 C 186.689 1.07342 -1.36944 0
M  V30 1769 O 187.865 1.07971 -1.70013 0
M  V30 1770 C 184.93 1.56957 -3.09136 0
M  V30 1771 C 183.991 0.977916 -4.18014 0
M  V30 1772 C 183.224 2.038 -4.93256 0
M  V30 1773 O 183.447 3.25271 -4.68567 0
M  V30 1774 O 182.381 1.6565 -5.78657 0
M  V30 1775 H 186.207 -0.17359 -3.03203 0
M  V30 1776 H 183.792 -0.150919 -1.48636 0
M  V30 1777 H 185.674 2.21628 -3.58412 0
M  V30 1778 H 184.349 2.18461 -2.38865 0
M  V30 1779 H 183.256 0.294525 -3.72939 0
M  V30 1780 H 184.589 0.407128 -4.90513 0
M  V30 1781 N 186.241 1.57166 -0.116904 0
M  V30 1782 C 187.489 1.94737 0.540533 0
M  V30 1783 C 187.81 1.00096 1.67349 0
M  V30 1784 O 187.08 0.0568854 1.95817 0
M  V30 1785 H 185.66 0.718981 0.202669 0
M  V30 1786 H 188.322 1.94017 -0.185353 0
M  V30 1787 H 187.418 2.97719 0.936483 0
M  V30 1788 N 187.719 -0.156864 1.56817 0
M  V30 1789 C 188.967 -0.869404 1.82444 0
M  V30 1790 C 189.288 -1.82147 0.69623 0
M  V30 1791 O 188.558 -1.93847 -0.28287 0
M  V30 1792 H 187.138 -0.324043 0.673056 0
M  V30 1793 H 189.8 -0.153224 1.94297 0
M  V30 1794 H 188.896 -1.43761 2.77019 0
M  V30 1795 N 189.197 -1.51736 -0.425897 0
M  V30 1796 C 190.127 -1.76827 -1.52494 0
M  V30 1797 C 191.108 -0.618524 -1.58456 0
M  V30 1798 O 192.293 -0.862416 -1.74 0
M  V30 1799 C 189.423 -1.90374 -2.90474 0
M  V30 1800 C 188.377 -3.0588 -2.99369 0
M  V30 1801 C 187.703 -3.04625 -4.3944 0
M  V30 1802 C 189.003 -4.45644 -2.72394 0
M  V30 1803 H 190.697 -2.68855 -1.31748 0
M  V30 1804 H 188.243 -1.29372 -0.632362 0
M  V30 1805 H 190.196 -2.0651 -3.6733 0
M  V30 1806 H 188.92 -0.95004 -3.12477 0
M  V30 1807 H 187.579 -2.89467 -2.24954 0
M  V30 1808 H 187.227 -2.0701 -4.58428 0
M  V30 1809 H 186.927 -3.82195 -4.46319 0
M  V30 1810 H 188.451 -3.22869 -5.18255 0
M  V30 1811 H 189.865 -4.62348 -3.38979 0
M  V30 1812 H 188.262 -5.25006 -2.9067 0
M  V30 1813 H 189.332 -4.54893 -1.67929 0
M  V30 1814 N 190.675 0.682077 -1.42076 0
M  V30 1815 C 191.923 1.4393 -1.41876 0
M  V30 1816 C 192.244 1.94971 -0.0335599 0
M  V30 1817 O 191.514 1.72591 0.926773 0
M  V30 1818 H 190.094 0.534085 -0.522267 0
M  V30 1819 H 192.756 0.806427 -1.77434 0
M  V30 1820 H 191.852 2.29588 -2.11414 0
M  V30 1821 N 192.153 1.28127 0.917671 0
M  V30 1822 C 193.381 1.17892 1.70026 0
M  V30 1823 C 193.796 -0.262958 1.8696 0
M  V30 1824 O 193.153 -1.17811 1.3938 0
M  V30 1825 C 193.204 1.86872 3.09453 0
M  V30 1826 O 192.925 3.25428 2.93306 0
M  V30 1827 C 194.426 1.8289 4.03815 0
M  V30 1828 H 191.646 0.40942 0.531617 0
M  V30 1829 H 194.19 1.69181 1.14883 0
M  V30 1830 H 192.345 1.39464 3.61426 0
M  V30 1831 H 192.759 3.59918 3.81523 0
M  V30 1832 H 194.233 2.35751 4.99125 0
M  V30 1833 H 194.71 0.800412 4.31845 0
M  V30 1834 H 195.316 2.29959 3.57769 0
M  V30 1835 N 193.631 -1.12557 1.10312 0
M  V30 1836 C 194.563 -2.17971 0.708625 0
M  V30 1837 C 195.576 -1.60806 -0.254027 0
M  V30 1838 O 196.765 -1.78458 -0.0386891 0
M  V30 1839 C 193.865 -3.38891 0.0248198 0
M  V30 1840 C 193.038 -4.25548 1.01132 0
M  V30 1841 C 192.097 -5.24972 0.35924 0
M  V30 1842 O 191.123 -5.60174 1.00965 0
M  V30 1843 N 192.325 -5.73747 -0.882847 0
M  V30 1844 H 195.09 -2.52427 1.61557 0
M  V30 1845 H 192.651 -1.27967 0.991771 0
M  V30 1846 H 194.643 -4.02485 -0.422852 0
M  V30 1847 H 193.213 -3.02596 -0.784514 0
M  V30 1848 H 192.433 -3.58589 1.6373 0
M  V30 1849 H 193.721 -4.80294 1.67914 0
M  V30 1850 H 193.119 -5.4731 -1.43065 0
M  V30 1851 H 191.676 -6.39234 -1.27369 0
M  V30 1852 N 195.109 -0.891671 -1.2995 0
M  V30 1853 C 196.339 -0.527893 -1.99742 0
M  V30 1854 C 196.747 0.88979 -1.66971 0
M  V30 1855 O 196.09 1.59766 -0.906667 0
M  V30 1856 C 196.152 -0.630804 -3.53922 0
M  V30 1857 C 195.816 -2.01401 -4.10228 0
M  V30 1858 C 196.813 -2.98422 -4.25724 0
M  V30 1859 C 194.498 -2.32121 -4.45449 0
M  V30 1860 C 196.492 -4.24293 -4.75662 0
M  V30 1861 C 194.179 -3.58237 -4.95086 0
M  V30 1862 C 195.177 -4.54137 -5.10146 0
M  V30 1863 O 194.865 -5.78014 -5.58708 0
M  V30 1864 H 194.597 -0.201953 -0.645129 0
M  V30 1865 H 197.151 -1.20076 -1.66646 0
M  V30 1866 H 195.381 0.0990616 -3.86573 0
M  V30 1867 H 197.07 -0.277338 -4.04951 0
M  V30 1868 H 197.836 -2.76001 -3.98809 0
M  V30 1869 H 193.715 -1.5824 -4.32991 0
M  V30 1870 H 197.259 -4.99153 -4.87332 0
M  V30 1871 H 193.156 -3.80491 -5.21437 0
M  V30 1872 H 193.924 -5.8049 -5.77039 0
M  V30 1873 N 196.587 1.43421 -0.653314 0
M  V30 1874 C 197.835 2.01414 -0.166415 0
M  V30 1875 C 198.156 1.51803 1.22397 0
M  V30 1876 O 197.426 0.730693 1.81763 0
M  V30 1877 H 196.006 0.744703 -0.0585319 0
M  V30 1878 H 198.668 1.75629 -0.845003 0
M  V30 1879 H 197.764 3.11734 -0.151111 0
M  V30 1880 N 198.065 0.39524 1.52563 0
M  V30 1881 C 199.313 -0.184678 2.01254 0
M  V30 1882 C 199.634 -1.46822 1.28329 0
M  V30 1883 O 198.904 -1.91666 0.405094 0
M  V30 1884 H 197.484 -0.0712355 0.743596 0
M  V30 1885 H 200.146 0.528293 1.87603 0
M  V30 1886 H 199.242 -0.390681 3.09645 0
M  V30 1887 N 199.544 -1.57102 0.125237 0
M  V30 1888 C 200.769 -2.0019 -0.542101 0
M  V30 1889 C 201.194 -1.00449 -1.59034 0
M  V30 1890 O 200.552 0.0229423 -1.81285 0
M  V30 1891 C 200.6 -3.42129 -1.13929 0
M  V30 1892 O 199.704 -3.45307 -2.2547 0
M  V30 1893 H 199.045 -0.650171 -0.134812 0
M  V30 1894 H 201.575 -2.03461 0.215553 0
M  V30 1895 H 201.585 -3.80471 -1.4733 0
M  V30 1896 H 200.26 -4.14237 -0.371531 0
M  V30 1897 H 198.837 -3.1879 -1.93462 0
M  V30 1898 N 201.022 0.148545 -1.56898 0
M  V30 1899 C 202.247 0.880385 -1.87787 0
M  V30 1900 C 202.672 1.74018 -0.714093 0
M  V30 1901 O 202.03 1.78153 0.336343 0
M  V30 1902 C 202.078 1.71422 -3.17249 0
M  V30 1903 O 201.182 2.8183 -3.01074 0
M  V30 1904 H 200.523 0.245301 -0.617028 0
M  V30 1905 H 203.053 0.139826 -2.04122 0
M  V30 1906 H 203.063 2.10954 -3.49231 0
M  V30 1907 H 201.738 1.08284 -4.01556 0
M  V30 1908 H 200.315 2.45715 -2.80497 0
M  V30 1909 N 202.5 1.5196 0.417844 0
M  V30 1910 C 203.747 1.65591 1.16559 0
M  V30 1911 C 204.075 0.381565 1.90721 0
M  V30 1912 O 203.33 -0.635156 1.85106 0
M  V30 1913 C 203.629 2.82269 2.19223 0
M  V30 1914 C 203.295 4.20819 1.61933 0
M  V30 1915 C 201.957 4.58506 1.46033 0
M  V30 1916 C 204.309 5.07196 1.20008 0
M  V30 1917 C 201.637 5.80257 0.867113 0
M  V30 1918 C 203.989 6.29544 0.621086 0
M  V30 1919 C 202.653 6.65987 0.449144 0
M  V30 1920 H 201.923 0.605939 0.42652 0
M  V30 1921 H 204.57 1.86041 0.45397 0
M  V30 1922 H 202.875 2.56118 2.96498 0
M  V30 1923 H 204.572 2.90012 2.76936 0
M  V30 1924 H 201.162 3.91116 1.7529 0
M  V30 1925 H 205.346 4.7867 1.31105 0
M  V30 1926 H 200.602 6.07124 0.721833 0
M  V30 1927 H 204.776 6.95805 0.287798 0
M  V30 1928 H 202.403 7.60199 -0.012632 0
M  V30 1929 N 203.978 -0.674533 1.42435 0
M  V30 1930 C 204.908 -1.80009 1.48724 0
M  V30 1931 C 205.889 -1.6659 0.343793 0
M  V30 1932 O 207.074 -1.86007 0.558137 0
M  V30 1933 C 204.204 -3.18306 1.38919 0
M  V30 1934 C 203.158 -3.46461 2.51294 0
M  V30 1935 C 202.484 -4.84335 2.26547 0
M  V30 1936 C 203.784 -3.43328 3.93603 0
M  V30 1937 H 205.478 -1.75004 2.42928 0
M  V30 1938 H 203.024 -0.840533 1.16923 0
M  V30 1939 H 204.977 -3.9678 1.41927 0
M  V30 1940 H 203.701 -3.2399 0.412094 0
M  V30 1941 H 202.36 -2.70348 2.47604 0
M  V30 1942 H 202.008 -4.86669 1.2713 0
M  V30 1943 H 201.708 -5.04136 3.01861 0
M  V30 1944 H 203.232 -5.65094 2.31304 0
M  V30 1945 H 204.646 -4.11772 3.98894 0
M  V30 1946 H 203.043 -3.74664 4.68771 0
M  V30 1947 H 204.113 -2.41897 4.20255 0
M  V30 1948 N 205.456 -1.28612 -0.910864 0
M  V30 1949 C 206.681 -1.1891 -1.69927 0
M  V30 1950 C 207.106 0.248372 -1.86453 0
M  V30 1951 O 206.464 1.17961 -1.37676 0
M  V30 1952 C 206.512 -1.89578 -3.06745 0
M  V30 1953 O 205.616 -1.20521 -3.94396 0
M  V30 1954 H 204.957 -0.412632 -0.520222 0
M  V30 1955 H 207.487 -1.69985 -1.1387 0
M  V30 1956 H 207.497 -1.97597 -3.56958 0
M  V30 1957 H 206.172 -2.94136 -2.94035 0
M  V30 1958 H 204.749 -1.20684 -3.52831 0
M  V30 1959 N 206.934 1.1197 -1.10907 0
M  V30 1960 C 208.35 1.35591 -0.841852 0
M  V30 1961 C 208.55 1.94233 0.536246 0
M  V30 1962 O 207.606 2.1717 1.28816 0
M  V30 1963 C 208.919 2.29284 -1.94549 0
M  V30 1964 C 210.467 2.42862 -1.97451 0
M  V30 1965 C 210.942 3.39873 -3.07002 0
M  V30 1966 N 212.433 3.47433 -3.06341 0
M  V30 1967 C 213.168 4.22421 -3.87748 0
M  V30 1968 N 212.664 5.00432 -4.79103 0
M  V30 1969 N 214.457 4.17876 -3.75946 0
M  V30 1970 H 206.608 0.722664 -1.99728 0
M  V30 1971 H 208.871 0.380635 -0.868229 0
M  V30 1972 H 208.577 1.93378 -2.93765 0
M  V30 1973 H 208.451 3.29452 -1.83688 0
M  V30 1974 H 210.838 2.78046 -0.988645 0
M  V30 1975 H 210.919 1.42566 -2.12388 0
M  V30 1976 H 210.563 3.05417 -4.05811 0
M  V30 1977 H 210.493 4.40011 -2.89306 0
M  V30 1978 H 212.984 2.91784 -2.40147 0
M  V30 1979 H 213.297 5.55002 -5.37766 0
M  V30 1980 H 211.642 4.99612 -4.83128 0
M  V30 1981 H 214.833 3.56016 -3.03924 0
M  V30 1982 H 215.006 4.76061 -4.39624 0
M  V30 1983 N 208.412 0.89855 1.29475 0
M  V30 1984 C 209.64 0.539261 1.99749 0
M  V30 1985 C 210.055 -0.875716 1.67262 0
M  V30 1986 O 209.412 -1.57786 0.917049 0
M  V30 1987 C 209.463 0.72061 3.54245 0
M  V30 1988 O 209.184 2.07989 3.8558 0
M  V30 1989 C 210.685 0.366118 4.41786 0
M  V30 1990 H 207.905 0.207047 0.638258 0
M  V30 1991 H 210.449 1.20758 1.65039 0
M  V30 1992 H 208.604 0.0994862 3.87272 0
M  V30 1993 H 209.018 2.10841 4.80257 0
M  V30 1994 H 210.492 0.543848 5.49314 0
M  V30 1995 H 210.969 -0.696763 4.33638 0
M  V30 1996 H 211.575 0.964135 4.14228 0
M  V30 1997 N 209.89 -1.43072 0.660911 0
M  V30 1998 C 211.115 -2.06584 0.183805 0
M  V30 1999 C 211.54 -1.49257 -1.14472 0
M  V30 2000 O 210.898 -0.605528 -1.70889 0
M  V30 2001 C 210.946 -3.60418 0.114434 0
M  V30 2002 O 210.05 -4.01981 -0.921137 0
M  V30 2003 H 209.391 -0.656669 0.0983994 0
M  V30 2004 H 211.921 -1.83447 0.906006 0
M  V30 2005 H 211.931 -4.07946 -0.0663394 0
M  V30 2006 H 210.606 -4.01519 1.08422 0
M  V30 2007 H 209.183 -3.66029 -0.71253 0
M  V30 2008 N 211.368 -0.403325 -1.52352 0
M  V30 2009 C 212.316 0.439752 -2.28405 0
M  V30 2010 C 213.31 1.05089 -1.32863 0
M  V30 2011 O 214.516 0.989759 -1.50345 0
M  V30 2012 H 210.891 0.160587 -0.734653 0
M  V30 2013 H 212.862 -0.222983 -2.97566 0
M  V30 2014 C 211.611 1.54736 -3.11371 0
M  V30 2015 H 210.934 1.08643 -3.84755 0
M  V30 2016 H 212.374 2.1112 -3.67701 0
M  V30 2017 C 210.833 2.51141 -2.24566 0
M  V30 2018 O 211.363 3.54887 -1.88196 0
M  V30 2019 N 209.569 2.21213 -1.8845 0
M  V30 2020 H 209.116 1.36878 -2.18225 0
M  V30 2021 H 209.074 2.85963 -1.30662 0
M  V30 2022 N 212.846 1.57033 -0.133567 0
M  V30 2023 C 214.094 1.953 0.519848 0
M  V30 2024 C 214.415 1.01866 1.66278 0
M  V30 2025 O 213.685 0.0776513 1.95746 0
M  V30 2026 H 212.265 0.721091 0.195032 0
M  V30 2027 H 214.927 1.93809 -0.205921 0
M  V30 2028 H 214.023 2.98695 0.904854 0
M  V30 2029 N 214.325 -0.140222 1.56975 0
M  V30 2030 C 215.571 -0.852949 1.83991 0
M  V30 2031 C 215.904 -1.80512 0.716187 0
M  V30 2032 O 215.179 -1.92479 -0.279681 0
M  V30 2033 C 215.462 -1.6215 3.21527 0
M  V30 2034 C 215.315 -0.690363 4.4447 0
M  V30 2035 C 216.634 -2.58247 3.56366 0
M  V30 2036 H 213.753 -0.308634 0.669264 0
M  V30 2037 H 216.395 -0.117898 1.89634 0
M  V30 2038 H 214.545 -2.24812 3.16847 0
M  V30 2039 H 216.217 -0.0742264 4.6124 0
M  V30 2040 H 214.46 -0.000396433 4.338 0
M  V30 2041 H 215.131 -1.2643 5.37326 0
M  V30 2042 H 217.607 -2.05701 3.61699 0
M  V30 2043 H 216.483 -3.09067 4.53617 0
M  V30 2044 H 216.744 -3.39923 2.82674 0
M  V30 2045 N 215.803 -1.52179 -0.40978 0
M  V30 2046 C 217.08 -1.56769 -1.16974 0
M  V30 2047 C 217.46 -0.348322 -2.08206 0
M  V30 2048 O 216.808 0.664862 -2.18613 0
M  V30 2049 C 217.018 -2.89603 -1.9476 0
M  V30 2050 C 218.366 -3.42579 -2.50849 0
M  V30 2051 O 219.39 -2.91338 -2.04941 0
M  V30 2052 O 218.249 -4.32054 -3.34652 0
M  V30 2053 H 215.343 -0.631439 -0.534054 0
M  V30 2054 H 217.889 -1.64507 -0.416613 0
M  V30 2055 H 216.661 -3.698 -1.27921 0
M  V30 2056 H 216.284 -2.85155 -2.77079 0
M  V30 2057 N 217.281 0.66697 -1.42791 0
M  V30 2058 C 218.509 1.45505 -1.47091 0
M  V30 2059 C 218.924 1.8861 -0.0845873 0
M  V30 2060 O 218.281 1.58632 0.90234 0
M  V30 2061 C 218.332 2.69906 -2.40485 0
M  V30 2062 O 218.053 2.28608 -3.73725 0
M  V30 2063 C 219.554 3.63396 -2.53886 0
M  V30 2064 H 216.774 0.447459 -0.500022 0
M  V30 2065 H 219.318 0.818866 -1.8739 0
M  V30 2066 H 217.473 3.29696 -2.03419 0
M  V30 2067 H 217.887 3.08997 -4.23817 0
M  V30 2068 H 219.361 4.47387 -3.2334 0
M  V30 2069 H 219.838 4.09824 -1.57927 0
M  V30 2070 H 220.444 3.09495 -2.91706 0
M  V30 2071 N 218.759 1.29093 0.90403 0
M  V30 2072 C 220.007 1.16583 1.65085 0
M  V30 2073 C 220.328 -0.283933 1.92922 0
M  V30 2074 O 219.598 -1.19509 1.55224 0
M  V30 2075 H 218.178 0.428467 0.611903 0
M  V30 2076 H 220.84 1.61959 1.08422 0
M  V30 2077 H 219.936 1.71266 2.6091 0
M  V30 2078 N 220.237 -1.11381 1.11499 0
M  V30 2079 C 221.167 -2.19509 0.796125 0
M  V30 2080 C 222.148 -1.68458 -0.235796 0
M  V30 2081 O 223.333 -1.93947 -0.0991344 0
M  V30 2082 C 220.463 -3.46475 0.239205 0
M  V30 2083 C 219.417 -4.10744 1.20307 0
M  V30 2084 C 218.743 -5.32293 0.50683 0
M  V30 2085 C 220.043 -4.55597 2.55399 0
M  V30 2086 H 221.737 -2.46439 1.70024 0
M  V30 2087 H 219.283 -1.18446 0.818935 0
M  V30 2088 H 221.236 -4.214 0.00392006 0
M  V30 2089 H 219.96 -3.19006 -0.700206 0
M  V30 2090 H 218.619 -3.37813 1.42399 0
M  V30 2091 H 218.267 -5.01095 -0.437408 0
M  V30 2092 H 217.967 -5.76243 1.1497 0
M  V30 2093 H 219.491 -6.09956 0.280351 0
M  V30 2094 H 220.905 -5.21841 2.37391 0
M  V30 2095 H 219.302 -5.10363 3.15673 0
M  V30 2096 H 220.372 -3.69013 3.14575 0
M  V30 2097 N 221.715 -0.905404 -1.28997 0
M  V30 2098 C 222.992 -0.453513 -1.9027 0
M  V30 2099 C 223.372 1.06721 -1.82137 0
M  V30 2100 O 222.72 1.91159 -1.25182 0
M  V30 2101 C 222.93 -0.974494 -3.35119 0
M  V30 2102 C 224.278 -1.0216 -4.12127 0
M  V30 2103 O 225.302 -0.922557 -3.44046 0
M  V30 2104 O 224.161 -1.17121 -5.33802 0
M  V30 2105 H 221.255 -0.142347 -0.814657 0
M  V30 2106 H 223.801 -0.995642 -1.37423 0
M  V30 2107 H 222.573 -2.01848 -3.35221 0
M  V30 2108 H 222.196 -0.412706 -3.95452 0
M  V30 2109 N 223.193 1.4272 -0.668489 0
M  V30 2110 C 224.125 2.2914 0.052613 0
M  V30 2111 C 225.138 1.43339 0.771857 0
M  V30 2112 O 226.327 1.67123 0.627067 0
M  V30 2113 C 223.427 3.20618 1.09804 0
M  V30 2114 C 222.6 4.35039 0.45389 0
M  V30 2115 C 221.659 5.07282 1.39825 0
M  V30 2116 O 220.685 5.62024 0.900978 0
M  V30 2117 N 221.887 5.12206 2.73176 0
M  V30 2118 H 224.652 2.91668 -0.689209 0
M  V30 2119 H 222.213 1.53577 -0.512422 0
M  V30 2120 H 224.205 3.65815 1.73094 0
M  V30 2121 H 222.775 2.59585 1.74167 0
M  V30 2122 H 221.995 3.92567 -0.358396 0
M  V30 2123 H 223.283 5.088 0.00486972 0
M  V30 2124 H 222.681 4.6913 3.16122 0
M  V30 2125 H 221.238 5.61069 3.31729 0
M  V30 2126 N 224.671 0.411399 1.52136 0
M  V30 2127 C 225.918 -0.163645 2.01838 0
M  V30 2128 C 226.246 -1.4495 1.29691 0
M  V30 2129 O 225.501 -1.91725 0.392431 0
M  V30 2130 C 225.8 -0.455872 3.54481 0
M  V30 2131 C 225.466 0.741055 4.44769 0
M  V30 2132 C 224.128 1.06936 4.69167 0
M  V30 2133 C 226.48 1.54075 4.97906 0
M  V30 2134 C 223.808 2.19851 5.43951 0
M  V30 2135 C 226.16 2.66067 5.73926 0
M  V30 2136 C 224.824 2.99381 5.96596 0
M  V30 2137 H 224.094 -0.0598821 0.738576 0
M  V30 2138 H 226.741 0.553283 1.83333 0
M  V30 2139 H 225.046 -1.2544 3.71177 0
M  V30 2140 H 226.743 -0.913802 3.90449 0
M  V30 2141 H 223.333 0.475192 4.25958 0
M  V30 2142 H 227.517 1.30033 4.78963 0
M  V30 2143 H 222.773 2.46006 5.59724 0
M  V30 2144 H 226.947 3.28419 6.14096 0
M  V30 2145 H 224.574 3.86992 6.54325 0
M  V30 2146 N 226.149 -1.5696 0.141893 0
M  V30 2147 C 227.374 -2.00754 -0.520838 0
M  V30 2148 C 227.799 -1.0213 -1.57959 0
M  V30 2149 O 227.157 0.00371324 -1.813 0
M  V30 2150 C 227.205 -3.43318 -1.10294 0
M  V30 2151 O 226.309 -3.47679 -2.21795 0
M  V30 2152 H 225.65 -0.651564 -0.127908 0
M  V30 2153 H 228.18 -2.03221 0.23712 0
M  V30 2154 H 228.19 -3.82012 -1.43287 0
M  V30 2155 H 226.865 -4.14608 -0.327574 0
M  V30 2156 H 225.442 -3.20824 -1.9007 0
M  V30 2157 N 227.627 0.131896 -1.57047 0
M  V30 2158 C 229.043 0.485031 -1.52051 0
M  V30 2159 C 229.243 1.82563 -0.85281 0
M  V30 2160 O 228.299 2.48817 -0.429694 0
M  V30 2161 C 229.612 0.481409 -2.96821 0
M  V30 2162 C 231.16 0.565868 -3.07842 0
M  V30 2163 C 231.635 0.592762 -4.54148 0
M  V30 2164 N 233.126 0.654564 -4.58552 0
M  V30 2165 C 233.861 0.696608 -5.69153 0
M  V30 2166 N 233.357 0.697078 -6.89284 0
M  V30 2167 N 235.15 0.738639 -5.57226 0
M  V30 2168 H 227.301 -0.746664 -1.98843 0
M  V30 2169 H 229.564 -0.273999 -0.90754 0
M  V30 2170 H 229.27 -0.435731 -3.4899 0
M  V30 2171 H 229.144 1.3139 -3.53577 0
M  V30 2172 H 231.531 1.47343 -2.55684 0
M  V30 2173 H 231.612 -0.29406 -2.54104 0
M  V30 2174 H 231.256 -0.310701 -5.06949 0
M  V30 2175 H 231.186 1.46939 -5.05684 0
M  V30 2176 H 233.677 0.660887 -3.72076 0
M  V30 2177 H 233.99 0.731426 -7.69331 0
M  V30 2178 H 232.335 0.66471 -6.91814 0
M  V30 2179 H 235.526 0.735545 -4.62285 0
M  V30 2180 H 235.699 0.767938 -6.43434 0
M  V30 2181 N 229.106 1.52395 0.401703 0
M  V30 2182 C 230.036 1.79231 1.49661 0
M  V30 2183 C 231.017 0.643654 1.57452 0
M  V30 2184 O 232.202 0.889989 1.72606 0
M  V30 2185 C 229.332 1.94971 2.87409 0
M  V30 2186 C 228.286 3.10604 2.94465 0
M  V30 2187 C 227.612 3.11577 4.34538 0
M  V30 2188 C 228.912 4.49921 2.6527 0
M  V30 2189 H 230.606 2.70917 1.27454 0
M  V30 2190 H 228.152 1.30362 0.6117 0
M  V30 2191 H 230.105 2.12328 3.63999 0
M  V30 2192 H 228.829 0.999632 3.10926 0
M  V30 2193 H 227.488 2.93009 2.20321 0
M  V30 2194 H 227.136 2.14277 4.55076 0
M  V30 2195 H 226.836 3.89247 4.40183 0
M  V30 2196 H 228.36 3.31073 5.13053 0
M  V30 2197 H 229.774 4.67683 3.31581 0
M  V30 2198 H 228.171 5.29564 2.82281 0
M  V30 2199 H 229.241 4.57507 1.60671 0
M  V30 2200 N 230.584 -0.659388 1.43143 0
M  V30 2201 C 231.514 -1.78422 1.50625 0
M  V30 2202 C 232.495 -1.66216 0.361443 0
M  V30 2203 O 233.68 -1.85404 0.577834 0
M  V30 2204 C 230.81 -3.16815 1.42287 0
M  V30 2205 C 229.764 -3.43777 2.54954 0
M  V30 2206 C 229.09 -4.81905 2.31671 0
M  V30 2207 C 230.39 -3.39134 3.97222 0
M  V30 2208 H 232.084 -1.72417 2.44771 0
M  V30 2209 H 229.63 -0.828084 1.17808 0
M  V30 2210 H 231.583 -3.95253 1.46127 0
M  V30 2211 H 230.307 -3.23534 0.446435 0
M  V30 2212 H 228.966 -2.67707 2.50457 0
M  V30 2213 H 228.614 -4.85294 1.32284 0
M  V30 2214 H 228.314 -5.00906 3.07192 0
M  V30 2215 H 229.838 -5.62609 2.37284 0
M  V30 2216 H 231.252 -4.07518 4.03239 0
M  V30 2217 H 229.649 -3.69671 4.72719 0
M  V30 2218 H 230.719 -2.37426 4.22797 0
M  V30 2219 N 232.062 -1.29571 -0.897171 0
M  V30 2220 C 233.308 -1.17863 -1.65034 0
M  V30 2221 C 233.641 0.268729 -1.92332 0
M  V30 2222 O 232.916 1.19378 -1.53555 0
M  V30 2223 C 233.199 -1.995 -2.99786 0
M  V30 2224 C 233.052 -3.5239 -2.79538 0
M  V30 2225 C 234.371 -1.82335 -4.00552 0
M  V30 2226 H 231.49 -0.429528 -0.598895 0
M  V30 2227 H 234.132 -1.59072 -1.03905 0
M  V30 2228 H 232.282 -1.64485 -3.51962 0
M  V30 2229 H 233.954 -3.97401 -2.34244 0
M  V30 2230 H 232.197 -3.77187 -2.14273 0
M  V30 2231 H 232.868 -4.04787 -3.75302 0
M  V30 2232 H 235.344 -2.12924 -3.57495 0
M  V30 2233 H 234.22 -2.41801 -4.92771 0
M  V30 2234 H 234.481 -0.779209 -4.35179 0
M  V30 2235 N 233.54 1.10788 -1.12088 0
M  V30 2236 C 234.47 2.19083 -0.807755 0
M  V30 2237 C 235.451 1.6858 0.226859 0
M  V30 2238 O 236.636 1.93997 0.0888475 0
M  V30 2239 C 233.766 3.46344 -0.257576 0
M  V30 2240 C 232.72 4.101 -1.22483 0
M  V30 2241 C 232.046 5.32016 -0.535052 0
M  V30 2242 C 233.346 4.54236 -2.57811 0
M  V30 2243 H 235.04 2.45534 -1.71328 0
M  V30 2244 H 232.586 1.1801 -0.825205 0
M  V30 2245 H 234.539 4.21392 -0.0262679 0
M  V30 2246 H 233.263 3.19373 0.683278 0
M  V30 2247 H 231.922 3.37054 -1.44189 0
M  V30 2248 H 231.57 5.01319 0.410827 0
M  V30 2249 H 231.27 5.75625 -1.18024 0
M  V30 2250 H 232.794 6.09799 -0.312695 0
M  V30 2251 H 234.208 5.20575 -2.40155 0
M  V30 2252 H 232.605 5.08682 -3.18375 0
M  V30 2253 H 233.675 3.6734 -3.16528 0
M  V30 2254 N 235.018 0.912232 1.28515 0
M  V30 2255 C 236.434 0.610159 1.47476 0
M  V30 2256 C 236.634 -0.844955 1.82928 0
M  V30 2257 O 235.69 -1.62416 1.93332 0
M  V30 2258 C 237.003 1.54675 2.57868 0
M  V30 2259 C 238.551 1.55331 2.71738 0
M  V30 2260 C 239.026 2.47649 3.85272 0
M  V30 2261 N 240.517 2.45767 3.92623 0
M  V30 2262 C 241.252 3.13896 4.79851 0
M  V30 2263 N 240.748 3.9135 5.71679 0
M  V30 2264 N 242.541 3.02991 4.73448 0
M  V30 2265 H 234.692 1.85318 1.03783 0
M  V30 2266 H 236.955 0.794777 0.516753 0
M  V30 2267 H 236.661 2.5841 2.38574 0
M  V30 2268 H 236.535 1.27671 3.54937 0
M  V30 2269 H 238.922 0.52335 2.90422 0
M  V30 2270 H 239.003 1.86378 1.75205 0
M  V30 2271 H 238.647 3.50745 3.67342 0
M  V30 2272 H 238.577 2.13904 4.81199 0
M  V30 2273 H 241.068 1.89503 3.26951 0
M  V30 2274 H 241.381 4.40359 6.35062 0
M  V30 2275 H 239.726 3.95455 5.71524 0
M  V30 2276 H 242.917 2.41987 4.007 0
M  V30 2277 H 243.09 3.5636 5.41213 0
M  V30 2278 N 236.496 -1.42363 0.676048 0
M  V30 2279 C 237.742 -2.0182 0.199125 0
M  V30 2280 C 238.075 -1.53339 -1.19168 0
M  V30 2281 O 237.35 -0.736124 -1.80032 0
M  V30 2282 C 237.633 -3.59331 0.235144 0
M  V30 2283 C 237.486 -4.17989 1.66149 0
M  V30 2284 C 238.805 -4.3813 -0.41595 0
M  V30 2285 H 235.924 -0.733293 0.0738311 0
M  V30 2286 H 238.566 -1.69368 0.86107 0
M  V30 2287 H 236.716 -3.87109 -0.328487 0
M  V30 2288 H 238.388 -4.0116 2.27747 0
M  V30 2289 H 236.631 -3.7377 2.20178 0
M  V30 2290 H 237.302 -5.27126 1.63837 0
M  V30 2291 H 239.778 -4.16051 0.0638529 0
M  V30 2292 H 238.654 -5.47717 -0.360115 0
M  V30 2293 H 238.915 -4.16101 -1.49373 0
M  V30 2294 N 237.974 -0.419461 -1.51915 0
M  V30 2295 C 239.385 0.0477853 -1.86639 0
M  V30 2296 C 239.736 1.43531 -1.33766 0
M  V30 2297 O 238.861 2.05401 -0.68113 0
M  V30 2298 C 239.456 0.0934885 -3.38671 0
M  V30 2299 C 238.015 0.505097 -3.72996 0
M  V30 2300 C 237.162 -0.313792 -2.75519 0
M  V30 2301 H 240.113 -0.636088 -1.45395 0
M  V30 2302 H 240.134 0.906667 -3.6954 0
M  V30 2303 H 239.646 -0.916501 -3.77123 0
M  V30 2304 H 237.747 1.52135 -3.40126 0
M  V30 2305 H 237.86 0.242309 -4.78487 0
M  V30 2306 H 236.224 0.225363 -2.53701 0
M  V30 2307 H 237.007 -1.32232 -3.16812 0
M  V30 2308 N 239.452 1.56882 -0.150215 0
M  V30 2309 C 240.699 1.96228 0.500093 0
M  V30 2310 C 241.027 1.03522 1.64661 0
M  V30 2311 O 240.282 0.0650683 1.95592 0
M  V30 2312 C 240.581 3.41801 1.04437 0
M  V30 2313 C 240.247 4.50897 0.0159671 0
M  V30 2314 C 238.909 4.8046 -0.266731 0
M  V30 2315 C 241.261 5.16703 -0.683192 0
M  V30 2316 C 238.589 5.73135 -1.25434 0
M  V30 2317 C 240.941 6.10441 -1.65964 0
M  V30 2318 C 239.605 6.38382 -1.95 0
M  V30 2319 H 238.875 0.718048 0.182997 0
M  V30 2320 H 241.522 1.90019 -0.237724 0
M  V30 2321 H 239.827 3.44857 1.85959 0
M  V30 2322 H 241.524 3.69573 1.55618 0
M  V30 2323 H 238.114 4.27891 0.246485 0
M  V30 2324 H 242.298 4.93993 -0.477983 0
M  V30 2325 H 237.554 5.93074 -1.48571 0
M  V30 2326 H 241.728 6.60507 -2.20689 0
M  V30 2327 H 239.355 7.09996 -2.71679 0
M  V30 2328 N 240.93 -0.123565 1.57115 0
M  V30 2329 C 242.155 -0.850398 1.89164 0
M  V30 2330 C 242.58 -1.7286 0.741688 0
M  V30 2331 O 241.938 -1.78665 -0.307958 0
M  V30 2332 C 241.986 -1.66353 3.19936 0
M  V30 2333 O 241.09 -2.77004 3.0552 0
M  V30 2334 H 240.431 -0.235454 0.620852 0
M  V30 2335 H 242.961 -0.107335 2.04318 0
M  V30 2336 H 242.971 -2.05372 3.52543 0
M  V30 2337 H 241.646 -1.01881 4.03228 0
M  V30 2338 H 240.223 -2.41221 2.84371 0
M  V30 2339 N 242.408 -1.52605 -0.393616 0
M  V30 2340 C 243.371 -1.76415 -1.46323 0
M  V30 2341 C 244.371 -0.634126 -1.47768 0
M  V30 2342 O 245.561 -0.902142 -1.4902 0
M  V30 2343 C 242.693 -1.8607 -2.85641 0
M  V30 2344 H 243.886 -2.71916 -1.26498 0
M  V30 2345 H 241.439 -1.43257 -0.625073 0
M  V30 2346 H 242.174 -0.925378 -3.10817 0
M  V30 2347 H 241.959 -2.68235 -2.85993 0
M  V30 2348 H 243.449 -2.06179 -3.63153 0
M  V30 2349 N 243.887 0.651787 -1.4349 0
M  V30 2350 C 244.85 1.74647 -1.48429 0
M  V30 2351 C 245.85 1.56513 -0.368817 0
M  V30 2352 O 247.04 1.62385 -0.630623 0
M  V30 2353 C 244.172 3.13533 -1.33827 0
M  V30 2354 H 245.365 1.71649 -2.4592 0
M  V30 2355 H 242.918 0.863573 -1.30277 0
M  V30 2356 H 243.653 3.22142 -0.37349 0
M  V30 2357 H 243.438 3.28101 -2.14691 0
M  V30 2358 H 244.928 3.93356 -1.40218 0
M  V30 2359 N 245.365 1.30045 0.890287 0
M  V30 2360 C 246.595 1.21296 1.67245 0
M  V30 2361 C 247.003 -0.227471 1.87828 0
M  V30 2362 O 246.346 -1.16296 1.422 0
M  V30 2363 C 246.408 1.86519 3.07329 0
M  V30 2364 C 246.072 3.35837 3.09939 0
M  V30 2365 C 247.069 4.31915 2.89389 0
M  V30 2366 C 244.754 3.77196 3.31706 0
M  V30 2367 C 246.748 5.67325 2.90552 0
M  V30 2368 C 244.435 5.12725 3.32499 0
M  V30 2369 C 245.433 6.076 3.11947 0
M  V30 2370 O 245.121 7.40655 3.12547 0
M  V30 2371 H 244.853 0.4211 0.528821 0
M  V30 2372 H 247.407 1.72111 1.12103 0
M  V30 2373 H 245.637 1.30228 3.64112 0
M  V30 2374 H 247.326 1.71963 3.67673 0
M  V30 2375 H 248.092 4.01294 2.72375 0
M  V30 2376 H 243.971 3.03796 3.4674 0
M  V30 2377 H 247.515 6.41354 2.74429 0
M  V30 2378 H 243.412 5.42988 3.49047 0
M  V30 2379 H 244.18 7.49577 3.28749 0
M  V30 2380 N 246.843 -1.10192 1.12674 0
M  V30 2381 C 247.793 -2.14754 0.765801 0
M  V30 2382 C 248.777 -1.59154 -0.236409 0
M  V30 2383 O 249.969 -1.76951 -0.0415261 0
M  V30 2384 C 247.098 -3.42563 0.224827 0
M  V30 2385 C 246.184 -4.05091 1.25548 0
M  V30 2386 N 246.575 -4.42287 2.4539 0
M  V30 2387 C 244.873 -4.32186 1.10142 0
M  V30 2388 C 245.574 -4.91441 3.11224 0
M  V30 2389 N 244.55 -4.88405 2.38666 0
M  V30 2390 H 248.352 -2.41309 1.67772 0
M  V30 2391 H 245.866 -1.27339 1.00789 0
M  V30 2392 H 247.863 -4.16868 -0.0519578 0
M  V30 2393 H 246.523 -3.17467 -0.681515 0
M  V30 2394 H 247.534 -4.33902 2.82754 0
M  V30 2395 H 244.211 -4.16735 0.252587 0
M  V30 2396 H 245.601 -5.29749 4.13298 0
M  V30 2397 N 248.321 -0.919034 -1.28029 0
M  V30 2398 C 249.567 -0.555757 -1.95036 0
M  V30 2399 C 249.9 0.899198 -1.72128 0
M  V30 2400 O 249.175 1.64023 -1.04531 0
M  V30 2401 C 249.458 -0.872024 -3.49382 0
M  V30 2402 C 249.311 -2.3801 -3.81669 0
M  V30 2403 C 250.63 -0.37185 -4.38526 0
M  V30 2404 H 247.749 -0.203386 -0.708381 0
M  V30 2405 H 250.391 -1.14924 -1.51303 0
M  V30 2406 H 248.541 -0.366946 -3.86763 0
M  V30 2407 H 250.213 -2.9562 -3.54128 0
M  V30 2408 H 248.456 -2.83289 -3.28526 0
M  V30 2409 H 249.127 -2.55192 -4.8947 0
M  V30 2410 H 251.603 -0.804602 -4.08247 0
M  V30 2411 H 250.479 -0.622173 -5.45362 0
M  V30 2412 H 250.74 0.727934 -4.36066 0
M  V30 2413 N 249.799 1.42003 -0.683588 0
M  V30 2414 C 251.027 2.05746 -0.218182 0
M  V30 2415 C 251.442 1.51396 1.12804 0
M  V30 2416 O 250.799 0.657303 1.70252 0
M  V30 2417 C 250.85 3.61171 -0.154131 0
M  V30 2418 O 250.571 4.13508 -1.44716 0
M  V30 2419 C 252.072 4.42042 0.333713 0
M  V30 2420 H 249.292 0.662888 -0.10402 0
M  V30 2421 H 251.836 1.81987 -0.9328 0
M  V30 2422 H 249.991 3.84012 0.511231 0
M  V30 2423 H 250.405 5.07453 -1.32632 0
M  V30 2424 H 251.879 5.51028 0.327423 0
M  V30 2425 H 252.356 4.17269 1.37053 0
M  V30 2426 H 252.962 4.24239 -0.300222 0
M  V30 2427 N 251.277 0.427512 1.51691 0
M  V30 2428 C 252.554 -0.201684 1.94557 0
M  V30 2429 C 252.934 -1.60981 1.36559 0
M  V30 2430 O 252.282 -2.21814 0.548702 0
M  V30 2431 C 252.492 -0.189394 3.48486 0
M  V30 2432 C 253.84 -0.39978 4.22714 0
M  V30 2433 O 254.864 -0.267945 3.55191 0
M  V30 2434 O 253.723 -0.661249 5.42485 0
M  V30 2435 H 250.817 -0.135261 0.815864 0
M  V30 2436 H 253.363 0.484782 1.62628 0
M  V30 2437 H 252.135 0.795431 3.8313 0
M  V30 2438 H 251.758 -0.919187 3.86829 0
M  V30 2439 N 252.755 -1.56801 0.158532 0
M  V30 2440 C 253.702 -2.17337 -0.776729 0
M  V30 2441 C 254.672 -1.1096 -1.23601 0
M  V30 2442 O 255.857 -1.39054 -1.30647 0
M  V30 2443 C 252.997 -2.80822 -2.00582 0
M  V30 2444 C 252.11 -4.01624 -1.59129 0
M  V30 2445 C 251.245 -4.53072 -2.77306 0
M  V30 2446 C 250.284 -5.66314 -2.32282 0
M  V30 2447 N 249.421 -6.12329 -3.43508 0
M  V30 2448 H 254.261 -2.96918 -0.253701 0
M  V30 2449 H 251.798 -1.46661 -0.113504 0
M  V30 2450 H 253.756 -3.15779 -2.72652 0
M  V30 2451 H 252.386 -2.03866 -2.50277 0
M  V30 2452 H 251.438 -3.72571 -0.767806 0
M  V30 2453 H 252.75 -4.83633 -1.2207 0
M  V30 2454 H 251.904 -4.90145 -3.57551 0
M  V30 2455 H 250.643 -3.70095 -3.17617 0
M  V30 2456 H 249.648 -5.28806 -1.5048 0
M  V30 2457 H 250.873 -6.51085 -1.93043 0
M  V30 2458 H 248.819 -5.32284 -3.83418 0
M  V30 2459 H 248.736 -6.89293 -3.105 0
M  V30 2460 H 250.004 -6.5405 -4.24075 0
M  V30 2461 N 254.233 0.115231 -1.57178 0
M  V30 2462 C 255.163 1.1423 -2.03651 0
M  V30 2463 C 256.144 1.42967 -0.921655 0
M  V30 2464 O 257.329 1.53343 -1.19162 0
M  V30 2465 C 254.459 2.4675 -2.44401 0
M  V30 2466 C 253.413 2.32467 -3.59365 0
M  V30 2467 C 252.739 3.69984 -3.86026 0
M  V30 2468 C 254.039 1.78203 -4.90959 0
M  V30 2469 H 255.733 0.755749 -2.89705 0
M  V30 2470 H 253.279 0.362093 -1.39373 0
M  V30 2471 H 255.232 3.18854 -2.75517 0
M  V30 2472 H 253.956 2.87302 -1.55322 0
M  V30 2473 H 252.615 1.62811 -3.28463 0
M  V30 2474 H 252.263 4.08028 -2.94147 0
M  V30 2475 H 251.963 3.61279 -4.63412 0
M  V30 2476 H 253.487 4.43587 -4.19599 0
M  V30 2477 H 254.901 2.40128 -5.20587 0
M  V30 2478 H 253.298 1.8031 -5.72371 0
M  V30 2479 H 254.368 0.739876 -4.79222 0
M  V30 2480 N 255.711 1.52812 0.385517 0
M  V30 2481 C 256.939 1.71907 1.15133 0
M  V30 2482 C 257.354 0.439004 1.83625 0
M  V30 2483 O 256.711 -0.586765 1.7281 0
M  V30 2484 C 256.762 2.87099 2.19673 0
M  V30 2485 O 256.483 4.10151 1.53973 0
M  V30 2486 C 257.984 3.17902 3.08955 0
M  V30 2487 H 255.204 0.575479 0.345057 0
M  V30 2488 H 257.748 1.99476 0.45052 0
M  V30 2489 H 255.903 2.61982 2.85384 0
M  V30 2490 H 256.317 4.74514 2.23465 0
M  V30 2491 H 257.791 4.01959 3.7833 0
M  V30 2492 H 258.268 2.3243 3.72657 0
M  V30 2493 H 258.874 3.44871 2.48885 0
M  V30 2494 N 257.189 -0.644168 1.43834 0
M  V30 2495 C 258.435 -1.40603 1.46146 0
M  V30 2496 C 258.768 -1.93997 0.0887717 0
M  V30 2497 O 258.043 -1.72854 -0.891724 0
M  V30 2498 C 258.326 -2.58086 2.51124 0
M  V30 2499 C 258.179 -2.10126 3.97702 0
M  V30 2500 C 259.498 -3.60291 2.52742 0
M  V30 2501 H 256.617 -0.509905 0.532134 0
M  V30 2502 H 259.259 -0.729502 1.75437 0
M  V30 2503 H 257.409 -3.15801 2.26278 0
M  V30 2504 H 259.081 -1.57342 4.33637 0
M  V30 2505 H 257.324 -1.41419 4.10101 0
M  V30 2506 H 257.995 -2.94649 4.66783 0
M  V30 2507 H 260.471 -3.12352 2.7491 0
M  V30 2508 H 259.347 -4.40032 3.28121 0
M  V30 2509 H 259.608 -4.1349 1.56455 0
M  V30 2510 N 258.668 -1.30515 -0.883378 0
M  V30 2511 C 259.916 -1.19194 -1.63209 0
M  V30 2512 C 260.237 0.253205 -1.93349 0
M  V30 2513 O 259.507 1.17025 -1.57105 0
M  V30 2514 H 258.087 -0.438148 -0.605009 0
M  V30 2515 H 260.749 -1.63663 -1.05832 0
M  V30 2516 H 259.845 -1.75396 -2.58153 0
M  V30 2517 N 260.146 1.09593 -1.13257 0
M  V30 2518 C 261.109 2.14359 -0.811358 0
M  V30 2519 C 262.109 1.59808 0.178377 0
M  V30 2520 O 263.299 1.74132 -0.0484911 0
M  V30 2521 C 260.431 3.40269 -0.207276 0
M  V30 2522 H 261.624 2.44284 -1.73969 0
M  V30 2523 H 259.177 1.25102 -0.936973 0
M  V30 2524 H 259.912 3.15969 0.73036 0
M  V30 2525 H 259.697 3.81154 -0.919992 0
M  V30 2526 H 261.187 4.176 0.000667944 0
M  V30 2527 N 261.624 0.925811 1.2754 0
M  V30 2528 C 262.849 0.580924 1.99098 0
M  V30 2529 C 263.274 -0.833555 1.68622 0
M  V30 2530 O 262.632 -1.55903 0.925422 0
M  V30 2531 C 262.68 0.811186 3.51358 0
M  V30 2532 O 261.784 -0.124129 4.12213 0
M  V30 2533 H 261.125 0.223873 0.625122 0
M  V30 2534 H 263.655 1.24455 1.62395 0
M  V30 2535 H 263.665 0.72601 4.01489 0
M  V30 2536 H 262.34 1.84227 3.72872 0
M  V30 2537 H 260.917 0.0108006 3.72898 0
M  V30 2538 N 263.102 -1.41638 0.69111 0
M  V30 2539 C 264.348 -2.01598 0.220519 0
M  V30 2540 C 264.681 -1.54594 -1.17535 0
M  V30 2541 O 263.956 -0.755177 -1.79241 0
M  V30 2542 C 264.239 -3.59062 0.273243 0
M  V30 2543 C 264.092 -4.16203 1.70573 0
M  V30 2544 C 265.411 -4.38546 -0.369457 0
M  V30 2545 H 262.53 -0.732468 0.0816045 0
M  V30 2546 H 265.172 -1.68445 0.878986 0
M  V30 2547 H 263.322 -3.87435 -0.287411 0
M  V30 2548 H 264.994 -3.98722 2.31989 0
M  V30 2549 H 263.237 -3.71414 2.2413 0
M  V30 2550 H 263.908 -5.25358 1.69419 0
M  V30 2551 H 266.384 -4.1596 0.107977 0
M  V30 2552 H 265.26 -5.48069 -0.302002 0
M  V30 2553 H 265.521 -4.17662 -1.44951 0
M  V30 2554 N 264.58 -0.43555 -1.51462 0
M  V30 2555 C 265.857 0.191364 -1.94662 0
M  V30 2556 C 266.237 1.60254 -1.37411 0
M  V30 2557 O 265.585 2.2152 -0.560458 0
M  V30 2558 C 265.795 0.17091 -3.48581 0
M  V30 2559 C 267.143 0.377357 -4.2292 0
M  V30 2560 O 268.167 0.249104 -3.55328 0
M  V30 2561 O 267.026 0.63247 -5.42828 0
M  V30 2562 H 264.12 0.130932 -0.816569 0
M  V30 2563 H 266.666 -0.4934 -1.62369 0
M  V30 2564 H 265.438 -0.815738 -3.82703 0
M  V30 2565 H 265.061 0.898659 -3.87311 0
M  V30 2566 N 266.058 1.56714 -0.166846 0
M  V30 2567 C 267.021 2.16539 0.751232 0
M  V30 2568 C 268.021 1.11228 1.16125 0
M  V30 2569 O 269.211 1.36765 1.07894 0
M  V30 2570 C 266.343 2.74462 2.02196 0
M  V30 2571 H 267.536 2.99013 0.230499 0
M  V30 2572 H 265.089 1.56081 0.0826982 0
M  V30 2573 H 265.824 1.95709 2.58589 0
M  V30 2574 H 265.609 3.51527 1.73698 0
M  V30 2575 H 267.099 3.20489 2.67725 0
M  V30 2576 N 267.536 -0.106894 1.57237 0
M  V30 2577 C 268.782 -0.81373 1.85759 0
M  V30 2578 C 269.115 -1.78952 0.754315 0
M  V30 2579 O 268.39 -1.93029 -0.23879 0
M  V30 2580 C 268.673 -1.55293 3.24894 0
M  V30 2581 C 268.526 -0.595929 4.45835 0
M  V30 2582 C 269.845 -2.5063 3.61763 0
M  V30 2583 H 266.964 -0.294369 0.67566 0
M  V30 2584 H 269.606 -0.0776472 1.89841 0
M  V30 2585 H 267.756 -2.1804 3.21544 0
M  V30 2586 H 269.428 0.0236262 4.61294 0
M  V30 2587 H 267.671 0.0916191 4.33703 0
M  V30 2588 H 268.342 -1.15004 5.39887 0
M  V30 2589 H 270.818 -1.97982 3.65981 0
M  V30 2590 H 269.694 -2.99376 4.60071 0
M  V30 2591 H 269.955 -3.3385 2.89821 0
M  V30 2592 N 269.014 -1.53014 -0.377408 0
M  V30 2593 C 270.26 -1.69821 -1.11948 0
M  V30 2594 C 270.615 -0.438581 -1.87335 0
M  V30 2595 O 269.908 0.568094 -1.82984 0
M  V30 2596 C 270.102 -2.87982 -2.11663 0
M  V30 2597 C 269.931 -4.25315 -1.46072 0
M  V30 2598 C 268.701 -4.90354 -1.21986 0
M  V30 2599 C 270.899 -5.06281 -0.904664 0
M  V30 2600 N 268.881 -6.11641 -0.526215 0
M  V30 2601 C 270.252 -6.19069 -0.339726 0
M  V30 2602 C 272.307 -4.91395 -0.8022 0
M  V30 2603 C 271.01 -7.18598 0.317669 0
M  V30 2604 C 273.036 -5.91187 -0.158606 0
M  V30 2605 C 272.398 -7.03289 0.39551 0
M  V30 2606 H 268.497 -0.674785 -0.395207 0
M  V30 2607 H 271.081 -1.90389 -0.407437 0
M  V30 2608 H 269.252 -2.68974 -2.80192 0
M  V30 2609 H 270.984 -2.93669 -2.78461 0
M  V30 2610 H 267.739 -4.49286 -1.49798 0
M  V30 2611 H 268.163 -6.76719 -0.195098 0
M  V30 2612 H 272.805 -4.04925 -1.21639 0
M  V30 2613 H 270.523 -8.04669 0.743836 0
M  V30 2614 H 274.109 -5.81744 -0.0804138 0
M  V30 2615 H 272.989 -7.79183 0.885648 0
M  V30 2616 N 270.492 0.636531 -1.44174 0
M  V30 2617 C 271.72 1.42353 -1.50144 0
M  V30 2618 C 272.135 1.88389 -0.124575 0
M  V30 2619 O 271.492 1.6051 0.868489 0
M  V30 2620 C 271.543 2.64744 -2.46156 0
M  V30 2621 O 271.264 2.20629 -3.7849 0
M  V30 2622 C 272.765 3.57929 -2.61537 0
M  V30 2623 H 269.985 0.436752 -0.5094 0
M  V30 2624 H 272.529 0.778933 -1.89084 0
M  V30 2625 H 270.684 3.25307 -2.10366 0
M  V30 2626 H 271.098 2.99938 -4.30276 0
M  V30 2627 H 272.572 4.40428 -3.32757 0
M  V30 2628 H 273.049 4.06382 -1.66585 0
M  V30 2629 H 273.655 3.03238 -2.98206 0
M  V30 2630 N 271.97 1.30982 0.876444 0
M  V30 2631 C 273.195 1.23373 1.66715 0
M  V30 2632 C 273.62 -0.19885 1.87046 0
M  V30 2633 O 272.978 -1.1427 1.40756 0
M  V30 2634 C 273.026 1.97644 3.01611 0
M  V30 2635 O 272.13 1.30935 3.91062 0
M  V30 2636 H 271.471 0.426279 0.509099 0
M  V30 2637 H 274.001 1.72944 1.09323 0
M  V30 2638 H 274.011 2.06992 3.51594 0
M  V30 2639 H 272.686 3.01829 2.86133 0
M  V30 2640 H 271.263 1.29996 3.49507 0
M  V30 2641 N 273.449 -1.08991 1.13837 0
M  V30 2642 C 274.379 -2.17771 0.842507 0
M  V30 2643 C 275.36 -1.6892 -0.20001 0
M  V30 2644 O 276.545 -1.94113 -0.0579731 0
M  V30 2645 C 273.675 -3.4589 0.312644 0
M  V30 2646 C 272.629 -4.08099 1.28992 0
M  V30 2647 C 271.955 -5.31098 0.619623 0
M  V30 2648 C 273.255 -4.50077 2.65005 0
M  V30 2649 H 274.949 -2.42777 1.75213 0
M  V30 2650 H 272.495 -1.16682 0.843875 0
M  V30 2651 H 274.448 -4.21297 0.0933043 0
M  V30 2652 H 273.172 -3.20419 -0.632382 0
M  V30 2653 H 271.831 -3.34717 1.49533 0
M  V30 2654 H 271.479 -5.0191 -0.33102 0
M  V30 2655 H 271.179 -5.73674 1.27167 0
M  V30 2656 H 272.703 -6.09224 0.409669 0
M  V30 2657 H 274.117 -5.16688 2.48407 0
M  V30 2658 H 272.514 -5.03553 3.26427 0
M  V30 2659 H 273.584 -3.62257 3.22332 0
M  V30 2660 N 274.927 -0.932562 -1.27047 0
M  V30 2661 C 275.875 -0.42603 -2.28665 0
M  V30 2662 C 276.869 0.49219 -1.62092 0
M  V30 2663 O 278.075 0.371355 -1.76128 0
M  V30 2664 H 274.45 -0.119213 -0.742491 0
M  V30 2665 H 276.421 -1.29579 -2.68797 0
M  V30 2666 C 275.17 0.301426 -3.46391 0
M  V30 2667 H 274.493 -0.39595 -3.97834 0
M  V30 2668 H 275.933 0.6202 -4.1944 0
M  V30 2669 C 274.392 1.51616 -3.00856 0
M  V30 2670 O 274.922 2.61476 -3.04948 0
M  V30 2671 N 273.128 1.36969 -2.56296 0
M  V30 2672 H 272.675 0.475873 -2.53166 0
M  V30 2673 H 272.633 2.18368 -2.26192 0
M  V30 2674 N 276.405 1.4127 -0.698611 0
M  V30 2675 C 277.335 2.33447 -0.049629 0
M  V30 2676 C 278.316 1.51982 0.763898 0
M  V30 2677 O 279.501 1.80509 0.716257 0
M  V30 2678 C 276.631 3.35828 0.885267 0
M  V30 2679 C 275.585 4.27627 0.178613 0
M  V30 2680 C 274.911 5.20406 1.22807 0
M  V30 2681 C 276.211 5.13459 -0.956933 0
M  V30 2682 H 277.905 2.87966 -0.81951 0
M  V30 2683 H 275.451 1.38461 -0.395538 0
M  V30 2684 H 277.404 3.9924 1.34854 0
M  V30 2685 H 276.128 2.79666 1.68685 0
M  V30 2686 H 274.787 3.65643 -0.26466 0
M  V30 2687 H 274.435 4.60558 2.02226 0
M  V30 2688 H 274.135 5.82661 0.760239 0
M  V30 2689 H 275.659 5.86695 1.69179 0
M  V30 2690 H 277.073 5.70421 -0.573805 0
M  V30 2691 H 275.47 5.8467 -1.35205 0
M  V30 2692 H 276.54 4.50443 -1.79524 0
M  V30 2693 N 277.883 0.443576 1.51229 0
M  V30 2694 C 279.131 -0.120557 2.0174 0
M  V30 2695 C 279.452 -1.42665 1.32935 0
M  V30 2696 O 278.722 -1.9028 0.465866 0
M  V30 2697 H 277.302 -0.0475426 0.745486 0
M  V30 2698 H 279.964 0.587711 1.85828 0
M  V30 2699 H 279.06 -0.291972 3.10731 0
M  V30 2700 N 279.361 -1.56624 0.175154 0
M  V30 2701 C 280.589 -2.01374 -0.474971 0
M  V30 2702 C 281.004 -1.05537 -1.56548 0
M  V30 2703 O 280.361 -0.0568668 -1.82411 0
M  V30 2704 C 280.412 -3.45923 -1.04975 0
M  V30 2705 O 280.133 -4.381 -0.00276605 0
M  V30 2706 C 281.634 -4.06093 -1.77773 0
M  V30 2707 H 278.854 -0.659962 -0.121206 0
M  V30 2708 H 281.398 -2.02601 0.27801 0
M  V30 2709 H 279.553 -3.45458 -1.75321 0
M  V30 2710 H 279.967 -5.22753 -0.427681 0
M  V30 2711 H 281.441 -5.09147 -2.13245 0
M  V30 2712 H 281.918 -3.48405 -2.67414 0
M  V30 2713 H 282.524 -4.10272 -1.12059 0
M  V30 2714 N 280.839 0.0985539 -1.57292 0
M  V30 2715 C 281.769 1.12064 -2.04851 0
M  V30 2716 C 282.75 1.41981 -0.936767 0
M  V30 2717 O 283.935 1.52071 -1.20781 0
M  V30 2718 C 281.065 2.44144 -2.47004 0
M  V30 2719 C 280.019 2.28643 -3.6181 0
M  V30 2720 C 279.345 3.65869 -3.89929 0
M  V30 2721 C 280.645 1.72986 -4.92822 0
M  V30 2722 H 282.339 0.724979 -2.9049 0
M  V30 2723 H 279.885 0.34729 -1.39749 0
M  V30 2724 H 281.838 3.15914 -2.78884 0
M  V30 2725 H 280.562 2.85639 -1.5836 0
M  V30 2726 H 279.221 1.59318 -3.30172 0
M  V30 2727 H 278.869 4.04885 -2.98458 0
M  V30 2728 H 278.569 3.56344 -4.67218 0
M  V30 2729 H 280.093 4.39112 -4.2428 0
M  V30 2730 H 281.507 2.34593 -5.23105 0
M  V30 2731 H 279.904 1.74229 -5.74251 0
M  V30 2732 H 280.974 0.689007 -4.7998 0
M  V30 2733 N 282.317 1.53212 0.369288 0
M  V30 2734 C 283.247 1.82365 1.45826 0
M  V30 2735 C 284.228 0.676907 1.56051 0
M  V30 2736 O 285.413 0.926401 1.70679 0
M  V30 2737 C 282.543 2.01023 2.83208 0
M  V30 2738 C 281.497 3.1678 2.8781 0
M  V30 2739 C 280.823 3.20724 4.27832 0
M  V30 2740 C 282.123 4.55447 2.55667 0
M  V30 2741 H 283.817 2.73559 1.21678 0
M  V30 2742 H 281.363 1.3163 0.583911 0
M  V30 2743 H 283.316 2.20001 3.59413 0
M  V30 2744 H 282.04 1.06536 3.08736 0
M  V30 2745 H 280.699 2.97616 2.14056 0
M  V30 2746 H 280.347 2.23882 4.50429 0
M  V30 2747 H 280.047 3.98496 4.31827 0
M  V30 2748 H 281.571 3.41881 5.05915 0
M  V30 2749 H 282.985 4.74611 3.21586 0
M  V30 2750 H 281.382 5.35432 2.70984 0
M  V30 2751 H 282.452 4.60812 1.5093 0
M  V30 2752 N 283.795 -0.628877 1.44509 0
M  V30 2753 C 285.072 -1.38733 1.37886 0
M  V30 2754 C 285.452 -2.11065 0.0387008 0
M  V30 2755 O 284.8 -2.06476 -0.97878 0
M  V30 2756 C 285.01 -2.35188 2.57852 0
M  V30 2757 C 286.358 -2.9845 3.02014 0
M  V30 2758 O 287.382 -2.45513 2.58073 0
M  V30 2759 O 286.241 -3.94487 3.78209 0
M  V30 2760 H 283.335 -0.621015 0.54614 0
M  V30 2761 H 285.881 -0.653744 1.56602 0
M  V30 2762 H 284.653 -1.80855 3.46998 0
M  V30 2763 H 284.276 -3.1596 2.4136 0
M  V30 2764 N 285.273 -1.31445 -0.869486 0
M  V30 2765 C 286.519 -1.21337 -1.62496 0
M  V30 2766 C 286.852 0.227872 -1.92858 0
M  V30 2767 O 286.127 1.16094 -1.56053 0
M  V30 2768 C 286.41 -2.05814 -2.95487 0
M  V30 2769 C 286.263 -3.5824 -2.72 0
M  V30 2770 C 287.582 -1.9079 -3.96594 0
M  V30 2771 H 284.701 -0.442135 -0.589649 0
M  V30 2772 H 287.343 -1.6124 -1.00507 0
M  V30 2773 H 285.493 -1.71913 -3.48394 0
M  V30 2774 H 287.165 -4.0228 -2.25762 0
M  V30 2775 H 285.408 -3.81647 -2.06224 0
M  V30 2776 H 286.079 -4.12657 -3.66631 0
M  V30 2777 H 288.555 -2.20459 -3.52898 0
M  V30 2778 H 287.431 -2.52199 -4.87531 0
M  V30 2779 H 287.692 -0.871341 -4.33428 0
M  V30 2780 N 286.751 1.08385 -1.14413 0
M  V30 2781 C 287.976 1.85057 -0.936413 0
M  V30 2782 C 288.401 1.81055 0.509971 0
M  V30 2783 O 287.759 1.1958 1.36273 0
M  V30 2784 C 287.807 3.30505 -1.44217 0
M  V30 2785 O 286.911 4.07491 -0.634409 0
M  V30 2786 H 286.252 0.573425 -0.334784 0
M  V30 2787 H 288.782 1.36799 -1.52142 0
M  V30 2788 H 288.792 3.81348 -1.45043 0
M  V30 2789 H 287.467 3.32734 -2.49522 0
M  V30 2790 H 286.044 3.66368 -0.694902 0
M  V30 2791 N 288.23 0.939286 1.26551 0
M  V30 2792 C 289.162 0.404704 2.25599 0
M  V30 2793 C 290.175 -0.470983 1.55838 0
M  V30 2794 O 291.364 -0.281734 1.76263 0
M  V30 2795 C 288.464 -0.43764 3.36062 0
M  V30 2796 C 287.637 0.421449 4.35365 0
M  V30 2797 C 286.696 -0.36015 5.24966 0
M  V30 2798 O 285.722 0.236167 5.6871 0
M  V30 2799 N 286.924 -1.65715 5.56344 0
M  V30 2800 H 289.689 1.25618 2.72103 0
M  V30 2801 H 287.25 0.807963 1.40298 0
M  V30 2802 H 289.242 -0.967866 3.92956 0
M  V30 2803 H 287.812 -1.18991 2.89067 0
M  V30 2804 H 287.032 1.1329 3.7757 0
M  V30 2805 H 288.32 1.00835 4.98708 0
M  V30 2806 H 287.718 -2.16378 5.22682 0
M  V30 2807 H 286.275 -2.13366 6.15888 0
M  V30 2808 N 289.708 -1.40897 0.706093 0
M  V30 2809 C 290.957 -2.00284 0.238574 0
M  V30 2810 C 291.27 -1.56604 -1.17194 0
M  V30 2811 O 292.476 -2.08624 -1.73748 0
M  V30 2812 C 290.932 -3.57934 0.375623 0
M  V30 2813 C 290.54 -4.10591 1.79217 0
M  V30 2814 C 292.284 -4.24488 -0.0315857 0
M  V30 2815 C 290.191 -5.60712 1.88032 0
M  V30 2816 H 289.121 -0.749144 0.0854398 0
M  V30 2817 H 291.772 -1.61251 0.875813 0
M  V30 2818 H 290.154 -3.94622 -0.330042 0
M  V30 2819 H 291.328 -3.85301 2.52745 0
M  V30 2820 H 289.643 -3.56601 2.15 0
M  V30 2821 H 292.24 -5.34698 0.0136842 0
M  V30 2822 H 292.583 -4.02261 -1.072 0
M  V30 2823 H 293.116 -3.92873 0.624181 0
M  V30 2824 H 289.855 -5.87781 2.90161 0
M  V30 2825 H 289.375 -5.87896 1.18903 0
M  V30 2826 H 291.054 -6.25658 1.64805 0
M  V30 2827 N 291.186 -0.45159 -1.50991 0
M  V30 2828 C 292.434 0.109857 -2.01801 0
M  V30 2829 C 292.755 1.41958 -1.3369 0
M  V30 2830 O 292.025 1.9003 -0.475951 0
M  V30 2831 H 290.605 0.0435884 -0.745727 0
M  V30 2832 H 293.267 -0.597557 -1.85514 0
M  V30 2833 H 292.363 0.275489 -3.10882 0
M  V30 2834 N 292.664 1.56529 -0.183458 0
M  V30 2835 C 293.892 2.01623 0.464285 0
M  V30 2836 C 294.307 1.06366 1.55986 0
M  V30 2837 O 293.664 0.0665398 1.82379 0
M  V30 2838 C 293.715 3.46475 1.03139 0
M  V30 2839 O 293.436 4.38095 -0.0204675 0
M  V30 2840 C 294.937 4.0703 1.75617 0
M  V30 2841 H 292.157 0.660596 0.117704 0
M  V30 2842 H 294.701 2.02451 -0.288751 0
M  V30 2843 H 292.856 3.46383 1.73486 0
M  V30 2844 H 293.27 5.22973 0.399952 0
M  V30 2845 H 294.744 5.10271 2.10542 0
M  V30 2846 H 295.221 3.49819 2.65563 0
M  V30 2847 H 295.827 4.1086 1.09882 0
M  V30 2848 N 294.142 -0.090211 1.57342 0
M  V30 2849 C 295.072 -1.10976 2.05443 0
M  V30 2850 C 296.053 -1.41482 0.944284 0
M  V30 2851 O 297.238 -1.51428 1.21586 0
M  V30 2852 C 294.368 -2.42831 2.48295 0
M  V30 2853 C 293.322 -2.26721 3.63018 0
M  V30 2854 C 292.648 -3.63796 3.91863 0
M  V30 2855 C 293.948 -1.7037 4.93732 0
M  V30 2856 H 295.642 -0.709564 2.9087 0
M  V30 2857 H 293.188 -0.339874 1.39932 0
M  V30 2858 H 295.141 -3.14431 2.80555 0
M  V30 2859 H 293.865 -2.84795 1.59873 0
M  V30 2860 H 292.524 -1.57565 3.31012 0
M  V30 2861 H 292.172 -4.03297 3.00601 0
M  V30 2862 H 291.872 -3.53861 4.69101 0
M  V30 2863 H 293.396 -4.36855 4.26603 0
M  V30 2864 H 294.81 -2.31816 5.24342 0
M  V30 2865 H 293.207 -1.71181 5.75167 0
M  V30 2866 H 294.277 -0.663542 4.80339 0
M  V30 2867 N 295.62 -1.53406 -0.361157 0
M  V30 2868 C 296.583 -1.79479 -1.42548 0
M  V30 2869 C 297.583 -0.665327 -1.4639 0
M  V30 2870 O 298.773 -0.933549 -1.47073 0
M  V30 2871 C 295.905 -1.92087 -2.8163 0
M  V30 2872 H 297.098 -2.74538 -1.20701 0
M  V30 2873 H 294.651 -1.4455 -0.594546 0
M  V30 2874 H 295.386 -0.991099 -3.08784 0
M  V30 2875 H 295.171 -2.74241 -2.80239 0
M  V30 2876 H 296.661 -2.13836 -3.58697 0
M  V30 2877 N 297.098 0.621204 -1.44841 0
M  V30 2878 C 298.346 1.37783 -1.47852 0
M  V30 2879 C 298.667 1.94653 -0.116224 0
M  V30 2880 O 297.937 1.76367 0.852737 0
M  V30 2881 H 296.517 0.511453 -0.544449 0
M  V30 2882 H 299.179 0.730446 -1.80694 0
M  V30 2883 H 298.275 2.20414 -2.20961 0
M  V30 2884 N 298.576 1.31904 0.862503 0
M  V30 2885 C 299.508 1.16005 1.97675 0
M  V30 2886 C 300.521 0.0971234 1.6251 0
M  V30 2887 O 301.71 0.345337 1.75128 0
M  V30 2888 C 298.81 0.751791 3.30456 0
M  V30 2889 C 297.983 1.90133 3.93914 0
M  V30 2890 C 297.042 1.4779 5.05019 0
M  V30 2891 O 296.068 2.18872 5.25437 0
M  V30 2892 N 297.27 0.369491 5.79323 0
M  V30 2893 H 300.035 2.11982 2.11857 0
M  V30 2894 H 297.596 1.24337 1.03691 0
M  V30 2895 H 299.588 0.451084 4.02178 0
M  V30 2896 H 298.158 -0.116593 3.12382 0
M  V30 2897 H 297.378 2.36896 3.15078 0
M  V30 2898 H 298.666 2.67111 4.33047 0
M  V30 2899 H 298.064 -0.222299 5.65263 0
M  V30 2900 H 296.621 0.128354 6.51674 0
M  V30 2901 N 300.054 -1.07777 1.14986 0
M  V30 2902 C 301.302 -1.79934 0.920235 0
M  V30 2903 C 301.623 -1.86955 -0.554336 0
M  V30 2904 O 300.893 -1.36731 -1.40291 0
M  V30 2905 H 299.473 -0.666424 0.337473 0
M  V30 2906 H 302.135 -1.3027 1.44968 0
M  V30 2907 H 301.231 -2.82539 1.32583 0
M  V30 2908 N 301.532 -0.945985 -1.26051 0
M  V30 2909 C 302.948 -0.649045 -1.45807 0
M  V30 2910 C 303.148 0.796158 -1.85104 0
M  V30 2911 O 302.204 1.57233 -1.97571 0
M  V30 2912 C 303.517 -1.61458 -2.53677 0
M  V30 2913 C 305.065 -1.62481 -2.67524 0
M  V30 2914 C 305.54 -2.57776 -3.7857 0
M  V30 2915 N 307.031 -2.5609 -3.85969 0
M  V30 2916 C 307.766 -3.26508 -4.7136 0
M  V30 2917 N 307.262 -4.0637 -5.61102 0
M  V30 2918 N 309.055 -3.15437 -4.65248 0
M  V30 2919 H 301.206 -1.88005 -0.988328 0
M  V30 2920 H 303.469 -0.808198 -0.4955 0
M  V30 2921 H 303.175 -2.64644 -2.31638 0
M  V30 2922 H 303.049 -1.37036 -3.51427 0
M  V30 2923 H 305.436 -0.600167 -2.88933 0
M  V30 2924 H 305.517 -1.90958 -1.70202 0
M  V30 2925 H 305.161 -3.60361 -3.57913 0
M  V30 2926 H 305.091 -2.26587 -4.75359 0
M  V30 2927 H 307.582 -1.98105 -3.21812 0
M  V30 2928 H 307.895 -4.57042 -6.23164 0
M  V30 2929 H 306.24 -4.10469 -5.60839 0
M  V30 2930 H 309.431 -2.52525 -3.94143 0
M  V30 2931 H 309.604 -3.70584 -5.31575 0
M  V30 2932 N 303.011 1.40521 -0.713556 0
M  V30 2933 C 304.257 2.01221 -0.252564 0
M  V30 2934 C 304.59 1.56444 1.1506 0
M  V30 2935 O 303.865 0.783597 1.78017 0
M  V30 2936 C 304.148 3.58582 -0.330332 0
M  V30 2937 C 304.001 4.13437 -1.77173 0
M  V30 2938 C 305.32 4.39079 0.299641 0
M  V30 2939 H 302.439 0.731077 -0.0932471 0
M  V30 2940 H 305.081 1.67026 -0.905673 0
M  V30 2941 H 303.231 3.87844 0.225737 0
M  V30 2942 H 304.903 3.9498 -2.38303 0
M  V30 2943 H 303.146 3.67801 -2.3001 0
M  V30 2944 H 303.817 5.22597 -1.77755 0
M  V30 2945 H 306.293 4.15735 -0.174139 0
M  V30 2946 H 305.169 5.4848 0.214771 0
M  V30 2947 H 305.43 4.19915 1.38288 0
M  V30 2948 N 304.489 0.459591 1.5075 0
M  V30 2949 C 305.714 -0.0996819 2.0716 0
M  V30 2950 C 306.139 -1.33761 1.32249 0
M  V30 2951 O 305.497 -1.77551 0.366786 0
M  V30 2952 C 305.545 -0.378226 3.58611 0
M  V30 2953 O 304.649 -1.46081 3.85661 0
M  V30 2954 H 303.99 0.00791392 0.663953 0
M  V30 2955 H 306.52 0.647329 1.9409 0
M  V30 2956 H 306.53 -0.622135 4.03229 0
M  V30 2957 H 305.205 0.526439 4.12555 0
M  V30 2958 H 303.782 -1.20511 3.5289 0
M  V30 2959 N 305.967 -1.56429 0.191757 0
M  V30 2960 C 307.215 -1.97095 -0.447006 0
M  V30 2961 C 307.536 -1.07967 -1.62383 0
M  V30 2962 O 306.806 -0.150248 -1.95323 0
M  V30 2963 H 305.386 -0.727832 -0.168135 0
M  V30 2964 H 308.048 -1.92911 0.27771 0
M  V30 2965 H 307.144 -3.01848 -0.793371 0
M  V30 2966 N 307.445 0.0818655 -1.57387 0
M  V30 2967 C 308.673 0.796108 -1.9097 0
M  V30 2968 C 309.088 1.71626 -0.786757 0
M  V30 2969 O 308.445 1.80908 0.240513 0
M  V30 2970 C 308.496 1.59829 -3.24248 0
M  V30 2971 O 308.217 0.715131 -4.32224 0
M  V30 2972 C 309.718 2.41442 -3.7178 0
M  V30 2973 H 306.938 0.22691 -0.631469 0
M  V30 2974 H 309.482 0.0551439 -2.04426 0
M  V30 2975 H 307.637 2.29163 -3.12351 0
M  V30 2976 H 308.051 1.27205 -5.08841 0
M  V30 2977 H 309.525 2.932 -4.67694 0
M  V30 2978 H 310.002 3.2051 -3.00283 0
M  V30 2979 H 310.608 1.77283 -3.86589 0
M  V30 2980 N 308.923 1.53595 0.353017 0
M  V30 2981 C 309.853 1.83902 1.43883 0
M  V30 2982 C 310.834 0.693421 1.55324 0
M  V30 2983 O 312.019 0.944452 1.69687 0
M  V30 2984 C 309.149 2.04016 2.8106 0
M  V30 2985 C 308.103 3.19814 2.84434 0
M  V30 2986 C 307.429 3.25244 4.24406 0
M  V30 2987 C 308.729 4.58133 2.50822 0
M  V30 2988 H 310.423 2.74835 1.1877 0
M  V30 2989 H 307.969 1.32242 0.569917 0
M  V30 2990 H 309.922 2.238 3.57059 0
M  V30 2991 H 308.646 1.09804 3.07588 0
M  V30 2992 H 307.305 2.9987 2.10887 0
M  V30 2993 H 306.953 2.28646 4.48029 0
M  V30 2994 H 306.653 4.03054 4.27576 0
M  V30 2995 H 308.177 3.47228 5.0226 0
M  V30 2996 H 309.591 4.77995 3.16534 0
M  V30 2997 H 307.988 5.38276 2.6529 0
M  V30 2998 H 309.058 4.62387 1.46034 0
M  V30 2999 N 310.401 -0.613514 1.45168 0
M  V30 3000 C 311.647 -1.37471 1.49096 0
M  V30 3001 C 311.98 -1.93765 0.129901 0
M  V30 3002 O 311.255 -1.74707 -0.854858 0
M  V30 3003 C 311.538 -2.52701 2.56542 0
M  V30 3004 C 311.391 -2.01643 4.0207 0
M  V30 3005 C 312.71 -3.54849 2.60327 0
M  V30 3006 H 309.829 -0.498502 0.54283 0
M  V30 3007 H 312.471 -0.692125 1.76945 0
M  V30 3008 H 310.621 -3.10931 2.32926 0
M  V30 3009 H 312.293 -1.48108 4.36877 0
M  V30 3010 H 310.536 -1.32688 4.13009 0
M  V30 3011 H 311.207 -2.84681 4.72928 0
M  V30 3012 H 313.683 -3.0645 2.81474 0
M  V30 3013 H 312.559 -4.32973 3.37381 0
M  V30 3014 H 312.82 -4.10079 1.6519 0
M  V30 3015 N 311.879 -1.3236 -0.855495 0
M  V30 3016 C 313.29 -1.2056 -1.42556 0
M  V30 3017 C 313.641 0.182209 -1.95352 0
M  V30 3018 O 312.766 1.08088 -1.87472 0
M  V30 3019 C 313.361 -2.1826 -2.59129 0
M  V30 3020 C 311.92 -2.10351 -3.12137 0
M  V30 3021 C 311.067 -2.06674 -1.84882 0
M  V30 3022 H 314.018 -1.442 -0.662727 0
M  V30 3023 H 314.039 -1.78064 -3.36264 0
M  V30 3024 H 313.551 -3.19257 -2.20673 0
M  V30 3025 H 311.652 -1.12599 -3.55179 0
M  V30 3026 H 311.765 -3.00135 -3.73438 0
M  V30 3027 H 310.129 -1.51901 -2.04446 0
M  V30 3028 H 310.912 -3.09451 -1.48643 0
M  V30 3029 N 313.357 1.07166 -1.15556 0
M  V30 3030 C 314.585 1.83514 -0.955519 0
M  V30 3031 C 315 1.82163 0.49621 0
M  V30 3032 O 314.357 1.23441 1.34419 0
M  V30 3033 C 314.408 3.30515 -1.46432 0
M  V30 3034 O 314.129 3.31937 -2.85918 0
M  V30 3035 C 315.63 4.23625 -1.30603 0
M  V30 3036 H 312.85 0.578926 -0.339244 0
M  V30 3037 H 315.394 1.35265 -1.53374 0
M  V30 3038 H 313.549 3.76106 -0.928584 0
M  V30 3039 H 313.963 4.23794 -3.09029 0
M  V30 3040 H 315.437 5.24831 -1.71047 0
M  V30 3041 H 315.914 4.38485 -0.250441 0
M  V30 3042 H 316.52 3.83871 -1.83094 0
M  V30 3043 N 314.835 0.952656 1.25548 0
M  V30 3044 C 315.765 0.489287 2.28316 0
M  V30 3045 C 316.746 -0.463359 1.63667 0
M  V30 3046 O 317.931 -0.36274 1.90782 0
M  V30 3047 C 315.061 -0.235603 3.465 0
M  V30 3048 C 314.015 0.631593 4.23314 0
M  V30 3049 C 313.341 -0.223923 5.34231 0
M  V30 3050 C 314.641 1.90871 4.86174 0
M  V30 3051 H 316.335 1.34822 2.67326 0
M  V30 3052 H 313.881 0.649728 1.28509 0
M  V30 3053 H 315.834 -0.570882 4.17515 0
M  V30 3054 H 314.558 -1.12877 3.06474 0
M  V30 3055 H 313.217 0.949929 3.54079 0
M  V30 3056 H 312.865 -1.11678 4.90446 0
M  V30 3057 H 312.565 0.35299 5.86539 0
M  V30 3058 H 314.089 -0.554214 6.0808 0
M  V30 3059 H 315.503 1.63997 5.49343 0
M  V30 3060 H 313.9 2.43112 5.4865 0
M  V30 3061 H 314.97 2.61304 4.08471 0
M  V30 3062 N 316.313 -1.40141 0.720998 0
M  V30 3063 C 317.243 -2.33339 0.0867621 0
M  V30 3064 C 318.224 -1.53178 -0.739622 0
M  V30 3065 O 319.409 -1.81625 -0.687449 0
M  V30 3066 C 316.539 -3.37194 -0.831728 0
M  V30 3067 C 315.493 -4.27857 -0.110558 0
M  V30 3068 C 314.819 -5.22294 -1.14513 0
M  V30 3069 C 316.119 -5.11872 1.0385 0
M  V30 3070 H 317.813 -2.86626 0.865219 0
M  V30 3071 H 315.359 -1.37814 0.417516 0
M  V30 3072 H 317.312 -4.01335 -1.28485 0
M  V30 3073 H 316.036 -2.82314 -1.64214 0
M  V30 3074 H 314.695 -3.65176 0.322797 0
M  V30 3075 H 314.343 -4.63717 -1.94874 0
M  V30 3076 H 314.043 -5.83797 -0.667446 0
M  V30 3077 H 315.567 -5.89312 -1.59824 0
M  V30 3078 H 316.981 -5.69436 0.664482 0
M  V30 3079 H 315.378 -5.82445 1.4449 0
M  V30 3080 H 316.448 -4.4753 1.86668 0
M  V30 3081 N 317.792 -0.46758 -1.50504 0
M  V30 3082 C 319.04 0.0884469 -2.01906 0
M  V30 3083 C 319.361 1.40532 -1.35188 0
M  V30 3084 O 318.631 1.89515 -0.496079 0
M  V30 3085 H 317.211 0.0356765 -0.746148 0
M  V30 3086 H 319.873 -0.6172 -1.84869 0
M  V30 3087 H 318.969 0.2425 -3.11156 0
M  V30 3088 N 319.27 1.56325 -0.20005 0
M  V30 3089 C 320.516 1.98012 0.438059 0
M  V30 3090 C 320.849 1.08702 1.60927 0
M  V30 3091 O 320.124 0.140064 1.93995 0
M  V30 3092 C 320.407 3.48841 0.893419 0
M  V30 3093 C 320.26 4.48928 -0.279947 0
M  V30 3094 C 321.579 4.03498 1.75719 0
M  V30 3095 H 318.698 0.719918 0.157757 0
M  V30 3096 H 321.34 1.87743 -0.291968 0
M  V30 3097 H 319.49 3.57723 1.51547 0
M  V30 3098 H 321.162 4.52079 -0.91772 0
M  V30 3099 H 319.405 4.23694 -0.930919 0
M  V30 3100 H 320.076 5.5194 0.0812601 0
M  V30 3101 H 322.552 3.97427 1.23253 0
M  V30 3102 H 321.428 5.09393 2.04476 0
M  V30 3103 H 321.689 3.4906 2.71311 0
M  V30 3104 N 320.748 -0.0735177 1.57428 0
M  V30 3105 C 322.159 -0.625551 1.75908 0
M  V30 3106 C 322.51 -1.78 0.825261 0
M  V30 3107 O 321.635 -2.16398 0.00893964 0
M  V30 3108 C 322.23 -1.14155 3.18989 0
M  V30 3109 C 320.789 -1.63946 3.38819 0
M  V30 3110 C 319.936 -0.558151 2.71625 0
M  V30 3111 H 322.887 0.152647 1.57964 0
M  V30 3112 H 322.908 -2.0104 3.23053 0
M  V30 3113 H 322.42 -0.301116 3.8693 0
M  V30 3114 H 320.521 -2.50321 2.7599 0
M  V30 3115 H 320.634 -1.71759 4.47253 0
M  V30 3116 H 318.998 -1.00278 2.34129 0
M  V30 3117 H 319.781 0.272071 3.4222 0
M  V30 3118 N 322.226 -1.5378 -0.344866 0
M  V30 3119 C 323.474 -1.70625 -1.08311 0
M  V30 3120 C 323.795 -0.471447 -1.89215 0
M  V30 3121 O 323.065 0.514616 -1.8902 0
M  V30 3122 H 321.645 -0.629058 -0.402859 0
M  V30 3123 H 324.307 -1.9103 -0.386459 0
M  V30 3124 H 323.403 -2.57656 -1.76124 0
M  V30 3125 N 323.704 0.605807 -1.45491 0
M  V30 3126 C 324.634 1.72709 -1.57143 0
M  V30 3127 C 325.615 1.6476 -0.422884 0
M  V30 3128 O 326.8 1.83132 -0.646247 0
M  V30 3129 C 323.93 3.11316 -1.53948 0
M  V30 3130 C 322.884 3.34077 -2.67537 0
M  V30 3131 C 322.21 4.72975 -2.49397 0
M  V30 3132 C 323.51 3.24158 -4.09535 0
M  V30 3133 H 325.204 1.63214 -2.51001 0
M  V30 3134 H 322.75 0.78379 -1.208 0
M  V30 3135 H 324.703 3.89557 -1.60696 0
M  V30 3136 H 323.427 3.21655 -0.566205 0
M  V30 3137 H 322.086 2.58227 -2.6022 0
M  V30 3138 H 321.734 4.8005 -1.50205 0
M  V30 3139 H 321.434 4.8916 -3.25571 0
M  V30 3140 H 322.958 5.53414 -2.58002 0
M  V30 3141 H 324.372 3.92271 -4.18086 0
M  V30 3142 H 322.769 3.51872 -4.86113 0
M  V30 3143 H 323.839 2.2157 -4.31317 0
M  V30 3144 N 325.182 1.32811 0.848464 0
M  V30 3145 C 326.407 1.26882 1.6406 0
M  V30 3146 C 326.832 -0.15913 1.87426 0
M  V30 3147 O 326.19 -1.11258 1.43148 0
M  V30 3148 C 326.238 2.03997 2.97351 0
M  V30 3149 O 325.342 1.39201 3.88197 0
M  V30 3150 H 324.683 0.436982 0.499943 0
M  V30 3151 H 327.213 1.75224 1.0563 0
M  V30 3152 H 327.223 2.14403 3.47124 0
M  V30 3153 H 325.898 3.0783 2.79666 0
M  V30 3154 H 324.475 1.37381 3.46671 0
M  V30 3155 N 326.66 -1.06551 1.16123 0
M  V30 3156 C 327.908 -1.78947 0.939267 0
M  V30 3157 C 328.229 -1.87532 -0.534476 0
M  V30 3158 O 327.499 -1.38211 -1.38833 0
M  V30 3159 H 326.079 -0.662807 0.344523 0
M  V30 3160 H 328.741 -1.28725 1.46342 0
M  V30 3161 H 327.837 -2.81117 1.35572 0
M  V30 3162 N 328.138 -0.959301 -1.25041 0
M  V30 3163 C 329.386 -0.615393 -1.92503 0
M  V30 3164 C 329.707 0.850969 -1.75452 0
M  V30 3165 O 328.977 1.60658 -1.12098 0
M  V30 3166 H 327.557 -0.224613 -0.712431 0
M  V30 3167 H 330.219 -1.21855 -1.5211 0
M  V30 3168 H 329.315 -0.848738 -3.00338 0
M  V30 3169 N 329.616 1.39756 -0.72842 0
M  V30 3170 C 330.846 2.04651 -0.283117 0
M  V30 3171 C 331.254 1.5502 1.08469 0
M  V30 3172 O 330.597 0.707343 1.69536 0
M  V30 3173 C 330.659 3.58947 -0.199309 0
M  V30 3174 C 330.323 4.31525 -1.5045 0
M  V30 3175 C 331.32 4.5861 -2.44894 0
M  V30 3176 C 329.005 4.70195 -1.76698 0
M  V30 3177 C 330.999 5.23366 -3.63822 0
M  V30 3178 C 328.686 5.3468 -2.95906 0
M  V30 3179 C 329.684 5.61198 -3.89289 0
M  V30 3180 O 329.372 6.24347 -5.06404 0
M  V30 3181 H 329.104 0.664777 -0.122666 0
M  V30 3182 H 331.658 1.79913 -0.990987 0
M  V30 3183 H 329.888 3.82556 0.56461 0
M  V30 3184 H 331.577 4.0534 0.213125 0
M  V30 3185 H 332.343 4.29187 -2.25883 0
M  V30 3186 H 328.222 4.48916 -1.04859 0
M  V30 3187 H 331.766 5.4398 -4.36728 0
M  V30 3188 H 327.663 5.63524 -3.14819 0
M  V30 3189 H 328.431 6.42842 -5.06652 0
M  V30 3190 N 331.094 0.475555 1.50254 0
M  V30 3191 C 332.343 -0.0795996 2.01543 0
M  V30 3192 C 332.656 -1.4038 1.36209 0
M  V30 3193 O 333.862 -2.04415 1.7868 0
M  V30 3194 C 332.318 -0.192363 3.59386 0
M  V30 3195 C 331.926 1.12367 4.33679 0
M  V30 3196 C 333.67 -0.699238 4.18701 0
M  V30 3197 C 331.577 0.974453 5.83317 0
M  V30 3198 H 330.507 -0.0335228 0.753254 0
M  V30 3199 H 333.158 0.611128 1.73025 0
M  V30 3200 H 331.54 -0.946974 3.84511 0
M  V30 3201 H 332.714 1.88958 4.20276 0
M  V30 3202 H 331.029 1.562 3.85993 0
M  V30 3203 H 333.626 -0.827978 5.28251 0
M  V30 3204 H 333.969 -1.69171 3.80377 0
M  V30 3205 H 334.502 -0.00188807 3.978 0
M  V30 3206 H 331.241 1.94042 6.26121 0
M  V30 3207 H 330.761 0.248998 5.99283 0
M  V30 3208 H 332.44 0.642867 6.43798 0
M  V30 3209 N 332.573 -1.56217 0.208337 0
M  V30 3210 C 333.85 -1.89739 -0.475234 0
M  V30 3211 C 334.23 -1.1238 -1.78701 0
M  V30 3212 O 333.578 -0.228979 -2.2735 0
M  V30 3213 C 333.788 -3.42289 -0.681101 0
M  V30 3214 C 335.136 -4.12789 -0.994507 0
M  V30 3215 O 336.16 -3.47814 -0.768357 0
M  V30 3216 O 335.019 -5.27649 -1.42299 0
M  V30 3217 H 332.113 -0.788478 -0.249461 0
M  V30 3218 H 334.659 -1.67855 0.249538 0
M  V30 3219 H 333.431 -3.90534 0.244722 0
M  V30 3220 H 333.054 -3.69909 -1.45785 0
M  V30 3221 N 334.051 0.0651679 -1.57465 0
M  V30 3222 C 335.298 0.763063 -1.87573 0
M  V30 3223 C 335.626 1.77242 -0.800961 0
M  V30 3224 O 334.881 1.94651 0.202316 0
M  V30 3225 C 335.18 1.50081 -3.24362 0
M  V30 3226 C 334.846 0.630816 -4.46466 0
M  V30 3227 C 333.508 0.391082 -4.79608 0
M  V30 3228 C 335.86 0.0279465 -5.21193 0
M  V30 3229 C 333.188 -0.460894 -5.84887 0
M  V30 3230 C 335.54 -0.811522 -6.27373 0
M  V30 3231 C 334.204 -1.06106 -6.59013 0
M  V30 3232 H 333.474 0.279224 -0.686378 0
M  V30 3233 H 336.121 0.0236726 -1.91485 0
M  V30 3234 H 334.426 2.31258 -3.16271 0
M  V30 3235 H 336.123 2.04571 -3.44894 0
M  V30 3236 H 332.713 0.8278 -4.2053 0
M  V30 3237 H 336.897 0.200262 -4.95896 0
M  V30 3238 H 332.153 -0.662907 -6.07796 0
M  V30 3239 H 336.327 -1.28537 -6.84435 0
M  V30 3240 H 333.954 -1.723 -7.40417 0
M  V30 3241 N 335.529 1.53961 0.336706 0
M  V30 3242 C 336.754 1.75797 1.10046 0
M  V30 3243 C 337.179 0.498985 1.81361 0
M  V30 3244 O 336.537 -0.548769 1.72795 0
M  V30 3245 C 336.585 2.94257 2.08436 0
M  V30 3246 O 335.689 2.64883 3.16087 0
M  V30 3247 H 335.03 0.582936 0.317934 0
M  V30 3248 H 337.56 2.00945 0.38501 0
M  V30 3249 H 337.57 3.21237 2.51537 0
M  V30 3250 H 336.245 3.85564 1.55927 0
M  V30 3251 H 334.822 2.48812 2.77753 0
M  V30 3252 N 337.007 -0.598083 1.45811 0
M  V30 3253 C 338.423 -0.919847 1.30426 0
M  V30 3254 C 338.623 -1.99759 0.264303 0
M  V30 3255 O 337.679 -2.50221 -0.338472 0
M  V30 3256 C 338.992 -1.35176 2.68603 0
M  V30 3257 C 340.54 -1.46546 2.76574 0
M  V30 3258 C 341.015 -1.9311 4.15298 0
M  V30 3259 N 342.506 -2.00328 4.1764 0
M  V30 3260 C 343.241 -2.37599 5.21856 0
M  V30 3261 N 342.737 -2.73771 6.36413 0
M  V30 3262 N 344.53 -2.38021 5.09218 0
M  V30 3263 H 336.681 0.114111 2.12093 0
M  V30 3264 H 338.944 -0.0116121 0.947929 0
M  V30 3265 H 338.65 -0.633969 3.45939 0
M  V30 3266 H 338.524 -2.3164 2.97696 0
M  V30 3267 H 340.911 -2.17415 1.99537 0
M  V30 3268 H 340.992 -0.483727 2.51185 0
M  V30 3269 H 340.636 -1.22824 4.92825 0
M  V30 3270 H 340.566 -2.92213 4.38086 0
M  V30 3271 H 343.057 -1.74925 3.34977 0
M  V30 3272 H 343.37 -3.0112 7.11721 0
M  V30 3273 H 341.715 -2.71445 6.39799 0
M  V30 3274 H 344.906 -2.09174 4.18765 0
M  V30 3275 H 345.079 -2.66741 5.90554 0
M  V30 3276 N 338.485 -1.33259 -0.841409 0
M  V30 3277 C 339.433 -1.23279 -1.97244 0
M  V30 3278 C 340.427 -0.134706 -1.68864 0
M  V30 3279 O 341.633 -0.298501 -1.77508 0
M  V30 3280 H 338.008 -0.382497 -0.647457 0
M  V30 3281 H 339.979 -2.18906 -2.02787 0
M  V30 3282 C 338.728 -0.986268 -3.33419 0
M  V30 3283 H 338.051 -1.82347 -3.55794 0
M  V30 3284 H 339.491 -0.956728 -4.13065 0
M  V30 3285 C 337.95 0.310842 -3.35463 0
M  V30 3286 O 338.48 1.31838 -3.79449 0
M  V30 3287 N 336.686 0.337485 -2.88634 0
M  V30 3288 H 336.233 -0.482967 -2.53032 0
M  V30 3289 H 336.191 1.20518 -2.90384 0
M  V30 3290 N 339.963 1.05934 -1.16686 0
M  V30 3291 C 340.926 2.11669 -0.879144 0
M  V30 3292 C 341.926 1.60294 0.127445 0
M  V30 3293 O 343.116 1.7389 -0.103865 0
M  V30 3294 C 340.248 3.39438 -0.315425 0
M  V30 3295 H 341.441 2.38626 -1.81653 0
M  V30 3296 H 338.994 1.22058 -0.976299 0
M  V30 3297 H 339.729 3.18132 0.629468 0
M  V30 3298 H 339.514 3.78034 -1.04079 0
M  V30 3299 H 341.004 4.17391 -0.132189 0
M  V30 3300 N 341.441 0.965919 1.2453 0
M  V30 3301 C 342.852 0.665929 1.7442 0
M  V30 3302 C 343.203 -0.818407 1.78316 0
M  V30 3303 O 342.328 -1.64037 1.41141 0
M  V30 3304 C 342.923 1.20211 3.16757 0
M  V30 3305 C 341.482 0.952059 3.6416 0
M  V30 3306 C 340.629 1.33848 2.42858 0
M  V30 3307 H 343.58 1.14144 1.10258 0
M  V30 3308 H 343.601 0.567544 3.76244 0
M  V30 3309 H 343.113 2.28244 3.13889 0
M  V30 3310 H 341.214 -0.112821 3.72429 0
M  V30 3311 H 341.327 1.59645 4.51719 0
M  V30 3312 H 339.691 0.756864 2.43195 0
M  V30 3313 H 340.474 2.42827 2.42673 0
M  V30 3314 N 342.919 -1.39368 0.735821 0
M  V30 3315 C 344.165 -2.00794 0.284544 0
M  V30 3316 C 344.498 -1.58255 -1.12557 0
M  V30 3317 O 343.773 -0.811819 -1.76748 0
M  V30 3318 C 344.056 -3.58011 0.387337 0
M  V30 3319 C 343.909 -4.10566 1.83728 0
M  V30 3320 C 345.228 -4.395 -0.22975 0
M  V30 3321 H 342.347 -0.729501 0.104866 0
M  V30 3322 H 344.989 -1.65564 0.93213 0
M  V30 3323 H 343.139 -3.88154 -0.164006 0
M  V30 3324 H 344.811 -3.91139 2.44556 0
M  V30 3325 H 343.054 -3.64095 2.35833 0
M  V30 3326 H 343.725 -5.19702 1.86047 0
M  V30 3327 H 346.201 -4.15406 0.240257 0
M  V30 3328 H 345.077 -5.48752 -0.127485 0
M  V30 3329 H 345.338 -4.22062 -1.3159 0
M  V30 3330 N 344.397 -0.483516 -1.5 0
M  V30 3331 C 345.645 0.067027 -2.01989 0
M  V30 3332 C 345.966 1.3909 -1.36671 0
M  V30 3333 O 345.236 1.88978 -0.516152 0
M  V30 3334 H 343.816 0.0277606 -0.746484 0
M  V30 3335 H 346.478 -0.636773 -1.84204 0
M  V30 3336 H 345.574 0.209484 -3.11396 0
M  V30 3337 N 345.875 1.56104 -0.216619 0
M  V30 3338 C 347.123 1.97781 0.415593 0
M  V30 3339 C 347.444 1.10536 1.60645 0
M  V30 3340 O 346.714 0.181303 1.95059 0
M  V30 3341 H 345.294 0.730415 0.156534 0
M  V30 3342 H 347.956 1.92445 -0.308366 0
M  V30 3343 H 347.052 3.03072 0.74525 0
M  V30 3344 N 347.353 -0.0568162 1.57498 0
M  V30 3345 C 348.601 -0.751617 1.87604 0
M  V30 3346 C 348.922 -1.77351 0.81066 0
M  V30 3347 O 348.192 -1.95254 -0.159018 0
M  V30 3348 H 346.772 -0.280583 0.692302 0
M  V30 3349 H 349.434 -0.0293483 1.94878 0
M  V30 3350 H 348.53 -1.25852 2.856 0
M  V30 3351 N 348.832 -1.54138 -0.328536 0
M  V30 3352 C 350.078 -1.7236 -1.06865 0
M  V30 3353 C 350.411 -0.493231 -1.87832 0
M  V30 3354 O 349.686 0.5098 -1.877 0
M  V30 3355 C 349.969 -2.99621 -1.99747 0
M  V30 3356 C 349.822 -4.32899 -1.22143 0
M  V30 3357 C 351.141 -3.22615 -2.99345 0
M  V30 3358 H 348.26 -0.627151 -0.387105 0
M  V30 3359 H 350.902 -1.86827 -0.345767 0
M  V30 3360 H 349.052 -2.87418 -2.61387 0
M  V30 3361 H 350.724 -4.56978 -0.630017 0
M  V30 3362 H 348.967 -4.30628 -0.523628 0
M  V30 3363 H 349.638 -5.18154 -1.90318 0
M  V30 3364 H 352.114 -3.34248 -2.47826 0
M  V30 3365 H 350.99 -4.13027 -3.61524 0
M  V30 3366 H 351.251 -2.3961 -3.71536 0
M  V30 3367 N 350.31 0.590341 -1.46126 0
M  V30 3368 C 351.242 1.71427 -1.52136 0
M  V30 3369 C 352.255 1.57542 -0.41042 0
M  V30 3370 O 353.444 1.65106 -0.678389 0
M  V30 3371 C 350.544 3.09605 -1.37834 0
M  V30 3372 C 349.717 3.49566 -2.62912 0
M  V30 3373 C 348.776 4.66773 -2.42918 0
M  V30 3374 O 347.802 4.73019 -3.1661 0
M  V30 3375 N 349.004 5.61161 -1.4859 0
M  V30 3376 H 351.769 1.66728 -2.49042 0
M  V30 3377 H 349.33 0.776113 -1.42085 0
M  V30 3378 H 351.322 3.85796 -1.22243 0
M  V30 3379 H 349.892 3.08714 -0.491393 0
M  V30 3380 H 349.112 2.63158 -2.93499 0
M  V30 3381 H 350.4 3.73028 -3.46017 0
M  V30 3382 H 349.798 5.58844 -0.87808 0
M  V30 3383 H 348.355 6.36814 -1.38965 0
M  V30 3384 N 351.788 1.33704 0.83433 0
M  V30 3385 C 352.751 1.24244 1.92603 0
M  V30 3386 C 353.751 0.160383 1.59998 0
M  V30 3387 O 354.941 0.412228 1.69252 0
M  V30 3388 C 352.073 0.91555 3.28376 0
M  V30 3389 H 353.266 2.21287 2.02416 0
M  V30 3390 H 350.819 1.17827 1.02696 0
M  V30 3391 H 351.554 -0.0521886 3.24258 0
M  V30 3392 H 351.339 1.69811 3.53422 0
M  V30 3393 H 352.829 0.874231 4.08347 0
M  V30 3394 N 353.266 -1.05314 1.17247 0
M  V30 3395 C 354.512 -1.78699 0.971513 0
M  V30 3396 C 354.867 -1.85932 -0.494692 0
M  V30 3397 O 354.16 -1.34716 -1.36243 0
M  V30 3398 C 354.354 -3.2229 1.54479 0
M  V30 3399 C 354.183 -3.29052 3.06521 0
M  V30 3400 C 352.953 -3.3841 3.75242 0
M  V30 3401 C 355.151 -3.18095 4.04129 0
M  V30 3402 N 353.133 -3.34289 5.14902 0
M  V30 3403 C 354.504 -3.21331 5.30232 0
M  V30 3404 C 356.559 -3.02049 3.95817 0
M  V30 3405 C 355.262 -3.10169 6.4899 0
M  V30 3406 C 357.288 -2.92228 5.14156 0
M  V30 3407 C 356.65 -2.96096 6.39145 0
M  V30 3408 H 352.749 -0.66628 0.409383 0
M  V30 3409 H 355.333 -1.25553 1.4881 0
M  V30 3410 H 353.504 -3.7381 1.05455 0
M  V30 3411 H 355.236 -3.83905 1.28059 0
M  V30 3412 H 351.991 -3.43621 3.25917 0
M  V30 3413 H 352.415 -3.35702 5.87906 0
M  V30 3414 H 357.057 -2.97897 3.00029 0
M  V30 3415 H 354.775 -3.13076 7.44989 0
M  V30 3416 H 358.361 -2.80885 5.09505 0
M  V30 3417 H 357.241 -2.88568 7.29176 0
M  V30 3418 N 354.744 -0.972509 -1.24016 0
M  V30 3419 C 355.992 -0.635776 -1.91839 0
M  V30 3420 C 356.313 0.832312 -1.76345 0
M  V30 3421 O 355.583 1.5946 -1.13795 0
M  V30 3422 H 354.163 -0.232157 -0.710009 0
M  V30 3423 H 356.825 -1.23462 -1.50809 0
M  V30 3424 H 355.921 -0.880545 -2.99421 0
M  V30 3425 N 356.222 1.38976 -0.743202 0
M  V30 3426 C 357.471 1.99581 -0.291592 0
M  V30 3427 C 357.784 1.59656 1.13001 0
M  V30 3428 O 358.99 2.13157 1.68156 0
M  V30 3429 C 357.446 3.56813 -0.470391 0
M  V30 3430 C 357.054 4.05695 -1.90041 0
M  V30 3431 C 358.798 4.24423 -0.0809709 0
M  V30 3432 C 356.705 5.5553 -2.02832 0
M  V30 3433 H 355.635 0.746615 -0.105272 0
M  V30 3434 H 358.286 1.58872 -0.918258 0
M  V30 3435 H 356.668 3.95359 0.225299 0
M  V30 3436 H 357.842 3.78464 -2.62872 0
M  V30 3437 H 356.157 3.50775 -2.24379 0
M  V30 3438 H 358.754 5.34474 -0.155445 0
M  V30 3439 H 359.097 4.04962 0.96497 0
M  V30 3440 H 359.63 3.9108 -0.728124 0
M  V30 3441 H 356.369 5.79881 -3.05643 0
M  V30 3442 H 355.889 5.84537 -1.34448 0
M  V30 3443 H 357.568 6.21069 -1.81335 0
M  V30 3444 N 357.7 0.491464 1.49741 0
M  V30 3445 C 358.948 -0.0563141 2.02022 0
M  V30 3446 C 359.269 -1.38363 1.37407 0
M  V30 3447 O 358.539 -1.88702 0.526166 0
M  V30 3448 H 357.119 -0.0238014 0.746621 0
M  V30 3449 H 359.781 0.646533 1.83864 0
M  V30 3450 H 358.877 -0.192967 3.11503 0
M  V30 3451 N 359.178 -1.55987 0.224894 0
M  V30 3452 C 360.426 -1.97998 -0.405099 0
M  V30 3453 C 360.747 -1.11387 -1.60056 0
M  V30 3454 O 360.017 -0.191645 -1.9496 0
M  V30 3455 H 358.597 -0.731235 -0.152658 0
M  V30 3456 H 361.259 -1.92279 0.318567 0
M  V30 3457 H 360.355 -3.03463 -0.729167 0
M  V30 3458 N 360.656 0.0484629 -1.57525 0
M  V30 3459 C 362.072 0.40375 -1.54409 0
M  V30 3460 C 362.272 1.77786 -0.948384 0
M  V30 3461 O 361.328 2.46189 -0.560983 0
M  V30 3462 C 362.641 0.323394 -2.98956 0
M  V30 3463 C 364.189 0.401892 -3.10409 0
M  V30 3464 C 364.664 0.351195 -4.56652 0
M  V30 3465 N 366.155 0.410576 -4.61377 0
M  V30 3466 C 366.89 0.393933 -5.72045 0
M  V30 3467 N 366.386 0.330724 -6.9201 0
M  V30 3468 N 368.179 0.442227 -5.60358 0
M  V30 3469 H 360.33 -0.851016 -1.94606 0
M  V30 3470 H 362.593 -0.321721 -0.89174 0
M  V30 3471 H 362.299 -0.62011 -3.4619 0
M  V30 3472 H 362.173 1.12463 -3.60044 0
M  V30 3473 H 364.56 1.33582 -2.63134 0
M  V30 3474 H 364.641 -0.428342 -2.52188 0
M  V30 3475 H 364.285 -0.578987 -5.04589 0
M  V30 3476 H 364.215 1.19928 -5.12762 0
M  V30 3477 H 366.706 0.462729 -3.75056 0
M  V30 3478 H 367.019 0.322592 -7.72126 0
M  V30 3479 H 365.364 0.29706 -6.94365 0
M  V30 3480 H 368.555 0.489464 -4.65534 0
M  V30 3481 H 368.728 0.425788 -6.466 0
M  V30 3482 N 362.134 1.5431 0.320358 0
M  V30 3483 C 363.064 1.86912 1.3995 0
M  V30 3484 C 364.045 0.726211 1.53819 0
M  V30 3485 O 365.23 0.980233 1.67646 0
M  V30 3486 C 362.36 2.09932 2.7667 0
M  V30 3487 C 361.314 3.25776 2.77586 0
M  V30 3488 C 360.64 3.34173 4.17412 0
M  V30 3489 C 361.94 4.6335 2.41048 0
M  V30 3490 H 363.634 2.77292 1.12914 0
M  V30 3491 H 361.18 1.33421 0.541738 0
M  V30 3492 H 363.133 2.31324 3.52232 0
M  V30 3493 H 361.857 1.16304 3.0519 0
M  V30 3494 H 360.516 3.04276 2.04479 0
M  V30 3495 H 360.164 2.38098 4.43078 0
M  V30 3496 H 359.864 4.12033 4.18931 0
M  V30 3497 H 361.388 3.57803 4.94782 0
M  V30 3498 H 362.802 4.84602 3.06324 0
M  V30 3499 H 361.199 5.43782 2.53813 0
M  V30 3500 H 362.269 4.65381 1.36193 0
M  V30 3501 N 363.613 -0.582584 1.46437 0
M  V30 3502 C 364.861 -1.33814 1.51453 0
M  V30 3503 C 365.182 -1.94277 0.167792 0
M  V30 3504 O 364.452 -1.78566 -0.805677 0
M  V30 3505 H 363.032 -0.496838 0.557818 0
M  V30 3506 H 365.694 -0.682281 1.82568 0
M  V30 3507 H 364.79 -2.14479 2.26728 0
M  V30 3508 N 365.091 -1.34144 -0.827227 0
M  V30 3509 C 366.021 -1.28005 -1.95287 0
M  V30 3510 C 367.002 -0.158321 -1.69362 0
M  V30 3511 O 368.187 -0.349987 -1.9102 0
M  V30 3512 C 365.317 -1.03036 -3.31664 0
M  V30 3513 C 364.271 -2.11628 -3.72019 0
M  V30 3514 C 363.597 -1.71854 -5.0633 0
M  V30 3515 C 364.897 -3.53417 -3.8457 0
M  V30 3516 H 366.591 -2.22187 -2.00682 0
M  V30 3517 H 364.137 -1.0696 -0.964135 0
M  V30 3518 H 366.09 -0.973863 -4.09993 0
M  V30 3519 H 364.814 -0.0529391 -3.26557 0
M  V30 3520 H 363.473 -2.16339 -2.95961 0
M  V30 3521 H 363.121 -0.727841 -4.97706 0
M  V30 3522 H 362.821 -2.44531 -5.34302 0
M  V30 3523 H 364.345 -1.67692 -5.87122 0
M  V30 3524 H 365.759 -3.51142 -4.5318 0
M  V30 3525 H 364.156 -4.24679 -4.2399 0
M  V30 3526 H 365.226 -3.91072 -2.86689 0
M  V30 3527 N 366.569 1.04691 -1.17803 0
M  V30 3528 C 367.797 1.81446 -0.99423 0
M  V30 3529 C 368.212 1.83174 0.457459 0
M  V30 3530 O 367.569 1.26265 1.31771 0
M  V30 3531 C 367.62 3.27334 -1.5341 0
M  V30 3532 O 367.341 3.25798 -2.92895 0
M  V30 3533 C 368.842 4.20759 -1.39559 0
M  V30 3534 H 366.062 0.571599 -0.351447 0
M  V30 3535 H 368.606 1.31982 -1.56208 0
M  V30 3536 H 366.761 3.74052 -1.00815 0
M  V30 3537 H 367.175 4.17144 -3.17949 0
M  V30 3538 H 368.649 5.21084 -1.82141 0
M  V30 3539 H 369.126 4.37856 -0.343394 0
M  V30 3540 H 369.732 3.79901 -1.91195 0
M  V30 3541 N 368.047 0.979072 1.23499 0
M  V30 3542 C 369.277 0.664237 1.95631 0
M  V30 3543 C 369.685 -0.772653 1.72704 0
M  V30 3544 O 369.028 -1.53141 1.01457 0
M  V30 3545 C 369.09 0.873115 3.48736 0
M  V30 3546 C 368.754 2.29182 3.95379 0
M  V30 3547 C 369.751 3.2704 4.04155 0
M  V30 3548 C 367.436 2.62256 4.28401 0
M  V30 3549 C 369.43 4.56052 4.45304 0
M  V30 3550 C 367.117 3.91491 4.69231 0
M  V30 3551 C 368.115 4.88201 4.77649 0
M  V30 3552 O 367.803 6.15129 5.17563 0
M  V30 3553 H 367.535 0.245915 0.629684 0
M  V30 3554 H 370.089 1.3127 1.57979 0
M  V30 3555 H 368.319 0.167476 3.86337 0
M  V30 3556 H 370.008 0.555642 4.02079 0
M  V30 3557 H 370.774 3.02819 3.78848 0
M  V30 3558 H 366.653 1.87692 4.21061 0
M  V30 3559 H 370.197 5.31538 4.51789 0
M  V30 3560 H 366.094 4.15508 4.93987 0
M  V30 3561 H 366.862 6.18862 5.35679 0
M  V30 3562 N 369.525 -1.3858 0.750561 0
M  V30 3563 C 370.457 -2.29057 0.0810714 0
M  V30 3564 C 371.47 -1.47596 -0.686973 0
M  V30 3565 O 372.659 -1.70495 -0.528563 0
M  V30 3566 C 369.759 -3.26475 -0.909247 0
M  V30 3567 C 368.932 -4.36945 -0.199478 0
M  V30 3568 C 367.991 -5.14572 -1.10011 0
M  V30 3569 O 367.017 -5.66321 -0.57177 0
M  V30 3570 N 368.219 -5.27262 -2.42849 0
M  V30 3571 H 370.984 -2.87153 0.858087 0
M  V30 3572 H 368.545 -1.50328 0.60109 0
M  V30 3573 H 370.537 -3.75285 -1.51471 0
M  V30 3574 H 369.107 -2.69298 -1.58736 0
M  V30 3575 H 368.327 -3.8981 0.586664 0
M  V30 3576 H 369.615 -5.07963 0.291783 0
M  V30 3577 H 369.013 -4.86763 -2.88233 0
M  V30 3578 H 367.57 -5.79456 -2.98453 0
M  V30 3579 N 371.003 -0.499398 -1.49478 0
M  V30 3580 C 372.249 0.0457576 -2.02748 0
M  V30 3581 C 372.582 1.36793 -1.37846 0
M  V30 3582 O 371.857 1.87596 -0.513601 0
M  V30 3583 C 372.14 0.199986 -3.59544 0
M  V30 3584 C 371.993 -1.1452 -4.34977 0
M  V30 3585 C 373.312 0.94137 -4.29914 0
M  V30 3586 H 370.431 0.0151552 -0.736844 0
M  V30 3587 H 373.073 -0.650498 -1.78518 0
M  V30 3588 H 371.223 0.793007 -3.8032 0
M  V30 3589 H 372.895 -1.77697 -4.25701 0
M  V30 3590 H 371.138 -1.73488 -3.97598 0
M  V30 3591 H 371.809 -0.990607 -5.43039 0
M  V30 3592 H 374.285 0.43844 -4.13784 0
M  V30 3593 H 373.161 1.01812 -5.39375 0
M  V30 3594 H 373.422 1.98471 -3.95046 0
M  V30 3595 N 372.481 1.55866 -0.233164 0
M  V30 3596 C 373.709 2.02998 0.399905 0
M  V30 3597 C 374.124 1.11274 1.52524 0
M  V30 3598 O 373.481 0.124528 1.82075 0
M  V30 3599 C 373.532 3.4958 0.920639 0
M  V30 3600 O 373.253 4.37808 -0.159834 0
M  V30 3601 C 374.754 4.12411 1.62578 0
M  V30 3602 H 371.974 0.664006 0.0966281 0
M  V30 3603 H 374.518 2.0143 -0.353013 0
M  V30 3604 H 372.673 3.51727 1.62379 0
M  V30 3605 H 373.087 5.23981 0.23337 0
M  V30 3606 H 374.561 5.16711 1.94201 0
M  V30 3607 H 375.038 3.5809 2.54299 0
M  V30 3608 H 375.644 4.14148 0.967553 0
M  V30 3609 N 373.959 -0.0401083 1.57549 0
M  V30 3610 C 375.37 -0.588097 1.77196 0
M  V30 3611 C 375.721 -1.76209 0.862832 0
M  V30 3612 O 374.846 -2.16331 0.0548389 0
M  V30 3613 C 375.441 -1.07363 3.21339 0
M  V30 3614 C 374 -1.56723 3.42221 0
M  V30 3615 C 373.147 -0.50041 2.72747 0
M  V30 3616 H 376.098 0.186119 1.57605 0
M  V30 3617 H 376.119 -1.94143 3.27244 0
M  V30 3618 H 375.631 -0.218975 3.87482 0
M  V30 3619 H 373.732 -2.4441 2.81237 0
M  V30 3620 H 373.845 -1.62234 4.50796 0
M  V30 3621 H 372.209 -0.952894 2.36203 0
M  V30 3622 H 372.992 0.344599 3.41566 0
M  V30 3623 N 375.437 -1.54477 -0.31217 0
M  V30 3624 C 376.714 -1.63891 -1.06767 0
M  V30 3625 C 377.094 -0.480028 -2.0557 0
M  V30 3626 O 376.442 0.524487 -2.22399 0
M  V30 3627 C 376.652 -3.01402 -1.75948 0
M  V30 3628 C 378 -3.57838 -2.28554 0
M  V30 3629 O 379.024 -3.03782 -1.85998 0
M  V30 3630 O 377.883 -4.52462 -3.06497 0
M  V30 3631 H 374.977 -0.664125 -0.492816 0
M  V30 3632 H 377.523 -1.66823 -0.311149 0
M  V30 3633 H 376.295 -3.77187 -1.04144 0
M  V30 3634 H 375.918 -3.02199 -2.58383 0
M  V30 3635 N 376.915 0.57481 -1.46744 0
M  V30 3636 C 378.143 1.35856 -1.56047 0
M  V30 3637 C 378.558 1.87691 -0.204365 0
M  V30 3638 O 377.915 1.64049 0.79963 0
M  V30 3639 C 377.966 2.54066 -2.57163 0
M  V30 3640 O 377.687 2.04377 -3.87507 0
M  V30 3641 C 379.188 3.46514 -2.76483 0
M  V30 3642 H 376.408 0.414754 -0.527466 0
M  V30 3643 H 378.952 0.698035 -1.92218 0
M  V30 3644 H 377.107 3.16092 -2.23974 0
M  V30 3645 H 377.521 2.81419 -4.4261 0
M  V30 3646 H 378.995 4.25919 -3.51137 0
M  V30 3647 H 379.472 3.98951 -1.83671 0
M  V30 3648 H 380.078 2.90318 -3.10799 0
M  V30 3649 N 378.394 1.34581 0.820102 0
M  V30 3650 C 379.81 1.14325 1.11364 0
M  V30 3651 C 380.01 -0.0533648 2.01429 0
M  V30 3652 O 379.066 -0.728044 2.41776 0
M  V30 3653 C 380.379 2.43983 1.75764 0
M  V30 3654 C 381.927 2.50065 1.88246 0
M  V30 3655 C 382.402 3.79732 2.56061 0
M  V30 3656 N 383.893 3.80908 2.63558 0
M  V30 3657 C 384.628 4.77961 3.16766 0
M  V30 3658 N 384.124 5.85397 3.70517 0
M  V30 3659 N 385.917 4.65413 3.15194 0
M  V30 3660 H 378.068 2.11246 0.221096 0
M  V30 3661 H 380.331 0.934289 0.160649 0
M  V30 3662 H 380.037 3.31651 1.1705 0
M  V30 3663 H 379.911 2.57531 2.75604 0
M  V30 3664 H 382.298 1.62834 2.46108 0
M  V30 3665 H 382.379 2.40442 0.873006 0
M  V30 3666 H 382.023 4.67354 1.98853 0
M  V30 3667 H 381.953 3.86639 3.57516 0
M  V30 3668 H 384.444 3.03274 2.25463 0
M  V30 3669 H 384.757 6.55463 4.09376 0
M  V30 3670 H 383.102 5.89107 3.68752 0
M  V30 3671 H 386.293 3.80627 2.72471 0
M  V30 3672 H 386.466 5.41216 3.56356 0
M  V30 3673 N 379.872 -1.04064 1.18357 0
M  V30 3674 C 381.121 -1.76662 0.973313 0
M  V30 3675 C 381.434 -1.89154 -0.497991 0
M  V30 3676 O 382.64 -2.58606 -0.826762 0
M  V30 3677 C 381.096 -3.17624 1.69242 0
M  V30 3678 C 380.704 -3.13225 3.20303 0
M  V30 3679 C 382.448 -3.946 1.56497 0
M  V30 3680 C 380.355 -4.49046 3.84853 0
M  V30 3681 H 379.285 -0.662214 0.36054 0
M  V30 3682 H 381.936 -1.16553 1.41731 0
M  V30 3683 H 380.318 -3.78129 1.1762 0
M  V30 3684 H 381.492 -2.62172 3.78949 0
M  V30 3685 H 379.807 -2.49749 3.33189 0
M  V30 3686 H 382.404 -4.95042 2.02084 0
M  V30 3687 H 382.747 -4.13074 0.517243 0
M  V30 3688 H 383.28 -3.4067 2.05399 0
M  V30 3689 H 380.019 -4.35777 4.89672 0
M  V30 3690 H 379.539 -5.00203 3.30994 0
M  V30 3691 H 381.218 -5.17961 3.87718 0
M  V30 3692 N 381.35 -0.985608 -1.22978 0
M  V30 3693 C 382.598 -0.656087 -1.91154 0
M  V30 3694 C 382.919 0.813561 -1.77218 0
M  V30 3695 O 382.189 1.58244 -1.1548 0
M  V30 3696 H 380.769 -0.239674 -0.707506 0
M  V30 3697 H 383.431 -1.25054 -1.49491 0
M  V30 3698 H 382.527 -0.912253 -2.9847 0
M  V30 3699 N 382.828 1.3818 -0.7579 0
M  V30 3700 C 383.791 2.28764 -0.141286 0
M  V30 3701 C 384.791 1.47388 0.642907 0
M  V30 3702 O 385.981 1.67781 0.468536 0
M  V30 3703 C 383.113 3.31184 0.808069 0
M  V30 3704 H 384.306 2.848 -0.939633 0
M  V30 3705 H 381.859 1.47212 -0.525191 0
M  V30 3706 H 382.594 2.80247 1.63193 0
M  V30 3707 H 382.379 3.91314 0.248104 0
M  V30 3708 H 383.869 3.98909 1.23536 0
M  V30 3709 N 384.306 0.507319 1.49211 0
M  V30 3710 C 385.269 -0.256763 2.27757 0
M  V30 3711 C 386.269 -0.888287 1.34038 0
M  V30 3712 O 387.459 -0.751841 1.5714 0
M  V30 3713 C 384.591 -1.36905 3.12202 0
M  V30 3714 H 385.784 0.432557 2.96764 0
M  V30 3715 H 383.337 0.262488 1.5408 0
M  V30 3716 H 384.072 -2.09233 2.47775 0
M  V30 3717 H 383.857 -0.921599 3.81115 0
M  V30 3718 H 385.347 -1.9071 3.7151 0
M  V30 3719 N 385.784 -1.5574 0.241426 0
M  V30 3720 C 387.014 -2.02913 -0.38857 0
M  V30 3721 C 387.422 -1.12014 -1.52478 0
M  V30 3722 O 386.765 -0.125903 -1.83268 0
M  V30 3723 C 386.827 -3.4636 -0.963075 0
M  V30 3724 C 386.491 -4.56982 0.0401916 0
M  V30 3725 C 387.488 -5.12941 0.847766 0
M  V30 3726 C 385.173 -5.0203 0.164699 0
M  V30 3727 C 387.167 -6.12437 1.76636 0
M  V30 3728 C 384.854 -6.01358 1.0868 0
M  V30 3729 C 385.852 -6.5644 1.88616 0
M  V30 3730 O 385.54 -7.53831 2.79273 0
M  V30 3731 H 385.272 -0.668983 -0.0971452 0
M  V30 3732 H 387.826 -2.02198 0.361248 0
M  V30 3733 H 386.056 -3.44206 -1.76235 0
M  V30 3734 H 387.745 -3.77065 -1.50257 0
M  V30 3735 H 388.511 -4.78974 0.762133 0
M  V30 3736 H 384.39 -4.58824 -0.447411 0
M  V30 3737 H 387.934 -6.55355 2.39071 0
M  V30 3738 H 383.831 -6.34746 1.17338 0
M  V30 3739 H 384.599 -7.71428 2.73572 0
M  V30 3740 N 387.262 0.0317525 -1.57568 0
M  V30 3741 C 388.194 1.06073 -2.03178 0
M  V30 3742 C 389.207 1.32627 -0.944132 0
M  V30 3743 O 390.396 1.30162 -1.22148 0
M  V30 3744 C 387.496 2.40297 -2.38978 0
M  V30 3745 C 386.669 2.33137 -3.70089 0
M  V30 3746 C 385.728 3.49787 -3.9311 0
M  V30 3747 O 384.754 3.29403 -4.64201 0
M  V30 3748 N 385.956 4.71562 -3.38541 0
M  V30 3749 H 388.721 0.672006 -2.92069 0
M  V30 3750 H 386.282 0.219745 -1.60402 0
M  V30 3751 H 388.274 3.1705 -2.51518 0
M  V30 3752 H 386.844 2.71024 -1.55771 0
M  V30 3753 H 386.064 1.415 -3.67928 0
M  V30 3754 H 387.352 2.25493 -4.56104 0
M  V30 3755 H 386.75 4.91024 -2.80912 0
M  V30 3756 H 385.307 5.45689 -3.56464 0
M  V30 3757 N 388.74 1.54641 0.303973 0
M  V30 3758 C 389.703 1.84646 1.35789 0
M  V30 3759 C 390.703 0.7192 1.4382 0
M  V30 3760 O 391.893 0.987491 1.43507 0
M  V30 3761 C 389.025 2.02407 2.74307 0
M  V30 3762 H 390.218 2.78829 1.10429 0
M  V30 3763 H 387.771 1.46658 0.540487 0
M  V30 3764 H 388.506 1.10502 3.04893 0
M  V30 3765 H 388.291 2.84453 2.69868 0
M  V30 3766 H 389.781 2.27002 3.50514 0
M  V30 3767 N 390.218 -0.567019 1.47046 0
M  V30 3768 C 391.165 -1.67489 1.58796 0
M  V30 3769 C 392.135 -1.60399 0.43144 0
M  V30 3770 O 393.32 -1.79378 0.650233 0
M  V30 3771 C 390.46 -3.05821 1.59899 0
M  V30 3772 C 389.573 -3.2342 2.86397 0
M  V30 3773 C 388.708 -4.52093 2.789 0
M  V30 3774 C 387.747 -4.6309 4.00267 0
M  V30 3775 N 386.884 -5.83106 3.91064 0
M  V30 3776 H 391.724 -1.56785 2.53422 0
M  V30 3777 H 389.261 -0.763896 1.2571 0
M  V30 3778 H 391.219 -3.8591 1.58522 0
M  V30 3779 H 389.849 -3.15384 0.687929 0
M  V30 3780 H 388.901 -2.3683 2.97684 0
M  V30 3781 H 390.213 -3.27412 3.76301 0
M  V30 3782 H 389.367 -5.4043 2.75718 0
M  V30 3783 H 388.106 -4.50565 1.86662 0
M  V30 3784 H 387.111 -3.73168 4.03765 0
M  V30 3785 H 388.336 -4.66386 4.93621 0
M  V30 3786 H 386.282 -5.82546 3.01623 0
M  V30 3787 H 386.199 -5.88434 4.74638 0
M  V30 3788 H 387.467 -6.73831 3.91882 0
M  V30 3789 N 391.696 -1.35014 -0.812953 0
M  V30 3790 C 392.924 -1.31031 -1.6012 0
M  V30 3791 C 393.339 0.113558 -1.88458 0
M  V30 3792 O 392.696 1.06363 -1.48301 0
M  V30 3793 C 392.747 -2.10872 -2.93624 0
M  V30 3794 O 392.468 -3.47706 -2.66518 0
M  V30 3795 C 393.969 -2.14401 -3.88004 0
M  V30 3796 H 391.189 -0.45037 -0.497401 0
M  V30 3797 H 393.733 -1.77775 -1.01076 0
M  V30 3798 H 391.888 -1.67744 -3.492 0
M  V30 3799 H 392.302 -3.89097 -3.51715 0
M  V30 3800 H 393.776 -2.74669 -4.78812 0
M  V30 3801 H 394.253 -1.14105 -4.24119 0
M  V30 3802 H 394.859 -2.57662 -3.38364 0
M  V30 3803 N 393.175 1.03435 -1.18907 0
M  V30 3804 C 394.125 2.09924 -0.889706 0
M  V30 3805 C 395.109 1.60261 0.143216 0
M  V30 3806 O 396.301 1.76892 -0.0617122 0
M  V30 3807 C 393.43 3.40669 -0.424168 0
M  V30 3808 C 392.516 3.97082 -1.48952 0
M  V30 3809 N 392.907 4.27227 -2.70759 0
M  V30 3810 C 391.205 4.25029 -1.35152 0
M  V30 3811 C 391.906 4.7246 -3.39347 0
M  V30 3812 N 390.882 4.7366 -2.66735 0
M  V30 3813 H 394.684 2.31116 -1.81555 0
M  V30 3814 H 392.198 1.21246 -1.08042 0
M  V30 3815 H 394.195 4.16461 -0.191176 0
M  V30 3816 H 392.855 3.20901 0.495263 0
M  V30 3817 H 393.866 4.16678 -3.0757 0
M  V30 3818 H 390.543 4.14554 -0.495126 0
M  V30 3819 H 391.933 5.04751 -4.43481 0
M  V30 3820 N 394.653 0.992116 1.22453 0
M  V30 3821 C 395.899 0.668523 1.91464 0
M  V30 3822 C 396.232 -0.797313 1.77078 0
M  V30 3823 O 395.507 -1.5765 1.13916 0
M  V30 3824 C 395.79 1.07424 3.43703 0
M  V30 3825 C 395.643 2.59857 3.67143 0
M  V30 3826 C 396.962 0.626891 4.35612 0
M  V30 3827 H 394.081 0.244341 0.695318 0
M  V30 3828 H 396.723 1.2355 1.44345 0
M  V30 3829 H 394.873 0.591816 3.83966 0
M  V30 3830 H 396.545 3.15764 3.3629 0
M  V30 3831 H 394.788 3.01961 3.11451 0
M  V30 3832 H 395.459 2.83296 4.73759 0
M  V30 3833 H 397.935 1.04125 4.02861 0
M  V30 3834 H 396.811 0.939076 5.40807 0
M  V30 3835 H 397.072 -0.472457 4.39568 0
M  V30 3836 N 396.131 -1.37776 0.765217 0
M  V30 3837 C 397.379 -1.99454 0.325943 0
M  V30 3838 C 397.7 -1.61049 -1.09947 0
M  V30 3839 O 396.97 -0.872821 -1.75381 0
M  V30 3840 H 395.55 -0.737697 0.117525 0
M  V30 3841 H 398.212 -1.68359 0.981895 0
M  V30 3842 H 397.308 -3.09547 0.398353 0
M  V30 3843 N 397.609 -0.515225 -1.4894 0
M  V30 3844 C 398.886 0.0879088 -1.95402 0
M  V30 3845 C 399.266 1.52745 -1.45712 0
M  V30 3846 O 398.614 2.18238 -0.677093 0
M  V30 3847 C 398.824 -0.0141055 -3.48997 0
M  V30 3848 C 400.172 0.152646 -4.24326 0
M  V30 3849 O 401.196 0.0604025 -3.56149 0
M  V30 3850 O 400.055 0.34384 -5.45417 0
M  V30 3851 H 397.149 0.0874636 -0.822362 0
M  V30 3852 H 399.695 -0.578775 -1.59525 0
M  V30 3853 H 398.467 -1.01745 -3.77841 0
M  V30 3854 H 398.09 0.692091 -3.9153 0
M  V30 3855 N 399.087 1.5561 -0.249682 0
M  V30 3856 C 400.017 2.24477 0.642826 0
M  V30 3857 C 400.998 1.22601 1.17911 0
M  V30 3858 O 402.183 1.5126 1.21795 0
M  V30 3859 C 399.313 2.94638 1.83863 0
M  V30 3860 C 398.267 4.03227 1.435 0
M  V30 3861 C 397.593 4.60828 2.71186 0
M  V30 3862 C 398.893 5.18796 0.604002 0
M  V30 3863 H 400.587 2.99321 0.0685625 0
M  V30 3864 H 398.133 1.43965 0.0315363 0
M  V30 3865 H 400.086 3.41517 2.46868 0
M  V30 3866 H 398.81 2.17287 2.43832 0
M  V30 3867 H 397.469 3.57121 0.828275 0
M  V30 3868 H 397.117 3.80174 3.29358 0
M  V30 3869 H 396.817 5.34132 2.44901 0
M  V30 3870 H 398.341 5.10442 3.35084 0
M  V30 3871 H 399.755 5.61883 1.13842 0
M  V30 3872 H 398.152 5.98506 0.437097 0
M  V30 3873 H 399.222 4.83384 -0.383147 0
M  V30 3874 N 400.565 -0.0233959 1.57583 0
M  V30 3875 C 401.793 -0.724682 1.93794 0
M  V30 3876 C 402.208 -1.68588 0.849912 0
M  V30 3877 O 401.565 -1.81676 -0.173204 0
M  V30 3878 C 401.616 -1.47684 3.29957 0
M  V30 3879 O 401.337 -0.554222 4.3458 0
M  V30 3880 C 402.838 -2.27477 3.80485 0
M  V30 3881 H 400.058 -0.203317 0.639455 0
M  V30 3882 H 402.602 0.0207653 2.04489 0
M  V30 3883 H 400.757 -2.17412 3.20641 0
M  V30 3884 H 401.171 -1.08232 5.13212 0
M  V30 3885 H 402.645 -2.7564 4.78254 0
M  V30 3886 H 403.122 -3.09144 3.11972 0
M  V30 3887 H 403.728 -1.62813 3.92902 0
M  V30 3888 N 402.043 -1.548 -0.295768 0
M  V30 3889 C 403.291 -1.73985 -1.02828 0
M  V30 3890 C 403.612 -0.531406 -1.87619 0
M  V30 3891 O 402.882 0.454221 -1.90561 0
M  V30 3892 H 401.462 -0.641556 -0.382642 0
M  V30 3893 H 404.124 -1.92163 -0.325489 0
M  V30 3894 H 403.22 -2.63129 -1.67838 0
M  V30 3895 N 403.521 0.559213 -1.47345 0
M  V30 3896 C 404.453 1.68161 -1.55738 0
M  V30 3897 C 405.466 1.56636 -0.443744 0
M  V30 3898 O 406.655 1.6363 -0.713258 0
M  V30 3899 C 403.755 3.06611 -1.4437 0
M  V30 3900 C 402.928 3.4391 -2.70268 0
M  V30 3901 C 401.987 4.61515 -2.52765 0
M  V30 3902 O 401.013 4.66197 -3.26572 0
M  V30 3903 N 402.215 5.57883 -1.6046 0
M  V30 3904 H 404.98 1.61408 -2.52522 0
M  V30 3905 H 402.541 0.7458 -1.43699 0
M  V30 3906 H 404.533 3.83117 -1.30398 0
M  V30 3907 H 403.103 3.07602 -0.556766 0
M  V30 3908 H 402.323 2.56873 -2.99015 0
M  V30 3909 H 403.611 3.65605 -3.53851 0
M  V30 3910 H 403.009 5.56855 -0.996422 0
M  V30 3911 H 401.566 6.33723 -1.52441 0
M  V30 3912 N 404.999 1.35443 0.805782 0
M  V30 3913 C 405.962 1.28301 1.89925 0
M  V30 3914 C 406.962 0.194285 1.59622 0
M  V30 3915 O 408.152 0.448036 1.6834 0
M  V30 3916 C 405.284 0.984997 3.2636 0
M  V30 3917 H 406.477 2.2553 1.97677 0
M  V30 3918 H 404.03 1.19979 1.00173 0
M  V30 3919 H 404.765 0.016603 3.24296 0
M  V30 3920 H 404.55 1.77269 3.4974 0
M  V30 3921 H 406.04 0.960651 4.064 0
M  V30 3922 N 406.477 -1.02803 1.19454 0
M  V30 3923 C 407.705 -1.79841 1.02297 0
M  V30 3924 C 408.12 -1.83879 -0.428259 0
M  V30 3925 O 407.477 -1.28345 -1.29745 0
M  V30 3926 C 407.528 -3.24852 1.58598 0
M  V30 3927 O 407.249 -3.21097 2.98041 0
M  V30 3928 C 408.75 -4.18485 1.46236 0
M  V30 3929 H 405.97 -0.565936 0.360496 0
M  V30 3930 H 408.514 -1.2948 1.58288 0
M  V30 3931 H 406.669 -3.72401 1.06753 0
M  V30 3932 H 407.083 -4.12033 3.24545 0
M  V30 3933 H 408.557 -5.18121 1.90407 0
M  V30 3934 H 409.034 -4.37254 0.41301 0
M  V30 3935 H 409.64 -3.76811 1.97215 0
M  V30 3936 N 407.956 -0.998596 -1.21925 0
M  V30 3937 C 408.886 -0.573688 -2.26343 0
M  V30 3938 C 409.867 0.402296 -1.65274 0
M  V30 3939 O 411.052 0.291683 -1.91997 0
M  V30 3940 C 408.182 0.106839 -3.47136 0
M  V30 3941 C 407.136 -0.788269 -4.20678 0
M  V30 3942 C 406.462 0.0254927 -5.34694 0
M  V30 3943 C 407.762 -2.08784 -4.78755 0
M  V30 3944 H 409.456 -1.44651 -2.62138 0
M  V30 3945 H 407.002 -0.696975 -1.26009 0
M  V30 3946 H 408.955 0.415531 -4.19346 0
M  V30 3947 H 407.679 1.01424 -3.10452 0
M  V30 3948 H 406.338 -1.08069 -3.50309 0
M  V30 3949 H 405.986 0.933989 -4.94253 0
M  V30 3950 H 405.686 -0.570437 -5.84825 0
M  V30 3951 H 407.21 0.328147 -6.09718 0
M  V30 3952 H 408.624 -1.84272 -5.42878 0
M  V30 3953 H 407.021 -2.63307 -5.39249 0
M  V30 3954 H 408.091 -2.76284 -3.98491 0
M  V30 3955 N 409.434 1.37368 -0.772513 0
M  V30 3956 C 410.659 2.0447 -0.347386 0
M  V30 3957 C 411.084 1.57882 1.0225 0
M  V30 3958 O 410.442 0.73941 1.65537 0
M  V30 3959 C 410.49 3.58369 -0.400479 0
M  V30 3960 O 409.594 4.0803 0.598789 0
M  V30 3961 H 408.935 0.646773 -0.15027 0
M  V30 3962 H 411.465 1.75667 -1.04892 0
M  V30 3963 H 411.475 4.07183 -0.258045 0
M  V30 3964 H 410.15 3.91633 -1.39986 0
M  V30 3965 H 408.727 3.70534 0.419411 0
M  V30 3966 N 410.912 0.523116 1.48665 0
M  V30 3967 C 411.875 -0.232592 2.28017 0
M  V30 3968 C 412.875 -0.874021 1.34972 0
M  V30 3969 O 414.065 -0.735132 1.57929 0
M  V30 3970 C 411.197 -1.33586 3.13636 0
M  V30 3971 H 412.39 0.464008 2.96289 0
M  V30 3972 H 409.943 0.278816 1.53793 0
M  V30 3973 H 410.678 -2.06593 2.4998 0
M  V30 3974 H 410.463 -0.881125 3.82071 0
M  V30 3975 H 411.953 -1.86759 3.73511 0
M  V30 3976 N 412.39 -1.55475 0.257931 0
M  V30 3977 C 413.636 -1.99502 -0.364266 0
M  V30 3978 C 413.969 -1.146 -1.56782 0
M  V30 3979 O 413.244 -0.211968 -1.93342 0
M  V30 3980 C 413.527 -3.51917 -0.763333 0
M  V30 3981 C 413.38 -4.4758 0.446371 0
M  V30 3982 C 414.699 -4.09742 -1.60623 0
M  V30 3983 H 411.818 -0.725277 -0.130929 0
M  V30 3984 H 414.46 -1.8653 0.361446 0
M  V30 3985 H 412.61 -3.63101 -1.38166 0
M  V30 3986 H 414.282 -4.48362 1.08487 0
M  V30 3987 H 412.525 -4.19947 1.08753 0
M  V30 3988 H 413.196 -5.51862 0.123645 0
M  V30 3989 H 415.672 -4.01727 -1.08418 0
M  V30 3990 H 414.548 -5.16631 -1.85429 0
M  V30 3991 H 414.809 -3.58889 -2.58169 0
M  V30 3992 N 413.868 0.0150385 -1.57593 0
M  V30 3993 C 415.093 0.718067 -1.94573 0
M  V30 3994 C 415.518 1.6734 -0.859005 0
M  V30 3995 O 414.876 1.80362 0.184147 0
M  V30 3996 C 414.924 1.43918 -3.30636 0
M  V30 3997 O 414.028 2.55299 -3.23876 0
M  V30 3998 H 413.369 0.192125 -0.635597 0
M  V30 3999 H 415.899 -0.0336708 -2.04572 0
M  V30 4000 H 415.909 1.80598 -3.65853 0
M  V30 4001 H 414.584 0.738619 -4.09289 0
M  V30 4002 H 413.161 2.21058 -3.00312 0
M  V30 4003 N 415.346 1.54954 0.287554 0
M  V30 4004 C 416.571 1.79209 1.04397 0
M  V30 4005 C 416.996 0.556431 1.79682 0
M  V30 4006 O 416.354 -0.493518 1.74454 0
M  V30 4007 C 416.402 3.00739 1.98969 0
M  V30 4008 O 415.506 2.74805 3.075 0
M  V30 4009 H 414.847 0.592755 0.299227 0
M  V30 4010 H 417.377 2.02068 0.320886 0
M  V30 4011 H 417.387 3.29077 2.4119 0
M  V30 4012 H 416.062 3.90329 1.43582 0
M  V30 4013 H 414.639 2.57523 2.69697 0
M  V30 4014 N 416.824 -0.551391 1.4764 0
M  V30 4015 C 418.07 -1.31024 1.54792 0
M  V30 4016 C 418.403 -1.9304 0.211967 0
M  V30 4017 O 417.678 -1.78175 -0.77999 0
M  V30 4018 C 417.961 -2.41593 2.67029 0
M  V30 4019 C 417.814 -1.84408 4.10261 0
M  V30 4020 C 419.133 -3.43488 2.75143 0
M  V30 4021 H 416.252 -0.475031 0.563485 0
M  V30 4022 H 418.894 -0.616454 1.79722 0
M  V30 4023 H 417.044 -3.00772 2.45904 0
M  V30 4024 H 418.716 -1.29445 4.42766 0
M  V30 4025 H 416.959 -1.15051 4.18265 0
M  V30 4026 H 417.63 -2.64367 4.84576 0
M  V30 4027 H 420.106 -2.94236 2.94218 0
M  V30 4028 H 418.982 -4.18274 3.55441 0
M  V30 4029 H 419.243 -4.02703 1.82435 0
M  V30 4030 N 418.302 -1.35869 -0.798587 0
M  V30 4031 C 419.265 -1.29307 -1.89242 0
M  V30 4032 C 420.265 -0.202747 -1.59517 0
M  V30 4033 O 421.455 -0.456957 -1.681 0
M  V30 4034 C 418.587 -1.00229 -3.25833 0
M  V30 4035 H 419.78 -2.26576 -1.96478 0
M  V30 4036 H 417.333 -1.20509 -0.995358 0
M  V30 4037 H 418.068 -0.033801 -3.24282 0
M  V30 4038 H 417.853 -1.79121 -3.48795 0
M  V30 4039 H 419.343 -0.98219 -4.05885 0
M  V30 4040 N 419.78 1.02168 -1.19998 0
M  V30 4041 C 421.028 1.75338 -1.00504 0
M  V30 4042 C 421.349 1.89387 0.464506 0
M  V30 4043 O 420.619 1.43268 1.33608 0
M  V30 4044 H 419.199 0.649564 -0.368885 0
M  V30 4045 H 421.861 1.23205 -1.51018 0
M  V30 4046 H 420.957 2.75892 -1.45912 0
M  V30 4047 N 421.258 1.00505 1.21394 0
M  V30 4048 C 422.206 0.558623 2.25792 0
M  V30 4049 C 423.2 -0.396848 1.64686 0
M  V30 4050 O 424.406 -0.268035 1.77993 0
M  V30 4051 H 420.781 0.1623 0.734277 0
M  V30 4052 H 422.752 1.4503 2.60785 0
M  V30 4053 C 421.501 -0.0989574 3.47559 0
M  V30 4054 H 420.824 0.627225 3.94849 0
M  V30 4055 H 422.264 -0.3746 4.22342 0
M  V30 4056 C 420.723 -1.33817 3.09184 0
M  V30 4057 O 421.253 -2.43252 3.19674 0
M  V30 4058 N 419.459 -1.21793 2.63846 0
M  V30 4059 H 419.006 -0.32746 2.5551 0
M  V30 4060 H 418.964 -2.04809 2.38539 0
M  V30 4061 N 422.737 -1.36956 0.779787 0
M  V30 4062 C 423.986 -1.98738 0.344405 0
M  V30 4063 C 424.299 -1.62596 -1.08728 0
M  V30 4064 O 425.505 -2.1754 -1.62445 0
M  V30 4065 C 423.961 -3.5544 0.564829 0
M  V30 4066 C 423.569 -4.00514 2.0073 0
M  V30 4067 C 425.313 -4.24059 0.193471 0
M  V30 4068 C 423.22 -5.49957 2.17489 0
M  V30 4069 H 422.15 -0.743561 0.12503 0
M  V30 4070 H 424.801 -1.56381 0.960057 0
M  V30 4071 H 423.183 -3.95817 -0.120397 0
M  V30 4072 H 424.357 -3.71362 2.72814 0
M  V30 4073 H 422.672 -3.44703 2.336 0
M  V30 4074 H 425.269 -5.33874 0.297097 0
M  V30 4075 H 425.612 -4.07378 -0.857263 0
M  V30 4076 H 426.145 -3.89012 0.831556 0
M  V30 4077 H 422.884 -5.71574 3.2091 0
M  V30 4078 H 422.404 -5.80767 1.49899 0
M  V30 4079 H 424.083 -6.16043 1.97738 0
M  V30 4080 N 424.215 -0.530993 -1.48385 0
M  V30 4081 C 425.626 -0.0907905 -1.86479 0
M  V30 4082 C 425.977 1.33213 -1.44044 0
M  V30 4083 O 425.102 1.99783 -0.831615 0
M  V30 4084 C 425.697 -0.157987 -3.38431 0
M  V30 4085 C 424.256 0.227026 -3.75715 0
M  V30 4086 C 423.403 -0.5173 -2.72432 0
M  V30 4087 H 426.354 -0.742186 -1.40276 0
M  V30 4088 H 426.375 0.630053 -3.75247 0
M  V30 4089 H 425.887 -1.19372 -3.69286 0
M  V30 4090 H 423.988 1.26486 -3.50474 0
M  V30 4091 H 424.101 -0.113288 -4.78966 0
M  V30 4092 H 422.465 0.0365527 -2.54674 0
M  V30 4093 H 423.248 -1.55368 -3.0613 0
M  V30 4094 N 425.693 1.55336 -0.266172 0
M  V30 4095 C 426.623 2.25146 0.618981 0
M  V30 4096 C 427.604 1.23845 1.16604 0
M  V30 4097 O 428.789 1.52544 1.20183 0
M  V30 4098 C 425.919 2.96572 1.80728 0
M  V30 4099 C 424.873 4.04726 1.39215 0
M  V30 4100 C 424.199 4.63678 2.66283 0
M  V30 4101 C 425.499 5.19407 0.548942 0
M  V30 4102 H 427.193 2.99377 0.0368116 0
M  V30 4103 H 424.739 1.43991 0.0162651 0
M  V30 4104 H 426.692 3.44116 2.43232 0
M  V30 4105 H 425.416 2.19861 2.41514 0
M  V30 4106 H 424.075 3.57979 0.790351 0
M  V30 4107 H 423.723 3.83646 3.25308 0
M  V30 4108 H 423.423 5.367 2.39222 0
M  V30 4109 H 424.947 5.13967 3.29651 0
M  V30 4110 H 426.361 5.63059 1.07876 0
M  V30 4111 H 424.758 5.98936 0.373593 0
M  V30 4112 H 425.828 4.8295 -0.434394 0
M  V30 4113 N 427.171 -0.0066808 1.57599 0
M  V30 4114 C 428.118 -1.00024 2.08 0
M  V30 4115 C 429.088 -1.34549 0.973943 0
M  V30 4116 O 430.273 -1.44502 1.24595 0
M  V30 4117 C 427.413 -2.2891 2.58252 0
M  V30 4118 C 426.526 -2.00346 3.82734 0
M  V30 4119 C 425.661 -3.23265 4.21513 0
M  V30 4120 C 424.7 -2.90357 5.3885 0
M  V30 4121 N 423.837 -4.05793 5.72954 0
M  V30 4122 H 428.677 -0.563499 2.92624 0
M  V30 4123 H 426.214 -0.266592 1.44664 0
M  V30 4124 H 428.172 -3.04247 2.85464 0
M  V30 4125 H 426.802 -2.70265 1.76512 0
M  V30 4126 H 425.854 -1.15406 3.62471 0
M  V30 4127 H 427.166 -1.72086 4.68175 0
M  V30 4128 H 426.32 -4.06953 4.49971 0
M  V30 4129 H 425.059 -3.54657 3.34768 0
M  V30 4130 H 424.064 -2.05075 5.10122 0
M  V30 4131 H 425.289 -2.60219 6.27266 0
M  V30 4132 H 423.235 -4.37094 4.89167 0
M  V30 4133 H 423.152 -3.81034 6.52954 0
M  V30 4134 H 424.42 -4.90289 6.06001 0
M  V30 4135 N 428.649 -1.55105 -0.279332 0
M  V30 4136 C 429.897 -1.75066 -1.00977 0
M  V30 4137 C 430.218 -0.551276 -1.87045 0
M  V30 4138 O 429.488 0.433984 -1.91032 0
M  V30 4139 H 428.068 -0.645578 -0.375816 0
M  V30 4140 H 430.73 -1.92497 -0.305089 0
M  V30 4141 H 429.826 -2.64894 -1.65038 0
M  V30 4142 N 430.127 0.543554 -1.4793 0
M  V30 4143 C 431.404 1.30458 -1.4574 0
M  V30 4144 C 431.784 2.1048 -0.161692 0
M  V30 4145 O 431.132 2.11831 0.856734 0
M  V30 4146 C 431.342 2.19754 -2.71126 0
M  V30 4147 C 432.69 2.80334 -3.18901 0
M  V30 4148 O 433.714 2.30049 -2.71948 0
M  V30 4149 O 432.573 3.71766 -4.00565 0
M  V30 4150 H 429.667 0.588117 -0.581418 0
M  V30 4151 H 432.213 0.561328 -1.60147 0
M  V30 4152 H 430.985 1.60316 -3.56952 0
M  V30 4153 H 430.608 3.01351 -2.59371 0
M  V30 4154 N 431.605 1.3629 0.791371 0
M  V30 4155 C 432.851 1.30605 1.55146 0
M  V30 4156 C 433.184 -0.115042 1.93859 0
M  V30 4157 O 432.459 -1.06798 1.62556 0
M  V30 4158 C 432.742 2.22692 2.82985 0
M  V30 4159 C 432.595 3.73489 2.50651 0
M  V30 4160 C 433.914 2.13588 3.84796 0
M  V30 4161 H 431.033 0.475761 0.562868 0
M  V30 4162 H 433.675 1.66825 0.909358 0
M  V30 4163 H 431.825 1.91933 3.37778 0
M  V30 4164 H 433.497 4.14758 2.01924 0
M  V30 4165 H 431.74 3.93021 1.83622 0
M  V30 4166 H 432.411 4.3333 3.41949 0
M  V30 4167 H 434.887 2.40659 3.39445 0
M  V30 4168 H 433.763 2.80195 4.71998 0
M  V30 4169 H 434.024 1.12256 4.27611 0
M  V30 4170 N 433.083 -1.0153 1.20538 0
M  V30 4171 C 434.311 -1.78746 1.04199 0
M  V30 4172 C 434.726 -1.84323 -0.408733 0
M  V30 4173 O 434.083 -1.29714 -1.28377 0
M  V30 4174 C 434.134 -3.23152 1.62035 0
M  V30 4175 O 433.855 -3.17918 3.0143 0
M  V30 4176 C 435.356 -4.16911 1.50666 0
M  V30 4177 H 432.576 -0.56208 0.366479 0
M  V30 4178 H 435.12 -1.27794 1.59653 0
M  V30 4179 H 433.275 -3.71248 1.10697 0
M  V30 4180 H 433.689 -4.08567 3.28897 0
M  V30 4181 H 435.163 -5.16072 1.95892 0
M  V30 4182 H 435.64 -4.36791 0.459363 0
M  V30 4183 H 436.246 -3.74698 2.01201 0
M  V30 4184 N 434.561 -1.01147 -1.20859 0
M  V30 4185 C 435.807 -0.698899 -1.90377 0
M  V30 4186 C 436.14 0.76904 -1.78324 0
M  V30 4187 O 435.415 1.55817 -1.16409 0
M  V30 4188 C 435.698 -1.12878 -3.41951 0
M  V30 4189 C 435.551 -2.65665 -3.62963 0
M  V30 4190 C 436.87 -0.696114 -4.3456 0
M  V30 4191 H 433.989 -0.255372 -0.691342 0
M  V30 4192 H 436.631 -1.25831 -1.42361 0
M  V30 4193 H 434.781 -0.652827 -3.82976 0
M  V30 4194 H 436.453 -3.21074 -3.31224 0
M  V30 4195 H 434.696 -3.06878 -3.06608 0
M  V30 4196 H 435.367 -2.90797 -4.69192 0
M  V30 4197 H 437.843 -1.10521 -4.01154 0
M  V30 4198 H 436.719 -1.025 -5.39245 0
M  V30 4199 H 436.98 0.402465 -4.40264 0
M  V30 4200 N 436.039 1.36541 -0.78704 0
M  V30 4201 C 437.455 1.52571 -0.46844 0
M  V30 4202 C 437.655 1.7415 1.01361 0
M  V30 4203 O 436.711 1.77163 1.79915 0
M  V30 4204 C 438.024 2.71299 -1.29682 0
M  V30 4205 C 439.572 2.85169 -1.29027 0
M  V30 4206 C 440.047 4.06898 -2.10233 0
M  V30 4207 N 441.538 4.1404 -2.07666 0
M  V30 4208 C 442.273 5.07301 -2.67271 0
M  V30 4209 N 441.769 6.06021 -3.35724 0
M  V30 4210 N 443.562 4.99898 -2.57018 0
M  V30 4211 H 435.713 1.20788 -1.74711 0
M  V30 4212 H 437.976 0.589364 -0.742532 0
M  V30 4213 H 437.682 2.61868 -2.34773 0
M  V30 4214 H 437.556 3.6539 -0.936479 0
M  V30 4215 H 439.943 2.94062 -0.247284 0
M  V30 4216 H 440.024 1.91992 -1.69035 0
M  V30 4217 H 439.668 3.98766 -3.1456 0
M  V30 4218 H 439.598 4.99218 -1.67597 0
M  V30 4219 H 442.089 3.43357 -1.57843 0
M  V30 4220 H 442.402 6.73741 -3.78541 0
M  V30 4221 H 440.747 6.06253 -3.39826 0
M  V30 4222 H 443.938 4.21724 -2.03142 0
M  V30 4223 H 444.111 5.72392 -3.03761 0
M  V30 4224 N 437.518 0.538854 1.48102 0
M  V30 4225 C 438.466 -0.232325 2.31437 0
M  V30 4226 C 439.46 -0.927004 1.41785 0
M  V30 4227 O 440.666 -0.850378 1.58646 0
M  V30 4228 H 437.041 -0.0937916 0.746128 0
M  V30 4229 H 439.012 0.489986 2.9435 0
M  V30 4230 C 437.761 -1.26074 3.24038 0
M  V30 4231 H 437.084 -0.735609 3.92974 0
M  V30 4232 H 438.524 -1.77157 3.85216 0
M  V30 4233 C 436.983 -2.29902 2.46265 0
M  V30 4234 O 437.513 -3.36502 2.19384 0
M  V30 4235 N 435.719 -2.03348 2.07601 0
M  V30 4236 H 435.266 -1.16675 2.29662 0
M  V30 4237 H 435.224 -2.73038 1.55877 0
M  V30 4238 N 438.996 -1.55193 0.274407 0
M  V30 4239 C 440.243 -1.99581 -0.342579 0
M  V30 4240 C 440.571 -1.1628 -1.55914 0
M  V30 4241 O 439.826 -0.22029 -1.94456 0
M  V30 4242 C 440.125 -3.49019 -0.769458 0
M  V30 4243 C 439.791 -4.49598 0.342389 0
M  V30 4244 C 438.453 -4.76821 0.647686 0
M  V30 4245 C 440.805 -5.0964 1.09163 0
M  V30 4246 C 438.133 -5.61354 1.70581 0
M  V30 4247 C 440.485 -5.95323 2.13948 0
M  V30 4248 C 439.149 -6.20867 2.45113 0
M  V30 4249 H 438.419 -0.730319 -0.125358 0
M  V30 4250 H 441.066 -1.87529 0.387971 0
M  V30 4251 H 439.371 -3.58544 -1.57967 0
M  V30 4252 H 441.068 -3.8077 -1.25757 0
M  V30 4253 H 437.658 -4.28496 0.094318 0
M  V30 4254 H 441.842 -4.88632 0.869024 0
M  V30 4255 H 437.098 -5.79392 1.9523 0
M  V30 4256 H 441.272 -6.40881 2.72478 0
M  V30 4257 H 438.899 -6.86162 3.27239 0
M  V30 4258 N 440.474 -0.00167713 -1.576 0
M  V30 4259 C 441.406 1.0174 -2.05382 0
M  V30 4260 C 442.419 1.30595 -0.972052 0
M  V30 4261 O 443.608 1.27542 -1.24882 0
M  V30 4262 C 440.708 2.35174 -2.44022 0
M  V30 4263 C 439.881 2.25234 -3.74951 0
M  V30 4264 C 438.94 3.4137 -4.00441 0
M  V30 4265 O 437.966 3.19483 -4.71083 0
M  V30 4266 N 439.168 4.64275 -3.48467 0
M  V30 4267 H 441.933 0.609902 -2.93428 0
M  V30 4268 H 439.494 0.185672 -1.60832 0
M  V30 4269 H 441.486 3.11643 -2.58187 0
M  V30 4270 H 440.056 2.67659 -1.61485 0
M  V30 4271 H 439.276 1.33664 -3.70847 0
M  V30 4272 H 440.564 2.15767 -4.60784 0
M  V30 4273 H 439.962 4.84955 -2.91264 0
M  V30 4274 H 438.519 5.38005 -3.67959 0
M  V30 4275 N 441.952 1.55251 0.271103 0
M  V30 4276 C 442.885 1.83191 1.36075 0
M  V30 4277 C 443.863 0.685091 1.47463 0
M  V30 4278 O 445.047 0.928292 1.64058 0
M  V30 4279 C 442.174 1.99521 2.73696 0
M  V30 4280 C 441.22 3.22081 2.79582 0
M  V30 4281 S 442.053 4.79388 2.38636 0
M  V30 4282 C 443.209 4.98693 3.78228 0
M  V30 4283 H 443.442 2.75327 1.12171 0
M  V30 4284 H 440.975 1.47046 0.470833 0
M  V30 4285 H 442.933 2.09613 3.52948 0
M  V30 4286 H 441.594 1.0827 2.9485 0
M  V30 4287 H 440.787 3.304 3.80594 0
M  V30 4288 H 440.389 3.10589 2.08352 0
M  V30 4289 H 442.681 4.84551 4.73515 0
M  V30 4290 H 443.624 6.00738 3.7486 0
M  V30 4291 H 444.032 4.26665 3.69618 0
M  V30 4292 N 443.43 -0.535701 1.48216 0
M  V30 4293 C 444.841 -1.11769 1.49548 0
M  V30 4294 C 445.192 -1.94442 0.26207 0
M  V30 4295 O 444.317 -2.06987 -0.631287 0
M  V30 4296 C 444.912 -2.03367 2.70975 0
M  V30 4297 C 443.471 -2.56795 2.75196 0
M  V30 4298 C 442.618 -1.33631 2.42977 0
M  V30 4299 H 445.569 -0.321232 1.55415 0
M  V30 4300 H 445.59 -2.87569 2.49167 0
M  V30 4301 H 445.102 -1.43169 3.60727 0
M  V30 4302 H 443.203 -3.20731 1.89638 0
M  V30 4303 H 443.316 -2.9632 3.76472 0
M  V30 4304 H 441.68 -1.6502 1.94012 0
M  V30 4305 H 442.463 -0.75194 3.34964 0
M  V30 4306 N 444.908 -1.36708 -0.784132 0
M  V30 4307 C 445.871 -1.31307 -1.87859 0
M  V30 4308 C 446.871 -0.219654 -1.59293 0
M  V30 4309 O 448.061 -0.47476 -1.67606 0
M  V30 4310 C 445.193 -1.03679 -3.24751 0
M  V30 4311 H 446.386 -2.28647 -1.94064 0
M  V30 4312 H 443.939 -1.21558 -0.98252 0
M  V30 4313 H 444.674 -0.0681936 -3.24228 0
M  V30 4314 H 444.459 -1.82811 -3.46876 0
M  V30 4315 H 445.949 -1.02518 -4.04821 0
M  V30 4316 N 446.386 1.0089 -1.21074 0
M  V30 4317 C 447.318 2.09737 -0.924291 0
M  V30 4318 C 448.331 1.62546 0.0909809 0
M  V30 4319 O 449.52 1.77942 -0.141021 0
M  V30 4320 C 446.62 3.36922 -0.36559 0
M  V30 4321 C 445.793 4.13216 -1.43426 0
M  V30 4322 C 444.852 5.18696 -0.885496 0
M  V30 4323 O 443.878 5.47176 -1.56801 0
M  V30 4324 N 445.08 5.79718 0.301227 0
M  V30 4325 H 447.845 2.34895 -1.8613 0
M  V30 4326 H 445.406 1.17341 -1.11546 0
M  V30 4327 H 447.398 4.04697 0.0158407 0
M  V30 4328 H 445.968 3.08952 0.476149 0
M  V30 4329 H 445.188 3.40301 -1.9897 0
M  V30 4330 H 446.476 4.60967 -2.15376 0
M  V30 4331 H 445.874 5.58926 0.872849 0
M  V30 4332 H 444.431 6.48804 0.624211 0
M  V30 4333 N 447.864 1.01787 1.20321 0
M  V30 4334 C 448.794 0.609625 2.25401 0
M  V30 4335 C 449.775 -0.375951 1.65893 0
M  V30 4336 O 450.96 -0.261101 1.92437 0
M  V30 4337 C 448.09 -0.0515995 3.47262 0
M  V30 4338 C 447.044 0.855095 4.19371 0
M  V30 4339 C 446.37 0.0595757 5.34667 0
M  V30 4340 C 447.67 2.16374 4.75373 0
M  V30 4341 H 449.364 1.48803 2.59804 0
M  V30 4342 H 446.91 0.716934 1.24884 0
M  V30 4343 H 448.863 -0.348764 4.19954 0
M  V30 4344 H 447.587 -0.964726 3.12027 0
M  V30 4345 H 446.246 1.13628 3.48546 0
M  V30 4346 H 445.894 -0.85524 4.95676 0
M  V30 4347 H 445.594 0.663406 5.83843 0
M  V30 4348 H 447.118 -0.231105 6.10162 0
M  V30 4349 H 448.532 1.92885 5.39878 0
M  V30 4350 H 446.929 2.71853 5.34991 0
M  V30 4351 H 447.999 2.82589 3.94045 0
M  V30 4352 N 449.342 -1.36122 0.79427 0
M  V30 4353 C 450.57 -2.03362 0.380989 0
M  V30 4354 C 450.985 -1.59881 -1.00416 0
M  V30 4355 O 450.342 -0.790515 -1.6449 0
M  V30 4356 C 450.393 -3.58804 0.440649 0
M  V30 4357 O 450.114 -4.007 1.77118 0
M  V30 4358 C 451.615 -4.43296 0.0186117 0
M  V30 4359 H 448.835 -0.652526 0.156367 0
M  V30 4360 H 451.379 -1.73998 1.07447 0
M  V30 4361 H 449.534 -3.8686 -0.204458 0
M  V30 4362 H 449.948 -4.95309 1.72538 0
M  V30 4363 H 451.422 -5.51887 0.111488 0
M  V30 4364 H 451.899 -4.2684 -1.03461 0
M  V30 4365 H 452.505 -4.20512 0.636395 0
M  V30 4366 N 450.82 -0.546701 -1.47814 0
M  V30 4367 C 452.066 -0.0187684 -2.02791 0
M  V30 4368 C 452.399 1.32338 -1.42128 0
M  V30 4369 O 451.674 1.85867 -0.573023 0
M  V30 4370 C 451.957 0.0854985 -3.59998 0
M  V30 4371 C 451.81 -1.283 -4.31114 0
M  V30 4372 C 453.129 0.80412 -4.32691 0
M  V30 4373 H 450.248 -0.0082946 -0.736953 0
M  V30 4374 H 452.89 -0.706962 -1.76358 0
M  V30 4375 H 451.04 0.671609 -3.82651 0
M  V30 4376 H 452.712 -1.91151 -4.19832 0
M  V30 4377 H 450.955 -1.86049 -3.91878 0
M  V30 4378 H 451.626 -1.16287 -5.39612 0
M  V30 4379 H 454.102 0.306576 -4.14969 0
M  V30 4380 H 452.978 0.846011 -5.42341 0
M  V30 4381 H 453.239 1.85802 -4.01161 0
M  V30 4382 N 452.299 1.55045 -0.282633 0
M  V30 4383 C 453.547 1.99365 0.331334 0
M  V30 4384 C 453.868 1.1725 1.55812 0
M  V30 4385 O 453.138 0.263871 1.94115 0
M  V30 4386 H 451.718 0.736397 0.125414 0
M  V30 4387 H 454.38 1.90964 -0.389711 0
M  V30 4388 H 453.476 3.0596 0.616036 0
M  V30 4389 N 453.777 0.010035 1.57597 0
M  V30 4390 C 455.026 -0.671945 1.90178 0
M  V30 4391 C 455.339 -1.74376 0.886131 0
M  V30 4392 O 456.545 -2.48107 1.10252 0
M  V30 4393 C 455.001 -1.24636 3.3763 0
M  V30 4394 C 454.609 -0.208838 4.47513 0
M  V30 4395 C 456.353 -1.90595 3.79307 0
M  V30 4396 C 454.26 -0.793814 5.86048 0
M  V30 4397 H 453.19 -0.25474 0.709665 0
M  V30 4398 H 455.841 0.0722206 1.83358 0
M  V30 4399 H 454.223 -2.04152 3.3932 0
M  V30 4400 H 455.397 0.562463 4.57354 0
M  V30 4401 H 453.712 0.350889 4.14919 0
M  V30 4402 H 456.309 -2.35284 4.80151 0
M  V30 4403 H 456.652 -2.74074 3.13352 0
M  V30 4404 H 457.185 -1.17798 3.79958 0
M  V30 4405 H 453.924 0.00240855 6.555 0
M  V30 4406 H 453.444 -1.53404 5.79851 0
M  V30 4407 H 455.123 -1.2894 6.34022 0
M  V30 4408 N 455.255 -1.55392 -0.262866 0
M  V30 4409 C 456.48 -1.80847 -1.01533 0
M  V30 4410 C 456.905 -0.584946 -1.78774 0
M  V30 4411 O 456.263 0.465701 -1.75217 0
M  V30 4412 C 456.311 -3.03866 -1.94159 0
M  V30 4413 O 455.415 -2.79662 -3.03089 0
M  V30 4414 H 454.756 -0.597441 -0.289759 0
M  V30 4415 H 457.286 -2.02553 -0.288698 0
M  V30 4416 H 457.296 -3.32872 -2.35924 0
M  V30 4417 H 455.971 -3.92564 -1.37354 0
M  V30 4418 H 454.548 -2.61781 -2.65566 0
M  V30 4419 N 456.733 0.527833 -1.48498 0
M  V30 4420 C 457.683 1.62844 -1.5958 0
M  V30 4421 C 458.667 1.54397 -0.452809 0
M  V30 4422 O 459.859 1.62381 -0.704364 0
M  V30 4423 C 456.988 3.01557 -1.64067 0
M  V30 4424 C 456.074 3.151 -2.83853 0
M  V30 4425 N 456.465 2.9861 -4.08247 0
M  V30 4426 C 454.763 3.46158 -2.8123 0
M  V30 4427 C 455.464 3.15626 -4.88626 0
M  V30 4428 N 454.44 3.43298 -4.21483 0
M  V30 4429 H 458.242 1.48708 -2.53502 0
M  V30 4430 H 455.756 0.733343 -1.44899 0
M  V30 4431 H 457.753 3.8062 -1.70101 0
M  V30 4432 H 456.413 3.16783 -0.712636 0
M  V30 4433 H 457.424 2.75329 -4.3865 0
M  V30 4434 H 454.101 3.67728 -1.97692 0
M  V30 4435 H 455.491 3.07596 -5.97356 0
M  V30 4436 N 458.211 1.37122 0.776871 0
M  V30 4437 C 459.143 1.28342 1.89897 0
M  V30 4438 C 460.156 0.200277 1.61563 0
M  V30 4439 O 461.345 0.456012 1.72577 0
M  V30 4440 C 458.445 0.960427 3.25006 0
M  V30 4441 C 457.618 2.148 3.81025 0
M  V30 4442 C 456.677 1.79608 4.94598 0
M  V30 4443 O 455.703 2.51845 5.10454 0
M  V30 4444 N 456.905 0.737171 5.758 0
M  V30 4445 H 459.67 2.25027 1.97947 0
M  V30 4446 H 457.231 1.3068 0.955739 0
M  V30 4447 H 459.223 0.705942 3.98495 0
M  V30 4448 H 457.793 0.0823066 3.12492 0
M  V30 4449 H 457.013 2.56454 2.99374 0
M  V30 4450 H 458.301 2.9411 4.15183 0
M  V30 4451 H 457.699 0.137637 5.65533 0
M  V30 4452 H 456.256 0.542534 6.49538 0
M  V30 4453 N 459.689 -1.00246 1.21608 0
M  V30 4454 C 460.936 -1.74061 1.03485 0
M  V30 4455 C 461.264 -1.89658 -0.431308 0
M  V30 4456 O 460.519 -1.42976 -1.33627 0
M  V30 4457 C 460.818 -3.15448 1.68009 0
M  V30 4458 C 460.484 -3.19792 3.17874 0
M  V30 4459 C 459.146 -3.20685 3.58768 0
M  V30 4460 C 461.498 -3.16835 4.13842 0
M  V30 4461 C 458.826 -3.16309 4.94131 0
M  V30 4462 C 461.178 -3.14001 5.49169 0
M  V30 4463 C 459.842 -3.13204 5.89457 0
M  V30 4464 H 459.112 -0.636934 0.378677 0
M  V30 4465 H 461.759 -1.17473 1.51236 0
M  V30 4466 H 460.064 -3.75284 1.12557 0
M  V30 4467 H 461.761 -3.71285 1.51487 0
M  V30 4468 H 458.351 -3.19842 2.85305 0
M  V30 4469 H 462.535 -3.15303 3.83272 0
M  V30 4470 H 457.791 -3.14032 5.24589 0
M  V30 4471 H 461.965 -3.10667 6.23265 0
M  V30 4472 H 459.592 -3.09568 6.94314 0
M  V30 4473 N 461.167 -1.02423 -1.1978 0
M  V30 4474 C 462.115 -0.594474 -2.24875 0
M  V30 4475 C 463.109 0.370598 -1.65296 0
M  V30 4476 O 464.315 0.239684 -1.78397 0
M  V30 4477 H 460.69 -0.173961 -0.731602 0
M  V30 4478 H 462.661 -1.4916 -2.58445 0
M  V30 4479 C 461.41 0.0436512 -3.47673 0
M  V30 4480 H 460.733 -0.689963 -3.93801 0
M  V30 4481 H 462.173 0.307362 -4.22884 0
M  V30 4482 C 460.632 1.28881 -3.11274 0
M  V30 4483 O 461.162 2.38135 -3.23503 0
M  V30 4484 N 459.368 1.1758 -2.6575 0
M  V30 4485 H 458.915 0.286769 -2.55999 0
M  V30 4486 H 458.873 2.00988 -2.41767 0
M  V30 4487 N 462.645 1.35699 -0.801477 0
M  V30 4488 C 463.922 1.9324 -0.302937 0
M  V30 4489 C 464.302 1.73209 1.20672 0
M  V30 4490 O 463.65 1.09809 2.00385 0
M  V30 4491 C 463.86 3.41728 -0.708747 0
M  V30 4492 C 465.208 4.18868 -0.695328 0
M  V30 4493 O 466.232 3.5022 -0.649971 0
M  V30 4494 O 465.091 5.41342 -0.749081 0
M  V30 4495 H 462.185 0.82331 -0.0780367 0
M  V30 4496 H 464.731 1.44806 -0.884832 0
M  V30 4497 H 463.503 3.50015 -1.74944 0
M  V30 4498 H 463.126 3.97471 -0.101384 0
M  V30 4499 N 464.123 0.554532 1.47522 0
M  V30 4500 C 465.055 -0.232106 2.28022 0
M  V30 4501 C 466.068 -0.881865 1.36847 0
M  V30 4502 O 467.257 -0.756168 1.61692 0
M  V30 4503 C 464.357 -1.34604 3.11022 0
M  V30 4504 C 463.53 -0.793582 4.30141 0
M  V30 4505 C 462.589 -1.79168 4.94758 0
M  V30 4506 O 461.615 -1.33886 5.5323 0
M  V30 4507 N 462.817 -3.12495 4.89211 0
M  V30 4508 H 465.582 0.458407 2.96173 0
M  V30 4509 H 463.143 0.390433 1.57122 0
M  V30 4510 H 465.135 -2.01243 3.51118 0
M  V30 4511 H 463.705 -1.93983 2.45131 0
M  V30 4512 H 462.925 0.0495025 3.94169 0
M  V30 4513 H 464.213 -0.403776 5.07195 0
M  V30 4514 H 463.611 -3.51931 4.42901 0
M  V30 4515 H 462.168 -3.74698 5.33333 0
M  V30 4516 N 465.601 -1.54893 0.290851 0
M  V30 4517 C 466.531 -2.26103 -0.583084 0
M  V30 4518 C 467.512 -1.25684 -1.14619 0
M  V30 4519 O 468.697 -1.54436 -1.17741 0
M  V30 4520 C 465.827 -2.99409 -1.75987 0
M  V30 4521 C 464.781 -4.0689 -1.32758 0
M  V30 4522 C 464.107 -4.67856 -2.58872 0
M  V30 4523 C 465.407 -5.20215 -0.46624 0
M  V30 4524 H 467.101 -2.99398 0.0108214 0
M  V30 4525 H 464.647 -1.43998 0.00664468 0
M  V30 4526 H 466.6 -3.47943 -2.37727 0
M  V30 4527 H 465.324 -2.23675 -2.37985 0
M  V30 4528 H 463.983 -3.59191 -0.733299 0
M  V30 4529 H 463.631 -3.88772 -3.19163 0
M  V30 4530 H 463.331 -5.40438 -2.30653 0
M  V30 4531 H 464.855 -5.19147 -3.21433 0
M  V30 4532 H 466.269 -5.64704 -0.989047 0
M  V30 4533 H 464.666 -5.99455 -0.27826 0
M  V30 4534 H 465.736 -4.82198 0.511173 0
M  V30 4535 N 467.08 -0.0183926 -1.57589 0
M  V30 4536 C 468.305 0.676634 -1.96052 0
M  V30 4537 C 468.73 1.6548 -0.894307 0
M  V30 4538 O 468.088 1.80712 0.145849 0
M  V30 4539 C 468.136 1.36872 -3.33614 0
M  V30 4540 O 467.24 2.48372 -3.29219 0
M  V30 4541 H 466.581 0.1786 -0.63953 0
M  V30 4542 H 469.111 -0.077056 -2.04455 0
M  V30 4543 H 469.121 1.72797 -3.69601 0
M  V30 4544 H 467.796 0.651636 -4.10763 0
M  V30 4545 H 466.373 2.14639 -3.04934 0
M  V30 4546 N 468.558 1.5553 0.254621 0
M  V30 4547 C 469.804 1.77262 0.985193 0
M  V30 4548 C 470.137 0.582286 1.85265 0
M  V30 4549 O 469.412 -0.419666 1.89919 0
M  V30 4550 C 469.695 3.0881 1.85225 0
M  V30 4551 C 469.548 4.38233 1.0135 0
M  V30 4552 C 470.867 3.3653 2.83612 0
M  V30 4553 H 467.986 0.644906 0.356742 0
M  V30 4554 H 470.628 1.88264 0.256236 0
M  V30 4555 H 468.778 2.99562 2.47376 0
M  V30 4556 H 470.45 4.59463 0.411269 0
M  V30 4557 H 468.693 4.32636 0.317574 0
M  V30 4558 H 469.364 5.26644 1.65379 0
M  V30 4559 H 471.84 3.45691 2.31596 0
M  V30 4560 H 470.716 4.29805 3.41407 0
M  V30 4561 H 470.977 2.57064 3.59681 0
M  V30 4562 N 470.036 -0.519951 1.48776 0
M  V30 4563 C 471.261 -1.30447 1.6124 0
M  V30 4564 C 471.686 -1.86055 0.276591 0
M  V30 4565 O 471.044 -1.64915 -0.753183 0
M  V30 4566 C 471.092 -2.42406 2.66967 0
M  V30 4567 O 470.196 -3.45728 2.24824 0
M  V30 4568 H 469.537 -0.385924 0.540332 0
M  V30 4569 H 472.067 -0.624572 1.94834 0
M  V30 4570 H 472.077 -2.88447 2.88552 0
M  V30 4571 H 470.752 -2.01294 3.63941 0
M  V30 4572 H 469.329 -3.05737 2.13494 0
M  V30 4573 N 471.514 -1.37532 -0.769588 0
M  V30 4574 C 472.477 -1.33292 -1.86456 0
M  V30 4575 C 473.477 -0.236537 -1.59051 0
M  V30 4576 O 474.667 -0.492511 -1.67093 0
M  V30 4577 C 471.799 -1.07118 -3.23633 0
M  V30 4578 H 472.992 -2.30692 -1.91628 0
M  V30 4579 H 470.545 -1.22593 -0.969572 0
M  V30 4580 H 471.28 -0.102578 -3.24138 0
M  V30 4581 H 471.065 -1.86479 -3.44917 0
M  V30 4582 H 472.555 -1.06806 -4.03711 0
M  V30 4583 N 472.992 0.995999 -1.22138 0
M  V30 4584 C 474.269 1.70834 -0.952642 0
M  V30 4585 C 474.649 2.04257 0.533119 0
M  V30 4586 O 473.997 1.72343 1.50034 0
M  V30 4587 C 474.207 2.96119 -1.84701 0
M  V30 4588 C 475.555 3.68962 -2.10124 0
M  V30 4589 O 476.579 3.0612 -1.82124 0
M  V30 4590 O 475.438 4.82017 -2.57531 0
M  V30 4591 H 472.532 0.745498 -0.357997 0
M  V30 4592 H 475.078 1.05262 -1.33109 0
M  V30 4593 H 473.85 2.67898 -2.85213 0
M  V30 4594 H 473.473 3.6943 -1.46995 0
M  V30 4595 N 474.47 1.03057 1.19235 0
M  V30 4596 C 475.7 0.746613 1.92638 0
M  V30 4597 C 476.108 -0.698708 1.75826 0
M  V30 4598 O 475.451 -1.487 1.07861 0
M  V30 4599 C 475.513 1.02024 3.44719 0
M  V30 4600 C 475.177 2.45745 3.85303 0
M  V30 4601 C 476.174 3.43887 3.8992 0
M  V30 4602 C 473.859 2.8019 4.16892 0
M  V30 4603 C 475.853 4.74529 4.2556 0
M  V30 4604 C 473.54 4.1104 4.52205 0
M  V30 4605 C 474.538 5.0802 4.56513 0
M  V30 4606 O 474.226 6.36527 4.91008 0
M  V30 4607 H 473.958 0.272401 0.618687 0
M  V30 4608 H 476.512 1.37853 1.52269 0
M  V30 4609 H 474.742 0.331184 3.85279 0
M  V30 4610 H 476.431 0.725677 3.9936 0
M  V30 4611 H 477.197 3.18614 3.65664 0
M  V30 4612 H 473.076 2.05382 4.12722 0
M  V30 4613 H 476.62 5.50222 4.28838 0
M  V30 4614 H 472.517 4.36086 4.7592 0
M  V30 4615 H 473.285 6.41025 5.08949 0
M  V30 4616 N 475.948 -1.35272 0.808662 0
M  V30 4617 C 476.88 -2.28507 0.178149 0
M  V30 4618 C 477.893 -1.50377 -0.623754 0
M  V30 4619 O 479.082 -1.72583 -0.455774 0
M  V30 4620 C 476.182 -3.30038 -0.769959 0
M  V30 4621 C 475.355 -4.37398 -0.0139749 0
M  V30 4622 C 474.414 -5.18775 -0.880875 0
M  V30 4623 O 473.44 -5.68236 -0.331059 0
M  V30 4624 N 474.642 -5.37087 -2.20267 0
M  V30 4625 H 477.407 -2.83255 0.979106 0
M  V30 4626 H 474.968 -1.47643 0.664308 0
M  V30 4627 H 476.96 -3.81371 -1.35418 0
M  V30 4628 H 475.53 -2.75789 -1.47171 0
M  V30 4629 H 474.75 -3.86971 0.751468 0
M  V30 4630 H 476.038 -5.06268 0.506965 0
M  V30 4631 H 475.436 -4.9855 -2.67328 0
M  V30 4632 H 473.993 -5.91593 -2.73608 0
M  V30 4633 N 477.426 -0.562348 -1.47226 0
M  V30 4634 C 478.842 -0.222492 -1.58042 0
M  V30 4635 C 479.042 1.27505 -1.56028 0
M  V30 4636 O 478.098 2.05555 -1.46641 0
M  V30 4637 C 479.411 -0.853694 -2.88327 0
M  V30 4638 C 480.959 -0.825397 -3.01921 0
M  V30 4639 C 481.434 -1.43576 -4.34914 0
M  V30 4640 N 482.925 -1.39918 -4.41562 0
M  V30 4641 C 483.66 -1.84103 -5.43041 0
M  V30 4642 N 483.156 -2.36167 -6.51304 0
M  V30 4643 N 484.949 -1.75142 -5.34118 0
M  V30 4644 H 477.1 -1.53525 -1.46778 0
M  V30 4645 H 479.363 -0.640527 -0.698877 0
M  V30 4646 H 479.069 -1.90635 -2.95552 0
M  V30 4647 H 478.943 -0.34977 -3.75575 0
M  V30 4648 H 481.33 0.218583 -2.94289 0
M  V30 4649 H 481.411 -1.36713 -2.16202 0
M  V30 4650 H 481.055 -2.47884 -4.43301 0
M  V30 4651 H 480.985 -0.869427 -5.19373 0
M  V30 4652 H 483.476 -1.0184 -3.63919 0
M  V30 4653 H 483.789 -2.67793 -7.24919 0
M  V30 4654 H 482.134 -2.40181 -6.52179 0
M  V30 4655 H 485.325 -1.34241 -4.48439 0
M  V30 4656 H 485.498 -2.09895 -6.13065 0
M  V30 4657 N 478.904 1.54736 -0.299062 0
M  V30 4658 C 480.15 2.00397 0.311244 0
M  V30 4659 C 480.483 1.18716 1.53688 0
M  V30 4660 O 479.758 0.263154 1.92712 0
M  V30 4661 C 480.041 3.53817 0.669761 0
M  V30 4662 C 479.894 4.46239 -0.564882 0
M  V30 4663 C 481.213 4.13856 1.49702 0
M  V30 4664 H 478.332 0.728493 0.111653 0
M  V30 4665 H 480.974 1.85506 -0.410774 0
M  V30 4666 H 479.124 3.66637 1.28491 0
M  V30 4667 H 480.796 4.45328 -1.20337 0
M  V30 4668 H 479.039 4.16916 -1.19849 0
M  V30 4669 H 479.71 5.5134 -0.269918 0
M  V30 4670 H 482.186 4.04461 0.977284 0
M  V30 4671 H 481.062 5.21365 1.71666 0
M  V30 4672 H 481.323 3.65608 2.48563 0
M  V30 4673 N 480.382 0.0267497 1.57577 0
M  V30 4674 C 481.629 -0.652404 1.91703 0
M  V30 4675 C 481.957 -1.72271 0.902936 0
M  V30 4676 O 481.212 -1.955 -0.0884843 0
M  V30 4677 C 481.511 -1.30914 3.3256 0
M  V30 4678 C 481.177 -0.369441 4.49384 0
M  V30 4679 C 479.839 -0.110791 4.81072 0
M  V30 4680 C 482.191 0.275971 5.20469 0
M  V30 4681 C 479.519 0.801116 5.81205 0
M  V30 4682 C 481.871 1.17592 6.21575 0
M  V30 4683 C 480.535 1.44348 6.51705 0
M  V30 4684 H 479.805 -0.238732 0.70149 0
M  V30 4685 H 482.452 0.0880091 1.91298 0
M  V30 4686 H 480.757 -2.12425 3.29216 0
M  V30 4687 H 482.454 -1.84115 3.56234 0
M  V30 4688 H 479.044 -0.581211 4.24641 0
M  V30 4689 H 483.228 0.0892 4.9622 0
M  V30 4690 H 478.484 1.01614 6.02897 0
M  V30 4691 H 482.658 1.68223 6.75777 0
M  V30 4692 H 480.285 2.15176 7.29111 0
M  V30 4693 N 481.861 -1.55662 -0.24637 0
M  V30 4694 C 483.107 -1.78698 -0.971525 0
M  V30 4695 C 483.462 -0.59577 -1.82944 0
M  V30 4696 O 482.755 0.41097 -1.87141 0
M  V30 4697 C 482.949 -3.04885 -1.86494 0
M  V30 4698 C 482.778 -4.36165 -1.09501 0
M  V30 4699 C 481.548 -4.98929 -0.799895 0
M  V30 4700 C 483.746 -5.12126 -0.472334 0
M  V30 4701 N 481.728 -6.139 -0.00595299 0
M  V30 4702 C 483.099 -6.1972 0.18616 0
M  V30 4703 C 485.154 -4.96426 -0.382854 0
M  V30 4704 C 483.857 -7.13321 0.925542 0
M  V30 4705 C 485.883 -5.90405 0.342999 0
M  V30 4706 C 485.245 -6.97407 0.990128 0
M  V30 4707 H 481.344 -0.705852 -0.336597 0
M  V30 4708 H 483.928 -1.93157 -0.244615 0
M  V30 4709 H 482.099 -2.91753 -2.56388 0
M  V30 4710 H 483.831 -3.16212 -2.5257 0
M  V30 4711 H 480.586 -4.60365 -1.11181 0
M  V30 4712 H 481.01 -6.75938 0.379127 0
M  V30 4713 H 485.652 -4.13777 -0.868834 0
M  V30 4714 H 483.37 -7.9547 1.42312 0
M  V30 4715 H 486.956 -5.80333 0.412907 0
M  V30 4716 H 485.836 -7.68874 1.54282 0
M  V30 4717 N 483.339 0.512053 -1.4905 0
M  V30 4718 C 484.564 1.2959 -1.6193 0
M  V30 4719 C 484.989 1.85906 -0.286454 0
M  V30 4720 O 484.347 1.65312 0.744426 0
M  V30 4721 C 484.395 2.40987 -2.68249 0
M  V30 4722 O 483.499 3.44531 -2.26654 0
M  V30 4723 H 482.84 0.383053 -0.542371 0
M  V30 4724 H 485.37 0.614231 -1.95162 0
M  V30 4725 H 485.38 2.86913 -2.90078 0
M  V30 4726 H 484.055 1.99361 -3.65004 0
M  V30 4727 H 482.632 3.046 -2.15112 0
M  V30 4728 N 484.817 1.37938 0.762283 0
M  V30 4729 C 486.042 1.37059 1.55659 0
M  V30 4730 C 486.467 -0.0396123 1.88058 0
M  V30 4731 O 485.825 -1.01929 1.49934 0
M  V30 4732 C 485.873 2.22494 2.83776 0
M  V30 4733 O 484.977 1.63607 3.78559 0
M  V30 4734 H 484.318 0.467892 0.47114 0
M  V30 4735 H 486.848 1.81587 0.942725 0
M  V30 4736 H 486.858 2.36045 3.32786 0
M  V30 4737 H 485.533 3.24993 2.59524 0
M  V30 4738 H 484.11 1.5915 3.37233 0
M  V30 4739 N 486.295 -0.989507 1.22664 0
M  V30 4740 C 487.541 -1.7321 1.05481 0
M  V30 4741 C 487.874 -1.89852 -0.408635 0
M  V30 4742 O 487.149 -1.44416 -1.30285 0
M  V30 4743 C 487.432 -3.1357 1.77047 0
M  V30 4744 C 487.285 -3.04555 3.31008 0
M  V30 4745 C 488.604 -4.12812 1.5256 0
M  V30 4746 H 485.723 -0.628697 0.384589 0
M  V30 4747 H 488.365 -1.15258 1.51049 0
M  V30 4748 H 486.515 -3.63046 1.3831 0
M  V30 4749 H 488.187 -2.62674 3.7921 0
M  V30 4750 H 486.43 -2.41278 3.6051 0
M  V30 4751 H 487.101 -4.03894 3.76263 0
M  V30 4752 H 489.577 -3.72106 1.86215 0
M  V30 4753 H 488.453 -5.09132 2.05124 0
M  V30 4754 H 488.714 -4.39711 0.458936 0
M  V30 4755 N 487.773 -1.03688 -1.18687 0
M  V30 4756 C 488.706 -0.569112 -2.2099 0
M  V30 4757 C 489.684 0.394315 -1.57746 0
M  V30 4758 O 490.868 0.309519 -1.85941 0
M  V30 4759 C 487.995 0.169104 -3.38278 0
M  V30 4760 C 487.041 -0.746989 -4.19908 0
M  V30 4761 S 487.874 -2.22773 -4.86963 0
M  V30 4762 C 489.03 -1.50025 -6.07654 0
M  V30 4763 H 489.263 -1.43589 -2.60326 0
M  V30 4764 H 486.796 -0.847507 -1.29061 0
M  V30 4765 H 488.754 0.588868 -4.06254 0
M  V30 4766 H 487.415 1.01172 -2.9736 0
M  V30 4767 H 486.608 -0.176626 -5.0369 0
M  V30 4768 H 486.21 -1.10543 -3.5729 0
M  V30 4769 H 488.502 -0.791217 -6.72864 0
M  V30 4770 H 489.445 -2.31498 -6.69189 0
M  V30 4771 H 489.853 -0.994245 -5.55675 0
M  V30 4772 N 489.251 1.34841 -0.815825 0
M  V30 4773 C 490.198 2.29644 -0.230664 0
M  V30 4774 C 491.168 1.53253 0.640533 0
M  V30 4775 O 492.353 1.81653 0.583672 0
M  V30 4776 C 489.493 3.39715 0.607275 0
M  V30 4777 C 488.606 4.31056 -0.28538 0
M  V30 4778 C 487.741 5.28225 0.561446 0
M  V30 4779 C 486.78 6.11204 -0.331035 0
M  V30 4780 N 485.917 7.00483 0.476302 0
M  V30 4781 H 490.757 2.79095 -1.0445 0
M  V30 4782 H 488.294 1.37351 -0.526595 0
M  V30 4783 H 490.252 4.02208 1.10835 0
M  V30 4784 H 488.882 2.91517 1.38629 0
M  V30 4785 H 487.934 3.69487 -0.904621 0
M  V30 4786 H 489.246 4.89239 -0.97193 0
M  V30 4787 H 488.4 5.96135 1.12728 0
M  V30 4788 H 487.139 4.70562 1.28153 0
M  V30 4789 H 486.144 5.42232 -0.909069 0
M  V30 4790 H 487.369 6.70947 -1.04912 0
M  V30 4791 H 485.315 6.45296 1.18019 0
M  V30 4792 H 485.232 7.55847 -0.152008 0
M  V30 4793 H 486.5 7.7273 1.02512 0
M  V30 4794 N 490.729 0.570148 1.46925 0
M  V30 4795 C 492.006 -0.0153259 1.95594 0
M  V30 4796 C 492.386 -1.47232 1.51281 0
M  V30 4797 O 491.734 -2.15574 0.757624 0
M  V30 4798 C 491.944 0.143624 3.48704 0
M  V30 4799 C 493.292 0.00494484 4.246 0
M  V30 4800 O 494.316 0.0718214 3.56128 0
M  V30 4801 O 493.175 -0.141175 5.46318 0
M  V30 4802 H 490.269 -0.0568819 0.825041 0
M  V30 4803 H 492.815 0.637583 1.57267 0
M  V30 4804 H 491.587 1.15699 3.73804 0
M  V30 4805 H 491.21 -0.5463 3.93829 0
M  V30 4806 N 492.207 -1.54576 0.307264 0
M  V30 4807 C 493.14 -2.19946 -0.608195 0
M  V30 4808 C 494.118 -1.17096 -1.12815 0
M  V30 4809 O 495.302 -1.45766 -1.19518 0
M  V30 4810 C 492.429 -2.84826 -1.8328 0
M  V30 4811 C 491.475 -4.01256 -1.44554 0
M  V30 4812 S 492.308 -5.33197 -0.49612 0
M  V30 4813 C 493.464 -6.01563 -1.72838 0
M  V30 4814 H 493.697 -2.97253 -0.0528544 0
M  V30 4815 H 491.23 -1.54129 0.0913837 0
M  V30 4816 H 493.188 -3.22832 -2.53554 0
M  V30 4817 H 491.849 -2.07353 -2.35931 0
M  V30 4818 H 491.042 -4.45457 -2.35762 0
M  V30 4819 H 490.644 -3.6484 -0.822671 0
M  V30 4820 H 492.936 -6.22751 -2.6681 0
M  V30 4821 H 493.879 -6.9552 -1.32882 0
M  V30 4822 H 494.287 -5.31279 -1.90795 0
M  V30 4823 N 493.685 -0.035106 -1.57561 0
M  V30 4824 C 494.633 0.962707 -2.11742 0
M  V30 4825 C 495.627 1.33296 -1.0454 0
M  V30 4826 O 496.833 1.31449 -1.22968 0
M  V30 4827 H 493.208 0.32826 -0.676572 0
M  V30 4828 H 495.179 0.48048 -2.94506 0
M  V30 4829 C 493.928 2.23388 -2.66445 0
M  V30 4830 H 493.251 1.95774 -3.48587 0
M  V30 4831 H 494.691 2.91402 -3.07995 0
M  V30 4832 C 493.15 2.96769 -1.59467 0
M  V30 4833 O 493.68 3.89105 -0.998 0
M  V30 4834 N 491.886 2.59212 -1.31369 0
M  V30 4835 H 491.433 1.84202 -1.80076 0
M  V30 4836 H 491.391 3.08618 -0.600173 0
M  V30 4837 N 495.163 1.55791 0.238111 0
M  V30 4838 C 496.409 1.78297 0.966337 0
M  V30 4839 C 496.742 0.601903 1.84637 0
M  V30 4840 O 496.017 -0.399499 1.90353 0
M  V30 4841 C 496.3 3.10758 1.81939 0
M  V30 4842 C 496.153 4.39283 0.966958 0
M  V30 4843 C 497.472 3.39519 2.80027 0
M  V30 4844 H 494.591 0.648654 0.349882 0
M  V30 4845 H 497.233 1.88525 0.236253 0
M  V30 4846 H 495.383 3.02168 2.44185 0
M  V30 4847 H 497.055 4.59873 0.362514 0
M  V30 4848 H 495.298 4.32948 0.271669 0
M  V30 4849 H 495.969 5.28368 1.59784 0
M  V30 4850 H 498.445 3.48128 2.27917 0
M  V30 4851 H 497.321 4.33402 3.36829 0
M  V30 4852 H 497.582 2.60864 3.56934 0
M  V30 4853 N 496.642 -0.504142 1.49319 0
M  V30 4854 C 497.89 -1.25598 1.58334 0
M  V30 4855 C 498.211 -1.93114 0.270538 0
M  V30 4856 O 497.481 -1.82585 -0.709891 0
M  V30 4857 H 496.061 -0.466571 0.58337 0
M  V30 4858 H 498.723 -0.584547 1.85928 0
M  V30 4859 H 497.819 -2.02159 2.37778 0
M  V30 4860 N 498.12 -1.38341 -0.754957 0
M  V30 4861 C 499.367 -1.34473 -1.51404 0
M  V30 4862 C 499.695 0.0656458 -1.94389 0
M  V30 4863 O 498.95 1.04244 -1.65625 0
M  V30 4864 C 499.249 -2.2452 -2.78075 0
M  V30 4865 C 498.915 -3.72512 -2.54059 0
M  V30 4866 C 497.577 -4.1284 -2.47218 0
M  V30 4867 C 499.929 -4.66197 -2.33044 0
M  V30 4868 C 497.257 -5.44945 -2.17376 0
M  V30 4869 C 499.609 -5.98558 -2.04723 0
M  V30 4870 C 498.273 -6.37972 -1.96337 0
M  V30 4871 H 497.543 -0.492072 -0.554027 0
M  V30 4872 H 500.19 -1.70687 -0.868223 0
M  V30 4873 H 498.495 -1.81357 -3.473 0
M  V30 4874 H 500.192 -2.18832 -3.36026 0
M  V30 4875 H 496.782 -3.40538 -2.60253 0
M  V30 4876 H 500.966 -4.35888 -2.37309 0
M  V30 4877 H 496.222 -5.74426 -2.09391 0
M  V30 4878 H 500.396 -6.70693 -1.87465 0
M  V30 4879 H 498.023 -7.40258 -1.72978 0
M  V30 4880 N 499.598 0.982988 -1.23187 0
M  V30 4881 C 500.844 1.72648 -1.06398 0
M  V30 4882 C 501.177 1.90066 0.398561 0
M  V30 4883 O 500.452 1.45105 1.29518 0
M  V30 4884 C 500.735 3.12627 -1.78707 0
M  V30 4885 C 500.588 3.02795 -3.32618 0
M  V30 4886 C 501.907 4.11997 -1.54747 0
M  V30 4887 H 499.026 0.626649 -0.387918 0
M  V30 4888 H 501.668 1.14455 -1.51658 0
M  V30 4889 H 499.818 3.62308 -1.40234 0
M  V30 4890 H 501.49 2.60659 -3.80598 0
M  V30 4891 H 499.733 2.39362 -3.61785 0
M  V30 4892 H 500.404 4.01893 -3.78399 0
M  V30 4893 H 502.88 3.71114 -1.88186 0
M  V30 4894 H 501.756 5.08037 -2.07821 0
M  V30 4895 H 502.017 4.39462 -0.482249 0
M  V30 4896 N 501.076 1.04316 1.18135 0
M  V30 4897 C 502.008 0.594444 2.21357 0
M  V30 4898 C 503.021 -0.337215 1.59269 0
M  V30 4899 O 504.21 -0.131337 1.78016 0
M  V30 4900 C 501.31 -0.151251 3.38562 0
M  V30 4901 C 500.483 0.788907 4.30227 0
M  V30 4902 C 499.542 0.0860572 5.2613 0
M  V30 4903 O 498.568 0.717302 5.64662 0
M  V30 4904 N 499.77 -1.17969 5.68387 0
M  V30 4905 H 502.535 1.48227 2.60478 0
M  V30 4906 H 500.096 0.92396 1.32946 0
M  V30 4907 H 502.088 -0.631352 3.99745 0
M  V30 4908 H 500.658 -0.940639 2.98112 0
M  V30 4909 H 499.878 1.44882 3.6661 0
M  V30 4910 H 501.166 1.42738 4.88368 0
M  V30 4911 H 500.564 -1.71302 5.3914 0
M  V30 4912 H 499.121 -1.60402 6.31755 0
M  V30 4913 N 502.554 -1.34406 0.822964 0
M  V30 4914 C 503.779 -2.0304 0.423034 0
M  V30 4915 C 504.204 -1.61568 -0.963196 0
M  V30 4916 O 503.562 -0.800339 -1.62678 0
M  V30 4917 C 503.61 -3.56636 0.53321 0
M  V30 4918 O 502.714 -4.09971 -0.446939 0
M  V30 4919 H 502.055 -0.64075 0.174171 0
M  V30 4920 H 504.585 -1.71653 1.11339 0
M  V30 4921 H 504.595 -4.05945 0.408991 0
M  V30 4922 H 503.27 -3.86168 1.54425 0
M  V30 4923 H 501.847 -3.71835 -0.281601 0
M  V30 4924 N 504.032 -0.577932 -1.46621 0
M  V30 4925 C 505.28 -0.061566 -2.02006 0
M  V30 4926 C 505.601 1.30117 -1.4524 0
M  V30 4927 O 504.871 1.85313 -0.63529 0
M  V30 4928 H 503.451 -0.0197692 -0.746738 0
M  V30 4929 H 506.113 -0.752631 -1.79782 0
M  V30 4930 H 505.209 0.0110238 -3.12098 0
M  V30 4931 N 505.51 1.54411 -0.315457 0
M  V30 4932 C 506.735 2.05299 0.294496 0
M  V30 4933 C 507.16 1.19052 1.4563 0
M  V30 4934 O 506.518 0.197804 1.80218 0
M  V30 4935 C 506.566 3.5345 0.714549 0
M  V30 4936 O 505.67 3.70175 1.81781 0
M  V30 4937 H 505.011 0.661743 0.0547019 0
M  V30 4938 H 507.541 1.99327 -0.461508 0
M  V30 4939 H 507.551 3.9557 0.999426 0
M  V30 4940 H 506.226 4.1568 -0.135244 0
M  V30 4941 H 504.803 3.3996 1.53236 0
M  V30 4942 N 506.988 0.0434614 1.5754 0
M  V30 4943 C 507.951 -0.918696 2.09982 0
M  V30 4944 C 508.951 -1.24488 1.01781 0
M  V30 4945 O 510.141 -1.18284 1.27885 0
M  V30 4946 C 507.273 -2.23093 2.57764 0
M  V30 4947 H 508.466 -0.464229 2.96285 0
M  V30 4948 H 506.019 -0.204818 1.54952 0
M  V30 4949 H 506.754 -2.73137 1.74832 0
M  V30 4950 H 506.539 -2.00724 3.36827 0
M  V30 4951 H 508.029 -2.92028 2.98512 0
M  V30 4952 N 508.466 -1.55915 -0.229846 0
M  V30 4953 C 509.429 -1.90914 -1.26824 0
M  V30 4954 C 510.429 -0.786999 -1.40225 0
M  V30 4955 O 511.619 -1.05484 -1.38632 0
M  V30 4956 C 508.751 -2.15264 -2.64337 0
M  V30 4957 H 509.944 -2.8378 -0.969998 0
M  V30 4958 H 507.497 -1.49069 -0.4699 0
M  V30 4959 H 508.232 -1.24923 -2.99274 0
M  V30 4960 H 508.017 -2.97005 -2.55989 0
M  V30 4961 H 509.507 -2.43467 -3.39284 0
M  V30 4962 N 509.944 0.496216 -1.49584 0
M  V30 4963 C 510.892 1.61805 -1.67098 0
M  V30 4964 C 511.886 1.60667 -0.536877 0
M  V30 4965 O 513.092 1.65118 -0.716654 0
M  V30 4966 H 509.467 0.53646 -0.526986 0
M  V30 4967 H 511.438 1.44187 -2.61252 0
M  V30 4968 C 510.187 2.99912 -1.75921 0
M  V30 4969 H 509.51 3.01496 -2.62565 0
M  V30 4970 H 510.95 3.77931 -1.92209 0
M  V30 4971 C 509.409 3.33092 -0.505088 0
M  V30 4972 O 509.939 4.00019 0.367085 0
M  V30 4973 N 508.145 2.88278 -0.366599 0
M  V30 4974 H 507.692 2.33989 -1.07735 0
M  V30 4975 H 507.65 3.10846 0.47142 0
M  V30 4976 N 511.423 1.38739 0.74761 0
M  V30 4977 C 512.353 1.39173 1.87492 0
M  V30 4978 C 513.334 0.256794 1.6815 0
M  V30 4979 O 514.519 0.460762 1.88655 0
M  V30 4980 C 511.649 1.22197 3.25093 0
M  V30 4981 C 510.603 2.32957 3.59047 0
M  V30 4982 C 509.929 2.01082 4.95449 0
M  V30 4983 C 511.229 3.75237 3.6331 0
M  V30 4984 H 512.923 2.3351 1.87386 0
M  V30 4985 H 510.469 1.12399 0.900134 0
M  V30 4986 H 512.422 1.21124 4.03617 0
M  V30 4987 H 511.146 0.243241 3.25693 0
M  V30 4988 H 509.805 2.33226 2.82845 0
M  V30 4989 H 509.453 1.01678 4.92616 0
M  V30 4990 H 509.153 2.75267 5.19136 0
M  V30 4991 H 510.677 2.01638 5.76346 0
M  V30 4992 H 512.091 3.76966 4.31937 0
M  V30 4993 H 510.488 4.48677 3.98509 0
M  V30 4994 H 511.558 4.07122 2.634 0
M  V30 4995 N 512.901 -0.976442 1.23707 0
M  V30 4996 C 514.178 -1.69296 0.979699 0
M  V30 4997 C 514.558 -2.0508 -0.500555 0
M  V30 4998 O 513.906 -1.74708 -1.47273 0
M  V30 4999 C 514.116 -2.93143 1.89389 0
M  V30 5000 C 515.464 -3.65572 2.15968 0
M  V30 5001 O 516.488 -3.03184 1.86971 0
M  V30 5002 O 515.347 -4.77859 2.65167 0
M  V30 5003 H 512.441 -0.739708 0.369812 0
M  V30 5004 H 514.987 -1.03131 1.34767 0
M  V30 5005 H 513.759 -2.63327 2.89439 0
M  V30 5006 H 513.382 -3.67044 1.52854 0
M  V30 5007 N 514.379 -1.04941 -1.1758 0
M  V30 5008 C 515.309 -0.669172 -2.23706 0
M  V30 5009 C 516.29 0.331835 -1.66832 0
M  V30 5010 O 517.475 0.209988 -1.93061 0
M  V30 5011 C 514.605 -0.0404889 -3.47276 0
M  V30 5012 C 513.559 -0.965983 -4.16957 0
M  V30 5013 C 512.885 -0.201312 -5.34321 0
M  V30 5014 C 514.185 -2.28902 -4.69469 0
M  V30 5015 H 515.879 -1.55639 -2.55767 0
M  V30 5016 H 513.425 -0.749793 -1.22939 0
M  V30 5017 H 515.378 0.237298 -4.20731 0
M  V30 5018 H 514.102 0.881658 -3.14475 0
M  V30 5019 H 512.761 -1.22829 -3.45411 0
M  V30 5020 H 512.409 0.723519 -4.97769 0
M  V30 5021 H 512.109 -0.817968 -5.81879 0
M  V30 5022 H 513.633 0.0692499 -6.10561 0
M  V30 5023 H 515.047 -2.07132 -5.34574 0
M  V30 5024 H 513.444 -2.85942 -5.27596 0
M  V30 5025 H 514.514 -2.92937 -3.86414 0
M  V30 5026 N 515.857 1.33968 -0.830081 0
M  V30 5027 C 517.082 2.02813 -0.433796 0
M  V30 5028 C 517.507 1.62076 0.954614 0
M  V30 5029 O 516.865 0.808955 1.62252 0
M  V30 5030 C 516.913 3.56348 -0.552115 0
M  V30 5031 O 516.017 4.10202 0.425191 0
M  V30 5032 H 515.358 0.639817 -0.177567 0
M  V30 5033 H 517.888 1.7106 -1.12248 0
M  V30 5034 H 517.898 4.05722 -0.430513 0
M  V30 5035 H 516.573 3.85344 -1.56471 0
M  V30 5036 H 515.15 3.71979 0.261878 0
M  V30 5037 N 517.335 0.585699 1.46312 0
M  V30 5038 C 518.265 -0.133556 2.33118 0
M  V30 5039 C 519.246 -0.880707 1.45525 0
M  V30 5040 O 520.431 -0.855579 1.74337 0
M  V30 5041 C 517.561 -1.14585 3.27853 0
M  V30 5042 C 516.515 -0.513341 4.2491 0
M  V30 5043 C 515.841 -1.63231 5.09175 0
M  V30 5044 C 517.141 0.551413 5.19381 0
M  V30 5045 H 518.835 0.59121 2.93505 0
M  V30 5046 H 516.381 0.285761 1.41136 0
M  V30 5047 H 518.334 -1.65741 3.87438 0
M  V30 5048 H 517.058 -1.90093 2.65579 0
M  V30 5049 H 515.717 -0.0228349 3.66593 0
M  V30 5050 H 515.365 -2.37713 4.43285 0
M  V30 5051 H 515.065 -1.21473 5.74907 0
M  V30 5052 H 516.589 -2.14658 5.71624 0
M  V30 5053 H 518.003 0.124804 5.73164 0
M  V30 5054 H 516.4 0.889486 5.93471 0
M  V30 5055 H 517.47 1.43655 4.63132 0
M  V30 5056 N 518.813 -1.54241 0.323641 0
M  V30 5057 C 520.224 -1.85975 -0.164405 0
M  V30 5058 C 520.575 -1.24529 -1.51615 0
M  V30 5059 O 519.7 -0.551351 -2.09258 0
M  V30 5060 C 520.295 -3.37424 -0.305091 0
M  V30 5061 C 518.854 -3.69107 -0.737358 0
M  V30 5062 C 518.001 -2.76942 0.140884 0
M  V30 5063 H 520.952 -1.49088 0.543922 0
M  V30 5064 H 520.973 -3.63147 -1.13598 0
M  V30 5065 H 520.485 -3.82116 0.678876 0
M  V30 5066 H 518.586 -3.29947 -1.73107 0
M  V30 5067 H 518.699 -4.76035 -0.541053 0
M  V30 5068 H 517.063 -2.51795 -0.383572 0
M  V30 5069 H 517.846 -3.24461 1.12162 0
M  V30 5070 N 520.291 -0.0518155 -1.57515 0
M  V30 5071 C 521.223 0.951542 -2.08515 0
M  V30 5072 C 522.236 1.27436 -1.01311 0
M  V30 5073 O 523.425 1.23504 -1.28876 0
M  V30 5074 C 520.525 2.27291 -2.5138 0
M  V30 5075 C 519.698 2.13191 -3.81927 0
M  V30 5076 C 518.757 3.28458 -4.11098 0
M  V30 5077 O 517.783 3.04334 -4.81009 0
M  V30 5078 N 518.985 4.52954 -3.63061 0
M  V30 5079 H 521.75 0.516242 -2.9522 0
M  V30 5080 H 519.311 0.13441 -1.61341 0
M  V30 5081 H 521.303 3.03272 -2.67971 0
M  V30 5082 H 519.873 2.62386 -1.69919 0
M  V30 5083 H 519.093 1.21798 -3.74912 0
M  V30 5084 H 520.381 2.00999 -4.67415 0
M  V30 5085 H 519.779 4.75444 -3.06545 0
M  V30 5086 H 518.336 5.26026 -3.84889 0
M  V30 5087 N 521.769 1.56035 0.221574 0
M  V30 5088 C 522.717 1.93269 1.29421 0
M  V30 5089 C 523.711 0.814727 1.48521 0
M  V30 5090 O 524.917 0.999559 1.49696 0
M  V30 5091 H 521.292 0.614188 0.43391 0
M  V30 5092 H 523.263 2.82773 0.952987 0
M  V30 5093 C 522.012 2.26573 2.63742 0
M  V30 5094 H 521.335 3.12112 2.49853 0
M  V30 5095 H 522.775 2.5651 3.37607 0
M  V30 5096 C 521.234 1.09086 3.1875 0
M  V30 5097 O 521.764 0.351985 4.00155 0
M  V30 5098 N 519.97 0.874693 2.77124 0
M  V30 5099 H 519.517 1.47726 2.11033 0
M  V30 5100 H 519.475 0.0903349 3.1427 0
M  V30 5101 N 523.247 -0.488276 1.49845 0
M  V30 5102 C 524.477 -1.26344 1.63465 0
M  V30 5103 C 524.885 -1.86637 0.310379 0
M  V30 5104 O 524.228 -1.69184 -0.715712 0
M  V30 5105 C 524.29 -2.42407 2.65479 0
M  V30 5106 C 523.954 -2.02886 4.09495 0
M  V30 5107 C 524.951 -1.56124 4.95904 0
M  V30 5108 C 522.636 -2.12131 4.55308 0
M  V30 5109 C 524.63 -1.19129 6.26169 0
M  V30 5110 C 522.317 -1.74747 5.85582 0
M  V30 5111 C 523.315 -1.28322 6.70837 0
M  V30 5112 O 523.003 -0.914491 7.98682 0
M  V30 5113 H 522.735 -0.388921 0.552916 0
M  V30 5114 H 525.289 -0.591288 1.96705 0
M  V30 5115 H 523.519 -3.12739 2.27445 0
M  V30 5116 H 525.208 -3.04409 2.68495 0
M  V30 5117 H 525.974 -1.48417 4.61733 0
M  V30 5118 H 521.853 -2.47217 3.89107 0
M  V30 5119 H 525.397 -0.828211 6.92666 0
M  V30 5120 H 521.294 -1.82109 6.19279 0
M  V30 5121 H 522.062 -1.04485 8.11804 0
M  V30 5122 N 524.725 -1.39134 -0.740242 0
M  V30 5123 C 526.141 -1.20623 -1.0451 0
M  V30 5124 C 526.341 -0.0641651 -2.01398 0
M  V30 5125 O 525.397 0.585843 -2.4561 0
M  V30 5126 C 526.71 -2.53815 -1.6124 0
M  V30 5127 C 528.258 -2.60615 -1.73346 0
M  V30 5128 C 528.733 -3.94015 -2.33486 0
M  V30 5129 N 530.224 -3.95627 -2.40902 0
M  V30 5130 C 530.959 -4.95616 -2.88361 0
M  V30 5131 N 530.455 -6.06003 -3.35756 0
M  V30 5132 N 532.248 -4.82998 -2.87523 0
M  V30 5133 H 524.399 -2.12176 -0.0975576 0
M  V30 5134 H 526.662 -0.942066 -0.105904 0
M  V30 5135 H 526.368 -3.37911 -0.975144 0
M  V30 5136 H 526.242 -2.73162 -2.6012 0
M  V30 5137 H 528.629 -1.76906 -2.36195 0
M  V30 5138 H 528.71 -2.45123 -0.731336 0
M  V30 5139 H 528.354 -4.78153 -1.71267 0
M  V30 5140 H 528.284 -4.06825 -3.34366 0
M  V30 5141 H 530.775 -3.15903 -2.07398 0
M  V30 5142 H 531.088 -6.78215 -3.70464 0
M  V30 5143 H 529.433 -6.09604 -3.33778 0
M  V30 5144 H 532.624 -3.95866 -2.49816 0
M  V30 5145 H 532.797 -5.61072 -3.24196 0
M  V30 5146 N 526.204 0.969867 -1.24223 0
M  V30 5147 C 527.481 1.68774 -0.988664 0
M  V30 5148 C 527.861 2.05342 0.489673 0
M  V30 5149 O 527.209 1.75486 1.46345 0
M  V30 5150 C 527.419 2.92135 -1.90941 0
M  V30 5151 C 528.767 3.64422 -2.17903 0
M  V30 5152 O 529.791 3.02188 -1.88576 0
M  V30 5153 O 528.65 4.76446 -2.67697 0
M  V30 5154 H 525.744 0.737736 -0.37373 0
M  V30 5155 H 528.29 1.02415 -1.35312 0
M  V30 5156 H 527.062 2.61788 -2.90831 0
M  V30 5157 H 526.685 3.66228 -1.54798 0
M  V30 5158 N 527.682 1.05563 1.17022 0
M  V30 5159 C 528.931 0.763036 1.8671 0
M  V30 5160 C 529.244 -0.712857 1.82147 0
M  V30 5161 O 530.45 -1.11955 2.47343 0
M  V30 5162 C 528.906 1.31474 3.35026 0
M  V30 5163 C 528.514 2.82034 3.48081 0
M  V30 5164 C 530.258 1.09935 4.10018 0
M  V30 5165 C 528.165 3.30486 4.90442 0
M  V30 5166 H 527.095 0.281747 0.699382 0
M  V30 5167 H 529.746 1.2734 1.32124 0
M  V30 5168 H 528.128 0.732171 3.89173 0
M  V30 5169 H 529.302 3.46178 3.04133 0
M  V30 5170 H 527.617 3.02156 2.86515 0
M  V30 5171 H 530.214 1.43632 5.15048 0
M  V30 5172 H 530.557 0.0373072 4.16283 0
M  V30 5173 H 531.09 1.64732 3.62089 0
M  V30 5174 H 527.829 4.36137 4.89352 0
M  V30 5175 H 527.349 2.71086 5.35044 0
M  V30 5176 H 529.028 3.25382 5.59227 0
M  V30 5177 N 529.16 -1.33526 0.837174 0
M  V30 5178 C 530.385 -2.0258 0.444545 0
M  V30 5179 C 530.81 -1.6258 -0.946006 0
M  V30 5180 O 530.168 -0.817548 -1.6182 0
M  V30 5181 C 530.216 -3.5605 0.571006 0
M  V30 5182 O 529.32 -4.10422 -0.403431 0
M  V30 5183 H 528.661 -0.638866 0.180958 0
M  V30 5184 H 531.191 -1.70462 1.13154 0
M  V30 5185 H 531.201 -4.05488 0.452024 0
M  V30 5186 H 529.876 -3.84509 1.58512 0
M  V30 5187 H 528.453 -3.72113 -0.242147 0
M  V30 5188 N 530.638 -0.59345 -1.46 0
M  V30 5189 C 531.884 -0.0832754 -2.02629 0
M  V30 5190 C 532.217 1.27749 -1.46266 0
M  V30 5191 O 531.492 1.8395 -0.631866 0
M  V30 5192 C 531.775 -0.0290756 -3.60088 0
M  V30 5193 C 531.628 -1.41951 -4.26814 0
M  V30 5194 C 532.947 0.666055 -4.35031 0
M  V30 5195 H 530.066 -0.031736 -0.736316 0
M  V30 5196 H 532.708 -0.762711 -1.74019 0
M  V30 5197 H 530.858 0.549532 -3.84594 0
M  V30 5198 H 532.53 -2.04411 -4.13538 0
M  V30 5199 H 530.773 -1.98422 -3.8576 0
M  V30 5200 H 531.444 -1.33395 -5.3564 0
M  V30 5201 H 533.92 0.174401 -4.15734 0
M  V30 5202 H 532.796 0.673041 -5.44758 0
M  V30 5203 H 533.057 1.72946 -4.06869 0
M  V30 5204 N 532.116 1.54067 -0.331816 0
M  V30 5205 C 533.363 2.00715 0.268269 0
M  V30 5206 C 533.691 1.21986 1.51491 0
M  V30 5207 O 532.946 0.292309 1.93505 0
M  V30 5208 C 533.245 3.51634 0.639392 0
M  V30 5209 C 532.911 4.48018 -0.509019 0
M  V30 5210 C 531.573 4.74089 -0.824209 0
M  V30 5211 C 533.925 5.05237 -1.28003 0
M  V30 5212 C 531.253 5.54637 -1.91298 0
M  V30 5213 C 533.605 5.86972 -2.35895 0
M  V30 5214 C 532.269 6.11342 -2.67987 0
M  V30 5215 H 531.539 0.734469 0.0981667 0
M  V30 5216 H 534.186 1.8596 -0.457304 0
M  V30 5217 H 532.491 3.6416 1.44551 0
M  V30 5218 H 534.188 3.85175 1.11539 0
M  V30 5219 H 530.778 4.27851 -0.253287 0
M  V30 5220 H 534.962 4.8507 -1.04978 0
M  V30 5221 H 530.218 5.71747 -2.16599 0
M  V30 5222 H 534.392 6.30327 -2.96076 0
M  V30 5223 H 532.019 6.73544 -3.5248 0
M  V30 5224 N 533.594 0.0601682 1.57485 0
M  V30 5225 C 534.842 -0.610386 1.92662 0
M  V30 5226 C 535.163 -1.70849 0.939981 0
M  V30 5227 O 534.433 -1.95895 -0.0137455 0
M  V30 5228 H 533.013 -0.228457 0.711208 0
M  V30 5229 H 535.675 0.115288 1.94559 0
M  V30 5230 H 534.771 -1.0432 2.94149 0
M  V30 5231 N 535.072 -1.5615 -0.213296 0
M  V30 5232 C 536.321 -1.78743 -0.93455 0
M  V30 5233 C 536.634 -0.630199 -1.8517 0
M  V30 5234 O 537.84 -0.739966 -2.61222 0
M  V30 5235 C 536.296 -3.16571 -1.71203 0
M  V30 5236 C 535.904 -4.40043 -0.840617 0
M  V30 5237 C 537.648 -3.48485 -2.42401 0
M  V30 5238 C 535.555 -5.68895 -1.61592 0
M  V30 5239 H 534.485 -0.666426 -0.352692 0
M  V30 5240 H 537.136 -1.82532 -0.188227 0
M  V30 5241 H 535.518 -3.06981 -2.50157 0
M  V30 5242 H 536.692 -4.6071 -0.0910326 0
M  V30 5243 H 535.007 -4.15706 -0.240365 0
M  V30 5244 H 537.604 -4.41983 -3.00924 0
M  V30 5245 H 537.947 -2.71371 -3.15695 0
M  V30 5246 H 538.48 -3.59442 -1.7043 0
M  V30 5247 H 535.219 -6.48925 -0.926106 0
M  V30 5248 H 534.739 -5.52275 -2.33991 0
M  V30 5249 H 536.418 -6.09365 -2.17447 0
M  V30 5250 N 536.55 0.480323 -1.50102 0
M  V30 5251 C 537.798 1.23063 -1.60312 0
M  V30 5252 C 538.119 1.92659 -0.301226 0
M  V30 5253 O 537.389 1.83691 0.680753 0
M  V30 5254 H 535.969 0.457231 -0.590719 0
M  V30 5255 H 538.631 0.554893 -1.86834 0
M  V30 5256 H 537.727 1.9835 -2.40964 0
M  V30 5257 N 538.028 1.39524 0.732853 0
M  V30 5258 C 538.991 1.38189 1.82857 0
M  V30 5259 C 539.991 0.278624 1.58368 0
M  V30 5260 O 541.181 0.536639 1.65728 0
M  V30 5261 C 538.313 1.15661 3.2068 0
M  V30 5262 H 539.506 2.35692 1.85444 0
M  V30 5263 H 537.059 1.2512 0.936728 0
M  V30 5264 H 537.794 0.188482 3.23752 0
M  V30 5265 H 537.579 1.95559 3.39852 0
M  V30 5266 H 539.069 1.17472 4.00737 0
M  V30 5267 N 539.506 -0.963266 1.24736 0
M  V30 5268 C 540.416 -2.09246 1.06082 0
M  V30 5269 C 541.432 -1.74 0.000363101 0
M  V30 5270 O 542.608 -2.0041 0.199479 0
M  V30 5271 C 539.673 -3.40115 0.672498 0
M  V30 5272 C 538.734 -3.89282 1.80993 0
M  V30 5273 C 537.967 -5.13905 1.44004 0
M  V30 5274 O 538.19 -5.69434 0.331835 0
M  V30 5275 O 537.124 -5.57566 2.26723 0
M  V30 5276 H 540.95 -2.27881 2.00759 0
M  V30 5277 H 538.535 -1.07649 1.03595 0
M  V30 5278 H 540.417 -4.18797 0.467668 0
M  V30 5279 H 539.092 -3.22771 -0.245102 0
M  V30 5280 H 537.999 -3.11642 2.06955 0
M  V30 5281 H 539.332 -4.1111 2.70646 0
M  V30 5282 N 540.985 -1.06182 -1.16461 0
M  V30 5283 C 542.215 -0.797425 -1.9059 0
M  V30 5284 C 542.623 0.651845 -1.77616 0
M  V30 5285 O 541.966 1.45788 -1.11766 0
M  V30 5286 C 542.028 -1.11128 -3.41893 0
M  V30 5287 C 541.692 -2.55874 -3.78652 0
M  V30 5288 C 542.689 -3.54104 -3.80665 0
M  V30 5289 C 540.374 -2.91144 -4.09317 0
M  V30 5290 C 542.368 -4.85645 -4.12829 0
M  V30 5291 C 540.055 -4.22885 -4.41148 0
M  V30 5292 C 541.053 -5.19945 -4.42883 0
M  V30 5293 O 540.741 -6.49322 -4.73959 0
M  V30 5294 H 540.473 -0.288709 -0.611247 0
M  V30 5295 H 543.027 -1.41841 -1.4856 0
M  V30 5296 H 541.257 -0.433217 -3.84266 0
M  V30 5297 H 542.946 -0.831306 -3.97296 0
M  V30 5298 H 543.712 -3.28197 -3.57088 0
M  V30 5299 H 539.591 -2.16252 -4.07131 0
M  V30 5300 H 543.135 -5.61398 -4.14099 0
M  V30 5301 H 539.032 -4.48551 -4.6419 0
M  V30 5302 H 539.8 -6.54294 -4.91774 0
M  V30 5303 N 542.463 1.3308 -0.844243 0
M  V30 5304 C 543.879 1.50447 -0.532729 0
M  V30 5305 C 544.079 1.78292 0.938837 0
M  V30 5306 O 543.135 1.84635 1.72239 0
M  V30 5307 C 544.448 2.65555 -1.41072 0
M  V30 5308 C 545.996 2.7944 -1.41005 0
M  V30 5309 C 546.471 3.97616 -2.27301 0
M  V30 5310 N 547.962 4.0486 -2.2504 0
M  V30 5311 C 548.697 4.95508 -2.88547 0
M  V30 5312 N 548.193 5.91236 -3.61126 0
M  V30 5313 N 549.986 4.88548 -2.77989 0
M  V30 5314 H 542.137 1.13269 -1.79677 0
M  V30 5315 H 544.4 0.55734 -0.766861 0
M  V30 5316 H 544.106 2.51675 -2.45668 0
M  V30 5317 H 543.98 3.61089 -1.09061 0
M  V30 5318 H 546.367 2.92749 -0.371784 0
M  V30 5319 H 546.448 1.8465 -1.77026 0
M  V30 5320 H 546.092 3.85066 -3.3119 0
M  V30 5321 H 546.022 4.91661 -1.88619 0
M  V30 5322 H 548.513 3.36353 -1.72264 0
M  V30 5323 H 548.826 6.57079 -4.06776 0
M  V30 5324 H 547.171 5.91295 -3.65234 0
M  V30 5325 H 550.362 4.12729 -2.20846 0
M  V30 5326 H 550.535 5.58994 -3.27765 0
M  V30 5327 N 543.941 0.601185 1.45683 0
M  V30 5328 C 545.171 0.0999093 2.06358 0
M  V30 5329 C 545.579 -1.21831 1.44754 0
M  V30 5330 O 544.922 -1.75157 0.553695 0
M  V30 5331 C 544.984 -0.12085 3.59297 0
M  V30 5332 C 544.648 1.11459 4.432 0
M  V30 5333 C 545.645 2.03118 4.7858 0
M  V30 5334 C 543.33 1.34162 4.84051 0
M  V30 5335 C 545.324 3.15814 5.53661 0
M  V30 5336 C 543.011 2.4716 5.58888 0
M  V30 5337 C 544.009 3.37814 5.93608 0
M  V30 5338 O 543.697 4.48846 6.66928 0
M  V30 5339 H 543.429 0.0630316 0.673055 0
M  V30 5340 H 545.983 0.826982 1.88016 0
M  V30 5341 H 544.213 -0.902744 3.76015 0
M  V30 5342 H 545.902 -0.572925 4.01836 0
M  V30 5343 H 546.668 1.86801 4.47583 0
M  V30 5344 H 542.547 0.645018 4.56465 0
M  V30 5345 H 546.091 3.86596 5.8068 0
M  V30 5346 H 541.988 2.63432 5.89299 0
M  V30 5347 H 542.756 4.47446 6.85371 0
M  V30 5348 N 545.419 -1.53889 0.339982 0
M  V30 5349 C 546.367 -2.26391 -0.533822 0
M  V30 5350 C 547.361 -1.28404 -1.10493 0
M  V30 5351 O 548.567 -1.46124 -1.05108 0
M  V30 5352 H 544.942 -0.727385 -0.190828 0
M  V30 5353 H 546.913 -2.98233 0.0997484 0
M  V30 5354 C 545.662 -3.04707 -1.67479 0
M  V30 5355 H 544.985 -3.79934 -1.2446 0
M  V30 5356 H 546.425 -3.58657 -2.26144 0
M  V30 5357 C 544.884 -2.13989 -2.60212 0
M  V30 5358 O 545.414 -1.73361 -3.62366 0
M  V30 5359 N 543.62 -1.79141 -2.28816 0
M  V30 5360 H 543.167 -2.12378 -1.45785 0
M  V30 5361 H 543.125 -1.18725 -2.91121 0
M  V30 5362 N 546.897 -0.0685191 -1.57451 0
M  V30 5363 C 547.86 0.885173 -2.11417 0
M  V30 5364 C 548.86 1.22853 -1.03748 0
M  V30 5365 O 550.05 1.16235 -1.2975 0
M  V30 5366 C 547.182 2.18964 -2.61281 0
M  V30 5367 H 548.375 0.417034 -2.96986 0
M  V30 5368 H 545.928 0.18014 -1.55258 0
M  V30 5369 H 546.663 2.70321 -1.79156 0
M  V30 5370 H 546.448 1.9534 -3.39977 0
M  V30 5371 H 547.938 2.87242 -3.0312 0
M  V30 5372 N 548.375 1.56261 0.205012 0
M  V30 5373 C 549.322 1.93754 1.25411 0
M  V30 5374 C 550.292 0.796826 1.45739 0
M  V30 5375 O 551.477 1.05414 1.59036 0
M  V30 5376 C 548.617 2.27383 2.59598 0
M  V30 5377 C 547.73 3.5447 2.46931 0
M  V30 5378 C 546.865 3.77468 3.73753 0
M  V30 5379 C 545.904 4.98014 3.55877 0
M  V30 5380 N 545.041 5.17316 4.74688 0
M  V30 5381 H 549.881 2.83203 0.92737 0
M  V30 5382 H 547.418 1.40158 0.446574 0
M  V30 5383 H 549.376 2.44895 3.37761 0
M  V30 5384 H 548.006 1.41088 2.90335 0
M  V30 5385 H 547.058 3.45061 1.60116 0
M  V30 5386 H 548.37 4.42789 2.29651 0
M  V30 5387 H 547.524 3.95165 4.60358 0
M  V30 5388 H 546.263 2.87461 3.93976 0
M  V30 5389 H 545.268 4.80249 2.67657 0
M  V30 5390 H 546.493 5.8952 3.37109 0
M  V30 5391 H 544.439 4.30255 4.95194 0
M  V30 5392 H 544.356 5.99796 4.60197 0
M  V30 5393 H 545.624 5.39463 5.62672 0
M  V30 5394 N 549.853 -0.472356 1.50355 0
M  V30 5395 C 551.099 -1.22348 1.62488 0
M  V30 5396 C 551.454 -1.89711 0.320574 0
M  V30 5397 O 550.747 -1.79074 -0.68141 0
M  V30 5398 C 550.941 -2.29257 2.74182 0
M  V30 5399 C 550.77 -1.72383 4.15348 0
M  V30 5400 C 549.54 -1.52411 4.81766 0
M  V30 5401 C 551.738 -1.21949 4.99633 0
M  V30 5402 N 549.72 -0.907669 6.07153 0
M  V30 5403 C 551.091 -0.726191 6.15732 0
M  V30 5404 C 553.146 -1.10792 4.85417 0
M  V30 5405 C 551.849 -0.132322 7.19178 0
M  V30 5406 C 553.875 -0.52799 5.89038 0
M  V30 5407 C 553.237 -0.0450604 7.04386 0
M  V30 5408 H 549.336 -0.436631 0.648751 0
M  V30 5409 H 551.92 -0.525698 1.87469 0
M  V30 5410 H 550.091 -2.96464 2.50926 0
M  V30 5411 H 551.823 -2.9628 2.75681 0
M  V30 5412 H 548.578 -1.776 4.39039 0
M  V30 5413 H 549.002 -0.617897 6.74174 0
M  V30 5414 H 553.644 -1.46722 3.96525 0
M  V30 5415 H 551.362 0.239187 8.07746 0
M  V30 5416 H 554.948 -0.444046 5.80103 0
M  V30 5417 H 553.828 0.396659 7.83196 0
M  V30 5418 N 551.331 -1.39911 -0.725443 0
M  V30 5419 C 552.559 -1.40949 -1.51463 0
M  V30 5420 C 552.974 -0.0065242 -1.88799 0
M  V30 5421 O 552.331 0.967163 -1.54765 0
M  V30 5422 C 552.382 -2.29119 -2.79619 0
M  V30 5423 O 552.103 -3.63952 -2.43866 0
M  V30 5424 C 553.604 -2.38642 -3.73584 0
M  V30 5425 H 550.824 -0.481091 -0.467752 0
M  V30 5426 H 553.368 -1.83843 -0.895651 0
M  V30 5427 H 551.523 -1.89612 -3.37826 0
M  V30 5428 H 551.937 -4.10677 -3.26258 0
M  V30 5429 H 553.411 -3.04563 -4.60375 0
M  V30 5430 H 553.888 -1.40846 -4.16004 0
M  V30 5431 H 554.494 -2.78659 -3.21293 0
M  V30 5432 N 552.809 0.956637 -1.25245 0
M  V30 5433 C 554.056 1.701 -1.09874 0
M  V30 5434 C 554.384 1.91128 0.36062 0
M  V30 5435 O 553.639 1.47837 1.28229 0
M  V30 5436 C 553.938 3.08996 -1.79601 0
M  V30 5437 C 553.604 3.07774 -3.29523 0
M  V30 5438 C 552.266 3.07149 -3.70423 0
M  V30 5439 C 554.618 3.01257 -4.25316 0
M  V30 5440 C 551.946 2.97752 -5.0553 0
M  V30 5441 C 554.298 2.93403 -5.60444 0
M  V30 5442 C 552.962 2.91111 -6.00675 0
M  V30 5443 H 552.232 0.62244 -0.402056 0
M  V30 5444 H 554.879 1.1178 -1.55491 0
M  V30 5445 H 553.184 3.70848 -1.26408 0
M  V30 5446 H 554.881 3.65407 -1.65162 0
M  V30 5447 H 551.471 3.09032 -2.9698 0
M  V30 5448 H 555.655 3.00861 -3.9471 0
M  V30 5449 H 550.911 2.94346 -5.35883 0
M  V30 5450 H 555.085 2.87321 -6.34366 0
M  V30 5451 H 552.712 2.83586 -7.05325 0
M  V30 5452 N 554.287 1.06798 1.15896 0
M  V30 5453 C 555.703 0.792423 1.38538 0
M  V30 5454 C 555.903 -0.60592 1.92174 0
M  V30 5455 O 554.959 -1.36561 2.12385 0
M  V30 5456 C 556.272 1.86157 2.36149 0
M  V30 5457 C 557.82 1.88567 2.49823 0
M  V30 5458 C 558.295 2.9455 3.5072 0
M  V30 5459 N 559.786 2.93616 3.58251 0
M  V30 5460 C 560.521 3.72267 4.36125 0
M  V30 5461 N 560.017 4.60751 5.17379 0
M  V30 5462 N 561.81 3.60637 4.31158 0
M  V30 5463 H 553.961 1.96993 0.794198 0
M  V30 5464 H 556.224 0.853942 0.411688 0
M  V30 5465 H 555.93 2.86603 2.03843 0
M  V30 5466 H 555.804 1.71692 3.3586 0
M  V30 5467 H 558.191 0.887765 2.8143 0
M  V30 5468 H 558.272 2.0711 1.5013 0
M  V30 5469 H 557.916 3.94537 3.19849 0
M  V30 5470 H 557.846 2.73255 4.50155 0
M  V30 5471 H 560.337 2.29472 3.00252 0
M  V30 5472 H 560.65 5.17408 5.74028 0
M  V30 5473 H 558.995 4.64803 5.16704 0
M  V30 5474 H 562.186 2.90892 3.66742 0
M  V30 5475 H 562.359 4.22176 4.91601 0
M  V30 5476 N 555.766 -1.3263 0.851289 0
M  V30 5477 C 557.014 -1.96978 0.452128 0
M  V30 5478 C 557.335 -1.67715 -0.99482 0
M  V30 5479 O 556.605 -0.98259 -1.69476 0
M  V30 5480 H 555.185 -0.72873 0.164202 0
M  V30 5481 H 557.847 -1.61774 1.08698 0
M  V30 5482 H 556.943 -3.06387 0.594407 0
M  V30 5483 N 557.244 -0.608902 -1.45362 0
M  V30 5484 C 558.492 -0.104401 -2.0183 0
M  V30 5485 C 558.813 1.27007 -1.47967 0
M  V30 5486 O 558.083 1.83924 -0.674455 0
M  V30 5487 H 556.663 -0.0356042 -0.746151 0
M  V30 5488 H 559.325 -0.790596 -1.78145 0
M  V30 5489 H 558.421 -0.0551793 -3.12051 0
M  V30 5490 N 558.722 1.53707 -0.348139 0
M  V30 5491 C 559.969 2.00988 0.246966 0
M  V30 5492 C 560.297 1.23586 1.50189 0
M  V30 5493 O 559.552 0.312817 1.93184 0
M  V30 5494 C 559.851 3.52292 0.602061 0
M  V30 5495 C 559.517 4.47453 -0.556509 0
M  V30 5496 C 558.179 4.73188 -0.874446 0
M  V30 5497 C 560.531 5.03851 -1.33354 0
M  V30 5498 C 557.859 5.52577 -1.9717 0
M  V30 5499 C 560.211 5.84437 -2.42108 0
M  V30 5500 C 558.875 6.08465 -2.74456 0
M  V30 5501 H 558.145 0.735469 0.0903712 0
M  V30 5502 H 560.792 1.85464 -0.477001 0
M  V30 5503 H 559.097 3.65672 1.40681 0
M  V30 5504 H 560.794 3.86337 1.07447 0
M  V30 5505 H 557.384 4.27558 -0.298652 0
M  V30 5506 H 561.568 4.8393 -1.10117 0
M  V30 5507 H 556.824 5.69418 -2.22651 0
M  V30 5508 H 560.998 6.27151 -3.02745 0
M  V30 5509 H 558.625 6.69768 -3.59604 0
M  V30 5510 N 560.2 0.0768682 1.57412 0
M  V30 5511 C 561.15 -0.898795 2.09537 0
M  V30 5512 C 562.134 -1.25556 1.0062 0
M  V30 5513 O 563.326 -1.23369 1.26921 0
M  V30 5514 C 560.455 -2.16453 2.66464 0
M  V30 5515 C 559.541 -1.83401 3.82393 0
M  V30 5516 N 559.932 -1.20823 4.91157 0
M  V30 5517 C 558.23 -2.13121 3.91785 0
M  V30 5518 C 558.931 -1.05976 5.71965 0
M  V30 5519 N 557.907 -1.57113 5.204 0
M  V30 5520 H 561.709 -0.410718 2.91016 0
M  V30 5521 H 559.223 -0.126878 1.61904 0
M  V30 5522 H 561.22 -2.87274 3.02125 0
M  V30 5523 H 559.88 -2.65844 1.86433 0
M  V30 5524 H 560.891 -0.877249 5.10416 0
M  V30 5525 H 557.568 -2.64854 3.22736 0
M  V30 5526 H 558.958 -0.571809 6.69462 0
M  V30 5527 N 561.678 -1.56367 -0.196722 0
M  V30 5528 C 562.908 -1.84371 -0.932254 0
M  V30 5529 C 563.316 -0.657013 -1.77426 0
M  V30 5530 O 562.659 0.383576 -1.79651 0
M  V30 5531 C 562.721 -3.06454 -1.87952 0
M  V30 5532 C 562.385 -4.40425 -1.21962 0
M  V30 5533 C 563.382 -5.16457 -0.597343 0
M  V30 5534 C 561.067 -4.8716 -1.22396 0
M  V30 5535 C 563.061 -6.37399 0.0117913 0
M  V30 5536 C 560.748 -6.08038 -0.610995 0
M  V30 5537 C 561.746 -6.83 0.00580487 0
M  V30 5538 O 561.434 -8.01589 0.609173 0
M  V30 5539 H 561.166 -0.616377 -0.277589 0
M  V30 5540 H 563.72 -2.04329 -0.209452 0
M  V30 5541 H 561.95 -2.82377 -2.64197 0
M  V30 5542 H 563.639 -3.21118 -2.48271 0
M  V30 5543 H 564.405 -4.81445 -0.586142 0
M  V30 5544 H 560.284 -4.2877 -1.69345 0
M  V30 5545 H 563.828 -6.9585 0.493836 0
M  V30 5546 H 559.725 -6.42519 -0.619693 0
M  V30 5547 H 560.493 -8.16935 0.505919 0
M  V30 5548 N 563.156 0.464375 -1.50603 0
M  V30 5549 C 564.119 1.54393 -1.69397 0
M  V30 5550 C 565.119 1.50566 -0.564504 0
M  V30 5551 O 566.309 1.53066 -0.831645 0
M  V30 5552 C 563.441 2.9401 -1.72543 0
M  V30 5553 H 564.634 1.39044 -2.65719 0
M  V30 5554 H 562.187 0.69122 -1.40185 0
M  V30 5555 H 562.922 3.14795 -0.77938 0
M  V30 5556 H 562.707 2.98195 -2.54602 0
M  V30 5557 H 564.197 3.72375 -1.89015 0
M  V30 5558 N 564.634 1.40294 0.718013 0
M  V30 5559 C 565.566 1.36281 1.84283 0
M  V30 5560 C 566.579 0.268621 1.60569 0
M  V30 5561 O 567.768 0.528798 1.70487 0
M  V30 5562 C 564.868 1.09741 3.2064 0
M  V30 5563 C 564.041 2.30767 3.71571 0
M  V30 5564 C 563.1 2.00424 4.86535 0
M  V30 5565 O 562.126 2.73268 4.99313 0
M  V30 5566 N 563.328 0.980724 5.72156 0
M  V30 5567 H 566.093 2.3322 1.88225 0
M  V30 5568 H 563.654 1.34616 0.899453 0
M  V30 5569 H 565.646 0.874322 3.95143 0
M  V30 5570 H 564.216 0.214771 3.11861 0
M  V30 5571 H 563.436 2.68921 2.88228 0
M  V30 5572 H 564.724 3.11455 4.02335 0
M  V30 5573 H 564.122 0.377375 5.6444 0
M  V30 5574 H 562.679 0.817538 6.46653 0
M  V30 5575 N 566.112 -0.949982 1.2575 0
M  V30 5576 C 567.022 -2.08109 1.08295 0
M  V30 5577 C 568.038 -1.7399 0.0188181 0
M  V30 5578 O 569.214 -2.00187 0.220724 0
M  V30 5579 C 566.279 -3.39383 0.708534 0
M  V30 5580 C 565.34 -3.8734 1.85111 0
M  V30 5581 C 564.573 -5.12349 1.49447 0
M  V30 5582 O 564.796 -5.6905 0.392212 0
M  V30 5583 O 563.73 -5.5513 2.32624 0
M  V30 5584 H 567.556 -2.25738 2.03165 0
M  V30 5585 H 565.141 -1.06545 1.04731 0
M  V30 5586 H 567.023 -4.18277 0.512061 0
M  V30 5587 H 565.698 -3.23013 -0.210854 0
M  V30 5588 H 564.605 -3.09429 2.10248 0
M  V30 5589 H 565.938 -4.08216 2.74991 0
M  V30 5590 N 567.59 -1.07411 -1.15328 0
M  V30 5591 C 568.553 -0.698914 -2.18284 0
M  V30 5592 C 569.553 0.261149 -1.58665 0
M  V30 5593 O 570.743 0.0420277 -1.74149 0
M  V30 5594 C 567.875 -0.0302427 -3.40887 0
M  V30 5595 H 569.068 -1.61045 -2.52991 0
M  V30 5596 H 566.621 -0.870724 -1.298 0
M  V30 5597 H 567.356 0.893505 -3.11748 0
M  V30 5598 H 567.141 -0.720759 -3.85419 0
M  V30 5599 H 568.631 0.21759 -4.17033 0
M  V30 5600 N 569.068 1.32177 -0.85831 0
M  V30 5601 C 570.317 1.96392 -0.459689 0
M  V30 5602 C 570.63 1.68659 0.990632 0
M  V30 5603 O 571.836 2.26641 1.49485 0
M  V30 5604 C 570.292 3.51542 -0.7711 0
M  V30 5605 C 569.9 3.8813 -2.2374 0
M  V30 5606 C 571.644 4.2221 -0.44038 0
M  V30 5607 C 569.551 5.36341 -2.49183 0
M  V30 5608 H 568.481 0.735007 -0.168169 0
M  V30 5609 H 571.132 1.50518 -1.0496 0
M  V30 5610 H 569.514 3.95846 -0.11058 0
M  V30 5611 H 570.688 3.54824 -2.94001 0
M  V30 5612 H 569.003 3.30497 -2.533 0
M  V30 5613 H 571.6 5.31234 -0.607855 0
M  V30 5614 H 571.943 4.11683 0.618291 0
M  V30 5615 H 572.476 3.83502 -1.05695 0
M  V30 5616 H 569.215 5.51892 -3.53689 0
M  V30 5617 H 568.735 5.7104 -1.83504 0
M  V30 5618 H 570.414 6.03466 -2.33318 0
M  V30 5619 N 570.547 0.616602 1.45037 0
M  V30 5620 C 571.958 0.199359 1.85633 0
M  V30 5621 C 572.309 -1.24588 1.51566 0
M  V30 5622 O 571.434 -1.94594 0.94668 0
M  V30 5623 C 572.029 0.355033 3.36935 0
M  V30 5624 C 570.588 -0.00758748 3.76399 0
M  V30 5625 C 569.735 0.675256 2.68953 0
M  V30 5626 H 572.686 0.822708 1.3571 0
M  V30 5627 H 572.707 -0.410201 3.78282 0
M  V30 5628 H 572.219 1.40699 3.61698 0
M  V30 5629 H 570.32 -1.05837 3.57252 0
M  V30 5630 H 570.433 0.392346 4.77491 0
M  V30 5631 H 568.797 0.111992 2.54454 0
M  V30 5632 H 569.58 1.72952 2.96551 0
M  V30 5633 N 572.025 -1.5352 0.356285 0
M  V30 5634 C 573.273 -2.00719 -0.235837 0
M  V30 5635 C 573.594 -1.24551 -1.5004 0
M  V30 5636 O 572.864 -0.356185 -1.92635 0
M  V30 5637 H 571.444 -0.741542 -0.0901366 0
M  V30 5638 H 574.106 -1.88887 0.480378 0
M  V30 5639 H 573.202 -3.08551 -0.469357 0
M  V30 5640 N 573.503 -0.0852151 -1.57369 0
M  V30 5641 C 574.451 0.894856 -2.14698 0
M  V30 5642 C 575.445 1.29903 -1.08727 0
M  V30 5643 O 576.651 1.27471 -1.27088 0
M  V30 5644 H 573.026 0.306569 -0.686673 0
M  V30 5645 H 574.997 0.386542 -2.95886 0
M  V30 5646 C 573.746 2.14798 -2.73417 0
M  V30 5647 H 573.069 1.84585 -3.54638 0
M  V30 5648 H 574.509 2.81456 -3.1711 0
M  V30 5649 C 572.968 2.91546 -1.68828 0
M  V30 5650 O 573.498 3.85733 -1.12129 0
M  V30 5651 N 571.704 2.54901 -1.39549 0
M  V30 5652 H 571.251 1.7838 -1.85845 0
M  V30 5653 H 571.209 3.06553 -0.698054 0
M  V30 5654 N 574.981 1.5647 0.188427 0
M  V30 5655 C 575.914 1.90146 1.26173 0
M  V30 5656 C 576.892 0.762294 1.43624 0
M  V30 5657 O 578.076 1.01395 1.58907 0
M  V30 5658 C 575.203 2.13748 2.62735 0
M  V30 5659 C 574.249 3.36448 2.62116 0
M  V30 5660 S 575.082 4.91364 2.12889 0
M  V30 5661 C 576.238 5.18041 3.51261 0
M  V30 5662 H 576.471 2.80886 0.974192 0
M  V30 5663 H 574.004 1.49335 0.392226 0
M  V30 5664 H 575.962 2.28028 3.41341 0
M  V30 5665 H 574.623 1.23747 2.88696 0
M  V30 5666 H 573.816 3.50109 3.62546 0
M  V30 5667 H 573.418 3.21196 1.91596 0
M  V30 5668 H 575.71 5.0897 4.47164 0
M  V30 5669 H 576.653 6.19764 3.42489 0
M  V30 5670 H 577.061 4.45657 3.46482 0
M  V30 5671 N 576.459 -0.456382 1.50847 0
M  V30 5672 C 577.389 -1.56025 1.73719 0
M  V30 5673 C 578.37 -1.5967 0.586473 0
M  V30 5674 O 579.555 -1.75702 0.827185 0
M  V30 5675 C 576.685 -2.94251 1.84483 0
M  V30 5676 C 575.639 -3.05471 2.99786 0
M  V30 5677 C 574.965 -4.45489 2.95709 0
M  V30 5678 C 576.265 -2.81318 4.40065 0
M  V30 5679 H 577.959 -1.37138 2.66146 0
M  V30 5680 H 575.505 -0.658299 1.28072 0
M  V30 5681 H 577.458 -3.71417 1.99067 0
M  V30 5682 H 576.182 -3.14328 0.886891 0
M  V30 5683 H 574.841 -2.30741 2.84876 0
M  V30 5684 H 574.489 -4.62505 1.97732 0
M  V30 5685 H 574.189 -4.53929 3.73125 0
M  V30 5686 H 575.713 -5.24655 3.12362 0
M  V30 5687 H 577.127 -3.48226 4.55425 0
M  V30 5688 H 575.524 -3.01188 5.19043 0
M  V30 5689 H 576.594 -1.7706 4.51418 0
M  V30 5690 N 577.937 -1.40673 -0.710563 0
M  V30 5691 C 578.867 -1.44095 -1.83736 0
M  V30 5692 C 579.848 -0.301286 -1.67411 0
M  V30 5693 O 581.033 -0.510618 -1.87367 0
M  V30 5694 C 578.163 -1.30773 -3.21738 0
M  V30 5695 C 577.117 -2.42395 -3.52745 0
M  V30 5696 C 576.443 -2.14147 -4.89944 0
M  V30 5697 C 577.743 -3.84738 -3.53234 0
M  V30 5698 H 579.437 -2.38396 -1.81129 0
M  V30 5699 H 576.983 -1.14746 -0.870017 0
M  V30 5700 H 578.936 -1.31783 -4.00264 0
M  V30 5701 H 577.66 -0.329507 -3.24934 0
M  V30 5702 H 576.319 -2.40643 -2.76562 0
M  V30 5703 H 575.967 -1.14703 -4.89747 0
M  V30 5704 H 575.667 -2.88934 -5.11655 0
M  V30 5705 H 577.191 -2.16848 -5.70797 0
M  V30 5706 H 578.605 -3.88286 -4.2179 0
M  V30 5707 H 577.002 -4.59085 -3.86473 0
M  V30 5708 H 578.072 -4.13962 -2.52514 0
M  V30 5709 N 579.415 0.9433 -1.26252 0
M  V30 5710 C 580.378 2.02326 -1.07689 0
M  V30 5711 C 581.378 1.60779 -0.0259174 0
M  V30 5712 O 582.568 1.72108 -0.269134 0
M  V30 5713 C 579.7 3.34886 -0.63752 0
M  V30 5714 H 580.893 2.20225 -2.0357 0
M  V30 5715 H 578.446 1.12197 -1.08819 0
M  V30 5716 H 579.181 3.22684 0.323377 0
M  V30 5717 H 578.966 3.66393 -1.39637 0
M  V30 5718 H 580.456 4.14231 -0.529418 0
M  V30 5719 N 580.893 1.08022 1.14757 0
M  V30 5720 C 582.139 0.808705 1.85978 0
M  V30 5721 C 582.472 -0.663764 1.82504 0
M  V30 5722 O 581.747 -1.48765 1.25296 0
M  V30 5723 C 582.03 1.32623 3.34788 0
M  V30 5724 C 581.883 2.86375 3.46856 0
M  V30 5725 C 583.202 0.948291 4.29762 0
M  V30 5726 H 580.321 0.295244 0.675278 0
M  V30 5727 H 582.963 1.33917 1.34783 0
M  V30 5728 H 581.113 0.875002 3.78518 0
M  V30 5729 H 582.785 3.39839 3.11941 0
M  V30 5730 H 581.028 3.24232 2.88194 0
M  V30 5731 H 581.699 3.17658 4.51439 0
M  V30 5732 H 584.175 1.33722 3.94028 0
M  V30 5733 H 583.051 1.33765 5.32352 0
M  V30 5734 H 583.312 -0.145094 4.41862 0
M  V30 5735 N 582.371 -1.3172 0.865308 0
M  V30 5736 C 583.617 -1.97168 0.474633 0
M  V30 5737 C 583.95 -1.68263 -0.969604 0
M  V30 5738 O 583.225 -0.976588 -1.68205 0
M  V30 5739 C 583.508 -3.52689 0.726808 0
M  V30 5740 C 583.361 -3.91185 2.22024 0
M  V30 5741 C 584.68 -4.39689 0.190201 0
M  V30 5742 H 581.799 -0.716185 0.17392 0
M  V30 5743 H 584.441 -1.55925 1.08569 0
M  V30 5744 H 582.591 -3.8795 0.206705 0
M  V30 5745 H 584.263 -3.66049 2.80724 0
M  V30 5746 H 582.506 -3.3996 2.69462 0
M  V30 5747 H 583.177 -4.99604 2.34735 0
M  V30 5748 H 585.653 -4.11225 0.635103 0
M  V30 5749 H 584.529 -5.47469 0.396132 0
M  V30 5750 H 584.79 -4.32683 -0.907625 0
M  V30 5751 N 583.85 -0.624285 -1.44708 0
M  V30 5752 C 585.26 -0.2092 -1.85524 0
M  V30 5753 C 585.611 1.23783 -1.52225 0
M  V30 5754 O 584.736 1.94089 -0.956986 0
M  V30 5755 C 585.332 -0.372897 -3.36742 0
M  V30 5756 C 583.891 -0.012374 -3.76398 0
M  V30 5757 C 583.038 -0.68951 -2.68591 0
M  V30 5758 H 585.989 -0.829894 -1.35272 0
M  V30 5759 H 586.01 0.390134 -3.78495 0
M  V30 5760 H 585.522 -1.42615 -3.60947 0
M  V30 5761 H 583.623 1.03941 -3.57809 0
M  V30 5762 H 583.736 -0.417663 -4.77276 0
M  V30 5763 H 582.1 -0.125484 -2.54391 0
M  V30 5764 H 582.883 -1.74522 -2.9563 0
M  V30 5765 N 585.328 1.53329 -0.364422 0
M  V30 5766 C 586.291 2.24323 0.470292 0
M  V30 5767 C 587.291 1.25068 1.01067 0
M  V30 5768 O 588.481 1.49354 0.896605 0
M  V30 5769 C 585.613 2.97908 1.65722 0
M  V30 5770 H 586.806 2.9952 -0.150917 0
M  V30 5771 H 584.359 1.55868 -0.116092 0
M  V30 5772 H 585.094 2.2695 2.31655 0
M  V30 5773 H 584.879 3.70732 1.27671 0
M  V30 5774 H 586.369 3.5188 2.24878 0
M  V30 5775 N 586.806 0.0935595 1.57322 0
M  V30 5776 C 588.034 -0.578934 1.98635 0
M  V30 5777 C 588.449 -1.61819 0.972626 0
M  V30 5778 O 587.806 -1.82461 -0.0379638 0
M  V30 5779 C 587.857 -1.22802 3.40003 0
M  V30 5780 O 587.578 -0.230334 4.37494 0
M  V30 5781 C 589.079 -1.98627 3.96311 0
M  V30 5782 H 586.299 -0.155324 0.652775 0
M  V30 5783 H 588.843 0.172393 2.03772 0
M  V30 5784 H 586.998 -1.93029 3.35885 0
M  V30 5785 H 587.412 -0.698649 5.19826 0
M  V30 5786 H 588.886 -2.39405 4.97382 0
M  V30 5787 H 589.363 -2.85151 3.34044 0
M  V30 5788 H 589.969 -1.3322 4.03897 0
M  V30 5789 N 588.284 -1.56567 -0.180126 0
M  V30 5790 C 589.695 -1.7126 -0.743422 0
M  V30 5791 C 590.046 -0.70263 -1.83187 0
M  V30 5792 O 589.171 0.137856 -2.1596 0
M  V30 5793 C 589.766 -3.10512 -1.35528 0
M  V30 5794 C 588.325 -3.26919 -1.8655 0
M  V30 5795 C 587.472 -2.67213 -0.741099 0
M  V30 5796 H 590.423 -1.58636 0.0451543 0
M  V30 5797 H 590.444 -3.08673 -2.22489 0
M  V30 5798 H 589.956 -3.83997 -0.562862 0
M  V30 5799 H 588.057 -2.58376 -2.68464 0
M  V30 5800 H 588.17 -4.34574 -2.01699 0
M  V30 5801 H 586.534 -2.26788 -1.15927 0
M  V30 5802 H 587.317 -3.43277 0.0393291 0
M  V30 5803 N 589.762 0.448376 -1.51087 0
M  V30 5804 C 590.99 1.22143 -1.66999 0
M  V30 5805 C 591.405 1.85283 -0.362699 0
M  V30 5806 O 590.762 1.70236 0.65772 0
M  V30 5807 C 590.813 2.31357 -2.7777 0
M  V30 5808 O 590.534 1.70801 -4.03434 0
M  V30 5809 C 592.035 3.21836 -3.04855 0
M  V30 5810 H 589.255 0.368558 -0.560719 0
M  V30 5811 H 591.799 0.532618 -1.97442 0
M  V30 5812 H 589.954 2.95973 -2.49958 0
M  V30 5813 H 590.368 2.42895 -4.64868 0
M  V30 5814 H 591.842 3.94627 -3.85971 0
M  V30 5815 H 592.319 3.81949 -2.16821 0
M  V30 5816 H 592.925 2.62933 -3.34285 0
M  V30 5817 N 591.24 1.41047 0.703093 0
M  V30 5818 C 592.468 1.4334 1.49202 0
M  V30 5819 C 592.883 0.0365596 1.88765 0
M  V30 5820 O 592.24 -0.942419 1.56284 0
M  V30 5821 C 592.291 2.33538 2.75939 0
M  V30 5822 O 592.012 3.67786 2.38045 0
M  V30 5823 C 593.513 2.44555 3.6974 0
M  V30 5824 H 590.733 0.488472 0.460039 0
M  V30 5825 H 593.277 1.85245 0.86629 0
M  V30 5826 H 591.432 1.94962 3.34766 0
M  V30 5827 H 591.846 4.15816 3.19683 0
M  V30 5828 H 593.32 3.11849 4.55471 0
M  V30 5829 H 593.797 1.47447 4.1371 0
M  V30 5830 H 594.403 2.83735 3.16819 0
M  V30 5831 N 592.718 -0.936591 1.26751 0
M  V30 5832 C 593.943 -1.72288 1.15462 0
M  V30 5833 C 594.368 -1.85915 -0.285887 0
M  V30 5834 O 593.726 -1.35272 -1.20711 0
M  V30 5835 C 593.774 -3.10503 1.83359 0
M  V30 5836 O 592.878 -3.96745 1.1255 0
M  V30 5837 H 592.219 -0.52843 0.402067 0
M  V30 5838 H 594.749 -1.17271 1.67656 0
M  V30 5839 H 594.759 -3.60867 1.90365 0
M  V30 5840 H 593.434 -2.99901 2.88153 0
M  V30 5841 H 592.011 -3.55191 1.13551 0
M  V30 5842 N 594.196 -1.08629 -1.14182 0
M  V30 5843 C 595.126 -0.740003 -2.21464 0
M  V30 5844 C 596.107 0.278591 -1.67803 0
M  V30 5845 O 597.292 0.148461 -1.93632 0
M  V30 5846 C 594.422 -0.150952 -3.46972 0
M  V30 5847 C 593.376 -1.09815 -4.13672 0
M  V30 5848 C 592.702 -0.3712 -5.3341 0
M  V30 5849 C 594.002 -2.43722 -4.61949 0
M  V30 5850 H 595.696 -1.63697 -2.50686 0
M  V30 5851 H 593.242 -0.788526 -1.20492 0
M  V30 5852 H 595.195 0.103325 -4.21273 0
M  V30 5853 H 593.919 0.781164 -3.1712 0
M  V30 5854 H 592.578 -1.33756 -3.41328 0
M  V30 5855 H 592.226 0.564792 -4.99819 0
M  V30 5856 H 591.926 -1.00267 -5.78982 0
M  V30 5857 H 593.45 -0.12503 -6.10472 0
M  V30 5858 H 594.864 -2.24034 -5.27714 0
M  V30 5859 H 593.261 -3.02582 -5.18232 0
M  V30 5860 H 594.331 -3.05082 -3.76899 0
M  V30 5861 N 595.674 1.31259 -0.872281 0
M  V30 5862 C 596.902 2.00795 -0.498907 0
M  V30 5863 C 597.317 1.65464 0.909238 0
M  V30 5864 O 596.674 0.885073 1.59602 0
M  V30 5865 C 596.725 3.55625 -0.649092 0
M  V30 5866 O 596.446 3.89692 -2.00179 0
M  V30 5867 C 597.947 4.42434 -0.277034 0
M  V30 5868 H 595.167 0.642299 -0.194145 0
M  V30 5869 H 597.711 1.67438 -1.17408 0
M  V30 5870 H 595.866 3.87394 -0.0214402 0
M  V30 5871 H 596.28 4.84407 -2.01122 0
M  V30 5872 H 597.754 5.50299 -0.433064 0
M  V30 5873 H 598.231 4.32146 0.783989 0
M  V30 5874 H 598.837 4.16086 -0.880483 0
M  V30 5875 N 597.152 0.631951 1.44375 0
M  V30 5876 C 598.4 0.136497 2.01639 0
M  V30 5877 C 598.721 -1.24637 1.49969 0
M  V30 5878 O 597.991 -1.82827 0.70363 0
M  V30 5879 H 596.571 0.0474703 0.74549 0
M  V30 5880 H 599.233 0.818837 1.76865 0
M  V30 5881 H 598.329 0.104817 3.11924 0
M  V30 5882 N 598.631 -1.53133 0.372548 0
M  V30 5883 C 599.879 -2.00958 -0.214534 0
M  V30 5884 C 600.2 -1.26135 -1.48711 0
M  V30 5885 O 599.47 -0.376597 -1.92246 0
M  V30 5886 H 598.05 -0.742456 -0.0822664 0
M  V30 5887 H 600.712 -1.88367 0.500385 0
M  V30 5888 H 599.808 -3.09031 -0.436605 0
M  V30 5889 N 600.109 -0.101901 -1.5727 0
M  V30 5890 C 601.355 0.561027 -1.94885 0
M  V30 5891 C 601.688 1.6741 -0.984258 0
M  V30 5892 O 600.963 1.94491 -0.0184767 0
M  V30 5893 C 601.246 1.10982 -3.42571 0
M  V30 5894 C 601.099 0.00133418 -4.498 0
M  V30 5895 C 602.418 2.00608 -3.9172 0
M  V30 5896 H 599.537 0.202467 -0.708644 0
M  V30 5897 H 602.179 -0.173992 -1.89202 0
M  V30 5898 H 600.329 1.73621 -3.47546 0
M  V30 5899 H 602.001 -0.63322 -4.56933 0
M  V30 5900 H 600.244 -0.664143 -4.28686 0
M  V30 5901 H 600.915 0.426253 -5.50352 0
M  V30 5902 H 603.391 1.47864 -3.88941 0
M  V30 5903 H 602.267 2.3593 -4.95609 0
M  V30 5904 H 602.528 2.92608 -3.3141 0
M  V30 5905 N 601.587 1.56661 0.17182 0
M  V30 5906 C 602.812 1.86459 0.908165 0
M  V30 5907 C 603.237 0.688181 1.75059 0
M  V30 5908 O 602.595 -0.362753 1.77634 0
M  V30 5909 C 602.643 3.14669 1.76112 0
M  V30 5910 O 601.747 2.96858 2.86268 0
M  V30 5911 H 601.088 0.613318 0.254434 0
M  V30 5912 H 603.618 2.03892 0.170113 0
M  V30 5913 H 603.628 3.46061 2.16115 0
M  V30 5914 H 602.303 3.99905 1.14233 0
M  V30 5915 H 600.88 2.76819 2.49852 0
M  V30 5916 N 603.065 -0.440357 1.51323 0
M  V30 5917 C 604.295 -1.21079 1.67402 0
M  V30 5918 C 604.703 -1.85555 0.369599 0
M  V30 5919 O 604.046 -1.71375 -0.661525 0
M  V30 5920 C 604.108 -2.33839 2.73056 0
M  V30 5921 C 603.772 -1.89755 4.15743 0
M  V30 5922 C 604.769 -1.40268 5.0062 0
M  V30 5923 C 602.454 -1.97539 4.61826 0
M  V30 5924 C 604.448 -0.991474 6.29642 0
M  V30 5925 C 602.135 -1.56029 5.90845 0
M  V30 5926 C 603.133 -1.06915 6.7458 0
M  V30 5927 O 602.821 -0.659933 8.01187 0
M  V30 5928 H 602.553 -0.371133 0.56501 0
M  V30 5929 H 605.107 -0.528409 1.98487 0
M  V30 5930 H 603.337 -3.05345 2.37279 0
M  V30 5931 H 605.026 -2.95713 2.78044 0
M  V30 5932 H 605.792 -1.33652 4.66221 0
M  V30 5933 H 601.671 -2.34713 3.96776 0
M  V30 5934 H 605.215 -0.607425 6.9495 0
M  V30 5935 H 601.112 -1.62315 6.24759 0
M  V30 5936 H 601.88 -0.786052 8.14717 0
M  V30 5937 N 604.543 -1.41418 -0.695603 0
M  V30 5938 C 605.506 -1.42988 -1.79129 0
M  V30 5939 C 606.506 -0.320514 -1.57573 0
M  V30 5940 O 607.696 -0.58039 -1.64247 0
M  V30 5941 C 604.828 -1.24122 -3.175 0
M  V30 5942 H 606.021 -2.40526 -1.7913 0
M  V30 5943 H 603.574 -1.2756 -0.903225 0
M  V30 5944 H 604.309 -0.274253 -3.23138 0
M  V30 5945 H 604.094 -2.045 -3.34547 0
M  V30 5946 H 605.584 -1.28056 -3.97481 0
M  V30 5947 N 606.021 0.929856 -1.27246 0
M  V30 5948 C 607.27 1.67182 -1.12842 0
M  V30 5949 C 607.583 1.9287 0.325666 0
M  V30 5950 O 608.789 2.64999 0.590572 0
M  V30 5951 C 607.245 3.01097 -1.97151 0
M  V30 5952 C 606.853 2.83115 -3.47203 0
M  V30 5953 C 608.597 3.78907 -1.91389 0
M  V30 5954 C 606.504 4.12573 -4.23719 0
M  V30 5955 H 605.434 0.627064 -0.418697 0
M  V30 5956 H 608.085 1.0332 -1.51649 0
M  V30 5957 H 606.467 3.66004 -1.51186 0
M  V30 5958 H 607.641 2.26989 -4.01015 0
M  V30 5959 H 605.956 2.18736 -3.54321 0
M  V30 5960 H 608.553 4.74837 -2.45834 0
M  V30 5961 H 608.896 4.0674 -0.887047 0
M  V30 5962 H 609.429 3.20794 -2.35237 0
M  V30 5963 H 606.168 3.8992 -5.26918 0
M  V30 5964 H 605.688 4.68371 -3.74685 0
M  V30 5965 H 607.367 4.8095 -4.32777 0
M  V30 5966 N 607.499 1.09233 1.13605 0
M  V30 5967 C 608.747 0.825525 1.84471 0
M  V30 5968 C 609.068 -0.650702 1.83823 0
M  V30 5969 O 608.338 -1.47204 1.29259 0
M  V30 5970 H 606.918 0.3024 0.683054 0
M  V30 5971 H 609.58 1.38006 1.37624 0
M  V30 5972 H 608.676 1.17727 2.89045 0
M  V30 5973 N 608.977 -1.30795 0.87923 0
M  V30 5974 C 609.924 -2.28282 0.339968 0
M  V30 5975 C 610.894 -1.56134 -0.566685 0
M  V30 5976 O 612.079 -1.84231 -0.496338 0
M  V30 5977 C 609.219 -3.42225 -0.444501 0
M  V30 5978 C 608.332 -4.29204 0.490717 0
M  V30 5979 C 607.467 -5.30302 -0.308784 0
M  V30 5980 C 606.506 -6.08929 0.622272 0
M  V30 5981 N 605.643 -7.01957 -0.14155 0
M  V30 5982 H 610.483 -2.73794 1.17647 0
M  V30 5983 H 608.02 -1.34682 0.591527 0
M  V30 5984 H 609.978 -4.07038 -0.915186 0
M  V30 5985 H 608.608 -2.97799 -1.24562 0
M  V30 5986 H 607.66 -3.6475 1.07988 0
M  V30 5987 H 608.972 -4.84045 1.20425 0
M  V30 5988 H 608.126 -6.00835 -0.841575 0
M  V30 5989 H 606.865 -4.7614 -1.05556 0
M  V30 5990 H 605.87 -5.37278 1.16674 0
M  V30 5991 H 607.095 -6.65178 1.36804 0
M  V30 5992 H 605.041 -6.50192 -0.870966 0
M  V30 5993 H 604.958 -7.54261 0.51246 0
M  V30 5994 H 606.226 -7.76741 -0.655271 0
M  V30 5995 N 610.455 -0.639598 -1.44038 0
M  V30 5996 C 611.403 0.0723409 -2.32487 0
M  V30 5997 C 612.397 0.827129 -1.47834 0
M  V30 5998 O 613.603 0.73907 -1.64127 0
M  V30 5999 H 609.978 0.0421696 -0.750817 0
M  V30 6000 H 611.949 -0.691593 -2.90275 0
M  V30 6001 C 610.698 1.03452 -3.31953 0
M  V30 6002 H 610.021 0.46315 -3.97108 0
M  V30 6003 H 611.461 1.502 -3.96505 0
M  V30 6004 C 609.92 2.12392 -2.61518 0
M  V30 6005 O 610.45 3.2059 -2.42044 0
M  V30 6006 N 608.656 1.88563 -2.21116 0
M  V30 6007 H 608.203 1.00577 -2.37154 0
M  V30 6008 H 608.161 2.61651 -1.74316 0
M  V30 6009 N 611.933 1.52934 -0.380664 0
M  V30 6010 C 613.21 1.93845 0.261417 0
M  V30 6011 C 613.59 1.31544 1.65104 0
M  V30 6012 O 612.938 0.480234 2.23397 0
M  V30 6013 C 613.148 3.47739 0.296466 0
M  V30 6014 C 614.496 4.21284 0.529578 0
M  V30 6015 O 615.52 3.54199 0.377041 0
M  V30 6016 O 614.379 5.40195 0.827753 0
M  V30 6017 H 611.473 0.811318 0.160285 0
M  V30 6018 H 614.019 1.64042 -0.434544 0
M  V30 6019 H 612.791 3.85395 -0.67724 0
M  V30 6020 H 612.414 3.8382 1.0377 0
M  V30 6021 N 613.412 0.11024 1.57214 0
M  V30 6022 C 614.658 -0.550684 1.9518 0
M  V30 6023 C 614.991 -1.66885 0.993122 0
M  V30 6024 O 614.266 -1.94479 0.0287907 0
M  V30 6025 C 614.549 -1.09163 3.43155 0
M  V30 6026 C 614.402 0.0225198 4.49794 0
M  V30 6027 C 615.721 -1.98527 3.92778 0
M  V30 6028 H 612.84 -0.198706 0.709708 0
M  V30 6029 H 615.482 0.184024 1.89107 0
M  V30 6030 H 613.632 -1.71775 3.48462 0
M  V30 6031 H 615.304 0.657443 4.56591 0
M  V30 6032 H 613.547 0.686868 4.28328 0
M  V30 6033 H 614.218 -0.39706 5.5057 0
M  V30 6034 H 616.694 -1.458 3.8972 0
M  V30 6035 H 615.57 -2.33298 4.96853 0
M  V30 6036 H 615.831 -2.90846 3.32958 0
M  V30 6037 N 614.89 -1.56749 -0.16351 0
M  V30 6038 C 616.139 -1.81626 -0.877211 0
M  V30 6039 C 616.452 -0.688791 -1.83071 0
M  V30 6040 O 617.658 -0.822697 -2.58735 0
M  V30 6041 C 616.114 -3.21858 -1.61045 0
M  V30 6042 C 615.722 -4.42494 -0.700195 0
M  V30 6043 C 617.466 -3.56021 -2.31192 0
M  V30 6044 C 615.373 -5.73748 -1.43412 0
M  V30 6045 H 614.303 -0.67731 -0.331312 0
M  V30 6046 H 616.954 -1.83039 -0.13006 0
M  V30 6047 H 615.336 -3.14784 -2.40264 0
M  V30 6048 H 616.51 -4.60766 0.0555849 0
M  V30 6049 H 614.825 -4.1626 -0.10799 0
M  V30 6050 H 617.422 -4.51333 -2.8671 0
M  V30 6051 H 617.765 -2.81277 -3.06902 0
M  V30 6052 H 618.298 -3.64682 -1.58909 0
M  V30 6053 H 615.037 -6.51543 -0.719186 0
M  V30 6054 H 614.557 -5.5944 -2.16302 0
M  V30 6055 H 616.236 -6.15975 -1.9795 0
M  V30 6056 N 616.368 0.432326 -1.51554 0
M  V30 6057 C 617.645 1.19288 -1.55015 0
M  V30 6058 C 618.025 2.08701 -0.317375 0
M  V30 6059 O 617.373 2.17602 0.697243 0
M  V30 6060 C 617.583 1.99037 -2.86679 0
M  V30 6061 C 618.931 2.55907 -3.38817 0
M  V30 6062 O 619.955 2.09243 -2.88263 0
M  V30 6063 O 618.814 3.41029 -4.27038 0
M  V30 6064 H 615.908 0.543369 -0.623441 0
M  V30 6065 H 618.454 0.440988 -1.6387 0
M  V30 6066 H 617.226 1.33397 -3.6786 0
M  V30 6067 H 616.849 2.81281 -2.8101 0
M  V30 6068 N 617.846 1.41785 0.688094 0
M  V30 6069 C 619.093 1.41544 1.44816 0
M  V30 6070 C 619.421 0.0271746 1.94481 0
M  V30 6071 O 618.676 -0.962235 1.7041 0
M  V30 6072 C 618.975 2.37532 2.67046 0
M  V30 6073 C 618.641 3.84209 2.35996 0
M  V30 6074 C 617.303 4.24165 2.27239 0
M  V30 6075 C 619.655 4.76785 2.10536 0
M  V30 6076 C 616.983 5.54695 1.91128 0
M  V30 6077 C 619.335 6.07644 1.75931 0
M  V30 6078 C 617.999 6.46613 1.65675 0
M  V30 6079 H 617.269 0.517945 0.529919 0
M  V30 6080 H 619.916 1.74635 0.785797 0
M  V30 6081 H 618.221 1.9772 3.38251 0
M  V30 6082 H 619.918 2.34615 3.25203 0
M  V30 6083 H 616.508 3.52567 2.4371 0
M  V30 6084 H 620.692 4.46714 2.16242 0
M  V30 6085 H 615.948 5.83762 1.81746 0
M  V30 6086 H 620.122 6.78874 1.55252 0
M  V30 6087 H 617.749 7.47668 1.37463 0
M  V30 6088 N 619.324 -0.923095 1.27737 0
M  V30 6089 C 620.287 -2.00587 1.10894 0
M  V30 6090 C 621.287 -1.60718 0.0514927 0
M  V30 6091 O 622.477 -1.71658 0.296481 0
M  V30 6092 C 619.609 -3.33829 0.690717 0
M  V30 6093 H 620.802 -2.16959 2.07048 0
M  V30 6094 H 618.355 -1.10451 1.1059 0
M  V30 6095 H 619.09 -3.23157 -0.272 0
M  V30 6096 H 618.875 -3.64125 1.45448 0
M  V30 6097 H 620.365 -4.13336 0.595252 0
M  V30 6098 N 620.802 -1.09834 -1.13024 0
M  V30 6099 C 621.732 -0.763451 -2.20666 0
M  V30 6100 C 622.713 0.260778 -1.68089 0
M  V30 6101 O 623.898 0.127915 -1.93778 0
M  V30 6102 C 621.028 -0.187744 -3.46792 0
M  V30 6103 C 619.982 -1.14196 -4.12484 0
M  V30 6104 C 619.308 -0.427755 -5.32986 0
M  V30 6105 C 620.608 -2.48607 -4.59338 0
M  V30 6106 H 622.302 -1.66347 -2.48936 0
M  V30 6107 H 619.848 -0.801261 -1.19649 0
M  V30 6108 H 621.801 0.0586375 -4.21359 0
M  V30 6109 H 620.525 0.747485 -3.17931 0
M  V30 6110 H 619.184 -1.37369 -3.3989 0
M  V30 6111 H 618.832 0.511747 -5.0039 0
M  V30 6112 H 618.532 -1.06403 -5.77886 0
M  V30 6113 H 620.056 -0.189772 -6.10305 0
M  V30 6114 H 621.47 -2.29618 -5.25308 0
M  V30 6115 H 619.867 -3.08062 -5.14993 0
M  V30 6116 H 620.937 -3.09062 -3.73642 0
M  V30 6117 N 622.28 1.30327 -0.886154 0
M  V30 6118 C 623.505 2.0079 -0.519425 0
M  V30 6119 C 623.93 1.65979 0.885013 0
M  V30 6120 O 623.288 0.877043 1.58675 0
M  V30 6121 C 623.336 3.53686 -0.702758 0
M  V30 6122 O 622.44 4.11637 0.250828 0
M  V30 6123 H 621.781 0.63171 -0.204544 0
M  V30 6124 H 624.311 1.66145 -1.19402 0
M  V30 6125 H 624.321 4.03531 -0.602207 0
M  V30 6126 H 622.996 3.78361 -1.72673 0
M  V30 6127 H 621.573 3.72755 0.103873 0
M  V30 6128 N 623.758 0.647228 1.43697 0
M  V30 6129 C 625.004 0.158422 2.0218 0
M  V30 6130 C 625.337 -1.22233 1.50907 0
M  V30 6131 O 624.612 -1.81478 0.699702 0
M  V30 6132 C 624.895 0.1627 3.59732 0
M  V30 6133 C 624.748 1.57694 4.21251 0
M  V30 6134 C 626.067 -0.504138 4.37203 0
M  V30 6135 H 623.186 0.059042 0.734631 0
M  V30 6136 H 625.828 0.826772 1.71069 0
M  V30 6137 H 623.978 -0.406414 3.86368 0
M  V30 6138 H 625.65 2.19618 4.05667 0
M  V30 6139 H 623.893 2.12603 3.7813 0
M  V30 6140 H 624.564 1.53183 5.3032 0
M  V30 6141 H 627.04 -0.0199841 4.16095 0
M  V30 6142 H 625.916 -0.470394 5.46881 0
M  V30 6143 H 626.177 -1.57726 4.13007 0
M  V30 6144 N 625.236 -1.5273 0.388769 0
M  V30 6145 C 626.199 -2.25043 -0.434544 0
M  V30 6146 C 627.199 -1.26661 -0.990644 0
M  V30 6147 O 628.389 -1.50762 -0.872731 0
M  V30 6148 C 625.521 -3.00507 -1.60961 0
M  V30 6149 H 626.714 -2.99242 0.198549 0
M  V30 6150 H 624.267 -1.55664 0.140875 0
M  V30 6151 H 625.002 -2.30607 -2.28015 0
M  V30 6152 H 624.787 -3.72716 -1.21757 0
M  V30 6153 H 626.277 -3.55413 -2.19251 0
M  V30 6154 N 626.714 -0.118576 -1.57153 0
M  V30 6155 C 627.644 0.828436 -2.1831 0
M  V30 6156 C 628.625 1.27758 -1.12303 0
M  V30 6157 O 629.81 1.34026 -1.40537 0
M  V30 6158 C 626.94 2.07876 -2.78217 0
M  V30 6159 C 625.894 1.76742 -3.89803 0
M  V30 6160 C 625.22 3.08801 -4.36516 0
M  V30 6161 C 626.52 1.03606 -5.11921 0
M  V30 6162 H 628.214 0.318824 -2.97698 0
M  V30 6163 H 625.76 0.151911 -1.43196 0
M  V30 6164 H 627.713 2.74584 -3.19659 0
M  V30 6165 H 626.437 2.61161 -1.96118 0
M  V30 6166 H 625.096 1.12424 -3.48936 0
M  V30 6167 H 624.744 3.6002 -3.51276 0
M  V30 6168 H 624.444 2.88743 -5.11763 0
M  V30 6169 H 625.968 3.76627 -4.80608 0
M  V30 6170 H 627.382 1.60467 -5.50385 0
M  V30 6171 H 625.779 0.936454 -5.92748 0
M  V30 6172 H 626.849 0.0227421 -4.84895 0
M  V30 6173 N 628.193 1.56834 0.155195 0
M  V30 6174 C 629.609 1.51315 0.50755 0
M  V30 6175 C 629.809 0.825614 1.83809 0
M  V30 6176 O 628.865 0.39271 2.49427 0
M  V30 6177 C 630.178 2.96074 0.52542 0
M  V30 6178 C 631.726 3.06968 0.611505 0
M  V30 6179 C 632.201 4.53218 0.660115 0
M  V30 6180 N 633.692 4.5753 0.722564 0
M  V30 6181 C 634.427 5.68056 0.781023 0
M  V30 6182 N 633.923 6.88173 0.799327 0
M  V30 6183 N 635.716 5.56068 0.821278 0
M  V30 6184 H 627.867 1.9993 -0.717063 0
M  V30 6185 H 630.13 0.911507 -0.260496 0
M  V30 6186 H 629.836 3.49599 -0.383875 0
M  V30 6187 H 629.71 3.51587 1.36624 0
M  V30 6188 H 632.097 2.53468 1.51122 0
M  V30 6189 H 632.178 2.54513 -0.256306 0
M  V30 6190 H 631.822 5.07354 -0.23541 0
M  V30 6191 H 631.752 5.03447 1.5443 0
M  V30 6192 H 634.243 3.71054 0.716049 0
M  V30 6193 H 634.556 7.6816 0.845553 0
M  V30 6194 H 632.901 6.90751 0.767337 0
M  V30 6195 H 636.092 4.61142 0.804091 0
M  V30 6196 H 636.265 6.42223 0.863372 0
M  V30 6197 N 629.671 -0.424282 1.51781 0
M  V30 6198 C 630.618 -1.51591 1.74037 0
M  V30 6199 C 631.588 -1.55556 0.582358 0
M  V30 6200 O 632.773 -1.72364 0.818245 0
M  V30 6201 C 629.913 -2.89188 1.8832 0
M  V30 6202 C 629.026 -2.9465 3.1592 0
M  V30 6203 C 628.161 -4.23452 3.20721 0
M  V30 6204 C 627.2 -4.22831 4.42584 0
M  V30 6205 N 626.337 -5.43178 4.44862 0
M  V30 6206 H 631.177 -1.31917 2.67212 0
M  V30 6207 H 628.714 -0.640599 1.32419 0
M  V30 6208 H 630.672 -3.69044 1.94583 0
M  V30 6209 H 629.302 -3.07392 0.985402 0
M  V30 6210 H 628.354 -2.07378 3.18902 0
M  V30 6211 H 629.666 -2.90055 4.05795 0
M  V30 6212 H 628.82 -5.1169 3.25973 0
M  V30 6213 H 627.559 -4.30722 2.28757 0
M  V30 6214 H 626.564 -3.32984 4.37495 0
M  V30 6215 H 627.789 -4.17213 5.35826 0
M  V30 6216 H 625.735 -5.51145 3.55775 0
M  V30 6217 H 625.652 -5.40515 5.28563 0
M  V30 6218 H 626.92 -6.33412 4.54324 0
M  V30 6219 N 631.149 -1.42148 -0.680565 0
M  V30 6220 C 632.377 -1.45696 -1.46902 0
M  V30 6221 C 632.792 -0.0665858 -1.88683 0
M  V30 6222 O 632.149 0.917436 -1.57764 0
M  V30 6223 C 632.2 -2.37898 -2.72188 0
M  V30 6224 O 631.921 -3.71526 -2.32163 0
M  V30 6225 C 633.422 -2.50407 -3.65802 0
M  V30 6226 H 630.642 -0.495729 -0.45221 0
M  V30 6227 H 633.186 -1.866 -0.836709 0
M  V30 6228 H 631.341 -2.00263 -3.31622 0
M  V30 6229 H 631.755 -4.20849 -3.13027 0
M  V30 6230 H 633.229 -3.19056 -4.50452 0
M  V30 6231 H 633.706 -1.5401 -4.11312 0
M  V30 6232 H 634.312 -2.8874 -3.12265 0
M  V30 6233 N 632.627 0.916307 -1.28225 0
M  V30 6234 C 633.557 2.0352 -1.14464 0
M  V30 6235 C 634.538 1.70045 -0.0430844 0
M  V30 6236 O 635.723 1.92954 -0.219619 0
M  V30 6237 C 632.853 3.37889 -0.803027 0
M  V30 6238 C 631.807 3.85516 -1.85908 0
M  V30 6239 C 631.133 5.1682 -1.37116 0
M  V30 6240 C 632.433 4.07655 -3.26519 0
M  V30 6241 H 634.127 2.1529 -2.08064 0
M  V30 6242 H 631.673 1.03446 -1.00174 0
M  V30 6243 H 633.626 4.15654 -0.693537 0
M  V30 6244 H 632.35 3.26164 0.168674 0
M  V30 6245 H 631.009 3.09953 -1.95767 0
M  V30 6246 H 630.657 5.01497 -0.38859 0
M  V30 6247 H 630.357 5.49657 -2.07728 0
M  V30 6248 H 631.881 5.97143 -1.27484 0
M  V30 6249 H 633.295 4.75953 -3.19596 0
M  V30 6250 H 631.692 4.51818 -3.94943 0
M  V30 6251 H 632.762 3.12553 -3.70727 0
M  V30 6252 N 634.105 1.10431 1.1244 0
M  V30 6253 C 635.382 0.758797 1.80282 0
M  V30 6254 C 635.762 -0.754727 1.97147 0
M  V30 6255 O 635.11 -1.68094 1.54779 0
M  V30 6256 C 635.32 1.50982 3.14651 0
M  V30 6257 C 636.668 1.68232 3.8985 0
M  V30 6258 O 637.692 1.47319 3.24308 0
M  V30 6259 O 636.551 2.02905 5.07437 0
M  V30 6260 H 633.645 0.273756 0.780376 0
M  V30 6261 H 636.191 1.20713 1.19275 0
M  V30 6262 H 634.963 2.53989 2.97666 0
M  V30 6263 H 634.586 1.05435 3.83366 0
M  V30 6264 N 635.583 -1.29855 0.893053 0
M  V30 6265 C 636.531 -2.29867 0.355512 0
M  V30 6266 C 637.525 -1.60502 -0.541801 0
M  V30 6267 O 638.731 -1.74902 -0.425339 0
M  V30 6268 H 635.106 -0.745805 0.0963247 0
M  V30 6269 H 637.077 -2.72655 1.21252 0
M  V30 6270 C 635.826 -3.453 -0.407801 0
M  V30 6271 H 635.149 -3.98864 0.273426 0
M  V30 6272 H 636.589 -4.17334 -0.748887 0
M  V30 6273 C 635.048 -2.96051 -1.60795 0
M  V30 6274 O 635.578 -2.96763 -2.7073 0
M  V30 6275 N 633.784 -2.51963 -1.44786 0
M  V30 6276 H 633.331 -2.51583 -0.553498 0
M  V30 6277 H 633.289 -2.1937 -2.2522 0
M  V30 6278 N 637.061 -0.65484 -1.43351 0
M  V30 6279 C 638.024 0.0263562 -2.29185 0
M  V30 6280 C 639.024 0.748951 -1.42293 0
M  V30 6281 O 640.214 0.589957 -1.63906 0
M  V30 6282 C 637.346 1.04806 -3.2439 0
M  V30 6283 H 638.539 -0.728883 -2.90908 0
M  V30 6284 H 636.092 -0.416149 -1.50658 0
M  V30 6285 H 636.827 1.83247 -2.67565 0
M  V30 6286 H 636.612 0.533554 -3.88453 0
M  V30 6287 H 638.102 1.52372 -3.88809 0
M  V30 6288 N 638.539 1.52521 -0.396863 0
M  V30 6289 C 639.764 2.06571 0.185258 0
M  V30 6290 C 640.189 1.26605 1.39115 0
M  V30 6291 O 639.547 0.293055 1.78916 0
M  V30 6292 C 639.595 3.5674 0.526189 0
M  V30 6293 O 638.699 3.7929 1.61903 0
M  V30 6294 H 638.04 0.663712 0.0195474 0
M  V30 6295 H 640.57 1.966 -0.566519 0
M  V30 6296 H 640.58 4.00311 0.788338 0
M  V30 6297 H 639.255 4.14379 -0.355397 0
M  V30 6298 H 637.832 3.47605 1.35 0
M  V30 6299 N 640.017 0.126909 1.57088 0
M  V30 6300 C 640.949 -0.850973 2.12817 0
M  V30 6301 C 641.962 -1.22457 1.07276 0
M  V30 6302 O 643.151 -1.17215 1.34622 0
M  V30 6303 C 640.251 -2.15039 2.61938 0
M  V30 6304 C 639.424 -1.94726 3.91664 0
M  V30 6305 C 638.483 -3.0847 4.26301 0
M  V30 6306 O 637.509 -2.81038 4.94981 0
M  V30 6307 N 638.711 -4.35116 3.84259 0
M  V30 6308 H 641.476 -0.3748 2.97347 0
M  V30 6309 H 639.037 -0.0572793 1.61799 0
M  V30 6310 H 641.029 -2.90141 2.82135 0
M  V30 6311 H 639.599 -2.5398 1.82244 0
M  V30 6312 H 638.819 -1.03772 3.80296 0
M  V30 6313 H 640.107 -1.78469 4.76473 0
M  V30 6314 H 639.505 -4.60276 3.2888 0
M  V30 6315 H 638.062 -5.07064 4.09548 0
M  V30 6316 N 641.495 -1.56914 -0.146875 0
M  V30 6317 C 642.906 -1.72799 -0.706928 0
M  V30 6318 C 643.257 -0.741329 -1.81656 0
M  V30 6319 O 642.382 0.0920162 -2.16204 0
M  V30 6320 C 642.977 -3.13317 -1.28911 0
M  V30 6321 C 641.536 -3.30803 -1.79573 0
M  V30 6322 C 640.683 -2.68725 -0.684252 0
M  V30 6323 H 643.634 -1.58504 0.0787931 0
M  V30 6324 H 643.655 -3.13323 -2.15891 0
M  V30 6325 H 643.167 -3.85104 -0.481284 0
M  V30 6326 H 641.268 -2.64012 -2.62923 0
M  V30 6327 H 641.381 -4.38754 -1.92436 0
M  V30 6328 H 639.745 -2.29196 -1.11091 0
M  V30 6329 H 640.528 -3.43117 0.112134 0
M  V30 6330 N 642.974 0.416227 -1.52004 0
M  V30 6331 C 643.922 1.5272 -1.7544 0
M  V30 6332 C 644.916 1.57596 -0.621289 0
M  V30 6333 O 646.122 1.61087 -0.803172 0
M  V30 6334 H 642.497 0.507772 -0.554682 0
M  V30 6335 H 644.468 1.30136 -2.68528 0
M  V30 6336 C 643.217 2.90165 -1.91571 0
M  V30 6337 H 642.54 2.87154 -2.78178 0
M  V30 6338 H 643.98 3.67211 -2.11972 0
M  V30 6339 C 642.439 3.29947 -0.680942 0
M  V30 6340 O 642.969 4.01403 0.154527 0
M  V30 6341 N 641.175 2.8593 -0.518894 0
M  V30 6342 H 640.722 2.2795 -1.19986 0
M  V30 6343 H 640.68 3.12907 0.305985 0
M  V30 6344 N 644.452 1.42507 0.673017 0
M  V30 6345 C 645.68 1.46473 1.46128 0
M  V30 6346 C 646.095 0.0765912 1.88645 0
M  V30 6347 O 645.452 -0.909057 1.58248 0
M  V30 6348 C 645.503 2.39339 2.70923 0
M  V30 6349 O 645.224 3.72752 2.3019 0
M  V30 6350 C 646.725 2.52343 3.64469 0
M  V30 6351 H 643.945 0.49812 0.449575 0
M  V30 6352 H 646.489 1.87041 0.826802 0
M  V30 6353 H 644.644 2.02019 3.30556 0
M  V30 6354 H 645.058 4.22503 3.10791 0
M  V30 6355 H 646.532 3.2144 4.48754 0
M  V30 6356 H 647.009 1.56189 4.1049 0
M  V30 6357 H 647.615 2.90392 3.10729 0
M  V30 6358 N 645.93 -0.909495 1.28709 0
M  V30 6359 C 646.893 -1.99399 1.13016 0
M  V30 6360 C 647.893 -1.60654 0.068536 0
M  V30 6361 O 649.083 -1.71334 0.314671 0
M  V30 6362 C 646.215 -3.33078 0.726085 0
M  V30 6363 H 647.408 -2.14751 2.09338 0
M  V30 6364 H 644.961 -1.09272 1.11756 0
M  V30 6365 H 645.696 -3.23428 -0.23771 0
M  V30 6366 H 645.481 -3.62562 1.49302 0
M  V30 6367 H 646.971 -4.12681 0.639058 0
M  V30 6368 N 647.408 -1.11026 -1.11852 0
M  V30 6369 C 648.654 -0.857729 -1.83768 0
M  V30 6370 C 648.987 0.615143 -1.842 0
M  V30 6371 O 648.262 1.45391 -1.29196 0
M  V30 6372 C 648.545 -1.41453 -3.31154 0
M  V30 6373 C 648.398 -2.95471 -3.39142 0
M  V30 6374 C 649.717 -1.0619 -4.27097 0
M  V30 6375 H 646.836 -0.313044 -0.667212 0
M  V30 6376 H 649.478 -1.37443 -1.31185 0
M  V30 6377 H 647.628 -0.975052 -3.76065 0
M  V30 6378 H 649.3 -3.4799 -3.02821 0
M  V30 6379 H 647.543 -3.31759 -2.79497 0
M  V30 6380 H 648.214 -3.29515 -4.42859 0
M  V30 6381 H 650.69 -1.44122 -3.90344 0
M  V30 6382 H 649.566 -1.47832 -5.28618 0
M  V30 6383 H 649.827 0.0278912 -4.42091 0
M  V30 6384 N 648.886 1.2938 -0.899927 0
M  V30 6385 C 650.297 1.77644 -0.574427 0
M  V30 6386 C 650.648 1.73824 0.909928 0
M  V30 6387 O 649.773 1.32429 1.71147 0
M  V30 6388 C 650.368 3.22573 -1.03595 0
M  V30 6389 C 648.927 3.68614 -0.76161 0
M  V30 6390 C 648.074 2.49483 -1.21052 0
M  V30 6391 H 651.025 1.16038 -1.08263 0
M  V30 6392 H 651.046 3.78684 -0.371337 0
M  V30 6393 H 650.558 3.25321 -2.11631 0
M  V30 6394 H 648.659 3.7134 0.306127 0
M  V30 6395 H 648.772 4.59402 -1.35965 0
M  V30 6396 H 647.136 2.46798 -0.629515 0
M  V30 6397 H 647.919 2.54959 -2.29893 0
M  V30 6398 N 650.364 0.662433 1.43002 0
M  V30 6399 C 651.613 0.176873 2.00923 0
M  V30 6400 C 651.926 -1.21954 1.52927 0
M  V30 6401 O 653.132 -1.80081 2.03182 0
M  V30 6402 C 651.588 0.265379 3.5892 0
M  V30 6403 C 651.196 1.66507 4.15908 0
M  V30 6404 C 652.94 -0.162103 4.2419 0
M  V30 6405 C 650.847 1.707 5.66229 0
M  V30 6406 H 649.777 0.0623627 0.751417 0
M  V30 6407 H 652.428 0.825813 1.63868 0
M  V30 6408 H 650.81 -0.451235 3.93421 0
M  V30 6409 H 651.984 2.40777 3.92891 0
M  V30 6410 H 650.299 2.03932 3.63044 0
M  V30 6411 H 652.896 -0.150745 5.34487 0
M  V30 6412 H 653.239 -1.19519 3.98774 0
M  V30 6413 H 653.772 0.503075 3.94606 0
M  V30 6414 H 650.511 2.7195 5.96426 0
M  V30 6415 H 650.031 1.00768 5.91275 0
M  V30 6416 H 651.71 1.45487 6.3043 0
M  V30 6417 N 651.842 -1.52309 0.404946 0
M  V30 6418 C 653.067 -2.06666 -0.1743 0
M  V30 6419 C 653.492 -1.27341 -1.38441 0
M  V30 6420 O 652.85 -0.302539 -1.78758 0
M  V30 6421 C 652.898 -3.57014 -0.507262 0
M  V30 6422 O 652.002 -3.80144 -1.59889 0
M  V30 6423 H 651.343 -0.663807 -0.0160273 0
M  V30 6424 H 653.873 -1.96297 0.576937 0
M  V30 6425 H 653.883 -4.00724 -0.767098 0
M  V30 6426 H 652.558 -4.14184 0.377368 0
M  V30 6427 H 651.135 -3.48316 -1.33155 0
M  V30 6428 N 653.32 -0.135238 -1.57019 0
M  V30 6429 C 654.566 0.519563 -1.96032 0
M  V30 6430 C 654.899 1.65284 -1.01955 0
M  V30 6431 O 654.174 1.94408 -0.059727 0
M  V30 6432 C 654.457 1.0369 -3.44848 0
M  V30 6433 C 654.31 -0.0940754 -4.49702 0
M  V30 6434 C 655.629 1.92254 -3.95887 0
M  V30 6435 H 652.748 0.18739 -0.712779 0
M  V30 6436 H 655.39 -0.214086 -1.8879 0
M  V30 6437 H 653.54 1.66209 -3.5115 0
M  V30 6438 H 655.212 -0.73 -4.55487 0
M  V30 6439 H 653.455 -0.754924 -4.27181 0
M  V30 6440 H 654.126 0.309419 -5.51132 0
M  V30 6441 H 656.602 1.39581 -3.9199 0
M  V30 6442 H 655.478 2.25364 -5.00502 0
M  V30 6443 H 655.739 2.85513 -3.37543 0
M  V30 6444 N 654.798 1.5699 0.138552 0
M  V30 6445 C 656.026 1.87976 0.864437 0
M  V30 6446 C 656.441 0.724372 1.74351 0
M  V30 6447 O 655.798 -0.305575 1.79924 0
M  V30 6448 C 655.849 3.18276 1.71414 0
M  V30 6449 O 655.57 4.29365 0.870487 0
M  V30 6450 C 657.071 3.62834 2.54688 0
M  V30 6451 H 654.291 0.622878 0.249528 0
M  V30 6452 H 656.835 2.04094 0.128805 0
M  V30 6453 H 654.99 3.03886 2.40274 0
M  V30 6454 H 655.404 5.03924 1.45466 0
M  V30 6455 H 656.878 4.5682 3.0987 0
M  V30 6456 H 657.355 2.88533 3.31127 0
M  V30 6457 H 657.961 3.79946 1.91105 0
M  V30 6458 N 656.276 -0.40816 1.52223 0
M  V30 6459 C 657.226 -1.49648 1.72016 0
M  V30 6460 C 658.21 -1.50311 0.574069 0
M  V30 6461 O 659.402 -1.56271 0.831173 0
M  V30 6462 C 656.531 -2.87566 1.87512 0
M  V30 6463 C 655.617 -2.91547 3.07995 0
M  V30 6464 N 656.008 -2.65225 4.30685 0
M  V30 6465 C 654.306 -3.22715 3.07849 0
M  V30 6466 C 655.007 -2.75799 5.12162 0
M  V30 6467 N 653.983 -3.08719 4.4743 0
M  V30 6468 H 657.785 -1.28093 2.64517 0
M  V30 6469 H 655.299 -0.61588 1.50269 0
M  V30 6470 H 657.296 -3.65899 1.99809 0
M  V30 6471 H 655.956 -3.10118 0.962114 0
M  V30 6472 H 656.967 -2.39601 4.59142 0
M  V30 6473 H 653.644 -3.50856 2.26289 0
M  V30 6474 H 655.034 -2.59155 6.1991 0
M  V30 6475 N 657.755 -1.42862 -0.66545 0
M  V30 6476 C 658.98 -1.47456 -1.45848 0
M  V30 6477 C 659.405 -0.0900312 -1.87884 0
M  V30 6478 O 658.763 0.913587 -1.56599 0
M  V30 6479 C 658.811 -2.41514 -2.67774 0
M  V30 6480 O 657.915 -1.89296 -3.66389 0
M  V30 6481 H 657.256 -0.499236 -0.437789 0
M  V30 6482 H 659.786 -1.8765 -0.815394 0
M  V30 6483 H 659.796 -2.58409 -3.15735 0
M  V30 6484 H 658.471 -3.42099 -2.36519 0
M  V30 6485 H 657.048 -1.82003 -3.25468 0
M  V30 6486 N 659.233 0.902656 -1.29189 0
M  V30 6487 C 660.165 2.01149 -1.09872 0
M  V30 6488 C 661.178 1.62732 -0.0471046 0
M  V30 6489 O 662.367 1.76107 -0.29132 0
M  V30 6490 C 659.467 3.32612 -0.649818 0
M  V30 6491 C 658.64 3.99574 -1.7793 0
M  V30 6492 C 657.699 5.09325 -1.32191 0
M  V30 6493 O 656.725 5.31919 -2.02611 0
M  V30 6494 N 657.927 5.80185 -0.191171 0
M  V30 6495 H 660.692 2.18276 -2.05368 0
M  V30 6496 H 658.253 1.07466 -1.2109 0
M  V30 6497 H 660.245 4.03375 -0.327199 0
M  V30 6498 H 658.815 3.11876 0.212597 0
M  V30 6499 H 658.035 3.22213 -2.27095 0
M  V30 6500 H 659.323 4.41056 -2.53668 0
M  V30 6501 H 658.721 5.64312 0.396016 0
M  V30 6502 H 657.278 6.5176 0.0721001 0
M  V30 6503 N 660.711 1.11618 1.11262 0
M  V30 6504 C 661.957 0.867463 1.83311 0
M  V30 6505 C 662.29 -0.605366 1.84524 0
M  V30 6506 O 661.565 -1.44704 1.29965 0
M  V30 6507 C 661.848 1.43207 3.30399 0
M  V30 6508 C 661.701 2.97265 3.3757 0
M  V30 6509 C 663.02 1.08454 4.26528 0
M  V30 6510 H 660.139 0.316578 0.665543 0
M  V30 6511 H 662.781 1.38137 1.30454 0
M  V30 6512 H 660.931 0.994982 3.75543 0
M  V30 6513 H 662.603 3.49591 3.00971 0
M  V30 6514 H 660.846 3.33237 2.77733 0
M  V30 6515 H 661.517 3.31859 4.41105 0
M  V30 6516 H 663.993 1.4619 3.89574 0
M  V30 6517 H 662.869 1.50633 5.27826 0
M  V30 6518 H 663.13 -0.00444568 4.421 0
M  V30 6519 N 662.189 -1.289 0.906776 0
M  V30 6520 C 663.137 -2.29477 0.379873 0
M  V30 6521 C 664.131 -1.61068 -0.524747 0
M  V30 6522 O 665.337 -1.75344 -0.406765 0
M  V30 6523 H 661.712 -0.744742 0.10423 0
M  V30 6524 H 663.683 -2.71353 1.24137 0
M  V30 6525 C 662.432 -3.45713 -0.371154 0
M  V30 6526 H 661.755 -3.98551 0.315716 0
M  V30 6527 H 663.195 -4.18105 -0.704581 0
M  V30 6528 C 661.654 -2.9774 -1.57646 0
M  V30 6529 O 662.184 -2.99618 -2.67567 0
M  V30 6530 N 660.39 -2.53485 -1.42105 0
M  V30 6531 H 659.937 -2.52156 -0.526783 0
M  V30 6532 H 659.895 -2.21747 -2.22881 0
M  V30 6533 N 663.667 -0.670007 -1.42649 0
M  V30 6534 C 664.63 0.00204659 -2.292 0
M  V30 6535 C 665.63 0.733817 -1.4308 0
M  V30 6536 O 666.82 0.57254 -1.64522 0
M  V30 6537 C 663.952 1.01359 -3.25483 0
M  V30 6538 H 665.145 -0.759696 -2.90118 0
M  V30 6539 H 662.698 -0.432105 -1.50208 0
M  V30 6540 H 663.433 1.80399 -2.69493 0
M  V30 6541 H 663.218 0.492323 -3.88997 0
M  V30 6542 H 664.708 1.4824 -3.90403 0
M  V30 6543 N 665.145 1.52092 -0.413018 0
M  V30 6544 C 666.391 2.02154 0.161737 0
M  V30 6545 C 666.724 1.29789 1.44459 0
M  V30 6546 O 665.999 0.405378 1.90229 0
M  V30 6547 C 666.282 3.5781 0.405463 0
M  V30 6548 C 666.135 4.40819 -0.894335 0
M  V30 6549 C 667.454 4.23821 1.18591 0
M  V30 6550 H 664.573 0.734769 0.0573077 0
M  V30 6551 H 667.215 1.81948 -0.547247 0
M  V30 6552 H 665.365 3.75158 1.0094 0
M  V30 6553 H 667.037 4.35175 -1.53039 0
M  V30 6554 H 665.28 4.06877 -1.50444 0
M  V30 6555 H 665.951 5.47819 -0.678144 0
M  V30 6556 H 668.427 4.10596 0.674573 0
M  V30 6557 H 667.303 5.32663 1.3252 0
M  V30 6558 H 667.564 3.83038 2.20758 0
M  V30 6559 N 666.623 0.143563 1.56945 0
M  V30 6560 C 667.872 -0.50835 1.95189 0
M  V30 6561 C 668.185 -1.66239 1.03073 0
M  V30 6562 O 669.391 -2.3787 1.30882 0
M  V30 6563 C 667.847 -0.955735 3.46978 0
M  V30 6564 C 667.455 0.171183 4.47673 0
M  V30 6565 C 669.199 -1.57763 3.94095 0
M  V30 6566 C 667.106 -0.294279 5.90667 0
M  V30 6567 H 666.036 -0.193679 0.728701 0
M  V30 6568 H 668.687 0.227357 1.82086 0
M  V30 6569 H 667.069 -1.7466 3.55401 0
M  V30 6570 H 668.243 0.948049 4.50942 0
M  V30 6571 H 666.558 0.701273 4.10452 0
M  V30 6572 H 669.155 -1.93745 4.98364 0
M  V30 6573 H 669.498 -2.46531 3.35452 0
M  V30 6574 H 670.031 -0.851728 3.88575 0
M  V30 6575 H 666.77 0.557939 6.53121 0
M  V30 6576 H 666.29 -1.0371 5.90766 0
M  V30 6577 H 667.969 -0.747426 6.42668 0
M  V30 6578 N 668.101 -1.57061 -0.130224 0
M  V30 6579 C 669.064 -1.98593 -1.14426 0
M  V30 6580 C 670.064 -0.874584 -1.34936 0
M  V30 6581 O 671.254 -1.14086 -1.31643 0
M  V30 6582 C 668.386 -2.31639 -2.50112 0
M  V30 6583 H 669.579 -2.89374 -0.787561 0
M  V30 6584 H 667.132 -1.51756 -0.374146 0
M  V30 6585 H 667.867 -1.43703 -2.90723 0
M  V30 6586 H 667.652 -3.12684 -2.36583 0
M  V30 6587 H 669.142 -2.64551 -3.23114 0
M  V30 6588 N 669.579 0.400081 -1.52437 0
M  V30 6589 C 670.809 1.16598 -1.70553 0
M  V30 6590 C 671.217 1.8451 -0.418665 0
M  V30 6591 O 670.56 1.73069 0.615855 0
M  V30 6592 C 670.622 2.26517 -2.7916 0
M  V30 6593 C 670.286 1.78666 -4.20628 0
M  V30 6594 C 671.283 1.26946 -5.04163 0
M  V30 6595 C 668.968 1.85225 -4.66902 0
M  V30 6596 C 670.962 0.824187 -6.32049 0
M  V30 6597 C 668.649 1.40309 -5.94774 0
M  V30 6598 C 669.647 0.889922 -6.77178 0
M  V30 6599 O 669.335 0.447281 -8.02655 0
M  V30 6600 H 669.067 0.356023 -0.574651 0
M  V30 6601 H 671.621 0.475598 -1.99818 0
M  V30 6602 H 669.851 2.98946 -2.45292 0
M  V30 6603 H 671.54 2.88237 -2.85787 0
M  V30 6604 H 672.306 1.21244 -4.69601 0
M  V30 6605 H 668.185 2.24111 -4.02859 0
M  V30 6606 H 671.729 0.422958 -6.96317 0
M  V30 6607 H 667.626 1.45693 -6.28843 0
M  V30 6608 H 668.394 0.569768 -8.16514 0
M  V30 6609 N 671.057 1.43213 0.657864 0
M  V30 6610 C 671.989 1.43974 1.78337 0
M  V30 6611 C 673.002 0.336482 1.59285 0
M  V30 6612 O 674.191 0.600631 1.68091 0
M  V30 6613 C 671.291 1.23242 3.15697 0
M  V30 6614 C 670.464 2.46319 3.61449 0
M  V30 6615 C 669.523 2.2088 4.77597 0
M  V30 6616 O 668.549 2.942 4.87273 0
M  V30 6617 N 669.751 1.22251 5.67481 0
M  V30 6618 H 672.516 2.40993 1.78164 0
M  V30 6619 H 670.077 1.3831 0.841549 0
M  V30 6620 H 672.069 1.04113 3.91079 0
M  V30 6621 H 670.639 0.346849 3.1067 0
M  V30 6622 H 669.859 2.80904 2.76563 0
M  V30 6623 H 671.147 3.28239 3.88763 0
M  V30 6624 H 670.545 0.616433 5.62331 0
M  V30 6625 H 669.102 1.09107 6.42603 0
M  V30 6626 N 672.536 -0.895792 1.29666 0
M  V30 6627 C 673.483 -2.00035 1.15129 0
M  V30 6628 C 674.453 -1.66043 0.0435819 0
M  V30 6629 O 675.638 -1.89621 0.211811 0
M  V30 6630 C 672.778 -3.34774 0.83787 0
M  V30 6631 C 671.891 -3.81525 2.0264 0
M  V30 6632 C 671.026 -5.04858 1.65201 0
M  V30 6633 C 670.065 -5.43988 2.80612 0
M  V30 6634 N 669.202 -6.58507 2.43544 0
M  V30 6635 H 674.042 -2.11802 2.09628 0
M  V30 6636 H 671.579 -1.03719 1.04311 0
M  V30 6637 H 673.537 -4.12311 0.636824 0
M  V30 6638 H 672.167 -3.22724 -0.0702314 0
M  V30 6639 H 671.219 -2.9999 2.33903 0
M  V30 6640 H 672.531 -4.06472 2.89106 0
M  V30 6641 H 671.685 -5.8999 1.41408 0
M  V30 6642 H 670.424 -4.81759 0.758893 0
M  V30 6643 H 669.429 -4.57388 3.05083 0
M  V30 6644 H 670.654 -5.69066 3.70595 0
M  V30 6645 H 668.6 -6.37004 1.56724 0
M  V30 6646 H 668.517 -6.83269 3.23542 0
M  V30 6647 H 669.785 -7.46897 2.2308 0
M  V30 6648 N 674.014 -1.12206 -1.10668 0
M  V30 6649 C 675.43 -0.857619 -1.346 0
M  V30 6650 C 675.63 0.513542 -1.94846 0
M  V30 6651 O 674.686 1.26273 -2.18658 0
M  V30 6652 C 675.999 -1.97212 -2.26998 0
M  V30 6653 C 677.547 -2.00272 -2.40542 0
M  V30 6654 C 678.022 -3.10948 -3.36267 0
M  V30 6655 N 679.513 -3.10375 -3.43834 0
M  V30 6656 C 680.248 -3.92651 -4.17867 0
M  V30 6657 N 679.744 -4.84911 -4.94807 0
M  V30 6658 N 681.537 -3.80798 -4.1346 0
M  V30 6659 H 673.688 -2.00558 -0.699306 0
M  V30 6660 H 675.951 -0.872612 -0.370477 0
M  V30 6661 H 675.657 -2.96002 -1.89936 0
M  V30 6662 H 675.531 -1.87521 -3.27286 0
M  V30 6663 H 677.918 -1.02103 -2.76874 0
M  V30 6664 H 677.999 -2.14037 -1.40077 0
M  V30 6665 H 677.643 -4.09348 -3.00661 0
M  V30 6666 H 677.573 -2.94421 -4.36605 0
M  V30 6667 H 680.064 -2.43536 -2.88961 0
M  V30 6668 H 680.377 -5.44207 -5.48688 0
M  V30 6669 H 678.722 -4.88926 -4.93939 0
M  V30 6670 H 681.913 -3.08058 -3.52445 0
M  V30 6671 H 682.086 -4.4515 -4.70898 0
M  V30 6672 N 675.492 1.28418 -0.913599 0
M  V30 6673 C 676.739 1.94981 -0.546674 0
M  V30 6674 C 677.067 1.7192 0.909606 0
M  V30 6675 O 676.322 1.03314 1.66207 0
M  V30 6676 C 676.621 3.48283 -0.802099 0
M  V30 6677 C 676.287 3.91444 -2.2379 0
M  V30 6678 C 674.949 4.02939 -2.63046 0
M  V30 6679 C 677.301 4.13542 -3.17227 0
M  V30 6680 C 674.629 4.3391 -3.94891 0
M  V30 6681 C 676.981 4.45992 -4.48636 0
M  V30 6682 C 675.645 4.55698 -4.87746 0
M  V30 6683 H 674.915 0.713487 -0.200042 0
M  V30 6684 H 677.562 1.52756 -1.15489 0
M  V30 6685 H 675.867 3.91643 -0.111076 0
M  V30 6686 H 677.564 3.97903 -0.497375 0
M  V30 6687 H 674.154 3.83024 -1.9233 0
M  V30 6688 H 678.338 4.04114 -2.88107 0
M  V30 6689 H 673.594 4.39631 -4.24894 0
M  V30 6690 H 677.768 4.62038 -5.21051 0
M  V30 6691 H 675.395 4.79451 -5.89942 0
M  V30 6692 O 677.009 0.816646 1.39331 0
M  V30 6693 H 677.7 0.396491 1.89599 0
M  V30 END ATOM
M  V30 BEGIN BOND
M  V30 END BOND
M  V30 END CTAB
M  END
$$$$
