drugbank_target|Q9RC23 Mersacidin decarboxylase (DB03147)
 OpenBabel12092120263D

  0  0  0     0  0            999 V3000
M  V30 BEGIN CTAB
M  V30 COUNTS 3084 3117 0 0 0
M  V30 BEGIN ATOM
M  V30 1 H -0.908 1.98254 -0.117106 0
M  V30 2 N 0 1.576 0 0
M  V30 3 C 0.933 2.03868 1.02534 0
M  V30 4 C 1.911 0.928543 1.3348 0
M  V30 5 O 3.095 1.19667 1.45644 0
M  V30 6 C 0.222 2.43627 2.35294 0
M  V30 7 C -0.732 3.65373 2.2001 0
M  V30 8 S 0.101 5.13292 1.52614 0
M  V30 9 C 1.257 5.56322 2.86805 0
M  V30 10 H 1.49 2.90518 0.631377 0
M  V30 11 H -0.977 1.52953 0.210867 0
M  V30 12 H 0.981 2.67203 3.11629 0
M  V30 13 H -0.358 1.57376 2.7183 0
M  V30 14 H -1.165 3.90944 3.18086 0
M  V30 15 H -1.563 3.418 1.51819 0
M  V30 16 H 0.729 5.58782 3.83104 0
M  V30 17 H 1.672 6.56266 2.65933 0
M  V30 18 H 2.08 4.83886 2.90714 0
M  V30 19 N 1.4781 -0.272755 1.55222 0
M  V30 20 C 2.7031 -1.02683 1.80197 0
M  V30 21 C 3.1281 -1.79142 0.573551 0
M  V30 22 O 2.4861 -1.74917 -0.476849 0
M  V30 23 C 2.5341 -1.9609 3.02624 0
M  V30 24 O 1.6381 -3.04863 2.77727 0
M  V30 25 H 0.9791 -0.293557 0.595584 0
M  V30 26 H 3.5091 -0.30159 2.02365 0
M  V30 27 H 3.5191 -2.38039 3.31363 0
M  V30 28 H 2.1941 -1.39851 3.91682 0
M  V30 29 H 0.7711 -2.67228 2.60084 0
M  V30 30 N 2.9562 -1.48159 -0.537278 0
M  V30 31 C 4.2052 -1.5506 -1.28993 0
M  V30 32 C 4.5182 -0.226211 -1.94288 0
M  V30 33 O 5.7242 -0.173395 -2.70946 0
M  V30 34 C 4.1802 -2.73429 -2.34018 0
M  V30 35 C 3.7882 -4.1248 -1.74825 0
M  V30 36 C 5.5322 -2.89638 -3.10339 0
M  V30 37 C 3.4392 -5.22121 -2.77747 0
M  V30 38 H 2.3692 -0.577231 -0.485098 0
M  V30 39 H 5.0202 -1.74478 -0.568317 0
M  V30 40 H 3.4022 -2.47431 -3.09182 0
M  V30 41 H 4.5762 -4.48466 -1.05899 0
M  V30 42 H 2.8912 -4.01327 -1.11022 0
M  V30 43 H 5.4882 -3.68718 -3.87235 0
M  V30 44 H 5.8312 -1.9882 -3.65754 0
M  V30 45 H 6.3642 -3.15502 -2.42288 0
M  V30 46 H 3.1032 -6.1488 -2.27161 0
M  V30 47 H 2.6232 -4.90631 -3.45024 0
M  V30 48 H 4.3022 -5.49924 -3.4087 0
M  V30 49 N 4.4343 0.785586 -1.36625 0
M  V30 50 C 5.6593 1.57963 -1.34397 0
M  V30 51 C 6.0843 1.87964 0.071526 0
M  V30 52 O 5.4423 1.48182 1.0446 0
M  V30 53 C 5.4903 2.87511 -2.17646 0
M  V30 54 O 4.5943 3.81281 -1.57158 0
M  V30 55 H 3.9353 0.479014 -0.459828 0
M  V30 56 H 6.4653 0.973411 -1.79961 0
M  V30 57 H 6.4753 3.36745 -2.30362 0
M  V30 58 H 5.1503 2.65002 -3.20541 0
M  V30 59 H 3.7273 3.39885 -1.53403 0
M  V30 60 N 5.9124 1.20967 1.01018 0
M  V30 61 C 7.1614 1.01796 1.74128 0
M  V30 62 C 7.4744 -0.449691 1.90361 0
M  V30 63 O 8.6804 -0.76068 2.60626 0
M  V30 64 C 7.1364 1.7727 3.13215 0
M  V30 65 C 6.7444 3.28171 3.04972 0
M  V30 66 C 8.4884 1.66489 3.90489 0
M  V30 67 C 6.3954 3.96156 4.39107 0
M  V30 68 H 5.3254 0.377276 0.652824 0
M  V30 69 H 7.9764 1.44651 1.12909 0
M  V30 70 H 6.3584 1.27205 3.75013 0
M  V30 71 H 7.5324 3.85499 2.52443 0
M  V30 72 H 5.8474 3.39437 2.41188 0
M  V30 73 H 8.4444 2.14617 4.89738 0
M  V30 74 H 8.7874 0.6222 4.11624 0
M  V30 75 H 9.3204 2.14003 3.35332 0
M  V30 76 H 6.0594 5.00604 4.23174 0
M  V30 77 H 5.5794 3.43617 4.91617 0
M  V30 78 H 7.2584 4.00774 5.07926 0
M  V30 79 N 7.3905 -1.2043 1.01659 0
M  V30 80 C 8.3205 -2.25466 0.607226 0
M  V30 81 C 9.3015 -1.65853 -0.377716 0
M  V30 82 O 10.4865 -1.92409 -0.263149 0
M  V30 83 C 7.6165 -3.47256 -0.0552949 0
M  V30 84 C 6.5705 -4.19462 0.850632 0
M  V30 85 C 5.8965 -5.34673 0.0538859 0
M  V30 86 C 7.1965 -4.75603 2.15868 0
M  V30 87 H 8.8905 -2.59962 1.48526 0
M  V30 88 H 6.4365 -1.2496 0.715605 0
M  V30 89 H 8.3895 -4.19917 -0.353233 0
M  V30 90 H 7.1135 -3.11924 -0.968045 0
M  V30 91 H 5.7725 -3.48667 1.13257 0
M  V30 92 H 5.4205 -4.95585 -0.860514 0
M  V30 93 H 5.1205 -5.83913 0.657192 0
M  V30 94 H 6.6445 -6.10138 -0.237598 0
M  V30 95 H 8.0585 -5.40083 1.92311 0
M  V30 96 H 6.4555 -5.3528 2.71284 0
M  V30 97 H 7.5255 -3.94346 2.82169 0
M  V30 98 N 8.8686 -0.792821 -1.36206 0
M  V30 99 C 9.8156 -0.191653 -2.30003 0
M  V30 100 C 10.7856 0.666453 -1.52143 0
M  V30 101 O 11.9706 0.61442 -1.80636 0
M  V30 102 C 9.1106 0.664848 -3.38635 0
M  V30 103 C 8.2236 -0.212175 -4.31479 0
M  V30 104 C 7.3586 0.651022 -5.27196 0
M  V30 105 C 6.3976 -0.227247 -6.11678 0
M  V30 106 N 5.5346 0.595127 -6.99573 0
M  V30 107 H 10.3746 -0.996978 -2.80828 0
M  V30 108 H 7.9116 -0.503206 -1.38225 0
M  V30 109 H 9.8696 1.17645 -4.00269 0
M  V30 110 H 8.4996 1.43557 -2.89122 0
M  V30 111 H 7.5516 -0.841777 -3.70969 0
M  V30 112 H 8.8636 -0.888751 -4.90818 0
M  V30 113 H 8.0176 1.2283 -5.94136 0
M  V30 114 H 6.7566 1.36121 -4.68319 0
M  V30 115 H 5.7616 -0.816904 -5.43697 0
M  V30 116 H 6.9866 -0.93509 -6.72631 0
M  V30 117 H 4.9326 1.28955 -6.432 0
M  V30 118 H 4.8496 -0.0236952 -7.55996 0
M  V30 119 H 6.1176 1.15613 -7.70879 0
M  V30 120 N 10.3467 1.47872 -0.545128 0
M  V30 121 C 11.6237 1.9554 0.0485222 0
M  V30 122 C 12.0037 1.4876 1.49779 0
M  V30 123 O 11.3517 0.720925 2.16829 0
M  V30 124 C 11.5617 3.48898 -0.084417 0
M  V30 125 C 12.9097 4.24547 0.0671239 0
M  V30 126 O 13.9337 3.56198 -0.0113649 0
M  V30 127 O 12.7927 5.45999 0.233882 0
M  V30 128 H 9.8867 0.823957 0.0708773 0
M  V30 129 H 12.4327 1.58327 -0.610798 0
M  V30 130 H 11.2047 3.75714 -1.09337 0
M  V30 131 H 10.8277 3.92845 0.613066 0
M  V30 132 N 11.8248 0.280983 1.55075 0
M  V30 133 C 12.7718 -0.603937 2.22758 0
M  V30 134 C 13.7418 -1.1452 1.20309 0
M  V30 135 O 14.9268 -1.19343 1.48869 0
M  V30 136 C 12.0668 -1.77947 2.95684 0
M  V30 137 C 11.1798 -1.2715 4.12864 0
M  V30 138 C 10.3148 -2.4093 4.7342 0
M  V30 139 C 9.3538 -1.87165 5.82783 0
M  V30 140 N 8.4908 -2.94441 6.37377 0
M  V30 141 H 13.3308 -0.020124 2.97993 0
M  V30 142 H 10.8678 0.00183425 1.471 0
M  V30 143 H 12.8258 -2.47055 3.36184 0
M  V30 144 H 11.4558 -2.33522 2.22861 0
M  V30 145 H 10.5078 -0.473331 3.77444 0
M  V30 146 H 11.8198 -0.837751 4.91715 0
M  V30 147 H 10.9738 -3.18021 5.1667 0
M  V30 148 H 9.7128 -2.87623 3.93859 0
M  V30 149 H 8.7178 -1.08556 5.38976 0
M  V30 150 H 9.9428 -1.41401 6.64216 0
M  V30 151 H 7.8888 -3.40505 5.60707 0
M  V30 152 H 7.8058 -2.55501 7.11516 0
M  V30 153 H 9.0738 -3.71489 6.85285 0
M  V30 154 N 13.3029 -1.57598 0.00835791 0
M  V30 155 C 14.2499 -2.08945 -0.980346 0
M  V30 156 C 15.2199 -0.986738 -1.33614 0
M  V30 157 O 16.4049 -1.25968 -1.43306 0
M  V30 158 C 13.5449 -2.60425 -2.26435 0
M  V30 159 C 12.6579 -3.84628 -1.96685 0
M  V30 160 C 11.7929 -4.24579 -3.19228 0
M  V30 161 C 10.8319 -5.41596 -2.85202 0
M  V30 162 N 9.9689 -5.768 -4.00307 0
M  V30 163 H 14.8089 -2.93148 -0.535551 0
M  V30 164 H 12.3459 -1.44912 -0.252776 0
M  V30 165 H 14.3039 -2.88354 -3.01509 0
M  V30 166 H 12.9339 -1.79083 -2.68568 0
M  V30 167 H 11.9859 -3.63556 -1.11942 0
M  V30 168 H 13.2979 -4.69796 -1.67611 0
M  V30 169 H 12.4519 -4.53834 -4.02641 0
M  V30 170 H 11.1909 -3.38137 -3.51447 0
M  V30 171 H 10.1959 -5.12056 -2.00198 0
M  V30 172 H 11.4209 -6.29721 -2.54222 0
M  V30 173 H 9.3669 -4.93316 -4.32407 0
M  V30 174 H 9.2839 -6.5656 -3.74786 0
M  V30 175 H 10.5519 -6.10652 -4.84484 0
M  V30 176 N 14.781 0.264519 -1.55364 0
M  V30 177 C 15.711 1.33121 -1.91836 0
M  V30 178 C 16.692 1.51101 -0.781192 0
M  V30 179 O 17.877 1.64003 -1.04003 0
M  V30 180 C 15.007 2.68921 -2.19769 0
M  V30 181 C 13.961 2.65661 -3.35571 0
M  V30 182 C 13.287 4.05093 -3.49004 0
M  V30 183 C 14.587 2.24187 -4.71739 0
M  V30 184 H 16.281 1.02844 -2.81182 0
M  V30 185 H 13.827 0.493286 -1.35287 0
M  V30 186 H 15.78 3.43663 -2.43872 0
M  V30 187 H 14.504 3.00799 -1.27231 0
M  V30 188 H 13.163 1.93377 -3.1145 0
M  V30 189 H 12.811 4.34206 -2.53917 0
M  V30 190 H 12.511 4.03804 -4.26868 0
M  V30 191 H 14.035 4.81561 -3.75408 0
M  V30 192 H 15.449 2.88654 -4.9533 0
M  V30 193 H 13.846 2.34044 -5.52579 0
M  V30 194 H 14.916 1.19327 -4.69988 0
M  V30 195 N 16.2591 1.48442 0.529413 0
M  V30 196 C 17.1891 1.65902 1.64313 0
M  V30 197 C 18.1701 0.507897 1.6234 0
M  V30 198 O 19.3551 0.740503 1.79528 0
M  V30 199 C 16.4851 1.69911 3.02898 0
M  V30 200 C 15.4391 2.8453 3.19729 0
M  V30 201 C 14.7651 2.73629 4.59381 0
M  V30 202 C 16.0651 4.25821 3.02447 0
M  V30 203 H 17.7591 2.5914 1.49955 0
M  V30 204 H 15.3051 1.24709 0.719982 0
M  V30 205 H 17.2581 1.80715 3.80684 0
M  V30 206 H 15.9821 0.732524 3.18279 0
M  V30 207 H 14.6411 2.73283 2.44361 0
M  V30 208 H 14.2891 1.74938 4.71599 0
M  V30 209 H 13.9891 3.50541 4.71588 0
M  V30 210 H 15.5131 2.86401 5.39265 0
M  V30 211 H 16.9271 4.37898 3.70024 0
M  V30 212 H 15.3241 5.03735 3.26146 0
M  V30 213 H 16.3941 4.42244 1.98867 0
M  V30 214 N 17.7372 -0.778329 1.37039 0
M  V30 215 C 18.9862 -1.53189 1.3121 0
M  V30 216 C 19.2992 -1.95328 -0.103095 0
M  V30 217 O 20.5052 -2.70012 -0.283826 0
M  V30 218 C 18.9612 -2.76591 2.30272 0
M  V30 219 C 18.5692 -2.41577 3.77286 0
M  V30 220 C 20.3132 -3.5455 2.33441 0
M  V30 221 C 18.2202 -3.61441 4.68096 0
M  V30 222 H 17.1502 -0.5751 0.487622 0
M  V30 223 H 19.8012 -0.853101 1.62464 0
M  V30 224 H 18.1832 -3.46326 1.92027 0
M  V30 225 H 19.3572 -1.79668 4.2433 0
M  V30 226 H 17.6722 -1.76806 3.76999 0
M  V30 227 H 20.2692 -4.43628 2.98493 0
M  V30 228 H 20.6122 -3.93936 1.34611 0
M  V30 229 H 21.1452 -2.91805 2.7036 0
M  V30 230 H 17.8842 -3.27142 5.6803 0
M  V30 231 H 17.4042 -4.22478 4.25761 0
M  V30 232 H 19.0832 -4.28335 4.8491 0
M  V30 233 N 19.2153 -1.21501 -1.00376 0
M  V30 234 C 20.4633 -1.03095 -1.73827 0
M  V30 235 C 20.7843 0.436341 -1.90055 0
M  V30 236 O 20.0543 1.31466 -1.45236 0
M  V30 237 H 18.6343 -0.378487 -0.644016 0
M  V30 238 H 21.2963 -1.52831 -1.20949 0
M  V30 239 H 20.3923 -1.49991 -2.73695 0
M  V30 240 N 20.6934 1.19889 -1.02296 0
M  V30 241 C 21.9424 1.88743 -0.711257 0
M  V30 242 C 22.2554 1.80112 0.762817 0
M  V30 243 O 23.4614 2.44161 1.18733 0
M  V30 244 C 21.9174 3.38525 -1.22185 0
M  V30 245 C 21.5254 3.55727 -2.72328 0
M  V30 246 C 23.2694 4.12893 -0.985864 0
M  V30 247 C 21.1764 4.99369 -3.16835 0
M  V30 248 H 20.1064 0.706885 -0.262353 0
M  V30 249 H 22.7574 1.35586 -1.23648 0
M  V30 250 H 21.1394 3.91044 -0.624571 0
M  V30 251 H 22.3134 3.13564 -3.3766 0
M  V30 252 H 20.6284 2.94739 -2.9414 0
M  V30 253 H 23.2254 5.18813 -1.29374 0
M  V30 254 H 23.5684 4.16228 0.0775055 0
M  V30 255 H 24.1014 3.66494 -1.54684 0
M  V30 256 H 20.8404 5.01193 -4.22476 0
M  V30 257 H 20.3604 5.42317 -2.56228 0
M  V30 258 H 22.0394 5.67988 -3.09837 0
M  V30 259 N 22.1715 0.800033 1.35784 0
M  V30 260 C 23.4115 0.382891 2.00782 0
M  V30 261 C 23.7755 -1.02891 1.62103 0
M  V30 262 O 24.9765 -1.54771 2.19771 0
M  V30 263 C 23.2475 0.553299 3.53091 0
M  V30 264 S 24.8065 0.225608 4.3822 0
M  V30 265 H 21.6245 0.145737 0.695904 0
M  V30 266 H 24.2265 1.04085 1.65489 0
M  V30 267 H 22.9305 1.58091 3.78729 0
M  V30 268 H 22.4615 -0.120214 3.93216 0
M  V30 269 H 24.4765 -0.969074 4.86645 0
M  V30 270 N 23.6496 -1.47581 0.552962 0
M  V30 271 C 24.8976 -2.02082 0.0272703 0
M  V30 272 C 25.2186 -1.4301 -1.32563 0
M  V30 273 O 24.4886 -0.603745 -1.86365 0
M  V30 274 H 23.0686 -0.746966 0.00709182 0
M  V30 275 H 25.7306 -1.81033 0.722008 0
M  V30 276 H 24.8266 -3.12034 -0.0639951 0
M  V30 277 N 25.1277 -0.289203 -1.54924 0
M  V30 278 C 26.3527 0.329299 -2.04769 0
M  V30 279 C 26.7777 1.4763 -1.16564 0
M  V30 280 O 26.1357 1.80527 -0.167186 0
M  V30 281 C 26.1837 0.774438 -3.52186 0
M  V30 282 O 25.2877 1.88038 -3.67036 0
M  V30 283 H 24.6287 0.0659259 -0.660719 0
M  V30 284 H 27.1587 -0.42761 -2.00082 0
M  V30 285 H 27.1687 1.06642 -3.93816 0
M  V30 286 H 25.8437 -0.0646707 -4.1585 0
M  V30 287 H 24.4207 1.58985 -3.3731 0
M  V30 288 N 26.6058 1.57591 -0.0167156 0
M  V30 289 C 27.8548 1.90461 0.663877 0
M  V30 290 C 28.1678 0.893515 1.73999 0
M  V30 291 O 29.3738 1.11302 2.47637 0
M  V30 292 C 27.8298 3.38155 1.23204 0
M  V30 293 C 27.4378 4.47597 0.189866 0
M  V30 294 C 29.1818 3.80111 1.88986 0
M  V30 295 C 27.0888 5.86379 0.768964 0
M  V30 296 H 26.0188 0.710738 0.251729 0
M  V30 297 H 28.6698 1.83326 -0.0799926 0
M  V30 298 H 27.0518 3.40182 2.02712 0
M  V30 299 H 28.2258 4.57112 -0.581846 0
M  V30 300 H 26.5408 4.14766 -0.368475 0
M  V30 301 H 29.1378 4.81145 2.33247 0
M  V30 302 H 29.4808 3.14511 2.72743 0
M  V30 303 H 30.0138 3.80454 1.16187 0
M  V30 304 H 26.7528 6.55493 -0.0301957 0
M  V30 305 H 26.2728 5.80496 1.50945 0
M  V30 306 H 27.9518 6.34563 1.26251 0
M  V30 307 N 28.0839 -0.256276 1.55502 0
M  V30 308 C 29.3089 -1.00766 1.81276 0
M  V30 309 C 29.7339 -1.78524 0.59252 0
M  V30 310 O 29.0919 -1.75413 -0.45827 0
M  V30 311 C 29.1399 -1.92869 3.04687 0
M  V30 312 O 28.2439 -3.019 2.80945 0
M  V30 313 H 27.5849 -0.287224 0.598664 0
M  V30 314 H 30.1149 -0.280109 2.02674 0
M  V30 315 H 30.1249 -2.34511 3.33869 0
M  V30 316 H 28.7999 -1.35689 3.93143 0
M  V30 317 H 27.3769 -2.64454 2.62904 0
M  V30 318 N 29.562 -1.4872 -0.521534 0
M  V30 319 C 30.787 -1.61101 -1.30618 0
M  V30 320 C 31.212 -0.274611 -1.86085 0
M  V30 321 O 30.57 0.754937 -1.64834 0
M  V30 322 C 30.618 -2.66709 -2.4269 0
M  V30 323 O 29.722 -2.24456 -3.45967 0
M  V30 324 H 29.063 -0.539921 -0.386499 0
M  V30 325 H 31.593 -1.94767 -0.626645 0
M  V30 326 H 31.603 -2.88245 -2.88754 0
M  V30 327 H 30.278 -3.63727 -2.01682 0
M  V30 328 H 28.855 -2.13168 -3.05964 0
M  V30 329 N 31.0401 0.771051 -1.3745 0
M  V30 330 C 32.2861 1.5319 -1.32894 0
M  V30 331 C 32.6191 1.94008 0.0862511 0
M  V30 332 O 31.8941 1.64124 1.04373 0
M  V30 333 C 32.1771 2.79648 -2.26868 0
M  V30 334 C 32.0301 2.45079 -3.77169 0
M  V30 335 C 33.3491 3.81583 -2.19277 0
M  V30 336 H 30.4681 0.555744 -0.484064 0
M  V30 337 H 33.1101 0.884492 -1.68157 0
M  V30 338 H 31.2601 3.34891 -1.96926 0
M  V30 339 H 32.9321 1.95745 -4.1771 0
M  V30 340 H 31.1751 1.77767 -3.95704 0
M  V30 341 H 31.8461 3.35478 -4.38359 0
M  V30 342 H 34.3221 3.35835 -2.45671 0
M  V30 343 H 33.1981 4.67787 -2.87171 0
M  V30 344 H 33.4591 4.25897 -1.18592 0
M  V30 345 N 32.5182 1.22032 0.997298 0
M  V30 346 C 33.7662 1.04016 1.73278 0
M  V30 347 C 34.0872 -0.426255 1.90284 0
M  V30 348 O 33.3572 -1.30694 1.45931 0
M  V30 349 H 31.9372 0.381897 0.642 0
M  V30 350 H 34.5992 1.5347 1.20137 0
M  V30 351 H 33.6952 1.51441 2.72896 0
M  V30 352 N 33.9963 -1.19345 1.0293 0
M  V30 353 C 35.2453 -1.88363 0.721256 0
M  V30 354 C 35.5583 -1.80514 -0.753254 0
M  V30 355 O 36.7643 -2.44788 -1.17436 0
M  V30 356 C 35.2203 -3.37872 1.23978 0
M  V30 357 C 34.8283 -3.54278 2.74211 0
M  V30 358 C 36.5723 -4.12365 1.00775 0
M  V30 359 C 34.4793 -4.97682 3.19479 0
M  V30 360 H 33.4093 -0.705484 0.266098 0
M  V30 361 H 36.0603 -1.34928 1.24365 0
M  V30 362 H 34.4423 -3.90707 0.6453 0
M  V30 363 H 35.6163 -3.11769 3.39318 0
M  V30 364 H 33.9313 -2.93174 2.95699 0
M  V30 365 H 36.5283 -5.18119 1.32123 0
M  V30 366 H 36.8713 -4.16263 -0.0554308 0
M  V30 367 H 37.4043 -3.65668 1.56625 0
M  V30 368 H 34.1433 -4.98945 4.25128 0
M  V30 369 H 33.6633 -5.4095 2.591 0
M  V30 370 H 35.3423 -5.66337 3.12845 0
M  V30 371 N 35.4744 -0.807222 -1.35358 0
M  V30 372 C 36.6994 -0.399309 -2.0352 0
M  V30 373 C 37.1244 0.981986 -1.60433 0
M  V30 374 O 36.4824 1.63601 -0.781299 0
M  V30 375 C 36.5304 -0.491552 -3.57234 0
M  V30 376 O 35.6344 0.494754 -4.09421 0
M  V30 377 H 34.9754 -0.166682 -0.642739 0
M  V30 378 H 37.5054 -1.09328 -1.72941 0
M  V30 379 H 37.5154 -0.361588 -4.06395 0
M  V30 380 H 36.1904 -1.49907 -3.87944 0
M  V30 381 H 34.7674 0.324977 -3.71481 0
M  V30 382 N 36.9525 1.47285 -0.560781 0
M  V30 383 C 38.1775 2.07359 -0.0410566 0
M  V30 384 C 38.6025 1.41017 1.24483 0
M  V30 385 O 37.9605 0.486368 1.74654 0
M  V30 386 C 38.0085 3.6035 0.134123 0
M  V30 387 O 37.1125 3.94681 1.19587 0
M  V30 388 H 36.4535 0.661887 -0.0529291 0
M  V30 389 H 38.9835 1.89252 -0.777482 0
M  V30 390 H 38.9935 4.0652 0.347207 0
M  V30 391 H 37.6685 4.08034 -0.805047 0
M  V30 392 H 36.2455 3.60251 0.962987 0
M  V30 393 N 38.4306 0.297415 1.54768 0
M  V30 394 C 39.6606 -0.315165 2.04182 0
M  V30 395 C 40.0686 -1.4834 1.17439 0
M  V30 396 O 39.4116 -1.82695 0.191891 0
M  V30 397 C 39.4736 -0.837583 3.49607 0
M  V30 398 C 39.1376 0.204912 4.5654 0
M  V30 399 C 40.1346 1.03214 5.09552 0
M  V30 400 C 37.8196 0.345578 5.0111 0
M  V30 401 C 39.8136 1.986 6.05671 0
M  V30 402 C 37.5006 1.30289 5.97049 0
M  V30 403 C 38.4986 2.12159 6.49213 0
M  V30 404 O 38.1866 3.06268 7.43273 0
M  V30 405 H 37.9186 -0.0729646 0.672051 0
M  V30 406 H 40.4726 0.433907 2.00765 0
M  V30 407 H 38.7026 -1.63712 3.50336 0
M  V30 408 H 40.3916 -1.36566 3.82236 0
M  V30 409 H 41.1576 0.934312 4.75916 0
M  V30 410 H 37.0366 -0.28171 4.60138 0
M  V30 411 H 40.5806 2.62542 6.46311 0
M  V30 412 H 36.4776 1.40145 6.30103 0
M  V30 413 H 37.2456 3.01205 7.61064 0
M  V30 414 N 39.9087 -1.5758 0.0250728 0
M  V30 415 C 40.8387 -2.13007 -0.956575 0
M  V30 416 C 41.8197 -1.0452 -1.342 0
M  V30 417 O 43.0047 -1.32332 -1.42133 0
M  V30 418 C 40.1347 -2.65386 -2.24026 0
M  V30 419 C 39.0887 -3.78623 -1.99571 0
M  V30 420 C 38.4147 -4.17414 -3.3417 0
M  V30 421 C 39.7147 -5.04867 -1.33814 0
M  V30 422 H 41.4087 -2.9528 -0.494991 0
M  V30 423 H 38.9547 -1.42042 -0.236651 0
M  V30 424 H 40.9077 -3.02794 -2.93076 0
M  V30 425 H 39.6317 -1.80268 -2.72343 0
M  V30 426 H 38.2907 -3.41646 -1.32941 0
M  V30 427 H 37.9387 -3.29284 -3.80238 0
M  V30 428 H 37.6387 -4.93719 -3.18615 0
M  V30 429 H 39.1627 -4.57402 -4.04495 0
M  V30 430 H 40.5767 -5.39888 -1.92857 0
M  V30 431 H 38.9737 -5.86144 -1.28669 0
M  V30 432 H 40.0437 -4.83904 -0.310561 0
M  V30 433 N 41.3868 0.248026 -1.55636 0
M  V30 434 C 42.3168 1.31079 -1.93237 0
M  V30 435 C 43.2978 1.50264 -0.797174 0
M  V30 436 O 44.4828 1.62891 -1.05737 0
M  V30 437 C 41.6128 2.66575 -2.22609 0
M  V30 438 C 40.5668 2.62087 -3.3837 0
M  V30 439 C 39.8928 4.01369 -3.53281 0
M  V30 440 C 41.1928 2.19171 -4.7409 0
M  V30 441 H 42.8868 0.998556 -2.82257 0
M  V30 442 H 40.4328 0.47891 -1.35803 0
M  V30 443 H 42.3858 3.41057 -2.47503 0
M  V30 444 H 41.1098 2.99432 -1.30414 0
M  V30 445 H 39.7688 1.90063 -3.13483 0
M  V30 446 H 39.4168 4.31489 -2.58508 0
M  V30 447 H 39.1168 3.99254 -4.31127 0
M  V30 448 H 40.6408 4.77552 -3.80495 0
M  V30 449 H 42.0548 2.83384 -4.98363 0
M  V30 450 H 40.4518 2.2817 -5.5503 0
M  V30 451 H 41.5218 1.14336 -4.71227 0
M  V30 452 N 42.8649 1.48995 0.513639 0
M  V30 453 C 44.0949 1.61297 1.291 0
M  V30 454 C 44.5029 0.278656 1.87137 0
M  V30 455 O 43.8459 -0.744325 1.67945 0
M  V30 456 C 43.9079 2.61326 2.46879 0
M  V30 457 C 43.5719 4.05993 2.09807 0
M  V30 458 C 44.5689 4.93183 1.64519 0
M  V30 459 C 42.2539 4.51642 2.19829 0
M  V30 460 C 44.2479 6.24056 1.2974 0
M  V30 461 C 41.9349 5.82532 1.84662 0
M  V30 462 C 42.9329 6.68562 1.3969 0
M  V30 463 O 42.6209 7.97014 1.04992 0
M  V30 464 H 42.3529 0.546236 0.39825 0
M  V30 465 H 44.9069 1.95673 0.62459 0
M  V30 466 H 43.1369 2.22104 3.16554 0
M  V30 467 H 44.8259 2.6329 3.08923 0
M  V30 468 H 45.5919 4.59147 1.56233 0
M  V30 469 H 41.4709 3.84855 2.53786 0
M  V30 470 H 45.0149 6.91161 0.945659 0
M  V30 471 H 40.9119 6.16099 1.92594 0
M  V30 472 H 41.6799 8.09913 1.18249 0
M  V30 473 N 44.343 -0.763751 1.37857 0
M  V30 474 C 45.59 -1.52257 1.33506 0
M  V30 475 C 45.918 -1.94343 -0.078022 0
M  V30 476 O 45.173 -1.64958 -1.05297 0
M  V30 477 C 45.472 -2.79499 2.22745 0
M  V30 478 C 45.138 -2.56426 3.70886 0
M  V30 479 C 43.8 -2.49842 4.11257 0
M  V30 480 C 46.152 -2.36008 4.64704 0
M  V30 481 C 43.48 -2.20841 5.43549 0
M  V30 482 C 45.832 -2.0853 5.97242 0
M  V30 483 C 44.496 -2.00396 6.36709 0
M  V30 484 H 43.766 -0.557149 0.488534 0
M  V30 485 H 46.413 -0.879073 1.70131 0
M  V30 486 H 44.718 -3.48447 1.79142 0
M  V30 487 H 46.415 -3.37413 2.16688 0
M  V30 488 H 43.005 -2.62416 3.38874 0
M  V30 489 H 47.189 -2.40079 4.34368 0
M  V30 490 H 42.445 -2.13045 5.73081 0
M  V30 491 H 46.619 -1.91732 6.69486 0
M  V30 492 H 44.246 -1.77688 7.39142 0
M  V30 493 N 45.8211 -1.22559 -0.990812 0
M  V30 494 C 46.7681 -0.997519 -2.0813 0
M  V30 495 C 47.7381 0.0814702 -1.659 0
M  V30 496 O 48.9231 -0.0685424 -1.90677 0
M  V30 497 C 46.0631 -0.583615 -3.40129 0
M  V30 498 C 45.1761 -1.7336 -3.9569 0
M  V30 499 C 44.3111 -1.26748 -5.15857 0
M  V30 500 C 43.3501 -2.38888 -5.63559 0
M  V30 501 N 42.4871 -1.93308 -6.74964 0
M  V30 502 H 47.3271 -1.93099 -2.26973 0
M  V30 503 H 44.8641 -0.962114 -1.11273 0
M  V30 504 H 46.8221 -0.324801 -4.15934 0
M  V30 505 H 45.4521 0.312845 -3.2128 0
M  V30 506 H 44.5041 -2.10669 -3.16738 0
M  V30 507 H 45.8161 -2.57704 -4.27071 0
M  V30 508 H 44.9701 -0.966173 -5.98957 0
M  V30 509 H 43.7091 -0.394272 -4.86104 0
M  V30 510 H 42.7141 -2.69805 -4.79046 0
M  V30 511 H 43.9391 -3.26728 -5.95336 0
M  V30 512 H 41.8851 -1.08352 -6.4699 0
M  V30 513 H 41.8021 -2.71217 -7.05675 0
M  V30 514 H 43.0701 -1.66252 -7.61564 0
M  V30 515 N 47.2992 1.18797 -1.03562 0
M  V30 516 C 48.5242 1.9314 -0.755764 0
M  V30 517 C 48.9492 1.7537 0.68022 0
M  V30 518 O 48.3072 1.06046 1.47051 0
M  V30 519 C 48.3552 3.42747 -1.12058 0
M  V30 520 O 47.4592 4.11683 -0.243124 0
M  V30 521 H 46.8002 0.602724 -0.278604 0
M  V30 522 H 49.3302 1.50678 -1.3841 0
M  V30 523 H 49.3402 3.93437 -1.08035 0
M  V30 524 H 48.0152 3.55002 -2.16672 0
M  V30 525 H 46.5922 3.71323 -0.342539 0
M  V30 526 N 48.7773 0.814389 1.34928 0
M  V30 527 C 50.0243 0.398423 1.98542 0
M  V30 528 C 50.3523 -1.03638 1.64589 0
M  V30 529 O 49.6073 -1.73509 0.90516 0
M  V30 530 C 49.9063 0.537781 3.53331 0
M  V30 531 C 49.5723 1.93704 4.07172 0
M  V30 532 C 48.2343 2.31984 4.21589 0
M  V30 533 C 50.5863 2.85213 4.36237 0
M  V30 534 C 47.9143 3.61125 4.62391 0
M  V30 535 C 50.2663 4.13809 4.78482 0
M  V30 536 C 48.9303 4.52077 4.91104 0
M  V30 537 H 48.2003 0.145793 0.726516 0
M  V30 538 H 50.8473 1.03669 1.61012 0
M  V30 539 H 49.1523 -0.183906 3.91368 0
M  V30 540 H 50.8493 0.196588 4.00518 0
M  V30 541 H 47.4393 1.62966 3.96409 0
M  V30 542 H 51.6233 2.56885 4.24645 0
M  V30 543 H 46.8793 3.90612 4.70353 0
M  V30 544 H 51.0533 4.84811 4.99932 0
M  V30 545 H 48.6803 5.52196 5.22478 0
M  V30 546 N 50.2554 -1.46986 0.568584 0
M  V30 547 C 51.5024 -2.02441 0.0487986 0
M  V30 548 C 51.8304 -1.44169 -1.30559 0
M  V30 549 O 51.0854 -0.591213 -1.86556 0
M  V30 550 C 51.3844 -3.57306 -0.081836 0
M  V30 551 C 51.0504 -4.34552 1.20313 0
M  V30 552 C 49.7124 -4.55376 1.5552 0
M  V30 553 C 52.0644 -4.79016 2.05411 0
M  V30 554 C 49.3924 -5.17913 2.7565 0
M  V30 555 C 51.7444 -5.42879 3.24754 0
M  V30 556 C 50.4084 -5.61933 3.60261 0
M  V30 557 H 49.6784 -0.740785 0.0178567 0
M  V30 558 H 52.3254 -1.76525 0.742384 0
M  V30 559 H 50.6304 -3.8228 -0.858463 0
M  V30 560 H 52.3274 -3.97876 -0.499546 0
M  V30 561 H 48.9174 -4.18631 0.919014 0
M  V30 562 H 53.1014 -4.62696 1.79516 0
M  V30 563 H 48.3574 -5.30858 3.03315 0
M  V30 564 H 52.5314 -5.76293 3.90973 0
M  V30 565 H 50.1584 -6.10161 4.53439 0
M  V30 566 N 51.7335 -0.305618 -1.54608 0
M  V30 567 C 52.6805 0.568421 -2.23691 0
M  V30 568 C 53.6505 1.12592 -1.22116 0
M  V30 569 O 54.8355 1.16959 -1.50749 0
M  V30 570 C 51.9755 1.7322 -2.98477 0
M  V30 571 C 51.0885 1.20566 -4.14835 0
M  V30 572 C 50.2235 2.33368 -4.77193 0
M  V30 573 C 49.2625 1.7787 -5.85686 0
M  V30 574 N 48.3995 2.84263 -6.4198 0
M  V30 575 H 53.2395 -0.0272867 -2.97988 0
M  V30 576 H 50.7765 -0.0252363 -1.47078 0
M  V30 577 H 52.7345 2.41675 -3.40072 0
M  V30 578 H 51.3645 2.29947 -2.26548 0
M  V30 579 H 50.4165 0.413223 -3.78149 0
M  V30 580 H 51.7285 0.759417 -4.92985 0
M  V30 581 H 50.8825 3.09761 -5.21664 0
M  V30 582 H 49.6215 2.8132 -3.98385 0
M  V30 583 H 48.6265 0.99968 -5.40635 0
M  V30 584 H 49.8515 1.30816 -6.66381 0
M  V30 585 H 47.7975 3.31541 -5.66053 0
M  V30 586 H 47.7145 2.44149 -7.15491 0
M  V30 587 H 48.9825 3.6054 -6.91109 0
M  V30 588 N 53.2116 1.57565 -0.0334293 0
M  V30 589 C 54.1216 2.13943 0.962572 0
M  V30 590 C 55.1376 1.09276 1.35406 0
M  V30 591 O 56.3136 1.41355 1.4346 0
M  V30 592 C 53.3786 2.65887 2.22497 0
M  V30 593 C 52.4396 3.85286 1.8935 0
M  V30 594 C 51.6726 4.34743 3.09571 0
M  V30 595 O 51.8956 3.83352 4.22371 0
M  V30 596 O 50.8296 5.26538 2.91618 0
M  V30 597 H 54.6556 2.99333 0.513169 0
M  V30 598 H 52.2406 1.4822 0.18743 0
M  V30 599 H 54.1226 2.99346 2.96598 0
M  V30 600 H 52.7976 1.83578 2.6661 0
M  V30 601 H 51.7046 3.56746 1.1262 0
M  V30 602 H 53.0376 4.68771 1.5005 0
M  V30 603 N 54.6897 -0.239769 1.55765 0
M  V30 604 C 55.9387 -0.964754 1.77131 0
M  V30 605 C 56.2517 -1.86213 0.59868 0
M  V30 606 O 57.4577 -2.6244 0.695522 0
M  V30 607 C 55.9137 -1.76552 3.1362 0
M  V30 608 C 55.5217 -0.915185 4.38553 0
M  V30 609 C 57.2657 -2.48281 3.44321 0
M  V30 610 C 55.1727 -1.71225 5.66071 0
M  V30 611 H 54.1027 -0.363953 0.660344 0
M  V30 612 H 56.7537 -0.219181 1.82186 0
M  V30 613 H 55.1357 -2.55331 3.02691 0
M  V30 614 H 56.3097 -0.169217 4.60489 0
M  V30 615 H 54.6247 -0.310889 4.15238 0
M  V30 616 H 57.2217 -3.08382 4.36812 0
M  V30 617 H 57.5647 -3.20256 2.65973 0
M  V30 618 H 58.0977 -1.76507 3.56497 0
M  V30 619 H 54.8367 -1.03612 6.4726 0
M  V30 620 H 54.3567 -2.43331 5.48224 0
M  V30 621 H 56.0357 -2.27758 6.05587 0
M  V30 622 N 56.1678 -1.49265 -0.50573 0
M  V30 623 C 57.5838 -1.35923 -0.836486 0
M  V30 624 C 57.7838 -0.388704 -1.97715 0
M  V30 625 O 56.8398 0.181336 -2.51848 0
M  V30 626 C 58.1528 -2.76531 -1.18115 0
M  V30 627 C 59.7008 -2.85197 -1.28964 0
M  V30 628 C 60.1758 -4.26561 -1.66761 0
M  V30 629 N 61.6668 -4.2935 -1.73819 0
M  V30 630 C 62.4018 -5.35693 -2.045 0
M  V30 631 N 61.8978 -6.52287 -2.33438 0
M  V30 632 N 63.6908 -5.23105 -2.05711 0
M  V30 633 H 55.8418 -2.10965 0.246519 0
M  V30 634 H 58.1048 -0.9468 0.0476887 0
M  V30 635 H 57.8108 -3.49226 -0.416398 0
M  V30 636 H 57.6848 -3.11599 -2.1257 0
M  V30 637 H 60.0718 -2.12742 -2.04511 0
M  V30 638 H 60.1528 -2.53718 -0.325704 0
M  V30 639 H 59.7968 -4.99541 -0.917656 0
M  V30 640 H 59.7268 -4.55502 -2.64246 0
M  V30 641 H 62.2178 -3.4526 -1.53635 0
M  V30 642 H 62.5308 -7.29158 -2.56024 0
M  V30 643 H 60.8758 -6.55521 -2.30905 0
M  V30 644 H 64.0668 -4.31026 -1.82577 0
M  V30 645 H 64.2398 -6.06078 -2.29289 0
M  V30 646 N 57.6459 0.756429 -1.3826 0
M  V30 647 C 58.8919 1.51772 -1.34511 0
M  V30 648 C 59.2249 1.94089 0.0656691 0
M  V30 649 O 58.4999 1.65221 1.02626 0
M  V30 650 C 58.7829 2.77226 -2.29821 0
M  V30 651 C 58.6359 2.41065 -3.79747 0
M  V30 652 C 59.9549 3.79236 -2.23312 0
M  V30 653 H 57.0739 0.550578 -0.489931 0
M  V30 654 H 59.7159 0.866607 -1.69086 0
M  V30 655 H 57.8659 3.32784 -2.00467 0
M  V30 656 H 59.5379 1.91303 -4.19763 0
M  V30 657 H 57.7809 1.7356 -3.97567 0
M  V30 658 H 58.4519 3.3081 -4.41892 0
M  V30 659 H 60.9279 3.3321 -2.49219 0
M  V30 660 H 59.8039 4.64714 -2.92116 0
M  V30 661 H 60.0649 4.24615 -1.23102 0
M  V30 662 N 59.124 1.23083 0.984299 0
M  V30 663 C 60.37 1.06214 1.72761 0
M  V30 664 C 60.703 -0.400584 1.90024 0
M  V30 665 O 59.978 -1.29672 1.44967 0
M  V30 666 C 60.261 1.78375 3.12817 0
M  V30 667 C 60.114 3.32296 3.03149 0
M  V30 668 C 61.433 1.54309 4.12161 0
M  V30 669 H 58.552 0.387251 0.627061 0
M  V30 670 H 61.194 1.51536 1.14616 0
M  V30 671 H 59.344 1.39848 3.62457 0
M  V30 672 H 61.016 3.8032 2.61064 0
M  V30 673 H 59.259 3.6153 2.39747 0
M  V30 674 H 59.93 3.77972 4.02295 0
M  V30 675 H 62.406 1.87791 3.71314 0
M  V30 676 H 61.282 2.07281 5.08258 0
M  V30 677 H 61.543 0.477572 4.39513 0
M  V30 678 N 60.6021 -1.18246 1.0419 0
M  V30 679 C 61.5351 -2.20746 0.578474 0
M  V30 680 C 62.5131 -1.57912 -0.387624 0
M  V30 681 O 63.6971 -1.86071 -0.301634 0
M  V30 682 C 60.8241 -3.38346 -0.154762 0
M  V30 683 C 59.8701 -4.19587 0.764782 0
M  V30 684 S 60.7031 -4.86014 2.24835 0
M  V30 685 C 61.8591 -6.07012 1.526 0
M  V30 686 H 62.0921 -2.59715 1.44691 0
M  V30 687 H 59.6251 -1.287 0.85297 0
M  V30 688 H 61.5831 -4.065 -0.571641 0
M  V30 689 H 60.2441 -2.97786 -0.999105 0
M  V30 690 H 59.4371 -5.03611 0.197976 0
M  V30 691 H 59.0391 -3.56818 1.12057 0
M  V30 692 H 61.3311 -6.72523 0.819733 0
M  V30 693 H 62.2741 -6.68202 2.34333 0
M  V30 694 H 62.6821 -5.55249 1.01779 0
M  V30 695 N 62.0802 -0.821533 -1.34494 0
M  V30 696 C 63.3082 -0.421884 -2.02553 0
M  V30 697 C 63.7232 0.971745 -1.61872 0
M  V30 698 O 63.0802 1.62864 -0.823496 0
M  V30 699 C 63.1312 -0.51285 -3.57844 0
M  V30 700 O 62.8522 -1.85155 -3.97051 0
M  V30 701 C 64.3532 -0.107921 -4.43169 0
M  V30 702 H 61.5732 -0.169482 -0.649243 0
M  V30 703 H 64.1172 -1.1093 -1.71798 0
M  V30 704 H 62.2722 0.126474 -3.87193 0
M  V30 705 H 62.6862 -1.82482 -4.91732 0
M  V30 706 H 64.1602 -0.222657 -5.51551 0
M  V30 707 H 64.6372 0.948401 -4.28838 0
M  V30 708 H 65.2432 -0.720989 -4.19144 0
M  V30 709 N 63.5583 1.46682 -0.576371 0
M  V30 710 C 64.5053 2.30241 0.160499 0
M  V30 711 C 65.4753 1.40233 0.890162 0
M  V30 712 O 66.6603 1.69186 0.882084 0
M  V30 713 C 63.8003 3.24578 1.1723 0
M  V30 714 C 62.9133 4.29684 0.446736 0
M  V30 715 C 62.0483 5.11154 1.44551 0
M  V30 716 C 61.0873 6.08015 0.70599 0
M  V30 717 N 60.2243 6.82376 1.65251 0
M  V30 718 H 65.0643 2.92727 -0.558127 0
M  V30 719 H 62.6013 1.44272 -0.287056 0
M  V30 720 H 64.5593 3.77711 1.77172 0
M  V30 721 H 63.1893 2.63916 1.85872 0
M  V30 722 H 62.2413 3.79458 -0.267594 0
M  V30 723 H 63.5533 4.98626 -0.131686 0
M  V30 724 H 62.7073 5.68533 2.11791 0
M  V30 725 H 61.4463 4.42158 2.05786 0
M  V30 726 H 60.4513 5.49796 0.0197725 0
M  V30 727 H 61.6763 6.79028 0.09912 0
M  V30 728 H 59.6223 6.16094 2.25308 0
M  V30 729 H 59.5393 7.47556 1.12673 0
M  V30 730 H 60.8073 7.44316 2.31546 0
M  V30 731 N 65.0364 0.313813 1.54444 0
M  V30 732 C 66.2644 -0.293918 2.04802 0
M  V30 733 C 66.6794 -1.46537 1.19047 0
M  V30 734 O 66.0364 -1.81182 0.218939 0
M  V30 735 C 66.0874 -0.737806 3.53891 0
M  V30 736 O 65.8084 0.387038 4.36387 0
M  V30 737 C 67.3094 -1.40936 4.203 0
M  V30 738 H 64.5294 -0.0620057 0.668129 0
M  V30 739 H 67.0734 0.457169 1.99324 0
M  V30 740 H 65.2284 -1.43889 3.59687 0
M  V30 741 H 65.6424 0.0391274 5.24485 0
M  V30 742 H 67.1164 -1.67099 5.26101 0
M  V30 743 H 67.5934 -2.35355 3.70816 0
M  V30 744 H 68.1994 -0.751117 4.18615 0
M  V30 745 N 66.5145 -1.57545 0.0417849 0
M  V30 746 C 67.4775 -2.09885 -0.92093 0
M  V30 747 C 68.4775 -1.01648 -1.24596 0
M  V30 748 O 69.6675 -1.27759 -1.1842 0
M  V30 749 C 66.7995 -2.57527 -2.23367 0
M  V30 750 H 67.9925 -2.96236 -0.467382 0
M  V30 751 H 65.5455 -1.5493 -0.206467 0
M  V30 752 H 66.2805 -1.74542 -2.73323 0
M  V30 753 H 66.0655 -3.36613 -2.01083 0
M  V30 754 H 67.5555 -2.98201 -2.92346 0
M  V30 755 N 67.9926 0.231505 -1.5589 0
M  V30 756 C 68.9026 1.308 -1.94752 0
M  V30 757 C 69.9186 1.51826 -0.849989 0
M  V30 758 O 71.0946 1.6515 -1.15271 0
M  V30 759 C 68.1596 2.63968 -2.24771 0
M  V30 760 C 67.2206 2.51331 -3.48039 0
M  V30 761 C 66.4536 3.78148 -3.76616 0
M  V30 762 O 66.6766 4.80722 -3.07022 0
M  V30 763 O 65.6106 3.75857 -4.70123 0
M  V30 764 H 69.4366 1.0083 -2.86474 0
M  V30 765 H 67.0216 0.433547 -1.42971 0
M  V30 766 H 68.9036 3.42633 -2.45318 0
M  V30 767 H 67.5786 2.9364 -1.36225 0
M  V30 768 H 66.4856 1.709 -3.32782 0
M  V30 769 H 67.8186 2.26601 -4.36936 0
M  V30 770 N 69.4707 1.49531 0.497807 0
M  V30 771 C 70.7477 1.49682 1.25915 0
M  V30 772 C 71.1277 0.226339 2.09883 0
M  V30 773 O 70.4757 -0.791189 2.14365 0
M  V30 774 C 70.6857 2.77755 2.11313 0
M  V30 775 C 72.0337 3.27371 2.70395 0
M  V30 776 O 73.0577 2.78894 2.21578 0
M  V30 777 O 71.9167 4.11808 3.59272 0
M  V30 778 H 69.0107 0.599228 0.56996 0
M  V30 779 H 71.5567 1.61798 0.511816 0
M  V30 780 H 70.3287 3.61713 1.49264 0
M  V30 781 H 69.9517 2.68515 2.93233 0
M  V30 782 N 70.9488 -0.749086 1.3866 0
M  V30 783 C 71.8788 -1.8764 1.38973 0
M  V30 784 C 72.8598 -1.68178 0.255004 0
M  V30 785 O 74.0448 -1.88704 0.458754 0
M  V30 786 C 71.1748 -3.25222 1.21851 0
M  V30 787 C 70.1288 -3.59295 2.32575 0
M  V30 788 C 69.4548 -4.95663 2.00555 0
M  V30 789 C 70.7548 -3.63709 3.7485 0
M  V30 790 H 72.4488 -1.87635 2.3331 0
M  V30 791 H 69.9948 -0.901329 1.12303 0
M  V30 792 H 71.9478 -4.03746 1.20695 0
M  V30 793 H 70.6718 -3.25719 0.239775 0
M  V30 794 H 69.3308 -2.83093 2.32925 0
M  V30 795 H 68.9788 -4.92724 1.01154 0
M  V30 796 H 68.6788 -5.19429 2.74714 0
M  V30 797 H 70.2028 -5.7656 2.01024 0
M  V30 798 H 71.6168 -4.32338 3.76506 0
M  V30 799 H 70.0138 -3.98986 4.48252 0
M  V30 800 H 71.0838 -2.63834 4.06841 0
M  V30 801 N 72.4269 -1.23603 -0.977757 0
M  V30 802 C 73.6759 -1.06377 -1.71368 0
M  V30 803 C 73.9889 0.399062 -1.91486 0
M  V30 804 O 75.1949 0.691312 -2.62551 0
M  V30 805 C 73.6509 -1.85512 -3.08404 0
M  V30 806 C 73.2589 -3.36141 -2.96164 0
M  V30 807 C 75.0029 -1.76783 -3.85938 0
M  V30 808 C 72.9099 -4.07659 -4.28449 0
M  V30 809 H 71.8399 -0.394452 -0.642591 0
M  V30 810 H 74.4909 -1.47594 -1.09034 0
M  V30 811 H 72.8729 -1.37103 -3.71509 0
M  V30 812 H 74.0469 -3.92056 -2.42133 0
M  V30 813 H 72.3619 -3.45712 -2.32104 0
M  V30 814 H 74.9589 -2.27526 -4.83876 0
M  V30 815 H 75.3019 -0.731116 -4.0983 0
M  V30 816 H 75.8349 -2.22818 -3.2954 0
M  V30 817 H 72.5739 -5.11648 -4.09752 0
M  V30 818 H 72.0939 -3.5653 -4.82334 0
M  V30 819 H 73.7729 -4.141 -4.97122 0
M  V30 820 N 73.905 1.17692 -1.04816 0
M  V30 821 C 75.316 1.69501 -0.782698 0
M  V30 822 C 75.667 1.83456 0.695577 0
M  V30 823 O 74.792 1.51942 1.54086 0
M  V30 824 C 75.387 3.07874 -1.41419 0
M  V30 825 C 73.946 3.56864 -1.19686 0
M  V30 826 C 73.093 2.3322 -1.50012 0
M  V30 827 H 76.044 1.02262 -1.2136 0
M  V30 828 H 76.065 3.71528 -0.821428 0
M  V30 829 H 75.577 2.97685 -2.49009 0
M  V30 830 H 73.678 3.72337 -0.140043 0
M  V30 831 H 73.791 4.39851 -1.89916 0
M  V30 832 H 72.155 2.37501 -0.920071 0
M  V30 833 H 72.938 2.25644 -2.58727 0
M  V30 834 N 75.3831 0.828654 1.34056 0
M  V30 835 C 76.3461 0.259927 2.27721 0
M  V30 836 C 77.3461 -0.565478 1.50529 0
M  V30 837 O 78.5361 -0.38075 1.69988 0
M  V30 838 C 75.6681 -0.634944 3.34935 0
M  V30 839 H 76.8611 1.0863 2.79534 0
M  V30 840 H 74.4141 0.600951 1.44285 0
M  V30 841 H 75.1491 -1.48416 2.88346 0
M  V30 842 H 74.9341 -0.0444999 3.92075 0
M  V30 843 H 76.4241 -1.02648 4.04788 0
M  V30 844 N 76.8612 -1.46375 0.584142 0
M  V30 845 C 77.8112 -2.27371 -0.169232 0
M  V30 846 C 78.7952 -1.35955 -0.860523 0
M  V30 847 O 79.9872 -1.60119 -0.754382 0
M  V30 848 C 77.1162 -3.22334 -1.18134 0
M  V30 849 C 76.2022 -4.21235 -0.492088 0
M  V30 850 N 76.5932 -5.03766 0.453129 0
M  V30 851 C 74.8912 -4.39773 -0.742652 0
M  V30 852 C 75.5922 -5.75366 0.85609 0
M  V30 853 N 74.5682 -5.43214 0.204926 0
M  V30 854 H 78.3702 -2.88572 0.557097 0
M  V30 855 H 75.8842 -1.57242 0.406042 0
M  V30 856 H 77.8812 -3.79071 -1.73525 0
M  V30 857 H 76.5412 -2.62693 -1.90847 0
M  V30 858 H 77.5522 -5.11227 0.828723 0
M  V30 859 H 74.2292 -3.91279 -1.45625 0
M  V30 860 H 75.6192 -6.5172 1.63434 0
M  V30 861 N 78.3393 -0.321999 -1.54275 0
M  V30 862 C 79.5673 0.283052 -2.04955 0
M  V30 863 C 79.9823 1.45904 -1.19823 0
M  V30 864 O 79.3393 1.81063 -0.228545 0
M  V30 865 C 79.3903 0.719028 -3.54277 0
M  V30 866 O 79.1113 -0.410175 -4.36176 0
M  V30 867 C 80.6123 1.38705 -4.21041 0
M  V30 868 H 77.8323 0.0584616 -0.668448 0
M  V30 869 H 80.3763 -0.467734 -1.99079 0
M  V30 870 H 78.5313 1.41979 -3.60445 0
M  V30 871 H 78.9453 -0.0669416 -5.24457 0
M  V30 872 H 80.4193 1.64306 -5.2698 0
M  V30 873 H 80.8963 2.33385 -3.72059 0
M  V30 874 H 81.5023 0.728906 -4.19007 0
M  V30 875 N 79.8174 1.5752 -0.0501392 0
M  V30 876 C 81.0634 1.92936 0.624798 0
M  V30 877 C 81.3964 0.928685 1.70555 0
M  V30 878 O 80.6714 -0.0454779 1.94447 0
M  V30 879 C 80.9544 3.38737 1.22185 0
M  V30 880 C 80.8074 4.49552 0.149218 0
M  V30 881 C 82.1264 3.84913 2.13378 0
M  V30 882 H 79.2454 0.701604 0.225657 0
M  V30 883 H 81.8874 1.89671 -0.111693 0
M  V30 884 H 80.0374 3.4165 1.84953 0
M  V30 885 H 81.7094 4.58768 -0.482648 0
M  V30 886 H 79.9524 4.30638 -0.522841 0
M  V30 887 H 80.6234 5.48653 0.606966 0
M  V30 888 H 83.0994 3.8387 1.60572 0
M  V30 889 H 81.9754 4.87584 2.52097 0
M  V30 890 H 82.2364 3.21611 3.03346 0
M  V30 891 N 81.2955 -0.223234 1.56011 0
M  V30 892 C 82.5205 -0.968978 1.83373 0
M  V30 893 C 82.9455 -1.77227 0.630254 0
M  V30 894 O 82.3035 -1.76345 -0.420959 0
M  V30 895 C 82.3515 -1.86363 3.08709 0
M  V30 896 O 81.4555 -2.95873 2.87285 0
M  V30 897 H 80.7965 -0.274461 0.604622 0
M  V30 898 H 83.3265 -0.237056 2.03222 0
M  V30 899 H 83.3365 -2.27376 3.38768 0
M  V30 900 H 82.0115 -1.27319 3.95933 0
M  V30 901 H 80.5885 -2.58818 2.68454 0
M  V30 902 N 82.7736 -1.49793 -0.48987 0
M  V30 903 C 84.0036 -1.6333 -1.26518 0
M  V30 904 C 84.4116 -0.308392 -1.8667 0
M  V30 905 O 83.7546 0.717512 -1.69108 0
M  V30 906 C 83.8166 -2.6522 -2.4269 0
M  V30 907 C 83.4806 -4.09279 -2.03321 0
M  V30 908 C 84.4776 -4.95738 -1.56652 0
M  V30 909 C 82.1626 -4.55082 -2.12616 0
M  V30 910 C 84.1566 -6.26041 -1.19795 0
M  V30 911 C 81.8436 -5.85396 -1.75371 0
M  V30 912 C 82.8416 -6.707 -1.29036 0
M  V30 913 O 82.5296 -7.98584 -0.92299 0
M  V30 914 H 82.2616 -0.552502 -0.389509 0
M  V30 915 H 84.8156 -1.96642 -0.593381 0
M  V30 916 H 83.0456 -2.27112 -3.12981 0
M  V30 917 H 84.7346 -2.68171 -3.04695 0
M  V30 918 H 85.5006 -4.61575 -1.48908 0
M  V30 919 H 81.3796 -3.88844 -2.47631 0
M  V30 920 H 84.9236 -6.92578 -0.835582 0
M  V30 921 H 80.8206 -6.19085 -1.82768 0
M  V30 922 H 81.5886 -8.11692 -1.05349 0
M  V30 923 N 84.2517 0.741722 -1.39055 0
M  V30 924 C 85.4987 1.50114 -1.35912 0
M  V30 925 C 85.8267 1.94443 0.0470937 0
M  V30 926 O 85.0817 1.66612 1.02659 0
M  V30 927 C 85.3807 2.7592 -2.27163 0
M  V30 928 C 85.0467 2.50493 -3.74919 0
M  V30 929 C 83.7087 2.43267 -4.1518 0
M  V30 930 C 86.0607 2.28585 -4.684 0
M  V30 931 C 83.3887 2.12166 -5.46994 0
M  V30 932 C 85.7407 1.99002 -6.00484 0
M  V30 933 C 84.4047 1.90241 -6.39816 0
M  V30 934 H 83.6747 0.549306 -0.497336 0
M  V30 935 H 86.3217 0.851896 -1.71508 0
M  V30 936 H 84.6267 3.45553 -1.84663 0
M  V30 937 H 86.3237 3.33923 -2.22028 0
M  V30 938 H 82.9137 2.56992 -3.43006 0
M  V30 939 H 87.0977 2.33139 -4.38132 0
M  V30 940 H 82.3537 2.03901 -5.76398 0
M  V30 941 H 86.5277 1.81057 -6.72452 0
M  V30 942 H 84.1547 1.65907 -7.41875 0
M  V30 943 N 85.7298 1.2412 0.971189 0
M  V30 944 C 86.9698 1.09066 1.7287 0
M  V30 945 C 87.3338 -0.364794 1.88503 0
M  V30 946 O 88.5348 -0.636748 2.61149 0
M  V30 947 C 86.8058 1.80629 3.08396 0
M  V30 948 S 88.3648 1.81263 3.99611 0
M  V30 949 H 85.1828 0.390145 0.594397 0
M  V30 950 H 87.7848 1.57397 1.15959 0
M  V30 951 H 86.4888 2.85647 2.94676 0
M  V30 952 H 86.0198 1.32617 3.70373 0
M  V30 953 H 88.0348 0.877804 4.88374 0
M  V30 954 N 87.2079 -1.17134 1.05439 0
M  V30 955 C 88.4849 -1.83411 0.679699 0
M  V30 956 C 88.8649 -1.9368 -0.839726 0
M  V30 957 O 88.2129 -1.47325 -1.74664 0
M  V30 958 C 88.4229 -3.20918 1.37159 0
M  V30 959 C 89.7709 -3.96796 1.51123 0
M  V30 960 O 90.7949 -3.30406 1.3308 0
M  V30 961 O 89.6539 -5.15778 1.80651 0
M  V30 962 H 86.7479 -0.79154 0.239569 0
M  V30 963 H 89.2939 -1.24411 1.15413 0
M  V30 964 H 88.0659 -3.08428 2.40807 0
M  V30 965 H 87.6889 -3.87587 0.886674 0
M  V30 966 N 88.686 -0.835752 -1.33615 0
M  V30 967 C 89.636 -0.238856 -2.26745 0
M  V30 968 C 90.62 0.604343 -1.49119 0
M  V30 969 O 91.812 0.456822 -1.71003 0
M  V30 970 C 88.941 0.587725 -3.38232 0
M  V30 971 C 88.027 -0.266811 -4.2326 0
M  V30 972 N 88.418 -1.34403 -4.87616 0
M  V30 973 C 86.716 -0.0533131 -4.45968 0
M  V30 974 C 87.417 -1.86819 -5.50884 0
M  V30 975 N 86.393 -1.17013 -5.30857 0
M  V30 976 H 90.195 -1.06266 -2.74016 0
M  V30 977 H 87.709 -0.679881 -1.47483 0
M  V30 978 H 89.706 1.03161 -4.03935 0
M  V30 979 H 88.366 1.40954 -2.9251 0
M  V30 980 H 89.377 -1.7269 -4.88261 0
M  V30 981 H 86.054 0.735312 -4.10974 0
M  V30 982 H 87.444 -2.7701 -6.1214 0
M  V30 983 N 90.1641 1.46063 -0.591896 0
M  V30 984 C 91.4101 2.02638 -0.0811191 0
M  V30 985 C 91.7431 1.4613 1.27905 0
M  V30 986 O 91.0181 0.629908 1.84017 0
M  V30 987 C 91.3011 3.60091 -0.0252436 0
M  V30 988 C 91.1541 4.26965 -1.41496 0
M  V30 989 C 92.4731 4.3496 0.670685 0
M  V30 990 H 89.5921 0.73635 -0.0309524 0
M  V30 991 H 92.2341 1.741 -0.760859 0
M  V30 992 H 90.3841 3.84535 0.553624 0
M  V30 993 H 92.0561 4.13756 -2.0397 0
M  V30 994 H 90.2991 3.85971 -1.98011 0
M  V30 995 H 90.9701 5.35781 -1.32825 0
M  V30 996 H 93.4461 4.15716 0.178825 0
M  V30 997 H 92.3221 5.44686 0.678837 0
M  V30 998 H 92.5831 4.06685 1.73379 0
M  V30 999 N 91.6422 0.330177 1.54103 0
M  V30 1000 C 92.8722 -0.271784 2.04805 0
M  V30 1001 C 93.2802 -1.45816 1.20559 0
M  V30 1002 O 92.6232 -1.82247 0.2306 0
M  V30 1003 C 92.6852 -0.763238 3.51305 0
M  V30 1004 C 92.3492 0.301705 4.56003 0
M  V30 1005 C 93.3462 1.13999 5.07248 0
M  V30 1006 C 91.0312 0.451793 5.00264 0
M  V30 1007 C 93.0252 2.11402 6.01322 0
M  V30 1008 C 90.7122 1.42924 5.94151 0
M  V30 1009 C 91.7102 2.25882 6.44567 0
M  V30 1010 O 91.3982 3.21965 7.3661 0
M  V30 1011 H 91.1302 -0.058693 0.673447 0
M  V30 1012 H 93.6842 0.476395 1.99799 0
M  V30 1013 H 91.9142 -1.56244 3.5373 0
M  V30 1014 H 93.6032 -1.28427 3.85047 0
M  V30 1015 H 94.3692 1.03505 4.73827 0
M  V30 1016 H 90.2482 -0.184044 4.60632 0
M  V30 1017 H 93.7922 2.76192 6.40596 0
M  V30 1018 H 89.6892 1.53479 6.26988 0
M  V30 1019 H 90.4572 3.17281 7.54503 0
M  V30 1020 N 93.1203 -1.57491 0.0584922 0
M  V30 1021 C 94.3453 -1.97711 -0.62652 0
M  V30 1022 C 94.7703 -0.936132 -1.63151 0
M  V30 1023 O 94.1283 0.099811 -1.81025 0
M  V30 1024 C 94.1763 -3.36989 -1.28338 0
M  V30 1025 O 93.2803 -3.35433 -2.39913 0
M  V30 1026 H 92.6213 -0.643868 -0.162266 0
M  V30 1027 H 95.1513 -2.04193 0.129064 0
M  V30 1028 H 95.1613 -3.73879 -1.63335 0
M  V30 1029 H 93.8363 -4.12289 -0.546889 0
M  V30 1030 H 92.4133 -3.10298 -2.06809 0
M  V30 1031 N 94.5984 0.214957 -1.56127 0
M  V30 1032 C 95.5084 1.28727 -1.96129 0
M  V30 1033 C 96.5244 1.50916 -0.866044 0
M  V30 1034 O 97.7004 1.63918 -1.17016 0
M  V30 1035 C 94.7654 2.61569 -2.27558 0
M  V30 1036 C 93.8264 2.47625 -3.50685 0
M  V30 1037 C 93.0594 3.74132 -3.80606 0
M  V30 1038 O 93.2824 4.77438 -3.12104 0
M  V30 1039 O 92.2164 3.70849 -4.74083 0
M  V30 1040 H 96.0424 0.977855 -2.87527 0
M  V30 1041 H 93.6274 0.418358 -1.43423 0
M  V30 1042 H 95.5094 3.40012 -2.48938 0
M  V30 1043 H 94.1844 2.92178 -1.39332 0
M  V30 1044 H 93.0914 1.67361 -3.34576 0
M  V30 1045 H 94.4244 2.21954 -4.39315 0
M  V30 1046 N 96.0765 1.50051 0.48192 0
M  V30 1047 C 97.0265 1.64512 1.5786 0
M  V30 1048 C 98.0105 0.500073 1.52932 0
M  V30 1049 O 99.2025 0.753964 1.60139 0
M  V30 1050 C 96.3315 1.73263 2.9637 0
M  V30 1051 C 95.4175 2.93409 3.06222 0
M  V30 1052 N 95.8085 4.17236 2.85915 0
M  V30 1053 C 94.1065 2.91742 3.37346 0
M  V30 1054 C 94.8075 4.981 3.00451 0
M  V30 1055 N 93.7835 4.3184 3.30174 0
M  V30 1056 H 97.5855 2.57955 1.40842 0
M  V30 1057 H 95.0995 1.47086 0.688439 0
M  V30 1058 H 97.0965 1.81724 3.75209 0
M  V30 1059 H 95.7565 0.809711 3.14442 0
M  V30 1060 H 96.7675 4.46909 2.6171 0
M  V30 1061 H 93.4445 2.08907 3.61475 0
M  V30 1062 H 94.8345 6.06532 2.89082 0
M  V30 1063 N 97.5546 -0.734337 1.39446 0
M  V30 1064 C 98.8026 -1.49096 1.36436 0
M  V30 1065 C 99.1236 -1.94961 -0.0388255 0
M  V30 1066 O 98.3936 -1.69033 -0.990191 0
M  V30 1067 H 96.9736 -0.5531 0.502085 0
M  V30 1068 H 99.6356 -0.871725 1.74319 0
M  V30 1069 H 98.7316 -2.37276 2.02747 0
M  V30 1070 N 99.0327 -1.24633 -0.964593 0
M  V30 1071 C 99.9427 -1.05859 -2.09359 0
M  V30 1072 C 100.959 0.00148855 -1.74 0
M  V30 1073 O 102.135 -0.197346 -2.00431 0
M  V30 1074 C 99.1997 -0.668879 -3.40187 0
M  V30 1075 C 98.2607 -1.80578 -3.89474 0
M  V30 1076 C 97.4937 -1.43457 -5.14058 0
M  V30 1077 O 97.7167 -0.325775 -5.69469 0
M  V30 1078 O 96.6507 -2.2613 -5.57807 0
M  V30 1079 H 100.477 -2.00516 -2.28094 0
M  V30 1080 H 98.0617 -1.03481 -1.0776 0
M  V30 1081 H 99.9437 -0.463211 -4.18846 0
M  V30 1082 H 98.6187 0.248536 -3.22744 0
M  V30 1083 H 97.5257 -2.06623 -3.11862 0
M  V30 1084 H 98.8587 -2.70208 -4.11398 0
M  V30 1085 N 100.511 1.16574 -1.06058 0
M  V30 1086 C 101.459 2.22941 -0.663343 0
M  V30 1087 C 102.453 1.66358 0.319593 0
M  V30 1088 O 103.659 1.7905 0.184713 0
M  V30 1089 H 100.034 0.725907 -0.196376 0
M  V30 1090 H 102.005 2.53736 -1.57037 0
M  V30 1091 C 100.754 3.47642 -0.0632808 0
M  V30 1092 H 100.077 3.91493 -0.810733 0
M  V30 1093 H 101.517 4.2363 0.177177 0
M  V30 1094 C 99.9758 3.1509 1.19248 0
M  V30 1095 O 100.506 3.30673 2.28075 0
M  V30 1096 N 98.7118 2.6924 1.09353 0
M  V30 1097 H 98.2588 2.5676 0.207912 0
M  V30 1098 H 98.2168 2.47833 1.93458 0
M  V30 1099 N 101.989 0.842826 1.3317 0
M  V30 1100 C 103.237 0.439577 1.97262 0
M  V30 1101 C 103.558 -1.00548 1.67078 0
M  V30 1102 O 102.828 -1.70098 0.971779 0
M  V30 1103 H 101.408 0.159558 0.72976 0
M  V30 1104 H 104.07 1.07665 1.62463 0
M  V30 1105 H 103.166 0.574886 3.0676 0
M  V30 1106 N 103.467 -1.45747 0.599634 0
M  V30 1107 C 104.414 -2.30467 -0.123849 0
M  V30 1108 C 105.384 -1.41632 -0.86774 0
M  V30 1109 O 106.569 -1.70568 -0.855056 0
M  V30 1110 C 103.709 -3.26402 -1.12051 0
M  V30 1111 C 102.822 -4.3034 -0.37832 0
M  V30 1112 C 101.957 -5.13389 -1.364 0
M  V30 1113 C 100.996 -6.09061 -0.609171 0
M  V30 1114 N 100.133 -6.84918 -1.54374 0
M  V30 1115 H 104.973 -2.91802 0.604627 0
M  V30 1116 H 102.51 -1.43797 0.309972 0
M  V30 1117 H 104.468 -3.80482 -1.7114 0
M  V30 1118 H 103.098 -2.66839 -1.8165 0
M  V30 1119 H 102.15 -3.78984 0.327929 0
M  V30 1120 H 103.462 -4.98354 0.210997 0
M  V30 1121 H 102.616 -5.7183 -2.02719 0
M  V30 1122 H 101.355 -4.45376 -1.98725 0
M  V30 1123 H 100.36 -5.49758 0.0676979 0
M  V30 1124 H 101.585 -6.79099 0.00891991 0
M  V30 1125 H 99.531 -6.19601 -2.15478 0
M  V30 1126 H 99.448 -7.49254 -1.00766 0
M  V30 1127 H 100.716 -7.47906 -2.19676 0
M  V30 1128 N 104.945 -0.338344 -1.53925 0
M  V30 1129 C 106.361 0.0137736 -1.59594 0
M  V30 1130 C 106.561 1.49186 -1.35447 0
M  V30 1131 O 105.617 2.24987 -1.14616 0
M  V30 1132 C 106.93 -0.41773 -2.97784 0
M  V30 1133 C 108.478 -0.369633 -3.1081 0
M  V30 1134 C 108.953 -0.776524 -4.51369 0
M  V30 1135 N 110.444 -0.730506 -4.57403 0
M  V30 1136 C 111.179 -1.01736 -5.64303 0
M  V30 1137 N 110.675 -1.3721 -6.79077 0
M  V30 1138 N 112.468 -0.941942 -5.54151 0
M  V30 1139 H 104.619 -1.3012 -1.67876 0
M  V30 1140 H 106.882 -0.530082 -0.78595 0
M  V30 1141 H 106.588 -1.44811 -3.20504 0
M  V30 1142 H 106.462 0.209729 -3.76616 0
M  V30 1143 H 108.849 0.651568 -2.87817 0
M  V30 1144 H 108.93 -1.03223 -2.34049 0
M  V30 1145 H 108.574 -1.79571 -4.75096 0
M  V30 1146 H 108.504 -0.0914649 -5.26521 0
M  V30 1147 H 110.995 -0.468783 -3.74981 0
M  V30 1148 H 111.308 -1.57597 -7.5656 0
M  V30 1149 H 109.653 -1.4105 -6.80536 0
M  V30 1150 H 112.844 -0.664184 -4.63364 0
M  V30 1151 H 113.017 -1.16884 -6.37371 0
M  V30 1152 N 106.423 1.57458 -0.0668435 0
M  V30 1153 C 107.373 2.0896 0.912119 0
M  V30 1154 C 108.357 0.998186 1.26195 0
M  V30 1155 O 109.549 1.26133 1.24175 0
M  V30 1156 C 106.678 2.6508 2.18145 0
M  V30 1157 C 105.764 3.81218 1.85832 0
M  V30 1158 N 106.155 4.90378 1.23948 0
M  V30 1159 C 104.453 3.9042 2.15612 0
M  V30 1160 C 105.154 5.71279 1.09616 0
M  V30 1161 N 104.13 5.19389 1.60423 0
M  V30 1162 H 107.932 2.90749 0.42924 0
M  V30 1163 H 105.446 1.6182 0.137184 0
M  V30 1164 H 107.443 3.0029 2.89192 0
M  V30 1165 H 106.103 1.84736 2.67025 0
M  V30 1166 H 107.114 5.09847 0.909731 0
M  V30 1167 H 103.791 3.21043 2.66903 0
M  V30 1168 H 105.181 6.69085 0.614425 0
M  V30 1169 N 107.901 -0.206675 1.56239 0
M  V30 1170 C 109.126 -0.949474 1.8439 0
M  V30 1171 C 109.551 -1.76549 0.649016 0
M  V30 1172 O 108.909 -1.76782 -0.402231 0
M  V30 1173 C 108.957 -1.83078 3.10668 0
M  V30 1174 O 108.061 -2.9281 2.90407 0
M  V30 1175 H 107.402 -0.268033 0.607499 0
M  V30 1176 H 109.932 -0.215488 2.03462 0
M  V30 1177 H 109.942 -2.2377 3.41161 0
M  V30 1178 H 108.617 -1.23112 3.97261 0
M  V30 1179 H 107.194 -2.55956 2.71184 0
M  V30 1180 N 109.379 -1.50304 -0.473955 0
M  V30 1181 C 110.329 -1.65347 -1.56985 0
M  V30 1182 C 111.313 -0.508176 -1.52664 0
M  V30 1183 O 112.505 -0.762446 -1.59737 0
M  V30 1184 C 109.634 -1.74832 -2.95447 0
M  V30 1185 C 108.72 -2.95028 -3.04662 0
M  V30 1186 N 109.111 -4.18747 -2.83698 0
M  V30 1187 C 107.409 -2.93527 -3.35795 0
M  V30 1188 C 108.11 -4.99687 -2.97805 0
M  V30 1189 N 107.086 -4.33585 -3.2788 0
M  V30 1190 H 110.888 -2.58698 -1.39472 0
M  V30 1191 H 108.402 -1.47449 -0.680629 0
M  V30 1192 H 110.399 -1.83712 -3.7424 0
M  V30 1193 H 109.059 -0.826376 -3.14008 0
M  V30 1194 H 110.07 -4.48291 -2.59337 0
M  V30 1195 H 106.747 -2.10821 -3.60362 0
M  V30 1196 H 108.137 -6.08057 -2.85861 0
M  V30 1197 N 110.857 0.726932 -1.39834 0
M  V30 1198 C 112.103 1.48884 -1.377 0
M  V30 1199 C 112.436 1.94185 0.0244852 0
M  V30 1200 O 111.711 1.67361 0.990986 0
M  V30 1201 C 111.994 2.72288 -2.3565 0
M  V30 1202 C 111.847 2.32956 -3.84775 0
M  V30 1203 C 113.166 3.74414 -2.31306 0
M  V30 1204 H 110.285 0.540062 -0.5015 0
M  V30 1205 H 112.927 0.830547 -1.70886 0
M  V30 1206 H 111.077 3.28457 -2.07481 0
M  V30 1207 H 112.749 1.82356 -4.23726 0
M  V30 1208 H 110.992 1.65088 -4.01159 0
M  V30 1209 H 111.663 3.21362 -4.4881 0
M  V30 1210 H 114.139 3.27849 -2.56231 0
M  V30 1211 H 113.015 4.58414 -3.01907 0
M  V30 1212 H 113.276 4.21909 -1.32081 0
M  V30 1213 N 112.336 1.25143 0.95797 0
M  V30 1214 C 113.246 1.06968 2.08794 0
M  V30 1215 C 114.262 0.00773911 1.73998 0
M  V30 1216 O 115.438 0.207972 2.00323 0
M  V30 1217 C 112.503 0.68691 3.39827 0
M  V30 1218 C 111.564 1.82641 3.88511 0
M  V30 1219 C 110.797 1.46181 5.1329 0
M  V30 1220 O 111.02 0.355971 5.69288 0
M  V30 1221 O 109.954 2.29085 5.566 0
M  V30 1222 H 113.78 2.01723 2.27027 0
M  V30 1223 H 111.365 1.04051 1.07209 0
M  V30 1224 H 113.247 0.485417 4.18595 0
M  V30 1225 H 111.922 -0.231417 3.22872 0
M  V30 1226 H 110.829 2.08274 3.10762 0
M  V30 1227 H 112.162 2.72386 4.09959 0
M  V30 1228 N 113.814 -1.1601 1.06675 0
M  V30 1229 C 115.063 -1.85973 0.780818 0
M  V30 1230 C 115.376 -1.82819 -0.695444 0
M  V30 1231 O 116.582 -2.484 -1.09589 0
M  V30 1232 C 115.038 -3.33757 1.34665 0
M  V30 1233 C 114.646 -3.45374 2.85343 0
M  V30 1234 C 116.39 -4.0895 1.13843 0
M  V30 1235 C 114.297 -4.87266 3.35151 0
M  V30 1236 H 113.227 -0.696661 0.288407 0
M  V30 1237 H 115.878 -1.30903 1.28595 0
M  V30 1238 H 114.26 -3.88456 0.769274 0
M  V30 1239 H 115.434 -3.00816 3.49065 0
M  V30 1240 H 113.749 -2.83619 3.04876 0
M  V30 1241 H 116.346 -5.13654 1.4854 0
M  V30 1242 H 116.689 -4.16229 0.0770282 0
M  V30 1243 H 117.222 -3.605 1.68179 0
M  V30 1244 H 113.961 -4.85168 4.40786 0
M  V30 1245 H 113.481 -5.32433 2.76179 0
M  V30 1246 H 115.16 -5.56097 3.30704 0
M  V30 1247 N 115.292 -0.849877 -1.32721 0
M  V30 1248 C 116.54 -0.450032 -1.97026 0
M  V30 1249 C 116.861 0.996604 -1.67609 0
M  V30 1250 O 116.131 1.6958 -0.980786 0
M  V30 1251 H 114.711 -0.163426 -0.728904 0
M  V30 1252 H 117.373 -1.08526 -1.6189 0
M  V30 1253 H 116.469 -0.591146 -3.0645 0
M  V30 1254 N 116.77 1.45427 -0.607355 0
M  V30 1255 C 118.186 1.57283 -0.270985 0
M  V30 1256 C 118.386 1.59875 1.22647 0
M  V30 1257 O 117.442 1.52893 2.00948 0
M  V30 1258 C 118.755 2.85566 -0.941952 0
M  V30 1259 C 120.303 2.9924 -0.917849 0
M  V30 1260 C 120.778 4.30293 -1.56882 0
M  V30 1261 N 122.269 4.37051 -1.5343 0
M  V30 1262 C 123.004 5.37123 -2.00715 0
M  V30 1263 N 122.5 6.43734 -2.56084 0
M  V30 1264 N 124.293 5.28479 -1.91484 0
M  V30 1265 H 116.444 1.41988 -1.57966 0
M  V30 1266 H 118.707 0.67885 -0.661715 0
M  V30 1267 H 118.413 2.8955 -1.99633 0
M  V30 1268 H 118.287 3.74322 -0.465096 0
M  V30 1269 H 120.674 2.94822 0.127984 0
M  V30 1270 H 120.755 2.11895 -1.43297 0
M  V30 1271 H 120.399 4.35469 -2.61398 0
M  V30 1272 H 120.329 5.16454 -1.02873 0
M  V30 1273 H 122.82 3.60615 -1.12982 0
M  V30 1274 H 123.133 7.16341 -2.89958 0
M  V30 1275 H 121.478 6.44485 -2.60122 0
M  V30 1276 H 124.669 4.44098 -1.47967 0
M  V30 1277 H 124.842 6.0632 -2.28648 0
M  V30 1278 N 118.248 0.346503 1.53744 0
M  V30 1279 C 119.494 -0.242135 2.01954 0
M  V30 1280 C 119.849 -1.47962 1.22984 0
M  V30 1281 O 119.142 -1.89077 0.309924 0
M  V30 1282 C 119.336 -0.605809 3.52228 0
M  V30 1283 C 119.165 0.594882 4.45748 0
M  V30 1284 C 117.935 1.1011 4.93157 0
M  V30 1285 C 120.133 1.45425 4.93311 0
M  V30 1286 N 118.115 2.26381 5.70636 0
M  V30 1287 C 119.486 2.46383 5.68942 0
M  V30 1288 C 121.541 1.47935 4.75415 0
M  V30 1289 C 120.244 3.49684 6.28581 0
M  V30 1290 C 122.27 2.50119 5.35905 0
M  V30 1291 C 121.632 3.49803 6.11406 0
M  V30 1292 H 117.731 -0.0518296 0.780281 0
M  V30 1293 H 120.315 0.486736 1.88518 0
M  V30 1294 H 118.486 -1.30378 3.65864 0
M  V30 1295 H 120.218 -1.17789 3.87179 0
M  V30 1296 H 116.973 0.668721 4.68855 0
M  V30 1297 H 117.397 2.85094 6.14044 0
M  V30 1298 H 122.039 0.722274 4.16585 0
M  V30 1299 H 119.757 4.26285 6.86518 0
M  V30 1300 H 123.343 2.52892 5.23963 0
M  V30 1301 H 122.223 4.27576 6.5738 0
M  V30 1302 N 119.726 -1.57421 0.075193 0
M  V30 1303 C 120.689 -2.11791 -0.876203 0
M  V30 1304 C 121.689 -1.04268 -1.22412 0
M  V30 1305 O 122.879 -1.30242 -1.15684 0
M  V30 1306 C 120.011 -2.62207 -2.17854 0
M  V30 1307 H 121.204 -2.9716 -0.40444 0
M  V30 1308 H 118.757 -1.55333 -0.173557 0
M  V30 1309 H 119.492 -1.803 -2.6956 0
M  V30 1310 H 119.277 -3.40802 -1.93897 0
M  V30 1311 H 120.767 -3.04335 -2.85955 0
M  V30 1312 N 121.204 0.198386 -1.56346 0
M  V30 1313 C 122.481 0.944982 -1.71258 0
M  V30 1314 C 122.861 2.0151 -0.629048 0
M  V30 1315 O 122.209 2.25639 0.360473 0
M  V30 1316 C 122.419 1.5344 -3.1346 0
M  V30 1317 C 123.767 2.01778 -3.73591 0
M  V30 1318 O 124.791 1.63288 -3.16568 0
M  V30 1319 O 123.65 2.72594 -4.73661 0
M  V30 1320 H 120.744 0.442939 -0.69838 0
M  V30 1321 H 123.29 0.188342 -1.68652 0
M  V30 1322 H 122.062 0.762869 -3.83792 0
M  V30 1323 H 121.685 2.35596 -3.20282 0
M  V30 1324 N 122.682 1.50554 0.465978 0
M  V30 1325 C 123.931 1.61038 1.21448 0
M  V30 1326 C 124.244 0.31865 1.92987 0
M  V30 1327 O 125.45 0.302469 2.6981 0
M  V30 1328 C 123.906 2.84283 2.20706 0
M  V30 1329 C 123.514 4.20352 1.54946 0
M  V30 1330 C 125.258 3.04115 2.96166 0
M  V30 1331 C 123.165 5.34778 2.5252 0
M  V30 1332 H 122.095 0.599718 0.457005 0
M  V30 1333 H 124.746 1.7699 0.484424 0
M  V30 1334 H 123.128 2.61901 2.97025 0
M  V30 1335 H 124.302 4.53008 0.843811 0
M  V30 1336 H 122.617 4.06167 0.917475 0
M  V30 1337 H 125.214 3.86774 3.69202 0
M  V30 1338 H 125.557 2.16045 3.55852 0
M  V30 1339 H 126.09 3.26702 2.26959 0
M  V30 1340 H 122.829 6.25018 1.97566 0
M  V30 1341 H 122.349 5.06534 3.21222 0
M  V30 1342 H 124.028 5.65561 3.14245 0
M  V30 1343 N 124.16 -0.719506 1.40217 0
M  V30 1344 C 125.39 -1.50646 1.41384 0
M  V30 1345 C 125.798 -1.89197 0.0107743 0
M  V30 1346 O 125.141 -1.55709 -0.974708 0
M  V30 1347 C 125.203 -2.81405 2.23722 0
M  V30 1348 C 124.867 -2.65199 3.72181 0
M  V30 1349 C 125.864 -2.32717 4.64907 0
M  V30 1350 C 123.549 -2.81586 4.1595 0
M  V30 1351 C 125.543 -2.16827 5.99387 0
M  V30 1352 C 123.23 -2.65313 5.50502 0
M  V30 1353 C 124.228 -2.32981 6.42035 0
M  V30 1354 O 123.916 -2.16827 7.74107 0
M  V30 1355 H 123.648 -0.471606 0.484318 0
M  V30 1356 H 126.202 -0.895456 1.84853 0
M  V30 1357 H 124.432 -3.44823 1.75026 0
M  V30 1358 H 126.121 -3.43102 2.16878 0
M  V30 1359 H 126.887 -2.19694 4.32388 0
M  V30 1360 H 122.766 -3.0574 3.45027 0
M  V30 1361 H 126.31 -1.91513 6.70797 0
M  V30 1362 H 122.207 -2.7792 5.82607 0
M  V30 1363 H 122.975 -2.31778 7.84998 0
M  V30 1364 N 125.638 -1.25649 -0.95132 0
M  V30 1365 C 126.878 -1.11802 -1.71113 0
M  V30 1366 C 127.242 0.334758 -1.89059 0
M  V30 1367 O 128.443 0.595121 -2.62129 0
M  V30 1368 C 126.714 -1.85512 -3.05483 0
M  V30 1369 S 128.273 -1.87597 -3.96677 0
M  V30 1370 H 125.091 -0.399552 -0.588115 0
M  V30 1371 H 127.693 -1.59222 -1.1344 0
M  V30 1372 H 126.397 -2.90299 -2.90094 0
M  V30 1373 H 125.928 -1.38493 -3.68216 0
M  V30 1374 H 127.943 -0.955389 -4.86916 0
M  V30 1375 N 127.117 1.15442 -1.07289 0
M  V30 1376 C 128.366 1.85557 -0.790669 0
M  V30 1377 C 128.679 1.83186 0.685739 0
M  V30 1378 O 129.885 2.48977 1.0827 0
M  V30 1379 C 128.341 3.33038 -1.36433 0
M  V30 1380 C 127.949 3.43856 -2.8717 0
M  V30 1381 C 129.693 4.0834 -1.1601 0
M  V30 1382 C 127.6 4.85482 -3.3773 0
M  V30 1383 H 126.53 0.695122 -0.292098 0
M  V30 1384 H 129.181 1.30219 -1.29287 0
M  V30 1385 H 127.563 3.88043 -0.789864 0
M  V30 1386 H 128.737 2.98961 -3.50655 0
M  V30 1387 H 127.052 2.81998 -3.06376 0
M  V30 1388 H 129.649 5.12859 -1.51262 0
M  V30 1389 H 129.992 4.16182 -0.0991007 0
M  V30 1390 H 130.525 3.59603 -1.70089 0
M  V30 1391 H 127.264 4.82823 -4.43353 0
M  V30 1392 H 126.784 5.30961 -2.78999 0
M  V30 1393 H 128.463 5.54335 -3.33648 0
M  V30 1394 N 128.595 0.856903 1.32268 0
M  V30 1395 C 129.844 0.457599 1.96441 0
M  V30 1396 C 130.157 -0.992426 1.68553 0
M  V30 1397 O 131.363 -1.49727 2.26482 0
M  V30 1398 C 129.819 0.767358 3.51624 0
M  V30 1399 C 129.427 2.23326 3.88367 0
M  V30 1400 C 131.171 0.435887 4.22256 0
M  V30 1401 C 129.078 2.48613 5.36606 0
M  V30 1402 H 128.008 0.167387 0.735185 0
M  V30 1403 H 130.659 1.048 1.5063 0
M  V30 1404 H 129.041 0.106367 3.95857 0
M  V30 1405 H 130.215 2.93623 3.55137 0
M  V30 1406 H 128.53 2.52948 3.30766 0
M  V30 1407 H 131.127 0.602202 5.31298 0
M  V30 1408 H 131.47 -0.622672 4.11617 0
M  V30 1409 H 132.003 1.05286 3.83614 0
M  V30 1410 H 128.742 3.53101 5.52268 0
M  V30 1411 H 128.262 1.82896 5.71235 0
M  V30 1412 H 129.941 2.32676 6.03714 0
M  V30 1413 N 130.073 -1.45103 0.615059 0
M  V30 1414 C 131.484 -1.85654 0.197383 0
M  V30 1415 C 131.835 -1.51433 -1.24749 0
M  V30 1416 O 130.96 -0.944608 -1.94695 0
M  V30 1417 C 131.555 -3.36972 0.351448 0
M  V30 1418 C 130.114 -3.76398 -0.011593 0
M  V30 1419 C 129.261 -2.69024 0.672394 0
M  V30 1420 H 132.212 -1.35797 0.821263 0
M  V30 1421 H 132.233 -3.78239 -0.414227 0
M  V30 1422 H 131.745 -3.61847 1.40314 0
M  V30 1423 H 129.846 -3.5714 -1.06217 0
M  V30 1424 H 129.959 -4.77532 0.387265 0
M  V30 1425 H 128.323 -2.54465 0.109284 0
M  V30 1426 H 129.106 -2.96735 1.72636 0
M  V30 1427 N 131.551 -0.354651 -1.53558 0
M  V30 1428 C 132.514 0.484566 -2.24019 0
M  V30 1429 C 133.514 1.01861 -1.24422 0
M  V30 1430 O 134.704 0.906097 -1.4878 0
M  V30 1431 C 131.836 1.67615 -2.96847 0
M  V30 1432 H 133.029 -0.131843 -2.9961 0
M  V30 1433 H 130.582 -0.106165 -1.55939 0
M  V30 1434 H 131.317 2.33095 -2.25471 0
M  V30 1435 H 131.102 1.30029 -3.69912 0
M  V30 1436 H 132.592 2.27114 -3.50441 0
M  V30 1437 N 133.029 1.57378 -0.0835403 0
M  V30 1438 C 134.257 1.98263 0.59157 0
M  V30 1439 C 134.672 0.962302 1.62435 0
M  V30 1440 O 134.029 -0.049581 1.82433 0
M  V30 1441 C 134.08 3.39214 1.24965 0
M  V30 1442 O 133.801 4.37339 0.258186 0
M  V30 1443 C 135.302 3.95038 2.01147 0
M  V30 1444 H 132.522 0.651773 0.159477 0
M  V30 1445 H 135.066 2.03878 -0.159415 0
M  V30 1446 H 133.221 3.34649 1.95164 0
M  V30 1447 H 133.635 5.19371 0.731734 0
M  V30 1448 H 135.109 4.95848 2.42567 0
M  V30 1449 H 135.586 3.32222 2.87272 0
M  V30 1450 H 136.192 4.0304 1.35789 0
M  V30 1451 N 134.507 -0.190092 1.56449 0
M  V30 1452 C 135.47 -1.21925 1.9408 0
M  V30 1453 C 136.47 -1.38176 0.822431 0
M  V30 1454 O 137.66 -1.35903 1.08977 0
M  V30 1455 C 134.792 -2.58773 2.21922 0
M  V30 1456 H 135.985 -0.897464 2.86157 0
M  V30 1457 H 133.538 -0.43181 1.50217 0
M  V30 1458 H 134.273 -2.95998 1.32499 0
M  V30 1459 H 134.058 -2.48348 3.03424 0
M  V30 1460 H 135.548 -3.32978 2.52022 0
M  V30 1461 N 135.985 -1.50799 -0.457987 0
M  V30 1462 C 136.933 -1.71162 -1.575 0
M  V30 1463 C 137.927 -0.577592 -1.59249 0
M  V30 1464 O 139.133 -0.758443 -1.63241 0
M  V30 1465 H 135.508 -0.540468 -0.522875 0
M  V30 1466 H 137.479 -2.64837 -1.37492 0
M  V30 1467 C 136.228 -1.83496 -2.95338 0
M  V30 1468 H 135.551 -2.70153 -2.94716 0
M  V30 1469 H 136.991 -2.01765 -3.72917 0
M  V30 1470 C 135.45 -0.589694 -3.31699 0
M  V30 1471 O 135.98 0.265163 -4.00824 0
M  V30 1472 N 134.186 -0.439845 -2.87252 0
M  V30 1473 H 133.733 -1.13655 -2.31172 0
M  V30 1474 H 133.691 0.392159 -3.11945 0
M  V30 1475 N 137.463 0.71206 -1.40597 0
M  V30 1476 C 138.712 1.46754 -1.38369 0
M  V30 1477 C 139.025 1.95598 0.0097839 0
M  V30 1478 O 140.231 2.71059 0.154677 0
M  V30 1479 C 138.687 2.65289 -2.43207 0
M  V30 1480 C 138.295 2.23301 -3.88382 0
M  V30 1481 C 140.039 3.43008 -2.50091 0
M  V30 1482 C 137.946 3.38696 -4.84808 0
M  V30 1483 H 136.876 0.55118 -0.514506 0
M  V30 1484 H 139.527 0.774616 -1.66349 0
M  V30 1485 H 137.909 3.36769 -2.08332 0
M  V30 1486 H 139.083 1.59218 -4.32419 0
M  V30 1487 H 137.398 1.58618 -3.85006 0
M  V30 1488 H 139.995 4.28881 -3.1932 0
M  V30 1489 H 140.338 3.87065 -1.53253 0
M  V30 1490 H 140.871 2.78574 -2.83974 0
M  V30 1491 H 137.61 2.99668 -5.82992 0
M  V30 1492 H 137.13 4.01683 -4.45433 0
M  V30 1493 H 138.809 4.04712 -5.04794 0
M  V30 1494 N 138.941 1.26152 0.944643 0
M  V30 1495 C 139.871 1.09902 2.06019 0
M  V30 1496 C 140.852 0.00519538 1.70099 0
M  V30 1497 O 142.037 0.176583 1.93396 0
M  V30 1498 C 139.167 0.727562 3.39594 0
M  V30 1499 C 138.121 1.77274 3.89561 0
M  V30 1500 C 137.447 1.25569 5.19747 0
M  V30 1501 C 138.747 3.17357 4.14827 0
M  V30 1502 H 140.441 2.03217 2.19871 0
M  V30 1503 H 137.987 0.978452 1.05652 0
M  V30 1504 H 139.94 0.600777 4.17095 0
M  V30 1505 H 138.664 -0.241287 3.25707 0
M  V30 1506 H 137.323 1.88814 3.14237 0
M  V30 1507 H 136.971 0.276783 5.02238 0
M  V30 1508 H 136.671 1.95433 5.54148 0
M  V30 1509 H 138.195 1.1415 5.99835 0
M  V30 1510 H 139.609 3.08914 4.82954 0
M  V30 1511 H 138.006 3.84781 4.60504 0
M  V30 1512 H 139.076 3.63673 3.20734 0
M  V30 1513 N 140.419 -1.14872 1.07899 0
M  V30 1514 C 141.667 -1.85422 0.803941 0
M  V30 1515 C 141.988 -1.83051 -0.67211 0
M  V30 1516 O 141.258 -1.27532 -1.48703 0
M  V30 1517 H 139.838 -0.686537 0.294408 0
M  V30 1518 H 142.5 -1.39226 1.3639 0
M  V30 1519 H 141.596 -2.90399 1.14346 0
M  V30 1520 N 141.898 -0.863906 -1.31812 0
M  V30 1521 C 142.83 -0.272485 -2.27575 0
M  V30 1522 C 143.843 0.56104 -1.52827 0
M  V30 1523 O 145.032 0.384021 -1.7432 0
M  V30 1524 C 142.132 0.63283 -3.32939 0
M  V30 1525 C 141.305 -0.166902 -4.37081 0
M  V30 1526 C 140.364 0.665608 -5.21973 0
M  V30 1527 O 139.39 0.0958091 -5.69119 0
M  V30 1528 N 140.592 1.9787 -5.45736 0
M  V30 1529 H 143.357 -1.0954 -2.78964 0
M  V30 1530 H 140.918 -0.724791 -1.4477 0
M  V30 1531 H 142.91 1.19532 -3.86645 0
M  V30 1532 H 141.48 1.35642 -2.81638 0
M  V30 1533 H 140.7 -0.910838 -3.83533 0
M  V30 1534 H 141.988 -0.715874 -5.03739 0
M  V30 1535 H 141.386 2.46484 -5.09178 0
M  V30 1536 H 139.943 2.48911 -6.024 0
M  V30 1537 N 143.376 1.44774 -0.622745 0
M  V30 1538 C 144.604 2.06487 -0.130722 0
M  V30 1539 C 145.019 1.46476 1.19123 0
M  V30 1540 O 144.376 0.584502 1.72887 0
M  V30 1541 C 144.427 3.615 -0.000807207 0
M  V30 1542 O 144.148 4.19274 -1.27048 0
M  V30 1543 C 145.649 4.40229 0.520898 0
M  V30 1544 H 142.869 0.666704 -0.0758106 0
M  V30 1545 H 145.413 1.85779 -0.854774 0
M  V30 1546 H 143.568 3.81498 0.673643 0
M  V30 1547 H 143.982 5.12622 -1.1099 0
M  V30 1548 H 145.456 5.49144 0.560838 0
M  V30 1549 H 145.933 4.1108 1.54627 0
M  V30 1550 H 146.539 4.25131 -0.120018 0
M  V30 1551 N 144.854 0.36279 1.53368 0
M  V30 1552 C 145.817 -0.472679 2.24273 0
M  V30 1553 C 146.817 -1.012 1.24961 0
M  V30 1554 O 148.007 -0.898194 1.49259 0
M  V30 1555 C 145.139 -1.66039 2.97731 0
M  V30 1556 H 146.332 0.14773 2.99536 0
M  V30 1557 H 143.885 0.114434 1.55881 0
M  V30 1558 H 144.62 -2.31896 2.26704 0
M  V30 1559 H 144.405 -1.28066 3.70596 0
M  V30 1560 H 145.895 -2.25252 3.51641 0
M  V30 1561 N 146.332 -1.57332 0.0918853 0
M  V30 1562 C 147.28 -2.15075 -0.885747 0
M  V30 1563 C 148.274 -1.09277 -1.29441 0
M  V30 1564 O 149.48 -1.27627 -1.26931 0
M  V30 1565 H 145.855 -0.687966 -0.303656 0
M  V30 1566 H 147.826 -2.96047 -0.373995 0
M  V30 1567 C 146.575 -2.74325 -2.13638 0
M  V30 1568 H 145.898 -3.55418 -1.8308 0
M  V30 1569 H 147.338 -3.183 -2.80109 0
M  V30 1570 C 145.797 -1.70062 -2.90827 0
M  V30 1571 O 146.327 -1.13763 -3.85254 0
M  V30 1572 N 144.533 -1.40628 -2.54307 0
M  V30 1573 H 144.08 -1.866 -1.7759 0
M  V30 1574 H 144.038 -0.711043 -3.06254 0
M  V30 1575 N 147.81 0.181792 -1.56548 0
M  V30 1576 C 149.058 0.89832 -1.81038 0
M  V30 1577 C 149.379 1.83232 -0.667164 0
M  V30 1578 O 148.649 1.93372 0.313673 0
M  V30 1579 H 147.229 0.33471 -0.667816 0
M  V30 1580 H 149.891 0.184116 -1.94028 0
M  V30 1581 H 148.987 1.4815 -2.74696 0
M  V30 1582 N 149.288 1.51039 0.449983 0
M  V30 1583 C 150.534 1.63322 1.20223 0
M  V30 1584 C 150.867 0.34241 1.91158 0
M  V30 1585 O 150.142 -0.657344 1.83055 0
M  V30 1586 C 150.425 2.82801 2.22925 0
M  V30 1587 C 150.278 4.21823 1.56157 0
M  V30 1588 C 151.597 2.97807 3.24035 0
M  V30 1589 H 148.716 0.594407 0.435718 0
M  V30 1590 H 151.358 1.83489 0.493136 0
M  V30 1591 H 149.508 2.65738 2.834 0
M  V30 1592 H 151.18 4.50526 0.991162 0
M  V30 1593 H 149.423 4.25105 0.864172 0
M  V30 1594 H 150.094 5.01391 2.30891 0
M  V30 1595 H 152.57 3.13497 2.73603 0
M  V30 1596 H 151.446 3.82992 3.93202 0
M  V30 1597 H 151.707 2.09328 3.89402 0
M  V30 1598 N 150.766 -0.704594 1.40972 0
M  V30 1599 C 151.729 -1.80035 1.41845 0
M  V30 1600 C 152.729 -1.57774 0.310474 0
M  V30 1601 O 153.919 -1.64613 0.56992 0
M  V30 1602 C 151.051 -3.18284 1.22098 0
M  V30 1603 H 152.244 -1.80658 2.3938 0
M  V30 1604 H 149.797 -0.911329 1.26982 0
M  V30 1605 H 150.532 -3.23306 0.253672 0
M  V30 1606 H 150.317 -3.35843 2.02366 0
M  V30 1607 H 151.807 -3.98289 1.25522 0
M  V30 1608 N 152.244 -1.26651 -0.937939 0
M  V30 1609 C 153.177 -1.02811 -2.03728 0
M  V30 1610 C 154.155 0.0481915 -1.62529 0
M  V30 1611 O 155.339 -0.0948839 -1.88261 0
M  V30 1612 C 152.466 -0.557517 -3.3408 0
M  V30 1613 C 151.512 -1.62686 -3.94253 0
M  V30 1614 S 152.345 -3.21667 -4.28125 0
M  V30 1615 C 153.501 -2.76384 -5.61572 0
M  V30 1616 H 153.734 -1.95891 -2.23638 0
M  V30 1617 H 151.267 -1.10367 -1.07974 0
M  V30 1618 H 153.225 -0.292674 -4.09455 0
M  V30 1619 H 151.886 0.353062 -3.12109 0
M  V30 1620 H 151.079 -1.24866 -4.88287 0
M  V30 1621 H 150.681 -1.84324 -3.25424 0
M  V30 1622 H 152.973 -2.2105 -6.40424 0
M  V30 1623 H 153.916 -3.69123 -6.0428 0
M  V30 1624 H 154.324 -2.15847 -5.21604 0
M  V30 1625 N 153.722 1.14298 -1.08507 0
M  V30 1626 C 154.67 2.21483 -0.710483 0
M  V30 1627 C 155.664 1.66998 0.284234 0
M  V30 1628 O 156.87 1.79401 0.146692 0
M  V30 1629 H 153.245 0.721578 -0.211729 0
M  V30 1630 H 155.216 2.50348 -1.62384 0
M  V30 1631 C 153.965 3.4743 -0.137007 0
M  V30 1632 H 153.288 3.89686 -0.893592 0
M  V30 1633 H 154.728 4.2391 0.0872789 0
M  V30 1634 C 153.187 3.17548 1.12538 0
M  V30 1635 O 153.717 3.35437 2.21009 0
M  V30 1636 N 151.923 2.71499 1.03617 0
M  V30 1637 H 151.47 2.57143 0.153403 0
M  V30 1638 H 151.428 2.51881 1.88158 0
M  V30 1639 N 155.201 0.870884 1.31352 0
M  V30 1640 C 156.131 0.343096 2.30966 0
M  V30 1641 C 157.112 -0.566507 1.60389 0
M  V30 1642 O 158.297 -0.483336 1.88089 0
M  V30 1643 C 155.427 -0.455487 3.443 0
M  V30 1644 C 154.381 0.361103 4.26474 0
M  V30 1645 C 153.707 -0.563221 5.31725 0
M  V30 1646 C 155.007 1.59566 4.97329 0
M  V30 1647 H 156.701 1.17548 2.75359 0
M  V30 1648 H 154.247 0.566686 1.32381 0
M  V30 1649 H 156.2 -0.83525 4.13039 0
M  V30 1650 H 154.924 -1.32139 2.98675 0
M  V30 1651 H 153.583 0.722825 3.59403 0
M  V30 1652 H 153.231 -1.42643 4.82351 0
M  V30 1653 H 152.931 -0.0207409 5.87596 0
M  V30 1654 H 154.455 -0.939808 6.03324 0
M  V30 1655 H 155.869 1.28728 5.58661 0
M  V30 1656 H 154.266 2.07728 5.63 0
M  V30 1657 H 155.336 2.34798 4.24262 0
M  V30 1658 N 156.679 -1.44442 0.630414 0
M  V30 1659 C 157.925 -2.02351 0.134816 0
M  V30 1660 C 158.258 -1.4947 -1.23986 0
M  V30 1661 O 157.533 -0.678475 -1.82283 0
M  V30 1662 C 157.816 -3.59898 0.120707 0
M  V30 1663 C 157.669 -4.23063 1.52767 0
M  V30 1664 C 158.988 -4.36585 -0.555127 0
M  V30 1665 H 156.107 -0.73527 0.0504646 0
M  V30 1666 H 158.749 -1.72022 0.806751 0
M  V30 1667 H 156.899 -3.85868 -0.451477 0
M  V30 1668 H 158.571 -4.08202 2.14869 0
M  V30 1669 H 156.814 -3.80586 2.08175 0
M  V30 1670 H 157.485 -5.32071 1.46984 0
M  V30 1671 H 159.961 -4.16044 -0.0685429 0
M  V30 1672 H 158.837 -5.46294 -0.534185 0
M  V30 1673 H 159.098 -4.11138 -1.62535 0
M  V30 1674 N 158.157 -0.370918 -1.53173 0
M  V30 1675 C 159.12 0.460778 -2.24521 0
M  V30 1676 C 160.12 1.00536 -1.25496 0
M  V30 1677 O 161.31 0.890266 -1.49733 0
M  V30 1678 C 158.442 1.64457 -2.98608 0
M  V30 1679 H 159.635 -0.163613 -2.99453 0
M  V30 1680 H 157.188 -0.122699 -1.55818 0
M  V30 1681 H 157.923 2.30691 -2.2793 0
M  V30 1682 H 157.708 1.26099 -3.7127 0
M  V30 1683 H 159.198 2.23384 -3.5283 0
M  V30 1684 N 159.635 1.57281 -0.100228 0
M  V30 1685 C 160.863 1.98879 0.570509 0
M  V30 1686 C 161.278 0.979476 1.61405 0
M  V30 1687 O 160.635 -0.0302288 1.82475 0
M  V30 1688 C 160.686 3.4052 1.2136 0
M  V30 1689 O 160.407 4.37588 0.211786 0
M  V30 1690 C 161.908 3.97149 1.96945 0
M  V30 1691 H 159.128 0.653428 0.152555 0
M  V30 1692 H 161.672 2.03697 -0.18103 0
M  V30 1693 H 159.827 3.367 1.91603 0
M  V30 1694 H 160.241 5.20118 0.676607 0
M  V30 1695 H 161.715 4.98393 2.37294 0
M  V30 1696 H 162.192 3.3525 2.83733 0
M  V30 1697 H 162.798 4.04458 1.31506 0
M  V30 1698 N 161.113 -0.173488 1.56642 0
M  V30 1699 C 162.341 -0.906095 1.86004 0
M  V30 1700 C 162.756 -1.75921 0.685355 0
M  V30 1701 O 162.113 -1.79198 -0.345578 0
M  V30 1702 C 162.164 -1.78462 3.14378 0
M  V30 1703 O 161.885 -0.965914 4.27319 0
M  V30 1704 C 163.386 -2.62707 3.57071 0
M  V30 1705 H 160.606 -0.263341 0.617165 0
M  V30 1706 H 163.15 -0.174236 2.03756 0
M  V30 1707 H 161.305 -2.46984 2.98459 0
M  V30 1708 H 161.719 -1.56655 5.00559 0
M  V30 1709 H 163.193 -3.19969 4.49804 0
M  V30 1710 H 163.67 -3.37472 2.81086 0
M  V30 1711 H 164.276 -1.99521 3.75595 0
M  V30 1712 N 162.591 -1.51276 -0.441967 0
M  V30 1713 C 163.837 -1.63958 -1.19355 0
M  V30 1714 C 164.17 -0.352543 -1.90973 0
M  V30 1715 O 163.445 0.647627 -1.83401 0
M  V30 1716 C 163.728 -2.83979 -2.21422 0
M  V30 1717 C 163.581 -4.22646 -1.53918 0
M  V30 1718 C 164.9 -2.99521 -3.22451 0
M  V30 1719 H 162.019 -0.596709 -0.432559 0
M  V30 1720 H 164.661 -1.83748 -0.483398 0
M  V30 1721 H 162.811 -2.67237 -2.81987 0
M  V30 1722 H 164.483 -4.51045 -0.967256 0
M  V30 1723 H 162.726 -4.25558 -0.841615 0
M  V30 1724 H 163.397 -5.02609 -2.28229 0
M  V30 1725 H 165.873 -3.14944 -2.71937 0
M  V30 1726 H 164.749 -3.85072 -3.91166 0
M  V30 1727 H 165.01 -2.11391 -3.88287 0
M  V30 1728 N 164.069 0.697108 -1.41344 0
M  V30 1729 C 164.999 1.82353 -1.45841 0
M  V30 1730 C 165.98 1.67115 -0.317247 0
M  V30 1731 O 167.165 1.86871 -0.528474 0
M  V30 1732 C 164.295 3.20476 -1.33838 0
M  V30 1733 C 163.249 3.50415 -2.4575 0
M  V30 1734 C 162.575 4.87878 -2.18813 0
M  V30 1735 C 163.875 3.49546 -3.88091 0
M  V30 1736 H 165.569 1.78846 -2.40113 0
M  V30 1737 H 163.115 0.859028 -1.15571 0
M  V30 1738 H 165.068 3.98988 -1.35596 0
M  V30 1739 H 163.792 3.24604 -0.360498 0
M  V30 1740 H 162.451 2.74253 -2.43271 0
M  V30 1741 H 162.099 4.8863 -1.19371 0
M  V30 1742 H 161.799 5.08875 -2.93803 0
M  V30 1743 H 163.323 5.68702 -2.22284 0
M  V30 1744 H 164.737 4.18066 -3.92293 0
M  V30 1745 H 163.134 3.82075 -4.62751 0
M  V30 1746 H 164.204 2.48552 -4.16353 0
M  V30 1747 N 165.547 1.27147 0.931209 0
M  V30 1748 C 166.51 1.09615 2.01289 0
M  V30 1749 C 167.51 0.0412581 1.60747 0
M  V30 1750 O 168.7 0.285545 1.71844 0
M  V30 1751 C 165.832 0.669447 3.34262 0
M  V30 1752 H 167.025 2.05662 2.18273 0
M  V30 1753 H 164.578 1.09885 1.11153 0
M  V30 1754 H 165.313 -0.292572 3.22978 0
M  V30 1755 H 165.098 1.43127 3.65044 0
M  V30 1756 H 166.588 0.568921 4.13706 0
M  V30 1757 N 167.025 -1.13721 1.09112 0
M  V30 1758 C 167.975 -2.17082 0.697091 0
M  V30 1759 C 168.959 -1.58321 -0.286923 0
M  V30 1760 O 170.151 -1.7673 -0.0978008 0
M  V30 1761 C 167.28 -3.43105 0.115729 0
M  V30 1762 C 166.366 -4.0888 1.12596 0
M  V30 1763 N 166.757 -4.4987 2.31195 0
M  V30 1764 C 165.055 -4.35471 0.963366 0
M  V30 1765 C 165.756 -5.01094 2.95431 0
M  V30 1766 N 164.732 -4.95751 2.23006 0
M  V30 1767 H 168.534 -2.46524 1.6001 0
M  V30 1768 H 166.048 -1.30481 0.966869 0
M  V30 1769 H 168.045 -4.16491 -0.184555 0
M  V30 1770 H 166.705 -3.15138 -0.78217 0
M  V30 1771 H 167.716 -4.42678 2.68806 0
M  V30 1772 H 164.393 -4.17328 0.119878 0
M  V30 1773 H 165.783 -5.4263 3.96236 0
M  V30 1774 N 168.503 -0.877838 -1.30888 0
M  V30 1775 C 169.914 -0.544193 -1.78593 0
M  V30 1776 C 170.265 0.939301 -1.72254 0
M  V30 1777 O 169.39 1.7337 -1.29505 0
M  V30 1778 C 169.985 -0.98105 -3.24285 0
M  V30 1779 C 168.544 -0.698935 -3.69854 0
M  V30 1780 C 167.691 -1.168 -2.51502 0
M  V30 1781 H 170.642 -1.06278 -1.17859 0
M  V30 1782 H 170.663 -0.307009 -3.79259 0
M  V30 1783 H 170.175 -2.06079 -3.28866 0
M  V30 1784 H 168.276 0.369112 -3.70767 0
M  V30 1785 H 168.389 -1.28148 -4.61644 0
M  V30 1786 H 166.753 -0.587535 -2.47831 0
M  V30 1787 H 167.536 -2.25533 -2.58824 0
M  V30 1788 N 169.982 1.44106 -0.638065 0
M  V30 1789 C 170.932 2.27843 0.0847285 0
M  V30 1790 C 171.916 1.39055 0.809471 0
M  V30 1791 O 173.108 1.62808 0.694435 0
M  V30 1792 C 170.237 3.26497 1.06089 0
M  V30 1793 C 169.323 4.22772 0.33541 0
M  V30 1794 N 169.714 5.01737 -0.639787 0
M  V30 1795 C 168.012 4.42227 0.578921 0
M  V30 1796 C 168.713 5.71792 -1.06904 0
M  V30 1797 N 167.689 5.42079 -0.406395 0
M  V30 1798 H 171.491 2.86305 -0.663814 0
M  V30 1799 H 169.005 1.55627 -0.464122 0
M  V30 1800 H 171.002 3.8525 1.59337 0
M  V30 1801 H 169.662 2.69595 1.80966 0
M  V30 1802 H 170.673 5.07799 -1.01789 0
M  V30 1803 H 167.35 3.96415 1.31003 0
M  V30 1804 H 168.74 6.45205 -1.8751 0
M  V30 1805 N 171.46 0.379036 1.52974 0
M  V30 1806 C 172.408 -0.476033 2.27677 0
M  V30 1807 C 173.402 -1.0719 1.31174 0
M  V30 1808 O 174.608 -1.01355 1.48752 0
M  V30 1809 H 170.983 -0.172255 0.732006 0
M  V30 1810 H 172.954 0.175615 2.97883 0
M  V30 1811 C 171.703 -1.5967 3.0887 0
M  V30 1812 H 171.026 -1.1475 3.82978 0
M  V30 1813 H 172.466 -2.16943 3.64296 0
M  V30 1814 C 170.925 -2.54682 2.20542 0
M  V30 1815 O 171.455 -3.57836 1.82527 0
M  V30 1816 N 169.661 -2.24183 1.84907 0
M  V30 1817 H 169.208 -1.40333 2.1602 0
M  V30 1818 H 169.166 -2.88006 1.26096 0
M  V30 1819 N 172.938 -1.57226 0.108567 0
M  V30 1820 C 174.166 -1.99179 -0.559954 0
M  V30 1821 C 174.581 -0.988022 -1.60884 0
M  V30 1822 O 173.938 0.0205512 -1.82488 0
M  V30 1823 C 173.989 -3.41159 -1.19552 0
M  V30 1824 O 173.71 -4.37694 -0.188577 0
M  V30 1825 C 175.211 -3.98188 -1.94837 0
M  V30 1826 H 172.431 -0.654228 -0.149088 0
M  V30 1827 H 174.975 -2.03598 0.19183 0
M  V30 1828 H 173.13 -3.37711 -1.89815 0
M  V30 1829 H 173.544 -5.20469 -0.649014 0
M  V30 1830 H 175.018 -4.99644 -2.34648 0
M  V30 1831 H 175.495 -3.3675 -2.81951 0
M  V30 1832 H 176.101 -4.0515 -1.2936 0
M  V30 1833 N 174.416 0.165178 -1.56732 0
M  V30 1834 C 175.665 0.879143 -1.81532 0
M  V30 1835 C 175.978 1.83144 -0.686842 0
M  V30 1836 O 177.184 2.58823 -0.819944 0
M  V30 1837 C 175.64 1.61388 -3.21686 0
M  V30 1838 C 175.248 0.704904 -4.4242 0
M  V30 1839 C 176.992 2.3157 -3.55774 0
M  V30 1840 C 174.899 1.44022 -5.73595 0
M  V30 1841 H 173.829 0.332033 -0.676957 0
M  V30 1842 H 176.48 0.132008 -1.83025 0
M  V30 1843 H 174.862 2.40599 -3.14529 0
M  V30 1844 H 176.036 -0.0506815 -4.60772 0
M  V30 1845 H 174.351 0.112419 -4.16248 0
M  V30 1846 H 176.948 2.8719 -4.51028 0
M  V30 1847 H 177.291 3.07201 -2.8095 0
M  V30 1848 H 177.824 1.59297 -3.64513 0
M  V30 1849 H 174.563 0.72612 -6.51466 0
M  V30 1850 H 174.083 2.16898 -5.5921 0
M  V30 1851 H 175.762 1.98606 -6.15764 0
M  V30 1852 N 175.894 1.51508 0.433938 0
M  V30 1853 C 177.141 1.64345 1.18309 0
M  V30 1854 C 177.469 0.361315 1.91115 0
M  V30 1855 O 176.724 -0.654753 1.84422 0
M  V30 1856 C 177.023 2.79928 2.22205 0
M  V30 1857 C 176.689 4.19078 1.66387 0
M  V30 1858 C 175.351 4.56932 1.50887 0
M  V30 1859 C 177.703 5.05894 1.25381 0
M  V30 1860 C 175.031 5.79305 0.928608 0
M  V30 1861 C 177.383 6.2885 0.687823 0
M  V30 1862 C 176.047 6.65473 0.519755 0
M  V30 1863 H 175.317 0.601381 0.432923 0
M  V30 1864 H 177.964 1.85549 0.473676 0
M  V30 1865 H 176.269 2.52959 2.99197 0
M  V30 1866 H 177.966 2.87059 2.79997 0
M  V30 1867 H 174.556 3.89234 1.79428 0
M  V30 1868 H 178.74 4.77253 1.36175 0
M  V30 1869 H 173.996 6.06324 0.786186 0
M  V30 1870 H 178.17 6.95461 0.361581 0
M  V30 1871 H 175.797 7.6017 0.0679979 0
M  V30 1872 N 177.372 -0.689602 1.41712 0
M  V30 1873 C 178.619 -1.44966 1.4139 0
M  V30 1874 C 178.947 -1.94484 0.025105 0
M  V30 1875 O 178.202 -1.70307 -0.964048 0
M  V30 1876 C 178.501 -2.67298 2.37247 0
M  V30 1877 C 178.167 -2.36405 3.83958 0
M  V30 1878 C 176.829 -2.27691 4.23923 0
M  V30 1879 C 179.181 -2.11043 4.76561 0
M  V30 1880 C 176.509 -1.91719 5.54492 0
M  V30 1881 C 178.861 -1.76578 6.07456 0
M  V30 1882 C 177.525 -1.66363 6.46436 0
M  V30 1883 H 176.795 -0.53047 0.517381 0
M  V30 1884 H 179.442 -0.787655 1.74552 0
M  V30 1885 H 177.747 -3.38461 1.9736 0
M  V30 1886 H 179.444 -3.25452 2.34269 0
M  V30 1887 H 176.034 -2.44085 3.52308 0
M  V30 1888 H 180.218 -2.16717 4.46483 0
M  V30 1889 H 175.474 -1.82367 5.83568 0
M  V30 1890 H 179.648 -1.55974 6.78708 0
M  V30 1891 H 177.275 -1.38258 7.47522 0
M  V30 1892 N 178.85 -1.27639 -0.924453 0
M  V30 1893 C 180.261 -1.12834 -1.48746 0
M  V30 1894 C 180.612 0.285505 -1.94112 0
M  V30 1895 O 179.737 1.17874 -1.81479 0
M  V30 1896 C 180.332 -2.04217 -2.70334 0
M  V30 1897 C 178.891 -1.93509 -3.22848 0
M  V30 1898 C 178.038 -1.96583 -1.95577 0
M  V30 1899 H 180.989 -1.40484 -0.738233 0
M  V30 1900 H 181.01 -1.59989 -3.4523 0
M  V30 1901 H 180.522 -3.07111 -2.37285 0
M  V30 1902 H 178.623 -0.936131 -3.60649 0
M  V30 1903 H 178.736 -2.79917 -3.88823 0
M  V30 1904 H 177.1 -1.4085 -2.12211 0
M  V30 1905 H 177.883 -3.01137 -1.64837 0
M  V30 1906 N 180.328 1.1314 -1.09713 0
M  V30 1907 C 181.276 2.20717 -0.733934 0
M  V30 1908 C 182.27 1.6729 0.266506 0
M  V30 1909 O 183.476 1.79547 0.127656 0
M  V30 1910 H 179.851 0.719292 -0.21937 0
M  V30 1911 H 181.822 2.48611 -1.6503 0
M  V30 1912 C 180.571 3.47265 -0.173849 0
M  V30 1913 H 179.894 3.88716 -0.934873 0
M  V30 1914 H 181.334 4.23979 0.0423126 0
M  V30 1915 C 179.793 3.18724 1.09164 0
M  V30 1916 O 180.323 3.37762 2.17439 0
M  V30 1917 N 178.529 2.72583 1.00732 0
M  V30 1918 H 178.076 2.57291 0.126121 0
M  V30 1919 H 178.034 2.53862 1.85476 0
M  V30 1920 N 181.806 0.884767 1.30421 0
M  V30 1921 C 182.739 0.295999 2.26272 0
M  V30 1922 C 183.717 -0.58332 1.51777 0
M  V30 1923 O 184.901 -0.53346 1.80794 0
M  V30 1924 C 182.028 -0.57944 3.33707 0
M  V30 1925 C 181.074 0.230525 4.25877 0
M  V30 1926 S 181.907 1.61867 5.1045 0
M  V30 1927 C 183.063 0.749756 6.21393 0
M  V30 1928 H 183.296 1.10848 2.75862 0
M  V30 1929 H 180.829 0.684178 1.38414 0
M  V30 1930 H 182.787 -1.07879 3.96071 0
M  V30 1931 H 181.448 -1.36601 2.82841 0
M  V30 1932 H 180.641 -0.437542 5.02097 0
M  V30 1933 H 180.243 0.662493 3.68086 0
M  V30 1934 H 182.535 -0.0333547 6.77492 0
M  V30 1935 H 183.478 1.48356 6.92384 0
M  V30 1936 H 183.886 0.310751 5.63644 0
M  V30 1937 N 183.284 -1.43765 0.645699 0
M  V30 1938 C 184.232 -2.32516 -0.0624849 0
M  V30 1939 C 185.226 -1.48183 -0.820855 0
M  V30 1940 O 186.432 -1.64439 -0.732106 0
M  V30 1941 H 182.807 -0.750989 -0.0389864 0
M  V30 1942 H 184.778 -2.89979 0.703892 0
M  V30 1943 C 183.527 -3.32389 -1.02044 0
M  V30 1944 H 182.85 -3.97301 -0.446312 0
M  V30 1945 H 184.29 -3.97138 -1.48517 0
M  V30 1946 C 182.749 -2.62416 -2.11281 0
M  V30 1947 O 183.279 -2.434 -3.19561 0
M  V30 1948 N 181.485 -2.21913 -1.87624 0
M  V30 1949 H 181.032 -2.37578 -0.995703 0
M  V30 1950 H 180.99 -1.75424 -2.6091 0
M  V30 1951 N 184.763 -0.387143 -1.52771 0
M  V30 1952 C 186.04 0.253197 -1.93954 0
M  V30 1953 C 186.42 1.64545 -1.32243 0
M  V30 1954 O 185.768 2.23191 -0.489699 0
M  V30 1955 C 185.978 0.281722 -3.47861 0
M  V30 1956 C 187.326 0.511715 -4.21505 0
M  V30 1957 O 188.35 0.362023 -3.54356 0
M  V30 1958 O 187.209 0.804847 -5.40541 0
M  V30 1959 H 184.303 0.156845 -0.811991 0
M  V30 1960 H 186.849 -0.441494 -1.63856 0
M  V30 1961 H 185.621 -0.693571 -3.85104 0
M  V30 1962 H 185.244 1.02142 -3.84256 0
M  V30 1963 N 186.241 1.57166 -0.116904 0
M  V30 1964 C 187.171 2.18222 0.830759 0
M  V30 1965 C 188.152 1.12167 1.27877 0
M  V30 1966 O 189.337 1.40394 1.34176 0
M  V30 1967 C 186.467 2.77996 2.08172 0
M  V30 1968 C 185.421 3.89614 1.77157 0
M  V30 1969 C 184.747 4.36187 3.09265 0
M  V30 1970 C 186.047 5.1181 1.04151 0
M  V30 1971 H 187.741 2.97664 0.321992 0
M  V30 1972 H 185.287 1.4318 0.153434 0
M  V30 1973 H 187.24 3.19366 2.74924 0
M  V30 1974 H 185.964 1.9584 2.6137 0
M  V30 1975 H 184.623 3.48816 1.12796 0
M  V30 1976 H 184.271 3.50893 3.60393 0
M  V30 1977 H 183.971 5.11455 2.89288 0
M  V30 1978 H 185.495 4.80207 3.77139 0
M  V30 1979 H 186.909 5.50214 1.61052 0
M  V30 1980 H 185.306 5.92648 0.942762 0
M  V30 1981 H 186.376 4.84892 0.0279022 0
M  V30 1982 N 187.719 -0.156864 1.56817 0
M  V30 1983 C 188.652 -1.22316 1.9265 0
M  V30 1984 C 189.63 -1.42059 0.791076 0
M  V30 1985 O 190.814 -1.56831 1.04576 0
M  V30 1986 C 187.941 -2.58375 2.18998 0
M  V30 1987 C 186.987 -2.55284 3.41661 0
M  V30 1988 S 187.82 -2.02946 4.95553 0
M  V30 1989 C 188.976 -3.40753 5.25013 0
M  V30 1990 H 189.209 -0.917403 2.82791 0
M  V30 1991 H 186.742 -0.362059 1.50095 0
M  V30 1992 H 188.7 -3.36677 2.34859 0
M  V30 1993 H 187.361 -2.86145 1.29538 0
M  V30 1994 H 186.554 -3.55418 3.57343 0
M  V30 1995 H 186.156 -1.85086 3.24991 0
M  V30 1996 H 188.448 -4.36819 5.17876 0
M  V30 1997 H 189.391 -3.29933 6.26538 0
M  V30 1998 H 189.799 -3.37433 4.52548 0
M  V30 1999 N 189.197 -1.51736 -0.425897 0
M  V30 2000 C 190.443 -1.66174 -1.17294 0
M  V30 2001 C 190.798 -0.37876 -1.88635 0
M  V30 2002 O 190.091 0.626021 -1.81084 0
M  V30 2003 C 190.285 -2.81103 -2.20717 0
M  V30 2004 C 190.114 -4.20453 -1.59529 0
M  V30 2005 C 188.884 -4.86225 -1.37525 0
M  V30 2006 C 191.082 -5.03146 -1.06528 0
M  V30 2007 N 189.064 -6.09657 -0.720537 0
M  V30 2008 C 190.435 -6.17674 -0.536506 0
M  V30 2009 C 192.49 -4.88594 -0.958127 0
M  V30 2010 C 191.193 -7.19245 0.0888917 0
M  V30 2011 C 193.219 -5.90383 -0.346608 0
M  V30 2012 C 192.581 -7.04191 0.171564 0
M  V30 2013 H 188.68 -0.661871 -0.416475 0
M  V30 2014 H 191.264 -1.88997 -0.467801 0
M  V30 2015 H 189.435 -2.59924 -2.88607 0
M  V30 2016 H 191.167 -2.84662 -2.87663 0
M  V30 2017 H 187.922 -4.44293 -1.64015 0
M  V30 2018 H 188.346 -6.75756 -0.410292 0
M  V30 2019 H 192.988 -4.0085 -1.34459 0
M  V30 2020 H 190.706 -8.06628 0.48746 0
M  V30 2021 H 194.292 -5.81194 -0.265451 0
M  V30 2022 H 193.172 -7.81606 0.637309 0
M  V30 2023 N 190.675 0.682077 -1.42076 0
M  V30 2024 C 191.623 1.81707 -1.45208 0
M  V30 2025 C 192.617 1.66183 -0.328591 0
M  V30 2026 O 193.823 1.7288 -0.501264 0
M  V30 2027 H 190.198 0.599014 -0.454628 0
M  V30 2028 H 192.169 1.76183 -2.40836 0
M  V30 2029 C 190.918 3.19816 -1.36428 0
M  V30 2030 H 190.241 3.32385 -2.22171 0
M  V30 2031 H 191.681 3.99272 -1.42681 0
M  V30 2032 C 190.14 3.36809 -0.078191 0
M  V30 2033 O 190.67 3.92124 0.87188 0
M  V30 2034 N 188.876 2.906 0.00229266 0
M  V30 2035 H 188.423 2.45772 -0.771616 0
M  V30 2036 H 188.381 3.02347 0.862179 0
M  V30 2037 N 192.153 1.28127 0.917671 0
M  V30 2038 C 193.1 1.11717 2.0196 0
M  V30 2039 C 194.07 0.0153929 1.66093 0
M  V30 2040 O 195.255 0.179596 1.89953 0
M  V30 2041 C 192.395 0.780927 3.36148 0
M  V30 2042 C 191.508 1.96135 3.84909 0
M  V30 2043 C 190.643 1.56609 5.0759 0
M  V30 2044 C 189.682 2.71339 5.48673 0
M  V30 2045 N 188.819 2.32332 6.62545 0
M  V30 2046 H 193.659 2.06003 2.15329 0
M  V30 2047 H 191.196 1.02535 1.05475 0
M  V30 2048 H 193.154 0.56675 4.13333 0
M  V30 2049 H 191.784 -0.124998 3.22558 0
M  V30 2050 H 190.836 2.28777 3.03916 0
M  V30 2051 H 192.148 2.82165 4.1132 0
M  V30 2052 H 191.302 1.31374 5.92305 0
M  V30 2053 H 190.041 0.677014 4.82978 0
M  V30 2054 H 189.046 2.97276 4.62501 0
M  V30 2055 H 190.271 3.60882 5.75274 0
M  V30 2056 H 188.217 1.45889 6.39572 0
M  V30 2057 H 188.134 3.11899 6.88662 0
M  V30 2058 H 189.402 2.10371 7.50576 0
M  V30 2059 N 193.631 -1.12557 1.10312 0
M  V30 2060 C 194.859 -1.87864 0.866873 0
M  V30 2061 C 195.274 -1.79588 -0.582557 0
M  V30 2062 O 194.631 -1.16887 -1.40156 0
M  V30 2063 C 194.682 -3.37125 1.30496 0
M  V30 2064 O 194.403 -3.45201 2.69755 0
M  V30 2065 C 195.904 -4.29373 1.10243 0
M  V30 2066 H 193.124 -0.594452 0.311236 0
M  V30 2067 H 195.668 -1.42429 1.46745 0
M  V30 2068 H 193.823 -3.80109 0.748081 0
M  V30 2069 H 194.237 -4.38056 2.88457 0
M  V30 2070 H 195.711 -5.32394 1.45811 0
M  V30 2071 H 196.188 -4.39181 0.0409492 0
M  V30 2072 H 196.794 -3.92169 1.64571 0
M  V30 2073 N 195.109 -0.891671 -1.2995 0
M  V30 2074 C 196.355 -0.514261 -1.96171 0
M  V30 2075 C 196.688 0.935506 -1.70182 0
M  V30 2076 O 195.963 1.66204 -1.01028 0
M  V30 2077 C 196.246 -0.797719 -3.51153 0
M  V30 2078 C 196.099 -2.2986 -3.86632 0
M  V30 2079 C 197.418 -0.278749 -4.39216 0
M  V30 2080 H 194.537 -0.188314 -0.712535 0
M  V30 2081 H 197.179 -1.11689 -1.53706 0
M  V30 2082 H 195.329 -0.284826 -3.87455 0
M  V30 2083 H 197.001 -2.88042 -3.60319 0
M  V30 2084 H 195.244 -2.76257 -3.34462 0
M  V30 2085 H 195.915 -2.44753 -4.94773 0
M  V30 2086 H 198.391 -0.717825 -4.09862 0
M  V30 2087 H 197.267 -0.506353 -5.46559 0
M  V30 2088 H 197.528 0.820266 -4.34424 0
M  V30 2089 N 196.587 1.43421 -0.653314 0
M  V30 2090 C 197.833 2.02111 -0.166992 0
M  V30 2091 C 198.166 1.51423 1.21592 0
M  V30 2092 O 197.441 0.707389 1.8118 0
M  V30 2093 C 197.724 3.5966 -0.177948 0
M  V30 2094 C 197.577 4.20579 -1.59478 0
M  V30 2095 C 198.896 4.37413 0.4856 0
M  V30 2096 H 196.015 0.734374 -0.0621557 0
M  V30 2097 H 198.657 1.70717 -0.834016 0
M  V30 2098 H 196.807 3.86537 0.390032 0
M  V30 2099 H 198.479 4.04732 -2.21336 0
M  V30 2100 H 196.722 3.77226 -2.14204 0
M  V30 2101 H 197.393 5.29665 -1.5543 0
M  V30 2102 H 199.869 4.161 0.00234528 0
M  V30 2103 H 198.745 5.47075 0.447207 0
M  V30 2104 H 199.006 4.13672 1.55974 0
M  V30 2105 N 198.065 0.39524 1.52563 0
M  V30 2106 C 199.29 -0.187456 2.06551 0
M  V30 2107 C 199.715 -1.39249 1.26457 0
M  V30 2108 O 199.073 -1.78947 0.291151 0
M  V30 2109 C 199.121 -0.529985 3.56684 0
M  V30 2110 O 198.225 -1.62307 3.79118 0
M  V30 2111 H 197.566 -0.0202537 0.663691 0
M  V30 2112 H 200.096 0.564426 1.96661 0
M  V30 2113 H 200.106 -0.792598 4.00227 0
M  V30 2114 H 198.781 0.350987 4.14416 0
M  V30 2115 H 197.358 -1.3537 3.47461 0
M  V30 2116 N 199.544 -1.57102 0.125237 0
M  V30 2117 C 200.96 -1.57915 -0.231322 0
M  V30 2118 C 201.16 -1.13833 -1.66266 0
M  V30 2119 O 200.216 -0.828581 -2.38518 0
M  V30 2120 C 201.529 -3.00699 0.00766489 0
M  V30 2121 C 203.077 -3.12947 -0.0577483 0
M  V30 2122 C 203.552 -4.57742 0.153626 0
M  V30 2123 N 205.043 -4.63092 0.0998073 0
M  V30 2124 C 205.778 -5.72905 0.238174 0
M  V30 2125 N 205.274 -6.91445 0.433057 0
M  V30 2126 N 207.067 -5.6182 0.177308 0
M  V30 2127 H 199.218 -1.84055 1.06007 0
M  V30 2128 H 201.481 -0.850905 0.417929 0
M  V30 2129 H 201.187 -3.3726 0.997431 0
M  V30 2130 H 201.061 -3.70236 -0.721452 0
M  V30 2131 H 203.448 -2.7624 -1.03804 0
M  V30 2132 H 203.529 -2.4594 0.70335 0
M  V30 2133 H 203.173 -4.95149 1.13092 0
M  V30 2134 H 203.103 -5.22848 -0.627534 0
M  V30 2135 H 205.594 -3.77871 -0.047051 0
M  V30 2136 H 205.907 -7.70985 0.529332 0
M  V30 2137 H 204.252 -6.93415 0.469109 0
M  V30 2138 H 207.443 -4.68093 0.0259748 0
M  V30 2139 H 207.616 -6.47357 0.288582 0
M  V30 2140 N 201.022 0.148545 -1.56898 0
M  V30 2141 C 201.97 1.20265 -1.99096 0
M  V30 2142 C 202.964 1.44559 -0.883123 0
M  V30 2143 O 204.17 1.4487 -1.0683 0
M  V30 2144 H 200.545 0.404786 -0.63376 0
M  V30 2145 H 202.516 0.82004 -2.86911 0
M  V30 2146 C 201.265 2.52886 -2.3863 0
M  V30 2147 H 200.588 2.35021 -3.23427 0
M  V30 2148 H 202.028 3.25274 -2.7198 0
M  V30 2149 C 200.487 3.13315 -1.23837 0
M  V30 2150 O 201.017 3.98077 -0.538268 0
M  V30 2151 N 199.223 2.72742 -1.00301 0
M  V30 2152 H 198.77 2.03912 -1.5741 0
M  V30 2153 H 198.728 3.13507 -0.236838 0
M  V30 2154 N 202.5 1.5196 0.417844 0
M  V30 2155 C 203.749 1.6482 1.16264 0
M  V30 2156 C 204.062 0.379886 1.91876 0
M  V30 2157 O 205.268 0.388154 2.68711 0
M  V30 2158 C 203.724 2.91161 2.1155 0
M  V30 2159 C 203.332 4.25068 1.41495 0
M  V30 2160 C 205.076 3.13383 2.86341 0
M  V30 2161 C 202.983 5.42541 2.35379 0
M  V30 2162 H 201.913 0.613954 0.437694 0
M  V30 2163 H 204.564 1.78442 0.427871 0
M  V30 2164 H 202.946 2.71218 2.88543 0
M  V30 2165 H 204.12 4.55463 0.699263 0
M  V30 2166 H 202.435 4.0888 0.787792 0
M  V30 2167 H 205.032 3.98324 3.5671 0
M  V30 2168 H 205.375 2.27256 3.48798 0
M  V30 2169 H 205.908 3.33757 2.1645 0
M  V30 2170 H 202.647 6.30987 1.77582 0
M  V30 2171 H 202.167 5.16497 3.04945 0
M  V30 2172 H 203.846 5.75272 2.96093 0
M  V30 2173 N 203.978 -0.674533 1.42435 0
M  V30 2174 C 204.888 -1.81751 1.48337 0
M  V30 2175 C 205.904 -1.69975 0.372099 0
M  V30 2176 O 207.08 -1.91521 0.62304 0
M  V30 2177 C 204.145 -3.17895 1.38361 0
M  V30 2178 C 203.206 -3.41625 2.59982 0
M  V30 2179 C 202.439 -4.71274 2.50473 0
M  V30 2180 O 202.662 -5.49197 1.54075 0
M  V30 2181 O 201.596 -4.96254 3.4061 0
M  V30 2182 H 205.422 -1.79728 2.44809 0
M  V30 2183 H 203.007 -0.830312 1.24202 0
M  V30 2184 H 204.889 -3.99136 1.35161 0
M  V30 2185 H 203.564 -3.20555 0.450144 0
M  V30 2186 H 202.471 -2.60231 2.68757 0
M  V30 2187 H 203.804 -3.43796 3.52229 0
M  V30 2188 N 205.456 -1.28612 -0.910864 0
M  V30 2189 C 206.388 -1.08589 -2.01844 0
M  V30 2190 C 207.401 -0.0367419 -1.62759 0
M  V30 2191 O 208.59 -0.280101 -1.76289 0
M  V30 2192 C 205.69 -0.628626 -3.33019 0
M  V30 2193 C 204.863 -1.75382 -4.00699 0
M  V30 2194 C 203.922 -1.28945 -5.10156 0
M  V30 2195 O 202.948 -1.9922 -5.33198 0
M  V30 2196 N 204.15 -0.154224 -5.80295 0
M  V30 2197 H 206.915 -2.03973 -2.19579 0
M  V30 2198 H 204.476 -1.20403 -1.08234 0
M  V30 2199 H 206.468 -0.301508 -4.03575 0
M  V30 2200 H 205.038 0.232451 -3.11735 0
M  V30 2201 H 204.258 -2.25039 -3.23653 0
M  V30 2202 H 205.546 -2.50854 -4.42662 0
M  V30 2203 H 204.944 0.43194 -5.64049 0
M  V30 2204 H 203.501 0.113599 -6.51701 0
M  V30 2205 N 206.934 1.1197 -1.10907 0
M  V30 2206 C 207.864 2.19928 -0.784473 0
M  V30 2207 C 208.845 1.6833 0.244726 0
M  V30 2208 O 210.03 1.93892 0.109418 0
M  V30 2209 C 207.16 3.46597 -0.220827 0
M  V30 2210 C 206.114 4.11376 -1.18127 0
M  V30 2211 C 205.44 5.32554 -0.478594 0
M  V30 2212 C 206.74 4.56945 -2.52979 0
M  V30 2213 H 208.434 2.47337 -1.68715 0
M  V30 2214 H 205.98 1.18879 -0.812642 0
M  V30 2215 H 207.933 4.21396 0.0184278 0
M  V30 2216 H 206.657 3.1863 0.717113 0
M  V30 2217 H 205.316 3.38564 -1.40606 0
M  V30 2218 H 204.964 5.00856 0.463976 0
M  V30 2219 H 204.664 5.76844 -1.11912 0
M  V30 2220 H 206.188 6.10096 -0.248 0
M  V30 2221 H 207.602 5.23093 -2.3462 0
M  V30 2222 H 205.999 5.1203 -3.12962 0
M  V30 2223 H 207.069 3.70676 -3.12614 0
M  V30 2224 N 208.412 0.89855 1.29475 0
M  V30 2225 C 209.828 0.594483 1.48115 0
M  V30 2226 C 210.028 -0.86431 1.82022 0
M  V30 2227 O 209.084 -1.64457 1.91599 0
M  V30 2228 C 210.397 1.51932 2.59494 0
M  V30 2229 C 211.945 1.5244 2.7337 0
M  V30 2230 C 212.42 2.43548 3.87877 0
M  V30 2231 N 213.911 2.41589 3.95208 0
M  V30 2232 C 214.646 3.08789 4.83153 0
M  V30 2233 N 214.142 3.85265 5.75798 0
M  V30 2234 N 215.935 2.97952 4.76635 0
M  V30 2235 H 208.086 1.84207 1.05742 0
M  V30 2236 H 210.349 0.789251 0.525154 0
M  V30 2237 H 210.055 2.55865 2.41301 0
M  V30 2238 H 209.929 1.23899 3.56271 0
M  V30 2239 H 212.316 0.492518 2.90961 0
M  V30 2240 H 212.397 1.8451 1.77172 0
M  V30 2241 H 212.041 3.46829 3.71041 0
M  V30 2242 H 211.971 2.08788 4.83441 0
M  V30 2243 H 214.462 1.86025 3.28943 0
M  V30 2244 H 214.775 4.33598 6.39697 0
M  V30 2245 H 213.12 3.89371 5.75687 0
M  V30 2246 H 216.311 2.37723 4.03244 0
M  V30 2247 H 216.484 3.50599 5.44962 0
M  V30 2248 N 209.89 -1.43072 0.660911 0
M  V30 2249 C 210.837 -2.30785 -0.0259884 0
M  V30 2250 C 211.807 -1.45184 -0.806888 0
M  V30 2251 O 212.992 -1.74041 -0.781943 0
M  V30 2252 C 210.132 -3.30861 -0.981067 0
M  V30 2253 C 209.245 -4.31558 -0.195458 0
M  V30 2254 C 208.38 -5.18712 -1.14503 0
M  V30 2255 C 207.419 -6.11097 -0.350299 0
M  V30 2256 N 206.556 -6.90849 -1.25186 0
M  V30 2257 H 211.396 -2.88975 0.727846 0
M  V30 2258 H 208.933 -1.42353 0.370682 0
M  V30 2259 H 210.891 -3.87399 -1.54849 0
M  V30 2260 H 209.521 -2.74304 -1.70169 0
M  V30 2261 H 208.573 -3.77252 0.488374 0
M  V30 2262 H 209.885 -4.9701 0.422176 0
M  V30 2263 H 209.039 -5.79914 -1.78284 0
M  V30 2264 H 207.778 -4.53404 -1.79656 0
M  V30 2265 H 206.783 -5.48976 0.300808 0
M  V30 2266 H 208.008 -6.7845 0.296941 0
M  V30 2267 H 205.954 -6.28182 -1.89005 0
M  V30 2268 H 205.871 -7.52854 -0.688971 0
M  V30 2269 H 207.139 -7.5655 -1.87757 0
M  V30 2270 N 211.368 -0.403325 -1.52352 0
M  V30 2271 C 212.645 0.232611 -1.94212 0
M  V30 2272 C 213.025 1.63133 -1.33981 0
M  V30 2273 O 212.373 2.22659 -0.513344 0
M  V30 2274 C 212.583 0.244811 -3.4814 0
M  V30 2275 C 213.931 0.46698 -4.22024 0
M  V30 2276 O 214.955 0.324419 -3.5472 0
M  V30 2277 O 213.814 0.74747 -5.41364 0
M  V30 2278 H 210.908 0.148223 -0.813609 0
M  V30 2279 H 213.454 -0.458848 -1.63379 0
M  V30 2280 H 212.226 -0.734378 -3.84347 0
M  V30 2281 H 211.849 0.980611 -3.85318 0
M  V30 2282 N 212.846 1.57033 -0.133567 0
M  V30 2283 C 214.094 1.953 0.519848 0
M  V30 2284 C 214.415 1.01866 1.66278 0
M  V30 2285 O 213.685 0.0776513 1.95746 0
M  V30 2286 H 212.265 0.721091 0.195032 0
M  V30 2287 H 214.927 1.93809 -0.205921 0
M  V30 2288 H 214.023 2.98695 0.904854 0
M  V30 2289 N 214.325 -0.140222 1.56975 0
M  V30 2290 C 215.275 -1.17827 1.95194 0
M  V30 2291 C 216.259 -1.38195 0.824075 0
M  V30 2292 O 217.451 -1.39643 1.0876 0
M  V30 2293 C 214.58 -2.51024 2.34184 0
M  V30 2294 C 213.666 -2.3422 3.53556 0
M  V30 2295 N 214.057 -1.87185 4.69889 0
M  V30 2296 C 212.355 -2.64949 3.58773 0
M  V30 2297 C 213.056 -1.83586 5.5197 0
M  V30 2298 N 212.032 -2.2715 4.93866 0
M  V30 2299 H 215.834 -0.806817 2.82609 0
M  V30 2300 H 213.348 -0.348208 1.58623 0
M  V30 2301 H 215.345 -3.26074 2.59772 0
M  V30 2302 H 214.005 -2.88945 1.48124 0
M  V30 2303 H 215.016 -1.57048 4.93514 0
M  V30 2304 H 211.693 -3.067 2.8327 0
M  V30 2305 H 213.083 -1.48655 6.55249 0
M  V30 2306 N 215.803 -1.52179 -0.40978 0
M  V30 2307 C 217.052 -1.65434 -1.15388 0
M  V30 2308 C 217.365 -0.390056 -1.91671 0
M  V30 2309 O 218.571 -0.402399 -2.68501 0
M  V30 2310 C 217.027 -2.92279 -2.10003 0
M  V30 2311 C 216.635 -4.25813 -1.39239 0
M  V30 2312 C 218.379 -3.14897 -2.84675 0
M  V30 2313 C 216.286 -5.43782 -2.32498 0
M  V30 2314 H 215.216 -0.616267 -0.434432 0
M  V30 2315 H 217.867 -1.78666 -0.418401 0
M  V30 2316 H 216.249 -2.72744 -2.871 0
M  V30 2317 H 217.423 -4.55828 -0.675099 0
M  V30 2318 H 215.738 -4.09292 -0.766097 0
M  V30 2319 H 218.335 -4.0021 -3.54593 0
M  V30 2320 H 218.678 -2.29103 -3.47588 0
M  V30 2321 H 219.211 -3.34901 -2.14677 0
M  V30 2322 H 215.95 -6.3192 -1.74233 0
M  V30 2323 H 215.47 -5.18106 -3.02201 0
M  V30 2324 H 217.149 -5.76834 -2.93038 0
M  V30 2325 N 217.281 0.66697 -1.42791 0
M  V30 2326 C 218.527 1.4291 -1.43891 0
M  V30 2327 C 218.86 1.94114 -0.0578972 0
M  V30 2328 O 218.135 1.71414 0.91911 0
M  V30 2329 C 218.418 2.62049 -2.46987 0
M  V30 2330 C 218.271 2.16426 -3.94309 0
M  V30 2331 C 219.59 3.64266 -2.46978 0
M  V30 2332 H 216.709 0.518306 -0.523954 0
M  V30 2333 H 219.351 0.757321 -1.74255 0
M  V30 2334 H 217.501 3.19361 -2.21225 0
M  V30 2335 H 219.173 1.64221 -4.31079 0
M  V30 2336 H 217.416 1.47925 -4.078 0
M  V30 2337 H 218.087 3.02038 -4.62036 0
M  V30 2338 H 220.563 3.16686 -2.69906 0
M  V30 2339 H 219.439 4.45196 -3.21079 0
M  V30 2340 H 219.7 4.15927 -1.49857 0
M  V30 2341 N 218.759 1.29093 0.90403 0
M  V30 2342 C 220.008 1.16187 1.64874 0
M  V30 2343 C 220.321 -0.286742 1.93487 0
M  V30 2344 O 221.527 -0.537062 2.66135 0
M  V30 2345 C 219.983 2.03177 2.97064 0
M  V30 2346 C 219.591 3.52836 2.76062 0
M  V30 2347 C 221.335 1.98984 3.74974 0
M  V30 2348 C 219.242 4.31945 4.03952 0
M  V30 2349 H 218.172 0.431246 0.618501 0
M  V30 2350 H 220.823 1.53699 1.00243 0
M  V30 2351 H 219.205 1.5853 3.62883 0
M  V30 2352 H 220.379 4.05507 2.18863 0
M  V30 2353 H 218.694 3.58656 2.11553 0
M  V30 2354 H 221.291 2.55351 4.69787 0
M  V30 2355 H 221.634 0.968815 4.0487 0
M  V30 2356 H 222.167 2.41652 3.15989 0
M  V30 2357 H 218.906 5.34667 3.79225 0
M  V30 2358 H 218.426 3.84045 4.60727 0
M  V30 2359 H 220.105 4.42379 4.72133 0
M  V30 2360 N 220.237 -1.11381 1.11499 0
M  V30 2361 C 221.147 -2.21019 0.786628 0
M  V30 2362 C 222.163 -1.72597 -0.220507 0
M  V30 2363 O 223.339 -2.01321 -0.0565251 0
M  V30 2364 C 220.404 -3.459 0.235333 0
M  V30 2365 C 219.465 -4.09107 1.30115 0
M  V30 2366 C 218.698 -5.28027 0.776068 0
M  V30 2367 O 218.921 -5.6904 -0.393661 0
M  V30 2368 O 217.855 -5.81835 1.54114 0
M  V30 2369 H 221.681 -2.51521 1.70209 0
M  V30 2370 H 219.266 -1.19928 0.890928 0
M  V30 2371 H 221.148 -4.21346 -0.067715 0
M  V30 2372 H 219.823 -3.17049 -0.652828 0
M  V30 2373 H 218.73 -3.35391 1.65722 0
M  V30 2374 H 220.063 -4.42139 2.16273 0
M  V30 2375 N 221.715 -0.905404 -1.28997 0
M  V30 2376 C 223.126 -0.581953 -1.77398 0
M  V30 2377 C 223.477 0.902552 -1.74208 0
M  V30 2378 O 222.602 1.70584 -1.33154 0
M  V30 2379 C 223.197 -1.04961 -3.22131 0
M  V30 2380 C 221.756 -0.777229 -3.68288 0
M  V30 2381 C 220.903 -1.22109 -2.48967 0
M  V30 2382 H 223.854 -1.08754 -1.15578 0
M  V30 2383 H 223.875 -0.387387 -3.78523 0
M  V30 2384 H 223.387 -2.13008 -3.24421 0
M  V30 2385 H 221.488 0.290383 -3.71467 0
M  V30 2386 H 221.601 -1.37911 -4.58822 0
M  V30 2387 H 219.965 -0.639971 -2.46529 0
M  V30 2388 H 220.748 -2.30972 -2.53982 0
M  V30 2389 N 223.193 1.4272 -0.668489 0
M  V30 2390 C 224.439 2.01923 -0.188419 0
M  V30 2391 C 224.772 1.52704 1.19979 0
M  V30 2392 O 224.047 0.726566 1.8042 0
M  V30 2393 C 224.33 3.59451 -0.216085 0
M  V30 2394 C 224.183 4.18864 -1.6393 0
M  V30 2395 C 225.502 4.37903 0.439179 0
M  V30 2396 H 222.621 0.733674 -0.0699412 0
M  V30 2397 H 225.263 1.69822 -0.852076 0
M  V30 2398 H 223.413 3.86929 0.349012 0
M  V30 2399 H 225.085 4.02362 -2.25616 0
M  V30 2400 H 223.328 3.74933 -2.18193 0
M  V30 2401 H 223.999 5.27987 -1.61039 0
M  V30 2402 H 226.475 4.16079 -0.0417878 0
M  V30 2403 H 225.351 5.47519 0.389157 0
M  V30 2404 H 225.612 4.15303 1.51577 0
M  V30 2405 N 224.671 0.411399 1.52136 0
M  V30 2406 C 225.581 -0.419774 2.30814 0
M  V30 2407 C 226.597 -1.0515 1.38634 0
M  V30 2408 O 227.773 -1.05252 1.71709 0
M  V30 2409 C 224.838 -1.52019 3.11594 0
M  V30 2410 C 223.899 -0.91129 4.19516 0
M  V30 2411 C 223.132 -1.95927 4.96436 0
M  V30 2412 O 223.355 -3.17775 4.73683 0
M  V30 2413 O 222.289 -1.56423 5.81219 0
M  V30 2414 H 226.115 0.221805 3.02889 0
M  V30 2415 H 223.7 0.174547 1.48377 0
M  V30 2416 H 225.582 -2.15898 3.61892 0
M  V30 2417 H 224.257 -2.14633 2.42311 0
M  V30 2418 H 223.164 -0.235157 3.7336 0
M  V30 2419 H 224.497 -0.32904 4.91099 0
M  V30 2420 N 226.149 -1.5696 0.141893 0
M  V30 2421 C 227.398 -1.95135 -0.510427 0
M  V30 2422 C 227.711 -1.02896 -1.66348 0
M  V30 2423 O 228.917 -1.30629 -2.38009 0
M  V30 2424 C 227.373 -3.46876 -0.959427 0
M  V30 2425 C 226.981 -4.47691 0.166419 0
M  V30 2426 C 228.725 -3.93927 -1.58183 0
M  V30 2427 C 226.632 -5.90636 -0.300565 0
M  V30 2428 H 225.562 -0.728494 -0.194454 0
M  V30 2429 H 228.213 -1.8211 0.22542 0
M  V30 2430 H 226.595 -3.55215 -1.75038 0
M  V30 2431 H 227.769 -4.51043 0.94325 0
M  V30 2432 H 226.084 -4.10527 0.696905 0
M  V30 2433 H 228.681 -4.98158 -1.94275 0
M  V30 2434 H 229.024 -3.3519 -2.46888 0
M  V30 2435 H 229.557 -3.88484 -0.855863 0
M  V30 2436 H 226.296 -6.5318 0.550989 0
M  V30 2437 H 225.816 -5.90655 -1.04338 0
M  V30 2438 H 227.495 -6.42588 -0.754265 0
M  V30 2439 N 227.627 0.131896 -1.57047 0
M  V30 2440 C 228.56 1.19236 -1.94571 0
M  V30 2441 C 229.538 1.40782 -0.813576 0
M  V30 2442 O 230.722 1.55148 -1.07058 0
M  V30 2443 C 227.849 2.54858 -2.23081 0
M  V30 2444 C 226.895 2.49817 -3.45679 0
M  V30 2445 S 227.728 1.95036 -4.98719 0
M  V30 2446 C 228.884 3.32357 -5.30367 0
M  V30 2447 H 229.117 0.872297 -2.84215 0
M  V30 2448 H 226.65 0.338134 -1.50652 0
M  V30 2449 H 228.608 3.32898 -2.40185 0
M  V30 2450 H 227.269 2.84047 -1.34074 0
M  V30 2451 H 226.462 3.49688 -3.62952 0
M  V30 2452 H 226.064 1.79892 -3.27895 0
M  V30 2453 H 228.356 4.28525 -5.2476 0
M  V30 2454 H 229.299 3.19923 -6.31708 0
M  V30 2455 H 229.707 3.3019 -4.57859 0
M  V30 2456 N 229.106 1.52395 0.401703 0
M  V30 2457 C 230.069 1.75636 1.47257 0
M  V30 2458 C 231.069 0.62628 1.48103 0
M  V30 2459 O 232.259 0.894227 1.49497 0
M  V30 2460 C 229.391 1.84553 2.86624 0
M  V30 2461 H 230.584 2.71241 1.27938 0
M  V30 2462 H 228.137 1.42923 0.632662 0
M  V30 2463 H 228.872 0.908882 3.11303 0
M  V30 2464 H 228.657 2.66715 2.87412 0
M  V30 2465 H 230.147 2.04251 3.64241 0
M  V30 2466 N 230.584 -0.659388 1.43143 0
M  V30 2467 C 231.831 -1.41935 1.44433 0
M  V30 2468 C 232.159 -1.94387 0.0663522 0
M  V30 2469 O 231.414 -1.72314 -0.927706 0
M  V30 2470 C 231.713 -2.62206 2.42864 0
M  V30 2471 C 231.379 -2.28208 3.88886 0
M  V30 2472 C 230.041 -2.18647 4.28657 0
M  V30 2473 C 232.393 -2.00887 4.8093 0
M  V30 2474 C 229.721 -1.79914 5.58433 0
M  V30 2475 C 232.073 -1.63653 6.11065 0
M  V30 2476 C 230.737 -1.52614 6.49819 0
M  V30 2477 H 230.007 -0.519376 0.528517 0
M  V30 2478 H 232.654 -0.750453 1.76183 0
M  V30 2479 H 230.959 -3.34199 2.04495 0
M  V30 2480 H 232.656 -3.2041 2.41119 0
M  V30 2481 H 229.246 -2.36557 3.57406 0
M  V30 2482 H 233.43 -2.07198 4.5098 0
M  V30 2483 H 228.686 -1.69948 5.87305 0
M  V30 2484 H 232.86 -1.41543 6.81864 0
M  V30 2485 H 230.487 -1.22371 7.50286 0
M  V30 2486 N 232.062 -1.29571 -0.897171 0
M  V30 2487 C 232.972 -1.16808 -2.03453 0
M  V30 2488 C 233.988 -0.0907471 -1.73763 0
M  V30 2489 O 235.164 -0.303312 -1.99103 0
M  V30 2490 C 232.229 -0.848264 -3.36163 0
M  V30 2491 C 231.29 -2.0097 -3.79354 0
M  V30 2492 C 230.523 -1.70505 -5.05731 0
M  V30 2493 O 230.746 -0.62718 -5.66941 0
M  V30 2494 O 229.68 -2.5538 -5.45036 0
M  V30 2495 H 233.506 -2.12325 -2.17144 0
M  V30 2496 H 231.091 -1.09047 -1.02123 0
M  V30 2497 H 232.973 -0.684581 -4.15802 0
M  V30 2498 H 231.648 0.0771071 -3.23608 0
M  V30 2499 H 230.555 -2.22863 -3.00471 0
M  V30 2500 H 231.888 -2.91636 -3.96496 0
M  V30 2501 N 233.54 1.10788 -1.12088 0
M  V30 2502 C 234.789 1.82036 -0.868659 0
M  V30 2503 C 235.102 1.85929 0.607426 0
M  V30 2504 O 236.308 2.53346 0.97613 0
M  V30 2505 C 234.764 3.26951 -1.50435 0
M  V30 2506 C 234.372 3.31367 -3.01496 0
M  V30 2507 C 236.116 4.03053 -1.33225 0
M  V30 2508 C 234.023 4.7072 -3.58017 0
M  V30 2509 H 232.953 0.682108 -0.321318 0
M  V30 2510 H 235.604 1.24618 -1.34694 0
M  V30 2511 H 233.986 3.84343 -0.953735 0
M  V30 2512 H 235.16 2.83819 -3.6302 0
M  V30 2513 H 233.475 2.6875 -3.18061 0
M  V30 2514 H 236.072 5.05981 -1.72878 0
M  V30 2515 H 236.415 4.15387 -0.275529 0
M  V30 2516 H 236.948 3.52066 -1.85188 0
M  V30 2517 H 233.687 4.63585 -4.63432 0
M  V30 2518 H 233.207 5.1865 -3.01268 0
M  V30 2519 H 234.886 5.39685 -3.56859 0
M  V30 2520 N 235.018 0.912232 1.28515 0
M  V30 2521 C 235.981 0.404223 2.25607 0
M  V30 2522 C 236.981 -0.468602 1.53821 0
M  V30 2523 O 238.171 -0.271873 1.72065 0
M  V30 2524 C 235.303 -0.420653 3.38295 0
M  V30 2525 H 236.496 1.26188 2.7206 0
M  V30 2526 H 234.049 0.691495 1.40171 0
M  V30 2527 H 234.784 -1.29777 2.97201 0
M  V30 2528 H 234.569 0.204935 3.91564 0
M  V30 2529 H 236.059 -0.766971 4.10496 0
M  V30 2530 N 236.496 -1.42363 0.676048 0
M  V30 2531 C 237.724 -2.05859 0.207268 0
M  V30 2532 C 238.139 -1.50796 -1.13605 0
M  V30 2533 O 237.496 -0.648265 -1.70598 0
M  V30 2534 C 237.547 -3.61248 0.134975 0
M  V30 2535 O 237.268 -4.1427 1.42521 0
M  V30 2536 C 238.769 -4.41859 -0.357151 0
M  V30 2537 H 235.989 -0.663431 0.100503 0
M  V30 2538 H 238.533 -1.82479 0.923136 0
M  V30 2539 H 236.688 -3.83735 -0.531588 0
M  V30 2540 H 237.102 -5.0815 1.29939 0
M  V30 2541 H 238.576 -5.50847 -0.356641 0
M  V30 2542 H 239.053 -4.16536 -1.39264 0
M  V30 2543 H 239.659 -4.24392 0.27772 0
M  V30 2544 N 237.974 -0.419461 -1.51915 0
M  V30 2545 C 239.222 0.152637 -2.01523 0
M  V30 2546 C 239.543 1.44762 -1.30649 0
M  V30 2547 O 238.813 1.90997 -0.435535 0
M  V30 2548 H 237.393 0.0593966 -0.744635 0
M  V30 2549 H 240.055 -0.558073 -1.86739 0
M  V30 2550 H 239.151 0.341369 -3.10227 0
M  V30 2551 N 239.452 1.56882 -0.150215 0
M  V30 2552 C 240.68 2.00593 0.506948 0
M  V30 2553 C 241.095 1.03033 1.58208 0
M  V30 2554 O 240.452 0.0278396 1.82479 0
M  V30 2555 C 240.503 3.44209 1.10465 0
M  V30 2556 O 240.224 4.3804 0.0724636 0
M  V30 2557 C 241.725 4.03214 1.84211 0
M  V30 2558 H 238.945 0.65795 0.13169 0
M  V30 2559 H 241.489 2.03018 -0.245743 0
M  V30 2560 H 239.644 3.42625 1.80795 0
M  V30 2561 H 240.058 5.22007 0.510793 0
M  V30 2562 H 241.532 5.0569 2.21318 0
M  V30 2563 H 242.009 3.44107 2.72923 0
M  V30 2564 H 242.615 4.08437 1.18572 0
M  V30 2565 N 240.93 -0.123565 1.57115 0
M  V30 2566 C 242.346 -0.476961 1.52306 0
M  V30 2567 C 242.546 -1.82109 0.86248 0
M  V30 2568 O 241.602 -2.48586 0.442884 0
M  V30 2569 C 242.915 -0.465661 2.97073 0
M  V30 2570 C 244.463 -0.549534 3.08138 0
M  V30 2571 C 244.938 -0.568669 4.54456 0
M  V30 2572 N 246.429 -0.630237 4.58892 0
M  V30 2573 C 247.164 -0.666415 5.69514 0
M  V30 2574 N 246.66 -0.660514 6.89644 0
M  V30 2575 N 248.453 -0.709077 5.5761 0
M  V30 2576 H 240.604 0.757198 1.98445 0
M  V30 2577 H 242.867 0.278808 0.906074 0
M  V30 2578 H 242.573 0.454232 3.48754 0
M  V30 2579 H 242.447 -1.29513 3.54269 0
M  V30 2580 H 244.834 -1.45985 2.56461 0
M  V30 2581 H 244.915 0.307532 2.53945 0
M  V30 2582 H 244.559 0.337581 5.06777 0
M  V30 2583 H 244.489 -1.44256 5.06456 0
M  V30 2584 H 246.98 -0.641146 3.72421 0
M  V30 2585 H 247.293 -0.690616 7.69708 0
M  V30 2586 H 245.638 -0.628012 6.92157 0
M  V30 2587 H 248.829 -0.711019 4.62668 0
M  V30 2588 H 249.002 -0.733804 6.43832 0
M  V30 2589 N 242.408 -1.52605 -0.393616 0
M  V30 2590 C 243.355 -1.77055 -1.48054 0
M  V30 2591 C 244.325 -0.61358 -1.54352 0
M  V30 2592 O 245.51 -0.852806 -1.70681 0
M  V30 2593 C 242.65 -1.94108 -2.85335 0
M  V30 2594 C 241.763 -3.21792 -2.88226 0
M  V30 2595 C 240.898 -3.29188 -4.16904 0
M  V30 2596 C 239.937 -4.51013 -4.13828 0
M  V30 2597 N 239.074 -4.55716 -5.34105 0
M  V30 2598 H 243.914 -2.69815 -1.26506 0
M  V30 2599 H 241.451 -1.33683 -0.61379 0
M  V30 2600 H 243.409 -2.01979 -3.65049 0
M  V30 2601 H 242.039 -1.04713 -3.05344 0
M  V30 2602 H 241.091 -3.23015 -2.00911 0
M  V30 2603 H 242.403 -4.11557 -2.8182 0
M  V30 2604 H 241.557 -3.36216 -5.05018 0
M  V30 2605 H 240.296 -2.37389 -4.26026 0
M  V30 2606 H 239.301 -4.44115 -3.24102 0
M  V30 2607 H 240.526 -5.44123 -4.06333 0
M  V30 2608 H 238.472 -3.66807 -5.43865 0
M  V30 2609 H 238.389 -5.39346 -5.29756 0
M  V30 2610 H 239.657 -4.66993 -6.2413 0
M  V30 2611 N 243.887 0.651787 -1.4349 0
M  V30 2612 C 245.298 1.233 -1.40193 0
M  V30 2613 C 245.649 1.9591 -0.106727 0
M  V30 2614 O 244.774 2.01316 0.793773 0
M  V30 2615 C 245.369 2.24257 -2.53957 0
M  V30 2616 C 243.928 2.77852 -2.5392 0
M  V30 2617 C 243.075 1.52517 -2.3159 0
M  V30 2618 H 246.026 0.443717 -1.52371 0
M  V30 2619 H 246.047 3.0646 -2.25528 0
M  V30 2620 H 245.559 1.71382 -3.4821 0
M  V30 2621 H 243.66 3.34786 -1.63551 0
M  V30 2622 H 243.773 3.25299 -3.51735 0
M  V30 2623 H 242.137 1.79915 -1.80285 0
M  V30 2624 H 242.92 1.01574 -3.27929 0
M  V30 2625 N 245.365 1.30045 0.890287 0
M  V30 2626 C 246.313 1.15873 2.01683 0
M  V30 2627 C 247.307 0.0719403 1.69247 0
M  V30 2628 O 248.513 0.232414 1.78493 0
M  V30 2629 H 244.888 0.358203 0.661207 0
M  V30 2630 H 246.859 2.11229 2.10772 0
M  V30 2631 C 245.608 0.861842 3.36849 0
M  V30 2632 H 244.931 1.69016 3.62317 0
M  V30 2633 H 246.371 0.802762 4.16331 0
M  V30 2634 C 244.83 -0.435132 3.34078 0
M  V30 2635 O 245.36 -1.4583 3.74295 0
M  V30 2636 N 243.566 -0.444377 2.87182 0
M  V30 2637 H 243.113 0.388723 2.5465 0
M  V30 2638 H 243.071 -1.31213 2.85711 0
M  V30 2639 N 246.843 -1.10192 1.12674 0
M  V30 2640 C 248.259 -1.34235 0.863317 0
M  V30 2641 C 248.459 -1.95062 -0.505277 0
M  V30 2642 O 247.515 -2.19192 -1.25345 0
M  V30 2643 C 248.828 -2.2616 1.98172 0
M  V30 2644 C 250.376 -2.3969 2.0129 0
M  V30 2645 C 250.851 -3.34946 3.1237 0
M  V30 2646 N 252.342 -3.42515 3.11829 0
M  V30 2647 C 253.077 -4.16199 3.94419 0
M  V30 2648 N 252.573 -4.92747 4.87004 0
M  V30 2649 N 254.366 -4.11843 3.82547 0
M  V30 2650 H 246.517 -0.690798 2.00853 0
M  V30 2651 H 248.78 -0.366774 0.874174 0
M  V30 2652 H 248.486 -1.8868 2.96804 0
M  V30 2653 H 248.36 -3.26488 1.88906 0
M  V30 2654 H 250.747 -2.76438 1.03276 0
M  V30 2655 H 250.828 -1.39169 2.14629 0
M  V30 2656 H 250.472 -2.98923 4.10619 0
M  V30 2657 H 250.402 -4.35353 2.96269 0
M  V30 2658 H 252.893 -2.87926 2.44759 0
M  V30 2659 H 253.206 -5.46376 5.46528 0
M  V30 2660 H 251.551 -4.91862 4.91016 0
M  V30 2661 H 254.742 -3.51136 3.0955 0
M  V30 2662 H 254.915 -4.69007 4.47142 0
M  V30 2663 N 248.321 -0.919034 -1.28029 0
M  V30 2664 C 249.569 -0.553838 -1.94363 0
M  V30 2665 C 249.89 0.906357 -1.72656 0
M  V30 2666 O 249.16 1.64143 -1.0693 0
M  V30 2667 H 247.74 -0.201834 -0.719216 0
M  V30 2668 H 250.402 -1.16954 -1.55909 0
M  V30 2669 H 249.498 -0.752758 -3.02886 0
M  V30 2670 N 249.799 1.42003 -0.683588 0
M  V30 2671 C 250.729 2.33487 -0.024866 0
M  V30 2672 C 251.71 1.51163 0.779975 0
M  V30 2673 O 252.895 1.79739 0.735362 0
M  V30 2674 C 250.025 3.3487 0.920836 0
M  V30 2675 C 248.979 4.27414 0.223958 0
M  V30 2676 C 248.305 5.19074 1.2832 0
M  V30 2677 C 249.605 5.14445 -0.90242 0
M  V30 2678 H 251.299 2.88819 -0.788921 0
M  V30 2679 H 248.845 1.38873 -0.38083 0
M  V30 2680 H 250.798 3.97787 1.39081 0
M  V30 2681 H 249.522 2.77861 1.71642 0
M  V30 2682 H 248.181 3.65904 -0.225864 0
M  V30 2683 H 247.829 4.58387 2.071 0
M  V30 2684 H 247.529 5.81822 0.821995 0
M  V30 2685 H 249.053 5.84867 1.75392 0
M  V30 2686 H 250.467 5.70998 -0.513272 0
M  V30 2687 H 248.864 5.86072 -1.28997 0
M  V30 2688 H 249.934 4.52322 -1.74737 0
M  V30 2689 N 251.277 0.427512 1.51691 0
M  V30 2690 C 252.526 -0.143679 2.01188 0
M  V30 2691 C 252.839 -1.44642 1.31674 0
M  V30 2692 O 254.045 -2.09997 1.72086 0
M  V30 2693 C 252.501 -0.306602 3.58592 0
M  V30 2694 C 252.109 0.985125 4.37035 0
M  V30 2695 C 253.853 -0.832091 4.16265 0
M  V30 2696 C 251.76 0.788382 5.86122 0
M  V30 2697 H 250.69 -0.0574701 0.751807 0
M  V30 2698 H 253.341 0.555772 1.74881 0
M  V30 2699 H 251.723 -1.06882 3.81303 0
M  V30 2700 H 252.897 1.75492 4.26074 0
M  V30 2701 H 251.212 1.4384 3.90767 0
M  V30 2702 H 253.809 -0.995617 5.25349 0
M  V30 2703 H 254.152 -1.81186 3.74803 0
M  V30 2704 H 254.685 -0.128444 3.97593 0
M  V30 2705 H 251.424 1.74025 6.31978 0
M  V30 2706 H 250.944 0.0582143 5.99772 0
M  V30 2707 H 252.623 0.437722 6.45518 0
M  V30 2708 N 252.755 -1.56801 0.158532 0
M  V30 2709 C 253.983 -2.00859 -0.496303 0
M  V30 2710 C 254.398 -1.03871 -1.57659 0
M  V30 2711 O 253.755 -0.0375165 -1.82461 0
M  V30 2712 C 253.806 -3.4479 -1.08638 0
M  V30 2713 O 253.527 -4.38072 -0.0492322 0
M  V30 2714 C 255.028 -4.04185 -1.8207 0
M  V30 2715 H 252.248 -0.65864 -0.128199 0
M  V30 2716 H 254.792 -2.02885 0.256506 0
M  V30 2717 H 252.947 -3.43579 -1.78975 0
M  V30 2718 H 253.361 -5.2227 -0.483102 0
M  V30 2719 H 254.835 -5.06857 -2.18633 0
M  V30 2720 H 255.312 -3.45549 -2.71095 0
M  V30 2721 H 255.918 -4.0906 -1.16405 0
M  V30 2722 N 254.233 0.115231 -1.57178 0
M  V30 2723 C 255.644 0.67197 -1.74188 0
M  V30 2724 C 255.995 1.80125 -0.777777 0
M  V30 2725 O 255.12 2.16346 0.0484376 0
M  V30 2726 C 255.715 1.22573 -3.1585 0
M  V30 2727 C 254.274 1.72872 -3.34353 0
M  V30 2728 C 253.421 0.629972 -2.70049 0
M  V30 2729 H 256.372 -0.110712 -1.58313 0
M  V30 2730 H 256.393 2.09535 -3.17609 0
M  V30 2731 H 255.905 0.403598 -3.85996 0
M  V30 2732 H 254.006 2.5755 -2.69256 0
M  V30 2733 H 254.119 1.83557 -4.42542 0
M  V30 2734 H 252.483 1.0645 -2.31388 0
M  V30 2735 H 253.266 -0.181241 -3.42821 0
M  V30 2736 N 255.711 1.52812 0.385517 0
M  V30 2737 C 256.988 1.5861 1.14465 0
M  V30 2738 C 257.368 0.381402 2.07626 0
M  V30 2739 O 256.716 -0.629999 2.19643 0
M  V30 2740 C 256.926 2.92664 1.90128 0
M  V30 2741 C 258.274 3.46526 2.45367 0
M  V30 2742 O 259.298 2.94562 2.0028 0
M  V30 2743 O 258.157 4.37323 3.27736 0
M  V30 2744 H 255.251 0.639855 0.523941 0
M  V30 2745 H 257.797 1.65149 0.390389 0
M  V30 2746 H 256.569 3.71788 1.22022 0
M  V30 2747 H 256.192 2.89527 2.72507 0
M  V30 2748 N 257.189 -0.644168 1.43834 0
M  V30 2749 C 258.136 -1.75671 1.49694 0
M  V30 2750 C 259.106 -1.6246 0.345809 0
M  V30 2751 O 260.291 -1.82573 0.554234 0
M  V30 2752 C 257.431 -3.13867 1.43463 0
M  V30 2753 C 256.544 -3.38147 2.6885 0
M  V30 2754 C 255.679 -4.66241 2.54544 0
M  V30 2755 C 254.718 -4.83657 3.75157 0
M  V30 2756 N 253.855 -6.03016 3.59605 0
M  V30 2757 H 258.695 -1.69998 2.44754 0
M  V30 2758 H 256.232 -0.829458 1.21484 0
M  V30 2759 H 258.19 -3.9377 1.37843 0
M  V30 2760 H 256.82 -3.18588 0.519783 0
M  V30 2761 H 255.872 -2.52276 2.84712 0
M  V30 2762 H 257.184 -3.46899 3.58417 0
M  V30 2763 H 256.338 -5.54285 2.46683 0
M  V30 2764 H 255.077 -4.59826 1.62516 0
M  V30 2765 H 254.082 -3.94046 3.83416 0
M  V30 2766 H 255.307 -4.91896 4.68204 0
M  V30 2767 H 253.253 -5.97715 2.7032 0
M  V30 2768 H 253.17 -6.12766 4.42779 0
M  V30 2769 H 254.438 -6.93657 3.55613 0
M  V30 2770 N 258.668 -1.30515 -0.883378 0
M  V30 2771 C 259.631 -1.1701 -1.97082 0
M  V30 2772 C 260.631 -0.10089 -1.60483 0
M  V30 2773 O 261.821 -0.349127 -1.70666 0
M  V30 2774 C 258.953 -0.793045 -3.31547 0
M  V30 2775 H 260.146 -2.13622 -2.10489 0
M  V30 2776 H 257.699 -1.13935 -1.06998 0
M  V30 2777 H 258.434 0.172499 -3.23841 0
M  V30 2778 H 258.219 -1.56576 -3.5948 0
M  V30 2779 H 259.709 -0.722073 -4.1131 0
M  V30 2780 N 260.146 1.09593 -1.13257 0
M  V30 2781 C 261.076 2.18214 -0.830946 0
M  V30 2782 C 262.057 1.68812 0.208966 0
M  V30 2783 O 263.242 1.9408 0.0682666 0
M  V30 2784 C 260.372 3.46051 -0.294296 0
M  V30 2785 C 259.326 4.08778 -1.26826 0
M  V30 2786 C 258.652 5.31419 -0.591449 0
M  V30 2787 C 259.952 4.51476 -2.62615 0
M  V30 2788 H 261.646 2.43703 -1.73923 0
M  V30 2789 H 259.192 1.17128 -0.837675 0
M  V30 2790 H 261.145 4.2134 -0.0709606 0
M  V30 2791 H 259.869 3.20079 0.649366 0
M  V30 2792 H 258.528 3.35505 -1.47756 0
M  V30 2793 H 258.176 5.01727 0.357633 0
M  V30 2794 H 257.876 5.74341 -1.24123 0
M  V30 2795 H 259.4 6.09433 -0.377355 0
M  V30 2796 H 260.814 5.17999 -2.45663 0
M  V30 2797 H 259.211 5.05277 -3.23752 0
M  V30 2798 H 260.281 3.63962 -3.20406 0
M  V30 2799 N 261.624 0.925811 1.2754 0
M  V30 2800 C 262.554 0.440748 2.29303 0
M  V30 2801 C 263.535 -0.497971 1.62648 0
M  V30 2802 O 264.72 -0.403126 1.8997 0
M  V30 2803 C 261.85 -0.309048 3.45922 0
M  V30 2804 C 260.804 0.54166 4.24559 0
M  V30 2805 C 260.13 -0.337191 5.33636 0
M  V30 2806 C 261.43 1.80516 4.90114 0
M  V30 2807 H 263.124 1.29121 2.70126 0
M  V30 2808 H 260.67 0.622323 1.29858 0
M  V30 2809 H 262.623 -0.659315 4.1621 0
M  V30 2810 H 261.347 -1.19352 3.04011 0
M  V30 2811 H 260.006 0.874609 3.56014 0
M  V30 2812 H 259.654 -1.22056 4.87966 0
M  V30 2813 H 259.354 0.228497 5.87156 0
M  V30 2814 H 260.878 -0.683072 6.06767 0
M  V30 2815 H 262.292 1.52307 5.52698 0
M  V30 2816 H 260.689 2.3142 5.53683 0
M  V30 2817 H 261.759 2.52581 4.13921 0
M  V30 2818 N 263.102 -1.41638 0.69111 0
M  V30 2819 C 264.065 -2.29178 0.0319786 0
M  V30 2820 C 265.065 -1.44153 -0.712496 0
M  V30 2821 O 266.255 -1.65354 -0.548053 0
M  V30 2822 C 263.387 -3.26952 -0.965161 0
M  V30 2823 H 264.58 -2.88959 0.802681 0
M  V30 2824 H 262.133 -1.4955 0.454356 0
M  V30 2825 H 262.868 -2.72142 -1.76378 0
M  V30 2826 H 262.653 -3.89685 -0.434522 0
M  V30 2827 H 264.143 -3.92561 -1.42428 0
M  V30 2828 N 264.58 -0.43555 -1.51462 0
M  V30 2829 C 265.829 0.133007 -2.01261 0
M  V30 2830 C 266.142 1.43942 -1.32439 0
M  V30 2831 O 267.348 2.09081 -1.73198 0
M  V30 2832 C 265.804 0.287581 -3.58749 0
M  V30 2833 C 265.412 -1.00829 -4.36506 0
M  V30 2834 C 267.156 0.810004 -4.167 0
M  V30 2835 C 265.063 -0.819454 -5.85695 0
M  V30 2836 H 263.993 0.0534822 -0.752101 0
M  V30 2837 H 266.644 -0.565038 -1.74584 0
M  V30 2838 H 265.026 1.04859 -3.81865 0
M  V30 2839 H 266.2 -1.77749 -4.25138 0
M  V30 2840 H 264.515 -1.45911 -3.89999 0
M  V30 2841 H 267.112 0.967743 -5.2587 0
M  V30 2842 H 267.455 1.79196 -3.75758 0
M  V30 2843 H 267.988 0.107357 -3.97655 0
M  V30 2844 H 264.727 -1.77374 -6.31046 0
M  V30 2845 H 264.247 -0.0900208 -5.99732 0
M  V30 2846 H 265.926 -0.471949 -6.45276 0
M  V30 2847 N 266.058 1.56714 -0.166846 0
M  V30 2848 C 266.968 2.21331 0.777791 0
M  V30 2849 C 267.984 1.20358 1.25658 0
M  V30 2850 O 269.16 1.53005 1.30964 0
M  V30 2851 C 266.225 2.83787 1.99163 0
M  V30 2852 C 265.286 3.99947 1.56016 0
M  V30 2853 C 264.519 4.59415 2.71613 0
M  V30 2854 O 264.742 4.17769 3.88362 0
M  V30 2855 O 263.676 5.49359 2.45945 0
M  V30 2856 H 267.502 3.02605 0.257636 0
M  V30 2857 H 265.087 1.49275 0.0611393 0
M  V30 2858 H 266.969 3.23405 2.70161 0
M  V30 2859 H 265.644 2.05513 2.50092 0
M  V30 2860 H 264.551 3.65007 0.819809 0
M  V30 2861 H 265.884 4.79801 1.09782 0
M  V30 2862 N 267.536 -0.106894 1.57237 0
M  V30 2863 C 268.483 -1.13049 2.01217 0
M  V30 2864 C 269.453 -1.40471 0.886403 0
M  V30 2865 O 270.638 -1.52133 1.15153 0
M  V30 2866 C 267.778 -2.4487 2.43172 0
M  V30 2867 C 266.891 -2.24281 3.69218 0
M  V30 2868 C 266.026 -3.49417 4.00101 0
M  V30 2869 C 265.065 -3.24038 5.19294 0
M  V30 2870 N 264.202 -4.41409 5.45988 0
M  V30 2871 H 269.042 -0.748456 2.88448 0
M  V30 2872 H 266.579 -0.358054 1.42676 0
M  V30 2873 H 268.537 -3.21786 2.65537 0
M  V30 2874 H 267.167 -2.80944 1.58967 0
M  V30 2875 H 266.219 -1.38224 3.54398 0
M  V30 2876 H 267.531 -2.01512 4.56283 0
M  V30 2877 H 266.685 -4.34746 4.2318 0
M  V30 2878 H 265.424 -3.75229 3.11535 0
M  V30 2879 H 264.429 -2.37102 4.96047 0
M  V30 2880 H 265.654 -2.99584 6.09447 0
M  V30 2881 H 263.6 -4.67319 4.60379 0
M  V30 2882 H 263.517 -4.21788 6.274 0
M  V30 2883 H 264.785 -5.27836 5.73593 0
M  V30 2884 N 269.014 -1.53014 -0.377408 0
M  V30 2885 C 270.262 -1.6829 -1.11906 0
M  V30 2886 C 270.583 -0.431206 -1.90173 0
M  V30 2887 O 269.853 0.554595 -1.87886 0
M  V30 2888 H 268.433 -0.620371 -0.416112 0
M  V30 2889 H 271.095 -1.90167 -0.426893 0
M  V30 2890 H 270.191 -2.53862 -1.8155 0
M  V30 2891 N 270.492 0.636531 -1.44174 0
M  V30 2892 C 271.739 1.39619 -1.46672 0
M  V30 2893 C 272.067 1.94257 -0.0972691 0
M  V30 2894 O 271.322 1.73768 0.900175 0
M  V30 2895 C 271.621 2.58309 -2.47005 0
M  V30 2896 C 271.287 2.21992 -3.92467 0
M  V30 2897 C 269.949 2.118 -4.32081 0
M  V30 2898 C 272.301 1.9321 -4.84065 0
M  V30 2899 C 269.629 1.71007 -5.61225 0
M  V30 2900 C 271.981 1.53911 -6.13591 0
M  V30 2901 C 270.645 1.42257 -6.52165 0
M  V30 2902 H 269.915 0.510902 -0.536712 0
M  V30 2903 H 272.562 0.722328 -1.77355 0
M  V30 2904 H 270.867 3.30903 -2.09786 0
M  V30 2905 H 272.564 3.16533 -2.46186 0
M  V30 2906 H 269.154 2.30841 -3.61124 0
M  V30 2907 H 273.338 1.99997 -4.54219 0
M  V30 2908 H 268.594 1.60583 -5.89935 0
M  V30 2909 H 272.768 1.30677 -6.8403 0
M  V30 2910 H 270.395 1.10419 -7.52138 0
M  V30 2911 N 271.97 1.30982 0.876444 0
M  V30 2912 C 272.917 1.18085 1.98304 0
M  V30 2913 C 273.887 0.0682263 1.6596 0
M  V30 2914 O 275.072 0.239937 1.89285 0
M  V30 2915 C 272.212 0.887475 3.33493 0
M  V30 2916 C 271.325 2.08281 3.78475 0
M  V30 2917 C 270.46 1.72678 5.0235 0
M  V30 2918 C 269.499 2.88657 5.39762 0
M  V30 2919 N 268.636 2.53292 6.54819 0
M  V30 2920 H 273.476 2.1275 2.08666 0
M  V30 2921 H 271.013 1.05839 1.02159 0
M  V30 2922 H 272.971 0.697961 4.1132 0
M  V30 2923 H 271.601 -0.022315 3.22792 0
M  V30 2924 H 270.653 2.3833 2.96484 0
M  V30 2925 H 271.965 2.95108 4.02135 0
M  V30 2926 H 271.119 1.50151 5.87826 0
M  V30 2927 H 269.858 0.830327 4.8058 0
M  V30 2928 H 268.863 3.1184 4.52809 0
M  V30 2929 H 270.088 3.79002 5.63502 0
M  V30 2930 H 268.034 1.66163 6.34607 0
M  V30 2931 H 267.951 3.3365 6.7839 0
M  V30 2932 H 269.219 2.34143 7.43503 0
M  V30 2933 N 273.449 -1.08991 1.13837 0
M  V30 2934 C 274.359 -2.19301 0.833333 0
M  V30 2935 C 275.375 -1.73026 -0.183847 0
M  V30 2936 O 276.551 -2.01395 -0.0138092 0
M  V30 2937 C 273.616 -3.45323 0.308651 0
M  V30 2938 C 272.677 -4.06255 1.38764 0
M  V30 2939 C 271.91 -5.26262 0.887896 0
M  V30 2940 O 272.133 -5.69747 -0.27287 0
M  V30 2941 O 271.067 -5.78435 1.66421 0
M  V30 2942 H 274.893 -2.47854 1.75506 0
M  V30 2943 H 272.478 -1.18012 0.916166 0
M  V30 2944 H 274.36 -4.21394 0.0216739 0
M  V30 2945 H 273.035 -3.18362 -0.585431 0
M  V30 2946 H 271.942 -3.318 1.72799 0
M  V30 2947 H 273.275 -4.37452 2.25602 0
M  V30 2948 N 274.927 -0.932562 -1.27047 0
M  V30 2949 C 276.343 -0.633544 -1.46487 0
M  V30 2950 C 276.543 0.815746 -1.84249 0
M  V30 2951 O 275.599 1.59319 -1.95892 0
M  V30 2952 C 276.912 -1.58758 -2.55375 0
M  V30 2953 C 278.46 -1.59634 -2.69232 0
M  V30 2954 C 278.935 -2.53747 -3.81283 0
M  V30 2955 N 280.426 -2.51982 -3.88664 0
M  V30 2956 C 281.161 -3.21491 -4.74796 0
M  V30 2957 N 280.657 -4.00395 -5.65381 0
M  V30 2958 N 282.45 -3.10485 -4.68568 0
M  V30 2959 H 274.601 -1.86946 -1.00821 0
M  V30 2960 H 276.864 -0.802897 -0.504044 0
M  V30 2961 H 276.57 -2.62172 -2.34432 0
M  V30 2962 H 276.444 -1.33301 -3.52861 0
M  V30 2963 H 278.831 -0.569488 -2.89553 0
M  V30 2964 H 278.912 -1.89142 -1.72218 0
M  V30 2965 H 278.556 -3.56545 -3.61715 0
M  V30 2966 H 278.486 -2.21532 -4.77735 0
M  V30 2967 H 280.977 -1.94681 -3.23895 0
M  V30 2968 H 281.29 -4.50406 -6.27976 0
M  V30 2969 H 279.635 -4.04498 -5.65161 0
M  V30 2970 H 282.826 -2.48331 -3.96799 0
M  V30 2971 H 282.999 -3.64925 -5.35475 0
M  V30 2972 N 276.405 1.4127 -0.698611 0
M  V30 2973 C 277.633 2.05503 -0.239992 0
M  V30 2974 C 278.048 1.52584 1.11191 0
M  V30 2975 O 277.405 0.675323 1.69545 0
M  V30 2976 C 277.456 3.60987 -0.192429 0
M  V30 2977 O 277.177 4.1195 -1.49094 0
M  V30 2978 C 278.678 4.42371 0.28681 0
M  V30 2979 H 275.898 0.661748 -0.111045 0
M  V30 2980 H 278.442 1.80987 -0.95205 0
M  V30 2981 H 276.597 3.84533 0.470472 0
M  V30 2982 H 277.011 5.06018 -1.38007 0
M  V30 2983 H 278.485 5.51344 0.26896 0
M  V30 2984 H 278.962 4.18699 1.32619 0
M  V30 2985 H 279.568 4.23897 -0.345201 0
M  V30 2986 N 277.883 0.443576 1.51229 0
M  V30 2987 C 278.83 -0.364716 2.279 0
M  V30 2988 C 279.8 -1.0114 1.31757 0
M  V30 2989 O 280.985 -1.02912 1.60667 0
M  V30 2990 C 278.125 -1.45644 3.12861 0
M  V30 2991 C 277.238 -0.827269 4.24005 0
M  V30 2992 C 276.373 -1.89456 4.96266 0
M  V30 2993 C 275.412 -1.24416 5.99322 0
M  V30 2994 N 274.549 -2.25309 6.64966 0
M  V30 2995 H 279.389 0.295464 2.96532 0
M  V30 2996 H 276.926 0.157554 1.46254 0
M  V30 2997 H 278.884 -2.10076 3.6045 0
M  V30 2998 H 277.514 -2.08616 2.46331 0
M  V30 2999 H 276.566 -0.0710839 3.80334 0
M  V30 3000 H 277.878 -0.312481 4.9782 0
M  V30 3001 H 277.032 -2.61535 5.47434 0
M  V30 3002 H 275.771 -2.4431 4.22095 0
M  V30 3003 H 274.776 -0.508868 5.4744 0
M  V30 3004 H 276.001 -0.702882 6.75453 0
M  V30 3005 H 273.947 -2.79231 5.93604 0
M  V30 3006 H 273.864 -1.78739 7.34567 0
M  V30 3007 H 275.132 -2.96853 7.20763 0
M  V30 3008 N 279.361 -1.56624 0.175154 0
M  V30 3009 C 280.311 -2.14747 -0.766004 0
M  V30 3010 C 281.295 -1.08275 -1.19018 0
M  V30 3011 O 282.487 -1.34388 -1.15191 0
M  V30 3012 C 279.616 -2.79478 -1.99366 0
M  V30 3013 C 278.702 -3.93114 -1.5913 0
M  V30 3014 N 279.093 -4.97752 -0.89872 0
M  V30 3015 C 277.391 -4.04345 -1.88204 0
M  V30 3016 C 278.092 -5.77473 -0.700012 0
M  V30 3017 N 277.068 -5.29207 -1.24263 0
M  V30 3018 H 280.87 -2.93015 -0.22793 0
M  V30 3019 H 278.384 -1.6238 -0.0253843 0
M  V30 3020 H 280.381 -3.19498 -2.67818 0
M  V30 3021 H 279.041 -2.02692 -2.53665 0
M  V30 3022 H 280.052 -5.14903 -0.556347 0
M  V30 3023 H 276.729 -3.38667 -2.44153 0
M  V30 3024 H 278.119 -6.71728 -0.152047 0
M  V30 3025 N 280.839 0.0985539 -1.57292 0
M  V30 3026 C 282.25 0.653457 -1.74891 0
M  V30 3027 C 282.601 1.7929 -0.796838 0
M  V30 3028 O 281.726 2.16385 0.0254886 0
M  V30 3029 C 282.321 1.19216 -3.17133 0
M  V30 3030 C 280.88 1.69316 -3.36168 0
M  V30 3031 C 280.027 0.601294 -2.70702 0
M  V30 3032 H 282.978 -0.127497 -1.58187 0
M  V30 3033 H 282.999 2.06154 -3.19814 0
M  V30 3034 H 282.511 0.362635 -3.86402 0
M  V30 3035 H 280.612 2.5468 -2.71972 0
M  V30 3036 H 280.725 1.78853 -4.44464 0
M  V30 3037 H 279.089 1.0399 -2.32504 0
M  V30 3038 H 279.872 -0.217592 -3.4261 0
M  V30 3039 N 282.317 1.53212 0.369288 0
M  V30 3040 C 283.542 1.73423 1.1375 0
M  V30 3041 C 283.967 0.460404 1.82378 0
M  V30 3042 O 283.325 -0.585298 1.71592 0
M  V30 3043 C 283.373 2.89769 2.1463 0
M  V30 3044 O 282.477 2.58119 3.21634 0
M  V30 3045 H 281.818 0.576061 0.330227 0
M  V30 3046 H 284.348 2.00083 0.427547 0
M  V30 3047 H 284.358 3.15829 2.58294 0
M  V30 3048 H 283.033 3.8217 1.64071 0
M  V30 3049 H 281.61 2.42864 2.82969 0
M  V30 3050 N 283.795 -0.628877 1.44509 0
M  V30 3051 C 284.725 -1.75187 1.54376 0
M  V30 3052 C 285.706 -1.65411 0.396618 0
M  V30 3053 O 286.891 -1.84137 0.617031 0
M  V30 3054 C 284.021 -3.13725 1.48976 0
M  V30 3055 C 282.975 -3.38291 2.62189 0
M  V30 3056 C 282.301 -4.76883 2.41841 0
M  V30 3057 C 283.601 -3.30632 4.04326 0
M  V30 3058 H 285.295 -1.67187 2.48373 0
M  V30 3059 H 282.841 -0.802909 1.19538 0
M  V30 3060 H 284.794 -3.92064 1.54478 0
M  V30 3061 H 283.518 -3.22515 0.514961 0
M  V30 3062 H 282.177 -2.62334 2.56079 0
M  V30 3063 H 281.825 -4.82378 1.42548 0
M  V30 3064 H 281.525 -4.94278 3.17747 0
M  V30 3065 H 283.049 -5.57449 2.49165 0
M  V30 3066 H 284.463 -3.98873 4.11793 0
M  V30 3067 H 282.86 -3.59561 4.80454 0
M  V30 3068 H 283.93 -2.28404 4.27738 0
M  V30 3069 N 285.273 -1.31445 -0.869486 0
M  V30 3070 C 286.501 -1.24122 -1.65534 0
M  V30 3071 C 286.916 0.193387 -1.87807 0
M  V30 3072 O 286.273 1.12557 -1.43656 0
M  V30 3073 C 286.324 -1.98229 -3.02304 0
M  V30 3074 O 286.045 -3.3609 -2.81026 0
M  V30 3075 C 287.546 -1.97751 -3.96749 0
M  V30 3076 H 284.766 -0.428868 -0.516055 0
M  V30 3077 H 287.31 -1.73328 -1.08525 0
M  V30 3078 H 285.465 -1.52782 -3.56001 0
M  V30 3079 H 285.879 -3.7383 -3.67902 0
M  V30 3080 H 287.353 -2.54114 -4.90031 0
M  V30 3081 H 287.83 -0.960137 -4.28577 0
M  V30 3082 H 288.436 -2.43079 -3.48988 0
M  V30 3083 O 286.79 1.00619 -1.26325 0
M  V30 3084 H 287.481 1.62637 -1.05209 0
M  V30 END ATOM
M  V30 BEGIN BOND
M  V30 END BOND
M  V30 END CTAB
M  END
$$$$
