drugbank_target|Q9REC4 Aldehyde oxidoreductase (DB03300)
 OpenBabel12092120273D

  0  0  0     0  0            999 V3000
M  V30 BEGIN CTAB
M  V30 COUNTS 13653 13802 0 0 0
M  V30 BEGIN ATOM
M  V30 1 H -0.908 1.98254 -0.117106 0
M  V30 2 N 0 1.576 0 0
M  V30 3 C 0.933 2.03868 1.02534 0
M  V30 4 C 1.911 0.928543 1.3348 0
M  V30 5 O 3.095 1.19667 1.45644 0
M  V30 6 C 0.222 2.43627 2.35294 0
M  V30 7 C -0.732 3.65373 2.2001 0
M  V30 8 S 0.101 5.13292 1.52614 0
M  V30 9 C 1.257 5.56322 2.86805 0
M  V30 10 H 1.49 2.90518 0.631377 0
M  V30 11 H -0.977 1.52953 0.210867 0
M  V30 12 H 0.981 2.67203 3.11629 0
M  V30 13 H -0.358 1.57376 2.7183 0
M  V30 14 H -1.165 3.90944 3.18086 0
M  V30 15 H -1.563 3.418 1.51819 0
M  V30 16 H 0.729 5.58782 3.83104 0
M  V30 17 H 1.672 6.56266 2.65933 0
M  V30 18 H 2.08 4.83886 2.90714 0
M  V30 19 N 1.4781 -0.272755 1.55222 0
M  V30 20 C 2.3881 -1.35918 1.91216 0
M  V30 21 C 3.4041 -1.54026 0.809436 0
M  V30 22 O 4.5801 -1.68148 1.10852 0
M  V30 23 C 1.6451 -2.69834 2.17693 0
M  V30 24 C 0.7061 -2.6047 3.41253 0
M  V30 25 C -0.0609 -3.88 3.66458 0
M  V30 26 O 0.1621 -4.88693 2.94169 0
M  V30 27 O -0.9039 -3.88189 4.59992 0
M  V30 28 H 2.9221 -1.0839 2.83699 0
M  V30 29 H 0.5071 -0.471301 1.41771 0
M  V30 30 H 2.3891 -3.49017 2.36147 0
M  V30 31 H 1.0641 -2.97148 1.28392 0
M  V30 32 H -0.0289 -1.79663 3.28134 0
M  V30 33 H 1.3041 -2.38106 4.30774 0
M  V30 34 N 2.9562 -1.48159 -0.537278 0
M  V30 35 C 4.1842 -1.59454 -1.31841 0
M  V30 36 C 4.5992 -0.252065 -1.8711 0
M  V30 37 O 3.9562 0.757621 -1.66031 0
M  V30 38 C 4.0072 -2.63546 -2.47439 0
M  V30 39 O 3.7282 -3.92583 -1.94449 0
M  V30 40 C 5.2292 -2.85212 -3.39366 0
M  V30 41 H 2.4492 -0.53785 -0.401196 0
M  V30 42 H 4.9932 -1.93932 -0.648891 0
M  V30 43 H 3.1482 -2.31946 -3.1029 0
M  V30 44 H 3.5622 -4.49629 -2.70063 0
M  V30 45 H 5.0362 -3.61863 -4.16844 0
M  V30 46 H 5.5132 -1.93765 -3.94147 0
M  V30 47 H 6.1192 -3.18086 -2.82314 0
M  V30 48 N 4.4343 0.785586 -1.36625 0
M  V30 49 C 5.3813 1.89838 -1.31264 0
M  V30 50 C 6.3513 1.65115 -0.180633 0
M  V30 51 O 7.5363 1.87222 -0.36777 0
M  V30 52 C 4.6763 3.26706 -1.11163 0
M  V30 53 C 3.7893 3.63476 -2.33472 0
M  V30 54 C 2.9243 4.89481 -2.06353 0
M  V30 55 C 1.9633 5.18941 -3.24602 0
M  V30 56 N 1.1003 6.36131 -2.97123 0
M  V30 57 H 5.9403 1.93756 -2.26413 0
M  V30 58 H 3.4773 0.947454 -1.12524 0
M  V30 59 H 5.4353 4.05639 -0.975337 0
M  V30 60 H 4.0653 3.222 -0.196674 0
M  V30 61 H 3.1173 2.79636 -2.57891 0
M  V30 62 H 4.4293 3.81193 -3.21704 0
M  V30 63 H 3.5833 5.76288 -1.89675 0
M  V30 64 H 2.3223 4.73841 -1.15437 0
M  V30 65 H 1.3273 4.30615 -3.41834 0
M  V30 66 H 2.5523 5.36498 -4.16349 0
M  V30 67 H 0.4983 6.21875 -2.08823 0
M  V30 68 H 0.4153 6.54198 -3.78894 0
M  V30 69 H 1.6833 7.2591 -2.84033 0
M  V30 70 N 5.9124 1.20967 1.01018 0
M  V30 71 C 7.1404 1.04956 1.78303 0
M  V30 72 C 7.5554 -0.400915 1.84494 0
M  V30 73 O 6.9124 -1.27826 1.30257 0
M  V30 74 C 6.9634 1.63403 3.22462 0
M  V30 75 O 6.6844 3.02775 3.16637 0
M  V30 76 C 8.1854 1.52432 4.16268 0
M  V30 77 H 5.4054 0.368858 0.560522 0
M  V30 78 H 7.9494 1.60193 1.27116 0
M  V30 79 H 6.1044 1.1227 3.70775 0
M  V30 80 H 6.5184 3.30626 4.07169 0
M  V30 81 H 7.9924 1.98078 5.15237 0
M  V30 82 H 8.4694 0.477875 4.36592 0
M  V30 83 H 9.0754 2.02787 3.73841 0
M  V30 84 N 7.3905 -1.2043 1.01659 0
M  V30 85 C 8.3205 -2.25466 0.607226 0
M  V30 86 C 9.3015 -1.65853 -0.377716 0
M  V30 87 O 10.4865 -1.92409 -0.263149 0
M  V30 88 C 7.6165 -3.47256 -0.0552949 0
M  V30 89 C 6.5705 -4.19462 0.850632 0
M  V30 90 C 5.8965 -5.34673 0.0538859 0
M  V30 91 C 7.1965 -4.75603 2.15868 0
M  V30 92 H 8.8905 -2.59962 1.48526 0
M  V30 93 H 6.4365 -1.2496 0.715605 0
M  V30 94 H 8.3895 -4.19917 -0.353233 0
M  V30 95 H 7.1135 -3.11924 -0.968045 0
M  V30 96 H 5.7725 -3.48667 1.13257 0
M  V30 97 H 5.4205 -4.95585 -0.860514 0
M  V30 98 H 5.1205 -5.83913 0.657192 0
M  V30 99 H 6.6445 -6.10138 -0.237598 0
M  V30 100 H 8.0585 -5.40083 1.92311 0
M  V30 101 H 6.4555 -5.3528 2.71284 0
M  V30 102 H 7.5255 -3.94346 2.82169 0
M  V30 103 N 8.8686 -0.792821 -1.36206 0
M  V30 104 C 10.1176 -0.363353 -1.984 0
M  V30 105 C 10.4306 1.07172 -1.63626 0
M  V30 106 O 11.6366 1.60362 -2.19081 0
M  V30 107 C 10.0926 -0.59872 -3.54885 0
M  V30 108 C 9.7006 -2.04543 -3.9858 0
M  V30 109 C 11.4446 -0.233926 -4.23855 0
M  V30 110 C 9.3516 -2.22727 -5.47856 0
M  V30 111 H 8.2816 -0.13212 -0.742334 0
M  V30 112 H 10.9326 -0.974935 -1.55458 0
M  V30 113 H 9.3146 0.0826222 -3.95914 0
M  V30 114 H 10.4886 -2.76345 -3.68741 0
M  V30 115 H 8.8036 -2.36879 -3.42458 0
M  V30 116 H 11.4006 -0.348027 -5.33566 0
M  V30 117 H 11.7436 0.818351 -4.08177 0
M  V30 118 H 12.2766 -0.868639 -3.882 0
M  V30 119 H 9.0156 -3.2635 -5.68486 0
M  V30 120 H 8.5356 -1.55434 -5.7931 0
M  V30 121 H 10.2146 -2.03607 -6.14128 0
M  V30 122 N 10.3467 1.47872 -0.545128 0
M  V30 123 C 11.5927 2.02793 -0.0166104 0
M  V30 124 C 11.9257 1.41987 1.32489 0
M  V30 125 O 11.2007 0.571045 1.85928 0
M  V30 126 C 11.4837 3.59989 0.0893294 0
M  V30 127 C 11.3367 4.3125 -1.27841 0
M  V30 128 C 12.6557 4.32606 0.808724 0
M  V30 129 H 9.7747 0.736962 -0.00751035 0
M  V30 130 H 12.4167 1.76433 -0.705085 0
M  V30 131 H 10.5667 3.82579 0.675681 0
M  V30 132 H 12.2387 4.20035 -1.90704 0
M  V30 133 H 10.4817 3.92076 -1.85632 0
M  V30 134 H 11.1527 5.39736 -1.15713 0
M  V30 135 H 13.6287 4.14936 0.310992 0
M  V30 136 H 12.5047 5.42251 0.851782 0
M  V30 137 H 12.7657 4.00963 1.86229 0
M  V30 138 N 11.8248 0.280983 1.55075 0
M  V30 139 C 12.7728 -0.619864 2.24188 0
M  V30 140 C 13.7668 -1.15315 1.24092 0
M  V30 141 O 14.9728 -1.1061 1.42005 0
M  V30 142 H 11.3478 -0.218459 0.719569 0
M  V30 143 H 13.3188 -0.0141831 2.98397 0
M  V30 144 C 12.0678 -1.7899 2.98091 0
M  V30 145 H 11.3908 -1.38874 3.74905 0
M  V30 146 H 12.8308 -2.39672 3.49762 0
M  V30 147 C 11.2898 -2.68192 2.03899 0
M  V30 148 O 11.8198 -3.6872 1.594 0
M  V30 149 N 10.0258 -2.35488 1.70275 0
M  V30 150 H 9.5728 -1.53787 2.06658 0
M  V30 151 H 9.5308 -2.95442 1.07524 0
M  V30 152 N 13.3029 -1.57598 0.00835791 0
M  V30 153 C 14.5509 -1.90551 -0.6734 0
M  V30 154 C 14.8719 -0.883301 -1.73847 0
M  V30 155 O 14.1419 0.0781442 -1.95744 0
M  V30 156 H 12.7219 -0.703312 -0.251717 0
M  V30 157 H 15.3839 -1.94833 0.0512592 0
M  V30 158 H 14.4799 -2.9056 -1.13935 0
M  V30 159 N 14.781 0.264519 -1.55364 0
M  V30 160 C 15.714 1.35297 -1.83766 0
M  V30 161 C 16.692 1.47171 -0.691336 0
M  V30 162 O 17.876 1.63663 -0.935238 0
M  V30 163 C 15.003 2.72847 -2.00679 0
M  V30 164 C 14.049 2.78214 -3.23263 0
M  V30 165 S 14.882 2.36601 -4.80396 0
M  V30 166 C 16.038 3.7611 -5.00292 0
M  V30 167 H 16.271 1.11003 -2.758 0
M  V30 168 H 13.804 0.464596 -1.47244 0
M  V30 169 H 15.762 3.52057 -2.11108 0
M  V30 170 H 14.423 2.94388 -1.09518 0
M  V30 171 H 13.616 3.7919 -3.3201 0
M  V30 172 H 13.218 2.07034 -3.11469 0
M  V30 173 H 15.51 4.71457 -4.86554 0
M  V30 174 H 16.453 3.7231 -6.02321 0
M  V30 175 H 16.861 3.67806 -4.28228 0
M  V30 176 N 16.2591 1.48442 0.529413 0
M  V30 177 C 17.2221 1.62524 1.61612 0
M  V30 178 C 18.2221 0.498509 1.52877 0
M  V30 179 O 19.4121 0.76431 1.56537 0
M  V30 180 C 16.5441 1.59597 3.01233 0
M  V30 181 H 17.7371 2.59423 1.50465 0
M  V30 182 H 15.2901 1.37047 0.751514 0
M  V30 183 H 16.0251 0.641781 3.17886 0
M  V30 184 H 15.8101 2.41397 3.08982 0
M  V30 185 H 17.3001 1.72646 3.80241 0
M  V30 186 N 17.7372 -0.778329 1.37039 0
M  V30 187 C 19.1532 -1.07796 1.17695 0
M  V30 188 C 19.3532 -2.01498 0.00860115 0
M  V30 189 O 18.4092 -2.43901 -0.653352 0
M  V30 190 C 19.7222 -1.68178 2.49272 0
M  V30 191 C 21.2702 -1.80467 2.55735 0
M  V30 192 C 21.7452 -2.44263 3.87427 0
M  V30 193 N 23.2362 -2.51721 3.88833 0
M  V30 194 C 23.9712 -3.01919 4.87476 0
M  V30 195 N 23.4672 -3.5234 5.96513 0
M  V30 196 N 25.2602 -3.00733 4.74885 0
M  V30 197 H 17.4112 -0.156032 2.11826 0
M  V30 198 H 19.6742 -0.131844 0.938787 0
M  V30 199 H 19.3802 -1.06796 3.35093 0
M  V30 200 H 19.2542 -2.67554 2.65885 0
M  V30 201 H 21.6412 -2.40984 1.70325 0
M  V30 202 H 21.7222 -0.798656 2.43013 0
M  V30 203 H 21.3662 -1.84388 4.73248 0
M  V30 204 H 21.2962 -3.45458 3.9745 0
M  V30 205 H 23.7872 -2.1603 3.10063 0
M  V30 206 H 24.1002 -3.89027 6.67741 0
M  V30 207 H 22.4452 -3.50462 6.00168 0
M  V30 208 H 25.6362 -2.60638 3.88826 0
M  V30 209 H 25.8092 -3.39545 5.51918 0
M  V30 210 N 19.2153 -1.21501 -1.00376 0
M  V30 211 C 20.6313 -0.972629 -1.26539 0
M  V30 212 C 20.8313 0.340257 -1.98606 0
M  V30 213 O 19.8873 1.06561 -2.28913 0
M  V30 214 C 21.2003 -2.16404 -2.08781 0
M  V30 215 C 22.7483 -2.20643 -2.22004 0
M  V30 216 C 23.2233 -3.39306 -3.07629 0
M  V30 217 N 24.7143 -3.39401 -3.15217 0
M  V30 218 C 25.4493 -4.27867 -3.81729 0
M  V30 219 N 24.9453 -5.26533 -4.5026 0
M  V30 220 N 26.7383 -4.15672 -3.78382 0
M  V30 221 H 18.8893 -2.05929 -0.520281 0
M  V30 222 H 21.1523 -0.901803 -0.292328 0
M  V30 223 H 20.8583 -3.11554 -1.63178 0
M  V30 224 H 20.7323 -2.15567 -3.09533 0
M  V30 225 H 23.1193 -1.26048 -2.66825 0
M  V30 226 H 23.2003 -2.25523 -1.20718 0
M  V30 227 H 22.8443 -4.34195 -2.63509 0
M  V30 228 H 22.7743 -3.31665 -4.09031 0
M  V30 229 H 25.2653 -2.67997 -2.66432 0
M  V30 230 H 25.5783 -5.90337 -4.98721 0
M  V30 231 H 23.9233 -5.30457 -4.49044 0
M  V30 232 H 27.1143 -3.3785 -3.23998 0
M  V30 233 H 27.2873 -4.84825 -4.2994 0
M  V30 234 N 20.6934 1.19889 -1.02296 0
M  V30 235 C 21.6234 2.25141 -0.619174 0
M  V30 236 C 22.6044 1.66051 0.368915 0
M  V30 237 O 23.7894 1.92546 0.252941 0
M  V30 238 C 20.9194 3.4728 0.0368783 0
M  V30 239 C 19.8734 4.19005 -0.872865 0
M  V30 240 C 19.1994 5.34637 -0.0822402 0
M  V30 241 C 20.4994 4.74452 -2.18387 0
M  V30 242 H 22.1934 2.59171 -1.49903 0
M  V30 243 H 19.7394 1.24579 -0.722222 0
M  V30 244 H 21.6924 4.20098 0.330958 0
M  V30 245 H 20.4164 3.12433 0.95149 0
M  V30 246 H 19.0754 3.48061 -1.15105 0
M  V30 247 H 18.7234 4.96034 0.83422 0
M  V30 248 H 18.4234 5.83557 -0.688149 0
M  V30 249 H 19.9474 6.10255 0.205238 0
M  V30 250 H 21.3614 5.39055 -1.95172 0
M  V30 251 H 19.7584 5.33834 -2.74119 0
M  V30 252 H 20.8284 3.92844 -2.84257 0
M  V30 253 N 22.1715 0.800033 1.35784 0
M  V30 254 C 23.1015 0.220184 2.3246 0
M  V30 255 C 24.0825 -0.65073 1.57161 0
M  V30 256 O 25.2675 -0.582359 1.85263 0
M  V30 257 C 22.3975 -0.637353 3.41402 0
M  V30 258 C 21.3515 0.134531 4.27789 0
M  V30 259 C 20.6775 -0.844285 5.27992 0
M  V30 260 C 21.9775 1.32979 5.05088 0
M  V30 261 H 23.6715 1.02787 2.81203 0
M  V30 262 H 21.2175 0.495717 1.35199 0
M  V30 263 H 23.1705 -1.05302 4.08031 0
M  V30 264 H 21.8945 -1.47785 2.91251 0
M  V30 265 H 20.5535 0.531296 3.6273 0
M  V30 266 H 20.2015 -1.68011 4.74111 0
M  V30 267 H 19.9015 -0.332184 5.8666 0
M  V30 268 H 21.4255 -1.2583 5.97494 0
M  V30 269 H 22.8395 0.98934 5.64699 0
M  V30 270 H 21.2365 1.77593 5.7322 0
M  V30 271 H 22.3065 2.11978 4.36111 0
M  V30 272 N 23.6496 -1.47581 0.552962 0
M  V30 273 C 24.8956 -2.02782 0.0273648 0
M  V30 274 C 25.2286 -1.42687 -1.31734 0
M  V30 275 O 24.5036 -0.580897 -1.85623 0
M  V30 276 C 24.7866 -3.60031 -0.0702371 0
M  V30 277 C 24.6396 -4.30566 1.30126 0
M  V30 278 C 25.9586 -4.33028 -0.785771 0
M  V30 279 H 23.0776 -0.736912 0.0114185 0
M  V30 280 H 25.7196 -1.76056 0.714432 0
M  V30 281 H 23.8696 -3.82932 -0.655382 0
M  V30 282 H 25.5416 -4.19018 1.92929 0
M  V30 283 H 23.7846 -3.91086 1.87709 0
M  V30 284 H 24.4556 -5.39114 1.18573 0
M  V30 285 H 26.9316 -4.15095 -0.288982 0
M  V30 286 H 25.8076 -5.42695 -0.823013 0
M  V30 287 H 26.0686 -4.01945 -1.841 0
M  V30 288 N 25.1277 -0.289203 -1.54924 0
M  V30 289 C 26.3527 0.329299 -2.04769 0
M  V30 290 C 26.7777 1.4763 -1.16564 0
M  V30 291 O 26.1357 1.80527 -0.167186 0
M  V30 292 C 26.1837 0.774438 -3.52186 0
M  V30 293 O 25.2877 1.88038 -3.67036 0
M  V30 294 H 24.6287 0.0659259 -0.660719 0
M  V30 295 H 27.1587 -0.42761 -2.00082 0
M  V30 296 H 27.1687 1.06642 -3.93816 0
M  V30 297 H 25.8437 -0.0646707 -4.1585 0
M  V30 298 H 24.4207 1.58985 -3.3731 0
M  V30 299 N 26.6058 1.57591 -0.0167156 0
M  V30 300 C 28.0168 1.79201 0.523834 0
M  V30 301 C 28.3678 0.925796 1.72984 0
M  V30 302 O 27.4928 0.132792 2.15992 0
M  V30 303 C 28.0878 3.25 0.957091 0
M  V30 304 C 26.6468 3.47648 1.44283 0
M  V30 305 C 25.7938 2.74374 0.401757 0
M  V30 306 H 28.7448 1.56831 -0.242816 0
M  V30 307 H 28.7658 3.34031 1.82219 0
M  V30 308 H 28.2778 3.88019 0.0791415 0
M  V30 309 H 26.3788 2.89866 2.34113 0
M  V30 310 H 26.4918 4.56352 1.45877 0
M  V30 311 H 24.8558 2.39485 0.867121 0
M  V30 312 H 25.6388 3.40102 -0.467513 0
M  V30 313 N 28.0839 -0.256276 1.55502 0
M  V30 314 C 29.0319 -1.33694 1.90338 0
M  V30 315 C 30.0259 -1.50299 0.781441 0
M  V30 316 O 31.2319 -1.51885 0.965966 0
M  V30 317 H 27.6069 -0.447483 0.60437 0
M  V30 318 H 29.5779 -1.01574 2.8058 0
M  V30 319 C 28.3269 -2.68724 2.20642 0
M  V30 320 H 27.6499 -2.56743 3.06469 0
M  V30 321 H 29.0899 -3.43237 2.48926 0
M  V30 322 C 27.5489 -3.21101 1.01959 0
M  V30 323 O 28.0789 -4.0084 0.262762 0
M  V30 324 N 26.2849 -2.79003 0.812746 0
M  V30 325 H 25.8319 -2.14271 1.42989 0
M  V30 326 H 25.7899 -3.14393 0.0203076 0
M  V30 327 N 29.562 -1.4872 -0.521534 0
M  V30 328 C 30.839 -1.4766 -1.2828 0
M  V30 329 C 31.219 -0.19292 -2.10217 0
M  V30 330 O 30.567 0.825193 -2.13079 0
M  V30 331 C 30.777 -2.74358 -2.15705 0
M  V30 332 C 32.125 -3.23028 -2.75569 0
M  V30 333 O 33.149 -2.75333 -2.25987 0
M  V30 334 O 32.008 -4.0604 -3.65778 0
M  V30 335 H 29.102 -0.590085 -0.579421 0
M  V30 336 H 31.648 -1.60963 -0.537492 0
M  V30 337 H 30.42 -3.59292 -1.54999 0
M  V30 338 H 30.043 -2.63816 -2.97467 0
M  V30 339 N 31.0401 0.771051 -1.3745 0
M  V30 340 C 31.9701 1.89827 -1.3597 0
M  V30 341 C 32.9511 1.68562 -0.228216 0
M  V30 342 O 34.1361 1.8941 -0.428675 0
M  V30 343 C 31.2661 3.2712 -1.16662 0
M  V30 344 C 30.2201 3.6295 -2.2683 0
M  V30 345 C 29.5461 4.98791 -1.92644 0
M  V30 346 C 30.8461 3.69627 -3.69017 0
M  V30 347 H 32.5401 1.91323 -2.30295 0
M  V30 348 H 30.0861 0.919082 -1.10855 0
M  V30 349 H 32.0391 4.05615 -1.14256 0
M  V30 350 H 30.7631 3.26059 -0.187926 0
M  V30 351 H 29.4221 2.86763 -2.28392 0
M  V30 352 H 29.0701 4.94271 -0.933021 0
M  V30 353 H 28.7701 5.23733 -2.66416 0
M  V30 354 H 30.2941 5.79685 -1.91826 0
M  V30 355 H 31.7081 4.38273 -3.69581 0
M  V30 356 H 30.1051 4.06067 -4.41848 0
M  V30 357 H 31.1751 2.70273 -4.02592 0
M  V30 358 N 32.5182 1.22032 0.997298 0
M  V30 359 C 33.4482 1.01065 2.10495 0
M  V30 360 C 34.4292 -0.0669542 1.69968 0
M  V30 361 O 35.6142 0.0943987 1.9397 0
M  V30 362 C 32.7442 0.582874 3.42374 0
M  V30 363 C 31.6982 1.60592 3.96729 0
M  V30 364 C 31.0242 1.03412 5.24605 0
M  V30 365 C 32.3242 2.99478 4.27914 0
M  V30 366 H 34.0182 1.93708 2.28292 0
M  V30 367 H 31.5642 0.932761 1.09707 0
M  V30 368 H 33.5172 0.423332 4.19268 0
M  V30 369 H 32.2412 -0.379213 3.24391 0
M  V30 370 H 30.9002 1.75316 3.21963 0
M  V30 371 H 30.5482 0.063518 5.0296 0
M  V30 372 H 30.2482 1.71754 5.61938 0
M  V30 373 H 31.7722 0.886066 6.04137 0
M  V30 374 H 33.1862 2.88153 4.95622 0
M  V30 375 H 31.5832 3.64903 4.76409 0
M  V30 376 H 32.6532 3.49742 3.3587 0
M  V30 377 N 33.9963 -1.19345 1.0293 0
M  V30 378 C 35.2423 -1.89318 0.727083 0
M  V30 379 C 35.5753 -1.79446 -0.742483 0
M  V30 380 O 34.8503 -1.1871 -1.54072 0
M  V30 381 C 35.1333 -3.40238 1.17942 0
M  V30 382 C 34.9863 -3.58979 2.71024 0
M  V30 383 C 36.3053 -4.33479 0.760548 0
M  V30 384 H 33.4243 -0.687475 0.265606 0
M  V30 385 H 36.0663 -1.40477 1.2793 0
M  V30 386 H 34.2163 -3.81964 0.709608 0
M  V30 387 H 35.8883 -3.26421 3.25955 0
M  V30 388 H 34.1313 -3.02018 3.11396 0
M  V30 389 H 34.8023 -4.64823 2.9773 0
M  V30 390 H 37.2783 -3.99469 1.16464 0
M  V30 391 H 36.1543 -5.37664 1.10493 0
M  V30 392 H 36.4153 -4.40813 -0.337063 0
M  V30 393 N 35.4744 -0.807222 -1.35358 0
M  V30 394 C 36.7514 -0.311126 -1.9311 0
M  V30 395 C 37.1314 1.19937 -1.73719 0
M  V30 396 O 36.4794 1.99918 -1.10657 0
M  V30 397 C 36.6894 -0.723226 -3.41424 0
M  V30 398 C 38.0374 -0.713078 -4.18569 0
M  V30 399 O 39.0614 -0.664811 -3.49941 0
M  V30 400 O 37.9204 -0.772022 -5.41019 0
M  V30 401 H 35.0144 -0.081526 -0.822972 0
M  V30 402 H 37.5604 -0.890962 -1.4443 0
M  V30 403 H 36.3324 -1.76426 -3.4927 0
M  V30 404 H 35.9554 -0.118232 -3.97424 0
M  V30 405 N 36.9525 1.47285 -0.560781 0
M  V30 406 C 38.1985 2.02764 -0.0381184 0
M  V30 407 C 38.5315 1.43384 1.30976 0
M  V30 408 O 37.8065 0.590733 1.85312 0
M  V30 409 C 38.0895 3.60064 0.0511427 0
M  V30 410 C 37.9425 4.2987 -1.32408 0
M  V30 411 C 39.2615 4.33439 0.762795 0
M  V30 412 H 36.3805 0.736841 -0.0153264 0
M  V30 413 H 39.0225 1.75675 -0.723759 0
M  V30 414 H 37.1725 3.83274 0.635065 0
M  V30 415 H 38.8445 4.17989 -1.95148 0
M  V30 416 H 37.0875 3.90085 -1.8978 0
M  V30 417 H 37.7585 5.38478 -1.21431 0
M  V30 418 H 40.2345 4.15243 0.266965 0
M  V30 419 H 39.1105 5.43124 0.794221 0
M  V30 420 H 39.3715 4.02915 1.81966 0
M  V30 421 N 38.4306 0.297415 1.54768 0
M  V30 422 C 39.3606 -0.573494 2.26348 0
M  V30 423 C 40.3416 -1.14085 1.26169 0
M  V30 424 O 41.5266 -1.17086 1.54934 0
M  V30 425 C 38.6566 -1.74716 3.00153 0
M  V30 426 C 37.6106 -1.31032 4.07449 0
M  V30 427 C 36.9366 -2.56887 4.68949 0
M  V30 428 C 38.2366 -0.444183 5.20408 0
M  V30 429 H 39.9306 0.0235131 2.99391 0
M  V30 430 H 37.4766 0.0127488 1.43994 0
M  V30 431 H 39.4296 -2.3625 3.48947 0
M  V30 432 H 38.1536 -2.37035 2.24682 0
M  V30 433 H 36.8126 -0.718066 3.59499 0
M  V30 434 H 36.4606 -3.17512 3.90122 0
M  V30 435 H 36.1606 -2.2836 5.41411 0
M  V30 436 H 37.6846 -3.19229 5.20505 0
M  V30 437 H 39.0986 -0.9651 5.65118 0
M  V30 438 H 37.4956 -0.252846 5.99567 0
M  V30 439 H 38.5656 0.531609 4.81977 0
M  V30 440 N 39.9087 -1.5758 0.0250728 0
M  V30 441 C 41.3247 -1.56124 -0.331282 0
M  V30 442 C 41.5247 -1.03029 -1.73169 0
M  V30 443 O 40.5807 -0.675215 -2.43305 0
M  V30 444 C 41.8937 -3.00139 -0.183584 0
M  V30 445 C 43.4417 -3.11946 -0.256654 0
M  V30 446 C 43.9167 -4.57793 -0.137792 0
M  V30 447 N 45.4077 -4.6279 -0.194904 0
M  V30 448 C 46.1427 -5.7326 -0.126655 0
M  V30 449 N 45.6387 -6.928 -0.00755288 0
M  V30 450 N 47.4317 -5.61811 -0.180348 0
M  V30 451 H 39.5827 -1.90424 0.94087 0
M  V30 452 H 41.8457 -0.875761 0.362968 0
M  V30 453 H 41.5517 -3.4292 0.780927 0
M  V30 454 H 41.4257 -3.64899 -0.955448 0
M  V30 455 H 43.8127 -2.69079 -1.21162 0
M  V30 456 H 43.8937 -2.49915 0.545517 0
M  V30 457 H 43.5377 -5.01339 0.813739 0
M  V30 458 H 43.4677 -5.17798 -0.958775 0
M  V30 459 H 45.9587 -3.76807 -0.287267 0
M  V30 460 H 46.2717 -7.72791 0.0379428 0
M  V30 461 H 44.6167 -6.94995 0.0271731 0
M  V30 462 H 47.8077 -4.6731 -0.271767 0
M  V30 463 H 47.9807 -6.47882 -0.123697 0
M  V30 464 N 41.3868 0.248026 -1.55636 0
M  V30 465 C 42.6118 0.998028 -1.81808 0
M  V30 466 C 43.0368 1.78207 -0.601979 0
M  V30 467 O 42.3948 1.75653 0.448961 0
M  V30 468 C 42.4428 1.9125 -3.05705 0
M  V30 469 O 41.5468 3.00406 -2.82542 0
M  V30 470 H 40.8878 0.284045 -0.600179 0
M  V30 471 H 43.4178 0.269357 -2.02819 0
M  V30 472 H 43.4278 2.32737 -3.35108 0
M  V30 473 H 42.1028 1.33602 -3.93857 0
M  V30 474 H 40.6798 2.63056 -2.64303 0
M  V30 475 N 42.8649 1.48995 0.513639 0
M  V30 476 C 43.7969 1.60836 1.63293 0
M  V30 477 C 44.8099 0.491701 1.55197 0
M  V30 478 O 45.9989 0.763238 1.6136 0
M  V30 479 C 43.0989 1.53731 3.02027 0
M  V30 480 C 42.2719 2.80715 3.35437 0
M  V30 481 C 41.3309 2.66837 4.53525 0
M  V30 482 O 40.3569 3.40753 4.55934 0
M  V30 483 N 41.5589 1.77539 5.52684 0
M  V30 484 H 44.3239 2.57366 1.53566 0
M  V30 485 H 41.8849 1.45925 0.701259 0
M  V30 486 H 43.8769 1.42118 3.78926 0
M  V30 487 H 42.4469 0.651092 3.05744 0
M  V30 488 H 41.6669 3.06772 2.47557 0
M  V30 489 H 42.9549 3.64927 3.54551 0
M  V30 490 H 42.3529 1.16719 5.53528 0
M  V30 491 H 40.9099 1.71856 6.28736 0
M  V30 492 N 44.343 -0.763751 1.37857 0
M  V30 493 C 45.273 -1.89103 1.36975 0
M  V30 494 C 46.254 -1.68439 0.237152 0
M  V30 495 O 47.439 -1.8918 0.438713 0
M  V30 496 C 44.569 -3.26496 1.18395 0
M  V30 497 C 43.523 -3.61741 2.28751 0
M  V30 498 C 42.849 -4.97762 1.95286 0
M  V30 499 C 44.149 -3.67665 3.70972 0
M  V30 500 H 45.843 -1.90099 2.31307 0
M  V30 501 H 43.389 -0.91319 1.11341 0
M  V30 502 H 45.342 -4.05003 1.16406 0
M  V30 503 H 44.066 -3.25955 0.205215 0
M  V30 504 H 42.725 -2.85547 2.29909 0
M  V30 505 H 42.373 -4.93769 0.959221 0
M  V30 506 H 42.073 -5.22313 2.69189 0
M  V30 507 H 43.597 -5.7866 1.94898 0
M  V30 508 H 45.011 -4.36307 3.719 0
M  V30 509 H 43.408 -4.03718 4.43995 0
M  V30 510 H 44.478 -2.68134 4.0402 0
M  V30 511 N 45.8211 -1.22559 -0.990812 0
M  V30 512 C 46.7531 -0.955325 -2.08342 0
M  V30 513 C 47.7661 0.0668408 -1.62663 0
M  V30 514 O 48.9551 -0.167421 -1.77713 0
M  V30 515 C 46.0551 -0.415566 -3.36342 0
M  V30 516 C 45.2281 -1.49544 -4.11042 0
M  V30 517 C 44.2871 -0.962399 -5.17324 0
M  V30 518 O 43.3131 -1.64907 -5.44788 0
M  V30 519 N 44.5151 0.215134 -5.80101 0
M  V30 520 H 47.2801 -1.89596 -2.32106 0
M  V30 521 H 44.8411 -1.13276 -1.15673 0
M  V30 522 H 46.8331 -0.0442386 -4.04676 0
M  V30 523 H 45.4031 0.430232 -3.09625 0
M  V30 524 H 44.6231 -2.04 -3.37309 0
M  V30 525 H 45.9111 -2.22195 -4.57719 0
M  V30 526 H 45.3091 0.789779 -5.6016 0
M  V30 527 H 43.8661 0.527826 -6.49659 0
M  V30 528 N 47.2992 1.18797 -1.03562 0
M  V30 529 C 48.2292 2.24472 -0.643019 0
M  V30 530 C 49.2102 1.66433 0.351283 0
M  V30 531 O 50.3952 1.92803 0.232505 0
M  V30 532 C 47.5252 3.473 4.24935e-05 0
M  V30 533 C 46.4792 4.18055 -0.917257 0
M  V30 534 C 45.8052 5.34519 -0.138941 0
M  V30 535 C 47.1052 4.72109 -2.23407 0
M  V30 536 H 48.7992 2.57566 -1.52643 0
M  V30 537 H 46.3452 1.23806 -0.735394 0
M  V30 538 H 48.2982 4.20426 0.286383 0
M  V30 539 H 47.0222 3.13424 0.918299 0
M  V30 540 H 45.6812 3.46821 -1.1879 0
M  V30 541 H 45.3292 4.96891 0.781562 0
M  V30 542 H 45.0292 5.82794 -0.750005 0
M  V30 543 H 46.5532 6.10438 0.1405 0
M  V30 544 H 47.9672 5.36955 -2.00879 0
M  V30 545 H 46.3642 5.30897 -2.79765 0
M  V30 546 H 47.4342 3.89807 -2.88407 0
M  V30 547 N 48.7773 0.814389 1.34928 0
M  V30 548 C 50.0053 0.411136 2.02774 0
M  V30 549 C 50.4203 -0.980316 1.61354 0
M  V30 550 O 49.7773 -1.63299 0.814847 0
M  V30 551 C 49.8283 0.493865 3.58111 0
M  V30 552 O 49.5493 1.83047 3.98027 0
M  V30 553 C 51.0503 0.0844174 4.4322 0
M  V30 554 H 48.2703 0.166037 0.650133 0
M  V30 555 H 50.8143 1.10018 1.72384 0
M  V30 556 H 48.9693 -0.147006 3.87121 0
M  V30 557 H 49.3833 1.79872 4.92693 0
M  V30 558 H 50.8573 0.193404 5.51661 0
M  V30 559 H 51.3343 -0.97113 4.28329 0
M  V30 560 H 51.9403 0.69875 4.19521 0
M  V30 561 N 50.2554 -1.46986 0.568584 0
M  V30 562 C 51.4804 -2.07335 0.0520528 0
M  V30 563 C 51.9054 -1.41675 -1.23733 0
M  V30 564 O 51.2634 -0.495623 -1.74394 0
M  V30 565 C 51.3114 -3.60417 -0.11501 0
M  V30 566 O 50.4154 -3.95309 -1.17492 0
M  V30 567 H 49.7564 -0.661597 0.0564385 0
M  V30 568 H 52.2864 -1.88837 0.787507 0
M  V30 569 H 52.2964 -4.06698 -0.325644 0
M  V30 570 H 50.9714 -4.07601 0.826675 0
M  V30 571 H 49.5484 -3.60757 -0.943869 0
M  V30 572 N 51.7335 -0.305618 -1.54608 0
M  V30 573 C 52.9795 0.302746 -2.00528 0
M  V30 574 C 53.3125 1.53184 -1.19367 0
M  V30 575 O 52.5875 1.92598 -0.271321 0
M  V30 576 C 52.8705 0.654756 -3.54097 0
M  V30 577 C 52.7235 -0.583793 -4.45995 0
M  V30 578 C 54.0425 1.47947 -4.14487 0
M  V30 579 H 51.1615 0.108564 -0.72896 0
M  V30 580 H 53.8035 -0.418634 -1.85331 0
M  V30 581 H 51.9535 1.26935 -3.67178 0
M  V30 582 H 53.6255 -1.22224 -4.44814 0
M  V30 583 H 51.8685 -1.21615 -4.16404 0
M  V30 584 H 52.5395 -0.293287 -5.5122 0
M  V30 585 H 55.0155 0.96013 -4.04871 0
M  V30 586 H 53.8915 1.69454 -5.22088 0
M  V30 587 H 54.1525 2.47011 -3.66658 0
M  V30 588 N 53.2116 1.57565 -0.0334293 0
M  V30 589 C 54.1586 2.10478 0.946981 0
M  V30 590 C 55.1286 1.00787 1.32027 0
M  V30 591 O 56.3136 1.28232 1.41284 0
M  V30 592 C 53.4536 2.63994 2.22263 0
M  V30 593 C 52.5666 3.87709 1.90541 0
M  V30 594 C 51.7016 4.29604 3.12433 0
M  V30 595 C 50.7406 5.46065 2.76549 0
M  V30 596 N 49.8776 5.83096 3.9108 0
M  V30 597 H 54.7176 2.93963 0.488846 0
M  V30 598 H 52.2546 1.45296 0.22969 0
M  V30 599 H 54.2126 2.93114 2.96884 0
M  V30 600 H 52.8426 1.83333 2.65685 0
M  V30 601 H 51.8946 3.65291 1.06144 0
M  V30 602 H 53.2066 4.72403 1.60116 0
M  V30 603 H 52.3606 4.60182 3.9537 0
M  V30 604 H 51.0996 3.43685 3.46023 0
M  V30 605 H 50.1046 5.15176 1.92026 0
M  V30 606 H 51.3296 6.33685 2.44171 0
M  V30 607 H 49.2756 5.00132 4.24504 0
M  V30 608 H 49.1926 6.6244 3.64293 0
M  V30 609 H 50.4606 6.18282 4.74708 0
M  V30 610 N 54.6897 -0.239769 1.55765 0
M  V30 611 C 55.9357 -0.968234 1.78194 0
M  V30 612 C 56.2687 -1.84701 0.599938 0
M  V30 613 O 55.5437 -1.9031 -0.401524 0
M  V30 614 C 55.8267 -1.8227 3.10564 0
M  V30 615 C 55.6797 -0.971633 4.3918 0
M  V30 616 C 56.9987 -2.80388 3.39221 0
M  V30 617 H 54.1177 -0.350572 0.648281 0
M  V30 618 H 56.7597 -0.238259 1.885 0
M  V30 619 H 54.9097 -2.44507 3.01908 0
M  V30 620 H 56.5817 -0.367408 4.59835 0
M  V30 621 H 54.8247 -0.276276 4.32919 0
M  V30 622 H 55.4957 -1.60346 5.28198 0
M  V30 623 H 57.9717 -2.28287 3.47885 0
M  V30 624 H 56.8477 -3.3729 4.33044 0
M  V30 625 H 57.1087 -3.57212 2.60484 0
M  V30 626 N 56.1678 -1.49265 -0.50573 0
M  V30 627 C 57.4158 -1.582 -1.25766 0
M  V30 628 C 57.7368 -0.268482 -1.93143 0
M  V30 629 O 57.0068 0.711833 -1.8251 0
M  V30 630 H 55.5868 -0.582873 -0.467191 0
M  V30 631 H 58.2488 -1.85865 -0.586525 0
M  V30 632 H 57.3448 -2.37563 -2.02412 0
M  V30 633 N 57.6459 0.756429 -1.3826 0
M  V30 634 C 58.8859 1.52833 -1.35725 0
M  V30 635 C 59.2499 1.91926 0.0534106 0
M  V30 636 O 60.4509 2.68028 0.203613 0
M  V30 637 C 58.7219 2.74919 -2.28373 0
M  V30 638 S 60.2809 3.64817 -2.43832 0
M  V30 639 H 57.0989 0.523043 -0.481608 0
M  V30 640 H 59.7009 0.888212 -1.74158 0
M  V30 641 H 58.4049 2.44304 -3.29763 0
M  V30 642 H 57.9359 3.43878 -1.91079 0
M  V30 643 H 59.9509 4.676 -1.66027 0
M  V30 644 N 59.124 1.23083 0.984299 0
M  V30 645 C 60.372 1.05848 1.72165 0
M  V30 646 C 60.693 -0.406049 1.90726 0
M  V30 647 O 59.963 -1.29139 1.47309 0
M  V30 648 H 58.543 0.388685 0.637913 0
M  V30 649 H 61.205 1.54736 1.18503 0
M  V30 650 H 60.301 1.54327 2.71274 0
M  V30 651 N 60.6021 -1.18246 1.0419 0
M  V30 652 C 61.5491 -2.2192 0.634037 0
M  V30 653 C 62.5191 -1.62179 -0.358765 0
M  V30 654 O 63.7041 -1.89122 -0.252466 0
M  V30 655 C 60.8441 -3.451 0.00445535 0
M  V30 656 C 59.9571 -4.19174 1.04487 0
M  V30 657 C 59.0921 -5.29813 0.383676 0
M  V30 658 C 58.1311 -5.9566 1.4091 0
M  V30 659 N 57.2681 -6.97834 0.772784 0
M  V30 660 H 62.1081 -2.56164 1.52263 0
M  V30 661 H 59.6451 -1.25843 0.761701 0
M  V30 662 H 61.6031 -4.15485 -0.377919 0
M  V30 663 H 60.2331 -3.11472 -0.847652 0
M  V30 664 H 59.2851 -3.47604 1.54518 0
M  V30 665 H 60.5971 -4.64267 1.82368 0
M  V30 666 H 59.7511 -6.06677 -0.0528366 0
M  V30 667 H 58.4901 -4.85825 -0.427208 0
M  V30 668 H 57.4951 -5.17535 1.85574 0
M  V30 669 H 58.7201 -6.4173 2.22171 0
M  V30 670 H 56.6661 -6.55998 -0.0177708 0
M  V30 671 H 56.5831 -7.41186 1.48928 0
M  V30 672 H 57.8511 -7.78665 0.36071 0
M  V30 673 N 62.0802 -0.821533 -1.34494 0
M  V30 674 C 63.3282 -0.408139 -1.97936 0
M  V30 675 C 63.6492 1.03193 -1.65457 0
M  V30 676 O 62.9192 1.71622 -0.944595 0
M  V30 677 H 61.4992 -0.147928 -0.732206 0
M  V30 678 H 64.1612 -1.05067 -1.64155 0
M  V30 679 H 63.2572 -0.52601 -3.07635 0
M  V30 680 N 63.5583 1.46682 -0.576371 0
M  V30 681 C 64.4903 2.28341 0.198231 0
M  V30 682 C 65.5033 1.38141 0.861453 0
M  V30 683 O 66.6923 1.62797 0.732082 0
M  V30 684 C 63.7923 3.12986 1.29972 0
M  V30 685 C 62.9653 4.31271 0.729639 0
M  V30 686 C 62.0243 4.97363 1.71803 0
M  V30 687 O 61.0503 5.55156 1.25658 0
M  V30 688 N 62.2523 4.93796 3.05198 0
M  V30 689 H 65.0173 2.9546 -0.502324 0
M  V30 690 H 62.5783 1.56525 -0.413715 0
M  V30 691 H 64.5703 3.54066 1.96008 0
M  V30 692 H 63.1403 2.47984 1.90323 0
M  V30 693 H 62.3603 3.94052 -0.108012 0
M  V30 694 H 63.6483 5.07739 0.328438 0
M  V30 695 H 63.0463 4.48077 3.45317 0
M  V30 696 H 61.6033 5.38837 3.6674 0
M  V30 697 N 65.0364 0.313813 1.54444 0
M  V30 698 C 66.2764 -0.292389 2.02298 0
M  V30 699 C 66.6404 -1.50105 1.19719 0
M  V30 700 O 67.8414 -2.17947 1.5733 0
M  V30 701 C 66.1124 -0.627682 3.51845 0
M  V30 702 S 67.6714 -1.21493 4.21646 0
M  V30 703 H 64.4894 -0.0890247 0.705405 0
M  V30 704 H 67.0914 0.444668 1.90376 0
M  V30 705 H 65.7954 0.260265 4.09574 0
M  V30 706 H 65.3264 -1.39519 3.67829 0
M  V30 707 H 67.3414 -2.5022 4.28491 0
M  V30 708 N 66.5145 -1.57545 0.0417849 0
M  V30 709 C 67.7625 -1.91937 -0.632829 0
M  V30 710 C 68.0835 -0.919978 -1.71934 0
M  V30 711 O 67.3535 0.0366064 -1.95866 0
M  V30 712 H 65.9335 -0.708493 -0.236742 0
M  V30 713 H 68.5955 -1.9468 0.0925745 0
M  V30 714 H 67.6915 -2.92912 -1.07746 0
M  V30 715 N 67.9926 0.231505 -1.5589 0
M  V30 716 C 68.9556 1.27028 -1.90779 0
M  V30 717 C 69.9556 1.40308 -0.785507 0
M  V30 718 O 71.1456 1.38744 -1.05336 0
M  V30 719 C 68.2776 2.64566 -2.14983 0
M  V30 720 H 69.4706 0.973017 -2.83677 0
M  V30 721 H 67.0236 0.471486 -1.49019 0
M  V30 722 H 67.7586 2.99406 -1.24604 0
M  V30 723 H 67.5436 2.56305 -2.96732 0
M  V30 724 H 69.0336 3.39543 -2.43105 0
M  V30 725 N 69.4707 1.49531 0.497807 0
M  V30 726 C 70.7107 1.60799 1.26187 0
M  V30 727 C 71.0747 0.289627 1.89803 0
M  V30 728 O 72.2757 0.277512 2.67364 0
M  V30 729 C 70.5467 2.73729 2.29798 0
M  V30 730 S 72.1057 3.04968 3.155 0
M  V30 731 H 68.9237 0.567145 0.428798 0
M  V30 732 H 71.5257 1.87204 0.563477 0
M  V30 733 H 70.2297 3.68036 1.81597 0
M  V30 734 H 69.7607 2.49328 3.04301 0
M  V30 735 H 71.7757 2.46735 4.30507 0
M  V30 736 N 70.9488 -0.749086 1.3866 0
M  V30 737 C 72.1768 -1.53834 1.38358 0
M  V30 738 C 72.5918 -1.88783 -0.0255219 0
M  V30 739 O 71.9488 -1.53101 -0.993292 0
M  V30 740 C 71.9998 -2.83468 2.2434 0
M  V30 741 O 71.7208 -2.50008 3.5976 0
M  V30 742 C 73.2218 -3.7758 2.32267 0
M  V30 743 H 70.4418 -0.47585 0.473083 0
M  V30 744 H 72.9858 -0.926726 1.82297 0
M  V30 745 H 71.1408 -3.40995 1.83851 0
M  V30 746 H 71.5548 -3.33182 4.05081 0
M  V30 747 H 73.0288 -4.65478 2.96706 0
M  V30 748 H 73.5058 -4.18334 1.33765 0
M  V30 749 H 74.1118 -3.25976 2.73166 0
M  V30 750 N 72.4269 -1.23603 -0.977757 0
M  V30 751 C 73.6729 -1.07129 -1.72195 0
M  V30 752 C 74.0059 0.390501 -1.90233 0
M  V30 753 O 73.2809 1.28902 -1.45653 0
M  V30 754 C 73.5639 -1.80031 -3.11867 0
M  V30 755 C 73.4169 -3.33899 -3.01383 0
M  V30 756 C 74.7359 -1.56492 -4.11337 0
M  V30 757 H 71.8549 -0.390571 -0.624999 0
M  V30 758 H 74.4969 -1.52142 -1.13811 0
M  V30 759 H 72.6469 -1.41768 -3.6171 0
M  V30 760 H 74.3189 -3.81699 -2.59043 0
M  V30 761 H 72.5619 -3.62796 -2.37827 0
M  V30 762 H 73.2329 -3.801 -4.00285 0
M  V30 763 H 75.7089 -1.89757 -3.70313 0
M  V30 764 H 74.5849 -2.09973 -5.07151 0
M  V30 765 H 74.8459 -0.500874 -4.39254 0
M  V30 766 N 73.905 1.17692 -1.04816 0
M  V30 767 C 75.154 1.87192 -0.751132 0
M  V30 768 C 75.467 1.8169 0.724441 0
M  V30 769 O 76.673 2.46625 1.13527 0
M  V30 770 C 75.129 3.35857 -1.29338 0
M  V30 771 C 74.737 3.4987 -2.79812 0
M  V30 772 C 76.481 4.10709 -1.07322 0
M  V30 773 C 74.388 4.92536 -3.27356 0
M  V30 774 H 73.318 0.701162 -0.277288 0
M  V30 775 H 75.969 1.32932 -1.26496 0
M  V30 776 H 74.351 3.89631 -0.707376 0
M  V30 777 H 75.525 3.06332 -3.44235 0
M  V30 778 H 73.84 2.88433 -3.00325 0
M  V30 779 H 76.437 5.15952 -1.4035 0
M  V30 780 H 76.78 4.16299 -0.0108001 0
M  V30 781 H 77.313 3.6313 -1.62423 0
M  V30 782 H 74.052 4.92119 -4.33012 0
M  V30 783 H 73.572 5.3676 -2.67673 0
M  V30 784 H 75.251 5.61288 -3.21815 0
M  V30 785 N 75.3831 0.828654 1.34056 0
M  V30 786 C 76.3131 0.269443 2.3194 0
M  V30 787 C 77.2941 -0.617247 1.58506 0
M  V30 788 O 78.4791 -0.542931 1.86456 0
M  V30 789 C 75.6091 -0.564793 3.42677 0
M  V30 790 C 74.5631 0.225241 4.27407 0
M  V30 791 C 73.8891 -0.7321 5.29664 0
M  V30 792 C 75.1891 1.43663 5.02154 0
M  V30 793 H 76.8831 1.08728 2.7896 0
M  V30 794 H 74.4291 0.524283 1.34117 0
M  V30 795 H 76.3821 -0.966233 4.10173 0
M  V30 796 H 75.1061 -1.41574 2.9432 0
M  V30 797 H 73.7651 0.608117 3.61521 0
M  V30 798 H 73.4131 -1.57916 4.77568 0
M  V30 799 H 73.1131 -0.20767 5.87233 0
M  V30 800 H 74.6371 -1.13128 6.00029 0
M  V30 801 H 76.0511 1.1089 5.62473 0
M  V30 802 H 74.4481 1.89711 5.69324 0
M  V30 803 H 75.5181 2.21181 4.31517 0
M  V30 804 N 76.8612 -1.46375 0.584142 0
M  V30 805 C 78.1382 -1.956 0.0033388 0
M  V30 806 C 78.5182 -1.52679 -1.45782 0
M  V30 807 O 77.8662 -0.77816 -2.14842 0
M  V30 808 C 78.0762 -3.48551 0.176891 0
M  V30 809 C 79.4242 -4.24576 0.0454609 0
M  V30 810 O 80.4482 -3.56043 0.105801 0
M  V30 811 O 79.3072 -5.46427 -0.0890376 0
M  V30 812 H 76.4012 -0.825547 -0.0490066 0
M  V30 813 H 78.9472 -1.56652 0.65256 0
M  V30 814 H 77.7192 -3.72683 1.1926 0
M  V30 815 H 77.3422 -3.94332 -0.508695 0
M  V30 816 N 78.3393 -0.321999 -1.54275 0
M  V30 817 C 79.5873 0.280489 -2.00144 0
M  V30 818 C 79.9083 1.52777 -1.21178 0
M  V30 819 O 79.1783 1.9338 -0.313187 0
M  V30 820 H 77.7583 0.106632 -0.73935 0
M  V30 821 H 80.4203 -0.438184 -1.8991 0
M  V30 822 H 79.5163 0.537972 -3.07428 0
M  V30 823 N 79.8174 1.5752 -0.0501392 0
M  V30 824 C 80.7644 2.1147 0.924603 0
M  V30 825 C 81.7344 1.02182 1.30951 0
M  V30 826 O 82.9194 1.29723 1.39916 0
M  V30 827 C 80.0594 2.66337 2.19451 0
M  V30 828 C 79.1724 3.89708 1.86418 0
M  V30 829 C 78.3074 4.32893 3.07859 0
M  V30 830 C 77.3464 5.48967 2.70742 0
M  V30 831 N 76.4834 5.87211 3.84874 0
M  V30 832 H 81.3234 2.94465 0.457639 0
M  V30 833 H 78.8604 1.45531 0.214266 0
M  V30 834 H 80.8184 2.96247 2.93758 0
M  V30 835 H 79.4484 1.86141 2.63726 0
M  V30 836 H 78.5004 3.66396 1.02264 0
M  V30 837 H 79.8124 4.74074 1.55096 0
M  V30 838 H 78.9664 4.6435 3.90466 0
M  V30 839 H 77.7054 3.47336 3.42358 0
M  V30 840 H 76.7104 5.17183 1.86551 0
M  V30 841 H 77.9354 6.3624 2.37436 0
M  V30 842 H 75.8814 5.04607 4.19175 0
M  V30 843 H 75.7984 6.66266 3.57247 0
M  V30 844 H 77.0664 6.23282 4.68123 0
M  V30 845 N 81.2955 -0.223234 1.56011 0
M  V30 846 C 82.5415 -0.949279 1.79211 0
M  V30 847 C 82.8745 -1.84054 0.619494 0
M  V30 848 O 82.1495 -1.90726 -0.381317 0
M  V30 849 C 82.4325 -1.78965 3.12479 0
M  V30 850 C 82.2855 -0.924997 4.40186 0
M  V30 851 C 83.6045 -2.76774 3.42175 0
M  V30 852 H 80.7235 -0.343676 0.651963 0
M  V30 853 H 83.3655 -0.218253 1.88742 0
M  V30 854 H 81.5155 -2.41291 3.04485 0
M  V30 855 H 83.1875 -0.318615 4.60198 0
M  V30 856 H 81.4305 -0.230344 4.33188 0
M  V30 857 H 82.1015 -1.54735 5.29869 0
M  V30 858 H 84.5775 -2.24584 3.50287 0
M  V30 859 H 83.4535 -3.32678 4.36597 0
M  V30 860 H 83.7145 -3.54429 2.64258 0
M  V30 861 N 82.7736 -1.49793 -0.48987 0
M  V30 862 C 84.0196 -1.60078 -1.24511 0
M  V30 863 C 84.3526 -0.291608 -1.91998 0
M  V30 864 O 83.6276 0.705647 -1.81248 0
M  V30 865 C 83.9106 -2.76791 -2.30345 0
M  V30 866 C 83.7636 -4.17535 -1.67286 0
M  V30 867 C 85.0826 -2.89111 -3.31817 0
M  V30 868 H 82.2016 -0.582645 -0.451324 0
M  V30 869 H 84.8436 -1.82117 -0.541612 0
M  V30 870 H 82.9936 -2.5813 -2.90346 0
M  V30 871 H 84.6656 -4.4774 -1.11026 0
M  V30 872 H 82.9086 -4.22665 -0.976577 0
M  V30 873 H 83.5796 -4.95094 -2.44103 0
M  V30 874 H 86.0556 -3.06133 -2.81819 0
M  V30 875 H 84.9316 -3.72433 -4.03219 0
M  V30 876 H 85.1926 -1.9893 -3.94815 0
M  V30 877 N 84.2517 0.741722 -1.39055 0
M  V30 878 C 85.6677 1.04638 -1.20512 0
M  V30 879 C 85.8677 2.01405 -0.0620218 0
M  V30 880 O 84.9237 2.45547 0.588457 0
M  V30 881 C 86.2367 1.6151 -2.53643 0
M  V30 882 C 87.7847 1.73623 -2.6043 0
M  V30 883 C 88.2597 2.33906 -3.93767 0
M  V30 884 N 89.7507 2.41323 -3.9537 0
M  V30 885 C 90.4857 2.88888 -4.95309 0
M  V30 886 N 89.9817 3.36401 -6.05645 0
M  V30 887 N 91.7747 2.88037 -4.82692 0
M  V30 888 H 83.9257 0.0998155 -2.12165 0
M  V30 889 H 86.1887 0.106907 -0.941953 0
M  V30 890 H 85.8947 0.978739 -3.37807 0
M  V30 891 H 85.7687 2.60411 -2.72885 0
M  V30 892 H 88.1557 2.36384 -1.76655 0
M  V30 893 H 88.2367 0.733945 -2.45045 0
M  V30 894 H 87.8807 1.71776 -4.7797 0
M  V30 895 H 87.8107 3.34799 -4.06469 0
M  V30 896 H 90.3017 2.07734 -3.15682 0
M  V30 897 H 90.6147 3.71186 -6.77821 0
M  V30 898 H 88.9597 3.34427 -6.09248 0
M  V30 899 H 92.1507 2.50237 -3.95599 0
M  V30 900 H 92.3237 3.24792 -5.60726 0
M  V30 901 N 85.7298 1.2412 0.971189 0
M  V30 902 C 86.6928 1.03156 2.04674 0
M  V30 903 C 87.6928 -0.00990322 1.60797 0
M  V30 904 O 88.8828 0.230729 1.72665 0
M  V30 905 C 86.0148 0.562765 3.36223 0
M  V30 906 H 87.2078 1.98614 2.24705 0
M  V30 907 H 84.7608 1.06293 1.14593 0
M  V30 908 H 85.4958 -0.395176 3.21883 0
M  V30 909 H 85.2808 1.31441 3.69413 0
M  V30 910 H 86.7708 0.437015 4.15307 0
M  V30 911 N 87.2079 -1.17134 1.05439 0
M  V30 912 C 88.4479 -1.89137 0.77502 0
M  V30 913 C 88.8119 -1.79345 -0.685526 0
M  V30 914 O 90.0129 -2.46188 -1.0791 0
M  V30 915 C 88.2839 -3.35003 1.2453 0
M  V30 916 S 89.8429 -4.24952 1.09367 0
M  V30 917 H 86.6609 -0.652949 0.281387 0
M  V30 918 H 89.2629 -1.4145 1.34953 0
M  V30 919 H 87.9669 -3.39666 2.30338 0
M  V30 920 H 87.4979 -3.87736 0.665166 0
M  V30 921 H 89.5129 -4.96196 0.0193397 0
M  V30 922 N 88.686 -0.835752 -1.33615 0
M  V30 923 C 89.935 -0.426289 -1.97144 0
M  V30 924 C 90.248 1.01912 -1.66953 0
M  V30 925 O 91.454 1.53311 -2.24072 0
M  V30 926 C 89.91 -0.711321 -3.52801 0
M  V30 927 C 89.518 -2.1712 -3.91871 0
M  V30 928 C 91.262 -0.368654 -4.22896 0
M  V30 929 C 89.169 -2.40044 -5.40493 0
M  V30 930 H 88.099 -0.15567 -0.737755 0
M  V30 931 H 90.75 -1.0239 -1.52278 0
M  V30 932 H 89.132 -0.0433766 -3.95976 0
M  V30 933 H 90.306 -2.87936 -3.59763 0
M  V30 934 H 88.621 -2.47654 -3.34749 0
M  V30 935 H 91.218 -0.517601 -5.32189 0
M  V30 936 H 91.561 0.688078 -4.10574 0
M  V30 937 H 92.094 -0.991702 -3.8524 0
M  V30 938 H 88.833 -3.44271 -5.57815 0
M  V30 939 H 88.353 -1.73785 -5.74072 0
M  V30 940 H 90.032 -2.23042 -6.0734 0
M  V30 941 N 90.1641 1.46063 -0.591896 0
M  V30 942 C 91.4131 2.01547 -0.0786637 0
M  V30 943 C 91.7261 1.46796 1.29268 0
M  V30 944 O 92.9321 1.94157 1.89777 0
M  V30 945 C 91.3881 3.59787 -0.0900024 0
M  V30 946 C 90.9961 4.23534 -1.46023 0
M  V30 947 C 92.7401 4.22895 0.368806 0
M  V30 948 C 90.6471 5.73881 -1.4288 0
M  V30 949 H 89.5771 0.753564 -0.0256388 0
M  V30 950 H 92.2281 1.677 -0.744905 0
M  V30 951 H 90.6101 3.90752 0.642586 0
M  V30 952 H 91.7841 4.04167 -2.21328 0
M  V30 953 H 90.0991 3.72558 -1.85982 0
M  V30 954 H 92.6961 5.33116 0.411258 0
M  V30 955 H 93.0391 3.9247 1.38827 0
M  V30 956 H 93.5721 3.9659 -0.31001 0
M  V30 957 H 90.3111 6.0898 -2.42536 0
M  V30 958 H 89.8311 5.95486 -0.718095 0
M  V30 959 H 91.5101 6.36776 -1.14565 0
M  V30 960 N 91.6422 0.330177 1.54103 0
M  V30 961 C 92.5892 -0.532762 2.24567 0
M  V30 962 C 93.5592 -1.10635 1.23892 0
M  V30 963 O 94.7442 -1.14546 1.5259 0
M  V30 964 C 91.8842 -1.6845 3.01195 0
M  V30 965 C 90.9972 -1.13951 4.167 0
M  V30 966 C 90.1322 -2.25746 4.80845 0
M  V30 967 C 89.1712 -1.6853 5.88442 0
M  V30 968 N 88.3082 -2.74014 6.46421 0
M  V30 969 H 93.1482 0.0746905 2.97906 0
M  V30 970 H 90.6852 0.048632 1.4702 0
M  V30 971 H 92.6432 -2.36234 3.43874 0
M  V30 972 H 91.2732 -2.26314 2.30178 0
M  V30 973 H 90.3252 -0.35301 3.78758 0
M  V30 974 H 91.6372 -0.680892 4.94131 0
M  V30 975 H 90.7912 -3.01422 5.26526 0
M  V30 976 H 89.5302 -2.74947 4.0281 0
M  V30 977 H 88.5352 -0.913543 5.42157 0
M  V30 978 H 89.7602 -1.20198 6.68378 0
M  V30 979 H 87.7062 -3.22494 5.71256 0
M  V30 980 H 87.6232 -2.32735 7.19285 0
M  V30 981 H 88.8912 -3.49499 6.96757 0
M  V30 982 N 93.1203 -1.57491 0.0584922 0
M  V30 983 C 94.0533 -2.07533 -0.948969 0
M  V30 984 C 95.0313 -0.977444 -1.29942 0
M  V30 985 O 96.2153 -1.2499 -1.41102 0
M  V30 986 C 93.3423 -2.52192 -2.2609 0
M  V30 987 C 92.3883 -3.73287 -2.06298 0
M  V30 988 S 93.2213 -5.18603 -1.33459 0
M  V30 989 C 94.3773 -5.66583 -2.65959 0
M  V30 990 H 94.6103 -2.92662 -0.523118 0
M  V30 991 H 92.1433 -1.53631 -0.153954 0
M  V30 992 H 94.1013 -2.78585 -3.01498 0
M  V30 993 H 92.7623 -1.67356 -2.65802 0
M  V30 994 H 91.9553 -4.0248 -3.03357 0
M  V30 995 H 91.5573 -3.47199 -1.39029 0
M  V30 996 H 93.8493 -5.72616 -3.62101 0
M  V30 997 H 94.7923 -6.65684 -2.41393 0
M  V30 998 H 95.2003 -4.94342 -2.72554 0
M  V30 999 N 94.5984 0.214957 -1.56127 0
M  V30 1000 C 95.8234 0.95924 -1.83884 0
M  V30 1001 C 96.2484 1.7689 -0.639644 0
M  V30 1002 O 95.6064 1.76566 0.411601 0
M  V30 1003 C 95.6544 1.84723 -3.09693 0
M  V30 1004 O 94.7584 2.94346 -2.8885 0
M  V30 1005 H 94.0994 0.27125 -0.606069 0
M  V30 1006 H 96.6294 0.226276 -2.03345 0
M  V30 1007 H 96.6394 2.25576 -3.39969 0
M  V30 1008 H 95.3144 1.25218 -3.96602 0
M  V30 1009 H 93.8914 2.57391 -2.69823 0
M  V30 1010 N 96.0765 1.50051 0.48192 0
M  V30 1011 C 97.4925 1.37237 0.814756 0
M  V30 1012 C 97.6925 0.420109 1.97072 0
M  V30 1013 O 96.7485 -0.141246 2.52105 0
M  V30 1014 C 98.0615 2.78375 1.13701 0
M  V30 1015 C 99.6095 2.87213 1.2441 0
M  V30 1016 C 100.084 4.29161 1.59954 0
M  V30 1017 N 101.575 4.32061 1.66967 0
M  V30 1018 C 102.31 5.38879 1.95952 0
M  V30 1019 N 101.806 6.55918 2.23031 0
M  V30 1020 N 103.599 5.26312 1.97363 0
M  V30 1021 H 95.7505 2.10546 -0.28005 0
M  V30 1022 H 98.0135 0.945921 -0.0627454 0
M  V30 1023 H 97.7195 3.49845 0.360787 0
M  V30 1024 H 97.5935 3.14941 2.07586 0
M  V30 1025 H 99.9805 2.15969 2.01101 0
M  V30 1026 H 100.061 2.54204 0.285299 0
M  V30 1027 H 99.7055 5.00938 0.838067 0
M  V30 1028 H 99.6355 4.59648 2.56966 0
M  V30 1029 H 102.126 3.47661 1.48123 0
M  V30 1030 H 102.439 7.33139 2.44391 0
M  V30 1031 H 100.784 6.59112 2.20447 0
M  V30 1032 H 103.975 4.33876 1.75697 0
M  V30 1033 H 104.148 6.09649 2.19618 0
M  V30 1034 N 97.5546 -0.734337 1.39446 0
M  V30 1035 C 98.8006 -1.49613 1.36908 0
M  V30 1036 C 99.1336 -1.94169 -0.0347829 0
M  V30 1037 O 98.4086 -1.66833 -0.999847 0
M  V30 1038 C 98.6916 -2.73534 2.34203 0
M  V30 1039 C 98.5446 -2.34993 3.83534 0
M  V30 1040 C 99.8636 -3.75635 2.29317 0
M  V30 1041 H 96.9826 -0.542714 0.498629 0
M  V30 1042 H 99.6246 -0.839597 1.70443 0
M  V30 1043 H 97.7746 -3.29553 2.05736 0
M  V30 1044 H 99.4466 -1.84601 4.22753 0
M  V30 1045 H 97.6896 -1.67213 4.00278 0
M  V30 1046 H 98.3606 -3.23738 4.47099 0
M  V30 1047 H 100.837 -3.29203 2.54489 0
M  V30 1048 H 99.7126 -4.60008 2.99472 0
M  V30 1049 H 99.9736 -4.22603 1.29842 0
M  V30 1050 N 99.0327 -1.24633 -0.964593 0
M  V30 1051 C 99.9957 -1.0424 -2.04124 0
M  V30 1052 C 100.996 0.00137563 -1.608 0
M  V30 1053 O 102.186 -0.239883 -1.7254 0
M  V30 1054 C 99.3177 -0.580588 -3.3592 0
M  V30 1055 H 100.511 -1.99803 -2.23649 0
M  V30 1056 H 98.0637 -1.06899 -1.14027 0
M  V30 1057 H 98.7987 0.3781 -3.22088 0
M  V30 1058 H 98.5837 -1.33398 -3.6871 0
M  V30 1059 H 100.074 -0.459034 -4.15069 0
M  V30 1060 N 100.511 1.16574 -1.06058 0
M  V30 1061 C 101.421 2.2452 -0.680282 0
M  V30 1062 C 102.437 1.71348 0.302604 0
M  V30 1063 O 103.613 2.00822 0.152513 0
M  V30 1064 C 100.678 3.46629 -0.0700315 0
M  V30 1065 C 99.7388 4.14849 -1.10448 0
M  V30 1066 C 98.9718 5.31129 -0.523256 0
M  V30 1067 O 99.1948 5.66514 0.664709 0
M  V30 1068 O 98.1288 5.88526 -1.26179 0
M  V30 1069 H 101.955 2.59355 -1.58015 0
M  V30 1070 H 99.5398 1.24043 -0.832694 0
M  V30 1071 H 101.422 4.20543 0.268667 0
M  V30 1072 H 100.097 3.13573 0.803353 0
M  V30 1073 H 99.0038 3.42916 -1.49532 0
M  V30 1074 H 100.337 4.51954 -1.94931 0
M  V30 1075 N 101.989 0.842826 1.3317 0
M  V30 1076 C 102.937 0.267495 2.31057 0
M  V30 1077 C 103.931 -0.602682 1.58316 0
M  V30 1078 O 105.137 -0.491803 1.73151 0
M  V30 1079 H 101.512 0.0677813 0.748939 0
M  V30 1080 H 103.483 1.10754 2.77085 0
M  V30 1081 C 102.232 -0.539331 3.43492 0
M  V30 1082 H 101.555 0.12095 3.99617 0
M  V30 1083 H 102.995 -0.90767 4.14171 0
M  V30 1084 C 101.454 -1.71981 2.89697 0
M  V30 1085 O 101.984 -2.81862 2.86211 0
M  V30 1086 N 100.19 -1.54299 2.46252 0
M  V30 1087 H 99.7369 -0.649143 2.49287 0
M  V30 1088 H 99.6949 -2.33431 2.10612 0
M  V30 1089 N 103.467 -1.45747 0.599634 0
M  V30 1090 C 104.43 -2.28917 -0.113835 0
M  V30 1091 C 105.43 -1.3933 -0.802729 0
M  V30 1092 O 106.62 -1.61534 -0.652103 0
M  V30 1093 C 103.752 -3.20152 -1.17114 0
M  V30 1094 H 104.945 -2.93478 0.617289 0
M  V30 1095 H 102.498 -1.52137 0.358327 0
M  V30 1096 H 103.233 -2.60374 -1.93329 0
M  V30 1097 H 103.018 -3.86133 -0.681468 0
M  V30 1098 H 104.508 -3.82708 -1.67105 0
M  V30 1099 N 104.945 -0.338344 -1.53925 0
M  V30 1100 C 106.17 0.263987 -2.05713 0
M  V30 1101 C 106.595 1.43847 -1.21201 0
M  V30 1102 O 105.953 1.79904 -0.224535 0
M  V30 1103 C 106.001 0.662 -3.54471 0
M  V30 1104 O 105.105 1.76265 -3.72833 0
M  V30 1105 H 104.446 0.0448722 -0.662482 0
M  V30 1106 H 106.976 -0.491048 -1.9862 0
M  V30 1107 H 106.986 0.940594 -3.9701 0
M  V30 1108 H 105.661 -0.196937 -4.15433 0
M  V30 1109 H 104.238 1.48173 -3.42198 0
M  V30 1110 N 106.423 1.57458 -0.0668435 0
M  V30 1111 C 107.669 1.93587 0.6043 0
M  V30 1112 C 108.002 0.946722 1.69561 0
M  V30 1113 O 107.277 -0.0248516 1.94484 0
M  V30 1114 C 107.56 3.40014 1.18585 0
M  V30 1115 C 107.413 4.49685 0.101529 0
M  V30 1116 C 108.732 3.87154 2.09284 0
M  V30 1117 H 105.851 0.703958 0.218202 0
M  V30 1118 H 108.493 1.89542 -0.131804 0
M  V30 1119 H 106.643 3.43592 1.81319 0
M  V30 1120 H 108.315 4.5823 -0.531279 0
M  V30 1121 H 106.558 4.30059 -0.568487 0
M  V30 1122 H 107.229 5.49266 0.54874 0
M  V30 1123 H 109.705 3.85551 1.56491 0
M  V30 1124 H 108.581 4.90231 2.46911 0
M  V30 1125 H 108.842 3.2481 2.99918 0
M  V30 1126 N 107.901 -0.206675 1.56239 0
M  V30 1127 C 109.129 -0.945345 1.8404 0
M  V30 1128 C 109.544 -1.77336 0.647885 0
M  V30 1129 O 108.901 -1.78425 -0.383511 0
M  V30 1130 C 108.952 -1.8509 3.10522 0
M  V30 1131 O 108.673 -1.05634 4.25174 0
M  V30 1132 C 110.174 -2.70222 3.51418 0
M  V30 1133 H 107.394 -0.276372 0.61144 0
M  V30 1134 H 109.938 -0.217417 2.03341 0
M  V30 1135 H 108.093 -2.53259 2.93153 0
M  V30 1136 H 108.507 -1.67238 4.97124 0
M  V30 1137 H 109.981 -3.29438 4.42916 0
M  V30 1138 H 110.458 -3.43358 2.73864 0
M  V30 1139 H 111.064 -2.07443 3.71278 0
M  V30 1140 N 109.379 -1.50304 -0.473955 0
M  V30 1141 C 110.607 -1.64902 -1.24959 0
M  V30 1142 C 111.022 -0.331198 -1.85872 0
M  V30 1143 O 110.379 0.68652 -1.69095 0
M  V30 1144 C 110.43 -2.73803 -2.36038 0
M  V30 1145 O 110.151 -4.00477 -1.77624 0
M  V30 1146 C 111.652 -2.99349 -3.26964 0
M  V30 1147 H 108.872 -0.554383 -0.378022 0
M  V30 1148 H 111.416 -1.9651 -0.566054 0
M  V30 1149 H 109.571 -2.44898 -3.00173 0
M  V30 1150 H 109.985 -4.60678 -2.5075 0
M  V30 1151 H 111.459 -3.79217 -4.01121 0
M  V30 1152 H 111.936 -2.10307 -3.85574 0
M  V30 1153 H 112.542 -3.29774 -2.68569 0
M  V30 1154 N 110.857 0.726932 -1.39834 0
M  V30 1155 C 111.787 1.85405 -1.41941 0
M  V30 1156 C 112.768 1.67751 -0.281728 0
M  V30 1157 O 113.953 1.8795 -0.488717 0
M  V30 1158 C 111.083 3.23243 -1.2701 0
M  V30 1159 C 110.037 3.55549 -2.38262 0
M  V30 1160 C 109.363 4.9241 -2.08415 0
M  V30 1161 C 110.663 3.577 -3.80589 0
M  V30 1162 H 112.357 1.83899 -2.36266 0
M  V30 1163 H 109.903 0.883349 -1.13723 0
M  V30 1164 H 111.856 4.01775 -1.27103 0
M  V30 1165 H 110.58 3.25296 -0.291564 0
M  V30 1166 H 109.239 2.79351 -2.37399 0
M  V30 1167 H 108.887 4.91052 -1.0898 0
M  V30 1168 H 108.587 5.14992 -2.82943 0
M  V30 1169 H 110.111 5.73289 -2.10171 0
M  V30 1170 H 111.525 4.26293 -3.83337 0
M  V30 1171 H 109.922 3.91804 -4.54543 0
M  V30 1172 H 110.992 2.57328 -4.10987 0
M  V30 1173 N 112.336 1.25143 0.95797 0
M  V30 1174 C 113.246 1.06968 2.08794 0
M  V30 1175 C 114.262 0.00773911 1.73998 0
M  V30 1176 O 115.438 0.207972 2.00323 0
M  V30 1177 C 112.503 0.68691 3.39827 0
M  V30 1178 C 111.564 1.82641 3.88511 0
M  V30 1179 C 110.797 1.46181 5.1329 0
M  V30 1180 O 111.02 0.355971 5.69288 0
M  V30 1181 O 109.954 2.29085 5.566 0
M  V30 1182 H 113.78 2.01723 2.27027 0
M  V30 1183 H 111.365 1.04051 1.07209 0
M  V30 1184 H 113.247 0.485417 4.18595 0
M  V30 1185 H 111.922 -0.231417 3.22872 0
M  V30 1186 H 110.829 2.08274 3.10762 0
M  V30 1187 H 112.162 2.72386 4.09959 0
M  V30 1188 N 113.814 -1.1601 1.06675 0
M  V30 1189 C 115.062 -1.86264 0.784229 0
M  V30 1190 C 115.383 -1.82328 -0.691488 0
M  V30 1191 O 114.653 -1.25947 -1.50047 0
M  V30 1192 H 113.233 -0.689621 0.28711 0
M  V30 1193 H 115.895 -1.40664 1.34906 0
M  V30 1194 H 114.991 -2.91595 1.11259 0
M  V30 1195 N 115.292 -0.849877 -1.32721 0
M  V30 1196 C 116.541 -0.447175 -1.96681 0
M  V30 1197 C 116.854 1.00135 -1.68025 0
M  V30 1198 O 118.06 1.50926 -2.25685 0
M  V30 1199 C 116.516 -0.7487 -3.52026 0
M  V30 1200 C 116.124 -2.21264 -3.89546 0
M  V30 1201 C 117.868 -0.413487 -4.22481 0
M  V30 1202 C 115.775 -2.45763 -5.37917 0
M  V30 1203 H 114.705 -0.163486 -0.736063 0
M  V30 1204 H 117.356 -1.03999 -1.51183 0
M  V30 1205 H 115.738 -0.0853727 -3.95908 0
M  V30 1206 H 116.912 -2.91736 -3.56689 0
M  V30 1207 H 115.227 -2.5119 -3.32103 0
M  V30 1208 H 117.824 -0.574017 -5.3161 0
M  V30 1209 H 118.167 0.644492 -4.11281 0
M  V30 1210 H 118.7 -1.03251 -3.84167 0
M  V30 1211 H 115.439 -3.50168 -5.54132 0
M  V30 1212 H 114.959 -1.79864 -5.72197 0
M  V30 1213 H 116.638 -2.29471 -6.0494 0
M  V30 1214 N 116.77 1.45427 -0.607355 0
M  V30 1215 C 118.018 2.01841 -0.102253 0
M  V30 1216 C 118.339 1.47832 1.27164 0
M  V30 1217 O 117.609 0.672497 1.83995 0
M  V30 1218 H 116.189 0.746188 -0.0348101 0
M  V30 1219 H 118.851 1.78229 -0.7887 0
M  V30 1220 H 117.947 3.12057 -0.0518585 0
M  V30 1221 N 118.248 0.346503 1.53744 0
M  V30 1222 C 119.211 -0.496439 2.23759 0
M  V30 1223 C 120.211 -1.0252 1.2388 0
M  V30 1224 O 121.401 -0.913974 1.48297 0
M  V30 1225 C 118.533 -1.69187 2.95954 0
M  V30 1226 H 119.726 0.115952 2.99676 0
M  V30 1227 H 117.279 0.0978939 1.55993 0
M  V30 1228 H 118.014 -2.34288 2.24231 0
M  V30 1229 H 117.799 -1.31989 3.69217 0
M  V30 1230 H 119.289 -2.28969 3.49232 0
M  V30 1231 N 119.726 -1.57421 0.075193 0
M  V30 1232 C 121.137 -1.81021 -0.456964 0
M  V30 1233 C 121.488 -0.98936 -1.69429 0
M  V30 1234 O 120.613 -0.212865 -2.15351 0
M  V30 1235 C 121.208 -3.28329 -0.83581 0
M  V30 1236 C 119.767 -3.52764 -1.31281 0
M  V30 1237 C 118.914 -2.75676 -0.299648 0
M  V30 1238 H 121.865 -1.55822 0.300856 0
M  V30 1239 H 121.886 -3.40564 -1.69696 0
M  V30 1240 H 121.398 -3.88046 0.0649238 0
M  V30 1241 H 119.499 -2.98355 -2.23193 0
M  V30 1242 H 119.612 -4.61451 -1.28839 0
M  V30 1243 H 117.976 -2.42538 -0.777641 0
M  V30 1244 H 118.759 -3.38132 0.593417 0
M  V30 1245 N 121.204 0.198386 -1.56346 0
M  V30 1246 C 122.481 0.944982 -1.71258 0
M  V30 1247 C 122.861 2.0151 -0.629048 0
M  V30 1248 O 122.209 2.25639 0.360473 0
M  V30 1249 C 122.419 1.5344 -3.1346 0
M  V30 1250 C 123.767 2.01778 -3.73591 0
M  V30 1251 O 124.791 1.63288 -3.16568 0
M  V30 1252 O 123.65 2.72594 -4.73661 0
M  V30 1253 H 120.744 0.442939 -0.69838 0
M  V30 1254 H 123.29 0.188342 -1.68652 0
M  V30 1255 H 122.062 0.762869 -3.83792 0
M  V30 1256 H 121.685 2.35596 -3.20282 0
M  V30 1257 N 122.682 1.50554 0.465978 0
M  V30 1258 C 123.922 1.63439 1.22747 0
M  V30 1259 C 124.286 0.329822 1.89146 0
M  V30 1260 O 125.487 0.334161 2.66715 0
M  V30 1261 C 123.758 2.78542 2.2394 0
M  V30 1262 S 125.317 3.11591 3.0896 0
M  V30 1263 H 122.135 0.576113 0.416672 0
M  V30 1264 H 124.737 1.88357 0.523641 0
M  V30 1265 H 123.441 3.71805 1.7375 0
M  V30 1266 H 122.972 2.55726 2.98944 0
M  V30 1267 H 124.987 2.55811 4.25176 0
M  V30 1268 N 124.16 -0.719506 1.40217 0
M  V30 1269 C 125.09 -1.8465 1.42922 0
M  V30 1270 C 126.071 -1.67599 0.29062 0
M  V30 1271 O 127.256 -1.87688 0.498677 0
M  V30 1272 C 124.386 -3.22565 1.28722 0
M  V30 1273 C 123.34 -3.54281 2.40144 0
M  V30 1274 C 122.666 -4.91298 2.11023 0
M  V30 1275 C 123.966 -3.55676 3.82481 0
M  V30 1276 H 125.66 -1.82644 2.37237 0
M  V30 1277 H 123.206 -0.877305 1.1419 0
M  V30 1278 H 125.159 -4.01095 1.29232 0
M  V30 1279 H 123.883 -3.25137 0.308811 0
M  V30 1280 H 122.542 -2.78088 2.38877 0
M  V30 1281 H 122.19 -4.90468 1.11582 0
M  V30 1282 H 121.89 -5.13485 2.8567 0
M  V30 1283 H 123.414 -5.72166 2.13209 0
M  V30 1284 H 124.828 -4.24254 3.85592 0
M  V30 1285 H 123.225 -3.89388 4.56614 0
M  V30 1286 H 124.295 -2.55144 4.12346 0
M  V30 1287 N 125.638 -1.25649 -0.95132 0
M  V30 1288 C 126.588 -1.03004 -2.03406 0
M  V30 1289 C 127.572 0.034187 -1.60864 0
M  V30 1290 O 128.764 -0.181549 -1.76066 0
M  V30 1291 C 125.893 -0.654255 -3.37008 0
M  V30 1292 C 124.979 -1.75542 -3.86065 0
M  V30 1293 N 125.37 -2.99113 -4.07879 0
M  V30 1294 C 123.668 -1.63669 -4.14884 0
M  V30 1295 C 124.369 -3.70611 -4.48356 0
M  V30 1296 N 123.345 -2.98247 -4.54477 0
M  V30 1297 H 127.147 -1.96813 -2.1827 0
M  V30 1298 H 124.661 -1.16017 -1.13639 0
M  V30 1299 H 126.658 -0.473206 -4.14206 0
M  V30 1300 H 125.318 0.276468 -3.23521 0
M  V30 1301 H 126.329 -3.35124 -3.94857 0
M  V30 1302 H 123.006 -0.775161 -4.10241 0
M  V30 1303 H 124.396 -4.76695 -4.73509 0
M  V30 1304 N 127.117 1.15442 -1.07289 0
M  V30 1305 C 128.528 1.67803 -0.818475 0
M  V30 1306 C 128.879 1.8489 0.656507 0
M  V30 1307 O 128.004 1.55176 1.50829 0
M  V30 1308 C 128.599 3.04805 -1.47917 0
M  V30 1309 C 127.158 3.54245 -1.27229 0
M  V30 1310 C 126.305 2.29986 -1.54925 0
M  V30 1311 H 129.256 0.996646 -1.23502 0
M  V30 1312 H 129.277 3.69702 -0.90005 0
M  V30 1313 H 128.789 2.92336 -2.55267 0
M  V30 1314 H 126.89 3.71956 -0.21899 0
M  V30 1315 H 127.003 4.35723 -1.99203 0
M  V30 1316 H 125.367 2.35496 -0.970242 0
M  V30 1317 H 126.15 2.20105 -2.63455 0
M  V30 1318 N 128.595 0.856903 1.32268 0
M  V30 1319 C 129.525 0.31858 2.31316 0
M  V30 1320 C 130.506 -0.583487 1.59779 0
M  V30 1321 O 131.691 -0.503259 1.87566 0
M  V30 1322 C 128.821 -0.491979 3.43798 0
M  V30 1323 C 127.775 0.315849 4.26833 0
M  V30 1324 C 127.101 -0.619586 5.31098 0
M  V30 1325 C 128.401 1.54282 4.98993 0
M  V30 1326 H 130.095 1.14621 2.76591 0
M  V30 1327 H 127.641 0.552613 1.32974 0
M  V30 1328 H 129.594 -0.879012 4.1213 0
M  V30 1329 H 128.318 -1.35299 2.97257 0
M  V30 1330 H 126.977 0.684664 3.6015 0
M  V30 1331 H 126.625 -1.47751 4.8081 0
M  V30 1332 H 126.325 -0.0830621 5.87541 0
M  V30 1333 H 127.849 -1.00375 6.02293 0
M  V30 1334 H 129.263 1.22796 5.59995 0
M  V30 1335 H 127.66 2.01745 5.65172 0
M  V30 1336 H 128.73 2.30285 4.26728 0
M  V30 1337 N 130.073 -1.45103 0.615059 0
M  V30 1338 C 131.005 -2.28786 -0.13762 0
M  V30 1339 C 132.018 -1.40376 -0.824525 0
M  V30 1340 O 133.207 -1.64681 -0.688662 0
M  V30 1341 C 130.307 -3.16322 -1.21628 0
M  V30 1342 C 129.48 -4.33054 -0.615039 0
M  V30 1343 C 128.539 -5.01743 -1.58556 0
M  V30 1344 O 127.565 -5.58293 -1.10895 0
M  V30 1345 N 128.767 -5.01714 -2.91998 0
M  V30 1346 H 131.532 -2.94025 0.580483 0
M  V30 1347 H 129.093 -1.55373 0.45507 0
M  V30 1348 H 131.085 -3.59139 -1.86552 0
M  V30 1349 H 129.655 -2.52943 -1.83681 0
M  V30 1350 H 128.875 -3.93627 0.21245 0
M  V30 1351 H 130.163 -5.08431 -0.193704 0
M  V30 1352 H 129.561 -4.57075 -3.33316 0
M  V30 1353 H 128.118 -5.48371 -3.52325 0
M  V30 1354 N 131.551 -0.354651 -1.53558 0
M  V30 1355 C 132.501 0.513179 -2.2215 0
M  V30 1356 C 133.485 1.05734 -1.21281 0
M  V30 1357 O 134.677 0.989202 -1.46778 0
M  V30 1358 C 131.806 1.65798 -3.00609 0
M  V30 1359 C 130.892 1.12722 -4.08845 0
M  V30 1360 N 131.283 0.318563 -5.04796 0
M  V30 1361 C 129.581 1.40307 -4.23356 0
M  V30 1362 C 130.282 0.0292224 -5.81693 0
M  V30 1363 N 129.258 0.623891 -5.40008 0
M  V30 1364 H 133.06 -0.111586 -2.93688 0
M  V30 1365 H 130.574 -0.162091 -1.61589 0
M  V30 1366 H 132.571 2.29176 -3.48258 0
M  V30 1367 H 131.231 2.28591 -2.306 0
M  V30 1368 H 132.242 -0.0413091 -5.17884 0
M  V30 1369 H 128.919 2.03458 -3.6457 0
M  V30 1370 H 130.309 -0.623808 -6.68998 0
M  V30 1371 N 133.029 1.57378 -0.0835403 0
M  V30 1372 C 133.992 2.12252 0.864959 0
M  V30 1373 C 134.992 1.04916 1.21858 0
M  V30 1374 O 136.182 1.30853 1.14991 0
M  V30 1375 C 133.314 2.63358 2.16461 0
M  V30 1376 H 134.507 2.97371 0.388676 0
M  V30 1377 H 132.06 1.55423 0.165317 0
M  V30 1378 H 132.795 1.81727 2.686 0
M  V30 1379 H 132.58 3.41826 1.92087 0
M  V30 1380 H 134.07 3.05847 2.84337 0
M  V30 1381 N 134.507 -0.190092 1.56449 0
M  V30 1382 C 135.753 -0.906472 1.82084 0
M  V30 1383 C 136.108 -1.80677 0.661335 0
M  V30 1384 O 135.401 -1.88501 -0.343237 0
M  V30 1385 C 135.595 -1.75382 3.1141 0
M  V30 1386 C 135.424 -0.937053 4.39829 0
M  V30 1387 C 134.194 -0.619507 5.01488 0
M  V30 1388 C 136.392 -0.2874 5.13496 0
M  V30 1389 N 134.374 0.215367 6.13522 0
M  V30 1390 C 135.745 0.409454 6.18646 0
M  V30 1391 C 137.8 -0.203639 4.97483 0
M  V30 1392 C 136.503 1.1821 7.0952 0
M  V30 1393 C 138.529 0.555622 5.88784 0
M  V30 1394 C 137.891 1.24091 6.93384 0
M  V30 1395 H 133.99 -0.310931 0.717528 0
M  V30 1396 H 136.574 -0.174821 1.93914 0
M  V30 1397 H 134.745 -2.45703 3.00806 0
M  V30 1398 H 136.477 -2.41006 3.25112 0
M  V30 1399 H 133.232 -0.945126 4.64074 0
M  V30 1400 H 133.656 0.622562 6.74131 0
M  V30 1401 H 138.298 -0.719099 4.1664 0
M  V30 1402 H 136.016 1.70897 7.89823 0
M  V30 1403 H 139.602 0.621854 5.78467 0
M  V30 1404 H 138.482 1.81901 7.62812 0
M  V30 1405 N 135.985 -1.50799 -0.457987 0
M  V30 1406 C 137.234 -1.6168 -1.20593 0
M  V30 1407 C 137.547 -0.32888 -1.92815 0
M  V30 1408 O 138.753 -0.316773 -2.69646 0
M  V30 1409 C 137.209 -2.8545 -2.19195 0
M  V30 1410 C 136.817 -4.21168 -1.52715 0
M  V30 1411 C 138.561 -3.05681 -2.94549 0
M  V30 1412 C 136.468 -5.3611 -2.4968 0
M  V30 1413 H 135.398 -0.602134 -0.453818 0
M  V30 1414 H 138.049 -1.77245 -0.475031 0
M  V30 1415 H 136.431 -2.63472 -2.95632 0
M  V30 1416 H 137.605 -4.53449 -0.819775 0
M  V30 1417 H 135.92 -4.06648 -0.895922 0
M  V30 1418 H 138.517 -3.88727 -3.67145 0
M  V30 1419 H 138.86 -2.17929 -3.54701 0
M  V30 1420 H 139.393 -3.27901 -2.25223 0
M  V30 1421 H 136.132 -6.26057 -1.94249 0
M  V30 1422 H 135.652 -5.0823 -3.18532 0
M  V30 1423 H 137.331 -5.6722 -3.11241 0
M  V30 1424 N 137.463 0.71206 -1.40597 0
M  V30 1425 C 138.395 1.83704 -1.37061 0
M  V30 1426 C 139.408 1.60453 -0.275426 0
M  V30 1427 O 140.597 1.70262 -0.53602 0
M  V30 1428 C 137.697 3.20172 -1.11099 0
M  V30 1429 C 136.87 3.7059 -2.3234 0
M  V30 1430 C 135.929 4.85681 -2.02485 0
M  V30 1431 O 134.955 4.9815 -2.75382 0
M  V30 1432 N 136.157 5.71735 -1.00497 0
M  V30 1433 H 138.922 1.87235 -2.34016 0
M  V30 1434 H 136.483 0.893739 -1.34996 0
M  V30 1435 H 138.475 3.94768 -0.891064 0
M  V30 1436 H 137.045 3.11767 -0.227989 0
M  V30 1437 H 136.265 2.87085 -2.7014 0
M  V30 1438 H 137.553 4.01011 -3.13157 0
M  V30 1439 H 136.951 5.64275 -0.401298 0
M  V30 1440 H 135.508 6.463 -0.844942 0
M  V30 1441 N 138.941 1.26152 0.944643 0
M  V30 1442 C 139.891 1.04081 2.02857 0
M  V30 1443 C 140.875 -0.0256555 1.6088 0
M  V30 1444 O 142.067 0.190884 1.75968 0
M  V30 1445 C 139.196 0.672118 3.36656 0
M  V30 1446 C 138.282 1.77586 3.85128 0
M  V30 1447 N 138.673 3.01272 4.06287 0
M  V30 1448 C 136.971 1.65867 4.1401 0
M  V30 1449 C 137.672 3.72983 4.46384 0
M  V30 1450 N 136.648 3.00653 4.52889 0
M  V30 1451 H 140.45 1.97968 2.17223 0
M  V30 1452 H 137.964 1.16618 1.13022 0
M  V30 1453 H 139.961 0.495166 4.13949 0
M  V30 1454 H 138.621 -0.259307 3.23663 0
M  V30 1455 H 139.632 3.37213 3.93075 0
M  V30 1456 H 136.309 0.796907 4.09824 0
M  V30 1457 H 137.699 4.792 4.70975 0
M  V30 1458 N 140.419 -1.14872 1.07899 0
M  V30 1459 C 141.667 -1.85422 0.803941 0
M  V30 1460 C 141.988 -1.83051 -0.67211 0
M  V30 1461 O 141.258 -1.27532 -1.48703 0
M  V30 1462 H 139.838 -0.686537 0.294408 0
M  V30 1463 H 142.5 -1.39226 1.3639 0
M  V30 1464 H 141.596 -2.90399 1.14346 0
M  V30 1465 N 141.898 -0.863906 -1.31812 0
M  V30 1466 C 142.861 -0.320212 -2.26952 0
M  V30 1467 C 143.861 0.525369 -1.51975 0
M  V30 1468 O 145.051 0.335547 -1.70938 0
M  V30 1469 C 142.183 0.545919 -3.365 0
M  V30 1470 H 143.376 -1.16004 -2.76556 0
M  V30 1471 H 140.929 -0.638995 -1.42641 0
M  V30 1472 H 141.664 1.40718 -2.92179 0
M  V30 1473 H 141.449 -0.0594674 -3.92055 0
M  V30 1474 H 142.939 0.918796 -4.07367 0
M  V30 1475 N 143.376 1.44774 -0.622745 0
M  V30 1476 C 144.339 2.29069 0.0774015 0
M  V30 1477 C 145.339 1.4059 0.780461 0
M  V30 1478 O 146.529 1.62551 0.626322 0
M  V30 1479 C 143.661 3.21974 1.12006 0
M  V30 1480 H 144.854 2.92459 -0.663901 0
M  V30 1481 H 142.407 1.51548 -0.382486 0
M  V30 1482 H 143.142 2.63417 1.89162 0
M  V30 1483 H 142.927 3.87168 0.619951 0
M  V30 1484 H 144.417 3.85318 1.60995 0
M  V30 1485 N 144.854 0.36279 1.53368 0
M  V30 1486 C 145.786 -0.519668 2.23231 0
M  V30 1487 C 146.799 -1.04844 1.24546 0
M  V30 1488 O 147.988 -0.955296 1.50786 0
M  V30 1489 C 145.088 -1.72995 2.9142 0
M  V30 1490 C 144.261 -1.33316 4.16588 0
M  V30 1491 C 143.32 -2.40521 4.68013 0
M  V30 1492 O 142.346 -2.03027 5.3176 0
M  V30 1493 N 143.548 -3.72065 4.45587 0
M  V30 1494 H 146.313 0.078751 2.99597 0
M  V30 1495 H 143.874 0.187833 1.60807 0
M  V30 1496 H 145.866 -2.44184 3.22733 0
M  V30 1497 H 144.436 -2.2353 2.18525 0
M  V30 1498 H 143.656 -0.451236 3.91609 0
M  V30 1499 H 144.944 -1.04432 4.97967 0
M  V30 1500 H 144.342 -4.05304 3.94646 0
M  V30 1501 H 142.899 -4.39366 4.81457 0
M  V30 1502 N 146.332 -1.57332 0.0918853 0
M  V30 1503 C 147.572 -1.96117 -0.575988 0
M  V30 1504 C 147.936 -0.972499 -1.65549 0
M  V30 1505 O 149.137 -1.24872 -2.38034 0
M  V30 1506 C 147.408 -3.39407 -1.11973 0
M  V30 1507 S 148.967 -4.00185 -1.79992 0
M  V30 1508 H 145.785 -0.685682 -0.188045 0
M  V30 1509 H 148.387 -1.94755 0.170525 0
M  V30 1510 H 147.091 -4.09131 -0.322504 0
M  V30 1511 H 146.622 -3.44358 -1.90214 0
M  V30 1512 H 148.637 -3.88728 -3.08391 0
M  V30 1513 N 147.81 0.181792 -1.56548 0
M  V30 1514 C 149.058 0.89832 -1.81038 0
M  V30 1515 C 149.379 1.83232 -0.667164 0
M  V30 1516 O 148.649 1.93372 0.313673 0
M  V30 1517 H 147.229 0.33471 -0.667816 0
M  V30 1518 H 149.891 0.184116 -1.94028 0
M  V30 1519 H 148.987 1.4815 -2.74696 0
M  V30 1520 N 149.288 1.51039 0.449983 0
M  V30 1521 C 150.535 1.63081 1.20045 0
M  V30 1522 C 150.863 0.341024 1.91487 0
M  V30 1523 O 150.118 -0.674276 1.83717 0
M  V30 1524 C 150.417 2.77556 2.25161 0
M  V30 1525 C 150.083 4.17289 1.70823 0
M  V30 1526 C 148.745 4.55305 1.55725 0
M  V30 1527 C 151.097 5.04536 1.3074 0
M  V30 1528 C 148.425 5.78287 0.989999 0
M  V30 1529 C 150.777 6.28085 0.754482 0
M  V30 1530 C 149.441 6.64885 0.590308 0
M  V30 1531 H 148.711 0.596755 0.439277 0
M  V30 1532 H 151.358 1.85037 0.49333 0
M  V30 1533 H 149.663 2.49771 3.01863 0
M  V30 1534 H 151.36 2.84073 2.83026 0
M  V30 1535 H 147.95 3.8731 1.83546 0
M  V30 1536 H 152.134 4.75782 1.41229 0
M  V30 1537 H 147.39 6.05456 0.850451 0
M  V30 1538 H 151.564 6.95038 0.435324 0
M  V30 1539 H 149.191 7.60055 0.14862 0
M  V30 1540 N 150.766 -0.704594 1.40972 0
M  V30 1541 C 152.006 -1.47691 1.41304 0
M  V30 1542 C 152.37 -1.91992 0.0178582 0
M  V30 1543 O 153.571 -2.68599 -0.103996 0
M  V30 1544 C 151.842 -2.66254 2.38419 0
M  V30 1545 S 153.401 -3.55516 2.57204 0
M  V30 1546 H 150.219 -0.504808 0.500689 0
M  V30 1547 H 152.821 -0.822962 1.77335 0
M  V30 1548 H 151.525 -2.31897 3.38603 0
M  V30 1549 H 151.056 -3.3655 2.03711 0
M  V30 1550 H 153.071 -4.61115 1.83268 0
M  V30 1551 N 152.244 -1.26651 -0.937939 0
M  V30 1552 C 153.472 -1.15173 -1.7188 0
M  V30 1553 C 153.887 0.292668 -1.86518 0
M  V30 1554 O 153.244 1.20014 -1.37488 0
M  V30 1555 C 153.295 -1.81925 -3.12387 0
M  V30 1556 O 153.016 -3.2072 -2.98446 0
M  V30 1557 C 154.517 -1.76442 -4.06673 0
M  V30 1558 H 151.737 -0.400911 -0.538063 0
M  V30 1559 H 154.281 -1.67332 -1.1756 0
M  V30 1560 H 152.436 -1.33696 -3.63599 0
M  V30 1561 H 152.85 -3.53802 -3.872 0
M  V30 1562 H 154.324 -2.27781 -5.02812 0
M  V30 1563 H 154.801 -0.731608 -4.33064 0
M  V30 1564 H 155.407 -2.24238 -3.61382 0
M  V30 1565 N 153.722 1.14298 -1.08507 0
M  V30 1566 C 155.133 1.66926 -0.836227 0
M  V30 1567 C 155.484 1.85576 0.63686 0
M  V30 1568 O 154.609 1.56767 1.49175 0
M  V30 1569 C 155.204 3.03219 -1.51142 0
M  V30 1570 C 153.763 3.52876 -1.30979 0
M  V30 1571 C 152.91 2.2833 -1.57356 0
M  V30 1572 H 155.861 0.983491 -1.24552 0
M  V30 1573 H 155.882 3.68726 -0.939211 0
M  V30 1574 H 155.394 2.89612 -2.58353 0
M  V30 1575 H 153.495 3.71703 -0.258429 0
M  V30 1576 H 153.608 4.33586 -2.03814 0
M  V30 1577 H 151.972 2.34454 -0.995164 0
M  V30 1578 H 152.755 2.17298 -2.65775 0
M  V30 1579 N 155.201 0.870884 1.31352 0
M  V30 1580 C 156.449 0.48132 1.96285 0
M  V30 1581 C 156.77 -0.969813 1.69173 0
M  V30 1582 O 156.04 -1.67998 1.00764 0
M  V30 1583 H 154.62 0.175002 0.726212 0
M  V30 1584 H 157.282 1.11087 1.60143 0
M  V30 1585 H 156.378 0.639825 3.05471 0
M  V30 1586 N 156.679 -1.44442 0.630414 0
M  V30 1587 C 157.926 -2.02052 0.134617 0
M  V30 1588 C 158.254 -1.49576 -1.24327 0
M  V30 1589 O 157.509 -0.669806 -1.83881 0
M  V30 1590 C 157.808 -3.57332 0.0697835 0
M  V30 1591 C 157.474 -4.29058 1.38635 0
M  V30 1592 C 156.136 -4.4837 1.74694 0
M  V30 1593 C 158.488 -4.69872 2.25543 0
M  V30 1594 C 155.816 -5.05756 2.97369 0
M  V30 1595 C 158.168 -5.28616 3.47487 0
M  V30 1596 C 156.832 -5.46147 3.8377 0
M  V30 1597 H 156.102 -0.739361 0.0492598 0
M  V30 1598 H 158.749 -1.73217 0.816586 0
M  V30 1599 H 157.054 -3.85577 -0.695553 0
M  V30 1600 H 158.751 -3.99637 -0.330344 0
M  V30 1601 H 155.341 -4.14357 1.09574 0
M  V30 1602 H 159.525 -4.54666 1.98979 0
M  V30 1603 H 154.781 -5.17515 3.25558 0
M  V30 1604 H 158.955 -5.59192 4.15063 0
M  V30 1605 H 156.582 -5.9038 4.7891 0
M  V30 1606 N 158.157 -0.370918 -1.53173 0
M  V30 1607 C 159.406 0.218249 -2.00516 0
M  V30 1608 C 159.719 1.49429 -1.26215 0
M  V30 1609 O 160.925 2.16239 -1.64174 0
M  V30 1610 C 159.381 0.43948 -3.57207 0
M  V30 1611 C 158.989 -0.822244 -4.4039 0
M  V30 1612 C 160.733 0.986012 -4.1289 0
M  V30 1613 C 158.64 -0.570304 -5.88644 0
M  V30 1614 H 157.57 0.0853333 -0.749156 0
M  V30 1615 H 160.221 -0.490483 -1.76823 0
M  V30 1616 H 158.603 1.20961 -3.77074 0
M  V30 1617 H 159.777 -1.59557 -4.32294 0
M  V30 1618 H 158.092 -1.29238 -3.95836 0
M  V30 1619 H 160.689 1.18991 -5.21292 0
M  V30 1620 H 161.032 1.94972 -3.6782 0
M  V30 1621 H 161.565 0.27592 -3.96842 0
M  V30 1622 H 158.304 -1.50449 -6.38001 0
M  V30 1623 H 157.824 0.164427 -5.99575 0
M  V30 1624 H 159.503 -0.19784 -6.46697 0
M  V30 1625 N 159.635 1.57281 -0.100228 0
M  V30 1626 C 160.881 1.94826 0.563101 0
M  V30 1627 C 161.214 0.982475 1.67514 0
M  V30 1628 O 160.489 0.0164069 1.94493 0
M  V30 1629 C 160.772 3.42453 1.11346 0
M  V30 1630 C 160.625 4.498 0.00612081 0
M  V30 1631 C 161.944 3.91506 2.01024 0
M  V30 1632 H 159.063 0.708428 0.203221 0
M  V30 1633 H 161.705 1.8922 -0.171979 0
M  V30 1634 H 159.855 3.47361 1.7399 0
M  V30 1635 H 161.527 4.57 -0.628357 0
M  V30 1636 H 159.77 4.28756 -0.659581 0
M  V30 1637 H 160.441 5.50306 0.432109 0
M  V30 1638 H 162.917 3.88784 1.48278 0
M  V30 1639 H 161.793 4.95358 2.36457 0
M  V30 1640 H 162.054 3.31099 2.92961 0
M  V30 1641 N 161.113 -0.173488 1.56642 0
M  V30 1642 C 162.338 -0.910149 1.86363 0
M  V30 1643 C 162.763 -1.75132 0.686318 0
M  V30 1644 O 162.121 -1.77595 -0.364643 0
M  V30 1645 C 162.169 -1.76447 3.14482 0
M  V30 1646 O 161.273 -2.86584 2.96553 0
M  V30 1647 H 160.614 -0.255086 0.613047 0
M  V30 1648 H 163.144 -0.172283 2.03873 0
M  V30 1649 H 163.154 -2.16483 3.45831 0
M  V30 1650 H 161.829 -1.14658 3.99783 0
M  V30 1651 H 160.406 -2.50146 2.76553 0
M  V30 1652 N 162.591 -1.51276 -0.441967 0
M  V30 1653 C 163.554 -1.7167 -1.51862 0
M  V30 1654 C 164.554 -0.586793 -1.49711 0
M  V30 1655 O 165.744 -0.854276 -1.51815 0
M  V30 1656 C 162.876 -1.76889 -2.91416 0
M  V30 1657 H 164.069 -2.67754 -1.35084 0
M  V30 1658 H 161.622 -1.41196 -0.670333 0
M  V30 1659 H 162.357 -0.826026 -3.13604 0
M  V30 1660 H 162.142 -2.59001 -2.94382 0
M  V30 1661 H 163.632 -1.94522 -3.69528 0
M  V30 1662 N 164.069 0.697108 -1.41344 0
M  V30 1663 C 165.016 1.81106 -1.43071 0
M  V30 1664 C 165.986 1.63632 -0.285275 0
M  V30 1665 O 167.171 1.84504 -0.486091 0
M  V30 1666 C 164.311 3.18975 -1.31715 0
M  V30 1667 C 163.424 3.47892 -2.56115 0
M  V30 1668 C 162.559 4.75367 -2.37064 0
M  V30 1669 C 161.598 4.97247 -3.56948 0
M  V30 1670 N 160.735 6.15947 -3.36977 0
M  V30 1671 H 165.575 1.78965 -2.38276 0
M  V30 1672 H 163.112 0.873975 -1.18322 0
M  V30 1673 H 165.07 3.98615 -1.23133 0
M  V30 1674 H 163.7 3.20297 -0.401183 0
M  V30 1675 H 162.752 2.62669 -2.75153 0
M  V30 1676 H 164.064 3.59962 -3.45295 0
M  V30 1677 H 163.218 5.63059 -2.25941 0
M  V30 1678 H 161.957 4.65541 -1.45338 0
M  V30 1679 H 160.962 4.08004 -3.68527 0
M  V30 1680 H 162.187 5.08934 -4.49626 0
M  V30 1681 H 160.133 6.07336 -2.47949 0
M  V30 1682 H 160.05 6.28777 -4.19732 0
M  V30 1683 H 161.318 7.06377 -3.29623 0
M  V30 1684 N 165.547 1.27147 0.931209 0
M  V30 1685 C 166.51 1.09615 2.01289 0
M  V30 1686 C 167.51 0.0412581 1.60747 0
M  V30 1687 O 168.7 0.285545 1.71844 0
M  V30 1688 C 165.832 0.669447 3.34262 0
M  V30 1689 H 167.025 2.05662 2.18273 0
M  V30 1690 H 164.578 1.09885 1.11153 0
M  V30 1691 H 165.313 -0.292572 3.22978 0
M  V30 1692 H 165.098 1.43127 3.65044 0
M  V30 1693 H 166.588 0.568921 4.13706 0
M  V30 1694 N 167.025 -1.13721 1.09112 0
M  V30 1695 C 167.955 -2.21148 0.749385 0
M  V30 1696 C 168.936 -1.6792 -0.271475 0
M  V30 1697 O 170.121 -1.93693 -0.140251 0
M  V30 1698 C 167.251 -3.46905 0.165659 0
M  V30 1699 C 166.205 -4.13203 1.11567 0
M  V30 1700 C 165.531 -5.33248 0.393809 0
M  V30 1701 C 166.831 -4.60912 2.45678 0
M  V30 1702 H 168.525 -2.4999 1.64758 0
M  V30 1703 H 166.071 -1.20156 0.793626 0
M  V30 1704 H 168.024 -4.21313 -0.085466 0
M  V30 1705 H 166.748 -3.17449 -0.767714 0
M  V30 1706 H 165.407 -3.40758 1.35202 0
M  V30 1707 H 165.055 -5.00054 -0.543599 0
M  V30 1708 H 164.755 -5.78552 1.02721 0
M  V30 1709 H 166.279 -6.10413 0.150908 0
M  V30 1710 H 167.693 -5.26759 2.26269 0
M  V30 1711 H 166.09 -5.16944 3.04776 0
M  V30 1712 H 167.16 -3.75603 3.06677 0
M  V30 1713 N 168.503 -0.877838 -1.30888 0
M  V30 1714 C 169.433 -0.35534 -2.3078 0
M  V30 1715 C 170.414 0.557994 -1.60687 0
M  V30 1716 O 171.599 0.473355 -1.88343 0
M  V30 1717 C 168.729 0.437221 -3.44537 0
M  V30 1718 C 167.683 -0.383715 -4.26276 0
M  V30 1719 C 167.009 0.535014 -5.32017 0
M  V30 1720 C 168.309 -1.62201 -4.96476 0
M  V30 1721 H 170.003 -1.19007 -2.74732 0
M  V30 1722 H 167.549 -0.573698 -1.32078 0
M  V30 1723 H 169.502 0.813334 -4.13477 0
M  V30 1724 H 168.226 1.30553 -2.99372 0
M  V30 1725 H 166.885 -0.741874 -3.59015 0
M  V30 1726 H 166.533 1.40083 -4.831 0
M  V30 1727 H 166.233 -0.0104211 -5.87599 0
M  V30 1728 H 167.757 0.907799 -6.03814 0
M  V30 1729 H 169.171 -1.31689 -5.5797 0
M  V30 1730 H 167.568 -2.10711 -5.61891 0
M  V30 1731 H 168.638 -2.37044 -4.23011 0
M  V30 1732 N 169.982 1.44106 -0.638065 0
M  V30 1733 C 171.259 1.95453 -0.0759321 0
M  V30 1734 C 171.639 1.57984 1.40015 0
M  V30 1735 O 170.987 0.857361 2.11806 0
M  V30 1736 C 171.197 3.47655 -0.306132 0
M  V30 1737 C 172.545 4.24114 -0.203008 0
M  V30 1738 O 173.569 3.55405 -0.237871 0
M  V30 1739 O 172.428 5.46381 -0.113827 0
M  V30 1740 H 169.522 0.826797 0.0183332 0
M  V30 1741 H 172.068 1.54122 -0.710251 0
M  V30 1742 H 170.84 3.68 -1.3301 0
M  V30 1743 H 170.463 3.95949 0.361991 0
M  V30 1744 N 171.46 0.379036 1.52974 0
M  V30 1745 C 172.37 -0.468639 2.29872 0
M  V30 1746 C 173.386 -1.08067 1.36373 0
M  V30 1747 O 174.562 -1.08871 1.69438 0
M  V30 1748 C 171.627 -1.58594 3.083 0
M  V30 1749 C 170.688 -1.00007 4.17489 0
M  V30 1750 C 169.921 -2.06413 4.92168 0
M  V30 1751 O 170.144 -3.27751 4.66835 0
M  V30 1752 O 169.078 -1.68717 5.7777 0
M  V30 1753 H 172.904 0.157508 3.03291 0
M  V30 1754 H 170.489 0.143035 1.48714 0
M  V30 1755 H 172.371 -2.23525 3.57232 0
M  V30 1756 H 171.046 -2.19724 2.37703 0
M  V30 1757 H 169.953 -0.314299 3.72777 0
M  V30 1758 H 171.286 -0.433135 4.90291 0
M  V30 1759 N 172.938 -1.57226 0.108567 0
M  V30 1760 C 173.886 -2.16002 -0.862885 0
M  V30 1761 C 174.88 -1.10644 -1.28274 0
M  V30 1762 O 176.086 -1.28966 -1.2557 0
M  V30 1763 H 172.461 -0.691148 -0.296342 0
M  V30 1764 H 174.432 -2.96427 -0.342575 0
M  V30 1765 C 173.181 -2.76576 -2.10716 0
M  V30 1766 H 172.504 -3.5734 -1.793 0
M  V30 1767 H 173.944 -3.21253 -2.76717 0
M  V30 1768 C 172.403 -1.73137 -2.89007 0
M  V30 1769 O 172.933 -1.17842 -3.84026 0
M  V30 1770 N 171.139 -1.43317 -2.52801 0
M  V30 1771 H 170.686 -1.88473 -1.75601 0
M  V30 1772 H 170.644 -0.743485 -3.05483 0
M  V30 1773 N 174.416 0.165178 -1.56732 0
M  V30 1774 C 175.662 0.882112 -1.82611 0
M  V30 1775 C 175.995 1.81628 -0.687378 0
M  V30 1776 O 175.27 1.92009 0.310267 0
M  V30 1777 C 175.553 1.67245 -3.18906 0
M  V30 1778 C 175.406 0.760987 -4.43316 0
M  V30 1779 C 176.725 2.63884 -3.52212 0
M  V30 1780 H 173.844 0.319242 -0.664269 0
M  V30 1781 H 176.486 0.148052 -1.89422 0
M  V30 1782 H 174.636 2.29824 -3.1323 0
M  V30 1783 H 176.308 0.147596 -4.61064 0
M  V30 1784 H 174.551 0.0694102 -4.33744 0
M  V30 1785 H 175.222 1.34962 -5.35247 0
M  V30 1786 H 177.698 2.11429 -3.58381 0
M  V30 1787 H 176.574 3.16245 -4.48643 0
M  V30 1788 H 176.835 3.44377 -2.77231 0
M  V30 1789 N 175.894 1.51508 0.433938 0
M  V30 1790 C 176.857 1.72473 1.50949 0
M  V30 1791 C 177.857 0.594725 1.49398 0
M  V30 1792 O 179.047 0.862315 1.5136 0
M  V30 1793 C 176.179 1.78431 2.90474 0
M  V30 1794 H 177.372 2.68467 1.33662 0
M  V30 1795 H 174.925 1.41549 0.662836 0
M  V30 1796 H 175.66 0.842645 3.13161 0
M  V30 1797 H 175.445 2.60558 2.93005 0
M  V30 1798 H 176.935 1.96479 3.68491 0
M  V30 1799 N 177.372 -0.689602 1.41712 0
M  V30 1800 C 178.783 -1.26973 1.36875 0
M  V30 1801 C 179.134 -1.96124 0.054748 0
M  V30 1802 O 178.259 -1.99141 -0.84687 0
M  V30 1803 C 178.854 -2.30912 2.47922 0
M  V30 1804 C 177.413 -2.84486 2.46464 0
M  V30 1805 C 176.56 -1.58603 2.27465 0
M  V30 1806 H 179.511 -0.48396 1.51141 0
M  V30 1807 H 179.532 -3.12331 2.17323 0
M  V30 1808 H 179.044 -1.80554 3.43543 0
M  V30 1809 H 177.145 -3.39005 1.54617 0
M  V30 1810 H 177.258 -3.34511 3.42986 0
M  V30 1811 H 175.622 -1.84632 1.75451 0
M  V30 1812 H 176.405 -1.10233 3.25121 0
M  V30 1813 N 178.85 -1.27639 -0.924453 0
M  V30 1814 C 180.075 -1.17101 -1.71179 0
M  V30 1815 C 180.5 0.268134 -1.86179 0
M  V30 1816 O 179.858 1.19415 -1.36418 0
M  V30 1817 C 179.906 -1.86313 -3.08739 0
M  V30 1818 O 179.01 -1.16331 -3.95652 0
M  V30 1819 H 178.351 -0.407091 -0.524569 0
M  V30 1820 H 180.881 -1.68767 -1.15666 0
M  V30 1821 H 180.891 -1.938 -3.59034 0
M  V30 1822 H 179.566 -2.91001 -2.97138 0
M  V30 1823 H 178.143 -1.16935 -3.54091 0
M  V30 1824 N 180.328 1.1314 -1.09713 0
M  V30 1825 C 181.744 1.36477 -0.827423 0
M  V30 1826 C 181.944 1.93654 0.556817 0
M  V30 1827 O 181 2.15791 1.31112 0
M  V30 1828 C 182.313 2.31334 -1.92106 0
M  V30 1829 C 183.861 2.44943 -1.94864 0
M  V30 1830 C 184.336 3.4311 -3.0338 0
M  V30 1831 N 185.827 3.50662 -3.02639 0
M  V30 1832 C 186.562 4.2651 -3.83246 0
M  V30 1833 N 186.058 5.05485 -4.73768 0
M  V30 1834 N 187.851 4.2184 -3.71493 0
M  V30 1835 H 180.002 0.743807 -1.9895 0
M  V30 1836 H 182.265 0.389823 -0.864143 0
M  V30 1837 H 181.971 1.96483 -2.91698 0
M  V30 1838 H 181.845 3.31381 -1.80184 0
M  V30 1839 H 184.232 2.79079 -0.959099 0
M  V30 1840 H 184.313 1.4481 -2.10864 0
M  V30 1841 H 183.957 3.09704 -4.02549 0
M  V30 1842 H 183.887 4.43055 -2.84622 0
M  V30 1843 H 186.378 2.94315 -2.37039 0
M  V30 1844 H 186.691 5.60675 -5.3185 0
M  V30 1845 H 185.036 5.04708 -4.77802 0
M  V30 1846 H 188.227 3.5922 -3.00131 0
M  V30 1847 H 188.4 4.80697 -4.3455 0
M  V30 1848 N 181.806 0.884767 1.30421 0
M  V30 1849 C 182.716 0.355398 2.31892 0
M  V30 1850 C 183.732 -0.542261 1.65335 0
M  V30 1851 O 184.908 -0.435432 1.96637 0
M  V30 1852 C 181.973 -0.421661 3.44126 0
M  V30 1853 C 181.034 0.505727 4.26311 0
M  V30 1854 C 180.267 -0.234343 5.33185 0
M  V30 1855 O 180.49 -1.46045 5.51386 0
M  V30 1856 O 179.424 0.415443 6.00465 0
M  V30 1857 H 183.25 1.19685 2.79122 0
M  V30 1858 H 180.835 0.648596 1.34587 0
M  V30 1859 H 182.717 -0.861641 4.12497 0
M  V30 1860 H 181.392 -1.23942 2.99032 0
M  V30 1861 H 180.299 0.994513 3.60639 0
M  V30 1862 H 181.632 1.28948 4.75009 0
M  V30 1863 N 183.284 -1.43765 0.645699 0
M  V30 1864 C 184.561 -1.9541 0.0862963 0
M  V30 1865 C 184.941 -1.58725 -1.39175 0
M  V30 1866 O 184.289 -0.868581 -2.11348 0
M  V30 1867 C 184.499 -3.47488 0.324565 0
M  V30 1868 C 185.847 -4.24001 0.225497 0
M  V30 1869 O 186.871 -3.55274 0.256715 0
M  V30 1870 O 185.73 -5.46313 0.142801 0
M  V30 1871 H 182.824 -0.826882 -0.0139483 0
M  V30 1872 H 185.37 -1.53743 0.718415 0
M  V30 1873 H 184.142 -3.67289 1.3496 0
M  V30 1874 H 183.765 -3.96135 -0.340987 0
M  V30 1875 N 184.763 -0.387143 -1.52771 0
M  V30 1876 C 186.009 0.196025 -2.0185 0
M  V30 1877 C 186.342 1.46641 -1.27319 0
M  V30 1878 O 185.617 1.90889 -0.373032 0
M  V30 1879 C 185.9 0.466136 -3.5707 0
M  V30 1880 C 185.753 -0.819385 -4.42274 0
M  V30 1881 C 187.072 1.25768 -4.21747 0
M  V30 1882 H 184.191 0.0697708 -0.73369 0
M  V30 1883 H 186.833 -0.516286 -1.82851 0
M  V30 1884 H 184.983 1.07293 -3.7339 0
M  V30 1885 H 186.655 -1.4563 -4.37709 0
M  V30 1886 H 184.898 -1.43517 -4.09372 0
M  V30 1887 H 185.569 -0.585065 -5.48891 0
M  V30 1888 H 188.045 0.744167 -4.09391 0
M  V30 1889 H 186.921 1.41541 -5.30337 0
M  V30 1890 H 187.182 2.27228 -3.79236 0
M  V30 1891 N 186.241 1.57166 -0.116904 0
M  V30 1892 C 187.657 1.5779 0.239693 0
M  V30 1893 C 187.857 1.1295 1.66867 0
M  V30 1894 O 186.913 0.81592 2.38954 0
M  V30 1895 C 188.226 3.00699 0.00828202 0
M  V30 1896 C 189.774 3.12912 0.0743438 0
M  V30 1897 C 190.249 4.57817 -0.129348 0
M  V30 1898 N 191.74 4.63139 -0.075247 0
M  V30 1899 C 192.475 5.73023 -0.207788 0
M  V30 1900 N 191.971 6.91665 -0.396382 0
M  V30 1901 N 193.764 5.61906 -0.14751 0
M  V30 1902 H 185.915 1.84615 -1.05029 0
M  V30 1903 H 188.178 0.85311 -0.41341 0
M  V30 1904 H 187.884 3.37784 -0.979531 0
M  V30 1905 H 187.758 3.69848 0.741077 0
M  V30 1906 H 190.145 2.75686 1.05268 0
M  V30 1907 H 190.226 2.4631 -0.690297 0
M  V30 1908 H 189.87 4.95742 -1.10465 0
M  V30 1909 H 189.8 5.22507 0.655253 0
M  V30 1910 H 192.291 3.7784 0.0670898 0
M  V30 1911 H 192.604 7.71255 -0.488437 0
M  V30 1912 H 190.949 6.93654 -0.432329 0
M  V30 1913 H 194.14 4.681 -0.00115036 0
M  V30 1914 H 194.313 6.47501 -0.254247 0
M  V30 1915 N 187.719 -0.156864 1.56817 0
M  V30 1916 C 188.996 -0.899244 1.73704 0
M  V30 1917 C 189.376 -1.99771 0.682254 0
M  V30 1918 O 188.724 -2.26515 -0.300522 0
M  V30 1919 C 188.934 -1.45075 3.17418 0
M  V30 1920 C 190.282 -1.91802 3.7881 0
M  V30 1921 O 191.306 -1.54838 3.20786 0
M  V30 1922 O 190.165 -2.5994 4.80722 0
M  V30 1923 H 187.259 -0.424267 0.709878 0
M  V30 1924 H 189.805 -0.143561 1.69092 0
M  V30 1925 H 188.577 -0.660846 3.85679 0
M  V30 1926 H 188.2 -2.27021 3.26416 0
M  V30 1927 N 189.197 -1.51736 -0.425897 0
M  V30 1928 C 190.443 -1.66174 -1.17294 0
M  V30 1929 C 190.798 -0.37876 -1.88635 0
M  V30 1930 O 190.091 0.626021 -1.81084 0
M  V30 1931 C 190.285 -2.81103 -2.20717 0
M  V30 1932 C 190.114 -4.20453 -1.59529 0
M  V30 1933 C 188.884 -4.86225 -1.37525 0
M  V30 1934 C 191.082 -5.03146 -1.06528 0
M  V30 1935 N 189.064 -6.09657 -0.720537 0
M  V30 1936 C 190.435 -6.17674 -0.536506 0
M  V30 1937 C 192.49 -4.88594 -0.958127 0
M  V30 1938 C 191.193 -7.19245 0.0888917 0
M  V30 1939 C 193.219 -5.90383 -0.346608 0
M  V30 1940 C 192.581 -7.04191 0.171564 0
M  V30 1941 H 188.68 -0.661871 -0.416475 0
M  V30 1942 H 191.264 -1.88997 -0.467801 0
M  V30 1943 H 189.435 -2.59924 -2.88607 0
M  V30 1944 H 191.167 -2.84662 -2.87663 0
M  V30 1945 H 187.922 -4.44293 -1.64015 0
M  V30 1946 H 188.346 -6.75756 -0.410292 0
M  V30 1947 H 192.988 -4.0085 -1.34459 0
M  V30 1948 H 190.706 -8.06628 0.48746 0
M  V30 1949 H 194.292 -5.81194 -0.265451 0
M  V30 1950 H 193.172 -7.81606 0.637309 0
M  V30 1951 N 190.675 0.682077 -1.42076 0
M  V30 1952 C 191.922 1.44215 -1.42156 0
M  V30 1953 C 192.25 1.94468 -0.0354186 0
M  V30 1954 O 191.505 1.70816 0.955002 0
M  V30 1955 C 191.804 2.66036 -2.38662 0
M  V30 1956 C 191.47 2.34366 -3.85206 0
M  V30 1957 C 190.132 2.25439 -4.25124 0
M  V30 1958 C 192.484 2.08513 -4.77673 0
M  V30 1959 C 189.812 1.88775 -5.55501 0
M  V30 1960 C 192.164 1.73354 -6.08384 0
M  V30 1961 C 190.828 1.62933 -6.47309 0
M  V30 1962 H 190.098 0.527718 -0.520187 0
M  V30 1963 H 192.745 0.778387 -1.74967 0
M  V30 1964 H 191.05 3.3741 -1.99152 0
M  V30 1965 H 192.747 3.24205 -2.35991 0
M  V30 1966 H 189.337 2.42213 -3.53597 0
M  V30 1967 H 193.521 2.14346 -4.47626 0
M  V30 1968 H 188.777 1.7927 -5.84527 0
M  V30 1969 H 192.951 1.52373 -6.79526 0
M  V30 1970 H 190.578 1.34292 -7.48244 0
M  V30 1971 N 192.153 1.28127 0.917671 0
M  V30 1972 C 193.085 1.07517 2.02417 0
M  V30 1973 C 194.098 0.0281099 1.62776 0
M  V30 1974 O 195.287 0.270748 1.76435 0
M  V30 1975 C 192.387 0.610957 3.33347 0
M  V30 1976 C 191.56 1.73255 4.01624 0
M  V30 1977 C 190.619 1.26238 5.10833 0
M  V30 1978 O 189.645 1.96389 5.34247 0
M  V30 1979 N 190.847 0.123448 5.80369 0
M  V30 1980 H 193.612 2.02806 2.20658 0
M  V30 1981 H 191.173 1.19827 1.08871 0
M  V30 1982 H 193.165 0.280101 4.0373 0
M  V30 1983 H 191.735 -0.24898 3.11607 0
M  V30 1984 H 190.955 2.23319 3.24842 0
M  V30 1985 H 192.243 2.48503 4.43986 0
M  V30 1986 H 191.641 -0.461847 5.63812 0
M  V30 1987 H 190.198 -0.148158 6.51632 0
M  V30 1988 N 193.631 -1.12557 1.10312 0
M  V30 1989 C 194.578 -2.18247 0.750781 0
M  V30 1990 C 195.548 -1.63853 -0.272293 0
M  V30 1991 O 196.733 -1.90195 -0.151862 0
M  V30 1992 C 193.873 -3.44591 0.187379 0
M  V30 1993 C 192.986 -4.13046 1.2656 0
M  V30 1994 C 192.121 -5.27034 0.663978 0
M  V30 1995 C 191.16 -5.87353 1.72287 0
M  V30 1996 N 190.297 -6.92757 1.1416 0
M  V30 1997 H 195.137 -2.47732 1.65628 0
M  V30 1998 H 192.674 -1.21629 0.827337 0
M  V30 1999 H 194.632 -4.16904 -0.157148 0
M  V30 2000 H 193.262 -3.15527 -0.681355 0
M  V30 2001 H 192.314 -3.38924 1.72727 0
M  V30 2002 H 193.626 -4.53947 2.06721 0
M  V30 2003 H 192.78 -6.06104 0.268824 0
M  V30 2004 H 191.519 -4.87407 -0.169082 0
M  V30 2005 H 190.524 -5.06971 2.12746 0
M  V30 2006 H 191.749 -6.29051 2.55875 0
M  V30 2007 H 189.695 -6.5517 0.329984 0
M  V30 2008 H 189.612 -7.3225 1.88007 0
M  V30 2009 H 190.88 -7.75658 0.772956 0
M  V30 2010 N 195.109 -0.891671 -1.2995 0
M  V30 2011 C 196.059 -0.334811 -2.25528 0
M  V30 2012 C 197.043 0.540553 -1.51548 0
M  V30 2013 O 198.235 0.383882 -1.72787 0
M  V30 2014 C 195.364 0.44374 -3.4042 0
M  V30 2015 C 194.45 -0.44609 -4.21747 0
M  V30 2016 N 194.841 -1.54963 -4.81477 0
M  V30 2017 C 193.139 -0.242415 -4.45341 0
M  V30 2018 C 193.84 -2.10015 -5.42465 0
M  V30 2019 N 192.816 -1.39423 -5.25416 0
M  V30 2020 H 196.618 -1.17792 -2.69262 0
M  V30 2021 H 194.132 -0.741822 -1.44467 0
M  V30 2022 H 196.129 0.859362 -4.07947 0
M  V30 2023 H 194.789 1.28421 -2.98225 0
M  V30 2024 H 195.8 -1.93244 -4.80497 0
M  V30 2025 H 192.477 0.560342 -4.13723 0
M  V30 2026 H 193.867 -3.02724 -5.9984 0
M  V30 2027 N 196.587 1.43421 -0.653314 0
M  V30 2028 C 197.537 2.2792 0.060558 0
M  V30 2029 C 198.521 1.39906 0.794677 0
M  V30 2030 O 199.713 1.63536 0.677128 0
M  V30 2031 C 196.842 3.27603 1.0262 0
M  V30 2032 C 195.928 4.23104 0.290551 0
M  V30 2033 N 196.319 5.01031 -0.692967 0
M  V30 2034 C 194.617 4.42816 0.531984 0
M  V30 2035 C 195.318 5.70626 -1.12963 0
M  V30 2036 N 194.294 5.41617 -0.463867 0
M  V30 2037 H 198.096 2.85585 -0.694143 0
M  V30 2038 H 195.61 1.55126 -0.480602 0
M  V30 2039 H 197.607 3.86918 1.55242 0
M  V30 2040 H 196.267 2.71499 1.78096 0
M  V30 2041 H 197.278 5.0669 -1.07169 0
M  V30 2042 H 193.955 3.97782 1.26791 0
M  V30 2043 H 195.345 6.4318 -1.94343 0
M  V30 2044 N 198.065 0.39524 1.52563 0
M  V30 2045 C 199.013 -0.451859 2.28169 0
M  V30 2046 C 200.007 -1.05792 1.32304 0
M  V30 2047 O 201.213 -0.997718 1.49818 0
M  V30 2048 H 197.588 -0.164481 0.733792 0
M  V30 2049 H 199.559 0.207199 2.9768 0
M  V30 2050 C 198.308 -1.56385 3.10546 0
M  V30 2051 H 197.631 -1.10682 3.84174 0
M  V30 2052 H 199.071 -2.13067 3.66577 0
M  V30 2053 C 197.53 -2.52328 2.23231 0
M  V30 2054 O 198.06 -3.5588 1.86312 0
M  V30 2055 N 196.266 -2.22209 1.87274 0
M  V30 2056 H 195.813 -1.38033 2.17496 0
M  V30 2057 H 195.771 -2.86652 1.29143 0
M  V30 2058 N 199.544 -1.57102 0.125237 0
M  V30 2059 C 200.793 -1.94582 -0.531095 0
M  V30 2060 C 201.106 -1.01126 -1.6743 0
M  V30 2061 O 202.312 -1.28097 -2.39381 0
M  V30 2062 C 200.768 -3.45839 -0.996164 0
M  V30 2063 C 200.376 -4.47842 0.118926 0
M  V30 2064 C 202.12 -3.92227 -1.62352 0
M  V30 2065 C 200.027 -5.90284 -0.363192 0
M  V30 2066 H 198.957 -0.726391 -0.20217 0
M  V30 2067 H 201.608 -1.82339 0.206092 0
M  V30 2068 H 199.99 -3.53338 -1.78796 0
M  V30 2069 H 201.164 -4.52018 0.895358 0
M  V30 2070 H 199.479 -4.11243 0.653324 0
M  V30 2071 H 202.076 -4.96069 -1.99548 0
M  V30 2072 H 202.419 -3.32552 -2.50429 0
M  V30 2073 H 202.952 -3.87554 -0.897019 0
M  V30 2074 H 199.691 -6.53728 0.481679 0
M  V30 2075 H 199.211 -5.89515 -1.10597 0
M  V30 2076 H 200.89 -6.41752 -0.822377 0
M  V30 2077 N 201.022 0.148545 -1.56898 0
M  V30 2078 C 202.262 0.86765 -1.85071 0
M  V30 2079 C 202.626 1.78417 -0.709317 0
M  V30 2080 O 203.827 2.54261 -0.872049 0
M  V30 2081 C 202.098 1.62306 -3.1842 0
M  V30 2082 S 203.657 2.3878 -3.68143 0
M  V30 2083 H 200.475 0.290174 -0.649092 0
M  V30 2084 H 203.077 0.127755 -1.95082 0
M  V30 2085 H 201.781 0.941192 -3.99462 0
M  V30 2086 H 201.312 2.4039 -3.1141 0
M  V30 2087 H 203.327 3.63942 -3.37285 0
M  V30 2088 N 202.5 1.5196 0.417844 0
M  V30 2089 C 203.916 1.40569 0.755816 0
M  V30 2090 C 204.116 0.503316 1.95113 0
M  V30 2091 O 203.172 -0.0341925 2.52477 0
M  V30 2092 C 204.485 2.82947 1.01791 0
M  V30 2093 C 206.033 2.92231 1.12116 0
M  V30 2094 C 206.508 4.35559 1.41608 0
M  V30 2095 N 207.999 4.38753 1.48491 0
M  V30 2096 C 208.734 5.46705 1.7292 0
M  V30 2097 N 208.23 6.64788 1.95011 0
M  V30 2098 N 210.023 5.34209 1.74863 0
M  V30 2099 H 202.174 2.09168 -0.369098 0
M  V30 2100 H 204.437 0.942409 -0.102809 0
M  V30 2101 H 204.143 3.5106 0.212081 0
M  V30 2102 H 204.017 3.23462 1.94042 0
M  V30 2103 H 206.404 2.24304 1.9176 0
M  V30 2104 H 206.485 2.55185 0.177225 0
M  V30 2105 H 206.129 5.04042 0.624848 0
M  V30 2106 H 206.059 4.70133 2.37239 0
M  V30 2107 H 208.55 3.5363 1.33244 0
M  V30 2108 H 208.863 7.42845 2.13076 0
M  V30 2109 H 207.208 6.67869 1.92293 0
M  V30 2110 H 210.399 4.40937 1.57137 0
M  V30 2111 H 210.572 6.18415 1.93563 0
M  V30 2112 N 203.978 -0.674533 1.42435 0
M  V30 2113 C 205.218 -1.4466 1.44405 0
M  V30 2114 C 205.582 -1.91911 0.0585784 0
M  V30 2115 O 206.783 -2.68759 -0.0469991 0
M  V30 2116 C 205.054 -2.61136 2.44013 0
M  V30 2117 S 206.613 -3.49981 2.64687 0
M  V30 2118 H 203.431 -0.494074 0.511284 0
M  V30 2119 H 206.033 -0.785162 1.7904 0
M  V30 2120 H 204.737 -2.24662 3.43446 0
M  V30 2121 H 204.268 -3.32153 2.10803 0
M  V30 2122 H 206.283 -4.57124 1.93007 0
M  V30 2123 N 205.456 -1.28612 -0.910864 0
M  V30 2124 C 206.684 -1.18792 -1.69399 0
M  V30 2125 C 207.099 0.253039 -1.87097 0
M  V30 2126 O 206.456 1.17071 -1.40003 0
M  V30 2127 C 206.507 -1.88511 -3.08457 0
M  V30 2128 O 206.228 -3.26979 -2.91576 0
M  V30 2129 C 207.729 -1.85029 -4.02839 0
M  V30 2130 H 204.949 -0.412233 -0.529438 0
M  V30 2131 H 207.493 -1.69788 -1.13984 0
M  V30 2132 H 205.648 -1.41379 -3.60681 0
M  V30 2133 H 206.062 -3.61936 -3.79608 0
M  V30 2134 H 207.536 -2.38395 -4.97867 0
M  V30 2135 H 208.013 -0.823303 -4.31414 0
M  V30 2136 H 208.619 -2.31853 -3.56545 0
M  V30 2137 N 206.934 1.1197 -1.10907 0
M  V30 2138 C 208.182 1.83225 -0.852819 0
M  V30 2139 C 208.503 1.84769 0.623341 0
M  V30 2140 O 207.773 1.3143 1.45269 0
M  V30 2141 H 206.353 0.67849 -0.312507 0
M  V30 2142 H 209.015 1.3556 -1.40033 0
M  V30 2143 H 208.111 2.87265 -1.22005 0
M  V30 2144 N 208.412 0.89855 1.29475 0
M  V30 2145 C 209.642 0.538479 1.99459 0
M  V30 2146 C 210.05 -0.880922 1.67441 0
M  V30 2147 O 209.393 -1.59283 0.915127 0
M  V30 2148 C 209.455 0.649564 3.53583 0
M  V30 2149 C 209.119 2.03573 4.09154 0
M  V30 2150 C 210.116 3.00675 4.24135 0
M  V30 2151 C 207.801 2.3448 4.44212 0
M  V30 2152 C 209.795 4.26809 4.73405 0
M  V30 2153 C 207.482 3.60857 4.93179 0
M  V30 2154 C 208.48 4.56836 5.0773 0
M  V30 2155 O 208.168 5.80969 5.55635 0
M  V30 2156 H 207.9 0.205372 0.644048 0
M  V30 2157 H 210.454 1.20958 1.66007 0
M  V30 2158 H 208.684 -0.0785592 3.8662 0
M  V30 2159 H 210.373 0.29881 4.04799 0
M  V30 2160 H 211.139 2.78112 3.97339 0
M  V30 2161 H 207.018 1.60534 4.32145 0
M  V30 2162 H 210.562 5.0173 4.84678 0
M  V30 2163 H 206.459 3.83251 5.19412 0
M  V30 2164 H 207.227 5.83542 5.73952 0
M  V30 2165 N 209.89 -1.43072 0.660911 0
M  V30 2166 C 210.837 -2.30785 -0.0259884 0
M  V30 2167 C 211.807 -1.45184 -0.806888 0
M  V30 2168 O 212.992 -1.74041 -0.781943 0
M  V30 2169 C 210.132 -3.30861 -0.981067 0
M  V30 2170 C 209.245 -4.31558 -0.195458 0
M  V30 2171 C 208.38 -5.18712 -1.14503 0
M  V30 2172 C 207.419 -6.11097 -0.350299 0
M  V30 2173 N 206.556 -6.90849 -1.25186 0
M  V30 2174 H 211.396 -2.88975 0.727846 0
M  V30 2175 H 208.933 -1.42353 0.370682 0
M  V30 2176 H 210.891 -3.87399 -1.54849 0
M  V30 2177 H 209.521 -2.74304 -1.70169 0
M  V30 2178 H 208.573 -3.77252 0.488374 0
M  V30 2179 H 209.885 -4.9701 0.422176 0
M  V30 2180 H 209.039 -5.79914 -1.78284 0
M  V30 2181 H 207.778 -4.53404 -1.79656 0
M  V30 2182 H 206.783 -5.48976 0.300808 0
M  V30 2183 H 208.008 -6.7845 0.296941 0
M  V30 2184 H 205.954 -6.28182 -1.89005 0
M  V30 2185 H 205.871 -7.52854 -0.688971 0
M  V30 2186 H 207.139 -7.5655 -1.87757 0
M  V30 2187 N 211.368 -0.403325 -1.52352 0
M  V30 2188 C 212.779 0.0675782 -1.86578 0
M  V30 2189 C 213.13 1.44941 -1.32236 0
M  V30 2190 O 212.255 2.06112 -0.659307 0
M  V30 2191 C 212.85 0.129404 -3.38553 0
M  V30 2192 C 211.409 0.544629 -3.72439 0
M  V30 2193 C 210.556 -0.284551 -2.75836 0
M  V30 2194 H 213.507 -0.620631 -1.46061 0
M  V30 2195 H 213.528 0.94581 -3.68558 0
M  V30 2196 H 213.04 -0.87645 -3.78074 0
M  V30 2197 H 211.141 1.55734 -3.38493 0
M  V30 2198 H 211.254 0.293046 -4.78203 0
M  V30 2199 H 209.618 0.252258 -2.53448 0
M  V30 2200 H 210.401 -1.28865 -3.18196 0
M  V30 2201 N 212.846 1.57033 -0.133567 0
M  V30 2202 C 213.776 2.1909 0.807567 0
M  V30 2203 C 214.757 1.13517 1.26681 0
M  V30 2204 O 215.942 1.41809 1.32679 0
M  V30 2205 C 213.072 2.80188 2.05212 0
M  V30 2206 C 212.026 3.91471 1.73015 0
M  V30 2207 C 211.352 4.39443 3.04622 0
M  V30 2208 C 212.652 5.12886 0.987168 0
M  V30 2209 H 214.346 2.97988 0.290403 0
M  V30 2210 H 211.892 1.43335 0.138239 0
M  V30 2211 H 213.845 3.22264 2.71521 0
M  V30 2212 H 212.569 1.98601 2.59278 0
M  V30 2213 H 211.228 3.49993 1.0909 0
M  V30 2214 H 210.876 3.54695 3.56651 0
M  V30 2215 H 210.576 5.14495 2.83847 0
M  V30 2216 H 212.1 4.8418 3.72024 0
M  V30 2217 H 213.514 5.51891 1.55208 0
M  V30 2218 H 211.911 5.93615 0.87985 0
M  V30 2219 H 212.981 4.84894 -0.0235286 0
M  V30 2220 N 214.325 -0.140222 1.56975 0
M  V30 2221 C 215.571 -0.852949 1.83991 0
M  V30 2222 C 215.904 -1.80512 0.716187 0
M  V30 2223 O 215.179 -1.92479 -0.279681 0
M  V30 2224 C 215.462 -1.6215 3.21527 0
M  V30 2225 C 215.315 -0.690363 4.4447 0
M  V30 2226 C 216.634 -2.58247 3.56366 0
M  V30 2227 H 213.753 -0.308634 0.669264 0
M  V30 2228 H 216.395 -0.117898 1.89634 0
M  V30 2229 H 214.545 -2.24812 3.16847 0
M  V30 2230 H 216.217 -0.0742264 4.6124 0
M  V30 2231 H 214.46 -0.000396433 4.338 0
M  V30 2232 H 215.131 -1.2643 5.37326 0
M  V30 2233 H 217.607 -2.05701 3.61699 0
M  V30 2234 H 216.483 -3.09067 4.53617 0
M  V30 2235 H 216.744 -3.39923 2.82674 0
M  V30 2236 N 215.803 -1.52179 -0.40978 0
M  V30 2237 C 217.08 -1.56769 -1.16974 0
M  V30 2238 C 217.46 -0.348322 -2.08206 0
M  V30 2239 O 216.808 0.664862 -2.18613 0
M  V30 2240 C 217.018 -2.89603 -1.9476 0
M  V30 2241 C 218.366 -3.42579 -2.50849 0
M  V30 2242 O 219.39 -2.91338 -2.04941 0
M  V30 2243 O 218.249 -4.32054 -3.34652 0
M  V30 2244 H 215.343 -0.631439 -0.534054 0
M  V30 2245 H 217.889 -1.64507 -0.416613 0
M  V30 2246 H 216.661 -3.698 -1.27921 0
M  V30 2247 H 216.284 -2.85155 -2.77079 0
M  V30 2248 N 217.281 0.66697 -1.42791 0
M  V30 2249 C 218.244 1.76211 -1.46568 0
M  V30 2250 C 219.244 1.56896 -0.352196 0
M  V30 2251 O 220.434 1.63044 -0.613364 0
M  V30 2252 C 217.566 3.14935 -1.30494 0
M  V30 2253 H 218.759 1.74247 -2.44086 0
M  V30 2254 H 216.312 0.877342 -1.29354 0
M  V30 2255 H 217.047 3.2252 -0.339301 0
M  V30 2256 H 216.832 3.30359 -2.11199 0
M  V30 2257 H 218.322 3.94821 -1.36038 0
M  V30 2258 N 218.759 1.29093 0.90403 0
M  V30 2259 C 220.005 1.16986 1.65656 0
M  V30 2260 C 220.338 -0.278925 1.92186 0
M  V30 2261 O 219.613 -1.2019 1.5292 0
M  V30 2262 C 219.896 1.97908 3.0084 0
M  V30 2263 C 219.749 3.50903 2.81403 0
M  V30 2264 C 221.068 1.80208 4.01513 0
M  V30 2265 H 218.187 0.426346 0.601164 0
M  V30 2266 H 220.829 1.58518 1.04747 0
M  V30 2267 H 218.979 1.62616 3.52829 0
M  V30 2268 H 220.651 3.96153 2.36348 0
M  V30 2269 H 218.894 3.76045 2.1627 0
M  V30 2270 H 219.565 4.02791 3.77443 0
M  V30 2271 H 222.041 2.11025 3.58619 0
M  V30 2272 H 220.917 2.39184 4.94047 0
M  V30 2273 H 221.178 0.756119 4.35586 0
M  V30 2274 N 220.237 -1.11381 1.11499 0
M  V30 2275 C 221.17 -2.16621 0.71769 0
M  V30 2276 C 222.148 -1.60058 -0.286413 0
M  V30 2277 O 223.332 -1.87613 -0.182689 0
M  V30 2278 C 220.459 -3.38646 0.0607265 0
M  V30 2279 C 219.505 -4.13874 1.03008 0
M  V30 2280 S 220.338 -4.70731 2.55289 0
M  V30 2281 C 221.494 -5.96079 1.90895 0
M  V30 2282 H 221.727 -2.49987 1.60915 0
M  V30 2283 H 219.26 -1.23015 0.933092 0
M  V30 2284 H 221.218 -4.09313 -0.311965 0
M  V30 2285 H 219.879 -3.03537 -0.807702 0
M  V30 2286 H 219.072 -5.01333 0.517853 0
M  V30 2287 H 218.674 -3.4897 1.34522 0
M  V30 2288 H 220.966 -6.65948 1.24577 0
M  V30 2289 H 221.909 -6.51946 2.76354 0
M  V30 2290 H 222.317 -5.47652 1.36885 0
M  V30 2291 N 221.715 -0.905404 -1.28997 0
M  V30 2292 C 222.992 -0.453513 -1.9027 0
M  V30 2293 C 223.372 1.06721 -1.82137 0
M  V30 2294 O 222.72 1.91159 -1.25182 0
M  V30 2295 C 222.93 -0.974494 -3.35119 0
M  V30 2296 C 224.278 -1.0216 -4.12127 0
M  V30 2297 O 225.302 -0.922557 -3.44046 0
M  V30 2298 O 224.161 -1.17121 -5.33802 0
M  V30 2299 H 221.255 -0.142347 -0.814657 0
M  V30 2300 H 223.801 -0.995642 -1.37423 0
M  V30 2301 H 222.573 -2.01848 -3.35221 0
M  V30 2302 H 222.196 -0.412706 -3.95452 0
M  V30 2303 N 223.193 1.4272 -0.668489 0
M  V30 2304 C 224.156 2.292 0.00448567 0
M  V30 2305 C 225.156 1.43001 0.735339 0
M  V30 2306 O 226.346 1.64461 0.57429 0
M  V30 2307 C 223.478 3.25375 1.01705 0
M  V30 2308 H 224.671 2.90199 -0.756608 0
M  V30 2309 H 222.224 1.50254 -0.430506 0
M  V30 2310 H 222.959 2.69301 1.80686 0
M  V30 2311 H 222.744 3.88944 0.496463 0
M  V30 2312 H 224.234 3.90245 1.48655 0
M  V30 2313 N 224.671 0.411399 1.52136 0
M  V30 2314 C 225.634 -0.401089 2.25663 0
M  V30 2315 C 226.634 -0.971732 1.28117 0
M  V30 2316 O 227.824 -0.850254 1.52041 0
M  V30 2317 C 224.956 -1.56483 3.02863 0
M  V30 2318 H 226.149 0.24295 2.98914 0
M  V30 2319 H 223.702 0.163968 1.55438 0
M  V30 2320 H 224.437 -2.24567 2.33967 0
M  V30 2321 H 224.222 -1.16211 3.74483 0
M  V30 2322 H 225.712 -2.13951 3.58629 0
M  V30 2323 N 226.149 -1.5696 0.141893 0
M  V30 2324 C 227.112 -2.15316 -0.785587 0
M  V30 2325 C 228.112 -1.09366 -1.1788 0
M  V30 2326 O 229.302 -1.35031 -1.10056 0
M  V30 2327 C 226.434 -2.71211 -2.06537 0
M  V30 2328 H 227.627 -2.98608 -0.278041 0
M  V30 2329 H 225.18 -1.5593 -0.107519 0
M  V30 2330 H 225.915 -1.91571 -2.6167 0
M  V30 2331 H 225.7 -3.4872 -1.79268 0
M  V30 2332 H 227.19 -3.16189 -2.72789 0
M  V30 2333 N 227.627 0.131896 -1.57047 0
M  V30 2334 C 228.876 0.84044 -1.83356 0
M  V30 2335 C 229.189 1.81646 -0.725535 0
M  V30 2336 O 230.395 2.57025 -0.874659 0
M  V30 2337 C 228.851 1.54528 -3.25037 0
M  V30 2338 C 228.459 0.610902 -4.43815 0
M  V30 2339 C 230.203 2.23972 -3.60606 0
M  V30 2340 C 228.11 1.31823 -5.76521 0
M  V30 2341 H 227.04 0.317599 -0.683847 0
M  V30 2342 H 229.691 0.0931561 -1.83263 0
M  V30 2343 H 228.073 2.33873 -3.19561 0
M  V30 2344 H 229.247 -0.148407 -4.60561 0
M  V30 2345 H 227.562 0.0241016 -4.16393 0
M  V30 2346 H 230.159 2.77558 -4.57018 0
M  V30 2347 H 230.502 3.01173 -2.87403 0
M  V30 2348 H 231.035 1.51529 -3.6781 0
M  V30 2349 H 227.774 0.587771 -6.52859 0
M  V30 2350 H 227.294 2.04987 -5.63685 0
M  V30 2351 H 228.973 1.855 -6.19838 0
M  V30 2352 N 229.106 1.52395 0.401703 0
M  V30 2353 C 230.036 1.79231 1.49661 0
M  V30 2354 C 231.017 0.643654 1.57452 0
M  V30 2355 O 232.202 0.889989 1.72606 0
M  V30 2356 C 229.332 1.94971 2.87409 0
M  V30 2357 C 228.286 3.10604 2.94465 0
M  V30 2358 C 227.612 3.11577 4.34538 0
M  V30 2359 C 228.912 4.49921 2.6527 0
M  V30 2360 H 230.606 2.70917 1.27454 0
M  V30 2361 H 228.152 1.30362 0.6117 0
M  V30 2362 H 230.105 2.12328 3.63999 0
M  V30 2363 H 228.829 0.999632 3.10926 0
M  V30 2364 H 227.488 2.93009 2.20321 0
M  V30 2365 H 227.136 2.14277 4.55076 0
M  V30 2366 H 226.836 3.89247 4.40183 0
M  V30 2367 H 228.36 3.31073 5.13053 0
M  V30 2368 H 229.774 4.67683 3.31581 0
M  V30 2369 H 228.171 5.29564 2.82281 0
M  V30 2370 H 229.241 4.57507 1.60671 0
M  V30 2371 N 230.584 -0.659388 1.43143 0
M  V30 2372 C 232 -0.974337 1.26407 0
M  V30 2373 C 232.2 -2.007 0.179341 0
M  V30 2374 O 231.256 -2.4856 -0.444295 0
M  V30 2375 C 232.569 -1.46447 2.62628 0
M  V30 2376 C 234.117 -1.58144 2.7011 0
M  V30 2377 C 234.592 -2.1055 4.06734 0
M  V30 2378 N 236.083 -2.17861 4.08767 0
M  V30 2379 C 236.818 -2.59519 5.1131 0
M  V30 2380 N 236.314 -3.00518 6.24228 0
M  V30 2381 N 238.107 -2.59404 4.98664 0
M  V30 2382 H 230.258 0.0240528 2.12386 0
M  V30 2383 H 232.521 -0.0518065 0.946583 0
M  V30 2384 H 232.227 -0.780123 3.42939 0
M  V30 2385 H 232.101 -2.44058 2.87603 0
M  V30 2386 H 234.488 -2.25682 1.90136 0
M  V30 2387 H 234.569 -0.589828 2.48907 0
M  V30 2388 H 234.213 -1.43616 4.87172 0
M  V30 2389 H 234.143 -3.10531 4.25298 0
M  V30 2390 H 236.634 -1.88975 3.27257 0
M  V30 2391 H 236.947 -3.31036 6.98309 0
M  V30 2392 H 235.292 -2.98337 6.2771 0
M  V30 2393 H 238.483 -2.26747 4.09516 0
M  V30 2394 H 238.656 -2.91548 5.78709 0
M  V30 2395 N 232.062 -1.29571 -0.897171 0
M  V30 2396 C 233.31 -1.17456 -1.64464 0
M  V30 2397 C 233.631 0.273698 -1.9307 0
M  V30 2398 O 232.901 1.18684 -1.55855 0
M  V30 2399 H 231.481 -0.431706 -0.609622 0
M  V30 2400 H 234.143 -1.62531 -1.07562 0
M  V30 2401 H 233.239 -1.72648 -2.59998 0
M  V30 2402 N 233.54 1.10788 -1.12088 0
M  V30 2403 C 234.45 2.20599 -0.798338 0
M  V30 2404 C 235.466 1.72712 0.21135 0
M  V30 2405 O 236.642 2.01348 0.0458477 0
M  V30 2406 C 233.707 3.45771 -0.253674 0
M  V30 2407 C 232.768 4.08411 -1.32283 0
M  V30 2408 C 232.001 5.27608 -0.80406 0
M  V30 2409 O 232.224 5.69241 0.363478 0
M  V30 2410 O 231.158 5.8101 -1.57198 0
M  V30 2411 H 234.984 2.50614 -1.7154 0
M  V30 2412 H 232.569 1.19454 -0.897275 0
M  V30 2413 H 234.451 4.21376 0.0453691 0
M  V30 2414 H 233.126 3.1739 0.636005 0
M  V30 2415 H 232.033 3.34507 -1.67499 0
M  V30 2416 H 233.366 4.40986 -2.18614 0
M  V30 2417 N 235.018 0.912232 1.28515 0
M  V30 2418 C 235.965 0.397954 2.27343 0
M  V30 2419 C 236.935 -0.526766 1.57526 0
M  V30 2420 O 238.12 -0.449292 1.85435 0
M  V30 2421 C 235.26 -0.357263 3.43246 0
M  V30 2422 C 234.373 0.599788 4.27816 0
M  V30 2423 C 233.508 -0.173725 5.30916 0
M  V30 2424 C 232.547 0.777039 6.07148 0
M  V30 2425 N 231.684 0.0371398 7.0209 0
M  V30 2426 H 236.524 1.24577 2.70711 0
M  V30 2427 H 234.061 0.625612 1.33133 0
M  V30 2428 H 236.019 -0.8113 4.09236 0
M  V30 2429 H 234.649 -1.16943 3.00872 0
M  V30 2430 H 233.701 1.17235 3.61884 0
M  V30 2431 H 235.013 1.32704 4.80823 0
M  V30 2432 H 234.167 -0.688394 6.02782 0
M  V30 2433 H 232.906 -0.934041 4.78672 0
M  V30 2434 H 231.911 1.3031 5.34134 0
M  V30 2435 H 233.136 1.53689 6.61481 0
M  V30 2436 H 231.082 -0.705213 6.52198 0
M  V30 2437 H 230.999 0.704249 7.52713 0
M  V30 2438 H 232.267 -0.457383 7.78157 0
M  V30 2439 N 236.496 -1.42363 0.676048 0
M  V30 2440 C 237.724 -2.05859 0.207268 0
M  V30 2441 C 238.139 -1.50796 -1.13605 0
M  V30 2442 O 237.496 -0.648265 -1.70598 0
M  V30 2443 C 237.547 -3.61248 0.134975 0
M  V30 2444 O 237.268 -4.1427 1.42521 0
M  V30 2445 C 238.769 -4.41859 -0.357151 0
M  V30 2446 H 235.989 -0.663431 0.100503 0
M  V30 2447 H 238.533 -1.82479 0.923136 0
M  V30 2448 H 236.688 -3.83735 -0.531588 0
M  V30 2449 H 237.102 -5.0815 1.29939 0
M  V30 2450 H 238.576 -5.50847 -0.356641 0
M  V30 2451 H 239.053 -4.16536 -1.39264 0
M  V30 2452 H 239.659 -4.24392 0.27772 0
M  V30 2453 N 237.974 -0.419461 -1.51915 0
M  V30 2454 C 239.22 0.153166 -2.02221 0
M  V30 2455 C 239.553 1.43907 -1.30401 0
M  V30 2456 O 238.828 1.90055 -0.413438 0
M  V30 2457 C 239.111 0.390291 -3.57979 0
M  V30 2458 C 238.964 -0.913014 -4.40436 0
M  V30 2459 C 240.283 1.16794 -4.2432 0
M  V30 2460 H 237.402 0.0541924 -0.735005 0
M  V30 2461 H 240.044 -0.554955 -1.81715 0
M  V30 2462 H 238.194 0.993491 -3.75582 0
M  V30 2463 H 239.866 -1.54882 -4.34522 0
M  V30 2464 H 238.109 -1.52168 -4.06236 0
M  V30 2465 H 238.78 -0.701361 -5.47526 0
M  V30 2466 H 241.256 0.657161 -4.10878 0
M  V30 2467 H 240.132 1.3026 -5.3322 0
M  V30 2468 H 240.393 2.19132 -3.83971 0
M  V30 2469 N 239.452 1.56882 -0.150215 0
M  V30 2470 C 240.362 2.20494 0.801222 0
M  V30 2471 C 241.378 1.19019 1.26927 0
M  V30 2472 O 242.554 1.51607 1.32579 0
M  V30 2473 C 239.619 2.81659 2.02161 0
M  V30 2474 C 238.68 3.9827 1.60249 0
M  V30 2475 C 237.913 4.56508 2.7647 0
M  V30 2476 O 238.136 4.13627 3.92771 0
M  V30 2477 O 237.07 5.46719 2.51757 0
M  V30 2478 H 240.896 3.02315 0.289717 0
M  V30 2479 H 238.481 1.49202 0.0769684 0
M  V30 2480 H 240.363 3.20522 2.73576 0
M  V30 2481 H 239.038 2.02849 2.52258 0
M  V30 2482 H 237.945 3.64117 0.858477 0
M  V30 2483 H 239.278 4.78609 1.14864 0
M  V30 2484 N 240.93 -0.123565 1.57115 0
M  V30 2485 C 241.84 -1.17074 2.033 0
M  V30 2486 C 242.856 -1.4561 0.952559 0
M  V30 2487 O 244.032 -1.56817 1.26374 0
M  V30 2488 C 241.097 -2.47857 2.42421 0
M  V30 2489 C 240.158 -2.26758 3.64526 0
M  V30 2490 C 239.391 -3.51305 4.01771 0
M  V30 2491 O 239.614 -4.5843 3.39409 0
M  V30 2492 O 238.548 -3.42578 4.94898 0
M  V30 2493 H 242.374 -0.808555 2.92739 0
M  V30 2494 H 239.959 -0.334027 1.45618 0
M  V30 2495 H 241.841 -3.2492 2.68338 0
M  V30 2496 H 240.516 -2.83558 1.5613 0
M  V30 2497 H 239.423 -1.47569 3.43765 0
M  V30 2498 H 240.756 -1.95963 4.51508 0
M  V30 2499 N 242.408 -1.52605 -0.393616 0
M  V30 2500 C 243.657 -1.66649 -1.13627 0
M  V30 2501 C 243.97 -0.410364 -1.91247 0
M  V30 2502 O 245.176 -0.430854 -2.68059 0
M  V30 2503 C 243.632 -2.9449 -2.06891 0
M  V30 2504 C 243.24 -4.27266 -1.34714 0
M  V30 2505 C 244.984 -3.17899 -2.81319 0
M  V30 2506 C 242.891 -5.46217 -2.26717 0
M  V30 2507 H 241.821 -0.62084 -0.427871 0
M  V30 2508 H 244.472 -1.791 -0.399428 0
M  V30 2509 H 242.854 -2.75774 -2.84191 0
M  V30 2510 H 244.028 -4.56518 -0.626714 0
M  V30 2511 H 242.343 -4.10081 -0.722643 0
M  V30 2512 H 244.94 -4.03949 -3.50328 0
M  V30 2513 H 245.283 -2.32777 -3.45139 0
M  V30 2514 H 245.816 -3.37159 -2.11113 0
M  V30 2515 H 242.555 -6.33733 -1.67521 0
M  V30 2516 H 242.075 -5.21283 -2.96689 0
M  V30 2517 H 243.754 -5.7991 -2.86903 0
M  V30 2518 N 243.887 0.651787 -1.4349 0
M  V30 2519 C 245.112 1.44434 -1.48841 0
M  V30 2520 C 245.537 1.8779 -0.107955 0
M  V30 2521 O 244.895 1.57464 0.898602 0
M  V30 2522 C 244.943 2.65458 -2.44059 0
M  V30 2523 O 244.047 3.64566 -1.92784 0
M  V30 2524 H 243.388 0.433005 -0.503391 0
M  V30 2525 H 245.918 0.797451 -1.88419 0
M  V30 2526 H 245.928 3.13255 -2.6141 0
M  V30 2527 H 244.603 2.33244 -3.4434 0
M  V30 2528 H 243.18 3.23716 -1.851 0
M  V30 2529 N 245.365 1.30045 0.890287 0
M  V30 2530 C 246.612 1.18561 1.64163 0
M  V30 2531 C 246.94 -0.260852 1.92743 0
M  V30 2532 O 246.195 -1.20376 1.54299 0
M  V30 2533 C 246.494 1.95409 2.99249 0
M  V30 2534 C 246.16 3.45066 2.90242 0
M  V30 2535 C 244.822 3.85878 2.87492 0
M  V30 2536 C 247.174 4.4039 2.78758 0
M  V30 2537 C 244.502 5.20314 2.7109 0
M  V30 2538 C 246.854 5.74928 2.63894 0
M  V30 2539 C 245.518 6.14986 2.59516 0
M  V30 2540 H 244.788 0.433846 0.600715 0
M  V30 2541 H 247.435 1.61088 1.03552 0
M  V30 2542 H 245.74 1.45501 3.63781 0
M  V30 2543 H 247.437 1.8392 3.56334 0
M  V30 2544 H 244.027 3.12631 2.93189 0
M  V30 2545 H 248.211 4.09806 2.79952 0
M  V30 2546 H 243.467 5.50449 2.66112 0
M  V30 2547 H 247.641 6.48434 2.53981 0
M  V30 2548 H 245.268 7.19104 2.46565 0
M  V30 2549 N 246.843 -1.10192 1.12674 0
M  V30 2550 C 247.79 -2.16606 0.796906 0
M  V30 2551 C 248.76 -1.64394 -0.237476 0
M  V30 2552 O 249.945 -1.90474 -0.111484 0
M  V30 2553 C 247.085 -3.44116 0.26043 0
M  V30 2554 C 246.198 -4.10268 1.35293 0
M  V30 2555 C 245.333 -5.25507 0.775621 0
M  V30 2556 C 244.372 -5.83567 1.84706 0
M  V30 2557 N 243.509 -6.90179 1.28829 0
M  V30 2558 H 248.349 -2.44163 1.70846 0
M  V30 2559 H 245.886 -1.19846 0.85295 0
M  V30 2560 H 247.844 -4.17143 -0.0686814 0
M  V30 2561 H 246.474 -3.16901 -0.614274 0
M  V30 2562 H 245.526 -3.35184 1.79877 0
M  V30 2563 H 246.838 -4.4946 2.16303 0
M  V30 2564 H 245.992 -6.05398 0.397327 0
M  V30 2565 H 244.731 -4.87656 -0.0656581 0
M  V30 2566 H 243.736 -5.02344 2.23452 0
M  V30 2567 H 244.961 -6.23482 2.69161 0
M  V30 2568 H 242.907 -6.54322 0.468881 0
M  V30 2569 H 242.824 -7.28097 2.03497 0
M  V30 2570 H 244.092 -7.73844 0.937311 0
M  V30 2571 N 248.321 -0.919034 -1.28029 0
M  V30 2572 C 249.254 -0.355887 -2.25408 0
M  V30 2573 C 250.232 0.542874 -1.5327 0
M  V30 2574 O 251.416 0.485338 -1.82145 0
M  V30 2575 C 248.543 0.490759 -3.35126 0
M  V30 2576 C 247.589 -0.343358 -4.25116 0
M  V30 2577 S 248.422 -1.75344 -5.05979 0
M  V30 2578 C 249.578 -0.914244 -6.19187 0
M  V30 2579 H 249.811 -1.18123 -2.72826 0
M  V30 2580 H 247.344 -0.720636 -1.36551 0
M  V30 2581 H 249.302 0.973404 -3.98792 0
M  V30 2582 H 247.963 1.29054 -2.86363 0
M  V30 2583 H 247.156 0.304266 -5.03081 0
M  V30 2584 H 246.758 -0.759851 -3.662 0
M  V30 2585 H 249.05 -0.146282 -6.77342 0
M  V30 2586 H 249.993 -1.66661 -6.88208 0
M  V30 2587 H 250.401 -0.460082 -5.62622 0
M  V30 2588 N 249.799 1.42003 -0.683588 0
M  V30 2589 C 251.21 1.84501 -0.285736 0
M  V30 2590 C 251.561 1.57213 1.17382 0
M  V30 2591 O 250.686 1.03642 1.89966 0
M  V30 2592 C 251.281 3.34912 -0.511821 0
M  V30 2593 C 249.84 3.76025 -0.168005 0
M  V30 2594 C 248.987 2.6551 -0.799983 0
M  V30 2595 H 251.938 1.31724 -0.885119 0
M  V30 2596 H 251.959 3.79784 0.233292 0
M  V30 2597 H 251.471 3.54741 -1.57418 0
M  V30 2598 H 249.572 3.61801 0.890567 0
M  V30 2599 H 249.685 4.75141 -0.614661 0
M  V30 2600 H 248.049 2.53654 -0.230568 0
M  V30 2601 H 248.832 2.8816 -1.86597 0
M  V30 2602 N 251.277 0.427512 1.51691 0
M  V30 2603 C 252.24 -0.377132 2.26076 0
M  V30 2604 C 253.24 -0.958089 1.29141 0
M  V30 2605 O 254.43 -0.83408 1.52934 0
M  V30 2606 C 251.562 -1.53262 3.04506 0
M  V30 2607 H 252.755 0.27464 2.9864 0
M  V30 2608 H 250.308 0.180445 1.55255 0
M  V30 2609 H 251.043 -2.22072 2.36335 0
M  V30 2610 H 250.828 -1.12232 3.75694 0
M  V30 2611 H 252.318 -2.10135 3.60878 0
M  V30 2612 N 252.755 -1.56801 0.158532 0
M  V30 2613 C 254.032 -1.88131 -0.535357 0
M  V30 2614 C 254.412 -1.06638 -1.82186 0
M  V30 2615 O 253.76 -0.156533 -2.27963 0
M  V30 2616 C 253.97 -3.39949 -0.789653 0
M  V30 2617 C 255.318 -4.09416 -1.12533 0
M  V30 2618 O 256.342 -3.45194 -0.878622 0
M  V30 2619 O 255.201 -5.22855 -1.59014 0
M  V30 2620 H 252.295 -0.780143 -0.27442 0
M  V30 2621 H 254.841 -1.68564 0.19601 0
M  V30 2622 H 253.613 -3.91115 0.120353 0
M  V30 2623 H 253.236 -3.65084 -1.57479 0
M  V30 2624 N 254.233 0.115231 -1.57178 0
M  V30 2625 C 255.481 0.820727 -1.84685 0
M  V30 2626 C 255.802 1.80237 -0.744279 0
M  V30 2627 O 255.072 1.94529 0.231375 0
M  V30 2628 H 253.652 0.306084 -0.681411 0
M  V30 2629 H 256.314 0.101656 -1.94635 0
M  V30 2630 H 255.41 1.36366 -2.80733 0
M  V30 2631 N 255.711 1.52812 0.385517 0
M  V30 2632 C 257.127 1.4214 0.725829 0
M  V30 2633 C 257.327 0.544589 1.94001 0
M  V30 2634 O 256.383 0.0193693 2.52493 0
M  V30 2635 C 257.696 2.85042 0.957668 0
M  V30 2636 C 259.244 2.94543 1.05892 0
M  V30 2637 C 259.719 4.38464 1.32337 0
M  V30 2638 N 261.21 4.41804 1.39151 0
M  V30 2639 C 261.945 5.5025 1.61285 0
M  V30 2640 N 261.441 6.68775 1.80866 0
M  V30 2641 N 263.234 5.37798 1.63492 0
M  V30 2642 H 255.385 2.08338 -0.413383 0
M  V30 2643 H 257.648 0.940016 -0.122775 0
M  V30 2644 H 257.354 3.51431 0.137568 0
M  V30 2645 H 257.228 3.27505 1.87137 0
M  V30 2646 H 259.615 2.28321 1.86959 0
M  V30 2647 H 259.696 2.55504 0.123057 0
M  V30 2648 H 259.34 5.05254 0.517793 0
M  V30 2649 H 259.27 4.75059 2.27214 0
M  V30 2650 H 261.761 3.56377 1.25713 0
M  V30 2651 H 262.074 7.47197 1.97271 0
M  V30 2652 H 260.419 6.71797 1.78083 0
M  V30 2653 H 263.61 4.44171 1.47749 0
M  V30 2654 H 263.783 6.22382 1.80402 0
M  V30 2655 N 257.189 -0.644168 1.43834 0
M  V30 2656 C 258.438 -1.39985 1.45214 0
M  V30 2657 C 258.751 -1.95421 0.0835494 0
M  V30 2658 O 259.957 -2.71488 -0.0251748 0
M  V30 2659 C 258.413 -2.53384 2.55587 0
M  V30 2660 C 258.021 -2.04517 3.98594 0
M  V30 2661 C 259.765 -3.30685 2.66172 0
M  V30 2662 C 257.672 -3.1518 5.00416 0
M  V30 2663 H 256.602 -0.526005 0.540218 0
M  V30 2664 H 259.253 -0.694367 1.69855 0
M  V30 2665 H 257.635 -3.26446 2.24163 0
M  V30 2666 H 258.809 -1.38405 4.39523 0
M  V30 2667 H 257.124 -1.40068 3.92135 0
M  V30 2668 H 259.721 -4.13158 3.39418 0
M  V30 2669 H 260.064 -3.79312 1.71546 0
M  V30 2670 H 260.597 -2.64708 2.96942 0
M  V30 2671 H 257.336 -2.71511 5.96625 0
M  V30 2672 H 256.856 -3.79974 4.64091 0
M  V30 2673 H 258.535 -3.80166 5.23529 0
M  V30 2674 N 258.668 -1.30515 -0.883378 0
M  V30 2675 C 259.914 -1.20617 -1.63778 0
M  V30 2676 C 260.269 0.236469 -1.90941 0
M  V30 2677 O 259.562 1.16596 -1.52039 0
M  V30 2678 C 259.756 -1.96994 -2.98209 0
M  V30 2679 C 259.585 -3.48537 -2.84169 0
M  V30 2680 C 258.355 -4.17893 -2.84067 0
M  V30 2681 C 260.553 -4.43738 -2.60001 0
M  V30 2682 N 258.535 -5.55685 -2.60936 0
M  V30 2683 C 259.906 -5.69105 -2.46007 0
M  V30 2684 C 261.961 -4.33316 -2.45239 0
M  V30 2685 C 260.664 -6.8523 -2.18752 0
M  V30 2686 C 262.69 -5.4921 -2.19369 0
M  V30 2687 C 262.052 -6.73558 -2.06153 0
M  V30 2688 H 258.151 -0.496434 -0.604216 0
M  V30 2689 H 260.735 -1.64544 -1.04083 0
M  V30 2690 H 258.906 -1.55455 -3.55933 0
M  V30 2691 H 260.638 -1.79225 -3.62851 0
M  V30 2692 H 257.393 -3.69739 -2.95956 0
M  V30 2693 H 257.817 -6.28199 -2.52378 0
M  V30 2694 H 262.459 -3.37856 -2.54191 0
M  V30 2695 H 260.177 -7.80729 -2.08537 0
M  V30 2696 H 263.763 -5.43054 -2.08766 0
M  V30 2697 H 262.643 -7.61721 -1.86416 0
M  V30 2698 N 260.146 1.09593 -1.13257 0
M  V30 2699 C 261.394 1.81375 -0.891492 0
M  V30 2700 C 261.715 1.86049 0.584009 0
M  V30 2701 O 260.985 1.34481 1.42449 0
M  V30 2702 H 259.565 0.671708 -0.326828 0
M  V30 2703 H 262.227 1.3256 -1.42877 0
M  V30 2704 H 261.323 2.84612 -1.28071 0
M  V30 2705 N 261.624 0.925811 1.2754 0
M  V30 2706 C 262.849 0.580924 1.99098 0
M  V30 2707 C 263.274 -0.833555 1.68622 0
M  V30 2708 O 262.632 -1.55903 0.925422 0
M  V30 2709 C 262.68 0.811186 3.51358 0
M  V30 2710 O 261.784 -0.124129 4.12213 0
M  V30 2711 H 261.125 0.223873 0.625122 0
M  V30 2712 H 263.655 1.24455 1.62395 0
M  V30 2713 H 263.665 0.72601 4.01489 0
M  V30 2714 H 262.34 1.84227 3.72872 0
M  V30 2715 H 260.917 0.0108006 3.72898 0
M  V30 2716 N 263.102 -1.41638 0.69111 0
M  V30 2717 C 264.327 -2.06148 0.227583 0
M  V30 2718 C 264.752 -1.51652 -1.11281 0
M  V30 2719 O 264.11 -0.64164 -1.69566 0
M  V30 2720 C 264.158 -3.60095 0.190858 0
M  V30 2721 O 263.262 -4.03845 -0.835664 0
M  V30 2722 H 262.603 -0.654434 0.112306 0
M  V30 2723 H 265.133 -1.81484 0.944714 0
M  V30 2724 H 265.143 -4.07995 0.020207 0
M  V30 2725 H 263.818 -3.99129 1.16915 0
M  V30 2726 H 262.395 -3.67458 -0.63473 0
M  V30 2727 N 264.58 -0.43555 -1.51462 0
M  V30 2728 C 265.829 0.133007 -2.01261 0
M  V30 2729 C 266.142 1.43942 -1.32439 0
M  V30 2730 O 267.348 2.09081 -1.73198 0
M  V30 2731 C 265.804 0.287581 -3.58749 0
M  V30 2732 C 265.412 -1.00829 -4.36506 0
M  V30 2733 C 267.156 0.810004 -4.167 0
M  V30 2734 C 265.063 -0.819454 -5.85695 0
M  V30 2735 H 263.993 0.0534822 -0.752101 0
M  V30 2736 H 266.644 -0.565038 -1.74584 0
M  V30 2737 H 265.026 1.04859 -3.81865 0
M  V30 2738 H 266.2 -1.77749 -4.25138 0
M  V30 2739 H 264.515 -1.45911 -3.89999 0
M  V30 2740 H 267.112 0.967743 -5.2587 0
M  V30 2741 H 267.455 1.79196 -3.75758 0
M  V30 2742 H 267.988 0.107357 -3.97655 0
M  V30 2743 H 264.727 -1.77374 -6.31046 0
M  V30 2744 H 264.247 -0.0900208 -5.99732 0
M  V30 2745 H 265.926 -0.471949 -6.45276 0
M  V30 2746 N 266.058 1.56714 -0.166846 0
M  V30 2747 C 267.469 1.83378 0.350646 0
M  V30 2748 C 267.82 1.08646 1.63372 0
M  V30 2749 O 266.945 0.338058 2.13743 0
M  V30 2750 C 267.54 3.32643 0.642963 0
M  V30 2751 C 266.099 3.59818 1.10491 0
M  V30 2752 C 265.246 2.76954 0.138411 0
M  V30 2753 H 268.197 1.53803 -0.391193 0
M  V30 2754 H 268.218 3.49878 1.49551 0
M  V30 2755 H 267.73 3.87007 -0.291055 0
M  V30 2756 H 265.831 3.1086 2.05418 0
M  V30 2757 H 265.944 4.68178 1.01716 0
M  V30 2758 H 264.308 2.4666 0.634911 0
M  V30 2759 H 265.091 3.34097 -0.789549 0
M  V30 2760 N 267.536 -0.106894 1.57237 0
M  V30 2761 C 268.952 -0.46078 1.52804 0
M  V30 2762 C 269.152 -1.81184 0.881746 0
M  V30 2763 O 268.208 -2.48102 0.469224 0
M  V30 2764 C 269.521 -0.434127 2.9755 0
M  V30 2765 C 271.069 -0.516821 3.08704 0
M  V30 2766 C 271.544 -0.520436 4.55033 0
M  V30 2767 N 273.035 -0.58153 4.59535 0
M  V30 2768 C 273.77 -0.605973 5.70189 0
M  V30 2769 N 273.266 -0.587331 6.90306 0
M  V30 2770 N 275.059 -0.649895 5.5833 0
M  V30 2771 H 267.21 0.778203 1.9763 0
M  V30 2772 H 269.473 0.288403 0.903066 0
M  V30 2773 H 269.179 0.491197 3.48253 0
M  V30 2774 H 269.053 -1.25748 3.55622 0
M  V30 2775 H 271.44 -1.43256 2.57995 0
M  V30 2776 H 271.521 0.334449 2.53604 0
M  V30 2777 H 271.165 0.391313 5.0639 0
M  V30 2778 H 271.095 -1.38876 5.07958 0
M  V30 2779 H 273.586 -0.60161 3.73081 0
M  V30 2780 H 273.899 -0.60894 7.70397 0
M  V30 2781 H 272.244 -0.554564 6.92784 0
M  V30 2782 H 275.435 -0.661907 4.63397 0
M  V30 2783 H 275.608 -0.665476 6.44574 0
M  V30 2784 N 269.014 -1.53014 -0.377408 0
M  V30 2785 C 270.425 -1.60438 -0.954798 0
M  V30 2786 C 270.776 -0.464418 -1.90624 0
M  V30 2787 O 269.901 0.41087 -2.12464 0
M  V30 2788 C 270.496 -2.90797 -1.73847 0
M  V30 2789 C 269.055 -3.00595 -2.26538 0
M  V30 2790 C 268.202 -2.55645 -1.07429 0
M  V30 2791 H 271.153 -1.57926 -0.156575 0
M  V30 2792 H 271.174 -2.77935 -2.5987 0
M  V30 2793 H 270.686 -3.73746 -1.04574 0
M  V30 2794 H 268.787 -2.22208 -2.99089 0
M  V30 2795 H 268.9 -4.05456 -2.5523 0
M  V30 2796 H 267.264 -2.10239 -1.43777 0
M  V30 2797 H 268.047 -3.41 -0.396728 0
M  V30 2798 N 270.492 0.636531 -1.44174 0
M  V30 2799 C 271.717 1.42847 -1.50364 0
M  V30 2800 C 272.142 1.87665 -0.127867 0
M  V30 2801 O 271.5 1.58408 0.88185 0
M  V30 2802 C 271.548 2.62854 -2.4686 0
M  V30 2803 O 270.652 3.62501 -1.9664 0
M  V30 2804 H 269.993 0.427642 -0.507955 0
M  V30 2805 H 272.523 0.777422 -1.89255 0
M  V30 2806 H 272.533 3.10465 -2.64718 0
M  V30 2807 H 271.208 2.29578 -3.46795 0
M  V30 2808 H 269.785 3.21735 -1.88523 0
M  V30 2809 N 271.97 1.30982 0.876444 0
M  V30 2810 C 272.933 1.18054 1.96459 0
M  V30 2811 C 273.933 0.109399 1.60427 0
M  V30 2812 O 275.123 0.358173 1.70478 0
M  V30 2813 C 272.255 0.810616 3.31122 0
M  V30 2814 H 273.448 2.14735 2.09354 0
M  V30 2815 H 271.001 1.145 1.06392 0
M  V30 2816 H 271.736 -0.155322 3.23928 0
M  V30 2817 H 271.521 1.58481 3.58645 0
M  V30 2818 H 273.011 0.743876 4.10921 0
M  V30 2819 N 273.449 -1.08991 1.13837 0
M  V30 2820 C 274.695 -1.81526 0.90422 0
M  V30 2821 C 275.028 -1.85706 -0.568066 0
M  V30 2822 O 274.303 -1.32855 -1.42056 0
M  V30 2823 C 274.586 -3.27447 1.49835 0
M  V30 2824 C 274.439 -3.31512 3.04006 0
M  V30 2825 C 275.758 -4.24256 1.17025 0
M  V30 2826 H 272.877 -0.659029 0.329923 0
M  V30 2827 H 275.519 -1.27644 1.40737 0
M  V30 2828 H 273.669 -3.73462 1.07044 0
M  V30 2829 H 275.341 -2.93867 3.55584 0
M  V30 2830 H 273.584 -2.70963 3.38765 0
M  V30 2831 H 274.255 -4.34329 3.40679 0
M  V30 2832 H 276.731 -3.86549 1.54009 0
M  V30 2833 H 275.607 -5.24684 1.61237 0
M  V30 2834 H 275.868 -4.42019 0.0846274 0
M  V30 2835 N 274.927 -0.932562 -1.27047 0
M  V30 2836 C 275.89 -0.440064 -2.24936 0
M  V30 2837 C 276.89 0.444071 -1.54547 0
M  V30 2838 O 278.08 0.244465 -1.72476 0
M  V30 2839 C 275.212 0.36678 -3.38921 0
M  V30 2840 H 276.405 -1.305 -2.70018 0
M  V30 2841 H 273.958 -0.713707 -1.39054 0
M  V30 2842 H 274.693 1.25033 -2.99228 0
M  V30 2843 H 274.478 -0.267204 -3.91188 0
M  V30 2844 H 275.968 0.701567 -4.11665 0
M  V30 2845 N 276.405 1.4127 -0.698611 0
M  V30 2846 C 277.352 2.30773 -0.0352094 0
M  V30 2847 C 278.322 1.47273 0.768111 0
M  V30 2848 O 279.507 1.76053 0.735524 0
M  V30 2849 C 276.647 3.33346 0.893 0
M  V30 2850 C 275.76 4.31924 0.0809695 0
M  V30 2851 C 274.895 5.21566 1.0071 0
M  V30 2852 C 273.934 6.11811 0.188155 0
M  V30 2853 N 273.071 6.93926 1.06825 0
M  V30 2854 H 277.911 2.86943 -0.804207 0
M  V30 2855 H 275.448 1.4132 -0.408294 0
M  V30 2856 H 277.406 3.91368 1.44523 0
M  V30 2857 H 276.036 2.78719 1.62836 0
M  V30 2858 H 275.088 3.75825 -0.588224 0
M  V30 2859 H 276.4 4.95716 -0.553801 0
M  V30 2860 H 275.554 5.84437 1.62845 0
M  V30 2861 H 274.293 4.58008 1.67572 0
M  V30 2862 H 273.298 5.47986 -0.446254 0
M  V30 2863 H 274.523 6.77425 -0.476716 0
M  V30 2864 H 272.469 6.32973 1.72283 0
M  V30 2865 H 272.386 7.54416 0.489123 0
M  V30 2866 H 273.654 7.61262 1.67632 0
M  V30 2867 N 277.883 0.443576 1.51229 0
M  V30 2868 C 279.129 -0.120975 2.02439 0
M  V30 2869 C 279.462 -1.41815 1.32674 0
M  V30 2870 O 278.737 -1.89373 0.443622 0
M  V30 2871 C 279.02 -0.333291 3.58554 0
M  V30 2872 C 278.873 0.982968 4.38928 0
M  V30 2873 C 280.192 -1.10028 4.26124 0
M  V30 2874 H 277.311 -0.0424923 0.735774 0
M  V30 2875 H 279.953 0.583794 1.80809 0
M  V30 2876 H 278.103 -0.933614 3.77115 0
M  V30 2877 H 279.775 1.61775 4.32003 0
M  V30 2878 H 278.018 1.58611 4.03763 0
M  V30 2879 H 278.689 0.788379 5.46341 0
M  V30 2880 H 281.165 -0.591711 4.11871 0
M  V30 2881 H 280.041 -1.21761 5.35225 0
M  V30 2882 H 280.302 -2.12996 3.87408 0
M  V30 2883 N 279.361 -1.56624 0.175154 0
M  V30 2884 C 280.589 -2.01374 -0.474971 0
M  V30 2885 C 281.004 -1.05537 -1.56548 0
M  V30 2886 O 280.361 -0.0568668 -1.82411 0
M  V30 2887 C 280.412 -3.45923 -1.04975 0
M  V30 2888 O 280.133 -4.381 -0.00276605 0
M  V30 2889 C 281.634 -4.06093 -1.77773 0
M  V30 2890 H 278.854 -0.659962 -0.121206 0
M  V30 2891 H 281.398 -2.02601 0.27801 0
M  V30 2892 H 279.553 -3.45458 -1.75321 0
M  V30 2893 H 279.967 -5.22753 -0.427681 0
M  V30 2894 H 281.441 -5.09147 -2.13245 0
M  V30 2895 H 281.918 -3.48405 -2.67414 0
M  V30 2896 H 282.524 -4.10272 -1.12059 0
M  V30 2897 N 280.839 0.0985539 -1.57292 0
M  V30 2898 C 282.087 0.801092 -1.85545 0
M  V30 2899 C 282.408 1.79438 -0.763353 0
M  V30 2900 O 281.678 1.94763 0.21073 0
M  V30 2901 H 280.258 0.29884 -0.684619 0
M  V30 2902 H 282.92 0.0810064 -1.94732 0
M  V30 2903 H 282.016 1.3338 -2.82163 0
M  V30 2904 N 282.317 1.53212 0.369288 0
M  V30 2905 C 283.247 1.82365 1.45826 0
M  V30 2906 C 284.228 0.676907 1.56051 0
M  V30 2907 O 285.413 0.926401 1.70679 0
M  V30 2908 C 282.543 2.01023 2.83208 0
M  V30 2909 C 281.497 3.1678 2.8781 0
M  V30 2910 C 280.823 3.20724 4.27832 0
M  V30 2911 C 282.123 4.55447 2.55667 0
M  V30 2912 H 283.817 2.73559 1.21678 0
M  V30 2913 H 281.363 1.3163 0.583911 0
M  V30 2914 H 283.316 2.20001 3.59413 0
M  V30 2915 H 282.04 1.06536 3.08736 0
M  V30 2916 H 280.699 2.97616 2.14056 0
M  V30 2917 H 280.347 2.23882 4.50429 0
M  V30 2918 H 280.047 3.98496 4.31827 0
M  V30 2919 H 281.571 3.41881 5.05915 0
M  V30 2920 H 282.985 4.74611 3.21586 0
M  V30 2921 H 281.382 5.35432 2.70984 0
M  V30 2922 H 282.452 4.60812 1.5093 0
M  V30 2923 N 283.795 -0.628877 1.44509 0
M  V30 2924 C 284.758 -1.72263 1.51188 0
M  V30 2925 C 285.758 -1.55907 0.39367 0
M  V30 2926 O 286.948 -1.61361 0.656377 0
M  V30 2927 C 284.08 -3.11365 1.38798 0
M  V30 2928 H 285.273 -1.67714 2.4862 0
M  V30 2929 H 282.826 -0.842737 1.31634 0
M  V30 2930 H 283.561 -3.21507 0.424693 0
M  V30 2931 H 283.346 -3.24644 2.19884 0
M  V30 2932 H 284.836 -3.91075 1.46458 0
M  V30 2933 N 285.273 -1.31445 -0.869486 0
M  V30 2934 C 286.183 -1.21097 -2.0093 0
M  V30 2935 C 287.199 -0.127584 -1.73532 0
M  V30 2936 O 288.375 -0.345477 -1.98415 0
M  V30 2937 C 285.44 -0.919378 -3.34288 0
M  V30 2938 C 284.501 -2.08971 -3.75006 0
M  V30 2939 C 283.734 -1.81194 -5.02001 0
M  V30 2940 O 283.957 -0.747296 -5.65484 0
M  V30 2941 O 282.891 -2.66883 -5.39497 0
M  V30 2942 H 286.717 -2.16883 -2.12592 0
M  V30 2943 H 284.302 -1.11189 -0.997868 0
M  V30 2944 H 286.184 -0.772625 -4.14257 0
M  V30 2945 H 284.859 0.00844772 -3.23699 0
M  V30 2946 H 283.766 -2.29187 -2.95676 0
M  V30 2947 H 285.099 -2.9998 -3.90221 0
M  V30 2948 N 286.751 1.08385 -1.14413 0
M  V30 2949 C 287.998 1.80776 -0.912482 0
M  V30 2950 C 288.326 1.86236 0.560934 0
M  V30 2951 O 287.581 1.33431 1.43159 0
M  V30 2952 C 287.88 3.26273 -1.45879 0
M  V30 2953 C 287.546 3.4093 -2.95089 0
M  V30 2954 C 286.208 3.44638 -3.35824 0
M  V30 2955 C 288.56 3.44591 -3.91033 0
M  V30 2956 C 285.888 3.49597 -4.71167 0
M  V30 2957 C 288.24 3.51086 -5.26233 0
M  V30 2958 C 286.904 3.53067 -5.6648 0
M  V30 2959 H 286.174 0.661507 -0.333901 0
M  V30 2960 H 288.821 1.27613 -1.42784 0
M  V30 2961 H 287.126 3.82146 -0.864376 0
M  V30 2962 H 288.823 3.80839 -1.2555 0
M  V30 2963 H 285.413 3.38736 -2.62594 0
M  V30 2964 H 289.597 3.40957 -3.60641 0
M  V30 2965 H 284.853 3.49424 -5.0171 0
M  V30 2966 H 289.027 3.52864 -6.00383 0
M  V30 2967 H 286.654 3.56662 -6.71339 0
M  V30 2968 N 288.23 0.939286 1.26551 0
M  V30 2969 C 289.478 0.58469 1.93457 0
M  V30 2970 C 289.799 -0.878774 1.74076 0
M  V30 2971 O 289.069 -1.62421 1.09528 0
M  V30 2972 H 287.649 0.21325 0.715914 0
M  V30 2973 H 290.311 1.1942 1.54029 0
M  V30 2974 H 289.407 0.800849 3.0165 0
M  V30 2975 N 289.708 -1.40897 0.706093 0
M  V30 2976 C 290.671 -2.29131 0.0562841 0
M  V30 2977 C 291.671 -1.44901 -0.697166 0
M  V30 2978 O 292.861 -1.65926 -0.530484 0
M  V30 2979 C 289.993 -3.27957 -0.93043 0
M  V30 2980 H 291.186 -2.88091 0.833284 0
M  V30 2981 H 288.739 -1.4906 0.470192 0
M  V30 2982 H 289.474 -2.73997 -1.73482 0
M  V30 2983 H 289.259 -3.90124 -0.393166 0
M  V30 2984 H 290.749 -3.94049 -1.38256 0
M  V30 2985 N 291.186 -0.45159 -1.50991 0
M  V30 2986 C 292.463 0.170707 -1.94854 0
M  V30 2987 C 292.843 1.58788 -1.39103 0
M  V30 2988 O 292.191 2.20913 -0.583921 0
M  V30 2989 C 292.401 0.133929 -3.48743 0
M  V30 2990 C 293.749 0.33248 -4.23296 0
M  V30 2991 O 294.773 0.211403 -3.55572 0
M  V30 2992 O 293.632 0.57486 -5.43468 0
M  V30 2993 H 290.726 0.122264 -0.817912 0
M  V30 2994 H 293.272 -0.510594 -1.61836 0
M  V30 2995 H 292.044 -0.856283 -3.81816 0
M  V30 2996 H 291.667 0.857529 -3.88242 0
M  V30 2997 N 292.664 1.56529 -0.183458 0
M  V30 2998 C 293.627 2.17324 0.728223 0
M  V30 2999 C 294.627 1.12453 1.14939 0
M  V30 3000 O 295.817 1.37902 1.06437 0
M  V30 3001 C 292.949 2.76591 1.99274 0
M  V30 3002 H 294.142 2.99241 0.198772 0
M  V30 3003 H 291.695 1.5616 0.0661391 0
M  V30 3004 H 292.43 1.98441 2.56499 0
M  V30 3005 H 292.215 3.5335 1.69959 0
M  V30 3006 H 293.705 3.23311 2.6431 0
M  V30 3007 N 294.142 -0.090211 1.57342 0
M  V30 3008 C 295.105 -1.09335 2.01441 0
M  V30 3009 C 296.105 -1.32666 0.908641 0
M  V30 3010 O 297.295 -1.28697 1.174 0
M  V30 3011 C 294.427 -2.44136 2.3793 0
M  V30 3012 H 295.62 -0.713662 2.91285 0
M  V30 3013 H 293.173 -0.335404 1.52659 0
M  V30 3014 H 293.908 -2.86972 1.51055 0
M  V30 3015 H 293.693 -2.28548 3.18603 0
M  V30 3016 H 295.183 -3.16277 2.72688 0
M  V30 3017 N 295.62 -1.53406 -0.361157 0
M  V30 3018 C 296.55 -1.83136 -1.44857 0
M  V30 3019 C 297.531 -0.685174 -1.5569 0
M  V30 3020 O 298.716 -0.93544 -1.70186 0
M  V30 3021 C 295.846 -2.02522 -2.82138 0
M  V30 3022 C 294.8 -3.18302 -2.86126 0
M  V30 3023 C 294.126 -3.22989 -4.26125 0
M  V30 3024 C 295.426 -4.56796 -2.53248 0
M  V30 3025 H 297.12 -2.74201 -1.20226 0
M  V30 3026 H 294.666 -1.31938 -0.576922 0
M  V30 3027 H 296.619 -2.21904 -3.58241 0
M  V30 3028 H 295.343 -1.08172 -3.08166 0
M  V30 3029 H 294.002 -2.98747 -2.12475 0
M  V30 3030 H 293.65 -2.26267 -4.49235 0
M  V30 3031 H 293.35 -4.00781 -4.29708 0
M  V30 3032 H 294.874 -3.44559 -5.04094 0
M  V30 3033 H 296.288 -4.7631 -3.19064 0
M  V30 3034 H 294.685 -5.36862 -2.68141 0
M  V30 3035 H 295.755 -4.61606 -1.48484 0
M  V30 3036 N 297.098 0.621204 -1.44841 0
M  V30 3037 C 298.514 0.94048 -1.28946 0
M  V30 3038 C 298.714 2.00154 -0.23249 0
M  V30 3039 O 297.77 2.49651 0.378237 0
M  V30 3040 C 299.083 1.39433 -2.66419 0
M  V30 3041 C 300.631 1.50927 -2.74208 0
M  V30 3042 C 301.106 1.99692 -4.12174 0
M  V30 3043 N 302.597 2.06947 -4.144 0
M  V30 3044 C 303.332 2.45871 -5.1801 0
M  V30 3045 N 302.828 2.83862 -6.31977 0
M  V30 3046 N 304.621 2.46092 -5.05366 0
M  V30 3047 H 296.772 -0.0803548 -2.12248 0
M  V30 3048 H 299.035 0.0266913 -0.947624 0
M  V30 3049 H 298.741 0.688925 -3.44887 0
M  V30 3050 H 298.615 2.36347 -2.93973 0
M  V30 3051 H 301.002 2.20561 -1.96053 0
M  V30 3052 H 301.083 0.523627 -2.50383 0
M  V30 3053 H 300.727 1.30649 -4.90809 0
M  V30 3054 H 300.657 2.99146 -4.33381 0
M  V30 3055 H 303.148 1.80232 -3.32152 0
M  V30 3056 H 303.461 3.12405 -7.0684 0
M  V30 3057 H 301.806 2.8159 -6.35399 0
M  V30 3058 H 304.997 2.1581 -4.15384 0
M  V30 3059 H 305.17 2.76102 -5.86235 0
M  V30 3060 N 298.576 1.31904 0.862503 0
M  V30 3061 C 299.509 1.14514 1.97388 0
M  V30 3062 C 300.487 0.0466493 1.62533 0
M  V30 3063 O 301.671 0.204484 1.87388 0
M  V30 3064 C 298.798 0.751347 3.30261 0
M  V30 3065 C 297.844 1.85395 3.84098 0
M  V30 3066 S 298.677 3.46081 4.08642 0
M  V30 3067 C 299.833 3.08655 5.44502 0
M  V30 3068 H 300.066 2.08597 2.11836 0
M  V30 3069 H 297.599 1.16475 1.01356 0
M  V30 3070 H 299.557 0.530901 4.07052 0
M  V30 3071 H 298.218 -0.170493 3.13637 0
M  V30 3072 H 297.411 1.53122 4.80177 0
M  V30 3073 H 297.013 2.02984 3.14123 0
M  V30 3074 H 299.305 2.58012 6.26447 0
M  V30 3075 H 300.248 4.03726 5.81731 0
M  V30 3076 H 300.656 2.45891 5.08132 0
M  V30 3077 N 300.054 -1.07777 1.14986 0
M  V30 3078 C 301.465 -1.61766 0.932127 0
M  V30 3079 C 301.816 -1.88974 -0.527581 0
M  V30 3080 O 300.941 -1.65198 -1.39781 0
M  V30 3081 C 301.536 -2.93891 1.68563 0
M  V30 3082 C 300.095 -3.44639 1.5133 0
M  V30 3083 C 299.242 -2.18767 1.704 0
M  V30 3084 H 302.193 -0.909201 1.30074 0
M  V30 3085 H 302.214 -3.62623 1.15259 0
M  V30 3086 H 301.726 -2.74057 2.74799 0
M  V30 3087 H 299.827 -3.69564 0.474702 0
M  V30 3088 H 299.94 -4.20966 2.28746 0
M  V30 3089 H 298.304 -2.28253 1.13016 0
M  V30 3090 H 299.087 -2.01433 2.77992 0
M  V30 3091 N 301.532 -0.945985 -1.26051 0
M  V30 3092 C 302.442 -0.465633 -2.29933 0
M  V30 3093 C 303.458 0.462761 -1.67733 0
M  V30 3094 O 304.634 0.341118 -1.9849 0
M  V30 3095 C 301.699 0.256994 -3.45746 0
M  V30 3096 C 300.76 -0.708549 -4.23412 0
M  V30 3097 C 299.993 -0.0203135 -5.33696 0
M  V30 3098 O 300.216 1.19571 -5.57726 0
M  V30 3099 O 299.15 -0.701459 -5.97799 0
M  V30 3100 H 302.976 -1.32866 -2.73094 0
M  V30 3101 H 300.561 -0.712071 -1.31339 0
M  V30 3102 H 302.443 0.663852 -4.16138 0
M  V30 3103 H 301.118 1.09533 -3.04605 0
M  V30 3104 H 300.025 -1.16545 -3.55483 0
M  V30 3105 H 301.358 -1.51465 -4.68315 0
M  V30 3106 N 303.011 1.40521 -0.713556 0
M  V30 3107 C 303.959 2.32549 -0.0485227 0
M  V30 3108 C 304.953 1.51931 0.74922 0
M  V30 3109 O 306.159 1.67745 0.652816 0
M  V30 3110 H 302.534 0.751994 0.00311138 0
M  V30 3111 H 304.505 2.86291 -0.841443 0
M  V30 3112 C 303.254 3.36879 0.860687 0
M  V30 3113 H 302.577 3.98978 0.256246 0
M  V30 3114 H 304.017 4.03772 1.294 0
M  V30 3115 C 302.476 2.72197 1.9852 0
M  V30 3116 O 303.006 2.5837 3.07584 0
M  V30 3117 N 301.212 2.30612 1.76823 0
M  V30 3118 H 300.759 2.42059 0.881217 0
M  V30 3119 H 300.717 1.87672 2.52243 0
M  V30 3120 N 304.489 0.459591 1.5075 0
M  V30 3121 C 305.717 -0.0973749 2.06671 0
M  V30 3122 C 306.132 -1.34524 1.32472 0
M  V30 3123 O 305.489 -1.7827 0.390634 0
M  V30 3124 C 305.54 -0.39714 3.59312 0
M  V30 3125 O 305.261 0.801214 4.30711 0
M  V30 3126 C 306.762 -1.00234 4.31819 0
M  V30 3127 H 303.982 0.00195854 0.670997 0
M  V30 3128 H 306.526 0.645072 1.94059 0
M  V30 3129 H 304.681 -1.08951 3.71764 0
M  V30 3130 H 305.095 0.538857 5.21725 0
M  V30 3131 H 306.569 -1.16193 5.39632 0
M  V30 3132 H 307.046 -1.98939 3.91561 0
M  V30 3133 H 307.652 -0.348699 4.23868 0
M  V30 3134 N 305.967 -1.56429 0.191757 0
M  V30 3135 C 306.897 -2.21937 -0.725696 0
M  V30 3136 C 307.878 -1.1814 -1.2238 0
M  V30 3137 O 309.063 -1.46636 -1.27325 0
M  V30 3138 C 306.193 -2.87611 -1.94672 0
M  V30 3139 C 305.147 -3.97623 -1.58366 0
M  V30 3140 C 304.473 -4.50446 -2.88102 0
M  V30 3141 C 305.773 -5.16197 -0.796133 0
M  V30 3142 H 307.467 -2.98861 -0.179606 0
M  V30 3143 H 305.013 -1.43749 -0.0849464 0
M  V30 3144 H 306.966 -3.3212 -2.59373 0
M  V30 3145 H 305.69 -2.08087 -2.51728 0
M  V30 3146 H 304.349 -3.53801 -0.960247 0
M  V30 3147 H 303.997 -3.67688 -3.43241 0
M  V30 3148 H 303.697 -5.24675 -2.64556 0
M  V30 3149 H 305.221 -4.97654 -3.53798 0
M  V30 3150 H 306.635 -5.57271 -1.34618 0
M  V30 3151 H 305.032 -5.96471 -0.658928 0
M  V30 3152 H 306.102 -4.84473 0.203478 0
M  V30 3153 N 307.445 0.0818655 -1.57387 0
M  V30 3154 C 308.395 1.10501 -1.99433 0
M  V30 3155 C 309.379 1.35041 -0.874798 0
M  V30 3156 O 310.571 1.35511 -1.13868 0
M  V30 3157 C 307.7 2.42159 -2.43339 0
M  V30 3158 C 306.786 2.20937 -3.62005 0
M  V30 3159 N 307.177 1.69616 -4.76512 0
M  V30 3160 C 305.475 2.51451 -3.68359 0
M  V30 3161 C 306.176 1.62973 -5.58404 0
M  V30 3162 N 305.152 2.08664 -5.01956 0
M  V30 3163 H 308.954 0.701373 -2.85408 0
M  V30 3164 H 306.468 0.289096 -1.59806 0
M  V30 3165 H 308.465 3.16208 -2.71695 0
M  V30 3166 H 307.125 2.83249 -1.58746 0
M  V30 3167 H 308.136 1.38624 -4.99003 0
M  V30 3168 H 304.813 2.95975 -2.94457 0
M  V30 3169 H 306.203 1.24233 -6.60315 0
M  V30 3170 N 308.923 1.53595 0.353017 0
M  V30 3171 C 309.853 1.83902 1.43883 0
M  V30 3172 C 310.834 0.693421 1.55324 0
M  V30 3173 O 312.019 0.944452 1.69687 0
M  V30 3174 C 309.149 2.04016 2.8106 0
M  V30 3175 C 308.103 3.19814 2.84434 0
M  V30 3176 C 307.429 3.25244 4.24406 0
M  V30 3177 C 308.729 4.58133 2.50822 0
M  V30 3178 H 310.423 2.74835 1.1877 0
M  V30 3179 H 307.969 1.32242 0.569917 0
M  V30 3180 H 309.922 2.238 3.57059 0
M  V30 3181 H 308.646 1.09804 3.07588 0
M  V30 3182 H 307.305 2.9987 2.10887 0
M  V30 3183 H 306.953 2.28646 4.48029 0
M  V30 3184 H 306.653 4.03054 4.27576 0
M  V30 3185 H 308.177 3.47228 5.0226 0
M  V30 3186 H 309.591 4.77995 3.16534 0
M  V30 3187 H 307.988 5.38276 2.6529 0
M  V30 3188 H 309.058 4.62387 1.46034 0
M  V30 3189 N 310.401 -0.613514 1.45168 0
M  V30 3190 C 311.364 -1.7065 1.53007 0
M  V30 3191 C 312.364 -1.5548 0.410184 0
M  V30 3192 O 313.554 -1.60656 0.673455 0
M  V30 3193 C 310.686 -3.09875 1.42093 0
M  V30 3194 H 311.879 -1.65068 2.50385 0
M  V30 3195 H 309.432 -0.828728 1.32521 0
M  V30 3196 H 310.167 -3.21039 0.458769 0
M  V30 3197 H 309.952 -3.22293 2.23315 0
M  V30 3198 H 311.442 -3.895 1.50598 0
M  V30 3199 N 311.879 -1.3236 -0.855495 0
M  V30 3200 C 312.809 -1.23833 -1.97958 0
M  V30 3201 C 313.79 -0.122361 -1.69659 0
M  V30 3202 O 314.975 -0.30939 -1.9172 0
M  V30 3203 C 312.105 -0.959772 -3.33775 0
M  V30 3204 C 311.059 -2.03689 -3.76424 0
M  V30 3205 C 310.385 -1.61075 -5.09862 0
M  V30 3206 C 311.685 -3.4518 -3.9198 0
M  V30 3207 H 313.379 -2.1788 -2.0535 0
M  V30 3208 H 310.925 -1.04891 -0.986605 0
M  V30 3209 H 312.878 -0.886678 -4.11966 0
M  V30 3210 H 311.602 0.0163404 -3.26596 0
M  V30 3211 H 310.261 -2.10012 -3.00484 0
M  V30 3212 H 309.909 -0.622107 -4.99138 0
M  V30 3213 H 309.609 -2.33143 -5.39368 0
M  V30 3214 H 311.133 -1.55201 -5.90546 0
M  V30 3215 H 312.547 -3.4145 -4.60526 0
M  V30 3216 H 310.944 -4.1559 -4.32903 0
M  V30 3217 H 312.014 -3.84903 -2.94919 0
M  V30 3218 N 313.357 1.07166 -1.15556 0
M  V30 3219 C 314.32 2.12589 -0.856644 0
M  V30 3220 C 315.32 1.6015 0.14444 0
M  V30 3221 O 316.51 1.7399 -0.0854163 0
M  V30 3222 C 313.642 3.39753 -0.279405 0
M  V30 3223 H 314.835 2.40539 -1.79112 0
M  V30 3224 H 312.388 1.23086 -0.963298 0
M  V30 3225 H 313.123 3.17447 0.663174 0
M  V30 3226 H 312.908 3.79117 -1.00063 0
M  V30 3227 H 314.398 4.17507 -0.0879113 0
M  V30 3228 N 314.835 0.952656 1.25548 0
M  V30 3229 C 315.767 0.428609 2.25157 0
M  V30 3230 C 316.78 -0.454428 1.56329 0
M  V30 3231 O 317.969 -0.263023 1.76552 0
M  V30 3232 C 315.069 -0.401972 3.36508 0
M  V30 3233 C 314.242 0.467601 4.34893 0
M  V30 3234 C 313.301 -0.30445 5.25319 0
M  V30 3235 O 312.327 0.296473 5.68427 0
M  V30 3236 N 313.529 -1.59805 5.5807 0
M  V30 3237 H 316.294 1.28497 2.70756 0
M  V30 3238 H 313.855 0.822798 1.39433 0
M  V30 3239 H 315.847 -0.926134 3.9396 0
M  V30 3240 H 314.417 -1.15918 2.90313 0
M  V30 3241 H 313.637 1.17288 3.76347 0
M  V30 3242 H 314.925 1.06119 4.97611 0
M  V30 3243 H 314.323 -2.10823 5.24948 0
M  V30 3244 H 312.88 -2.06822 6.18116 0
M  V30 3245 N 316.313 -1.40141 0.720998 0
M  V30 3246 C 317.276 -2.29058 0.0805834 0
M  V30 3247 C 318.276 -1.45632 -0.681758 0
M  V30 3248 O 319.466 -1.6648 -0.512856 0
M  V30 3249 C 316.598 -3.28925 -0.895593 0
M  V30 3250 H 317.791 -2.87191 0.863793 0
M  V30 3251 H 315.344 -1.48553 0.485975 0
M  V30 3252 H 316.079 -2.75822 -1.70566 0
M  V30 3253 H 315.864 -3.90519 -0.351766 0
M  V30 3254 H 317.354 -3.95494 -1.34069 0
M  V30 3255 N 317.792 -0.46758 -1.50504 0
M  V30 3256 C 318.739 0.328413 -2.28452 0
M  V30 3257 C 319.709 0.990313 -1.33349 0
M  V30 3258 O 320.894 1.00343 -1.62284 0
M  V30 3259 C 318.034 1.40648 -3.15138 0
M  V30 3260 C 317.147 0.759709 -4.25267 0
M  V30 3261 C 316.282 1.81537 -4.99217 0
M  V30 3262 C 315.321 1.14866 -6.01226 0
M  V30 3263 N 314.458 2.14702 -6.68467 0
M  V30 3264 H 319.298 -0.342603 -2.96024 0
M  V30 3265 H 316.835 -0.180801 -1.45985 0
M  V30 3266 H 318.793 2.04315 -3.63746 0
M  V30 3267 H 317.423 2.04671 -2.49619 0
M  V30 3268 H 316.475 0.0105671 -3.80399 0
M  V30 3269 H 317.787 0.233243 -4.98254 0
M  V30 3270 H 316.941 2.52793 -5.51526 0
M  V30 3271 H 315.68 2.37564 -4.25928 0
M  V30 3272 H 314.685 0.42171 -5.4818 0
M  V30 3273 H 315.91 0.595334 -6.76485 0
M  V30 3274 H 313.856 2.69752 -5.97972 0
M  V30 3275 H 313.773 1.6703 -7.37317 0
M  V30 3276 H 315.041 2.85348 -7.25394 0
M  V30 3277 N 319.27 1.56325 -0.20005 0
M  V30 3278 C 320.516 1.98012 0.438059 0
M  V30 3279 C 320.849 1.08702 1.60927 0
M  V30 3280 O 320.124 0.140064 1.93995 0
M  V30 3281 C 320.407 3.48841 0.893419 0
M  V30 3282 C 320.26 4.48928 -0.279947 0
M  V30 3283 C 321.579 4.03498 1.75719 0
M  V30 3284 H 318.698 0.719918 0.157757 0
M  V30 3285 H 321.34 1.87743 -0.291968 0
M  V30 3286 H 319.49 3.57723 1.51547 0
M  V30 3287 H 321.162 4.52079 -0.91772 0
M  V30 3288 H 319.405 4.23694 -0.930919 0
M  V30 3289 H 320.076 5.5194 0.0812601 0
M  V30 3290 H 322.552 3.97427 1.23253 0
M  V30 3291 H 321.428 5.09393 2.04476 0
M  V30 3292 H 321.689 3.4906 2.71311 0
M  V30 3293 N 320.748 -0.0735177 1.57428 0
M  V30 3294 C 321.973 -0.789787 1.91774 0
M  V30 3295 C 322.398 -1.70413 0.796306 0
M  V30 3296 O 321.756 -1.79555 -0.250961 0
M  V30 3297 C 321.804 -1.5609 3.25067 0
M  V30 3298 O 320.908 -2.67144 3.14178 0
M  V30 3299 H 320.249 -0.215582 0.628029 0
M  V30 3300 H 322.779 -0.0422781 2.04556 0
M  V30 3301 H 322.789 -1.94052 3.58898 0
M  V30 3302 H 321.464 -0.890015 4.06265 0
M  V30 3303 H 320.041 -2.32052 2.91901 0
M  V30 3304 N 322.226 -1.5378 -0.344866 0
M  V30 3305 C 323.176 -1.78057 -1.42407 0
M  V30 3306 C 324.16 -0.635732 -1.47808 0
M  V30 3307 O 325.352 -0.89508 -1.527 0
M  V30 3308 C 322.481 -1.99242 -2.79566 0
M  V30 3309 C 321.567 -3.19787 -2.78562 0
M  V30 3310 N 321.958 -4.41284 -2.47189 0
M  V30 3311 C 320.256 -3.2093 -3.0971 0
M  V30 3312 C 320.957 -5.23128 -2.54385 0
M  V30 3313 N 319.933 -4.59813 -2.89953 0
M  V30 3314 H 323.735 -2.69588 -1.17046 0
M  V30 3315 H 321.249 -1.52687 -0.553217 0
M  V30 3316 H 323.246 -2.14768 -3.57324 0
M  V30 3317 H 321.906 -1.08953 -3.05875 0
M  V30 3318 H 322.917 -4.68657 -2.20411 0
M  V30 3319 H 319.594 -2.40603 -3.41199 0
M  V30 3320 H 320.984 -6.30096 -2.333 0
M  V30 3321 N 323.704 0.605807 -1.45491 0
M  V30 3322 C 324.667 1.69836 -1.5391 0
M  V30 3323 C 325.667 1.55261 -0.418424 0
M  V30 3324 O 326.857 1.60296 -0.681965 0
M  V30 3325 C 323.989 3.09117 -1.43734 0
M  V30 3326 H 325.182 1.63738 -2.51257 0
M  V30 3327 H 322.735 0.821689 -1.32959 0
M  V30 3328 H 323.47 3.20791 -0.475788 0
M  V30 3329 H 323.255 3.21104 -2.25021 0
M  V30 3330 H 324.745 3.88696 -1.52661 0
M  V30 3331 N 325.182 1.32811 0.848464 0
M  V30 3332 C 326.112 1.24882 1.97299 0
M  V30 3333 C 327.093 0.131357 1.69592 0
M  V30 3334 O 328.278 0.319553 1.91553 0
M  V30 3335 C 325.408 0.97746 3.33261 0
M  V30 3336 C 324.362 2.05682 3.75338 0
M  V30 3337 C 323.688 1.63777 5.09 0
M  V30 3338 C 324.988 3.47254 3.90144 0
M  V30 3339 H 326.682 2.18966 2.04191 0
M  V30 3340 H 324.228 1.05413 0.981029 0
M  V30 3341 H 326.181 0.908513 4.1149 0
M  V30 3342 H 324.905 0.000980011 3.266 0
M  V30 3343 H 323.564 2.11603 2.99366 0
M  V30 3344 H 323.212 0.648569 4.98801 0
M  V30 3345 H 322.912 2.36 5.38124 0
M  V30 3346 H 324.436 1.5833 5.89715 0
M  V30 3347 H 325.85 3.43888 4.58709 0
M  V30 3348 H 324.247 4.1788 4.30693 0
M  V30 3349 H 325.317 3.86462 2.92874 0
M  V30 3350 N 326.66 -1.06551 1.16123 0
M  V30 3351 C 327.909 -1.78687 0.935622 0
M  V30 3352 C 328.222 -1.88056 -0.538001 0
M  V30 3353 O 329.428 -2.56794 -0.88143 0
M  V30 3354 C 327.884 -3.21143 1.62466 0
M  V30 3355 C 327.492 -3.19949 3.13587 0
M  V30 3356 C 329.236 -3.9783 1.48092 0
M  V30 3357 C 327.143 -4.57108 3.75241 0
M  V30 3358 H 326.073 -0.669712 0.346412 0
M  V30 3359 H 328.724 -1.19534 1.39226 0
M  V30 3360 H 327.106 -3.80539 1.09572 0
M  V30 3361 H 328.28 -2.70151 3.73303 0
M  V30 3362 H 326.595 -2.5676 3.27816 0
M  V30 3363 H 329.192 -4.99217 1.91538 0
M  V30 3364 H 329.535 -4.14078 0.429507 0
M  V30 3365 H 330.068 -3.4495 1.98127 0
M  V30 3366 H 326.807 -4.46065 4.80319 0
M  V30 3367 H 326.327 -5.07111 3.20309 0
M  V30 3368 H 328.006 -5.26069 3.76644 0
M  V30 3369 N 328.138 -0.959301 -1.25041 0
M  V30 3370 C 329.085 -0.482057 -2.2571 0
M  V30 3371 C 330.055 0.467939 -1.59372 0
M  V30 3372 O 331.24 0.380159 -1.86974 0
M  V30 3373 C 328.38 0.229623 -3.44335 0
M  V30 3374 C 327.493 -0.758156 -4.25295 0
M  V30 3375 C 326.628 -0.0234403 -5.31195 0
M  V30 3376 C 325.667 -1.00184 -6.03846 0
M  V30 3377 N 324.804 -0.29769 -7.01469 0
M  V30 3378 H 329.644 -1.34538 -2.65901 0
M  V30 3379 H 327.181 -0.674592 -1.3072 0
M  V30 3380 H 329.139 0.658856 -4.11965 0
M  V30 3381 H 327.769 1.05696 -3.05005 0
M  V30 3382 H 326.821 -1.30586 -3.57284 0
M  V30 3383 H 328.133 -1.50458 -4.75567 0
M  V30 3384 H 327.287 0.464201 -6.04922 0
M  V30 3385 H 326.026 0.755741 -4.81809 0
M  V30 3386 H 325.031 -1.50044 -5.2893 0
M  V30 3387 H 326.256 -1.78133 -6.55321 0
M  V30 3388 H 324.202 0.462668 -6.54366 0
M  V30 3389 H 324.119 -0.983128 -7.4958 0
M  V30 3390 H 325.387 0.16826 -7.79318 0
M  V30 3391 N 329.616 1.39756 -0.72842 0
M  V30 3392 C 330.864 2.00248 -0.272946 0
M  V30 3393 C 331.185 1.58077 1.14178 0
M  V30 3394 O 330.455 0.826014 1.77634 0
M  V30 3395 H 329.035 0.740554 -0.0979247 0
M  V30 3396 H 331.697 1.70903 -0.936912 0
M  V30 3397 H 330.793 3.10495 -0.316142 0
M  V30 3398 N 331.094 0.475555 1.50254 0
M  V30 3399 C 332.343 -0.0795996 2.01543 0
M  V30 3400 C 332.656 -1.4038 1.36209 0
M  V30 3401 O 333.862 -2.04415 1.7868 0
M  V30 3402 C 332.318 -0.192363 3.59386 0
M  V30 3403 C 331.926 1.12367 4.33679 0
M  V30 3404 C 333.67 -0.699238 4.18701 0
M  V30 3405 C 331.577 0.974453 5.83317 0
M  V30 3406 H 330.507 -0.0335228 0.753254 0
M  V30 3407 H 333.158 0.611128 1.73025 0
M  V30 3408 H 331.54 -0.946974 3.84511 0
M  V30 3409 H 332.714 1.88958 4.20276 0
M  V30 3410 H 331.029 1.562 3.85993 0
M  V30 3411 H 333.626 -0.827978 5.28251 0
M  V30 3412 H 333.969 -1.69171 3.80377 0
M  V30 3413 H 334.502 -0.00188807 3.978 0
M  V30 3414 H 331.241 1.94042 6.26121 0
M  V30 3415 H 330.761 0.248998 5.99283 0
M  V30 3416 H 332.44 0.642867 6.43798 0
M  V30 3417 N 332.573 -1.56217 0.208337 0
M  V30 3418 C 333.85 -1.89739 -0.475234 0
M  V30 3419 C 334.23 -1.1238 -1.78701 0
M  V30 3420 O 333.578 -0.228979 -2.2735 0
M  V30 3421 C 333.788 -3.42289 -0.681101 0
M  V30 3422 C 335.136 -4.12789 -0.994507 0
M  V30 3423 O 336.16 -3.47814 -0.768357 0
M  V30 3424 O 335.019 -5.27649 -1.42299 0
M  V30 3425 H 332.113 -0.788478 -0.249461 0
M  V30 3426 H 334.659 -1.67855 0.249538 0
M  V30 3427 H 333.431 -3.90534 0.244722 0
M  V30 3428 H 333.054 -3.69909 -1.45785 0
M  V30 3429 N 334.051 0.0651679 -1.57465 0
M  V30 3430 C 335.279 0.775808 -1.91804 0
M  V30 3431 C 335.694 1.70782 -0.804916 0
M  V30 3432 O 335.051 1.81153 0.221311 0
M  V30 3433 C 335.102 1.56381 -3.25925 0
M  V30 3434 O 334.823 0.669248 -4.32958 0
M  V30 3435 C 336.324 2.37485 -3.7432 0
M  V30 3436 H 333.544 0.2202 -0.63384 0
M  V30 3437 H 336.088 0.0334587 -2.04473 0
M  V30 3438 H 334.243 2.25837 -3.14764 0
M  V30 3439 H 334.657 1.21801 -5.10162 0
M  V30 3440 H 336.131 2.88223 -4.70778 0
M  V30 3441 H 336.608 3.17307 -3.03666 0
M  V30 3442 H 337.214 1.73173 -3.88447 0
M  V30 3443 N 335.529 1.53961 0.336706 0
M  V30 3444 C 336.754 1.75797 1.10046 0
M  V30 3445 C 337.179 0.498985 1.81361 0
M  V30 3446 O 336.537 -0.548769 1.72795 0
M  V30 3447 C 336.585 2.94257 2.08436 0
M  V30 3448 O 335.689 2.64883 3.16087 0
M  V30 3449 H 335.03 0.582936 0.317934 0
M  V30 3450 H 337.56 2.00945 0.38501 0
M  V30 3451 H 337.57 3.21237 2.51537 0
M  V30 3452 H 336.245 3.85564 1.55927 0
M  V30 3453 H 334.822 2.48812 2.77753 0
M  V30 3454 N 337.007 -0.598083 1.45811 0
M  V30 3455 C 337.917 -1.73632 1.57763 0
M  V30 3456 C 338.933 -1.67763 0.461676 0
M  V30 3457 O 340.109 -1.87949 0.723685 0
M  V30 3458 C 337.174 -3.10114 1.55018 0
M  V30 3459 C 336.235 -3.27364 2.77726 0
M  V30 3460 C 335.468 -4.57334 2.75102 0
M  V30 3461 O 335.691 -5.40258 1.8297 0
M  V30 3462 O 334.625 -4.77502 3.66437 0
M  V30 3463 H 338.451 -1.66498 2.53992 0
M  V30 3464 H 336.036 -0.763308 1.28429 0
M  V30 3465 H 337.918 -3.9141 1.56129 0
M  V30 3466 H 336.593 -3.17718 0.619431 0
M  V30 3467 H 335.5 -2.45619 2.82174 0
M  V30 3468 H 336.833 -3.24641 3.69958 0
M  V30 3469 N 338.485 -1.33259 -0.841409 0
M  V30 3470 C 339.448 -1.23221 -1.9326 0
M  V30 3471 C 340.448 -0.151895 -1.60081 0
M  V30 3472 O 341.638 -0.403246 -1.69468 0
M  V30 3473 C 338.77 -0.898123 -3.28856 0
M  V30 3474 H 339.963 -2.2021 -2.03587 0
M  V30 3475 H 337.516 -1.17281 -1.03319 0
M  V30 3476 H 338.251 0.0693841 -3.24226 0
M  V30 3477 H 338.036 -1.67934 -3.54317 0
M  V30 3478 H 339.526 -0.852563 -4.08805 0
M  V30 3479 N 339.963 1.05934 -1.16686 0
M  V30 3480 C 340.873 2.17014 -0.891183 0
M  V30 3481 C 341.889 1.73453 0.137907 0
M  V30 3482 O 343.065 2.01361 -0.039592 0
M  V30 3483 C 340.13 3.44384 -0.400099 0
M  V30 3484 C 339.191 4.02433 -1.49486 0
M  V30 3485 C 338.424 5.23723 -1.02711 0
M  V30 3486 O 338.647 5.7027 0.121716 0
M  V30 3487 O 337.581 5.7382 -1.81699 0
M  V30 3488 H 341.407 2.43113 -1.82015 0
M  V30 3489 H 338.992 1.15541 -0.947132 0
M  V30 3490 H 340.874 4.21189 -0.133392 0
M  V30 3491 H 339.549 3.19802 0.500817 0
M  V30 3492 H 338.456 3.27102 -1.81535 0
M  V30 3493 H 339.789 4.31317 -2.37121 0
M  V30 3494 N 341.441 0.965919 1.2453 0
M  V30 3495 C 342.388 0.49402 2.25451 0
M  V30 3496 C 343.358 -0.45948 1.59618 0
M  V30 3497 O 344.543 -0.370238 1.87173 0
M  V30 3498 C 341.683 -0.211359 3.44452 0
M  V30 3499 C 340.796 0.7807 4.24887 0
M  V30 3500 C 339.931 0.0516105 5.31175 0
M  V30 3501 C 338.97 1.03385 6.03306 0
M  V30 3502 N 338.107 0.334887 7.01301 0
M  V30 3503 H 342.947 1.35946 2.65184 0
M  V30 3504 H 340.484 0.681515 1.3036 0
M  V30 3505 H 342.442 -0.637 4.12308 0
M  V30 3506 H 341.072 -1.04077 3.05562 0
M  V30 3507 H 340.124 1.32479 3.56586 0
M  V30 3508 H 341.436 1.52978 4.74762 0
M  V30 3509 H 340.59 -0.432114 6.05159 0
M  V30 3510 H 339.329 -0.730179 4.82203 0
M  V30 3511 H 338.334 1.52847 5.28127 0
M  V30 3512 H 339.559 1.81606 6.54367 0
M  V30 3513 H 337.505 -0.427959 6.54603 0
M  V30 3514 H 337.422 1.02287 7.49048 0
M  V30 3515 H 338.69 -0.126928 7.79397 0
M  V30 3516 N 342.919 -1.39368 0.735821 0
M  V30 3517 C 343.852 -2.28155 0.0451175 0
M  V30 3518 C 344.83 -1.44433 -0.746852 0
M  V30 3519 O 346.014 -1.73823 -0.729237 0
M  V30 3520 C 343.141 -3.253 -0.943266 0
M  V30 3521 C 342.187 -4.25826 -0.239685 0
M  V30 3522 S 343.02 -5.25166 1.04693 0
M  V30 3523 C 344.176 -6.2587 0.0611639 0
M  V30 3524 H 344.409 -2.86388 0.79807 0
M  V30 3525 H 341.942 -1.45104 0.527653 0
M  V30 3526 H 343.9 -3.81789 -1.50824 0
M  V30 3527 H 342.561 -2.66085 -1.66906 0
M  V30 3528 H 341.754 -4.94229 -0.987596 0
M  V30 3529 H 341.356 -3.73141 0.253274 0
M  V30 3530 H 343.648 -6.73007 -0.778941 0
M  V30 3531 H 344.591 -7.04508 0.712362 0
M  V30 3532 H 344.999 -5.63639 -0.311602 0
M  V30 3533 N 344.397 -0.483516 -1.5 0
M  V30 3534 C 345.808 -0.0314176 -1.86674 0
M  V30 3535 C 346.159 1.37728 -1.39733 0
M  V30 3536 O 345.284 2.02327 -0.767635 0
M  V30 3537 C 345.879 -0.0502376 -3.38763 0
M  V30 3538 C 344.438 0.346442 -3.74802 0
M  V30 3539 C 343.585 -0.430366 -2.7394 0
M  V30 3540 H 346.536 -0.697182 -1.42566 0
M  V30 3541 H 346.557 0.749116 -3.73053 0
M  V30 3542 H 346.069 -1.07563 -3.72897 0
M  V30 3543 H 344.17 1.37572 -3.46273 0
M  V30 3544 H 344.283 0.0391486 -4.79084 0
M  V30 3545 H 342.647 0.117557 -2.54429 0
M  V30 3546 H 343.43 -1.4555 -3.10918 0
M  V30 3547 N 345.875 1.56104 -0.216619 0
M  V30 3548 C 347.123 1.97781 0.415593 0
M  V30 3549 C 347.444 1.10536 1.60645 0
M  V30 3550 O 346.714 0.181303 1.95059 0
M  V30 3551 H 345.294 0.730415 0.156534 0
M  V30 3552 H 347.956 1.92445 -0.308366 0
M  V30 3553 H 347.052 3.03072 0.74525 0
M  V30 3554 N 347.353 -0.0568162 1.57498 0
M  V30 3555 C 348.599 -0.75422 1.88253 0
M  V30 3556 C 348.932 -1.76461 0.810865 0
M  V30 3557 O 348.207 -1.93691 -0.177259 0
M  V30 3558 C 348.49 -1.44878 3.2967 0
M  V30 3559 C 348.343 -0.453789 4.47505 0
M  V30 3560 C 349.662 -2.38994 3.69554 0
M  V30 3561 H 346.781 -0.272724 0.684683 0
M  V30 3562 H 349.423 -0.0172113 1.89992 0
M  V30 3563 H 347.573 -2.077 3.28318 0
M  V30 3564 H 349.245 0.170371 4.60985 0
M  V30 3565 H 347.488 0.229552 4.33192 0
M  V30 3566 H 348.159 -0.977699 5.43273 0
M  V30 3567 H 350.635 -1.86239 3.72095 0
M  V30 3568 H 349.511 -2.84587 4.69363 0
M  V30 3569 H 349.772 -3.24461 3.00296 0
M  V30 3570 N 348.832 -1.54138 -0.328536 0
M  V30 3571 C 350.062 -1.75807 -1.08516 0
M  V30 3572 C 350.47 -0.50428 -1.82356 0
M  V30 3573 O 349.813 0.534451 -1.75754 0
M  V30 3574 C 349.875 -2.89423 -2.13248 0
M  V30 3575 C 349.539 -4.28504 -1.5885 0
M  V30 3576 C 350.536 -5.09536 -1.03289 0
M  V30 3577 C 348.221 -4.75034 -1.63243 0
M  V30 3578 C 350.215 -6.35206 -0.52845 0
M  V30 3579 C 347.902 -6.00672 -1.12411 0
M  V30 3580 C 348.9 -6.80592 -0.573062 0
M  V30 3581 O 348.588 -8.03867 -0.0723692 0
M  V30 3582 H 348.32 -0.590633 -0.328829 0
M  V30 3583 H 350.874 -2.01819 -0.381868 0
M  V30 3584 H 349.104 -2.5897 -2.87178 0
M  V30 3585 H 350.793 -2.98921 -2.74592 0
M  V30 3586 H 351.559 -4.74745 -0.99206 0
M  V30 3587 H 347.438 -4.12875 -2.05074 0
M  V30 3588 H 350.982 -6.97532 -0.0976774 0
M  V30 3589 H 346.879 -6.34955 -1.162 0
M  V30 3590 H 347.647 -8.18283 -0.188258 0
M  V30 3591 N 350.31 0.590341 -1.46126 0
M  V30 3592 C 351.257 1.69994 -1.56111 0
M  V30 3593 C 352.227 1.61065 -0.405867 0
M  V30 3594 O 353.412 1.8039 -0.621613 0
M  V30 3595 C 350.552 3.08326 -1.55013 0
M  V30 3596 C 349.665 3.27936 -2.81215 0
M  V30 3597 C 348.8 4.56473 -2.71673 0
M  V30 3598 C 347.839 4.694 -3.92849 0
M  V30 3599 N 346.976 5.89254 -3.81738 0
M  V30 3600 H 351.816 1.60797 -2.50895 0
M  V30 3601 H 349.353 0.783799 -1.24479 0
M  V30 3602 H 351.311 3.88383 -1.52362 0
M  V30 3603 H 349.941 3.16439 -0.637667 0
M  V30 3604 H 348.993 2.41536 -2.93879 0
M  V30 3605 H 350.305 3.33357 -3.71045 0
M  V30 3606 H 349.459 5.44748 -2.67085 0
M  V30 3607 H 348.198 4.53477 -1.7947 0
M  V30 3608 H 347.203 3.79544 -3.97777 0
M  V30 3609 H 348.428 4.7418 -4.86138 0
M  V30 3610 H 346.374 5.87271 -2.92317 0
M  V30 3611 H 346.291 5.95911 -4.65217 0
M  V30 3612 H 347.559 6.79981 -3.81112 0
M  V30 3613 N 351.788 1.33704 0.83433 0
M  V30 3614 C 353.034 1.25603 1.59222 0
M  V30 3615 C 353.367 -0.176659 1.93395 0
M  V30 3616 O 352.642 -1.11915 1.59076 0
M  V30 3617 C 352.925 2.13576 2.89926 0
M  V30 3618 C 352.778 3.65326 2.62406 0
M  V30 3619 C 354.097 2.01238 3.91397 0
M  V30 3620 H 351.216 0.457613 0.577719 0
M  V30 3621 H 353.858 1.63848 0.961972 0
M  V30 3622 H 352.008 1.8109 3.43713 0
M  V30 3623 H 353.68 4.08124 2.15017 0
M  V30 3624 H 351.923 3.8698 1.96033 0
M  V30 3625 H 352.594 4.22232 3.55562 0
M  V30 3626 H 355.07 2.29738 3.46929 0
M  V30 3627 H 353.946 2.65036 4.80673 0
M  V30 3628 H 354.207 0.985951 4.30966 0
M  V30 3629 N 353.266 -1.05314 1.17247 0
M  V30 3630 C 354.196 -2.1498 0.911362 0
M  V30 3631 C 355.177 -1.69471 -0.146169 0
M  V30 3632 O 356.362 -1.942 0.003812 0
M  V30 3633 C 353.492 -3.4472 0.422528 0
M  V30 3634 C 352.446 -4.03789 1.4191 0
M  V30 3635 C 351.772 -5.28858 0.788274 0
M  V30 3636 C 353.072 -4.41418 2.7919 0
M  V30 3637 H 354.766 -2.3708 1.82848 0
M  V30 3638 H 352.312 -1.13938 0.880569 0
M  V30 3639 H 354.265 -4.20787 0.227289 0
M  V30 3640 H 352.989 -3.22269 -0.530123 0
M  V30 3641 H 351.648 -3.2979 1.60106 0
M  V30 3642 H 351.296 -5.02709 -0.171173 0
M  V30 3643 H 350.996 -5.69338 1.45353 0
M  V30 3644 H 352.52 -6.07612 0.603282 0
M  V30 3645 H 353.934 -5.08524 2.64719 0
M  V30 3646 H 352.331 -4.92913 3.42282 0
M  V30 3647 H 353.401 -3.51819 3.33693 0
M  V30 3648 N 354.744 -0.972509 -1.24016 0
M  V30 3649 C 355.972 -0.654803 -1.96265 0
M  V30 3650 C 356.387 0.776708 -1.72083 0
M  V30 3651 O 355.744 1.52171 -1.00748 0
M  V30 3652 C 355.795 -0.92592 -3.49441 0
M  V30 3653 O 355.516 -2.30116 -3.72798 0
M  V30 3654 C 357.017 -0.623068 -4.38899 0
M  V30 3655 H 354.237 -0.243907 -0.6251 0
M  V30 3656 H 356.781 -1.30175 -1.57717 0
M  V30 3657 H 354.936 -0.325108 -3.86033 0
M  V30 3658 H 355.35 -2.38483 -4.67147 0
M  V30 3659 H 356.824 -0.863189 -5.45209 0
M  V30 3660 H 357.301 0.442754 -4.36963 0
M  V30 3661 H 357.907 -1.204 -4.07902 0
M  V30 3662 N 356.222 1.38976 -0.743202 0
M  V30 3663 C 357.172 2.27843 -0.084513 0
M  V30 3664 C 358.156 1.44677 0.704094 0
M  V30 3665 O 359.348 1.67511 0.571755 0
M  V30 3666 C 356.477 3.33466 0.815781 0
M  V30 3667 C 355.563 4.24095 0.0208844 0
M  V30 3668 N 355.954 4.95609 -1.0102 0
M  V30 3669 C 354.252 4.45303 0.249293 0
M  V30 3670 C 354.953 5.62287 -1.49024 0
M  V30 3671 N 353.929 5.37571 -0.807377 0
M  V30 3672 H 357.731 2.80593 -0.87436 0
M  V30 3673 H 355.245 1.51755 -0.578283 0
M  V30 3674 H 357.242 3.96008 1.30321 0
M  V30 3675 H 355.902 2.82276 1.6047 0
M  V30 3676 H 356.913 4.98849 -1.39176 0
M  V30 3677 H 353.59 4.0504 1.01237 0
M  V30 3678 H 354.98 6.29519 -2.34853 0
M  V30 3679 N 357.7 0.491464 1.49741 0
M  V30 3680 C 358.647 -0.292027 2.28945 0
M  V30 3681 C 359.617 -0.968973 1.34908 0
M  V30 3682 O 360.802 -0.97748 1.6386 0
M  V30 3683 C 357.942 -1.35617 3.17336 0
M  V30 3684 C 357.055 -0.691957 4.26422 0
M  V30 3685 C 356.19 -1.73572 5.02042 0
M  V30 3686 C 355.229 -1.05286 6.02977 0
M  V30 3687 N 354.366 -2.0404 6.71798 0
M  V30 3688 H 359.206 0.389654 2.95442 0
M  V30 3689 H 356.743 0.204003 1.45679 0
M  V30 3690 H 358.701 -1.98502 3.66951 0
M  V30 3691 H 357.331 -2.00674 2.52844 0
M  V30 3692 H 356.383 0.0499523 3.80367 0
M  V30 3693 H 357.695 -0.153946 4.98562 0
M  V30 3694 H 356.849 -2.43987 5.55478 0
M  V30 3695 H 355.588 -2.30757 4.29654 0
M  V30 3696 H 354.593 -0.334446 5.48782 0
M  V30 3697 H 355.818 -0.487636 6.77347 0
M  V30 3698 H 353.764 -2.60205 6.02187 0
M  V30 3699 H 353.681 -1.55279 7.39881 0
M  V30 3700 H 354.949 -2.73772 7.29842 0
M  V30 3701 N 359.178 -1.55987 0.224894 0
M  V30 3702 C 360.455 -1.90232 -0.455083 0
M  V30 3703 C 360.835 -1.14269 -1.77499 0
M  V30 3704 O 360.183 -0.253079 -2.27094 0
M  V30 3705 C 360.393 -3.42993 -0.644758 0
M  V30 3706 C 361.741 -4.13821 -0.950669 0
M  V30 3707 O 362.765 -3.4861 -0.731423 0
M  V30 3708 O 361.624 -5.29128 -1.36695 0
M  V30 3709 H 358.718 -0.79108 -0.241084 0
M  V30 3710 H 361.264 -1.67581 0.267327 0
M  V30 3711 H 360.036 -3.90252 0.28613 0
M  V30 3712 H 359.659 -3.71434 -1.41853 0
M  V30 3713 N 360.656 0.0484629 -1.57525 0
M  V30 3714 C 361.902 0.744226 -1.88651 0
M  V30 3715 C 362.235 1.76029 -0.820212 0
M  V30 3716 O 361.51 1.93782 0.166985 0
M  V30 3717 C 361.793 1.43128 -3.30434 0
M  V30 3718 C 361.646 0.43005 -4.47739 0
M  V30 3719 C 362.965 2.37031 -3.70816 0
M  V30 3720 H 360.084 0.269089 -0.68612 0
M  V30 3721 H 362.726 0.00713532 -1.89999 0
M  V30 3722 H 360.876 2.05956 -3.29415 0
M  V30 3723 H 362.548 -0.194816 -4.60888 0
M  V30 3724 H 360.791 -0.252522 -4.33064 0
M  V30 3725 H 361.462 0.948874 -5.43783 0
M  V30 3726 H 363.938 1.84263 -3.73077 0
M  V30 3727 H 362.814 2.82094 -4.70865 0
M  V30 3728 H 363.075 3.22864 -3.02012 0
M  V30 3729 N 362.134 1.5431 0.320358 0
M  V30 3730 C 363.081 1.83918 1.39438 0
M  V30 3731 C 364.051 0.686525 1.51248 0
M  V30 3732 O 365.236 0.933269 1.66417 0
M  V30 3733 C 362.376 2.075 2.75749 0
M  V30 3734 C 361.489 3.35177 2.72544 0
M  V30 3735 C 360.624 3.48704 4.00723 0
M  V30 3736 C 359.663 4.70244 3.91838 0
M  V30 3737 N 358.8 4.80679 5.11754 0
M  V30 3738 H 363.64 2.75544 1.13489 0
M  V30 3739 H 361.177 1.36459 0.549309 0
M  V30 3740 H 363.135 2.19166 3.54996 0
M  V30 3741 H 361.765 1.19163 3 0
M  V30 3742 H 360.817 3.32233 1.85271 0
M  V30 3743 H 362.129 4.24534 2.61863 0
M  V30 3744 H 361.283 3.59928 4.88402 0
M  V30 3745 H 360.022 2.57445 4.14214 0
M  V30 3746 H 359.027 4.59072 3.02544 0
M  V30 3747 H 360.252 5.6289 3.7991 0
M  V30 3748 H 358.198 3.92337 5.25745 0
M  V30 3749 H 358.115 5.64007 5.0342 0
M  V30 3750 H 359.383 4.96239 6.01138 0
M  V30 3751 N 363.613 -0.582584 1.46437 0
M  V30 3752 C 364.861 -1.33814 1.51453 0
M  V30 3753 C 365.182 -1.94277 0.167792 0
M  V30 3754 O 364.452 -1.78566 -0.805677 0
M  V30 3755 H 363.032 -0.496838 0.557818 0
M  V30 3756 H 365.694 -0.682281 1.82568 0
M  V30 3757 H 364.79 -2.14479 2.26728 0
M  V30 3758 N 365.091 -1.34144 -0.827227 0
M  V30 3759 C 366.038 -1.25364 -1.93785 0
M  V30 3760 C 367.008 -0.129774 -1.65592 0
M  V30 3761 O 368.193 -0.310024 -1.88264 0
M  V30 3762 C 365.333 -1.01064 -3.2997 0
M  V30 3763 C 364.446 -2.22185 -3.70484 0
M  V30 3764 C 363.581 -1.91203 -4.95595 0
M  V30 3765 C 362.62 -3.08491 -5.28677 0
M  V30 3766 N 361.757 -2.77421 -6.44967 0
M  V30 3767 H 366.597 -2.20347 -2.00627 0
M  V30 3768 H 364.134 -1.09558 -0.981608 0
M  V30 3769 H 366.092 -0.850139 -4.08446 0
M  V30 3770 H 364.722 -0.0975026 -3.22653 0
M  V30 3771 H 363.774 -2.4917 -2.87434 0
M  V30 3772 H 365.086 -3.0983 -3.90905 0
M  V30 3773 H 364.24 -1.71864 -5.81848 0
M  V30 3774 H 362.979 -1.00812 -4.77167 0
M  V30 3775 H 361.984 -3.28431 -4.40923 0
M  V30 3776 H 363.209 -3.99655 -5.49047 0
M  V30 3777 H 361.155 -1.89601 -6.28003 0
M  V30 3778 H 361.072 -3.58598 -6.6554 0
M  V30 3779 H 362.34 -2.61577 -7.34301 0
M  V30 3780 N 366.569 1.04691 -1.17803 0
M  V30 3781 C 367.517 2.14665 -0.895635 0
M  V30 3782 C 368.511 1.68806 0.141679 0
M  V30 3783 O 369.717 1.79999 -0.00587914 0
M  V30 3784 H 366.092 0.701038 -0.272121 0
M  V30 3785 H 368.063 2.35685 -1.83017 0
M  V30 3786 C 366.812 3.45019 -0.430962 0
M  V30 3787 H 366.135 3.8071 -1.22064 0
M  V30 3788 H 367.575 4.23125 -0.272301 0
M  V30 3789 C 366.034 3.25943 0.852207 0
M  V30 3790 O 366.564 3.5296 1.91786 0
M  V30 3791 N 364.77 2.79304 0.802346 0
M  V30 3792 H 364.317 2.57518 -0.0650788 0
M  V30 3793 H 364.275 2.66921 1.66134 0
M  V30 3794 N 368.047 0.979072 1.23499 0
M  V30 3795 C 369.463 0.687475 1.44034 0
M  V30 3796 C 369.663 -0.746801 1.8715 0
M  V30 3797 O 368.719 -1.51939 2.0167 0
M  V30 3798 C 370.032 1.68127 2.49307 0
M  V30 3799 C 371.58 1.69516 2.63122 0
M  V30 3800 C 372.055 2.67723 3.71603 0
M  V30 3801 N 373.546 2.66233 3.79044 0
M  V30 3802 C 374.281 3.38891 4.62537 0
M  V30 3803 N 373.777 4.21103 5.50131 0
M  V30 3804 N 375.57 3.27661 4.56721 0
M  V30 3805 H 367.721 1.90559 0.938135 0
M  V30 3806 H 369.984 0.821051 0.473897 0
M  V30 3807 H 369.69 2.70693 2.2454 0
M  V30 3808 H 369.564 1.46306 3.4767 0
M  V30 3809 H 371.951 0.676561 2.8724 0
M  V30 3810 H 372.032 1.95404 1.65079 0
M  V30 3811 H 371.676 3.69724 3.48233 0
M  V30 3812 H 371.606 2.39111 4.69184 0
M  V30 3813 H 374.097 2.06568 3.16446 0
M  V30 3814 H 374.41 4.73403 6.10827 0
M  V30 3815 H 372.755 4.25195 5.49759 0
M  V30 3816 H 375.946 2.62887 3.87309 0
M  V30 3817 H 376.119 3.84547 5.21562 0
M  V30 3818 N 369.525 -1.3858 0.750561 0
M  V30 3819 C 370.774 -1.99424 0.302172 0
M  V30 3820 C 371.087 -1.60254 -1.12152 0
M  V30 3821 O 372.293 -2.14046 -1.67023 0
M  V30 3822 C 370.749 -3.56558 0.489307 0
M  V30 3823 C 370.357 -4.04682 1.92189 0
M  V30 3824 C 372.101 -4.24374 0.103478 0
M  V30 3825 C 370.008 -5.54446 2.05775 0
M  V30 3826 H 368.938 -0.746046 0.10923 0
M  V30 3827 H 371.589 -1.58383 0.92667 0
M  V30 3828 H 369.971 -3.95472 -0.204329 0
M  V30 3829 H 371.145 -3.77065 2.64875 0
M  V30 3830 H 369.46 -3.4958 2.26236 0
M  V30 3831 H 372.057 -5.34384 0.183787 0
M  V30 3832 H 372.4 -4.05468 -0.943481 0
M  V30 3833 H 372.933 -3.90688 0.748854 0
M  V30 3834 H 369.672 -5.78252 3.08714 0
M  V30 3835 H 369.192 -5.83816 1.37546 0
M  V30 3836 H 370.871 -6.20099 1.84626 0
M  V30 3837 N 371.003 -0.499398 -1.49478 0
M  V30 3838 C 372.231 0.0425456 -2.06856 0
M  V30 3839 C 372.646 1.30964 -1.35992 0
M  V30 3840 O 372.003 1.77172 -0.437762 0
M  V30 3841 C 372.054 0.301735 -3.60239 0
M  V30 3842 O 371.775 -0.915127 -4.28436 0
M  V30 3843 C 373.276 0.887499 -4.34325 0
M  V30 3844 H 370.496 -0.0197482 -0.670709 0
M  V30 3845 H 373.04 -0.696297 -1.92281 0
M  V30 3846 H 371.195 0.990556 -3.74522 0
M  V30 3847 H 371.609 -0.676993 -5.20113 0
M  V30 3848 H 373.083 1.01845 -5.42523 0
M  V30 3849 H 373.56 1.88488 -3.96698 0
M  V30 3850 H 374.166 0.236196 -4.24644 0
M  V30 3851 N 372.481 1.55866 -0.233164 0
M  V30 3852 C 373.729 1.9821 0.394593 0
M  V30 3853 C 374.05 1.12234 1.59463 0
M  V30 3854 O 373.32 0.201981 1.94856 0
M  V30 3855 H 371.9 0.732034 0.148778 0
M  V30 3856 H 374.562 1.92107 -0.32876 0
M  V30 3857 H 373.658 3.03845 0.713063 0
M  V30 3858 N 373.959 -0.0401083 1.57549 0
M  V30 3859 C 374.889 -1.04384 2.08869 0
M  V30 3860 C 375.87 -1.38407 0.988817 0
M  V30 3861 O 377.055 -1.47483 1.26342 0
M  V30 3862 C 374.185 -2.34808 2.55895 0
M  V30 3863 C 373.139 -2.15057 3.70047 0
M  V30 3864 C 372.465 -3.51145 4.03239 0
M  V30 3865 C 373.765 -1.54576 4.98902 0
M  V30 3866 H 375.459 -0.616666 2.92981 0
M  V30 3867 H 373.005 -0.295184 1.40942 0
M  V30 3868 H 374.958 -3.05346 2.90417 0
M  V30 3869 H 373.682 -2.79565 1.68853 0
M  V30 3870 H 372.341 -1.46954 3.35857 0
M  V30 3871 H 371.989 -3.93529 3.13279 0
M  V30 3872 H 371.689 -3.38758 4.80122 0
M  V30 3873 H 373.213 -4.23062 4.40285 0
M  V30 3874 H 374.627 -2.15017 5.31451 0
M  V30 3875 H 373.024 -1.52796 5.80322 0
M  V30 3876 H 374.094 -0.51039 4.82206 0
M  V30 3877 N 375.437 -1.54477 -0.31217 0
M  V30 3878 C 376.686 -1.72438 -1.04633 0
M  V30 3879 C 376.999 -0.511163 -1.88803 0
M  V30 3880 O 378.205 -0.572341 -2.65399 0
M  V30 3881 C 376.661 -3.05043 -1.9099 0
M  V30 3882 C 376.269 -4.33806 -1.11877 0
M  V30 3883 C 378.013 -3.32364 -2.64073 0
M  V30 3884 C 375.92 -5.57467 -1.97445 0
M  V30 3885 H 374.85 -0.642647 -0.394361 0
M  V30 3886 H 377.501 -1.80966 -0.303929 0
M  V30 3887 H 375.883 -2.90451 -2.69173 0
M  V30 3888 H 377.057 -4.59199 -0.383843 0
M  V30 3889 H 375.372 -4.13336 -0.504252 0
M  V30 3890 H 377.969 -4.21951 -3.28423 0
M  V30 3891 H 378.312 -2.50745 -3.32314 0
M  V30 3892 H 378.845 -3.47875 -1.92944 0
M  V30 3893 H 375.584 -6.41722 -1.33692 0
M  V30 3894 H 375.104 -5.36277 -2.6864 0
M  V30 3895 H 376.783 -5.94303 -2.5576 0
M  V30 3896 N 376.915 0.57481 -1.46744 0
M  V30 3897 C 378.143 1.35856 -1.56047 0
M  V30 3898 C 378.558 1.87691 -0.204365 0
M  V30 3899 O 377.915 1.64049 0.79963 0
M  V30 3900 C 377.966 2.54066 -2.57163 0
M  V30 3901 O 377.687 2.04377 -3.87507 0
M  V30 3902 C 379.188 3.46514 -2.76483 0
M  V30 3903 H 376.408 0.414754 -0.527466 0
M  V30 3904 H 378.952 0.698035 -1.92218 0
M  V30 3905 H 377.107 3.16092 -2.23974 0
M  V30 3906 H 377.521 2.81419 -4.4261 0
M  V30 3907 H 378.995 4.25919 -3.51137 0
M  V30 3908 H 379.472 3.98951 -1.83671 0
M  V30 3909 H 380.078 2.90318 -3.10799 0
M  V30 3910 N 378.394 1.34581 0.820102 0
M  V30 3911 C 379.641 1.27096 1.57648 0
M  V30 3912 C 379.969 -0.158317 1.93855 0
M  V30 3913 O 379.224 -1.12028 1.60463 0
M  V30 3914 C 379.523 2.10997 2.8847 0
M  V30 3915 C 379.189 3.59966 2.71543 0
M  V30 3916 C 377.851 4.00575 2.66634 0
M  V30 3917 C 380.203 4.54548 2.55021 0
M  V30 3918 C 377.531 5.33953 2.43128 0
M  V30 3919 C 379.883 5.88109 2.33047 0
M  V30 3920 C 378.547 6.27878 2.26552 0
M  V30 3921 H 377.817 0.465078 0.576874 0
M  V30 3922 H 380.464 1.6635 0.948671 0
M  V30 3923 H 378.769 1.6458 3.55557 0
M  V30 3924 H 380.466 2.0255 3.46084 0
M  V30 3925 H 377.056 3.27733 2.76205 0
M  V30 3926 H 381.24 4.24069 2.57835 0
M  V30 3927 H 376.496 5.63781 2.3656 0
M  V30 3928 H 380.67 6.60985 2.19251 0
M  V30 3929 H 378.297 7.31162 2.081 0
M  V30 3930 N 379.872 -1.04064 1.18357 0
M  V30 3931 C 381.283 -1.58719 0.98312 0
M  V30 3932 C 381.634 -1.90556 -0.467193 0
M  V30 3933 O 380.759 -1.69561 -1.34454 0
M  V30 3934 C 381.354 -2.88379 1.77828 0
M  V30 3935 C 379.913 -3.3965 1.62218 0
M  V30 3936 C 379.06 -2.13235 1.77274 0
M  V30 3937 H 382.011 -0.867359 1.32901 0
M  V30 3938 H 382.032 -3.58773 1.26737 0
M  V30 3939 H 381.544 -2.65176 2.83379 0
M  V30 3940 H 379.645 -3.67866 0.592036 0
M  V30 3941 H 379.758 -4.13475 2.42023 0
M  V30 3942 H 378.122 -2.24542 1.20221 0
M  V30 3943 H 378.905 -1.92487 2.8426 0
M  V30 3944 N 381.35 -0.985608 -1.22978 0
M  V30 3945 C 382.578 -0.675582 -1.95559 0
M  V30 3946 C 382.993 0.758413 -1.72897 0
M  V30 3947 O 382.35 1.51094 -1.02357 0
M  V30 3948 C 382.401 -0.96293 -3.48439 0
M  V30 3949 O 382.122 -2.34057 -3.70336 0
M  V30 3950 C 383.623 -0.669585 -4.38214 0
M  V30 3951 H 380.843 -0.250523 -0.622478 0
M  V30 3952 H 383.387 -1.3184 -1.56328 0
M  V30 3953 H 381.542 -0.366033 -3.85667 0
M  V30 3954 H 381.956 -2.43424 -4.64591 0
M  V30 3955 H 383.43 -0.920967 -5.44263 0
M  V30 3956 H 383.907 0.396383 -4.37408 0
M  V30 3957 H 384.513 -1.2472 -4.06602 0
M  V30 3958 N 382.828 1.3818 -0.7579 0
M  V30 3959 C 383.776 2.32277 -0.122482 0
M  V30 3960 C 384.77 1.54238 0.700505 0
M  V30 3961 O 385.976 1.69737 0.599119 0
M  V30 3962 H 382.351 0.751712 -0.0208143 0
M  V30 3963 H 384.322 2.83469 -0.932099 0
M  V30 3964 C 383.071 3.39447 0.753076 0
M  V30 3965 H 382.394 3.99591 0.129184 0
M  V30 3966 H 383.834 4.07684 1.16489 0
M  V30 3967 C 382.293 2.78375 1.8976 0
M  V30 3968 O 382.823 2.68025 2.99208 0
M  V30 3969 N 381.029 2.36121 1.69397 0
M  V30 3970 H 380.576 2.4474 0.803762 0
M  V30 3971 H 380.534 1.95602 2.46145 0
M  V30 3972 N 384.306 0.507319 1.49211 0
M  V30 3973 C 385.253 -0.267728 2.29242 0
M  V30 3974 C 386.223 -0.954609 1.35928 0
M  V30 3975 O 387.408 -0.960046 1.64887 0
M  V30 3976 C 384.548 -1.32243 3.18756 0
M  V30 3977 C 383.661 -0.64669 4.27132 0
M  V30 3978 C 382.796 -1.68238 5.03855 0
M  V30 3979 C 381.835 -0.98885 6.0406 0
M  V30 3980 N 380.972 -1.96903 6.73924 0
M  V30 3981 H 385.812 0.420968 2.95012 0
M  V30 3982 H 383.349 0.219443 1.45454 0
M  V30 3983 H 385.307 -1.94599 3.69036 0
M  V30 3984 H 383.937 -1.97981 2.54958 0
M  V30 3985 H 382.989 0.0902926 3.80293 0
M  V30 3986 H 384.301 -0.101058 4.98698 0
M  V30 3987 H 383.455 -2.38081 5.58034 0
M  V30 3988 H 382.194 -2.26187 4.32077 0
M  V30 3989 H 381.199 -0.276222 5.49106 0
M  V30 3990 H 382.424 -0.415767 6.77826 0
M  V30 3991 H 380.37 -2.53803 6.04913 0
M  V30 3992 H 380.287 -1.47423 7.41487 0
M  V30 3993 H 381.555 -2.66015 7.32705 0
M  V30 3994 N 385.784 -1.5574 0.241426 0
M  V30 3995 C 387.032 -1.98417 -0.384075 0
M  V30 3996 C 387.353 -1.13078 -1.58866 0
M  V30 3997 O 386.623 -0.212312 -1.94746 0
M  V30 3998 H 385.203 -0.732813 -0.144894 0
M  V30 3999 H 387.865 -1.9193 0.338943 0
M  V30 4000 H 386.961 -3.04219 -0.696939 0
M  V30 4001 N 387.262 0.0317525 -1.57568 0
M  V30 4002 C 388.539 0.758366 -1.803 0
M  V30 4003 C 388.919 1.93718 -0.838845 0
M  V30 4004 O 388.267 2.28187 0.119571 0
M  V30 4005 C 388.477 1.19392 -3.27943 0
M  V30 4006 C 389.825 1.61094 -3.92854 0
M  V30 4007 O 390.849 1.28857 -3.32076 0
M  V30 4008 O 389.708 2.20918 -4.99858 0
M  V30 4009 H 386.802 0.366514 -0.741348 0
M  V30 4010 H 389.348 0.00873765 -1.69698 0
M  V30 4011 H 388.12 0.352275 -3.89711 0
M  V30 4012 H 387.743 2.00365 -3.43424 0
M  V30 4013 N 388.74 1.54641 0.303973 0
M  V30 4014 C 389.988 1.73437 1.0375 0
M  V30 4015 C 390.309 0.521449 1.87899 0
M  V30 4016 O 389.579 -0.46432 1.90318 0
M  V30 4017 H 388.159 0.639518 0.386039 0
M  V30 4018 H 390.821 1.91988 0.335675 0
M  V30 4019 H 389.917 2.62235 1.69231 0
M  V30 4020 N 390.218 -0.567019 1.47046 0
M  V30 4021 C 391.464 -1.32434 1.54379 0
M  V30 4022 C 391.819 -1.91365 0.199276 0
M  V30 4023 O 391.112 -1.74378 -0.793915 0
M  V30 4024 C 391.306 -2.4623 2.59047 0
M  V30 4025 C 391.135 -1.98448 4.03545 0
M  V30 4026 C 389.905 -1.82741 4.71098 0
M  V30 4027 C 392.103 -1.53477 4.90866 0
M  V30 4028 N 390.085 -1.29196 6.00151 0
M  V30 4029 C 391.456 -1.1163 6.09868 0
M  V30 4030 C 393.511 -1.41438 4.77388 0
M  V30 4031 C 392.214 -0.589425 7.16881 0
M  V30 4032 C 394.24 -0.901528 5.84488 0
M  V30 4033 C 393.602 -0.492932 7.02673 0
M  V30 4034 H 389.701 -0.477005 0.61967 0
M  V30 4035 H 392.285 -0.643856 1.83746 0
M  V30 4036 H 390.456 -3.11821 2.31564 0
M  V30 4037 H 392.188 -3.13213 2.56281 0
M  V30 4038 H 388.943 -2.05162 4.26855 0
M  V30 4039 H 389.367 -1.0454 6.6888 0
M  V30 4040 H 394.009 -1.71643 3.86392 0
M  V30 4041 H 391.727 -0.274994 8.07632 0
M  V30 4042 H 395.313 -0.812071 5.76105 0
M  V30 4043 H 394.193 -0.102227 7.84133 0
M  V30 4044 N 391.696 -1.35014 -0.812953 0
M  V30 4045 C 392.606 -1.2951 -1.95613 0
M  V30 4046 C 393.622 -0.20107 -1.72834 0
M  V30 4047 O 394.798 -0.42932 -1.96771 0
M  V30 4048 C 391.863 -1.06033 -3.30088 0
M  V30 4049 C 390.924 -2.24688 -3.65805 0
M  V30 4050 C 390.157 -2.02322 -4.93864 0
M  V30 4051 O 390.38 -0.986464 -5.61805 0
M  V30 4052 O 389.314 -2.89525 -5.27692 0
M  V30 4053 H 393.14 -2.25705 -2.03202 0
M  V30 4054 H 390.725 -1.15321 -0.949811 0
M  V30 4055 H 392.607 -0.94763 -4.10607 0
M  V30 4056 H 391.282 -0.128852 -3.23443 0
M  V30 4057 H 390.189 -2.41521 -2.85689 0
M  V30 4058 H 391.522 -3.16261 -3.77147 0
M  V30 4059 N 393.175 1.03435 -1.18907 0
M  V30 4060 C 394.591 1.28973 -0.940111 0
M  V30 4061 C 394.791 1.97676 0.390691 0
M  V30 4062 O 393.847 2.26127 1.12352 0
M  V30 4063 C 395.16 2.14221 -2.11021 0
M  V30 4064 C 396.708 2.27547 -2.14922 0
M  V30 4065 C 397.183 3.16164 -3.31367 0
M  V30 4066 N 398.674 3.23752 -3.31269 0
M  V30 4067 C 399.409 3.92495 -4.18014 0
M  V30 4068 N 398.905 4.63515 -5.14904 0
M  V30 4069 N 400.698 3.88838 -4.05908 0
M  V30 4070 H 392.849 0.57252 -2.04538 0
M  V30 4071 H 395.112 0.315184 -0.894071 0
M  V30 4072 H 394.818 1.71054 -3.073 0
M  V30 4073 H 394.692 3.14919 -2.0762 0
M  V30 4074 H 397.079 2.69947 -1.19217 0
M  V30 4075 H 397.16 1.26418 -2.22378 0
M  V30 4076 H 396.804 2.74474 -4.27348 0
M  V30 4077 H 396.734 4.17339 -3.21148 0
M  V30 4078 H 399.225 2.73167 -2.61129 0
M  V30 4079 H 399.538 5.13583 -5.77453 0
M  V30 4080 H 397.883 4.62398 -5.18857 0
M  V30 4081 H 401.074 3.32491 -3.29495 0
M  V30 4082 H 401.247 4.4214 -4.73726 0
M  V30 4083 N 394.653 0.992116 1.22453 0
M  V30 4084 C 396.064 0.702776 1.72968 0
M  V30 4085 C 396.415 -0.780399 1.80012 0
M  V30 4086 O 395.54 -1.61007 1.44589 0
M  V30 4087 C 396.135 1.26903 3.14135 0
M  V30 4088 C 394.694 1.02909 3.62059 0
M  V30 4089 C 393.841 1.38969 2.39964 0
M  V30 4090 H 396.792 1.16457 1.07812 0
M  V30 4091 H 396.813 0.647223 3.74955 0
M  V30 4092 H 396.325 2.34851 3.08977 0
M  V30 4093 H 394.426 -0.0337979 3.72585 0
M  V30 4094 H 394.539 1.69191 4.48231 0
M  V30 4095 H 392.903 0.808279 2.41535 0
M  V30 4096 H 393.686 2.4792 2.37467 0
M  V30 4097 N 396.131 -1.37776 0.765217 0
M  V30 4098 C 397.38 -1.99092 0.323307 0
M  V30 4099 C 397.693 -1.61434 -1.10446 0
M  V30 4100 O 398.899 -2.15805 -1.64743 0
M  V30 4101 C 397.355 -3.56019 0.527098 0
M  V30 4102 C 396.963 -4.0262 1.96471 0
M  V30 4103 C 398.707 -4.2424 0.148483 0
M  V30 4104 C 396.614 -5.52233 2.11644 0
M  V30 4105 H 395.544 -0.744846 0.117137 0
M  V30 4106 H 398.195 -1.57391 0.943417 0
M  V30 4107 H 396.577 -3.95667 -0.162372 0
M  V30 4108 H 397.751 -3.74234 2.68859 0
M  V30 4109 H 396.066 -3.47161 2.29931 0
M  V30 4110 H 398.663 -5.34159 0.240456 0
M  V30 4111 H 399.006 -4.06446 -0.900422 0
M  V30 4112 H 399.539 -3.89872 0.79025 0
M  V30 4113 H 396.278 -5.74945 3.1483 0
M  V30 4114 H 395.798 -5.82324 1.4373 0
M  V30 4115 H 397.477 -6.18106 1.91193 0
M  V30 4116 N 397.609 -0.515225 -1.4894 0
M  V30 4117 C 398.539 0.244628 -2.32215 0
M  V30 4118 C 399.52 0.949136 -1.41157 0
M  V30 4119 O 400.705 0.937783 -1.70057 0
M  V30 4120 C 397.835 1.30096 -3.22013 0
M  V30 4121 C 396.789 0.715486 -4.21977 0
M  V30 4122 C 396.115 1.87339 -5.00808 0
M  V30 4123 C 397.415 -0.302982 -5.2142 0
M  V30 4124 H 399.109 -0.450501 -2.95991 0
M  V30 4125 H 396.655 -0.218098 -1.42339 0
M  V30 4126 H 398.608 1.84037 -3.79089 0
M  V30 4127 H 397.332 2.02547 -2.56207 0
M  V30 4128 H 395.991 0.197715 -3.66066 0
M  V30 4129 H 395.639 2.58592 -4.31438 0
M  V30 4130 H 395.339 1.48764 -5.68457 0
M  V30 4131 H 396.863 2.41686 -5.60732 0
M  V30 4132 H 398.277 0.148802 -5.73107 0
M  V30 4133 H 396.674 -0.60532 -5.97039 0
M  V30 4134 H 397.744 -1.21395 -4.69459 0
M  V30 4135 N 399.087 1.5561 -0.249682 0
M  V30 4136 C 400.035 2.22894 0.664906 0
M  V30 4137 C 401.029 1.21743 1.17792 0
M  V30 4138 O 402.235 1.39748 1.13449 0
M  V30 4139 H 398.61 0.715022 0.232912 0
M  V30 4140 H 400.581 2.98307 0.0742998 0
M  V30 4141 C 399.33 2.94424 1.84959 0
M  V30 4142 H 398.653 3.72031 1.46399 0
M  V30 4143 H 400.093 3.44862 2.4667 0
M  V30 4144 C 398.552 1.98454 2.72245 0
M  V30 4145 O 399.082 1.51939 3.71857 0
M  V30 4146 N 397.288 1.65496 2.38871 0
M  V30 4147 H 396.835 2.03517 1.57919 0
M  V30 4148 H 396.793 1.0155 2.97548 0
M  V30 4149 N 400.565 -0.0233959 1.57583 0
M  V30 4150 C 401.842 -0.748794 1.807 0
M  V30 4151 C 402.222 -1.9327 0.849106 0
M  V30 4152 O 401.57 -2.28247 -0.107468 0
M  V30 4153 C 401.78 -1.17651 3.28571 0
M  V30 4154 C 403.128 -1.59008 3.93702 0
M  V30 4155 O 404.152 -1.27094 3.32755 0
M  V30 4156 O 403.011 -2.18264 5.01022 0
M  V30 4157 H 400.105 -0.362578 0.743281 0
M  V30 4158 H 402.651 0.000261958 1.697 0
M  V30 4159 H 401.423 -0.331603 3.89892 0
M  V30 4160 H 401.046 -1.98541 3.44481 0
M  V30 4161 N 402.043 -1.548 -0.295768 0
M  V30 4162 C 403.268 -1.78653 -1.05346 0
M  V30 4163 C 403.693 -0.546894 -1.79974 0
M  V30 4164 O 403.051 0.502763 -1.7419 0
M  V30 4165 C 403.099 -2.99679 -2.00561 0
M  V30 4166 O 402.203 -2.7317 -3.08953 0
M  V30 4167 H 401.544 -0.59116 -0.302367 0
M  V30 4168 H 404.074 -2.01895 -0.331598 0
M  V30 4169 H 404.084 -3.27793 -2.42932 0
M  V30 4170 H 402.759 -3.89562 -1.4565 0
M  V30 4171 H 401.336 -2.56089 -2.71059 0
M  V30 4172 N 403.521 0.559213 -1.47345 0
M  V30 4173 C 404.468 1.66645 -1.59682 0
M  V30 4174 C 405.438 1.60168 -0.43994 0
M  V30 4175 O 406.623 1.79031 -0.659736 0
M  V30 4176 C 403.763 3.04969 -1.61518 0
M  V30 4177 C 402.876 3.21897 -2.88108 0
M  V30 4178 C 402.011 4.50608 -2.81294 0
M  V30 4179 C 401.05 4.60961 -4.02717 0
M  V30 4180 N 400.187 5.81024 -3.94151 0
M  V30 4181 H 405.027 1.55439 -2.54249 0
M  V30 4182 H 402.564 0.757219 -1.26113 0
M  V30 4183 H 404.522 3.85064 -1.60566 0
M  V30 4184 H 403.152 3.15015 -0.704645 0
M  V30 4185 H 402.204 2.35248 -2.98936 0
M  V30 4186 H 403.516 3.25412 -3.78032 0
M  V30 4187 H 402.67 5.3896 -2.7858 0
M  V30 4188 H 401.409 4.49568 -1.89049 0
M  V30 4189 H 400.414 3.71021 -4.05738 0
M  V30 4190 H 401.639 4.63761 -4.96087 0
M  V30 4191 H 399.585 5.80938 -3.04708 0
M  V30 4192 H 399.502 5.85909 -4.77752 0
M  V30 4193 H 400.77 6.71744 -3.9545 0
M  V30 4194 N 404.999 1.35443 0.805782 0
M  V30 4195 C 406.248 1.28097 1.55801 0
M  V30 4196 C 406.561 -0.142428 1.95081 0
M  V30 4197 O 407.767 -0.33817 2.69386 0
M  V30 4198 C 406.223 2.24653 2.81174 0
M  V30 4199 C 405.831 3.72342 2.49129 0
M  V30 4200 C 407.575 2.2625 3.59181 0
M  V30 4201 C 405.482 4.60719 3.70799 0
M  V30 4202 H 404.412 0.475937 0.584808 0
M  V30 4203 H 407.063 1.60712 0.885661 0
M  V30 4204 H 405.445 1.85011 3.50124 0
M  V30 4205 H 406.619 4.20624 1.88181 0
M  V30 4206 H 404.934 3.73361 1.84366 0
M  V30 4207 H 407.531 2.89495 4.49552 0
M  V30 4208 H 407.874 1.26647 3.96568 0
M  V30 4209 H 408.407 2.64426 2.97193 0
M  V30 4210 H 405.146 5.61324 3.3852 0
M  V30 4211 H 404.666 4.17163 4.3097 0
M  V30 4212 H 406.345 4.76182 4.38018 0
M  V30 4213 N 406.477 -1.02803 1.19454 0
M  V30 4214 C 407.724 -1.76217 0.997693 0
M  V30 4215 C 408.052 -1.887 -0.47144 0
M  V30 4216 O 407.307 -1.4011 -1.3663 0
M  V30 4217 C 407.606 -3.18941 1.6128 0
M  V30 4218 C 407.272 -3.26463 3.11019 0
M  V30 4219 C 405.934 -3.28223 3.51885 0
M  V30 4220 C 408.286 -3.25542 4.07028 0
M  V30 4221 C 405.614 -3.26719 4.8731 0
M  V30 4222 C 407.966 -3.25579 5.42385 0
M  V30 4223 C 406.63 -3.25637 5.82681 0
M  V30 4224 H 405.9 -0.644823 0.365082 0
M  V30 4225 H 408.547 -1.20655 1.4871 0
M  V30 4226 H 406.852 -3.77587 1.04572 0
M  V30 4227 H 408.549 -3.74415 1.43577 0
M  V30 4228 H 405.139 -3.25822 2.78457 0
M  V30 4229 H 409.323 -3.23362 3.76498 0
M  V30 4230 H 404.579 -3.25089 5.1781 0
M  V30 4231 H 408.753 -3.23817 6.16535 0
M  V30 4232 H 406.38 -3.24226 6.87591 0
M  V30 4233 N 407.956 -0.998596 -1.21925 0
M  V30 4234 C 408.888 -0.511879 -2.23411 0
M  V30 4235 C 409.901 0.396094 -1.57908 0
M  V30 4236 O 411.09 0.197316 -1.77406 0
M  V30 4237 C 408.19 0.276802 -3.37768 0
M  V30 4238 C 407.363 -0.628687 -4.32858 0
M  V30 4239 C 406.422 0.109272 -5.26087 0
M  V30 4240 O 405.448 -0.507237 -5.66935 0
M  V30 4241 N 406.65 1.38983 -5.63617 0
M  V30 4242 H 409.415 -1.38457 -2.658 0
M  V30 4243 H 406.976 -0.873981 -1.36283 0
M  V30 4244 H 408.968 0.77928 -3.97126 0
M  V30 4245 H 407.538 1.05063 -2.94415 0
M  V30 4246 H 406.758 -1.31175 -3.71735 0
M  V30 4247 H 408.046 -1.24514 -4.93329 0
M  V30 4248 H 407.444 1.91194 -5.32411 0
M  V30 4249 H 406.001 1.83739 -6.25367 0
M  V30 4250 N 409.434 1.37368 -0.772513 0
M  V30 4251 C 410.664 2.03647 -0.348082 0
M  V30 4252 C 411.072 1.58392 1.03482 0
M  V30 4253 O 410.415 0.760921 1.672 0
M  V30 4254 C 410.477 3.58131 -0.313404 0
M  V30 4255 C 410.141 4.2652 -1.64102 0
M  V30 4256 C 411.138 4.50587 -2.5936 0
M  V30 4257 C 408.823 4.64335 -1.91567 0
M  V30 4258 C 410.817 5.11526 -3.80289 0
M  V30 4259 C 408.504 5.24996 -3.12766 0
M  V30 4260 C 409.502 5.48529 -4.06946 0
M  V30 4261 O 409.19 6.07921 -5.26011 0
M  V30 4262 H 408.922 0.660538 -0.143753 0
M  V30 4263 H 411.476 1.76669 -1.04772 0
M  V30 4264 H 409.706 3.84159 0.442617 0
M  V30 4265 H 411.395 4.05813 0.0840613 0
M  V30 4266 H 412.161 4.21784 -2.39423 0
M  V30 4267 H 408.04 4.45353 -1.19088 0
M  V30 4268 H 411.584 5.29811 -4.53813 0
M  V30 4269 H 407.481 5.53223 -3.32588 0
M  V30 4270 H 408.249 6.26398 -5.26847 0
M  V30 4271 N 410.912 0.523116 1.48665 0
M  V30 4272 C 412.16 -0.0134497 2.02096 0
M  V30 4273 C 412.481 -1.35418 1.40311 0
M  V30 4274 O 411.751 -1.87543 0.566074 0
M  V30 4275 H 410.331 -0.00795915 0.746958 0
M  V30 4276 H 412.993 0.685388 1.82451 0
M  V30 4277 H 412.089 -0.126849 3.11842 0
M  V30 4278 N 412.39 -1.55475 0.257931 0
M  V30 4279 C 413.667 -1.91155 -0.414629 0
M  V30 4280 C 414.047 -1.18008 -1.75035 0
M  V30 4281 O 413.395 -0.301193 -2.26506 0
M  V30 4282 C 413.605 -3.44283 -0.571859 0
M  V30 4283 C 414.953 -4.15744 -0.862678 0
M  V30 4284 O 415.977 -3.50083 -0.657314 0
M  V30 4285 O 414.836 -5.31909 -1.2544 0
M  V30 4286 H 411.93 -0.796016 -0.22425 0
M  V30 4287 H 414.476 -1.66976 0.302814 0
M  V30 4288 H 413.248 -3.89558 0.368844 0
M  V30 4289 H 412.871 -3.7436 -1.33943 0
M  V30 4290 N 413.868 0.0150385 -1.57593 0
M  V30 4291 C 414.831 0.995996 -2.06428 0
M  V30 4292 C 415.831 1.2818 -0.970903 0
M  V30 4293 O 417.021 1.22949 -1.23406 0
M  V30 4294 C 414.153 2.32506 -2.49307 0
M  V30 4295 H 415.346 0.573873 -2.94358 0
M  V30 4296 H 412.899 0.262186 -1.54085 0
M  V30 4297 H 413.634 2.79438 -1.64575 0
M  V30 4298 H 413.419 2.13087 -3.29145 0
M  V30 4299 H 414.909 3.02906 -2.87468 0
M  V30 4300 N 415.346 1.54954 0.287554 0
M  V30 4301 C 416.276 1.89839 1.35954 0
M  V30 4302 C 417.257 0.758675 1.52244 0
M  V30 4303 O 418.442 1.01557 1.65529 0
M  V30 4304 C 415.572 2.15753 2.72154 0
M  V30 4305 C 414.526 3.3159 2.70614 0
M  V30 4306 C 413.852 3.42952 4.10229 0
M  V30 4307 C 415.152 4.68359 2.31165 0
M  V30 4308 H 416.846 2.79625 1.07007 0
M  V30 4309 H 414.392 1.3454 0.513316 0
M  V30 4310 H 416.345 2.38743 3.47246 0
M  V30 4311 H 415.069 1.22752 3.02654 0
M  V30 4312 H 413.728 3.08545 1.97979 0
M  V30 4313 H 413.376 2.47443 4.37928 0
M  V30 4314 H 413.076 4.20826 4.10097 0
M  V30 4315 H 414.6 3.68218 4.87081 0
M  V30 4316 H 416.014 4.9099 2.95976 0
M  V30 4317 H 414.411 5.49044 2.42221 0
M  V30 4318 H 415.481 4.68165 1.26291 0
M  V30 4319 N 416.824 -0.551391 1.4764 0
M  V30 4320 C 417.787 -1.64007 1.60107 0
M  V30 4321 C 418.787 -1.53601 0.47576 0
M  V30 4322 O 419.977 -1.57655 0.740988 0
M  V30 4323 C 417.109 -3.03569 1.55108 0
M  V30 4324 H 418.302 -1.543 2.57161 0
M  V30 4325 H 415.855 -0.771776 1.35917 0
M  V30 4326 H 416.59 -3.18804 0.594519 0
M  V30 4327 H 416.375 -3.12532 2.36783 0
M  V30 4328 H 417.865 -3.82762 1.66982 0
M  V30 4329 N 418.302 -1.35869 -0.798587 0
M  V30 4330 C 419.551 -1.28921 -1.5512 0
M  V30 4331 C 419.864 0.13208 -1.95154 0
M  V30 4332 O 421.07 0.323879 -2.69561 0
M  V30 4333 C 419.526 -2.26141 -2.79979 0
M  V30 4334 C 419.134 -3.73658 -2.47151 0
M  V30 4335 C 420.878 -2.28152 -3.57976 0
M  V30 4336 C 418.785 -4.62679 -3.6835 0
M  V30 4337 H 417.715 -0.479031 -0.582276 0
M  V30 4338 H 420.366 -1.61179 -0.877125 0
M  V30 4339 H 418.748 -1.86865 -3.49138 0
M  V30 4340 H 419.922 -4.21616 -1.85947 0
M  V30 4341 H 418.237 -3.74333 -1.82383 0
M  V30 4342 H 420.834 -2.91875 -4.4801 0
M  V30 4343 H 421.177 -1.28748 -3.95891 0
M  V30 4344 H 421.71 -2.65998 -2.95787 0
M  V30 4345 H 418.449 -5.63111 -3.35538 0
M  V30 4346 H 417.969 -4.19442 -4.28752 0
M  V30 4347 H 419.648 -4.78498 -4.35487 0
M  V30 4348 N 419.78 1.02168 -1.19998 0
M  V30 4349 C 421.026 1.75945 -1.00852 0
M  V30 4350 C 421.359 1.88702 0.458828 0
M  V30 4351 O 420.634 1.40911 1.34069 0
M  V30 4352 C 420.917 3.18154 -1.68671 0
M  V30 4353 C 420.77 3.13224 -3.22817 0
M  V30 4354 C 422.089 4.16711 -1.41561 0
M  V30 4355 H 419.208 0.638673 -0.367785 0
M  V30 4356 H 421.85 1.19222 -1.4794 0
M  V30 4357 H 420 3.66586 -1.28636 0
M  V30 4358 H 421.672 2.72635 -3.72112 0
M  V30 4359 H 419.915 2.50751 -3.53986 0
M  V30 4360 H 420.586 4.13728 -3.65422 0
M  V30 4361 H 423.062 3.76913 -1.76284 0
M  V30 4362 H 421.938 5.14391 -1.91553 0
M  V30 4363 H 422.199 4.40774 -0.342193 0
M  V30 4364 N 421.258 1.00505 1.21394 0
M  V30 4365 C 422.498 0.696149 1.9218 0
M  V30 4366 C 422.862 -0.759099 1.76357 0
M  V30 4367 O 424.063 -1.17998 2.41516 0
M  V30 4368 C 422.334 1.10571 3.39866 0
M  V30 4369 S 423.893 0.91702 4.29111 0
M  V30 4370 H 420.711 0.254147 0.664026 0
M  V30 4371 H 423.313 1.28988 1.46909 0
M  V30 4372 H 422.017 2.16096 3.489 0
M  V30 4373 H 421.548 0.504268 3.90155 0
M  V30 4374 H 423.563 -0.185855 4.95852 0
M  V30 4375 N 422.737 -1.36956 0.779787 0
M  V30 4376 C 423.7 -2.2851 0.177662 0
M  V30 4377 C 424.7 -1.48393 -0.619377 0
M  V30 4378 O 425.89 -1.68505 -0.441785 0
M  V30 4379 C 423.022 -3.32428 -0.755279 0
M  V30 4380 H 424.215 -2.83269 0.984823 0
M  V30 4381 H 421.768 -1.46358 0.548544 0
M  V30 4382 H 422.503 -2.82808 -1.58714 0
M  V30 4383 H 422.288 -3.91659 -0.185817 0
M  V30 4384 H 423.778 -4.00824 -1.17174 0
M  V30 4385 N 424.215 -0.530993 -1.48385 0
M  V30 4386 C 425.492 0.0671788 -1.95485 0
M  V30 4387 C 425.872 1.51191 -1.47324 0
M  V30 4388 O 425.22 2.17507 -0.700202 0
M  V30 4389 C 425.43 -0.0511206 -3.48963 0
M  V30 4390 C 426.778 0.107632 -4.24464 0
M  V30 4391 O 427.802 0.0226248 -3.56193 0
M  V30 4392 O 426.661 0.285972 -5.45751 0
M  V30 4393 H 423.755 0.0787365 -0.823243 0
M  V30 4394 H 426.301 -0.595662 -1.58902 0
M  V30 4395 H 425.073 -1.05747 -3.7674 0
M  V30 4396 H 424.696 0.650525 -3.92242 0
M  V30 4397 N 425.693 1.55336 -0.266172 0
M  V30 4398 C 426.918 2.04258 0.359661 0
M  V30 4399 C 427.343 1.14359 1.49344 0
M  V30 4400 O 426.701 0.140369 1.80756 0
M  V30 4401 C 426.749 3.50997 0.826635 0
M  V30 4402 O 425.853 3.64204 1.93466 0
M  V30 4403 H 425.194 0.659668 0.075727 0
M  V30 4404 H 427.724 2.00694 -0.39786 0
M  V30 4405 H 427.734 3.9219 1.12477 0
M  V30 4406 H 426.409 4.159 -0.00293032 0
M  V30 4407 H 424.986 3.34913 1.63974 0
M  V30 4408 N 427.171 -0.0066808 1.57599 0
M  V30 4409 C 428.081 -1.01671 2.11424 0
M  V30 4410 C 429.097 -1.38143 1.05795 0
M  V30 4411 O 430.273 -1.47011 1.37658 0
M  V30 4412 C 427.338 -2.29192 2.60139 0
M  V30 4413 C 426.399 -1.99094 3.80342 0
M  V30 4414 C 425.632 -3.20535 4.26724 0
M  V30 4415 O 425.855 -4.3199 3.72479 0
M  V30 4416 O 424.789 -3.04924 5.18946 0
M  V30 4417 H 428.615 -0.589181 2.9793 0
M  V30 4418 H 426.2 -0.225091 1.47695 0
M  V30 4419 H 428.082 -3.0412 2.917 0
M  V30 4420 H 426.757 -2.71195 1.76733 0
M  V30 4421 H 425.664 -1.21663 3.53764 0
M  V30 4422 H 426.997 -1.61931 4.648 0
M  V30 4423 N 428.649 -1.55105 -0.279332 0
M  V30 4424 C 429.612 -1.86783 -1.32834 0
M  V30 4425 C 430.612 -0.74199 -1.42657 0
M  V30 4426 O 431.802 -1.0102 -1.41918 0
M  V30 4427 C 428.934 -2.06746 -2.71052 0
M  V30 4428 H 430.127 -2.8055 -1.05979 0
M  V30 4429 H 427.68 -1.47499 -0.517087 0
M  V30 4430 H 428.415 -1.15339 -3.03097 0
M  V30 4431 H 428.2 -2.88711 -2.65309 0
M  V30 4432 H 429.69 -2.32549 -3.46858 0
M  V30 4433 N 430.127 0.543554 -1.4793 0
M  V30 4434 C 431.075 1.67039 -1.61866 0
M  V30 4435 C 432.069 1.62294 -0.48549 0
M  V30 4436 O 433.275 1.67315 -0.66376 0
M  V30 4437 H 429.65 0.552954 -0.509652 0
M  V30 4438 H 431.621 1.52426 -2.56533 0
M  V30 4439 C 430.37 3.05357 -1.6629 0
M  V30 4440 H 429.693 3.09696 -2.5284 0
M  V30 4441 H 431.133 3.83855 -1.80088 0
M  V30 4442 C 429.592 3.34531 -0.398861 0
M  V30 4443 O 430.122 3.98649 0.494162 0
M  V30 4444 N 428.328 2.89299 -0.2747 0
M  V30 4445 H 427.875 2.37298 -1.00236 0
M  V30 4446 H 427.833 3.09188 0.570075 0
M  V30 4447 N 431.605 1.3629 0.791371 0
M  V30 4448 C 432.568 1.30309 1.88553 0
M  V30 4449 C 433.568 0.211204 1.59407 0
M  V30 4450 O 434.758 0.465865 1.67855 0
M  V30 4451 C 431.89 1.01956 3.25297 0
M  V30 4452 H 433.083 2.27614 1.95273 0
M  V30 4453 H 430.636 1.21035 0.988953 0
M  V30 4454 H 431.371 0.050998 3.2426 0
M  V30 4455 H 431.156 1.80968 3.4784 0
M  V30 4456 H 432.646 1.0037 4.05359 0
M  V30 4457 N 433.083 -1.0153 1.20538 0
M  V30 4458 C 434.499 -1.27461 0.96051 0
M  V30 4459 C 434.699 -1.98273 -0.359193 0
M  V30 4460 O 433.755 -2.27886 -1.0874 0
M  V30 4461 C 435.068 -2.10837 2.14402 0
M  V30 4462 C 436.616 -2.24099 2.18515 0
M  V30 4463 C 437.091 -3.10852 3.36355 0
M  V30 4464 N 438.582 -3.18441 3.36377 0
M  V30 4465 C 439.317 -3.85795 4.24205 0
M  V30 4466 N 438.813 -4.55264 5.22213 0
M  V30 4467 N 440.606 -3.82331 4.12043 0
M  V30 4468 H 432.757 -0.539907 2.05423 0
M  V30 4469 H 435.02 -0.30092 0.898972 0
M  V30 4470 H 434.726 -1.66144 3.09983 0
M  V30 4471 H 434.6 -3.11576 2.12604 0
M  V30 4472 H 436.987 -2.68016 1.23497 0
M  V30 4473 H 437.068 -1.22865 2.24361 0
M  V30 4474 H 436.712 -2.6764 4.31661 0
M  V30 4475 H 436.642 -4.12177 3.27746 0
M  V30 4476 H 439.133 -2.68978 2.65442 0
M  V30 4477 H 439.446 -5.04331 5.85551 0
M  V30 4478 H 437.791 -4.54085 5.26148 0
M  V30 4479 H 440.982 -3.27207 3.34743 0
M  V30 4480 H 441.155 -4.34547 4.807 0
M  V30 4481 N 434.561 -1.01147 -1.20859 0
M  V30 4482 C 435.524 -0.582224 -2.21682 0
M  V30 4483 C 436.524 0.344887 -1.57058 0
M  V30 4484 O 437.714 0.134281 -1.73682 0
M  V30 4485 C 434.846 0.150496 -3.40568 0
M  V30 4486 H 436.039 -1.47408 -2.61172 0
M  V30 4487 H 433.592 -0.800695 -1.34233 0
M  V30 4488 H 434.327 1.0575 -3.06574 0
M  V30 4489 H 434.112 -0.515444 -3.88697 0
M  V30 4490 H 435.602 0.438344 -4.15293 0
M  V30 4491 N 436.039 1.36541 -0.78704 0
M  V30 4492 C 437.002 2.28413 -0.189778 0
M  V30 4493 C 438.002 1.48719 0.611499 0
M  V30 4494 O 439.192 1.68737 0.432842 0
M  V30 4495 C 436.324 3.32824 0.737638 0
M  V30 4496 H 437.517 2.82743 -0.999831 0
M  V30 4497 H 435.07 1.46065 -0.556298 0
M  V30 4498 H 435.805 2.83646 1.57212 0
M  V30 4499 H 435.59 3.91752 0.165044 0
M  V30 4500 H 437.08 4.0144 1.15047 0
M  V30 4501 N 437.518 0.538854 1.48102 0
M  V30 4502 C 438.481 -0.208395 2.28251 0
M  V30 4503 C 439.481 -0.859656 1.35892 0
M  V30 4504 O 440.671 -0.71834 1.58699 0
M  V30 4505 C 437.803 -1.30252 3.15035 0
M  V30 4506 H 438.996 0.495407 2.9578 0
M  V30 4507 H 436.549 0.295112 1.53489 0
M  V30 4508 H 437.284 -2.0393 2.52157 0
M  V30 4509 H 437.069 -0.840551 3.82985 0
M  V30 4510 H 438.559 -1.82787 3.75471 0
M  V30 4511 N 438.996 -1.55193 0.274407 0
M  V30 4512 C 439.906 -2.26164 -0.623473 0
M  V30 4513 C 440.922 -1.28729 -1.17068 0
M  V30 4514 O 442.098 -1.61663 -1.20112 0
M  V30 4515 C 439.163 -2.96833 -1.7914 0
M  V30 4516 C 438.224 -4.09745 -1.28093 0
M  V30 4517 C 437.457 -4.77034 -2.3932 0
M  V30 4518 O 437.68 -4.4353 -3.5866 0
M  V30 4519 O 436.614 -5.64996 -2.07516 0
M  V30 4520 H 440.44 -3.03661 -0.0485661 0
M  V30 4521 H 438.025 -1.49341 0.0418382 0
M  V30 4522 H 439.907 -3.41248 -2.4724 0
M  V30 4523 H 438.582 -2.22253 -2.35341 0
M  V30 4524 H 437.489 -3.69787 -0.566416 0
M  V30 4525 H 438.822 -4.86224 -0.764683 0
M  V30 4526 N 440.474 -0.00167713 -1.576 0
M  V30 4527 C 441.421 0.989195 -2.08527 0
M  V30 4528 C 442.391 1.34031 -0.981065 0
M  V30 4529 O 443.576 1.43839 -1.2536 0
M  V30 4530 C 440.716 2.27537 -2.59463 0
M  V30 4531 C 439.829 1.98314 -3.83791 0
M  V30 4532 C 438.964 3.21025 -4.23222 0
M  V30 4533 C 438.003 2.87495 -5.40382 0
M  V30 4534 N 437.14 4.02749 -5.75098 0
M  V30 4535 H 441.98 0.547973 -2.92919 0
M  V30 4536 H 439.517 0.258917 -1.44803 0
M  V30 4537 H 441.475 3.02729 -2.87073 0
M  V30 4538 H 440.105 2.69325 -1.77943 0
M  V30 4539 H 439.157 1.13482 -3.63078 0
M  V30 4540 H 440.469 1.69601 -4.69081 0
M  V30 4541 H 439.623 4.04561 -4.52123 0
M  V30 4542 H 438.362 3.52877 -3.36644 0
M  V30 4543 H 437.367 2.02367 -5.11202 0
M  V30 4544 H 438.592 2.56889 -6.28637 0
M  V30 4545 H 436.538 4.34494 -4.91478 0
M  V30 4546 H 436.455 3.77566 -6.54966 0
M  V30 4547 H 437.723 4.87068 -6.08592 0
M  V30 4548 N 441.952 1.55251 0.271103 0
M  V30 4549 C 443.198 1.76207 1.00394 0
M  V30 4550 C 443.531 0.562604 1.85872 0
M  V30 4551 O 442.806 -0.439785 1.89463 0
M  V30 4552 C 443.089 3.06828 1.8849 0
M  V30 4553 C 442.942 4.37134 1.05992 0
M  V30 4554 C 444.261 3.33503 2.87165 0
M  V30 4555 H 441.38 0.641086 0.363562 0
M  V30 4556 H 444.022 1.87982 0.276189 0
M  V30 4557 H 442.172 2.96921 2.5054 0
M  V30 4558 H 443.844 4.59001 0.459978 0
M  V30 4559 H 442.087 4.32275 0.363443 0
M  V30 4560 H 442.758 5.2486 1.70955 0
M  V30 4561 H 445.234 3.43215 2.3525 0
M  V30 4562 H 444.11 4.2616 3.45946 0
M  V30 4563 H 444.371 2.53235 3.62387 0
M  V30 4564 N 443.43 -0.535701 1.48216 0
M  V30 4565 C 444.377 -1.64083 1.62312 0
M  V30 4566 C 445.347 -1.59448 0.465365 0
M  V30 4567 O 446.532 -1.77959 0.688135 0
M  V30 4568 C 443.672 -3.0236 1.66349 0
M  V30 4569 C 442.785 -3.17273 2.93193 0
M  V30 4570 C 441.92 -4.46075 2.88427 0
M  V30 4571 C 440.959 -4.54496 4.1 0
M  V30 4572 N 440.096 -5.7468 4.03345 0
M  V30 4573 H 444.936 -1.51374 2.5669 0
M  V30 4574 H 442.473 -0.737059 1.27302 0
M  V30 4575 H 444.431 -3.82461 1.66672 0
M  V30 4576 H 443.061 -3.13854 0.754672 0
M  V30 4577 H 442.113 -2.30462 3.02641 0
M  V30 4578 H 443.425 -3.19357 3.83162 0
M  V30 4579 H 442.579 -5.3446 2.87119 0
M  V30 4580 H 441.318 -4.46504 1.96177 0
M  V30 4581 H 440.323 -3.64519 4.11589 0
M  V30 4582 H 441.548 -4.5581 5.03402 0
M  V30 4583 H 439.494 -5.76017 3.13912 0
M  V30 4584 H 439.411 -5.78234 4.87013 0
M  V30 4585 H 440.679 -6.65367 4.06087 0
M  V30 4586 N 444.908 -1.36708 -0.784132 0
M  V30 4587 C 446.155 -1.31231 -1.54222 0
M  V30 4588 C 446.483 0.106864 -1.94206 0
M  V30 4589 O 445.738 1.07734 -1.63376 0
M  V30 4590 C 446.037 -2.18571 -2.82774 0
M  V30 4591 C 445.703 -3.67039 -2.61903 0
M  V30 4592 C 444.365 -4.07503 -2.55919 0
M  V30 4593 C 446.717 -4.61149 -2.4288 0
M  V30 4594 C 444.045 -5.40211 -2.28886 0
M  V30 4595 C 446.397 -5.94081 -2.17373 0
M  V30 4596 C 445.061 -6.33664 -2.09825 0
M  V30 4597 H 444.331 -0.48021 -0.56434 0
M  V30 4598 H 446.978 -1.68807 -0.904233 0
M  V30 4599 H 445.283 -1.73949 -3.51068 0
M  V30 4600 H 446.98 -2.11655 -3.40592 0
M  V30 4601 H 443.57 -3.34941 -2.67418 0
M  V30 4602 H 447.754 -4.30756 -2.46501 0
M  V30 4603 H 443.01 -5.69855 -2.21529 0
M  V30 4604 H 447.184 -6.66566 -2.01649 0
M  V30 4605 H 444.811 -7.36423 -1.88641 0
M  V30 4606 N 446.386 1.0089 -1.21074 0
M  V30 4607 C 447.663 1.71834 -0.934469 0
M  V30 4608 C 448.043 2.0368 0.554753 0
M  V30 4609 O 447.391 1.70742 1.51854 0
M  V30 4610 C 447.601 2.98061 -1.8155 0
M  V30 4611 C 448.949 3.7117 -2.06199 0
M  V30 4612 O 449.973 3.08034 -1.78867 0
M  V30 4613 O 448.832 4.84721 -2.52404 0
M  V30 4614 H 445.926 0.749253 -0.35007 0
M  V30 4615 H 448.472 1.06668 -1.31985 0
M  V30 4616 H 447.244 2.70908 -2.82355 0
M  V30 4617 H 446.867 3.70968 -1.43068 0
M  V30 4618 N 447.864 1.01787 1.20321 0
M  V30 4619 C 448.794 0.609625 2.25401 0
M  V30 4620 C 449.775 -0.375951 1.65893 0
M  V30 4621 O 450.96 -0.261101 1.92437 0
M  V30 4622 C 448.09 -0.0515995 3.47262 0
M  V30 4623 C 447.044 0.855095 4.19371 0
M  V30 4624 C 446.37 0.0595757 5.34667 0
M  V30 4625 C 447.67 2.16374 4.75373 0
M  V30 4626 H 449.364 1.48803 2.59804 0
M  V30 4627 H 446.91 0.716934 1.24884 0
M  V30 4628 H 448.863 -0.348764 4.19954 0
M  V30 4629 H 447.587 -0.964726 3.12027 0
M  V30 4630 H 446.246 1.13628 3.48546 0
M  V30 4631 H 445.894 -0.85524 4.95676 0
M  V30 4632 H 445.594 0.663406 5.83843 0
M  V30 4633 H 447.118 -0.231105 6.10162 0
M  V30 4634 H 448.532 1.92885 5.39878 0
M  V30 4635 H 446.929 2.71853 5.34991 0
M  V30 4636 H 447.999 2.82589 3.94045 0
M  V30 4637 N 449.342 -1.36122 0.79427 0
M  V30 4638 C 450.252 -2.33769 0.197296 0
M  V30 4639 C 451.268 -1.61276 -0.653153 0
M  V30 4640 O 452.444 -1.9323 -0.5678 0
M  V30 4641 C 449.509 -3.40474 -0.654098 0
M  V30 4642 C 448.57 -4.28759 0.215411 0
M  V30 4643 C 447.803 -5.30368 -0.595443 0
M  V30 4644 O 448.026 -5.40211 -1.83107 0
M  V30 4645 O 446.96 -6.019 0.00721351 0
M  V30 4646 H 450.786 -2.86597 1.00478 0
M  V30 4647 H 448.371 -1.38676 0.555818 0
M  V30 4648 H 450.253 -4.05703 -1.13944 0
M  V30 4649 H 448.928 -2.89937 -1.43938 0
M  V30 4650 H 447.835 -3.66554 0.747615 0
M  V30 4651 H 449.168 -4.82661 0.964332 0
M  V30 4652 N 450.82 -0.546701 -1.47814 0
M  V30 4653 C 451.75 0.195317 -2.32682 0
M  V30 4654 C 452.731 0.918981 -1.43139 0
M  V30 4655 O 453.916 0.901501 -1.72008 0
M  V30 4656 C 451.046 1.23237 -3.247 0
M  V30 4657 C 450 0.625818 -4.234 0
M  V30 4658 C 449.326 1.76674 -5.04669 0
M  V30 4659 C 450.626 -0.413515 -5.2066 0
M  V30 4660 H 452.32 -0.513184 -2.94969 0
M  V30 4661 H 449.866 -0.248241 -1.41844 0
M  V30 4662 H 451.819 1.75955 -3.82907 0
M  V30 4663 H 450.543 1.97067 -2.60446 0
M  V30 4664 H 449.202 0.120023 -3.66403 0
M  V30 4665 H 448.85 2.49383 -4.36826 0
M  V30 4666 H 448.55 1.36673 -5.71484 0
M  V30 4667 H 450.074 2.29738 -5.65732 0
M  V30 4668 H 451.488 0.0272042 -5.73294 0
M  V30 4669 H 449.885 -0.731825 -5.95621 0
M  V30 4670 H 450.955 -1.31325 -4.66778 0
M  V30 4671 N 452.299 1.55045 -0.282633 0
M  V30 4672 C 453.229 2.2579 0.595066 0
M  V30 4673 C 454.21 1.25074 1.15284 0
M  V30 4674 O 455.395 1.5381 1.18559 0
M  V30 4675 C 452.525 2.98472 1.77572 0
M  V30 4676 C 451.479 4.0618 1.34914 0
M  V30 4677 C 450.805 4.66477 2.6135 0
M  V30 4678 C 452.105 5.1996 0.493821 0
M  V30 4679 H 453.799 2.994 0.00505653 0
M  V30 4680 H 451.345 1.44 0.000992001 0
M  V30 4681 H 453.298 3.46677 2.39568 0
M  V30 4682 H 452.022 2.2241 2.39168 0
M  V30 4683 H 450.681 3.58797 0.752338 0
M  V30 4684 H 450.329 3.87074 3.2122 0
M  V30 4685 H 450.029 5.39207 2.33516 0
M  V30 4686 H 451.553 5.17435 3.24181 0
M  V30 4687 H 452.967 5.64172 1.01898 0
M  V30 4688 H 451.364 5.99299 0.310047 0
M  V30 4689 H 452.434 4.82462 -0.485593 0
M  V30 4690 N 453.777 0.010035 1.57597 0
M  V30 4691 C 455.188 -0.531426 1.78977 0
M  V30 4692 C 455.539 -1.73375 0.918454 0
M  V30 4693 O 454.664 -2.16047 0.123635 0
M  V30 4694 C 455.259 -0.97086 3.24592 0
M  V30 4695 C 453.818 -1.45756 3.47033 0
M  V30 4696 C 452.965 -0.413384 2.74201 0
M  V30 4697 H 455.916 0.236166 1.56933 0
M  V30 4698 H 455.937 -1.83633 3.33255 0
M  V30 4699 H 455.449 -0.0955893 3.87982 0
M  V30 4700 H 453.55 -2.35339 2.88871 0
M  V30 4701 H 453.663 -1.4781 4.55729 0
M  V30 4702 H 452.027 -0.877266 2.39115 0
M  V30 4703 H 452.81 0.453092 3.40297 0
M  V30 4704 N 455.255 -1.55392 -0.262866 0
M  V30 4705 C 456.165 -1.92077 -1.34698 0
M  V30 4706 C 457.181 -0.819227 -1.53508 0
M  V30 4707 O 458.357 -1.11921 -1.67439 0
M  V30 4708 C 455.422 -2.19407 -2.68443 0
M  V30 4709 C 454.483 -3.42905 -2.58292 0
M  V30 4710 C 453.716 -3.68921 -3.85659 0
M  V30 4711 O 453.939 -2.97275 -4.8681 0
M  V30 4712 O 452.873 -4.62455 -3.85252 0
M  V30 4713 H 456.699 -2.84384 -1.06581 0
M  V30 4714 H 454.284 -1.42069 -0.462264 0
M  V30 4715 H 456.166 -2.38365 -3.47506 0
M  V30 4716 H 454.841 -1.30282 -2.96325 0
M  V30 4717 H 453.748 -3.29272 -1.7757 0
M  V30 4718 H 455.081 -4.32282 -2.35358 0
M  V30 4719 N 456.733 0.527833 -1.48498 0
M  V30 4720 C 457.963 1.30633 -1.60058 0
M  V30 4721 C 458.371 1.87394 -0.260786 0
M  V30 4722 O 457.714 1.67227 0.760317 0
M  V30 4723 C 457.776 2.49361 -2.58958 0
M  V30 4724 C 457.44 2.13671 -4.03972 0
M  V30 4725 C 458.437 1.69217 -4.91591 0
M  V30 4726 C 456.122 2.24129 -4.49524 0
M  V30 4727 C 458.116 1.35689 -6.2279 0
M  V30 4728 C 455.803 1.90212 -5.80743 0
M  V30 4729 C 456.801 1.46063 -6.67199 0
M  V30 4730 O 456.489 1.12593 -7.95976 0
M  V30 4731 H 456.221 0.403444 -0.54241 0
M  V30 4732 H 458.775 0.643233 -1.95068 0
M  V30 4733 H 457.005 3.18659 -2.19073 0
M  V30 4734 H 458.694 3.11421 -2.6033 0
M  V30 4735 H 459.46 1.60607 -4.57636 0
M  V30 4736 H 455.339 2.57447 -3.82416 0
M  V30 4737 H 458.883 1.01157 -6.90227 0
M  V30 4738 H 454.78 1.98464 -6.14233 0
M  V30 4739 H 455.548 1.25972 -8.08748 0
M  V30 4740 N 458.211 1.37122 0.776871 0
M  V30 4741 C 459.144 1.26835 1.89705 0
M  V30 4742 C 460.122 0.14992 1.61907 0
M  V30 4743 O 461.306 0.323242 1.85708 0
M  V30 4744 C 458.433 0.95986 3.24814 0
M  V30 4745 C 457.479 2.09447 3.7153 0
M  V30 4746 S 458.312 3.71368 3.85806 0
M  V30 4747 C 459.468 3.42659 5.23771 0
M  V30 4748 H 459.701 2.21647 1.98141 0
M  V30 4749 H 457.234 1.22685 0.937433 0
M  V30 4750 H 459.192 0.788696 4.02852 0
M  V30 4751 H 457.853 0.0293137 3.14086 0
M  V30 4752 H 457.046 1.8335 4.69467 0
M  V30 4753 H 456.648 2.2255 3.00578 0
M  V30 4754 H 458.94 2.9733 6.0877 0
M  V30 4755 H 459.883 4.39905 5.54878 0
M  V30 4756 H 460.291 2.77708 4.91466 0
M  V30 4757 N 459.689 -1.00246 1.21608 0
M  V30 4758 C 460.914 -1.78167 1.06167 0
M  V30 4759 C 461.339 -1.84138 -0.384035 0
M  V30 4760 O 460.697 -1.28683 -1.27712 0
M  V30 4761 C 460.745 -3.19786 1.66642 0
M  V30 4762 O 459.849 -4.02153 0.913613 0
M  V30 4763 H 459.19 -0.549 0.37349 0
M  V30 4764 H 461.72 -1.25994 1.61204 0
M  V30 4765 H 461.73 -3.70451 1.70969 0
M  V30 4766 H 460.405 -3.14754 2.7185 0
M  V30 4767 H 458.982 -3.60711 0.945635 0
M  V30 4768 N 461.167 -1.02423 -1.1978 0
M  V30 4769 C 462.13 -0.605703 -2.21052 0
M  V30 4770 C 463.13 0.328209 -1.57415 0
M  V30 4771 O 464.32 0.115853 -1.73814 0
M  V30 4772 C 461.452 0.114366 -3.40708 0
M  V30 4773 H 462.645 -1.5017 -2.59594 0
M  V30 4774 H 460.198 -0.814888 -1.33376 0
M  V30 4775 H 460.933 1.02492 -3.07678 0
M  V30 4776 H 460.718 -0.556641 -3.88129 0
M  V30 4777 H 462.208 0.394272 -4.15735 0
M  V30 4778 N 462.645 1.35699 -0.801477 0
M  V30 4779 C 464.056 1.81415 -0.441073 0
M  V30 4780 C 464.407 1.66595 1.03636 0
M  V30 4781 O 463.532 1.19369 1.80499 0
M  V30 4782 C 464.127 3.29369 -0.793819 0
M  V30 4783 C 462.686 3.73248 -0.486083 0
M  V30 4784 C 461.833 2.57775 -1.02213 0
M  V30 4785 H 464.784 1.23749 -0.993572 0
M  V30 4786 H 464.805 3.80395 -0.0894158 0
M  V30 4787 H 464.317 3.40123 -1.86917 0
M  V30 4788 H 462.418 3.68046 0.580735 0
M  V30 4789 H 462.531 4.68222 -1.01513 0
M  V30 4790 H 460.895 2.50788 -0.444712 0
M  V30 4791 H 461.678 2.71309 -2.10348 0
M  V30 4792 N 464.123 0.554532 1.47522 0
M  V30 4793 C 465.033 -0.197865 2.33764 0
M  V30 4794 C 466.049 -0.914576 1.48025 0
M  V30 4795 O 467.225 -0.884067 1.80959 0
M  V30 4796 C 464.29 -1.21628 3.24665 0
M  V30 4797 C 463.351 -0.507283 4.26292 0
M  V30 4798 C 462.584 -1.47718 5.1285 0
M  V30 4799 O 462.807 -2.7118 5.01814 0
M  V30 4800 O 461.741 -1.00313 5.93482 0
M  V30 4801 H 465.567 0.50949 2.99396 0
M  V30 4802 H 463.152 0.315176 1.46038 0
M  V30 4803 H 465.034 -1.80421 3.80823 0
M  V30 4804 H 463.709 -1.9056 2.61665 0
M  V30 4805 H 462.616 0.121778 3.73902 0
M  V30 4806 H 463.949 0.140544 4.91999 0
M  V30 4807 N 465.601 -1.54893 0.290851 0
M  V30 4808 C 466.564 -2.21824 -0.576784 0
M  V30 4809 C 467.564 -1.20104 -1.06919 0
M  V30 4810 O 468.754 -1.44906 -0.966843 0
M  V30 4811 C 465.886 -2.89662 -1.79747 0
M  V30 4812 H 467.079 -2.99899 0.00784051 0
M  V30 4813 H 464.632 -1.56245 0.0415934 0
M  V30 4814 H 465.367 -2.15639 -2.42219 0
M  V30 4815 H 465.152 -3.64219 -1.45214 0
M  V30 4816 H 466.642 -3.4075 -2.4141 0
M  V30 4817 N 467.08 -0.0183926 -1.57589 0
M  V30 4818 C 468.013 1.00148 -2.0505 0
M  V30 4819 C 468.991 1.32387 -0.944058 0
M  V30 4820 O 470.175 1.44237 -1.21358 0
M  V30 4821 C 467.302 2.32435 -2.46357 0
M  V30 4822 C 466.348 2.15731 -3.67916 0
M  V30 4823 S 467.181 1.46613 -5.15039 0
M  V30 4824 C 468.337 2.80293 -5.59631 0
M  V30 4825 H 468.57 0.597429 -2.91235 0
M  V30 4826 H 466.103 0.193002 -1.53189 0
M  V30 4827 H 468.061 3.0849 -2.70822 0
M  V30 4828 H 466.722 2.69975 -1.60537 0
M  V30 4829 H 465.915 3.13502 -3.9463 0
M  V30 4830 H 465.517 1.4782 -3.43548 0
M  V30 4831 H 467.809 3.76557 -5.63215 0
M  V30 4832 H 468.752 2.58256 -6.59325 0
M  V30 4833 H 469.16 2.85047 -4.87246 0
M  V30 4834 N 468.558 1.5553 0.254621 0
M  V30 4835 C 469.521 1.88872 1.29846 0
M  V30 4836 C 470.521 0.764591 1.41459 0
M  V30 4837 O 471.711 1.03265 1.40293 0
M  V30 4838 C 468.843 2.11032 2.67728 0
M  V30 4839 H 470.036 2.82201 1.01502 0
M  V30 4840 H 467.589 1.48303 0.493556 0
M  V30 4841 H 468.324 1.20146 3.01223 0
M  V30 4842 H 468.109 2.92895 2.60682 0
M  V30 4843 H 469.599 2.38038 3.43115 0
M  V30 4844 N 470.036 -0.519951 1.48776 0
M  V30 4845 C 471.447 -1.10177 1.50725 0
M  V30 4846 C 471.798 -1.94153 0.282678 0
M  V30 4847 O 470.923 -2.07645 -0.609298 0
M  V30 4848 C 471.518 -2.00482 2.73116 0
M  V30 4849 C 470.077 -2.53862 2.77905 0
M  V30 4850 C 469.224 -1.31047 2.44381 0
M  V30 4851 H 472.175 -0.30473 1.55747 0
M  V30 4852 H 472.196 -2.8491 2.52203 0
M  V30 4853 H 471.708 -1.39335 3.62225 0
M  V30 4854 H 469.809 -3.18702 1.93029 0
M  V30 4855 H 469.922 -2.9231 3.79594 0
M  V30 4856 H 468.286 -1.62953 1.95751 0
M  V30 4857 H 469.069 -0.71637 3.35743 0
M  V30 4858 N 471.514 -1.37532 -0.769588 0
M  V30 4859 C 472.791 -1.23392 -1.51768 0
M  V30 4860 C 473.171 0.17157 -2.10402 0
M  V30 4861 O 472.519 1.17943 -1.95708 0
M  V30 4862 C 472.729 -2.33163 -2.59685 0
M  V30 4863 C 474.077 -2.70809 -3.27028 0
M  V30 4864 O 475.101 -2.32355 -2.69981 0
M  V30 4865 O 473.96 -3.37066 -4.30173 0
M  V30 4866 H 471.054 -0.481617 -0.67229 0
M  V30 4867 H 473.6 -1.49318 -0.806368 0
M  V30 4868 H 472.372 -3.27273 -2.14494 0
M  V30 4869 H 471.995 -2.08713 -3.38415 0
M  V30 4870 N 472.992 0.995999 -1.22138 0
M  V30 4871 C 473.955 2.06711 -0.990109 0
M  V30 4872 C 474.955 1.60744 0.0422978 0
M  V30 4873 O 476.145 1.73095 -0.195895 0
M  V30 4874 C 473.277 3.37288 -0.49491 0
M  V30 4875 H 474.47 2.28661 -1.94047 0
M  V30 4876 H 472.023 1.16711 -1.03963 0
M  V30 4877 H 472.758 3.21022 0.459948 0
M  V30 4878 H 472.543 3.71986 -1.23971 0
M  V30 4879 H 474.033 4.16103 -0.353253 0
M  V30 4880 N 474.47 1.03057 1.19235 0
M  V30 4881 C 475.719 0.72326 1.88287 0
M  V30 4882 C 476.032 -0.751333 1.80594 0
M  V30 4883 O 477.238 -1.17176 2.44912 0
M  V30 4884 C 475.694 1.24338 3.3774 0
M  V30 4885 C 475.302 2.74587 3.53986 0
M  V30 4886 C 477.046 1.01213 4.12257 0
M  V30 4887 C 474.953 3.20009 4.97341 0
M  V30 4888 H 473.883 0.266848 0.705201 0
M  V30 4889 H 476.534 1.24509 1.34795 0
M  V30 4890 H 474.916 0.649457 3.90638 0
M  V30 4891 H 476.09 3.39649 3.11408 0
M  V30 4892 H 474.405 2.9601 2.9286 0
M  V30 4893 H 477.002 1.32675 5.17978 0
M  V30 4894 H 477.345 -0.051001 4.16269 0
M  V30 4895 H 477.878 1.57014 3.65501 0
M  V30 4896 H 474.617 4.25659 4.98493 0
M  V30 4897 H 474.137 2.59676 5.40674 0
M  V30 4898 H 475.816 3.13447 5.66003 0
M  V30 4899 N 475.948 -1.35272 0.808662 0
M  V30 4900 C 476.858 -2.33546 0.222079 0
M  V30 4901 C 477.874 -1.6196 -0.636011 0
M  V30 4902 O 479.05 -1.93822 -0.547274 0
M  V30 4903 C 476.115 -3.41148 -0.61795 0
M  V30 4904 C 475.176 -4.28507 0.260875 0
M  V30 4905 C 474.409 -5.3097 -0.539156 0
M  V30 4906 O 474.632 -5.42123 -1.77367 0
M  V30 4907 O 473.566 -6.01858 0.0710526 0
M  V30 4908 H 477.392 -2.85515 1.03512 0
M  V30 4909 H 474.977 -1.38079 0.570495 0
M  V30 4910 H 476.859 -4.06889 -1.09634 0
M  V30 4911 H 475.534 -2.91447 -1.40855 0
M  V30 4912 H 474.441 -3.6574 0.786451 0
M  V30 4913 H 475.774 -4.81611 1.01547 0
M  V30 4914 N 477.426 -0.562348 -1.47226 0
M  V30 4915 C 478.675 -0.038041 -2.01664 0
M  V30 4916 C 478.988 1.32199 -1.44162 0
M  V30 4917 O 480.194 1.9365 -1.90294 0
M  V30 4918 C 478.65 -0.0174958 -3.59896 0
M  V30 4919 C 478.258 -1.3746 -4.2639 0
M  V30 4920 C 480.002 0.453934 -4.22066 0
M  V30 4921 C 477.909 -1.31289 -5.76643 0
M  V30 4922 H 476.839 -0.0104511 -0.753928 0
M  V30 4923 H 479.49 -0.710966 -1.69167 0
M  V30 4924 H 477.872 0.721182 -3.89378 0
M  V30 4925 H 479.046 -2.1314 -4.08544 0
M  V30 4926 H 477.361 -1.78438 -3.7623 0
M  V30 4927 H 479.958 0.518584 -5.32179 0
M  V30 4928 H 480.301 1.46706 -3.89594 0
M  V30 4929 H 480.834 -0.230044 -3.97134 0
M  V30 4930 H 477.573 -2.30217 -6.13743 0
M  V30 4931 H 477.093 -0.597973 -5.96812 0
M  V30 4932 H 478.772 -1.01713 -6.38955 0
M  V30 4933 N 478.904 1.54736 -0.299062 0
M  V30 4934 C 479.854 2.20155 0.592932 0
M  V30 4935 C 480.838 1.1739 1.10038 0
M  V30 4936 O 482.03 1.43116 1.04147 0
M  V30 4937 C 479.159 2.94437 1.76527 0
M  V30 4938 C 478.245 4.04516 1.27388 0
M  V30 4939 N 478.636 5.03319 0.500339 0
M  V30 4940 C 476.934 4.18022 1.55478 0
M  V30 4941 C 477.635 5.81209 0.238909 0
M  V30 4942 N 476.611 5.37408 0.818163 0
M  V30 4943 H 480.413 2.93899 -0.00563596 0
M  V30 4944 H 477.927 1.62068 -0.103732 0
M  V30 4945 H 479.924 3.3977 2.41582 0
M  V30 4946 H 478.584 2.22209 2.36756 0
M  V30 4947 H 479.595 5.17696 0.145419 0
M  V30 4948 H 476.272 3.56998 2.16469 0
M  V30 4949 H 477.662 6.70812 -0.382223 0
M  V30 4950 N 480.382 0.0267497 1.57577 0
M  V30 4951 C 481.793 -0.512413 1.79531 0
M  V30 4952 C 482.144 -1.72391 0.936791 0
M  V30 4953 O 481.269 -2.15903 0.146543 0
M  V30 4954 C 481.864 -0.936378 3.25603 0
M  V30 4955 C 480.423 -1.42067 3.4856 0
M  V30 4956 C 479.57 -0.384278 2.74624 0
M  V30 4957 H 482.521 0.252797 1.56674 0
M  V30 4958 H 482.542 -1.80088 3.35184 0
M  V30 4959 H 482.054 -0.0544332 3.88062 0
M  V30 4960 H 480.155 -2.32262 2.9135 0
M  V30 4961 H 480.268 -1.42968 4.57271 0
M  V30 4962 H 478.632 -0.851855 2.40032 0
M  V30 4963 H 479.415 0.489159 3.39797 0
M  V30 4964 N 481.861 -1.55662 -0.24637 0
M  V30 4965 C 483.109 -1.77168 -0.972411 0
M  V30 4966 C 483.43 -0.590827 -1.85834 0
M  V30 4967 O 482.7 0.393365 -1.9191 0
M  V30 4968 H 481.28 -0.653405 -0.362038 0
M  V30 4969 H 483.942 -1.93101 -0.264189 0
M  V30 4970 H 483.038 -2.68335 -1.59382 0
M  V30 4971 N 483.339 0.512053 -1.4905 0
M  V30 4972 C 484.567 1.29116 -1.61669 0
M  V30 4973 C 484.982 1.86655 -0.283787 0
M  V30 4974 O 484.339 1.67293 0.729331 0
M  V30 4975 C 484.39 2.4293 -2.67707 0
M  V30 4976 O 484.111 1.87758 -3.95826 0
M  V30 4977 C 485.612 3.34476 -2.90931 0
M  V30 4978 H 482.832 0.392009 -0.544583 0
M  V30 4979 H 485.376 0.615881 -1.95006 0
M  V30 4980 H 483.531 3.06308 -2.37179 0
M  V30 4981 H 483.945 2.62393 -4.54148 0
M  V30 4982 H 485.419 4.10642 -3.68886 0
M  V30 4983 H 485.896 3.90801 -2.00427 0
M  V30 4984 H 486.502 2.76874 -3.22832 0
M  V30 4985 N 484.817 1.37938 0.762283 0
M  V30 4986 C 486.228 1.30094 1.33912 0
M  V30 4987 C 486.579 -0.0472026 1.96143 0
M  V30 4988 O 485.704 -0.94917 1.94473 0
M  V30 4989 C 486.299 2.35592 2.43478 0
M  V30 4990 C 484.858 2.31353 2.96905 0
M  V30 4991 C 484.005 2.18919 1.70205 0
M  V30 4992 H 486.956 1.48423 0.561816 0
M  V30 4993 H 486.977 2.00806 3.23199 0
M  V30 4994 H 486.489 3.33701 1.98155 0
M  V30 4995 H 484.59 1.36799 3.46579 0
M  V30 4996 H 484.703 3.25147 3.51875 0
M  V30 4997 H 483.067 1.65624 1.93496 0
M  V30 4998 H 483.85 3.18956 1.26973 0
M  V30 4999 N 486.295 -0.989507 1.22664 0
M  V30 5000 C 487.243 -2.10148 0.997035 0
M  V30 5001 C 488.237 -1.6929 -0.0609783 0
M  V30 5002 O 489.443 -1.79766 0.0917523 0
M  V30 5003 H 485.818 -0.687256 0.305259 0
M  V30 5004 H 487.789 -2.26685 1.94053 0
M  V30 5005 C 486.538 -3.4257 0.595085 0
M  V30 5006 H 485.861 -3.74453 1.40089 0
M  V30 5007 H 487.301 -4.21344 0.473869 0
M  V30 5008 C 485.76 -3.29638 -0.695725 0
M  V30 5009 O 486.29 -3.61709 -1.74727 0
M  V30 5010 N 484.496 -2.82814 -0.668173 0
M  V30 5011 H 484.043 -2.56914 0.18787 0
M  V30 5012 H 484.001 -2.74544 -1.5321 0
M  V30 5013 N 487.773 -1.03688 -1.18687 0
M  V30 5014 C 489.019 -0.739123 -1.88851 0
M  V30 5015 C 489.352 0.731042 -1.79915 0
M  V30 5016 O 488.627 1.53313 -1.19688 0
M  V30 5017 C 488.91 -1.20106 -3.3948 0
M  V30 5018 C 488.763 -2.73304 -3.57246 0
M  V30 5019 C 490.082 -0.788134 -4.32986 0
M  V30 5020 H 487.201 -0.269978 -0.68577 0
M  V30 5021 H 489.843 -1.28822 -1.3966 0
M  V30 5022 H 487.993 -0.733915 -3.81505 0
M  V30 5023 H 489.665 -3.28027 -3.24339 0
M  V30 5024 H 487.908 -3.13313 -3.00029 0
M  V30 5025 H 488.579 -3.00684 -4.62918 0
M  V30 5026 H 491.055 -1.19005 -3.98719 0
M  V30 5027 H 489.931 -1.13915 -5.36949 0
M  V30 5028 H 490.192 0.308988 -4.41019 0
M  V30 5029 N 489.251 1.34841 -0.815825 0
M  V30 5030 C 490.481 2.02436 -0.412695 0
M  V30 5031 C 490.889 1.61604 0.983906 0
M  V30 5032 O 490.232 0.813729 1.64694 0
M  V30 5033 C 490.294 3.56953 -0.427182 0
M  V30 5034 C 489.958 4.21083 -1.77589 0
M  V30 5035 C 490.955 4.42107 -2.73564 0
M  V30 5036 C 488.64 4.58006 -2.06243 0
M  V30 5037 C 490.634 4.99169 -3.9637 0
M  V30 5038 C 488.321 5.1478 -3.2931 0
M  V30 5039 C 489.319 5.35304 -4.24191 0
M  V30 5040 O 489.007 5.90878 -5.45086 0
M  V30 5041 H 488.739 0.655631 -0.164695 0
M  V30 5042 H 491.293 1.73246 -1.1034 0
M  V30 5043 H 489.523 3.85372 0.320175 0
M  V30 5044 H 491.212 4.05875 -0.0450875 0
M  V30 5045 H 491.978 4.13953 -2.52721 0
M  V30 5046 H 487.857 4.41339 -1.33196 0
M  V30 5047 H 491.401 5.15105 -4.70439 0
M  V30 5048 H 487.298 5.42362 -3.5002 0
M  V30 5049 H 488.066 6.0932 -5.46508 0
M  V30 5050 N 490.729 0.570148 1.46925 0
M  V30 5051 C 491.959 0.0561151 2.06524 0
M  V30 5052 C 492.367 -1.24874 1.42137 0
M  V30 5053 O 491.71 -1.76292 0.516417 0
M  V30 5054 C 491.772 -0.197035 3.5896 0
M  V30 5055 C 491.436 1.02033 4.45464 0
M  V30 5056 C 492.433 1.92921 4.82781 0
M  V30 5057 C 490.118 1.23864 4.86788 0
M  V30 5058 C 492.112 3.03999 5.60235 0
M  V30 5059 C 489.799 2.35249 5.64004 0
M  V30 5060 C 490.797 3.25146 6.0064 0
M  V30 5061 O 490.485 4.34598 6.76299 0
M  V30 5062 H 490.217 0.0487409 0.674241 0
M  V30 5063 H 492.771 0.786915 1.89728 0
M  V30 5064 H 491.001 -0.982299 3.74016 0
M  V30 5065 H 492.69 -0.658032 4.00531 0
M  V30 5066 H 493.456 1.77265 4.51444 0
M  V30 5067 H 489.335 0.54805 4.57731 0
M  V30 5068 H 492.879 3.74192 5.8875 0
M  V30 5069 H 488.776 2.50873 5.94755 0
M  V30 5070 H 489.544 4.32808 6.94708 0
M  V30 5071 N 492.207 -1.54576 0.307264 0
M  V30 5072 C 493.484 -1.92377 -0.353605 0
M  V30 5073 C 493.864 -1.23517 -1.71192 0
M  V30 5074 O 493.212 -0.373101 -2.25433 0
M  V30 5075 C 493.422 -3.45928 -0.462039 0
M  V30 5076 C 494.77 -4.18278 -0.729975 0
M  V30 5077 O 495.794 -3.51997 -0.545605 0
M  V30 5078 O 494.653 -5.3563 -1.08454 0
M  V30 5079 H 491.747 -0.802747 -0.198812 0
M  V30 5080 H 494.293 -1.65929 0.355783 0
M  V30 5081 H 493.065 -3.88187 0.492592 0
M  V30 5082 H 492.688 -3.78431 -1.21965 0
M  V30 5083 N 493.685 -0.035106 -1.57561 0
M  V30 5084 C 494.617 0.973604 -2.07494 0
M  V30 5085 C 495.63 1.28504 -0.999534 0
M  V30 5086 O 496.819 1.24864 -1.27559 0
M  V30 5087 C 493.919 2.29945 -2.48955 0
M  V30 5088 C 493.092 2.1723 -3.79644 0
M  V30 5089 C 492.151 3.328 -4.07592 0
M  V30 5090 O 491.177 3.09418 -4.77754 0
M  V30 5091 N 492.379 4.56779 -3.58236 0
M  V30 5092 H 495.144 0.547525 -2.94656 0
M  V30 5093 H 492.705 0.151515 -1.61189 0
M  V30 5094 H 494.697 3.06097 -2.64739 0
M  V30 5095 H 493.267 2.64173 -1.67126 0
M  V30 5096 H 492.487 1.25768 -3.73599 0
M  V30 5097 H 493.775 2.05945 -4.65257 0
M  V30 5098 H 493.173 4.78668 -3.01485 0
M  V30 5099 H 491.73 5.30079 -3.79288 0
M  V30 5100 N 495.163 1.55791 0.238111 0
M  V30 5101 C 496.093 1.94068 1.29846 0
M  V30 5102 C 497.074 0.806726 1.49753 0
M  V30 5103 O 498.259 1.06772 1.62214 0
M  V30 5104 C 495.389 2.24302 2.65153 0
M  V30 5105 C 494.343 3.40032 2.59927 0
M  V30 5106 C 493.669 3.55829 3.99111 0
M  V30 5107 C 494.969 4.75476 2.16148 0
M  V30 5108 H 496.663 2.82887 0.980563 0
M  V30 5109 H 494.209 1.36105 0.470253 0
M  V30 5110 H 496.162 2.4967 3.39475 0
M  V30 5111 H 494.886 1.32318 2.98596 0
M  V30 5112 H 493.545 3.14687 1.88063 0
M  V30 5113 H 493.193 2.6125 4.29834 0
M  V30 5114 H 492.893 4.3366 3.96501 0
M  V30 5115 H 494.417 3.83528 4.7512 0
M  V30 5116 H 495.831 5.00158 2.80205 0
M  V30 5117 H 494.228 5.56472 2.24631 0
M  V30 5118 H 495.298 4.71946 1.11333 0
M  V30 5119 N 496.642 -0.504142 1.49319 0
M  V30 5120 C 497.552 -1.63248 1.68486 0
M  V30 5121 C 498.568 -1.64488 0.567432 0
M  V30 5122 O 499.744 -1.82966 0.841749 0
M  V30 5123 C 496.809 -2.99627 1.74426 0
M  V30 5124 C 495.87 -3.09039 2.97982 0
M  V30 5125 C 495.103 -4.38913 3.0363 0
M  V30 5126 O 495.326 -5.27528 2.16958 0
M  V30 5127 O 494.26 -4.53231 3.96062 0
M  V30 5128 H 498.086 -1.50008 2.64067 0
M  V30 5129 H 495.671 -0.680086 1.33023 0
M  V30 5130 H 497.553 -3.80689 1.80705 0
M  V30 5131 H 496.228 -3.13136 0.820233 0
M  V30 5132 H 495.135 -2.27177 2.97223 0
M  V30 5133 H 496.468 -3.00456 3.89855 0
M  V30 5134 N 498.12 -1.38341 -0.754957 0
M  V30 5135 C 499.03 -1.3769 -1.89944 0
M  V30 5136 C 500.046 -0.274194 -1.71826 0
M  V30 5137 O 501.222 -0.512391 -1.94773 0
M  V30 5138 C 498.287 -1.19938 -3.25293 0
M  V30 5139 C 497.348 -2.40001 -3.55946 0
M  V30 5140 C 496.581 -2.23087 -4.84838 0
M  V30 5141 O 496.804 -1.22386 -5.57116 0
M  V30 5142 O 495.738 -3.11646 -5.14937 0
M  V30 5143 H 499.564 -2.3412 -1.93446 0
M  V30 5144 H 497.149 -1.19246 -0.900044 0
M  V30 5145 H 499.031 -1.12093 -4.06218 0
M  V30 5146 H 497.706 -0.265919 -3.22606 0
M  V30 5147 H 496.613 -2.53421 -2.75188 0
M  V30 5148 H 497.946 -3.31973 -3.63394 0
M  V30 5149 N 499.598 0.982988 -1.23187 0
M  V30 5150 C 500.545 2.07491 -1.01075 0
M  V30 5151 C 501.515 1.65949 0.070905 0
M  V30 5152 O 502.7 1.90629 -0.0806822 0
M  V30 5153 C 499.84 3.39751 -0.605261 0
M  V30 5154 C 498.953 3.94578 -1.75876 0
M  V30 5155 C 498.088 5.15039 -1.3003 0
M  V30 5156 C 497.127 5.62027 -2.42472 0
M  V30 5157 N 496.264 6.73719 -1.97602 0
M  V30 5158 H 501.104 2.25739 -1.9454 0
M  V30 5159 H 498.641 1.10659 -0.969179 0
M  V30 5160 H 500.599 4.15719 -0.351279 0
M  V30 5161 H 499.229 3.21473 0.292382 0
M  V30 5162 H 498.281 3.1539 -2.12681 0
M  V30 5163 H 499.593 4.25422 -2.60418 0
M  V30 5164 H 498.747 5.9833 -1.00429 0
M  V30 5165 H 497.486 4.85843 -0.425216 0
M  V30 5166 H 496.491 4.77318 -2.7285 0
M  V30 5167 H 497.716 5.93244 -3.30512 0
M  V30 5168 H 495.662 6.46287 -1.1247 0
M  V30 5169 H 495.579 7.03934 -2.75705 0
M  V30 5170 H 496.847 7.6049 -1.71098 0
M  V30 5171 N 501.076 1.04316 1.18135 0
M  V30 5172 C 502.324 0.746542 1.87806 0
M  V30 5173 C 502.645 -0.728082 1.80898 0
M  V30 5174 O 501.915 -1.52554 1.22899 0
M  V30 5175 H 500.495 0.273157 0.695265 0
M  V30 5176 H 503.157 1.32044 1.43354 0
M  V30 5177 H 502.253 1.05362 2.93778 0
M  V30 5178 N 502.554 -1.34406 0.822964 0
M  V30 5179 C 503.464 -2.33298 0.246838 0
M  V30 5180 C 504.48 -1.62625 -0.618797 0
M  V30 5181 O 505.656 -1.94391 -0.526685 0
M  V30 5182 C 502.721 -3.41785 -0.581731 0
M  V30 5183 C 501.782 -4.28206 0.306309 0
M  V30 5184 C 501.015 -5.31512 -0.48281 0
M  V30 5185 O 501.238 -5.43973 -1.71607 0
M  V30 5186 O 500.172 -6.01749 0.134884 0
M  V30 5187 H 503.998 -2.84401 1.06534 0
M  V30 5188 H 501.583 -1.37466 0.585108 0
M  V30 5189 H 503.465 -4.08028 -1.05313 0
M  V30 5190 H 502.14 -2.92925 -1.37756 0
M  V30 5191 H 501.047 -3.64885 0.825199 0
M  V30 5192 H 502.38 -4.80507 1.06649 0
M  V30 5193 N 504.032 -0.577932 -1.46621 0
M  V30 5194 C 505.309 0.00495287 -1.95599 0
M  V30 5195 C 505.689 1.46428 -1.5206 0
M  V30 5196 O 505.037 2.1517 -0.769046 0
M  V30 5197 C 505.247 -0.162114 -3.48623 0
M  V30 5198 C 506.595 -0.0274623 -4.24591 0
M  V30 5199 O 507.619 -0.0907067 -3.56084 0
M  V30 5200 O 506.478 0.1122 -5.46385 0
M  V30 5201 H 503.572 0.0525057 -0.825332 0
M  V30 5202 H 506.118 -0.645914 -1.56927 0
M  V30 5203 H 504.89 -1.17679 -3.73185 0
M  V30 5204 H 504.513 0.525407 -3.94113 0
M  V30 5205 N 505.51 1.54411 -0.315457 0
M  V30 5206 C 506.738 2.04833 0.291738 0
M  V30 5207 C 507.153 1.19203 1.46411 0
M  V30 5208 O 506.51 0.220867 1.81159 0
M  V30 5209 C 506.561 3.53969 0.73404 0
M  V30 5210 O 506.282 4.36346 -0.391682 0
M  V30 5211 C 507.783 4.2045 1.40489 0
M  V30 5212 H 505.003 0.668195 0.0612947 0
M  V30 5213 H 507.547 1.99276 -0.45929 0
M  V30 5214 H 505.702 3.5984 1.43506 0
M  V30 5215 H 506.116 5.24481 -0.0447088 0
M  V30 5216 H 507.59 5.26278 1.66539 0
M  V30 5217 H 508.067 3.71067 2.3496 0
M  V30 5218 H 508.673 4.18694 0.746662 0
M  V30 5219 N 506.988 0.0434614 1.5754 0
M  V30 5220 C 508.234 -0.632971 1.92669 0
M  V30 5221 C 508.567 -1.70947 0.921446 0
M  V30 5222 O 507.842 -1.94426 -0.0537202 0
M  V30 5223 C 508.125 -1.23619 3.38216 0
M  V30 5224 C 507.978 -0.168274 4.49485 0
M  V30 5225 C 509.297 -2.15008 3.84005 0
M  V30 5226 H 506.416 -0.228629 0.700641 0
M  V30 5227 H 509.058 0.103651 1.89717 0
M  V30 5228 H 507.208 -1.864 3.40863 0
M  V30 5229 H 508.88 0.463196 4.58969 0
M  V30 5230 H 507.123 0.504581 4.30855 0
M  V30 5231 H 507.794 -0.630218 5.48391 0
M  V30 5232 H 510.27 -1.62198 3.83185 0
M  V30 5233 H 509.146 -2.54161 4.86511 0
M  V30 5234 H 509.407 -3.04707 3.20322 0
M  V30 5235 N 508.466 -1.55915 -0.229846 0
M  V30 5236 C 509.877 -1.68809 -0.797531 0
M  V30 5237 C 510.228 -0.643995 -1.8533 0
M  V30 5238 O 509.353 0.206492 -2.15413 0
M  V30 5239 C 509.948 -3.06043 -1.45338 0
M  V30 5240 C 508.507 -3.20819 -1.96856 0
M  V30 5241 C 507.654 -2.6472 -0.825736 0
M  V30 5242 H 510.605 -1.58699 -0.00533733 0
M  V30 5243 H 510.626 -3.01438 -2.32196 0
M  V30 5244 H 510.138 -3.82012 -0.684743 0
M  V30 5245 H 508.239 -2.49704 -2.76548 0
M  V30 5246 H 508.352 -4.27937 -2.15423 0
M  V30 5247 H 506.716 -2.22985 -1.23084 0
M  V30 5248 H 507.499 -3.43229 -0.0699019 0
M  V30 5249 N 509.944 0.496216 -1.49584 0
M  V30 5250 C 511.191 1.25003 -1.59312 0
M  V30 5251 C 511.519 1.92445 -0.28198 0
M  V30 5252 O 510.774 1.81557 0.730452 0
M  V30 5253 C 511.073 2.3359 -2.705 0
M  V30 5254 C 510.739 1.83574 -4.11839 0
M  V30 5255 C 509.401 1.69653 -4.50302 0
M  V30 5256 C 511.753 1.46193 -5.00277 0
M  V30 5257 C 509.081 1.16736 -5.74969 0
M  V30 5258 C 511.433 0.947265 -6.25468 0
M  V30 5259 C 510.097 0.794485 -6.62755 0
M  V30 5260 H 509.367 0.45742 -0.582965 0
M  V30 5261 H 512.014 0.549996 -1.83432 0
M  V30 5262 H 510.319 3.09401 -2.40371 0
M  V30 5263 H 512.016 2.91627 -2.75235 0
M  V30 5264 H 508.606 1.9537 -3.81482 0
M  V30 5265 H 512.79 1.55793 -4.71214 0
M  V30 5266 H 508.046 1.03623 -6.02555 0
M  V30 5267 H 512.22 0.648846 -6.93371 0
M  V30 5268 H 509.847 0.382271 -7.59238 0
M  V30 5269 N 511.423 1.38739 0.74761 0
M  V30 5270 C 512.67 1.35274 1.50689 0
M  V30 5271 C 512.998 -0.0553359 1.94421 0
M  V30 5272 O 512.253 -1.03365 1.66175 0
M  V30 5273 C 512.552 2.25992 2.7688 0
M  V30 5274 C 512.218 3.73854 2.5208 0
M  V30 5275 C 510.88 4.14145 2.45025 0
M  V30 5276 C 513.232 4.67427 2.30568 0
M  V30 5277 C 510.56 5.4609 2.14483 0
M  V30 5278 C 512.912 5.99635 2.01545 0
M  V30 5279 C 511.576 6.39004 1.92951 0
M  V30 5280 H 510.846 0.495003 0.55141 0
M  V30 5281 H 513.493 1.71145 0.859158 0
M  V30 5282 H 511.798 1.83196 3.46333 0
M  V30 5283 H 513.495 2.20611 3.34861 0
M  V30 5284 H 510.085 3.41913 2.58444 0
M  V30 5285 H 514.269 4.3714 2.34994 0
M  V30 5286 H 509.525 5.75528 2.06342 0
M  V30 5287 H 513.699 6.71678 1.83906 0
M  V30 5288 H 511.326 7.41165 1.6905 0
M  V30 5289 N 512.901 -0.976442 1.23707 0
M  V30 5290 C 513.849 -2.09078 1.01927 0
M  V30 5291 C 514.843 -1.69345 -0.0430193 0
M  V30 5292 O 516.049 -1.79659 0.110814 0
M  V30 5293 H 512.424 -0.68398 0.312531 0
M  V30 5294 H 514.395 -2.24614 1.96447 0
M  V30 5295 C 513.144 -3.41919 0.631385 0
M  V30 5296 H 512.467 -3.72946 1.44053 0
M  V30 5297 H 513.907 -4.20817 0.518532 0
M  V30 5298 C 512.366 -3.30357 -0.660723 0
M  V30 5299 O 512.896 -3.63542 -1.70881 0
M  V30 5300 N 511.102 -2.83507 -0.638139 0
M  V30 5301 H 510.649 -2.567 0.215108 0
M  V30 5302 H 510.607 -2.76153 -1.50289 0
M  V30 5303 N 514.379 -1.04941 -1.1758 0
M  V30 5304 C 515.656 -0.671918 -1.83697 0
M  V30 5305 C 516.036 0.847929 -1.93322 0
M  V30 5306 O 515.384 1.75287 -1.46583 0
M  V30 5307 C 515.594 -1.35797 -3.21497 0
M  V30 5308 C 516.942 -1.4944 -3.97433 0
M  V30 5309 O 517.966 -1.31678 -3.30967 0
M  V30 5310 O 516.825 -1.78463 -5.1654 0
M  V30 5311 H 513.919 -0.236212 -0.792548 0
M  V30 5312 H 516.465 -1.14884 -1.24899 0
M  V30 5313 H 515.237 -2.39498 -3.09446 0
M  V30 5314 H 514.86 -0.870236 -3.8796 0
M  V30 5315 N 515.857 1.33968 -0.830081 0
M  V30 5316 C 517.268 1.80439 -0.479455 0
M  V30 5317 C 517.619 1.68756 1.00079 0
M  V30 5318 O 516.744 1.23171 1.77927 0
M  V30 5319 C 517.339 3.27611 -0.863505 0
M  V30 5320 C 515.898 3.72133 -0.565145 0
M  V30 5321 C 515.045 2.55549 -1.07657 0
M  V30 5322 H 517.996 1.21614 -1.0196 0
M  V30 5323 H 518.017 3.8012 -0.170083 0
M  V30 5324 H 517.529 3.36082 -1.94089 0
M  V30 5325 H 515.63 3.69196 0.502536 0
M  V30 5326 H 515.743 4.65963 -1.11422 0
M  V30 5327 H 514.107 2.49788 -0.497807 0
M  V30 5328 H 514.89 2.66786 -2.16055 0
M  V30 5329 N 517.335 0.585699 1.46312 0
M  V30 5330 C 518.298 -0.135673 2.28798 0
M  V30 5331 C 519.298 -0.815988 1.38558 0
M  V30 5332 O 520.488 -0.667487 1.60904 0
M  V30 5333 C 517.62 -1.20163 3.1902 0
M  V30 5334 H 518.813 0.589257 2.94054 0
M  V30 5335 H 516.366 0.343794 1.52472 0
M  V30 5336 H 517.101 -1.95804 2.58517 0
M  V30 5337 H 516.886 -0.718282 3.85465 0
M  V30 5338 H 518.376 -1.70749 3.81096 0
M  V30 5339 N 518.813 -1.54241 0.323641 0
M  V30 5340 C 519.761 -2.25813 -0.557804 0
M  V30 5341 C 520.755 -1.27225 -1.11849 0
M  V30 5342 O 521.961 -1.45001 -1.06652 0
M  V30 5343 H 518.336 -0.72532 -0.198532 0
M  V30 5344 H 520.307 -2.98322 0.0681112 0
M  V30 5345 C 519.056 -3.02913 -1.70701 0
M  V30 5346 H 518.379 -3.78593 -1.28482 0
M  V30 5347 H 519.819 -3.56238 -2.29935 0
M  V30 5348 C 518.278 -2.11217 -2.62467 0
M  V30 5349 O 518.808 -1.69508 -3.64184 0
M  V30 5350 N 517.014 -1.76704 -2.30703 0
M  V30 5351 H 516.561 -2.1082 -1.48029 0
M  V30 5352 H 516.519 -1.15631 -2.92364 0
M  V30 5353 N 520.291 -0.0518155 -1.57515 0
M  V30 5354 C 521.537 0.622745 -1.93002 0
M  V30 5355 C 521.87 1.70456 -0.930499 0
M  V30 5356 O 521.145 1.94452 0.0434086 0
M  V30 5357 C 521.428 1.21824 -3.38867 0
M  V30 5358 C 521.281 0.144434 -4.49568 0
M  V30 5359 C 522.6 2.12968 -3.8514 0
M  V30 5360 H 519.719 0.22491 -0.701844 0
M  V30 5361 H 522.361 -0.113711 -1.89659 0
M  V30 5362 H 520.511 1.8459 -3.41846 0
M  V30 5363 H 522.183 -0.48753 -4.58717 0
M  V30 5364 H 520.426 -0.527424 -4.30582 0
M  V30 5365 H 521.097 0.601127 -5.48717 0
M  V30 5366 H 523.573 1.60163 -3.8404 0
M  V30 5367 H 522.449 2.51578 -4.87852 0
M  V30 5368 H 522.71 3.03004 -3.21934 0
M  V30 5369 N 521.769 1.56035 0.221574 0
M  V30 5370 C 523.015 1.79312 0.947372 0
M  V30 5371 C 523.348 0.621453 1.83988 0
M  V30 5372 O 522.623 -0.379287 1.90766 0
M  V30 5373 C 522.906 3.1267 1.78633 0
M  V30 5374 C 522.759 4.40284 0.920312 0
M  V30 5375 C 524.078 3.4247 2.7641 0
M  V30 5376 H 521.197 0.652328 0.342982 0
M  V30 5377 H 523.839 1.88765 0.216244 0
M  V30 5378 H 521.989 3.04741 2.40967 0
M  V30 5379 H 523.661 4.60232 0.313718 0
M  V30 5380 H 521.904 4.33212 0.225734 0
M  V30 5381 H 522.575 5.30033 1.54171 0
M  V30 5382 H 525.051 3.50526 2.24211 0
M  V30 5383 H 523.927 4.3695 3.32213 0
M  V30 5384 H 524.188 2.64635 3.54148 0
M  V30 5385 N 523.247 -0.488276 1.49845 0
M  V30 5386 C 524.21 -1.57069 1.66919 0
M  V30 5387 C 525.21 -1.51445 0.540479 0
M  V30 5388 O 526.4 -1.5437 0.807188 0
M  V30 5389 C 523.532 -2.96718 1.67844 0
M  V30 5390 H 524.725 -1.43254 2.63474 0
M  V30 5391 H 522.278 -0.713435 1.39068 0
M  V30 5392 H 523.013 -3.15996 0.7292 0
M  V30 5393 H 522.798 -3.02208 2.49826 0
M  V30 5394 H 524.288 -3.75335 1.83066 0
M  V30 5395 N 524.725 -1.39134 -0.740242 0
M  V30 5396 C 525.635 -1.39697 -1.88473 0
M  V30 5397 C 526.651 -0.292403 -1.71526 0
M  V30 5398 O 527.827 -0.533021 -1.94219 0
M  V30 5399 C 524.892 -1.23382 -3.24003 0
M  V30 5400 C 523.953 -2.43763 -3.53381 0
M  V30 5401 C 523.186 -2.28216 -4.82445 0
M  V30 5402 O 523.409 -1.28288 -5.55786 0
M  V30 5403 O 522.343 -3.1709 -5.11603 0
M  V30 5404 H 526.169 -2.36159 -1.90952 0
M  V30 5405 H 523.754 -1.20194 -0.887346 0
M  V30 5406 H 525.636 -1.16395 -4.05006 0
M  V30 5407 H 524.311 -0.300121 -3.22306 0
M  V30 5408 H 523.218 -2.56325 -2.72485 0
M  V30 5409 H 524.551 -3.35808 -3.59852 0
M  V30 5410 N 526.204 0.969867 -1.24223 0
M  V30 5411 C 527.452 1.70918 -1.0785 0
M  V30 5412 C 527.773 1.91186 0.383763 0
M  V30 5413 O 527.043 1.48806 1.27411 0
M  V30 5414 H 525.623 0.633334 -0.396103 0
M  V30 5415 H 528.285 1.16689 -1.56108 0
M  V30 5416 H 527.381 2.69455 -1.57482 0
M  V30 5417 N 527.682 1.05563 1.17022 0
M  V30 5418 C 528.907 0.788437 1.91829 0
M  V30 5419 C 529.332 -0.650356 1.76499 0
M  V30 5420 O 528.69 -1.45229 1.08527 0
M  V30 5421 C 528.738 1.1786 3.40795 0
M  V30 5422 O 527.842 0.312965 4.11211 0
M  V30 5423 H 527.183 0.288794 0.597908 0
M  V30 5424 H 529.713 1.40948 1.48307 0
M  V30 5425 H 529.723 1.14697 3.91546 0
M  V30 5426 H 528.398 2.22666 3.51273 0
M  V30 5427 H 526.975 0.405515 3.70689 0
M  V30 5428 N 529.16 -1.33526 0.837174 0
M  V30 5429 C 530.39 -2.01754 0.444848 0
M  V30 5430 C 530.798 -1.63149 -0.958072 0
M  V30 5431 O 530.141 -0.839827 -1.63379 0
M  V30 5432 C 530.203 -3.56228 0.483917 0
M  V30 5433 C 529.867 -4.18205 1.84265 0
M  V30 5434 C 530.864 -4.37699 2.80563 0
M  V30 5435 C 528.549 -4.54667 2.13503 0
M  V30 5436 C 530.543 -4.928 4.04261 0
M  V30 5437 C 528.23 -5.09475 3.37458 0
M  V30 5438 C 529.228 -5.28488 4.32654 0
M  V30 5439 O 528.916 -5.82132 5.54417 0
M  V30 5440 H 528.648 -0.652928 0.175104 0
M  V30 5441 H 531.202 -1.71469 1.13082 0
M  V30 5442 H 529.432 -3.85833 -0.258826 0
M  V30 5443 H 531.121 -4.05752 0.109653 0
M  V30 5444 H 531.887 -4.0988 2.59274 0
M  V30 5445 H 527.766 -4.39164 1.40201 0
M  V30 5446 H 531.31 -5.07555 4.78574 0
M  V30 5447 H 527.207 -5.36725 3.58604 0
M  V30 5448 H 527.975 -6.00548 5.56133 0
M  V30 5449 N 530.638 -0.59345 -1.46 0
M  V30 5450 C 531.868 -0.0889642 -2.06408 0
M  V30 5451 C 532.276 1.22597 -1.44106 0
M  V30 5452 O 531.619 1.75448 -0.544398 0
M  V30 5453 C 531.681 0.139902 -3.59228 0
M  V30 5454 C 531.345 -1.09107 -4.43784 0
M  V30 5455 C 532.342 -2.00577 -4.79651 0
M  V30 5456 C 530.027 -1.31593 -4.84756 0
M  V30 5457 C 532.021 -3.12873 -5.55328 0
M  V30 5458 C 529.708 -2.44192 -5.60191 0
M  V30 5459 C 530.706 -3.34661 -5.95392 0
M  V30 5460 O 530.394 -4.45302 -6.69299 0
M  V30 5461 H 530.126 -0.0594613 -0.67338 0
M  V30 5462 H 532.68 -0.817 -1.88452 0
M  V30 5463 H 530.91 0.922672 -3.75531 0
M  V30 5464 H 532.599 0.594228 -4.01527 0
M  V30 5465 H 533.365 -1.84425 -4.48567 0
M  V30 5466 H 529.244 -0.620801 -4.56801 0
M  V30 5467 H 532.788 -3.83511 -5.82722 0
M  V30 5468 H 528.685 -2.60303 -5.90688 0
M  V30 5469 H 529.453 -4.43805 -6.87735 0
M  V30 5470 N 532.116 1.54067 -0.331816 0
M  V30 5471 C 533.344 2.05131 0.269996 0
M  V30 5472 C 533.759 1.20749 1.45138 0
M  V30 5473 O 533.116 0.240069 1.80914 0
M  V30 5474 C 533.167 3.54728 0.696456 0
M  V30 5475 O 532.888 4.35906 -0.43794 0
M  V30 5476 C 534.389 4.21916 1.36021 0
M  V30 5477 H 531.609 0.668807 0.0542042 0
M  V30 5478 H 534.153 1.98777 -0.4804 0
M  V30 5479 H 532.308 3.61342 1.39681 0
M  V30 5480 H 532.722 5.24404 -0.100334 0
M  V30 5481 H 534.196 5.28015 1.60947 0
M  V30 5482 H 534.673 3.73538 2.31011 0
M  V30 5483 H 535.279 4.19463 0.702212 0
M  V30 5484 N 533.594 0.0601682 1.57485 0
M  V30 5485 C 534.526 -0.94047 2.09016 0
M  V30 5486 C 535.539 -1.26897 1.01985 0
M  V30 5487 O 536.728 -1.22819 1.29529 0
M  V30 5488 C 533.828 -2.25955 2.52582 0
M  V30 5489 C 533.001 -2.11163 3.83052 0
M  V30 5490 C 532.06 -3.26273 4.12835 0
M  V30 5491 O 531.086 -3.01779 4.82616 0
M  V30 5492 N 532.288 -4.51022 3.65458 0
M  V30 5493 H 535.053 -0.500578 2.9549 0
M  V30 5494 H 532.614 -0.125852 1.6141 0
M  V30 5495 H 534.606 -3.01846 2.69575 0
M  V30 5496 H 533.176 -2.61481 1.71308 0
M  V30 5497 H 532.396 -1.19808 3.75552 0
M  V30 5498 H 533.684 -1.98517 4.68475 0
M  V30 5499 H 533.082 -4.73811 3.09062 0
M  V30 5500 H 531.639 -5.23978 3.87673 0
M  V30 5501 N 535.072 -1.5615 -0.213296 0
M  V30 5502 C 536.488 -1.49327 -0.56336 0
M  V30 5503 C 536.688 -0.756826 -1.86747 0
M  V30 5504 O 535.744 -0.299866 -2.50713 0
M  V30 5505 C 537.057 -2.9392 -0.634944 0
M  V30 5506 C 538.605 -3.04487 -0.725013 0
M  V30 5507 C 539.08 -4.50456 -0.82787 0
M  V30 5508 N 540.571 -4.54533 -0.891876 0
M  V30 5509 C 541.306 -5.64766 -0.991315 0
M  V30 5510 N 540.802 -6.84733 -1.05419 0
M  V30 5511 N 542.595 -5.52637 -1.02709 0
M  V30 5512 H 534.746 -2.02453 0.642366 0
M  V30 5513 H 537.009 -0.920548 0.226487 0
M  V30 5514 H 536.715 -3.50783 0.253859 0
M  V30 5515 H 536.589 -3.46274 -1.49579 0
M  V30 5516 H 538.976 -2.47685 -1.60425 0
M  V30 5517 H 539.057 -2.55289 0.161669 0
M  V30 5518 H 538.701 -5.07878 0.0469464 0
M  V30 5519 H 538.631 -4.97369 -1.73009 0
M  V30 5520 H 541.122 -3.68141 -0.85327 0
M  V30 5521 H 541.435 -7.64493 -1.13007 0
M  V30 5522 H 539.78 -6.87427 -1.02318 0
M  V30 5523 H 542.971 -4.5784 -0.974687 0
M  V30 5524 H 543.144 -6.38576 -1.10113 0
M  V30 5525 N 536.55 0.480323 -1.50102 0
M  V30 5526 C 537.482 1.59669 -1.64433 0
M  V30 5527 C 538.495 1.54063 -0.52615 0
M  V30 5528 O 539.684 1.59619 -0.798992 0
M  V30 5529 C 536.784 2.98527 -1.6042 0
M  V30 5530 C 535.957 3.291 -2.88117 0
M  V30 5531 C 535.016 4.47468 -2.76873 0
M  V30 5532 O 534.042 4.4823 -3.50825 0
M  V30 5533 N 535.244 5.48593 -1.89806 0
M  V30 5534 H 538.009 1.47795 -2.60723 0
M  V30 5535 H 535.57 0.66858 -1.4745 0
M  V30 5536 H 537.562 3.75666 -1.50523 0
M  V30 5537 H 536.132 3.04218 -0.719036 0
M  V30 5538 H 535.352 2.40662 -3.12211 0
M  V30 5539 H 536.64 3.46334 -3.72734 0
M  V30 5540 H 536.038 5.50791 -1.2902 0
M  V30 5541 H 534.595 6.24752 -1.85819 0
M  V30 5542 N 538.028 1.39524 0.732853 0
M  V30 5543 C 539.439 1.32905 1.31122 0
M  V30 5544 C 539.79 -0.00558708 1.96199 0
M  V30 5545 O 538.915 -0.907706 1.96443 0
M  V30 5546 C 539.51 2.40704 2.38426 0
M  V30 5547 C 538.069 2.37599 2.91931 0
M  V30 5548 C 537.216 2.2248 1.65523 0
M  V30 5549 H 540.167 1.49581 0.530207 0
M  V30 5550 H 540.188 2.07616 3.18867 0
M  V30 5551 H 539.7 3.37829 1.91033 0
M  V30 5552 H 537.801 1.44119 3.43599 0
M  V30 5553 H 537.914 3.32538 3.44899 0
M  V30 5554 H 536.278 1.69691 1.8994 0
M  V30 5555 H 537.061 3.21577 1.20178 0
M  V30 5556 N 539.506 -0.963266 1.24736 0
M  V30 5557 C 540.456 -2.0438 1.01058 0
M  V30 5558 C 541.44 -1.60824 -0.0495354 0
M  V30 5559 O 542.632 -1.76232 0.164741 0
M  V30 5560 C 539.761 -3.37617 0.622067 0
M  V30 5561 C 538.847 -3.87722 1.7185 0
M  V30 5562 N 539.238 -4.10715 2.95207 0
M  V30 5563 C 537.536 -4.16426 1.59703 0
M  V30 5564 C 538.237 -4.51872 3.66315 0
M  V30 5565 N 537.213 -4.57302 2.93897 0
M  V30 5566 H 541.015 -2.20138 1.94721 0
M  V30 5567 H 538.529 -1.14741 1.14927 0
M  V30 5568 H 540.526 -4.14638 0.43366 0
M  V30 5569 H 539.186 -3.23242 -0.307327 0
M  V30 5570 H 540.197 -3.98037 3.31341 0
M  V30 5571 H 536.874 -4.10962 0.73598 0
M  V30 5572 H 538.264 -4.78037 4.72155 0
M  V30 5573 N 540.985 -1.06182 -1.16461 0
M  V30 5574 C 541.915 -0.692861 -2.22984 0
M  V30 5575 C 542.896 0.314122 -1.67174 0
M  V30 5576 O 544.081 0.189499 -1.93273 0
M  V30 5577 C 541.211 -0.07732 -3.47214 0
M  V30 5578 C 540.165 -1.01015 -4.15909 0
M  V30 5579 C 539.491 -0.257973 -5.34077 0
M  V30 5580 C 540.791 -2.33868 -4.67015 0
M  V30 5581 H 542.485 -1.58343 -2.54102 0
M  V30 5582 H 540.031 -0.76279 -1.22137 0
M  V30 5583 H 541.984 0.19266 -4.20959 0
M  V30 5584 H 540.708 0.848254 -3.15392 0
M  V30 5585 H 539.367 -1.26486 -3.44088 0
M  V30 5586 H 539.015 0.670684 -4.98509 0
M  V30 5587 H 538.715 -0.879638 -5.80979 0
M  V30 5588 H 540.239 0.00448788 -6.106 0
M  V30 5589 H 541.653 -2.1279 -5.32347 0
M  V30 5590 H 540.05 -2.91522 -5.24533 0
M  V30 5591 H 541.12 -2.97019 -3.83286 0
M  V30 5592 N 542.463 1.3308 -0.844243 0
M  V30 5593 C 543.874 1.7992 -0.498566 0
M  V30 5594 C 544.225 1.69808 0.982834 0
M  V30 5595 O 543.35 1.25051 1.7661 0
M  V30 5596 C 543.945 3.26677 -0.898204 0
M  V30 5597 C 542.504 3.71513 -0.604583 0
M  V30 5598 C 541.651 2.54393 -1.10362 0
M  V30 5599 H 544.602 1.20526 -1.03244 0
M  V30 5600 H 544.623 3.79918 -0.21039 0
M  V30 5601 H 544.135 3.34004 -1.97643 0
M  V30 5602 H 542.236 3.69708 0.46335 0
M  V30 5603 H 542.349 4.64755 -1.16358 0
M  V30 5604 H 540.713 2.49246 -0.524273 0
M  V30 5605 H 541.496 2.6448 -2.18873 0
M  V30 5606 N 543.941 0.601185 1.45683 0
M  V30 5607 C 545.19 0.0914953 2.01492 0
M  V30 5608 C 545.503 -1.28331 1.47616 0
M  V30 5609 O 546.709 -1.88537 1.95362 0
M  V30 5610 C 545.165 0.11291 3.59723 0
M  V30 5611 C 544.773 1.48717 4.22596 0
M  V30 5612 C 546.517 -0.341871 4.23121 0
M  V30 5613 C 544.424 1.46531 5.7296 0
M  V30 5614 H 543.354 0.0304365 0.753385 0
M  V30 5615 H 546.005 0.755568 1.67223 0
M  V30 5616 H 544.387 -0.617692 3.91153 0
M  V30 5617 H 545.561 2.23897 4.02749 0
M  V30 5618 H 543.876 1.88351 3.71366 0
M  V30 5619 H 546.473 -0.377304 5.33367 0
M  V30 5620 H 546.816 -1.36325 3.93346 0
M  V30 5621 H 547.349 0.335256 3.96385 0
M  V30 5622 H 544.088 2.46408 6.07423 0
M  V30 5623 H 543.608 0.755997 5.95017 0
M  V30 5624 H 545.287 1.18618 6.36034 0
M  V30 5625 N 545.419 -1.53889 0.339982 0
M  V30 5626 C 546.329 -2.28604 -0.526988 0
M  V30 5627 C 547.345 -1.33578 -1.11503 0
M  V30 5628 O 548.521 -1.66612 -1.13148 0
M  V30 5629 C 545.586 -3.04164 -1.66389 0
M  V30 5630 C 544.647 -4.14809 -1.10599 0
M  V30 5631 C 543.88 -4.86756 -2.18871 0
M  V30 5632 O 544.103 -4.58343 -3.39526 0
M  V30 5633 O 543.037 -5.73289 -1.83366 0
M  V30 5634 H 546.863 -3.03594 0.0802707 0
M  V30 5635 H 544.448 -1.4903 0.105141 0
M  V30 5636 H 546.33 -3.51427 -2.32544 0
M  V30 5637 H 545.005 -2.32035 -2.25703 0
M  V30 5638 H 543.912 -3.71857 -0.409067 0
M  V30 5639 H 545.245 -4.89029 -0.557771 0
M  V30 5640 N 546.897 -0.0685191 -1.57451 0
M  V30 5641 C 548.308 0.464634 -1.80826 0
M  V30 5642 C 548.659 1.69847 -0.982169 0
M  V30 5643 O 547.784 2.15439 -0.203734 0
M  V30 5644 C 548.379 0.849721 -3.27971 0
M  V30 5645 C 546.938 1.32776 -3.52204 0
M  V30 5646 C 546.085 0.311332 -2.75547 0
M  V30 5647 H 549.036 -0.294248 -1.55948 0
M  V30 5648 H 549.057 1.71138 -3.39841 0
M  V30 5649 H 548.569 -0.0484736 -3.8807 0
M  V30 5650 H 546.67 2.24456 -2.97406 0
M  V30 5651 H 546.783 1.30794 -4.60901 0
M  V30 5652 H 545.147 0.787915 -2.42206 0
M  V30 5653 H 545.93 -0.579078 -3.38381 0
M  V30 5654 N 548.375 1.56261 0.205012 0
M  V30 5655 C 549.652 1.70856 0.952233 0
M  V30 5656 C 550.032 0.620501 2.01775 0
M  V30 5657 O 549.38 -0.370035 2.25484 0
M  V30 5658 C 549.59 3.12807 1.54767 0
M  V30 5659 C 550.938 3.72733 2.0336 0
M  V30 5660 O 551.962 3.15873 1.64629 0
M  V30 5661 O 550.821 4.72501 2.746 0
M  V30 5662 H 547.915 0.696496 0.445895 0
M  V30 5663 H 550.461 1.6857 0.195489 0
M  V30 5664 H 549.233 3.83465 0.779132 0
M  V30 5665 H 548.856 3.1928 2.36951 0
M  V30 5666 N 549.853 -0.472356 1.50355 0
M  V30 5667 C 551.099 -1.22634 1.6152 0
M  V30 5668 C 551.432 -1.91645 0.313995 0
M  V30 5669 O 550.707 -1.82059 -0.684446 0
M  V30 5670 C 550.99 -2.27099 2.7946 0
M  V30 5671 C 550.843 -1.62402 4.19459 0
M  V30 5672 C 552.162 -3.28421 2.92964 0
M  V30 5673 H 549.281 -0.444494 0.587873 0
M  V30 5674 H 551.923 -0.520321 1.82737 0
M  V30 5675 H 550.073 -2.87314 2.61501 0
M  V30 5676 H 551.745 -1.05793 4.49005 0
M  V30 5677 H 549.988 -0.927184 4.23776 0
M  V30 5678 H 550.659 -2.38309 4.97909 0
M  V30 5679 H 553.135 -2.78227 3.09401 0
M  V30 5680 H 552.011 -3.98845 3.77113 0
M  V30 5681 H 552.272 -3.92467 2.03525 0
M  V30 5682 N 551.331 -1.39911 -0.725443 0
M  V30 5683 C 552.579 -1.37382 -1.48224 0
M  V30 5684 C 552.9 0.0264107 -1.94982 0
M  V30 5685 O 552.17 0.979408 -1.6966 0
M  V30 5686 H 550.75 -0.505596 -0.549892 0
M  V30 5687 H 553.412 -1.7487 -0.860608 0
M  V30 5688 H 552.508 -2.04254 -2.3598 0
M  V30 5689 N 552.809 0.956637 -1.25245 0
M  V30 5690 C 554.039 1.7332 -1.12445 0
M  V30 5691 C 554.447 1.86392 0.324732 0
M  V30 5692 O 553.79 1.35967 1.23526 0
M  V30 5693 C 553.852 3.16603 -1.70303 0
M  V30 5694 C 553.516 3.26966 -3.19284 0
M  V30 5695 C 554.513 3.11434 -4.16299 0
M  V30 5696 C 552.198 3.50851 -3.59456 0
M  V30 5697 C 554.192 3.1963 -5.51467 0
M  V30 5698 C 551.879 3.58684 -4.94761 0
M  V30 5699 C 552.877 3.43087 -5.90576 0
M  V30 5700 O 552.565 3.50598 -7.2342 0
M  V30 5701 H 552.297 0.549981 -0.393061 0
M  V30 5702 H 554.851 1.20892 -1.66055 0
M  V30 5703 H 553.081 3.70385 -1.11138 0
M  V30 5704 H 554.77 3.76109 -1.52632 0
M  V30 5705 H 555.536 2.92853 -3.86604 0
M  V30 5706 H 551.415 3.62053 -2.85375 0
M  V30 5707 H 554.959 3.07373 -6.26233 0
M  V30 5708 H 550.856 3.76782 -5.24124 0
M  V30 5709 H 551.624 3.67242 -7.31489 0
M  V30 5710 N 554.287 1.06798 1.15896 0
M  V30 5711 C 555.535 0.786211 1.8618 0
M  V30 5712 C 555.856 -0.689547 1.82401 0
M  V30 5713 O 555.126 -1.49913 1.26107 0
M  V30 5714 H 553.706 0.287843 0.689315 0
M  V30 5715 H 556.368 1.35055 1.40521 0
M  V30 5716 H 555.464 1.1157 2.91477 0
M  V30 5717 N 555.766 -1.3263 0.851289 0
M  V30 5718 C 556.996 -2.01271 0.466222 0
M  V30 5719 C 557.404 -1.64156 -0.940714 0
M  V30 5720 O 556.747 -0.857109 -1.62479 0
M  V30 5721 C 556.809 -3.55695 0.521672 0
M  V30 5722 C 556.473 -4.16227 1.88691 0
M  V30 5723 C 557.47 -4.34699 2.85189 0
M  V30 5724 C 555.155 -4.52377 2.18313 0
M  V30 5725 C 557.149 -4.88484 4.09465 0
M  V30 5726 C 554.836 -5.05868 3.42843 0
M  V30 5727 C 555.834 -5.23869 4.38235 0
M  V30 5728 O 555.522 -5.76218 5.6056 0
M  V30 5729 H 555.254 -0.651034 0.18202 0
M  V30 5730 H 557.808 -1.7026 1.14894 0
M  V30 5731 H 556.038 -3.86086 -0.217888 0
M  V30 5732 H 557.727 -4.05613 0.152682 0
M  V30 5733 H 558.493 -4.07107 2.63607 0
M  V30 5734 H 554.372 -4.37652 1.44851 0
M  V30 5735 H 557.916 -5.02451 4.83931 0
M  V30 5736 H 553.813 -5.32891 3.64277 0
M  V30 5737 H 554.581 -5.94616 5.62471 0
M  V30 5738 N 557.244 -0.608902 -1.45362 0
M  V30 5739 C 558.493 -0.10218 -2.01441 0
M  V30 5740 C 558.806 1.27546 -1.48295 0
M  V30 5741 O 560.012 1.87498 -1.96359 0
M  V30 5742 C 558.468 -0.131985 -3.59658 0
M  V30 5743 C 558.076 -1.50956 -4.21801 0
M  V30 5744 C 559.82 0.319427 -4.23296 0
M  V30 5745 C 557.727 -1.49568 -5.72174 0
M  V30 5746 H 556.657 -0.0344314 -0.753213 0
M  V30 5747 H 559.308 -0.764426 -1.6682 0
M  V30 5748 H 557.69 0.596939 -3.91475 0
M  V30 5749 H 558.864 -2.26029 -4.01556 0
M  V30 5750 H 557.179 -1.90318 -3.70362 0
M  V30 5751 H 559.776 0.349013 -5.3356 0
M  V30 5752 H 560.119 1.34237 -3.94064 0
M  V30 5753 H 560.652 -0.356273 -3.96201 0
M  V30 5754 H 557.391 -2.49626 -6.06108 0
M  V30 5755 H 556.911 -0.787542 -5.94607 0
M  V30 5756 H 558.59 -1.21989 -6.35396 0
M  V30 5757 N 558.722 1.53707 -0.348139 0
M  V30 5758 C 559.67 2.26671 0.521808 0
M  V30 5759 C 560.664 1.28988 1.09811 0
M  V30 5760 O 561.87 1.4668 1.04332 0
M  V30 5761 H 558.245 0.728387 0.186968 0
M  V30 5762 H 560.216 2.98176 -0.115563 0
M  V30 5763 C 558.965 3.05591 1.6586 0
M  V30 5764 H 558.288 3.80589 1.22443 0
M  V30 5765 H 559.728 3.59851 2.24239 0
M  V30 5766 C 558.187 2.15366 2.59073 0
M  V30 5767 O 558.717 1.7528 3.61441 0
M  V30 5768 N 556.923 1.80352 2.27863 0
M  V30 5769 H 556.47 2.13149 1.44656 0
M  V30 5770 H 556.428 1.20268 2.90488 0
M  V30 5771 N 560.2 0.0768682 1.57412 0
M  V30 5772 C 561.11 -0.903207 2.16516 0
M  V30 5773 C 562.126 -1.32341 1.12968 0
M  V30 5774 O 563.302 -1.39507 1.45258 0
M  V30 5775 C 560.367 -2.1508 2.71922 0
M  V30 5776 C 559.428 -1.78653 3.90361 0
M  V30 5777 C 558.661 -2.97465 4.43114 0
M  V30 5778 O 558.884 -4.11638 3.94854 0
M  V30 5779 O 557.818 -2.76987 5.3438 0
M  V30 5780 H 561.644 -0.430427 3.00634 0
M  V30 5781 H 559.229 -0.146485 1.4868 0
M  V30 5782 H 561.111 -2.8823 3.07411 0
M  V30 5783 H 559.786 -2.61446 1.9086 0
M  V30 5784 H 558.693 -1.0274 3.59716 0
M  V30 5785 H 560.026 -1.37066 4.7273 0
M  V30 5786 N 561.678 -1.56367 -0.196722 0
M  V30 5787 C 562.61 -1.90941 -1.26784 0
M  V30 5788 C 563.623 -0.799928 -1.41792 0
M  V30 5789 O 564.812 -1.07833 -1.42247 0
M  V30 5790 C 561.912 -2.12477 -2.6402 0
M  V30 5791 C 561.085 -3.43616 -2.70641 0
M  V30 5792 C 560.144 -3.54284 -3.89062 0
M  V30 5793 O 559.17 -4.2712 -3.76241 0
M  V30 5794 N 560.372 -2.87252 -5.04447 0
M  V30 5795 H 563.137 -2.83417 -0.974417 0
M  V30 5796 H 560.698 -1.57215 -0.386649 0
M  V30 5797 H 562.69 -2.16904 -3.41665 0
M  V30 5798 H 561.26 -1.26508 -2.85857 0
M  V30 5799 H 560.48 -3.51072 -1.79283 0
M  V30 5800 H 561.768 -4.29958 -2.72054 0
M  V30 5801 H 561.166 -2.27901 -5.17762 0
M  V30 5802 H 559.723 -2.97308 -5.80044 0
M  V30 5803 N 563.156 0.464375 -1.50603 0
M  V30 5804 C 564.404 1.21356 -1.61608 0
M  V30 5805 C 564.725 1.92329 -0.321643 0
M  V30 5806 O 563.995 1.84403 0.661232 0
M  V30 5807 H 562.575 0.45094 -0.595535 0
M  V30 5808 H 565.237 0.535046 -1.87412 0
M  V30 5809 H 564.333 1.95783 -2.43054 0
M  V30 5810 N 564.634 1.40294 0.718013 0
M  V30 5811 C 565.566 1.36281 1.84283 0
M  V30 5812 C 566.579 0.268621 1.60569 0
M  V30 5813 O 567.768 0.528798 1.70487 0
M  V30 5814 C 564.868 1.09741 3.2064 0
M  V30 5815 C 564.041 2.30767 3.71571 0
M  V30 5816 C 563.1 2.00424 4.86535 0
M  V30 5817 O 562.126 2.73268 4.99313 0
M  V30 5818 N 563.328 0.980724 5.72156 0
M  V30 5819 H 566.093 2.3322 1.88225 0
M  V30 5820 H 563.654 1.34616 0.899453 0
M  V30 5821 H 565.646 0.874322 3.95143 0
M  V30 5822 H 564.216 0.214771 3.11861 0
M  V30 5823 H 563.436 2.68921 2.88228 0
M  V30 5824 H 564.724 3.11455 4.02335 0
M  V30 5825 H 564.122 0.377375 5.6444 0
M  V30 5826 H 562.679 0.817538 6.46653 0
M  V30 5827 N 566.112 -0.949982 1.2575 0
M  V30 5828 C 567.358 -1.69766 1.10938 0
M  V30 5829 C 567.691 -1.91056 -0.348028 0
M  V30 5830 O 566.966 -1.48488 -1.25625 0
M  V30 5831 C 567.249 -3.07779 1.86933 0
M  V30 5832 C 567.102 -2.9387 3.4053 0
M  V30 5833 C 568.421 -4.07749 1.65616 0
M  V30 5834 H 565.54 -0.616144 0.404396 0
M  V30 5835 H 568.182 -1.10394 1.54639 0
M  V30 5836 H 566.332 -3.58462 1.4979 0
M  V30 5837 H 568.004 -2.50476 3.87375 0
M  V30 5838 H 566.247 -2.29686 3.68004 0
M  V30 5839 H 566.918 -3.91719 3.88922 0
M  V30 5840 H 569.394 -3.65994 1.97959 0
M  V30 5841 H 568.27 -5.02348 2.21218 0
M  V30 5842 H 568.531 -4.38029 0.598595 0
M  V30 5843 N 567.59 -1.07411 -1.15328 0
M  V30 5844 C 568.836 -0.798831 -1.86404 0
M  V30 5845 C 569.169 0.673433 -1.8215 0
M  V30 5846 O 568.444 1.49428 -1.24505 0
M  V30 5847 C 568.727 -1.30846 -3.35487 0
M  V30 5848 C 568.58 -2.84532 -3.4837 0
M  V30 5849 C 569.899 -0.925486 -4.30259 0
M  V30 5850 H 567.018 -0.291659 -0.676834 0
M  V30 5851 H 569.66 -1.332 -1.35491 0
M  V30 5852 H 567.81 -0.854916 -3.78977 0
M  V30 5853 H 569.482 -3.3818 -3.13739 0
M  V30 5854 H 567.725 -3.22699 -2.8991 0
M  V30 5855 H 568.396 -3.15259 -4.53118 0
M  V30 5856 H 570.872 -1.3163 -3.94731 0
M  V30 5857 H 569.748 -1.3094 -5.33053 0
M  V30 5858 H 570.009 0.168525 -4.41779 0
M  V30 5859 N 569.068 1.32177 -0.85831 0
M  V30 5860 C 570.317 1.96392 -0.459689 0
M  V30 5861 C 570.63 1.68659 0.990632 0
M  V30 5862 O 571.836 2.26641 1.49485 0
M  V30 5863 C 570.292 3.51542 -0.7711 0
M  V30 5864 C 569.9 3.8813 -2.2374 0
M  V30 5865 C 571.644 4.2221 -0.44038 0
M  V30 5866 C 569.551 5.36341 -2.49183 0
M  V30 5867 H 568.481 0.735007 -0.168169 0
M  V30 5868 H 571.132 1.50518 -1.0496 0
M  V30 5869 H 569.514 3.95846 -0.11058 0
M  V30 5870 H 570.688 3.54824 -2.94001 0
M  V30 5871 H 569.003 3.30497 -2.533 0
M  V30 5872 H 571.6 5.31234 -0.607855 0
M  V30 5873 H 571.943 4.11683 0.618291 0
M  V30 5874 H 572.476 3.83502 -1.05695 0
M  V30 5875 H 569.215 5.51892 -3.53689 0
M  V30 5876 H 568.735 5.7104 -1.83504 0
M  V30 5877 H 570.414 6.03466 -2.33318 0
M  V30 5878 N 570.547 0.616602 1.45037 0
M  V30 5879 C 571.497 -0.118543 2.27692 0
M  V30 5880 C 572.481 -0.830025 1.37838 0
M  V30 5881 O 573.673 -0.718528 1.6176 0
M  V30 5882 C 570.802 -1.10924 3.24886 0
M  V30 5883 C 569.888 -0.398134 4.22227 0
M  V30 5884 N 570.279 0.565233 5.02632 0
M  V30 5885 C 568.577 -0.644506 4.41319 0
M  V30 5886 C 569.278 0.984043 5.73316 0
M  V30 5887 N 568.254 0.325879 5.42622 0
M  V30 5888 H 572.056 0.621239 2.87259 0
M  V30 5889 H 569.57 0.440968 1.56299 0
M  V30 5890 H 571.567 -1.65038 3.82842 0
M  V30 5891 H 570.227 -1.84948 2.66879 0
M  V30 5892 H 571.238 0.942395 5.09254 0
M  V30 5893 H 567.915 -1.36873 3.94426 0
M  V30 5894 H 569.305 1.77911 6.47918 0
M  V30 5895 N 572.025 -1.5352 0.356285 0
M  V30 5896 C 573.25 -2.06007 -0.239961 0
M  V30 5897 C 573.675 -1.22872 -1.42422 0
M  V30 5898 O 573.033 -0.245516 -1.7963 0
M  V30 5899 C 573.081 -3.5522 -0.620587 0
M  V30 5900 O 572.185 -3.74864 -1.71902 0
M  V30 5901 H 571.526 -0.662961 -0.0371377 0
M  V30 5902 H 574.056 -1.98033 0.514194 0
M  V30 5903 H 574.066 -3.98081 -0.894197 0
M  V30 5904 H 572.741 -4.15175 0.245407 0
M  V30 5905 H 571.318 -3.43904 -1.44169 0
M  V30 5906 N 573.503 -0.0852151 -1.57369 0
M  V30 5907 C 574.45 0.877268 -2.13478 0
M  V30 5908 C 575.42 1.28642 -1.05073 0
M  V30 5909 O 576.605 1.36992 -1.32808 0
M  V30 5910 C 573.745 2.13464 -2.71159 0
M  V30 5911 C 572.858 1.77691 -3.93764 0
M  V30 5912 C 571.993 2.98139 -4.39643 0
M  V30 5913 C 571.032 2.58447 -5.54862 0
M  V30 5914 N 570.169 3.71698 -5.95639 0
M  V30 5915 H 575.009 0.391933 -2.95411 0
M  V30 5916 H 572.546 0.181796 -1.45972 0
M  V30 5917 H 574.504 2.87086 -3.02717 0
M  V30 5918 H 573.134 2.59514 -1.91969 0
M  V30 5919 H 572.186 0.940768 -3.68583 0
M  V30 5920 H 573.498 1.44497 -4.77412 0
M  V30 5921 H 572.652 3.80026 -4.72933 0
M  V30 5922 H 571.391 3.34536 -3.54876 0
M  V30 5923 H 570.396 1.74984 -5.21211 0
M  V30 5924 H 571.621 2.23205 -6.41371 0
M  V30 5925 H 569.567 4.07831 -5.13819 0
M  V30 5926 H 569.484 3.42317 -6.74059 0
M  V30 5927 H 570.752 4.54123 -6.33555 0
M  V30 5928 N 574.981 1.5647 0.188427 0
M  V30 5929 C 576.206 1.85486 0.927891 0
M  V30 5930 C 576.631 0.669575 1.75779 0
M  V30 5931 O 575.989 -0.381573 1.77239 0
M  V30 5932 C 576.037 3.12784 1.7944 0
M  V30 5933 O 575.141 2.93805 2.894 0
M  V30 5934 H 574.482 0.610585 0.260925 0
M  V30 5935 H 577.012 2.037 0.191729 0
M  V30 5936 H 577.022 3.43749 2.19774 0
M  V30 5937 H 575.697 3.98671 1.18468 0
M  V30 5938 H 574.274 2.74153 2.52774 0
M  V30 5939 N 576.459 -0.456382 1.50847 0
M  V30 5940 C 577.705 -1.20914 1.62811 0
M  V30 5941 C 578.038 -1.91301 0.334304 0
M  V30 5942 O 577.313 -1.82775 -0.665098 0
M  V30 5943 C 577.596 -2.24122 2.81853 0
M  V30 5944 C 577.449 -1.57944 4.21158 0
M  V30 5945 C 578.768 -3.25295 2.96431 0
M  V30 5946 H 575.887 -0.438233 0.592554 0
M  V30 5947 H 578.529 -0.50091 1.83278 0
M  V30 5948 H 576.679 -2.84524 2.64534 0
M  V30 5949 H 578.351 -1.01025 4.50102 0
M  V30 5950 H 576.594 -0.882185 4.24735 0
M  V30 5951 H 577.265 -2.33014 5.00408 0
M  V30 5952 H 579.741 -2.7493 3.12335 0
M  V30 5953 H 578.617 -3.94822 3.81322 0
M  V30 5954 H 578.878 -3.90286 2.07676 0
M  V30 5955 N 577.937 -1.40673 -0.710563 0
M  V30 5956 C 578.9 -1.4108 -1.80635 0
M  V30 5957 C 579.9 -0.303783 -1.57904 0
M  V30 5958 O 581.09 -0.562937 -1.64853 0
M  V30 5959 C 578.222 -1.20748 -3.18799 0
M  V30 5960 H 579.415 -2.38612 -1.81671 0
M  V30 5961 H 576.968 -1.26595 -0.916704 0
M  V30 5962 H 577.703 -0.239964 -3.23411 0
M  V30 5963 H 577.488 -2.00941 -3.36698 0
M  V30 5964 H 578.978 -1.23833 -3.98817 0
M  V30 5965 N 579.415 0.9433 -1.26252 0
M  V30 5966 C 580.664 1.68369 -1.11062 0
M  V30 5967 C 580.977 1.92514 0.346104 0
M  V30 5968 O 582.183 2.64358 0.618646 0
M  V30 5969 C 580.639 3.03171 -1.93946 0
M  V30 5970 C 580.247 2.86782 -3.4418 0
M  V30 5971 C 581.991 3.80916 -1.87359 0
M  V30 5972 C 579.898 4.17044 -4.19319 0
M  V30 5973 H 578.828 0.631469 -0.412023 0
M  V30 5974 H 581.479 1.04922 -1.50544 0
M  V30 5975 H 579.861 3.67587 -1.47296 0
M  V30 5976 H 581.035 2.31229 -3.98585 0
M  V30 5977 H 579.35 2.22482 -3.51981 0
M  V30 5978 H 581.947 4.77417 -2.40784 0
M  V30 5979 H 582.29 4.07658 -0.843857 0
M  V30 5980 H 582.823 3.2327 -2.31821 0
M  V30 5981 H 579.562 3.95487 -5.22753 0
M  V30 5982 H 579.082 4.72319 -3.69696 0
M  V30 5983 H 580.761 4.85513 -4.27651 0
M  V30 5984 N 580.893 1.08022 1.14757 0
M  V30 5985 C 581.843 0.676345 2.17737 0
M  V30 5986 C 582.827 -0.302018 1.5804 0
M  V30 5987 O 584.019 -0.11466 1.76628 0
M  V30 5988 C 581.148 0.082984 3.432 0
M  V30 5989 C 580.234 1.0869 4.09936 0
M  V30 5990 N 580.625 2.26891 4.52055 0
M  V30 5991 C 578.923 0.921768 4.36371 0
M  V30 5992 C 579.624 2.90636 5.0389 0
M  V30 5993 N 578.6 2.18266 4.97856 0
M  V30 5994 H 582.402 1.5765 2.4804 0
M  V30 5995 H 579.916 0.954374 1.31398 0
M  V30 5996 H 581.913 -0.224289 4.16296 0
M  V30 5997 H 580.573 -0.812206 3.14378 0
M  V30 5998 H 581.584 2.6457 4.45223 0
M  V30 5999 H 578.261 0.0800499 4.17423 0
M  V30 6000 H 579.651 3.9104 5.46386 0
M  V30 6001 N 582.371 -1.3172 0.865308 0
M  V30 6002 C 583.301 -2.31109 0.333302 0
M  V30 6003 C 584.282 -1.60148 -0.573301 0
M  V30 6004 O 585.467 -1.87882 -0.491305 0
M  V30 6005 C 582.597 -3.44104 -0.470078 0
M  V30 6006 C 581.551 -4.26623 0.343021 0
M  V30 6007 C 580.877 -5.31482 -0.585756 0
M  V30 6008 C 582.177 -4.98001 1.57456 0
M  V30 6009 H 583.871 -2.75855 1.1638 0
M  V30 6010 H 581.417 -1.3262 0.561069 0
M  V30 6011 H 583.37 -4.12682 -0.852752 0
M  V30 6012 H 582.094 -2.98112 -1.33404 0
M  V30 6013 H 580.753 -3.59707 0.707583 0
M  V30 6014 H 580.401 -4.81741 -1.44686 0
M  V30 6015 H 580.101 -5.87582 -0.0456494 0
M  V30 6016 H 581.625 -6.0292 -0.965375 0
M  V30 6017 H 583.039 -5.59201 1.26359 0
M  V30 6018 H 581.436 -5.63876 2.05339 0
M  V30 6019 H 582.506 -4.25253 2.32997 0
M  V30 6020 N 583.85 -0.624285 -1.44708 0
M  V30 6021 C 584.8 0.106466 -2.27751 0
M  V30 6022 C 585.784 0.822703 -1.38277 0
M  V30 6023 O 586.976 0.709939 -1.62138 0
M  V30 6024 C 584.105 1.092 -3.25469 0
M  V30 6025 C 583.191 0.375737 -4.22432 0
M  V30 6026 N 583.582 -0.591881 -5.02325 0
M  V30 6027 C 581.88 0.621093 -4.41654 0
M  V30 6028 C 582.581 -1.01443 -5.72786 0
M  V30 6029 N 581.557 -0.354651 -5.42442 0
M  V30 6030 H 585.359 -0.636464 -2.86926 0
M  V30 6031 H 582.873 -0.44925 -1.56062 0
M  V30 6032 H 584.87 1.63006 -3.83712 0
M  V30 6033 H 583.529 1.8353 -2.67856 0
M  V30 6034 H 584.541 -0.969389 -5.08747 0
M  V30 6035 H 581.218 1.34779 -3.95147 0
M  V30 6036 H 582.608 -1.81345 -6.46965 0
M  V30 6037 N 585.328 1.53329 -0.364422 0
M  V30 6038 C 586.291 2.24323 0.470292 0
M  V30 6039 C 587.291 1.25068 1.01067 0
M  V30 6040 O 588.481 1.49354 0.896605 0
M  V30 6041 C 585.613 2.97908 1.65722 0
M  V30 6042 H 586.806 2.9952 -0.150917 0
M  V30 6043 H 584.359 1.55868 -0.116092 0
M  V30 6044 H 585.094 2.2695 2.31655 0
M  V30 6045 H 584.879 3.70732 1.27671 0
M  V30 6046 H 586.369 3.5188 2.24878 0
M  V30 6047 N 586.806 0.0935595 1.57322 0
M  V30 6048 C 587.736 -0.863062 2.16964 0
M  V30 6049 C 588.717 -1.29528 1.10256 0
M  V30 6050 O 589.902 -1.36245 1.38387 0
M  V30 6051 C 587.032 -2.12276 2.74875 0
M  V30 6052 C 585.986 -1.82921 3.86942 0
M  V30 6053 C 585.312 -3.15707 4.31548 0
M  V30 6054 C 586.612 -1.11737 5.10208 0
M  V30 6055 H 588.306 -0.366145 2.97153 0
M  V30 6056 H 585.852 -0.174673 1.42937 0
M  V30 6057 H 587.805 -2.79634 3.1525 0
M  V30 6058 H 586.529 -2.64248 1.91938 0
M  V30 6059 H 585.188 -1.17961 3.47103 0
M  V30 6060 H 584.836 -3.65563 3.45504 0
M  V30 6061 H 584.536 -2.96849 5.07104 0
M  V30 6062 H 586.06 -3.84226 4.74555 0
M  V30 6063 H 587.474 -1.69203 5.47762 0
M  V30 6064 H 585.871 -1.03064 5.91183 0
M  V30 6065 H 586.941 -0.0998818 4.84797 0
M  V30 6066 N 588.284 -1.56567 -0.180126 0
M  V30 6067 C 589.217 -1.90813 -1.25163 0
M  V30 6068 C 590.195 -0.7699 -1.43218 0
M  V30 6069 O 591.379 -1.02236 -1.58367 0
M  V30 6070 C 588.506 -2.15138 -2.61597 0
M  V30 6071 C 587.552 -3.37834 -2.60328 0
M  V30 6072 S 588.385 -4.92486 -2.1028 0
M  V30 6073 C 589.541 -5.19896 -3.48509 0
M  V30 6074 H 589.774 -2.81398 -0.959283 0
M  V30 6075 H 587.307 -1.49541 -0.3843 0
M  V30 6076 H 589.265 -2.29835 -3.40127 0
M  V30 6077 H 587.926 -1.25276 -2.88036 0
M  V30 6078 H 587.119 -3.52027 -3.60684 0
M  V30 6079 H 586.721 -3.22208 -1.8989 0
M  V30 6080 H 589.013 -5.11334 -4.44459 0
M  V30 6081 H 589.956 -6.21571 -3.39198 0
M  V30 6082 H 590.364 -4.47489 -3.44114 0
M  V30 6083 N 589.762 0.448376 -1.51087 0
M  V30 6084 C 591.011 1.19561 -1.62444 0
M  V30 6085 C 591.324 1.92602 -0.341151 0
M  V30 6086 O 592.53 2.69439 -0.333936 0
M  V30 6087 C 590.986 2.17373 -2.8684 0
M  V30 6088 C 590.594 1.5003 -4.22131 0
M  V30 6089 C 592.338 2.92597 -3.0755 0
M  V30 6090 C 590.245 2.46262 -5.37689 0
M  V30 6091 H 589.175 0.449975 -0.605011 0
M  V30 6092 H 591.826 0.463735 -1.77544 0
M  V30 6093 H 590.208 2.93948 -2.65349 0
M  V30 6094 H 591.382 0.790886 -4.53962 0
M  V30 6095 H 589.697 0.870011 -4.0721 0
M  V30 6096 H 592.294 3.64663 -3.91056 0
M  V30 6097 H 592.637 3.53306 -2.20183 0
M  V30 6098 H 593.17 2.23131 -3.29329 0
M  V30 6099 H 589.909 1.90258 -6.27281 0
M  V30 6100 H 589.429 3.15289 -5.10248 0
M  V30 6101 H 591.108 3.07623 -5.6919 0
M  V30 6102 N 591.24 1.41047 0.703093 0
M  V30 6103 C 592.203 1.42036 1.79884 0
M  V30 6104 C 593.203 0.312153 1.57741 0
M  V30 6105 O 594.393 0.571672 1.64553 0
M  V30 6106 C 591.525 1.22437 3.18154 0
M  V30 6107 H 592.718 2.39572 1.80403 0
M  V30 6108 H 590.271 1.27079 0.909977 0
M  V30 6109 H 591.006 0.257112 3.23279 0
M  V30 6110 H 590.791 2.02723 3.35627 0
M  V30 6111 H 592.281 1.25946 3.98155 0
M  V30 6112 N 592.718 -0.936591 1.26751 0
M  V30 6113 C 594.129 -1.49816 1.1141 0
M  V30 6114 C 594.48 -1.9383 -0.304015 0
M  V30 6115 O 593.605 -1.80346 -1.196 0
M  V30 6116 C 594.2 -2.72271 2.01629 0
M  V30 6117 C 592.759 -3.2468 1.9042 0
M  V30 6118 C 591.906 -1.97444 1.94708 0
M  V30 6119 H 594.857 -0.751604 1.39773 0
M  V30 6120 H 594.878 -3.46741 1.56688 0
M  V30 6121 H 594.39 -2.40205 3.04833 0
M  V30 6122 H 592.491 -3.61525 0.901674 0
M  V30 6123 H 592.604 -3.91476 2.76195 0
M  V30 6124 H 590.968 -2.13545 1.38818 0
M  V30 6125 H 591.751 -1.67703 2.9955 0
M  V30 6126 N 594.196 -1.08629 -1.14182 0
M  V30 6127 C 595.444 -0.815731 -1.84906 0
M  V30 6128 C 595.765 0.660441 -1.83475 0
M  V30 6129 O 595.035 1.47888 -1.28476 0
M  V30 6130 H 593.615 -0.298773 -0.684648 0
M  V30 6131 H 596.277 -1.37274 -1.38354 0
M  V30 6132 H 595.373 -1.16193 -2.89665 0
M  V30 6133 N 595.674 1.31259 -0.872281 0
M  V30 6134 C 596.604 2.30929 -0.345554 0
M  V30 6135 C 597.585 1.60449 0.5648 0
M  V30 6136 O 598.77 1.8814 0.481335 0
M  V30 6137 C 595.9 3.44348 0.451823 0
M  V30 6138 C 594.854 4.26435 -0.365641 0
M  V30 6139 C 594.18 5.31785 0.557562 0
M  V30 6140 C 595.48 4.97159 -1.60095 0
M  V30 6141 H 597.174 2.75234 -1.17841 0
M  V30 6142 H 594.72 1.3232 -0.568094 0
M  V30 6143 H 596.673 4.13128 0.830854 0
M  V30 6144 H 595.397 2.98816 1.31821 0
M  V30 6145 H 594.056 3.59326 -0.726649 0
M  V30 6146 H 593.704 4.82502 1.4213 0
M  V30 6147 H 593.404 5.87598 0.0144878 0
M  V30 6148 H 594.928 6.03424 0.933387 0
M  V30 6149 H 596.342 5.58523 -1.29323 0
M  V30 6150 H 594.739 5.62779 -2.08327 0
M  V30 6151 H 595.809 4.24012 -2.35249 0
M  V30 6152 N 597.152 0.631951 1.44375 0
M  V30 6153 C 598.4 0.136497 2.01639 0
M  V30 6154 C 598.721 -1.24637 1.49969 0
M  V30 6155 O 597.991 -1.82827 0.70363 0
M  V30 6156 H 596.571 0.0474703 0.74549 0
M  V30 6157 H 599.233 0.818837 1.76865 0
M  V30 6158 H 598.329 0.104817 3.11924 0
M  V30 6159 N 598.631 -1.53133 0.372548 0
M  V30 6160 C 599.561 -2.28876 -0.462412 0
M  V30 6161 C 600.542 -1.31583 -1.07796 0
M  V30 6162 O 601.727 -1.60461 -1.09389 0
M  V30 6163 C 598.857 -3.08317 -1.59868 0
M  V30 6164 C 597.811 -4.13355 -1.11003 0
M  V30 6165 C 597.137 -4.8092 -2.33708 0
M  V30 6166 C 598.437 -5.21955 -0.18983 0
M  V30 6167 H 600.131 -2.9892 0.169511 0
M  V30 6168 H 597.677 -1.43761 0.0829658 0
M  V30 6169 H 599.63 -3.60055 -2.18949 0
M  V30 6170 H 598.354 -2.35976 -2.25794 0
M  V30 6171 H 597.013 -3.62573 -0.541869 0
M  V30 6172 H 596.661 -4.05144 -2.98106 0
M  V30 6173 H 596.361 -5.51904 -2.01682 0
M  V30 6174 H 597.885 -5.35455 -2.93462 0
M  V30 6175 H 599.299 -5.69153 -0.688319 0
M  V30 6176 H 597.696 -6.00087 0.0398887 0
M  V30 6177 H 598.766 -4.78811 0.766057 0
M  V30 6178 N 600.109 -0.101901 -1.5727 0
M  V30 6179 C 601.019 0.868647 -2.17926 0
M  V30 6180 C 602.035 1.30527 -1.1506 0
M  V30 6181 O 603.211 1.37178 -1.47459 0
M  V30 6182 C 600.276 2.10727 -2.75309 0
M  V30 6183 C 599.337 1.7242 -3.93154 0
M  V30 6184 C 598.57 2.90377 -4.47791 0
M  V30 6185 O 598.793 4.05305 -4.01353 0
M  V30 6186 O 597.727 2.6845 -5.38719 0
M  V30 6187 H 601.553 0.382544 -3.01281 0
M  V30 6188 H 599.138 0.122812 -1.48894 0
M  V30 6189 H 601.02 2.83303 -3.11958 0
M  V30 6190 H 599.695 2.58376 -1.94996 0
M  V30 6191 H 598.602 0.970039 -3.61305 0
M  V30 6192 H 599.935 1.29528 -4.74851 0
M  V30 6193 N 601.587 1.56661 0.17182 0
M  V30 6194 C 602.834 1.81965 0.888529 0
M  V30 6195 C 603.162 0.6789 1.82267 0
M  V30 6196 O 602.417 -0.333875 1.92831 0
M  V30 6197 C 602.716 3.13435 1.71736 0
M  V30 6198 C 602.382 4.41159 0.932184 0
M  V30 6199 C 601.044 4.75851 0.715481 0
M  V30 6200 C 603.396 5.19803 0.381387 0
M  V30 6201 C 600.724 5.86666 -0.063126 0
M  V30 6202 C 603.076 6.31433 -0.384129 0
M  V30 6203 C 601.74 6.64692 -0.611637 0
M  V30 6204 H 601.01 0.665859 0.325136 0
M  V30 6205 H 603.657 1.90884 0.153495 0
M  V30 6206 H 601.962 2.99857 2.52177 0
M  V30 6207 H 603.659 3.30224 2.27493 0
M  V30 6208 H 600.249 4.13947 1.11112 0
M  V30 6209 H 604.433 4.93396 0.536148 0
M  V30 6210 H 599.689 6.10892 -0.249136 0
M  V30 6211 H 603.863 6.91577 -0.818185 0
M  V30 6212 H 601.49 7.50398 -1.21684 0
M  V30 6213 N 603.065 -0.440357 1.51323 0
M  V30 6214 C 604.476 -1.02032 1.56353 0
M  V30 6215 C 604.827 -1.92382 0.385197 0
M  V30 6216 O 603.952 -2.10583 -0.498373 0
M  V30 6217 C 604.547 -1.85723 2.83359 0
M  V30 6218 C 603.106 -2.38774 2.90971 0
M  V30 6219 C 602.253 -1.17908 2.50984 0
M  V30 6220 H 605.204 -0.221744 1.57143 0
M  V30 6221 H 605.225 -2.71141 2.66951 0
M  V30 6222 H 604.737 -1.19939 3.69102 0
M  V30 6223 H 602.838 -3.08021 2.09651 0
M  V30 6224 H 602.951 -2.71778 3.94555 0
M  V30 6225 H 601.315 -1.52347 2.04114 0
M  V30 6226 H 602.098 -0.537393 3.39068 0
M  V30 6227 N 604.543 -1.41418 -0.695603 0
M  V30 6228 C 605.49 -1.43264 -1.80954 0
M  V30 6229 C 606.46 -0.287016 -1.63601 0
M  V30 6230 O 607.645 -0.488054 -1.84452 0
M  V30 6231 C 604.785 -1.32054 -3.18835 0
M  V30 6232 C 603.898 -2.56485 -3.4762 0
M  V30 6233 C 603.033 -2.3757 -4.75115 0
M  V30 6234 C 602.072 -3.57477 -4.96867 0
M  V30 6235 N 601.209 -3.37632 -6.15588 0
M  V30 6236 H 606.049 -2.38467 -1.78711 0
M  V30 6237 H 603.586 -1.18415 -0.872715 0
M  V30 6238 H 605.544 -1.23558 -3.98484 0
M  V30 6239 H 604.174 -0.404592 -3.20254 0
M  V30 6240 H 603.226 -2.75432 -2.62376 0
M  V30 6241 H 604.538 -3.45678 -3.59594 0
M  V30 6242 H 603.692 -2.2654 -5.62818 0
M  V30 6243 H 602.431 -1.45834 -4.65386 0
M  V30 6244 H 601.436 -3.68961 -4.07612 0
M  V30 6245 H 602.661 -4.50167 -5.08455 0
M  V30 6246 H 600.607 -2.48596 -6.07072 0
M  V30 6247 H 600.524 -4.20401 -6.2833 0
M  V30 6248 H 601.792 -3.30375 -7.06026 0
M  V30 6249 N 606.021 0.929856 -1.27246 0
M  V30 6250 C 607.298 1.65544 -1.04186 0
M  V30 6251 C 607.678 2.06796 0.424097 0
M  V30 6252 O 607.026 1.80053 1.40688 0
M  V30 6253 C 607.236 2.85912 -2.00138 0
M  V30 6254 C 608.584 3.57305 -2.29387 0
M  V30 6255 O 609.608 2.96036 -1.98094 0
M  V30 6256 O 608.467 4.67688 -2.82719 0
M  V30 6257 H 605.561 0.725473 -0.397011 0
M  V30 6258 H 608.107 0.980583 -1.38501 0
M  V30 6259 H 606.879 2.52403 -2.99013 0
M  V30 6260 H 606.502 3.61118 -1.66371 0
M  V30 6261 N 607.499 1.09233 1.13605 0
M  V30 6262 C 608.429 0.751738 2.21068 0
M  V30 6263 C 609.41 -0.269688 1.67948 0
M  V30 6264 O 610.595 -0.13819 1.93708 0
M  V30 6265 C 607.725 0.16935 3.46887 0
M  V30 6266 C 606.679 1.12007 4.13084 0
M  V30 6267 C 606.005 0.399483 5.33206 0
M  V30 6268 C 607.305 2.46168 4.6065 0
M  V30 6269 H 608.999 1.65024 2.49815 0
M  V30 6270 H 606.545 0.794905 1.20072 0
M  V30 6271 H 608.498 -0.0809824 4.21322 0
M  V30 6272 H 607.222 -0.764335 3.1753 0
M  V30 6273 H 605.881 1.35564 3.40614 0
M  V30 6274 H 605.529 -0.538277 5.00112 0
M  V30 6275 H 605.229 1.03337 5.78442 0
M  V30 6276 H 606.753 0.157403 6.10397 0
M  V30 6277 H 608.167 2.26829 5.26518 0
M  V30 6278 H 606.564 3.05326 5.1662 0
M  V30 6279 H 607.634 3.07076 3.75276 0
M  V30 6280 N 608.977 -1.30795 0.87923 0
M  V30 6281 C 610.223 -1.96653 0.495519 0
M  V30 6282 C 610.556 -1.69282 -0.951703 0
M  V30 6283 O 609.831 -0.994374 -1.6716 0
M  V30 6284 C 610.114 -3.51898 0.764174 0
M  V30 6285 C 609.967 -3.88808 2.2616 0
M  V30 6286 C 611.286 -4.39462 0.236825 0
M  V30 6287 H 608.405 -0.7143 0.181507 0
M  V30 6288 H 611.047 -1.54765 1.10217 0
M  V30 6289 H 609.197 -3.87709 0.247841 0
M  V30 6290 H 610.869 -3.63051 2.8459 0
M  V30 6291 H 609.112 -3.37082 2.73053 0
M  V30 6292 H 609.783 -4.97086 2.4002 0
M  V30 6293 H 612.259 -4.10528 0.678683 0
M  V30 6294 H 611.135 -5.47018 0.454176 0
M  V30 6295 H 611.396 -4.33621 -0.861683 0
M  V30 6296 N 610.455 -0.639598 -1.44038 0
M  V30 6297 C 611.385 0.0469443 -2.33453 0
M  V30 6298 C 612.366 0.82609 -1.48694 0
M  V30 6299 O 613.551 0.790285 -1.77393 0
M  V30 6300 C 610.681 1.02338 -3.3188 0
M  V30 6301 C 609.635 0.355284 -4.26523 0
M  V30 6302 C 608.961 1.44221 -5.14883 0
M  V30 6303 C 610.261 -0.743798 -5.16977 0
M  V30 6304 H 611.955 -0.699735 -2.91108 0
M  V30 6305 H 609.501 -0.337946 -1.39978 0
M  V30 6306 H 611.454 1.51247 -3.93322 0
M  V30 6307 H 610.178 1.80105 -2.72451 0
M  V30 6308 H 608.837 -0.113239 -3.66425 0
M  V30 6309 H 608.485 2.21097 -4.51802 0
M  V30 6310 H 608.185 1.00052 -5.79019 0
M  V30 6311 H 609.709 1.93295 -5.79197 0
M  V30 6312 H 611.123 -0.337444 -5.72306 0
M  V30 6313 H 609.52 -1.10914 -5.89761 0
M  V30 6314 H 610.59 -1.60745 -4.57481 0
M  V30 6315 N 611.933 1.52934 -0.380664 0
M  V30 6316 C 613.179 2.01765 0.20458 0
M  V30 6317 C 613.512 1.26696 1.47179 0
M  V30 6318 O 612.787 0.364936 1.91046 0
M  V30 6319 C 613.07 3.56869 0.481269 0
M  V30 6320 C 612.923 4.42617 -0.800629 0
M  V30 6321 C 614.242 4.2121 1.27554 0
M  V30 6322 H 611.361 0.733388 0.0728803 0
M  V30 6323 H 614.003 1.83068 -0.50853 0
M  V30 6324 H 612.153 3.72932 1.08875 0
M  V30 6325 H 613.825 4.38323 -1.43773 0
M  V30 6326 H 612.068 4.09977 -1.4178 0
M  V30 6327 H 612.739 5.49134 -0.561791 0
M  V30 6328 H 615.215 4.09072 0.761514 0
M  V30 6329 H 614.091 5.29732 1.43788 0
M  V30 6330 H 614.352 3.78269 2.28833 0
M  V30 6331 N 613.412 0.11024 1.57214 0
M  V30 6332 C 614.344 -0.873497 2.11902 0
M  V30 6333 C 615.357 -1.23588 1.05971 0
M  V30 6334 O 616.546 -1.18636 1.33371 0
M  V30 6335 C 613.646 -2.17805 2.59643 0
M  V30 6336 C 612.819 -1.98869 3.89576 0
M  V30 6337 C 611.878 -3.12974 4.23006 0
M  V30 6338 O 610.904 -2.86272 4.91973 0
M  V30 6339 N 612.106 -4.39167 3.79622 0
M  V30 6340 H 614.871 -0.406317 2.96933 0
M  V30 6341 H 612.432 -0.074437 1.61729 0
M  V30 6342 H 614.424 -2.93117 2.79042 0
M  V30 6343 H 612.994 -2.55899 1.7954 0
M  V30 6344 H 612.214 -1.078 3.79174 0
M  V30 6345 H 613.502 -1.83512 4.74553 0
M  V30 6346 H 612.9 -4.63739 3.2398 0
M  V30 6347 H 611.457 -5.11379 4.04147 0
M  V30 6348 N 614.89 -1.56749 -0.16351 0
M  V30 6349 C 615.838 -1.97939 -1.22159 0
M  V30 6350 C 616.832 -0.869288 -1.45395 0
M  V30 6351 O 618.038 -1.05443 -1.45883 0
M  V30 6352 H 614.413 -0.629869 -0.410815 0
M  V30 6353 H 616.384 -2.86115 -0.847381 0
M  V30 6354 C 615.133 -2.36206 -2.55151 0
M  V30 6355 H 614.456 -3.2117 -2.38097 0
M  V30 6356 H 615.896 -2.68863 -3.27854 0
M  V30 6357 C 614.355 -1.20841 -3.14482 0
M  V30 6358 O 614.885 -0.500258 -3.98573 0
M  V30 6359 N 613.091 -0.976943 -2.73686 0
M  V30 6360 H 612.638 -1.55457 -2.05404 0
M  V30 6361 H 612.596 -0.206912 -3.13718 0
M  V30 6362 N 616.368 0.432326 -1.51554 0
M  V30 6363 C 617.596 1.20364 -1.68286 0
M  V30 6364 C 618.011 1.84888 -0.38233 0
M  V30 6365 O 617.368 1.70924 0.639627 0
M  V30 6366 C 617.419 2.28398 -2.80208 0
M  V30 6367 O 617.14 1.66512 -4.05223 0
M  V30 6368 C 618.641 3.18584 -3.08251 0
M  V30 6369 H 615.861 0.36259 -0.564596 0
M  V30 6370 H 618.405 0.511647 -1.97996 0
M  V30 6371 H 616.56 2.93305 -2.53083 0
M  V30 6372 H 616.974 2.37951 -4.67418 0
M  V30 6373 H 618.448 3.90511 -3.90135 0
M  V30 6374 H 618.925 3.79628 -2.2086 0
M  V30 6375 H 619.531 2.59372 -3.37055 0
M  V30 6376 N 617.846 1.41785 0.688094 0
M  V30 6377 C 619.074 1.44915 1.47673 0
M  V30 6378 C 619.489 0.0565786 1.88715 0
M  V30 6379 O 618.846 -0.92579 1.57275 0
M  V30 6380 C 618.897 2.36452 2.73446 0
M  V30 6381 O 618.618 3.7029 2.34131 0
M  V30 6382 C 620.119 2.48463 3.67125 0
M  V30 6383 H 617.339 0.493324 0.454832 0
M  V30 6384 H 619.883 1.86153 0.846594 0
M  V30 6385 H 618.038 1.98502 3.3268 0
M  V30 6386 H 618.452 4.19183 3.15255 0
M  V30 6387 H 619.926 3.16662 4.52138 0
M  V30 6388 H 620.403 1.51826 4.12123 0
M  V30 6389 H 621.009 2.8708 3.13792 0
M  V30 6390 N 619.324 -0.923095 1.27737 0
M  V30 6391 C 620.572 -1.66797 1.14119 0
M  V30 6392 C 620.893 -1.92479 -0.312541 0
M  V30 6393 O 620.163 -1.53432 -1.218 0
M  V30 6394 H 618.743 -0.618196 0.419336 0
M  V30 6395 H 621.405 -1.10815 1.60331 0
M  V30 6396 H 620.501 -2.63424 1.67374 0
M  V30 6397 N 620.802 -1.09834 -1.13024 0
M  V30 6398 C 622.05 -0.835297 -1.8403 0
M  V30 6399 C 622.371 0.640944 -1.84165 0
M  V30 6400 O 621.641 1.46517 -1.30037 0
M  V30 6401 H 620.221 -0.306018 -0.681441 0
M  V30 6402 H 622.883 -1.38734 -1.36891 0
M  V30 6403 H 621.979 -1.19258 -2.88416 0
M  V30 6404 N 622.28 1.30327 -0.886154 0
M  V30 6405 C 623.508 2.00254 -0.520176 0
M  V30 6406 C 623.923 1.66419 0.891637 0
M  V30 6407 O 623.28 0.901951 1.58654 0
M  V30 6408 C 623.331 3.54916 -0.686775 0
M  V30 6409 O 623.052 3.87547 -2.04301 0
M  V30 6410 C 624.553 4.42115 -0.323945 0
M  V30 6411 H 621.773 0.640204 -0.200947 0
M  V30 6412 H 624.317 1.66183 -1.19178 0
M  V30 6413 H 622.472 3.8735 -0.0625273 0
M  V30 6414 H 622.886 4.82247 -2.06249 0
M  V30 6415 H 624.36 5.49808 -0.491407 0
M  V30 6416 H 624.837 4.32953 0.73811 0
M  V30 6417 H 625.443 4.15129 -0.924565 0
M  V30 6418 N 623.758 0.647228 1.43697 0
M  V30 6419 C 625.005 0.158188 2.01881 0
M  V30 6420 C 625.333 -1.22573 1.51017 0
M  V30 6421 O 624.588 -1.83086 0.69122 0
M  V30 6422 C 624.887 0.111481 3.57226 0
M  V30 6423 C 624.553 1.43633 4.27411 0
M  V30 6424 C 623.215 1.79915 4.463 0
M  V30 6425 C 625.567 2.31011 4.67208 0
M  V30 6426 C 622.895 3.03251 5.02251 0
M  V30 6427 C 625.247 3.53633 5.24525 0
M  V30 6428 C 623.911 3.90118 5.41631 0
M  V30 6429 H 623.181 0.0578851 0.738736 0
M  V30 6430 H 625.828 0.836746 1.72252 0
M  V30 6431 H 624.133 -0.650507 3.86362 0
M  V30 6432 H 625.83 -0.283682 3.99995 0
M  V30 6433 H 622.42 1.14403 4.1305 0
M  V30 6434 H 626.604 2.04272 4.52313 0
M  V30 6435 H 621.86 3.31575 5.13681 0
M  V30 6436 H 626.034 4.21561 5.5431 0
M  V30 6437 H 623.661 4.85768 5.84751 0
M  V30 6438 N 625.236 -1.5273 0.388769 0
M  V30 6439 C 626.484 -2.01174 -0.193208 0
M  V30 6440 C 626.805 -1.27705 -1.47365 0
M  V30 6441 O 626.075 -0.396966 -1.91836 0
M  V30 6442 H 624.655 -0.743287 -0.0743871 0
M  V30 6443 H 627.317 -1.87826 0.520336 0
M  V30 6444 H 626.413 -3.09477 -0.403803 0
M  V30 6445 N 626.714 -0.118576 -1.57153 0
M  V30 6446 C 627.944 0.546466 -1.99242 0
M  V30 6447 C 628.352 1.60791 -0.997148 0
M  V30 6448 O 627.695 1.83691 0.0181745 0
M  V30 6449 C 627.757 1.23167 -3.37743 0
M  V30 6450 C 627.421 0.318226 -4.55891 0
M  V30 6451 C 628.418 -0.442988 -5.18009 0
M  V30 6452 C 626.103 0.229421 -5.01776 0
M  V30 6453 C 628.097 -1.28074 -6.244 0
M  V30 6454 C 625.784 -0.611966 -6.08028 0
M  V30 6455 C 626.782 -1.36568 -6.69207 0
M  V30 6456 O 626.47 -2.1931 -7.73407 0
M  V30 6457 H 626.202 0.149297 -0.659307 0
M  V30 6458 H 628.756 -0.201603 -2.04408 0
M  V30 6459 H 626.986 2.0268 -3.29329 0
M  V30 6460 H 628.675 1.79358 -3.64123 0
M  V30 6461 H 629.441 -0.38425 -4.83475 0
M  V30 6462 H 625.32 0.805771 -4.53903 0
M  V30 6463 H 628.864 -1.86952 -6.72082 0
M  V30 6464 H 624.761 -0.6721 -6.41991 0
M  V30 6465 H 625.529 -2.12247 -7.90502 0
M  V30 6466 N 628.193 1.56834 0.155195 0
M  V30 6467 C 629.14 1.97646 1.19184 0
M  V30 6468 C 630.11 0.842788 1.4313 0
M  V30 6469 O 631.295 1.1042 1.55602 0
M  V30 6470 C 628.435 2.35527 2.52232 0
M  V30 6471 C 627.548 3.62147 2.35529 0
M  V30 6472 C 626.683 3.89167 3.61555 0
M  V30 6473 C 625.722 5.09084 3.39853 0
M  V30 6474 N 624.859 5.32156 4.5799 0
M  V30 6475 H 629.699 2.8601 0.836802 0
M  V30 6476 H 627.236 1.41507 0.401758 0
M  V30 6477 H 629.194 2.55516 3.29799 0
M  V30 6478 H 627.824 1.50253 2.85699 0
M  V30 6479 H 626.876 3.4998 1.49057 0
M  V30 6480 H 628.188 4.49871 2.15448 0
M  V30 6481 H 627.342 4.09611 4.47553 0
M  V30 6482 H 626.081 2.9985 3.84632 0
M  V30 6483 H 625.086 4.88522 2.52243 0
M  V30 6484 H 626.311 5.99947 3.18183 0
M  V30 6485 H 624.257 4.45791 4.81255 0
M  V30 6486 H 624.174 6.14133 4.40882 0
M  V30 6487 H 625.442 5.57091 5.45225 0
M  V30 6488 N 629.671 -0.424282 1.51781 0
M  V30 6489 C 630.918 -1.1726 1.65095 0
M  V30 6490 C 631.246 -1.90881 0.373477 0
M  V30 6491 O 630.501 -1.84835 -0.642997 0
M  V30 6492 C 630.8 -2.20418 2.81337 0
M  V30 6493 C 630.466 -1.63715 4.20129 0
M  V30 6494 C 629.128 -1.47975 4.57883 0
M  V30 6495 C 631.48 -1.22157 5.06682 0
M  V30 6496 C 628.808 -0.891703 5.79884 0
M  V30 6497 C 631.16 -0.647767 6.29275 0
M  V30 6498 C 629.824 -0.477371 6.65791 0
M  V30 6499 H 629.094 -0.429085 0.604125 0
M  V30 6500 H 631.741 -0.461852 1.85847 0
M  V30 6501 H 630.046 -2.97581 2.54859 0
M  V30 6502 H 631.743 -2.78163 2.88836 0
M  V30 6503 H 628.333 -1.76946 3.90369 0
M  V30 6504 H 632.517 -1.33133 4.7811 0
M  V30 6505 H 627.773 -0.747563 6.06813 0
M  V30 6506 H 631.947 -0.317291 6.95677 0
M  V30 6507 H 629.574 -0.0195936 7.60197 0
M  V30 6508 N 631.149 -1.42148 -0.680565 0
M  V30 6509 C 632.374 -1.45901 -1.47403 0
M  V30 6510 C 632.799 -0.0700985 -1.87969 0
M  V30 6511 O 632.157 0.930145 -1.55621 0
M  V30 6512 C 632.205 -2.38661 -2.70321 0
M  V30 6513 O 631.309 -1.85399 -3.68376 0
M  V30 6514 H 630.65 -0.494565 -0.443059 0
M  V30 6515 H 633.18 -1.86774 -0.835251 0
M  V30 6516 H 633.19 -2.55046 -3.18458 0
M  V30 6517 H 631.865 -3.39571 -2.40134 0
M  V30 6518 H 630.442 -1.78541 -3.2738 0
M  V30 6519 N 632.627 0.916307 -1.28225 0
M  V30 6520 C 634.038 1.48024 -1.13779 0
M  V30 6521 C 634.389 1.94289 0.273139 0
M  V30 6522 O 633.514 1.82226 1.16716 0
M  V30 6523 C 634.109 2.69029 -2.05935 0
M  V30 6524 C 632.668 3.2161 -1.95561 0
M  V30 6525 C 631.815 1.94321 -1.97825 0
M  V30 6526 H 634.766 0.729272 -1.40951 0
M  V30 6527 H 634.787 3.44204 -1.62184 0
M  V30 6528 H 634.299 2.35325 -3.08616 0
M  V30 6529 H 632.4 3.60045 -0.959076 0
M  V30 6530 H 632.513 3.87032 -2.82388 0
M  V30 6531 H 630.877 2.1131 -1.42198 0
M  V30 6532 H 631.66 1.62917 -3.0218 0
M  V30 6533 N 634.105 1.10431 1.1244 0
M  V30 6534 C 635.333 0.868872 1.87772 0
M  V30 6535 C 635.748 -0.580645 1.7965 0
M  V30 6536 O 635.105 -1.40031 1.17036 0
M  V30 6537 C 635.156 1.30855 3.36986 0
M  V30 6538 O 634.877 2.70123 3.44914 0
M  V30 6539 C 636.378 1.107 4.29256 0
M  V30 6540 H 633.598 0.311868 0.59412 0
M  V30 6541 H 636.142 1.46897 1.42273 0
M  V30 6542 H 634.297 0.752126 3.80029 0
M  V30 6543 H 634.711 2.88923 4.37748 0
M  V30 6544 H 636.185 1.46378 5.32238 0
M  V30 6545 H 636.662 0.0456228 4.39176 0
M  V30 6546 H 637.268 1.64988 3.91994 0
M  V30 6547 N 635.583 -1.29855 0.893053 0
M  V30 6548 C 636.516 -2.26079 0.3104 0
M  V30 6549 C 637.494 -1.52145 -0.573644 0
M  V30 6550 O 638.678 -1.8113 -0.521937 0
M  V30 6551 C 635.805 -3.34069 -0.558179 0
M  V30 6552 C 634.851 -4.25721 0.257638 0
M  V30 6553 S 635.684 -5.09409 1.65114 0
M  V30 6554 C 636.84 -6.20903 0.789307 0
M  V30 6555 H 637.073 -2.75151 1.12602 0
M  V30 6556 H 634.606 -1.37975 0.692978 0
M  V30 6557 H 636.564 -3.9675 -1.05355 0
M  V30 6558 H 635.225 -2.83705 -1.34797 0
M  V30 6559 H 634.418 -5.02366 -0.405562 0
M  V30 6560 H 634.02 -3.67656 0.685917 0
M  V30 6561 H 636.312 -6.77499 0.00978451 0
M  V30 6562 H 637.255 -6.91426 1.52762 0
M  V30 6563 H 637.663 -5.63435 0.346634 0
M  V30 6564 N 637.061 -0.65484 -1.43351 0
M  V30 6565 C 637.971 0.0363603 -2.34572 0
M  V30 6566 C 638.987 0.810432 -1.53974 0
M  V30 6567 O 640.163 0.757308 -1.86619 0
M  V30 6568 C 637.228 0.989733 -3.32273 0
M  V30 6569 C 636.289 0.212414 -4.28774 0
M  V30 6570 C 635.522 1.12038 -5.21808 0
M  V30 6571 O 635.745 2.35967 -5.19303 0
M  V30 6572 O 634.679 0.59191 -5.98982 0
M  V30 6573 H 638.505 -0.714527 -2.95175 0
M  V30 6574 H 636.09 -0.415029 -1.4352 0
M  V30 6575 H 637.972 1.53759 -3.92347 0
M  V30 6576 H 636.647 1.72082 -2.74171 0
M  V30 6577 H 635.554 -0.379062 -3.72175 0
M  V30 6578 H 636.887 -0.479138 -4.89862 0
M  V30 6579 N 638.539 1.52521 -0.396863 0
M  V30 6580 C 639.502 2.2527 0.422604 0
M  V30 6581 C 640.502 1.27184 0.983913 0
M  V30 6582 O 641.692 1.51222 0.864723 0
M  V30 6583 C 638.824 3.01356 1.59365 0
M  V30 6584 H 640.017 2.99133 -0.214416 0
M  V30 6585 H 637.57 1.55587 -0.149128 0
M  V30 6586 H 638.305 2.31813 2.26789 0
M  V30 6587 H 638.09 3.73357 1.19779 0
M  V30 6588 H 639.58 3.56571 2.17363 0
M  V30 6589 N 640.017 0.126909 1.57088 0
M  V30 6590 C 640.947 -0.816847 2.18746 0
M  V30 6591 C 641.928 -1.27161 1.12979 0
M  V30 6592 O 643.113 -1.33279 1.41246 0
M  V30 6593 C 640.243 -2.06398 2.79315 0
M  V30 6594 C 639.197 -1.74673 3.90735 0
M  V30 6595 C 638.523 -3.06482 4.38147 0
M  V30 6596 C 639.823 -1.0089 5.12463 0
M  V30 6597 H 641.517 -0.303032 2.97863 0
M  V30 6598 H 639.063 -0.144314 1.43275 0
M  V30 6599 H 641.016 -2.72885 3.2111 0
M  V30 6600 H 639.74 -2.60118 1.975 0
M  V30 6601 H 638.399 -1.10572 3.49527 0
M  V30 6602 H 638.047 -3.58152 3.5318 0
M  V30 6603 H 637.747 -2.86025 5.13287 0
M  V30 6604 H 639.271 -3.74073 4.82599 0
M  V30 6605 H 640.685 -1.57546 5.51228 0
M  V30 6606 H 639.082 -0.905006 5.93237 0
M  V30 6607 H 640.152 0.00297335 4.849 0
M  V30 6608 N 641.495 -1.56914 -0.146875 0
M  V30 6609 C 642.741 -1.83628 -0.860741 0
M  V30 6610 C 643.074 -0.708528 -1.80813 0
M  V30 6611 O 642.349 0.287838 -1.92358 0
M  V30 6612 C 642.632 -3.20836 -1.63511 0
M  V30 6613 C 642.485 -4.44174 -0.709199 0
M  V30 6614 C 643.804 -3.55268 -2.59756 0
M  V30 6615 H 640.923 -0.667949 -0.311468 0
M  V30 6616 H 643.565 -1.89582 -0.125936 0
M  V30 6617 H 641.715 -3.15891 -2.26153 0
M  V30 6618 H 643.387 -4.61205 -0.0937781 0
M  V30 6619 H 641.63 -4.33796 -0.0187856 0
M  V30 6620 H 642.301 -5.36785 -1.28707 0
M  V30 6621 H 644.777 -3.60824 -2.07232 0
M  V30 6622 H 643.653 -4.52303 -3.10987 0
M  V30 6623 H 643.914 -2.81231 -3.41118 0
M  V30 6624 N 642.974 0.416227 -1.52004 0
M  V30 6625 C 644.222 1.16153 -1.65387 0
M  V30 6626 C 644.543 1.91208 -0.382669 0
M  V30 6627 O 643.813 1.86413 0.602231 0
M  V30 6628 H 642.393 0.431765 -0.60958 0
M  V30 6629 H 645.055 0.475151 -1.89019 0
M  V30 6630 H 644.151 1.87952 -2.4916 0
M  V30 6631 N 644.452 1.42507 0.673017 0
M  V30 6632 C 645.698 1.43284 1.43519 0
M  V30 6633 C 646.031 0.049668 1.94136 0
M  V30 6634 O 645.306 -0.926369 1.71022 0
M  V30 6635 C 645.589 2.45874 2.63093 0
M  V30 6636 C 645.442 3.93388 2.18096 0
M  V30 6637 C 646.761 2.45431 3.6531 0
M  V30 6638 H 643.88 0.521752 0.520522 0
M  V30 6639 H 646.522 1.73932 0.764701 0
M  V30 6640 H 644.672 2.19869 3.20296 0
M  V30 6641 H 646.344 4.30379 1.66046 0
M  V30 6642 H 644.587 4.07169 1.49652 0
M  V30 6643 H 645.258 4.60752 3.03993 0
M  V30 6644 H 647.734 2.68561 3.17827 0
M  V30 6645 H 646.61 3.19189 4.46553 0
M  V30 6646 H 646.871 1.48092 4.16559 0
M  V30 6647 N 645.93 -0.909495 1.28709 0
M  V30 6648 C 646.893 -1.99399 1.13016 0
M  V30 6649 C 647.893 -1.60654 0.068536 0
M  V30 6650 O 649.083 -1.71334 0.314671 0
M  V30 6651 C 646.215 -3.33078 0.726085 0
M  V30 6652 H 647.408 -2.14751 2.09338 0
M  V30 6653 H 644.961 -1.09272 1.11756 0
M  V30 6654 H 645.696 -3.23428 -0.23771 0
M  V30 6655 H 645.481 -3.62562 1.49302 0
M  V30 6656 H 646.971 -4.12681 0.639058 0
M  V30 6657 N 647.408 -1.11026 -1.11852 0
M  V30 6658 C 648.654 -0.857729 -1.83768 0
M  V30 6659 C 648.987 0.615143 -1.842 0
M  V30 6660 O 648.262 1.45391 -1.29196 0
M  V30 6661 C 648.545 -1.41453 -3.31154 0
M  V30 6662 C 648.398 -2.95471 -3.39142 0
M  V30 6663 C 649.717 -1.0619 -4.27097 0
M  V30 6664 H 646.836 -0.313044 -0.667212 0
M  V30 6665 H 649.478 -1.37443 -1.31185 0
M  V30 6666 H 647.628 -0.975052 -3.76065 0
M  V30 6667 H 649.3 -3.4799 -3.02821 0
M  V30 6668 H 647.543 -3.31759 -2.79497 0
M  V30 6669 H 648.214 -3.29515 -4.42859 0
M  V30 6670 H 650.69 -1.44122 -3.90344 0
M  V30 6671 H 649.566 -1.47832 -5.28618 0
M  V30 6672 H 649.827 0.0278912 -4.42091 0
M  V30 6673 N 648.886 1.2938 -0.899927 0
M  V30 6674 C 649.819 2.25911 -0.322386 0
M  V30 6675 C 650.797 1.52447 0.565567 0
M  V30 6676 O 651.981 1.81404 0.512324 0
M  V30 6677 C 649.108 3.3436 0.540455 0
M  V30 6678 C 648.154 4.25579 -0.280211 0
M  V30 6679 S 648.987 5.08526 -1.67814 0
M  V30 6680 C 650.143 6.20476 -0.822224 0
M  V30 6681 H 650.376 2.7455 -1.1406 0
M  V30 6682 H 647.909 1.37606 -0.700285 0
M  V30 6683 H 649.867 3.97303 1.0325 0
M  V30 6684 H 648.528 2.84416 1.33291 0
M  V30 6685 H 647.721 5.02574 0.378915 0
M  V30 6686 H 647.323 3.67287 -0.705405 0
M  V30 6687 H 649.615 6.77485 -0.0457138 0
M  V30 6688 H 650.558 6.90606 -1.56426 0
M  V30 6689 H 650.966 5.63243 -0.37651 0
M  V30 6690 N 650.364 0.662433 1.43002 0
M  V30 6691 C 651.327 -0.0142016 2.29196 0
M  V30 6692 C 652.327 -0.741394 1.42688 0
M  V30 6693 O 653.517 -0.581257 1.64216 0
M  V30 6694 C 650.649 -1.03084 3.24941 0
M  V30 6695 H 651.842 0.7443 2.90517 0
M  V30 6696 H 649.395 0.424133 1.50435 0
M  V30 6697 H 650.13 -1.81826 2.68533 0
M  V30 6698 H 649.915 -0.512946 3.8873 0
M  V30 6699 H 651.405 -1.50308 3.89612 0
M  V30 6700 N 651.842 -1.52309 0.404946 0
M  V30 6701 C 653.07 -2.06185 -0.171818 0
M  V30 6702 C 653.485 -1.27536 -1.39212 0
M  V30 6703 O 652.842 -0.326112 -1.79563 0
M  V30 6704 C 652.893 -3.57647 -0.526417 0
M  V30 6705 O 652.614 -4.3332 0.645417 0
M  V30 6706 C 654.115 -4.27925 -1.15736 0
M  V30 6707 H 651.335 -0.670632 -0.0222328 0
M  V30 6708 H 653.879 -1.96259 0.574692 0
M  V30 6709 H 652.034 -3.67595 -1.22282 0
M  V30 6710 H 652.448 -5.23328 0.35042 0
M  V30 6711 H 653.922 -5.35093 -1.35572 0
M  V30 6712 H 654.399 -3.84134 -2.12926 0
M  V30 6713 H 655.005 -4.22335 -0.501281 0
M  V30 6714 N 653.32 -0.135238 -1.57019 0
M  V30 6715 C 654.568 0.51777 -1.95355 0
M  V30 6716 C 654.889 1.6617 -1.02042 0
M  V30 6717 O 654.159 1.95738 -0.0797343 0
M  V30 6718 H 652.739 0.194264 -0.721298 0
M  V30 6719 H 655.401 -0.207983 -1.93787 0
M  V30 6720 H 654.497 0.901675 -2.98791 0
M  V30 6721 N 654.798 1.5699 0.138552 0
M  V30 6722 C 656.214 1.51844 0.491472 0
M  V30 6723 C 656.414 0.845063 1.82923 0
M  V30 6724 O 655.47 0.419143 2.48997 0
M  V30 6725 C 656.783 2.96615 0.493987 0
M  V30 6726 C 658.331 3.076 0.578913 0
M  V30 6727 C 658.806 4.53893 0.612009 0
M  V30 6728 N 660.297 4.5827 0.673997 0
M  V30 6729 C 661.032 5.68852 0.720729 0
M  V30 6730 N 660.528 6.88982 0.726292 0
M  V30 6731 N 662.321 5.56908 0.762253 0
M  V30 6732 H 654.472 1.99158 -0.738228 0
M  V30 6733 H 656.735 0.908693 -0.270149 0
M  V30 6734 H 656.441 3.49172 -0.420933 0
M  V30 6735 H 656.315 3.53017 1.32887 0
M  V30 6736 H 658.702 2.55057 1.48425 0
M  V30 6737 H 658.783 2.54227 -0.283286 0
M  V30 6738 H 658.427 5.07076 -0.289208 0
M  V30 6739 H 658.357 5.05057 1.49082 0
M  V30 6740 H 660.848 3.71793 0.676654 0
M  V30 6741 H 661.161 7.69014 0.764032 0
M  V30 6742 H 659.506 6.91526 0.69403 0
M  V30 6743 H 662.697 4.61969 0.755135 0
M  V30 6744 H 662.87 6.43102 0.795207 0
M  V30 6745 N 656.276 -0.40816 1.52223 0
M  V30 6746 C 657.687 -0.986929 1.58482 0
M  V30 6747 C 658.038 -1.91521 0.425917 0
M  V30 6748 O 657.163 -2.11593 -0.453593 0
M  V30 6749 C 657.758 -1.7967 2.87235 0
M  V30 6750 C 656.317 -2.32549 2.9597 0
M  V30 6751 C 655.464 -1.12558 2.53428 0
M  V30 6752 H 658.415 -0.188362 1.57578 0
M  V30 6753 H 658.436 -2.65417 2.72642 0
M  V30 6754 H 657.948 -1.12082 3.71563 0
M  V30 6755 H 656.049 -3.03505 2.16137 0
M  V30 6756 H 656.162 -2.63348 4.00231 0
M  V30 6757 H 654.526 -1.47984 2.07299 0
M  V30 6758 H 655.309 -0.465351 3.40131 0
M  V30 6759 N 657.755 -1.42862 -0.66545 0
M  V30 6760 C 658.995 -1.45323 -1.43738 0
M  V30 6761 C 659.359 -0.0707969 -1.91869 0
M  V30 6762 O 660.56 0.0298852 -2.68783 0
M  V30 6763 C 658.831 -2.45671 -2.59577 0
M  V30 6764 S 660.39 -2.6691 -3.48288 0
M  V30 6765 H 657.208 -0.51442 -0.490809 0
M  V30 6766 H 659.81 -1.79537 -0.773745 0
M  V30 6767 H 658.514 -3.44869 -2.22471 0
M  V30 6768 H 658.045 -2.12914 -3.30804 0
M  V30 6769 H 660.06 -1.95914 -4.55886 0
M  V30 6770 N 659.233 0.902656 -1.29189 0
M  V30 6771 C 660.183 1.99326 -1.10695 0
M  V30 6772 C 661.167 1.60877 -0.0272521 0
M  V30 6773 O 662.359 1.75245 -0.248635 0
M  V30 6774 C 659.488 3.34265 -0.78244 0
M  V30 6775 C 658.574 3.79081 -1.90153 0
M  V30 6776 N 658.965 3.96162 -3.14466 0
M  V30 6777 C 657.263 4.08333 -1.79389 0
M  V30 6778 C 657.964 4.3388 -3.87458 0
M  V30 6779 N 656.94 4.42759 -3.15381 0
M  V30 6780 H 660.742 2.10597 -2.05003 0
M  V30 6781 H 658.256 1.09127 -1.20271 0
M  V30 6782 H 660.253 4.12097 -0.630996 0
M  V30 6783 H 658.913 3.2434 0.152754 0
M  V30 6784 H 659.924 3.81775 -3.49954 0
M  V30 6785 H 656.601 4.06982 -0.931217 0
M  V30 6786 H 657.991 4.54965 -4.94425 0
M  V30 6787 N 660.711 1.11618 1.11262 0
M  V30 6788 C 661.641 0.79846 2.19424 0
M  V30 6789 C 662.622 -0.234003 1.68483 0
M  V30 6790 O 663.807 -0.0970704 1.93957 0
M  V30 6791 C 660.937 0.242892 3.4645 0
M  V30 6792 C 659.891 1.20744 4.10615 0
M  V30 6793 C 659.217 0.512494 5.32238 0
M  V30 6794 C 660.517 2.55884 4.55325 0
M  V30 6795 H 662.211 1.70286 2.46258 0
M  V30 6796 H 659.757 0.820195 1.18359 0
M  V30 6797 H 661.71 0.00840447 4.21399 0
M  V30 6798 H 660.434 -0.696811 3.1908 0
M  V30 6799 H 659.093 1.42759 3.37662 0
M  V30 6800 H 658.741 -0.432075 5.01141 0
M  V30 6801 H 658.441 1.15583 5.7612 0
M  V30 6802 H 659.965 0.286842 6.09926 0
M  V30 6803 H 661.379 2.37946 5.21588 0
M  V30 6804 H 659.776 3.16216 5.10027 0
M  V30 6805 H 660.846 3.14968 3.68678 0
M  V30 6806 N 662.189 -1.289 0.906776 0
M  V30 6807 C 663.605 -1.47733 0.603902 0
M  V30 6808 C 663.805 -1.82568 -0.852702 0
M  V30 6809 O 662.861 -1.92642 -1.63234 0
M  V30 6810 C 664.174 -2.58522 1.53581 0
M  V30 6811 C 665.722 -2.72394 1.54177 0
M  V30 6812 C 666.197 -3.86318 2.46013 0
M  V30 6813 N 667.688 -3.93661 2.441 0
M  V30 6814 C 668.423 -4.81177 3.11859 0
M  V30 6815 N 667.919 -5.73333 3.88923 0
M  V30 6816 N 669.712 -4.74728 3.00981 0
M  V30 6817 H 661.863 -1.04567 1.84877 0
M  V30 6818 H 664.126 -0.520118 0.792579 0
M  V30 6819 H 663.832 -2.39667 2.57396 0
M  V30 6820 H 663.706 -3.55475 1.26165 0
M  V30 6821 H 666.093 -2.90641 0.511034 0
M  V30 6822 H 666.174 -1.75993 1.85634 0
M  V30 6823 H 665.818 -3.68826 3.49185 0
M  V30 6824 H 665.748 -4.82102 2.11862 0
M  V30 6825 H 668.239 -3.27751 1.88115 0
M  V30 6826 H 668.552 -6.36923 4.37663 0
M  V30 6827 H 666.897 -5.73196 3.93029 0
M  V30 6828 H 670.088 -4.01722 2.40286 0
M  V30 6829 H 670.261 -5.42719 3.54062 0
M  V30 6830 N 663.667 -0.670007 -1.42649 0
M  V30 6831 C 664.897 -0.198252 -2.05647 0
M  V30 6832 C 665.305 1.14786 -1.50402 0
M  V30 6833 O 664.648 1.72316 -0.636634 0
M  V30 6834 C 664.71 -0.0507132 -3.59464 0
M  V30 6835 C 664.374 -1.32478 -4.37377 0
M  V30 6836 C 665.371 -2.2572 -4.68344 0
M  V30 6837 C 663.056 -1.57104 -4.77099 0
M  V30 6838 C 665.05 -3.4187 -5.37963 0
M  V30 6839 C 662.737 -2.73543 -5.46459 0
M  V30 6840 C 663.735 -3.65751 -5.76815 0
M  V30 6841 O 663.423 -4.80154 -6.44753 0
M  V30 6842 H 663.155 -0.0950721 -0.669281 0
M  V30 6843 H 665.709 -0.915745 -1.83857 0
M  V30 6844 H 663.939 0.722314 -3.79894 0
M  V30 6845 H 665.628 0.380552 -4.04112 0
M  V30 6846 H 666.394 -2.07943 -4.38161 0
M  V30 6847 H 662.273 -0.862069 -4.52868 0
M  V30 6848 H 665.817 -4.13861 -5.61574 0
M  V30 6849 H 661.714 -2.91248 -5.7606 0
M  V30 6850 H 662.482 -4.79637 -6.63243 0
M  V30 6851 N 665.145 1.52092 -0.413018 0
M  V30 6852 C 666.093 2.28681 0.425199 0
M  V30 6853 C 667.087 1.3353 1.04241 0
M  V30 6854 O 668.293 1.50973 0.980166 0
M  V30 6855 H 664.668 0.735661 0.155906 0
M  V30 6856 H 666.639 2.97418 -0.241926 0
M  V30 6857 C 665.388 3.1235 1.5275 0
M  V30 6858 H 664.711 3.85439 1.06191 0
M  V30 6859 H 666.151 3.69038 2.08774 0
M  V30 6860 C 664.61 2.26161 2.49706 0
M  V30 6861 O 665.14 1.90452 3.53682 0
M  V30 6862 N 663.346 1.89854 2.20008 0
M  V30 6863 H 662.893 2.19092 1.35486 0
M  V30 6864 H 662.851 1.3248 2.85125 0
M  V30 6865 N 666.623 0.143563 1.56945 0
M  V30 6866 C 667.853 -0.514699 2.00086 0
M  V30 6867 C 668.261 -1.59184 1.0226 0
M  V30 6868 O 667.604 -1.83697 0.0110514 0
M  V30 6869 C 667.666 -1.17778 3.39659 0
M  V30 6870 C 667.33 -0.245657 4.56339 0
M  V30 6871 C 668.327 0.525343 5.17239 0
M  V30 6872 C 666.012 -0.149564 5.02077 0
M  V30 6873 C 668.006 1.37992 6.22284 0
M  V30 6874 C 665.693 0.708621 6.06978 0
M  V30 6875 C 666.691 1.47197 6.6695 0
M  V30 6876 O 666.379 2.31586 7.6982 0
M  V30 6877 H 666.111 -0.138789 0.661599 0
M  V30 6878 H 668.665 0.234098 2.04062 0
M  V30 6879 H 666.895 -1.97415 3.32512 0
M  V30 6880 H 668.584 -1.73542 3.6693 0
M  V30 6881 H 669.35 0.461118 4.82803 0
M  V30 6882 H 665.229 -0.733457 4.55128 0
M  V30 6883 H 668.773 1.97621 6.69023 0
M  V30 6884 H 664.67 0.77415 6.40841 0
M  V30 6885 H 665.438 2.24796 7.87025 0
M  V30 6886 N 668.101 -1.57061 -0.130224 0
M  V30 6887 C 669.011 -2.02802 -1.17934 0
M  V30 6888 C 670.027 -0.946378 -1.46013 0
M  V30 6889 O 671.203 -1.25708 -1.57351 0
M  V30 6890 C 668.268 -2.41368 -2.48882 0
M  V30 6891 C 667.329 -3.63561 -2.28301 0
M  V30 6892 C 666.562 -4.00279 -3.53005 0
M  V30 6893 O 666.785 -3.37463 -4.59864 0
M  V30 6894 O 665.719 -4.93441 -3.44673 0
M  V30 6895 H 669.545 -2.92394 -0.820958 0
M  V30 6896 H 667.13 -1.45475 -0.340197 0
M  V30 6897 H 669.012 -2.66958 -3.26054 0
M  V30 6898 H 667.687 -1.54926 -2.84217 0
M  V30 6899 H 666.594 -3.43136 -1.49025 0
M  V30 6900 H 667.927 -4.50673 -1.97875 0
M  V30 6901 N 669.579 0.400081 -1.52437 0
M  V30 6902 C 670.511 1.50729 -1.72666 0
M  V30 6903 C 671.524 1.51058 -0.607075 0
M  V30 6904 O 672.713 1.5516 -0.88248 0
M  V30 6905 C 669.813 2.89604 -1.76019 0
M  V30 6906 C 668.986 3.13365 -3.05157 0
M  V30 6907 C 668.045 4.32163 -3.00203 0
M  V30 6908 O 667.071 4.29004 -3.74092 0
M  V30 6909 N 668.273 5.3776 -2.18619 0
M  V30 6910 H 671.038 1.33767 -2.68191 0
M  V30 6911 H 668.599 0.58948 -1.50787 0
M  V30 6912 H 670.591 3.67159 -1.70225 0
M  V30 6913 H 669.161 2.99979 -0.879284 0
M  V30 6914 H 668.381 2.23774 -3.24529 0
M  V30 6915 H 669.669 3.26089 -3.90568 0
M  V30 6916 H 669.067 5.43177 -1.58035 0
M  V30 6917 H 667.624 6.14023 -2.18674 0
M  V30 6918 N 671.057 1.43213 0.657864 0
M  V30 6919 C 671.989 1.43974 1.78337 0
M  V30 6920 C 673.002 0.336482 1.59285 0
M  V30 6921 O 674.191 0.600631 1.68091 0
M  V30 6922 C 671.291 1.23242 3.15697 0
M  V30 6923 C 670.464 2.46319 3.61449 0
M  V30 6924 C 669.523 2.2088 4.77597 0
M  V30 6925 O 668.549 2.942 4.87273 0
M  V30 6926 N 669.751 1.22251 5.67481 0
M  V30 6927 H 672.516 2.40993 1.78164 0
M  V30 6928 H 670.077 1.3831 0.841549 0
M  V30 6929 H 672.069 1.04113 3.91079 0
M  V30 6930 H 670.639 0.346849 3.1067 0
M  V30 6931 H 669.859 2.80904 2.76563 0
M  V30 6932 H 671.147 3.28239 3.88763 0
M  V30 6933 H 670.545 0.616433 5.62331 0
M  V30 6934 H 669.102 1.09107 6.42603 0
M  V30 6935 N 672.536 -0.895792 1.29666 0
M  V30 6936 C 673.468 -2.00563 1.10937 0
M  V30 6937 C 674.481 -1.62705 0.055734 0
M  V30 6938 O 675.67 -1.7595 0.300656 0
M  V30 6939 C 672.77 -3.32262 0.667448 0
M  V30 6940 C 671.943 -3.98625 1.80047 0
M  V30 6941 C 671.002 -5.08617 1.3489 0
M  V30 6942 O 670.028 -5.30837 2.05429 0
M  V30 6943 N 671.23 -5.80076 0.221937 0
M  V30 6944 H 673.995 -2.17184 2.06522 0
M  V30 6945 H 671.556 -1.06822 1.21658 0
M  V30 6946 H 673.548 -4.03196 0.348586 0
M  V30 6947 H 672.118 -3.11985 -0.196055 0
M  V30 6948 H 671.338 -3.21005 2.28801 0
M  V30 6949 H 672.626 -4.39704 2.56003 0
M  V30 6950 H 672.024 -5.64514 -0.366084 0
M  V30 6951 H 670.581 -6.51789 -0.0375346 0
M  V30 6952 N 674.014 -1.12206 -1.10668 0
M  V30 6953 C 674.962 -0.782918 -2.19028 0
M  V30 6954 C 675.956 0.229175 -1.67843 0
M  V30 6955 O 677.162 0.0876295 -1.79787 0
M  V30 6956 H 673.537 -0.235339 -0.714227 0
M  V30 6957 H 675.508 -1.70527 -2.44874 0
M  V30 6958 C 674.257 -0.25116 -3.46792 0
M  V30 6959 H 673.58 -1.02123 -3.86537 0
M  V30 6960 H 675.02 -0.0521409 -4.23968 0
M  V30 6961 C 673.479 1.02037 -3.21076 0
M  V30 6962 O 674.009 2.09862 -3.42522 0
M  V30 6963 N 672.215 0.946348 -2.74759 0
M  V30 6964 H 671.762 0.068777 -2.57508 0
M  V30 6965 H 671.72 1.79775 -2.57931 0
M  V30 6966 N 675.492 1.28418 -0.913599 0
M  V30 6967 C 676.722 1.98817 -0.56172 0
M  V30 6968 C 677.13 1.68457 0.861321 0
M  V30 6969 O 676.473 0.933653 1.58204 0
M  V30 6970 C 676.535 3.52801 -0.690785 0
M  V30 6971 C 676.199 4.0675 -2.08334 0
M  V30 6972 C 677.196 4.20597 -3.05604 0
M  V30 6973 C 674.881 4.41445 -2.39648 0
M  V30 6974 C 676.875 4.68392 -4.32305 0
M  V30 6975 C 674.562 4.88934 -3.66588 0
M  V30 6976 C 675.56 5.02364 -4.6273 0
M  V30 6977 O 675.248 5.48817 -5.87414 0
M  V30 6978 H 674.98 0.641608 -0.212874 0
M  V30 6979 H 677.534 1.64584 -1.22887 0
M  V30 6980 H 675.764 3.86686 0.0334336 0
M  V30 6981 H 677.453 4.04422 -0.346031 0
M  V30 6982 H 678.219 3.94067 -2.8273 0
M  V30 6983 H 674.098 4.30242 -1.65567 0
M  V30 6984 H 677.642 4.7879 -5.07352 0
M  V30 6985 H 673.539 5.14904 -3.89287 0
M  V30 6986 H 674.307 5.67103 -5.90201 0
M  V30 6987 N 676.97 0.677563 1.42291 0
M  V30 6988 C 678.198 0.209459 2.05837 0
M  V30 6989 C 678.613 -1.13444 1.50917 0
M  V30 6990 O 677.97 -1.70529 0.65008 0
M  V30 6991 C 678.021 0.138819 3.61233 0
M  V30 6992 O 677.742 1.42962 4.14118 0
M  V30 6993 C 679.243 -0.352449 4.41897 0
M  V30 6994 H 676.463 0.101209 0.663323 0
M  V30 6995 H 679.007 0.925077 1.8238 0
M  V30 6996 H 677.162 -0.527505 3.83792 0
M  V30 6997 H 677.576 1.3048 5.08011 0
M  V30 6998 H 679.05 -0.350778 5.50884 0
M  V30 6999 H 679.527 -1.3882 4.16684 0
M  V30 7000 H 680.133 0.282236 4.24362 0
M  V30 7001 N 678.448 -1.51871 0.421078 0
M  V30 7002 C 679.696 -2.01539 -0.150492 0
M  V30 7003 C 680.017 -1.30803 -1.44623 0
M  V30 7004 O 679.287 -0.437568 -1.90951 0
M  V30 7005 H 677.867 -0.744698 -0.0586041 0
M  V30 7006 H 680.529 -1.8668 0.560059 0
M  V30 7007 H 679.625 -3.10264 -0.338068 0
M  V30 7008 N 679.926 -0.151884 -1.56866 0
M  V30 7009 C 680.873 0.785936 -2.17006 0
M  V30 7010 C 681.843 1.2407 -1.10435 0
M  V30 7011 O 683.028 1.31235 -1.38499 0
M  V30 7012 C 680.168 2.01771 -2.79969 0
M  V30 7013 C 679.281 1.6083 -4.00946 0
M  V30 7014 C 678.416 2.79224 -4.51893 0
M  V30 7015 C 677.455 2.3468 -5.65324 0
M  V30 7016 N 676.592 3.461 -6.10867 0
M  V30 7017 H 681.432 0.266286 -2.96808 0
M  V30 7018 H 678.969 0.11972 -1.46612 0
M  V30 7019 H 680.927 2.73989 -3.14621 0
M  V30 7020 H 679.557 2.51139 -2.02803 0
M  V30 7021 H 678.609 0.783592 -3.72242 0
M  V30 7022 H 679.921 1.24119 -4.83111 0
M  V30 7023 H 679.075 3.59625 -4.88625 0
M  V30 7024 H 677.814 3.19183 -3.68746 0
M  V30 7025 H 676.819 1.52721 -5.28163 0
M  V30 7026 H 678.044 1.95801 -6.5026 0
M  V30 7027 H 675.99 3.85671 -5.30654 0
M  V30 7028 H 675.907 3.1342 -6.87971 0
M  V30 7029 H 677.175 4.26844 -6.52246 0
M  V30 7030 N 681.404 1.57128 0.121893 0
M  V30 7031 C 682.82 1.52357 0.47534 0
M  V30 7032 C 683.02 0.864417 1.82017 0
M  V30 7033 O 682.076 0.445529 2.48538 0
M  V30 7034 C 683.389 2.97122 0.4625 0
M  V30 7035 C 684.937 3.08196 0.546255 0
M  V30 7036 C 685.412 4.54516 0.563833 0
M  V30 7037 N 686.903 4.58959 0.625353 0
M  V30 7038 C 687.638 5.69585 0.660354 0
M  V30 7039 N 687.134 6.89714 0.653175 0
M  V30 7040 N 688.927 5.57685 0.703143 0
M  V30 7041 H 681.078 1.98364 -0.75931 0
M  V30 7042 H 683.341 0.905777 -0.279772 0
M  V30 7043 H 683.047 3.48706 -0.457943 0
M  V30 7044 H 682.921 3.54406 1.29136 0
M  V30 7045 H 685.308 2.56617 1.45712 0
M  V30 7046 H 685.389 2.53912 -0.310234 0
M  V30 7047 H 685.033 5.06741 -0.342974 0
M  V30 7048 H 684.963 5.06609 1.43716 0
M  V30 7049 H 687.454 3.72489 0.637182 0
M  V30 7050 H 687.767 7.69781 0.682425 0
M  V30 7051 H 686.112 6.92223 0.620646 0
M  V30 7052 H 689.303 4.62744 0.706095 0
M  V30 7053 H 689.476 6.43909 0.726952 0
M  V30 7054 N 682.882 -0.391992 1.52647 0
M  V30 7055 C 684.107 -1.16312 1.71716 0
M  V30 7056 C 684.532 -1.83042 0.433279 0
M  V30 7057 O 683.89 -1.70705 -0.610707 0
M  V30 7058 C 683.938 -2.18908 2.86551 0
M  V30 7059 O 683.042 -3.2543 2.53316 0
M  V30 7060 H 682.383 -0.338743 0.571095 0
M  V30 7061 H 684.913 -0.457202 1.99426 0
M  V30 7062 H 684.923 -2.62954 3.1196 0
M  V30 7063 H 683.598 -1.69726 3.79692 0
M  V30 7064 H 682.175 -2.86543 2.38637 0
M  V30 7065 N 684.36 -1.4356 -0.65026 0
M  V30 7066 C 685.771 -1.40324 -1.2315 0
M  V30 7067 C 686.122 -0.108812 -1.95898 0
M  V30 7068 O 685.247 0.79163 -2.01401 0
M  V30 7069 C 685.842 -2.54195 -2.23987 0
M  V30 7070 C 684.401 -2.54215 -2.77582 0
M  V30 7071 C 683.548 -2.31752 -1.5227 0
M  V30 7072 H 686.499 -1.52418 -0.442095 0
M  V30 7073 H 686.52 -2.25854 -3.0622 0
M  V30 7074 H 686.032 -3.48392 -1.71011 0
M  V30 7075 H 684.133 -1.63907 -3.34612 0
M  V30 7076 H 684.246 -3.52081 -3.24925 0
M  V30 7077 H 682.61 -1.80476 -1.79723 0
M  V30 7078 H 683.393 -3.28037 -1.01225 0
M  V30 7079 N 685.838 0.888903 -1.30139 0
M  V30 7080 C 687.085 1.64037 -1.18736 0
M  V30 7081 C 687.413 1.92771 0.258801 0
M  V30 7082 O 686.668 1.54427 1.20212 0
M  V30 7083 C 686.967 2.99041 -1.95728 0
M  V30 7084 C 686.633 2.89874 -3.45375 0
M  V30 7085 C 685.295 2.87082 -3.86183 0
M  V30 7086 C 687.647 2.78289 -4.40687 0
M  V30 7087 C 684.975 2.70536 -5.20603 0
M  V30 7088 C 687.327 2.63282 -5.75209 0
M  V30 7089 C 685.991 2.58861 -6.15262 0
M  V30 7090 H 685.261 0.600253 -0.434485 0
M  V30 7091 H 687.908 1.0338 -1.61198 0
M  V30 7092 H 686.213 3.63626 -1.45888 0
M  V30 7093 H 687.91 3.56139 -1.843 0
M  V30 7094 H 684.5 2.92856 -3.12943 0
M  V30 7095 H 688.684 2.79516 -4.10103 0
M  V30 7096 H 683.94 2.65526 -5.50732 0
M  V30 7097 H 688.114 2.5329 -6.48704 0
M  V30 7098 H 685.741 2.45799 -7.19366 0
M  V30 7099 N 687.317 1.12792 1.10072 0
M  V30 7100 C 688.563 0.89679 1.82563 0
M  V30 7101 C 688.918 -0.571152 1.83727 0
M  V30 7102 O 688.211 -1.41697 1.28967 0
M  V30 7103 C 688.405 1.4102 3.28403 0
M  V30 7104 C 688.234 2.92652 3.41445 0
M  V30 7105 C 687.004 3.60928 3.53637 0
M  V30 7106 C 689.202 3.9063 3.34534 0
M  V30 7107 N 687.184 5.00638 3.55295 0
M  V30 7108 C 688.555 5.16492 3.42981 0
M  V30 7109 C 690.61 3.82989 3.18157 0
M  V30 7110 C 689.313 6.35609 3.3674 0
M  V30 7111 C 691.339 5.01633 3.13239 0
M  V30 7112 C 690.701 6.26355 3.22272 0
M  V30 7113 H 686.8 0.381482 0.682638 0
M  V30 7114 H 689.384 1.43491 1.31599 0
M  V30 7115 H 687.555 0.899077 3.77851 0
M  V30 7116 H 689.287 1.12075 3.88872 0
M  V30 7117 H 686.042 3.11429 3.56803 0
M  V30 7118 H 686.466 5.73521 3.59725 0
M  V30 7119 H 691.108 2.87454 3.10049 0
M  V30 7120 H 688.826 7.31407 3.43613 0
M  V30 7121 H 692.412 4.97454 3.01713 0
M  V30 7122 H 691.292 7.1662 3.18473 0
M  V30 7123 N 688.795 -1.27931 0.920396 0
M  V30 7124 C 690.023 -1.98805 0.573087 0
M  V30 7125 C 690.438 -1.68724 -0.847201 0
M  V30 7126 O 689.795 -0.943699 -1.56207 0
M  V30 7127 C 689.846 -3.52971 0.780633 0
M  V30 7128 O 689.567 -3.81994 2.14504 0
M  V30 7129 C 691.068 -4.411 0.44105 0
M  V30 7130 H 688.288 -0.634651 0.21785 0
M  V30 7131 H 690.832 -1.62965 1.23542 0
M  V30 7132 H 688.987 -3.87048 0.165204 0
M  V30 7133 H 689.401 -4.76609 2.18962 0
M  V30 7134 H 690.875 -5.48312 0.637006 0
M  V30 7135 H 691.352 -4.34758 -0.62306 0
M  V30 7136 H 691.958 -4.12532 1.0343 0
M  V30 7137 N 690.273 -0.685099 -1.4193 0
M  V30 7138 C 691.501 -0.220372 -2.05723 0
M  V30 7139 C 691.916 1.12642 -1.51516 0
M  V30 7140 O 691.273 1.70182 -0.659114 0
M  V30 7141 C 691.324 -0.157974 -3.61155 0
M  V30 7142 O 691.045 -1.45156 -4.13354 0
M  V30 7143 C 692.546 0.329009 -4.42077 0
M  V30 7144 H 689.766 -0.104725 -0.662777 0
M  V30 7145 H 692.31 -0.934736 -1.81887 0
M  V30 7146 H 690.465 0.507144 -3.84066 0
M  V30 7147 H 690.879 -1.33172 -5.07312 0
M  V30 7148 H 692.353 0.321559 -5.51063 0
M  V30 7149 H 692.83 1.36608 -4.17414 0
M  V30 7150 H 693.436 -0.304737 -4.24207 0
M  V30 7151 N 691.751 1.51645 -0.429126 0
M  V30 7152 C 692.684 2.24083 0.431492 0
M  V30 7153 C 693.662 1.25691 1.03153 0
M  V30 7154 O 694.846 1.54802 1.07557 0
M  V30 7155 C 691.973 2.9849 1.60067 0
M  V30 7156 C 691.019 4.11474 1.12211 0
M  V30 7157 S 691.852 5.35453 0.0708449 0
M  V30 7158 C 693.008 6.13395 1.24488 0
M  V30 7159 H 693.241 2.96733 -0.183525 0
M  V30 7160 H 690.774 1.52916 -0.213574 0
M  V30 7161 H 692.732 3.4196 2.27099 0
M  V30 7162 H 691.393 2.25445 2.18708 0
M  V30 7163 H 690.586 4.62784 1.99618 0
M  V30 7164 H 690.188 3.70223 0.530149 0
M  V30 7165 H 692.48 6.41984 2.16479 0
M  V30 7166 H 693.423 7.0388 0.771921 0
M  V30 7167 H 693.831 5.44761 1.47973 0
M  V30 7168 N 693.229 0.160201 1.56784 0
M  V30 7169 C 694.645 -0.196089 1.58391 0
M  V30 7170 C 694.845 -1.63689 1.17508 0
M  V30 7171 O 693.901 -2.36613 0.881506 0
M  V30 7172 C 695.214 0.0746449 3.00607 0
M  V30 7173 C 696.762 0.0119762 3.12998 0
M  V30 7174 C 697.237 0.255551 4.57286 0
M  V30 7175 N 698.728 0.202938 4.62755 0
M  V30 7176 C 699.463 0.365731 5.72232 0
M  V30 7177 N 698.959 0.586972 6.90309 0
M  V30 7178 N 700.752 0.302411 5.61286 0
M  V30 7179 H 692.903 1.1008 1.81648 0
M  V30 7180 H 695.166 0.436779 0.841384 0
M  V30 7181 H 694.872 1.07231 3.34954 0
M  V30 7182 H 694.746 -0.638802 3.71751 0
M  V30 7183 H 697.133 -0.976254 2.78484 0
M  V30 7184 H 697.214 0.75796 2.44313 0
M  V30 7185 H 696.858 1.24094 4.92507 0
M  V30 7186 H 696.788 -0.510912 5.24116 0
M  V30 7187 H 699.279 0.0371328 3.77882 0
M  V30 7188 H 699.592 0.700941 7.69615 0
M  V30 7189 H 697.937 0.623453 6.92198 0
M  V30 7190 H 701.128 0.130238 4.67919 0
M  V30 7191 H 701.301 0.432712 6.46554 0
M  V30 7192 N 694.707 -1.5719 -0.113559 0
M  V30 7193 C 695.937 -1.89053 -0.833212 0
M  V30 7194 C 696.345 -0.750139 -1.73694 0
M  V30 7195 O 695.688 0.287808 -1.81431 0
M  V30 7196 C 695.75 -3.15986 -1.71443 0
M  V30 7197 C 695.414 -4.46271 -0.984449 0
M  V30 7198 C 696.411 -5.18897 -0.322741 0
M  V30 7199 C 694.096 -4.92963 -0.964011 0
M  V30 7200 C 696.09 -6.3644 0.349646 0
M  V30 7201 C 693.777 -6.10422 -0.287828 0
M  V30 7202 C 694.775 -6.82009 0.36784 0
M  V30 7203 O 694.463 -7.97233 1.03322 0
M  V30 7204 H 694.195 -0.630225 -0.244526 0
M  V30 7205 H 696.749 -2.05152 -0.100847 0
M  V30 7206 H 694.979 -2.95984 -2.48858 0
M  V30 7207 H 696.668 -3.33826 -2.309 0
M  V30 7208 H 697.434 -4.83875 -0.330114 0
M  V30 7209 H 693.313 -4.37143 -1.46379 0
M  V30 7210 H 696.857 -6.92254 0.861996 0
M  V30 7211 H 692.754 -6.449 -0.278237 0
M  V30 7212 H 693.522 -8.13105 0.938247 0
M  V30 7213 N 696.185 0.383891 -1.52853 0
M  V30 7214 C 697.148 1.45197 -1.77343 0
M  V30 7215 C 698.148 1.47362 -0.643522 0
M  V30 7216 O 699.338 1.48443 -0.911613 0
M  V30 7217 C 696.47 2.8445 -1.87885 0
M  V30 7218 H 697.663 1.24764 -2.72716 0
M  V30 7219 H 695.216 0.615939 -1.43652 0
M  V30 7220 H 695.951 3.10222 -0.94515 0
M  V30 7221 H 695.736 2.8428 -2.70051 0
M  V30 7222 H 697.226 3.61832 -2.08488 0
M  V30 7223 N 697.663 1.43903 0.642637 0
M  V30 7224 C 698.626 1.49538 1.73698 0
M  V30 7225 C 699.626 0.378776 1.56275 0
M  V30 7226 O 700.816 0.64095 1.6198 0
M  V30 7227 C 697.948 1.35821 3.12675 0
M  V30 7228 H 699.141 2.47008 1.70079 0
M  V30 7229 H 696.694 1.30824 0.85526 0
M  V30 7230 H 697.429 0.393994 3.21898 0
M  V30 7231 H 697.214 2.16776 3.26727 0
M  V30 7232 H 698.704 1.4272 3.92455 0
M  V30 7233 N 699.141 -0.881989 1.30609 0
M  V30 7234 C 700.418 -1.61563 1.10258 0
M  V30 7235 C 700.798 -2.08228 -0.347053 0
M  V30 7236 O 700.146 -1.85151 -1.33908 0
M  V30 7237 C 700.356 -2.78287 2.10612 0
M  V30 7238 C 701.704 -3.48545 2.4249 0
M  V30 7239 O 702.728 -2.88479 2.08945 0
M  V30 7240 O 701.587 -4.56873 2.99883 0
M  V30 7241 H 698.681 -0.710238 0.423663 0
M  V30 7242 H 701.227 -0.928503 1.42045 0
M  V30 7243 H 699.999 -2.41131 3.08174 0
M  V30 7244 H 699.622 -3.54695 1.79659 0
M  V30 7245 N 700.619 -1.13374 -1.09472 0
M  V30 7246 C 702.035 -0.871846 -1.33682 0
M  V30 7247 C 702.235 0.492847 -1.9538 0
M  V30 7248 O 701.291 1.23946 -2.19985 0
M  V30 7249 C 702.604 -1.99608 -2.24893 0
M  V30 7250 C 704.152 -2.02812 -2.38404 0
M  V30 7251 C 704.627 -3.14497 -3.3295 0
M  V30 7252 N 706.118 -3.14004 -3.40523 0
M  V30 7253 C 706.853 -3.97061 -4.13679 0
M  V30 7254 N 706.349 -4.90131 -4.89636 0
M  V30 7255 N 708.142 -3.85162 -4.09398 0
M  V30 7256 H 700.293 -2.01288 -0.677995 0
M  V30 7257 H 702.556 -0.876492 -0.361201 0
M  V30 7258 H 702.262 -2.98 -1.86786 0
M  V30 7259 H 702.136 -1.90981 -3.25278 0
M  V30 7260 H 704.523 -1.05034 -2.75775 0
M  V30 7261 H 704.604 -2.15511 -1.37799 0
M  V30 7262 H 704.248 -4.12514 -2.96302 0
M  V30 7263 H 704.178 -2.99035 -4.33458 0
M  V30 7264 H 706.669 -2.46587 -2.86362 0
M  V30 7265 H 706.982 -5.49996 -5.42885 0
M  V30 7266 H 705.327 -4.94138 -4.88726 0
M  V30 7267 H 708.518 -3.11779 -3.49158 0
M  V30 7268 H 708.691 -4.5012 -4.6615 0
M  V30 7269 N 702.098 1.27442 -0.927168 0
M  V30 7270 C 703.03 2.25975 -0.383158 0
M  V30 7271 C 704.043 1.55382 0.485832 0
M  V30 7272 O 705.232 1.75986 0.298541 0
M  V30 7273 C 702.332 3.35629 0.469688 0
M  V30 7274 C 701.505 4.35747 -0.379886 0
M  V30 7275 C 700.564 5.24598 0.410227 0
M  V30 7276 O 699.59 5.68909 -0.181888 0
M  V30 7277 N 700.792 5.54737 1.71017 0
M  V30 7278 H 703.557 2.7329 -1.23015 0
M  V30 7279 H 701.118 1.41063 -0.794539 0
M  V30 7280 H 703.11 3.92015 1.00532 0
M  V30 7281 H 701.68 2.87919 1.21744 0
M  V30 7282 H 700.9 3.78634 -1.09682 0
M  V30 7283 H 702.188 4.99648 -0.960717 0
M  V30 7284 H 701.586 5.20594 2.21356 0
M  V30 7285 H 700.143 6.13824 2.19234 0
M  V30 7286 N 703.576 0.692616 1.41565 0
M  V30 7287 C 704.824 0.221896 2.00878 0
M  V30 7288 C 705.145 -1.18164 1.5512 0
M  V30 7289 O 704.415 -1.79679 0.78054 0
M  V30 7290 H 702.995 0.0790463 0.742806 0
M  V30 7291 H 705.657 0.893115 1.73232 0
M  V30 7292 H 704.753 0.23702 3.11199 0
M  V30 7293 N 705.054 -1.51416 0.437162 0
M  V30 7294 C 706.001 -2.27743 -0.374374 0
M  V30 7295 C 706.971 -1.31327 -1.01698 0
M  V30 7296 O 708.156 -1.60229 -1.03592 0
M  V30 7297 C 705.296 -3.12241 -1.46969 0
M  V30 7298 C 704.409 -4.23651 -0.845236 0
M  V30 7299 C 703.544 -4.95458 -1.91559 0
M  V30 7300 C 702.583 -5.98789 -1.26956 0
M  V30 7301 N 701.72 -6.64005 -2.28126 0
M  V30 7302 H 706.56 -2.96654 0.282892 0
M  V30 7303 H 704.097 -1.46319 0.151352 0
M  V30 7304 H 706.055 -3.59556 -2.11602 0
M  V30 7305 H 704.685 -2.45445 -2.09659 0
M  V30 7306 H 703.737 -3.803 -0.0872059 0
M  V30 7307 H 705.049 -4.97683 -0.333582 0
M  V30 7308 H 704.203 -5.46321 -2.63854 0
M  V30 7309 H 702.942 -4.21055 -2.46097 0
M  V30 7310 H 701.947 -5.47219 -0.53207 0
M  V30 7311 H 703.172 -6.75149 -0.731509 0
M  V30 7312 H 701.118 -5.92415 -2.81745 0
M  V30 7313 H 701.035 -7.33802 -1.81852 0
M  V30 7314 H 702.303 -7.19498 -2.99905 0
M  V30 7315 N 706.532 -0.168513 -1.56696 0
M  V30 7316 C 707.781 0.477233 -1.95973 0
M  V30 7317 C 708.094 1.64578 -1.05704 0
M  V30 7318 O 709.3 2.35758 -1.3465 0
M  V30 7319 C 707.756 0.900413 -3.48455 0
M  V30 7320 C 707.364 -0.242382 -4.47344 0
M  V30 7321 C 709.108 1.51474 -3.96555 0
M  V30 7322 C 707.015 0.200272 -5.91061 0
M  V30 7323 H 705.945 0.182061 -0.73169 0
M  V30 7324 H 708.596 -0.256297 -1.81701 0
M  V30 7325 H 706.978 1.68984 -3.58135 0
M  V30 7326 H 708.152 -1.01967 -4.49377 0
M  V30 7327 H 706.467 -0.766484 -4.09285 0
M  V30 7328 H 709.064 1.85792 -5.01384 0
M  V30 7329 H 709.407 2.41163 -3.39332 0
M  V30 7330 H 709.94 0.789802 -3.89881 0
M  V30 7331 H 706.679 -0.661775 -6.52151 0
M  V30 7332 H 706.199 0.942979 -5.92341 0
M  V30 7333 H 707.878 0.645088 -6.43776 0
M  V30 7334 N 708.01 1.57248 0.105221 0
M  V30 7335 C 708.94 2.04374 1.12931 0
M  V30 7336 C 709.921 0.93074 1.42377 0
M  V30 7337 O 711.106 1.20136 1.52581 0
M  V30 7338 C 708.236 2.45967 2.45189 0
M  V30 7339 C 707.19 3.60838 2.30174 0
M  V30 7340 C 706.516 3.88374 3.67518 0
M  V30 7341 C 707.816 4.92084 1.75073 0
M  V30 7342 H 709.51 2.9018 0.737287 0
M  V30 7343 H 707.056 1.39601 0.353211 0
M  V30 7344 H 709.009 2.77542 3.17094 0
M  V30 7345 H 707.733 1.57148 2.86308 0
M  V30 7346 H 706.392 3.29493 1.60716 0
M  V30 7347 H 706.04 2.96739 4.06147 0
M  V30 7348 H 705.74 4.65703 3.58321 0
M  V30 7349 H 707.264 4.22415 4.40906 0
M  V30 7350 H 708.678 5.22106 2.36809 0
M  V30 7351 H 707.075 5.73507 1.76662 0
M  V30 7352 H 708.145 4.79684 0.709347 0
M  V30 7353 N 709.488 -0.375779 1.53054 0
M  V30 7354 C 710.451 -1.44254 1.7811 0
M  V30 7355 C 711.451 -1.47018 0.651328 0
M  V30 7356 O 712.641 -1.47957 0.919472 0
M  V30 7357 C 709.773 -2.8345 1.89391 0
M  V30 7358 H 710.966 -1.23316 2.73374 0
M  V30 7359 H 708.519 -0.608312 1.43977 0
M  V30 7360 H 709.254 -3.09716 0.961589 0
M  V30 7361 H 709.039 -2.82844 2.71555 0
M  V30 7362 H 710.529 -3.60722 2.10404 0
M  V30 7363 N 710.966 -1.44241 -0.634997 0
M  V30 7364 C 711.899 -1.45274 -1.75985 0
M  V30 7365 C 712.877 -0.312025 -1.59578 0
M  V30 7366 O 714.061 -0.508409 -1.81514 0
M  V30 7367 C 711.188 -1.28173 -3.13511 0
M  V30 7368 C 710.234 -2.45757 -3.48576 0
M  V30 7369 S 711.067 -4.08293 -3.46492 0
M  V30 7370 C 712.223 -3.93608 -4.86645 0
M  V30 7371 H 712.456 -2.40454 -1.74841 0
M  V30 7372 H 709.989 -1.31492 -0.809268 0
M  V30 7373 H 711.947 -1.18993 -3.92875 0
M  V30 7374 H 710.608 -0.34511 -3.12198 0
M  V30 7375 H 709.801 -2.29644 -4.48642 0
M  V30 7376 H 709.403 -2.51657 -2.76667 0
M  V30 7377 H 711.695 -3.57059 -5.75774 0
M  V30 7378 H 712.638 -4.9349 -5.07813 0
M  V30 7379 H 713.046 -3.25737 -4.61038 0
M  V30 7380 N 712.444 0.87505 -1.31075 0
M  V30 7381 C 713.354 2.01441 -1.20244 0
M  V30 7382 C 714.37 1.73584 -0.120227 0
M  V30 7383 O 715.546 1.98559 -0.337063 0
M  V30 7384 C 712.611 3.34675 -0.905199 0
M  V30 7385 C 711.672 3.75889 -2.0738 0
M  V30 7386 C 710.905 5.02764 -1.79064 0
M  V30 7387 O 711.128 5.65795 -0.723318 0
M  V30 7388 O 710.062 5.40623 -2.64594 0
M  V30 7389 H 713.888 2.13509 -2.1598 0
M  V30 7390 H 711.473 1.00257 -1.10765 0
M  V30 7391 H 713.355 4.1458 -0.755057 0
M  V30 7392 H 712.03 3.23692 0.0221695 0
M  V30 7393 H 710.937 2.96645 -2.27931 0
M  V30 7394 H 712.27 3.91489 -2.98324 0
M  V30 7395 N 713.922 1.13953 1.08869 0
M  V30 7396 C 715.15 0.92817 1.84912 0
M  V30 7397 C 715.565 -0.523197 1.81406 0
M  V30 7398 O 714.922 -1.36237 1.21432 0
M  V30 7399 C 714.973 1.41509 3.32652 0
M  V30 7400 O 714.694 2.80959 3.36145 0
M  V30 7401 C 716.195 1.243 4.25517 0
M  V30 7402 H 713.415 0.330612 0.583898 0
M  V30 7403 H 715.959 1.51349 1.37527 0
M  V30 7404 H 714.114 0.872648 3.77444 0
M  V30 7405 H 714.528 3.02704 4.28335 0
M  V30 7406 H 716.002 1.63237 5.27312 0
M  V30 7407 H 716.479 0.18532 4.38809 0
M  V30 7408 H 717.085 1.77375 3.86546 0
M  V30 7409 N 715.4 -1.26948 0.933913 0
M  V30 7410 C 716.677 -1.89212 0.495784 0
M  V30 7411 C 717.057 -1.84469 -1.02637 0
M  V30 7412 O 716.405 -1.29409 -1.88323 0
M  V30 7413 C 716.615 -3.32865 1.0489 0
M  V30 7414 C 717.963 -4.09749 1.11315 0
M  V30 7415 O 718.987 -3.41905 0.998966 0
M  V30 7416 O 717.846 -5.31061 1.28983 0
M  V30 7417 H 714.94 -0.811284 0.160459 0
M  V30 7418 H 717.486 -1.35171 1.02601 0
M  V30 7419 H 716.258 -3.30642 2.09265 0
M  V30 7420 H 715.881 -3.94435 0.500692 0
M  V30 7421 N 716.879 -0.700114 -1.41195 0
M  V30 7422 C 718.125 -0.242122 -2.01954 0
M  V30 7423 C 718.48 1.14697 -1.54475 0
M  V30 7424 O 717.773 1.76392 -0.748095 0
M  V30 7425 C 717.967 -0.243986 -3.56566 0
M  V30 7426 C 717.796 -1.63172 -4.19053 0
M  V30 7427 C 716.566 -2.23566 -4.53152 0
M  V30 7428 C 718.764 -2.57916 -4.44954 0
M  V30 7429 N 716.746 -3.54856 -5.00949 0
M  V30 7430 C 718.117 -3.73892 -4.94576 0
M  V30 7431 C 720.172 -2.56125 -4.26971 0
M  V30 7432 C 718.875 -4.88363 -5.28104 0
M  V30 7433 C 720.901 -3.69712 -4.61592 0
M  V30 7434 C 720.263 -4.84418 -5.11389 0
M  V30 7435 H 716.362 -0.134088 -0.770418 0
M  V30 7436 H 718.946 -0.918576 -1.71669 0
M  V30 7437 H 717.117 0.401971 -3.86314 0
M  V30 7438 H 718.849 0.229261 -4.0405 0
M  V30 7439 H 715.604 -1.75809 -4.39759 0
M  V30 7440 H 716.028 -4.22167 -5.29249 0
M  V30 7441 H 720.67 -1.68656 -3.87705 0
M  V30 7442 H 718.388 -5.76488 -5.66292 0
M  V30 7443 H 721.974 -3.69583 -4.49332 0
M  V30 7444 H 720.854 -5.70855 -5.37675 0
M  V30 7445 N 718.357 1.51182 -0.445186 0
M  V30 7446 C 719.582 2.07056 0.119445 0
M  V30 7447 C 720.007 1.30966 1.35016 0
M  V30 7448 O 719.365 0.349827 1.77893 0
M  V30 7449 C 719.413 3.58234 0.412428 0
M  V30 7450 O 718.517 3.84249 1.49754 0
M  V30 7451 H 717.858 0.663998 -0.00157797 0
M  V30 7452 H 720.388 1.94699 -0.628779 0
M  V30 7453 H 720.398 4.02617 0.660583 0
M  V30 7454 H 719.073 4.13038 -0.487049 0
M  V30 7455 H 717.65 3.51724 1.23873 0
M  V30 7456 N 719.835 0.176821 1.56605 0
M  V30 7457 C 721.081 -0.467406 1.9734 0
M  V30 7458 C 721.414 -1.62523 1.06301 0
M  V30 7459 O 720.689 -1.94182 0.11125 0
M  V30 7460 C 720.972 -0.945106 3.47476 0
M  V30 7461 C 720.825 0.213273 4.49294 0
M  V30 7462 C 722.144 -1.8169 4.00845 0
M  V30 7463 H 719.263 -0.168426 0.717497 0
M  V30 7464 H 721.905 0.264065 1.88156 0
M  V30 7465 H 720.055 -1.56841 3.55434 0
M  V30 7466 H 721.727 0.850508 4.53392 0
M  V30 7467 H 719.97 0.867918 4.25029 0
M  V30 7468 H 720.641 -0.163187 5.51759 0
M  V30 7469 H 723.117 -1.29139 3.95553 0
M  V30 7470 H 721.993 -2.12015 5.06301 0
M  V30 7471 H 722.254 -2.76463 3.44994 0
M  V30 7472 N 721.313 -1.57302 -0.09688 0
M  V30 7473 C 722.59 -1.7701 -0.832272 0
M  V30 7474 C 722.97 -0.758025 -1.97021 0
M  V30 7475 O 722.318 0.213824 -2.27497 0
M  V30 7476 C 722.528 -3.22725 -1.32851 0
M  V30 7477 C 723.876 -3.85856 -1.772 0
M  V30 7478 O 724.9 -3.26464 -1.42478 0
M  V30 7479 O 723.759 -4.90295 -2.41398 0
M  V30 7480 H 720.853 -0.725558 -0.396856 0
M  V30 7481 H 723.399 -1.69516 -0.0789005 0
M  V30 7482 H 722.171 -3.87921 -0.51312 0
M  V30 7483 H 721.794 -3.34845 -2.14394 0
M  V30 7484 N 722.791 0.367657 -1.53252 0
M  V30 7485 C 723.741 1.45035 -1.75923 0
M  V30 7486 C 724.725 1.48736 -0.613719 0
M  V30 7487 O 725.917 1.54012 -0.872313 0
M  V30 7488 C 723.046 2.82493 -1.9507 0
M  V30 7489 C 722.132 2.83279 -3.15617 0
M  V30 7490 N 722.523 2.53712 -4.37566 0
M  V30 7491 C 720.821 3.1444 -3.16297 0
M  V30 7492 C 721.522 2.62123 -5.19294 0
M  V30 7493 N 720.498 2.96747 -4.55458 0
M  V30 7494 H 724.3 1.21035 -2.6782 0
M  V30 7495 H 721.814 0.575822 -1.51849 0
M  V30 7496 H 723.811 3.60473 -2.0944 0
M  V30 7497 H 722.471 3.07459 -1.044 0
M  V30 7498 H 723.482 2.27344 -4.65333 0
M  V30 7499 H 720.159 3.44733 -2.35511 0
M  V30 7500 H 721.549 2.42628 -6.26563 0
M  V30 7501 N 724.269 1.44576 0.627338 0
M  V30 7502 C 725.517 1.47267 1.38408 0
M  V30 7503 C 725.838 0.107971 1.94701 0
M  V30 7504 O 725.108 -0.860206 1.76004 0
M  V30 7505 H 723.688 0.542276 0.513756 0
M  V30 7506 H 726.35 1.80383 0.738099 0
M  V30 7507 H 725.446 2.20025 2.21349 0
M  V30 7508 N 725.747 -0.868086 1.31537 0
M  V30 7509 C 727.158 -1.437 1.19195 0
M  V30 7510 C 727.509 -1.95169 -0.200842 0
M  V30 7511 O 726.634 -1.86432 -1.09872 0
M  V30 7512 C 727.229 -2.612 2.15778 0
M  V30 7513 C 725.788 -3.1413 2.07363 0
M  V30 7514 C 724.935 -1.86845 2.049 0
M  V30 7515 H 727.886 -0.676457 1.43561 0
M  V30 7516 H 727.907 -3.37948 1.74847 0
M  V30 7517 H 727.419 -2.23709 3.17137 0
M  V30 7518 H 725.52 -3.56238 1.09204 0
M  V30 7519 H 725.633 -3.76285 2.96557 0
M  V30 7520 H 723.997 -2.05886 1.49943 0
M  V30 7521 H 724.78 -1.51589 3.08019 0
M  V30 7522 N 727.225 -1.14528 -1.08264 0
M  V30 7523 C 728.455 -0.936604 -1.8415 0
M  V30 7524 C 728.863 0.518298 -1.81962 0
M  V30 7525 O 728.206 1.37096 -1.22272 0
M  V30 7526 C 728.268 -1.36182 -3.32708 0
M  V30 7527 C 727.932 -2.83257 -3.58629 0
M  V30 7528 C 728.929 -3.81366 -3.5335 0
M  V30 7529 C 726.614 -3.20704 -3.86593 0
M  V30 7530 C 728.608 -5.14929 -3.75668 0
M  V30 7531 C 726.295 -4.54443 -4.08564 0
M  V30 7532 C 727.293 -5.51365 -4.03095 0
M  V30 7533 O 726.981 -6.8269 -4.24488 0
M  V30 7534 H 726.713 -0.333254 -0.588148 0
M  V30 7535 H 729.267 -1.5247 -1.3763 0
M  V30 7536 H 727.497 -0.717063 -3.79994 0
M  V30 7537 H 729.186 -1.12372 -3.90035 0
M  V30 7538 H 729.952 -3.53781 -3.31759 0
M  V30 7539 H 725.831 -2.45857 -3.89969 0
M  V30 7540 H 729.375 -5.90568 -3.71315 0
M  V30 7541 H 725.272 -4.81747 -4.29639 0
M  V30 7542 H 726.04 -6.8897 -4.41886 0
M  V30 7543 N 728.703 1.26451 -0.940633 0
M  V30 7544 C 729.928 1.98407 -0.60412 0
M  V30 7545 C 730.353 1.69584 0.81382 0
M  V30 7546 O 729.711 0.943553 1.54812 0
M  V30 7547 C 729.759 3.50387 -0.852136 0
M  V30 7548 O 728.863 4.1233 0.076013 0
M  V30 7549 H 728.204 0.622466 -0.231153 0
M  V30 7550 H 730.734 1.60932 -1.26342 0
M  V30 7551 H 730.744 4.00614 -0.772816 0
M  V30 7552 H 729.419 3.70696 -1.88566 0
M  V30 7553 H 727.996 3.7286 -0.0543187 0
M  V30 7554 N 730.181 0.707592 1.40822 0
M  V30 7555 C 731.091 0.0507246 2.34545 0
M  V30 7556 C 732.107 -0.752727 1.56876 0
M  V30 7557 O 733.283 -0.687524 1.89302 0
M  V30 7558 C 730.348 -0.865731 3.35717 0
M  V30 7559 C 729.409 -0.0531313 4.29267 0
M  V30 7560 C 728.642 -0.925939 5.25606 0
M  V30 7561 O 728.865 -2.16531 5.27703 0
M  V30 7562 O 727.799 -0.369194 6.00767 0
M  V30 7563 H 731.625 0.823587 2.9232 0
M  V30 7564 H 729.21 0.46801 1.4188 0
M  V30 7565 H 731.092 -1.39091 3.97783 0
M  V30 7566 H 729.767 -1.61788 2.80368 0
M  V30 7567 H 728.674 0.516931 3.70511 0
M  V30 7568 H 730.007 0.660617 4.87747 0
M  V30 7569 N 731.66 -1.50943 0.453197 0
M  V30 7570 C 732.907 -2.02212 -0.107922 0
M  V30 7571 C 733.235 -1.33639 -1.41318 0
M  V30 7572 O 732.49 -0.445154 -1.9057 0
M  V30 7573 C 732.789 -3.55603 -0.357944 0
M  V30 7574 C 732.455 -4.42556 0.863427 0
M  V30 7575 C 731.117 -4.6604 1.19834 0
M  V30 7576 C 733.469 -4.93468 1.67747 0
M  V30 7577 C 730.797 -5.37681 2.34768 0
M  V30 7578 C 733.149 -5.6637 2.81793 0
M  V30 7579 C 731.813 -5.88113 3.1572 0
M  V30 7580 H 731.083 -0.739947 -0.0394916 0
M  V30 7581 H 733.73 -1.81738 0.60363 0
M  V30 7582 H 732.035 -3.74495 -1.15156 0
M  V30 7583 H 733.732 -3.92821 -0.805781 0
M  V30 7584 H 730.322 -4.24485 0.592478 0
M  V30 7585 H 734.506 -4.75194 1.43192 0
M  V30 7586 H 729.762 -5.52727 2.61348 0
M  V30 7587 H 733.936 -6.04806 3.45229 0
M  V30 7588 H 731.563 -6.43404 4.04889 0
M  V30 7589 N 733.138 -0.185124 -1.56509 0
M  V30 7590 C 734.386 0.455357 -1.96903 0
M  V30 7591 C 734.707 1.62839 -1.07277 0
M  V30 7592 O 733.977 1.95385 -0.141966 0
M  V30 7593 H 732.557 0.171218 -0.727113 0
M  V30 7594 H 735.219 -0.26953 -1.93027 0
M  V30 7595 H 734.315 0.80616 -3.01509 0
M  V30 7596 N 734.616 1.57351 0.0885366 0
M  V30 7597 C 735.893 1.77449 0.822873 0
M  V30 7598 C 736.273 0.768463 1.96616 0
M  V30 7599 O 735.621 -0.201757 2.27608 0
M  V30 7600 C 735.831 3.23425 1.31137 0
M  V30 7601 C 737.179 3.86791 1.75152 0
M  V30 7602 O 738.203 3.27215 1.40745 0
M  V30 7603 O 737.062 4.91568 2.38794 0
M  V30 7604 H 734.156 0.727653 0.393002 0
M  V30 7605 H 736.702 1.69556 0.0699095 0
M  V30 7606 H 735.474 3.88188 0.49254 0
M  V30 7607 H 735.097 3.35977 2.12615 0
M  V30 7608 N 736.094 -0.359525 1.53444 0
M  V30 7609 C 737.024 -1.44662 1.8329 0
M  V30 7610 C 738.005 -1.55617 0.68683 0
M  V30 7611 O 739.19 -1.70086 0.93725 0
M  V30 7612 C 736.32 -2.81923 2.02822 0
M  V30 7613 C 735.274 -2.85787 3.18606 0
M  V30 7614 C 734.6 -4.25781 3.23442 0
M  V30 7615 C 735.9 -2.52762 4.57065 0
M  V30 7616 H 737.594 -1.19934 2.74329 0
M  V30 7617 H 735.14 -0.575517 1.31999 0
M  V30 7618 H 737.093 -3.58005 2.22285 0
M  V30 7619 H 735.817 -3.08051 1.085 0
M  V30 7620 H 734.476 -2.12157 2.98973 0
M  V30 7621 H 734.124 -4.48994 2.26745 0
M  V30 7622 H 733.824 -4.29281 4.01238 0
M  V30 7623 H 735.348 -5.03727 3.45096 0
M  V30 7624 H 736.762 -3.18557 4.76649 0
M  V30 7625 H 735.159 -2.67569 5.37147 0
M  V30 7626 H 736.229 -1.47993 4.61764 0
M  V30 7627 N 737.572 -1.44907 -0.619662 0
M  V30 7628 C 738.502 -1.55488 -1.742 0
M  V30 7629 C 739.483 -0.407143 -1.65156 0
M  V30 7630 O 740.668 -0.628743 -1.8374 0
M  V30 7631 C 737.798 -1.5097 -3.1277 0
M  V30 7632 C 736.752 -2.64337 -3.36615 0
M  V30 7633 C 736.078 -2.44872 -4.75333 0
M  V30 7634 C 737.378 -4.06423 -3.28051 0
M  V30 7635 H 739.072 -2.49432 -1.65602 0
M  V30 7636 H 736.618 -1.20047 -0.795281 0
M  V30 7637 H 738.571 -1.56971 -3.91073 0
M  V30 7638 H 737.295 -0.535486 -3.2218 0
M  V30 7639 H 735.954 -2.57744 -2.60698 0
M  V30 7640 H 735.602 -1.45617 -4.81461 0
M  V30 7641 H 735.302 -3.20888 -4.92244 0
M  V30 7642 H 736.826 -2.52709 -5.55851 0
M  V30 7643 H 738.24 -4.14324 -3.96243 0
M  V30 7644 H 736.637 -4.82733 -3.56495 0
M  V30 7645 H 737.707 -4.29183 -2.25676 0
M  V30 7646 N 739.05 0.861098 -1.31996 0
M  V30 7647 C 740.278 1.6474 -1.25173 0
M  V30 7648 C 740.693 1.87926 0.181425 0
M  V30 7649 O 740.05 1.4437 1.1164 0
M  V30 7650 C 740.101 3.01036 -2.0015 0
M  V30 7651 O 739.822 2.7888 -3.37872 0
M  V30 7652 C 741.323 3.95481 -2.00273 0
M  V30 7653 H 738.543 0.513314 -0.432146 0
M  V30 7654 H 741.087 1.07419 -1.74016 0
M  V30 7655 H 739.242 3.55021 -1.55046 0
M  V30 7656 H 739.656 3.65514 -3.76165 0
M  V30 7657 H 741.13 4.88403 -2.57229 0
M  V30 7658 H 741.607 4.27957 -0.987407 0
M  V30 7659 H 742.213 3.47433 -2.45296 0
M  V30 7660 N 740.528 1.15101 1.07655 0
M  V30 7661 C 741.458 0.867864 2.16773 0
M  V30 7662 C 742.439 -0.180283 1.69142 0
M  V30 7663 O 743.624 -0.0353152 1.94168 0
M  V30 7664 C 740.754 0.35299 3.45501 0
M  V30 7665 C 739.708 1.33746 4.06566 0
M  V30 7666 C 739.034 0.681562 5.30338 0
M  V30 7667 C 740.334 2.7024 4.46954 0
M  V30 7668 H 742.028 1.78034 2.40716 0
M  V30 7669 H 739.574 0.857435 1.15689 0
M  V30 7670 H 741.527 0.142465 4.21159 0
M  V30 7671 H 740.251 -0.594945 3.21135 0
M  V30 7672 H 738.91 1.53429 3.32949 0
M  V30 7673 H 738.558 -0.272422 5.02262 0
M  V30 7674 H 738.258 1.33853 5.72151 0
M  V30 7675 H 739.782 0.48074 6.08705 0
M  V30 7676 H 741.196 2.5442 5.13754 0
M  V30 7677 H 739.593 3.32282 4.99709 0
M  V30 7678 H 740.663 3.26537 3.58471 0
M  V30 7679 N 742.006 -1.2595 0.947325 0
M  V30 7680 C 743.422 -1.45737 0.650597 0
M  V30 7681 C 743.622 -1.85189 -0.794188 0
M  V30 7682 O 742.678 -1.97738 -1.57022 0
M  V30 7683 C 743.991 -2.53505 1.61728 0
M  V30 7684 C 745.539 -2.67351 1.62765 0
M  V30 7685 C 746.014 -3.78296 2.58179 0
M  V30 7686 N 747.505 -3.85696 2.56501 0
M  V30 7687 C 748.24 -4.71012 3.2701 0
M  V30 7688 N 747.736 -5.60669 4.06966 0
M  V30 7689 N 749.529 -4.64912 3.15932 0
M  V30 7690 H 741.68 -0.986327 1.8811 0
M  V30 7691 H 743.943 -0.494639 0.808725 0
M  V30 7692 H 743.649 -2.31357 2.6489 0
M  V30 7693 H 743.523 -3.51281 1.3741 0
M  V30 7694 H 745.91 -2.88869 0.603241 0
M  V30 7695 H 745.991 -1.69998 1.91139 0
M  V30 7696 H 745.635 -3.5753 3.60742 0
M  V30 7697 H 745.565 -4.75117 2.27093 0
M  V30 7698 H 748.056 -3.21601 1.98447 0
M  V30 7699 H 748.369 -6.22677 4.57704 0
M  V30 7700 H 746.714 -5.60402 4.11066 0
M  V30 7701 H 749.905 -3.93874 2.52945 0
M  V30 7702 H 750.078 -5.3118 3.71149 0
M  V30 7703 N 743.484 -0.715051 -1.40445 0
M  V30 7704 C 744.732 -0.253826 -2.005 0
M  V30 7705 C 745.053 1.15681 -1.5698 0
M  V30 7706 O 744.323 1.78414 -0.809027 0
M  V30 7707 H 742.903 -0.0908537 -0.741454 0
M  V30 7708 H 745.565 -0.920561 -1.7179 0
M  V30 7709 H 744.661 -0.286499 -3.10782 0
M  V30 7710 N 744.962 1.50701 -0.461195 0
M  V30 7711 C 745.925 2.2686 0.326679 0
M  V30 7712 C 746.925 1.31243 0.929085 0
M  V30 7713 O 748.115 1.54754 0.799807 0
M  V30 7714 C 745.247 3.07844 1.46441 0
M  V30 7715 H 746.44 2.97954 -0.341095 0
M  V30 7716 H 743.993 1.54814 -0.214984 0
M  V30 7717 H 744.728 2.41223 2.16753 0
M  V30 7718 H 744.513 3.78101 1.03836 0
M  V30 7719 H 746.003 3.65469 2.02044 0
M  V30 7720 N 746.441 0.193421 1.56409 0
M  V30 7721 C 747.373 -0.759944 2.16235 0
M  V30 7722 C 748.386 -1.17797 1.12373 0
M  V30 7723 O 749.575 -1.11399 1.39472 0
M  V30 7724 C 746.675 -2.03735 2.70823 0
M  V30 7725 C 745.848 -1.77939 3.9957 0
M  V30 7726 C 744.907 -2.90111 4.39001 0
M  V30 7727 O 743.933 -2.59791 5.06456 0
M  V30 7728 N 745.135 -4.18426 4.02368 0
M  V30 7729 H 747.9 -0.248348 2.98669 0
M  V30 7730 H 745.461 0.0113966 1.61896 0
M  V30 7731 H 747.453 -2.77914 2.94187 0
M  V30 7732 H 746.023 -2.46022 1.92852 0
M  V30 7733 H 745.243 -0.875491 3.84355 0
M  V30 7734 H 746.531 -1.58099 4.83614 0
M  V30 7735 H 745.929 -4.45913 3.48106 0
M  V30 7736 H 744.486 -4.89237 4.30686 0
M  V30 7737 N 747.919 -1.57396 -0.0801906 0
M  V30 7738 C 749.149 -1.90778 -0.792924 0
M  V30 7739 C 749.557 -0.786814 -1.72064 0
M  V30 7740 O 748.9 0.249259 -1.82001 0
M  V30 7741 C 748.962 -3.19552 -1.64702 0
M  V30 7742 C 748.626 -4.48259 -0.889567 0
M  V30 7743 C 749.623 -5.19465 -0.212602 0
M  V30 7744 C 747.308 -4.94896 -0.859229 0
M  V30 7745 C 749.302 -6.35555 0.484566 0
M  V30 7746 C 746.989 -6.10895 -0.158284 0
M  V30 7747 C 747.987 -6.81075 0.512421 0
M  V30 7748 O 747.675 -7.94862 1.20209 0
M  V30 7749 H 747.407 -0.63527 -0.231103 0
M  V30 7750 H 749.961 -2.0532 -0.0573081 0
M  V30 7751 H 748.191 -3.01196 -2.42524 0
M  V30 7752 H 749.88 -3.38649 -2.23767 0
M  V30 7753 H 750.646 -4.84467 -0.227403 0
M  V30 7754 H 746.525 -4.4015 -1.37073 0
M  V30 7755 H 750.069 -6.9027 1.00864 0
M  V30 7756 H 745.966 -6.45345 -0.141381 0
M  V30 7757 H 746.734 -8.10932 1.11051 0
M  V30 7758 N 749.397 0.351382 -1.53633 0
M  V30 7759 C 750.646 1.08988 -1.69719 0
M  V30 7760 C 750.959 1.90043 -0.462948 0
M  V30 7761 O 752.165 2.66769 -0.504613 0
M  V30 7762 C 750.621 1.98691 -3.00083 0
M  V30 7763 C 750.229 1.22881 -4.30818 0
M  V30 7764 C 751.973 2.72446 -3.25536 0
M  V30 7765 C 749.88 2.11568 -5.52262 0
M  V30 7766 H 748.81 0.410588 -0.632403 0
M  V30 7767 H 751.461 0.349886 -1.80133 0
M  V30 7768 H 749.843 2.76478 -2.83506 0
M  V30 7769 H 751.017 0.500582 -4.58073 0
M  V30 7770 H 749.332 0.60928 -4.11918 0
M  V30 7771 H 751.929 3.39055 -4.13456 0
M  V30 7772 H 752.272 3.38588 -2.42206 0
M  V30 7773 H 752.805 2.01735 -3.42852 0
M  V30 7774 H 749.544 1.4998 -6.38111 0
M  V30 7775 H 749.064 2.82201 -5.29266 0
M  V30 7776 H 750.743 2.70802 -5.87601 0
M  V30 7777 N 750.875 1.45233 0.611969 0
M  V30 7778 C 752.123 1.48727 1.36838 0
M  V30 7779 C 752.444 0.128616 1.94575 0
M  V30 7780 O 751.714 -0.84149 1.76906 0
M  V30 7781 H 750.294 0.547695 0.507976 0
M  V30 7782 H 752.956 1.81156 0.718925 0
M  V30 7783 H 752.052 2.2236 2.19003 0
M  V30 7784 N 752.353 -0.854086 1.3245 0
M  V30 7785 C 753.316 -1.94427 1.21371 0
M  V30 7786 C 754.316 -1.60219 0.136613 0
M  V30 7787 O 755.506 -1.69846 0.387057 0
M  V30 7788 C 752.638 -3.29698 0.866701 0
M  V30 7789 H 753.831 -2.05679 2.18257 0
M  V30 7790 H 751.384 -1.04434 1.1629 0
M  V30 7791 H 752.119 -3.24145 -0.100319 0
M  V30 7792 H 751.904 -3.55903 1.64545 0
M  V30 7793 H 753.394 -4.09599 0.813515 0
M  V30 7794 N 753.831 -1.1567 -1.07043 0
M  V30 7795 C 755.079 -0.931673 -1.79344 0
M  V30 7796 C 755.4 0.542421 -1.87304 0
M  V30 7797 O 754.67 1.39418 -1.37621 0
M  V30 7798 H 753.25 -0.34171 -0.664262 0
M  V30 7799 H 755.912 -1.45795 -1.29344 0
M  V30 7800 H 755.008 -1.34379 -2.81689 0
M  V30 7801 N 755.309 1.25446 -0.953992 0
M  V30 7802 C 756.539 1.96929 -0.624688 0
M  V30 7803 C 756.947 1.71112 0.807292 0
M  V30 7804 O 756.29 0.983512 1.55154 0
M  V30 7805 C 756.352 3.50425 -0.802676 0
M  V30 7806 C 756.016 3.99916 -2.21169 0
M  V30 7807 C 757.013 4.10662 -3.18831 0
M  V30 7808 C 754.698 4.33598 -2.53571 0
M  V30 7809 C 756.692 4.54401 -4.46988 0
M  V30 7810 C 754.379 4.77024 -3.81958 0
M  V30 7811 C 755.377 4.87388 -4.78478 0
M  V30 7812 O 755.065 5.29851 -6.04577 0
M  V30 7813 H 754.797 0.634511 -0.233179 0
M  V30 7814 H 757.351 1.60591 -1.28061 0
M  V30 7815 H 755.581 3.86596 -0.0896044 0
M  V30 7816 H 757.27 4.03117 -0.47452 0
M  V30 7817 H 758.036 3.84872 -2.95124 0
M  V30 7818 H 753.915 4.24757 -1.79171 0
M  V30 7819 H 757.459 4.62406 -5.22328 0
M  V30 7820 H 753.356 5.02258 -4.05471 0
M  V30 7821 H 754.124 5.48039 -6.07944 0
M  V30 7822 N 756.787 0.722489 1.40064 0
M  V30 7823 C 758.035 0.264455 2.00362 0
M  V30 7824 C 758.356 -1.14847 1.57592 0
M  V30 7825 O 757.626 -1.77982 0.818477 0
M  V30 7826 H 756.206 0.0947846 0.740962 0
M  V30 7827 H 758.868 0.929659 1.71299 0
M  V30 7828 H 757.964 0.302977 3.10626 0
M  V30 7829 N 758.265 -1.50454 0.469181 0
M  V30 7830 C 759.514 -2.01507 -0.0881425 0
M  V30 7831 C 759.827 -1.35613 -1.40956 0
M  V30 7832 O 761.033 -1.77812 -2.05171 0
M  V30 7833 C 759.489 -3.59301 -0.207596 0
M  V30 7834 C 759.097 -4.34152 1.10527 0
M  V30 7835 C 760.841 -4.18401 -0.716981 0
M  V30 7836 C 758.748 -5.83725 0.949717 0
M  V30 7837 H 757.678 -0.753106 -0.0367156 0
M  V30 7838 H 760.329 -1.73282 0.603788 0
M  V30 7839 H 758.711 -3.84106 -0.963265 0
M  V30 7840 H 759.885 -4.21073 1.87175 0
M  V30 7841 H 758.2 -3.86652 1.54562 0
M  V30 7842 H 760.797 -5.27895 -0.850363 0
M  V30 7843 H 761.14 -3.79657 -1.70782 0
M  V30 7844 H 761.673 -3.97796 -0.0187511 0
M  V30 7845 H 758.412 -6.26938 1.91387 0
M  V30 7846 H 757.932 -5.99383 0.223591 0
M  V30 7847 H 759.611 -6.44065 0.61557 0
M  V30 7848 N 759.743 -0.201713 -1.56304 0
M  V30 7849 C 760.706 0.702811 -2.18159 0
M  V30 7850 C 761.706 1.13619 -1.13787 0
M  V30 7851 O 762.896 1.0482 -1.39134 0
M  V30 7852 C 760.028 1.96032 -2.78898 0
M  V30 7853 H 761.221 0.163836 -2.99452 0
M  V30 7854 H 758.774 0.04791 -1.56227 0
M  V30 7855 H 759.509 2.54165 -2.01421 0
M  V30 7856 H 759.294 1.65824 -3.55309 0
M  V30 7857 H 760.784 2.60519 -3.26373 0
M  V30 7858 N 761.222 1.57436 0.0718424 0
M  V30 7859 C 762.17 2.04725 1.10411 0
M  V30 7860 C 763.164 0.952579 1.4008 0
M  V30 7861 O 764.37 1.13769 1.39487 0
M  V30 7862 H 760.745 0.652749 0.373393 0
M  V30 7863 H 762.716 2.90569 0.679126 0
M  V30 7864 C 761.465 2.5068 2.40946 0
M  V30 7865 H 760.788 3.34505 2.18967 0
M  V30 7866 H 762.228 2.87521 3.11621 0
M  V30 7867 C 760.687 1.38971 3.06902 0
M  V30 7868 O 761.217 0.731786 3.94978 0
M  V30 7869 N 759.423 1.13485 2.67525 0
M  V30 7870 H 758.97 1.67168 1.95991 0
M  V30 7871 H 758.928 0.389467 3.11978 0
M  V30 7872 N 762.7 -0.34323 1.53817 0
M  V30 7873 C 763.949 -1.08086 1.70295 0
M  V30 7874 C 764.262 -1.89794 0.47302 0
M  V30 7875 O 765.468 -2.66498 0.518754 0
M  V30 7876 C 763.924 -1.97097 3.01133 0
M  V30 7877 C 763.532 -1.20594 4.31464 0
M  V30 7878 C 765.276 -2.70715 3.26976 0
M  V30 7879 C 763.183 -2.08636 5.53376 0
M  V30 7880 H 762.113 -0.407228 0.634572 0
M  V30 7881 H 764.764 -0.340328 1.80316 0
M  V30 7882 H 763.146 -2.74971 2.84969 0
M  V30 7883 H 764.32 -0.476282 4.58332 0
M  V30 7884 H 762.635 -0.587426 4.12236 0
M  V30 7885 H 765.232 -3.36857 4.15248 0
M  V30 7886 H 765.575 -3.37299 2.43998 0
M  V30 7887 H 766.108 -1.99914 3.43917 0
M  V30 7888 H 762.847 -1.46594 6.38898 0
M  V30 7889 H 762.367 -2.7939 5.30755 0
M  V30 7890 H 764.046 -2.67682 5.89029 0
M  V30 7891 N 764.178 -1.45556 -0.604258 0
M  V30 7892 C 765.594 -1.30035 -0.925368 0
M  V30 7893 C 765.794 -0.255833 -1.99869 0
M  V30 7894 O 764.85 0.349076 -2.50075 0
M  V30 7895 C 766.163 -2.68028 -1.36314 0
M  V30 7896 C 767.711 -2.75951 -1.47717 0
M  V30 7897 C 768.186 -4.14476 -1.94868 0
M  V30 7898 N 769.677 -4.16787 -2.02097 0
M  V30 7899 C 770.412 -5.20845 -2.39809 0
M  V30 7900 N 769.908 -6.35246 -2.76467 0
M  V30 7901 N 771.701 -5.08204 -2.40177 0
M  V30 7902 H 763.852 -2.1214 0.10512 0
M  V30 7903 H 766.115 -0.947871 -0.0156303 0
M  V30 7904 H 765.821 -3.45667 -0.648628 0
M  V30 7905 H 765.695 -2.96711 -2.329 0
M  V30 7906 H 768.082 -1.98613 -2.18258 0
M  V30 7907 H 768.163 -2.50977 -0.494371 0
M  V30 7908 H 767.807 -4.923 -1.24912 0
M  V30 7909 H 767.737 -4.36843 -2.94068 0
M  V30 7910 H 770.228 -3.34233 -1.76343 0
M  V30 7911 H 770.541 -7.10438 -3.04134 0
M  V30 7912 H 768.886 -6.38642 -2.74155 0
M  V30 7913 H 772.077 -4.17874 -2.10947 0
M  V30 7914 H 772.25 -5.89417 -2.69242 0
M  V30 7915 N 765.656 0.84705 -1.32902 0
M  V30 7916 C 766.904 1.5986 -1.2365 0
M  V30 7917 C 767.225 1.93974 0.199789 0
M  V30 7918 O 766.495 1.60273 1.12648 0
M  V30 7919 H 765.075 0.592696 -0.454665 0
M  V30 7920 H 767.737 1.01278 -1.66519 0
M  V30 7921 H 766.833 2.53218 -1.82448 0
M  V30 7922 N 767.134 1.16236 1.06428 0
M  V30 7923 C 768.362 0.967184 1.82902 0
M  V30 7924 C 768.777 -0.484601 1.82475 0
M  V30 7925 O 768.134 -1.33631 1.24294 0
M  V30 7926 C 768.185 1.48534 3.29576 0
M  V30 7927 O 767.906 2.88026 3.3011 0
M  V30 7928 C 769.407 1.33298 4.22784 0
M  V30 7929 H 766.627 0.342923 0.576754 0
M  V30 7930 H 769.171 1.54232 1.34286 0
M  V30 7931 H 767.326 0.952513 3.75508 0
M  V30 7932 H 767.74 3.11721 4.21818 0
M  V30 7933 H 769.214 1.74385 5.23731 0
M  V30 7934 H 769.691 0.278356 4.38317 0
M  V30 7935 H 770.297 1.85535 3.82697 0
M  V30 7936 N 768.612 -1.24939 0.960631 0
M  V30 7937 C 769.86 -1.92437 0.617441 0
M  V30 7938 C 770.181 -1.75543 -0.849101 0
M  V30 7939 O 769.451 -1.12269 -1.60538 0
M  V30 7940 H 768.031 -0.712192 0.225371 0
M  V30 7941 H 770.693 -1.5198 1.22017 0
M  V30 7942 H 769.789 -3.00247 0.851933 0
M  V30 7943 N 770.09 -0.729906 -1.39679 0
M  V30 7944 C 771.506 -0.404951 -1.54377 0
M  V30 7945 C 771.706 1.08476 -1.6981 0
M  V30 7946 O 770.762 1.87087 -1.69572 0
M  V30 7947 C 772.075 -1.18352 -2.76429 0
M  V30 7948 C 773.623 -1.17124 -2.9026 0
M  V30 7949 C 774.098 -1.93227 -4.15244 0
M  V30 7950 N 775.589 -1.90368 -4.22273 0
M  V30 7951 C 776.324 -2.46065 -5.17918 0
M  V30 7952 N 775.82 -3.10378 -6.19385 0
M  V30 7953 N 777.613 -2.36127 -5.10099 0
M  V30 7954 H 769.764 -1.69567 -1.27909 0
M  V30 7955 H 772.027 -0.717527 -0.619564 0
M  V30 7956 H 771.733 -2.23743 -2.71352 0
M  V30 7957 H 771.607 -0.784589 -3.6895 0
M  V30 7958 H 773.994 -0.125478 -2.94833 0
M  V30 7959 H 774.075 -1.60951 -1.98817 0
M  V30 7960 H 773.719 -2.97802 -4.11432 0
M  V30 7961 H 773.649 -1.4681 -5.05722 0
M  V30 7962 H 776.14 -1.4351 -3.4959 0
M  V30 7963 H 776.453 -3.50358 -6.88817 0
M  V30 7964 H 774.798 -3.14467 -6.19787 0
M  V30 7965 H 777.989 -1.85529 -4.29763 0
M  V30 7966 H 778.162 -2.79833 -5.84463 0
M  V30 7967 N 771.568 1.50203 -0.477153 0
M  V30 7968 C 772.796 2.0677 0.0732489 0
M  V30 7969 C 773.211 1.34033 1.32968 0
M  V30 7970 O 772.568 0.411412 1.77802 0
M  V30 7971 C 772.619 3.59751 0.35518 0
M  V30 7972 O 772.34 4.29747 -0.851425 0
M  V30 7973 C 773.841 4.3296 0.951877 0
M  V30 7974 H 771.061 0.670929 -0.00978923 0
M  V30 7975 H 773.605 1.93293 -0.667676 0
M  V30 7976 H 771.76 3.7301 1.04605 0
M  V30 7977 H 772.174 5.2106 -0.599708 0
M  V30 7978 H 773.648 5.40952 1.09888 0
M  V30 7979 H 774.125 3.93856 1.94356 0
M  V30 7980 H 774.731 4.24246 0.299208 0
M  V30 7981 N 773.046 0.209999 1.56195 0
M  V30 7982 C 774.292 -0.425442 1.98287 0
M  V30 7983 C 774.625 -1.60232 1.09724 0
M  V30 7984 O 773.9 -1.93902 0.152414 0
M  V30 7985 C 774.183 -0.871189 3.49403 0
M  V30 7986 C 774.036 0.308527 4.48741 0
M  V30 7987 C 775.355 -1.73146 4.04609 0
M  V30 7988 H 772.474 -0.153169 0.720908 0
M  V30 7989 H 775.116 0.303916 1.87554 0
M  V30 7990 H 773.266 -1.49266 3.58681 0
M  V30 7991 H 774.938 0.946487 4.51486 0
M  V30 7992 H 773.181 0.957878 4.23092 0
M  V30 7993 H 773.852 -0.0461143 5.51981 0
M  V30 7994 H 776.328 -1.2072 3.98203 0
M  V30 7995 H 775.204 -2.01228 5.10684 0
M  V30 7996 H 775.465 -2.69083 3.5078 0
M  V30 7997 N 774.524 -1.57472 -0.0634922 0
M  V30 7998 C 775.487 -2.03268 -1.059 0
M  V30 7999 C 776.487 -0.931028 -1.31105 0
M  V30 8000 O 777.677 -1.19567 -1.26686 0
M  V30 8001 C 774.809 -2.42039 -2.40062 0
M  V30 8002 H 776.002 -2.92454 -0.664119 0
M  V30 8003 H 773.555 -1.53206 -0.309444 0
M  V30 8004 H 774.29 -1.55904 -2.84367 0
M  V30 8005 H 774.075 -3.22437 -2.23108 0
M  V30 8006 H 775.565 -2.78017 -3.11603 0
M  V30 8007 N 776.003 0.335068 -1.53997 0
M  V30 8008 C 777.231 1.09418 -1.756 0
M  V30 8009 C 777.646 1.82083 -0.499138 0
M  V30 8010 O 777.003 1.74646 0.529631 0
M  V30 8011 C 777.054 2.10115 -2.94166 0
M  V30 8012 O 776.775 1.40404 -4.14992 0
M  V30 8013 C 778.276 2.98336 -3.27888 0
M  V30 8014 H 775.496 0.32595 -0.586513 0
M  V30 8015 H 778.04 0.384693 -2.00849 0
M  V30 8016 H 776.195 2.76616 -2.71224 0
M  V30 8017 H 776.609 2.07743 -4.81605 0
M  V30 8018 H 778.083 3.6491 -4.1418 0
M  V30 8019 H 778.56 3.64814 -2.44556 0
M  V30 8020 H 779.166 2.37412 -3.52868 0
M  V30 8021 N 777.481 1.45874 0.596531 0
M  V30 8022 C 778.429 1.55739 1.72766 0
M  V30 8023 C 779.423 0.426666 1.63939 0
M  V30 8024 O 780.629 0.60301 1.69599 0
M  V30 8025 H 777.004 0.489386 0.570968 0
M  V30 8026 H 778.975 2.50871 1.61575 0
M  V30 8027 C 777.724 1.55174 3.11153 0
M  V30 8028 H 777.047 2.41511 3.1861 0
M  V30 8029 H 778.487 1.66133 3.90097 0
M  V30 8030 C 776.946 0.278001 3.35751 0
M  V30 8031 O 777.476 -0.637557 3.96608 0
M  V30 8032 N 775.682 0.170227 2.90101 0
M  V30 8033 H 775.229 0.916159 2.40758 0
M  V30 8034 H 775.187 -0.68117 3.06932 0
M  V30 8035 N 778.959 -0.83999 1.33349 0
M  V30 8036 C 779.909 -1.93817 1.20079 0
M  V30 8037 C 780.893 -1.60564 0.103978 0
M  V30 8038 O 782.085 -1.73859 0.331964 0
M  V30 8039 C 779.214 -3.30151 0.941031 0
M  V30 8040 C 778.3 -3.69577 2.08023 0
M  V30 8041 N 778.691 -3.80707 3.3301 0
M  V30 8042 C 776.989 -3.99309 1.98667 0
M  V30 8043 C 777.69 -4.14899 4.07717 0
M  V30 8044 N 776.666 -4.27208 3.36146 0
M  V30 8045 H 780.468 -2.00576 2.14817 0
M  V30 8046 H 777.982 -1.03264 1.2534 0
M  V30 8047 H 779.979 -4.08617 0.826894 0
M  V30 8048 H 778.639 -3.247 0.00216738 0
M  V30 8049 H 779.65 -3.64644 3.67771 0
M  V30 8050 H 776.327 -4.02076 1.12433 0
M  V30 8051 H 777.717 -4.30857 5.15569 0
M  V30 8052 N 780.437 -1.16799 -1.0581 0
M  V30 8053 C 781.677 -0.963264 -1.80279 0
M  V30 8054 C 782.041 0.499671 -1.85384 0
M  V30 8055 O 783.242 0.823264 -2.55882 0
M  V30 8056 C 781.513 -1.57938 -3.20609 0
M  V30 8057 S 783.072 -1.51997 -4.11634 0
M  V30 8058 H 779.89 -0.346302 -0.620964 0
M  V30 8059 H 782.492 -1.48632 -1.26999 0
M  V30 8060 H 781.196 -2.63672 -3.14492 0
M  V30 8061 H 780.727 -1.05586 -3.78966 0
M  V30 8062 H 782.742 -0.523625 -4.93429 0
M  V30 8063 N 781.915 1.24427 -0.967243 0
M  V30 8064 C 783.161 1.93089 -0.639404 0
M  V30 8065 C 783.516 1.7422 0.816407 0
M  V30 8066 O 782.809 1.08435 1.57964 0
M  V30 8067 C 783.003 3.44568 -0.949096 0
M  V30 8068 C 782.832 3.7817 -2.43346 0
M  V30 8069 C 781.602 3.99561 -3.09321 0
M  V30 8070 C 783.8 3.84687 -3.41351 0
M  V30 8071 N 781.782 4.20259 -4.475 0
M  V30 8072 C 783.153 4.10223 -4.64884 0
M  V30 8073 C 785.208 3.67421 -3.36015 0
M  V30 8074 C 783.911 4.20286 -5.8374 0
M  V30 8075 C 785.937 3.78731 -4.54221 0
M  V30 8076 C 785.299 4.04691 -5.76545 0
M  V30 8077 H 781.398 0.728291 -0.284809 0
M  V30 8078 H 783.982 1.49941 -1.24201 0
M  V30 8079 H 782.153 3.86582 -0.375308 0
M  V30 8080 H 783.885 4.00524 -0.579876 0
M  V30 8081 H 780.64 3.95946 -2.59853 0
M  V30 8082 H 781.064 4.34588 -5.19097 0
M  V30 8083 H 785.706 3.46358 -2.42479 0
M  V30 8084 H 783.424 4.40162 -6.77704 0
M  V30 8085 H 787.01 3.66743 -4.51653 0
M  V30 8086 H 785.89 4.1324 -6.66485 0
M  V30 8087 N 783.393 0.737304 1.3929 0
M  V30 8088 C 784.641 0.285691 2.00071 0
M  V30 8089 C 784.962 -1.13169 1.58801 0
M  V30 8090 O 784.232 -1.77104 0.837308 0
M  V30 8091 H 782.812 0.102638 0.739915 0
M  V30 8092 H 785.474 0.947775 1.70303 0
M  V30 8093 H 784.57 0.335906 3.10287 0
M  V30 8094 N 784.871 -1.49948 0.485112 0
M  V30 8095 C 785.834 -2.27351 -0.290546 0
M  V30 8096 C 786.834 -1.32704 -0.908087 0
M  V30 8097 O 788.024 -1.56007 -0.775085 0
M  V30 8098 C 785.156 -3.10135 -1.41524 0
M  V30 8099 H 786.349 -2.97374 0.388454 0
M  V30 8100 H 783.902 -1.54453 0.239586 0
M  V30 8101 H 784.637 -2.44641 -2.12888 0
M  V30 8102 H 784.422 -3.79705 -0.978074 0
M  V30 8103 H 785.912 -3.68638 -1.96204 0
M  V30 8104 N 786.349 -0.21828 -1.56081 0
M  V30 8105 C 787.312 0.679633 -2.18892 0
M  V30 8106 C 788.312 1.12405 -1.14986 0
M  V30 8107 O 789.502 1.03339 -1.40238 0
M  V30 8108 C 786.634 1.93063 -2.80962 0
M  V30 8109 H 787.827 0.132066 -2.99609 0
M  V30 8110 H 785.38 0.0313374 -1.56269 0
M  V30 8111 H 786.115 2.52015 -2.04106 0
M  V30 8112 H 785.9 1.62046 -3.57048 0
M  V30 8113 H 787.39 2.57043 -3.29118 0
M  V30 8114 N 787.827 1.57504 0.0551401 0
M  V30 8115 C 789.074 1.88055 0.751104 0
M  V30 8116 C 789.402 0.812231 1.76729 0
M  V30 8117 O 788.657 -0.189918 1.94776 0
M  V30 8118 C 788.956 3.25311 1.48013 0
M  V30 8119 C 788.622 4.46858 0.602375 0
M  V30 8120 C 787.284 4.79847 0.360536 0
M  V30 8121 C 789.636 5.212 -0.00524047 0
M  V30 8122 C 786.964 5.84582 -0.498127 0
M  V30 8123 C 789.316 6.26844 -0.851453 0
M  V30 8124 C 787.98 6.58324 -1.103 0
M  V30 8125 H 787.25 0.688142 0.274848 0
M  V30 8126 H 789.897 1.91497 0.0114795 0
M  V30 8127 H 788.202 3.17737 2.29239 0
M  V30 8128 H 789.899 3.46189 2.02371 0
M  V30 8129 H 786.489 4.21049 0.801007 0
M  V30 8130 H 790.673 4.96013 0.168682 0
M  V30 8131 H 785.929 6.07361 -0.701594 0
M  V30 8132 H 790.103 6.83603 -1.32893 0
M  V30 8133 H 787.73 7.39304 -1.77011 0
M  V30 8134 N 789.305 -0.326896 1.54172 0
M  V30 8135 C 790.721 -0.671034 1.44808 0
M  V30 8136 C 790.921 -1.91781 0.618258 0
M  V30 8137 O 789.977 -2.52235 0.115751 0
M  V30 8138 C 791.29 -0.848147 2.88491 0
M  V30 8139 C 792.838 -0.945702 2.98371 0
M  V30 8140 C 793.313 -1.15501 4.43197 0
M  V30 8141 N 794.804 -1.22183 4.46795 0
M  V30 8142 C 795.539 -1.4016 5.56006 0
M  V30 8143 N 795.035 -1.55202 6.75192 0
M  V30 8144 N 796.828 -1.42841 5.43648 0
M  V30 8145 H 788.979 0.49262 2.06608 0
M  V30 8146 H 791.242 0.158574 0.934643 0
M  V30 8147 H 790.948 -0.00329969 3.517 0
M  V30 8148 H 790.822 -1.74497 3.34411 0
M  V30 8149 H 793.209 -1.78106 2.35292 0
M  V30 8150 H 793.29 -0.0254215 2.55787 0
M  V30 8151 H 792.934 -0.324521 5.06862 0
M  V30 8152 H 792.864 -2.08911 4.83388 0
M  V30 8153 H 795.355 -1.12016 3.60917 0
M  V30 8154 H 795.668 -1.68601 7.54184 0
M  V30 8155 H 794.013 -1.52306 6.78106 0
M  V30 8156 H 797.204 -1.30683 4.49488 0
M  V30 8157 H 797.377 -1.56509 6.28816 0
M  V30 8158 N 790.784 -1.46188 -0.588786 0
M  V30 8159 C 792.032 -1.50885 -1.34455 0
M  V30 8160 C 792.353 -0.159555 -1.94346 0
M  V30 8161 O 791.623 0.813239 -1.78222 0
M  V30 8162 H 790.203 -0.555707 -0.499198 0
M  V30 8163 H 792.865 -1.82277 -0.690014 0
M  V30 8164 H 791.961 -2.25816 -2.15438 0
M  V30 8165 N 792.262 0.832906 -1.33792 0
M  V30 8166 C 793.492 1.61813 -1.28453 0
M  V30 8167 C 793.9 1.88639 0.145595 0
M  V30 8168 O 793.243 1.47122 1.10004 0
M  V30 8169 C 793.305 2.98929 -1.99704 0
M  V30 8170 C 792.969 2.95045 -3.48995 0
M  V30 8171 C 793.966 2.70337 -4.44088 0
M  V30 8172 C 791.651 3.14993 -3.91261 0
M  V30 8173 C 793.645 2.65612 -5.79421 0
M  V30 8174 C 791.332 3.09893 -5.26697 0
M  V30 8175 C 792.33 2.85235 -6.20588 0
M  V30 8176 O 792.018 2.8005 -7.53543 0
M  V30 8177 H 791.75 0.510013 -0.443693 0
M  V30 8178 H 794.304 1.04514 -1.76822 0
M  V30 8179 H 792.534 3.58106 -1.45935 0
M  V30 8180 H 794.223 3.59849 -1.87786 0
M  V30 8181 H 794.989 2.54671 -4.12756 0
M  V30 8182 H 790.868 3.33204 -3.18584 0
M  V30 8183 H 794.412 2.46285 -6.52679 0
M  V30 8184 H 790.309 3.2511 -5.5765 0
M  V30 8185 H 791.077 2.95849 -7.63162 0
M  V30 8186 N 793.74 1.17359 1.05189 0
M  V30 8187 C 794.988 0.960087 1.77839 0
M  V30 8188 C 795.309 -0.512554 1.88143 0
M  V30 8189 O 794.579 -1.3721 1.39822 0
M  V30 8190 H 793.159 0.352234 0.658741 0
M  V30 8191 H 795.821 1.47834 1.27008 0
M  V30 8192 H 794.917 1.38843 2.79516 0
M  V30 8193 N 795.218 -1.23913 0.973828 0
M  V30 8194 C 796.181 -2.23367 0.51378 0
M  V30 8195 C 797.181 -1.55923 -0.39302 0
M  V30 8196 O 798.371 -1.73187 -0.187626 0
M  V30 8197 C 795.503 -3.39944 -0.255152 0
M  V30 8198 H 796.696 -2.65581 1.39307 0
M  V30 8199 H 794.249 -1.36632 0.759039 0
M  V30 8200 H 794.984 -3.03177 -1.15127 0
M  V30 8201 H 794.769 -3.90098 0.395673 0
M  V30 8202 H 796.259 -4.13749 -0.565842 0
M  V30 8203 N 796.696 -0.74468 -1.38897 0
M  V30 8204 C 798.107 -0.36568 -1.83084 0
M  V30 8205 C 798.458 1.10436 -1.62168 0
M  V30 8206 O 797.583 1.85281 -1.11804 0
M  V30 8207 C 798.178 -0.656946 -3.3237 0
M  V30 8208 C 796.737 -0.331329 -3.74939 0
M  V30 8209 C 795.884 -0.914661 -2.61781 0
M  V30 8210 H 798.835 -0.941551 -1.27752 0
M  V30 8211 H 798.856 0.0679546 -3.80439 0
M  V30 8212 H 798.368 -1.72693 -3.47561 0
M  V30 8213 H 796.469 0.732426 -3.6533 0
M  V30 8214 H 796.582 -0.820655 -4.72019 0
M  V30 8215 H 794.946 -0.34063 -2.52412 0
M  V30 8216 H 795.729 -1.98949 -2.79775 0
M  V30 8217 N 798.174 1.49689 -0.493057 0
M  V30 8218 C 799.084 2.32746 0.294358 0
M  V30 8219 C 800.1 1.44117 0.975003 0
M  V30 8220 O 801.276 1.77149 0.958138 0
M  V30 8221 C 798.341 3.19358 1.34949 0
M  V30 8222 C 797.402 4.2383 0.683122 0
M  V30 8223 C 796.635 5.06303 1.68798 0
M  V30 8224 O 796.858 4.90172 2.91698 0
M  V30 8225 O 795.792 5.88826 1.24768 0
M  V30 8226 H 799.618 3.01247 -0.385254 0
M  V30 8227 H 797.203 1.47216 -0.254519 0
M  V30 8228 H 799.085 3.73037 1.96014 0
M  V30 8229 H 797.76 2.53561 2.01217 0
M  V30 8230 H 796.667 3.74086 0.0329351 0
M  V30 8231 H 798 4.9216 0.0630192 0
M  V30 8232 N 799.652 0.226554 1.55963 0
M  V30 8233 C 800.877 -0.411527 2.03276 0
M  V30 8234 C 801.302 -1.52206 1.10521 0
M  V30 8235 O 800.66 -1.81054 0.0943217 0
M  V30 8236 C 800.708 -0.915694 3.4878 0
M  V30 8237 O 799.812 -2.02672 3.59163 0
M  V30 8238 H 799.153 -0.0924907 0.657527 0
M  V30 8239 H 801.683 0.346656 2.01642 0
M  V30 8240 H 801.693 -1.22421 3.892 0
M  V30 8241 H 800.368 -0.102915 4.15773 0
M  V30 8242 H 798.945 -1.72445 3.30632 0
M  V30 8243 N 801.13 -1.57531 -0.0467866 0
M  V30 8244 C 802.04 -2.08768 -1.07018 0
M  V30 8245 C 803.056 -1.02245 -1.40791 0
M  V30 8246 O 804.232 -1.33873 -1.50466 0
M  V30 8247 C 801.297 -2.54221 -2.35738 0
M  V30 8248 C 800.358 -3.75152 -2.08709 0
M  V30 8249 C 799.591 -4.18428 -3.31291 0
M  V30 8250 O 799.814 -3.61365 -4.4133 0
M  V30 8251 O 798.748 -5.11018 -3.18032 0
M  V30 8252 H 802.574 -2.96334 -0.664812 0
M  V30 8253 H 800.159 -1.47074 -0.262605 0
M  V30 8254 H 802.041 -2.83866 -3.11445 0
M  V30 8255 H 800.716 -1.69774 -2.75605 0
M  V30 8256 H 799.623 -3.50553 -1.30627 0
M  V30 8257 H 800.956 -4.60528 -1.73708 0
M  V30 8258 N 802.608 0.318715 -1.54344 0
M  V30 8259 C 803.855 1.05608 -1.72781 0
M  V30 8260 C 804.183 1.87854 -0.504083 0
M  V30 8261 O 803.438 1.88826 0.51414 0
M  V30 8262 C 803.737 2.00514 -2.95853 0
M  V30 8263 C 803.403 1.34385 -4.30409 0
M  V30 8264 C 802.065 1.16081 -4.66989 0
M  V30 8265 C 804.417 0.869627 -5.13894 0
M  V30 8266 C 801.745 0.490114 -5.84649 0
M  V30 8267 C 804.097 0.212735 -6.32242 0
M  V30 8268 C 802.761 0.0175882 -6.67498 0
M  V30 8269 H 802.031 0.386449 -0.632249 0
M  V30 8270 H 804.678 0.332729 -1.88587 0
M  V30 8271 H 802.983 2.79317 -2.74753 0
M  V30 8272 H 804.68 2.57605 -3.07312 0
M  V30 8273 H 801.27 1.49634 -4.01631 0
M  V30 8274 H 805.454 0.998809 -4.86146 0
M  V30 8275 H 800.71 0.327767 -6.10521 0
M  V30 8276 H 804.884 -0.162699 -6.9621 0
M  V30 8277 H 802.511 -0.504137 -7.58527 0
M  V30 8278 N 804.086 1.46499 0.581025 0
M  V30 8279 C 805.497 1.4604 1.16315 0
M  V30 8280 C 805.848 0.202154 1.95156 0
M  V30 8281 O 804.973 -0.694638 2.04948 0
M  V30 8282 C 805.568 2.64593 2.11604 0
M  V30 8283 C 804.127 2.6717 2.65136 0
M  V30 8284 C 803.274 2.38753 1.4104 0
M  V30 8285 H 806.225 1.54354 0.368871 0
M  V30 8286 H 806.246 2.40207 2.95095 0
M  V30 8287 H 805.758 3.56154 1.54194 0
M  V30 8288 H 803.859 1.79685 3.26411 0
M  V30 8289 H 803.972 3.67182 3.07757 0
M  V30 8290 H 802.336 1.88845 1.70908 0
M  V30 8291 H 803.119 3.32493 0.854588 0
M  V30 8292 N 805.565 -0.825799 1.34232 0
M  V30 8293 C 806.79 -1.61883 1.29648 0
M  V30 8294 C 807.215 -1.87669 -0.127295 0
M  V30 8295 O 806.573 -1.45016 -1.08813 0
M  V30 8296 C 806.621 -2.93846 2.09014 0
M  V30 8297 O 805.725 -3.85778 1.4577 0
M  V30 8298 H 805.066 -0.492454 0.445405 0
M  V30 8299 H 807.596 -1.02641 1.76992 0
M  V30 8300 H 807.606 -3.43435 2.20264 0
M  V30 8301 H 806.281 -2.74401 3.12533 0
M  V30 8302 H 804.858 -3.4429 1.43245 0
M  V30 8303 N 807.043 -1.17915 -1.04565 0
M  V30 8304 C 807.953 -0.916449 -2.15959 0
M  V30 8305 C 808.969 0.117655 -1.73602 0
M  V30 8306 O 810.145 -0.063089 -2.01301 0
M  V30 8307 C 807.21 -0.440262 -3.43893 0
M  V30 8308 C 806.271 -1.54172 -4.00661 0
M  V30 8309 C 805.504 -1.08816 -5.22489 0
M  V30 8310 O 805.727 0.0551547 -5.70373 0
M  V30 8311 O 804.661 -1.88383 -5.7166 0
M  V30 8312 H 808.487 -1.8484 -2.40972 0
M  V30 8313 H 806.072 -0.960552 -1.14428 0
M  V30 8314 H 807.954 -0.182537 -4.21004 0
M  V30 8315 H 806.629 0.46346 -3.20365 0
M  V30 8316 H 805.536 -1.85341 -3.24961 0
M  V30 8317 H 806.869 -2.42139 -4.2852 0
M  V30 8318 N 808.521 1.23394 -0.980386 0
M  V30 8319 C 809.767 1.92094 -0.650223 0
M  V30 8320 C 810.1 1.76309 0.814173 0
M  V30 8321 O 809.375 1.12406 1.5873 0
M  V30 8322 C 809.658 3.44713 -1.04139 0
M  V30 8323 C 809.511 3.69606 -2.56342 0
M  V30 8324 C 810.83 4.36191 -0.585296 0
M  V30 8325 H 807.949 0.697618 -0.237695 0
M  V30 8326 H 810.591 1.45517 -1.22167 0
M  V30 8327 H 808.741 3.84513 -0.55515 0
M  V30 8328 H 810.413 3.39288 -3.1254 0
M  V30 8329 H 808.656 3.14318 -2.98976 0
M  V30 8330 H 809.327 4.76441 -2.78762 0
M  V30 8331 H 811.803 4.03836 -1.00276 0
M  V30 8332 H 810.679 5.41679 -0.887428 0
M  V30 8333 H 810.94 4.39097 0.51438 0
M  V30 8334 N 809.999 0.752036 1.385 0
M  V30 8335 C 810.929 0.138718 2.33088 0
M  V30 8336 C 811.91 -0.705318 1.54788 0
M  V30 8337 O 813.095 -0.646821 1.83112 0
M  V30 8338 C 810.225 -0.75641 3.38963 0
M  V30 8339 C 809.179 -0.0152239 4.27997 0
M  V30 8340 C 808.505 -1.0285 5.24715 0
M  V30 8341 C 809.805 1.15226 5.09431 0
M  V30 8342 H 811.499 0.928852 2.84627 0
M  V30 8343 H 809.045 0.448111 1.3685 0
M  V30 8344 H 810.998 -1.19513 4.04097 0
M  V30 8345 H 809.722 -1.57885 2.85902 0
M  V30 8346 H 808.381 0.404061 3.64366 0
M  V30 8347 H 808.029 -1.84496 4.67943 0
M  V30 8348 H 807.729 -0.537238 5.85139 0
M  V30 8349 H 809.253 -1.46657 5.92726 0
M  V30 8350 H 810.667 0.791161 5.67815 0
M  V30 8351 H 809.064 1.57428 5.79082 0
M  V30 8352 H 810.134 1.9659 4.43261 0
M  V30 8353 N 811.477 -1.49425 0.500989 0
M  V30 8354 C 812.41 -2.25887 -0.324087 0
M  V30 8355 C 813.388 -1.30469 -0.970388 0
M  V30 8356 O 814.572 -1.59758 -1.00049 0
M  V30 8357 C 811.699 -3.05787 -1.45643 0
M  V30 8358 C 810.745 -4.16359 -0.924508 0
M  V30 8359 S 811.578 -5.35181 0.184707 0
M  V30 8360 C 812.734 -6.18636 -0.950806 0
M  V30 8361 H 812.967 -2.95519 0.324891 0
M  V30 8362 H 810.5 -1.51723 0.286289 0
M  V30 8363 H 812.458 -3.52405 -2.10525 0
M  V30 8364 H 811.119 -2.35624 -2.07703 0
M  V30 8365 H 810.312 -4.71781 -1.77311 0
M  V30 8366 H 809.914 -3.72331 -0.352907 0
M  V30 8367 H 812.206 -6.51581 -1.85603 0
M  V30 8368 H 813.149 -7.06761 -0.435212 0
M  V30 8369 H 813.557 -5.512 -1.21813 0
M  V30 8370 N 812.955 -0.234822 -1.55841 0
M  V30 8371 C 814.232 0.442961 -1.90518 0
M  V30 8372 C 814.612 1.76768 -1.15397 0
M  V30 8373 O 813.96 2.26928 -0.267534 0
M  V30 8374 C 814.17 0.622905 -3.43396 0
M  V30 8375 C 815.518 0.9243 -4.14417 0
M  V30 8376 O 816.542 0.709211 -3.49068 0
M  V30 8377 O 815.401 1.33323 -5.29988 0
M  V30 8378 H 812.495 0.236042 -0.792599 0
M  V30 8379 H 815.041 -0.277992 -1.67408 0
M  V30 8380 H 813.813 -0.310973 -3.90062 0
M  V30 8381 H 813.436 1.39485 -3.7233 0
M  V30 8382 N 814.433 1.57553 0.0384317 0
M  V30 8383 C 815.343 2.09333 1.0591 0
M  V30 8384 C 816.359 1.0299 1.40247 0
M  V30 8385 O 817.535 1.34669 1.49754 0
M  V30 8386 C 814.6 2.55468 2.34386 0
M  V30 8387 C 813.661 3.76254 2.06716 0
M  V30 8388 C 812.894 4.20179 3.29067 0
M  V30 8389 O 813.117 3.637 4.39407 0
M  V30 8390 O 812.051 5.12697 3.15317 0
M  V30 8391 H 815.877 2.96683 0.649087 0
M  V30 8392 H 813.462 1.47211 0.254802 0
M  V30 8393 H 815.344 2.85514 3.09935 0
M  V30 8394 H 814.019 1.71234 2.74701 0
M  V30 8395 H 812.926 3.51241 1.28766 0
M  V30 8396 H 814.259 4.61443 1.71263 0
M  V30 8397 N 815.911 -0.310526 1.54511 0
M  V30 8398 C 816.841 -1.38757 1.878 0
M  V30 8399 C 817.822 -1.53353 0.735991 0
M  V30 8400 O 819.007 -1.67018 0.990887 0
M  V30 8401 C 816.137 -2.75327 2.11689 0
M  V30 8402 C 815.091 -2.75506 3.27537 0
M  V30 8403 C 814.417 -4.15275 3.36824 0
M  V30 8404 C 815.717 -2.38093 4.64875 0
M  V30 8405 H 817.411 -1.11146 2.78005 0
M  V30 8406 H 814.957 -0.533232 1.33763 0
M  V30 8407 H 816.91 -3.50752 2.33562 0
M  V30 8408 H 815.634 -3.04443 1.18245 0
M  V30 8409 H 814.293 -2.02538 3.05572 0
M  V30 8410 H 813.941 -4.41553 2.40915 0
M  V30 8411 H 813.641 -4.16299 4.14692 0
M  V30 8412 H 815.165 -4.92493 3.60947 0
M  V30 8413 H 816.579 -3.03232 4.86542 0
M  V30 8414 H 814.976 -2.50345 5.45387 0
M  V30 8415 H 816.046 -1.33227 4.66239 0
M  V30 8416 N 817.389 -1.46805 -0.573248 0
M  V30 8417 C 818.352 -1.57655 -1.66366 0
M  V30 8418 C 819.352 -0.452905 -1.5429 0
M  V30 8419 O 820.542 -0.717502 -1.58737 0
M  V30 8420 C 817.674 -1.50584 -3.05839 0
M  V30 8421 H 818.867 -2.54842 -1.581 0
M  V30 8422 H 816.42 -1.34756 -0.791868 0
M  V30 8423 H 817.155 -0.547127 -3.19651 0
M  V30 8424 H 816.94 -2.32118 -3.16012 0
M  V30 8425 H 818.43 -1.61282 -3.85199 0
M  V30 8426 N 818.867 0.818669 -1.34668 0
M  V30 8427 C 819.777 1.9616 -1.2868 0
M  V30 8428 C 820.793 1.72918 -0.193742 0
M  V30 8429 O 821.969 1.96951 -0.420975 0
M  V30 8430 C 819.034 3.30534 -1.04633 0
M  V30 8431 C 818.095 3.66755 -2.23136 0
M  V30 8432 C 817.328 4.94717 -2.00227 0
M  V30 8433 O 817.551 5.62218 -0.96264 0
M  V30 8434 O 816.485 5.28915 -2.87286 0
M  V30 8435 H 820.311 2.04157 -2.24842 0
M  V30 8436 H 817.896 0.954691 -1.14917 0
M  V30 8437 H 819.778 4.11005 -0.930216 0
M  V30 8438 H 818.453 3.23495 -0.115139 0
M  V30 8439 H 817.36 2.8671 -2.40308 0
M  V30 8440 H 818.693 3.78484 -3.1466 0
M  V30 8441 N 820.346 1.18468 1.03938 0
M  V30 8442 C 821.293 0.912859 2.1198 0
M  V30 8443 C 822.263 -0.14824 1.65437 0
M  V30 8444 O 823.448 -0.008331 1.90798 0
M  V30 8445 C 820.588 0.446114 3.42204 0
M  V30 8446 C 819.701 1.57278 4.02353 0
M  V30 8447 C 818.836 1.05863 5.20544 0
M  V30 8448 C 817.875 2.1599 5.72726 0
M  V30 8449 N 817.012 1.65959 6.82204 0
M  V30 8450 H 821.852 1.83798 2.34569 0
M  V30 8451 H 819.389 0.916504 1.15059 0
M  V30 8452 H 821.347 0.15697 4.16905 0
M  V30 8453 H 819.977 -0.442025 3.19759 0
M  V30 8454 H 819.029 1.97737 3.24968 0
M  V30 8455 H 820.341 2.40289 4.37107 0
M  V30 8456 H 819.495 0.724087 6.02364 0
M  V30 8457 H 818.234 0.198116 4.87297 0
M  V30 8458 H 817.239 2.50287 4.89527 0
M  V30 8459 H 818.464 3.02479 6.08016 0
M  V30 8460 H 816.41 0.82199 6.5083 0
M  V30 8461 H 816.327 2.42567 7.16029 0
M  V30 8462 H 817.595 1.35436 7.67644 0
M  V30 8463 N 821.824 -1.22873 0.986916 0
M  V30 8464 C 822.754 -2.2688 0.552064 0
M  V30 8465 C 823.735 -1.64883 -0.418048 0
M  V30 8466 O 824.92 -1.9171 -0.30999 0
M  V30 8467 C 822.05 -3.47018 -0.139959 0
M  V30 8468 C 821.004 -4.21411 0.748091 0
M  V30 8469 C 820.33 -5.34645 -0.0765132 0
M  V30 8470 C 821.63 -4.80726 2.04206 0
M  V30 8471 H 823.324 -2.63507 1.42143 0
M  V30 8472 H 820.87 -1.26668 0.68492 0
M  V30 8473 H 822.823 -4.18931 -0.455527 0
M  V30 8474 H 821.547 -3.0947 -1.04382 0
M  V30 8475 H 820.206 -3.51325 1.04721 0
M  V30 8476 H 819.854 -4.93339 -0.981109 0
M  V30 8477 H 819.554 -5.85342 0.514606 0
M  V30 8478 H 821.078 -6.09377 -0.386313 0
M  V30 8479 H 822.492 -5.44612 1.79083 0
M  V30 8480 H 820.889 -5.41737 2.5815 0
M  V30 8481 H 821.959 -4.01109 2.72469 0
M  V30 8482 N 823.302 -0.75937 -1.38099 0
M  V30 8483 C 824.55 -0.317485 -1.99591 0
M  V30 8484 C 824.871 1.10628 -1.60581 0
M  V30 8485 O 824.141 1.7575 -0.865378 0
M  V30 8486 H 822.721 -0.114397 -0.738189 0
M  V30 8487 H 825.383 -0.974749 -1.68774 0
M  V30 8488 H 824.479 -0.385227 -3.09713 0
M  V30 8489 N 824.78 1.49157 -0.508906 0
M  V30 8490 C 825.713 2.26056 0.312103 0
M  V30 8491 C 826.691 1.30982 0.963456 0
M  V30 8492 O 827.875 1.60286 0.992002 0
M  V30 8493 C 825.002 3.06555 1.4402 0
M  V30 8494 C 824.048 4.16844 0.902414 0
M  V30 8495 S 824.881 5.35076 -0.213087 0
M  V30 8496 C 826.037 6.19132 0.917985 0
M  V30 8497 H 826.27 2.95343 -0.340559 0
M  V30 8498 H 823.803 1.51569 -0.294331 0
M  V30 8499 H 825.761 3.53517 2.08653 0
M  V30 8500 H 824.422 2.36722 2.0645 0
M  V30 8501 H 823.615 4.72714 1.74806 0
M  V30 8502 H 823.217 3.72513 0.333156 0
M  V30 8503 H 825.509 6.52556 1.82145 0
M  V30 8504 H 826.452 7.06982 0.397724 0
M  V30 8505 H 826.86 5.51839 1.18889 0
M  V30 8506 N 826.258 0.243083 1.55714 0
M  V30 8507 C 827.535 -0.432851 1.90751 0
M  V30 8508 C 827.915 -1.76153 1.16333 0
M  V30 8509 O 827.263 -2.26783 0.279565 0
M  V30 8510 C 827.473 -0.604685 3.43722 0
M  V30 8511 C 828.821 -0.90231 4.14902 0
M  V30 8512 O 829.845 -0.690689 3.49439 0
M  V30 8513 O 828.704 -1.3051 5.30688 0
M  V30 8514 H 825.798 -0.231835 0.79384 0
M  V30 8515 H 828.344 0.286867 1.67258 0
M  V30 8516 H 827.116 0.331655 3.89892 0
M  V30 8517 H 826.739 -1.37509 3.73065 0
M  V30 8518 N 827.736 -1.57571 -0.0300757 0
M  V30 8519 C 829.147 -1.77567 -0.576802 0
M  V30 8520 C 829.498 -0.874034 -1.75656 0
M  V30 8521 O 828.623 -0.0686124 -2.16291 0
M  V30 8522 C 829.218 -3.22016 -1.05315 0
M  V30 8523 C 827.777 -3.43212 -1.5454 0
M  V30 8524 C 826.924 -2.73061 -0.483033 0
M  V30 8525 H 829.875 -1.57483 0.196151 0
M  V30 8526 H 829.896 -3.28474 -1.92055 0
M  V30 8527 H 829.408 -3.87613 -0.194298 0
M  V30 8528 H 827.509 -2.82788 -2.42615 0
M  V30 8529 H 827.622 -4.5182 -1.5936 0
M  V30 8530 H 825.986 -2.36805 -0.937835 0
M  V30 8531 H 826.769 -3.4134 0.366341 0
M  V30 8532 N 829.214 0.302327 -1.54673 0
M  V30 8533 C 830.461 1.0377 -1.73891 0
M  V30 8534 C 830.789 1.87309 -0.523979 0
M  V30 8535 O 830.044 1.8936 0.494084 0
M  V30 8536 C 830.343 1.97365 -2.97963 0
M  V30 8537 C 830.009 1.29812 -4.3181 0
M  V30 8538 C 828.671 1.11121 -4.68194 0
M  V30 8539 C 831.023 0.815073 -5.14787 0
M  V30 8540 C 828.351 0.428077 -5.85136 0
M  V30 8541 C 830.703 0.145665 -6.32432 0
M  V30 8542 C 829.367 -0.0532098 -6.67479 0
M  V30 8543 H 828.637 0.379721 -0.636312 0
M  V30 8544 H 831.284 0.312708 -1.8893 0
M  V30 8545 H 829.589 2.76387 -2.777 0
M  V30 8546 H 831.286 2.54331 -3.10027 0
M  V30 8547 H 827.876 1.45366 -4.03196 0
M  V30 8548 H 832.06 0.947191 -4.87178 0
M  V30 8549 H 827.316 0.262995 -6.10834 0
M  V30 8550 H 831.49 -0.236533 -6.95998 0
M  V30 8551 H 829.117 -0.58456 -7.57949 0
M  V30 8552 N 830.692 1.47107 0.565454 0
M  V30 8553 C 831.602 1.61591 1.70075 0
M  V30 8554 C 832.618 0.498931 1.66693 0
M  V30 8555 O 833.794 0.765372 1.8629 0
M  V30 8556 C 830.859 1.61887 3.06583 0
M  V30 8557 C 829.92 2.84949 3.21096 0
M  V30 8558 C 829.153 2.85221 4.51093 0
M  V30 8559 O 829.376 1.94959 5.36048 0
M  V30 8560 O 828.31 3.76982 4.69221 0
M  V30 8561 H 832.136 2.57638 1.60799 0
M  V30 8562 H 829.721 1.30097 0.73451 0
M  V30 8563 H 831.603 1.64809 3.87835 0
M  V30 8564 H 830.278 0.69005 3.16259 0
M  V30 8565 H 829.185 2.87575 2.39273 0
M  V30 8566 H 830.518 3.77098 3.1632 0
M  V30 8567 N 832.17 -0.811516 1.35101 0
M  V30 8568 C 833.1 -1.9378 1.30275 0
M  V30 8569 C 834.081 -1.69165 0.178075 0
M  V30 8570 O 835.266 -1.90599 0.372256 0
M  V30 8571 C 832.396 -3.30439 1.06899 0
M  V30 8572 C 831.35 -3.69523 2.15955 0
M  V30 8573 C 830.676 -5.0429 1.77751 0
M  V30 8574 C 831.976 -3.80419 3.57881 0
M  V30 8575 H 833.67 -1.98075 2.24514 0
M  V30 8576 H 831.216 -0.951586 1.08078 0
M  V30 8577 H 833.169 -4.08828 1.02164 0
M  V30 8578 H 831.893 -3.26473 0.0910462 0
M  V30 8579 H 830.552 -2.93416 2.19778 0
M  V30 8580 H 830.2 -4.96823 0.785876 0
M  V30 8581 H 829.9 -5.31411 2.5075 0
M  V30 8582 H 831.424 -5.85125 1.74533 0
M  V30 8583 H 832.838 -4.49051 3.56407 0
M  V30 8584 H 831.235 -4.19005 4.29598 0
M  V30 8585 H 832.305 -2.82105 3.94391 0
M  V30 8586 N 833.648 -1.19017 -1.03309 0
M  V30 8587 C 835.064 -0.941483 -1.28873 0
M  V30 8588 C 835.264 0.388587 -1.97718 0
M  V30 8589 O 834.32 1.12111 -2.26246 0
M  V30 8590 C 835.633 -2.11249 -2.13996 0
M  V30 8591 C 837.181 -2.15164 -2.27318 0
M  V30 8592 C 837.656 -3.31704 -3.15811 0
M  V30 8593 N 839.147 -3.31613 -3.23399 0
M  V30 8594 C 839.882 -4.18431 -3.9205 0
M  V30 8595 N 839.378 -5.15397 -4.62966 0
M  V30 8596 N 841.171 -4.06321 -3.88406 0
M  V30 8597 H 833.322 -2.04599 -0.570343 0
M  V30 8598 H 835.585 -0.894406 -0.314232 0
M  V30 8599 H 835.291 -3.07482 -1.70727 0
M  V30 8600 H 835.165 -2.07955 -3.14697 0
M  V30 8601 H 837.552 -1.19504 -2.6982 0
M  V30 8602 H 837.633 -2.22513 -1.26182 0
M  V30 8603 H 837.277 -4.2764 -2.74019 0
M  V30 8604 H 837.207 -3.21592 -4.16997 0
M  V30 8605 H 839.698 -2.6142 -2.72888 0
M  V30 8606 H 840.011 -5.78 -5.12968 0
M  V30 8607 H 838.356 -5.19349 -4.61846 0
M  V30 8608 H 841.547 -3.29849 -3.3214 0
M  V30 8609 H 841.72 -4.74196 -4.41635 0
M  V30 8610 N 835.127 1.22348 -0.993418 0
M  V30 8611 C 836.09 2.22522 -0.549251 0
M  V30 8612 C 837.09 1.56529 0.368164 0
M  V30 8613 O 838.28 1.73463 0.16005 0
M  V30 8614 C 835.412 3.40307 0.201037 0
M  V30 8615 H 836.605 2.63332 -1.43515 0
M  V30 8616 H 834.158 1.35407 -0.78068 0
M  V30 8617 H 834.893 3.0497 1.10289 0
M  V30 8618 H 834.678 3.8942 -0.457685 0
M  V30 8619 H 836.168 4.14597 0.499946 0
M  V30 8620 N 836.605 0.766683 1.37694 0
M  V30 8621 C 837.535 0.163432 2.32927 0
M  V30 8622 C 838.516 -0.688861 1.55527 0
M  V30 8623 O 839.701 -0.627363 1.83787 0
M  V30 8624 C 836.831 -0.720416 3.39746 0
M  V30 8625 C 835.785 0.0301718 4.27989 0
M  V30 8626 C 835.111 -0.972788 5.25776 0
M  V30 8627 C 836.411 1.20623 5.0818 0
M  V30 8628 H 838.105 0.958988 2.83626 0
M  V30 8629 H 835.651 0.462601 1.36367 0
M  V30 8630 H 837.604 -1.15221 4.05342 0
M  V30 8631 H 836.328 -1.54844 2.8756 0
M  V30 8632 H 834.987 0.442685 3.63917 0
M  V30 8633 H 834.635 -1.79522 4.69873 0
M  V30 8634 H 834.335 -0.475145 5.85676 0
M  V30 8635 H 835.859 -1.40362 5.94248 0
M  V30 8636 H 837.273 0.851341 5.66944 0
M  V30 8637 H 835.67 1.63561 5.7738 0
M  V30 8638 H 836.74 2.01281 4.41151 0
M  V30 8639 N 838.083 -1.48885 0.516809 0
M  V30 8640 C 839.031 -2.31066 -0.266656 0
M  V30 8641 C 840.025 -1.40393 -0.94795 0
M  V30 8642 O 841.231 -1.57366 -0.873836 0
M  V30 8643 H 837.606 -0.744654 -0.104858 0
M  V30 8644 H 839.577 -2.95045 0.446236 0
M  V30 8645 C 838.326 -3.22131 -1.3087 0
M  V30 8646 H 837.649 -3.91839 -0.793865 0
M  V30 8647 H 839.089 -3.82544 -1.82856 0
M  V30 8648 C 837.548 -2.42825 -2.33533 0
M  V30 8649 O 838.078 -2.14364 -3.39722 0
M  V30 8650 N 836.284 -2.04559 -2.06407 0
M  V30 8651 H 835.831 -2.27905 -1.20071 0
M  V30 8652 H 835.789 -1.51807 -2.75322 0
M  V30 8653 N 839.561 -0.251338 -1.55583 0
M  V30 8654 C 840.801 0.373651 -2.00956 0
M  V30 8655 C 841.165 1.54806 -1.13574 0
M  V30 8656 O 842.366 2.24108 -1.48422 0
M  V30 8657 C 840.637 0.768919 -3.49031 0
M  V30 8658 S 842.196 1.38381 -4.16409 0
M  V30 8659 H 839.014 0.117371 -0.701245 0
M  V30 8660 H 841.616 -0.367611 -1.92013 0
M  V30 8661 H 840.32 -0.0950492 -4.1029 0
M  V30 8662 H 839.851 1.54225 -3.61909 0
M  V30 8663 H 841.866 2.6728 -4.18062 0
M  V30 8664 N 841.039 1.57585 0.0217189 0
M  V30 8665 C 842.269 1.9359 0.721572 0
M  V30 8666 C 842.677 0.850132 1.69025 0
M  V30 8667 O 842.02 -0.181539 1.82801 0
M  V30 8668 C 842.082 3.25445 1.52729 0
M  V30 8669 C 841.746 4.51251 0.722586 0
M  V30 8670 C 842.743 5.19896 0.0196598 0
M  V30 8671 C 840.428 4.97745 0.674959 0
M  V30 8672 C 842.422 6.33319 -0.720114 0
M  V30 8673 C 840.109 6.11062 -0.068555 0
M  V30 8674 C 841.107 6.78704 -0.764845 0
M  V30 8675 O 840.795 7.89852 -1.49627 0
M  V30 8676 H 840.527 0.643409 0.207366 0
M  V30 8677 H 843.081 2.05391 -0.0189346 0
M  V30 8678 H 841.311 3.0999 2.31178 0
M  V30 8679 H 843 3.46721 2.11044 0
M  V30 8680 H 843.766 4.84977 0.0474394 0
M  V30 8681 H 839.645 4.44934 1.20643 0
M  V30 8682 H 843.189 6.86051 -1.26413 0
M  V30 8683 H 839.086 6.45425 -0.0982318 0
M  V30 8684 H 839.854 8.06251 -1.41071 0
M  V30 8685 N 842.517 -0.29412 1.54831 0
M  V30 8686 C 843.933 -0.640167 1.46199 0
M  V30 8687 C 844.133 -1.90426 0.658798 0
M  V30 8688 O 843.189 -2.51932 0.169228 0
M  V30 8689 C 844.502 -0.786763 2.90225 0
M  V30 8690 C 846.05 -0.882201 3.0031 0
M  V30 8691 C 846.525 -1.06074 4.45547 0
M  V30 8692 N 848.016 -1.12678 4.49286 0
M  V30 8693 C 848.751 -1.28334 5.58854 0
M  V30 8694 N 848.247 -1.40845 6.78332 0
M  V30 8695 N 850.04 -1.31277 5.46555 0
M  V30 8696 H 842.191 0.536334 2.05517 0
M  V30 8697 H 844.454 0.178363 0.93107 0
M  V30 8698 H 844.16 0.0713018 3.51628 0
M  V30 8699 H 844.034 -1.67364 3.38037 0
M  V30 8700 H 846.421 -1.73075 2.39017 0
M  V30 8701 H 846.502 0.0288405 2.55784 0
M  V30 8702 H 846.146 -0.216935 5.07437 0
M  V30 8703 H 846.076 -1.98611 4.8771 0
M  V30 8704 H 848.567 -1.04335 3.63212 0
M  V30 8705 H 848.88 -1.52566 7.57591 0
M  V30 8706 H 847.225 -1.37888 6.81184 0
M  V30 8707 H 850.416 -1.2112 4.52159 0
M  V30 8708 H 850.589 -1.43136 6.31994 0
M  V30 8709 N 843.995 -1.47404 -0.557645 0
M  V30 8710 C 844.905 -1.62491 -1.69216 0
M  V30 8711 C 845.921 -0.507764 -1.66426 0
M  V30 8712 O 847.097 -0.775241 -1.85882 0
M  V30 8713 C 844.162 -1.63511 -3.05721 0
M  V30 8714 C 843.223 -2.86648 -3.1958 0
M  V30 8715 C 842.456 -2.87609 -4.49574 0
M  V30 8716 O 842.679 -1.97799 -5.35006 0
M  V30 8717 O 841.613 -3.79465 -4.67215 0
M  V30 8718 H 845.439 -2.58487 -1.59431 0
M  V30 8719 H 843.024 -1.30485 -0.7276 0
M  V30 8720 H 844.906 -1.66863 -3.86956 0
M  V30 8721 H 843.581 -0.706812 -3.15889 0
M  V30 8722 H 842.488 -2.8884 -2.37744 0
M  V30 8723 H 843.821 -3.7877 -3.14316 0
M  V30 8724 N 845.473 0.80434 -1.35529 0
M  V30 8725 C 846.721 1.55845 -1.28673 0
M  V30 8726 C 847.042 1.94511 0.137976 0
M  V30 8727 O 846.312 1.63775 1.07492 0
M  V30 8728 H 844.892 0.577931 -0.473291 0
M  V30 8729 H 847.554 0.959293 -1.69657 0
M  V30 8730 H 846.65 2.47285 -1.90411 0
M  V30 8731 N 846.951 1.19563 1.02676 0
M  V30 8732 C 848.228 0.908857 1.73203 0
M  V30 8733 C 848.608 -0.584928 2.02834 0
M  V30 8734 O 847.956 -1.54372 1.68469 0
M  V30 8735 C 848.166 1.77105 3.00724 0
M  V30 8736 C 849.514 2.00667 3.7419 0
M  V30 8737 O 850.538 1.74274 3.10656 0
M  V30 8738 O 849.397 2.4518 4.88415 0
M  V30 8739 H 846.491 0.338909 0.754367 0
M  V30 8740 H 849.037 1.30387 1.08616 0
M  V30 8741 H 847.809 2.78303 2.7507 0
M  V30 8742 H 847.432 1.37546 3.73051 0
M  V30 8743 N 848.429 -1.21819 0.999893 0
M  V30 8744 C 849.657 -1.94758 0.698359 0
M  V30 8745 C 850.072 -1.73771 -0.738183 0
M  V30 8746 O 849.429 -1.04113 -1.49889 0
M  V30 8747 C 849.48 -3.47292 1.00353 0
M  V30 8748 O 849.201 -3.67579 2.38363 0
M  V30 8749 C 850.702 -4.37403 0.72068 0
M  V30 8750 H 847.922 -0.619512 0.257771 0
M  V30 8751 H 850.466 -1.54778 1.33656 0
M  V30 8752 H 848.621 -3.85213 0.411018 0
M  V30 8753 H 849.035 -4.61719 2.48829 0
M  V30 8754 H 850.509 -5.43151 0.984422 0
M  V30 8755 H 850.986 -4.3784 -0.345309 0
M  V30 8756 H 851.592 -4.05119 1.29456 0
M  V30 8757 N 849.908 -0.773975 -1.37286 0
M  V30 8758 C 851.136 -0.350758 -2.03905 0
M  V30 8759 C 851.551 1.02779 -1.58373 0
M  V30 8760 O 850.908 1.65646 -0.766009 0
M  V30 8761 C 850.959 -0.387335 -3.59419 0
M  V30 8762 O 850.68 -1.7115 -4.03286 0
M  V30 8763 C 852.181 0.047198 -4.43275 0
M  V30 8764 H 849.401 -0.146663 -0.654775 0
M  V30 8765 H 851.945 -1.04852 -1.75574 0
M  V30 8766 H 850.1 0.261865 -3.86514 0
M  V30 8767 H 850.514 -1.65166 -4.97816 0
M  V30 8768 H 851.988 -0.0295474 -5.51992 0
M  V30 8769 H 852.465 1.09786 -4.25257 0
M  V30 8770 H 853.071 -0.573899 -4.2141 0
M  V30 8771 N 851.386 1.48609 -0.524698 0
M  V30 8772 C 852.611 2.07398 0.00952139 0
M  V30 8773 C 853.036 1.37939 1.27884 0
M  V30 8774 O 852.394 0.443633 1.75788 0
M  V30 8775 C 852.442 3.59916 0.221956 0
M  V30 8776 O 851.546 3.91647 1.29175 0
M  V30 8777 H 850.887 0.662981 -0.0367729 0
M  V30 8778 H 853.417 1.91092 -0.7311 0
M  V30 8779 H 853.427 4.05552 0.446236 0
M  V30 8780 H 852.102 4.09876 -0.705306 0
M  V30 8781 H 850.679 3.57796 1.05055 0
M  V30 8782 N 852.864 0.259585 1.55447 0
M  V30 8783 C 854.089 -0.368317 2.04103 0
M  V30 8784 C 854.514 -1.49827 1.13725 0
M  V30 8785 O 853.872 -1.80814 0.132705 0
M  V30 8786 C 853.92 -0.841506 3.50644 0
M  V30 8787 O 853.024 -1.95008 3.63381 0
M  V30 8788 H 852.365 -0.0785227 0.659341 0
M  V30 8789 H 854.895 0.389349 2.00861 0
M  V30 8790 H 854.905 -1.14138 3.9171 0
M  V30 8791 H 853.58 -0.0147001 4.15897 0
M  V30 8792 H 852.157 -1.65393 3.34215 0
M  V30 8793 N 854.342 -1.57594 -0.0133615 0
M  V30 8794 C 855.59 -1.89605 -0.699596 0
M  V30 8795 C 855.911 -0.85926 -1.75048 0
M  V30 8796 O 855.181 0.105112 -1.95618 0
M  V30 8797 H 853.761 -0.699776 -0.261385 0
M  V30 8798 H 856.423 -1.94885 0.0244044 0
M  V30 8799 H 855.519 -2.88962 -1.17928 0
M  V30 8800 N 855.82 0.285905 -1.54985 0
M  V30 8801 C 856.752 1.37505 -1.83371 0
M  V30 8802 C 857.765 1.46138 -0.717454 0
M  V30 8803 O 858.954 1.48186 -0.995142 0
M  V30 8804 C 856.054 2.7575 -1.97016 0
M  V30 8805 C 855.227 2.89866 -3.27561 0
M  V30 8806 C 854.286 4.08704 -3.31433 0
M  V30 8807 O 853.312 4.00073 -4.04883 0
M  V30 8808 N 854.514 5.20062 -2.57907 0
M  V30 8809 H 857.279 1.13505 -2.77375 0
M  V30 8810 H 854.84 0.476006 -1.54744 0
M  V30 8811 H 856.832 3.5352 -1.96991 0
M  V30 8812 H 855.402 2.9263 -1.09938 0
M  V30 8813 H 854.622 1.99085 -3.40234 0
M  V30 8814 H 855.91 2.96219 -4.13681 0
M  V30 8815 H 855.308 5.29958 -1.97891 0
M  V30 8816 H 853.865 5.96111 -2.63619 0
M  V30 8817 N 857.298 1.47698 0.54982 0
M  V30 8818 C 858.547 1.53961 1.30303 0
M  V30 8819 C 858.86 0.209731 1.94472 0
M  V30 8820 O 860.066 0.150418 2.71083 0
M  V30 8821 C 858.522 2.71436 2.36328 0
M  V30 8822 C 858.13 4.10983 1.78316 0
M  V30 8823 C 859.874 2.86996 3.12783 0
M  V30 8824 C 857.781 5.19747 2.82164 0
M  V30 8825 H 856.711 0.573098 0.489975 0
M  V30 8826 H 859.362 1.73989 0.583089 0
M  V30 8827 H 857.744 2.44801 3.11269 0
M  V30 8828 H 858.918 4.47552 1.09697 0
M  V30 8829 H 857.233 4.00371 1.1442 0
M  V30 8830 H 859.83 3.65422 3.90347 0
M  V30 8831 H 860.173 1.95712 3.67427 0
M  V30 8832 H 860.706 3.13436 2.44954 0
M  V30 8833 H 857.445 6.12932 2.32366 0
M  V30 8834 H 856.965 4.87688 3.49171 0
M  V30 8835 H 858.644 5.47014 3.4552 0
M  V30 8836 N 858.776 -0.797141 1.35954 0
M  V30 8837 C 860.187 -1.37179 1.26644 0
M  V30 8838 C 860.538 -1.9596 -0.0971046 0
M  V30 8839 O 859.663 -1.91994 -0.998355 0
M  V30 8840 C 860.258 -2.49395 2.2932 0
M  V30 8841 C 858.817 -3.02697 2.23722 0
M  V30 8842 C 857.964 -1.75721 2.14517 0
M  V30 8843 H 860.915 -0.599407 1.46945 0
M  V30 8844 H 860.936 -3.28204 1.92515 0
M  V30 8845 H 860.448 -2.06584 3.2855 0
M  V30 8846 H 858.549 -3.49948 1.27934 0
M  V30 8847 H 858.662 -3.60036 3.16087 0
M  V30 8848 H 857.026 -1.97649 1.60646 0
M  V30 8849 H 857.809 -1.35049 3.15621 0
M  V30 8850 N 860.254 -1.20106 -1.0204 0
M  V30 8851 C 861.164 -0.962051 -2.13967 0
M  V30 8852 C 862.18 0.0808053 -1.73812 0
M  V30 8853 O 863.356 -0.105774 -2.01122 0
M  V30 8854 C 860.421 -0.513108 -3.42882 0
M  V30 8855 C 859.482 -1.62636 -3.97301 0
M  V30 8856 C 858.715 -1.19875 -5.20063 0
M  V30 8857 O 858.938 -0.0658423 -5.70362 0
M  V30 8858 O 857.872 -2.00467 -5.67536 0
M  V30 8859 H 861.698 -1.8991 -2.36998 0
M  V30 8860 H 859.283 -0.984608 -1.12365 0
M  V30 8861 H 861.165 -0.271797 -4.20523 0
M  V30 8862 H 859.84 0.395402 -3.21276 0
M  V30 8863 H 858.747 -1.92192 -3.20957 0
M  V30 8864 H 860.08 -2.51174 -4.23288 0
M  V30 8865 N 861.732 1.21287 -1.00634 0
M  V30 8866 C 862.978 1.90671 -0.690822 0
M  V30 8867 C 863.311 1.77996 0.776592 0
M  V30 8868 O 862.586 1.15748 1.5631 0
M  V30 8869 C 862.869 3.42426 -1.11428 0
M  V30 8870 C 862.722 3.64086 -2.64124 0
M  V30 8871 C 864.041 4.34851 -0.677686 0
M  V30 8872 H 861.16 0.692419 -0.252439 0
M  V30 8873 H 863.802 1.42893 -1.25226 0
M  V30 8874 H 861.952 3.83249 -0.636586 0
M  V30 8875 H 863.624 3.32582 -3.19667 0
M  V30 8876 H 861.867 3.07906 -3.05576 0
M  V30 8877 H 862.538 4.7042 -2.88806 0
M  V30 8878 H 865.014 4.01619 -1.0882 0
M  V30 8879 H 863.89 5.39675 -1.00213 0
M  V30 8880 H 864.151 4.4009 0.421125 0
M  V30 8881 N 863.21 0.781244 1.36873 0
M  V30 8882 C 864.143 0.120106 2.27884 0
M  V30 8883 C 865.121 -0.698961 1.4681 0
M  V30 8884 O 866.305 -0.671694 1.76126 0
M  V30 8885 C 863.432 -0.835804 3.28226 0
M  V30 8886 C 862.478 -0.0995527 4.26384 0
M  V30 8887 S 863.311 1.21903 5.2144 0
M  V30 8888 C 864.467 0.266904 6.25331 0
M  V30 8889 H 864.7 0.891796 2.83609 0
M  V30 8890 H 862.233 0.575075 1.43291 0
M  V30 8891 H 864.191 -1.3819 3.86541 0
M  V30 8892 H 862.852 -1.58068 2.71428 0
M  V30 8893 H 862.045 -0.82457 4.97209 0
M  V30 8894 H 861.647 0.375818 3.72107 0
M  V30 8895 H 863.939 -0.55725 6.75204 0
M  V30 8896 H 864.882 0.943603 7.01785 0
M  V30 8897 H 865.29 -0.126121 5.64359 0
M  V30 8898 N 864.689 -1.48329 0.532571 0
M  V30 8899 C 865.914 -2.074 0.00147755 0
M  V30 8900 C 866.339 -1.38615 -1.27151 0
M  V30 8901 O 865.697 -0.452949 -1.75551 0
M  V30 8902 C 865.745 -3.60029 -0.202866 0
M  V30 8903 O 864.849 -3.92327 -1.27097 0
M  V30 8904 H 864.19 -0.662777 0.0402883 0
M  V30 8905 H 866.72 -1.90701 0.741224 0
M  V30 8906 H 866.73 -4.05783 -0.424722 0
M  V30 8907 H 865.405 -4.09496 0.727033 0
M  V30 8908 H 863.982 -3.58348 -1.03156 0
M  V30 8909 N 866.167 -0.267825 -1.55308 0
M  V30 8910 C 867.097 0.616585 -2.25212 0
M  V30 8911 C 868.078 1.16472 -1.23969 0
M  V30 8912 O 869.263 1.20021 -1.52672 0
M  V30 8913 C 866.393 1.80412 -2.96764 0
M  V30 8914 C 865.347 1.38784 -4.04874 0
M  V30 8915 C 864.673 2.65789 -4.63961 0
M  V30 8916 C 865.973 0.543415 -5.19465 0
M  V30 8917 H 867.667 0.0336257 -2.99381 0
M  V30 8918 H 865.213 0.0147328 -1.43992 0
M  V30 8919 H 867.166 2.42866 -3.44375 0
M  V30 8920 H 865.89 2.4128 -2.20118 0
M  V30 8921 H 864.549 0.786541 -3.58063 0
M  V30 8922 H 864.197 3.24899 -3.83992 0
M  V30 8923 H 863.897 2.38651 -5.36954 0
M  V30 8924 H 865.421 3.29104 -5.14318 0
M  V30 8925 H 866.835 1.07277 -5.63174 0
M  V30 8926 H 865.232 0.367219 -5.98975 0
M  V30 8927 H 866.302 -0.439534 -4.82904 0
M  V30 8928 N 867.645 1.57599 0.00500368 0
M  V30 8929 C 869.056 1.78462 0.54848 0
M  V30 8930 C 869.407 0.901869 1.74243 0
M  V30 8931 O 868.532 0.103014 2.16155 0
M  V30 8932 C 869.127 3.2365 1.00179 0
M  V30 8933 C 867.686 3.45627 1.49061 0
M  V30 8934 C 866.833 2.73794 0.439531 0
M  V30 8935 H 869.784 1.57151 -0.22118 0
M  V30 8936 H 869.805 3.31488 1.86805 0
M  V30 8937 H 869.317 3.87873 0.132607 0
M  V30 8938 H 867.418 2.86612 2.38085 0
M  V30 8939 H 867.531 4.54298 1.52152 0
M  V30 8940 H 865.895 2.38267 0.900043 0
M  V30 8941 H 866.678 3.40714 -0.420599 0
M  V30 8942 N 869.123 -0.277682 1.55134 0
M  V30 8943 C 870.033 -1.36524 1.90783 0
M  V30 8944 C 871.049 -1.54283 0.804542 0
M  V30 8945 O 872.225 -1.68499 1.10318 0
M  V30 8946 C 869.29 -2.70524 2.16835 0
M  V30 8947 C 868.351 -2.61552 3.40424 0
M  V30 8948 C 867.584 -3.89162 3.65224 0
M  V30 8949 O 867.807 -4.89624 2.92616 0
M  V30 8950 O 866.741 -3.89647 4.58758 0
M  V30 8951 H 870.567 -1.0929 2.83354 0
M  V30 8952 H 868.152 -0.475799 1.41621 0
M  V30 8953 H 870.034 -3.49765 2.35038 0
M  V30 8954 H 868.709 -2.97555 1.27448 0
M  V30 8955 H 867.616 -1.80704 3.27562 0
M  V30 8956 H 868.949 -2.39472 4.30016 0
M  V30 8957 N 870.601 -1.47988 -0.541979 0
M  V30 8958 C 871.534 -1.56172 -1.66389 0
M  V30 8959 C 872.512 -0.412879 -1.57271 0
M  V30 8960 O 873.696 -0.622816 -1.77914 0
M  V30 8961 C 870.823 -1.47851 -3.04726 0
M  V30 8962 C 869.869 -2.67428 -3.32242 0
M  V30 8963 S 870.702 -4.29502 -3.19825 0
M  V30 8964 C 871.858 -4.2376 -4.60628 0
M  V30 8965 H 872.091 -2.51086 -1.59195 0
M  V30 8966 H 869.624 -1.36373 -0.724005 0
M  V30 8967 H 871.582 -1.43738 -3.84512 0
M  V30 8968 H 870.243 -0.542958 -3.09372 0
M  V30 8969 H 869.436 -2.57711 -4.33129 0
M  V30 8970 H 869.038 -2.68743 -2.60103 0
M  V30 8971 H 871.33 -3.92953 -5.51901 0
M  V30 8972 H 872.273 -5.24786 -4.75401 0
M  V30 8973 H 872.681 -3.54398 -4.39389 0
M  V30 8974 N 872.079 0.78992 -1.36375 0
M  V30 8975 C 873.326 1.54777 -1.30576 0
M  V30 8976 C 873.654 1.94159 0.115095 0
M  V30 8977 O 872.909 1.62918 1.08426 0
M  V30 8978 C 873.208 2.83698 -2.17371 0
M  V30 8979 C 872.874 2.63457 -3.65925 0
M  V30 8980 C 871.536 2.57645 -4.06415 0
M  V30 8981 C 873.888 2.44833 -4.60115 0
M  V30 8982 C 871.216 2.31174 -5.39236 0
M  V30 8983 C 873.568 2.19889 -5.93154 0
M  V30 8984 C 872.232 2.1251 -6.32768 0
M  V30 8985 H 871.502 0.566371 -0.477813 0
M  V30 8986 H 874.149 0.91138 -1.68422 0
M  V30 8987 H 872.454 3.51802 -1.72459 0
M  V30 8988 H 874.151 3.41487 -2.10209 0
M  V30 8989 H 870.741 2.68836 -3.33804 0
M  V30 8990 H 874.925 2.48325 -4.29707 0
M  V30 8991 H 870.181 2.23942 -5.68911 0
M  V30 8992 H 874.355 2.04473 -6.65705 0
M  V30 8993 H 871.982 1.91761 -7.35616 0
M  V30 8994 N 873.557 1.20646 1.01402 0
M  V30 8995 C 874.834 0.927176 1.72229 0
M  V30 8996 C 875.214 -0.563382 2.03443 0
M  V30 8997 O 874.562 -1.52576 1.70096 0
M  V30 8998 C 874.772 1.80285 2.98828 0
M  V30 8999 C 876.12 2.04624 3.72041 0
M  V30 9000 O 877.144 1.77559 3.0879 0
M  V30 9001 O 876.003 2.50347 4.85787 0
M  V30 9002 H 873.097 0.346891 0.75073 0
M  V30 9003 H 875.643 1.31532 1.07227 0
M  V30 9004 H 874.415 2.81204 2.72102 0
M  V30 9005 H 874.038 1.41495 3.71571 0
M  V30 9006 N 875.035 -1.20752 1.01276 0
M  V30 9007 C 875.982 -2.234 0.579732 0
M  V30 9008 C 876.952 -1.61256 -0.398206 0
M  V30 9009 O 878.137 -1.8845 -0.29851 0
M  V30 9010 C 875.277 -3.45008 -0.0797006 0
M  V30 9011 C 874.39 -4.21597 0.942343 0
M  V30 9012 C 873.525 -5.30591 0.254364 0
M  V30 9013 C 872.564 -5.98919 1.26343 0
M  V30 9014 N 871.701 -6.99511 0.602384 0
M  V30 9015 H 876.541 -2.59801 1.45971 0
M  V30 9016 H 874.078 -1.27663 0.730787 0
M  V30 9017 H 876.036 -4.1444 -0.479125 0
M  V30 9018 H 874.666 -3.09312 -0.923354 0
M  V30 9019 H 873.718 -3.51268 1.45996 0
M  V30 9020 H 875.03 -4.68576 1.70992 0
M  V30 9021 H 874.184 -6.06368 -0.200763 0
M  V30 9022 H 872.923 -4.84639 -0.545553 0
M  V30 9023 H 871.928 -5.21906 1.72898 0
M  V30 9024 H 873.153 -6.46957 2.06456 0
M  V30 9025 H 871.099 -6.55759 -0.177734 0
M  V30 9026 H 871.016 -7.44597 1.30809 0
M  V30 9027 H 872.284 -7.79313 0.17072 0
M  V30 9028 N 876.513 -0.788492 -1.36457 0
M  V30 9029 C 877.446 -0.132189 -2.27817 0
M  V30 9030 C 878.424 0.691166 -1.47179 0
M  V30 9031 O 879.608 0.662344 -1.7648 0
M  V30 9032 C 876.735 0.818386 -3.28664 0
M  V30 9033 C 875.781 0.0769392 -4.26431 0
M  V30 9034 S 876.614 -1.24666 -5.20786 0
M  V30 9035 C 877.77 -0.300063 -6.2518 0
M  V30 9036 H 878.003 -0.906824 -2.83132 0
M  V30 9037 H 875.536 -0.582666 -1.42984 0
M  V30 9038 H 877.494 1.36138 -3.87268 0
M  V30 9039 H 876.155 1.56626 -2.72263 0
M  V30 9040 H 875.348 0.79819 -4.97639 0
M  V30 9041 H 874.95 -0.395547 -3.71902 0
M  V30 9042 H 877.242 0.521434 -6.7549 0
M  V30 9043 H 878.185 -0.980808 -7.01274 0
M  V30 9044 H 878.593 0.0961898 -5.64418 0
M  V30 9045 N 877.991 1.48044 -0.54043 0
M  V30 9046 C 879.407 1.58354 -0.199006 0
M  V30 9047 C 879.607 1.54118 1.29807 0
M  V30 9048 O 878.663 1.43573 2.07709 0
M  V30 9049 C 879.976 2.89563 -0.810797 0
M  V30 9050 C 881.524 3.03113 -0.780486 0
M  V30 9051 C 881.999 4.36997 -1.37104 0
M  V30 9052 N 883.49 4.43591 -1.33347 0
M  V30 9053 C 884.225 5.45714 -1.76021 0
M  V30 9054 N 883.721 6.54738 -2.26473 0
M  V30 9055 N 885.514 5.36659 -1.67194 0
M  V30 9056 H 877.665 1.49041 -1.51329 0
M  V30 9057 H 879.928 0.708309 -0.630081 0
M  V30 9058 H 879.634 2.9835 -1.86227 0
M  V30 9059 H 879.508 3.76053 -0.293977 0
M  V30 9060 H 881.895 2.93932 0.262246 0
M  V30 9061 H 881.976 2.18207 -1.33489 0
M  V30 9062 H 881.62 4.46932 -2.41276 0
M  V30 9063 H 881.55 5.20607 -0.792229 0
M  V30 9064 H 884.041 3.65391 -0.964259 0
M  V30 9065 H 884.354 7.28814 -2.57002 0
M  V30 9066 H 882.699 6.55673 -2.30473 0
M  V30 9067 H 885.89 4.50382 -1.27569 0
M  V30 9068 H 886.063 6.16113 -2.00771 0
M  V30 9069 N 879.47 0.276058 1.55163 0
M  V30 9070 C 880.881 -0.221516 1.85381 0
M  V30 9071 C 881.232 -1.55372 1.19808 0
M  V30 9072 O 880.357 -2.10855 0.486742 0
M  V30 9073 C 880.952 -0.408706 3.36326 0
M  V30 9074 C 879.511 -0.850512 3.66665 0
M  V30 9075 C 878.658 0.055656 2.77244 0
M  V30 9076 H 881.609 0.497819 1.5069 0
M  V30 9077 H 881.63 -1.24711 3.59482 0
M  V30 9078 H 881.142 0.561052 3.84023 0
M  V30 9079 H 879.243 -1.83171 3.24468 0
M  V30 9080 H 879.356 -0.687181 4.74146 0
M  V30 9081 H 877.72 -0.460819 2.50497 0
M  V30 9082 H 878.503 1.02131 3.27756 0
M  V30 9083 N 880.948 -1.576 0.00335426 0
M  V30 9084 C 882.178 -1.94713 -0.690682 0
M  V30 9085 C 882.586 -0.876915 -1.67651 0
M  V30 9086 O 881.929 0.152434 -1.83066 0
M  V30 9087 C 881.991 -3.27833 -1.47532 0
M  V30 9088 C 881.655 -4.52344 -0.650704 0
M  V30 9089 C 882.652 -5.19862 0.0630537 0
M  V30 9090 C 880.337 -4.98755 -0.595687 0
M  V30 9091 C 882.331 -6.32093 0.820779 0
M  V30 9092 C 880.018 -6.10875 0.165761 0
M  V30 9093 C 881.016 -6.77401 0.872724 0
M  V30 9094 O 880.704 -7.87372 1.62174 0
M  V30 9095 H 880.436 -0.646627 -0.197104 0
M  V30 9096 H 882.99 -2.05335 0.0516082 0
M  V30 9097 H 881.22 -3.13628 -2.26217 0
M  V30 9098 H 882.909 -3.50034 -2.05501 0
M  V30 9099 H 883.675 -4.84991 0.0297223 0
M  V30 9100 H 879.554 -4.46797 -1.13549 0
M  V30 9101 H 883.098 -6.83953 1.37312 0
M  V30 9102 H 878.995 -6.45187 0.200901 0
M  V30 9103 H 879.763 -8.03905 1.5388 0
M  V30 9104 N 882.426 0.269451 -1.5528 0
M  V30 9105 C 883.656 1.01724 -1.79821 0
M  V30 9106 C 884.064 1.80298 -0.573532 0
M  V30 9107 O 883.407 1.77666 0.466963 0
M  V30 9108 C 883.469 2.02043 -2.97353 0
M  V30 9109 C 883.133 1.42375 -4.34256 0
M  V30 9110 C 884.13 0.837611 -5.13108 0
M  V30 9111 C 881.815 1.44988 -4.8092 0
M  V30 9112 C 883.809 0.285557 -6.3676 0
M  V30 9113 C 881.496 0.893969 -6.04526 0
M  V30 9114 C 882.494 0.312809 -6.82283 0
M  V30 9115 O 882.182 -0.234582 -8.03558 0
M  V30 9116 H 881.914 0.30604 -0.602757 0
M  V30 9117 H 884.468 0.30454 -2.0313 0
M  V30 9118 H 882.698 2.77082 -2.69745 0
M  V30 9119 H 884.387 2.6298 -3.09187 0
M  V30 9120 H 885.153 0.81009 -4.78187 0
M  V30 9121 H 881.032 1.89162 -4.20403 0
M  V30 9122 H 884.576 -0.168696 -6.97396 0
M  V30 9123 H 880.473 0.918742 -6.38928 0
M  V30 9124 H 881.241 -0.124282 -8.18406 0
M  V30 9125 N 883.904 1.48273 0.534124 0
M  V30 9126 C 884.814 1.65162 1.66609 0
M  V30 9127 C 885.83 0.534177 1.65598 0
M  V30 9128 O 887.006 0.804715 1.84625 0
M  V30 9129 C 884.071 1.68354 3.03081 0
M  V30 9130 C 883.132 2.91696 3.1498 0
M  V30 9131 C 882.365 2.94725 4.44941 0
M  V30 9132 O 882.588 2.06285 5.31792 0
M  V30 9133 O 881.522 3.8685 4.61119 0
M  V30 9134 H 885.348 2.60991 1.55298 0
M  V30 9135 H 882.933 1.31626 0.706749 0
M  V30 9136 H 884.815 1.72998 3.84252 0
M  V30 9137 H 883.49 0.756978 3.14725 0
M  V30 9138 H 882.397 2.92586 2.33119 0
M  V30 9139 H 883.73 3.83722 3.0825 0
M  V30 9140 N 885.382 -0.782676 1.36792 0
M  V30 9141 C 886.292 -1.92679 1.33835 0
M  V30 9142 C 887.308 -1.72344 0.23952 0
M  V30 9143 O 888.484 -1.95766 0.473045 0
M  V30 9144 C 885.549 -3.27644 1.1336 0
M  V30 9145 C 884.61 -3.6071 2.32781 0
M  V30 9146 C 883.843 -4.89234 2.13273 0
M  V30 9147 O 884.066 -5.59468 1.11136 0
M  V30 9148 O 883 -5.21112 3.01208 0
M  V30 9149 H 886.826 -1.98124 2.30175 0
M  V30 9150 H 884.411 -0.923887 1.17408 0
M  V30 9151 H 886.293 -4.08394 1.03886 0
M  V30 9152 H 884.968 -3.23076 0.200868 0
M  V30 9153 H 883.875 -2.80238 2.47825 0
M  V30 9154 H 885.208 -3.70008 3.24584 0
M  V30 9155 N 886.86 -1.21182 -1.00761 0
M  V30 9156 C 888.085 -1.05411 -1.78615 0
M  V30 9157 C 888.51 0.391837 -1.83973 0
M  V30 9158 O 887.868 1.28256 -1.28141 0
M  V30 9159 C 887.916 -1.65285 -3.20489 0
M  V30 9160 O 887.02 -0.896558 -4.02536 0
M  V30 9161 H 886.361 -0.37116 -0.550578 0
M  V30 9162 H 888.891 -1.60669 -1.26676 0
M  V30 9163 H 888.901 -1.69397 -3.71172 0
M  V30 9164 H 887.576 -2.70514 -3.15904 0
M  V30 9165 H 886.153 -0.930335 -3.61108 0
M  V30 9166 N 888.338 1.20213 -1.01915 0
M  V30 9167 C 889.285 2.2309 -0.591571 0
M  V30 9168 C 890.255 1.61465 0.389649 0
M  V30 9169 O 891.44 1.88606 0.288511 0
M  V30 9170 C 888.58 3.45045 0.0614028 0
M  V30 9171 C 887.693 4.21091 -0.964688 0
M  V30 9172 C 886.828 5.30448 -0.282499 0
M  V30 9173 C 885.867 5.98241 -1.29517 0
M  V30 9174 N 885.004 6.99182 -0.639472 0
M  V30 9175 H 889.844 2.59023 -1.47347 0
M  V30 9176 H 887.381 1.27274 -0.737547 0
M  V30 9177 H 889.339 4.14688 0.45714 0
M  V30 9178 H 887.969 3.09797 0.906937 0
M  V30 9179 H 887.021 3.50489 -1.47857 0
M  V30 9180 H 888.333 4.67662 -1.73475 0
M  V30 9181 H 887.487 6.06466 0.168603 0
M  V30 9182 H 886.226 4.84922 0.519843 0
M  V30 9183 H 885.231 5.20982 -1.75663 0
M  V30 9184 H 886.456 6.45853 -2.09884 0
M  V30 9185 H 884.402 6.55844 0.142955 0
M  V30 9186 H 884.319 7.43893 -1.34756 0
M  V30 9187 H 885.587 7.79212 -0.212047 0
M  V30 9188 N 889.816 0.795718 1.36037 0
M  V30 9189 C 890.763 0.196548 2.29962 0
M  V30 9190 C 891.733 -0.663213 1.52285 0
M  V30 9191 O 892.918 -0.610574 1.80767 0
M  V30 9192 C 890.058 -0.657639 3.38776 0
M  V30 9193 C 889.171 0.221358 4.31433 0
M  V30 9194 C 888.306 -0.6398 5.27333 0
M  V30 9195 C 887.345 0.240265 6.11628 0
M  V30 9196 N 886.482 -0.580237 6.99698 0
M  V30 9197 H 891.322 1.00295 2.80615 0
M  V30 9198 H 888.859 0.506147 1.38118 0
M  V30 9199 H 890.817 -1.16793 4.00519 0
M  V30 9200 H 889.447 -1.42941 2.89426 0
M  V30 9201 H 888.499 0.84967 3.70789 0
M  V30 9202 H 889.811 0.899195 4.90628 0
M  V30 9203 H 888.965 -1.21566 5.94396 0
M  V30 9204 H 887.704 -1.35124 4.68607 0
M  V30 9205 H 886.709 0.828474 5.43522 0
M  V30 9206 H 887.934 0.949403 6.72431 0
M  V30 9207 H 885.88 -1.27585 6.43473 0
M  V30 9208 H 885.797 0.0397853 7.5599 0
M  V30 9209 H 887.065 -1.13972 7.71123 0
M  V30 9210 N 891.294 -1.47756 0.548274 0
M  V30 9211 C 892.71 -1.58247 0.207401 0
M  V30 9212 C 892.91 -1.54804 -1.28988 0
M  V30 9213 O 891.966 -1.44673 -2.06944 0
M  V30 9214 C 893.279 -2.89129 0.826142 0
M  V30 9215 C 894.827 -3.02695 0.79655 0
M  V30 9216 C 895.302 -4.36264 1.3942 0
M  V30 9217 N 896.793 -4.42877 1.35698 0
M  V30 9218 C 897.528 -5.44773 1.78913 0
M  V30 9219 N 897.024 -6.53528 2.29942 0
M  V30 9220 N 898.817 -5.35765 1.70038 0
M  V30 9221 H 890.968 -1.48236 1.52117 0
M  V30 9222 H 893.231 -0.704957 0.633829 0
M  V30 9223 H 892.937 -2.97358 1.87806 0
M  V30 9224 H 892.811 -3.75891 0.313916 0
M  V30 9225 H 895.198 -2.94067 -0.246655 0
M  V30 9226 H 895.279 -2.17496 1.34644 0
M  V30 9227 H 894.923 -4.45646 2.43642 0
M  V30 9228 H 894.853 -5.20179 0.819827 0
M  V30 9229 H 897.344 -3.64874 0.983623 0
M  V30 9230 H 897.657 -7.27441 2.60863 0
M  V30 9231 H 896.002 -6.54442 2.33947 0
M  V30 9232 H 899.193 -4.49699 1.29955 0
M  V30 9233 H 899.366 -6.1504 2.04035 0
M  V30 9234 N 892.772 -0.284283 -1.55015 0
M  V30 9235 C 894.018 0.330352 -2.00091 0
M  V30 9236 C 894.351 1.54814 -1.17244 0
M  V30 9237 O 893.626 1.92954 -0.244753 0
M  V30 9238 C 893.909 0.703492 -3.53161 0
M  V30 9239 C 893.762 -0.522275 -4.46758 0
M  V30 9240 C 895.081 1.53645 -4.12409 0
M  V30 9241 H 892.2 0.118599 -0.727395 0
M  V30 9242 H 894.842 -0.393054 -1.8589 0
M  V30 9243 H 892.992 1.31983 -3.65394 0
M  V30 9244 H 894.664 -1.16082 -4.46456 0
M  V30 9245 H 892.907 -1.15865 -4.1804 0
M  V30 9246 H 893.578 -0.217295 -5.51572 0
M  V30 9247 H 896.054 1.01583 -4.0351 0
M  V30 9248 H 894.93 1.76633 -5.19704 0
M  V30 9249 H 895.191 2.5204 -3.63219 0
M  V30 9250 N 894.251 1.57596 -0.0117121 0
M  V30 9251 C 895.198 2.09153 0.975897 0
M  V30 9252 C 896.168 0.989579 1.33404 0
M  V30 9253 O 897.353 1.26273 1.43038 0
M  V30 9254 C 894.493 2.60906 2.2588 0
M  V30 9255 C 893.606 3.85046 1.95866 0
M  V30 9256 C 892.741 4.25257 3.18323 0
M  V30 9257 C 891.78 5.42202 2.84049 0
M  V30 9258 N 890.917 5.77651 3.99079 0
M  V30 9259 H 895.757 2.93261 0.52931 0
M  V30 9260 H 893.294 1.44965 0.249691 0
M  V30 9261 H 895.252 2.88995 3.00895 0
M  V30 9262 H 893.882 1.79654 2.68187 0
M  V30 9263 H 892.934 3.63794 1.11168 0
M  V30 9264 H 894.246 4.70151 1.66611 0
M  V30 9265 H 893.4 4.5469 4.01674 0
M  V30 9266 H 892.139 3.38884 3.50726 0
M  V30 9267 H 891.144 5.1248 1.99107 0
M  V30 9268 H 892.369 6.3026 2.52881 0
M  V30 9269 H 890.315 4.94235 4.31356 0
M  V30 9270 H 890.232 6.57356 3.73388 0
M  V30 9271 H 891.5 6.11681 4.83183 0
M  V30 9272 N 895.729 -0.261212 1.5542 0
M  V30 9273 C 896.639 -1.34493 1.92221 0
M  V30 9274 C 897.655 -1.53421 0.82086 0
M  V30 9275 O 898.831 -1.6732 1.12099 0
M  V30 9276 C 895.896 -2.68209 2.19692 0
M  V30 9277 C 894.957 -2.57927 3.43179 0
M  V30 9278 C 894.19 -3.85266 3.69331 0
M  V30 9279 O 894.413 -4.86493 2.97793 0
M  V30 9280 O 893.347 -3.8476 4.62865 0
M  V30 9281 H 897.173 -1.06278 2.84497 0
M  V30 9282 H 894.758 -0.460752 1.42118 0
M  V30 9283 H 896.64 -3.47252 2.38734 0
M  V30 9284 H 895.315 -2.96186 1.30597 0
M  V30 9285 H 894.222 -1.77219 3.2946 0
M  V30 9286 H 895.555 -2.34898 4.32532 0
M  V30 9287 N 897.207 -1.48554 -0.526253 0
M  V30 9288 C 898.623 -1.34757 -0.855138 0
M  V30 9289 C 898.823 -0.36142 -1.98232 0
M  V30 9290 O 897.879 0.216026 -2.51574 0
M  V30 9291 C 899.192 -2.74877 -1.21915 0
M  V30 9292 C 900.74 -2.83393 -1.32882 0
M  V30 9293 C 901.215 -4.24223 -1.72624 0
M  V30 9294 N 902.706 -4.26913 -1.7972 0
M  V30 9295 C 903.441 -5.32824 -2.11863 0
M  V30 9296 N 902.937 -6.49008 -2.42405 0
M  V30 9297 N 904.73 -5.20221 -2.12901 0
M  V30 9298 H 896.881 -2.11284 0.217422 0
M  V30 9299 H 899.144 -0.947367 0.0346362 0
M  V30 9300 H 898.85 -3.48619 -0.464486 0
M  V30 9301 H 898.724 -3.0864 -2.16844 0
M  V30 9302 H 901.111 -2.09904 -2.07424 0
M  V30 9303 H 901.192 -2.53245 -0.360638 0
M  V30 9304 H 900.836 -4.98229 -0.986411 0
M  V30 9305 H 900.766 -4.51817 -2.70498 0
M  V30 9306 H 903.257 -3.4311 -1.58379 0
M  V30 9307 H 903.57 -7.25561 -2.66048 0
M  V30 9308 H 901.915 -6.52277 -2.39917 0
M  V30 9309 H 905.106 -4.28469 -1.885 0
M  V30 9310 H 905.279 -6.02861 -2.37619 0
M  V30 9311 N 898.685 0.775411 -1.37205 0
M  V30 9312 C 899.91 1.5696 -1.35567 0
M  V30 9313 C 900.335 1.88012 0.0575554 0
M  V30 9314 O 899.693 1.48954 1.03355 0
M  V30 9315 C 899.741 2.85886 -2.19776 0
M  V30 9316 O 898.845 3.80103 -1.59987 0
M  V30 9317 H 898.186 0.475583 -0.463375 0
M  V30 9318 H 900.716 0.96001 -1.80679 0
M  V30 9319 H 900.726 3.35024 -2.32859 0
M  V30 9320 H 899.401 2.62613 -3.22502 0
M  V30 9321 H 897.978 3.38736 -1.55924 0
M  V30 9322 N 900.163 1.21714 1.00117 0
M  V30 9323 C 901.391 1.06278 1.77518 0
M  V30 9324 C 901.806 -0.387193 1.84787 0
M  V30 9325 O 901.163 -1.26854 1.31203 0
M  V30 9326 C 901.214 1.65795 3.21239 0
M  V30 9327 O 900.935 3.05119 3.14378 0
M  V30 9328 C 902.436 1.55521 4.15124 0
M  V30 9329 H 899.656 0.373013 0.557765 0
M  V30 9330 H 902.2 1.61133 1.25922 0
M  V30 9331 H 900.355 1.15022 3.69931 0
M  V30 9332 H 900.769 3.33643 4.04701 0
M  V30 9333 H 902.243 2.01902 5.13751 0
M  V30 9334 H 902.72 0.510307 4.36225 0
M  V30 9335 H 903.326 2.0556 3.72324 0
M  V30 9336 N 901.641 -1.19671 1.02551 0
M  V30 9337 C 902.604 -2.20987 0.608055 0
M  V30 9338 C 903.604 -1.5745 -0.326534 0
M  V30 9339 O 904.794 -1.73827 -0.114003 0
M  V30 9340 C 901.926 -3.4072 -0.11074 0
M  V30 9341 H 903.119 -2.59434 1.50446 0
M  V30 9342 H 900.672 -1.3329 0.816307 0
M  V30 9343 H 901.407 -3.07787 -1.02165 0
M  V30 9344 H 901.192 -3.88069 0.560772 0
M  V30 9345 H 902.682 -4.15776 -0.389848 0
M  V30 9346 N 903.119 -0.802921 -1.35613 0
M  V30 9347 C 904.029 -0.212177 -2.33639 0
M  V30 9348 C 905.045 0.642871 -1.61689 0
M  V30 9349 O 906.221 0.555485 -1.93588 0
M  V30 9350 C 903.286 0.632406 -3.40883 0
M  V30 9351 C 902.347 -0.242708 -4.28613 0
M  V30 9352 C 901.58 0.56166 -5.30736 0
M  V30 9353 O 901.803 1.79664 -5.41366 0
M  V30 9354 O 900.737 -0.0455387 -6.01883 0
M  V30 9355 H 904.563 -1.023 -2.85952 0
M  V30 9356 H 902.148 -0.564636 -1.38319 0
M  V30 9357 H 904.03 1.11358 -4.0642 0
M  V30 9358 H 902.705 1.42089 -2.90848 0
M  V30 9359 H 901.612 -0.77094 -3.6607 0
M  V30 9360 H 902.945 -0.995046 -4.82037 0
M  V30 9361 N 904.597 1.47463 -0.556102 0
M  V30 9362 C 905.846 2.01678 -0.029492 0
M  V30 9363 C 906.159 1.436 1.32809 0
M  V30 9364 O 907.365 1.89472 1.94455 0
M  V30 9365 C 905.821 3.599 -0.00223937 0
M  V30 9366 C 905.429 4.26969 -1.35651 0
M  V30 9367 C 907.173 4.2187 0.471822 0
M  V30 9368 C 905.08 5.77194 -1.28843 0
M  V30 9369 H 904.01 0.753965 -0.00725504 0
M  V30 9370 H 906.661 1.69467 -0.703789 0
M  V30 9371 H 905.043 3.89068 0.737682 0
M  V30 9372 H 906.217 4.09444 -2.11406 0
M  V30 9373 H 904.532 3.76983 -1.76842 0
M  V30 9374 H 907.129 5.31955 0.541139 0
M  V30 9375 H 907.472 3.88968 1.48356 0
M  V30 9376 H 908.005 3.97228 -0.213207 0
M  V30 9377 H 904.744 6.14713 -2.27613 0
M  V30 9378 H 904.264 5.9706 -0.572668 0
M  V30 9379 H 905.943 6.3938 -0.990031 0
M  V30 9380 N 906.075 0.2925 1.54862 0
M  V30 9381 C 907.022 -0.587365 2.23201 0
M  V30 9382 C 907.992 -1.13623 1.21157 0
M  V30 9383 O 909.177 -1.18233 1.49752 0
M  V30 9384 C 906.317 -1.75745 2.96998 0
M  V30 9385 C 905.43 -1.24078 4.13798 0
M  V30 9386 C 904.565 -2.37405 4.75197 0
M  V30 9387 C 903.604 -1.82829 5.84157 0
M  V30 9388 N 902.741 -2.89696 6.39547 0
M  V30 9389 H 907.581 0.00202207 2.98 0
M  V30 9390 H 905.118 0.012766 1.47094 0
M  V30 9391 H 907.076 -2.44549 3.38011 0
M  V30 9392 H 905.706 -2.3186 2.24591 0
M  V30 9393 H 904.758 -0.445268 3.77785 0
M  V30 9394 H 906.07 -0.801186 4.92324 0
M  V30 9395 H 905.224 -3.14172 5.19019 0
M  V30 9396 H 903.963 -2.84688 3.95985 0
M  V30 9397 H 902.968 -1.04548 5.39768 0
M  V30 9398 H 904.193 -1.36461 6.65248 0
M  V30 9399 H 902.139 -3.36328 5.63222 0
M  V30 9400 H 902.056 -2.50206 7.13395 0
M  V30 9401 H 903.324 -3.66386 6.88027 0
M  V30 9402 N 907.553 -1.57587 0.0200696 0
M  V30 9403 C 908.969 -1.56018 -0.336237 0
M  V30 9404 C 909.169 -1.02478 -1.73495 0
M  V30 9405 O 908.225 -0.667487 -2.43518 0
M  V30 9406 C 909.538 -3.00079 -0.193112 0
M  V30 9407 C 911.086 -3.11863 -0.266557 0
M  V30 9408 C 911.561 -4.57747 -0.152326 0
M  V30 9409 N 913.052 -4.62726 -0.209596 0
M  V30 9410 C 913.787 -5.73217 -0.144855 0
M  V30 9411 N 913.283 -6.92794 -0.0295487 0
M  V30 9412 N 915.076 -5.61751 -0.198184 0
M  V30 9413 H 907.227 -1.90722 0.93482 0
M  V30 9414 H 909.49 -0.876909 0.360186 0
M  V30 9415 H 909.196 -3.43167 0.770036 0
M  V30 9416 H 909.07 -3.64593 -0.967029 0
M  V30 9417 H 911.457 -2.68693 -1.22016 0
M  V30 9418 H 911.538 -2.50087 0.53758 0
M  V30 9419 H 911.182 -5.01595 0.797817 0
M  V30 9420 H 911.112 -5.17491 -0.97521 0
M  V30 9421 H 913.603 -3.76713 -0.299229 0
M  V30 9422 H 913.916 -7.72799 0.0134071 0
M  V30 9423 H 912.261 -6.95 0.00510737 0
M  V30 9424 H 915.452 -4.67222 -0.286603 0
M  V30 9425 H 915.625 -6.47839 -0.144266 0
M  V30 9426 N 909.032 0.252966 -1.55557 0
M  V30 9427 C 910.28 0.979912 -1.76754 0
M  V30 9428 C 910.601 1.86083 -0.582944 0
M  V30 9429 O 909.871 1.91742 0.401497 0
M  V30 9430 H 908.451 0.364805 -0.651864 0
M  V30 9431 H 911.113 0.272372 -1.92987 0
M  V30 9432 H 910.209 1.60518 -2.67657 0
M  V30 9433 N 910.51 1.48831 0.518367 0
M  V30 9434 C 911.756 1.57672 1.27543 0
M  V30 9435 C 912.089 0.254915 1.9252 0
M  V30 9436 O 911.364 -0.740107 1.79868 0
M  V30 9437 C 911.647 2.72345 2.35585 0
M  V30 9438 C 911.5 4.14267 1.75224 0
M  V30 9439 C 912.819 2.82726 3.37274 0
M  V30 9440 H 909.938 0.573926 0.462361 0
M  V30 9441 H 912.58 1.8105 0.576267 0
M  V30 9442 H 910.73 2.52543 2.95219 0
M  V30 9443 H 912.402 4.45539 1.19551 0
M  V30 9444 H 910.645 4.20724 1.05706 0
M  V30 9445 H 911.316 4.90345 2.53507 0
M  V30 9446 H 913.792 3.00699 2.8761 0
M  V30 9447 H 912.668 3.6467 4.10252 0
M  V30 9448 H 912.929 1.9136 3.9854 0
M  V30 9449 N 911.988 -0.768124 1.37614 0
M  V30 9450 C 913.236 -1.52379 1.3276 0
M  V30 9451 C 913.557 -1.94809 -0.0863564 0
M  V30 9452 O 912.827 -1.66568 -1.03112 0
M  V30 9453 H 911.407 -0.565179 0.488448 0
M  V30 9454 H 914.069 -0.913974 1.72141 0
M  V30 9455 H 913.165 -2.4215 1.96901 0
M  V30 9456 N 913.466 -1.22244 -0.994698 0
M  V30 9457 C 914.712 -1.04746 -1.73655 0
M  V30 9458 C 915.045 0.41668 -1.89677 0
M  V30 9459 O 914.32 1.30897 -1.43862 0
M  V30 9460 C 914.603 -1.75716 -3.14318 0
M  V30 9461 C 914.456 -3.29714 -3.05955 0
M  V30 9462 C 915.775 -1.50809 -4.13455 0
M  V30 9463 H 912.894 -0.381921 -0.630322 0
M  V30 9464 H 915.536 -1.50559 -1.15897 0
M  V30 9465 H 913.686 -1.3677 -3.63629 0
M  V30 9466 H 915.358 -3.78093 -2.64279 0
M  V30 9467 H 913.601 -3.59484 -2.42804 0
M  V30 9468 H 914.272 -3.74547 -4.05485 0
M  V30 9469 H 916.748 -1.84636 -3.72892 0
M  V30 9470 H 915.624 -2.02964 -5.09997 0
M  V30 9471 H 915.885 -0.440292 -4.39902 0
M  V30 9472 N 914.944 1.19125 -1.03184 0
M  V30 9473 C 915.907 2.20662 -0.619766 0
M  V30 9474 C 916.907 1.57621 0.318179 0
M  V30 9475 O 918.097 1.73885 0.104783 0
M  V30 9476 C 915.229 3.40774 0.0926696 0
M  V30 9477 H 916.422 2.58633 -1.5182 0
M  V30 9478 H 913.975 1.32855 -0.823364 0
M  V30 9479 H 914.71 3.08324 1.00531 0
M  V30 9480 H 914.495 3.87766 -0.581344 0
M  V30 9481 H 915.985 4.15977 0.367792 0
M  V30 9482 N 916.422 0.810101 1.35185 0
M  V30 9483 C 917.352 0.237453 2.32289 0
M  V30 9484 C 918.333 -0.639032 1.5764 0
M  V30 9485 O 919.518 -0.568575 1.8569 0
M  V30 9486 C 916.648 -0.611964 3.41866 0
M  V30 9487 C 915.602 0.166318 4.27677 0
M  V30 9488 C 914.928 -0.805024 5.28605 0
M  V30 9489 C 916.228 1.36729 5.04086 0
M  V30 9490 H 917.922 1.04874 2.80432 0
M  V30 9491 H 915.468 0.505751 1.34826 0
M  V30 9492 H 917.421 -1.02267 4.08802 0
M  V30 9493 H 916.145 -1.45617 2.92341 0
M  V30 9494 H 914.804 0.558238 3.62325 0
M  V30 9495 H 914.452 -1.64483 4.75347 0
M  V30 9496 H 914.152 -0.288577 5.86891 0
M  V30 9497 H 915.676 -1.21386 5.98413 0
M  V30 9498 H 917.09 1.03128 5.63948 0
M  V30 9499 H 915.487 1.81848 5.71884 0
M  V30 9500 H 916.557 2.15214 4.34524 0
M  V30 9501 N 917.9 -1.47166 0.563914 0
M  V30 9502 C 919.148 -2.02056 0.0422873 0
M  V30 9503 C 919.469 -1.43992 -1.31497 0
M  V30 9504 O 918.739 -0.617578 -1.85911 0
M  V30 9505 H 917.319 -0.746893 0.0126427 0
M  V30 9506 H 919.981 -1.80492 0.735441 0
M  V30 9507 H 919.077 -3.12073 -0.0408044 0
M  V30 9508 N 919.378 -0.300708 -1.54705 0
M  V30 9509 C 920.624 0.309111 -2.0043 0
M  V30 9510 C 920.957 1.53562 -1.1888 0
M  V30 9511 O 920.232 1.92683 -0.265205 0
M  V30 9512 C 920.515 0.665995 -3.53888 0
M  V30 9513 C 920.368 -0.56963 -4.46178 0
M  V30 9514 C 921.687 1.49262 -4.14016 0
M  V30 9515 H 918.806 0.110878 -0.728612 0
M  V30 9516 H 921.448 -0.412748 -1.85463 0
M  V30 9517 H 919.598 1.281 -3.66773 0
M  V30 9518 H 921.27 -1.20811 -4.45199 0
M  V30 9519 H 919.513 -1.20292 -4.16788 0
M  V30 9520 H 920.184 -0.275785 -5.51311 0
M  V30 9521 H 922.66 0.972979 -4.04564 0
M  V30 9522 H 921.536 1.71111 -5.21548 0
M  V30 9523 H 921.797 2.48174 -3.65872 0
M  V30 9524 N 920.856 1.57574 -0.0284266 0
M  V30 9525 C 922.086 1.95787 0.659617 0
M  V30 9526 C 922.494 0.903475 1.66235 0
M  V30 9527 O 921.837 -0.12329 1.83286 0
M  V30 9528 C 921.899 3.30139 1.42298 0
M  V30 9529 C 921.563 4.53322 0.578658 0
M  V30 9530 C 922.56 5.19696 -0.145751 0
M  V30 9531 C 920.245 4.9964 0.516264 0
M  V30 9532 C 922.239 6.30708 -0.921235 0
M  V30 9533 C 919.926 6.10534 -0.262925 0
M  V30 9534 C 920.924 6.75927 -0.980382 0
M  V30 9535 O 920.612 7.84692 -1.7468 0
M  V30 9536 H 920.344 0.649681 0.186792 0
M  V30 9537 H 922.898 2.05227 -0.0842687 0
M  V30 9538 H 921.128 3.17188 2.21199 0
M  V30 9539 H 922.817 3.53259 1.99906 0
M  V30 9540 H 923.583 4.84882 -0.106876 0
M  V30 9541 H 919.462 4.48547 1.06427 0
M  V30 9542 H 923.006 6.81682 -1.48176 0
M  V30 9543 H 918.903 6.44786 -0.303519 0
M  V30 9544 H 919.671 8.01355 -1.6665 0
M  V30 9545 N 922.334 -0.244713 1.55689 0
M  V30 9546 C 923.582 -0.970525 1.77272 0
M  V30 9547 C 923.903 -1.85771 0.592804 0
M  V30 9548 O 923.173 -1.91952 -0.391323 0
M  V30 9549 H 921.753 -0.361342 0.653789 0
M  V30 9550 H 924.415 -0.262134 1.93129 0
M  V30 9551 H 923.511 -1.59096 2.68505 0
M  V30 9552 N 923.813 -1.49104 -0.510467 0
M  V30 9553 C 924.776 -1.64569 -1.59529 0
M  V30 9554 C 925.776 -0.517937 -1.5223 0
M  V30 9555 O 926.966 -0.784183 -1.55551 0
M  V30 9556 C 924.098 -1.6342 -2.99177 0
M  V30 9557 H 925.291 -2.61318 -1.4715 0
M  V30 9558 H 922.844 -1.37993 -0.734001 0
M  V30 9559 H 923.579 -0.68221 -3.17043 0
M  V30 9560 H 923.364 -2.45312 -3.05883 0
M  V30 9561 H 924.854 -1.77474 -3.78011 0
M  V30 9562 N 925.291 0.760815 -1.38019 0
M  V30 9563 C 926.539 1.51673 -1.33566 0
M  V30 9564 C 926.86 1.94852 0.076024 0
M  V30 9565 O 926.13 1.67112 1.02227 0
M  V30 9566 H 924.71 0.562581 -0.491438 0
M  V30 9567 H 927.372 0.904832 -1.72623 0
M  V30 9568 H 926.468 2.41102 -1.98182 0
M  V30 9569 N 926.769 1.22769 0.988202 0
M  V30 9570 C 927.699 1.02627 2.09738 0
M  V30 9571 C 928.68 -0.0543211 1.70013 0
M  V30 9572 O 929.865 0.108811 1.93895 0
M  V30 9573 C 926.995 0.608302 3.41931 0
M  V30 9574 C 925.949 1.63536 3.95525 0
M  V30 9575 C 925.275 1.07308 5.23822 0
M  V30 9576 C 926.575 3.02649 4.25677 0
M  V30 9577 H 928.269 1.954 2.26847 0
M  V30 9578 H 925.815 0.940888 1.09011 0
M  V30 9579 H 927.768 0.454478 4.18942 0
M  V30 9580 H 926.492 -0.355095 3.24664 0
M  V30 9581 H 925.151 1.77704 3.20651 0
M  V30 9582 H 924.799 0.100894 5.02899 0
M  V30 9583 H 924.499 1.75925 5.60646 0
M  V30 9584 H 926.023 0.930938 6.03462 0
M  V30 9585 H 927.437 2.91828 4.93467 0
M  V30 9586 H 925.834 3.68434 4.73684 0
M  V30 9587 H 926.904 3.52228 3.33262 0
M  V30 9588 N 928.247 -1.18576 1.03814 0
M  V30 9589 C 929.524 -1.8433 0.654358 0
M  V30 9590 C 929.904 -1.92504 -0.866338 0
M  V30 9591 O 929.252 -1.44904 -1.76678 0
M  V30 9592 C 929.462 -3.22778 1.32723 0
M  V30 9593 C 930.81 -3.98841 1.45641 0
M  V30 9594 O 931.834 -3.32209 1.28514 0
M  V30 9595 O 930.693 -5.18219 1.73526 0
M  V30 9596 H 927.787 -0.794766 0.228638 0
M  V30 9597 H 930.333 -1.25989 1.13687 0
M  V30 9598 H 929.105 -3.11717 2.36534 0
M  V30 9599 H 928.728 -3.88772 0.833176 0
M  V30 9600 N 929.725 -0.817259 -1.34754 0
M  V30 9601 C 930.973 -0.401852 -1.98065 0
M  V30 9602 C 931.294 1.03718 -1.65129 0
M  V30 9603 O 930.564 1.71921 -0.939141 0
M  V30 9604 H 929.144 -0.145603 -0.732672 0
M  V30 9605 H 931.806 -1.04545 -1.64488 0
M  V30 9606 H 930.902 -0.516241 -3.07801 0
M  V30 9607 N 931.203 1.46865 -0.571711 0
M  V30 9608 C 932.614 1.86158 -0.142181 0
M  V30 9609 C 932.965 1.47663 1.2919 0
M  V30 9610 O 932.09 0.886393 1.97413 0
M  V30 9611 C 932.685 3.37867 -0.251256 0
M  V30 9612 C 931.244 3.76198 0.123329 0
M  V30 9613 C 930.391 2.70902 -0.592232 0
M  V30 9614 H 933.342 1.38176 -0.780587 0
M  V30 9615 H 933.363 3.76842 0.526331 0
M  V30 9616 H 932.875 3.65853 -1.2951 0
M  V30 9617 H 930.976 3.53829 1.16773 0
M  V30 9618 H 931.089 4.78471 -0.24533 0
M  V30 9619 H 929.453 2.54678 -0.0336927 0
M  V30 9620 H 930.236 3.01729 -1.63751 0
M  V30 9621 N 932.681 0.308908 1.54543 0
M  V30 9622 C 933.958 -0.351558 1.92415 0
M  V30 9623 C 934.338 -1.71061 1.23699 0
M  V30 9624 O 933.686 -2.25394 0.3755 0
M  V30 9625 C 933.896 -0.458357 3.45977 0
M  V30 9626 C 935.244 -0.725524 4.18355 0
M  V30 9627 O 936.268 -0.541859 3.52054 0
M  V30 9628 O 935.127 -1.07884 5.35745 0
M  V30 9629 H 932.221 -0.197957 0.802958 0
M  V30 9630 H 934.767 0.357548 1.65891 0
M  V30 9631 H 933.539 0.496723 3.88134 0
M  V30 9632 H 933.162 -1.21562 3.78561 0
M  V30 9633 N 934.159 -1.57557 0.0367827 0
M  V30 9634 C 935.387 -1.96419 -0.650168 0
M  V30 9635 C 935.802 -0.913656 -1.6522 0
M  V30 9636 O 935.159 0.103718 -1.82205 0
M  V30 9637 C 935.21 -3.35355 -1.3498 0
M  V30 9638 O 934.931 -4.36379 -0.387905 0
M  V30 9639 C 936.432 -3.88892 -2.12786 0
M  V30 9640 H 933.652 -0.646751 -0.178756 0
M  V30 9641 H 936.196 -2.04261 0.0988197 0
M  V30 9642 H 934.351 -3.28708 -2.05012 0
M  V30 9643 H 934.765 -5.16969 -0.885596 0
M  V30 9644 H 936.239 -4.88428 -2.5718 0
M  V30 9645 H 936.716 -3.23547 -2.97008 0
M  V30 9646 H 937.322 -3.98831 -1.47694 0
M  V30 9647 N 935.637 0.236453 -1.55816 0
M  V30 9648 C 936.862 0.98449 -1.82545 0
M  V30 9649 C 937.287 1.77755 -0.615206 0
M  V30 9650 O 936.645 1.75982 0.435895 0
M  V30 9651 C 936.693 1.88973 -3.07118 0
M  V30 9652 O 935.797 2.98298 -2.84766 0
M  V30 9653 H 935.138 0.279577 -0.602273 0
M  V30 9654 H 937.668 0.254277 -2.03014 0
M  V30 9655 H 937.678 2.3024 -3.36829 0
M  V30 9656 H 936.353 1.30671 -3.94839 0
M  V30 9657 H 934.93 2.61085 -2.6625 0
M  V30 9658 N 937.115 1.49373 0.502552 0
M  V30 9659 C 938.025 1.68659 1.63068 0
M  V30 9660 C 939.041 0.569182 1.64427 0
M  V30 9661 O 940.217 0.843695 1.82876 0
M  V30 9662 C 937.282 1.74745 2.99441 0
M  V30 9663 C 936.343 2.98311 3.08721 0
M  V30 9664 C 935.576 3.04097 4.38589 0
M  V30 9665 O 935.799 2.17519 5.27297 0
M  V30 9666 O 934.733 3.96544 4.52809 0
M  V30 9667 H 938.559 2.64226 1.49727 0
M  V30 9668 H 936.144 1.33096 0.67867 0
M  V30 9669 H 938.026 1.8111 3.80496 0
M  V30 9670 H 936.701 0.823565 3.13048 0
M  V30 9671 H 935.608 2.97465 2.2686 0
M  V30 9672 H 936.941 3.90174 3.00041 0
M  V30 9673 N 938.594 -0.753485 1.38421 0
M  V30 9674 C 939.557 -1.84888 1.35459 0
M  V30 9675 C 940.557 -1.58764 0.255083 0
M  V30 9676 O 941.747 -1.66507 0.511978 0
M  V30 9677 C 938.879 -3.22361 1.10888 0
M  V30 9678 H 940.072 -1.88922 2.32913 0
M  V30 9679 H 937.625 -0.955199 1.23716 0
M  V30 9680 H 938.36 -3.23996 0.1404 0
M  V30 9681 H 938.145 -3.42717 1.90492 0
M  V30 9682 H 939.635 -4.02437 1.1151 0
M  V30 9683 N 940.072 -1.23292 -0.981677 0
M  V30 9684 C 941.318 -1.07588 -1.72616 0
M  V30 9685 C 941.673 0.383441 -1.8854 0
M  V30 9686 O 940.966 1.28006 -1.42566 0
M  V30 9687 C 941.16 -1.73339 -3.12551 0
M  V30 9688 C 940.989 -3.25514 -3.10275 0
M  V30 9689 C 939.759 -3.9467 -3.15537 0
M  V30 9690 C 941.957 -4.223 -2.93543 0
M  V30 9691 N 939.939 -5.33839 -3.03133 0
M  V30 9692 C 941.31 -5.48373 -2.89287 0
M  V30 9693 C 943.365 -4.1305 -2.78018 0
M  V30 9694 C 942.068 -6.66258 -2.71095 0
M  V30 9695 C 944.094 -5.30598 -2.6119 0
M  V30 9696 C 943.456 -6.55596 -2.57631 0
M  V30 9697 H 939.555 -0.448215 -0.640802 0
M  V30 9698 H 942.139 -1.56001 -1.16498 0
M  V30 9699 H 940.31 -1.2746 -3.6689 0
M  V30 9700 H 942.042 -1.50624 -3.75626 0
M  V30 9701 H 938.797 -3.45741 -3.23666 0
M  V30 9702 H 939.221 -6.06798 -3.00209 0
M  V30 9703 H 943.863 -3.17184 -2.7956 0
M  V30 9704 H 941.581 -7.62261 -2.68297 0
M  V30 9705 H 945.167 -5.25281 -2.50143 0
M  V30 9706 H 944.047 -7.45021 -2.44772 0
M  V30 9707 N 941.55 1.18024 -1.04442 0
M  V30 9708 C 942.796 1.88377 -0.751133 0
M  V30 9709 C 943.129 1.80377 0.719571 0
M  V30 9710 O 942.404 1.20662 1.52548 0
M  V30 9711 C 942.687 3.38708 -1.22265 0
M  V30 9712 C 942.54 3.55499 -2.75574 0
M  V30 9713 C 943.859 4.32475 -0.815688 0
M  V30 9714 H 940.978 0.684037 -0.27434 0
M  V30 9715 H 943.62 1.38837 -1.29709 0
M  V30 9716 H 941.77 3.8103 -0.758192 0
M  V30 9717 H 943.442 3.22244 -3.30086 0
M  V30 9718 H 941.685 2.98028 -3.15217 0
M  V30 9719 H 942.356 4.60994 -3.03625 0
M  V30 9720 H 944.832 3.97953 -1.21542 0
M  V30 9721 H 943.708 5.36213 -1.17331 0
M  V30 9722 H 943.969 4.41207 0.280901 0
M  V30 9723 N 943.028 0.824394 1.34319 0
M  V30 9724 C 943.938 0.24932 2.33271 0
M  V30 9725 C 944.954 -0.617066 1.62691 0
M  V30 9726 O 946.13 -0.524616 1.94447 0
M  V30 9727 C 943.195 -0.578094 3.41846 0
M  V30 9728 C 942.256 0.310866 4.28173 0
M  V30 9729 C 941.489 -0.477153 5.31563 0
M  V30 9730 O 941.712 -1.71028 5.44156 0
M  V30 9731 O 940.646 0.141287 6.01734 0
M  V30 9732 H 944.472 1.06837 2.84288 0
M  V30 9733 H 942.057 0.58657 1.37403 0
M  V30 9734 H 943.939 -1.04878 4.0814 0
M  V30 9735 H 942.614 -1.37444 2.93071 0
M  V30 9736 H 941.521 0.829081 3.64797 0
M  V30 9737 H 942.854 1.07161 4.80393 0
M  V30 9738 N 944.506 -1.46559 0.579492 0
M  V30 9739 C 945.436 -2.33059 -0.143437 0
M  V30 9740 C 946.417 -1.4515 -0.886868 0
M  V30 9741 O 947.602 -1.73973 -0.862961 0
M  V30 9742 C 944.732 -3.27364 -1.15973 0
M  V30 9743 C 943.686 -4.24689 -0.531348 0
M  V30 9744 C 943.012 -5.08479 -1.65388 0
M  V30 9745 C 944.312 -5.1961 0.529391 0
M  V30 9746 H 946.006 -2.93753 0.578762 0
M  V30 9747 H 943.552 -1.41256 0.279775 0
M  V30 9748 H 945.505 -3.86732 -1.67382 0
M  V30 9749 H 944.229 -2.64771 -1.91217 0
M  V30 9750 H 942.888 -3.6658 -0.0383749 0
M  V30 9751 H 942.536 -4.42273 -2.3959 0
M  V30 9752 H 942.236 -5.74387 -1.23909 0
M  V30 9753 H 943.76 -5.70709 -2.17079 0
M  V30 9754 H 945.174 -5.73212 0.100506 0
M  V30 9755 H 943.571 -5.93843 0.86432 0
M  V30 9756 H 944.641 -4.63737 1.4169 0
M  V30 9757 N 945.984 -0.3171 -1.54377 0
M  V30 9758 C 946.932 0.567371 -2.25574 0
M  V30 9759 C 947.926 1.12387 -1.2675 0
M  V30 9760 O 949.132 1.07266 -1.44548 0
M  V30 9761 H 945.507 0.201605 -0.724472 0
M  V30 9762 H 947.478 -0.0554644 -2.98348 0
M  V30 9763 C 946.227 1.71984 -3.02187 0
M  V30 9764 H 945.55 1.30086 -3.78044 0
M  V30 9765 H 946.99 2.31443 -3.5526 0
M  V30 9766 C 945.449 2.6336 -2.10103 0
M  V30 9767 O 945.979 3.64899 -1.67962 0
M  V30 9768 N 944.185 2.3145 -1.75725 0
M  V30 9769 H 943.732 1.48921 -2.10191 0
M  V30 9770 H 943.69 2.92852 -1.14391 0
M  V30 9771 N 947.462 1.57535 -0.0451378 0
M  V30 9772 C 948.739 1.83785 0.669523 0
M  V30 9773 C 949.119 0.932331 1.89396 0
M  V30 9774 O 948.467 -0.00813229 2.28499 0
M  V30 9775 C 948.677 3.33376 1.03255 0
M  V30 9776 C 950.025 4.00243 1.41741 0
M  V30 9777 O 951.049 3.37965 1.12507 0
M  V30 9778 O 949.908 5.10038 1.96275 0
M  V30 9779 H 947.002 0.758342 0.329919 0
M  V30 9780 H 949.548 1.69538 -0.0740415 0
M  V30 9781 H 948.32 3.90965 0.161777 0
M  V30 9782 H 947.943 3.52787 1.83376 0
M  V30 9783 N 948.94 -0.228186 1.55939 0
M  V30 9784 C 950.217 -0.977492 1.69424 0
M  V30 9785 C 950.597 -2.02674 0.590479 0
M  V30 9786 O 949.945 -2.2491 -0.403467 0
M  V30 9787 C 950.155 -1.59394 3.10475 0
M  V30 9788 C 951.503 -2.08871 3.69673 0
M  V30 9789 O 952.527 -1.693 3.13394 0
M  V30 9790 O 951.386 -2.81584 4.68372 0
M  V30 9791 H 948.48 -0.456185 0.6898 0
M  V30 9792 H 951.026 -0.220492 1.68261 0
M  V30 9793 H 949.798 -0.835971 3.82266 0
M  V30 9794 H 949.421 -2.41665 3.15727 0
M  V30 9795 N 950.418 -1.49637 -0.494624 0
M  V30 9796 C 951.666 -1.5913 -1.24587 0
M  V30 9797 C 951.987 -0.282828 -1.92938 0
M  V30 9798 O 951.257 0.69825 -1.83034 0
M  V30 9799 H 949.837 -0.586329 -0.462847 0
M  V30 9800 H 952.499 -1.86296 -0.572696 0
M  V30 9801 H 951.595 -2.3906 -2.00641 0
M  V30 9802 N 951.896 0.746133 -1.38819 0
M  V30 9803 C 953.121 1.54049 -1.38866 0
M  V30 9804 C 953.546 1.88092 0.0176624 0
M  V30 9805 O 952.904 1.51113 1.00173 0
M  V30 9806 C 952.952 2.8116 -2.25791 0
M  V30 9807 O 952.056 3.76623 -1.68014 0
M  V30 9808 H 951.397 0.465648 -0.473359 0
M  V30 9809 H 953.927 0.921469 -1.82675 0
M  V30 9810 H 953.937 3.30009 -2.39913 0
M  V30 9811 H 952.612 2.55713 -3.27999 0
M  V30 9812 H 951.189 3.35352 -1.63074 0
M  V30 9813 N 953.375 1.23811 0.975125 0
M  V30 9814 C 954.621 1.07495 1.71967 0
M  V30 9815 C 954.954 -0.386451 1.90316 0
M  V30 9816 O 954.229 -1.28591 1.45927 0
M  V30 9817 C 954.512 1.80694 3.11483 0
M  V30 9818 C 954.365 3.3454 3.00671 0
M  V30 9819 C 955.684 1.57367 4.11003 0
M  V30 9820 H 952.803 0.3919 0.624166 0
M  V30 9821 H 955.445 1.52383 1.13487 0
M  V30 9822 H 953.595 1.42538 3.61407 0
M  V30 9823 H 955.267 3.8225 2.5823 0
M  V30 9824 H 953.51 3.63301 2.37054 0
M  V30 9825 H 954.181 3.80951 3.99475 0
M  V30 9826 H 956.657 1.90545 3.69908 0
M  V30 9827 H 955.533 2.11052 5.06703 0
M  V30 9828 H 955.794 0.510221 4.39146 0
M  V30 9829 N 954.853 -1.17469 1.05066 0
M  V30 9830 C 956.081 -1.9162 0.780334 0
M  V30 9831 C 956.496 -1.76745 -0.663817 0
M  V30 9832 O 955.853 -1.10377 -1.45338 0
M  V30 9833 C 955.904 -3.42723 1.14992 0
M  V30 9834 O 955.625 -3.57139 2.53739 0
M  V30 9835 C 957.126 -4.33952 0.905549 0
M  V30 9836 H 954.346 -0.608022 0.283814 0
M  V30 9837 H 956.89 -1.4897 1.401 0
M  V30 9838 H 955.045 -3.83124 0.57403 0
M  V30 9839 H 955.459 -4.5075 2.68189 0
M  V30 9840 H 956.933 -5.38487 1.21391 0
M  V30 9841 H 957.41 -4.38911 -0.159295 0
M  V30 9842 H 958.016 -3.99263 1.46522 0
M  V30 9843 N 956.331 -0.831506 -1.3388 0
M  V30 9844 C 957.261 -0.274378 -2.31882 0
M  V30 9845 C 958.242 0.613872 -1.58637 0
M  V30 9846 O 959.427 0.538961 -1.86571 0
M  V30 9847 C 956.557 0.557498 -3.42796 0
M  V30 9848 C 955.511 -0.234337 -4.27358 0
M  V30 9849 C 954.837 0.720825 -5.29819 0
M  V30 9850 C 956.137 -1.44732 -5.01847 0
M  V30 9851 H 957.831 -1.09322 -2.78728 0
M  V30 9852 H 955.377 -0.527136 -1.34005 0
M  V30 9853 H 957.33 0.957501 -4.10378 0
M  V30 9854 H 956.054 1.40947 -2.94621 0
M  V30 9855 H 954.713 -0.61581 -3.61391 0
M  V30 9856 H 954.361 1.569 -4.77903 0
M  V30 9857 H 954.061 0.195171 -5.87276 0
M  V30 9858 H 955.585 1.1185 -6.00268 0
M  V30 9859 H 956.999 -1.12087 -5.62236 0
M  V30 9860 H 955.396 -1.90923 -5.68919 0
M  V30 9861 H 956.466 -2.22099 -4.31045 0
M  V30 9862 N 957.809 1.4625 -0.587256 0
M  V30 9863 C 959.057 2.01963 -0.0744273 0
M  V30 9864 C 959.378 1.46065 1.29189 0
M  V30 9865 O 958.648 0.647077 1.84905 0
M  V30 9866 H 957.228 0.746597 -0.0245236 0
M  V30 9867 H 959.89 1.79299 -0.764063 0
M  V30 9868 H 958.986 3.12099 -0.00884894 0
M  V30 9869 N 959.287 0.325282 1.54207 0
M  V30 9870 C 960.235 -0.5554 2.25872 0
M  V30 9871 C 961.229 -1.11714 1.27344 0
M  V30 9872 O 962.435 -1.06498 1.45115 0
M  V30 9873 H 958.81 -0.19776 0.725531 0
M  V30 9874 H 960.781 0.0712858 2.98315 0
M  V30 9875 C 959.53 -1.70379 3.03095 0
M  V30 9876 H 958.853 -1.2808 3.78729 0
M  V30 9877 H 960.293 -2.29556 3.56483 0
M  V30 9878 C 958.752 -2.62242 2.11496 0
M  V30 9879 O 959.282 -3.64003 1.69895 0
M  V30 9880 N 957.488 -2.30515 1.7695 0
M  V30 9881 H 957.035 -1.47805 2.10978 0
M  V30 9882 H 956.993 -2.92241 1.15942 0
M  V30 9883 N 960.765 -1.57509 0.0534917 0
M  V30 9884 C 961.99 -1.97511 -0.632794 0
M  V30 9885 C 962.415 -0.930947 -1.63447 0
M  V30 9886 O 961.773 0.105558 -1.80992 0
M  V30 9887 C 961.821 -3.3658 -1.29407 0
M  V30 9888 O 960.925 -3.3467 -2.40977 0
M  V30 9889 H 960.266 -0.643349 -0.16431 0
M  V30 9890 H 962.796 -2.04232 0.12258 0
M  V30 9891 H 962.806 -3.73359 -1.64521 0
M  V30 9892 H 961.481 -4.12113 -0.559976 0
M  V30 9893 H 960.058 -3.09639 -2.07793 0
M  V30 9894 N 962.243 0.219913 -1.56058 0
M  V30 9895 C 963.489 0.941055 -1.80321 0
M  V30 9896 C 963.844 1.81906 -0.626735 0
M  V30 9897 O 963.137 1.87811 0.379147 0
M  V30 9898 C 963.331 1.81293 -3.08006 0
M  V30 9899 C 963.16 1.02082 -4.37961 0
M  V30 9900 C 961.93 0.715096 -5.00214 0
M  V30 9901 C 964.128 0.385342 -5.12854 0
M  V30 9902 N 962.11 -0.098246 -6.13821 0
M  V30 9903 C 963.481 -0.291319 -6.19315 0
M  V30 9904 C 965.536 0.29854 -4.97004 0
M  V30 9905 C 964.239 -1.04648 -7.11647 0
M  V30 9906 C 966.265 -0.443159 -5.89737 0
M  V30 9907 C 965.627 -1.10836 -6.95625 0
M  V30 9908 H 961.726 0.324568 -0.711463 0
M  V30 9909 H 964.31 0.211795 -1.93545 0
M  V30 9910 H 962.481 2.51399 -2.96063 0
M  V30 9911 H 964.213 2.47167 -3.20454 0
M  V30 9912 H 960.968 1.03352 -4.62185 0
M  V30 9913 H 961.392 -0.4938 -6.75197 0
M  V30 9914 H 966.034 0.798478 -4.15192 0
M  V30 9915 H 963.752 -1.55793 -7.9294 0
M  V30 9916 H 967.338 -0.511348 -5.79549 0
M  V30 9917 H 966.218 -1.6731 -7.66144 0
M  V30 9918 N 963.721 1.49897 0.486681 0
M  V30 9919 C 964.631 1.70379 1.6127 0
M  V30 9920 C 965.647 0.58659 1.63814 0
M  V30 9921 O 966.823 0.863044 1.81971 0
M  V30 9922 C 963.888 1.77911 2.97571 0
M  V30 9923 C 962.949 3.01569 3.0554 0
M  V30 9924 C 962.182 3.08732 4.35339 0
M  V30 9925 O 962.405 2.23099 5.2496 0
M  V30 9926 O 961.339 4.01325 4.48578 0
M  V30 9927 H 965.165 2.65799 1.46916 0
M  V30 9928 H 962.75 1.33808 0.664516 0
M  V30 9929 H 964.632 1.85135 3.78554 0
M  V30 9930 H 963.307 0.856722 3.12157 0
M  V30 9931 H 962.214 2.99854 2.23693 0
M  V30 9932 H 963.547 3.93335 2.95886 0
M  V30 9933 N 965.199 -0.738761 1.39212 0
M  V30 9934 C 966.476 -1.48982 1.26742 0
M  V30 9935 C 966.856 -2.10732 -0.12466 0
M  V30 9936 O 966.204 -1.98287 -1.13554 0
M  V30 9937 C 966.414 -2.54427 2.38889 0
M  V30 9938 C 967.762 -3.20915 2.78027 0
M  V30 9939 O 968.786 -2.64738 2.38311 0
M  V30 9940 O 967.645 -4.22558 3.46565 0
M  V30 9941 H 964.739 -0.661395 0.496473 0
M  V30 9942 H 967.285 -0.772907 1.51077 0
M  V30 9943 H 966.057 -2.07151 3.3197 0
M  V30 9944 H 965.68 -3.33682 2.162 0
M  V30 9945 N 966.677 -1.24326 -0.968545 0
M  V30 9946 C 967.627 -1.00191 -2.04807 0
M  V30 9947 C 968.611 0.0563524 -1.60801 0
M  V30 9948 O 969.803 -0.157268 -1.763 0
M  V30 9949 C 966.932 -0.607749 -3.37878 0
M  V30 9950 C 966.018 -1.70204 -3.88447 0
M  V30 9951 N 966.409 -2.93463 -4.11962 0
M  V30 9952 C 964.707 -1.57936 -4.171 0
M  V30 9953 C 965.408 -3.64397 -4.5342 0
M  V30 9954 N 964.384 -2.91956 -4.58544 0
M  V30 9955 H 968.186 -1.93786 -2.20962 0
M  V30 9956 H 965.7 -1.1444 -1.15227 0
M  V30 9957 H 967.697 -0.416079 -4.14819 0
M  V30 9958 H 966.357 0.321026 -3.23109 0
M  V30 9959 H 967.368 -3.2965 -3.99438 0
M  V30 9960 H 964.045 -0.718552 -4.1127 0
M  V30 9961 H 965.435 -4.70125 -4.80034 0
M  V30 9962 N 968.156 1.1691 -1.05688 0
M  V30 9963 C 969.404 1.86922 -0.768409 0
M  V30 9964 C 969.725 1.81735 0.706921 0
M  V30 9965 O 968.995 1.24671 1.51109 0
M  V30 9966 H 967.575 0.69203 -0.281253 0
M  V30 9967 H 970.237 1.41803 -1.33708 0
M  V30 9968 H 969.333 2.92528 -1.08783 0
M  V30 9969 N 969.634 0.838594 1.33437 0
M  V30 9970 C 970.566 0.229006 2.28053 0
M  V30 9971 C 971.579 -0.590103 1.51729 0
M  V30 9972 O 972.768 -0.417218 1.73556 0
M  V30 9973 C 969.868 -0.696251 3.31671 0
M  V30 9974 C 969.041 0.0834606 4.3732 0
M  V30 9975 C 968.1 -0.765097 5.20608 0
M  V30 9976 O 967.126 -0.2044 5.68833 0
M  V30 9977 N 968.328 -2.08249 5.4186 0
M  V30 9978 H 971.093 1.04196 2.81004 0
M  V30 9979 H 968.654 0.697031 1.46127 0
M  V30 9980 H 970.646 -1.26889 3.84293 0
M  V30 9981 H 969.216 -1.40992 2.78998 0
M  V30 9982 H 968.436 0.837481 3.85201 0
M  V30 9983 H 969.724 0.619613 5.05013 0
M  V30 9984 H 969.122 -2.56156 5.04381 0
M  V30 9985 H 967.679 -2.60362 5.97541 0
M  V30 9986 N 971.112 -1.45937 0.595003 0
M  V30 9987 C 972.36 -2.01921 0.0851368 0
M  V30 9988 C 972.681 -1.46748 -1.28413 0
M  V30 9989 O 971.951 -0.656873 -1.84559 0
M  V30 9990 H 970.531 -0.746457 0.0284826 0
M  V30 9991 H 973.193 -1.78891 0.773561 0
M  V30 9992 H 972.289 -3.1209 0.0254002 0
M  V30 9993 N 972.59 -0.333456 -1.54032 0
M  V30 9994 C 973.553 0.515392 -2.2333 0
M  V30 9995 C 974.553 1.03566 -1.23007 0
M  V30 9996 O 975.743 0.926514 -1.47517 0
M  V30 9997 C 972.875 1.7169 -2.94508 0
M  V30 9998 H 974.068 -0.0905407 -2.99763 0
M  V30 9999 H 971.621 -0.0846651 -1.56071 0
M  V30 10000 H 972.356 2.3618 -2.22237 0
M  V30 10001 H 972.141 1.35115 -3.68085 0
M  V30 10002 H 973.631 2.31922 -3.47278 0
M  V30 10003 N 974.068 1.57479 -0.061844 0
M  V30 10004 C 975.345 1.84484 0.649993 0
M  V30 10005 C 975.725 0.952366 1.88396 0
M  V30 10006 O 975.073 0.0161035 2.28494 0
M  V30 10007 C 975.283 3.34452 0.997133 0
M  V30 10008 C 976.631 4.01724 1.37488 0
M  V30 10009 O 977.655 3.3914 1.08916 0
M  V30 10010 O 976.514 5.12091 1.90854 0
M  V30 10011 H 973.608 0.761798 0.321858 0
M  V30 10012 H 976.154 1.6945 -0.0920192 0
M  V30 10013 H 974.926 3.91115 0.120301 0
M  V30 10014 H 974.549 3.54713 1.79624 0
M  V30 10015 N 975.546 -0.211634 1.56173 0
M  V30 10016 C 976.509 -1.24588 1.92381 0
M  V30 10017 C 977.509 -1.39297 0.803311 0
M  V30 10018 O 978.699 -1.37392 1.07094 0
M  V30 10019 C 975.831 -2.61807 2.18335 0
M  V30 10020 H 977.024 -0.936814 2.84893 0
M  V30 10021 H 974.577 -0.452471 1.49607 0
M  V30 10022 H 975.312 -2.97795 1.28407 0
M  V30 10023 H 975.097 -2.52506 2.99972 0
M  V30 10024 H 976.587 -3.3642 2.4741 0
M  V30 10025 N 977.024 -1.50153 -0.478725 0
M  V30 10026 C 978.272 -1.60443 -1.22892 0
M  V30 10027 C 978.593 -0.303276 -1.92627 0
M  V30 10028 O 977.863 0.678798 -1.83764 0
M  V30 10029 H 976.443 -0.591205 -0.456602 0
M  V30 10030 H 979.105 -1.86893 -0.552905 0
M  V30 10031 H 978.201 -2.41175 -1.98094 0
M  V30 10032 N 978.502 0.731368 -1.39602 0
M  V30 10033 C 979.727 1.52567 -1.40492 0
M  V30 10034 C 980.152 1.881 -0.00228828 0
M  V30 10035 O 979.51 1.52167 0.985643 0
M  V30 10036 C 979.558 2.78749 -2.2876 0
M  V30 10037 O 978.662 3.7482 -1.71999 0
M  V30 10038 H 978.003 0.460601 -0.478271 0
M  V30 10039 H 980.533 0.902042 -1.83642 0
M  V30 10040 H 980.543 3.27446 -2.43399 0
M  V30 10041 H 979.218 2.5222 -3.30693 0
M  V30 10042 H 977.795 3.33604 -1.66622 0
M  V30 10043 N 979.98 1.24838 0.961938 0
M  V30 10044 C 980.91 1.07053 2.07514 0
M  V30 10045 C 981.891 -0.0182465 1.7009 0
M  V30 10046 O 983.076 0.149915 1.9362 0
M  V30 10047 C 980.206 0.680693 3.40564 0
M  V30 10048 C 979.16 1.71889 3.91967 0
M  V30 10049 C 978.486 1.18395 5.21428 0
M  V30 10050 C 979.786 3.1161 4.19161 0
M  V30 10051 H 981.48 2.00167 2.22651 0
M  V30 10052 H 979.026 0.963799 1.0699 0
M  V30 10053 H 980.979 0.54324 4.17884 0
M  V30 10054 H 979.703 -0.28615 3.25344 0
M  V30 10055 H 978.362 1.84465 3.16809 0
M  V30 10056 H 978.01 0.207543 5.02572 0
M  V30 10057 H 977.71 1.87778 5.56788 0
M  V30 10058 H 979.234 1.05873 6.01351 0
M  V30 10059 H 980.648 3.0223 4.87165 0
M  V30 10060 H 979.045 3.78398 4.65763 0
M  V30 10061 H 980.115 3.59218 3.25715 0
M  V30 10062 N 981.458 -1.16348 1.06306 0
M  V30 10063 C 982.706 -1.86512 0.778311 0
M  V30 10064 C 983.027 -1.82107 -0.697273 0
M  V30 10065 O 982.297 -1.2547 -1.50446 0
M  V30 10066 H 980.877 -0.690529 0.284919 0
M  V30 10067 H 983.539 -1.41092 1.34458 0
M  V30 10068 H 982.635 -2.91947 1.10333 0
M  V30 10069 N 982.937 -0.845659 -1.3299 0
M  V30 10070 C 984.165 -0.45835 -2.01759 0
M  V30 10071 C 984.58 0.94239 -1.63598 0
M  V30 10072 O 983.937 1.61353 -0.852738 0
M  V30 10073 C 983.988 -0.577311 -3.5686 0
M  V30 10074 O 983.709 -1.92287 -3.93646 0
M  V30 10075 C 985.21 -0.187839 -4.42902 0
M  V30 10076 H 982.43 -0.181165 -0.646081 0
M  V30 10077 H 984.974 -1.14011 -1.6977 0
M  V30 10078 H 983.129 0.0566146 -3.87359 0
M  V30 10079 H 983.543 -1.91322 -4.88361 0
M  V30 10080 H 985.017 -0.322105 -5.51059 0
M  V30 10081 H 985.494 0.870896 -4.30479 0
M  V30 10082 H 986.1 -0.796473 -4.17776 0
M  V30 10083 N 984.415 1.45619 -0.602734 0
M  V30 10084 C 985.378 2.28941 0.108962 0
M  V30 10085 C 986.378 1.39501 0.799762 0
M  V30 10086 O 987.568 1.61673 0.648663 0
M  V30 10087 C 984.7 3.204 1.16432 0
M  V30 10088 H 985.893 2.93346 -0.623534 0
M  V30 10089 H 983.446 1.52061 -0.361565 0
M  V30 10090 H 984.181 2.60785 1.92774 0
M  V30 10091 H 983.966 3.86277 0.673248 0
M  V30 10092 H 985.456 3.83063 1.6629 0
M  V30 10093 N 985.893 0.34162 1.53853 0
M  V30 10094 C 986.843 -0.531995 2.21707 0
M  V30 10095 C 987.827 -1.06759 1.2038 0
M  V30 10096 O 989.019 -1.00161 1.45934 0
M  V30 10097 C 986.148 -1.6834 2.99193 0
M  V30 10098 C 985.234 -1.16184 4.07875 0
M  V30 10099 N 985.625 -0.361348 5.04508 0
M  V30 10100 C 983.923 -1.43891 4.22151 0
M  V30 10101 C 984.624 -0.0785378 5.81647 0
M  V30 10102 N 983.6 -0.669651 5.3946 0
M  V30 10103 H 987.402 0.0866825 2.93772 0
M  V30 10104 H 984.916 0.148386 1.61721 0
M  V30 10105 H 986.913 -2.32121 3.46303 0
M  V30 10106 H 985.573 -2.30538 2.28653 0
M  V30 10107 H 986.584 -0.00259906 5.179 0
M  V30 10108 H 983.261 -2.06542 3.62832 0
M  V30 10109 H 984.651 0.567068 6.69503 0
M  V30 10110 N 987.371 -1.57444 0.0701946 0
M  V30 10111 C 988.281 -2.16132 -0.912377 0
M  V30 10112 C 989.297 -1.12406 -1.32819 0
M  V30 10113 O 990.473 -1.44665 -1.40121 0
M  V30 10114 C 987.538 -2.71008 -2.16231 0
M  V30 10115 C 986.599 -3.896 -1.80306 0
M  V30 10116 C 985.832 -4.4185 -2.9934 0
M  V30 10117 O 986.055 -3.93106 -4.13309 0
M  V30 10118 O 984.989 -5.33201 -2.7925 0
M  V30 10119 H 988.815 -3.00449 -0.443167 0
M  V30 10120 H 986.4 -1.48617 -0.152786 0
M  V30 10121 H 988.282 -3.06186 -2.8953 0
M  V30 10122 H 986.957 -1.8975 -2.62253 0
M  V30 10123 H 985.864 -3.59277 -1.04264 0
M  V30 10124 H 987.197 -4.72145 -1.39068 0
M  V30 10125 N 988.849 0.203349 -1.56283 0
M  V30 10126 C 989.812 1.23566 -1.93039 0
M  V30 10127 C 990.812 1.38869 -0.810687 0
M  V30 10128 O 992.002 1.36822 -1.07821 0
M  V30 10129 C 989.134 2.60645 -2.1972 0
M  V30 10130 H 990.327 0.921692 -2.85385 0
M  V30 10131 H 987.88 0.44453 -1.49845 0
M  V30 10132 H 988.615 2.9711 -1.29985 0
M  V30 10133 H 988.4 2.50911 -3.01307 0
M  V30 10134 H 989.89 3.35103 -2.4919 0
M  V30 10135 N 990.327 1.50405 0.470755 0
M  V30 10136 C 991.257 1.72222 1.57676 0
M  V30 10137 C 992.238 0.57121 1.60222 0
M  V30 10138 O 993.423 0.810381 1.76484 0
M  V30 10139 C 990.553 1.81666 2.95998 0
M  V30 10140 C 989.507 2.96857 3.08318 0
M  V30 10141 C 988.833 2.91445 4.4829 0
M  V30 10142 C 990.133 4.37361 2.85504 0
M  V30 10143 H 991.827 2.64825 1.39671 0
M  V30 10144 H 989.373 1.27438 0.67049 0
M  V30 10145 H 991.326 1.95514 3.73299 0
M  V30 10146 H 990.05 0.856856 3.1516 0
M  V30 10147 H 988.709 2.82661 2.33449 0
M  V30 10148 H 988.357 1.93309 4.64371 0
M  V30 10149 H 988.057 3.68776 4.57469 0
M  V30 10150 H 989.581 3.07341 5.27611 0
M  V30 10151 H 990.995 4.52081 3.52555 0
M  V30 10152 H 989.392 5.16145 3.06127 0
M  V30 10153 H 990.462 4.49708 1.81359 0
M  V30 10154 N 991.805 -0.723954 1.39988 0
M  V30 10155 C 993.221 -1.03095 1.21834 0
M  V30 10156 C 993.421 -2.01309 0.0876647 0
M  V30 10157 O 992.477 -2.46277 -0.55714 0
M  V30 10158 C 993.79 -1.58267 2.5568 0
M  V30 10159 C 995.338 -1.70293 2.6262 0
M  V30 10160 C 995.813 -2.28872 3.96713 0
M  V30 10161 N 997.304 -2.36269 3.98411 0
M  V30 10162 C 998.039 -2.82557 4.98948 0
M  V30 10163 N 997.535 -3.28661 6.0988 0
M  V30 10164 N 999.328 -2.81866 4.86321 0
M  V30 10165 H 991.479 -0.0727891 2.12275 0
M  V30 10166 H 993.742 -0.0949029 0.943238 0
M  V30 10167 H 993.448 -0.935642 3.39026 0
M  V30 10168 H 993.322 -2.56914 2.76179 0
M  V30 10169 H 995.709 -2.34115 1.7965 0
M  V30 10170 H 995.79 -0.70268 2.45959 0
M  V30 10171 H 995.434 -1.65675 4.80119 0
M  V30 10172 H 995.364 -3.29595 4.107 0
M  V30 10173 H 997.855 -2.03697 3.18302 0
M  V30 10174 H 998.168 -3.62524 6.82493 0
M  V30 10175 H 996.513 -3.26641 6.13458 0
M  V30 10176 H 999.704 -2.45179 3.98754 0
M  V30 10177 H 999.877 -3.17626 5.64817 0
M  V30 10178 N 993.283 -1.25346 -0.955304 0
M  V30 10179 C 994.694 -1.09173 -1.51453 0
M  V30 10180 C 995.045 0.332755 -1.93358 0
M  V30 10181 O 994.17 1.22264 -1.78551 0
M  V30 10182 C 994.765 -1.97564 -2.75234 0
M  V30 10183 C 993.324 -1.85579 -3.27471 0
M  V30 10184 C 992.471 -1.91755 -2.00313 0
M  V30 10185 H 995.422 -1.38642 -0.772271 0
M  V30 10186 H 995.443 -1.51523 -3.49029 0
M  V30 10187 H 994.955 -3.01233 -2.44704 0
M  V30 10188 H 993.056 -0.847906 -3.62824 0
M  V30 10189 H 993.169 -2.70353 -3.95533 0
M  V30 10190 H 991.533 -1.35633 -2.15582 0
M  V30 10191 H 992.316 -2.97028 -1.72132 0
M  V30 10192 N 994.761 1.15782 -1.06922 0
M  V30 10193 C 995.691 2.22538 -0.707045 0
M  V30 10194 C 996.672 1.67371 0.303471 0
M  V30 10195 O 997.857 1.9339 0.177189 0
M  V30 10196 C 994.987 3.47158 -0.0994269 0
M  V30 10197 C 993.941 4.15257 -1.03661 0
M  V30 10198 C 993.267 5.33902 -0.291974 0
M  V30 10199 C 994.567 4.65516 -2.36837 0
M  V30 10200 H 996.261 2.53089 -1.59958 0
M  V30 10201 H 993.807 1.21649 -0.770552 0
M  V30 10202 H 995.76 4.21073 0.165852 0
M  V30 10203 H 994.484 3.15926 0.828155 0
M  V30 10204 H 993.143 3.43276 -1.28674 0
M  V30 10205 H 992.791 4.98926 0.638928 0
M  V30 10206 H 992.491 5.80407 -0.916613 0
M  V30 10207 H 994.015 6.1059 -0.0343915 0
M  V30 10208 H 995.429 5.30981 -2.16175 0
M  V30 10209 H 993.826 5.22666 -2.94856 0
M  V30 10210 H 994.896 3.81387 -2.99453 0
M  V30 10211 N 996.239 0.8527 1.3254 0
M  V30 10212 C 997.487 0.454224 1.96929 0
M  V30 10213 C 997.808 -0.993034 1.67821 0
M  V30 10214 O 997.078 -1.69371 0.984393 0
M  V30 10215 H 995.658 0.164977 0.728554 0
M  V30 10216 H 998.32 1.0887 1.61658 0
M  V30 10217 H 997.416 0.597667 3.06324 0
M  V30 10218 N 997.718 -1.45297 0.610449 0
M  V30 10219 C 998.967 -2.0143 0.104323 0
M  V30 10220 C 999.28 -1.48431 -1.27388 0
M  V30 10221 O 1000.49 -1.96558 -1.87289 0
M  V30 10222 C 998.942 -3.59644 0.135812 0
M  V30 10223 C 998.55 -4.2164 1.51405 0
M  V30 10224 C 1000.29 -4.2333 -0.314922 0
M  V30 10225 C 998.201 -5.72015 1.50176 0
M  V30 10226 H 997.131 -0.753176 0.035233 0
M  V30 10227 H 999.782 -1.66738 0.7662 0
M  V30 10228 H 998.164 -3.91538 -0.592773 0
M  V30 10229 H 999.338 -4.01315 2.26457 0
M  V30 10230 H 997.653 -3.70159 1.90712 0
M  V30 10231 H 1000.25 -5.33597 -0.343335 0
M  V30 10232 H 1000.59 -3.94206 -1.33817 0
M  V30 10233 H 1001.13 -3.96163 0.360489 0
M  V30 10234 H 997.865 -6.05842 2.50271 0
M  V30 10235 H 997.385 -5.94523 0.793869 0
M  V30 10236 H 999.064 -6.35266 1.22665 0
M  V30 10237 N 999.196 -0.349774 -1.5367 0
M  V30 10238 C 1000.42 0.246038 -2.05432 0
M  V30 10239 C 1000.84 1.43719 -1.22435 0
M  V30 10240 O 1000.2 1.80622 -0.261166 0
M  V30 10241 C 1000.25 0.65501 -3.55516 0
M  V30 10242 O 999.968 -0.488782 -4.35365 0
M  V30 10243 C 1001.47 1.31088 -4.23475 0
M  V30 10244 H 998.689 0.0463952 -0.669394 0
M  V30 10245 H 1001.23 -0.503566 -1.98203 0
M  V30 10246 H 999.388 1.35455 -3.62947 0
M  V30 10247 H 999.802 -0.161528 -5.24251 0
M  V30 10248 H 1001.28 1.54774 -5.29857 0
M  V30 10249 H 1001.75 2.26636 -3.76208 0
M  V30 10250 H 1002.36 0.653211 -4.20254 0
M  V30 10251 N 1000.67 1.57404 -0.0785433 0
M  V30 10252 C 1002.08 1.81118 0.45311 0
M  V30 10253 C 1002.44 0.992963 1.69218 0
M  V30 10254 O 1001.56 0.217448 2.15305 0
M  V30 10255 C 1002.16 3.28506 0.82882 0
M  V30 10256 C 1000.71 3.53042 1.3053 0
M  V30 10257 C 999.862 2.75739 0.29378 0
M  V30 10258 H 1002.81 1.55758 -0.304171 0
M  V30 10259 H 1002.83 3.40924 1.68971 0
M  V30 10260 H 1002.35 3.88031 -0.0731826 0
M  V30 10261 H 1000.45 2.98829 2.22558 0
M  V30 10262 H 1000.56 4.61724 1.27857 0
M  V30 10263 H 998.924 2.42703 0.772477 0
M  V30 10264 H 999.707 3.38005 -0.600613 0
M  V30 10265 N 1002.15 -0.195058 1.56388 0
M  V30 10266 C 1003.06 -1.26219 1.97752 0
M  V30 10267 C 1004.08 -1.49801 0.885192 0
M  V30 10268 O 1005.25 -1.62415 1.19094 0
M  V30 10269 C 1002.32 -2.5865 2.3087 0
M  V30 10270 C 1001.38 -2.4314 3.5381 0
M  V30 10271 C 1000.61 -3.69255 3.85339 0
M  V30 10272 O 1000.84 -4.73425 3.18159 0
M  V30 10273 O 999.77 -3.64782 4.78767 0
M  V30 10274 H 1003.6 -0.941161 2.88749 0
M  V30 10275 H 1001.18 -0.40006 1.43944 0
M  V30 10276 H 1003.06 -3.36814 2.53247 0
M  V30 10277 H 1001.74 -2.9038 1.43042 0
M  V30 10278 H 1000.64 -1.63086 3.3668 0
M  V30 10279 H 1001.98 -2.16341 4.42105 0
M  V30 10280 N 1003.63 -1.50653 -0.462772 0
M  V30 10281 C 1004.58 -1.70661 -1.58043 0
M  V30 10282 C 1005.57 -0.572533 -1.59432 0
M  V30 10283 O 1006.78 -0.753257 -1.63481 0
M  V30 10284 H 1003.15 -0.538805 -0.524588 0
M  V30 10285 H 1005.12 -2.64399 -1.38332 0
M  V30 10286 C 1003.87 -1.82558 -2.95919 0
M  V30 10287 H 1003.2 -2.69216 -2.95572 0
M  V30 10288 H 1004.64 -2.0058 -3.73556 0
M  V30 10289 C 1003.09 -0.57916 -3.31885 0
M  V30 10290 O 1003.62 0.277888 -4.00738 0
M  V30 10291 N 1001.83 -0.430723 -2.8739 0
M  V30 10292 H 1001.38 -1.1292 -2.31531 0
M  V30 10293 H 1001.34 0.402061 -3.11819 0
M  V30 10294 N 1005.11 0.71652 -1.4037 0
M  V30 10295 C 1006.36 1.47193 -1.37903 0
M  V30 10296 C 1006.67 1.95593 0.0159939 0
M  V30 10297 O 1007.88 2.71009 0.163282 0
M  V30 10298 C 1006.33 2.6606 -2.42363 0
M  V30 10299 C 1005.94 2.24533 -3.87671 0
M  V30 10300 C 1007.68 3.438 -2.49001 0
M  V30 10301 C 1005.59 3.40234 -4.8373 0
M  V30 10302 H 1004.52 0.552811 -0.512753 0
M  V30 10303 H 1007.17 0.779894 -1.66102 0
M  V30 10304 H 1005.55 3.37429 -2.07262 0
M  V30 10305 H 1006.73 1.6059 -4.31911 0
M  V30 10306 H 1005.04 1.59839 -3.845 0
M  V30 10307 H 1007.64 4.29893 -3.17956 0
M  V30 10308 H 1007.98 3.8755 -1.52023 0
M  V30 10309 H 1008.52 2.79474 -2.83088 0
M  V30 10310 H 1005.26 3.01517 -5.82037 0
M  V30 10311 H 1004.78 4.03095 -4.44156 0
M  V30 10312 H 1006.45 4.06312 -5.03507 0
M  V30 10313 N 1006.59 1.25851 0.948643 0
M  V30 10314 C 1007.54 1.03437 2.03187 0
M  V30 10315 C 1008.52 -0.0307632 1.60871 0
M  V30 10316 O 1009.71 0.185296 1.76027 0
M  V30 10317 C 1006.84 0.661426 3.36868 0
M  V30 10318 C 1005.93 1.76363 3.8569 0
M  V30 10319 N 1006.32 2.9998 4.07241 0
M  V30 10320 C 1004.62 1.64552 4.14534 0
M  V30 10321 C 1005.32 3.71564 4.47566 0
M  V30 10322 N 1004.29 2.99214 4.53841 0
M  V30 10323 H 1008.1 1.97277 2.17851 0
M  V30 10324 H 1005.61 1.16258 1.13392 0
M  V30 10325 H 1007.61 0.482021 4.14104 0
M  V30 10326 H 1006.27 -0.269582 3.23579 0
M  V30 10327 H 1007.28 3.35963 3.94143 0
M  V30 10328 H 1003.95 0.783891 4.10075 0
M  V30 10329 H 1005.34 4.77702 4.72494 0
M  V30 10330 N 1008.06 -1.15214 1.07534 0
M  V30 10331 C 1008.99 -2.2216 0.718837 0
M  V30 10332 C 1009.98 -1.6753 -0.29459 0
M  V30 10333 O 1011.16 -1.93481 -0.166931 0
M  V30 10334 C 1008.29 -3.471 0.117836 0
M  V30 10335 C 1007.24 -4.14701 1.05862 0
M  V30 10336 C 1006.57 -5.3374 0.320284 0
M  V30 10337 C 1007.87 -4.64254 2.39302 0
M  V30 10338 H 1009.56 -2.52237 1.61297 0
M  V30 10339 H 1007.11 -1.21239 0.776992 0
M  V30 10340 H 1009.06 -4.21156 -0.143519 0
M  V30 10341 H 1007.79 -3.16361 -0.811389 0
M  V30 10342 H 1006.45 -3.42589 1.30493 0
M  V30 10343 H 1006.09 -4.99257 -0.61246 0
M  V30 10344 H 1005.79 -5.79912 0.947381 0
M  V30 10345 H 1007.32 -6.10563 0.0667721 0
M  V30 10346 H 1008.73 -5.29827 2.18988 0
M  V30 10347 H 1007.13 -5.21095 2.97623 0
M  V30 10348 H 1008.2 -3.79793 3.01472 0
M  V30 10349 N 1009.54 -0.859717 -1.32086 0
M  V30 10350 C 1010.79 -0.466271 -1.97367 0
M  V30 10351 C 1011.12 0.976728 -1.6785 0
M  V30 10352 O 1010.4 1.68618 -0.969449 0
M  V30 10353 C 1010.68 -0.711851 -3.52994 0
M  V30 10354 C 1010.53 -2.20364 -3.92122 0
M  V30 10355 C 1011.85 -0.17156 -4.39765 0
M  V30 10356 H 1008.97 -0.170883 -0.716916 0
M  V30 10357 H 1011.61 -1.07907 -1.56384 0
M  V30 10358 H 1009.76 -0.190258 -3.88034 0
M  V30 10359 H 1011.43 -2.7917 -3.67236 0
M  V30 10360 H 1009.68 -2.68019 -3.41099 0
M  V30 10361 H 1010.35 -2.32615 -5.00594 0
M  V30 10362 H 1012.82 -0.617665 -4.1149 0
M  V30 10363 H 1011.7 -0.372921 -5.47632 0
M  V30 10364 H 1011.96 0.925959 -4.32294 0
M  V30 10365 N 1011.02 1.44971 -0.618145 0
M  V30 10366 C 1011.95 2.27748 0.143561 0
M  V30 10367 C 1012.93 1.37768 0.863642 0
M  V30 10368 O 1014.12 1.67203 0.870373 0
M  V30 10369 C 1011.24 3.16394 1.20883 0
M  V30 10370 C 1010.29 4.22389 0.590724 0
M  V30 10371 S 1011.12 5.32021 -0.609406 0
M  V30 10372 C 1012.28 6.24235 0.456199 0
M  V30 10373 H 1012.51 2.92003 -0.558699 0
M  V30 10374 H 1010.04 1.48968 -0.40595 0
M  V30 10375 H 1012 3.6802 1.81855 0
M  V30 10376 H 1010.66 2.51384 1.88322 0
M  V30 10377 H 1009.86 4.84379 1.3926 0
M  V30 10378 H 1009.46 3.73958 0.055917 0
M  V30 10379 H 1011.75 6.64269 1.33238 0
M  V30 10380 H 1012.69 7.07985 -0.127794 0
M  V30 10381 H 1013.1 5.59137 0.776269 0
M  V30 10382 N 1012.5 0.357919 1.53482 0
M  V30 10383 C 1013.45 -0.507364 2.26999 0
M  V30 10384 C 1014.44 -1.08987 1.29685 0
M  V30 10385 O 1015.65 -1.03396 1.47341 0
M  V30 10386 H 1012.02 -0.182326 0.729562 0
M  V30 10387 H 1013.99 0.134547 2.98097 0
M  V30 10388 C 1012.74 -1.63911 3.06641 0
M  V30 10389 H 1012.06 -1.20017 3.81361 0
M  V30 10390 H 1013.5 -2.21943 3.61272 0
M  V30 10391 C 1011.96 -2.57697 2.17011 0
M  V30 10392 O 1012.49 -3.60318 1.77578 0
M  V30 10393 N 1010.7 -2.2671 1.818 0
M  V30 10394 H 1010.25 -1.43296 2.14065 0
M  V30 10395 H 1010.2 -2.89716 1.22115 0
M  V30 10396 N 1013.98 -1.5736 0.0868897 0
M  V30 10397 C 1015.25 -1.85495 -0.620561 0
M  V30 10398 C 1015.63 -0.982218 -1.86857 0
M  V30 10399 O 1014.98 -0.0524529 -2.2844 0
M  V30 10400 C 1015.19 -3.35996 -0.943798 0
M  V30 10401 C 1016.54 -4.03861 -1.31079 0
M  V30 10402 O 1017.56 -3.4083 -1.03507 0
M  V30 10403 O 1016.42 -5.15062 -1.82683 0
M  V30 10404 H 1013.52 -0.766822 -0.309697 0
M  V30 10405 H 1016.06 -1.69282 0.118966 0
M  V30 10406 H 1014.83 -3.91257 -0.0580628 0
M  V30 10407 H 1014.46 -3.57525 -1.73958 0
M  V30 10408 N 1015.45 0.186762 -1.56489 0
M  V30 10409 C 1016.68 0.921832 -1.85229 0
M  V30 10410 C 1017.1 1.76496 -0.670416 0
M  V30 10411 O 1016.45 1.78899 0.360758 0
M  V30 10412 C 1016.51 1.81121 -3.12854 0
M  V30 10413 O 1016.23 1.00211 -4.26485 0
M  V30 10414 C 1017.73 2.65725 -3.54831 0
M  V30 10415 H 1014.95 0.268563 -0.61491 0
M  V30 10416 H 1017.49 0.191505 -2.03601 0
M  V30 10417 H 1015.65 2.49506 -2.96354 0
M  V30 10418 H 1016.06 1.60893 -4.99213 0
M  V30 10419 H 1017.53 3.23771 -4.47075 0
M  V30 10420 H 1018.01 3.39843 -2.78215 0
M  V30 10421 H 1018.62 2.02698 -3.7389 0
M  V30 10422 N 1016.93 1.50896 0.454776 0
M  V30 10423 C 1018.16 1.66759 1.23313 0
M  V30 10424 C 1018.58 0.35722 1.84677 0
M  V30 10425 O 1017.94 -0.680771 1.68033 0
M  V30 10426 C 1017.99 2.77254 2.3057 0
M  V30 10427 O 1017.09 2.39642 3.35627 0
M  V30 10428 H 1016.43 0.556599 0.362068 0
M  V30 10429 H 1018.96 1.97365 0.539274 0
M  V30 10430 H 1018.97 3.0082 2.75629 0
M  V30 10431 H 1017.65 3.72349 1.85281 0
M  V30 10432 H 1016.23 2.26584 2.96165 0
M  V30 10433 N 1018.41 -0.709066 1.40748 0
M  V30 10434 C 1019.36 -1.82312 1.4153 0
M  V30 10435 C 1020.33 -1.63868 0.271392 0
M  V30 10436 O 1021.51 -1.8491 0.470431 0
M  V30 10437 C 1018.65 -3.2008 1.29006 0
M  V30 10438 C 1017.77 -3.50051 2.53156 0
M  V30 10439 C 1016.9 -4.7736 2.33025 0
M  V30 10440 C 1015.94 -5.00255 3.52719 0
M  V30 10441 N 1015.08 -6.18782 3.31743 0
M  V30 10442 H 1019.92 -1.80978 2.36751 0
M  V30 10443 H 1017.45 -0.883975 1.17577 0
M  V30 10444 H 1019.41 -3.99645 1.19749 0
M  V30 10445 H 1018.04 -3.20626 0.374014 0
M  V30 10446 H 1017.09 -2.64993 2.72916 0
M  V30 10447 H 1018.41 -3.62877 3.42231 0
M  V30 10448 H 1017.56 -5.64954 2.21159 0
M  V30 10449 H 1016.3 -4.66756 1.41386 0
M  V30 10450 H 1015.3 -4.11114 3.65055 0
M  V30 10451 H 1016.53 -5.12728 4.45295 0
M  V30 10452 H 1014.47 -6.09416 2.42791 0
M  V30 10453 H 1014.39 -6.32313 4.14386 0
M  V30 10454 H 1015.66 -7.09146 3.23623 0
M  V30 10455 N 1019.89 -1.26353 -0.941956 0
M  V30 10456 C 1021.12 -1.14626 -1.72245 0
M  V30 10457 C 1021.53 0.298588 -1.86424 0
M  V30 10458 O 1020.89 1.2045 -1.37106 0
M  V30 10459 C 1020.94 -1.80933 -3.12963 0
M  V30 10460 O 1020.66 -3.19771 -2.99463 0
M  V30 10461 C 1022.16 -1.7515 -4.07231 0
M  V30 10462 H 1019.38 -0.3992 -0.539333 0
M  V30 10463 H 1021.93 -1.66958 -1.1809 0
M  V30 10464 H 1020.08 -1.32541 -3.64021 0
M  V30 10465 H 1020.5 -3.52571 -3.88322 0
M  V30 10466 H 1021.97 -2.26183 -5.03533 0
M  V30 10467 H 1022.45 -0.717855 -4.33294 0
M  V30 10468 H 1023.05 -2.2309 -3.62093 0
M  V30 10469 N 1021.37 1.14642 -1.08144 0
M  V30 10470 C 1022.78 1.6719 -0.830923 0
M  V30 10471 C 1023.13 1.85373 0.642749 0
M  V30 10472 O 1022.25 1.56293 1.49671 0
M  V30 10473 C 1022.85 3.03697 -1.50179 0
M  V30 10474 C 1021.41 3.5329 -1.29858 0
M  V30 10475 C 1020.56 2.28828 -1.5663 0
M  V30 10476 H 1023.51 0.987441 -1.24239 0
M  V30 10477 H 1023.53 3.69023 -0.9275 0
M  V30 10478 H 1023.04 2.90431 -2.57432 0
M  V30 10479 H 1021.14 3.71783 -0.246626 0
M  V30 10480 H 1021.25 4.34231 -2.02436 0
M  V30 10481 H 1019.62 2.34769 -0.987716 0
M  V30 10482 H 1020.4 2.18141 -2.65084 0
M  V30 10483 N 1022.85 0.866709 1.31628 0
M  V30 10484 C 1023.79 0.309128 2.30537 0
M  V30 10485 C 1024.79 -0.574028 1.59378 0
M  V30 10486 O 1025.99 -0.460491 1.7401 0
M  V30 10487 H 1022.37 0.081279 0.747595 0
M  V30 10488 H 1024.34 1.15734 2.75042 0
M  V30 10489 C 1023.09 -0.477287 3.44409 0
M  V30 10490 H 1022.41 0.19301 3.99334 0
M  V30 10491 H 1023.85 -0.832818 4.1574 0
M  V30 10492 C 1022.31 -1.66727 2.92752 0
M  V30 10493 O 1022.84 -2.76654 2.91248 0
M  V30 10494 N 1021.05 -1.49833 2.48995 0
M  V30 10495 H 1020.59 -0.604073 2.50417 0
M  V30 10496 H 1020.55 -2.29594 2.14788 0
M  V30 10497 N 1024.32 -1.44642 0.625825 0
M  V30 10498 C 1025.55 -2.06971 0.133373 0
M  V30 10499 C 1025.97 -1.46421 -1.18078 0
M  V30 10500 O 1025.33 -0.563676 -1.72315 0
M  V30 10501 C 1025.38 -3.6059 0.0265097 0
M  V30 10502 O 1024.48 -3.99615 -1.01889 0
M  V30 10503 H 1023.82 -0.658873 0.0823568 0
M  V30 10504 H 1026.35 -1.85601 0.861002 0
M  V30 10505 H 1026.36 -4.07663 -0.1658 0
M  V30 10506 H 1025.04 -4.04043 0.985986 0
M  V30 10507 H 1023.62 -3.64183 -0.801577 0
M  V30 10508 N 1025.8 -0.366053 -1.5329 0
M  V30 10509 C 1027.05 0.223051 -2.00865 0
M  V30 10510 C 1027.37 1.49244 -1.25504 0
M  V30 10511 O 1026.64 1.92404 -0.368444 0
M  V30 10512 H 1025.22 0.085413 -0.742101 0
M  V30 10513 H 1027.88 -0.492396 -1.88578 0
M  V30 10514 H 1026.98 0.449701 -3.08843 0
M  V30 10515 N 1027.28 1.57312 -0.0952337 0
M  V30 10516 C 1028.69 1.81589 0.433875 0
M  V30 10517 C 1029.04 1.01086 1.68155 0
M  V30 10518 O 1028.17 0.240272 2.15062 0
M  V30 10519 C 1028.76 3.29366 0.793931 0
M  V30 10520 C 1027.32 3.54407 1.26778 0
M  V30 10521 C 1026.47 2.76035 0.264518 0
M  V30 10522 H 1029.42 1.55426 -0.320675 0
M  V30 10523 H 1029.44 3.42697 1.65345 0
M  V30 10524 H 1028.95 3.87932 -0.114334 0
M  V30 10525 H 1027.05 3.01173 2.19376 0
M  V30 10526 H 1027.17 4.63055 1.22952 0
M  V30 10527 H 1025.53 2.43509 0.746691 0
M  V30 10528 H 1026.31 3.37349 -0.636429 0
M  V30 10529 N 1028.76 -0.17846 1.56586 0
M  V30 10530 C 1029.72 -1.20479 1.94981 0
M  V30 10531 C 1030.72 -1.37561 0.832677 0
M  V30 10532 O 1031.91 -1.35089 1.09984 0
M  V30 10533 C 1029.04 -2.57117 2.23839 0
M  V30 10534 H 1030.24 -0.876173 2.86816 0
M  V30 10535 H 1027.79 -0.420635 1.50534 0
M  V30 10536 H 1028.52 -2.95005 1.34695 0
M  V30 10537 H 1028.31 -2.46086 3.05261 0
M  V30 10538 H 1029.8 -3.31096 2.5449 0
M  V30 10539 N 1030.24 -1.51135 -0.446768 0
M  V30 10540 C 1031.48 -1.63013 -1.19461 0
M  V30 10541 C 1031.8 -0.344067 -1.91941 0
M  V30 10542 O 1031.07 0.639666 -1.85162 0
M  V30 10543 H 1029.65 -0.600757 -0.443959 0
M  V30 10544 H 1032.32 -1.88024 -0.513137 0
M  V30 10545 H 1031.41 -2.45322 -1.92933 0
M  V30 10546 N 1031.71 0.701592 -1.41122 0
M  V30 10547 C 1032.96 1.45871 -1.39879 0
M  V30 10548 C 1033.28 1.94999 -0.00668769 0
M  V30 10549 O 1032.55 1.71298 0.95047 0
M  V30 10550 H 1031.13 0.541231 -0.514857 0
M  V30 10551 H 1033.79 0.830803 -1.76306 0
M  V30 10552 H 1032.89 2.32479 -2.0823 0
M  V30 10553 N 1033.19 1.2685 0.935242 0
M  V30 10554 C 1034.42 1.15645 1.72165 0
M  V30 10555 C 1034.84 -0.283909 1.85945 0
M  V30 10556 O 1034.2 -1.20567 1.354 0
M  V30 10557 C 1034.25 1.83689 3.10307 0
M  V30 10558 O 1033.35 1.12972 3.96625 0
M  V30 10559 H 1032.69 0.402629 0.528002 0
M  V30 10560 H 1035.22 1.67781 1.17093 0
M  V30 10561 H 1035.23 1.90749 3.60664 0
M  V30 10562 H 1033.91 2.88472 2.99595 0
M  V30 10563 H 1032.48 1.13929 3.5507 0
M  V30 10564 N 1034.67 -1.14067 1.0875 0
M  V30 10565 C 1036.09 -1.37173 0.815823 0
M  V30 10566 C 1036.29 -1.93175 -0.573215 0
M  V30 10567 O 1035.34 -2.14672 -1.32937 0
M  V30 10568 C 1036.66 -2.32955 1.90138 0
M  V30 10569 C 1038.2 -2.46586 1.9278 0
M  V30 10570 C 1038.68 -3.4567 3.0046 0
M  V30 10571 N 1040.17 -3.53216 2.99655 0
M  V30 10572 C 1040.9 -4.29743 3.79616 0
M  V30 10573 N 1040.4 -5.09484 4.69466 0
M  V30 10574 N 1042.19 -4.24975 3.67903 0
M  V30 10575 H 1034.34 -0.760648 1.98313 0
M  V30 10576 H 1036.61 -0.397135 0.860807 0
M  V30 10577 H 1036.31 -1.98949 2.90021 0
M  V30 10578 H 1036.19 -3.32897 1.77368 0
M  V30 10579 H 1038.57 -2.79882 0.935404 0
M  V30 10580 H 1038.66 -1.46593 2.09629 0
M  V30 10581 H 1038.3 -3.13106 3.99909 0
M  V30 10582 H 1038.23 -4.45452 2.80856 0
M  V30 10583 H 1040.72 -2.96314 2.34535 0
M  V30 10584 H 1041.03 -5.65163 5.27077 0
M  V30 10585 H 1039.38 -5.08741 4.73506 0
M  V30 10586 H 1042.57 -3.61751 2.97075 0
M  V30 10587 H 1042.74 -4.84364 4.30459 0
M  V30 10588 N 1036.15 -0.873678 -1.31166 0
M  V30 10589 C 1037.37 -0.500242 -2.01277 0
M  V30 10590 C 1037.8 0.900811 -1.65127 0
M  V30 10591 O 1037.16 1.59504 -0.861862 0
M  V30 10592 C 1037.2 -0.668976 -3.5434 0
M  V30 10593 O 1036.31 0.290096 -4.11378 0
M  V30 10594 H 1035.65 -0.198507 -0.633633 0
M  V30 10595 H 1038.18 -1.17811 -1.67277 0
M  V30 10596 H 1038.19 -0.563673 -4.04088 0
M  V30 10597 H 1036.86 -1.69055 -3.79991 0
M  V30 10598 H 1035.44 0.139437 -3.72639 0
M  V30 10599 N 1037.63 1.44308 -0.633487 0
M  V30 10600 C 1038.56 2.28943 0.108474 0
M  V30 10601 C 1039.57 1.41415 0.806582 0
M  V30 10602 O 1040.76 1.65544 0.667634 0
M  V30 10603 C 1037.86 3.17845 1.1759 0
M  V30 10604 C 1037.03 4.33802 0.559842 0
M  V30 10605 C 1036.09 5.03722 1.52154 0
M  V30 10606 O 1035.12 5.5966 1.03776 0
M  V30 10607 N 1036.32 5.05392 2.85586 0
M  V30 10608 H 1039.09 2.93262 -0.617879 0
M  V30 10609 H 1036.65 1.54781 -0.474819 0
M  V30 10610 H 1038.64 3.61485 1.81963 0
M  V30 10611 H 1037.21 2.55261 1.80445 0
M  V30 10612 H 1036.43 3.93325 -0.262559 0
M  V30 10613 H 1037.72 5.08637 0.128942 0
M  V30 10614 H 1037.11 4.61282 3.27468 0
M  V30 10615 H 1035.67 5.52813 3.45313 0
M  V30 10616 N 1039.1 0.374177 1.53094 0
M  V30 10617 C 1040.35 -0.213131 2.01677 0
M  V30 10618 C 1040.68 -1.47715 1.26071 0
M  V30 10619 O 1039.96 -1.91199 0.356834 0
M  V30 10620 C 1040.24 -0.496392 3.56662 0
M  V30 10621 C 1040.09 0.781859 4.42953 0
M  V30 10622 C 1041.41 -1.29339 4.20666 0
M  V30 10623 H 1038.53 -0.0759885 0.733072 0
M  V30 10624 H 1041.17 0.500765 1.83282 0
M  V30 10625 H 1039.32 -1.10455 3.72467 0
M  V30 10626 H 1041 1.41914 4.38928 0
M  V30 10627 H 1039.24 1.40041 4.10574 0
M  V30 10628 H 1039.91 0.538508 5.49367 0
M  V30 10629 H 1042.39 -0.778848 4.08746 0
M  V30 10630 H 1041.26 -1.46033 5.29118 0
M  V30 10631 H 1041.52 -2.30435 3.77296 0
M  V30 10632 N 1040.58 -1.57259 0.103575 0
M  V30 10633 C 1041.83 -1.94945 -0.558953 0
M  V30 10634 C 1042.16 -0.986038 -1.67305 0
M  V30 10635 O 1041.44 -0.0205464 -1.94489 0
M  V30 10636 C 1041.72 -3.42689 -1.10617 0
M  V30 10637 C 1041.57 -4.498 0.00345246 0
M  V30 10638 C 1042.89 -3.91933 -2.00191 0
M  V30 10639 H 1040.01 -0.708859 -0.201713 0
M  V30 10640 H 1042.65 -1.89183 0.176006 0
M  V30 10641 H 1040.8 -3.4773 -1.73251 0
M  V30 10642 H 1042.47 -4.56866 0.638082 0
M  V30 10643 H 1040.72 -4.28615 0.668705 0
M  V30 10644 H 1041.39 -5.50397 -0.420396 0
M  V30 10645 H 1043.86 -3.89098 -1.4745 0
M  V30 10646 H 1042.74 -4.9586 -2.35402 0
M  V30 10647 H 1043 -3.31722 -2.92255 0
M  V30 10648 N 1042.06 0.170153 -1.56679 0
M  V30 10649 C 1043.29 0.902134 -1.86197 0
M  V30 10650 C 1043.7 1.75775 -0.689098 0
M  V30 10651 O 1043.06 1.79271 0.341763 0
M  V30 10652 C 1043.11 1.77792 -3.14757 0
M  V30 10653 O 1042.83 0.956817 -4.27524 0
M  V30 10654 C 1044.33 2.61947 -3.57629 0
M  V30 10655 H 1041.55 0.262026 -0.617724 0
M  V30 10656 H 1044.1 0.169899 -2.03793 0
M  V30 10657 H 1042.25 2.46348 -2.98984 0
M  V30 10658 H 1042.67 1.5559 -5.00891 0
M  V30 10659 H 1044.14 3.19011 -4.50484 0
M  V30 10660 H 1044.62 3.36873 -2.81803 0
M  V30 10661 H 1045.22 1.98721 -3.76019 0
M  V30 10662 N 1043.54 1.5137 0.438746 0
M  V30 10663 C 1044.79 1.63645 1.18595 0
M  V30 10664 C 1045.11 0.354241 1.91755 0
M  V30 10665 O 1044.38 -0.629838 1.85499 0
M  V30 10666 H 1042.96 0.603103 0.440767 0
M  V30 10667 H 1045.62 1.88293 0.503159 0
M  V30 10668 H 1044.72 2.46342 1.9163 0
M  V30 10669 N 1045.02 -0.694098 1.41492 0
M  V30 10670 C 1045.96 -1.82932 1.43662 0
M  V30 10671 C 1046.96 -1.66455 0.31449 0
M  V30 10672 O 1048.16 -1.73298 0.486589 0
M  V30 10673 H 1044.54 -0.602847 0.449533 0
M  V30 10674 H 1046.51 -1.78218 2.39334 0
M  V30 10675 C 1045.26 -3.20962 1.33712 0
M  V30 10676 H 1044.58 -3.34257 2.19345 0
M  V30 10677 H 1046.02 -4.00467 1.39291 0
M  V30 10678 C 1044.48 -3.36863 0.0496332 0
M  V30 10679 O 1045.01 -3.91371 -0.905093 0
M  V30 10680 N 1043.22 -2.90588 -0.0269299 0
M  V30 10681 H 1042.76 -2.46417 0.750752 0
M  V30 10682 H 1042.72 -3.01605 -0.887781 0
M  V30 10683 N 1046.49 -1.27344 -0.928501 0
M  V30 10684 C 1047.46 -1.10043 -2.01055 0
M  V30 10685 C 1048.46 -0.0446793 -1.60738 0
M  V30 10686 O 1049.65 -0.289202 -1.71783 0
M  V30 10687 C 1046.78 -0.676559 -3.34119 0
M  V30 10688 H 1047.97 -2.06126 -2.17835 0
M  V30 10689 H 1045.53 -1.10121 -1.10919 0
M  V30 10690 H 1046.26 0.285697 -3.23039 0
M  V30 10691 H 1046.05 -1.43903 -3.64739 0
M  V30 10692 H 1047.54 -0.577725 -4.13584 0
M  V30 10693 N 1047.97 1.13488 -1.09353 0
M  V30 10694 C 1049.22 1.841 -0.82401 0
M  V30 10695 C 1049.53 1.84393 0.652586 0
M  V30 10696 O 1050.74 2.5089 1.03762 0
M  V30 10697 C 1049.2 3.30523 -1.42418 0
M  V30 10698 C 1048.8 3.38621 -2.93326 0
M  V30 10699 C 1050.55 4.06182 -1.23356 0
M  V30 10700 C 1048.46 4.79311 -3.46432 0
M  V30 10701 H 1047.39 0.68974 -0.304589 0
M  V30 10702 H 1050.04 1.27866 -1.31615 0
M  V30 10703 H 1048.42 3.86555 -0.859727 0
M  V30 10704 H 1049.59 2.92587 -3.5599 0
M  V30 10705 H 1047.91 2.76426 -3.11412 0
M  V30 10706 H 1050.5 5.10047 -1.60488 0
M  V30 10707 H 1050.85 4.15936 -0.174152 0
M  V30 10708 H 1051.38 3.56477 -1.76547 0
M  V30 10709 H 1048.12 4.74748 -4.5199 0
M  V30 10710 H 1047.64 5.25842 -2.8853 0
M  V30 10711 H 1049.32 5.48227 -3.43593 0
M  V30 10712 N 1049.45 0.880621 1.30701 0
M  V30 10713 C 1050.87 0.574015 1.4892 0
M  V30 10714 C 1051.07 -0.889312 1.80813 0
M  V30 10715 O 1050.12 -1.67082 1.89314 0
M  V30 10716 C 1051.44 1.48341 2.61563 0
M  V30 10717 C 1052.98 1.48658 2.75445 0
M  V30 10718 C 1053.46 2.3818 3.91196 0
M  V30 10719 N 1054.95 2.36119 3.985 0
M  V30 10720 C 1055.69 3.02101 4.87363 0
M  V30 10721 N 1055.18 3.77293 5.81052 0
M  V30 10722 N 1056.97 2.91356 4.80696 0
M  V30 10723 H 1049.13 1.82732 1.08271 0
M  V30 10724 H 1051.39 0.781939 0.535981 0
M  V30 10725 H 1051.09 2.52515 2.44804 0
M  V30 10726 H 1050.97 1.18977 3.57944 0
M  V30 10727 H 1053.36 0.452374 2.91612 0
M  V30 10728 H 1053.44 1.8205 1.79698 0
M  V30 10729 H 1053.08 3.41683 3.75786 0
M  V30 10730 H 1053.01 2.02106 4.86272 0
M  V30 10731 H 1055.5 1.81474 3.31475 0
M  V30 10732 H 1055.81 4.24742 6.45612 0
M  V30 10733 H 1054.16 3.81401 5.80998 0
M  V30 10734 H 1057.35 2.32143 4.06481 0
M  V30 10735 H 1057.52 3.43056 5.49742 0
M  V30 10736 N 1050.93 -1.4397 0.641131 0
M  V30 10737 C 1052.18 -2.02246 0.14985 0
M  V30 10738 C 1052.51 -1.50387 -1.22871 0
M  V30 10739 O 1051.78 -0.692003 -1.81773 0
M  V30 10740 C 1052.07 -3.59798 0.147449 0
M  V30 10741 C 1051.92 -4.21916 1.55907 0
M  V30 10742 C 1053.24 -4.36985 -0.522667 0
M  V30 10743 H 1050.36 -0.734875 0.0559274 0
M  V30 10744 H 1053 -1.71418 0.819513 0
M  V30 10745 H 1051.15 -3.86193 -0.422789 0
M  V30 10746 H 1052.82 -4.06594 2.17896 0
M  V30 10747 H 1051.06 -3.79028 2.10998 0
M  V30 10748 H 1051.74 -5.30964 1.50934 0
M  V30 10749 H 1054.21 -4.16083 -0.0376226 0
M  V30 10750 H 1053.09 -5.46676 -0.493572 0
M  V30 10751 H 1053.35 -4.12335 -1.59475 0
M  V30 10752 N 1052.41 -0.382291 -1.52893 0
M  V30 10753 C 1053.37 0.44408 -2.24857 0
M  V30 10754 C 1054.37 0.996004 -1.26239 0
M  V30 10755 O 1055.56 0.879114 -1.5039 0
M  V30 10756 C 1052.69 1.62234 -2.99822 0
M  V30 10757 H 1053.89 -0.185862 -2.99324 0
M  V30 10758 H 1051.44 -0.134275 -1.55722 0
M  V30 10759 H 1052.17 2.28991 -2.29638 0
M  V30 10760 H 1051.96 1.23336 -3.72197 0
M  V30 10761 H 1053.45 2.20756 -3.54481 0
M  V30 10762 N 1053.89 1.57202 -0.111913 0
M  V30 10763 C 1055.13 1.96834 0.550967 0
M  V30 10764 C 1055.49 0.993502 1.64297 0
M  V30 10765 O 1056.69 1.27894 2.36425 0
M  V30 10766 C 1054.96 3.40805 1.07641 0
M  V30 10767 S 1056.52 4.02445 1.74881 0
M  V30 10768 H 1053.34 0.688021 0.179298 0
M  V30 10769 H 1055.94 1.94522 -0.195312 0
M  V30 10770 H 1054.64 4.09508 0.270377 0
M  V30 10771 H 1054.18 3.46752 1.85814 0
M  V30 10772 H 1056.19 3.92623 3.03416 0
M  V30 10773 N 1055.36 -0.161842 1.56767 0
M  V30 10774 C 1056.27 -1.21996 2.00385 0
M  V30 10775 C 1057.29 -1.4789 0.916768 0
M  V30 10776 O 1058.47 -1.59852 1.22513 0
M  V30 10777 C 1055.53 -2.53695 2.36305 0
M  V30 10778 C 1054.59 -2.3558 3.58888 0
M  V30 10779 C 1053.82 -3.60998 3.93085 0
M  V30 10780 O 1054.05 -4.6657 3.28129 0
M  V30 10781 O 1052.98 -3.54544 4.86397 0
M  V30 10782 H 1056.81 -0.879701 2.9068 0
M  V30 10783 H 1054.39 -0.369437 1.4476 0
M  V30 10784 H 1056.27 -3.31366 2.60335 0
M  V30 10785 H 1054.95 -2.87281 1.49169 0
M  V30 10786 H 1053.86 -1.55908 3.40064 0
M  V30 10787 H 1055.19 -2.06915 4.46595 0
M  V30 10788 N 1056.84 -1.516 -0.430713 0
M  V30 10789 C 1057.77 -1.68084 -1.54347 0
M  V30 10790 C 1058.75 -0.528401 -1.53775 0
M  V30 10791 O 1059.94 -0.753072 -1.72804 0
M  V30 10792 C 1057.06 -1.70048 -2.92919 0
M  V30 10793 C 1056.11 -2.91336 -3.11489 0
M  V30 10794 S 1056.94 -4.52043 -2.87084 0
M  V30 10795 C 1058.1 -4.56761 -4.27926 0
M  V30 10796 H 1058.33 -2.62203 -1.40131 0
M  V30 10797 H 1055.86 -1.41368 -0.620853 0
M  V30 10798 H 1057.82 -1.71864 -3.72791 0
M  V30 10799 H 1056.48 -0.770946 -3.04492 0
M  V30 10800 H 1055.68 -2.8913 -4.1282 0
M  V30 10801 H 1055.28 -2.87296 -2.39451 0
M  V30 10802 H 1057.57 -4.32809 -5.21232 0
M  V30 10803 H 1058.51 -5.58604 -4.35163 0
M  V30 10804 H 1058.92 -3.86014 -4.1189 0
M  V30 10805 N 1058.32 0.686584 -1.41858 0
M  V30 10806 C 1059.25 1.81264 -1.47193 0
M  V30 10807 C 1060.23 1.66875 -0.329657 0
M  V30 10808 O 1061.42 1.86473 -0.542347 0
M  V30 10809 C 1058.55 3.19472 -1.36216 0
M  V30 10810 C 1057.5 3.4858 -2.48347 0
M  V30 10811 C 1056.83 4.86239 -2.22432 0
M  V30 10812 C 1058.13 3.46653 -3.90678 0
M  V30 10813 H 1059.82 1.77057 -2.41436 0
M  V30 10814 H 1057.37 0.850415 -1.16206 0
M  V30 10815 H 1059.32 3.97969 -1.38558 0
M  V30 10816 H 1058.04 3.24327 -0.384611 0
M  V30 10817 H 1056.7 2.72437 -2.45303 0
M  V30 10818 H 1056.35 4.8773 -1.22999 0
M  V30 10819 H 1056.05 5.06677 -2.97577 0
M  V30 10820 H 1057.57 5.67034 -2.26505 0
M  V30 10821 H 1058.99 4.15139 -3.95389 0
M  V30 10822 H 1057.38 3.78625 -4.65578 0
M  V30 10823 H 1058.45 2.45451 -4.18189 0
M  V30 10824 N 1059.8 1.27835 0.921735 0
M  V30 10825 C 1061.05 1.13904 1.6646 0
M  V30 10826 C 1061.36 -0.313379 1.93073 0
M  V30 10827 O 1062.57 -0.573687 2.6537 0
M  V30 10828 C 1061.02 1.99064 2.99836 0
M  V30 10829 C 1060.63 3.48998 2.80899 0
M  V30 10830 C 1062.37 1.93797 3.77681 0
M  V30 10831 C 1060.28 4.26337 4.09867 0
M  V30 10832 H 1059.21 0.422681 0.624385 0
M  V30 10833 H 1061.86 1.52303 1.02352 0
M  V30 10834 H 1060.24 1.53514 3.65034 0
M  V30 10835 H 1061.42 4.02452 2.24431 0
M  V30 10836 H 1059.73 3.55707 2.16476 0
M  V30 10837 H 1062.33 2.48852 4.73262 0
M  V30 10838 H 1062.67 0.912928 4.06167 0
M  V30 10839 H 1063.21 2.37275 3.19289 0
M  V30 10840 H 1059.94 5.2939 3.86557 0
M  V30 10841 H 1059.46 3.77659 4.65976 0
M  V30 10842 H 1061.14 4.3583 4.78185 0
M  V30 10843 N 1061.28 -1.12907 1.09954 0
M  V30 10844 C 1062.19 -2.22082 0.756095 0
M  V30 10845 C 1063.2 -1.72277 -0.244272 0
M  V30 10846 O 1064.38 -2.01224 -0.0842637 0
M  V30 10847 C 1061.44 -3.46192 0.187642 0
M  V30 10848 C 1060.5 -4.10861 1.24465 0
M  V30 10849 C 1059.74 -5.29047 0.703227 0
M  V30 10850 O 1059.96 -5.68443 -0.472043 0
M  V30 10851 O 1058.89 -5.83904 1.46082 0
M  V30 10852 H 1062.72 -2.53842 1.66727 0
M  V30 10853 H 1060.3 -1.21145 0.874316 0
M  V30 10854 H 1062.19 -4.21212 -0.125774 0
M  V30 10855 H 1060.86 -3.16119 -0.696459 0
M  V30 10856 H 1059.77 -3.37643 1.61085 0
M  V30 10857 H 1061.1 -4.45078 2.10159 0
M  V30 10858 N 1062.75 -0.88754 -1.30232 0
M  V30 10859 C 1064 -0.506277 -1.95656 0
M  V30 10860 C 1064.32 0.948191 -1.70395 0
M  V30 10861 O 1063.59 1.66701 -1.02895 0
M  V30 10862 H 1062.17 -0.184235 -0.723924 0
M  V30 10863 H 1064.83 -1.13118 -1.58715 0
M  V30 10864 H 1063.93 -0.678673 -3.04632 0
M  V30 10865 N 1064.23 1.43628 -0.648757 0
M  V30 10866 C 1065.17 2.28001 0.0952198 0
M  V30 10867 C 1066.14 1.39569 0.834225 0
M  V30 10868 O 1067.33 1.69011 0.834711 0
M  V30 10869 C 1064.45 3.18886 1.14145 0
M  V30 10870 C 1063.5 4.23547 0.500996 0
M  V30 10871 S 1064.33 5.30609 -0.722118 0
M  V30 10872 C 1065.49 6.25062 0.323687 0
M  V30 10873 H 1065.72 2.90752 -0.620511 0
M  V30 10874 H 1063.26 1.48073 -0.437457 0
M  V30 10875 H 1065.21 3.71795 1.74008 0
M  V30 10876 H 1063.87 2.55322 1.82947 0
M  V30 10877 H 1063.07 4.87224 1.28954 0
M  V30 10878 H 1062.67 3.73993 -0.0234176 0
M  V30 10879 H 1064.96 6.66946 1.19118 0
M  V30 10880 H 1065.9 7.07554 -0.277939 0
M  V30 10881 H 1066.31 5.60658 0.657493 0
M  V30 10882 N 1065.71 0.390394 1.52688 0
M  V30 10883 C 1067.13 0.0404028 1.59549 0
M  V30 10884 C 1067.33 -1.44503 1.40432 0
M  V30 10885 O 1066.38 -2.20968 1.22187 0
M  V30 10886 C 1067.7 0.518561 2.96195 0
M  V30 10887 C 1069.24 0.474913 3.09376 0
M  V30 10888 C 1069.72 0.929278 4.48473 0
M  V30 10889 N 1071.21 0.885335 4.5466 0
M  V30 10890 C 1071.94 1.2083 5.60524 0
M  V30 10891 N 1071.44 1.6018 6.74028 0
M  V30 10892 N 1073.23 1.12949 5.50635 0
M  V30 10893 H 1065.38 1.35743 1.63363 0
M  V30 10894 H 1067.65 0.556453 0.767505 0
M  V30 10895 H 1067.35 1.55606 3.15404 0
M  V30 10896 H 1067.23 -0.081779 3.77111 0
M  V30 10897 H 1069.61 -0.553503 2.89863 0
M  V30 10898 H 1069.7 1.11107 2.3041 0
M  V30 10899 H 1069.34 1.95593 4.68728 0
M  V30 10900 H 1069.27 0.270121 5.25907 0
M  V30 10901 H 1071.76 0.595787 3.73174 0
M  V30 10902 H 1072.07 1.83184 7.50775 0
M  V30 10903 H 1070.42 1.64067 6.75357 0
M  V30 10904 H 1073.61 0.821074 4.60843 0
M  V30 10905 H 1073.78 1.3845 6.33037 0
M  V30 10906 N 1067.19 -1.57141 0.120249 0
M  V30 10907 C 1068.14 -2.15379 -0.829497 0
M  V30 10908 C 1069.11 -1.07913 -1.2627 0
M  V30 10909 O 1070.29 -1.35827 -1.33999 0
M  V30 10910 C 1067.43 -2.75847 -2.0737 0
M  V30 10911 C 1066.54 -3.97624 -1.68875 0
M  V30 10912 C 1065.68 -4.46175 -2.88272 0
M  V30 10913 C 1064.72 -5.60481 -2.46023 0
M  V30 10914 N 1063.85 -6.0377 -3.58337 0
M  V30 10915 H 1068.69 -2.96211 -0.326031 0
M  V30 10916 H 1066.23 -1.46341 -0.149235 0
M  V30 10917 H 1068.19 -3.09037 -2.80272 0
M  V30 10918 H 1066.82 -1.97703 -2.55174 0
M  V30 10919 H 1065.87 -3.70588 -0.858431 0
M  V30 10920 H 1067.18 -4.80512 -1.33827 0
M  V30 10921 H 1066.34 -4.8128 -3.69397 0
M  V30 10922 H 1065.08 -3.6224 -3.26548 0
M  V30 10923 H 1064.08 -5.24979 -1.63331 0
M  V30 10924 H 1065.31 -6.46184 -2.08863 0
M  V30 10925 H 1063.25 -5.22776 -3.96284 0
M  V30 10926 H 1063.17 -6.81517 -3.27217 0
M  V30 10927 H 1064.44 -6.43514 -4.39898 0
M  V30 10928 N 1068.67 0.153526 -1.5685 0
M  V30 10929 C 1070.08 0.714247 -1.72498 0
M  V30 10930 C 1070.43 1.81968 -0.733621 0
M  V30 10931 O 1069.55 2.16163 0.10118 0
M  V30 10932 C 1070.15 1.30238 -3.12767 0
M  V30 10933 C 1068.71 1.80974 -3.30038 0
M  V30 10934 C 1067.85 0.695638 -2.68433 0
M  V30 10935 H 1070.81 -0.0720733 -1.58536 0
M  V30 10936 H 1070.83 2.17217 -3.12405 0
M  V30 10937 H 1070.34 0.497605 -3.84897 0
M  V30 10938 H 1068.44 2.64039 -2.62895 0
M  V30 10939 H 1068.55 1.94294 -4.37934 0
M  V30 10940 H 1066.92 1.12061 -2.28723 0
M  V30 10941 H 1067.7 -0.0975885 -3.43161 0
M  V30 10942 N 1070.14 1.51827 0.422667 0
M  V30 10943 C 1071.39 1.64893 1.16853 0
M  V30 10944 C 1071.71 0.37456 1.91369 0
M  V30 10945 O 1070.98 -0.610128 1.86157 0
M  V30 10946 H 1069.56 0.607744 0.434345 0
M  V30 10947 H 1072.23 1.88816 0.483159 0
M  V30 10948 H 1071.32 2.48361 1.89006 0
M  V30 10949 N 1071.62 -0.679052 1.4222 0
M  V30 10950 C 1072.87 -1.43627 1.42182 0
M  V30 10951 C 1073.19 -1.94964 0.0377095 0
M  V30 10952 O 1072.46 -1.72788 -0.923098 0
M  V30 10953 H 1071.04 -0.532972 0.523402 0
M  V30 10954 H 1073.7 -0.802649 1.77605 0
M  V30 10955 H 1072.8 -2.29137 2.11902 0
M  V30 10956 N 1073.1 -1.28322 -0.914942 0
M  V30 10957 C 1074.35 -1.15179 -1.66067 0
M  V30 10958 C 1074.67 0.300279 -1.92674 0
M  V30 10959 O 1073.94 1.20821 -1.54205 0
M  V30 10960 H 1072.52 -0.423264 -0.615513 0
M  V30 10961 H 1075.18 -1.61034 -1.09791 0
M  V30 10962 H 1074.28 -1.69048 -2.62353 0
M  V30 10963 N 1074.58 1.12322 -1.10551 0
M  V30 10964 C 1075.83 1.83858 -0.848674 0
M  V30 10965 C 1076.15 1.84159 0.62575 0
M  V30 10966 O 1075.41 1.28341 1.4774 0
M  V30 10967 C 1075.71 3.31177 -1.34375 0
M  V30 10968 C 1075.37 3.51046 -2.8298 0
M  V30 10969 C 1074.04 3.56177 -3.23561 0
M  V30 10970 C 1076.39 3.58061 -3.78737 0
M  V30 10971 C 1073.72 3.65868 -4.58647 0
M  V30 10972 C 1076.07 3.69283 -5.13627 0
M  V30 10973 C 1074.73 3.7267 -5.53781 0
M  V30 10974 H 1074 0.672784 -0.310552 0
M  V30 10975 H 1076.65 1.3253 -1.38232 0
M  V30 10976 H 1074.95 3.84937 -0.730144 0
M  V30 10977 H 1076.65 3.84998 -1.12148 0
M  V30 10978 H 1073.24 3.47716 -2.50582 0
M  V30 10979 H 1077.42 3.53366 -3.48491 0
M  V30 10980 H 1072.68 3.66763 -4.89178 0
M  V30 10981 H 1076.85 3.73654 -5.8767 0
M  V30 10982 H 1074.48 3.79932 -6.58449 0
M  V30 10983 N 1076.06 0.894434 1.2976 0
M  V30 10984 C 1077.3 0.517669 1.95771 0
M  V30 10985 C 1077.63 -0.935028 1.70551 0
M  V30 10986 O 1076.89 -1.67722 1.00835 0
M  V30 10987 C 1077.19 0.750307 3.49435 0
M  V30 10988 C 1076.85 2.17955 3.94723 0
M  V30 10989 C 1075.51 2.57036 4.068 0
M  V30 10990 C 1077.87 3.11053 4.18205 0
M  V30 10991 C 1075.19 3.88406 4.39724 0
M  V30 10992 C 1077.55 4.41966 4.52602 0
M  V30 10993 C 1076.21 4.80927 4.62888 0
M  V30 10994 H 1075.48 0.189428 0.716378 0
M  V30 10995 H 1078.13 1.13209 1.54454 0
M  V30 10996 H 1076.43 0.0529242 3.91764 0
M  V30 10997 H 1078.13 0.438251 3.98598 0
M  V30 10998 H 1074.72 1.86622 3.85837 0
M  V30 10999 H 1078.9 2.82076 4.08347 0
M  V30 11000 H 1074.16 4.18321 4.4589 0
M  V30 11001 H 1078.33 5.14134 4.69722 0
M  V30 11002 H 1075.96 5.82759 4.88156 0
M  V30 11003 N 1077.53 -1.43282 0.656365 0
M  V30 11004 C 1078.76 -2.06125 0.178879 0
M  V30 11005 C 1079.18 -1.49216 -1.15672 0
M  V30 11006 O 1078.53 -0.624693 -1.71475 0
M  V30 11007 C 1078.59 -3.614 0.0851785 0
M  V30 11008 O 1078.31 -4.16194 1.36798 0
M  V30 11009 C 1079.81 -4.41325 -0.41801 0
M  V30 11010 H 1077.03 -0.664753 0.0913504 0
M  V30 11011 H 1079.57 -1.83733 0.897901 0
M  V30 11012 H 1077.73 -3.82966 -0.584421 0
M  V30 11013 H 1078.14 -5.09892 1.22924 0
M  V30 11014 H 1079.61 -5.50303 -0.432519 0
M  V30 11015 H 1080.09 -4.14577 -1.44991 0
M  V30 11016 H 1080.7 -4.24735 0.219208 0
M  V30 11017 N 1079.01 -0.398486 -1.52479 0
M  V30 11018 C 1080.42 0.0735015 -1.86555 0
M  V30 11019 C 1080.78 1.45361 -1.31775 0
M  V30 11020 O 1079.9 2.0632 -0.652759 0
M  V30 11021 C 1080.5 0.140152 -3.3851 0
M  V30 11022 C 1079.05 0.556451 -3.72264 0
M  V30 11023 C 1078.2 -0.275792 -2.75925 0
M  V30 11024 H 1081.15 -0.615991 -1.46257 0
M  V30 11025 H 1081.17 0.957507 -3.68255 0
M  V30 11026 H 1080.69 -0.864442 -3.7835 0
M  V30 11027 H 1078.79 1.56808 -3.37997 0
M  V30 11028 H 1078.9 0.308227 -4.78107 0
M  V30 11029 H 1077.26 0.260304 -2.53366 0
M  V30 11030 H 1078.05 -1.27854 -3.18604 0
M  V30 11031 N 1080.49 1.57075 -0.12858 0
M  V30 11032 C 1081.45 2.14643 0.803813 0
M  V30 11033 C 1082.45 1.08363 1.18803 0
M  V30 11034 O 1083.64 1.34093 1.11197 0
M  V30 11035 C 1080.78 2.6945 2.08829 0
M  V30 11036 H 1081.97 2.98362 0.303347 0
M  V30 11037 H 1079.52 1.55833 0.120735 0
M  V30 11038 H 1080.26 1.89345 2.63285 0
M  V30 11039 H 1080.04 3.47187 1.82218 0
M  V30 11040 H 1081.53 3.13865 2.7546 0
M  V30 11041 N 1081.97 -0.145205 1.5693 0
M  V30 11042 C 1082.88 -1.19864 2.01667 0
M  V30 11043 C 1083.9 -1.46909 0.932402 0
M  V30 11044 O 1085.07 -1.58543 1.24201 0
M  V30 11045 C 1082.14 -2.51174 2.38982 0
M  V30 11046 C 1081.2 -2.3176 3.61366 0
M  V30 11047 C 1080.43 -3.56809 3.96892 0
M  V30 11048 O 1080.65 -4.63063 3.33059 0
M  V30 11049 O 1079.59 -3.49366 4.9013 0
M  V30 11050 H 1083.41 -0.848821 2.91597 0
M  V30 11051 H 1081 -0.354063 1.45144 0
M  V30 11052 H 1082.88 -3.28587 2.63835 0
M  V30 11053 H 1081.56 -2.85683 1.52207 0
M  V30 11054 H 1080.46 -1.52293 3.41698 0
M  V30 11055 H 1081.8 -2.02167 4.48764 0
M  V30 11056 N 1083.45 -1.52049 -0.414609 0
M  V30 11057 C 1084.38 -1.69712 -1.52555 0
M  V30 11058 C 1085.36 -0.544681 -1.53206 0
M  V30 11059 O 1086.54 -0.771358 -1.71995 0
M  V30 11060 C 1083.67 -1.73145 -2.91099 0
M  V30 11061 C 1082.72 -2.94624 -3.08382 0
M  V30 11062 S 1083.55 -4.55062 -2.82274 0
M  V30 11063 C 1084.7 -4.61274 -4.23057 0
M  V30 11064 H 1084.94 -2.63675 -1.37342 0
M  V30 11065 H 1082.47 -1.42018 -0.605824 0
M  V30 11066 H 1084.43 -1.75808 -3.70947 0
M  V30 11067 H 1083.09 -0.803198 -3.03657 0
M  V30 11068 H 1082.28 -2.93492 -4.0973 0
M  V30 11069 H 1081.88 -2.8982 -2.36391 0
M  V30 11070 H 1084.18 -4.38313 -5.16612 0
M  V30 11071 H 1085.12 -5.63188 -4.29214 0
M  V30 11072 H 1085.53 -3.90361 -4.07773 0
M  V30 11073 N 1084.93 0.6715 -1.42579 0
M  V30 11074 C 1085.87 1.78496 -1.46314 0
M  V30 11075 C 1086.84 1.63091 -0.314743 0
M  V30 11076 O 1088.03 1.83597 -0.519292 0
M  V30 11077 C 1085.17 3.16548 -1.37447 0
M  V30 11078 C 1084.28 3.43216 -2.62348 0
M  V30 11079 C 1083.42 4.71014 -2.456 0
M  V30 11080 C 1082.45 4.90728 -3.65859 0
M  V30 11081 N 1081.59 6.09769 -3.48032 0
M  V30 11082 H 1086.43 1.74638 -2.41466 0
M  V30 11083 H 1083.97 0.852491 -1.19879 0
M  V30 11084 H 1085.93 3.96329 -1.30303 0
M  V30 11085 H 1084.56 3.19522 -0.458891 0
M  V30 11086 H 1083.61 2.57664 -2.79846 0
M  V30 11087 H 1084.92 3.53675 -3.51732 0
M  V30 11088 H 1084.07 5.58892 -2.3606 0
M  V30 11089 H 1082.81 4.62843 -1.53712 0
M  V30 11090 H 1081.82 4.01291 -3.75827 0
M  V30 11091 H 1083.04 5.00741 -4.58732 0
M  V30 11092 H 1080.99 6.02765 -2.58864 0
M  V30 11093 H 1080.91 6.21104 -4.31005 0
M  V30 11094 H 1082.17 7.00317 -3.42311 0
M  V30 11095 N 1086.4 1.28806 0.908124 0
M  V30 11096 C 1087.37 1.13228 1.99279 0
M  V30 11097 C 1088.37 0.0702456 1.60646 0
M  V30 11098 O 1089.56 0.316494 1.71301 0
M  V30 11099 C 1086.69 0.729629 3.33 0
M  V30 11100 H 1087.88 2.09566 2.14528 0
M  V30 11101 H 1085.43 1.11872 1.09153 0
M  V30 11102 H 1086.17 -0.234268 3.23453 0
M  V30 11103 H 1085.95 1.49688 3.62403 0
M  V30 11104 H 1087.44 0.643449 4.12613 0
M  V30 11105 N 1087.88 -1.11734 1.11145 0
M  V30 11106 C 1088.79 -2.21267 0.779607 0
M  V30 11107 C 1089.81 -1.72526 -0.225986 0
M  V30 11108 O 1090.98 -2.01302 -0.0629166 0
M  V30 11109 C 1088.05 -3.45973 0.22435 0
M  V30 11110 C 1087.11 -4.09518 1.28816 0
M  V30 11111 C 1086.34 -5.28271 0.7593 0
M  V30 11112 O 1086.57 -5.68912 -0.411725 0
M  V30 11113 O 1085.5 -5.82322 1.52266 0
M  V30 11114 H 1089.33 -2.5206 1.6941 0
M  V30 11115 H 1086.91 -1.20211 0.887115 0
M  V30 11116 H 1088.79 -4.21322 -0.0810921 0
M  V30 11117 H 1087.47 -3.1684 -0.662891 0
M  V30 11118 H 1086.37 -3.35915 1.64657 0
M  V30 11119 H 1087.71 -4.42824 2.14868 0
M  V30 11120 N 1089.36 -0.901303 -1.29284 0
M  V30 11121 C 1090.61 -0.527 -1.95108 0
M  V30 11122 C 1090.93 0.930065 -1.71391 0
M  V30 11123 O 1090.2 1.65601 -1.04658 0
M  V30 11124 H 1088.78 -0.191903 -0.721929 0
M  V30 11125 H 1091.44 -1.14795 -1.57506 0
M  V30 11126 H 1090.54 -0.710945 -3.03895 0
M  V30 11127 N 1090.84 1.42931 -0.663954 0
M  V30 11128 C 1092.25 1.56098 -0.332496 0
M  V30 11129 C 1092.45 1.64564 1.16279 0
M  V30 11130 O 1091.51 1.6066 1.94794 0
M  V30 11131 C 1092.82 2.81649 -1.05329 0
M  V30 11132 C 1094.37 2.95408 -1.03457 0
M  V30 11133 C 1094.85 4.23805 -1.73647 0
M  V30 11134 N 1096.34 4.30693 -1.70462 0
M  V30 11135 C 1097.07 5.28833 -2.21637 0
M  V30 11136 N 1096.57 6.33189 -2.81147 0
M  V30 11137 N 1098.36 5.20558 -2.12075 0
M  V30 11138 H 1090.51 1.3568 -1.63416 0
M  V30 11139 H 1092.77 0.652361 -0.687844 0
M  V30 11140 H 1092.48 2.81494 -2.10842 0
M  V30 11141 H 1092.35 3.72208 -0.611626 0
M  V30 11142 H 1094.74 2.95097 0.0121936 0
M  V30 11143 H 1094.82 2.06109 -1.51502 0
M  V30 11144 H 1094.47 4.24876 -2.78285 0
M  V30 11145 H 1094.4 5.12019 -1.2306 0
M  V30 11146 H 1096.89 3.55904 -1.27046 0
M  V30 11147 H 1097.2 7.04411 -3.17844 0
M  V30 11148 H 1095.55 6.33781 -2.85212 0
M  V30 11149 H 1098.74 4.3795 -1.6528 0
M  V30 11150 H 1098.91 5.96881 -2.52264 0
M  V30 11151 N 1092.32 0.406567 1.52266 0
M  V30 11152 C 1093.73 -0.063607 1.86592 0
M  V30 11153 C 1094.08 -1.4466 1.32544 0
M  V30 11154 O 1093.2 -2.05971 0.663692 0
M  V30 11155 C 1093.8 -0.122198 3.3858 0
M  V30 11156 C 1092.36 -0.536701 3.72554 0
M  V30 11157 C 1091.5 0.290422 2.75775 0
M  V30 11158 H 1094.45 0.623738 1.45929 0
M  V30 11159 H 1094.48 -0.937964 3.68758 0
M  V30 11160 H 1093.99 0.884495 3.77887 0
M  V30 11161 H 1092.09 -1.55013 3.38824 0
M  V30 11162 H 1092.2 -0.282867 4.78264 0
M  V30 11163 H 1090.57 -0.246864 2.53501 0
M  V30 11164 H 1091.35 1.29541 3.17921 0
M  V30 11165 N 1093.79 -1.57004 0.136909 0
M  V30 11166 C 1094.73 -2.12004 -0.844362 0
M  V30 11167 C 1095.71 -1.04099 -1.24909 0
M  V30 11168 O 1096.89 -1.31866 -1.34698 0
M  V30 11169 C 1094.02 -2.63147 -2.13241 0
M  V30 11170 C 1093.06 -3.83105 -1.87438 0
M  V30 11171 S 1093.9 -5.2461 -1.07447 0
M  V30 11172 C 1095.05 -5.79134 -2.37392 0
M  V30 11173 H 1095.28 -2.94905 -0.376614 0
M  V30 11174 H 1092.82 -1.54207 -0.0771977 0
M  V30 11175 H 1094.78 -2.93264 -2.87239 0
M  V30 11176 H 1093.44 -1.80395 -2.57131 0
M  V30 11177 H 1092.63 -4.17099 -2.82922 0
M  V30 11178 H 1092.23 -3.53696 -1.21553 0
M  V30 11179 H 1094.52 -5.8995 -3.33114 0
M  V30 11180 H 1095.47 -6.76887 -2.07918 0
M  V30 11181 H 1095.87 -5.07311 -2.47579 0
M  V30 11182 N 1095.27 0.136881 -1.57004 0
M  V30 11183 C 1096.69 0.489856 -1.51897 0
M  V30 11184 C 1096.89 1.82833 -0.847009 0
M  V30 11185 O 1095.94 2.48952 -0.421792 0
M  V30 11186 C 1097.26 0.490831 -2.96667 0
M  V30 11187 C 1098.81 0.575639 -3.07661 0
M  V30 11188 C 1099.28 0.607178 -4.53957 0
M  V30 11189 N 1100.77 0.66912 -4.58342 0
M  V30 11190 C 1101.51 0.714675 -5.68929 0
M  V30 11191 N 1101 0.718959 -6.89059 0
M  V30 11192 N 1102.8 0.756326 -5.56988 0
M  V30 11193 H 1094.95 -0.740347 -1.99079 0
M  V30 11194 H 1097.21 -0.271116 -0.908405 0
M  V30 11195 H 1096.92 -0.424648 -3.49127 0
M  V30 11196 H 1096.79 1.32512 -3.53158 0
M  V30 11197 H 1099.18 1.48154 -2.55215 0
M  V30 11198 H 1099.26 -0.285991 -2.54196 0
M  V30 11199 H 1098.9 -0.294604 -5.07045 0
M  V30 11200 H 1098.83 1.48544 -5.05215 0
M  V30 11201 H 1101.32 0.672697 -3.71864 0
M  V30 11202 H 1101.64 0.755848 -7.69095 0
M  V30 11203 H 1099.98 0.686671 -6.91599 0
M  V30 11204 H 1103.17 0.750219 -4.62049 0
M  V30 11205 H 1103.34 0.788363 -6.43186 0
M  V30 11206 N 1096.75 1.52266 0.40654 0
M  V30 11207 C 1097.98 1.70057 1.1732 0
M  V30 11208 C 1098.39 0.41084 1.84686 0
M  V30 11209 O 1097.73 -0.623187 1.72806 0
M  V30 11210 C 1097.79 2.78197 2.27698 0
M  V30 11211 C 1097.46 4.19866 1.80447 0
M  V30 11212 C 1098.45 5.03621 1.29082 0
M  V30 11213 C 1096.14 4.66112 1.87202 0
M  V30 11214 C 1098.13 6.31694 0.850973 0
M  V30 11215 C 1095.82 5.94174 1.42829 0
M  V30 11216 C 1096.82 6.76794 0.918621 0
M  V30 11217 O 1096.51 8.02458 0.481302 0
M  V30 11218 H 1096.24 0.573137 0.358455 0
M  V30 11219 H 1098.79 1.99615 0.484064 0
M  V30 11220 H 1097.02 2.44022 2.99983 0
M  V30 11221 H 1098.71 2.84562 2.89446 0
M  V30 11222 H 1099.48 4.69083 1.23234 0
M  V30 11223 H 1095.36 4.01905 2.25816 0
M  V30 11224 H 1098.9 6.96131 0.452471 0
M  V30 11225 H 1094.8 6.2822 1.48358 0
M  V30 11226 H 1095.57 8.16266 0.604376 0
M  V30 11227 N 1098.23 -0.663929 1.42933 0
M  V30 11228 C 1099.51 -1.42054 1.34462 0
M  V30 11229 C 1099.89 -2.11096 -0.0127801 0
M  V30 11230 O 1099.23 -2.04027 -1.02884 0
M  V30 11231 C 1099.44 -2.41406 2.5204 0
M  V30 11232 C 1100.79 -3.05726 2.94647 0
M  V30 11233 O 1101.82 -2.51733 2.52009 0
M  V30 11234 O 1100.67 -4.03593 3.68477 0
M  V30 11235 H 1097.77 -0.634149 0.530834 0
M  V30 11236 H 1100.31 -0.691738 1.54962 0
M  V30 11237 H 1099.09 -1.89263 3.42484 0
M  V30 11238 H 1098.71 -3.21752 2.33584 0
M  V30 11239 N 1099.71 -1.29285 -0.901281 0
M  V30 11240 C 1100.95 -1.16934 -1.64836 0
M  V30 11241 C 1101.28 0.279826 -1.92982 0
M  V30 11242 O 1100.55 1.19179 -1.55478 0
M  V30 11243 H 1099.13 -0.429768 -0.61099 0
M  V30 11244 H 1101.79 -1.62189 -1.08077 0
M  V30 11245 H 1100.88 -1.71821 -2.60545 0
M  V30 11246 N 1101.18 1.11143 -1.11736 0
M  V30 11247 C 1102.13 2.17274 -0.778513 0
M  V30 11248 C 1103.1 1.64186 0.251405 0
M  V30 11249 O 1104.29 1.90373 0.127629 0
M  V30 11250 C 1101.43 3.44324 -0.231246 0
M  V30 11251 C 1100.54 4.114 -1.31809 0
M  V30 11252 C 1099.67 5.26146 -0.73104 0
M  V30 11253 C 1098.71 5.85112 -1.79752 0
M  V30 11254 N 1097.85 6.91247 -1.22973 0
M  V30 11255 H 1102.69 2.45603 -1.68769 0
M  V30 11256 H 1100.23 1.20565 -0.842759 0
M  V30 11257 H 1102.19 4.1707 0.104045 0
M  V30 11258 H 1100.82 3.16369 0.641119 0
M  V30 11259 H 1099.87 3.36697 -1.77029 0
M  V30 11260 H 1101.18 4.51278 -2.12485 0
M  V30 11261 H 1100.33 6.05713 -0.345987 0
M  V30 11262 H 1099.07 4.87583 0.107 0
M  V30 11263 H 1098.08 5.0422 -2.19185 0
M  V30 11264 H 1099.3 6.25741 -2.63865 0
M  V30 11265 H 1097.25 6.54696 -0.41339 0
M  V30 11266 H 1097.17 7.29796 -1.97316 0
M  V30 11267 H 1098.43 7.74611 -0.87167 0
M  V30 11268 N 1102.66 0.908147 1.28804 0
M  V30 11269 C 1103.91 0.548635 1.95861 0
M  V30 11270 C 1104.26 -0.896789 1.70222 0
M  V30 11271 O 1103.56 -1.6285 1.00948 0
M  V30 11272 C 1103.75 0.787327 3.4862 0
M  V30 11273 C 1103.58 2.2544 3.8911 0
M  V30 11274 C 1102.35 2.90345 4.13555 0
M  V30 11275 C 1104.55 3.23034 4.00192 0
M  V30 11276 N 1102.53 4.27408 4.40676 0
M  V30 11277 C 1103.9 4.45242 4.31462 0
M  V30 11278 C 1105.96 3.18509 3.82696 0
M  V30 11279 C 1104.66 5.63498 4.47059 0
M  V30 11280 C 1106.68 4.36059 3.99508 0
M  V30 11281 C 1106.05 5.5704 4.31145 0
M  V30 11282 H 1102.15 0.250526 0.740784 0
M  V30 11283 H 1104.73 1.17071 1.55571 0
M  V30 11284 H 1102.9 0.194565 3.87912 0
M  V30 11285 H 1104.63 0.392407 4.02793 0
M  V30 11286 H 1101.39 2.411 4.07637 0
M  V30 11287 H 1101.81 4.98259 4.5833 0
M  V30 11288 H 1106.45 2.26058 3.57292 0
M  V30 11289 H 1104.17 6.56434 4.71296 0
M  V30 11290 H 1107.76 4.34054 3.87413 0
M  V30 11291 H 1106.64 6.46483 4.4388 0
M  V30 11292 N 1104.14 -1.42577 0.671525 0
M  V30 11293 C 1105.37 -2.05924 0.200731 0
M  V30 11294 C 1105.78 -1.50434 -1.14083 0
M  V30 11295 O 1105.14 -0.642845 -1.70803 0
M  V30 11296 C 1105.19 -3.61289 0.123505 0
M  V30 11297 O 1104.91 -4.1472 1.41205 0
M  V30 11298 C 1106.41 -4.41743 -0.371178 0
M  V30 11299 H 1103.63 -0.663746 0.0983958 0
M  V30 11300 H 1106.18 -1.82771 0.917338 0
M  V30 11301 H 1104.33 -3.83565 -0.543769 0
M  V30 11302 H 1104.75 -5.0856 1.28325 0
M  V30 11303 H 1106.22 -5.50731 -0.374128 0
M  V30 11304 H 1106.7 -4.16092 -1.40585 0
M  V30 11305 H 1107.3 -4.24478 0.264244 0
M  V30 11306 N 1105.62 -0.414636 -1.52048 0
M  V30 11307 C 1106.58 0.396285 -2.25748 0
M  V30 11308 C 1107.58 0.969003 -1.28324 0
M  V30 11309 O 1108.77 0.847016 -1.52221 0
M  V30 11310 C 1105.9 1.55838 -3.03195 0
M  V30 11311 H 1107.1 -0.249311 -2.98862 0
M  V30 11312 H 1104.65 -0.167276 -1.55402 0
M  V30 11313 H 1105.38 2.24068 -2.34444 0
M  V30 11314 H 1105.17 1.15414 -3.74729 0
M  V30 11315 H 1106.66 2.13187 -3.59084 0
M  V30 11316 N 1107.1 1.56929 -0.145233 0
M  V30 11317 C 1108.51 1.82877 0.375884 0
M  V30 11318 C 1108.86 1.06384 1.64854 0
M  V30 11319 O 1107.98 0.30857 2.14189 0
M  V30 11320 C 1108.58 3.31725 0.688744 0
M  V30 11321 C 1107.14 3.58261 1.15439 0
M  V30 11322 C 1106.28 2.76737 0.176565 0
M  V30 11323 H 1109.24 1.54328 -0.36996 0
M  V30 11324 H 1109.26 3.47784 1.54359 0
M  V30 11325 H 1108.77 3.87371 -0.237694 0
M  V30 11326 H 1106.87 3.08 2.09683 0
M  V30 11327 H 1106.98 4.66732 1.08158 0
M  V30 11328 H 1105.35 2.45761 0.668843 0
M  V30 11329 H 1106.13 3.35154 -0.743432 0
M  V30 11330 N 1108.58 -0.128553 1.57075 0
M  V30 11331 C 1109.54 -1.14215 1.98715 0
M  V30 11332 C 1110.54 -1.34843 0.876019 0
M  V30 11333 O 1111.73 -1.31522 1.14227 0
M  V30 11334 C 1108.86 -2.49865 2.31905 0
M  V30 11335 H 1110.05 -0.784481 2.89458 0
M  V30 11336 H 1107.61 -0.372531 1.51796 0
M  V30 11337 H 1108.34 -2.9057 1.44012 0
M  V30 11338 H 1108.13 -2.3625 3.12935 0
M  V30 11339 H 1109.62 -3.22832 2.64895 0
M  V30 11340 N 1110.05 -1.5248 -0.398459 0
M  V30 11341 C 1111 -1.76585 -1.48615 0
M  V30 11342 C 1111.97 -0.608677 -1.54546 0
M  V30 11343 O 1113.16 -0.847383 -1.7095 0
M  V30 11344 C 1110.3 -1.93201 -2.8595 0
M  V30 11345 C 1109.41 -3.20875 -2.89246 0
M  V30 11346 C 1108.54 -3.27862 -4.17947 0
M  V30 11347 C 1107.58 -4.49697 -4.15258 0
M  V30 11348 N 1106.72 -4.54017 -5.35549 0
M  V30 11349 H 1111.56 -2.69412 -1.27362 0
M  V30 11350 H 1109.1 -1.33487 -0.618031 0
M  V30 11351 H 1111.05 -2.00819 -3.65688 0
M  V30 11352 H 1109.68 -1.03743 -3.05675 0
M  V30 11353 H 1108.74 -3.22376 -2.01935 0
M  V30 11354 H 1110.05 -4.1066 -2.83125 0
M  V30 11355 H 1109.2 -3.34611 -5.06083 0
M  V30 11356 H 1107.94 -2.36035 -4.26777 0
M  V30 11357 H 1106.95 -4.43083 -3.25511 0
M  V30 11358 H 1108.17 -5.42831 -4.08059 0
M  V30 11359 H 1106.12 -3.65078 -5.45027 0
M  V30 11360 H 1106.03 -5.37661 -5.31466 0
M  V30 11361 H 1107.3 -4.65009 -6.25609 0
M  V30 11362 N 1111.53 0.65634 -1.43283 0
M  V30 11363 C 1112.81 1.41339 -1.35213 0
M  V30 11364 C 1113.19 2.111 0.00158494 0
M  V30 11365 O 1112.54 2.0457 1.018 0
M  V30 11366 C 1112.75 2.40066 -2.53317 0
M  V30 11367 C 1114.09 3.04159 -2.96264 0
M  V30 11368 O 1115.12 2.50393 -2.53341 0
M  V30 11369 O 1113.98 4.01633 -3.70612 0
M  V30 11370 H 1111.07 0.631325 -0.534189 0
M  V30 11371 H 1113.62 0.68351 -1.55326 0
M  V30 11372 H 1112.39 1.87444 -3.43483 0
M  V30 11373 H 1112.01 3.20509 -2.35287 0
M  V30 11374 N 1113.01 1.29761 0.894412 0
M  V30 11375 C 1114.25 1.19313 1.65963 0
M  V30 11376 C 1114.61 -0.25022 1.90363 0
M  V30 11377 O 1115.81 -0.477779 2.6452 0
M  V30 11378 C 1114.09 1.98934 2.96917 0
M  V30 11379 S 1115.64 2.05079 3.87928 0
M  V30 11380 H 1112.46 0.42535 0.569735 0
M  V30 11381 H 1115.06 1.64116 1.06236 0
M  V30 11382 H 1113.77 3.02932 2.76876 0
M  V30 11383 H 1113.3 1.54756 3.61682 0
M  V30 11384 H 1115.31 1.17131 4.82177 0
M  V30 11385 N 1114.49 -1.10549 1.12324 0
M  V30 11386 C 1115.76 -1.78968 0.789287 0
M  V30 11387 C 1116.14 -1.984 -0.721156 0
M  V30 11388 O 1115.49 -1.5761 -1.65443 0
M  V30 11389 C 1115.7 -3.12044 1.563 0
M  V30 11390 C 1117.05 -3.86939 1.74825 0
M  V30 11391 O 1118.07 -3.21761 1.52802 0
M  V30 11392 O 1116.93 -5.0392 2.11488 0
M  V30 11393 H 1114.03 -0.775617 0.286962 0
M  V30 11394 H 1116.57 -1.17209 1.2272 0
M  V30 11395 H 1115.35 -2.93313 2.59005 0
M  V30 11396 H 1114.97 -3.81521 1.11926 0
M  V30 11397 N 1115.97 -0.914965 -1.28321 0
M  V30 11398 C 1116.93 -0.409024 -2.25521 0
M  V30 11399 C 1117.93 0.465327 -1.5392 0
M  V30 11400 O 1119.12 0.26821 -1.72123 0
M  V30 11401 C 1116.25 0.413452 -3.38383 0
M  V30 11402 H 1117.44 -1.26767 -2.71791 0
M  V30 11403 H 1115 -0.694477 -1.40024 0
M  V30 11404 H 1115.73 1.29145 -2.97476 0
M  V30 11405 H 1115.52 -0.213268 -3.9152 0
M  V30 11406 H 1117.01 0.758232 -4.10659 0
M  V30 11407 N 1117.44 1.42219 -0.679077 0
M  V30 11408 C 1118.39 2.308 -0.00340316 0
M  V30 11409 C 1119.36 1.462 0.788334 0
M  V30 11410 O 1120.55 1.75023 0.759716 0
M  V30 11411 C 1117.69 3.32084 0.938854 0
M  V30 11412 C 1116.8 4.31772 0.140485 0
M  V30 11413 C 1115.93 5.20128 1.07888 0
M  V30 11414 C 1114.97 6.11493 0.27245 0
M  V30 11415 N 1114.11 6.92388 1.16378 0
M  V30 11416 H 1118.95 2.88024 -0.764587 0
M  V30 11417 H 1116.49 1.41869 -0.38878 0
M  V30 11418 H 1118.44 3.89339 1.49903 0
M  V30 11419 H 1117.07 2.76448 1.66662 0
M  V30 11420 H 1116.13 3.76599 -0.536376 0
M  V30 11421 H 1117.44 4.96432 -0.485433 0
M  V30 11422 H 1116.59 5.82137 1.70884 0
M  V30 11423 H 1115.33 4.55655 1.73868 0
M  V30 11424 H 1114.34 5.48549 -0.370693 0
M  V30 11425 H 1115.56 6.78017 -0.383315 0
M  V30 11426 H 1113.51 6.30538 1.8099 0
M  V30 11427 H 1113.42 7.5367 0.593043 0
M  V30 11428 H 1114.69 7.58879 1.78107 0
M  V30 11429 N 1118.92 0.422693 1.51826 0
M  V30 11430 C 1120.17 -0.148348 2.01555 0
M  V30 11431 C 1120.49 -1.44483 1.30956 0
M  V30 11432 O 1119.76 -1.90904 0.439599 0
M  V30 11433 H 1118.34 -0.0578116 0.74476 0
M  V30 11434 H 1121 0.562046 1.8662 0
M  V30 11435 H 1120.1 -0.334766 3.10299 0
M  V30 11436 N 1120.4 -1.5685 0.153553 0
M  V30 11437 C 1121.33 -2.14231 -0.814729 0
M  V30 11438 C 1122.34 -1.09339 -1.20619 0
M  V30 11439 O 1123.53 -1.36592 -1.14913 0
M  V30 11440 C 1120.63 -2.6555 -2.10562 0
M  V30 11441 C 1119.81 -3.94912 -1.8805 0
M  V30 11442 C 1118.87 -4.31476 -3.0119 0
M  V30 11443 O 1117.89 -4.9968 -2.72596 0
M  V30 11444 N 1119.09 -3.91588 -4.28531 0
M  V30 11445 H 1121.86 -2.9794 -0.324277 0
M  V30 11446 H 1119.42 -1.61873 -0.0298087 0
M  V30 11447 H 1121.41 -2.87019 -2.85311 0
M  V30 11448 H 1119.98 -1.86529 -2.5085 0
M  V30 11449 H 1119.2 -3.82002 -0.973024 0
M  V30 11450 H 1120.49 -4.79433 -1.70356 0
M  V30 11451 H 1119.89 -3.36645 -4.54628 0
M  V30 11452 H 1118.44 -4.18095 -5.00039 0
M  V30 11453 N 1121.88 0.120221 -1.57141 0
M  V30 11454 C 1123.13 0.826586 -1.84423 0
M  V30 11455 C 1123.45 1.80473 -0.738553 0
M  V30 11456 O 1122.72 1.94454 0.23755 0
M  V30 11457 H 1121.3 0.308246 -0.680436 0
M  V30 11458 H 1123.96 0.107835 -1.94601 0
M  V30 11459 H 1123.05 1.37256 -2.80298 0
M  V30 11460 N 1123.36 1.52689 0.390367 0
M  V30 11461 C 1124.58 1.71839 1.16129 0
M  V30 11462 C 1125.01 0.435226 1.82996 0
M  V30 11463 O 1124.36 -0.60889 1.70769 0
M  V30 11464 C 1124.41 2.86784 2.18603 0
M  V30 11465 O 1123.52 2.53662 3.25161 0
M  V30 11466 H 1122.86 0.571455 0.338135 0
M  V30 11467 H 1125.39 1.99475 0.45508 0
M  V30 11468 H 1125.4 3.12239 2.62622 0
M  V30 11469 H 1124.07 3.79872 1.69322 0
M  V30 11470 H 1122.65 2.38942 2.86289 0
M  V30 11471 N 1124.83 -0.648732 1.43629 0
M  V30 11472 C 1126.25 -1.23001 1.40455 0
M  V30 11473 C 1126.6 -1.95886 0.110897 0
M  V30 11474 O 1125.72 -2.01485 -0.789487 0
M  V30 11475 C 1126.32 -2.23716 2.54434 0
M  V30 11476 C 1124.88 -2.77311 2.54511 0
M  V30 11477 C 1124.02 -1.52024 2.31914 0
M  V30 11478 H 1126.97 -0.440473 1.52465 0
M  V30 11479 H 1126.99 -3.05979 2.26179 0
M  V30 11480 H 1126.51 -1.7064 3.48574 0
M  V30 11481 H 1124.61 -3.34437 1.64263 0
M  V30 11482 H 1124.72 -3.2455 3.52426 0
M  V30 11483 H 1123.08 -1.79531 1.80667 0
M  V30 11484 H 1123.87 -1.00876 3.28145 0
M  V30 11485 N 1126.31 -1.30234 -0.887518 0
M  V30 11486 C 1127.56 -1.1891 -1.6391 0
M  V30 11487 C 1127.89 0.256749 -1.92798 0
M  V30 11488 O 1127.14 1.20047 -1.54555 0
M  V30 11489 C 1127.44 -1.96046 -2.98832 0
M  V30 11490 C 1127.11 -3.45683 -2.89507 0
M  V30 11491 C 1125.77 -3.86489 -2.8667 0
M  V30 11492 C 1128.12 -4.40983 -2.7782 0
M  V30 11493 C 1125.45 -5.2089 -2.69982 0
M  V30 11494 C 1127.8 -5.75489 -2.6267 0
M  V30 11495 C 1126.47 -6.15537 -2.58207 0
M  V30 11496 H 1125.74 -0.435123 -0.599791 0
M  V30 11497 H 1128.38 -1.61308 -1.03209 0
M  V30 11498 H 1126.69 -1.46275 -3.6347 0
M  V30 11499 H 1128.38 -1.84678 -3.55942 0
M  V30 11500 H 1124.97 -3.13255 -2.92523 0
M  V30 11501 H 1129.16 -4.10401 -2.79079 0
M  V30 11502 H 1124.41 -5.51014 -2.6494 0
M  V30 11503 H 1128.59 -6.48973 -2.526 0
M  V30 11504 H 1126.22 -7.19627 -2.45034 0
M  V30 11505 N 1127.79 1.09952 -1.12909 0
M  V30 11506 C 1128.75 2.14615 -0.804548 0
M  V30 11507 C 1129.75 1.5975 0.18345 0
M  V30 11508 O 1130.94 1.74147 -0.0429623 0
M  V30 11509 C 1128.08 3.40333 -0.196471 0
M  V30 11510 H 1129.27 2.44835 -1.73193 0
M  V30 11511 H 1126.82 1.25399 -0.932997 0
M  V30 11512 H 1127.56 3.15735 0.740388 0
M  V30 11513 H 1127.34 3.81444 -0.907886 0
M  V30 11514 H 1128.83 4.17598 0.0139264 0
M  V30 11515 N 1129.27 0.921757 1.27833 0
M  V30 11516 C 1130.51 0.566288 1.96399 0
M  V30 11517 C 1130.87 -0.875149 1.70895 0
M  V30 11518 O 1132.07 -1.3386 2.33099 0
M  V30 11519 C 1130.34 0.876329 3.4649 0
M  V30 11520 S 1131.9 0.628481 4.34276 0
M  V30 11521 H 1128.72 0.209246 0.679512 0
M  V30 11522 H 1131.32 1.18892 1.55193 0
M  V30 11523 H 1130.03 1.92319 3.62549 0
M  V30 11524 H 1129.56 0.242658 3.92651 0
M  V30 11525 H 1131.57 -0.516493 4.93505 0
M  V30 11526 N 1130.75 -1.41857 0.686609 0
M  V30 11527 C 1131.98 -2.05401 0.222238 0
M  V30 11528 C 1132.38 -1.51731 -1.13023 0
M  V30 11529 O 1131.73 -0.656701 -1.71561 0
M  V30 11530 C 1131.79 -3.59381 0.0926608 0
M  V30 11531 C 1131.45 -4.35801 1.37573 0
M  V30 11532 C 1132.45 -4.65678 2.31171 0
M  V30 11533 C 1130.14 -4.75233 1.62661 0
M  V30 11534 C 1132.13 -5.33936 3.48125 0
M  V30 11535 C 1129.82 -5.43229 2.79902 0
M  V30 11536 C 1130.81 -5.72507 3.72458 0
M  V30 11537 O 1130.5 -6.39106 4.87646 0
M  V30 11538 H 1130.23 -0.668126 0.102876 0
M  V30 11539 H 1132.79 -1.82775 0.93714 0
M  V30 11540 H 1131.02 -3.80711 -0.67793 0
M  V30 11541 H 1132.71 -4.04529 -0.333364 0
M  V30 11542 H 1133.47 -4.35704 2.13042 0
M  V30 11543 H 1129.35 -4.51831 0.914862 0
M  V30 11544 H 1132.9 -5.56706 4.20386 0
M  V30 11545 H 1128.79 -5.72621 2.97951 0
M  V30 11546 H 1129.56 -6.576 4.87344 0
M  V30 11547 N 1132.22 -0.430739 -1.51599 0
M  V30 11548 C 1133.16 0.429107 -2.24129 0
M  V30 11549 C 1134.14 1.03019 -1.25801 0
M  V30 11550 O 1135.32 1.07392 -1.54917 0
M  V30 11551 C 1132.45 1.59749 -2.9866 0
M  V30 11552 C 1131.49 1.11773 -4.11593 0
M  V30 11553 S 1132.33 0.0651468 -5.3546 0
M  V30 11554 C 1133.48 1.23835 -6.13527 0
M  V30 11555 H 1133.71 -0.186683 -2.96713 0
M  V30 11556 H 1131.25 -0.215201 -1.52893 0
M  V30 11557 H 1133.21 2.26735 -3.42201 0
M  V30 11558 H 1131.87 2.18468 -2.25678 0
M  V30 11559 H 1131.06 1.99125 -4.62996 0
M  V30 11560 H 1130.66 0.526209 -3.7028 0
M  V30 11561 H 1132.95 2.15796 -6.42214 0
M  V30 11562 H 1133.9 0.76443 -7.03962 0
M  V30 11563 H 1134.3 1.47393 -5.44918 0
M  V30 11564 N 1133.7 1.56767 -0.161869 0
M  V30 11565 C 1134.93 2.00673 0.491314 0
M  V30 11566 C 1135.34 1.04111 1.5798 0
M  V30 11567 O 1134.68 0.0324889 1.83671 0
M  V30 11568 C 1134.75 3.41011 1.13806 0
M  V30 11569 C 1134.41 4.56595 0.192384 0
M  V30 11570 C 1135.41 5.16591 -0.585671 0
M  V30 11571 C 1133.09 5.02218 0.0909594 0
M  V30 11572 C 1135.09 6.20631 -1.45245 0
M  V30 11573 C 1132.77 6.06109 -0.77941 0
M  V30 11574 C 1133.77 6.65187 -1.54971 0
M  V30 11575 O 1133.46 7.67065 -2.40555 0
M  V30 11576 H 1133.19 0.663174 0.131059 0
M  V30 11577 H 1135.74 2.03775 -0.257896 0
M  V30 11578 H 1133.97 3.34793 1.93521 0
M  V30 11579 H 1135.66 3.68931 1.69248 0
M  V30 11580 H 1136.43 4.82232 -0.517432 0
M  V30 11581 H 1132.31 4.55953 0.680292 0
M  V30 11582 H 1135.85 6.66671 -2.05415 0
M  V30 11583 H 1131.75 6.39894 -0.848887 0
M  V30 11584 H 1132.52 7.84348 -2.33966 0
M  V30 11585 N 1135.18 -0.111886 1.57202 0
M  V30 11586 C 1136.43 -0.816794 1.84859 0
M  V30 11587 C 1136.75 -1.80079 0.748113 0
M  V30 11588 O 1136.02 -1.94578 -0.227235 0
M  V30 11589 H 1134.6 -0.304633 0.682061 0
M  V30 11590 H 1137.26 -0.097513 1.94656 0
M  V30 11591 H 1136.36 -1.35768 2.81022 0
M  V30 11592 N 1136.66 -1.52894 -0.382264 0
M  V30 11593 C 1137.59 -1.81122 -1.47367 0
M  V30 11594 C 1138.57 -0.663653 -1.56619 0
M  V30 11595 O 1139.75 -0.911898 -1.71459 0
M  V30 11596 C 1136.88 -1.98615 -2.84902 0
M  V30 11597 C 1135.84 -3.14328 -2.90485 0
M  V30 11598 C 1135.16 -3.17086 -4.30535 0
M  V30 11599 C 1136.46 -4.53263 -2.59519 0
M  V30 11600 H 1138.16 -2.72518 -1.23993 0
M  V30 11601 H 1135.7 -1.3113 -0.595049 0
M  V30 11602 H 1137.66 -2.16946 -3.61265 0
M  V30 11603 H 1136.38 -1.03915 -3.09628 0
M  V30 11604 H 1135.04 -2.95791 -2.16572 0
M  V30 11605 H 1134.69 -2.20055 -4.52311 0
M  V30 11606 H 1134.39 -3.94821 -4.3519 0
M  V30 11607 H 1135.91 -3.3758 -5.08795 0
M  V30 11608 H 1137.33 -4.71867 -3.25598 0
M  V30 11609 H 1135.72 -5.33115 -2.75514 0
M  V30 11610 H 1136.79 -4.59516 -1.54831 0
M  V30 11611 N 1138.14 0.641106 -1.43971 0
M  V30 11612 C 1139.38 1.40084 -1.46228 0
M  V30 11613 C 1139.71 1.94287 -0.0911011 0
M  V30 11614 O 1138.97 1.73481 0.905688 0
M  V30 11615 C 1139.27 2.59092 -2.46183 0
M  V30 11616 C 1138.93 2.23237 -3.9176 0
M  V30 11617 C 1137.59 2.13171 -4.31407 0
M  V30 11618 C 1139.95 1.94746 -4.83449 0
M  V30 11619 C 1137.27 1.72788 -5.60679 0
M  V30 11620 C 1139.63 1.55858 -6.13099 0
M  V30 11621 C 1138.29 1.44326 -6.5171 0
M  V30 11622 H 1137.56 0.512603 -0.535088 0
M  V30 11623 H 1140.21 0.727956 -1.77124 0
M  V30 11624 H 1138.51 3.31568 -2.08734 0
M  V30 11625 H 1140.21 3.17313 -2.4518 0
M  V30 11626 H 1136.8 2.31986 -3.60389 0
M  V30 11627 H 1140.98 2.01438 -4.53582 0
M  V30 11628 H 1136.24 1.62455 -5.89422 0
M  V30 11629 H 1140.41 1.32848 -6.83611 0
M  V30 11630 H 1138.04 1.12806 -7.51784 0
M  V30 11631 N 1139.62 1.30703 0.880598 0
M  V30 11632 C 1140.55 1.20033 2.00286 0
M  V30 11633 C 1141.53 0.0899614 1.69862 0
M  V30 11634 O 1142.71 0.272747 1.92275 0
M  V30 11635 C 1139.84 0.895902 3.35546 0
M  V30 11636 C 1138.8 1.96468 3.80242 0
M  V30 11637 C 1138.12 1.51316 5.12843 0
M  V30 11638 C 1139.42 3.37637 3.98496 0
M  V30 11639 H 1141.12 2.13922 2.0947 0
M  V30 11640 H 1138.66 1.02989 1.00644 0
M  V30 11641 H 1140.61 0.807899 4.13583 0
M  V30 11642 H 1139.34 -0.0786636 3.26505 0
M  V30 11643 H 1138 2.0424 3.04437 0
M  V30 11644 H 1137.65 0.52674 5.00234 0
M  V30 11645 H 1137.35 2.22807 5.43719 0
M  V30 11646 H 1138.87 1.43903 5.93401 0
M  V30 11647 H 1140.28 3.326 4.66959 0
M  V30 11648 H 1138.68 4.07253 4.40755 0
M  V30 11649 H 1139.75 3.79205 3.02211 0
M  V30 11650 N 1141.09 -1.09351 1.1349 0
M  V30 11651 C 1142.32 -1.85304 0.920324 0
M  V30 11652 C 1142.74 -1.81182 -0.530883 0
M  V30 11653 O 1142.09 -1.20853 -1.36751 0
M  V30 11654 C 1142.14 -3.33249 1.40098 0
M  V30 11655 O 1141.87 -3.37333 2.79531 0
M  V30 11656 C 1143.37 -4.2604 1.22495 0
M  V30 11657 H 1140.59 -0.585294 0.328134 0
M  V30 11658 H 1143.13 -1.38168 1.50765 0
M  V30 11659 H 1141.29 -3.7781 0.85664 0
M  V30 11660 H 1141.7 -4.29614 3.00885 0
M  V30 11661 H 1143.17 -5.27999 1.61 0
M  V30 11662 H 1143.65 -4.38883 0.166717 0
M  V30 11663 H 1144.26 -3.87295 1.75735 0
M  V30 11664 N 1142.57 -0.928524 -1.27343 0
M  V30 11665 C 1143.48 -0.433901 -2.30553 0
M  V30 11666 C 1144.5 0.485832 -1.6708 0
M  V30 11667 O 1145.67 0.36844 -1.98001 0
M  V30 11668 C 1142.74 0.304617 -3.45359 0
M  V30 11669 C 1141.8 -0.650131 -4.24349 0
M  V30 11670 C 1141.03 0.0532372 -5.33673 0
M  V30 11671 O 1141.26 1.27246 -5.56026 0
M  V30 11672 O 1140.19 -0.619009 -5.98709 0
M  V30 11673 H 1144.02 -1.2909 -2.74899 0
M  V30 11674 H 1141.6 -0.693903 -1.32308 0
M  V30 11675 H 1143.48 0.721137 -4.15184 0
M  V30 11676 H 1142.16 1.13721 -3.03066 0
M  V30 11677 H 1141.06 -1.11635 -3.57055 0
M  V30 11678 H 1142.4 -1.44996 -4.70358 0
M  V30 11679 N 1144.05 1.41491 -0.694123 0
M  V30 11680 C 1145.3 2.0155 -0.224809 0
M  V30 11681 C 1145.63 1.54844 1.17205 0
M  V30 11682 O 1144.9 0.75899 1.7908 0
M  V30 11683 C 1145.19 3.59003 -0.280884 0
M  V30 11684 C 1145.04 4.15839 -1.71458 0
M  V30 11685 C 1146.36 4.38624 0.360122 0
M  V30 11686 H 1143.48 0.732293 -0.0831632 0
M  V30 11687 H 1146.12 1.68258 -0.882569 0
M  V30 11688 H 1144.27 3.87496 0.279164 0
M  V30 11689 H 1145.94 3.98227 -2.32837 0
M  V30 11690 H 1144.18 3.70936 -2.2492 0
M  V30 11691 H 1144.86 5.24997 -1.70536 0
M  V30 11692 H 1147.33 4.15936 -0.11683 0
M  V30 11693 H 1146.21 5.48132 0.290337 0
M  V30 11694 H 1146.47 4.1797 1.44062 0
M  V30 11695 N 1145.53 0.438773 1.51369 0
M  V30 11696 C 1146.49 -0.36032 2.2635 0
M  V30 11697 C 1147.49 -0.948465 1.29849 0
M  V30 11698 O 1148.68 -0.822692 1.53549 0
M  V30 11699 C 1145.81 -1.50994 3.05636 0
M  V30 11700 H 1147.01 0.296826 2.98427 0
M  V30 11701 H 1144.56 0.191978 1.55117 0
M  V30 11702 H 1145.29 -2.2031 2.37979 0
M  V30 11703 H 1145.08 -1.09437 3.76518 0
M  V30 11704 H 1146.57 -2.07447 3.6243 0
M  V30 11705 N 1147.01 -1.56678 0.170181 0
M  V30 11706 C 1148.25 -1.9714 -0.475767 0
M  V30 11707 C 1148.58 -1.05611 -1.62972 0
M  V30 11708 O 1147.86 -0.103017 -1.94227 0
M  V30 11709 C 1148.14 -3.47072 -0.959828 0
M  V30 11710 C 1148 -4.4938 0.194225 0
M  V30 11711 C 1149.31 -4.00071 -1.83387 0
M  V30 11712 H 1146.43 -0.716776 -0.171466 0
M  V30 11713 H 1149.08 -1.88266 0.256086 0
M  V30 11714 H 1147.23 -3.54766 -1.58346 0
M  V30 11715 H 1148.9 -4.53748 0.83128 0
M  V30 11716 H 1147.14 -4.25393 0.849893 0
M  V30 11717 H 1147.81 -5.51685 -0.186575 0
M  V30 11718 H 1150.29 -3.95002 -1.30815 0
M  V30 11719 H 1149.16 -5.05398 -2.14159 0
M  V30 11720 H 1149.42 -3.43819 -2.77923 0
M  V30 11721 N 1148.48 0.103547 -1.57259 0
M  V30 11722 C 1149.39 1.14475 -2.04774 0
M  V30 11723 C 1150.41 1.44385 -0.971025 0
M  V30 11724 O 1151.59 1.55195 -1.28361 0
M  V30 11725 C 1148.65 2.4475 -2.45558 0
M  V30 11726 C 1147.71 2.22098 -3.67384 0
M  V30 11727 C 1146.94 3.4616 -4.06213 0
M  V30 11728 O 1147.17 4.5407 -3.45219 0
M  V30 11729 O 1146.1 3.36248 -4.9922 0
M  V30 11730 H 1149.93 0.771211 -2.93745 0
M  V30 11731 H 1147.51 0.315456 -1.46032 0
M  V30 11732 H 1149.39 3.21476 -2.72454 0
M  V30 11733 H 1148.07 2.81547 -1.59728 0
M  V30 11734 H 1146.98 1.43179 -3.45616 0
M  V30 11735 H 1148.31 1.90197 -4.53967 0
M  V30 11736 N 1149.96 1.53094 0.37415 0
M  V30 11737 C 1151.21 1.69111 1.11934 0
M  V30 11738 C 1151.54 0.437252 1.89213 0
M  V30 11739 O 1150.82 -0.565298 1.86104 0
M  V30 11740 C 1151.1 2.93559 2.08554 0
M  V30 11741 C 1150.95 4.29082 1.3494 0
M  V30 11742 C 1152.27 3.13586 3.08791 0
M  V30 11743 H 1149.39 0.615383 0.405553 0
M  V30 11744 H 1152.03 1.85719 0.401078 0
M  V30 11745 H 1150.18 2.79531 2.69805 0
M  V30 11746 H 1151.85 4.54906 0.765402 0
M  V30 11747 H 1150.1 4.28884 0.651238 0
M  V30 11748 H 1150.77 5.12275 2.05616 0
M  V30 11749 H 1153.24 3.26743 2.57639 0
M  V30 11750 H 1152.12 4.02112 3.73627 0
M  V30 11751 H 1152.38 2.28475 3.78486 0
M  V30 11752 N 1151.44 -0.633461 1.44309 0
M  V30 11753 C 1152.4 -1.72743 1.50641 0
M  V30 11754 C 1153.4 -1.56031 0.388718 0
M  V30 11755 O 1154.59 -1.61568 0.651251 0
M  V30 11756 C 1151.72 -3.11804 1.37809 0
M  V30 11757 H 1152.92 -1.68503 2.48086 0
M  V30 11758 H 1150.47 -0.846912 1.31366 0
M  V30 11759 H 1151.21 -3.2164 0.414483 0
M  V30 11760 H 1150.99 -3.2534 2.18852 0
M  V30 11761 H 1152.48 -3.91538 1.45216 0
M  V30 11762 N 1152.92 -1.31168 -0.873655 0
M  V30 11763 C 1154.15 -1.23595 -1.65927 0
M  V30 11764 C 1154.56 0.199349 -1.87745 0
M  V30 11765 O 1153.92 1.13013 -1.43298 0
M  V30 11766 C 1153.97 -1.97268 -3.02932 0
M  V30 11767 O 1153.69 -3.35196 -2.82091 0
M  V30 11768 C 1155.19 -1.9649 -3.97374 0
M  V30 11769 H 1152.41 -0.427228 -0.517414 0
M  V30 11770 H 1154.96 -1.72983 -1.09074 0
M  V30 11771 H 1153.11 -1.51651 -3.56484 0
M  V30 11772 H 1153.52 -3.7266 -3.69087 0
M  V30 11773 H 1155 -2.52557 -4.90835 0
M  V30 11774 H 1155.48 -0.946525 -4.28879 0
M  V30 11775 H 1156.08 -2.4197 -3.49758 0
M  V30 11776 N 1154.4 1.08748 -1.14068 0
M  V30 11777 C 1155.64 1.80707 -0.904947 0
M  V30 11778 C 1155.97 1.86478 0.570167 0
M  V30 11779 O 1155.24 1.35536 1.41445 0
M  V30 11780 H 1153.82 0.669261 -0.331811 0
M  V30 11781 H 1156.48 1.31494 -1.43859 0
M  V30 11782 H 1155.57 2.83653 -1.30182 0
M  V30 11783 N 1155.87 0.935264 1.26849 0
M  V30 11784 C 1156.82 0.438896 2.26588 0
M  V30 11785 C 1157.79 -0.498267 1.5845 0
M  V30 11786 O 1158.98 -0.415771 1.86215 0
M  V30 11787 C 1156.12 -0.295293 3.43834 0
M  V30 11788 C 1155.23 0.676857 4.26665 0
M  V30 11789 C 1154.36 -0.0779349 5.31143 0
M  V30 11790 C 1153.4 0.886425 6.05648 0
M  V30 11791 N 1152.54 0.163771 7.01909 0
M  V30 11792 H 1157.38 1.29439 2.6842 0
M  V30 11793 H 1154.92 0.649523 1.31983 0
M  V30 11794 H 1156.88 -0.737354 4.10632 0
M  V30 11795 H 1155.51 -1.11497 3.02933 0
M  V30 11796 H 1154.56 1.23744 3.5971 0
M  V30 11797 H 1155.87 1.41355 4.78351 0
M  V30 11798 H 1155.02 -0.579557 6.03926 0
M  V30 11799 H 1153.76 -0.84755 4.80279 0
M  V30 11800 H 1152.77 1.39923 5.31697 0
M  V30 11801 H 1153.99 1.65595 6.58601 0
M  V30 11802 H 1151.94 -0.58746 6.53364 0
M  V30 11803 H 1151.86 0.839902 7.5132 0
M  V30 11804 H 1153.12 -0.316951 7.78855 0
M  V30 11805 N 1157.35 -1.41121 0.701616 0
M  V30 11806 C 1158.32 -2.29148 0.0490091 0
M  V30 11807 C 1159.32 -1.44679 -0.701763 0
M  V30 11808 O 1160.51 -1.65757 -0.53575 0
M  V30 11809 C 1157.64 -3.2766 -0.940837 0
M  V30 11810 H 1158.83 -2.88354 0.824133 0
M  V30 11811 H 1156.38 -1.49209 0.465457 0
M  V30 11812 H 1157.12 -2.73445 -1.74351 0
M  V30 11813 H 1156.9 -3.89997 -0.405551 0
M  V30 11814 H 1158.39 -3.93609 -1.39507 0
M  V30 11815 N 1158.83 -0.446794 -1.51134 0
M  V30 11816 C 1160.06 0.114893 -2.06581 0
M  V30 11817 C 1160.47 1.35642 -1.31327 0
M  V30 11818 O 1159.83 1.78595 -0.375506 0
M  V30 11819 C 1159.88 0.427589 -3.58962 0
M  V30 11820 O 1159.6 -0.764669 -4.31375 0
M  V30 11821 C 1161.1 1.03891 -4.30954 0
M  V30 11822 H 1158.32 0.00373031 -0.67099 0
M  V30 11823 H 1160.87 -0.628596 -1.94599 0
M  V30 11824 H 1159.02 1.12099 -3.70827 0
M  V30 11825 H 1159.44 -0.494605 -5.22163 0
M  V30 11826 H 1160.91 1.20764 -5.38628 0
M  V30 11827 H 1161.39 2.02252 -3.8986 0
M  V30 11828 H 1161.99 0.384623 -4.23557 0
M  V30 11829 N 1160.31 1.56586 -0.178487 0
M  V30 11830 C 1161.55 1.9739 0.465306 0
M  V30 11831 C 1161.89 1.06474 1.6241 0
M  V30 11832 O 1161.16 0.113316 1.9417 0
M  V30 11833 C 1161.45 3.47577 0.941408 0
M  V30 11834 C 1161.3 4.49271 -0.218054 0
M  V30 11835 C 1162.62 4.01038 1.81263 0
M  V30 11836 H 1159.74 0.717676 0.167663 0
M  V30 11837 H 1162.38 1.88128 -0.266067 0
M  V30 11838 H 1160.53 3.556 1.56463 0
M  V30 11839 H 1162.2 4.53301 -0.855332 0
M  V30 11840 H 1160.44 4.24936 -0.872441 0
M  V30 11841 H 1161.11 5.51776 0.157315 0
M  V30 11842 H 1163.59 3.9569 1.28718 0
M  V30 11843 H 1162.47 5.06526 2.11476 0
M  V30 11844 H 1162.73 3.45288 2.76096 0
M  V30 11845 N 1161.79 -0.095206 1.57312 0
M  V30 11846 C 1162.7 -1.13388 2.05379 0
M  V30 11847 C 1163.71 -1.43868 0.978668 0
M  V30 11848 O 1164.89 -1.54512 1.29182 0
M  V30 11849 C 1161.95 -2.43444 2.46852 0
M  V30 11850 C 1161.01 -2.20146 3.68557 0
M  V30 11851 C 1160.25 -3.44001 4.08043 0
M  V30 11852 O 1160.47 -4.52233 3.47623 0
M  V30 11853 O 1159.4 -3.33596 5.00997 0
M  V30 11854 H 1163.23 -0.755622 2.9415 0
M  V30 11855 H 1160.82 -0.307707 1.46197 0
M  V30 11856 H 1162.7 -3.20027 2.74155 0
M  V30 11857 H 1161.37 -2.80696 1.61219 0
M  V30 11858 H 1160.28 -1.41345 3.46371 0
M  V30 11859 H 1161.61 -1.87787 4.54969 0
M  V30 11860 N 1163.26 -1.53291 -0.366026 0
M  V30 11861 C 1164.21 -1.79697 -1.44836 0
M  V30 11862 C 1165.18 -0.641321 -1.5322 0
M  V30 11863 O 1166.37 -0.883453 -1.69115 0
M  V30 11864 C 1163.51 -1.99223 -2.81788 0
M  V30 11865 C 1162.62 -3.26938 -2.82375 0
M  V30 11866 C 1161.75 -3.36654 -4.10898 0
M  V30 11867 C 1160.79 -4.58404 -4.05626 0
M  V30 11868 N 1159.93 -4.65275 -5.25798 0
M  V30 11869 H 1164.77 -2.72053 -1.21619 0
M  V30 11870 H 1162.31 -1.34768 -0.589577 0
M  V30 11871 H 1164.27 -2.0853 -3.61346 0
M  V30 11872 H 1162.9 -1.10204 -3.03406 0
M  V30 11873 H 1161.95 -3.26587 -1.95052 0
M  V30 11874 H 1163.26 -4.16573 -2.74351 0
M  V30 11875 H 1162.41 -3.4527 -4.98872 0
M  V30 11876 H 1161.15 -2.45035 -4.21674 0
M  V30 11877 H 1160.16 -4.49888 -3.16039 0
M  V30 11878 H 1161.38 -5.51364 -3.96453 0
M  V30 11879 H 1159.33 -3.76557 -5.3716 0
M  V30 11880 H 1159.25 -5.48814 -5.19942 0
M  V30 11881 H 1160.51 -4.78175 -6.15605 0
M  V30 11882 N 1164.74 0.6258 -1.44643 0
M  V30 11883 C 1165.68 1.75056 -1.46392 0
M  V30 11884 C 1166.65 1.59376 -0.322179 0
M  V30 11885 O 1167.84 1.81187 -0.519956 0
M  V30 11886 C 1164.96 3.12689 -1.30166 0
M  V30 11887 C 1164.01 3.47005 -2.47972 0
M  V30 11888 S 1164.84 3.43885 -4.10491 0
M  V30 11889 C 1166 4.84129 -3.96698 0
M  V30 11890 H 1166.23 1.73306 -2.41562 0
M  V30 11891 H 1163.77 0.800879 -1.32005 0
M  V30 11892 H 1165.72 3.9211 -1.21492 0
M  V30 11893 H 1164.38 3.11972 -0.364982 0
M  V30 11894 H 1163.58 4.47171 -2.32496 0
M  V30 11895 H 1163.18 2.75059 -2.53414 0
M  V30 11896 H 1165.47 5.73488 -3.60718 0
M  V30 11897 H 1166.41 5.0466 -4.96713 0
M  V30 11898 H 1166.82 4.58954 -3.28666 0
M  V30 11899 N 1166.22 1.31629 0.866686 0
M  V30 11900 C 1167.47 1.21683 1.62238 0
M  V30 11901 C 1167.8 -0.223767 1.92907 0
M  V30 11902 O 1167.07 -1.15761 1.563 0
M  V30 11903 C 1167.36 2.06443 2.95048 0
M  V30 11904 C 1167.21 3.58818 2.71237 0
M  V30 11905 C 1168.53 1.91634 3.96187 0
M  V30 11906 H 1165.65 0.443389 0.588707 0
M  V30 11907 H 1168.29 1.61453 1.00164 0
M  V30 11908 H 1166.44 1.72654 3.48027 0
M  V30 11909 H 1168.11 4.0276 2.24905 0
M  V30 11910 H 1166.36 3.82085 2.05411 0
M  V30 11911 H 1167.03 4.13436 3.65752 0
M  V30 11912 H 1169.5 2.21209 3.52428 0
M  V30 11913 H 1168.38 2.53236 4.86993 0
M  V30 11914 H 1168.64 0.880564 4.33242 0
M  V30 11915 N 1167.7 -1.08142 1.14644 0
M  V30 11916 C 1168.94 -1.82183 0.926747 0
M  V30 11917 C 1169.3 -1.8434 -0.53692 0
M  V30 11918 O 1170.5 -2.54172 -0.874651 0
M  V30 11919 C 1168.78 -3.23726 1.51446 0
M  V30 11920 S 1170.33 -4.14612 1.43673 0
M  V30 11921 H 1167.15 -0.627815 0.333721 0
M  V30 11922 H 1169.75 -1.29968 1.46043 0
M  V30 11923 H 1168.46 -3.19741 2.57282 0
M  V30 11924 H 1167.99 -3.81016 0.979289 0
M  V30 11925 H 1170 -4.94384 0.424105 0
M  V30 11926 N 1169.18 -0.941978 -1.26351 0
M  V30 11927 C 1170.42 -0.590845 -1.94002 0
M  V30 11928 C 1170.76 0.868004 -1.73722 0
M  V30 11929 O 1170.03 1.62111 -1.07472 0
M  V30 11930 C 1170.31 -0.934901 -3.47752 0
M  V30 11931 C 1170.17 -2.44855 -3.77314 0
M  V30 11932 C 1171.49 -0.450888 -4.37784 0
M  V30 11933 H 1168.61 -0.21613 -0.704597 0
M  V30 11934 H 1171.25 -1.17634 -1.49205 0
M  V30 11935 H 1169.4 -0.436648 -3.86038 0
M  V30 11936 H 1171.07 -3.01959 -3.48738 0
M  V30 11937 H 1169.31 -2.89169 -3.23363 0
M  V30 11938 H 1169.98 -2.6398 -4.84787 0
M  V30 11939 H 1172.46 -0.878107 -4.06729 0
M  V30 11940 H 1171.34 -0.720439 -5.44152 0
M  V30 11941 H 1171.6 0.649162 -4.37308 0
M  V30 11942 N 1170.66 1.40747 -0.709091 0
M  V30 11943 C 1171.62 2.29118 -0.0611607 0
M  V30 11944 C 1172.62 1.45049 0.694081 0
M  V30 11945 O 1173.81 1.66039 0.526952 0
M  V30 11946 C 1170.94 3.28154 0.923447 0
M  V30 11947 H 1172.13 2.87913 -0.839413 0
M  V30 11948 H 1169.69 1.4896 -0.473363 0
M  V30 11949 H 1170.42 2.74366 1.72899 0
M  V30 11950 H 1170.21 3.90207 0.384862 0
M  V30 11951 H 1171.7 3.94343 1.37417 0
M  V30 11952 N 1172.13 0.454803 1.50895 0
M  V30 11953 C 1173.41 -0.166559 1.9489 0
M  V30 11954 C 1173.79 -1.58492 1.3944 0
M  V30 11955 O 1173.14 -2.20788 0.588622 0
M  V30 11956 C 1173.35 -0.126506 3.48771 0
M  V30 11957 C 1174.7 -0.32347 4.23366 0
M  V30 11958 O 1175.72 -0.203835 3.55616 0
M  V30 11959 O 1174.58 -0.563292 5.43589 0
M  V30 11960 H 1171.67 -0.120523 0.818171 0
M  V30 11961 H 1174.22 0.514037 1.61727 0
M  V30 11962 H 1172.99 0.864407 3.81633 0
M  V30 11963 H 1172.61 -0.849264 3.88424 0
M  V30 11964 N 1173.61 -1.56489 0.186789 0
M  V30 11965 C 1174.86 -1.96517 -0.45433 0
M  V30 11966 C 1175.17 -1.07618 -1.63333 0
M  V30 11967 O 1176.38 -1.37392 -2.3417 0
M  V30 11968 C 1174.84 -3.49482 -0.859685 0
M  V30 11969 C 1174.44 -4.47031 0.294572 0
M  V30 11970 C 1176.19 -3.98296 -1.46835 0
M  V30 11971 C 1174.09 -5.91254 -0.131279 0
M  V30 11972 H 1173.02 -0.733765 -0.17351 0
M  V30 11973 H 1175.68 -1.8139 0.277485 0
M  V30 11974 H 1174.06 -3.60082 -1.64793 0
M  V30 11975 H 1175.23 -4.48156 1.07205 0
M  V30 11976 H 1173.55 -4.08362 0.814197 0
M  V30 11977 H 1176.14 -5.03518 -1.79928 0
M  V30 11978 H 1176.49 -3.42123 -2.37186 0
M  V30 11979 H 1177.02 -3.90776 -0.744247 0
M  V30 11980 H 1173.76 -6.51334 0.737839 0
M  V30 11981 H 1173.28 -5.93401 -0.873786 0
M  V30 11982 H 1174.96 -6.44485 -0.569913 0
M  V30 11983 N 1175.09 0.086862 -1.5736 0
M  V30 11984 C 1176.34 0.787281 -1.86135 0
M  V30 11985 C 1176.66 1.78866 -0.776667 0
M  V30 11986 O 1175.93 1.94915 0.19625 0
M  V30 11987 H 1174.51 0.293744 -0.686821 0
M  V30 11988 H 1177.17 0.0665326 -1.94786 0
M  V30 11989 H 1176.27 1.3128 -2.83147 0
M  V30 11990 N 1176.57 1.53483 0.357892 0
M  V30 11991 C 1177.51 1.80463 1.43881 0
M  V30 11992 C 1178.48 0.649438 1.52877 0
M  V30 11993 O 1179.67 0.892409 1.68644 0
M  V30 11994 C 1176.81 2.00714 2.80727 0
M  V30 11995 C 1175.92 3.28431 2.80637 0
M  V30 11996 C 1175.06 3.38828 4.09107 0
M  V30 11997 C 1174.1 4.60549 4.03189 0
M  V30 11998 N 1173.23 4.68057 5.23323 0
M  V30 11999 H 1178.07 2.72694 1.20174 0
M  V30 12000 H 1175.61 1.35079 0.582422 0
M  V30 12001 H 1177.57 2.10444 3.60235 0
M  V30 12002 H 1176.2 1.11811 3.02817 0
M  V30 12003 H 1175.25 3.27617 1.93317 0
M  V30 12004 H 1176.56 4.18022 2.72138 0
M  V30 12005 H 1175.72 3.47911 4.97034 0
M  V30 12006 H 1174.46 2.47267 4.20369 0
M  V30 12007 H 1173.46 4.51558 3.13649 0
M  V30 12008 H 1174.69 5.53459 3.93523 0
M  V30 12009 H 1172.63 3.794 5.35156 0
M  V30 12010 H 1172.55 5.51563 5.17024 0
M  V30 12011 H 1173.82 4.81433 6.1306 0
M  V30 12012 N 1178.05 -0.61812 1.44973 0
M  V30 12013 C 1179.29 -1.37343 1.47715 0
M  V30 12014 C 1179.61 -1.95239 0.118784 0
M  V30 12015 O 1180.81 -2.7149 0.0237981 0
M  V30 12016 C 1179.27 -2.48732 2.60116 0
M  V30 12017 C 1178.88 -1.97294 4.02218 0
M  V30 12018 C 1180.62 -3.25831 2.72093 0
M  V30 12019 C 1178.53 -3.06102 5.06019 0
M  V30 12020 H 1177.46 -0.516175 0.549617 0
M  V30 12021 H 1180.11 -0.663617 1.7108 0
M  V30 12022 H 1178.49 -3.2235 2.30014 0
M  V30 12023 H 1179.67 -1.30455 4.41948 0
M  V30 12024 H 1177.98 -1.32972 3.94598 0
M  V30 12025 H 1180.58 -4.06968 3.46815 0
M  V30 12026 H 1180.92 -3.76156 1.7836 0
M  V30 12027 H 1181.45 -2.59309 3.01668 0
M  V30 12028 H 1178.19 -2.60706 6.01426 0
M  V30 12029 H 1177.71 -3.71541 4.70869 0
M  V30 12030 H 1179.39 -3.70662 5.30301 0
M  V30 12031 N 1179.52 -1.32087 -0.859693 0
M  V30 12032 C 1180.76 -1.23671 -1.62742 0
M  V30 12033 C 1181.13 0.19966 -1.90959 0
M  V30 12034 O 1182.33 0.407478 -2.65694 0
M  V30 12035 C 1180.6 -2.06736 -2.91539 0
M  V30 12036 S 1182.16 -2.15292 -3.82354 0
M  V30 12037 H 1178.98 -0.440306 -0.558258 0
M  V30 12038 H 1181.58 -1.66875 -1.01848 0
M  V30 12039 H 1180.28 -3.10166 -2.68747 0
M  V30 12040 H 1179.81 -1.64291 -3.57452 0
M  V30 12041 H 1181.83 -1.29874 -4.78902 0
M  V30 12042 N 1181 1.07532 -1.15215 0
M  V30 12043 C 1181.95 2.16785 -0.843022 0
M  V30 12044 C 1182.94 1.68411 0.182802 0
M  V30 12045 O 1184.15 1.7996 0.0380164 0
M  V30 12046 H 1180.52 0.707465 -0.254945 0
M  V30 12047 H 1182.5 2.40078 -1.77215 0
M  V30 12048 C 1181.24 3.45967 -0.346699 0
M  V30 12049 H 1180.57 3.83574 -1.12744 0
M  V30 12050 H 1182.01 4.23663 -0.169039 0
M  V30 12051 C 1180.47 3.23768 0.931437 0
M  V30 12052 O 1181 3.48179 2.00336 0
M  V30 12053 N 1179.2 2.77264 0.870217 0
M  V30 12054 H 1178.75 2.576 -0.00226223 0
M  V30 12055 H 1178.71 2.6279 1.72594 0
M  V30 12056 N 1182.48 0.948665 1.2585 0
M  V30 12057 C 1183.43 0.462904 2.2611 0
M  V30 12058 C 1184.4 -0.481433 1.5897 0
M  V30 12059 O 1185.58 -0.395997 1.86645 0
M  V30 12060 C 1182.72 -0.258808 3.44128 0
M  V30 12061 C 1181.84 0.722072 4.25923 0
M  V30 12062 C 1180.97 -0.0215958 5.31196 0
M  V30 12063 C 1180.01 0.950612 6.04673 0
M  V30 12064 N 1179.15 0.238209 7.01696 0
M  V30 12065 H 1183.99 1.32279 2.67032 0
M  V30 12066 H 1181.52 0.663485 1.31287 0
M  V30 12067 H 1183.48 -0.693759 4.11391 0
M  V30 12068 H 1182.11 -1.08278 3.04098 0
M  V30 12069 H 1181.16 1.27552 3.58378 0
M  V30 12070 H 1182.48 1.46421 4.76825 0
M  V30 12071 H 1181.63 -0.51547 6.04506 0
M  V30 12072 H 1180.37 -0.796563 4.81151 0
M  V30 12073 H 1179.37 1.45554 5.30183 0
M  V30 12074 H 1180.6 1.72571 6.56808 0
M  V30 12075 H 1178.54 -0.518129 6.53951 0
M  V30 12076 H 1178.46 0.919542 7.50387 0
M  V30 12077 H 1179.73 -0.234325 7.79148 0
M  V30 12078 N 1183.96 -1.40369 0.716545 0
M  V30 12079 C 1184.89 -2.33365 0.0793533 0
M  V30 12080 C 1185.87 -1.52943 -0.744482 0
M  V30 12081 O 1187.05 -1.81406 -0.693212 0
M  V30 12082 C 1184.18 -3.36928 -0.842429 0
M  V30 12083 C 1183.14 -4.2782 -0.124142 0
M  V30 12084 C 1182.46 -5.21928 -1.1617 0
M  V30 12085 C 1183.76 -5.12199 1.02224 0
M  V30 12086 H 1185.46 -2.86899 0.856115 0
M  V30 12087 H 1183 -1.37946 0.413138 0
M  V30 12088 H 1184.96 -4.00925 -1.29759 0
M  V30 12089 H 1183.68 -2.81791 -1.6511 0
M  V30 12090 H 1182.34 -3.65277 0.311201 0
M  V30 12091 H 1181.99 -4.63096 -1.96345 0
M  V30 12092 H 1181.69 -5.83582 -0.685978 0
M  V30 12093 H 1183.21 -5.88802 -1.61694 0
M  V30 12094 H 1184.63 -5.69644 0.646399 0
M  V30 12095 H 1183.02 -5.82901 1.4264 0
M  V30 12096 H 1184.09 -4.4812 1.85246 0
M  V30 12097 N 1185.44 -0.462799 -1.50652 0
M  V30 12098 C 1186.68 0.0951853 -2.02576 0
M  V30 12099 C 1187.02 1.40113 -1.34469 0
M  V30 12100 O 1186.29 1.88793 -0.467702 0
M  V30 12101 C 1186.57 0.287603 -3.5895 0
M  V30 12102 C 1186.43 -1.03878 -4.37641 0
M  V30 12103 C 1187.75 1.04593 -4.27491 0
M  V30 12104 H 1184.86 0.0331191 -0.736255 0
M  V30 12105 H 1187.51 -0.606772 -1.80051 0
M  V30 12106 H 1185.66 0.885514 -3.78274 0
M  V30 12107 H 1187.33 -1.67263 -4.29908 0
M  V30 12108 H 1185.57 -1.6374 -4.01711 0
M  V30 12109 H 1186.24 -0.857889 -5.45293 0
M  V30 12110 H 1188.72 0.539213 -4.12591 0
M  V30 12111 H 1187.59 1.14935 -5.36732 0
M  V30 12112 H 1187.86 2.08045 -3.90089 0
M  V30 12113 N 1186.91 1.56388 -0.195085 0
M  V30 12114 C 1188.16 1.97872 0.444344 0
M  V30 12115 C 1188.49 1.0819 1.61271 0
M  V30 12116 O 1187.77 0.133904 1.94039 0
M  V30 12117 C 1188.05 3.48556 0.90449 0
M  V30 12118 C 1187.9 4.49015 -0.265693 0
M  V30 12119 C 1189.22 4.02938 1.76999 0
M  V30 12120 H 1186.34 0.719413 0.160041 0
M  V30 12121 H 1188.98 1.87835 -0.286005 0
M  V30 12122 H 1187.13 3.5724 1.52682 0
M  V30 12123 H 1188.81 4.52368 -0.903363 0
M  V30 12124 H 1187.05 4.23987 -0.917462 0
M  V30 12125 H 1187.72 5.51912 0.0987834 0
M  V30 12126 H 1190.2 3.97033 1.24514 0
M  V30 12127 H 1189.07 5.08741 2.06092 0
M  V30 12128 H 1189.33 3.48197 2.72418 0
M  V30 12129 N 1188.39 -0.0785156 1.57404 0
M  V30 12130 C 1189.67 -0.811557 1.77969 0
M  V30 12131 C 1190.05 -1.96123 0.780966 0
M  V30 12132 O 1189.4 -2.27731 -0.18726 0
M  V30 12133 C 1189.61 -1.29075 3.24254 0
M  V30 12134 C 1190.96 -1.72685 3.87898 0
M  V30 12135 O 1191.98 -1.38658 3.28104 0
M  V30 12136 O 1190.84 -2.3566 4.93079 0
M  V30 12137 H 1187.93 -0.388361 0.73014 0
M  V30 12138 H 1190.48 -0.0591118 1.69597 0
M  V30 12139 H 1189.25 -0.467813 3.88494 0
M  V30 12140 H 1188.87 -2.10472 3.37324 0
M  V30 12141 N 1189.87 -1.5367 -0.349747 0
M  V30 12142 C 1191.12 -1.70281 -1.08853 0
M  V30 12143 C 1191.44 -0.465438 -1.89364 0
M  V30 12144 O 1190.71 0.520615 -1.88856 0
M  V30 12145 H 1189.29 -0.627775 -0.404854 0
M  V30 12146 H 1191.95 -1.90906 -0.392523 0
M  V30 12147 H 1191.05 -2.57096 -1.76941 0
M  V30 12148 N 1191.35 0.610423 -1.45298 0
M  V30 12149 C 1192.28 1.73507 -1.4976 0
M  V30 12150 C 1193.29 1.58092 -0.38867 0
M  V30 12151 O 1194.48 1.66026 -0.655571 0
M  V30 12152 C 1191.58 3.11475 -1.33554 0
M  V30 12153 C 1190.76 3.53156 -2.5807 0
M  V30 12154 C 1189.81 4.70076 -2.36463 0
M  V30 12155 O 1188.84 4.77337 -3.10061 0
M  V30 12156 N 1190.04 5.63155 -1.40843 0
M  V30 12157 H 1192.81 1.70144 -2.46721 0
M  V30 12158 H 1190.37 0.79562 -1.41002 0
M  V30 12159 H 1192.36 3.87444 -1.16914 0
M  V30 12160 H 1190.93 3.09361 -0.448803 0
M  V30 12161 H 1190.15 2.67178 -2.89844 0
M  V30 12162 H 1191.44 3.77761 -3.40843 0
M  V30 12163 H 1190.84 5.60001 -0.800982 0
M  V30 12164 H 1189.39 6.38669 -1.30175 0
M  V30 12165 N 1192.83 1.32541 0.852676 0
M  V30 12166 C 1194.08 1.22567 1.60188 0
M  V30 12167 C 1194.39 -0.210594 1.94463 0
M  V30 12168 O 1195.59 -0.432214 2.68038 0
M  V30 12169 C 1194.05 2.14678 2.88862 0
M  V30 12170 C 1193.66 3.63398 2.62004 0
M  V30 12171 C 1195.4 2.13545 3.66877 0
M  V30 12172 C 1193.31 4.47464 3.86691 0
M  V30 12173 H 1192.24 0.455184 0.601102 0
M  V30 12174 H 1194.89 1.57515 0.941347 0
M  V30 12175 H 1193.27 1.72647 3.56383 0
M  V30 12176 H 1194.45 4.13783 2.02782 0
M  V30 12177 H 1192.76 3.66681 1.97316 0
M  V30 12178 H 1195.36 2.73589 4.59405 0
M  V30 12179 H 1195.7 1.12694 4.00756 0
M  V30 12180 H 1196.23 2.53866 3.06263 0
M  V30 12181 H 1192.97 5.49136 3.57952 0
M  V30 12182 H 1192.49 4.01829 4.45302 0
M  V30 12183 H 1194.17 4.60565 4.5441 0
M  V30 12184 N 1194.3 -1.0692 1.15784 0
M  V30 12185 C 1195.53 -1.83045 0.958031 0
M  V30 12186 C 1195.94 -1.82555 -0.497027 0
M  V30 12187 O 1195.29 -1.23864 -1.35659 0
M  V30 12188 C 1195.35 -3.31096 1.40056 0
M  V30 12189 C 1195.01 -3.55299 2.87423 0
M  V30 12190 C 1196.01 -3.48875 3.85463 0
M  V30 12191 C 1193.69 -3.82824 3.25194 0
M  V30 12192 C 1195.69 -3.69633 5.19279 0
M  V30 12193 C 1193.37 -4.03232 4.59181 0
M  V30 12194 C 1194.37 -3.96633 5.56032 0
M  V30 12195 O 1194.06 -4.16492 6.87597 0
M  V30 12196 H 1193.79 -0.584218 0.340095 0
M  V30 12197 H 1196.35 -1.35841 1.54066 0
M  V30 12198 H 1194.58 -3.79131 0.761361 0
M  V30 12199 H 1196.27 -3.88697 1.16916 0
M  V30 12200 H 1197.03 -3.27608 3.57629 0
M  V30 12201 H 1192.91 -3.87073 2.50391 0
M  V30 12202 H 1196.45 -3.64398 5.94861 0
M  V30 12203 H 1192.35 -4.23988 4.86729 0
M  V30 12204 H 1193.12 -4.33815 6.9408 0
M  V30 12205 N 1195.78 -0.955326 -1.25345 0
M  V30 12206 C 1197.03 -0.609278 -1.92697 0
M  V30 12207 C 1197.35 0.856535 -1.75181 0
M  V30 12208 O 1196.62 1.61013 -1.11587 0
M  V30 12209 H 1195.2 -0.22235 -0.713141 0
M  V30 12210 H 1197.86 -1.21372 -1.52496 0
M  V30 12211 H 1196.96 -0.839198 -3.00606 0
M  V30 12212 N 1197.26 1.39987 -0.723979 0
M  V30 12213 C 1198.51 2.00334 -0.266587 0
M  V30 12214 C 1198.83 1.57714 1.14679 0
M  V30 12215 O 1198.1 0.82037 1.77895 0
M  V30 12216 H 1196.68 0.740861 -0.095573 0
M  V30 12217 H 1199.34 1.712 -0.931481 0
M  V30 12218 H 1198.44 3.10594 -0.306282 0
M  V30 12219 N 1198.74 0.470782 1.50404 0
M  V30 12220 C 1199.67 -0.313458 2.31386 0
M  V30 12221 C 1200.65 -0.990623 1.38278 0
M  V30 12222 O 1201.84 -0.987854 1.67198 0
M  V30 12223 C 1198.97 -1.39599 3.18009 0
M  V30 12224 C 1197.92 -0.840443 4.19667 0
M  V30 12225 C 1197.25 -2.02124 4.95025 0
M  V30 12226 C 1198.55 0.148055 5.2209 0
M  V30 12227 H 1200.24 0.362432 2.97198 0
M  V30 12228 H 1197.79 0.175745 1.42924 0
M  V30 12229 H 1199.74 -1.9521 3.73458 0
M  V30 12230 H 1198.46 -2.10064 2.50081 0
M  V30 12231 H 1197.12 -0.306302 3.65318 0
M  V30 12232 H 1196.77 -2.71286 4.23571 0
M  V30 12233 H 1196.47 -1.65574 5.6379 0
M  V30 12234 H 1197.99 -2.58226 5.5331 0
M  V30 12235 H 1199.41 -0.318874 5.72413 0
M  V30 12236 H 1197.8 0.427811 5.98573 0
M  V30 12237 H 1198.87 1.07404 4.72855 0
M  V30 12238 N 1200.22 -1.56282 0.203376 0
M  V30 12239 C 1201.18 -2.18233 -0.700489 0
M  V30 12240 C 1202.18 -1.13908 -1.13497 0
M  V30 12241 O 1203.37 -1.39246 -1.04672 0
M  V30 12242 C 1200.5 -2.79107 -1.95735 0
M  V30 12243 H 1201.7 -2.99469 -0.160649 0
M  V30 12244 H 1199.25 -1.56232 -0.0462475 0
M  V30 12245 H 1199.98 -2.01691 -2.53951 0
M  V30 12246 H 1199.77 -3.55486 -1.65446 0
M  V30 12247 H 1201.26 -3.2665 -2.60172 0
M  V30 12248 N 1201.7 0.070167 -1.57444 0
M  V30 12249 C 1202.63 1.10996 -2.0053 0
M  V30 12250 C 1203.64 1.3489 -0.91151 0
M  V30 12251 O 1204.83 1.33102 -1.18938 0
M  V30 12252 C 1201.93 2.46053 -2.33048 0
M  V30 12253 C 1201.1 2.42092 -3.64294 0
M  V30 12254 C 1200.16 3.5927 -3.84463 0
M  V30 12255 O 1199.19 3.40625 -4.5603 0
M  V30 12256 N 1200.39 4.79677 -3.26941 0
M  V30 12257 H 1203.15 0.743029 -2.90343 0
M  V30 12258 H 1200.72 0.258794 -1.59818 0
M  V30 12259 H 1202.71 3.23089 -2.43712 0
M  V30 12260 H 1201.28 2.74742 -1.49116 0
M  V30 12261 H 1200.5 1.5043 -3.64368 0
M  V30 12262 H 1201.79 2.36548 -4.50469 0
M  V30 12263 H 1201.18 4.97729 -2.68855 0
M  V30 12264 H 1199.74 5.54219 -3.43051 0
M  V30 12265 N 1203.17 1.53854 0.341593 0
M  V30 12266 C 1204.42 1.70856 1.07948 0
M  V30 12267 C 1204.74 0.475474 1.89114 0
M  V30 12268 O 1204.01 -0.510592 1.89129 0
M  V30 12269 H 1202.59 0.629914 0.401519 0
M  V30 12270 H 1205.25 1.91112 0.382393 0
M  V30 12271 H 1204.35 2.5803 1.75575 0
M  V30 12272 N 1204.65 -0.602709 1.4562 0
M  V30 12273 C 1205.9 -1.36359 1.50113 0
M  V30 12274 C 1206.23 -1.93663 0.144297 0
M  V30 12275 O 1205.51 -1.75337 -0.841851 0
M  V30 12276 C 1205.79 -2.50788 2.58413 0
M  V30 12277 C 1205.64 -1.98649 4.03557 0
M  V30 12278 C 1206.96 -3.52905 2.62957 0
M  V30 12279 H 1204.08 -0.494455 0.54652 0
M  V30 12280 H 1206.72 -0.678957 1.77455 0
M  V30 12281 H 1204.87 -3.09191 2.3523 0
M  V30 12282 H 1206.54 -1.44857 4.37966 0
M  V30 12283 H 1204.79 -1.29615 4.13984 0
M  V30 12284 H 1205.46 -2.81159 4.7503 0
M  V30 12285 H 1207.93 -3.0435 2.83743 0
M  V30 12286 H 1206.81 -4.30454 3.40589 0
M  V30 12287 H 1207.07 -4.0884 1.68233 0
M  V30 12288 N 1206.13 -1.32992 -0.845635 0
M  V30 12289 C 1207.38 -1.2382 -1.59728 0
M  V30 12290 C 1207.7 0.197724 -1.93995 0
M  V30 12291 O 1206.97 1.12477 -1.60392 0
M  V30 12292 H 1205.55 -0.455296 -0.592212 0
M  V30 12293 H 1208.21 -1.66627 -1.01101 0
M  V30 12294 H 1207.31 -1.82717 -2.53023 0
M  V30 12295 N 1207.61 1.06304 -1.1635 0
M  V30 12296 C 1208.54 2.15745 -0.893103 0
M  V30 12297 C 1209.52 1.69341 0.160531 0
M  V30 12298 O 1210.7 1.94196 0.0126526 0
M  V30 12299 C 1207.83 3.45066 -0.393287 0
M  V30 12300 C 1206.79 4.04978 -1.38482 0
M  V30 12301 C 1206.11 5.29507 -0.743409 0
M  V30 12302 C 1207.41 4.4377 -2.75438 0
M  V30 12303 H 1209.11 2.38622 -1.80831 0
M  V30 12304 H 1206.65 1.14681 -0.870878 0
M  V30 12305 H 1208.61 4.20964 -0.191607 0
M  V30 12306 H 1207.33 3.21808 0.557426 0
M  V30 12307 H 1205.99 3.31136 -1.57304 0
M  V30 12308 H 1205.64 5.02545 0.213787 0
M  V30 12309 H 1205.34 5.7055 -1.40521 0
M  V30 12310 H 1206.86 6.08102 -0.551746 0
M  V30 12311 H 1208.28 5.1075 -2.60398 0
M  V30 12312 H 1206.67 4.95797 -3.38091 0
M  V30 12313 H 1207.74 3.54636 -3.30699 0
M  V30 12314 N 1209.09 0.96196 1.24836 0
M  V30 12315 C 1210.05 0.492443 2.23847 0
M  V30 12316 C 1211.05 -0.40788 1.55541 0
M  V30 12317 O 1212.24 -0.204143 1.73 0
M  V30 12318 C 1209.37 -0.287578 3.39685 0
M  V30 12319 H 1210.56 1.36767 2.66899 0
M  V30 12320 H 1208.12 0.745967 1.3735 0
M  V30 12321 H 1208.85 -1.18015 3.02064 0
M  V30 12322 H 1208.64 0.358431 3.90458 0
M  V30 12323 H 1210.13 -0.605297 4.1319 0
M  V30 12324 N 1210.56 -1.39601 0.731392 0
M  V30 12325 C 1211.49 -2.33268 0.1041 0
M  V30 12326 C 1212.47 -1.53724 -0.728219 0
M  V30 12327 O 1213.66 -1.82131 -0.673933 0
M  V30 12328 C 1210.79 -3.37802 -0.806646 0
M  V30 12329 C 1209.74 -4.27928 -0.0787588 0
M  V30 12330 C 1209.07 -5.23131 -1.10628 0
M  V30 12331 C 1210.37 -5.11086 1.07651 0
M  V30 12332 H 1212.06 -2.85975 0.886496 0
M  V30 12333 H 1209.61 -1.375 0.427746 0
M  V30 12334 H 1211.56 -4.02278 -1.25499 0
M  V30 12335 H 1210.29 -2.83527 -1.62112 0
M  V30 12336 H 1208.95 -3.64926 0.349926 0
M  V30 12337 H 1208.59 -4.65152 -1.91422 0
M  V30 12338 H 1208.29 -5.84277 -0.624043 0
M  V30 12339 H 1209.82 -5.90483 -1.5544 0
M  V30 12340 H 1211.23 -5.68927 0.706781 0
M  V30 12341 H 1209.63 -5.81356 1.48814 0
M  V30 12342 H 1210.7 -4.46131 1.89988 0
M  V30 12343 N 1212.04 -0.478751 -1.50152 0
M  V30 12344 C 1213.27 0.0732929 -2.0727 0
M  V30 12345 C 1213.69 1.32066 -1.33941 0
M  V30 12346 O 1213.05 1.7707 -0.389367 0
M  V30 12347 C 1213.1 0.332528 -3.59064 0
M  V30 12348 O 1212.2 1.41158 -3.8749 0
M  V30 12349 H 1211.54 -0.0163684 -0.663798 0
M  V30 12350 H 1214.07 -0.671993 -1.9325 0
M  V30 12351 H 1214.08 0.570735 -4.03988 0
M  V30 12352 H 1212.76 -0.578934 -4.11851 0
M  V30 12353 H 1211.34 1.16008 -3.54396 0
M  V30 12354 N 1213.52 1.56172 -0.211661 0
M  V30 12355 C 1214.43 2.23468 0.714081 0
M  V30 12356 C 1215.45 1.23908 1.22159 0
M  V30 12357 O 1216.62 1.56693 1.26528 0
M  V30 12358 C 1213.69 2.89375 1.90953 0
M  V30 12359 C 1212.75 4.04251 1.44497 0
M  V30 12360 C 1211.98 4.67006 2.58343 0
M  V30 12361 O 1212.2 4.28721 3.76237 0
M  V30 12362 O 1211.14 5.56177 2.3011 0
M  V30 12363 H 1214.96 3.03219 0.170862 0
M  V30 12364 H 1212.55 1.49389 0.0183607 0
M  V30 12365 H 1214.43 3.3101 2.60787 0
M  V30 12366 H 1213.11 2.12591 2.44104 0
M  V30 12367 H 1212.01 3.67205 0.714932 0
M  V30 12368 H 1213.35 4.82748 0.959947 0
M  V30 12369 N 1215 -0.0618163 1.57479 0
M  V30 12370 C 1216.28 -0.792636 1.7882 0
M  V30 12371 C 1216.66 -1.95283 0.801724 0
M  V30 12372 O 1216 -2.27917 -0.163095 0
M  V30 12373 C 1216.21 -1.25629 3.25605 0
M  V30 12374 C 1217.56 -1.68561 3.89708 0
M  V30 12375 O 1218.59 -1.35171 3.29556 0
M  V30 12376 O 1217.44 -2.30417 4.95551 0
M  V30 12377 H 1214.54 -0.380595 0.734218 0
M  V30 12378 H 1217.08 -0.0411205 1.6965 0
M  V30 12379 H 1215.86 -0.426582 3.88968 0
M  V30 12380 H 1215.48 -2.06882 3.39537 0
M  V30 12381 N 1216.48 -1.54033 -0.333429 0
M  V30 12382 C 1217.71 -1.75461 -1.09073 0
M  V30 12383 C 1218.11 -0.498488 -1.82515 0
M  V30 12384 O 1217.46 0.540029 -1.75583 0
M  V30 12385 C 1217.52 -2.88744 -2.14166 0
M  V30 12386 C 1217.18 -4.27998 -1.60209 0
M  V30 12387 C 1218.18 -5.09206 -1.04907 0
M  V30 12388 C 1215.87 -4.74513 -1.6475 0
M  V30 12389 C 1217.86 -6.35035 -0.548615 0
M  V30 12390 C 1215.55 -6.00312 -1.14318 0
M  V30 12391 C 1216.54 -6.80406 -0.594667 0
M  V30 12392 O 1216.23 -8.0384 -0.097891 0
M  V30 12393 H 1215.96 -0.589586 -0.330702 0
M  V30 12394 H 1218.52 -2.01697 -0.388274 0
M  V30 12395 H 1216.75 -2.58057 -2.87999 0
M  V30 12396 H 1218.44 -2.98048 -2.7554 0
M  V30 12397 H 1219.2 -4.74428 -1.00713 0
M  V30 12398 H 1215.08 -4.12222 -2.06384 0
M  V30 12399 H 1218.63 -6.97497 -0.119823 0
M  V30 12400 H 1214.52 -6.34583 -1.18215 0
M  V30 12401 H 1215.29 -8.1822 -0.214237 0
M  V30 12402 N 1217.95 0.594978 -1.45938 0
M  V30 12403 C 1218.86 1.73296 -1.58132 0
M  V30 12404 C 1219.88 1.67665 -0.465245 0
M  V30 12405 O 1221.06 1.87794 -0.727684 0
M  V30 12406 C 1218.12 3.09783 -1.55677 0
M  V30 12407 C 1217.18 3.26772 -2.78422 0
M  V30 12408 C 1216.42 4.56748 -2.76075 0
M  V30 12409 O 1216.64 5.39867 -1.84119 0
M  V30 12410 O 1215.57 4.76721 -3.67452 0
M  V30 12411 H 1219.4 1.65957 -2.54346 0
M  V30 12412 H 1216.98 0.760572 -1.28591 0
M  V30 12413 H 1218.87 3.91077 -1.56961 0
M  V30 12414 H 1217.54 3.17585 -0.626191 0
M  V30 12415 H 1216.45 2.45018 -2.82696 0
M  V30 12416 H 1217.78 3.23853 -3.70648 0
M  V30 12417 N 1219.43 1.33438 0.838571 0
M  V30 12418 C 1220.71 1.1551 1.5785 0
M  V30 12419 C 1221.09 -0.278405 2.09256 0
M  V30 12420 O 1220.44 -1.27748 1.89453 0
M  V30 12421 C 1220.65 2.19647 2.71212 0
M  V30 12422 C 1222 2.53818 3.40384 0
M  V30 12423 O 1223.02 2.18317 2.81454 0
M  V30 12424 O 1221.88 3.14741 4.46766 0
M  V30 12425 H 1218.97 0.446785 0.695925 0
M  V30 12426 H 1221.52 1.45021 0.8813 0
M  V30 12427 H 1220.29 3.15936 2.30869 0
M  V30 12428 H 1219.91 1.91224 3.48596 0
M  V30 12429 N 1220.91 -1.05686 1.16912 0
M  V30 12430 C 1221.84 -2.15268 0.904532 0
M  V30 12431 C 1222.82 -1.69424 -0.151548 0
M  V30 12432 O 1224.01 -1.942 -0.00235371 0
M  V30 12433 C 1221.14 -3.44853 0.411581 0
M  V30 12434 C 1220.09 -4.04237 1.40628 0
M  V30 12435 C 1219.42 -5.29105 0.771479 0
M  V30 12436 C 1220.72 -4.42303 2.77787 0
M  V30 12437 H 1222.41 -2.37659 1.82094 0
M  V30 12438 H 1219.96 -1.14217 0.876947 0
M  V30 12439 H 1221.91 -4.20857 0.213929 0
M  V30 12440 H 1220.63 -3.22099 -0.540352 0
M  V30 12441 H 1219.29 -3.30297 1.59058 0
M  V30 12442 H 1218.94 -5.02652 -0.187133 0
M  V30 12443 H 1218.64 -5.69797 1.43545 0
M  V30 12444 H 1220.16 -6.07801 0.583988 0
M  V30 12445 H 1221.58 -5.09362 2.63103 0
M  V30 12446 H 1219.98 -4.93997 3.40716 0
M  V30 12447 H 1221.05 -3.52877 3.32575 0
M  V30 12448 N 1222.39 -0.968567 -1.24324 0
M  V30 12449 C 1223.34 -0.498817 -2.25345 0
M  V30 12450 C 1224.31 0.456082 -1.59716 0
M  V30 12451 O 1225.49 0.366254 -1.87252 0
M  V30 12452 C 1222.63 0.204027 -3.44496 0
M  V30 12453 C 1221.74 -0.789741 -4.2472 0
M  V30 12454 C 1220.88 -0.0629156 -5.31163 0
M  V30 12455 C 1219.92 -1.04669 -6.03084 0
M  V30 12456 N 1219.05 -0.349812 -7.01228 0
M  V30 12457 H 1223.89 -1.36511 -2.64894 0
M  V30 12458 H 1221.43 -0.684288 -1.30215 0
M  V30 12459 H 1223.39 0.628223 -4.12443 0
M  V30 12460 H 1222.02 1.03426 -3.05782 0
M  V30 12461 H 1221.07 -1.33237 -3.56303 0
M  V30 12462 H 1222.38 -1.53988 -4.74436 0
M  V30 12463 H 1221.54 0.419233 -6.0525 0
M  V30 12464 H 1220.28 0.719915 -4.82357 0
M  V30 12465 H 1219.28 -1.53971 -5.278 0
M  V30 12466 H 1220.51 -1.82998 -6.53979 0
M  V30 12467 H 1218.45 0.414026 -6.54692 0
M  V30 12468 H 1218.37 -1.03881 -7.48829 0
M  V30 12469 H 1219.64 0.11034 -7.79422 0
M  V30 12470 N 1223.87 1.39211 -0.738786 0
M  V30 12471 C 1224.81 2.30578 -0.10129 0
M  V30 12472 C 1225.78 1.49412 0.725616 0
M  V30 12473 O 1226.97 1.78087 0.684799 0
M  V30 12474 C 1224.11 3.35767 0.797161 0
M  V30 12475 C 1223.22 4.31979 -0.0427701 0
M  V30 12476 C 1222.36 5.24236 0.857306 0
M  V30 12477 C 1221.4 6.12099 0.0128501 0
M  V30 12478 N 1220.53 6.96701 0.869067 0
M  V30 12479 H 1225.37 2.84522 -0.88606 0
M  V30 12480 H 1222.91 1.40093 -0.448602 0
M  V30 12481 H 1224.87 3.95347 1.33255 0
M  V30 12482 H 1223.5 2.83268 1.54787 0
M  V30 12483 H 1222.55 3.73986 -0.695622 0
M  V30 12484 H 1223.86 4.93927 -0.69555 0
M  V30 12485 H 1223.02 5.88861 1.4604 0
M  V30 12486 H 1221.75 4.62619 1.54386 0
M  V30 12487 H 1220.76 5.46483 -0.603018 0
M  V30 12488 H 1221.98 6.75781 -0.67054 0
M  V30 12489 H 1219.93 6.37647 1.54084 0
M  V30 12490 H 1219.85 7.55507 0.272852 0
M  V30 12491 H 1221.12 7.65751 1.4576 0
M  V30 12492 N 1225.34 0.486708 1.49896 0
M  V30 12493 C 1226.29 -0.318255 2.25768 0
M  V30 12494 C 1227.28 -0.94799 1.30008 0
M  V30 12495 O 1228.47 -0.857954 1.54816 0
M  V30 12496 C 1225.6 -1.39057 3.13876 0
M  V30 12497 C 1224.69 -0.767787 4.17092 0
M  V30 12498 N 1225.08 0.121163 5.05655 0
M  V30 12499 C 1223.37 -1.02999 4.33944 0
M  V30 12500 C 1224.08 0.47621 5.79747 0
M  V30 12501 N 1223.05 -0.152422 5.43386 0
M  V30 12502 H 1226.85 0.366294 2.91608 0
M  V30 12503 H 1224.37 0.301852 1.5957 0
M  V30 12504 H 1226.36 -1.98056 3.6685 0
M  V30 12505 H 1225.02 -2.07694 2.49586 0
M  V30 12506 H 1226.04 0.491043 5.15567 0
M  V30 12507 H 1222.71 -1.71018 3.80866 0
M  V30 12508 H 1224.1 1.20262 6.6105 0
M  V30 12509 N 1226.82 -1.56058 0.219941 0
M  V30 12510 C 1228.05 -2.031 -0.42014 0
M  V30 12511 C 1228.47 -1.09875 -1.52673 0
M  V30 12512 O 1227.83 -0.0866458 -1.81093 0
M  V30 12513 C 1227.88 -3.48389 -0.93047 0
M  V30 12514 O 1226.98 -3.583 -2.04192 0
M  V30 12515 H 1226.32 -0.657129 -0.0952772 0
M  V30 12516 H 1228.85 -2.01787 0.338105 0
M  V30 12517 H 1228.86 -3.88678 -1.2407 0
M  V30 12518 H 1227.54 -4.15725 -0.120539 0
M  V30 12519 H 1226.12 -3.29898 -1.73845 0
M  V30 12520 N 1228.3 0.053464 -1.57509 0
M  V30 12521 C 1229.53 0.761533 -1.92375 0
M  V30 12522 C 1229.94 1.70179 -0.817585 0
M  V30 12523 O 1229.3 1.81313 0.207843 0
M  V30 12524 C 1229.35 1.53954 -3.27078 0
M  V30 12525 O 1229.07 0.637054 -4.33443 0
M  V30 12526 C 1230.57 2.34697 -3.76075 0
M  V30 12527 H 1227.79 0.215483 -0.635459 0
M  V30 12528 H 1230.34 0.0182624 -2.04492 0
M  V30 12529 H 1228.49 2.23492 -3.16434 0
M  V30 12530 H 1228.91 1.18006 -5.11053 0
M  V30 12531 H 1230.38 2.84716 -4.72906 0
M  V30 12532 H 1230.86 3.15041 -3.06016 0
M  V30 12533 H 1231.46 1.70281 -3.89724 0
M  V30 12534 N 1229.78 1.54207 0.325255 0
M  V30 12535 C 1230.71 1.78318 1.42401 0
M  V30 12536 C 1231.69 0.633078 1.49769 0
M  V30 12537 O 1232.87 0.870324 1.67205 0
M  V30 12538 C 1230 1.89823 2.80509 0
M  V30 12539 C 1229.05 3.12102 2.9068 0
M  V30 12540 S 1229.88 4.70746 2.55262 0
M  V30 12541 C 1231.04 4.85154 3.95444 0
M  V30 12542 H 1231.27 2.71234 1.21736 0
M  V30 12543 H 1228.8 1.45309 0.521993 0
M  V30 12544 H 1230.76 1.97136 3.60066 0
M  V30 12545 H 1229.42 0.978873 2.98458 0
M  V30 12546 H 1228.61 3.16881 3.91921 0
M  V30 12547 H 1228.22 3.03109 2.19091 0
M  V30 12548 H 1230.51 4.67687 4.90178 0
M  V30 12549 H 1231.45 5.87254 3.95649 0
M  V30 12550 H 1231.86 4.13471 3.8432 0
M  V30 12551 N 1231.26 -0.58723 1.46251 0
M  V30 12552 C 1232.51 -1.34294 1.51028 0
M  V30 12553 C 1232.83 -1.94329 0.161623 0
M  V30 12554 O 1232.1 -1.78309 -0.811342 0
M  V30 12555 H 1230.68 -0.498607 0.556238 0
M  V30 12556 H 1233.34 -0.688074 1.8235 0
M  V30 12557 H 1232.43 -2.15197 2.26045 0
M  V30 12558 N 1232.74 -1.33881 -0.831482 0
M  V30 12559 C 1233.98 -1.25507 -1.58406 0
M  V30 12560 C 1234.3 0.177137 -1.94194 0
M  V30 12561 O 1233.57 1.10769 -1.61576 0
M  V30 12562 H 1232.15 -0.461551 -0.587349 0
M  V30 12563 H 1234.82 -1.6769 -0.99328 0
M  V30 12564 H 1233.91 -1.85391 -2.51071 0
M  V30 12565 N 1234.21 1.05064 -1.1747 0
M  V30 12566 C 1235.18 2.1101 -0.89485 0
M  V30 12567 C 1236.18 1.60384 0.11553 0
M  V30 12568 O 1237.37 1.73808 -0.116785 0
M  V30 12569 C 1234.5 3.39194 -0.340642 0
M  V30 12570 H 1235.69 2.37269 -1.83421 0
M  V30 12571 H 1233.24 1.21329 -0.985343 0
M  V30 12572 H 1233.98 3.18591 0.605808 0
M  V30 12573 H 1233.76 3.77251 -1.06885 0
M  V30 12574 H 1235.25 4.17281 -0.163204 0
M  V30 12575 N 1235.69 0.975146 1.23809 0
M  V30 12576 C 1236.94 0.639858 1.91704 0
M  V30 12577 C 1237.26 -0.828557 1.76522 0
M  V30 12578 O 1236.53 -1.59217 1.14135 0
M  V30 12579 H 1235.11 0.233667 0.709513 0
M  V30 12580 H 1237.77 1.23782 1.50545 0
M  V30 12581 H 1236.87 0.886915 2.99233 0
M  V30 12582 N 1237.17 -1.38817 0.746158 0
M  V30 12583 C 1238.42 -1.99519 0.295839 0
M  V30 12584 C 1238.73 -1.59897 -1.12661 0
M  V30 12585 O 1239.94 -2.13514 -1.67702 0
M  V30 12586 C 1238.39 -3.56712 0.477984 0
M  V30 12587 C 1238 -4.0529 1.90904 0
M  V30 12588 C 1239.75 -4.24405 0.0900039 0
M  V30 12589 C 1237.65 -5.55097 2.04014 0
M  V30 12590 H 1236.58 -0.746389 0.106861 0
M  V30 12591 H 1239.23 -1.58676 0.921637 0
M  V30 12592 H 1237.62 -3.95406 -0.216884 0
M  V30 12593 H 1238.79 -3.77904 2.63677 0
M  V30 12594 H 1237.1 -3.50297 2.25125 0
M  V30 12595 H 1239.7 -5.3444 0.16682 0
M  V30 12596 H 1240.04 -4.05166 -0.956349 0
M  V30 12597 H 1240.58 -3.90924 0.736446 0
M  V30 12598 H 1237.32 -5.7923 3.06877 0
M  V30 12599 H 1236.84 -5.8425 1.35692 0
M  V30 12600 H 1238.52 -6.20682 1.82656 0
M  V30 12601 N 1238.65 -0.49465 -1.49636 0
M  V30 12602 C 1240.06 -0.0452894 -1.86645 0
M  V30 12603 C 1240.41 1.36686 -1.40753 0
M  V30 12604 O 1239.53 2.01751 -0.78265 0
M  V30 12605 C 1240.13 -0.0754115 -3.38716 0
M  V30 12606 C 1238.69 0.318579 -3.75049 0
M  V30 12607 C 1237.84 -0.450712 -2.73613 0
M  V30 12608 H 1240.79 -0.707758 -1.42044 0
M  V30 12609 H 1240.81 0.721372 -3.73599 0
M  V30 12610 H 1240.32 -1.10331 -3.72087 0
M  V30 12611 H 1238.42 1.34995 -3.47285 0
M  V30 12612 H 1238.53 0.00354416 -4.791 0
M  V30 12613 H 1236.9 0.0986455 -2.54509 0
M  V30 12614 H 1237.68 -1.47857 -3.09828 0
M  V30 12615 N 1240.13 1.55939 -0.228214 0
M  V30 12616 C 1241.35 2.0332 0.409364 0
M  V30 12617 C 1241.78 1.10683 1.52088 0
M  V30 12618 O 1241.13 0.0962484 1.81044 0
M  V30 12619 C 1241.18 3.48877 0.911981 0
M  V30 12620 O 1240.29 3.59378 2.02289 0
M  V30 12621 H 1239.63 0.657625 0.0917909 0
M  V30 12622 H 1242.16 2.01605 -0.348802 0
M  V30 12623 H 1242.17 3.89331 1.22007 0
M  V30 12624 H 1240.84 4.15783 0.0984902 0
M  V30 12625 H 1239.42 3.30815 1.72093 0
M  V30 12626 N 1241.6 -0.0451101 1.57535 0
M  V30 12627 C 1242.85 -0.738072 1.87711 0
M  V30 12628 C 1243.17 -1.7737 0.824579 0
M  V30 12629 O 1244.37 -2.51812 1.01503 0
M  V30 12630 C 1242.83 -1.36373 3.33062 0
M  V30 12631 C 1242.44 -0.365283 4.46508 0
M  V30 12632 C 1244.18 -2.0375 3.72406 0
M  V30 12633 C 1242.09 -0.998371 5.82912 0
M  V30 12634 H 1241.02 -0.279413 0.700317 0
M  V30 12635 H 1243.67 0.00802425 1.83498 0
M  V30 12636 H 1242.05 -2.15899 3.31969 0
M  V30 12637 H 1243.22 0.402102 4.59042 0
M  V30 12638 H 1241.54 0.205505 4.15893 0
M  V30 12639 H 1244.14 -2.51939 4.71625 0
M  V30 12640 H 1244.48 -2.84869 3.03571 0
M  V30 12641 H 1245.01 -1.3102 3.75604 0
M  V30 12642 H 1241.75 -0.226935 6.55107 0
M  V30 12643 H 1241.27 -1.73598 5.74129 0
M  V30 12644 H 1242.95 -1.51044 6.29122 0
M  V30 12645 N 1243.08 -1.54377 -0.317073 0
M  V30 12646 C 1244.03 -1.84214 -1.39046 0
M  V30 12647 C 1245 -0.689742 -1.51102 0
M  V30 12648 O 1246.18 -0.936809 -1.66218 0
M  V30 12649 C 1243.32 -2.08087 -2.75307 0
M  V30 12650 C 1242.44 -3.35756 -2.7183 0
M  V30 12651 C 1241.57 -3.49556 -3.9998 0
M  V30 12652 C 1240.61 -4.71076 -3.90837 0
M  V30 12653 N 1239.75 -4.81767 -5.10729 0
M  V30 12654 H 1244.59 -2.75785 -1.12902 0
M  V30 12655 H 1242.13 -1.36575 -0.546404 0
M  V30 12656 H 1244.08 -2.19921 -3.54529 0
M  V30 12657 H 1242.71 -1.19801 -2.99746 0
M  V30 12658 H 1241.77 -3.32627 -1.84563 0
M  V30 12659 H 1243.08 -4.2509 -2.60959 0
M  V30 12660 H 1242.23 -3.60967 -4.87635 0
M  V30 12661 H 1240.97 -2.58326 -4.13665 0
M  V30 12662 H 1239.98 -4.59715 -3.01566 0
M  V30 12663 H 1241.2 -5.63698 -3.78711 0
M  V30 12664 H 1239.15 -3.93455 -5.24908 0
M  V30 12665 H 1239.06 -5.65077 -5.02219 0
M  V30 12666 H 1240.33 -4.97517 -6.00081 0
M  V30 12667 N 1244.56 0.579466 -1.4656 0
M  V30 12668 C 1245.49 1.7031 -1.51887 0
M  V30 12669 C 1246.47 1.58271 -0.372721 0
M  V30 12670 O 1247.66 1.79441 -0.577336 0
M  V30 12671 C 1244.78 3.0839 -1.40048 0
M  V30 12672 C 1243.83 3.3894 -2.58886 0
M  V30 12673 S 1244.66 3.30652 -4.21224 0
M  V30 12674 C 1245.82 4.71264 -4.119 0
M  V30 12675 H 1246.05 1.65533 -2.46954 0
M  V30 12676 H 1243.58 0.758477 -1.34486 0
M  V30 12677 H 1245.54 3.88046 -1.33905 0
M  V30 12678 H 1244.2 3.10653 -0.464048 0
M  V30 12679 H 1243.4 4.39547 -2.46605 0
M  V30 12680 H 1243 2.66858 -2.62036 0
M  V30 12681 H 1245.29 5.61722 -3.7878 0
M  V30 12682 H 1246.23 4.88602 -5.12517 0
M  V30 12683 H 1246.64 4.48266 -3.43101 0
M  V30 12684 N 1246.04 1.3432 0.824371 0
M  V30 12685 C 1247.29 1.25938 1.57552 0
M  V30 12686 C 1247.6 -0.169298 1.94866 0
M  V30 12687 O 1248.81 -0.375262 2.68894 0
M  V30 12688 C 1247.26 2.20757 2.84244 0
M  V30 12689 C 1246.87 3.68873 2.54237 0
M  V30 12690 C 1248.61 2.21279 3.62265 0
M  V30 12691 C 1246.52 4.55566 3.77113 0
M  V30 12692 H 1245.45 0.467832 0.591311 0
M  V30 12693 H 1248.1 1.59476 0.907724 0
M  V30 12694 H 1246.48 1.80168 3.52641 0
M  V30 12695 H 1247.66 4.17991 1.93959 0
M  V30 12696 H 1245.97 3.70784 1.89494 0
M  V30 12697 H 1248.57 2.83272 4.53499 0
M  V30 12698 H 1248.91 1.2117 3.98276 0
M  V30 12699 H 1249.45 2.60305 3.00809 0
M  V30 12700 H 1246.19 5.56605 3.46223 0
M  V30 12701 H 1245.71 4.11184 4.36678 0
M  V30 12702 H 1247.38 4.701 4.44539 0
M  V30 12703 N 1247.52 -1.0444 1.18026 0
M  V30 12704 C 1248.93 -1.5903 0.978076 0
M  V30 12705 C 1249.28 -1.90407 -0.473241 0
M  V30 12706 O 1248.4 -1.69133 -1.34992 0
M  V30 12707 C 1249 -2.88942 1.76912 0
M  V30 12708 C 1247.56 -3.40164 1.61139 0
M  V30 12709 C 1246.7 -2.13797 1.76596 0
M  V30 12710 H 1249.66 -0.871574 1.32625 0
M  V30 12711 H 1249.68 -3.59173 1.25598 0
M  V30 12712 H 1249.19 -2.66074 2.82535 0
M  V30 12713 H 1247.29 -3.68053 0.580353 0
M  V30 12714 H 1247.4 -4.14241 2.40709 0
M  V30 12715 H 1245.77 -2.24922 1.19507 0
M  V30 12716 H 1246.55 -1.93389 2.83647 0
M  V30 12717 N 1248.99 -0.981699 -1.2329 0
M  V30 12718 C 1250.27 -0.567659 -1.87182 0
M  V30 12719 C 1250.65 0.955194 -1.88253 0
M  V30 12720 O 1250 1.83245 -1.36504 0
M  V30 12721 C 1250.21 -1.17522 -3.28618 0
M  V30 12722 C 1251.56 -1.26877 -4.052 0
M  V30 12723 O 1252.58 -1.12877 -3.37842 0
M  V30 12724 O 1251.44 -1.49163 -5.2575 0
M  V30 12725 H 1248.53 -0.191315 -0.804567 0
M  V30 12726 H 1251.08 -1.07686 -1.31155 0
M  V30 12727 H 1249.85 -2.21735 -3.22411 0
M  V30 12728 H 1249.48 -0.650913 -3.92236 0
M  V30 12729 N 1250.47 1.3842 -0.753509 0
M  V30 12730 C 1251.75 1.94181 -0.235142 0
M  V30 12731 C 1252.13 1.68881 1.26659 0
M  V30 12732 O 1251.48 1.02731 2.04104 0
M  V30 12733 C 1251.69 3.43998 -0.588751 0
M  V30 12734 C 1253.04 4.21044 -0.548352 0
M  V30 12735 O 1254.06 3.52279 -0.52704 0
M  V30 12736 O 1252.92 5.43631 -0.559221 0
M  V30 12737 H 1250.01 0.825536 -0.0491834 0
M  V30 12738 H 1252.56 1.47813 -0.833626 0
M  V30 12739 H 1251.33 3.55921 -1.6259 0
M  V30 12740 H 1250.95 3.97582 0.0377429 0
M  V30 12741 N 1251.95 0.502579 1.49372 0
M  V30 12742 C 1253.2 -0.0432341 2.01654 0
M  V30 12743 C 1253.51 -1.379 1.38719 0
M  V30 12744 O 1254.72 -2.01159 1.82338 0
M  V30 12745 C 1253.17 -0.127509 3.59674 0
M  V30 12746 C 1252.78 1.20171 4.31582 0
M  V30 12747 C 1254.53 -0.623603 4.19895 0
M  V30 12748 C 1252.43 1.07951 5.81464 0
M  V30 12749 H 1251.36 -0.0199308 0.753737 0
M  V30 12750 H 1254.01 0.642237 1.71894 0
M  V30 12751 H 1252.4 -0.877465 3.86156 0
M  V30 12752 H 1253.57 1.96508 4.16799 0
M  V30 12753 H 1251.89 1.63136 3.83113 0
M  V30 12754 H 1254.48 -0.732562 5.29658 0
M  V30 12755 H 1254.83 -1.62282 3.83367 0
M  V30 12756 H 1255.36 0.0698641 3.97739 0
M  V30 12757 H 1252.1 2.05304 6.22519 0
M  V30 12758 H 1251.62 0.357051 5.98736 0
M  V30 12759 H 1253.3 0.758885 6.42534 0
M  V30 12760 N 1253.43 -1.55816 0.23648 0
M  V30 12761 C 1254.34 -2.24576 -0.678439 0
M  V30 12762 C 1255.35 -1.25836 -1.20172 0
M  V30 12763 O 1256.53 -1.58686 -1.24019 0
M  V30 12764 C 1253.6 -2.92376 -1.86325 0
M  V30 12765 C 1252.66 -4.06499 -1.38047 0
M  V30 12766 C 1251.89 -4.71057 -2.50881 0
M  V30 12767 O 1252.11 -4.34652 -3.69369 0
M  V30 12768 O 1251.05 -5.59768 -2.21232 0
M  V30 12769 H 1254.87 -3.03452 -0.122601 0
M  V30 12770 H 1252.46 -1.49399 0.00540803 0
M  V30 12771 H 1254.34 -3.35117 -2.55488 0
M  V30 12772 H 1253.01 -2.16448 -2.40691 0
M  V30 12773 H 1251.92 -3.68296 -0.656422 0
M  V30 12774 H 1253.25 -4.84214 -0.883024 0
M  V30 12775 N 1254.91 0.036755 -1.57557 0
M  V30 12776 C 1256.16 0.728107 -1.881 0
M  V30 12777 C 1256.47 1.7693 -0.833974 0
M  V30 12778 O 1257.67 2.5127 -1.02837 0
M  V30 12779 C 1256.13 1.34604 -3.33781 0
M  V30 12780 C 1255.74 0.341599 -4.46696 0
M  V30 12781 C 1257.48 2.01772 -3.73481 0
M  V30 12782 C 1255.39 0.967444 -5.83433 0
M  V30 12783 H 1254.32 0.275695 -0.701789 0
M  V30 12784 H 1256.97 -0.0177555 -1.83491 0
M  V30 12785 H 1255.35 2.14135 -3.3311 0
M  V30 12786 H 1256.53 -0.426441 -4.58823 0
M  V30 12787 H 1254.84 -0.227558 -4.15778 0
M  V30 12788 H 1257.44 2.49435 -4.72955 0
M  V30 12789 H 1257.78 2.83255 -3.05077 0
M  V30 12790 H 1258.31 1.29026 -3.76294 0
M  V30 12791 H 1255.05 0.19219 -6.55218 0
M  V30 12792 H 1254.57 1.70551 -5.75041 0
M  V30 12793 H 1256.25 1.47705 -6.29914 0
M  V30 12794 N 1256.39 1.54543 0.308881 0
M  V30 12795 C 1257.63 1.73706 1.04661 0
M  V30 12796 C 1257.96 0.517111 1.87189 0
M  V30 12797 O 1257.24 -0.485856 1.88334 0
M  V30 12798 C 1257.52 3.02141 1.95916 0
M  V30 12799 C 1257.38 4.34419 1.1662 0
M  V30 12800 C 1258.69 3.26401 2.95213 0
M  V30 12801 H 1255.81 0.63203 0.379087 0
M  V30 12802 H 1258.46 1.87253 0.321947 0
M  V30 12803 H 1256.61 2.90723 2.57706 0
M  V30 12804 H 1258.28 4.57743 0.571772 0
M  V30 12805 H 1256.52 4.3126 0.468747 0
M  V30 12806 H 1257.19 5.20535 1.83704 0
M  V30 12807 H 1259.67 3.37377 2.43549 0
M  V30 12808 H 1258.54 4.17597 3.56235 0
M  V30 12809 H 1258.8 2.44322 3.68455 0
M  V30 12810 N 1257.86 -0.571685 1.46866 0
M  V30 12811 C 1259.09 -1.35327 1.56109 0
M  V30 12812 C 1259.5 -1.88086 0.20504 0
M  V30 12813 O 1258.84 -1.64896 -0.809626 0
M  V30 12814 C 1258.91 -2.56939 2.51441 0
M  V30 12815 C 1258.57 -2.2557 3.97451 0
M  V30 12816 C 1259.57 -1.83737 4.86351 0
M  V30 12817 C 1257.25 -2.37375 4.42672 0
M  V30 12818 C 1259.25 -1.54118 6.18487 0
M  V30 12819 C 1256.93 -2.07368 5.7484 0
M  V30 12820 C 1257.93 -1.65806 6.62569 0
M  V30 12821 O 1257.62 -1.36173 7.92283 0
M  V30 12822 H 1257.35 -0.419368 0.530194 0
M  V30 12823 H 1259.91 -0.700859 1.93073 0
M  V30 12824 H 1258.14 -3.25023 2.09517 0
M  V30 12825 H 1259.82 -3.19012 2.5097 0
M  V30 12826 H 1260.59 -1.74122 4.52666 0
M  V30 12827 H 1256.47 -2.68686 3.74605 0
M  V30 12828 H 1260.01 -1.21603 6.8692 0
M  V30 12829 H 1255.91 -2.16611 6.08071 0
M  V30 12830 H 1256.68 -1.49926 8.04652 0
M  V30 12831 N 1259.34 -1.34755 -0.817236 0
M  V30 12832 C 1260.59 -1.2762 -1.5761 0
M  V30 12833 C 1260.92 0.152017 -1.93604 0
M  V30 12834 O 1260.2 1.09881 -1.60488 0
M  V30 12835 C 1260.48 -2.17251 -2.87183 0
M  V30 12836 C 1260.33 -3.68638 -2.57733 0
M  V30 12837 C 1261.65 -2.06206 -3.88802 0
M  V30 12838 H 1258.77 -0.464933 -0.571845 0
M  V30 12839 H 1261.41 -1.6506 -0.941028 0
M  V30 12840 H 1259.56 -1.85452 -3.41379 0
M  V30 12841 H 1261.23 -4.10829 -2.09802 0
M  V30 12842 H 1259.48 -3.89445 -1.91089 0
M  V30 12843 H 1260.15 -4.26726 -3.50156 0
M  V30 12844 H 1262.62 -2.34137 -3.43975 0
M  V30 12845 H 1261.5 -2.71136 -4.77259 0
M  V30 12846 H 1261.76 -1.04075 -4.29675 0
M  V30 12847 N 1260.82 1.03812 -1.18578 0
M  V30 12848 C 1261.73 2.15371 -0.930182 0
M  V30 12849 C 1262.75 1.73673 0.106599 0
M  V30 12850 O 1263.92 2.01257 -0.0759054 0
M  V30 12851 C 1260.99 3.43606 -0.462151 0
M  V30 12852 C 1260.05 3.99671 -1.5672 0
M  V30 12853 C 1259.28 5.21785 -1.12141 0
M  V30 12854 O 1259.5 5.70397 0.0188357 0
M  V30 12855 O 1258.44 5.70449 -1.9202 0
M  V30 12856 H 1262.26 2.39791 -1.86371 0
M  V30 12857 H 1259.85 1.13814 -0.967819 0
M  V30 12858 H 1261.73 4.2088 -0.20934 0
M  V30 12859 H 1260.41 3.20654 0.443052 0
M  V30 12860 H 1259.31 3.23774 -1.87406 0
M  V30 12861 H 1260.65 4.2697 -2.44862 0
M  V30 12862 N 1262.3 0.988223 1.22768 0
M  V30 12863 C 1263.53 0.679743 1.95415 0
M  V30 12864 C 1263.94 -0.754731 1.73059 0
M  V30 12865 O 1263.3 -1.50876 1.02678 0
M  V30 12866 C 1263.35 0.970344 3.48234 0
M  V30 12867 O 1263.07 2.34845 3.69837 0
M  V30 12868 C 1264.57 0.67891 4.3807 0
M  V30 12869 H 1261.79 0.251847 0.621944 0
M  V30 12870 H 1264.33 1.32173 1.56047 0
M  V30 12871 H 1262.49 0.374241 3.85588 0
M  V30 12872 H 1262.9 2.44412 4.64072 0
M  V30 12873 H 1264.38 0.932549 5.44066 0
M  V30 12874 H 1264.85 -0.387073 4.37491 0
M  V30 12875 H 1265.46 1.25585 4.06335 0
M  V30 12876 N 1263.78 -1.38018 0.760839 0
M  V30 12877 C 1265.19 -1.82645 0.387022 0
M  V30 12878 C 1265.54 -1.63445 -1.08536 0
M  V30 12879 O 1264.66 -1.13958 -1.83963 0
M  V30 12880 C 1265.26 -3.3158 0.69569 0
M  V30 12881 C 1263.82 -3.74527 0.375063 0
M  V30 12882 C 1262.96 -2.60696 0.94515 0
M  V30 12883 H 1265.91 -1.26644 0.956396 0
M  V30 12884 H 1265.94 -3.80493 -0.0235511 0
M  V30 12885 H 1265.45 -3.45522 1.76737 0
M  V30 12886 H 1263.55 -3.6616 -0.689741 0
M  V30 12887 H 1263.66 -4.71029 0.875685 0
M  V30 12888 H 1262.03 -2.51997 0.370065 0
M  V30 12889 H 1262.81 -2.77434 2.02201 0
M  V30 12890 N 1265.25 -0.510493 -1.49103 0
M  V30 12891 C 1266.67 -0.167061 -1.58723 0
M  V30 12892 C 1266.87 1.32886 -1.51471 0
M  V30 12893 O 1265.93 2.10559 -1.39359 0
M  V30 12894 C 1267.24 -0.752293 -2.91137 0
M  V30 12895 C 1268.79 -0.719258 -3.04624 0
M  V30 12896 C 1269.26 -1.28272 -4.39671 0
M  V30 12897 N 1270.75 -1.24383 -4.46187 0
M  V30 12898 C 1271.49 -1.6499 -5.4915 0
M  V30 12899 N 1270.98 -2.13235 -6.59168 0
M  V30 12900 N 1272.78 -1.56348 -5.39918 0
M  V30 12901 H 1264.93 -1.48296 -1.5206 0
M  V30 12902 H 1267.19 -0.615683 -0.72086 0
M  V30 12903 H 1266.9 -1.80178 -3.02041 0
M  V30 12904 H 1266.77 -0.218152 -3.76569 0
M  V30 12905 H 1269.16 0.321413 -2.93344 0
M  V30 12906 H 1269.24 -1.29065 -2.20852 0
M  V30 12907 H 1268.88 -2.32222 -4.51703 0
M  V30 12908 H 1268.81 -0.687179 -5.22097 0
M  V30 12909 H 1271.3 -0.890446 -3.67259 0
M  V30 12910 H 1271.62 -2.42266 -7.33844 0
M  V30 12911 H 1269.96 -2.17216 -6.60183 0
M  V30 12912 H 1273.15 -1.18469 -4.52861 0
M  V30 12913 H 1273.33 -1.88317 -6.20033 0
M  V30 12914 N 1266.73 1.55688 -0.24474 0
M  V30 12915 C 1267.68 2.21289 0.655723 0
M  V30 12916 C 1268.65 1.17606 1.17295 0
M  V30 12917 O 1269.83 1.46045 1.22782 0
M  V30 12918 C 1266.97 2.91453 1.84794 0
M  V30 12919 C 1266.09 4.09787 1.36744 0
M  V30 12920 C 1265.22 4.67672 2.51905 0
M  V30 12921 C 1264.26 5.78259 2.00706 0
M  V30 12922 N 1263.4 6.30336 3.09225 0
M  V30 12923 H 1268.24 2.97865 0.0896156 0
M  V30 12924 H 1265.77 1.47064 0.0324725 0
M  V30 12925 H 1267.73 3.30331 2.54828 0
M  V30 12926 H 1266.36 2.17355 2.38656 0
M  V30 12927 H 1265.41 3.76237 0.561228 0
M  V30 12928 H 1266.73 4.89627 0.952199 0
M  V30 12929 H 1265.88 5.09113 3.29984 0
M  V30 12930 H 1264.62 3.87044 2.9673 0
M  V30 12931 H 1263.62 5.36298 1.21097 0
M  V30 12932 H 1264.85 6.60737 1.56853 0
M  V30 12933 H 1262.8 5.52614 3.53489 0
M  V30 12934 H 1262.71 7.05364 2.72025 0
M  V30 12935 H 1263.98 6.76435 3.8737 0
M  V30 12936 N 1268.21 -0.0283989 1.57574 0
M  V30 12937 C 1269.49 -0.754527 1.80461 0
M  V30 12938 C 1269.87 -1.93539 0.842966 0
M  V30 12939 O 1269.21 -2.28212 -0.114714 0
M  V30 12940 C 1269.42 -1.18694 3.28196 0
M  V30 12941 C 1270.77 -1.60257 3.93196 0
M  V30 12942 O 1271.8 -1.2815 3.32349 0
M  V30 12943 O 1270.66 -2.19853 5.00327 0
M  V30 12944 H 1267.75 -0.364936 0.742126 0
M  V30 12945 H 1270.3 -0.00512589 1.69699 0
M  V30 12946 H 1269.07 -0.34398 3.89785 0
M  V30 12947 H 1268.69 -1.99633 3.43849 0
M  V30 12948 N 1269.69 -1.54705 -0.300681 0
M  V30 12949 C 1270.94 -1.73658 -1.0338 0
M  V30 12950 C 1271.26 -0.525447 -1.87787 0
M  V30 12951 O 1270.53 0.460269 -1.90416 0
M  V30 12952 H 1269.11 -0.640338 -0.384677 0
M  V30 12953 H 1271.77 -1.92059 -0.331588 0
M  V30 12954 H 1270.86 -2.62595 -1.68672 0
M  V30 12955 N 1271.17 0.563888 -1.47167 0
M  V30 12956 C 1272.58 1.14603 -1.47388 0
M  V30 12957 C 1272.93 1.94907 -0.224916 0
M  V30 12958 O 1272.05 2.05745 0.670672 0
M  V30 12959 C 1272.65 2.08501 -2.67044 0
M  V30 12960 C 1271.21 2.62 -2.70246 0
M  V30 12961 C 1270.35 1.38244 -2.40383 0
M  V30 12962 H 1273.31 0.350833 -1.54774 0
M  V30 12963 H 1273.33 2.92272 -2.43634 0
M  V30 12964 H 1272.84 1.50027 -3.57929 0
M  V30 12965 H 1270.94 3.24292 -1.83482 0
M  V30 12966 H 1271.05 3.0345 -3.70749 0
M  V30 12967 H 1269.42 1.68692 -1.90827 0
M  V30 12968 H 1270.2 0.815726 -3.33468 0
M  V30 12969 N 1272.64 1.35187 0.810078 0
M  V30 12970 C 1273.89 1.28264 1.56699 0
M  V30 12971 C 1274.22 -0.143906 1.93967 0
M  V30 12972 O 1273.47 -1.10832 1.61291 0
M  V30 12973 C 1273.77 2.13135 2.86894 0
M  V30 12974 C 1273.44 3.61974 2.6886 0
M  V30 12975 C 1272.1 4.02545 2.63649 0
M  V30 12976 C 1274.45 4.5643 2.51636 0
M  V30 12977 C 1271.78 5.35745 2.39154 0
M  V30 12978 C 1274.13 5.89824 2.2867 0
M  V30 12979 C 1272.8 6.29544 2.2188 0
M  V30 12980 H 1272.07 0.469353 0.573401 0
M  V30 12981 H 1274.71 1.67051 0.936282 0
M  V30 12982 H 1273.02 1.67218 3.54324 0
M  V30 12983 H 1274.72 2.05117 3.44569 0
M  V30 12984 H 1271.31 3.29777 2.73761 0
M  V30 12985 H 1275.49 4.25974 2.54677 0
M  V30 12986 H 1270.75 5.65524 2.32363 0
M  V30 12987 H 1274.92 6.62597 2.14333 0
M  V30 12988 H 1272.55 7.32689 2.0266 0
M  V30 12989 N 1274.12 -1.03182 1.19127 0
M  V30 12990 C 1275.37 -1.76184 0.990134 0
M  V30 12991 C 1275.69 -1.88986 -0.480546 0
M  V30 12992 O 1274.96 -1.4213 -1.34817 0
M  V30 12993 H 1273.54 -0.652668 0.363364 0
M  V30 12994 H 1276.2 -1.24481 1.49968 0
M  V30 12995 H 1275.3 -2.77119 1.43568 0
M  V30 12996 N 1275.6 -0.99472 -1.22242 0
M  V30 12997 C 1276.56 -0.551619 -2.22463 0
M  V30 12998 C 1277.56 0.366498 -1.56568 0
M  V30 12999 O 1278.75 0.158204 -1.7348 0
M  V30 13000 C 1275.89 0.197416 -3.40328 0
M  V30 13001 H 1277.08 -1.43795 -2.63179 0
M  V30 13002 H 1274.63 -0.782121 -1.35324 0
M  V30 13003 H 1275.37 1.09965 -3.05087 0
M  V30 13004 H 1275.15 -0.461829 -3.89371 0
M  V30 13005 H 1276.64 0.495534 -4.1465 0
M  V30 13006 N 1277.08 1.37613 -0.768148 0
M  V30 13007 C 1278.3 2.04579 -0.340892 0
M  V30 13008 C 1278.73 1.57556 1.02751 0
M  V30 13009 O 1278.09 0.734151 1.65771 0
M  V30 13010 C 1278.13 3.58495 -0.389099 0
M  V30 13011 O 1277.24 4.07838 0.611741 0
M  V30 13012 H 1276.58 0.647246 -0.148216 0
M  V30 13013 H 1279.11 1.75999 -1.04333 0
M  V30 13014 H 1279.12 4.07263 -0.245116 0
M  V30 13015 H 1277.79 3.92076 -1.38742 0
M  V30 13016 H 1276.37 3.70399 0.431173 0
M  V30 13017 N 1278.56 0.518393 1.4883 0
M  V30 13018 C 1279.8 -0.019866 2.0209 0
M  V30 13019 C 1280.13 -1.35863 1.3988 0
M  V30 13020 O 1279.4 -1.87722 0.560117 0
M  V30 13021 H 1277.98 -0.0103306 0.746929 0
M  V30 13022 H 1280.64 0.679591 1.82668 0
M  V30 13023 H 1279.73 -0.136749 3.118 0
M  V30 13024 N 1280.03 -1.55556 0.252993 0
M  V30 13025 C 1281.28 -1.99385 -0.370599 0
M  V30 13026 C 1281.61 -1.14101 -1.57145 0
M  V30 13027 O 1280.89 -0.205828 -1.93408 0
M  V30 13028 C 1281.17 -3.51672 -0.774503 0
M  V30 13029 C 1281.02 -4.47719 0.432159 0
M  V30 13030 C 1282.34 -4.0923 -1.61923 0
M  V30 13031 H 1279.46 -0.724858 -0.133231 0
M  V30 13032 H 1282.1 -1.86644 0.355522 0
M  V30 13033 H 1280.25 -3.62661 -1.39318 0
M  V30 13034 H 1281.93 -4.48704 1.07063 0
M  V30 13035 H 1280.17 -4.2029 1.07419 0
M  V30 13036 H 1280.84 -5.51898 0.106123 0
M  V30 13037 H 1283.32 -4.01381 -1.09693 0
M  V30 13038 H 1282.19 -5.16039 -1.87068 0
M  V30 13039 H 1282.45 -3.58067 -2.59307 0
M  V30 13040 N 1281.51 0.0200419 -1.57587 0
M  V30 13041 C 1282.76 0.707627 -1.89307 0
M  V30 13042 C 1283.08 1.7541 -0.851831 0
M  V30 13043 O 1282.35 1.95571 0.113404 0
M  V30 13044 H 1280.93 0.264349 -0.698662 0
M  V30 13045 H 1283.59 -0.0161428 -1.94893 0
M  V30 13046 H 1282.69 1.19152 -2.8846 0
M  V30 13047 N 1282.99 1.54862 0.292472 0
M  V30 13048 C 1283.9 1.89472 1.38339 0
M  V30 13049 C 1284.92 0.789783 1.55043 0
M  V30 13050 O 1286.09 1.08705 1.69544 0
M  V30 13051 C 1283.16 2.14244 2.72581 0
M  V30 13052 C 1282.22 3.37913 2.64789 0
M  V30 13053 C 1281.45 3.61494 3.92629 0
M  V30 13054 O 1281.67 2.87931 4.92394 0
M  V30 13055 O 1280.61 4.55019 3.94007 0
M  V30 13056 H 1284.43 2.82298 1.11989 0
M  V30 13057 H 1282.02 1.41161 0.489291 0
M  V30 13058 H 1283.9 2.31689 3.51991 0
M  V30 13059 H 1282.58 1.24603 2.98757 0
M  V30 13060 H 1281.48 3.25823 1.83821 0
M  V30 13061 H 1282.82 4.27711 2.43565 0
M  V30 13062 N 1284.47 -0.556076 1.47464 0
M  V30 13063 C 1285.4 -1.67872 1.54578 0
M  V30 13064 C 1286.38 -1.57658 0.397853 0
M  V30 13065 O 1287.56 -1.785 0.605811 0
M  V30 13066 C 1284.69 -3.06122 1.44937 0
M  V30 13067 C 1283.74 -3.34778 2.64246 0
M  V30 13068 S 1284.57 -3.23909 4.26431 0
M  V30 13069 C 1285.73 -4.64651 4.19345 0
M  V30 13070 H 1285.96 -1.61583 2.49556 0
M  V30 13071 H 1283.49 -0.736985 1.35676 0
M  V30 13072 H 1285.45 -3.85866 1.40062 0
M  V30 13073 H 1284.11 -3.09876 0.513412 0
M  V30 13074 H 1283.3 -4.35569 2.53567 0
M  V30 13075 H 1282.91 -2.62655 2.66248 0
M  V30 13076 H 1285.2 -5.55625 3.87669 0
M  V30 13077 H 1286.14 -4.80386 5.20225 0
M  V30 13078 H 1286.55 -4.42751 3.50189 0
M  V30 13079 N 1285.95 -1.35615 -0.802897 0
M  V30 13080 C 1287.36 -1.26062 -1.37715 0
M  V30 13081 C 1287.71 0.105411 -1.95917 0
M  V30 13082 O 1286.83 1.00648 -1.91569 0
M  V30 13083 C 1287.43 -2.28261 -2.50365 0
M  V30 13084 C 1285.99 -2.22437 -3.03642 0
M  V30 13085 C 1285.14 -2.1377 -1.76629 0
M  V30 13086 H 1288.09 -1.46689 -0.605631 0
M  V30 13087 H 1288.11 -1.91122 -3.29017 0
M  V30 13088 H 1287.62 -3.27671 -2.07975 0
M  V30 13089 H 1285.72 -1.2645 -3.50487 0
M  V30 13090 H 1285.83 -3.14558 -3.61373 0
M  V30 13091 H 1284.2 -1.59806 -1.98328 0
M  V30 13092 H 1284.98 -3.15046 -1.36385 0
M  V30 13093 N 1287.43 1.02549 -1.19673 0
M  V30 13094 C 1288.36 2.12794 -0.961289 0
M  V30 13095 C 1289.34 1.69766 0.106575 0
M  V30 13096 O 1290.52 1.94138 -0.0491358 0
M  V30 13097 C 1287.65 3.4364 -0.502868 0
M  V30 13098 C 1286.61 4.00367 -1.51296 0
M  V30 13099 C 1285.93 5.26874 -0.911491 0
M  V30 13100 C 1287.23 4.34782 -2.89416 0
M  V30 13101 H 1288.93 2.32748 -1.88331 0
M  V30 13102 H 1286.47 1.11852 -0.906922 0
M  V30 13103 H 1288.42 4.20141 -0.325436 0
M  V30 13104 H 1287.15 3.23418 0.454764 0
M  V30 13105 H 1285.81 3.25964 -1.67759 0
M  V30 13106 H 1285.46 5.02971 0.0537982 0
M  V30 13107 H 1285.16 5.65791 -1.58602 0
M  V30 13108 H 1286.68 6.06039 -0.74493 0
M  V30 13109 H 1288.09 5.02207 -2.76516 0
M  V30 13110 H 1286.49 4.8479 -3.53693 0
M  V30 13111 H 1287.56 3.43935 -3.41814 0
M  V30 13112 N 1288.9 1.00119 1.21713 0
M  V30 13113 C 1290.13 0.700431 1.94683 0
M  V30 13114 C 1290.55 -0.736333 1.73849 0
M  V30 13115 O 1289.9 -1.49778 1.04272 0
M  V30 13116 C 1289.95 1.00722 3.47185 0
M  V30 13117 O 1289.68 2.38754 3.67326 0
M  V30 13118 C 1291.18 0.725335 4.37326 0
M  V30 13119 H 1288.4 0.25843 0.619238 0
M  V30 13120 H 1290.94 1.3382 1.54636 0
M  V30 13121 H 1289.1 0.415117 3.85169 0
M  V30 13122 H 1289.51 2.49321 4.61454 0
M  V30 13123 H 1290.98 0.990202 5.43046 0
M  V30 13124 H 1291.46 -0.340649 4.37877 0
M  V30 13125 H 1292.07 1.29888 4.04981 0
M  V30 13126 N 1290.38 -1.37203 0.775435 0
M  V30 13127 C 1291.34 -2.28566 0.170406 0
M  V30 13128 C 1292.34 -1.48195 -0.624085 0
M  V30 13129 O 1293.53 -1.68364 -0.447132 0
M  V30 13130 C 1290.67 -3.32186 -0.765829 0
M  V30 13131 H 1291.86 -2.8358 0.975824 0
M  V30 13132 H 1289.41 -1.46531 0.543895 0
M  V30 13133 H 1290.15 -2.82303 -1.59611 0
M  V30 13134 H 1289.93 -3.91598 -0.198251 0
M  V30 13135 H 1291.42 -4.0045 -1.18446 0
M  V30 13136 N 1291.86 -0.526279 -1.48553 0
M  V30 13137 C 1293.27 -0.0848694 -1.86507 0
M  V30 13138 C 1293.62 1.3367 -1.43621 0
M  V30 13139 O 1292.75 2.00046 -0.825268 0
M  V30 13140 C 1293.34 -0.147241 -3.3848 0
M  V30 13141 C 1291.9 0.238954 -3.75641 0
M  V30 13142 C 1291.05 -0.508648 -2.72595 0
M  V30 13143 H 1294 -0.737728 -1.40511 0
M  V30 13144 H 1294.02 0.641964 -3.75045 0
M  V30 13145 H 1293.53 -1.18199 -3.69663 0
M  V30 13146 H 1291.63 1.27598 -3.50071 0
M  V30 13147 H 1291.75 -0.0980808 -4.79 0
M  V30 13148 H 1290.11 0.0446382 -2.54661 0
M  V30 13149 H 1290.89 -1.54395 -3.06622 0
M  V30 13150 N 1293.34 1.5542 -0.261239 0
M  V30 13151 C 1294.29 2.18644 0.646442 0
M  V30 13152 C 1295.27 1.14672 1.12868 0
M  V30 13153 O 1296.46 1.40534 1.07606 0
M  V30 13154 C 1293.59 2.90045 1.83655 0
M  V30 13155 C 1292.68 4.01289 1.37214 0
M  V30 13156 N 1293.07 5.01949 0.622927 0
M  V30 13157 C 1291.37 4.14107 1.65625 0
M  V30 13158 C 1292.07 5.80454 0.380569 0
M  V30 13159 N 1291.04 5.35253 0.94897 0
M  V30 13160 H 1294.85 2.93826 0.0660348 0
M  V30 13161 H 1292.36 1.62273 -0.0641794 0
M  V30 13162 H 1294.36 3.33778 2.49796 0
M  V30 13163 H 1293.02 2.16369 2.42104 0
M  V30 13164 H 1294.03 5.17187 0.271619 0
M  V30 13165 H 1290.71 3.51613 2.2511 0
M  V30 13166 H 1292.1 6.71545 -0.218528 0
M  V30 13167 N 1294.82 -0.0116844 1.57596 0
M  V30 13168 C 1295.78 -0.991601 2.0664 0
M  V30 13169 C 1296.78 -1.27973 0.973629 0
M  V30 13170 O 1297.97 -1.22686 1.23668 0
M  V30 13171 C 1295.1 -2.31975 2.49801 0
M  V30 13172 H 1296.29 -0.567607 2.9448 0
M  V30 13173 H 1293.85 -0.258906 1.54141 0
M  V30 13174 H 1294.58 -2.79087 1.65169 0
M  V30 13175 H 1294.37 -2.12386 3.29598 0
M  V30 13176 H 1295.86 -3.02294 2.88112 0
M  V30 13177 N 1296.29 -1.55015 -0.284256 0
M  V30 13178 C 1297.26 -1.8636 -1.33426 0
M  V30 13179 C 1298.26 -0.737457 -1.42892 0
M  V30 13180 O 1299.45 -1.00569 -1.42238 0
M  V30 13181 C 1296.58 -2.05884 -2.71707 0
M  V30 13182 H 1297.77 -2.80212 -1.06869 0
M  V30 13183 H 1295.32 -1.47334 -0.521767 0
M  V30 13184 H 1296.06 -1.14376 -3.03461 0
M  V30 13185 H 1295.84 -2.87867 -2.66224 0
M  V30 13186 H 1297.33 -2.31447 -3.47595 0
M  V30 13187 N 1297.77 0.548248 -1.47757 0
M  V30 13188 C 1299.02 1.30139 -1.54099 0
M  V30 13189 C 1299.33 1.9445 -0.2118 0
M  V30 13190 O 1300.54 2.71067 -0.153302 0
M  V30 13191 C 1299 2.36039 -2.71687 0
M  V30 13192 C 1298.6 1.77879 -4.11173 0
M  V30 13193 C 1300.35 3.12478 -2.87329 0
M  V30 13194 C 1298.25 2.81611 -5.20047 0
M  V30 13195 H 1297.18 0.489364 -0.573619 0
M  V30 13196 H 1299.84 0.581237 -1.74051 0
M  V30 13197 H 1298.22 3.11008 -2.45132 0
M  V30 13198 H 1299.39 1.09221 -4.47669 0
M  V30 13199 H 1297.71 1.13994 -4.00493 0
M  V30 13200 H 1300.3 3.89958 -3.65837 0
M  V30 13201 H 1300.65 3.67218 -1.96103 0
M  V30 13202 H 1301.18 2.4462 -3.13697 0
M  V30 13203 H 1297.92 2.31714 -6.13179 0
M  V30 13204 H 1297.44 3.48652 -4.88059 0
M  V30 13205 H 1299.12 3.44938 -5.47382 0
M  V30 13206 N 1299.25 1.36039 0.795694 0
M  V30 13207 C 1300.5 1.29251 1.54845 0
M  V30 13208 C 1300.81 -0.127926 1.95181 0
M  V30 13209 O 1302.02 -0.318141 2.6963 0
M  V30 13210 C 1300.47 2.26736 2.79497 0
M  V30 13211 C 1300.08 3.74183 2.46355 0
M  V30 13212 C 1301.83 2.28913 3.5749 0
M  V30 13213 C 1299.73 4.63462 3.67365 0
M  V30 13214 H 1298.66 0.48027 0.581255 0
M  V30 13215 H 1301.31 1.61366 0.873693 0
M  V30 13216 H 1299.7 1.87608 3.4874 0
M  V30 13217 H 1300.87 4.22011 1.8505 0
M  V30 13218 H 1299.18 3.7472 1.81586 0
M  V30 13219 H 1301.78 2.92828 4.47388 0
M  V30 13220 H 1302.12 1.2959 3.95616 0
M  V30 13221 H 1302.66 2.66627 2.9522 0
M  V30 13222 H 1299.4 5.63824 3.34339 0
M  V30 13223 H 1298.92 4.20354 4.27858 0
M  V30 13224 H 1300.6 4.79424 4.34467 0
M  V30 13225 N 1300.73 -1.01913 1.20215 0
M  V30 13226 C 1301.68 -2.12516 0.945493 0
M  V30 13227 C 1302.67 -1.69091 -0.102243 0
M  V30 13228 O 1303.88 -1.79936 0.047888 0
M  V30 13229 H 1300.25 -0.694496 0.288409 0
M  V30 13230 H 1302.22 -2.31349 1.88468 0
M  V30 13231 C 1300.97 -3.43919 0.51137 0
M  V30 13232 H 1300.29 -3.77758 1.30916 0
M  V30 13233 H 1301.73 -4.22374 0.370981 0
M  V30 13234 C 1300.19 -3.27844 -0.775902 0
M  V30 13235 O 1300.72 -3.5734 -1.83496 0
M  V30 13236 N 1298.93 -2.81101 -0.73694 0
M  V30 13237 H 1298.48 -2.57296 0.125164 0
M  V30 13238 H 1298.43 -2.70726 -1.59859 0
M  V30 13239 N 1302.21 -1.00763 -1.2118 0
M  V30 13240 C 1303.45 -0.690459 -1.8994 0
M  V30 13241 C 1303.78 0.781464 -1.78656 0
M  V30 13242 O 1303.05 1.56135 -1.18316 0
M  V30 13243 H 1301.63 -0.252397 -0.703068 0
M  V30 13244 H 1304.29 -1.2773 -1.47211 0
M  V30 13245 H 1303.38 -0.96594 -2.96776 0
M  V30 13246 N 1303.68 1.3679 -0.7827 0
M  V30 13247 C 1304.93 1.98664 -0.348634 0
M  V30 13248 C 1305.25 1.62827 1.08382 0
M  V30 13249 O 1306.45 2.17886 1.61982 0
M  V30 13250 C 1304.91 3.55319 -0.572392 0
M  V30 13251 C 1304.52 4.00086 -2.01582 0
M  V30 13252 C 1306.26 4.24017 -0.202496 0
M  V30 13253 C 1304.17 5.49493 -2.18659 0
M  V30 13254 H 1303.1 0.743294 -0.126612 0
M  V30 13255 H 1305.75 1.56177 -0.963383 0
M  V30 13256 H 1304.13 3.95842 0.111973 0
M  V30 13257 H 1305.3 3.7078 -2.73603 0
M  V30 13258 H 1303.62 3.44205 -2.34333 0
M  V30 13259 H 1306.22 5.3381 -0.308459 0
M  V30 13260 H 1306.56 4.07559 0.84859 0
M  V30 13261 H 1307.09 3.88834 -0.839834 0
M  V30 13262 H 1303.83 5.7089 -3.22126 0
M  V30 13263 H 1303.35 5.80447 -1.51134 0
M  V30 13264 H 1305.03 6.15621 -1.99048 0
M  V30 13265 N 1305.16 0.53415 1.48272 0
M  V30 13266 C 1306.39 0.00573642 2.06599 0
M  V30 13267 C 1306.8 -1.28303 1.3905 0
M  V30 13268 O 1306.14 -1.77499 0.473274 0
M  V30 13269 C 1306.21 -0.28451 3.58372 0
M  V30 13270 C 1305.87 0.911397 4.4782 0
M  V30 13271 C 1306.87 1.81091 4.87342 0
M  V30 13272 C 1304.55 1.11957 4.89664 0
M  V30 13273 C 1306.55 2.90246 5.67482 0
M  V30 13274 C 1304.23 2.21426 5.69573 0
M  V30 13275 C 1305.23 3.10403 6.08391 0
M  V30 13276 O 1304.92 4.17977 6.86695 0
M  V30 13277 H 1304.65 0.0322847 0.675229 0
M  V30 13278 H 1307.2 0.740415 1.91591 0
M  V30 13279 H 1305.43 -1.07321 3.71509 0
M  V30 13280 H 1307.12 -0.755508 3.98807 0
M  V30 13281 H 1307.89 1.66204 4.55633 0
M  V30 13282 H 1303.77 0.436266 4.58931 0
M  V30 13283 H 1307.31 3.59724 5.97699 0
M  V30 13284 H 1303.21 2.36295 6.00695 0
M  V30 13285 H 1303.98 4.15738 7.05056 0
M  V30 13286 N 1306.64 -1.55279 0.269478 0
M  V30 13287 C 1307.59 -2.23723 -0.636468 0
M  V30 13288 C 1308.58 -1.23234 -1.16232 0
M  V30 13289 O 1309.79 -1.41181 -1.1166 0
M  V30 13290 H 1306.16 -0.71793 -0.223788 0
M  V30 13291 H 1308.13 -2.98378 -0.0363057 0
M  V30 13292 C 1306.88 -2.96755 -1.81195 0
M  V30 13293 H 1306.21 -3.73865 -1.4165 0
M  V30 13294 H 1307.65 -3.47975 -2.42258 0
M  V30 13295 C 1306.11 -2.01905 -2.69696 0
M  V30 13296 O 1306.64 -1.56662 -3.69892 0
M  V30 13297 N 1304.84 -1.68524 -2.36744 0
M  V30 13298 H 1304.39 -2.05512 -1.55314 0
M  V30 13299 H 1304.35 -1.05331 -2.96231 0
M  V30 13300 N 1308.12 0.00332656 -1.576 0
M  V30 13301 C 1309.08 0.980628 -2.07163 0
M  V30 13302 C 1310.08 1.27455 -0.980402 0
M  V30 13303 O 1311.27 1.22029 -1.24317 0
M  V30 13304 C 1308.4 2.30647 -2.51028 0
M  V30 13305 H 1309.6 0.551982 -2.94776 0
M  V30 13306 H 1307.15 0.250728 -1.54276 0
M  V30 13307 H 1307.88 2.78207 -1.66647 0
M  V30 13308 H 1307.67 2.10635 -3.30719 0
M  V30 13309 H 1309.16 3.00761 -2.89711 0
M  V30 13310 N 1309.6 1.55164 0.276031 0
M  V30 13311 C 1310.84 1.77377 1.01572 0
M  V30 13312 C 1311.2 0.56142 1.83608 0
M  V30 13313 O 1312.4 0.661745 2.60527 0
M  V30 13314 C 1310.67 3.0412 1.87738 0
M  V30 13315 S 1312.23 3.4744 2.68013 0
M  V30 13316 H 1309.05 0.62326 0.342153 0
M  V30 13317 H 1311.65 1.9339 0.286456 0
M  V30 13318 H 1310.36 3.90453 1.26389 0
M  V30 13319 H 1309.89 2.90764 2.6499 0
M  V30 13320 H 1311.9 3.06474 3.90241 0
M  V30 13321 N 1311.07 -0.540404 1.48045 0
M  V30 13322 C 1312.32 -1.29422 1.55224 0
M  V30 13323 C 1312.64 -1.93716 0.223365 0
M  V30 13324 O 1311.91 -1.808 -0.754204 0
M  V30 13325 H 1310.49 -0.480658 0.571819 0
M  V30 13326 H 1313.16 -0.629712 1.84447 0
M  V30 13327 H 1312.25 -2.07897 2.32777 0
M  V30 13328 N 1312.55 -1.36459 -0.788468 0
M  V30 13329 C 1313.52 -1.3071 -1.88275 0
M  V30 13330 C 1314.52 -0.214596 -1.59362 0
M  V30 13331 O 1315.71 -0.469437 -1.67756 0
M  V30 13332 C 1312.84 -1.02648 -3.25079 0
M  V30 13333 H 1314.03 -2.28029 -1.94788 0
M  V30 13334 H 1311.58 -1.21245 -0.986375 0
M  V30 13335 H 1312.32 -0.0578992 -3.24248 0
M  V30 13336 H 1312.1 -1.81708 -3.47454 0
M  V30 13337 H 1313.59 -1.01233 -4.05144 0
M  V30 13338 N 1314.03 1.01274 -1.20754 0
M  V30 13339 C 1315.45 1.27256 -0.963221 0
M  V30 13340 C 1315.65 1.98349 0.354972 0
M  V30 13341 O 1314.7 2.28116 1.08255 0
M  V30 13342 C 1316.02 2.1038 -2.14851 0
M  V30 13343 C 1317.56 2.23633 -2.18991 0
M  V30 13344 C 1318.04 3.10136 -3.37016 0
M  V30 13345 N 1319.53 3.17724 -3.37054 0
M  V30 13346 C 1320.26 3.84891 -4.25025 0
M  V30 13347 N 1319.76 4.54152 -5.23181 0
M  V30 13348 N 1321.55 3.81454 -4.12855 0
M  V30 13349 H 1313.7 0.535534 -2.05538 0
M  V30 13350 H 1315.97 0.299006 -0.899611 0
M  V30 13351 H 1315.67 1.65484 -3.10335 0
M  V30 13352 H 1315.55 3.11122 -2.13267 0
M  V30 13353 H 1317.93 2.67753 -1.24067 0
M  V30 13354 H 1318.02 1.22387 -2.24622 0
M  V30 13355 H 1317.66 2.66721 -4.32229 0
M  V30 13356 H 1317.59 4.11478 -3.28623 0
M  V30 13357 H 1320.08 2.68412 -2.66014 0
M  V30 13358 H 1320.39 5.03084 -5.86623 0
M  V30 13359 H 1318.74 4.52964 -5.27113 0
M  V30 13360 H 1321.93 3.26494 -3.35439 0
M  V30 13361 H 1322.1 4.33523 -4.81624 0
M  V30 13362 N 1315.51 1.01404 1.20644 0
M  V30 13363 C 1316.76 0.702949 1.90227 0
M  V30 13364 C 1317.09 -0.765243 1.78487 0
M  V30 13365 O 1316.36 -1.55569 1.16741 0
M  V30 13366 C 1316.65 1.13606 3.4171 0
M  V30 13367 C 1316.5 2.66437 3.62397 0
M  V30 13368 C 1317.82 0.705361 4.34411 0
M  V30 13369 H 1314.94 0.256842 0.690797 0
M  V30 13370 H 1317.58 1.26133 1.42093 0
M  V30 13371 H 1315.73 0.660977 3.82836 0
M  V30 13372 H 1317.4 3.21778 3.3054 0
M  V30 13373 H 1315.64 3.0753 3.05954 0
M  V30 13374 H 1316.32 2.91795 4.68572 0
M  V30 13375 H 1318.79 1.11375 4.00918 0
M  V30 13376 H 1317.67 1.03647 5.39026 0
M  V30 13377 H 1317.93 -0.393094 4.40349 0
M  V30 13378 N 1316.99 -1.36373 0.789944 0
M  V30 13379 C 1318.4 -1.52471 0.471686 0
M  V30 13380 C 1318.6 -1.74365 -1.0099 0
M  V30 13381 O 1317.66 -1.77546 -1.79538 0
M  V30 13382 C 1318.97 -2.71022 1.30259 0
M  V30 13383 C 1320.52 -2.84893 1.29633 0
M  V30 13384 C 1321 -4.0645 2.11098 0
M  V30 13385 N 1322.49 -4.13597 2.08547 0
M  V30 13386 C 1323.22 -5.06731 2.6835 0
M  V30 13387 N 1322.72 -6.05305 3.37013 0
M  V30 13388 N 1324.51 -4.9935 2.58081 0
M  V30 13389 H 1316.66 -1.20416 1.74968 0
M  V30 13390 H 1318.92 -0.587782 0.743785 0
M  V30 13391 H 1318.63 -2.61368 2.35329 0
M  V30 13392 H 1318.5 -3.6519 0.944254 0
M  V30 13393 H 1320.89 -2.94009 0.253542 0
M  V30 13394 H 1320.97 -1.91632 1.69443 0
M  V30 13395 H 1320.62 -3.98096 3.15408 0
M  V30 13396 H 1320.55 -4.98861 1.68659 0
M  V30 13397 H 1323.04 -3.4302 1.58573 0
M  V30 13398 H 1323.35 -6.72934 3.79974 0
M  V30 13399 H 1321.7 -6.05529 3.41116 0
M  V30 13400 H 1324.89 -4.21291 2.04039 0
M  V30 13401 H 1325.06 -5.71745 3.04979 0
M  V30 13402 N 1318.47 -0.542005 -1.47987 0
M  V30 13403 C 1319.42 0.234244 -2.26794 0
M  V30 13404 C 1320.4 0.899085 -1.33436 0
M  V30 13405 O 1321.59 0.799904 -1.57894 0
M  V30 13406 C 1318.72 1.27312 -3.18821 0
M  V30 13407 C 1317.81 0.612457 -4.19654 0
M  V30 13408 N 1318.2 -0.30875 -5.04857 0
M  V30 13409 C 1316.5 0.868224 -4.37468 0
M  V30 13410 C 1317.2 -0.691052 -5.77581 0
M  V30 13411 N 1316.17 -0.0493574 -5.43578 0
M  V30 13412 H 1319.97 -0.47427 -2.90048 0
M  V30 13413 H 1317.49 -0.360868 -1.5834 0
M  V30 13414 H 1319.49 1.84305 -3.73948 0
M  V30 13415 H 1318.15 1.98288 -2.57122 0
M  V30 13416 H 1319.16 -0.682054 -5.13389 0
M  V30 13417 H 1315.83 1.56765 -3.86951 0
M  V30 13418 H 1317.22 -1.44713 -6.56131 0
M  V30 13419 N 1319.94 1.55134 -0.277709 0
M  V30 13420 C 1320.87 2.256 0.602232 0
M  V30 13421 C 1321.85 1.24708 1.15681 0
M  V30 13422 O 1323.04 1.53433 1.19046 0
M  V30 13423 C 1320.17 2.97907 1.78519 0
M  V30 13424 C 1319.12 4.0575 1.36203 0
M  V30 13425 C 1318.45 4.65644 2.62829 0
M  V30 13426 C 1319.75 5.19801 0.510327 0
M  V30 13427 H 1321.44 2.99396 0.0145622 0
M  V30 13428 H 1318.99 1.43999 0.00556389 0
M  V30 13429 H 1320.94 3.45915 2.40668 0
M  V30 13430 H 1319.67 2.21649 2.39873 0
M  V30 13431 H 1318.33 3.58557 0.763726 0
M  V30 13432 H 1317.97 3.86053 3.22447 0
M  V30 13433 H 1317.67 5.38463 2.35227 0
M  V30 13434 H 1319.2 5.16403 3.25823 0
M  V30 13435 H 1320.61 5.63845 1.03689 0
M  V30 13436 H 1319.01 5.99197 0.329073 0
M  V30 13437 H 1320.08 4.82614 -0.470273 0
M  V30 13438 N 1321.42 0.00503138 1.57599 0
M  V30 13439 C 1322.83 -0.537106 1.78807 0
M  V30 13440 C 1323.18 -1.73666 0.912945 0
M  V30 13441 O 1322.31 -2.16085 0.116775 0
M  V30 13442 C 1322.9 -0.98116 3.24282 0
M  V30 13443 C 1321.46 -1.46857 3.46569 0
M  V30 13444 C 1320.61 -0.422088 2.74069 0
M  V30 13445 H 1323.56 0.231182 1.57007 0
M  V30 13446 H 1323.58 -1.8469 3.32671 0
M  V30 13447 H 1323.09 -0.107907 3.8795 0
M  V30 13448 H 1321.19 -2.36255 2.88122 0
M  V30 13449 H 1321.31 -1.49256 4.55258 0
M  V30 13450 H 1319.67 -0.884853 2.38836 0
M  V30 13451 H 1320.45 0.442285 3.40439 0
M  V30 13452 N 1322.9 -1.55308 -0.267798 0
M  V30 13453 C 1323.86 -1.87765 -1.31442 0
M  V30 13454 C 1324.86 -0.752571 -1.42102 0
M  V30 13455 O 1326.05 -1.02072 -1.41163 0
M  V30 13456 C 1323.18 -2.08754 -2.69508 0
M  V30 13457 H 1324.38 -2.8133 -1.03891 0
M  V30 13458 H 1321.93 -1.47879 -0.506111 0
M  V30 13459 H 1322.67 -1.17588 -3.02231 0
M  V30 13460 H 1322.45 -2.90674 -2.63156 0
M  V30 13461 H 1323.94 -2.3512 -3.4512 0
M  V30 13462 N 1324.38 0.532545 -1.4833 0
M  V30 13463 C 1325.79 0.860843 -1.34394 0
M  V30 13464 C 1325.99 1.98384 -0.353013 0
M  V30 13465 O 1325.05 2.5148 0.226688 0
M  V30 13466 C 1326.36 1.23079 -2.74358 0
M  V30 13467 C 1327.91 1.34082 -2.82827 0
M  V30 13468 C 1328.39 1.74421 -4.23487 0
M  V30 13469 N 1329.88 1.81528 -4.26148 0
M  V30 13470 C 1330.61 2.1412 -5.31921 0
M  V30 13471 N 1330.11 2.45154 -6.47975 0
M  V30 13472 N 1331.9 2.15104 -5.19314 0
M  V30 13473 H 1324.05 -0.208464 -2.11375 0
M  V30 13474 H 1326.31 -0.03062 -0.947505 0
M  V30 13475 H 1326.02 0.47926 -3.48419 0
M  V30 13476 H 1325.89 2.18151 -3.07718 0
M  V30 13477 H 1328.28 2.08311 -2.09022 0
M  V30 13478 H 1328.36 0.37137 -2.5309 0
M  V30 13479 H 1328.01 1.00752 -4.97807 0
M  V30 13480 H 1327.94 2.72411 -4.50666 0
M  V30 13481 H 1330.43 1.59832 -3.42436 0
M  V30 13482 H 1330.74 2.69121 -7.24426 0
M  V30 13483 H 1329.09 2.42679 -6.51254 0
M  V30 13484 H 1332.28 1.90315 -4.27666 0
M  V30 13485 H 1332.45 2.40173 -6.01848 0
M  V30 13486 N 1325.86 1.36875 0.78122 0
M  V30 13487 C 1327.27 1.28236 1.35692 0
M  V30 13488 C 1327.62 -0.0742286 1.9606 0
M  V30 13489 O 1326.74 -0.97588 1.93146 0
M  V30 13490 C 1327.34 2.32215 2.46702 0
M  V30 13491 C 1325.9 2.2724 3.00065 0
M  V30 13492 C 1325.04 2.16553 1.73206 0
M  V30 13493 H 1327.99 1.47634 0.582217 0
M  V30 13494 H 1328.02 1.96333 3.25935 0
M  V30 13495 H 1327.53 3.30938 2.02735 0
M  V30 13496 H 1325.63 1.3201 3.48431 0
M  V30 13497 H 1325.74 3.20267 3.56323 0
M  V30 13498 H 1324.11 1.62941 1.95761 0
M  V30 13499 H 1324.89 3.17176 1.31356 0
M  V30 13500 N 1327.33 -1.00632 1.21289 0
M  V30 13501 C 1328.24 -2.12829 0.986957 0
M  V30 13502 C 1329.26 -1.73895 -0.0605152 0
M  V30 13503 O 1330.44 -2.00985 0.129238 0
M  V30 13504 C 1327.5 -3.4226 0.553089 0
M  V30 13505 C 1326.56 -3.95376 1.67262 0
M  V30 13506 C 1325.79 -5.18629 1.25936 0
M  V30 13507 O 1326.02 -5.70246 0.132402 0
M  V30 13508 O 1324.95 -5.65157 2.07077 0
M  V30 13509 H 1328.78 -2.34765 1.92663 0
M  V30 13510 H 1326.36 -1.11208 0.997654 0
M  V30 13511 H 1328.24 -4.20177 0.320856 0
M  V30 13512 H 1326.92 -3.21716 -0.357881 0
M  V30 13513 H 1325.83 -3.18692 1.95924 0
M  V30 13514 H 1327.16 -4.20328 2.56097 0
M  V30 13515 N 1328.81 -1.02043 -1.20104 0
M  V30 13516 C 1329.76 -0.593945 -2.23027 0
M  V30 13517 C 1330.73 0.387931 -1.61506 0
M  V30 13518 O 1331.91 0.286504 -1.88637 0
M  V30 13519 C 1329.05 0.0577309 -3.45052 0
M  V30 13520 C 1328.17 -0.969169 -4.20988 0
M  V30 13521 C 1327.3 -0.288143 -5.30418 0
M  V30 13522 C 1326.34 -1.30154 -5.98102 0
M  V30 13523 N 1325.48 -0.646912 -6.99113 0
M  V30 13524 H 1330.32 -1.47623 -2.58866 0
M  V30 13525 H 1327.85 -0.738901 -1.27195 0
M  V30 13526 H 1329.81 0.452726 -4.14736 0
M  V30 13527 H 1328.44 0.90364 -3.09894 0
M  V30 13528 H 1327.49 -1.48229 -3.50332 0
M  V30 13529 H 1328.81 -1.73972 -4.67477 0
M  V30 13530 H 1327.96 0.162149 -6.06483 0
M  V30 13531 H 1326.7 0.514683 -4.84977 0
M  V30 13532 H 1325.7 -1.76218 -5.20795 0
M  V30 13533 H 1326.93 -2.10571 -6.45629 0
M  V30 13534 H 1324.88 0.135976 -6.55859 0
M  V30 13535 H 1324.79 -1.35548 -7.43749 0
M  V30 13536 H 1326.06 -0.220339 -7.79189 0
M  V30 13537 N 1330.29 1.35952 -0.797165 0
M  V30 13538 C 1331.54 1.99327 -0.373695 0
M  V30 13539 C 1331.87 1.63111 1.05396 0
M  V30 13540 O 1331.14 0.889736 1.72956 0
M  V30 13541 C 1331.43 3.5593 -0.54641 0
M  V30 13542 C 1331.28 4.01975 -2.01832 0
M  V30 13543 C 1332.6 4.40087 0.0337694 0
M  V30 13544 H 1329.72 0.724107 -0.137254 0
M  V30 13545 H 1332.36 1.61248 -1.00495 0
M  V30 13546 H 1330.51 3.88499 -0.00903959 0
M  V30 13547 H 1332.18 3.79859 -2.61735 0
M  V30 13548 H 1330.43 3.5323 -2.51815 0
M  V30 13549 H 1331.1 5.109 -2.09009 0
M  V30 13550 H 1333.57 4.13923 -0.425039 0
M  V30 13551 H 1332.45 5.48775 -0.117054 0
M  V30 13552 H 1332.71 4.27504 1.12661 0
M  V30 13553 N 1331.77 0.549846 1.47697 0
M  V30 13554 C 1332.7 -0.190364 2.32723 0
M  V30 13555 C 1333.68 -0.915933 1.43334 0
M  V30 13556 O 1334.86 -0.897838 1.72199 0
M  V30 13557 C 1331.99 -1.22545 3.24961 0
M  V30 13558 C 1330.95 -0.616805 4.23532 0
M  V30 13559 C 1330.27 -1.75599 5.05044 0
M  V30 13560 C 1331.57 0.424595 5.20571 0
M  V30 13561 H 1333.27 0.519461 2.94859 0
M  V30 13562 H 1330.81 0.251259 1.41791 0
M  V30 13563 H 1332.77 -1.75139 3.83281 0
M  V30 13564 H 1331.49 -1.96512 2.60865 0
M  V30 13565 H 1330.15 -0.112224 3.66428 0
M  V30 13566 H 1329.8 -2.48453 4.37356 0
M  V30 13567 H 1329.5 -1.35456 5.71774 0
M  V30 13568 H 1331.02 -2.28533 5.6622 0
M  V30 13569 H 1332.44 -0.0150025 5.73298 0
M  V30 13570 H 1330.83 0.7445 5.95464 0
M  V30 13571 H 1331.9 1.32318 4.66497 0
M  V30 13572 N 1333.25 -1.54984 0.285932 0
M  V30 13573 C 1334.16 -2.26621 -0.606648 0
M  V30 13574 C 1335.17 -1.29595 -1.16108 0
M  V30 13575 O 1336.35 -1.62551 -1.18908 0
M  V30 13576 C 1333.41 -2.98156 -1.76929 0
M  V30 13577 C 1332.47 -4.10685 -1.25045 0
M  V30 13578 C 1331.71 -4.788 -2.35768 0
M  V30 13579 O 1331.93 -4.46183 -3.55354 0
M  V30 13580 O 1330.86 -5.66523 -2.03312 0
M  V30 13581 H 1334.69 -3.03689 -0.0259981 0
M  V30 13582 H 1332.28 -1.49306 0.0529355 0
M  V30 13583 H 1334.16 -3.43076 -2.44697 0
M  V30 13584 H 1332.83 -2.23996 -2.33683 0
M  V30 13585 H 1331.74 -3.70198 -0.538919 0
M  V30 13586 H 1333.07 -4.86778 -0.728528 0
M  V30 13587 N 1334.72 -0.0133892 -1.57594 0
M  V30 13588 C 1335.69 0.958601 -2.08191 0
M  V30 13589 C 1336.69 1.26408 -0.993865 0
M  V30 13590 O 1337.88 1.20703 -1.25604 0
M  V30 13591 C 1335.01 2.27971 -2.5346 0
M  V30 13592 H 1336.2 0.520686 -2.95345 0
M  V30 13593 H 1333.76 0.234351 -1.54533 0
M  V30 13594 H 1334.49 2.76424 -1.69588 0
M  V30 13595 H 1334.28 2.07116 -3.32935 0
M  V30 13596 H 1335.77 2.97672 -2.92884 0
M  V30 13597 N 1336.2 1.55448 0.259558 0
M  V30 13598 C 1337.14 1.84197 1.3471 0
M  V30 13599 C 1338.11 0.69603 1.4695 0
M  V30 13600 O 1339.3 0.940458 1.63364 0
M  V30 13601 C 1336.42 2.01549 2.72205 0
M  V30 13602 C 1335.47 3.2415 2.77181 0
M  V30 13603 S 1336.3 4.81149 2.35066 0
M  V30 13604 C 1337.46 5.0149 3.74511 0
M  V30 13605 H 1337.69 2.76153 1.10122 0
M  V30 13606 H 1335.23 1.47392 0.459893 0
M  V30 13607 H 1337.18 2.12231 3.51381 0
M  V30 13608 H 1335.84 1.10458 2.94037 0
M  V30 13609 H 1335.04 3.33219 3.78129 0
M  V30 13610 H 1334.64 3.12128 2.06038 0
M  V30 13611 H 1336.93 4.88057 4.69901 0
M  V30 13612 H 1337.87 6.03507 3.70385 0
M  V30 13613 H 1338.28 4.294 3.66437 0
M  V30 13614 N 1337.68 -0.524672 1.4861 0
M  V30 13615 C 1339.09 -1.10655 1.50374 0
M  V30 13616 C 1339.44 -1.94242 0.276512 0
M  V30 13617 O 1338.57 -2.07451 -0.615887 0
M  V30 13618 C 1339.16 -2.01348 2.72478 0
M  V30 13619 C 1337.72 -2.54743 2.77097 0
M  V30 13620 C 1336.87 -1.31822 2.43964 0
M  V30 13621 H 1339.82 -0.309674 1.55649 0
M  V30 13622 H 1339.84 -2.85709 2.51297 0
M  V30 13623 H 1339.35 -1.40485 3.61781 0
M  V30 13624 H 1337.45 -3.19313 1.92016 0
M  V30 13625 H 1337.57 -2.93514 3.78664 0
M  V30 13626 H 1335.93 -1.63574 1.95233 0
M  V30 13627 H 1336.71 -0.727026 3.35513 0
M  V30 13628 N 1339.16 -1.37287 -0.77395 0
M  V30 13629 C 1340.57 -1.18039 -1.0742 0
M  V30 13630 C 1340.77 -0.0150339 -2.01494 0
M  V30 13631 O 1339.83 0.645562 -2.44108 0
M  V30 13632 C 1341.14 -2.49808 -1.67382 0
M  V30 13633 C 1342.69 -2.5631 -1.7965 0
M  V30 13634 C 1343.17 -3.88204 -2.43025 0
M  V30 13635 N 1344.66 -3.89634 -2.50478 0
M  V30 13636 C 1345.39 -4.88437 -3.00361 0
M  V30 13637 N 1344.89 -5.97635 -3.50434 0
M  V30 13638 N 1346.68 -4.75843 -2.99215 0
M  V30 13639 H 1338.83 -2.11875 -0.149269 0
M  V30 13640 H 1341.1 -0.939203 -0.128846 0
M  V30 13641 H 1340.8 -3.35433 -1.05726 0
M  V30 13642 H 1340.68 -2.66737 -2.66704 0
M  V30 13643 H 1343.06 -1.71094 -2.40439 0
M  V30 13644 H 1343.14 -2.43266 -0.790894 0
M  V30 13645 H 1342.79 -4.73834 -1.82876 0
M  V30 13646 H 1342.72 -3.98551 -3.44187 0
M  V30 13647 H 1345.21 -3.10751 -2.15039 0
M  V30 13648 H 1345.52 -6.6898 -3.86893 0
M  V30 13649 H 1343.87 -6.01283 -3.48545 0
M  V30 13650 H 1347.06 -3.89656 -2.59395 0
M  V30 13651 H 1347.23 -5.52999 -3.37781 0
M  V30 13652 O 1340.68 0.913948 -1.33151 0
M  V30 13653 H 1341.37 1.54756 -1.16492 0
M  V30 END ATOM
M  V30 BEGIN BOND
M  V30 END BOND
M  V30 END CTAB
M  END
$$$$
