drugbank_target|Q9RN68 Nine-heme cytochrome c (DB03317)
 OpenBabel12092120263D

  0  0  0     0  0            999 V3000
M  V30 BEGIN CTAB
M  V30 COUNTS 4861 4912 0 0 0
M  V30 BEGIN ATOM
M  V30 1 H -0.908 1.98254 -0.117106 0
M  V30 2 N 0 1.576 0 0
M  V30 3 C 0.933 2.03868 1.02534 0
M  V30 4 C 1.911 0.928543 1.3348 0
M  V30 5 O 3.095 1.19667 1.45644 0
M  V30 6 C 0.222 2.43627 2.35294 0
M  V30 7 C -0.732 3.65373 2.2001 0
M  V30 8 S 0.101 5.13292 1.52614 0
M  V30 9 C 1.257 5.56322 2.86805 0
M  V30 10 H 1.49 2.90518 0.631377 0
M  V30 11 H -0.977 1.52953 0.210867 0
M  V30 12 H 0.981 2.67203 3.11629 0
M  V30 13 H -0.358 1.57376 2.7183 0
M  V30 14 H -1.165 3.90944 3.18086 0
M  V30 15 H -1.563 3.418 1.51819 0
M  V30 16 H 0.729 5.58782 3.83104 0
M  V30 17 H 1.672 6.56266 2.65933 0
M  V30 18 H 2.08 4.83886 2.90714 0
M  V30 19 N 1.4781 -0.272755 1.55222 0
M  V30 20 C 2.8941 -0.619959 1.47067 0
M  V30 21 C 3.0941 -1.895 0.684978 0
M  V30 22 O 2.1501 -2.51675 0.203931 0
M  V30 23 C 3.4631 -0.746693 2.91282 0
M  V30 24 C 5.0111 -0.840731 3.01497 0
M  V30 25 C 5.4861 -0.99924 4.46967 0
M  V30 26 N 6.9771 -1.06476 4.50796 0
M  V30 27 C 7.7121 -1.20621 5.6057 0
M  V30 28 N 7.2081 -1.31483 6.80209 0
M  V30 29 N 9.0011 -1.23733 5.48312 0
M  V30 30 H 1.1521 0.564606 2.04758 0
M  V30 31 H 3.4151 0.191177 0.928523 0
M  V30 32 H 3.1211 0.119753 3.51496 0
M  V30 33 H 2.9951 -1.6269 3.40311 0
M  V30 34 H 5.3821 -1.69764 2.41379 0
M  V30 35 H 5.4631 0.0640874 2.5572 0
M  V30 36 H 5.1071 -0.146984 5.07687 0
M  V30 37 H 5.0371 -1.91871 4.90401 0
M  V30 38 H 7.5281 -0.993196 3.64615 0
M  V30 39 H 7.8411 -1.42111 7.59621 0
M  V30 40 H 6.1861 -1.28487 6.8302 0
M  V30 41 H 9.3771 -1.14877 4.53785 0
M  V30 42 H 9.5501 -1.34412 6.33906 0
M  V30 43 N 2.9562 -1.48159 -0.537278 0
M  V30 44 C 3.9042 -1.62573 -1.66352 0
M  V30 45 C 4.8982 -0.492366 -1.62087 0
M  V30 46 O 6.1042 -0.670847 -1.67032 0
M  V30 47 H 2.4792 -0.511992 -0.550789 0
M  V30 48 H 4.4502 -2.57176 -1.51337 0
M  V30 49 C 3.1992 -1.67583 -3.04649 0
M  V30 50 H 2.5222 -2.54151 -3.08622 0
M  V30 51 H 3.9622 -1.81713 -3.83088 0
M  V30 52 C 2.4212 -0.413039 -3.34358 0
M  V30 53 O 2.9512 0.477259 -3.98855 0
M  V30 54 N 1.1572 -0.286961 -2.8918 0
M  V30 55 H 0.7042 -1.01241 -2.36871 0
M  V30 56 H 0.6622 0.556963 -3.09427 0
M  V30 57 N 4.4343 0.785586 -1.36625 0
M  V30 58 C 5.6823 1.54057 -1.30808 0
M  V30 59 C 6.0033 1.94683 0.111157 0
M  V30 60 O 5.2733 1.65241 1.05224 0
M  V30 61 H 3.8533 0.571354 -0.481211 0
M  V30 62 H 6.5153 0.935821 -1.70963 0
M  V30 63 H 5.6113 2.44637 -1.93801 0
M  V30 64 N 5.9124 1.20967 1.01018 0
M  V30 65 C 7.1404 1.04956 1.78303 0
M  V30 66 C 7.5554 -0.400915 1.84494 0
M  V30 67 O 6.9124 -1.27826 1.30257 0
M  V30 68 C 6.9634 1.63403 3.22462 0
M  V30 69 O 6.6844 3.02775 3.16637 0
M  V30 70 C 8.1854 1.52432 4.16268 0
M  V30 71 H 5.4054 0.368858 0.560522 0
M  V30 72 H 7.9494 1.60193 1.27116 0
M  V30 73 H 6.1044 1.1227 3.70775 0
M  V30 74 H 6.5184 3.30626 4.07169 0
M  V30 75 H 7.9924 1.98078 5.15237 0
M  V30 76 H 8.4694 0.477875 4.36592 0
M  V30 77 H 9.0754 2.02787 3.73841 0
M  V30 78 N 7.3905 -1.2043 1.01659 0
M  V30 79 C 8.6155 -1.94318 0.724942 0
M  V30 80 C 9.0405 -1.74266 -0.708034 0
M  V30 81 O 8.3985 -1.03694 -1.48719 0
M  V30 82 C 8.4465 -3.44486 1.06591 0
M  V30 83 O 7.5505 -4.12017 0.177599 0
M  V30 84 H 6.8915 -0.60708 0.26898 0
M  V30 85 H 9.4215 -1.52861 1.35995 0
M  V30 86 H 9.4315 -3.95106 1.01762 0
M  V30 87 H 8.1065 -3.58404 2.10997 0
M  V30 88 H 6.6835 -3.71821 0.283421 0
M  V30 89 N 8.8686 -0.792821 -1.36206 0
M  V30 90 C 9.7986 -0.207853 -2.32573 0
M  V30 91 C 10.7796 0.659055 -1.56813 0
M  V30 92 O 11.9646 0.592176 -1.84951 0
M  V30 93 C 9.0946 0.655449 -3.41059 0
M  V30 94 C 8.0486 -0.111842 -4.27854 0
M  V30 95 C 7.3746 0.872274 -5.27537 0
M  V30 96 C 8.6746 -1.30299 -5.05786 0
M  V30 97 H 10.3686 -1.01294 -2.81744 0
M  V30 98 H 7.9146 -0.48854 -1.3546 0
M  V30 99 H 9.8676 1.07464 -4.07467 0
M  V30 100 H 8.5916 1.49328 -2.90463 0
M  V30 101 H 7.2506 -0.512053 -3.63006 0
M  V30 102 H 6.8986 1.70523 -4.73214 0
M  V30 103 H 6.5986 0.363291 -5.86476 0
M  V30 104 H 8.1226 1.28996 -5.96818 0
M  V30 105 H 9.5366 -0.959379 -5.65216 0
M  V30 106 H 7.9336 -1.7455 -5.74154 0
M  V30 107 H 9.0036 -2.09663 -4.37229 0
M  V30 108 N 10.3467 1.47872 -0.545128 0
M  V30 109 C 11.2767 2.32661 0.197793 0
M  V30 110 C 12.2577 1.43041 0.920504 0
M  V30 111 O 13.4427 1.71912 0.90333 0
M  V30 112 C 10.5727 3.24569 1.23582 0
M  V30 113 C 9.5267 4.23333 0.630323 0
M  V30 114 C 8.8527 5.0448 1.77211 0
M  V30 115 C 10.1527 5.20704 -0.407974 0
M  V30 116 H 11.8467 2.95024 -0.510045 0
M  V30 117 H 9.3927 1.4187 -0.246731 0
M  V30 118 H 11.3457 3.8272 1.76362 0
M  V30 119 H 10.0697 2.60236 1.97344 0
M  V30 120 H 8.7287 3.6639 0.123922 0
M  V30 121 H 8.3767 4.36561 2.49847 0
M  V30 122 H 8.0767 5.71339 1.37281 0
M  V30 123 H 9.6007 5.65487 2.3034 0
M  V30 124 H 11.0147 5.7329 0.033305 0
M  V30 125 H 9.4117 5.95699 -0.725486 0
M  V30 126 H 10.4817 4.66917 -1.30828 0
M  V30 127 N 11.8248 0.280983 1.55075 0
M  V30 128 C 12.7548 -0.597469 2.25727 0
M  V30 129 C 13.7358 -1.15417 1.24952 0
M  V30 130 O 14.9208 -1.18722 1.53684 0
M  V30 131 C 12.0508 -1.7789 2.98283 0
M  V30 132 C 11.0048 -1.35347 4.06036 0
M  V30 133 C 10.3308 -2.61846 4.66198 0
M  V30 134 C 11.6308 -0.499354 5.19907 0
M  V30 135 H 13.3248 -0.00824265 2.99399 0
M  V30 136 H 10.8708 -0.0025244 1.44 0
M  V30 137 H 12.8238 -2.39937 3.46422 0
M  V30 138 H 11.5478 -2.39405 2.22155 0
M  V30 139 H 10.2068 -0.756156 3.58717 0
M  V30 140 H 9.8548 -3.21632 3.86732 0
M  V30 141 H 9.5548 -2.3409 5.38958 0
M  V30 142 H 11.0788 -3.24732 5.1709 0
M  V30 143 H 12.4928 -1.02498 5.64063 0
M  V30 144 H 10.8898 -0.316424 5.99265 0
M  V30 145 H 11.9598 0.480459 4.82514 0
M  V30 146 N 13.3029 -1.57598 0.00835791 0
M  V30 147 C 14.2329 -2.1198 -0.979113 0
M  V30 148 C 15.2139 -1.03091 -1.35301 0
M  V30 149 O 16.3989 -1.30818 -1.43528 0
M  V30 150 C 13.5289 -2.62995 -2.26828 0
M  V30 151 C 12.4829 -3.76485 -2.03576 0
M  V30 152 C 11.8089 -4.13846 -3.38579 0
M  V30 153 C 13.1089 -5.0342 -1.39161 0
M  V30 154 H 14.8029 -2.94738 -0.526281 0
M  V30 155 H 12.3489 -1.41783 -0.251704 0
M  V30 156 H 14.3019 -2.99669 -2.96271 0
M  V30 157 H 13.0259 -1.7737 -2.7424 0
M  V30 158 H 11.6849 -3.40217 -1.36557 0
M  V30 159 H 11.3329 -3.25232 -3.83709 0
M  V30 160 H 11.0329 -4.90312 -3.23834 0
M  V30 161 H 12.5569 -4.53086 -4.09323 0
M  V30 162 H 13.9709 -5.37812 -1.98573 0
M  V30 163 H 12.3679 -5.84746 -1.34878 0
M  V30 164 H 13.4379 -4.83548 -0.361868 0
M  V30 165 N 14.781 0.264519 -1.55364 0
M  V30 166 C 15.744 1.31046 -1.88042 0
M  V30 167 C 16.744 1.41943 -0.755569 0
M  V30 168 O 17.934 1.40947 -1.02369 0
M  V30 169 C 15.066 2.69067 -2.09323 0
M  V30 170 H 16.259 1.03297 -2.81549 0
M  V30 171 H 13.812 0.502989 -1.47986 0
M  V30 172 H 14.547 3.01982 -1.18226 0
M  V30 173 H 14.332 2.62542 -2.91229 0
M  V30 174 H 15.822 3.44623 -2.35848 0
M  V30 175 N 16.2591 1.48442 0.529413 0
M  V30 176 C 17.2221 1.62524 1.61612 0
M  V30 177 C 18.2221 0.498509 1.52877 0
M  V30 178 O 19.4121 0.76431 1.56537 0
M  V30 179 C 16.5441 1.59597 3.01233 0
M  V30 180 H 17.7371 2.59423 1.50465 0
M  V30 181 H 15.2901 1.37047 0.751514 0
M  V30 182 H 16.0251 0.641781 3.17886 0
M  V30 183 H 15.8101 2.41397 3.08982 0
M  V30 184 H 17.3001 1.72646 3.80241 0
M  V30 185 N 17.7372 -0.778329 1.37039 0
M  V30 186 C 18.9862 -1.53189 1.3121 0
M  V30 187 C 19.2992 -1.95328 -0.103095 0
M  V30 188 O 20.5052 -2.70012 -0.283826 0
M  V30 189 C 18.9612 -2.76591 2.30272 0
M  V30 190 C 18.5692 -2.41577 3.77286 0
M  V30 191 C 20.3132 -3.5455 2.33441 0
M  V30 192 C 18.2202 -3.61441 4.68096 0
M  V30 193 H 17.1502 -0.5751 0.487622 0
M  V30 194 H 19.8012 -0.853101 1.62464 0
M  V30 195 H 18.1832 -3.46326 1.92027 0
M  V30 196 H 19.3572 -1.79668 4.2433 0
M  V30 197 H 17.6722 -1.76806 3.76999 0
M  V30 198 H 20.2692 -4.43628 2.98493 0
M  V30 199 H 20.6122 -3.93936 1.34611 0
M  V30 200 H 21.1452 -2.91805 2.7036 0
M  V30 201 H 17.8842 -3.27142 5.6803 0
M  V30 202 H 17.4042 -4.22478 4.25761 0
M  V30 203 H 19.0832 -4.28335 4.8491 0
M  V30 204 N 19.2153 -1.21501 -1.00376 0
M  V30 205 C 20.1783 -0.976927 -2.07337 0
M  V30 206 C 21.1783 0.0525322 -1.60714 0
M  V30 207 O 22.3683 -0.184869 -1.73216 0
M  V30 208 C 19.5003 -0.473423 -3.37597 0
M  V30 209 H 20.6933 -1.92587 -2.29892 0
M  V30 210 H 18.2463 -1.03217 -1.17371 0
M  V30 211 H 18.9813 0.480379 -3.20722 0
M  V30 212 H 18.7663 -1.216 -3.72768 0
M  V30 213 H 20.2563 -0.32675 -4.1632 0
M  V30 214 N 20.6934 1.19889 -1.02296 0
M  V30 215 C 21.6234 2.25141 -0.619174 0
M  V30 216 C 22.6044 1.66051 0.368915 0
M  V30 217 O 23.7894 1.92546 0.252941 0
M  V30 218 C 20.9194 3.4728 0.0368783 0
M  V30 219 C 19.8734 4.19005 -0.872865 0
M  V30 220 C 19.1994 5.34637 -0.0822402 0
M  V30 221 C 20.4994 4.74452 -2.18387 0
M  V30 222 H 22.1934 2.59171 -1.49903 0
M  V30 223 H 19.7394 1.24579 -0.722222 0
M  V30 224 H 21.6924 4.20098 0.330958 0
M  V30 225 H 20.4164 3.12433 0.95149 0
M  V30 226 H 19.0754 3.48061 -1.15105 0
M  V30 227 H 18.7234 4.96034 0.83422 0
M  V30 228 H 18.4234 5.83557 -0.688149 0
M  V30 229 H 19.9474 6.10255 0.205238 0
M  V30 230 H 21.3614 5.39055 -1.95172 0
M  V30 231 H 19.7584 5.33834 -2.74119 0
M  V30 232 H 20.8284 3.92844 -2.84257 0
M  V30 233 N 22.1715 0.800033 1.35784 0
M  V30 234 C 23.1345 0.211565 2.28221 0
M  V30 235 C 24.1345 -0.59728 1.49296 0
M  V30 236 O 25.3245 -0.416721 1.69142 0
M  V30 237 C 22.4565 -0.705846 3.33513 0
M  V30 238 H 23.6495 1.02677 2.81776 0
M  V30 239 H 21.2025 0.570211 1.45528 0
M  V30 240 H 21.9375 -1.54498 2.85133 0
M  V30 241 H 21.7225 -0.127655 3.91892 0
M  V30 242 H 23.2125 -1.11211 4.02519 0
M  V30 243 N 23.6496 -1.47581 0.552962 0
M  V30 244 C 24.8976 -2.02082 0.0272703 0
M  V30 245 C 25.2186 -1.4301 -1.32563 0
M  V30 246 O 24.4886 -0.603745 -1.86365 0
M  V30 247 H 23.0686 -0.746966 0.00709182 0
M  V30 248 H 25.7306 -1.81033 0.722008 0
M  V30 249 H 24.8266 -3.12034 -0.0639951 0
M  V30 250 N 25.1277 -0.289203 -1.54924 0
M  V30 251 C 26.0907 0.579144 -2.21762 0
M  V30 252 C 27.0907 1.07047 -1.1999 0
M  V30 253 O 28.2807 0.968384 -1.44803 0
M  V30 254 C 25.4127 1.80055 -2.8947 0
M  V30 255 H 26.6057 -0.00464908 -2.999 0
M  V30 256 H 24.1587 -0.0399306 -1.56249 0
M  V30 257 H 24.8937 2.42449 -2.15381 0
M  V30 258 H 24.6787 1.45602 -3.64064 0
M  V30 259 H 26.1687 2.41773 -3.40493 0
M  V30 260 N 26.6058 1.57591 -0.0167156 0
M  V30 261 C 27.5688 2.08393 0.954204 0
M  V30 262 C 28.5688 0.996531 1.26198 0
M  V30 263 O 29.7588 1.25858 1.20438 0
M  V30 264 C 26.8908 2.5394 2.27436 0
M  V30 265 H 28.0838 2.95455 0.514451 0
M  V30 266 H 25.6368 1.54582 0.231089 0
M  V30 267 H 26.3718 1.70171 2.76066 0
M  V30 268 H 26.1568 3.33371 2.06412 0
M  V30 269 H 27.6468 2.93512 2.97053 0
M  V30 270 N 28.0839 -0.256276 1.55502 0
M  V30 271 C 29.3239 -0.993081 1.78654 0
M  V30 272 C 29.6879 -1.8288 0.584724 0
M  V30 273 O 30.8889 -2.59665 0.694822 0
M  V30 274 C 29.1599 -1.83856 3.06483 0
M  V30 275 S 30.7189 -2.63573 3.5082 0
M  V30 276 H 27.5369 -0.334199 0.62756 0
M  V30 277 H 30.1389 -0.26184 1.93739 0
M  V30 278 H 28.8429 -1.21414 3.92029 0
M  V30 279 H 28.3739 -2.61271 2.94111 0
M  V30 280 H 30.3889 -3.86312 3.11412 0
M  V30 281 N 29.562 -1.4872 -0.521534 0
M  V30 282 C 30.492 -1.66771 -1.63431 0
M  V30 283 C 31.473 -0.516499 -1.62069 0
M  V30 284 O 32.658 -0.750013 -1.79132 0
M  V30 285 C 29.788 -1.71515 -3.01993 0
M  V30 286 C 28.742 -2.86222 -3.18216 0
M  V30 287 C 28.068 -2.76061 -4.57924 0
M  V30 288 C 29.368 -4.27419 -3.00184 0
M  V30 289 H 31.062 -2.59932 -1.48579 0
M  V30 290 H 28.608 -1.25089 -0.713358 0
M  V30 291 H 30.561 -1.82731 -3.7972 0
M  V30 292 H 29.285 -0.749393 -3.17886 0
M  V30 293 H 27.944 -2.74575 -2.42908 0
M  V30 294 H 27.592 -1.77437 -4.70665 0
M  V30 295 H 27.292 -3.53037 -4.69722 0
M  V30 296 H 28.816 -2.89256 -5.37739 0
M  V30 297 H 30.23 -4.39855 -3.67697 0
M  V30 298 H 28.627 -5.05458 -3.2347 0
M  V30 299 H 29.697 -4.43293 -1.96518 0
M  V30 300 N 31.0401 0.771051 -1.3745 0
M  V30 301 C 32.2681 1.56015 -1.35893 0
M  V30 302 C 32.6831 1.88718 0.0555523 0
M  V30 303 O 32.0401 1.51502 1.01752 0
M  V30 304 C 32.0911 2.87001 -2.19801 0
M  V30 305 O 31.8121 2.557 -3.55738 0
M  V30 306 C 33.3131 3.81228 -2.26231 0
M  V30 307 H 30.5331 0.483317 -0.465453 0
M  V30 308 H 33.0771 0.955611 -1.80799 0
M  V30 309 H 31.2321 3.43877 -1.78402 0
M  V30 310 H 31.6461 3.39584 -3.99729 0
M  V30 311 H 33.1201 4.70139 -2.89263 0
M  V30 312 H 33.5971 4.20409 -1.27093 0
M  V30 313 H 34.2031 3.30281 -2.67945 0
M  V30 314 N 32.5182 1.22032 0.997298 0
M  V30 315 C 33.4812 0.987909 2.06816 0
M  V30 316 C 34.4812 -0.0440084 1.6074 0
M  V30 317 O 35.6712 0.194053 1.73116 0
M  V30 318 C 32.8032 0.49132 3.37341 0
M  V30 319 H 33.9962 1.93803 2.28868 0
M  V30 320 H 31.5492 1.03838 1.16822 0
M  V30 321 H 32.2842 -0.463364 3.20973 0
M  V30 322 H 32.0692 1.23575 3.72118 0
M  V30 323 H 33.5592 0.348824 4.16141 0
M  V30 324 N 33.9963 -1.19345 1.0293 0
M  V30 325 C 34.9293 -2.21347 0.555029 0
M  V30 326 C 35.9073 -1.57492 -0.404351 0
M  V30 327 O 37.0913 -1.85741 -0.321352 0
M  V30 328 C 34.2183 -3.38163 -0.19064 0
M  V30 329 C 33.2643 -4.20375 0.720236 0
M  V30 330 S 34.0973 -4.88371 2.19668 0
M  V30 331 C 35.2533 -6.08597 1.46153 0
M  V30 332 H 35.4863 -2.61235 1.41929 0
M  V30 333 H 33.0193 -1.29598 0.839272 0
M  V30 334 H 34.9773 -4.05871 -0.614724 0
M  V30 335 H 33.6383 -2.9671 -1.03063 0
M  V30 336 H 32.8313 -5.03793 0.14455 0
M  V30 337 H 32.4333 -3.57987 1.08266 0
M  V30 338 H 34.7253 -6.73354 0.748357 0
M  V30 339 H 35.6683 -6.7065 2.27233 0
M  V30 340 H 36.0763 -5.56297 0.958842 0
M  V30 341 N 35.4744 -0.807222 -1.35358 0
M  V30 342 C 36.7224 -0.387122 -1.98358 0
M  V30 343 C 37.0434 1.04942 -1.64354 0
M  V30 344 O 36.3134 1.72615 -0.926339 0
M  V30 345 H 34.8934 -0.140154 -0.733734 0
M  V30 346 H 37.5554 -1.0332 -1.6526 0
M  V30 347 H 36.6514 -0.493352 -3.08176 0
M  V30 348 N 36.9525 1.47285 -0.560781 0
M  V30 349 C 38.2005 2.02064 -0.0379868 0
M  V30 350 C 38.5215 1.43711 1.31803 0
M  V30 351 O 37.7915 0.61362 1.86042 0
M  V30 352 H 36.3715 0.746918 -0.0110531 0
M  V30 353 H 39.0335 1.80648 -0.731598 0
M  V30 354 H 38.1295 3.12064 0.0474463 0
M  V30 355 N 38.4306 0.297415 1.54768 0
M  V30 356 C 39.6586 -0.315623 2.04478 0
M  V30 357 C 40.0736 -1.47792 1.17486 0
M  V30 358 O 39.4306 -1.81404 0.19971 0
M  V30 359 C 39.4816 -0.7753 3.53088 0
M  V30 360 O 39.2026 0.340732 4.36773 0
M  V30 361 C 40.7036 -1.45386 4.18781 0
M  V30 362 H 37.9236 -0.0690887 0.667434 0
M  V30 363 H 40.4676 0.436003 1.99798 0
M  V30 364 H 38.6226 -1.47696 3.58141 0
M  V30 365 H 39.0366 -0.0165035 5.24497 0
M  V30 366 H 40.5106 -1.72669 5.24299 0
M  V30 367 H 40.9876 -2.39275 3.68299 0
M  V30 368 H 41.5936 -0.795475 4.17795 0
M  V30 369 N 39.9087 -1.5758 0.0250728 0
M  V30 370 C 40.8717 -2.08896 -0.943139 0
M  V30 371 C 41.8717 -1.00321 -1.25668 0
M  V30 372 O 43.0617 -1.26495 -1.19769 0
M  V30 373 C 40.1937 -2.55143 -2.26086 0
M  V30 374 H 41.3867 -2.95723 -0.498775 0
M  V30 375 H 38.9397 -1.54703 -0.222888 0
M  V30 376 H 39.6747 -1.71633 -2.75159 0
M  V30 377 H 39.4597 -3.34461 -2.04641 0
M  V30 378 H 40.9497 -2.95083 -2.95492 0
M  V30 379 N 41.3868 0.248026 -1.55636 0
M  V30 380 C 42.3338 1.30707 -1.90222 0
M  V30 381 C 43.3038 1.47881 -0.756332 0
M  V30 382 O 44.4888 1.61883 -1.00988 0
M  V30 383 C 41.6288 2.65769 -2.20138 0
M  V30 384 C 40.7418 2.56612 -3.47526 0
M  V30 385 C 39.8768 3.8402 -3.67017 0
M  V30 386 C 38.9158 3.69476 -4.8801 0
M  V30 387 N 38.0528 4.88774 -5.04029 0
M  V30 388 H 42.8928 1.00512 -2.80538 0
M  V30 389 H 40.4298 0.485055 -1.38873 0
M  V30 390 H 42.3878 3.44386 -2.35487 0
M  V30 391 H 41.0178 2.94115 -1.33027 0
M  V30 392 H 40.0698 1.69571 -3.40514 0
M  V30 393 H 41.3818 2.41774 -4.36287 0
M  V30 394 H 40.5358 4.7108 -3.8232 0
M  V30 395 H 39.2748 4.01754 -2.76487 0
M  V30 396 H 38.2798 2.80799 -4.72686 0
M  V30 397 H 39.5048 3.53238 -5.8 0
M  V30 398 H 37.4508 5.0687 -4.16435 0
M  V30 399 H 37.3678 4.76562 -5.86877 0
M  V30 400 H 38.6358 5.77335 -5.23741 0
M  V30 401 N 42.8649 1.48995 0.513639 0
M  V30 402 C 43.8279 1.64229 1.59879 0
M  V30 403 C 44.8279 0.514696 1.5234 0
M  V30 404 O 46.0179 0.78087 1.55718 0
M  V30 405 C 43.1499 1.62783 2.99524 0
M  V30 406 H 44.3429 2.61004 1.47705 0
M  V30 407 H 41.8959 1.37837 0.736936 0
M  V30 408 H 42.6309 0.675461 3.17188 0
M  V30 409 H 42.4159 2.4466 3.06404 0
M  V30 410 H 43.9059 1.76669 3.78388 0
M  V30 411 N 44.343 -0.763751 1.37857 0
M  V30 412 C 45.306 -1.85889 1.34081 0
M  V30 413 C 46.306 -1.58949 0.243277 0
M  V30 414 O 47.496 -1.66882 0.499589 0
M  V30 415 C 44.628 -3.23176 1.08489 0
M  V30 416 H 45.821 -1.90648 2.31502 0
M  V30 417 H 43.374 -0.964367 1.23003 0
M  V30 418 H 44.109 -3.24091 0.116318 0
M  V30 419 H 43.894 -3.44124 1.8794 0
M  V30 420 H 45.384 -4.03254 1.08517 0
M  V30 421 N 45.8211 -1.22559 -0.990812 0
M  V30 422 C 46.7841 -0.998863 -2.0629 0
M  V30 423 C 47.7841 0.0354834 -1.60761 0
M  V30 424 O 48.9741 -0.203231 -1.7301 0
M  V30 425 C 46.1061 -0.509203 -3.37076 0
M  V30 426 H 47.2991 -1.95014 -2.27837 0
M  V30 427 H 44.8521 -1.04456 -1.16269 0
M  V30 428 H 45.5871 0.446335 -3.21214 0
M  V30 429 H 45.3721 -1.25547 -3.71457 0
M  V30 430 H 46.8621 -0.370888 -4.1595 0
M  V30 431 N 47.2992 1.18797 -1.03562 0
M  V30 432 C 48.2292 2.24472 -0.643019 0
M  V30 433 C 49.2102 1.66433 0.351283 0
M  V30 434 O 50.3952 1.92803 0.232505 0
M  V30 435 C 47.5252 3.473 4.24935e-05 0
M  V30 436 C 46.4792 4.18055 -0.917257 0
M  V30 437 C 45.8052 5.34519 -0.138941 0
M  V30 438 C 47.1052 4.72109 -2.23407 0
M  V30 439 H 48.7992 2.57566 -1.52643 0
M  V30 440 H 46.3452 1.23806 -0.735394 0
M  V30 441 H 48.2982 4.20426 0.286383 0
M  V30 442 H 47.0222 3.13424 0.918299 0
M  V30 443 H 45.6812 3.46821 -1.1879 0
M  V30 444 H 45.3292 4.96891 0.781562 0
M  V30 445 H 45.0292 5.82794 -0.750005 0
M  V30 446 H 46.5532 6.10438 0.1405 0
M  V30 447 H 47.9672 5.36955 -2.00879 0
M  V30 448 H 46.3642 5.30897 -2.79765 0
M  V30 449 H 47.4342 3.89807 -2.88407 0
M  V30 450 N 48.7773 0.814389 1.34928 0
M  V30 451 C 49.6873 0.231978 2.3345 0
M  V30 452 C 50.7033 -0.629139 1.62228 0
M  V30 453 O 51.8793 -0.539052 1.94052 0
M  V30 454 C 48.9443 -0.603482 3.41407 0
M  V30 455 C 48.0053 0.279037 4.28392 0
M  V30 456 C 47.2383 -0.516643 5.31193 0
M  V30 457 O 47.4613 -1.75068 5.4287 0
M  V30 458 O 46.3953 0.0965652 6.01823 0
M  V30 459 H 50.2213 1.04721 2.85074 0
M  V30 460 H 47.8063 0.576343 1.37836 0
M  V30 461 H 49.6883 -1.07908 4.0735 0
M  V30 462 H 48.3633 -1.39618 2.92042 0
M  V30 463 H 47.2703 0.801948 3.65403 0
M  V30 464 H 48.6033 1.03588 4.81176 0
M  V30 465 N 50.2554 -1.46986 0.568584 0
M  V30 466 C 51.6664 -1.86188 0.138219 0
M  V30 467 C 52.0174 -1.47388 -1.29504 0
M  V30 468 O 51.1424 -0.88219 -1.97602 0
M  V30 469 C 51.7374 -3.3792 0.244065 0
M  V30 470 C 50.2964 -3.76171 -0.131335 0
M  V30 471 C 49.4434 -2.71027 0.586465 0
M  V30 472 H 52.3944 -1.38342 0.777645 0
M  V30 473 H 52.4154 -3.76729 -0.534351 0
M  V30 474 H 51.9274 -3.66128 1.28731 0
M  V30 475 H 50.0284 -3.5358 -1.17526 0
M  V30 476 H 50.1414 -4.78523 0.235146 0
M  V30 477 H 48.5054 -2.54684 0.0282722 0
M  V30 478 H 49.2884 -3.02077 1.63109 0
M  V30 479 N 51.7335 -0.305618 -1.54608 0
M  V30 480 C 52.9615 0.304775 -2.04643 0
M  V30 481 C 53.3765 1.47167 -1.18268 0
M  V30 482 O 52.7335 1.81296 -0.209328 0
M  V30 483 C 52.7845 0.756564 -3.53495 0
M  V30 484 O 52.5055 -0.36389 -4.36586 0
M  V30 485 C 54.0065 1.43163 -4.19546 0
M  V30 486 H 51.2265 0.0655481 -0.667791 0
M  V30 487 H 53.7705 -0.446592 -1.99564 0
M  V30 488 H 51.9255 1.45794 -3.58919 0
M  V30 489 H 52.3395 -0.0113121 -5.24499 0
M  V30 490 H 53.8135 1.69886 -5.25207 0
M  V30 491 H 54.2905 2.37318 -3.69563 0
M  V30 492 H 54.8965 0.773307 -4.18211 0
M  V30 493 N 53.2116 1.57565 -0.0334293 0
M  V30 494 C 54.4886 1.83282 0.683163 0
M  V30 495 C 54.8686 0.91823 1.90084 0
M  V30 496 O 54.2166 -0.025113 2.28486 0
M  V30 497 C 54.4266 3.32599 1.0573 0
M  V30 498 C 55.7746 3.99179 1.44711 0
M  V30 499 O 56.7986 3.3712 1.15015 0
M  V30 500 O 55.6576 5.08565 2.0006 0
M  V30 501 H 52.7516 0.755869 0.335546 0
M  V30 502 H 55.2976 1.69589 -0.0614402 0
M  V30 503 H 54.0696 3.90834 0.190828 0
M  V30 504 H 53.6926 3.51415 1.85993 0
M  V30 505 N 54.6897 -0.239769 1.55765 0
M  V30 506 C 55.9147 -0.988373 1.82335 0
M  V30 507 C 56.3397 -1.77886 0.611421 0
M  V30 508 O 55.6977 -1.75889 -0.439639 0
M  V30 509 C 55.7457 -1.89627 3.06715 0
M  V30 510 O 54.8497 -2.98904 2.84131 0
M  V30 511 H 54.1907 -0.280858 0.601677 0
M  V30 512 H 56.7207 -0.258597 2.02959 0
M  V30 513 H 56.7307 -2.30957 3.36338 0
M  V30 514 H 55.4057 -1.31511 3.9456 0
M  V30 515 H 53.9827 -2.61651 2.65694 0
M  V30 516 N 56.1678 -1.49265 -0.50573 0
M  V30 517 C 57.4158 -1.582 -1.25766 0
M  V30 518 C 57.7368 -0.268482 -1.93143 0
M  V30 519 O 57.0068 0.711833 -1.8251 0
M  V30 520 H 55.5868 -0.582873 -0.467191 0
M  V30 521 H 58.2488 -1.85865 -0.586525 0
M  V30 522 H 57.3448 -2.37563 -2.02412 0
M  V30 523 N 57.6459 0.756429 -1.3826 0
M  V30 524 C 58.6089 1.85176 -1.35065 0
M  V30 525 C 59.6089 1.58818 -0.251703 0
M  V30 526 O 60.7989 1.66615 -0.508433 0
M  V30 527 C 57.9309 3.22596 -1.10201 0
M  V30 528 H 59.1239 1.89417 -2.3251 0
M  V30 529 H 56.6769 0.95783 -1.23512 0
M  V30 530 H 57.4119 3.24025 -0.133504 0
M  V30 531 H 57.1969 3.43122 -1.89762 0
M  V30 532 H 58.6869 4.02673 -1.10654 0
M  V30 533 N 59.124 1.23083 0.984299 0
M  V30 534 C 60.535 1.05609 1.5396 0
M  V30 535 C 60.886 -0.377793 1.92528 0
M  V30 536 O 60.011 -1.26398 1.75649 0
M  V30 537 C 60.606 1.91087 2.7977 0
M  V30 538 C 59.165 1.77885 3.31713 0
M  V30 539 C 58.312 1.87028 2.04733 0
M  V30 540 H 61.263 1.36802 0.804419 0
M  V30 541 H 61.284 1.43336 3.5247 0
M  V30 542 H 60.796 2.9544 2.51668 0
M  V30 543 H 58.897 0.762995 3.64704 0
M  V30 544 H 59.01 2.61047 4.01735 0
M  V30 545 H 57.374 1.30565 2.18689 0
M  V30 546 H 58.157 2.92929 1.79017 0
M  V30 547 N 60.6021 -1.18246 1.0419 0
M  V30 548 C 61.8271 -1.92736 0.765996 0
M  V30 549 C 62.2521 -1.75728 -0.67091 0
M  V30 550 O 61.6101 -1.06825 -1.46486 0
M  V30 551 C 61.6581 -3.42148 1.13875 0
M  V30 552 O 60.7621 -4.11548 0.264954 0
M  V30 553 H 60.1031 -0.601238 0.281797 0
M  V30 554 H 62.6331 -1.49942 1.39207 0
M  V30 555 H 62.6431 -3.92858 1.1012 0
M  V30 556 H 61.3181 -3.53848 2.18551 0
M  V30 557 H 59.8951 -3.71137 0.362226 0
M  V30 558 N 62.0802 -0.821533 -1.34494 0
M  V30 559 C 63.0432 -0.247847 -2.27856 0
M  V30 560 C 64.0432 0.573453 -1.50227 0
M  V30 561 O 65.2332 0.389759 -1.69784 0
M  V30 562 C 62.3652 0.652698 -3.34593 0
M  V30 563 H 63.5582 -1.07146 -2.80107 0
M  V30 564 H 61.1112 -0.593291 -1.44602 0
M  V30 565 H 61.8462 1.49943 -2.87555 0
M  V30 566 H 61.6312 0.065292 -3.92046 0
M  V30 567 H 63.1212 1.04793 -4.04238 0
M  V30 568 N 63.5583 1.46682 -0.576371 0
M  V30 569 C 64.8073 2.01619 -0.0572825 0
M  V30 570 C 65.1203 1.45417 1.30818 0
M  V30 571 O 66.3263 1.92133 1.91825 0
M  V30 572 C 64.7823 3.59863 -0.0518371 0
M  V30 573 C 64.3903 4.25059 -1.41523 0
M  V30 574 C 66.1343 4.2248 0.413639 0
M  V30 575 C 64.0413 5.75364 -1.36785 0
M  V30 576 H 62.9713 0.753794 -0.0176448 0
M  V30 577 H 65.6223 1.68481 -0.727076 0
M  V30 578 H 64.0043 3.90048 0.683994 0
M  V30 579 H 65.1783 4.06491 -2.17029 0
M  V30 580 H 63.4933 3.7451 -1.8202 0
M  V30 581 H 66.0903 5.3265 0.467779 0
M  V30 582 H 66.4333 3.90976 1.42982 0
M  V30 583 H 66.9663 3.96897 -0.267929 0
M  V30 584 H 63.7053 6.11518 -2.36063 0
M  V30 585 H 63.2253 5.96214 -0.654895 0
M  V30 586 H 64.9043 6.37955 -1.07805 0
M  V30 587 N 65.0364 0.313813 1.54444 0
M  V30 588 C 66.2824 -0.292108 2.00685 0
M  V30 589 C 66.6154 -1.52548 1.20177 0
M  V30 590 O 65.8904 -1.92452 0.281531 0
M  V30 591 C 66.1734 -0.635968 3.5444 0
M  V30 592 C 66.0264 0.607437 4.4568 0
M  V30 593 C 67.3454 -1.45747 4.15266 0
M  V30 594 H 64.4644 -0.104697 0.729526 0
M  V30 595 H 67.1064 0.428457 1.85106 0
M  V30 596 H 65.2564 -1.24986 3.67846 0
M  V30 597 H 66.9284 1.24581 4.44159 0
M  V30 598 H 65.1714 1.23822 4.15753 0
M  V30 599 H 65.8424 0.322515 5.51057 0
M  V30 600 H 68.3184 -0.938645 4.05375 0
M  V30 601 H 67.1944 -1.66683 5.2298 0
M  V30 602 H 67.4554 -2.45063 3.67963 0
M  V30 603 N 66.5145 -1.57545 0.0417849 0
M  V30 604 C 67.4475 -2.06514 -0.970928 0
M  V30 605 C 68.4255 -0.963607 -1.30971 0
M  V30 606 O 69.6095 -1.23486 -1.4242 0
M  V30 607 C 66.7365 -2.4978 -2.28752 0
M  V30 608 C 65.7825 -3.71078 -2.10246 0
M  V30 609 S 66.6155 -5.17158 -1.38952 0
M  V30 610 C 67.7715 -5.6373 -2.71954 0
M  V30 611 H 68.0045 -2.9209 -0.554129 0
M  V30 612 H 65.5375 -1.53459 -0.17024 0
M  V30 613 H 67.4955 -2.75371 -3.04435 0
M  V30 614 H 66.1565 -1.64527 -2.67562 0
M  V30 615 H 65.3495 -3.9924 -3.07609 0
M  V30 616 H 64.9515 -3.45705 -1.42704 0
M  V30 617 H 67.2435 -5.68743 -3.68154 0
M  V30 618 H 68.1865 -6.63086 -2.4844 0
M  V30 619 H 68.5945 -4.91424 -2.77782 0
M  V30 620 N 67.9926 0.231505 -1.5589 0
M  V30 621 C 69.2396 0.957352 -1.78441 0
M  V30 622 C 69.5676 1.84726 -0.60882 0
M  V30 623 O 68.8226 1.91416 0.40725 0
M  V30 624 C 69.1216 1.83577 -3.0665 0
M  V30 625 C 68.7876 1.09993 -4.37278 0
M  V30 626 C 67.4496 0.896629 -4.72773 0
M  V30 627 C 69.8016 0.579558 -5.17968 0
M  V30 628 C 67.1296 0.160896 -5.86479 0
M  V30 629 C 69.4816 -0.142783 -6.32439 0
M  V30 630 C 68.1456 -0.357427 -6.66542 0
M  V30 631 H 67.4156 0.35032 -0.65296 0
M  V30 632 H 70.0626 0.226259 -1.90159 0
M  V30 633 H 68.3676 2.63441 -2.90011 0
M  V30 634 H 70.0646 2.39934 -3.21298 0
M  V30 635 H 66.6546 1.26835 -4.09403 0
M  V30 636 H 70.8386 0.724125 -4.90989 0
M  V30 637 H 66.0946 -0.0157293 -6.11398 0
M  V30 638 H 70.2686 -0.553559 -6.94196 0
M  V30 639 H 67.8956 -0.929466 -7.54497 0
M  V30 640 N 69.4707 1.49531 0.497807 0
M  V30 641 C 70.8817 1.52344 1.07927 0
M  V30 642 C 71.2327 0.311469 1.93712 0
M  V30 643 O 70.3577 -0.578405 2.08527 0
M  V30 644 C 70.9527 2.76062 1.96405 0
M  V30 645 C 69.5117 2.81643 2.49709 0
M  V30 646 C 68.6587 2.46299 1.27404 0
M  V30 647 H 71.6097 1.56182 0.281576 0
M  V30 648 H 71.6307 2.56405 2.81135 0
M  V30 649 H 71.1427 3.64254 1.33943 0
M  V30 650 H 69.2437 1.97739 3.15801 0
M  V30 651 H 69.3567 3.83891 2.86643 0
M  V30 652 H 67.7207 1.98148 1.60029 0
M  V30 653 H 68.5037 3.36769 0.66645 0
M  V30 654 N 70.9488 -0.749086 1.3866 0
M  V30 655 C 72.1948 -1.51056 1.35314 0
M  V30 656 C 72.5278 -1.94121 -0.0553751 0
M  V30 657 O 71.8028 -1.65763 -1.01749 0
M  V30 658 C 72.0858 -2.76003 2.31288 0
M  V30 659 C 71.9388 -2.39047 3.8102 0
M  V30 660 C 73.2578 -3.78046 2.2532 0
M  V30 661 H 70.3768 -0.547972 0.492844 0
M  V30 662 H 73.0188 -0.857628 1.69543 0
M  V30 663 H 71.1688 -3.31716 2.02229 0
M  V30 664 H 72.8408 -1.89074 4.20771 0
M  V30 665 H 71.0838 -1.71449 3.98482 0
M  V30 666 H 71.7548 -3.28462 4.4364 0
M  V30 667 H 74.2308 -3.31884 2.50983 0
M  V30 668 H 73.1068 -4.63159 2.94576 0
M  V30 669 H 73.3678 -4.23957 1.25352 0
M  V30 670 N 72.4269 -1.23603 -0.977757 0
M  V30 671 C 73.6749 -1.06759 -1.71601 0
M  V30 672 C 73.9959 0.395929 -1.90938 0
M  V30 673 O 73.2659 1.28356 -1.47992 0
M  V30 674 H 71.8459 -0.392062 -0.635843 0
M  V30 675 H 74.5079 -1.55362 -1.1768 0
M  V30 676 H 73.6039 -1.55763 -2.70452 0
M  V30 677 N 73.905 1.17692 -1.04816 0
M  V30 678 C 74.815 2.25229 -0.65643 0
M  V30 679 C 75.831 1.71018 0.320761 0
M  V30 680 O 77.007 2.00649 0.173805 0
M  V30 681 C 74.072 3.46684 -0.0332629 0
M  V30 682 C 73.133 4.15997 -1.06042 0
M  V30 683 C 72.366 5.31654 -0.466893 0
M  V30 684 O 72.589 5.65777 0.724758 0
M  V30 685 O 71.523 5.89831 -1.1993 0
M  V30 686 H 75.349 2.61016 -1.55255 0
M  V30 687 H 72.934 1.24919 -0.81949 0
M  V30 688 H 74.816 4.20234 0.313256 0
M  V30 689 H 73.491 3.12703 0.836566 0
M  V30 690 H 72.398 3.44482 -1.45886 0
M  V30 691 H 73.731 4.53996 -1.90127 0
M  V30 692 N 75.3831 0.828654 1.34056 0
M  V30 693 C 76.3301 0.252567 2.29414 0
M  V30 694 C 77.3001 -0.62588 1.53857 0
M  V30 695 O 78.4851 -0.566312 1.82202 0
M  V30 696 C 75.6251 -0.574831 3.40279 0
M  V30 697 C 74.7381 0.326499 4.30764 0
M  V30 698 C 73.8731 -0.511016 5.28736 0
M  V30 699 C 72.9121 0.389342 6.1086 0
M  V30 700 N 72.0491 -0.409439 7.00905 0
M  V30 701 H 76.8891 1.07108 2.78086 0
M  V30 702 H 74.4261 0.539677 1.36843 0
M  V30 703 H 76.3841 -1.06992 4.03248 0
M  V30 704 H 75.0141 -1.35841 2.92826 0
M  V30 705 H 74.0661 0.939837 3.68607 0
M  V30 706 H 75.3781 1.01857 4.88289 0
M  V30 707 H 74.5321 -1.07035 5.97184 0
M  V30 708 H 73.2711 -1.23657 4.71763 0
M  V30 709 H 72.2761 0.960769 5.4134 0
M  V30 710 H 73.5011 1.1131 6.69916 0
M  V30 711 H 71.4471 -1.11856 6.46393 0
M  V30 712 H 71.3641 0.224126 7.55668 0
M  V30 713 H 72.6321 -0.951336 7.73673 0
M  V30 714 N 76.8612 -1.46375 0.584142 0
M  V30 715 C 78.2722 -1.86031 0.157959 0
M  V30 716 C 78.6232 -1.48753 -1.27933 0
M  V30 717 O 77.7482 -0.903098 -1.96655 0
M  V30 718 C 78.3432 -3.37642 0.279892 0
M  V30 719 C 76.9022 -3.76289 -0.09143 0
M  V30 720 C 76.0492 -2.7039 0.615178 0
M  V30 721 H 79.0002 -1.37509 0.792274 0
M  V30 722 H 79.0212 -3.77275 -0.494364 0
M  V30 723 H 78.5332 -3.64742 1.32607 0
M  V30 724 H 76.6342 -3.54806 -1.13769 0
M  V30 725 H 76.7472 -4.78246 0.285886 0
M  V30 726 H 75.1112 -2.5464 0.0552833 0
M  V30 727 H 75.8942 -3.0033 1.66303 0
M  V30 728 N 78.3393 -0.321999 -1.54275 0
M  V30 729 C 79.2873 0.560206 -2.25753 0
M  V30 730 C 80.2813 1.11984 -1.27106 0
M  V30 731 O 81.4873 1.06806 -1.44888 0
M  V30 732 H 77.8623 0.199304 -0.725108 0
M  V30 733 H 79.8333 -0.0649365 -2.98329 0
M  V30 734 C 78.5823 1.71023 -3.02731 0
M  V30 735 H 77.9053 1.28885 -3.78456 0
M  V30 736 H 79.3453 2.30314 -3.55993 0
M  V30 737 C 77.8043 2.62692 -2.10938 0
M  V30 738 O 78.3343 3.64364 -1.6912 0
M  V30 739 N 76.5403 2.30891 -1.76459 0
M  V30 740 H 76.0873 1.48253 -2.10663 0
M  V30 741 H 76.0453 2.92487 -1.1532 0
M  V30 742 N 79.8174 1.5752 -0.0501392 0
M  V30 743 C 81.2284 1.80271 0.485705 0
M  V30 744 C 81.5794 0.96228 1.70981 0
M  V30 745 O 80.7044 0.178578 2.15662 0
M  V30 746 C 81.2994 3.26957 0.887938 0
M  V30 747 C 79.8584 3.5063 1.36877 0
M  V30 748 C 79.0054 2.75165 0.343468 0
M  V30 749 H 81.9564 1.56281 -0.276028 0
M  V30 750 H 81.9774 3.37821 1.75093 0
M  V30 751 H 81.4894 3.881 -0.0031809 0
M  V30 752 H 79.5904 2.94766 2.27911 0
M  V30 753 H 79.7034 4.59343 1.36164 0
M  V30 754 H 78.0674 2.4127 0.816128 0
M  V30 755 H 78.8504 3.39034 -0.539548 0
M  V30 756 N 81.2955 -0.223234 1.56011 0
M  V30 757 C 82.2425 -1.27664 1.92277 0
M  V30 758 C 83.2125 -1.46659 0.779763 0
M  V30 759 O 84.3975 -1.60256 1.03551 0
M  V30 760 C 81.5375 -2.62234 2.24338 0
M  V30 761 C 80.6505 -2.51051 3.51564 0
M  V30 762 C 79.7855 -3.78133 3.7308 0
M  V30 763 C 78.8245 -3.61665 4.93827 0
M  V30 764 N 77.9615 -4.80693 5.11741 0
M  V30 765 H 82.8015 -0.960358 2.82101 0
M  V30 766 H 80.3385 -0.462901 1.39627 0
M  V30 767 H 82.2965 -3.40596 2.40936 0
M  V30 768 H 80.9265 -2.91961 1.3769 0
M  V30 769 H 79.9785 -1.64132 3.43169 0
M  V30 770 H 81.2905 -2.34803 4.40079 0
M  V30 771 H 80.4445 -4.64938 3.89766 0
M  V30 772 H 79.1835 -3.97304 2.82844 0
M  V30 773 H 78.1885 -2.73244 4.77093 0
M  V30 774 H 79.4135 -3.43966 5.85546 0
M  V30 775 H 77.3595 -5.00181 4.24446 0
M  V30 776 H 77.2765 -4.67165 5.94384 0
M  V30 777 H 78.5445 -5.6893 5.3286 0
M  V30 778 N 82.7736 -1.49793 -0.48987 0
M  V30 779 C 84.0216 -1.59525 -1.24081 0
M  V30 780 C 84.3426 -0.288953 -1.92847 0
M  V30 781 O 83.6126 0.692436 -1.83254 0
M  V30 782 H 82.1926 -0.587796 -0.460983 0
M  V30 783 H 84.8546 -1.86477 -0.566778 0
M  V30 784 H 83.9506 -2.39696 -1.99881 0
M  V30 785 N 84.2517 0.741722 -1.39055 0
M  V30 786 C 85.2147 1.83733 -1.37021 0
M  V30 787 C 86.2147 1.58542 -0.268534 0
M  V30 788 O 87.4047 1.66067 -0.526076 0
M  V30 789 C 84.5367 3.2141 -1.13617 0
M  V30 790 H 85.7297 1.86941 -2.34506 0
M  V30 791 H 83.2827 0.944676 -1.24521 0
M  V30 792 H 84.0177 3.23865 -0.167863 0
M  V30 793 H 83.8027 3.4109 -1.93391 0
M  V30 794 H 85.2927 4.01477 -1.14918 0
M  V30 795 N 85.7298 1.2412 0.971189 0
M  V30 796 C 86.6928 1.03156 2.04674 0
M  V30 797 C 87.6928 -0.00990322 1.60797 0
M  V30 798 O 88.8828 0.230729 1.72665 0
M  V30 799 C 86.0148 0.562765 3.36223 0
M  V30 800 H 87.2078 1.98614 2.24705 0
M  V30 801 H 84.7608 1.06293 1.14593 0
M  V30 802 H 85.4958 -0.395176 3.21883 0
M  V30 803 H 85.2808 1.31441 3.69413 0
M  V30 804 H 86.7708 0.437015 4.15307 0
M  V30 805 N 87.2079 -1.17134 1.05439 0
M  V30 806 C 88.1409 -2.2012 0.601855 0
M  V30 807 C 89.1189 -1.58314 -0.370854 0
M  V30 808 O 90.3029 -1.8638 -0.281882 0
M  V30 809 C 87.4299 -3.38491 -0.118868 0
M  V30 810 C 86.4759 -4.18752 0.809242 0
M  V30 811 S 87.3089 -4.83602 2.29977 0
M  V30 812 C 88.4649 -6.0536 1.59029 0
M  V30 813 H 88.6979 -2.58165 1.47438 0
M  V30 814 H 86.2309 -1.27788 0.866573 0
M  V30 815 H 88.1889 -4.07084 -0.528495 0
M  V30 816 H 86.8499 -2.98829 -0.967465 0
M  V30 817 H 86.0429 -5.03373 0.251379 0
M  V30 818 H 85.6449 -3.5561 1.15835 0
M  V30 819 H 87.9369 -6.71615 0.891017 0
M  V30 820 H 88.8799 -6.65679 2.41407 0
M  V30 821 H 89.2879 -5.54138 1.07663 0
M  V30 822 N 88.686 -0.835752 -1.33615 0
M  V30 823 C 89.633 -0.26473 -2.29277 0
M  V30 824 C 90.603 0.617712 -1.54187 0
M  V30 825 O 91.788 0.556641 -1.825 0
M  V30 826 C 88.928 0.556777 -3.40579 0
M  V30 827 C 88.041 -0.349339 -4.30585 0
M  V30 828 C 87.176 0.482969 -5.29 0
M  V30 829 C 86.215 -0.421732 -6.10645 0
M  V30 830 N 85.352 0.372262 -7.01112 0
M  V30 831 H 90.192 -1.08582 -2.77514 0
M  V30 832 H 87.729 -0.546927 -1.36554 0
M  V30 833 H 89.687 1.04852 -4.03809 0
M  V30 834 H 88.317 1.34286 -2.93542 0
M  V30 835 H 87.369 -0.959372 -3.68104 0
M  V30 836 H 88.681 -1.04445 -4.87742 0
M  V30 837 H 87.835 1.03866 -5.97743 0
M  V30 838 H 86.574 1.21153 -4.72412 0
M  V30 839 H 85.579 -0.989464 -5.40823 0
M  V30 840 H 86.804 -1.14861 -6.69316 0
M  V30 841 H 84.75 1.08426 -6.46977 0
M  V30 842 H 84.667 -0.264198 -7.55538 0
M  V30 843 H 85.935 0.910293 -7.74167 0
M  V30 844 N 90.1641 1.46063 -0.591896 0
M  V30 845 C 91.5751 1.85944 -0.167822 0
M  V30 846 C 91.9261 1.49429 1.27143 0
M  V30 847 O 91.0511 0.913515 1.96173 0
M  V30 848 C 91.6461 3.37489 -0.297794 0
M  V30 849 C 90.2051 3.76332 0.0714732 0
M  V30 850 C 89.3521 2.7006 -0.629509 0
M  V30 851 H 92.3031 1.37087 -0.799555 0
M  V30 852 H 92.3241 3.77532 0.474349 0
M  V30 853 H 91.8361 3.64034 -1.3454 0
M  V30 854 H 89.9371 3.55405 1.11886 0
M  V30 855 H 90.0501 4.78088 -0.311245 0
M  V30 856 H 88.4141 2.54607 -0.0687867 0
M  V30 857 H 89.1971 2.99444 -1.67894 0
M  V30 858 N 91.6422 0.330177 1.54103 0
M  V30 859 C 92.8882 -0.270806 2.00984 0
M  V30 860 C 93.2212 -1.51265 1.21789 0
M  V30 861 O 92.4962 -1.92142 0.301927 0
M  V30 862 C 92.7792 -0.598339 3.55094 0
M  V30 863 C 92.6322 0.654674 4.4501 0
M  V30 864 C 93.9512 -1.41334 4.16789 0
M  V30 865 H 91.0702 -0.0969531 0.730595 0
M  V30 866 H 93.7122 0.448066 1.84641 0
M  V30 867 H 91.8622 -1.21078 3.69151 0
M  V30 868 H 93.5342 1.29285 4.42813 0
M  V30 869 H 91.7772 1.28224 4.14416 0
M  V30 870 H 92.4482 0.380944 5.50684 0
M  V30 871 H 94.9242 -0.895597 4.06347 0
M  V30 872 H 93.8002 -1.61127 5.24718 0
M  V30 873 H 94.0612 -2.41146 3.70541 0
M  V30 874 N 93.1203 -1.57491 0.0584922 0
M  V30 875 C 94.3663 -1.93264 -0.614558 0
M  V30 876 C 94.6993 -0.937717 -1.7006 0
M  V30 877 O 93.9743 0.0351652 -1.94468 0
M  V30 878 C 94.2573 -3.3938 -1.20386 0
M  V30 879 C 94.1103 -4.49625 -0.125375 0
M  V30 880 C 95.4293 -3.86039 -2.11334 0
M  V30 881 H 92.5483 -0.702791 -0.221933 0
M  V30 882 H 95.1903 -1.8961 0.12175 0
M  V30 883 H 93.3403 -3.42626 -1.83139 0
M  V30 884 H 95.0123 -4.58506 0.506971 0
M  V30 885 H 93.2553 -4.30354 0.545672 0
M  V30 886 H 93.9263 -5.48967 -0.577861 0
M  V30 887 H 96.4023 -3.84716 -1.58534 0
M  V30 888 H 95.2783 -4.88914 -2.49507 0
M  V30 889 H 95.5393 -3.23215 -3.01636 0
M  V30 890 N 94.5984 0.214957 -1.56127 0
M  V30 891 C 95.8454 0.938372 -1.79446 0
M  V30 892 C 96.1734 1.8407 -0.628378 0
M  V30 893 O 95.4284 1.91837 0.386925 0
M  V30 894 C 95.7274 1.80314 -3.0858 0
M  V30 895 C 95.3934 1.05349 -4.3842 0
M  V30 896 C 94.0554 0.846435 -4.73697 0
M  V30 897 C 96.4074 0.524588 -5.18553 0
M  V30 898 C 93.7354 0.098683 -5.86617 0
M  V30 899 C 96.0874 -0.209853 -6.32252 0
M  V30 900 C 94.7514 -0.428102 -6.66126 0
M  V30 901 H 94.0214 0.343375 -0.656639 0
M  V30 902 H 96.6684 0.206077 -1.90388 0
M  V30 903 H 94.9734 2.6035 -2.92789 0
M  V30 904 H 96.6704 2.36513 -3.23825 0
M  V30 905 H 93.2604 1.22486 -4.10725 0
M  V30 906 H 97.4444 0.672008 -4.91729 0
M  V30 907 H 92.7004 -0.0805753 -6.11347 0
M  V30 908 H 96.8744 -0.627157 -6.9357 0
M  V30 909 H 94.5014 -1.00944 -7.53468 0
M  V30 910 N 96.0765 1.50051 0.48192 0
M  V30 911 C 97.0245 1.68635 1.60203 0
M  V30 912 C 98.0185 0.552184 1.60148 0
M  V30 913 O 99.2245 0.732377 1.64427 0
M  V30 914 H 95.5995 0.532081 0.531407 0
M  V30 915 H 97.5705 2.62616 1.41688 0
M  V30 916 C 96.3195 1.78775 2.9822 0
M  V30 917 H 95.6425 2.6543 2.98976 0
M  V30 918 H 97.0825 1.95806 3.7608 0
M  V30 919 C 95.5415 0.536849 3.32595 0
M  V30 920 O 96.0715 -0.328897 4.00351 0
M  V30 921 N 94.2775 0.394091 2.87915 0
M  V30 922 H 93.8245 1.09962 2.32951 0
M  V30 923 H 93.7825 -0.441737 3.11281 0
M  V30 924 N 97.5546 -0.734337 1.39446 0
M  V30 925 C 98.5046 -1.83949 1.34709 0
M  V30 926 C 99.4886 -1.59279 0.227851 0
M  V30 927 O 100.681 -1.70771 0.465438 0
M  V30 928 C 97.8096 -3.21884 1.19356 0
M  V30 929 C 96.8956 -3.52381 2.35984 0
M  V30 930 N 97.2866 -3.53811 3.61457 0
M  V30 931 C 95.5846 -3.82747 2.28956 0
M  V30 932 C 96.2856 -3.82122 4.38586 0
M  V30 933 N 95.2616 -3.9993 3.68181 0
M  V30 934 H 99.0636 -1.83361 2.29687 0
M  V30 935 H 96.5776 -0.932609 1.32952 0
M  V30 936 H 98.5746 -4.00998 1.14046 0
M  V30 937 H 97.2346 -3.23711 0.253295 0
M  V30 938 H 98.2456 -3.35107 3.94872 0
M  V30 939 H 94.9226 -3.92175 1.43194 0
M  V30 940 H 96.3126 -3.89691 5.47349 0
M  V30 941 N 99.0327 -1.24633 -0.964593 0
M  V30 942 C 99.9627 -1.06611 -2.07741 0
M  V30 943 C 100.944 0.0218666 -1.70086 0
M  V30 944 O 102.129 -0.145793 -1.93652 0
M  V30 945 C 99.2587 -0.673444 -3.40708 0
M  V30 946 C 98.2127 -1.71054 -3.92332 0
M  V30 947 C 97.5387 -1.17285 -5.21678 0
M  V30 948 C 98.8387 -3.10718 -4.19824 0
M  V30 949 H 100.533 -1.99693 -2.23076 0
M  V30 950 H 98.0787 -0.96152 -1.07195 0
M  V30 951 H 100.032 -0.534345 -4.17998 0
M  V30 952 H 98.7557 0.293073 -3.25282 0
M  V30 953 H 97.4147 -1.83791 -3.17201 0
M  V30 954 H 97.0627 -0.196847 -5.02615 0
M  V30 955 H 96.7627 -1.86592 -5.57187 0
M  V30 956 H 98.2867 -1.04593 -6.01575 0
M  V30 957 H 99.7007 -3.01192 -4.87808 0
M  V30 958 H 98.0977 -3.77406 -4.66567 0
M  V30 959 H 99.1677 -3.58524 -3.26479 0
M  V30 960 N 100.511 1.16574 -1.06058 0
M  V30 961 C 101.76 1.86385 -0.770944 0
M  V30 962 C 102.073 1.82448 0.705129 0
M  V30 963 O 103.279 2.47815 1.10905 0
M  V30 964 C 101.735 3.34466 -1.32893 0
M  V30 965 C 101.343 3.46883 -2.83507 0
M  V30 966 C 103.087 4.09548 -1.11672 0
M  V30 967 C 100.994 4.89036 -3.32562 0
M  V30 968 H 99.9238 0.698181 -0.284709 0
M  V30 969 H 102.575 1.31583 -1.27899 0
M  V30 970 H 100.957 3.88859 -0.748662 0
M  V30 971 H 102.131 3.02663 -3.47465 0
M  V30 972 H 100.446 2.85232 -3.03368 0
M  V30 973 H 103.043 5.14434 -1.45814 0
M  V30 974 H 103.386 4.16264 -0.0549535 0
M  V30 975 H 103.919 3.61387 -1.66265 0
M  V30 976 H 100.658 4.87499 -4.38207 0
M  V30 977 H 100.178 5.3389 -2.73351 0
M  V30 978 H 101.857 5.57843 -3.2775 0
M  V30 979 N 101.989 0.842826 1.3317 0
M  V30 980 C 102.939 0.250877 2.26616 0
M  V30 981 C 103.923 -0.596427 1.49437 0
M  V30 982 O 105.115 -0.447747 1.71243 0
M  V30 983 C 102.244 -0.569779 3.38539 0
M  V30 984 C 101.33 0.289254 4.23112 0
M  V30 985 N 101.721 1.36987 4.86897 0
M  V30 986 C 100.019 0.0769631 4.45934 0
M  V30 987 C 100.72 1.89737 5.49886 0
M  V30 988 N 99.6959 1.19827 5.30229 0
M  V30 989 H 103.498 1.07718 2.73448 0
M  V30 990 H 101.012 0.687693 1.47121 0
M  V30 991 H 103.009 -1.01018 4.04476 0
M  V30 992 H 101.669 -1.39401 2.93253 0
M  V30 993 H 102.68 1.75277 4.87338 0
M  V30 994 H 99.3569 -0.713507 4.11358 0
M  V30 995 H 100.747 2.80253 6.10662 0
M  V30 996 N 103.467 -1.45747 0.599634 0
M  V30 997 C 104.377 -2.34262 -0.125888 0
M  V30 998 C 105.393 -1.50768 -0.868625 0
M  V30 999 O 106.569 -1.83592 -0.828003 0
M  V30 1000 C 103.634 -3.28252 -1.11587 0
M  V30 1001 C 102.695 -4.27651 -0.375956 0
M  V30 1002 C 101.928 -5.1715 -1.31877 0
M  V30 1003 O 102.151 -5.09916 -2.55621 0
M  V30 1004 O 101.085 -5.96286 -0.820157 0
M  V30 1005 H 104.911 -2.97688 0.601315 0
M  V30 1006 H 102.496 -1.44999 0.359934 0
M  V30 1007 H 104.378 -3.86191 -1.68626 0
M  V30 1008 H 103.053 -2.67401 -1.82424 0
M  V30 1009 H 101.96 -3.7335 0.236698 0
M  V30 1010 H 103.293 -4.91334 0.29177 0
M  V30 1011 N 104.945 -0.338344 -1.53925 0
M  V30 1012 C 105.892 0.520845 -2.24846 0
M  V30 1013 C 106.862 1.09976 -1.24477 0
M  V30 1014 O 108.047 1.13735 -1.53196 0
M  V30 1015 C 105.187 1.6685 -3.02084 0
M  V30 1016 C 104.3 1.11739 -4.17299 0
M  V30 1017 C 103.435 2.23193 -4.82036 0
M  V30 1018 C 102.474 1.65407 -5.89328 0
M  V30 1019 N 101.611 2.70582 -6.47866 0
M  V30 1020 H 106.451 -0.0904881 -2.97863 0
M  V30 1021 H 103.988 -0.0564282 -1.46992 0
M  V30 1022 H 105.946 2.34407 -3.45122 0
M  V30 1023 H 104.576 2.2509 -2.31375 0
M  V30 1024 H 103.628 0.332919 -3.7894 0
M  V30 1025 H 104.94 0.654677 -4.94485 0
M  V30 1026 H 104.094 2.98626 -5.28117 0
M  V30 1027 H 102.833 2.72807 -4.04262 0
M  V30 1028 H 101.838 0.884779 -5.42634 0
M  V30 1029 H 103.063 1.16652 -6.69006 0
M  V30 1030 H 101.009 3.1946 -5.72959 0
M  V30 1031 H 100.926 2.28917 -7.20509 0
M  V30 1032 H 102.194 3.45799 -6.98601 0
M  V30 1033 N 106.423 1.57458 -0.0668435 0
M  V30 1034 C 107.37 2.12439 0.902122 0
M  V30 1035 C 108.34 1.03565 1.2986 0
M  V30 1036 O 109.525 1.312 1.38532 0
M  V30 1037 C 106.665 2.6865 2.16614 0
M  V30 1038 C 105.778 3.91663 1.82274 0
M  V30 1039 C 104.913 4.36134 3.0325 0
M  V30 1040 C 103.952 5.51808 2.64904 0
M  V30 1041 N 103.089 5.9126 3.78624 0
M  V30 1042 H 107.929 2.94934 0.426382 0
M  V30 1043 H 105.466 1.4575 0.198819 0
M  V30 1044 H 107.424 2.99346 2.90599 0
M  V30 1045 H 106.054 1.88928 2.61737 0
M  V30 1046 H 105.106 3.6746 0.983719 0
M  V30 1047 H 106.418 4.75693 1.50059 0
M  V30 1048 H 105.572 4.68465 3.85519 0
M  V30 1049 H 104.311 3.50948 3.38655 0
M  V30 1050 H 103.316 5.19133 1.81055 0
M  V30 1051 H 104.541 6.38722 2.30675 0
M  V30 1052 H 102.487 5.09024 4.138 0
M  V30 1053 H 102.404 6.70018 3.5016 0
M  V30 1054 H 103.672 6.28212 4.61486 0
M  V30 1055 N 107.901 -0.206675 1.56239 0
M  V30 1056 C 109.15 -0.926964 1.79138 0
M  V30 1057 C 109.463 -1.84901 0.638043 0
M  V30 1058 O 110.669 -2.60906 0.751033 0
M  V30 1059 C 109.125 -1.6986 3.17294 0
M  V30 1060 C 108.733 -0.821956 4.40395 0
M  V30 1061 C 110.477 -2.40922 3.4951 0
M  V30 1062 C 108.384 -1.59179 5.69575 0
M  V30 1063 H 107.314 -0.349864 0.667915 0
M  V30 1064 H 109.965 -0.180487 1.8261 0
M  V30 1065 H 108.347 -2.48853 3.08039 0
M  V30 1066 H 109.521 -0.0715019 4.60745 0
M  V30 1067 H 107.836 -0.222741 4.15804 0
M  V30 1068 H 110.433 -2.99047 4.43255 0
M  V30 1069 H 110.776 -3.14542 2.72707 0
M  V30 1070 H 111.309 -1.68905 3.60161 0
M  V30 1071 H 108.048 -0.898589 6.49312 0
M  V30 1072 H 107.568 -2.31648 5.53262 0
M  V30 1073 H 109.247 -2.14862 6.10281 0
M  V30 1074 N 109.379 -1.50304 -0.473955 0
M  V30 1075 C 110.656 -1.51667 -1.23518 0
M  V30 1076 C 111.036 -0.259701 -2.09496 0
M  V30 1077 O 110.384 0.756986 -2.15597 0
M  V30 1078 C 110.594 -2.81082 -2.06868 0
M  V30 1079 C 111.942 -3.31631 -2.65153 0
M  V30 1080 O 112.966 -2.82384 -2.17113 0
M  V30 1081 O 111.825 -4.17471 -3.52675 0
M  V30 1082 H 108.919 -0.60822 -0.560355 0
M  V30 1083 H 111.465 -1.62592 -0.486011 0
M  V30 1084 H 110.237 -3.64041 -1.4349 0
M  V30 1085 H 109.86 -2.73146 -2.88924 0
M  V30 1086 N 110.857 0.726932 -1.39834 0
M  V30 1087 C 111.805 1.86235 -1.39353 0
M  V30 1088 C 112.799 1.67144 -0.275555 0
M  V30 1089 O 114.005 1.74387 -0.44601 0
M  V30 1090 H 110.38 0.613174 -0.43534 0
M  V30 1091 H 112.351 1.83756 -2.35109 0
M  V30 1092 C 111.1 3.23995 -1.26185 0
M  V30 1093 H 110.423 3.39285 -2.11484 0
M  V30 1094 H 111.863 4.03609 -1.29907 0
M  V30 1095 C 110.322 3.36888 0.0290018 0
M  V30 1096 O 110.852 3.89152 0.99619 0
M  V30 1097 N 109.058 2.90446 0.0947437 0
M  V30 1098 H 108.605 2.48102 -0.693035 0
M  V30 1099 H 108.563 2.99451 0.957932 0
M  V30 1100 N 112.336 1.25143 0.95797 0
M  V30 1101 C 113.576 1.10893 1.71703 0
M  V30 1102 C 113.94 -0.34478 1.88879 0
M  V30 1103 O 115.141 -0.609014 2.6181 0
M  V30 1104 C 113.412 1.83889 3.06463 0
M  V30 1105 S 114.971 1.85491 3.97666 0
M  V30 1106 H 111.789 0.396428 0.590226 0
M  V30 1107 H 114.391 1.58618 1.14283 0
M  V30 1108 H 113.095 2.88756 2.9163 0
M  V30 1109 H 112.626 1.36538 3.68946 0
M  V30 1110 H 114.641 0.929553 4.87415 0
M  V30 1111 N 113.814 -1.1601 1.06675 0
M  V30 1112 C 114.724 -2.24156 0.692179 0
M  V30 1113 C 115.74 -1.71507 -0.293513 0
M  V30 1114 O 116.916 -2.009 -0.141861 0
M  V30 1115 C 113.981 -3.46587 0.0884131 0
M  V30 1116 C 113.042 -4.14257 1.12646 0
M  V30 1117 C 112.275 -5.30844 0.551416 0
M  V30 1118 O 112.498 -5.66858 -0.634656 0
M  V30 1119 O 111.432 -5.87848 1.29298 0
M  V30 1120 H 115.258 -2.58513 1.59388 0
M  V30 1121 H 112.843 -1.23599 0.83926 0
M  V30 1122 H 114.725 -4.20679 -0.246361 0
M  V30 1123 H 113.4 -3.13994 -0.786712 0
M  V30 1124 H 112.307 -3.42118 1.51348 0
M  V30 1125 H 113.64 -4.50914 1.97325 0
M  V30 1126 N 115.292 -0.849877 -1.32721 0
M  V30 1127 C 116.52 -0.464754 -2.01613 0
M  V30 1128 C 116.935 0.937191 -1.63897 0
M  V30 1129 O 116.292 1.61081 -0.857856 0
M  V30 1130 C 116.343 -0.588638 -3.56675 0
M  V30 1131 O 116.064 -1.93535 -3.93034 0
M  V30 1132 C 117.565 -0.2019 -4.4284 0
M  V30 1133 H 114.785 -0.183215 -0.645502 0
M  V30 1134 H 117.329 -1.1455 -1.69407 0
M  V30 1135 H 115.484 0.0443159 -3.87375 0
M  V30 1136 H 115.898 -1.92871 -4.87751 0
M  V30 1137 H 117.372 -0.339599 -5.50954 0
M  V30 1138 H 117.849 0.857224 -4.30753 0
M  V30 1139 H 118.455 -0.809733 -4.17521 0
M  V30 1140 N 116.77 1.45427 -0.607355 0
M  V30 1141 C 118.01 2.04128 -0.105458 0
M  V30 1142 C 118.374 1.46555 1.24039 0
M  V30 1143 O 119.575 1.96608 1.833 0
M  V30 1144 C 117.846 3.57338 -0.0665324 0
M  V30 1145 S 119.405 4.37201 0.374207 0
M  V30 1146 H 116.223 0.709278 -0.0494575 0
M  V30 1147 H 118.825 1.78139 -0.805404 0
M  V30 1148 H 117.529 3.96752 -1.04957 0
M  V30 1149 H 117.06 3.87902 0.655415 0
M  V30 1150 H 119.075 4.6888 1.62377 0
M  V30 1151 N 118.248 0.346503 1.53744 0
M  V30 1152 C 119.198 -0.524953 2.21874 0
M  V30 1153 C 120.182 -1.06376 1.20718 0
M  V30 1154 O 121.374 -0.996972 1.46251 0
M  V30 1155 C 118.503 -1.6739 2.99726 0
M  V30 1156 C 117.589 -1.14888 4.08242 0
M  V30 1157 N 117.98 -0.345329 5.0462 0
M  V30 1158 C 116.278 -1.4255 4.22606 0
M  V30 1159 C 116.979 -0.0600706 5.81669 0
M  V30 1160 N 115.955 -0.65252 5.39669 0
M  V30 1161 H 119.757 0.0960091 2.93743 0
M  V30 1162 H 117.271 0.15352 1.61673 0
M  V30 1163 H 119.268 -2.3102 3.47038 0
M  V30 1164 H 117.928 -2.29811 2.29384 0
M  V30 1165 H 118.939 0.0138439 5.17898 0
M  V30 1166 H 115.616 -2.05389 3.63486 0
M  V30 1167 H 117.006 0.588321 6.69319 0
M  V30 1168 N 119.726 -1.57421 0.075193 0
M  V30 1169 C 120.676 -2.09441 -0.901025 0
M  V30 1170 C 121.66 -1.00486 -1.25663 0
M  V30 1171 O 122.852 -1.2679 -1.23504 0
M  V30 1172 C 119.981 -2.66233 -2.16737 0
M  V30 1173 C 119.067 -3.82198 -1.83808 0
M  V30 1174 N 119.458 -4.91028 -1.21345 0
M  V30 1175 C 117.756 -3.91558 -2.13538 0
M  V30 1176 C 118.457 -5.71852 -1.06585 0
M  V30 1177 N 117.433 -5.20233 -1.57667 0
M  V30 1178 H 121.235 -2.90972 -0.413815 0
M  V30 1179 H 118.749 -1.6189 -0.128601 0
M  V30 1180 H 120.746 -3.01819 -2.87595 0
M  V30 1181 H 119.406 -1.8615 -2.66042 0
M  V30 1182 H 120.417 -5.10323 -0.88268 0
M  V30 1183 H 117.094 -3.22454 -2.65197 0
M  V30 1184 H 118.484 -6.69401 -0.578933 0
M  V30 1185 N 121.204 0.198386 -1.56346 0
M  V30 1186 C 122.432 0.935572 -1.84539 0
M  V30 1187 C 122.847 1.76989 -0.657281 0
M  V30 1188 O 122.204 1.78626 0.374043 0
M  V30 1189 C 122.255 1.8344 -3.11499 0
M  V30 1190 O 121.976 1.03377 -4.25728 0
M  V30 1191 C 123.477 2.68355 -3.52846 0
M  V30 1192 H 120.697 0.273126 -0.612897 0
M  V30 1193 H 123.241 0.20663 -2.03453 0
M  V30 1194 H 121.396 2.51701 -2.94492 0
M  V30 1195 H 121.81 1.64599 -4.98003 0
M  V30 1196 H 123.284 3.27085 -4.44657 0
M  V30 1197 H 123.761 3.41901 -2.75681 0
M  V30 1198 H 124.367 2.05471 -3.72373 0
M  V30 1199 N 122.682 1.50554 0.465978 0
M  V30 1200 C 123.93 1.61479 1.21528 0
M  V30 1201 C 124.251 0.319596 1.92363 0
M  V30 1202 O 123.521 -0.663194 1.84333 0
M  V30 1203 H 122.101 0.595055 0.451573 0
M  V30 1204 H 124.763 1.87355 0.53704 0
M  V30 1205 H 123.859 2.42846 1.96042 0
M  V30 1206 N 124.16 -0.719506 1.40217 0
M  V30 1207 C 125.437 -1.47221 1.28784 0
M  V30 1208 C 125.817 -2.10883 -0.0956067 0
M  V30 1209 O 125.165 -1.99833 -1.10811 0
M  V30 1210 C 125.375 -2.5111 2.42373 0
M  V30 1211 C 126.723 -3.17053 2.82423 0
M  V30 1212 O 127.747 -2.61429 2.41937 0
M  V30 1213 O 126.606 -4.17742 3.52355 0
M  V30 1214 H 123.7 -0.654491 0.50554 0
M  V30 1215 H 126.246 -0.752014 1.52128 0
M  V30 1216 H 125.018 -2.02556 3.34793 0
M  V30 1217 H 124.641 -3.3067 2.20778 0
M  V30 1218 N 125.638 -1.25649 -0.95132 0
M  V30 1219 C 127.049 -1.09654 -1.51106 0
M  V30 1220 C 127.4 0.326615 -1.93462 0
M  V30 1221 O 126.525 1.21697 -1.78938 0
M  V30 1222 C 127.12 -1.98437 -2.74605 0
M  V30 1223 C 125.679 -1.86618 -3.2688 0
M  V30 1224 C 124.826 -1.9239 -1.99703 0
M  V30 1225 H 127.777 -1.38887 -0.767865 0
M  V30 1226 H 127.798 -1.5263 -3.48546 0
M  V30 1227 H 127.31 -3.02009 -2.43746 0
M  V30 1228 H 125.411 -0.859421 -3.62553 0
M  V30 1229 H 125.524 -2.71607 -3.94673 0
M  V30 1230 H 123.888 -1.36317 -2.15151 0
M  V30 1231 H 124.671 -2.97573 -1.71188 0
M  V30 1232 N 127.117 1.15442 -1.07289 0
M  V30 1233 C 128.363 1.86489 -0.796846 0
M  V30 1234 C 128.696 1.82078 0.675371 0
M  V30 1235 O 127.971 1.24346 1.4956 0
M  V30 1236 C 128.254 3.35626 -1.30489 0
M  V30 1237 C 128.107 3.48673 -2.84161 0
M  V30 1238 C 129.426 4.30357 -0.920907 0
M  V30 1239 H 126.545 0.677144 -0.290939 0
M  V30 1240 H 129.187 1.35633 -1.33056 0
M  V30 1241 H 127.337 3.79068 -0.850883 0
M  V30 1242 H 129.009 3.14099 -3.37846 0
M  V30 1243 H 127.252 2.90253 -3.22391 0
M  V30 1244 H 127.923 4.53453 -3.14777 0
M  V30 1245 H 130.399 3.94871 -1.3121 0
M  V30 1246 H 129.275 5.33193 -1.30372 0
M  V30 1247 H 129.536 4.4176 0.173226 0
M  V30 1248 N 128.595 0.856903 1.32268 0
M  V30 1249 C 129.82 0.474569 2.01897 0
M  V30 1250 C 130.245 -0.921766 1.63967 0
M  V30 1251 O 129.603 -1.60589 0.84148 0
M  V30 1252 C 129.651 0.623799 3.55164 0
M  V30 1253 O 128.755 -0.342459 4.10976 0
M  V30 1254 H 128.096 0.190422 0.63611 0
M  V30 1255 H 130.626 1.15672 1.68764 0
M  V30 1256 H 130.636 0.512169 4.04773 0
M  V30 1257 H 129.311 1.64202 3.82113 0
M  V30 1258 H 127.888 -0.18688 3.72431 0
M  V30 1259 N 130.073 -1.45103 0.615059 0
M  V30 1260 C 131.313 -2.04069 0.116282 0
M  V30 1261 C 131.677 -1.4721 -1.2326 0
M  V30 1262 O 132.878 -1.97577 -1.82255 0
M  V30 1263 C 131.149 -3.57298 0.085482 0
M  V30 1264 S 132.708 -4.37394 -0.351015 0
M  V30 1265 H 129.526 -0.709006 0.0532183 0
M  V30 1266 H 132.128 -1.77709 0.81484 0
M  V30 1267 H 130.832 -3.9619 1.0706 0
M  V30 1268 H 130.363 -3.88244 -0.634835 0
M  V30 1269 H 132.378 -4.69734 -1.59889 0
M  V30 1270 N 131.551 -0.354651 -1.53558 0
M  V30 1271 C 132.776 0.242153 -2.05981 0
M  V30 1272 C 133.201 1.42553 -1.2272 0
M  V30 1273 O 132.559 1.79656 -0.243604 0
M  V30 1274 C 132.607 0.624367 -3.55154 0
M  V30 1275 O 131.711 1.72301 -3.74681 0
M  V30 1276 H 131.052 0.0378432 -0.662921 0
M  V30 1277 H 133.582 -0.512087 -1.98088 0
M  V30 1278 H 133.592 0.898433 -3.97985 0
M  V30 1279 H 132.267 -0.240989 -4.15201 0
M  V30 1280 H 130.844 1.44535 -3.4375 0
M  V30 1281 N 133.029 1.57378 -0.0835403 0
M  V30 1282 C 134.257 1.98263 0.59157 0
M  V30 1283 C 134.672 0.962302 1.62435 0
M  V30 1284 O 134.029 -0.049581 1.82433 0
M  V30 1285 C 134.08 3.39214 1.24965 0
M  V30 1286 O 133.801 4.37339 0.258186 0
M  V30 1287 C 135.302 3.95038 2.01147 0
M  V30 1288 H 132.522 0.651773 0.159477 0
M  V30 1289 H 135.066 2.03878 -0.159415 0
M  V30 1290 H 133.221 3.34649 1.95164 0
M  V30 1291 H 133.635 5.19371 0.731734 0
M  V30 1292 H 135.109 4.95848 2.42567 0
M  V30 1293 H 135.586 3.32222 2.87272 0
M  V30 1294 H 136.192 4.0304 1.35789 0
M  V30 1295 N 134.507 -0.190092 1.56449 0
M  V30 1296 C 135.747 -0.916414 1.82705 0
M  V30 1297 C 136.111 -1.80235 0.661763 0
M  V30 1298 O 137.312 -2.56484 0.80433 0
M  V30 1299 C 135.583 -1.70691 3.14005 0
M  V30 1300 S 137.142 -2.48457 3.61683 0
M  V30 1301 H 133.96 -0.307281 0.64117 0
M  V30 1302 H 136.562 -0.179433 1.94675 0
M  V30 1303 H 135.266 -1.04677 3.96826 0
M  V30 1304 H 134.797 -2.48562 3.04927 0
M  V30 1305 H 136.812 -3.72756 3.27517 0
M  V30 1306 N 135.985 -1.50799 -0.457987 0
M  V30 1307 C 136.935 -1.67003 -1.55222 0
M  V30 1308 C 137.919 -0.52434 -1.52117 0
M  V30 1309 O 139.111 -0.779345 -1.58919 0
M  V30 1310 C 136.24 -1.77956 -2.93576 0
M  V30 1311 C 135.326 -2.98243 -3.01516 0
M  V30 1312 N 135.717 -4.21732 -2.79241 0
M  V30 1313 C 134.015 -2.97072 -3.32662 0
M  V30 1314 C 134.716 -5.02817 -2.92489 0
M  V30 1315 N 133.692 -4.37038 -3.23262 0
M  V30 1316 H 137.494 -2.60163 -1.36721 0
M  V30 1317 H 135.008 -1.48163 -0.664952 0
M  V30 1318 H 137.005 -1.87671 -3.72271 0
M  V30 1319 H 135.665 -0.859634 -3.13114 0
M  V30 1320 H 136.676 -4.51016 -2.54567 0
M  V30 1321 H 133.353 -2.14631 -3.58106 0
M  V30 1322 H 134.743 -6.11054 -2.79396 0
M  V30 1323 N 137.463 0.71206 -1.40597 0
M  V30 1324 C 138.691 1.50111 -1.42388 0
M  V30 1325 C 139.106 1.88784 -0.0245395 0
M  V30 1326 O 138.463 1.55681 0.952351 0
M  V30 1327 C 138.514 2.7742 -2.31776 0
M  V30 1328 O 138.235 2.40382 -3.66262 0
M  V30 1329 C 139.736 3.7129 -2.42196 0
M  V30 1330 H 136.956 0.46314 -0.485533 0
M  V30 1331 H 139.5 0.878068 -1.8469 0
M  V30 1332 H 137.655 3.36001 -1.92827 0
M  V30 1333 H 138.069 3.22324 -4.13772 0
M  V30 1334 H 139.543 4.57448 -3.08943 0
M  V30 1335 H 140.02 4.14641 -1.44809 0
M  V30 1336 H 140.626 3.18619 -2.81712 0
M  V30 1337 N 138.941 1.26152 0.944643 0
M  V30 1338 C 140.187 1.11657 1.69294 0
M  V30 1339 C 140.52 -0.339926 1.91202 0
M  V30 1340 O 139.795 -1.24994 1.49019 0
M  V30 1341 C 140.078 1.88236 3.06984 0
M  V30 1342 C 139.931 3.41772 2.92424 0
M  V30 1343 C 141.25 1.67343 4.07043 0
M  V30 1344 H 138.369 0.407004 0.614424 0
M  V30 1345 H 141.011 1.55106 1.09737 0
M  V30 1346 H 139.161 1.51308 3.57824 0
M  V30 1347 H 140.833 3.88433 2.48832 0
M  V30 1348 H 139.076 3.68974 2.28124 0
M  V30 1349 H 139.747 3.90579 3.90067 0
M  V30 1350 H 142.223 1.99509 3.65151 0
M  V30 1351 H 141.099 2.23346 5.01406 0
M  V30 1352 H 141.36 0.617158 4.37771 0
M  V30 1353 N 140.419 -1.14872 1.07899 0
M  V30 1354 C 141.329 -2.2341 0.715915 0
M  V30 1355 C 142.345 -1.71808 -0.275306 0
M  V30 1356 O 143.521 -2.01039 -0.120545 0
M  V30 1357 C 140.586 -3.46474 0.125168 0
M  V30 1358 C 139.647 -4.13039 1.17034 0
M  V30 1359 C 138.88 -5.30229 0.607688 0
M  V30 1360 O 139.103 -5.675 -0.574497 0
M  V30 1361 O 138.037 -5.86444 1.35526 0
M  V30 1362 H 141.863 -2.56808 1.62121 0
M  V30 1363 H 139.448 -1.22702 0.852322 0
M  V30 1364 H 141.33 -4.20917 -0.201729 0
M  V30 1365 H 140.005 -3.14811 -0.753364 0
M  V30 1366 H 138.912 -3.40493 1.54968 0
M  V30 1367 H 140.245 -4.48796 2.02097 0
M  V30 1368 N 141.898 -0.863906 -1.31812 0
M  V30 1369 C 143.146 -0.470904 -1.96537 0
M  V30 1370 C 143.467 0.978771 -1.68657 0
M  V30 1371 O 142.737 1.6853 -0.998717 0
M  V30 1372 H 141.317 -0.171148 -0.72713 0
M  V30 1373 H 143.979 -1.10236 -1.60729 0
M  V30 1374 H 143.075 -0.623616 -3.05806 0
M  V30 1375 N 143.376 1.44774 -0.622745 0
M  V30 1376 C 144.323 2.30635 0.0871679 0
M  V30 1377 C 145.293 1.42994 0.845097 0
M  V30 1378 O 146.478 1.71907 0.827812 0
M  V30 1379 C 143.618 3.28144 1.06844 0
M  V30 1380 C 142.731 4.30888 0.309809 0
M  V30 1381 C 141.866 5.15494 1.28215 0
M  V30 1382 C 140.905 6.09953 0.512198 0
M  V30 1383 N 140.042 6.87287 1.43458 0
M  V30 1384 H 144.882 2.90803 -0.650974 0
M  V30 1385 H 142.419 1.43286 -0.33281 0
M  V30 1386 H 144.377 3.83157 1.65066 0
M  V30 1387 H 143.007 2.69695 1.77382 0
M  V30 1388 H 142.059 3.78414 -0.388181 0
M  V30 1389 H 143.371 4.97955 -0.290254 0
M  V30 1390 H 142.525 5.74983 1.93596 0
M  V30 1391 H 141.264 4.48481 1.91614 0
M  V30 1392 H 140.269 5.49581 -0.155151 0
M  V30 1393 H 141.494 6.78999 -0.116958 0
M  V30 1394 H 139.44 6.2295 2.05594 0
M  V30 1395 H 139.357 7.50763 0.888335 0
M  V30 1396 H 140.625 7.51306 2.07749 0
M  V30 1397 N 144.854 0.36279 1.53368 0
M  V30 1398 C 145.817 -0.472679 2.24273 0
M  V30 1399 C 146.817 -1.012 1.24961 0
M  V30 1400 O 148.007 -0.898194 1.49259 0
M  V30 1401 C 145.139 -1.66039 2.97731 0
M  V30 1402 H 146.332 0.14773 2.99536 0
M  V30 1403 H 143.885 0.114434 1.55881 0
M  V30 1404 H 144.62 -2.31896 2.26704 0
M  V30 1405 H 144.405 -1.28066 3.70596 0
M  V30 1406 H 145.895 -2.25252 3.51641 0
M  V30 1407 N 146.332 -1.57332 0.0918853 0
M  V30 1408 C 147.242 -2.17368 -0.882505 0
M  V30 1409 C 148.258 -1.14226 -1.31257 0
M  V30 1410 O 149.434 -1.46582 -1.38115 0
M  V30 1411 C 146.499 -2.73962 -2.12476 0
M  V30 1412 C 145.56 -3.92048 -1.7492 0
M  V30 1413 C 144.793 -4.45933 -2.93223 0
M  V30 1414 O 145.016 -3.98764 -4.07852 0
M  V30 1415 O 143.95 -5.36999 -2.71875 0
M  V30 1416 H 147.776 -3.01031 -0.40172 0
M  V30 1417 H 145.361 -1.48813 -0.132291 0
M  V30 1418 H 147.243 -3.10147 -2.85283 0
M  V30 1419 H 145.918 -1.93347 -2.59613 0
M  V30 1420 H 144.825 -3.6068 -0.993025 0
M  V30 1421 H 146.158 -4.74017 -1.32548 0
M  V30 1422 N 147.81 0.181792 -1.56548 0
M  V30 1423 C 149.058 0.89832 -1.81038 0
M  V30 1424 C 149.379 1.83232 -0.667164 0
M  V30 1425 O 148.649 1.93372 0.313673 0
M  V30 1426 H 147.229 0.33471 -0.667816 0
M  V30 1427 H 149.891 0.184116 -1.94028 0
M  V30 1428 H 148.987 1.4815 -2.74696 0
M  V30 1429 N 149.288 1.51039 0.449983 0
M  V30 1430 C 150.236 1.71995 1.5659 0
M  V30 1431 C 151.23 0.586029 1.5894 0
M  V30 1432 O 152.436 0.76709 1.62837 0
M  V30 1433 H 148.811 0.543233 0.520001 0
M  V30 1434 H 150.782 2.65562 1.36085 0
M  V30 1435 C 149.531 1.8506 2.9436 0
M  V30 1436 H 148.854 2.71712 2.93279 0
M  V30 1437 H 150.294 2.0374 3.71842 0
M  V30 1438 C 148.753 0.607277 3.31382 0
M  V30 1439 O 149.283 -0.243903 4.00959 0
M  V30 1440 N 147.489 0.455073 2.87015 0
M  V30 1441 H 147.036 1.14879 2.30566 0
M  V30 1442 H 146.994 -0.375611 3.12148 0
M  V30 1443 N 150.766 -0.704594 1.40972 0
M  V30 1444 C 151.996 -1.49138 1.42974 0
M  V30 1445 C 152.404 -1.89175 0.0308406 0
M  V30 1446 O 151.747 -1.56734 -0.958138 0
M  V30 1447 C 151.809 -2.79016 2.26694 0
M  V30 1448 C 151.473 -2.61236 3.74973 0
M  V30 1449 C 152.47 -2.27773 4.67349 0
M  V30 1450 C 150.155 -2.77158 4.18914 0
M  V30 1451 C 152.149 -2.10457 6.01653 0
M  V30 1452 C 149.836 -2.59459 5.53285 0
M  V30 1453 C 150.834 -2.26158 6.4447 0
M  V30 1454 O 150.522 -2.08605 7.76363 0
M  V30 1455 H 150.254 -0.466443 0.489292 0
M  V30 1456 H 152.808 -0.8758 1.85793 0
M  V30 1457 H 151.038 -3.42947 1.78673 0
M  V30 1458 H 152.727 -3.40782 2.20504 0
M  V30 1459 H 153.493 -2.15095 4.34694 0
M  V30 1460 H 149.372 -3.02064 3.48251 0
M  V30 1461 H 152.916 -1.84387 6.72791 0
M  V30 1462 H 148.813 -2.71725 5.85522 0
M  V30 1463 H 149.581 -2.23439 7.87412 0
M  V30 1464 N 152.244 -1.26651 -0.937939 0
M  V30 1465 C 153.493 -1.11775 -1.67897 0
M  V30 1466 C 153.806 0.33794 -1.92659 0
M  V30 1467 O 155.012 0.607434 -2.64618 0
M  V30 1468 C 153.468 -1.9523 -3.02346 0
M  V30 1469 C 153.076 -3.45393 -2.8532 0
M  V30 1470 C 154.82 -1.88972 -3.80118 0
M  V30 1471 C 152.727 -4.21083 -4.15263 0
M  V30 1472 H 151.657 -0.414696 -0.629717 0
M  V30 1473 H 154.308 -1.50988 -1.04283 0
M  V30 1474 H 152.69 -1.48853 -3.66959 0
M  V30 1475 H 153.864 -3.99561 -2.29537 0
M  V30 1476 H 152.179 -3.52921 -2.20988 0
M  V30 1477 H 154.776 -2.42805 -4.76392 0
M  V30 1478 H 155.119 -0.86113 -4.07296 0
M  V30 1479 H 155.652 -2.33189 -3.22285 0
M  V30 1480 H 152.391 -5.24425 -3.93267 0
M  V30 1481 H 151.911 -3.71695 -4.70747 0
M  V30 1482 H 153.59 -4.29706 -4.83696 0
M  V30 1483 N 153.722 1.14298 -1.08507 0
M  V30 1484 C 154.95 1.89219 -0.836876 0
M  V30 1485 C 155.365 1.78638 0.611054 0
M  V30 1486 O 154.722 1.14643 1.41998 0
M  V30 1487 C 154.773 3.39158 -1.25116 0
M  V30 1488 O 154.494 3.49449 -2.64229 0
M  V30 1489 C 155.995 4.31073 -1.03398 0
M  V30 1490 H 153.215 0.599328 -0.301739 0
M  V30 1491 H 155.759 1.44746 -1.44461 0
M  V30 1492 H 153.914 3.81251 -0.687514 0
M  V30 1493 H 154.328 4.42589 -2.81452 0
M  V30 1494 H 155.802 5.34646 -1.37323 0
M  V30 1495 H 156.279 4.3919 0.0289259 0
M  V30 1496 H 156.885 3.94738 -1.58311 0
M  V30 1497 N 155.201 0.870884 1.31352 0
M  V30 1498 C 156.131 0.343096 2.30966 0
M  V30 1499 C 157.112 -0.566507 1.60389 0
M  V30 1500 O 158.297 -0.483336 1.88089 0
M  V30 1501 C 155.427 -0.455487 3.443 0
M  V30 1502 C 154.381 0.361103 4.26474 0
M  V30 1503 C 153.707 -0.563221 5.31725 0
M  V30 1504 C 155.007 1.59566 4.97329 0
M  V30 1505 H 156.701 1.17548 2.75359 0
M  V30 1506 H 154.247 0.566686 1.32381 0
M  V30 1507 H 156.2 -0.83525 4.13039 0
M  V30 1508 H 154.924 -1.32139 2.98675 0
M  V30 1509 H 153.583 0.722825 3.59403 0
M  V30 1510 H 153.231 -1.42643 4.82351 0
M  V30 1511 H 152.931 -0.0207409 5.87596 0
M  V30 1512 H 154.455 -0.939808 6.03324 0
M  V30 1513 H 155.869 1.28728 5.58661 0
M  V30 1514 H 154.266 2.07728 5.63 0
M  V30 1515 H 155.336 2.34798 4.24262 0
M  V30 1516 N 156.679 -1.44442 0.630414 0
M  V30 1517 C 157.956 -1.9549 0.0655657 0
M  V30 1518 C 158.336 -1.5724 -1.40851 0
M  V30 1519 O 157.684 -0.846116 -2.12257 0
M  V30 1520 C 157.894 -3.47812 0.287691 0
M  V30 1521 C 159.242 -4.24216 0.180513 0
M  V30 1522 O 160.266 -3.55526 0.219019 0
M  V30 1523 O 159.125 -5.46434 0.0848493 0
M  V30 1524 H 156.219 -0.826688 -0.0227177 0
M  V30 1525 H 158.765 -1.54496 0.702068 0
M  V30 1526 H 157.537 -3.687 1.31056 0
M  V30 1527 H 157.16 -3.95751 -0.382984 0
M  V30 1528 N 158.157 -0.370918 -1.53173 0
M  V30 1529 C 159.573 -0.0200818 -1.59587 0
M  V30 1530 C 159.773 1.46279 -1.38581 0
M  V30 1531 O 158.829 2.22506 -1.19363 0
M  V30 1532 C 160.142 -0.4808 -2.96831 0
M  V30 1533 C 161.69 -0.435477 -3.09956 0
M  V30 1534 C 162.165 -0.872092 -4.4962 0
M  V30 1535 N 163.656 -0.827364 -4.55751 0
M  V30 1536 C 164.391 -1.13683 -5.62018 0
M  V30 1537 N 163.887 -1.51584 -6.76014 0
M  V30 1538 N 165.68 -1.05927 -5.52029 0
M  V30 1539 H 157.831 -1.33652 -1.65079 0
M  V30 1540 H 160.094 -0.546634 -0.774529 0
M  V30 1541 H 159.8 -1.51577 -3.1736 0
M  V30 1542 H 159.674 0.129796 -3.76977 0
M  V30 1543 H 162.061 0.590371 -2.89134 0
M  V30 1544 H 162.142 -1.08164 -2.31806 0
M  V30 1545 H 161.786 -1.89608 -4.71181 0
M  V30 1546 H 161.716 -0.203127 -5.26208 0
M  V30 1547 H 164.207 -0.548216 -3.73902 0
M  V30 1548 H 164.52 -1.73609 -7.53047 0
M  V30 1549 H 162.865 -1.55454 -6.77391 0
M  V30 1550 H 166.056 -0.762321 -4.61851 0
M  V30 1551 H 166.229 -1.30378 -6.34749 0
M  V30 1552 N 159.635 1.57281 -0.100228 0
M  V30 1553 C 160.598 2.13158 0.842398 0
M  V30 1554 C 161.598 1.06202 1.20738 0
M  V30 1555 O 162.788 1.32066 1.13597 0
M  V30 1556 C 159.92 2.65639 2.13655 0
M  V30 1557 H 161.113 2.97766 0.357114 0
M  V30 1558 H 158.666 1.5559 0.148823 0
M  V30 1559 H 159.401 1.84566 2.66657 0
M  V30 1560 H 159.186 3.43844 1.88451 0
M  V30 1561 H 160.676 3.08846 2.81077 0
M  V30 1562 N 161.113 -0.173488 1.56642 0
M  V30 1563 C 162.046 -1.24353 1.91342 0
M  V30 1564 C 163.024 -1.4289 0.775965 0
M  V30 1565 O 164.208 -1.57932 1.02907 0
M  V30 1566 C 161.335 -2.60683 2.16245 0
M  V30 1567 C 160.381 -2.58894 3.38934 0
M  V30 1568 S 161.214 -2.0819 4.93373 0
M  V30 1569 C 162.37 -3.46302 5.21369 0
M  V30 1570 H 162.603 -0.947345 2.81803 0
M  V30 1571 H 160.136 -0.377958 1.49703 0
M  V30 1572 H 162.094 -3.39149 2.31275 0
M  V30 1573 H 160.755 -2.87502 1.26496 0
M  V30 1574 H 159.948 -3.59188 3.53553 0
M  V30 1575 H 159.55 -1.88522 3.2301 0
M  V30 1576 H 161.842 -4.42287 5.13214 0
M  V30 1577 H 162.785 -3.3656 6.23003 0
M  V30 1578 H 163.193 -3.42214 4.48943 0
M  V30 1579 N 162.591 -1.51276 -0.441967 0
M  V30 1580 C 163.541 -1.6864 -1.53442 0
M  V30 1581 C 164.525 -0.540444 -1.51552 0
M  V30 1582 O 165.717 -0.796157 -1.58083 0
M  V30 1583 C 162.846 -1.8106 -2.91672 0
M  V30 1584 C 161.932 -3.01424 -2.98336 0
M  V30 1585 N 162.323 -4.2467 -2.74752 0
M  V30 1586 C 160.621 -3.00584 -3.29493 0
M  V30 1587 C 161.322 -5.05891 -2.87139 0
M  V30 1588 N 160.298 -4.40442 -3.18609 0
M  V30 1589 H 164.1 -2.61598 -1.33954 0
M  V30 1590 H 161.614 -1.4886 -0.6492 0
M  V30 1591 H 163.611 -1.91609 -3.70259 0
M  V30 1592 H 162.271 -0.892795 -3.12185 0
M  V30 1593 H 163.282 -4.53691 -2.49769 0
M  V30 1594 H 159.959 -2.18417 -3.55809 0
M  V30 1595 H 161.349 -6.13983 -2.72899 0
M  V30 1596 N 164.069 0.697108 -1.41344 0
M  V30 1597 C 165.032 1.79281 -1.42797 0
M  V30 1598 C 166.032 1.57607 -0.318837 0
M  V30 1599 O 167.222 1.64309 -0.578642 0
M  V30 1600 C 164.354 3.17632 -1.23785 0
M  V30 1601 H 165.547 1.79385 -2.40335 0
M  V30 1602 H 163.1 0.904582 -1.27464 0
M  V30 1603 H 163.835 3.23167 -0.270814 0
M  V30 1604 H 163.62 3.34765 -2.04144 0
M  V30 1605 H 165.11 3.97617 -1.27633 0
M  V30 1606 N 165.547 1.27147 0.931209 0
M  V30 1607 C 166.775 1.16082 1.71267 0
M  V30 1608 C 167.19 -0.282772 1.8667 0
M  V30 1609 O 166.547 -1.19283 1.38122 0
M  V30 1610 C 166.598 1.8358 3.11417 0
M  V30 1611 O 166.319 3.22299 2.96741 0
M  V30 1612 C 167.82 1.78597 4.05732 0
M  V30 1613 H 165.04 0.403758 0.535929 0
M  V30 1614 H 167.584 1.67953 1.16671 0
M  V30 1615 H 165.739 1.35623 3.62885 0
M  V30 1616 H 166.153 3.55851 3.85319 0
M  V30 1617 H 167.627 2.30444 5.01597 0
M  V30 1618 H 168.104 0.754564 4.3267 0
M  V30 1619 H 168.71 2.26152 3.60188 0
M  V30 1620 N 167.025 -1.13721 1.09112 0
M  V30 1621 C 167.973 -2.21103 0.722219 0
M  V30 1622 C 168.967 -1.67147 -0.275374 0
M  V30 1623 O 170.173 -1.79477 -0.137176 0
M  V30 1624 H 166.548 -0.720445 0.215553 0
M  V30 1625 H 168.519 -2.49483 1.63709 0
M  V30 1626 C 167.268 -3.47352 0.15543 0
M  V30 1627 H 166.591 -3.89206 0.914246 0
M  V30 1628 H 168.031 -4.2395 -0.0647967 0
M  V30 1629 C 166.49 -3.1814 -1.10852 0
M  V30 1630 O 167.02 -3.36604 -2.19227 0
M  V30 1631 N 165.226 -2.72045 -1.02176 0
M  V30 1632 H 164.773 -2.57221 -0.139764 0
M  V30 1633 H 164.731 -2.52875 -1.8682 0
M  V30 1634 N 168.503 -0.877838 -1.30888 0
M  V30 1635 C 169.752 -0.488793 -1.95688 0
M  V30 1636 C 170.065 0.965485 -1.70111 0
M  V30 1637 O 171.271 1.46104 -2.28836 0
M  V30 1638 C 169.727 -0.823201 -3.50359 0
M  V30 1639 C 169.335 -2.29477 -3.84765 0
M  V30 1640 C 171.079 -0.503009 -4.21509 0
M  V30 1641 C 168.986 -2.57118 -5.32583 0
M  V30 1642 H 167.916 -0.179062 -0.732429 0
M  V30 1643 H 170.567 -1.07183 -1.48943 0
M  V30 1644 H 168.949 -0.169331 -3.95638 0
M  V30 1645 H 170.123 -2.99236 -3.5042 0
M  V30 1646 H 168.438 -2.58178 -3.267 0
M  V30 1647 H 171.035 -0.68665 -5.30273 0
M  V30 1648 H 171.378 0.557109 -4.12555 0
M  V30 1649 H 171.911 -1.11376 -3.8189 0
M  V30 1650 H 168.65 -3.61843 -5.4658 0
M  V30 1651 H 168.17 -1.91961 -5.68253 0
M  V30 1652 H 169.849 -2.42251 -5.99936 0
M  V30 1653 N 169.982 1.44106 -0.638065 0
M  V30 1654 C 170.945 2.29138 0.0531013 0
M  V30 1655 C 171.945 1.41409 0.765506 0
M  V30 1656 O 173.135 1.63206 0.609046 0
M  V30 1657 C 170.267 3.23144 1.08584 0
M  V30 1658 H 171.46 2.91739 -0.694883 0
M  V30 1659 H 169.013 1.51134 -0.398538 0
M  V30 1660 H 169.748 2.65408 1.86357 0
M  V30 1661 H 169.533 3.87804 0.578852 0
M  V30 1662 H 171.023 3.87004 1.56899 0
M  V30 1663 N 171.46 0.379036 1.52974 0
M  V30 1664 C 172.407 -0.461048 2.26148 0
M  V30 1665 C 173.377 -1.06637 1.27349 0
M  V30 1666 O 174.562 -1.09633 1.56157 0
M  V30 1667 C 171.702 -1.58782 3.06402 0
M  V30 1668 C 170.815 -1.00636 4.20115 0
M  V30 1669 C 169.95 -2.10334 4.87784 0
M  V30 1670 C 168.989 -1.49724 5.93506 0
M  V30 1671 N 168.126 -2.5331 6.54812 0
M  V30 1672 H 172.966 0.169429 2.97518 0
M  V30 1673 H 170.503 0.0953806 1.4679 0
M  V30 1674 H 172.461 -2.25174 3.51215 0
M  V30 1675 H 171.091 -2.18876 2.37261 0
M  V30 1676 H 170.143 -0.232332 3.7969 0
M  V30 1677 H 171.455 -0.523343 4.96047 0
M  V30 1678 H 170.609 -2.84519 5.35849 0
M  V30 1679 H 169.348 -2.61992 4.11353 0
M  V30 1680 H 168.353 -0.740598 5.44789 0
M  V30 1681 H 169.578 -0.988732 6.71864 0
M  V30 1682 H 167.524 -3.04156 5.81227 0
M  V30 1683 H 167.441 -2.09734 7.26325 0
M  V30 1684 H 168.709 -3.27155 7.07524 0
M  V30 1685 N 172.938 -1.57226 0.108567 0
M  V30 1686 C 174.354 -1.5766 -0.248058 0
M  V30 1687 C 174.554 -1.12063 -1.67464 0
M  V30 1688 O 173.61 -0.803236 -2.39383 0
M  V30 1689 C 174.923 -3.0069 -0.0242287 0
M  V30 1690 C 176.471 -3.12868 -0.0909372 0
M  V30 1691 C 176.946 -4.57879 0.105067 0
M  V30 1692 N 178.437 -4.63172 0.0506846 0
M  V30 1693 C 179.172 -5.73126 0.177396 0
M  V30 1694 N 178.668 -6.91866 0.359696 0
M  V30 1695 N 180.461 -5.61977 0.117709 0
M  V30 1696 H 172.612 -1.85169 1.04049 0
M  V30 1697 H 174.875 -0.85529 0.40888 0
M  V30 1698 H 174.581 -3.38299 0.961604 0
M  V30 1699 H 174.455 -3.6945 -0.76068 0
M  V30 1700 H 176.842 -2.75124 -1.06729 0
M  V30 1701 H 176.923 -2.46672 0.677225 0
M  V30 1702 H 176.567 -4.96321 1.07834 0
M  V30 1703 H 176.497 -5.22153 -0.682954 0
M  V30 1704 H 178.988 -3.778 -0.0871266 0
M  V30 1705 H 179.301 -7.71503 0.447529 0
M  V30 1706 H 177.646 -6.93874 0.395536 0
M  V30 1707 H 180.837 -4.68094 -0.0236741 0
M  V30 1708 H 181.01 -6.47627 0.219905 0
M  V30 1709 N 174.416 0.165178 -1.56732 0
M  V30 1710 C 175.379 1.18822 -1.95995 0
M  V30 1711 C 176.379 1.3685 -0.84431 0
M  V30 1712 O 177.569 1.34152 -1.11126 0
M  V30 1713 C 174.701 2.5521 -2.26011 0
M  V30 1714 H 175.894 0.851825 -2.87548 0
M  V30 1715 H 173.447 0.407857 -1.50885 0
M  V30 1716 H 174.182 2.93852 -1.37191 0
M  V30 1717 H 173.967 2.43489 -3.07336 0
M  V30 1718 H 175.457 3.28927 -2.57288 0
M  V30 1719 N 175.894 1.51508 0.433938 0
M  V30 1720 C 176.841 1.73068 1.52696 0
M  V30 1721 C 177.811 0.572441 1.55924 0
M  V30 1722 O 178.996 0.807253 1.72882 0
M  V30 1723 C 176.136 1.86474 2.90381 0
M  V30 1724 C 175.249 3.14037 2.96656 0
M  V30 1725 C 174.384 3.18019 4.25485 0
M  V30 1726 C 173.423 4.39882 4.2564 0
M  V30 1727 N 172.56 4.41394 5.45999 0
M  V30 1728 H 177.4 2.66366 1.33615 0
M  V30 1729 H 174.937 1.32008 0.649018 0
M  V30 1730 H 176.895 1.92229 3.70275 0
M  V30 1731 H 175.525 0.965809 3.08013 0
M  V30 1732 H 174.577 3.17575 2.09404 0
M  V30 1733 H 175.889 4.0394 2.92633 0
M  V30 1734 H 175.043 3.22708 5.13755 0
M  V30 1735 H 173.782 2.2601 4.3217 0
M  V30 1736 H 172.787 4.35366 3.35763 0
M  V30 1737 H 174.012 5.33159 4.20617 0
M  V30 1738 H 171.958 3.52258 5.53399 0
M  V30 1739 H 171.875 5.25111 5.4387 0
M  V30 1740 H 173.143 4.50281 6.36292 0
M  V30 1741 N 177.372 -0.689602 1.41712 0
M  V30 1742 C 178.62 -1.4468 1.4111 0
M  V30 1743 C 178.941 -1.94986 0.0232196 0
M  V30 1744 O 178.211 -1.72097 -0.935913 0
M  V30 1745 H 176.791 -0.536847 0.519427 0
M  V30 1746 H 179.453 -0.815825 1.77004 0
M  V30 1747 H 178.549 -2.30706 2.10193 0
M  V30 1748 N 178.85 -1.27639 -0.924453 0
M  V30 1749 C 179.798 -1.10485 -2.04685 0
M  V30 1750 C 180.792 -0.0270421 -1.69378 0
M  V30 1751 O 181.998 -0.185008 -1.79047 0
M  V30 1752 H 178.373 -0.340546 -0.670472 0
M  V30 1753 H 180.344 -2.05566 -2.16298 0
M  V30 1754 C 179.093 -0.772229 -3.39016 0
M  V30 1755 H 178.416 -1.59351 -3.66671 0
M  V30 1756 H 179.856 -0.692097 -4.18313 0
M  V30 1757 C 178.315 0.523554 -3.32807 0
M  V30 1758 O 178.845 1.55702 -3.70297 0
M  V30 1759 N 177.051 0.520363 -2.85903 0
M  V30 1760 H 176.598 -0.32107 -2.55591 0
M  V30 1761 H 176.556 1.38742 -2.82131 0
M  V30 1762 N 180.328 1.1314 -1.09713 0
M  V30 1763 C 181.556 1.88321 -0.856898 0
M  V30 1764 C 181.971 1.79276 0.592073 0
M  V30 1765 O 181.328 1.16142 1.40774 0
M  V30 1766 C 181.379 3.37812 -1.28706 0
M  V30 1767 O 181.1 3.46627 -2.67921 0
M  V30 1768 C 182.601 4.29952 -1.07964 0
M  V30 1769 H 179.821 0.596094 -0.308079 0
M  V30 1770 H 182.365 1.43205 -1.45988 0
M  V30 1771 H 180.52 3.805 -0.727912 0
M  V30 1772 H 180.934 4.39579 -2.8613 0
M  V30 1773 H 182.408 5.33159 -1.42986 0
M  V30 1774 H 182.885 4.39196 -0.0176577 0
M  V30 1775 H 183.491 3.93036 -1.62489 0
M  V30 1776 N 181.806 0.884767 1.30421 0
M  V30 1777 C 183.217 0.553656 1.78302 0
M  V30 1778 C 183.568 -0.930153 1.7275 0
M  V30 1779 O 182.693 -1.72681 1.30423 0
M  V30 1780 C 183.288 0.998234 3.2376 0
M  V30 1781 C 181.847 0.71854 3.69478 0
M  V30 1782 C 180.994 1.18132 2.50879 0
M  V30 1783 H 183.945 1.06901 1.17294 0
M  V30 1784 H 183.966 0.327118 3.79091 0
M  V30 1785 H 183.478 2.0782 3.27769 0
M  V30 1786 H 181.579 -0.349444 3.70958 0
M  V30 1787 H 181.692 1.30595 4.60958 0
M  V30 1788 H 180.056 0.600669 2.47516 0
M  V30 1789 H 180.839 2.26902 2.57624 0
M  V30 1790 N 183.284 -1.43765 0.645699 0
M  V30 1791 C 184.53 -2.02197 0.156271 0
M  V30 1792 C 184.863 -1.50776 -1.22393 0
M  V30 1793 O 184.138 -0.697771 -1.81553 0
M  V30 1794 C 184.421 -3.59749 0.158872 0
M  V30 1795 C 184.274 -4.21419 1.57245 0
M  V30 1796 C 185.593 -4.37149 -0.50879 0
M  V30 1797 H 182.712 -0.734694 0.0582602 0
M  V30 1798 H 185.354 -1.71157 0.824951 0
M  V30 1799 H 183.504 -3.86325 -0.410525 0
M  V30 1800 H 185.176 -4.059 2.19186 0
M  V30 1801 H 183.419 -3.78356 2.122 0
M  V30 1802 H 184.09 -5.30482 1.52619 0
M  V30 1803 H 186.566 -4.16093 -0.024412 0
M  V30 1804 H 185.442 -5.4683 -0.476213 0
M  V30 1805 H 185.703 -4.12839 -1.58165 0
M  V30 1806 N 184.763 -0.387143 -1.52771 0
M  V30 1807 C 185.988 0.198407 -2.06449 0
M  V30 1808 C 186.413 1.39918 -1.25716 0
M  V30 1809 O 185.771 1.79099 -0.281657 0
M  V30 1810 C 185.819 0.548893 -3.56398 0
M  V30 1811 O 184.923 1.64315 -3.78252 0
M  V30 1812 H 184.264 0.0237731 -0.663574 0
M  V30 1813 H 186.794 -0.553989 -1.96957 0
M  V30 1814 H 186.804 0.813812 -3.99801 0
M  V30 1815 H 185.479 -0.329005 -4.14597 0
M  V30 1816 H 184.056 1.37211 -3.46738 0
M  V30 1817 N 186.241 1.57166 -0.116904 0
M  V30 1818 C 187.481 1.97008 0.544715 0
M  V30 1819 C 187.845 0.998713 1.63981 0
M  V30 1820 O 189.046 1.28644 2.36018 0
M  V30 1821 C 187.317 3.41145 1.06559 0
M  V30 1822 S 188.876 4.02998 1.73603 0
M  V30 1823 H 185.694 0.688587 0.177112 0
M  V30 1824 H 188.296 1.94459 -0.201487 0
M  V30 1825 H 187 4.09592 0.257374 0
M  V30 1826 H 186.531 3.4734 1.84712 0
M  V30 1827 H 188.546 3.93585 3.02168 0
M  V30 1828 N 187.719 -0.156864 1.56817 0
M  V30 1829 C 188.965 -0.872416 1.83076 0
M  V30 1830 C 189.298 -1.81261 0.697001 0
M  V30 1831 O 188.573 -1.92171 -0.30008 0
M  V30 1832 C 188.856 -1.65551 3.19789 0
M  V30 1833 C 188.709 -0.737467 4.43713 0
M  V30 1834 C 190.028 -2.62012 3.53606 0
M  V30 1835 H 187.147 -0.315715 0.665953 0
M  V30 1836 H 189.789 -0.138004 1.89498 0
M  V30 1837 H 187.939 -2.28159 3.14445 0
M  V30 1838 H 189.611 -0.123143 4.61136 0
M  V30 1839 H 187.854 -0.0464067 4.33775 0
M  V30 1840 H 188.525 -1.32122 5.35955 0
M  V30 1841 H 191.001 -2.09525 3.59497 0
M  V30 1842 H 189.877 -3.13861 4.50314 0
M  V30 1843 H 190.138 -3.42902 2.79053 0
M  V30 1844 N 189.197 -1.51736 -0.425897 0
M  V30 1845 C 190.422 -1.69082 -1.20108 0
M  V30 1846 C 190.847 -0.392398 -1.83962 0
M  V30 1847 O 190.205 0.64858 -1.69302 0
M  V30 1848 C 190.253 -2.81604 -2.25237 0
M  V30 1849 O 189.357 -2.46004 -3.30992 0
M  V30 1850 H 188.698 -0.563408 -0.35138 0
M  V30 1851 H 191.228 -1.98358 -0.501512 0
M  V30 1852 H 191.238 -3.06025 -2.69838 0
M  V30 1853 H 189.913 -3.75817 -1.78142 0
M  V30 1854 H 188.49 -2.32195 -2.91787 0
M  V30 1855 N 190.675 0.682077 -1.42076 0
M  V30 1856 C 191.915 1.45424 -1.43636 0
M  V30 1857 C 192.279 1.91939 -0.0484001 0
M  V30 1858 O 193.48 2.6873 0.0612514 0
M  V30 1859 C 191.751 2.62427 -2.42625 0
M  V30 1860 S 193.31 3.51379 -2.62827 0
M  V30 1861 H 190.128 0.496779 -0.508657 0
M  V30 1862 H 192.73 0.794645 -1.78621 0
M  V30 1863 H 191.434 2.26481 -3.42249 0
M  V30 1864 H 190.965 3.33266 -2.09039 0
M  V30 1865 H 192.98 4.58141 -1.9058 0
M  V30 1866 N 192.153 1.28127 0.917671 0
M  V30 1867 C 193.103 1.08361 2.00604 0
M  V30 1868 C 194.087 0.00847518 1.60898 0
M  V30 1869 O 195.279 0.228167 1.75523 0
M  V30 1870 C 192.408 0.743376 3.35155 0
M  V30 1871 C 191.494 1.85716 3.81275 0
M  V30 1872 N 191.885 3.09822 3.99805 0
M  V30 1873 C 190.183 1.74612 4.10398 0
M  V30 1874 C 190.884 3.82368 4.38372 0
M  V30 1875 N 189.86 3.10192 4.4641 0
M  V30 1876 H 193.662 2.02531 2.12975 0
M  V30 1877 H 191.176 1.18989 1.10523 0
M  V30 1878 H 193.173 0.582859 4.12805 0
M  V30 1879 H 191.833 -0.190595 3.2414 0
M  V30 1880 H 192.844 3.45475 3.85833 0
M  V30 1881 H 189.521 0.883657 4.08041 0
M  V30 1882 H 190.911 4.89082 4.60704 0
M  V30 1883 N 193.631 -1.12557 1.10312 0
M  V30 1884 C 194.541 -2.21841 0.763142 0
M  V30 1885 C 195.557 -1.72354 -0.238801 0
M  V30 1886 O 196.733 -2.01249 -0.0778746 0
M  V30 1887 C 193.798 -3.46131 0.198632 0
M  V30 1888 C 192.859 -4.10464 1.25769 0
M  V30 1889 C 192.092 -5.28821 0.72002 0
M  V30 1890 O 192.315 -5.6859 -0.453993 0
M  V30 1891 O 191.249 -5.83437 1.47935 0
M  V30 1892 H 195.075 -2.53312 1.67532 0
M  V30 1893 H 192.66 -1.20867 0.878157 0
M  V30 1894 H 194.542 -4.2125 -0.112401 0
M  V30 1895 H 193.217 -3.16338 -0.686419 0
M  V30 1896 H 192.124 -3.3713 1.62156 0
M  V30 1897 H 193.457 -4.44408 2.11571 0
M  V30 1898 N 195.109 -0.891671 -1.2995 0
M  V30 1899 C 196.041 -0.320695 -2.26945 0
M  V30 1900 C 197.054 0.528497 -1.53983 0
M  V30 1901 O 198.243 0.346959 -1.75096 0
M  V30 1902 C 195.343 0.562066 -3.34207 0
M  V30 1903 C 194.516 -0.259576 -4.36629 0
M  V30 1904 C 193.575 0.554739 -5.23268 0
M  V30 1905 O 192.601 -0.0249311 -5.69195 0
M  V30 1906 N 193.803 1.8625 -5.4981 0
M  V30 1907 H 196.568 -1.15432 -2.76578 0
M  V30 1908 H 194.129 -0.755336 -1.432 0
M  V30 1909 H 196.121 1.11304 -3.89093 0
M  V30 1910 H 194.691 1.29637 -2.84452 0
M  V30 1911 H 193.911 -0.991986 -3.81514 0
M  V30 1912 H 195.199 -0.822564 -5.02107 0
M  V30 1913 H 194.597 2.35628 -5.14292 0
M  V30 1914 H 193.154 2.36078 -6.07545 0
M  V30 1915 N 196.587 1.43421 -0.653314 0
M  V30 1916 C 197.519 2.29071 0.0769134 0
M  V30 1917 C 198.532 1.42513 0.787017 0
M  V30 1918 O 199.721 1.66449 0.644757 0
M  V30 1919 C 196.821 3.19436 1.13199 0
M  V30 1920 C 195.994 4.34533 0.500006 0
M  V30 1921 C 195.053 5.05771 1.45198 0
M  V30 1922 O 194.079 5.61037 0.960538 0
M  V30 1923 N 195.281 5.0928 2.78594 0
M  V30 1924 H 198.046 2.92382 -0.658235 0
M  V30 1925 H 195.607 1.54112 -0.496104 0
M  V30 1926 H 197.599 3.63958 1.76964 0
M  V30 1927 H 196.169 2.57724 1.7691 0
M  V30 1928 H 195.389 3.92925 -0.316738 0
M  V30 1929 H 196.677 5.08766 0.0588345 0
M  V30 1930 H 196.075 4.65751 3.2108 0
M  V30 1931 H 194.632 5.57519 3.37662 0
M  V30 1932 N 198.065 0.39524 1.52563 0
M  V30 1933 C 199.293 -0.184943 2.06072 0
M  V30 1934 C 199.708 -1.40021 1.26647 0
M  V30 1935 O 199.065 -1.79767 0.314672 0
M  V30 1936 C 199.116 -0.549179 3.57304 0
M  V30 1937 O 198.837 0.617813 4.33722 0
M  V30 1938 C 200.338 -1.18459 4.2718 0
M  V30 1939 H 197.558 -0.0265025 0.670476 0
M  V30 1940 H 200.102 0.562184 1.96621 0
M  V30 1941 H 198.257 -1.2462 3.66809 0
M  V30 1942 H 198.671 0.317091 5.23541 0
M  V30 1943 H 200.145 -1.38976 5.34219 0
M  V30 1944 H 200.622 -2.15368 3.82771 0
M  V30 1945 H 201.228 -0.528163 4.22008 0
M  V30 1946 N 199.544 -1.57102 0.125237 0
M  V30 1947 C 200.491 -2.15641 -0.822655 0
M  V30 1948 C 201.461 -1.08313 -1.25927 0
M  V30 1949 O 202.646 -1.36251 -1.33567 0
M  V30 1950 C 199.786 -2.76504 -2.06494 0
M  V30 1951 C 198.899 -3.98158 -1.67612 0
M  V30 1952 C 198.034 -4.47088 -2.86854 0
M  V30 1953 C 197.073 -5.6126 -2.44242 0
M  V30 1954 N 196.21 -6.04905 -3.56419 0
M  V30 1955 H 201.05 -2.96313 -0.316625 0
M  V30 1956 H 198.587 -1.46388 -0.144588 0
M  V30 1957 H 200.545 -3.09925 -2.79289 0
M  V30 1958 H 199.175 -1.98512 -2.54545 0
M  V30 1959 H 198.227 -3.70858 -0.846661 0
M  V30 1960 H 199.539 -4.80934 -1.32301 0
M  V30 1961 H 198.693 -4.82451 -3.67867 0
M  V30 1962 H 197.432 -3.63275 -3.25396 0
M  V30 1963 H 196.437 -5.25495 -1.61663 0
M  V30 1964 H 197.662 -6.46843 -2.0681 0
M  V30 1965 H 195.608 -5.24032 -3.94623 0
M  V30 1966 H 195.525 -6.82552 -3.25051 0
M  V30 1967 H 196.793 -6.44907 -4.37853 0
M  V30 1968 N 201.022 0.148545 -1.56898 0
M  V30 1969 C 201.932 1.20293 -2.01412 0
M  V30 1970 C 202.948 1.47107 -0.929273 0
M  V30 1971 O 204.124 1.58807 -1.23863 0
M  V30 1972 C 201.189 2.51682 -2.38447 0
M  V30 1973 C 200.25 2.32529 -3.60872 0
M  V30 1974 C 199.483 3.57653 -3.96132 0
M  V30 1975 O 199.706 4.63771 -3.32073 0
M  V30 1976 O 198.64 3.50408 -4.89385 0
M  V30 1977 H 202.466 0.855025 -2.91416 0
M  V30 1978 H 200.051 0.357151 -1.45068 0
M  V30 1979 H 201.933 3.29147 -2.63135 0
M  V30 1980 H 200.608 2.86006 -1.51599 0
M  V30 1981 H 199.515 1.53019 -3.41373 0
M  V30 1982 H 200.848 2.03121 -4.48333 0
M  V30 1983 N 202.5 1.5196 0.417844 0
M  V30 1984 C 203.916 1.40569 0.755816 0
M  V30 1985 C 204.116 0.503316 1.95113 0
M  V30 1986 O 203.172 -0.0341925 2.52477 0
M  V30 1987 C 204.485 2.82947 1.01791 0
M  V30 1988 C 206.033 2.92231 1.12116 0
M  V30 1989 C 206.508 4.35559 1.41608 0
M  V30 1990 N 207.999 4.38753 1.48491 0
M  V30 1991 C 208.734 5.46705 1.7292 0
M  V30 1992 N 208.23 6.64788 1.95011 0
M  V30 1993 N 210.023 5.34209 1.74863 0
M  V30 1994 H 202.174 2.09168 -0.369098 0
M  V30 1995 H 204.437 0.942409 -0.102809 0
M  V30 1996 H 204.143 3.5106 0.212081 0
M  V30 1997 H 204.017 3.23462 1.94042 0
M  V30 1998 H 206.404 2.24304 1.9176 0
M  V30 1999 H 206.485 2.55185 0.177225 0
M  V30 2000 H 206.129 5.04042 0.624848 0
M  V30 2001 H 206.059 4.70133 2.37239 0
M  V30 2002 H 208.55 3.5363 1.33244 0
M  V30 2003 H 208.863 7.42845 2.13076 0
M  V30 2004 H 207.208 6.67869 1.92293 0
M  V30 2005 H 210.399 4.40937 1.57137 0
M  V30 2006 H 210.572 6.18415 1.93563 0
M  V30 2007 N 203.978 -0.674533 1.42435 0
M  V30 2008 C 205.394 -0.98769 1.25367 0
M  V30 2009 C 205.594 -2.00879 0.158044 0
M  V30 2010 O 204.65 -2.48075 -0.470633 0
M  V30 2011 C 205.963 -1.49224 2.6106 0
M  V30 2012 C 207.511 -1.61 2.68417 0
M  V30 2013 C 207.986 -2.14852 4.04478 0
M  V30 2014 N 209.477 -2.22185 4.06434 0
M  V30 2015 C 210.212 -2.64928 5.08528 0
M  V30 2016 N 209.708 -3.07121 6.21006 0
M  V30 2017 N 211.501 -2.64679 4.95885 0
M  V30 2018 H 203.652 0.00152503 2.124 0
M  V30 2019 H 205.915 -0.0618434 0.945981 0
M  V30 2020 H 205.621 -0.816453 3.42092 0
M  V30 2021 H 205.495 -2.47094 2.84999 0
M  V30 2022 H 207.882 -2.27686 1.87732 0
M  V30 2023 H 207.963 -0.616195 2.48267 0
M  V30 2024 H 207.607 -1.48775 4.85622 0
M  V30 2025 H 207.537 -3.15024 4.2198 0
M  V30 2026 H 210.028 -1.92435 3.25234 0
M  V30 2027 H 210.341 -3.38423 6.94759 0
M  V30 2028 H 208.686 -3.04978 6.24511 0
M  V30 2029 H 211.877 -2.31078 4.07088 0
M  V30 2030 H 212.05 -2.9767 5.75584 0
M  V30 2031 N 205.456 -1.28612 -0.910864 0
M  V30 2032 C 206.366 -1.14643 -2.0468 0
M  V30 2033 C 207.382 -0.0723121 -1.7385 0
M  V30 2034 O 208.558 -0.282178 -1.99413 0
M  V30 2035 C 205.623 -0.812561 -3.37044 0
M  V30 2036 C 204.684 -1.96935 -3.81465 0
M  V30 2037 C 203.917 -1.65131 -5.07511 0
M  V30 2038 O 204.14 -0.567013 -5.67575 0
M  V30 2039 O 203.074 -2.49585 -5.47714 0
M  V30 2040 H 206.9 -2.1001 -2.19384 0
M  V30 2041 H 204.485 -1.07958 -1.03274 0
M  V30 2042 H 206.367 -0.640441 -4.16505 0
M  V30 2043 H 205.042 0.111426 -3.23508 0
M  V30 2044 H 203.949 -2.19664 -3.02818 0
M  V30 2045 H 205.282 -2.87414 -3.99567 0
M  V30 2046 N 206.934 1.1197 -1.10907 0
M  V30 2047 C 208.174 1.85224 -0.864378 0
M  V30 2048 C 208.538 1.82411 0.599178 0
M  V30 2049 O 209.739 2.51057 0.960416 0
M  V30 2050 C 208.01 3.2868 -1.40371 0
M  V30 2051 S 209.569 4.1925 -1.29518 0
M  V30 2052 H 206.387 0.63878 -0.312219 0
M  V30 2053 H 208.989 1.3485 -1.41548 0
M  V30 2054 H 207.693 3.28289 -2.46281 0
M  V30 2055 H 207.224 3.84121 -0.849402 0
M  V30 2056 H 209.239 4.95539 -0.256059 0
M  V30 2057 N 208.412 0.89855 1.29475 0
M  V30 2058 C 209.375 0.380272 2.26023 0
M  V30 2059 C 210.375 -0.484891 1.53315 0
M  V30 2060 O 211.565 -0.290108 1.71767 0
M  V30 2061 C 208.697 -0.45651 3.3783 0
M  V30 2062 H 209.89 1.23295 2.73383 0
M  V30 2063 H 207.443 0.676589 1.40897 0
M  V30 2064 H 208.178 -1.32922 2.95808 0
M  V30 2065 H 207.963 0.163393 3.91759 0
M  V30 2066 H 209.453 -0.810466 4.0966 0
M  V30 2067 N 209.89 -1.43072 0.660911 0
M  V30 2068 C 211.138 -2.01323 0.177094 0
M  V30 2069 C 211.459 -1.5245 -1.2159 0
M  V30 2070 O 210.729 -0.740322 -1.81373 0
M  V30 2071 H 209.309 -0.744382 0.0624804 0
M  V30 2072 H 211.971 -1.75179 0.854305 0
M  V30 2073 H 211.067 -3.11649 0.167641 0
M  V30 2074 N 211.368 -0.403325 -1.52352 0
M  V30 2075 C 212.608 0.173946 -2.03659 0
M  V30 2076 C 212.972 1.42869 -1.28267 0
M  V30 2077 O 214.173 2.08403 -1.69769 0
M  V30 2078 C 212.444 0.421478 -3.54906 0
M  V30 2079 S 214.003 0.967027 -4.28012 0
M  V30 2080 H 210.821 0.0477461 -0.709395 0
M  V30 2081 H 213.423 -0.554906 -1.87459 0
M  V30 2082 H 212.127 -0.498616 -4.0736 0
M  V30 2083 H 211.658 1.17837 -3.75337 0
M  V30 2084 H 213.673 2.24812 -4.4235 0
M  V30 2085 N 212.846 1.57033 -0.133567 0
M  V30 2086 C 213.796 2.12641 0.822671 0
M  V30 2087 C 214.78 1.05081 1.21847 0
M  V30 2088 O 215.972 1.31287 1.18713 0
M  V30 2089 C 213.101 2.74094 2.06706 0
M  V30 2090 C 212.187 3.88757 1.69497 0
M  V30 2091 N 212.578 4.95194 1.03037 0
M  V30 2092 C 210.876 3.99213 1.98859 0
M  V30 2093 C 211.577 5.75414 0.852873 0
M  V30 2094 N 210.553 5.25726 1.3825 0
M  V30 2095 H 214.355 2.92308 0.305537 0
M  V30 2096 H 211.869 1.62256 0.0684276 0
M  V30 2097 H 213.866 3.12285 2.76195 0
M  V30 2098 H 212.526 1.95896 2.5895 0
M  V30 2099 H 213.537 5.13247 0.692669 0
M  V30 2100 H 210.214 3.32075 2.53047 0
M  V30 2101 H 211.604 6.71089 0.330091 0
M  V30 2102 N 214.325 -0.140222 1.56975 0
M  V30 2103 C 215.288 -1.15689 1.97861 0
M  V30 2104 C 216.288 -1.3549 0.865974 0
M  V30 2105 O 217.478 -1.32367 1.13246 0
M  V30 2106 C 214.61 -2.51582 2.30042 0
M  V30 2107 H 215.803 -0.805971 2.88867 0
M  V30 2108 H 213.356 -0.383801 1.51515 0
M  V30 2109 H 214.091 -2.91632 1.41849 0
M  V30 2110 H 213.876 -2.38569 3.11171 0
M  V30 2111 H 215.366 -3.24792 2.62488 0
M  V30 2112 N 215.803 -1.52179 -0.40978 0
M  V30 2113 C 217.052 -1.65434 -1.15388 0
M  V30 2114 C 217.365 -0.390056 -1.91671 0
M  V30 2115 O 218.571 -0.402399 -2.68501 0
M  V30 2116 C 217.027 -2.92279 -2.10003 0
M  V30 2117 C 216.635 -4.25813 -1.39239 0
M  V30 2118 C 218.379 -3.14897 -2.84675 0
M  V30 2119 C 216.286 -5.43782 -2.32498 0
M  V30 2120 H 215.216 -0.616267 -0.434432 0
M  V30 2121 H 217.867 -1.78666 -0.418401 0
M  V30 2122 H 216.249 -2.72744 -2.871 0
M  V30 2123 H 217.423 -4.55828 -0.675099 0
M  V30 2124 H 215.738 -4.09292 -0.766097 0
M  V30 2125 H 218.335 -4.0021 -3.54593 0
M  V30 2126 H 218.678 -2.29103 -3.47588 0
M  V30 2127 H 219.211 -3.34901 -2.14677 0
M  V30 2128 H 215.95 -6.3192 -1.74233 0
M  V30 2129 H 215.47 -5.18106 -3.02201 0
M  V30 2130 H 217.149 -5.76834 -2.93038 0
M  V30 2131 N 217.281 0.66697 -1.42791 0
M  V30 2132 C 218.527 1.4291 -1.43891 0
M  V30 2133 C 218.86 1.94114 -0.0578972 0
M  V30 2134 O 218.135 1.71414 0.91911 0
M  V30 2135 C 218.418 2.62049 -2.46987 0
M  V30 2136 C 218.271 2.16426 -3.94309 0
M  V30 2137 C 219.59 3.64266 -2.46978 0
M  V30 2138 H 216.709 0.518306 -0.523954 0
M  V30 2139 H 219.351 0.757321 -1.74255 0
M  V30 2140 H 217.501 3.19361 -2.21225 0
M  V30 2141 H 219.173 1.64221 -4.31079 0
M  V30 2142 H 217.416 1.47925 -4.078 0
M  V30 2143 H 218.087 3.02038 -4.62036 0
M  V30 2144 H 220.563 3.16686 -2.69906 0
M  V30 2145 H 219.439 4.45196 -3.21079 0
M  V30 2146 H 219.7 4.15927 -1.49857 0
M  V30 2147 N 218.759 1.29093 0.90403 0
M  V30 2148 C 219.987 1.19689 1.68766 0
M  V30 2149 C 220.402 -0.243113 1.87228 0
M  V30 2150 O 219.759 -1.16326 1.40621 0
M  V30 2151 C 219.81 1.90144 3.07453 0
M  V30 2152 O 219.531 3.2852 2.89838 0
M  V30 2153 C 221.032 1.87162 4.01852 0
M  V30 2154 H 218.252 0.415035 0.527244 0
M  V30 2155 H 220.796 1.7039 1.13082 0
M  V30 2156 H 218.951 1.43289 3.59926 0
M  V30 2157 H 219.365 3.63944 3.77684 0
M  V30 2158 H 220.839 2.41032 4.96596 0
M  V30 2159 H 221.316 0.84617 4.30972 0
M  V30 2160 H 221.922 2.33741 3.5531 0
M  V30 2161 N 220.237 -1.11381 1.11499 0
M  V30 2162 C 221.648 -1.6465 0.880191 0
M  V30 2163 C 221.999 -1.87199 -0.587434 0
M  V30 2164 O 221.124 -1.60667 -1.44966 0
M  V30 2165 C 221.719 -2.99105 1.59128 0
M  V30 2166 C 220.278 -3.49279 1.40289 0
M  V30 2167 C 219.425 -2.24077 1.63354 0
M  V30 2168 H 222.376 -0.950123 1.27116 0
M  V30 2169 H 222.397 -3.66107 1.03664 0
M  V30 2170 H 221.909 -2.82661 2.65941 0
M  V30 2171 H 220.01 -3.70887 0.356888 0
M  V30 2172 H 220.123 -4.2803 2.15238 0
M  V30 2173 H 218.487 -2.31733 1.05698 0
M  V30 2174 H 219.27 -2.10175 2.71443 0
M  V30 2175 N 221.715 -0.905404 -1.28997 0
M  V30 2176 C 222.662 -0.385892 -2.27551 0
M  V30 2177 C 223.632 0.535113 -1.57244 0
M  V30 2178 O 224.817 0.459119 -1.85194 0
M  V30 2179 C 221.957 0.375461 -3.43051 0
M  V30 2180 C 221.07 -0.577092 -4.28128 0
M  V30 2181 C 220.205 0.201879 -5.30816 0
M  V30 2182 C 219.244 -0.744829 -6.07551 0
M  V30 2183 N 218.381 9.42587e-05 -7.021 0
M  V30 2184 H 223.221 -1.23139 -2.71368 0
M  V30 2185 H 220.758 -0.618542 -1.33463 0
M  V30 2186 H 222.716 0.832992 -4.088 0
M  V30 2187 H 221.346 1.18537 -3.00248 0
M  V30 2188 H 220.398 -1.15315 -3.62501 0
M  V30 2189 H 221.71 -1.30152 -4.8152 0
M  V30 2190 H 220.864 0.720351 -6.02408 0
M  V30 2191 H 219.603 0.959413 -4.7817 0
M  V30 2192 H 218.608 -1.27475 -5.34818 0
M  V30 2193 H 219.833 -1.50178 -6.62286 0
M  V30 2194 H 217.779 0.739791 -6.51815 0
M  V30 2195 H 217.696 -0.664321 -7.53076 0
M  V30 2196 H 218.964 0.498644 -7.77903 0
M  V30 2197 N 223.193 1.4272 -0.668489 0
M  V30 2198 C 224.609 1.55992 -0.33745 0
M  V30 2199 C 224.809 1.64933 1.15756 0
M  V30 2200 O 223.865 1.61278 1.94282 0
M  V30 2201 C 225.178 2.81314 -1.06222 0
M  V30 2202 C 226.726 2.95078 -1.04394 0
M  V30 2203 C 227.201 4.23252 -1.74991 0
M  V30 2204 N 228.692 4.3015 -1.71829 0
M  V30 2205 C 229.427 5.28127 -2.23315 0
M  V30 2206 N 228.923 6.32293 -2.83156 0
M  V30 2207 N 230.716 5.19882 -2.13726 0
M  V30 2208 H 222.867 1.3516 -1.63846 0
M  V30 2209 H 225.13 0.650174 -0.689912 0
M  V30 2210 H 224.836 2.80823 -2.11734 0
M  V30 2211 H 224.71 3.72012 -0.62344 0
M  V30 2212 H 227.097 2.951 0.0028244 0
M  V30 2213 H 227.178 2.05627 -1.52155 0
M  V30 2214 H 226.822 4.2399 -2.79633 0
M  V30 2215 H 226.752 5.11626 -1.24685 0
M  V30 2216 H 229.243 3.55499 -1.28175 0
M  V30 2217 H 229.556 7.03398 -3.20079 0
M  V30 2218 H 227.901 6.32873 -2.87223 0
M  V30 2219 H 231.092 4.37423 -1.66669 0
M  V30 2220 H 231.265 5.96077 -2.54158 0
M  V30 2221 N 224.671 0.411399 1.52136 0
M  V30 2222 C 225.948 -0.222308 1.94333 0
M  V30 2223 C 226.328 -1.6242 1.34844 0
M  V30 2224 O 225.676 -2.22384 0.525145 0
M  V30 2225 C 225.886 -0.226345 3.48265 0
M  V30 2226 C 227.234 -0.444592 4.22266 0
M  V30 2227 O 228.258 -0.305602 3.54887 0
M  V30 2228 O 227.117 -0.718749 5.41753 0
M  V30 2229 H 224.211 -0.143907 0.814383 0
M  V30 2230 H 226.757 0.467506 1.63133 0
M  V30 2231 H 225.529 0.75475 3.83952 0
M  V30 2232 H 225.152 -0.960163 3.85832 0
M  V30 2233 N 226.149 -1.5696 0.141893 0
M  V30 2234 C 227.059 -2.20066 -0.812905 0
M  V30 2235 C 228.075 -1.18344 -1.27557 0
M  V30 2236 O 229.251 -1.50902 -1.33381 0
M  V30 2237 C 226.316 -2.80583 -2.03652 0
M  V30 2238 C 225.377 -3.97414 -1.62359 0
M  V30 2239 C 224.61 -4.55036 -2.78887 0
M  V30 2240 O 224.833 -4.11538 -3.94959 0
M  V30 2241 O 223.767 -5.45376 -2.54653 0
M  V30 2242 H 227.593 -3.02157 -0.305746 0
M  V30 2243 H 225.178 -1.49159 -0.0848799 0
M  V30 2244 H 227.06 -3.19067 -2.75272 0
M  V30 2245 H 225.735 -2.01508 -2.5333 0
M  V30 2246 H 224.642 -3.63656 -0.877775 0
M  V30 2247 H 225.975 -4.77994 -1.17401 0
M  V30 2248 N 227.627 0.131896 -1.57047 0
M  V30 2249 C 228.59 1.14638 -1.98471 0
M  V30 2250 C 229.59 1.35029 -0.873148 0
M  V30 2251 O 230.78 1.31764 -1.13946 0
M  V30 2252 C 227.912 2.50358 -2.31373 0
M  V30 2253 H 229.105 0.79064 -2.8929 0
M  V30 2254 H 226.658 0.375761 -1.51716 0
M  V30 2255 H 227.393 2.90876 -1.43393 0
M  V30 2256 H 227.178 2.36915 -3.12432 0
M  V30 2257 H 228.668 3.23395 -2.64207 0
M  V30 2258 N 229.106 1.52395 0.401703 0
M  V30 2259 C 230.352 1.68019 1.14635 0
M  V30 2260 C 230.707 0.408722 1.88009 0
M  V30 2261 O 230 -0.597133 1.82057 0
M  V30 2262 C 230.194 2.84578 2.16217 0
M  V30 2263 C 230.023 4.22938 1.5282 0
M  V30 2264 C 228.793 4.88352 1.29772 0
M  V30 2265 C 230.991 5.04778 0.985094 0
M  V30 2266 N 228.973 6.10726 0.623455 0
M  V30 2267 C 230.344 6.1845 0.438172 0
M  V30 2268 C 232.399 4.90057 0.880275 0
M  V30 2269 C 231.102 7.19013 -0.203306 0
M  V30 2270 C 233.128 5.9086 0.252639 0
M  V30 2271 C 232.49 7.03829 -0.283573 0
M  V30 2272 H 228.589 0.668413 0.405892 0
M  V30 2273 H 231.173 1.89717 0.437674 0
M  V30 2274 H 229.344 2.64483 2.84435 0
M  V30 2275 H 231.076 2.89202 2.83098 0
M  V30 2276 H 227.831 4.46846 1.56926 0
M  V30 2277 H 228.255 6.76323 0.302733 0
M  V30 2278 H 232.897 4.02938 1.28065 0
M  V30 2279 H 230.615 8.05751 -0.615726 0
M  V30 2280 H 234.201 5.81543 0.172954 0
M  V30 2281 H 233.081 7.80493 -0.761575 0
M  V30 2282 N 230.584 -0.659388 1.43143 0
M  V30 2283 C 231.824 -1.43121 1.45931 0
M  V30 2284 C 232.188 -1.91838 0.0789298 0
M  V30 2285 O 233.389 -2.68794 -0.018491 0
M  V30 2286 C 231.66 -2.58534 2.46769 0
M  V30 2287 S 233.219 -3.47154 2.68384 0
M  V30 2288 H 230.037 -0.488624 0.516496 0
M  V30 2289 H 232.639 -0.766128 1.79863 0
M  V30 2290 H 231.343 -2.21007 3.45809 0
M  V30 2291 H 230.874 -3.29898 2.14315 0
M  V30 2292 H 232.889 -4.55051 1.97845 0
M  V30 2293 N 232.062 -1.29571 -0.897171 0
M  V30 2294 C 233.025 -1.14913 -1.98312 0
M  V30 2295 C 234.025 -0.0838629 -1.60581 0
M  V30 2296 O 235.215 -0.331006 -1.71026 0
M  V30 2297 C 232.347 -0.757835 -3.3237 0
M  V30 2298 H 233.54 -2.11377 -2.12743 0
M  V30 2299 H 231.093 -1.12793 -1.08201 0
M  V30 2300 H 231.828 0.206837 -3.2364 0
M  V30 2301 H 231.613 -1.52755 -3.61121 0
M  V30 2302 H 233.103 -0.678408 -4.12053 0
M  V30 2303 N 233.54 1.10788 -1.12088 0
M  V30 2304 C 234.768 1.86461 -0.896651 0
M  V30 2305 C 235.183 1.80492 0.553912 0
M  V30 2306 O 234.54 1.19102 1.38278 0
M  V30 2307 C 234.591 3.35006 -1.35843 0
M  V30 2308 O 234.312 3.40866 -2.75213 0
M  V30 2309 C 235.813 4.27565 -1.1706 0
M  V30 2310 H 233.033 0.589425 -0.320654 0
M  V30 2311 H 235.577 1.40076 -1.48993 0
M  V30 2312 H 233.732 3.7887 -0.808458 0
M  V30 2313 H 234.146 4.33411 -2.9539 0
M  V30 2314 H 235.62 5.30007 -1.54263 0
M  V30 2315 H 236.097 4.3906 -0.110814 0
M  V30 2316 H 236.703 3.89501 -1.70789 0
M  V30 2317 N 235.018 0.912232 1.28515 0
M  V30 2318 C 236.258 0.551677 1.96814 0
M  V30 2319 C 236.622 -0.887825 1.7024 0
M  V30 2320 O 237.823 -1.35588 2.32098 0
M  V30 2321 C 236.094 0.850555 3.47132 0
M  V30 2322 S 237.653 0.59619 4.34731 0
M  V30 2323 H 234.471 0.204191 0.681049 0
M  V30 2324 H 237.073 1.17736 1.56072 0
M  V30 2325 H 235.777 1.8962 3.63968 0
M  V30 2326 H 235.308 0.213471 3.9282 0
M  V30 2327 H 237.323 -0.553154 4.93107 0
M  V30 2328 N 236.496 -1.42363 0.676048 0
M  V30 2329 C 237.446 -2.27987 -0.0242903 0
M  V30 2330 C 238.43 -1.41153 -0.772319 0
M  V30 2331 O 239.622 -1.64592 -0.651025 0
M  V30 2332 C 236.751 -3.29195 -0.973953 0
M  V30 2333 C 235.837 -4.23512 -0.223202 0
M  V30 2334 N 236.228 -4.99865 0.772589 0
M  V30 2335 C 234.526 -4.43606 -0.461469 0
M  V30 2336 C 235.227 -5.68757 1.22027 0
M  V30 2337 N 234.203 -5.40811 0.549975 0
M  V30 2338 H 238.005 -2.84445 0.73949 0
M  V30 2339 H 235.519 -1.54341 0.50522 0
M  V30 2340 H 237.516 -3.89339 -1.49067 0
M  V30 2341 H 236.176 -2.74298 -1.73755 0
M  V30 2342 H 237.187 -5.04921 1.15217 0
M  V30 2343 H 233.864 -3.99749 -1.20446 0
M  V30 2344 H 235.254 -6.40007 2.0455 0
M  V30 2345 N 237.974 -0.419461 -1.51915 0
M  V30 2346 C 238.922 0.415502 -2.28859 0
M  V30 2347 C 239.916 1.03674 -1.3397 0
M  V30 2348 O 241.122 0.973757 -1.51387 0
M  V30 2349 H 237.497 0.152786 -0.736315 0
M  V30 2350 H 239.468 -0.254531 -2.97312 0
M  V30 2351 C 238.217 1.51425 -3.12995 0
M  V30 2352 H 237.54 1.04556 -3.85886 0
M  V30 2353 H 238.98 2.07208 -3.6992 0
M  V30 2354 C 237.439 2.48745 -2.27217 0
M  V30 2355 O 237.969 3.52871 -1.9195 0
M  V30 2356 N 236.175 2.19202 -1.90785 0
M  V30 2357 H 235.722 1.34556 -2.19664 0
M  V30 2358 H 235.68 2.84561 -1.33687 0
M  V30 2359 N 239.452 1.56882 -0.150215 0
M  V30 2360 C 240.701 1.95403 0.500071 0
M  V30 2361 C 241.014 1.03777 1.658 0
M  V30 2362 O 242.22 1.31889 2.37313 0
M  V30 2363 C 240.676 3.4738 0.941018 0
M  V30 2364 C 240.284 4.47596 -0.190158 0
M  V30 2365 C 242.028 3.9476 1.56091 0
M  V30 2366 C 239.935 5.90787 0.269237 0
M  V30 2367 H 238.865 0.729515 0.190588 0
M  V30 2368 H 241.516 1.81988 -0.235074 0
M  V30 2369 H 239.898 3.56138 1.73152 0
M  V30 2370 H 241.072 4.50536 -0.967157 0
M  V30 2371 H 239.387 4.10151 -0.718666 0
M  V30 2372 H 241.984 4.99181 1.9163 0
M  V30 2373 H 242.327 3.36494 2.45107 0
M  V30 2374 H 242.86 3.88932 0.835249 0
M  V30 2375 H 239.599 6.52879 -0.585621 0
M  V30 2376 H 239.119 5.912 1.01204 0
M  V30 2377 H 240.798 6.42979 0.720176 0
M  V30 2378 N 240.93 -0.123565 1.57115 0
M  V30 2379 C 242.158 -0.846461 1.88793 0
M  V30 2380 C 242.573 -1.73652 0.740976 0
M  V30 2381 O 241.93 -1.80207 -0.288393 0
M  V30 2382 C 241.981 -1.6837 3.19897 0
M  V30 2383 O 241.702 -0.829477 4.30176 0
M  V30 2384 C 243.203 -2.51214 3.65248 0
M  V30 2385 H 240.423 -0.243573 0.625231 0
M  V30 2386 H 242.967 -0.109324 2.04208 0
M  V30 2387 H 241.122 -2.37364 3.06165 0
M  V30 2388 H 241.536 -1.40651 5.0529 0
M  V30 2389 H 243.01 -3.05497 4.59756 0
M  V30 2390 H 243.487 -3.28359 2.9168 0
M  V30 2391 H 244.093 -1.8747 3.81752 0
M  V30 2392 N 242.408 -1.52605 -0.393616 0
M  V30 2393 C 243.819 -1.59417 -0.971761 0
M  V30 2394 C 244.17 -0.444173 -1.91106 0
M  V30 2395 O 243.295 0.433382 -2.12016 0
M  V30 2396 C 243.89 -2.88936 -1.76921 0
M  V30 2397 C 242.449 -2.98175 -2.29714 0
M  V30 2398 C 241.596 -2.54491 -1.10135 0
M  V30 2399 H 244.547 -1.57751 -0.173317 0
M  V30 2400 H 244.568 -2.75163 -2.62804 0
M  V30 2401 H 244.08 -3.72616 -1.08532 0
M  V30 2402 H 242.181 -2.19024 -3.01429 0
M  V30 2403 H 242.294 -4.02726 -2.59517 0
M  V30 2404 H 240.658 -2.08702 -1.45999 0
M  V30 2405 H 241.441 -3.4056 -0.432874 0
M  V30 2406 N 243.887 0.651787 -1.4349 0
M  V30 2407 C 245.112 1.44434 -1.48841 0
M  V30 2408 C 245.537 1.8779 -0.107955 0
M  V30 2409 O 244.895 1.57464 0.898602 0
M  V30 2410 C 244.943 2.65458 -2.44059 0
M  V30 2411 O 244.047 3.64566 -1.92784 0
M  V30 2412 H 243.388 0.433005 -0.503391 0
M  V30 2413 H 245.918 0.797451 -1.88419 0
M  V30 2414 H 245.928 3.13255 -2.6141 0
M  V30 2415 H 244.603 2.33244 -3.4434 0
M  V30 2416 H 243.18 3.23716 -1.851 0
M  V30 2417 N 245.365 1.30045 0.890287 0
M  V30 2418 C 246.298 1.10301 1.99772 0
M  V30 2419 C 247.276 0.0121631 1.62595 0
M  V30 2420 O 248.46 0.16469 1.87779 0
M  V30 2421 C 245.587 0.681125 3.31781 0
M  V30 2422 C 244.633 1.77206 3.87944 0
M  V30 2423 S 245.466 3.37335 4.15891 0
M  V30 2424 C 246.622 2.97036 5.50927 0
M  V30 2425 H 246.855 2.04057 2.16213 0
M  V30 2426 H 244.388 1.14299 1.03804 0
M  V30 2427 H 246.346 0.444439 4.08087 0
M  V30 2428 H 245.007 -0.236981 3.13205 0
M  V30 2429 H 244.2 1.42903 4.83316 0
M  V30 2430 H 243.802 1.96275 3.18358 0
M  V30 2431 H 246.094 2.44666 6.31779 0
M  V30 2432 H 247.037 3.91296 5.90164 0
M  V30 2433 H 247.445 2.35057 5.13233 0
M  V30 2434 N 246.843 -1.10192 1.12674 0
M  V30 2435 C 248.071 -1.85983 0.906527 0
M  V30 2436 C 248.486 -1.80783 -0.544333 0
M  V30 2437 O 247.843 -1.19834 -1.37645 0
M  V30 2438 C 247.894 -3.34281 1.37618 0
M  V30 2439 O 247.615 -3.39401 2.77017 0
M  V30 2440 C 249.116 -4.26938 1.19325 0
M  V30 2441 H 246.336 -0.587716 0.323775 0
M  V30 2442 H 248.88 -1.39284 1.49734 0
M  V30 2443 H 247.035 -3.78436 0.828539 0
M  V30 2444 H 247.449 -4.31838 2.97684 0
M  V30 2445 H 248.923 -5.29181 1.57071 0
M  V30 2446 H 249.4 -4.38995 0.134097 0
M  V30 2447 H 250.006 -3.8859 1.72852 0
M  V30 2448 N 248.321 -0.919034 -1.28029 0
M  V30 2449 C 249.732 -0.600735 -1.76771 0
M  V30 2450 C 250.083 0.884024 -1.75156 0
M  V30 2451 O 249.208 1.69163 -1.34956 0
M  V30 2452 C 249.803 -1.08372 -3.21 0
M  V30 2453 C 248.362 -0.816248 -3.67443 0
M  V30 2454 C 247.509 -1.24742 -2.47658 0
M  V30 2455 H 250.46 -1.09974 -1.14418 0
M  V30 2456 H 250.481 -0.427512 -3.78091 0
M  V30 2457 H 249.993 -2.16437 -3.22144 0
M  V30 2458 H 248.094 0.250968 -3.71754 0
M  V30 2459 H 248.207 -1.4277 -4.57333 0
M  V30 2460 H 246.571 -0.666083 -2.45836 0
M  V30 2461 H 247.354 -2.33653 -2.51518 0
M  V30 2462 N 249.799 1.42003 -0.683588 0
M  V30 2463 C 250.709 2.34597 -0.0109075 0
M  V30 2464 C 251.725 1.55576 0.779245 0
M  V30 2465 O 252.901 1.88107 0.719555 0
M  V30 2466 C 249.966 3.34199 0.922588 0
M  V30 2467 C 249.027 4.29115 0.125984 0
M  V30 2468 C 248.26 5.23959 1.01502 0
M  V30 2469 O 248.483 5.23952 2.25456 0
M  V30 2470 O 247.417 6.00053 0.47111 0
M  V30 2471 H 251.243 2.93675 -0.773853 0
M  V30 2472 H 248.828 1.42654 -0.443861 0
M  V30 2473 H 250.71 3.95365 1.45823 0
M  V30 2474 H 249.385 2.77582 1.66523 0
M  V30 2475 H 248.292 3.71335 -0.453969 0
M  V30 2476 H 249.625 4.88798 -0.577736 0
M  V30 2477 N 251.277 0.427512 1.51691 0
M  V30 2478 C 252.209 -0.424521 2.25234 0
M  V30 2479 C 253.222 -0.994671 1.2888 0
M  V30 2480 O 254.411 -0.890483 1.54702 0
M  V30 2481 C 251.511 -1.60479 2.98496 0
M  V30 2482 C 250.684 -1.15527 4.21868 0
M  V30 2483 C 249.743 -2.20454 4.77793 0
M  V30 2484 O 248.769 -1.8029 5.39893 0
M  V30 2485 N 249.971 -3.52831 4.60967 0
M  V30 2486 H 252.736 0.205749 2.98993 0
M  V30 2487 H 250.297 0.255867 1.59865 0
M  V30 2488 H 252.289 -2.30276 3.32799 0
M  V30 2489 H 250.859 -2.14061 2.27809 0
M  V30 2490 H 250.079 -0.284736 3.9317 0
M  V30 2491 H 251.367 -0.832173 5.01949 0
M  V30 2492 H 250.765 -3.88201 4.11481 0
M  V30 2493 H 249.322 -4.18551 4.99658 0
M  V30 2494 N 252.755 -1.56801 0.158532 0
M  V30 2495 C 253.688 -2.13148 -0.815065 0
M  V30 2496 C 254.666 -1.0581 -1.23462 0
M  V30 2497 O 255.85 -1.3371 -1.32868 0
M  V30 2498 C 252.977 -2.6606 -2.09594 0
M  V30 2499 C 252.023 -3.85651 -1.82141 0
M  V30 2500 S 252.856 -5.26041 -1.00207 0
M  V30 2501 C 254.012 -5.8235 -2.29389 0
M  V30 2502 H 254.245 -2.95396 -0.335937 0
M  V30 2503 H 251.778 -1.54299 -0.0559391 0
M  V30 2504 H 253.736 -2.97195 -2.8317 0
M  V30 2505 H 252.397 -1.83921 -2.54621 0
M  V30 2506 H 251.59 -4.20958 -2.77147 0
M  V30 2507 H 251.192 -3.55338 -1.16667 0
M  V30 2508 H 253.484 -5.94485 -3.24952 0
M  V30 2509 H 254.427 -6.79688 -1.9857 0
M  V30 2510 H 254.835 -5.10675 -2.40564 0
M  V30 2511 N 254.233 0.115231 -1.57178 0
M  V30 2512 C 255.165 1.16694 -1.97269 0
M  V30 2513 C 256.178 1.37445 -0.872502 0
M  V30 2514 O 257.367 1.36454 -1.15077 0
M  V30 2515 C 254.467 2.52627 -2.25905 0
M  V30 2516 C 253.64 2.52427 -3.57211 0
M  V30 2517 C 252.699 3.70134 -3.74016 0
M  V30 2518 O 251.725 3.53546 -4.46087 0
M  V30 2519 N 252.927 4.88844 -3.13068 0
M  V30 2520 H 255.692 0.82588 -2.88096 0
M  V30 2521 H 253.253 0.304461 -1.59011 0
M  V30 2522 H 255.245 3.29937 -2.34359 0
M  V30 2523 H 253.815 2.789 -1.41186 0
M  V30 2524 H 253.035 1.60805 -3.5991 0
M  V30 2525 H 254.323 2.49353 -4.43509 0
M  V30 2526 H 253.721 5.05225 -2.54489 0
M  V30 2527 H 252.278 5.63817 -3.27037 0
M  V30 2528 N 255.711 1.52812 0.385517 0
M  V30 2529 C 256.658 1.77838 1.47113 0
M  V30 2530 C 257.628 0.621757 1.54024 0
M  V30 2531 O 258.813 0.861846 1.70226 0
M  V30 2532 C 255.953 1.95618 2.84302 0
M  V30 2533 C 255.066 3.23316 2.86515 0
M  V30 2534 C 254.201 3.31394 4.15152 0
M  V30 2535 C 253.24 4.53201 4.1143 0
M  V30 2536 N 252.377 4.58542 5.3168 0
M  V30 2537 H 257.217 2.70482 1.25073 0
M  V30 2538 H 254.754 1.34006 0.606692 0
M  V30 2539 H 256.712 2.03912 3.63972 0
M  V30 2540 H 255.342 1.06331 3.04784 0
M  V30 2541 H 254.394 3.24076 1.99195 0
M  V30 2542 H 255.706 4.13045 2.79634 0
M  V30 2543 H 254.86 3.3889 5.03228 0
M  V30 2544 H 253.599 2.39645 4.24761 0
M  V30 2545 H 252.604 4.45827 3.21742 0
M  V30 2546 H 253.829 5.46271 4.03442 0
M  V30 2547 H 251.775 3.69686 5.41912 0
M  V30 2548 H 251.692 5.42148 5.26889 0
M  V30 2549 H 252.96 4.70296 6.21644 0
M  V30 2550 N 257.189 -0.644168 1.43834 0
M  V30 2551 C 258.437 -1.40117 1.45642 0
M  V30 2552 C 258.758 -1.94814 0.0852413 0
M  V30 2553 O 258.028 -1.74988 -0.880688 0
M  V30 2554 H 256.608 -0.52005 0.536243 0
M  V30 2555 H 259.27 -0.7591 1.7951 0
M  V30 2556 H 258.366 -2.23902 2.17427 0
M  V30 2557 N 258.668 -1.30515 -0.883378 0
M  V30 2558 C 259.917 -1.18795 -1.63005 0
M  V30 2559 C 260.23 0.255923 -1.93919 0
M  V30 2560 O 261.436 0.494654 -2.66956 0
M  V30 2561 C 259.892 -2.07878 -2.93794 0
M  V30 2562 C 259.5 -3.57184 -2.70414 0
M  V30 2563 C 261.244 -2.04924 -3.71761 0
M  V30 2564 C 259.151 -4.38317 -3.97029 0
M  V30 2565 H 258.081 -0.441031 -0.611562 0
M  V30 2566 H 260.732 -1.55275 -0.977854 0
M  V30 2567 H 259.114 -1.64283 -3.60315 0
M  V30 2568 H 260.288 -4.08937 -2.12384 0
M  V30 2569 H 258.603 -3.61976 -2.0582 0
M  V30 2570 H 261.2 -2.62792 -4.65665 0
M  V30 2571 H 261.543 -1.0331 -4.03277 0
M  V30 2572 H 262.076 -2.46649 -3.12104 0
M  V30 2573 H 258.815 -5.40632 -3.70671 0
M  V30 2574 H 258.335 -3.91326 -4.54559 0
M  V30 2575 H 260.014 -4.49834 -4.65036 0
M  V30 2576 N 260.146 1.09593 -1.13257 0
M  V30 2577 C 261.094 2.18271 -0.803783 0
M  V30 2578 C 262.088 1.68054 0.213148 0
M  V30 2579 O 263.294 1.79862 0.0704699 0
M  V30 2580 H 259.669 0.711949 -0.242143 0
M  V30 2581 H 261.64 2.43235 -1.72856 0
M  V30 2582 C 260.389 3.46536 -0.28424 0
M  V30 2583 H 259.712 3.85545 -1.05807 0
M  V30 2584 H 261.152 4.23899 -0.0925945 0
M  V30 2585 C 259.611 3.22036 0.989684 0
M  V30 2586 O 260.141 3.44509 2.06584 0
M  V30 2587 N 258.347 2.7565 0.920086 0
M  V30 2588 H 257.894 2.57562 0.0442019 0
M  V30 2589 H 257.852 2.59635 1.77306 0
M  V30 2590 N 261.624 0.925811 1.2754 0
M  V30 2591 C 262.872 0.564138 1.94067 0
M  V30 2592 C 263.193 -0.897188 1.73134 0
M  V30 2593 O 262.463 -1.63573 1.07799 0
M  V30 2594 H 261.043 0.205645 0.718136 0
M  V30 2595 H 263.705 1.1778 1.55287 0
M  V30 2596 H 262.801 0.76881 3.02483 0
M  V30 2597 N 263.102 -1.41638 0.69111 0
M  V30 2598 C 264.33 -2.05628 0.22909 0
M  V30 2599 C 264.745 -1.51992 -1.11999 0
M  V30 2600 O 264.102 -0.666322 -1.69901 0
M  V30 2601 C 264.153 -3.61084 0.173283 0
M  V30 2602 O 263.874 -4.12735 1.46907 0
M  V30 2603 C 265.375 -4.42213 -0.310266 0
M  V30 2604 H 262.595 -0.662327 0.107534 0
M  V30 2605 H 265.139 -1.81489 0.942438 0
M  V30 2606 H 263.294 -3.84278 -0.490858 0
M  V30 2607 H 263.708 -5.06743 1.35322 0
M  V30 2608 H 265.182 -5.51194 -0.298196 0
M  V30 2609 H 265.659 -4.1799 -1.34838 0
M  V30 2610 H 266.265 -4.24074 0.322716 0
M  V30 2611 N 264.58 -0.43555 -1.51462 0
M  V30 2612 C 265.51 0.367376 -2.30592 0
M  V30 2613 C 266.491 1.02263 -1.35928 0
M  V30 2614 O 267.676 1.02661 -1.64847 0
M  V30 2615 C 264.806 1.46983 -3.14664 0
M  V30 2616 C 263.76 0.938161 -4.17591 0
M  V30 2617 C 263.086 2.13622 -4.90173 0
M  V30 2618 C 264.386 -0.0261621 -5.22293 0
M  V30 2619 H 266.08 -0.292969 -2.97963 0
M  V30 2620 H 263.626 -0.14234 -1.43295 0
M  V30 2621 H 265.579 2.03873 -3.688 0
M  V30 2622 H 264.303 2.15843 -2.4511 0
M  V30 2623 H 262.962 0.391481 -3.64504 0
M  V30 2624 H 262.61 2.81098 -4.17124 0
M  V30 2625 H 262.31 1.78688 -5.59772 0
M  V30 2626 H 263.834 2.7107 -5.47132 0
M  V30 2627 H 265.248 0.452384 -5.71512 0
M  V30 2628 H 263.645 -0.287992 -5.99409 0
M  V30 2629 H 264.715 -0.963391 -4.75233 0
M  V30 2630 N 266.058 1.56714 -0.166846 0
M  V30 2631 C 266.988 2.20754 0.760913 0
M  V30 2632 C 267.969 1.16178 1.24244 0
M  V30 2633 O 269.154 1.44592 1.29641 0
M  V30 2634 C 266.284 2.84478 1.99223 0
M  V30 2635 C 265.238 3.95053 1.64672 0
M  V30 2636 C 264.564 4.45805 2.95232 0
M  V30 2637 C 265.864 5.14865 0.878155 0
M  V30 2638 H 267.558 2.98537 0.22713 0
M  V30 2639 H 265.104 1.43596 0.107805 0
M  V30 2640 H 267.057 3.27951 2.64624 0
M  V30 2641 H 265.781 2.04056 2.55007 0
M  V30 2642 H 264.44 3.52228 1.01641 0
M  V30 2643 H 264.088 3.62181 3.49047 0
M  V30 2644 H 263.788 5.204 2.7287 0
M  V30 2645 H 265.312 4.91962 3.6167 0
M  V30 2646 H 266.726 5.55059 1.43466 0
M  V30 2647 H 265.123 5.95348 0.753738 0
M  V30 2648 H 266.193 4.84735 -0.126377 0
M  V30 2649 N 267.536 -0.106894 1.57237 0
M  V30 2650 C 268.947 -0.662723 1.74542 0
M  V30 2651 C 269.298 -1.7971 0.787319 0
M  V30 2652 O 268.423 -2.16368 -0.0369636 0
M  V30 2653 C 269.018 -1.20896 3.16496 0
M  V30 2654 C 267.577 -1.71096 3.35266 0
M  V30 2655 C 266.724 -0.615642 2.7038 0
M  V30 2656 H 269.675 0.119106 1.58252 0
M  V30 2657 H 269.696 -2.07847 3.18716 0
M  V30 2658 H 269.208 -0.383122 3.86204 0
M  V30 2659 H 267.309 -2.56119 2.70618 0
M  V30 2660 H 267.422 -1.81208 4.43509 0
M  V30 2661 H 265.786 -1.05222 2.31949 0
M  V30 2662 H 266.569 0.199419 3.4272 0
M  V30 2663 N 269.014 -1.53014 -0.377408 0
M  V30 2664 C 270.262 -1.6829 -1.11906 0
M  V30 2665 C 270.583 -0.431206 -1.90173 0
M  V30 2666 O 269.853 0.554595 -1.87886 0
M  V30 2667 H 268.433 -0.620371 -0.416112 0
M  V30 2668 H 271.095 -1.90167 -0.426893 0
M  V30 2669 H 270.191 -2.53862 -1.8155 0
M  V30 2670 N 270.492 0.636531 -1.44174 0
M  V30 2671 C 271.769 1.39463 -1.37148 0
M  V30 2672 C 272.149 2.11082 -0.027507 0
M  V30 2673 O 271.497 2.05954 0.989716 0
M  V30 2674 C 271.707 2.36552 -2.56601 0
M  V30 2675 C 273.055 3.00048 -3.00427 0
M  V30 2676 O 274.079 2.46878 -2.56767 0
M  V30 2677 O 272.938 3.96488 -3.76111 0
M  V30 2678 H 270.032 0.623903 -0.542839 0
M  V30 2679 H 272.578 0.662039 -1.56253 0
M  V30 2680 H 271.35 1.82692 -3.46034 0
M  V30 2681 H 270.973 3.17236 -2.39681 0
M  V30 2682 N 271.97 1.30982 0.876444 0
M  V30 2683 C 272.918 1.18006 2.00443 0
M  V30 2684 C 273.912 0.0898871 1.69161 0
M  V30 2685 O 275.118 0.251333 1.78237 0
M  V30 2686 H 271.493 0.365196 0.65737 0
M  V30 2687 H 273.464 2.13453 2.0852 0
M  V30 2688 C 272.213 0.897521 3.35916 0
M  V30 2689 H 271.536 1.7285 3.60504 0
M  V30 2690 H 272.976 0.846874 4.15456 0
M  V30 2691 C 271.435 -0.399674 3.34521 0
M  V30 2692 O 271.965 -1.41852 3.7582 0
M  V30 2693 N 270.171 -0.413893 2.87637 0
M  V30 2694 H 269.718 0.41571 2.54224 0
M  V30 2695 H 269.676 -1.28175 2.87086 0
M  V30 2696 N 273.449 -1.08991 1.13837 0
M  V30 2697 C 274.359 -2.19301 0.833333 0
M  V30 2698 C 275.375 -1.73026 -0.183847 0
M  V30 2699 O 276.551 -2.01395 -0.0138092 0
M  V30 2700 C 273.616 -3.45323 0.308651 0
M  V30 2701 C 272.677 -4.06255 1.38764 0
M  V30 2702 C 271.91 -5.26262 0.887896 0
M  V30 2703 O 272.133 -5.69747 -0.27287 0
M  V30 2704 O 271.067 -5.78435 1.66421 0
M  V30 2705 H 274.893 -2.47854 1.75506 0
M  V30 2706 H 272.478 -1.18012 0.916166 0
M  V30 2707 H 274.36 -4.21394 0.0216739 0
M  V30 2708 H 273.035 -3.18362 -0.585431 0
M  V30 2709 H 271.942 -3.318 1.72799 0
M  V30 2710 H 273.275 -4.37452 2.25602 0
M  V30 2711 N 274.927 -0.932562 -1.27047 0
M  V30 2712 C 275.89 -0.440064 -2.24936 0
M  V30 2713 C 276.89 0.444071 -1.54547 0
M  V30 2714 O 278.08 0.244465 -1.72476 0
M  V30 2715 C 275.212 0.36678 -3.38921 0
M  V30 2716 H 276.405 -1.305 -2.70018 0
M  V30 2717 H 273.958 -0.713707 -1.39054 0
M  V30 2718 H 274.693 1.25033 -2.99228 0
M  V30 2719 H 274.478 -0.267204 -3.91188 0
M  V30 2720 H 275.968 0.701567 -4.11665 0
M  V30 2721 N 276.405 1.4127 -0.698611 0
M  V30 2722 C 277.335 2.33447 -0.049629 0
M  V30 2723 C 278.316 1.51982 0.763898 0
M  V30 2724 O 279.501 1.80509 0.716257 0
M  V30 2725 C 276.631 3.35828 0.885267 0
M  V30 2726 C 275.585 4.27627 0.178613 0
M  V30 2727 C 274.911 5.20406 1.22807 0
M  V30 2728 C 276.211 5.13459 -0.956933 0
M  V30 2729 H 277.905 2.87966 -0.81951 0
M  V30 2730 H 275.451 1.38461 -0.395538 0
M  V30 2731 H 277.404 3.9924 1.34854 0
M  V30 2732 H 276.128 2.79666 1.68685 0
M  V30 2733 H 274.787 3.65643 -0.26466 0
M  V30 2734 H 274.435 4.60558 2.02226 0
M  V30 2735 H 274.135 5.82661 0.760239 0
M  V30 2736 H 275.659 5.86695 1.69179 0
M  V30 2737 H 277.073 5.70421 -0.573805 0
M  V30 2738 H 275.47 5.8467 -1.35205 0
M  V30 2739 H 276.54 4.50443 -1.79524 0
M  V30 2740 N 277.883 0.443576 1.51229 0
M  V30 2741 C 278.846 -0.353132 2.26463 0
M  V30 2742 C 279.846 -0.944338 1.3015 0
M  V30 2743 O 281.036 -0.817813 1.5381 0
M  V30 2744 C 278.168 -1.50023 3.06114 0
M  V30 2745 H 279.361 0.3063 2.98332 0
M  V30 2746 H 276.914 0.196902 1.55055 0
M  V30 2747 H 277.649 -2.19553 2.38677 0
M  V30 2748 H 277.434 -1.08241 3.76864 0
M  V30 2749 H 278.924 -2.06296 3.63087 0
M  V30 2750 N 279.361 -1.56624 0.175154 0
M  V30 2751 C 280.324 -2.16934 -0.739738 0
M  V30 2752 C 281.324 -1.11842 -1.15533 0
M  V30 2753 O 282.514 -1.37335 -1.07167 0
M  V30 2754 C 279.646 -2.75531 -2.00738 0
M  V30 2755 H 280.839 -2.99131 -0.214639 0
M  V30 2756 H 278.392 -1.56123 -0.0744197 0
M  V30 2757 H 279.127 -1.97078 -2.57548 0
M  V30 2758 H 278.912 -3.52444 -1.71831 0
M  V30 2759 H 280.402 -3.21904 -2.66021 0
M  V30 2760 N 280.839 0.0985539 -1.57292 0
M  V30 2761 C 281.749 1.13824 -2.05137 0
M  V30 2762 C 282.765 1.44076 -0.975604 0
M  V30 2763 O 283.941 1.54786 -1.28853 0
M  V30 2764 C 281.006 2.43969 -2.46333 0
M  V30 2765 C 280.067 2.2093 -3.68087 0
M  V30 2766 C 279.3 3.44869 -4.0731 0
M  V30 2767 O 279.523 4.52972 -3.46659 0
M  V30 2768 O 278.457 3.34661 -5.00285 0
M  V30 2769 H 282.283 0.761881 -2.93988 0
M  V30 2770 H 279.868 0.310818 -1.46131 0
M  V30 2771 H 281.75 3.20609 -2.73473 0
M  V30 2772 H 280.425 2.81038 -1.60621 0
M  V30 2773 H 279.332 1.42081 -3.46069 0
M  V30 2774 H 280.665 1.88755 -4.54568 0
M  V30 2775 N 282.317 1.53212 0.369288 0
M  V30 2776 C 283.545 1.73119 1.13303 0
M  V30 2777 C 283.96 0.458455 1.83149 0
M  V30 2778 O 283.317 -0.568403 1.73423 0
M  V30 2779 C 283.368 2.89413 2.16616 0
M  V30 2780 O 283.089 4.11761 1.49614 0
M  V30 2781 C 284.59 3.21161 3.05566 0
M  V30 2782 H 281.81 0.579107 0.338934 0
M  V30 2783 H 284.354 1.99942 0.429338 0
M  V30 2784 H 282.509 2.64994 2.82589 0
M  V30 2785 H 282.923 4.76858 2.18419 0
M  V30 2786 H 284.397 4.05949 3.74045 0
M  V30 2787 H 284.874 2.36369 3.70171 0
M  V30 2788 H 285.48 3.47492 2.45213 0
M  V30 2789 N 283.795 -0.628877 1.44509 0
M  V30 2790 C 285.041 -1.39045 1.47629 0
M  V30 2791 C 285.374 -1.93892 0.109343 0
M  V30 2792 O 284.649 -1.7379 -0.87334 0
M  V30 2793 C 284.932 -2.55408 2.53848 0
M  V30 2794 C 284.785 -2.05896 3.99909 0
M  V30 2795 C 286.104 -3.5759 2.56549 0
M  V30 2796 H 283.223 -0.504232 0.537512 0
M  V30 2797 H 285.865 -0.710854 1.76201 0
M  V30 2798 H 284.015 -3.13384 2.29615 0
M  V30 2799 H 285.687 -1.52734 4.35282 0
M  V30 2800 H 283.93 -1.37061 4.11578 0
M  V30 2801 H 284.601 -2.89681 4.69882 0
M  V30 2802 H 287.077 -3.09419 2.78207 0
M  V30 2803 H 285.953 -4.36527 3.32769 0
M  V30 2804 H 286.214 -4.11808 1.60832 0
M  V30 2805 N 285.273 -1.31445 -0.869486 0
M  V30 2806 C 286.203 -1.21727 -1.99261 0
M  V30 2807 C 287.184 -0.104359 -1.6978 0
M  V30 2808 O 288.369 -0.289038 -1.92037 0
M  V30 2809 C 285.499 -0.924317 -3.34774 0
M  V30 2810 C 284.453 -1.99685 -3.78563 0
M  V30 2811 C 283.779 -1.55658 -5.11541 0
M  V30 2812 C 285.079 -3.41003 -3.95619 0
M  V30 2813 H 286.773 -2.1569 -2.07649 0
M  V30 2814 H 284.319 -1.03839 -0.997675 0
M  V30 2815 H 286.272 -0.842934 -4.12883 0
M  V30 2816 H 284.996 0.0509793 -3.2656 0
M  V30 2817 H 283.655 -2.06813 -3.02694 0
M  V30 2818 H 283.303 -0.569132 -4.9977 0
M  V30 2819 H 283.003 -2.27409 -5.41811 0
M  V30 2820 H 284.527 -1.48928 -5.92159 0
M  V30 2821 H 285.941 -3.36547 -4.64122 0
M  V30 2822 H 284.338 -4.10975 -4.37286 0
M  V30 2823 H 285.408 -3.81754 -2.98985 0
M  V30 2824 N 286.751 1.08385 -1.14413 0
M  V30 2825 C 287.714 2.13486 -0.834048 0
M  V30 2826 C 288.714 1.59988 0.161418 0
M  V30 2827 O 289.904 1.74071 -0.0669575 0
M  V30 2828 C 287.036 3.4003 -0.243354 0
M  V30 2829 H 288.229 2.42425 -1.7655 0
M  V30 2830 H 285.782 1.24101 -0.950189 0
M  V30 2831 H 286.517 3.16726 0.696807 0
M  V30 2832 H 286.302 3.80157 -0.960367 0
M  V30 2833 H 287.792 4.17577 -0.0436242 0
M  V30 2834 N 288.23 0.939286 1.26551 0
M  V30 2835 C 289.162 0.404704 2.25599 0
M  V30 2836 C 290.175 -0.470983 1.55838 0
M  V30 2837 O 291.364 -0.281734 1.76263 0
M  V30 2838 C 288.464 -0.43764 3.36062 0
M  V30 2839 C 287.637 0.421449 4.35365 0
M  V30 2840 C 286.696 -0.36015 5.24966 0
M  V30 2841 O 285.722 0.236167 5.6871 0
M  V30 2842 N 286.924 -1.65715 5.56344 0
M  V30 2843 H 289.689 1.25618 2.72103 0
M  V30 2844 H 287.25 0.807963 1.40298 0
M  V30 2845 H 289.242 -0.967866 3.92956 0
M  V30 2846 H 287.812 -1.18991 2.89067 0
M  V30 2847 H 287.032 1.1329 3.7757 0
M  V30 2848 H 288.32 1.00835 4.98708 0
M  V30 2849 H 287.718 -2.16378 5.22682 0
M  V30 2850 H 286.275 -2.13366 6.15888 0
M  V30 2851 N 289.708 -1.40897 0.706093 0
M  V30 2852 C 290.655 -2.30751 0.0474474 0
M  V30 2853 C 291.625 -1.47678 -0.76029 0
M  V30 2854 O 292.81 -1.76441 -0.726177 0
M  V30 2855 C 289.95 -3.33815 -0.875309 0
M  V30 2856 C 289.063 -4.31961 -0.0580623 0
M  V30 2857 C 288.198 -5.22093 -0.979425 0
M  V30 2858 C 287.237 -6.11902 -0.155706 0
M  V30 2859 N 286.374 -6.94482 -1.03144 0
M  V30 2860 H 291.214 -2.86513 0.819413 0
M  V30 2861 H 288.751 -1.41102 0.415783 0
M  V30 2862 H 290.709 -3.92129 -1.42446 0
M  V30 2863 H 289.339 -2.79579 -1.61356 0
M  V30 2864 H 288.391 -3.75507 0.608147 0
M  V30 2865 H 289.703 -4.95415 0.580082 0
M  V30 2866 H 288.857 -5.85292 -1.59744 0
M  V30 2867 H 287.596 -4.5889 -1.65141 0
M  V30 2868 H 286.601 -5.47742 0.475309 0
M  V30 2869 H 287.826 -6.77162 0.512635 0
M  V30 2870 H 285.772 -6.33877 -1.68924 0
M  V30 2871 H 285.689 -7.54665 -0.449108 0
M  V30 2872 H 286.957 -7.6214 -1.63593 0
M  V30 2873 N 291.186 -0.45159 -1.50991 0
M  V30 2874 C 292.414 0.108334 -2.06616 0
M  V30 2875 C 292.829 1.35224 -1.31757 0
M  V30 2876 O 292.186 1.78475 -0.381174 0
M  V30 2877 C 292.237 0.41619 -3.59096 0
M  V30 2878 O 291.958 -0.778361 -4.3113 0
M  V30 2879 C 293.459 1.02523 -4.31282 0
M  V30 2880 H 290.679 0.00159995 -0.670998 0
M  V30 2881 H 293.223 -0.634771 -1.94399 0
M  V30 2882 H 291.378 1.10921 -3.71181 0
M  V30 2883 H 291.792 -0.511181 -5.22003 0
M  V30 2884 H 293.266 1.19053 -5.39009 0
M  V30 2885 H 293.743 2.01013 -3.905 0
M  V30 2886 H 294.349 0.371173 -4.23677 0
M  V30 2887 N 292.664 1.56529 -0.183458 0
M  V30 2888 C 293.91 1.97537 0.459036 0
M  V30 2889 C 294.243 1.06989 1.62071 0
M  V30 2890 O 293.518 0.11948 1.94133 0
M  V30 2891 C 293.801 3.47874 0.930368 0
M  V30 2892 C 293.654 4.492 -0.232317 0
M  V30 2893 C 294.973 4.01612 1.79989 0
M  V30 2894 H 292.092 0.718204 0.165383 0
M  V30 2895 H 294.734 1.88042 -0.272038 0
M  V30 2896 H 292.884 3.56095 1.55333 0
M  V30 2897 H 294.556 4.53027 -0.86972 0
M  V30 2898 H 292.799 4.24657 -0.885928 0
M  V30 2899 H 293.47 5.51823 0.139796 0
M  V30 2900 H 295.946 3.96097 1.27461 0
M  V30 2901 H 294.822 5.07195 2.09867 0
M  V30 2902 H 295.083 3.46163 2.74998 0
M  V30 2903 N 294.142 -0.090211 1.57342 0
M  V30 2904 C 295.052 -1.12735 2.05738 0
M  V30 2905 C 296.068 -1.43557 0.983231 0
M  V30 2906 O 297.244 -1.54101 1.29672 0
M  V30 2907 C 294.309 -2.42659 2.47624 0
M  V30 2908 C 293.37 -2.18975 3.69254 0
M  V30 2909 C 292.603 -3.42704 4.09133 0
M  V30 2910 O 292.826 -4.51127 3.49057 0
M  V30 2911 O 291.76 -3.32003 5.02053 0
M  V30 2912 H 295.586 -0.746279 2.94388 0
M  V30 2913 H 293.171 -0.303064 1.46294 0
M  V30 2914 H 295.053 -3.19155 2.7517 0
M  V30 2915 H 293.728 -2.80182 1.62109 0
M  V30 2916 H 292.635 -1.40244 3.46818 0
M  V30 2917 H 293.968 -1.86342 4.55563 0
M  V30 2918 N 295.62 -1.53406 -0.361157 0
M  V30 2919 C 297.031 -1.61442 -0.937728 0
M  V30 2920 C 297.382 -0.48461 -1.90121 0
M  V30 2921 O 296.507 0.388312 -2.12888 0
M  V30 2922 C 297.102 -2.92624 -1.70753 0
M  V30 2923 C 295.661 -3.02981 -2.23337 0
M  V30 2924 C 294.808 -2.5677 -1.04712 0
M  V30 2925 H 297.759 -1.58083 -0.139816 0
M  V30 2926 H 297.78 -2.80675 -2.56908 0
M  V30 2927 H 297.292 -3.74834 -1.00604 0
M  V30 2928 H 295.393 -2.25368 -2.96715 0
M  V30 2929 H 295.506 -4.0814 -2.50916 0
M  V30 2930 H 293.87 -2.11752 -1.41539 0
M  V30 2931 H 294.653 -3.41402 -0.360539 0
M  V30 2932 N 297.098 0.621204 -1.44841 0
M  V30 2933 C 298.344 1.3826 -1.48365 0
M  V30 2934 C 298.677 1.93831 -0.119624 0
M  V30 2935 O 297.952 1.74251 0.864111 0
M  V30 2936 C 298.235 2.54058 -2.55199 0
M  V30 2937 C 298.088 2.03772 -4.00995 0
M  V30 2938 C 299.407 3.56225 -2.58442 0
M  V30 2939 H 296.526 0.501374 -0.540179 0
M  V30 2940 H 299.168 0.7015 -1.76576 0
M  V30 2941 H 297.318 3.12162 -2.31274 0
M  V30 2942 H 298.99 1.50423 -4.36086 0
M  V30 2943 H 297.233 1.34876 -4.12299 0
M  V30 2944 H 297.904 2.87185 -4.71411 0
M  V30 2945 H 300.38 3.07939 -2.79844 0
M  V30 2946 H 299.256 4.34756 -3.3508 0
M  V30 2947 H 299.517 4.10949 -1.63013 0
M  V30 2948 N 298.576 1.31904 0.862503 0
M  V30 2949 C 299.801 1.25135 1.65397 0
M  V30 2950 C 300.226 -0.179 1.87246 0
M  V30 2951 O 299.584 -1.1277 1.4196 0
M  V30 2952 C 299.632 2.00832 2.99498 0
M  V30 2953 O 298.736 1.35075 3.89652 0
M  V30 2954 H 298.077 0.431655 0.504549 0
M  V30 2955 H 300.607 1.74094 1.07483 0
M  V30 2956 H 300.617 2.10709 3.49379 0
M  V30 2957 H 299.292 3.04847 2.82916 0
M  V30 2958 H 297.869 1.33696 3.48109 0
M  V30 2959 N 300.054 -1.07777 1.14986 0
M  V30 2960 C 301.465 -1.61766 0.932127 0
M  V30 2961 C 301.816 -1.88974 -0.527581 0
M  V30 2962 O 300.941 -1.65198 -1.39781 0
M  V30 2963 C 301.536 -2.93891 1.68563 0
M  V30 2964 C 300.095 -3.44639 1.5133 0
M  V30 2965 C 299.242 -2.18767 1.704 0
M  V30 2966 H 302.193 -0.909201 1.30074 0
M  V30 2967 H 302.214 -3.62623 1.15259 0
M  V30 2968 H 301.726 -2.74057 2.74799 0
M  V30 2969 H 299.827 -3.69564 0.474702 0
M  V30 2970 H 299.94 -4.20966 2.28746 0
M  V30 2971 H 298.304 -2.28253 1.13016 0
M  V30 2972 H 299.087 -2.01433 2.77992 0
M  V30 2973 N 301.532 -0.945985 -1.26051 0
M  V30 2974 C 302.465 -0.403619 -2.24602 0
M  V30 2975 C 303.443 0.510241 -1.54387 0
M  V30 2976 O 304.627 0.446593 -1.83133 0
M  V30 2977 C 301.754 0.419564 -3.36091 0
M  V30 2978 C 300.8 -0.433454 -4.24292 0
M  V30 2979 S 301.633 -1.86037 -5.02146 0
M  V30 2980 C 302.789 -1.04538 -6.17108 0
M  V30 2981 H 303.022 -1.23883 -2.7026 0
M  V30 2982 H 300.555 -0.749438 -1.34992 0
M  V30 2983 H 302.513 0.888595 -4.00767 0
M  V30 2984 H 301.174 1.22951 -2.89036 0
M  V30 2985 H 300.367 0.197486 -5.03613 0
M  V30 2986 H 299.969 -0.837357 -3.64506 0
M  V30 2987 H 302.261 -0.289923 -6.76879 0
M  V30 2988 H 303.204 -1.81222 -6.84518 0
M  V30 2989 H 303.612 -0.579319 -5.61519 0
M  V30 2990 N 303.011 1.40521 -0.713556 0
M  V30 2991 C 303.941 2.33381 -0.0743864 0
M  V30 2992 C 304.922 1.52784 0.747735 0
M  V30 2993 O 306.107 1.81258 0.697071 0
M  V30 2994 C 303.237 3.36748 0.849598 0
M  V30 2995 C 302.191 4.27793 0.133247 0
M  V30 2996 C 301.517 5.21679 1.17281 0
M  V30 2997 C 302.817 5.12415 -1.01134 0
M  V30 2998 H 304.511 2.87081 -0.850007 0
M  V30 2999 H 302.057 1.38034 -0.410201 0
M  V30 3000 H 304.01 4.00648 1.30612 0
M  V30 3001 H 302.734 2.81439 1.65709 0
M  V30 3002 H 301.393 3.65342 -0.303426 0
M  V30 3003 H 301.041 4.62677 1.9733 0
M  V30 3004 H 300.741 5.83435 0.698397 0
M  V30 3005 H 302.265 5.88456 1.62947 0
M  V30 3006 H 303.679 5.69781 -0.634274 0
M  V30 3007 H 302.076 5.83203 -1.41399 0
M  V30 3008 H 303.146 4.48514 -1.84292 0
M  V30 3009 N 304.489 0.459591 1.5075 0
M  V30 3010 C 305.452 -0.329093 2.26825 0
M  V30 3011 C 306.452 -0.930481 1.31144 0
M  V30 3012 O 307.642 -0.801453 1.54669 0
M  V30 3013 C 304.774 -1.46768 3.07688 0
M  V30 3014 H 305.967 0.337924 2.9799 0
M  V30 3015 H 303.52 0.213336 1.54837 0
M  V30 3016 H 304.255 -2.17009 2.40993 0
M  V30 3017 H 304.04 -1.04238 3.77991 0
M  V30 3018 H 305.53 -2.02433 3.65254 0
M  V30 3019 N 305.967 -1.56429 0.191757 0
M  V30 3020 C 307.378 -1.83912 -0.321428 0
M  V30 3021 C 307.729 -1.11231 -1.61623 0
M  V30 3022 O 306.854 -0.37202 -2.13178 0
M  V30 3023 C 307.449 -3.33624 -0.589961 0
M  V30 3024 C 306.008 -3.6153 -1.04753 0
M  V30 3025 C 305.155 -2.7714 -0.0943327 0
M  V30 3026 H 308.106 -1.53161 0.415612 0
M  V30 3027 H 308.127 -3.52213 -1.43966 0
M  V30 3028 H 307.639 -3.86495 0.352588 0
M  V30 3029 H 305.74 -3.14089 -2.00447 0
M  V30 3030 H 305.853 -4.69737 -0.942549 0
M  V30 3031 H 304.217 -2.47638 -0.595589 0
M  V30 3032 H 305 -3.32799 0.842601 0
M  V30 3033 N 307.445 0.0818655 -1.57387 0
M  V30 3034 C 308.675 0.794954 -1.90694 0
M  V30 3035 C 309.083 1.72147 -0.784982 0
M  V30 3036 O 308.426 1.81974 0.251196 0
M  V30 3037 C 308.488 1.65042 -3.19376 0
M  V30 3038 C 308.152 0.894337 -4.48164 0
M  V30 3039 C 309.149 0.21813 -5.19442 0
M  V30 3040 C 306.834 0.864495 -4.94805 0
M  V30 3041 C 308.828 -0.477802 -6.35607 0
M  V30 3042 C 306.515 0.164785 -6.10878 0
M  V30 3043 C 307.513 -0.505173 -6.81129 0
M  V30 3044 O 307.201 -1.19363 -7.94989 0
M  V30 3045 H 306.933 0.231779 -0.635023 0
M  V30 3046 H 309.487 0.059493 -2.05314 0
M  V30 3047 H 307.717 2.42844 -3.00938 0
M  V30 3048 H 309.406 2.24127 -3.38411 0
M  V30 3049 H 310.172 0.232558 -4.84442 0
M  V30 3050 H 306.051 1.37542 -4.40004 0
M  V30 3051 H 309.595 -1.00129 -6.90377 0
M  V30 3052 H 305.492 0.148249 -6.4533 0
M  V30 3053 H 306.26 -1.10188 -8.11049 0
M  V30 3054 N 308.923 1.53595 0.353017 0
M  V30 3055 C 309.87 1.80919 1.43308 0
M  V30 3056 C 310.84 0.654288 1.5267 0
M  V30 3057 O 312.025 0.897759 1.6836 0
M  V30 3058 C 309.165 2.01605 2.80089 0
M  V30 3059 C 308.278 3.29321 2.79593 0
M  V30 3060 C 307.413 3.40125 4.0803 0
M  V30 3061 C 306.452 4.61826 4.01725 0
M  V30 3062 N 305.589 4.69716 5.21834 0
M  V30 3063 H 310.429 2.73074 1.19308 0
M  V30 3064 H 307.966 1.35263 0.578131 0
M  V30 3065 H 309.924 2.11586 3.59565 0
M  V30 3066 H 308.554 1.12772 3.0246 0
M  V30 3067 H 307.606 3.28229 1.92276 0
M  V30 3068 H 308.918 4.18884 2.70809 0
M  V30 3069 H 308.072 3.49488 4.95927 0
M  V30 3070 H 306.811 2.48601 4.19582 0
M  V30 3071 H 305.816 4.52552 3.12213 0
M  V30 3072 H 307.041 5.54705 3.91764 0
M  V30 3073 H 304.987 3.81097 5.33948 0
M  V30 3074 H 304.904 5.53202 5.1527 0
M  V30 3075 H 306.172 4.83376 6.11529 0
M  V30 3076 N 310.401 -0.613514 1.45168 0
M  V30 3077 C 311.647 -1.37471 1.49096 0
M  V30 3078 C 311.98 -1.93765 0.129901 0
M  V30 3079 O 311.255 -1.74707 -0.854858 0
M  V30 3080 C 311.538 -2.52701 2.56542 0
M  V30 3081 C 311.391 -2.01643 4.0207 0
M  V30 3082 C 312.71 -3.54849 2.60327 0
M  V30 3083 H 309.829 -0.498502 0.54283 0
M  V30 3084 H 312.471 -0.692125 1.76945 0
M  V30 3085 H 310.621 -3.10931 2.32926 0
M  V30 3086 H 312.293 -1.48108 4.36877 0
M  V30 3087 H 310.536 -1.32688 4.13009 0
M  V30 3088 H 311.207 -2.84681 4.72928 0
M  V30 3089 H 313.683 -3.0645 2.81474 0
M  V30 3090 H 312.559 -4.32973 3.37381 0
M  V30 3091 H 312.82 -4.10079 1.6519 0
M  V30 3092 N 311.879 -1.3236 -0.855495 0
M  V30 3093 C 313.125 -1.23054 -1.612 0
M  V30 3094 C 313.458 0.207404 -1.93089 0
M  V30 3095 O 312.733 1.14432 -1.57275 0
M  V30 3096 C 313.016 -2.08937 -2.93287 0
M  V30 3097 C 312.869 -3.61105 -2.68185 0
M  V30 3098 C 314.188 -1.94986 -3.94549 0
M  V30 3099 H 311.307 -0.448364 -0.584926 0
M  V30 3100 H 313.949 -1.62297 -0.987917 0
M  V30 3101 H 312.099 -1.75599 -3.46551 0
M  V30 3102 H 313.771 -4.04652 -2.21483 0
M  V30 3103 H 312.014 -3.83813 -2.02164 0
M  V30 3104 H 312.685 -4.16522 -3.62234 0
M  V30 3105 H 315.161 -2.24189 -3.5054 0
M  V30 3106 H 314.037 -2.57356 -4.84829 0
M  V30 3107 H 314.298 -0.917263 -4.3248 0
M  V30 3108 N 313.357 1.07166 -1.15556 0
M  V30 3109 C 314.606 1.79181 -0.926132 0
M  V30 3110 C 314.919 1.87768 0.547967 0
M  V30 3111 O 316.125 2.56323 0.895036 0
M  V30 3112 C 314.581 3.22 -1.60761 0
M  V30 3113 C 314.189 3.21607 -3.11886 0
M  V30 3114 C 315.933 3.9861 -1.4598 0
M  V30 3115 C 313.84 4.59092 -3.72812 0
M  V30 3116 H 312.77 0.67154 -0.342856 0
M  V30 3117 H 315.421 1.2027 -1.3859 0
M  V30 3118 H 313.803 3.81115 -1.07553 0
M  V30 3119 H 314.977 2.72127 -3.71865 0
M  V30 3120 H 313.292 2.58495 -3.2645 0
M  V30 3121 H 315.889 5.00225 -1.88888 0
M  V30 3122 H 316.232 4.143 -0.407541 0
M  V30 3123 H 316.765 3.45996 -1.96295 0
M  V30 3124 H 313.504 4.48606 -4.77946 0
M  V30 3125 H 313.024 5.08803 -3.17616 0
M  V30 3126 H 314.703 5.28059 -3.73848 0
M  V30 3127 N 314.835 0.952656 1.25548 0
M  V30 3128 C 316.112 0.523818 1.88456 0
M  V30 3129 C 316.492 -0.998871 1.85973 0
M  V30 3130 O 315.84 -1.86381 1.3219 0
M  V30 3131 C 316.05 1.0982 3.31271 0
M  V30 3132 C 317.398 1.17385 4.08051 0
M  V30 3133 O 318.422 1.04961 3.40384 0
M  V30 3134 O 317.281 1.36852 5.29088 0
M  V30 3135 H 314.375 0.172485 0.808813 0
M  V30 3136 H 316.921 1.04596 1.33633 0
M  V30 3137 H 315.693 2.1415 3.27499 0
M  V30 3138 H 315.316 0.559191 3.93648 0
M  V30 3139 N 316.313 -1.40141 0.720998 0
M  V30 3140 C 317.276 -2.29058 0.0805834 0
M  V30 3141 C 318.276 -1.45632 -0.681758 0
M  V30 3142 O 319.466 -1.6648 -0.512856 0
M  V30 3143 C 316.598 -3.28925 -0.895593 0
M  V30 3144 H 317.791 -2.87191 0.863793 0
M  V30 3145 H 315.344 -1.48553 0.485975 0
M  V30 3146 H 316.079 -2.75822 -1.70566 0
M  V30 3147 H 315.864 -3.90519 -0.351766 0
M  V30 3148 H 317.354 -3.95494 -1.34069 0
M  V30 3149 N 317.792 -0.46758 -1.50504 0
M  V30 3150 C 318.722 0.318381 -2.31319 0
M  V30 3151 C 319.703 0.993564 -1.38066 0
M  V30 3152 O 320.888 0.991411 -1.66987 0
M  V30 3153 C 318.018 1.40275 -3.17711 0
M  V30 3154 C 316.972 0.849373 -4.19487 0
M  V30 3155 C 316.298 2.03177 -4.94594 0
M  V30 3156 C 317.598 -0.136942 -5.2212 0
M  V30 3157 H 319.292 -0.356106 -2.97275 0
M  V30 3158 H 316.838 -0.172703 -1.42961 0
M  V30 3159 H 318.791 1.96004 -3.73042 0
M  V30 3160 H 317.515 2.10596 -2.49634 0
M  V30 3161 H 316.174 0.314076 -3.65252 0
M  V30 3162 H 315.822 2.72187 -4.22993 0
M  V30 3163 H 315.522 1.66774 -5.63436 0
M  V30 3164 H 317.046 2.59403 -5.52759 0
M  V30 3165 H 318.46 0.331056 -5.72343 0
M  V30 3166 H 316.857 -0.41507 -5.98663 0
M  V30 3167 H 317.927 -1.06398 -4.73083 0
M  V30 3168 N 319.27 1.56325 -0.20005 0
M  V30 3169 C 320.233 2.18084 0.705132 0
M  V30 3170 C 321.233 1.13666 1.1374 0
M  V30 3171 O 322.423 1.39023 1.04968 0
M  V30 3172 C 319.555 2.78689 1.96329 0
M  V30 3173 H 320.748 2.99435 0.167023 0
M  V30 3174 H 318.301 1.56221 0.0495725 0
M  V30 3175 H 319.036 2.0115 2.5438 0
M  V30 3176 H 318.821 3.55133 1.66202 0
M  V30 3177 H 320.311 3.26096 2.60866 0
M  V30 3178 N 320.748 -0.0735177 1.57428 0
M  V30 3179 C 322.025 -0.805903 1.78226 0
M  V30 3180 C 322.405 -1.95874 0.787189 0
M  V30 3181 O 321.753 -2.2779 -0.180029 0
M  V30 3182 C 321.963 -1.28045 3.24662 0
M  V30 3183 C 323.311 -1.71453 3.88444 0
M  V30 3184 O 324.335 -1.37616 3.28543 0
M  V30 3185 O 323.194 -2.34093 4.93825 0
M  V30 3186 H 320.288 -0.386041 0.73137 0
M  V30 3187 H 322.834 -0.0537269 1.69615 0
M  V30 3188 H 321.606 -0.455476 3.8864 0
M  V30 3189 H 321.229 -2.094 3.37991 0
M  V30 3190 N 322.226 -1.5378 -0.344866 0
M  V30 3191 C 323.173 -1.81676 -1.42346 0
M  V30 3192 C 324.143 -0.662376 -1.52321 0
M  V30 3193 O 325.328 -0.906675 -1.67881 0
M  V30 3194 C 322.468 -2.03087 -2.79015 0
M  V30 3195 C 321.581 -3.30799 -2.77842 0
M  V30 3196 C 320.716 -3.42285 -4.0622 0
M  V30 3197 C 319.755 -4.6395 -3.9927 0
M  V30 3198 N 318.892 -4.72477 -5.19336 0
M  V30 3199 H 323.732 -2.73703 -1.17858 0
M  V30 3200 H 321.269 -1.35568 -0.570949 0
M  V30 3201 H 323.227 -2.1349 -3.58438 0
M  V30 3202 H 321.857 -1.14375 -3.01858 0
M  V30 3203 H 320.909 -3.29244 -1.90533 0
M  V30 3204 H 322.221 -4.20314 -2.68584 0
M  V30 3205 H 321.375 -3.52113 -4.94066 0
M  V30 3206 H 320.114 -2.50823 -4.18258 0
M  V30 3207 H 319.119 -4.54201 -3.09809 0
M  V30 3208 H 320.344 -5.56775 -3.88817 0
M  V30 3209 H 318.29 -3.83924 -5.3192 0
M  V30 3210 H 318.207 -5.55927 -5.12329 0
M  V30 3211 H 319.475 -4.86613 -6.08957 0
M  V30 3212 N 323.704 0.605807 -1.45491 0
M  V30 3213 C 324.934 1.38934 -1.52908 0
M  V30 3214 C 325.342 1.88513 -0.161086 0
M  V30 3215 O 324.685 1.62962 0.847891 0
M  V30 3216 C 324.747 2.62737 -2.45376 0
M  V30 3217 C 324.411 2.34785 -3.92078 0
M  V30 3218 C 325.408 1.95038 -4.8193 0
M  V30 3219 C 323.093 2.47642 -4.37011 0
M  V30 3220 C 325.087 1.68511 -6.14722 0
M  V30 3221 C 322.774 2.20728 -5.69844 0
M  V30 3222 C 323.772 1.81225 -6.58519 0
M  V30 3223 O 323.46 1.54627 -7.88889 0
M  V30 3224 H 323.192 0.431629 -0.520262 0
M  V30 3225 H 325.746 0.74573 -1.91384 0
M  V30 3226 H 323.976 3.29824 -2.01874 0
M  V30 3227 H 325.665 3.24783 -2.43456 0
M  V30 3228 H 326.431 1.84639 -4.48479 0
M  V30 3229 H 322.31 2.77356 -3.68232 0
M  V30 3230 H 325.854 1.37602 -6.83894 0
M  V30 3231 H 321.751 2.30744 -6.02849 0
M  V30 3232 H 322.519 1.68665 -8.00933 0
M  V30 3233 N 325.182 1.32811 0.848464 0
M  V30 3234 C 326.092 1.24278 1.98978 0
M  V30 3235 C 327.108 0.155176 1.73307 0
M  V30 3236 O 328.284 0.376999 1.9784 0
M  V30 3237 C 325.349 0.972444 3.32783 0
M  V30 3238 C 324.41 2.14911 3.71634 0
M  V30 3239 C 323.643 1.89157 4.99054 0
M  V30 3240 O 323.866 0.837165 5.64223 0
M  V30 3241 O 322.8 2.75433 5.35183 0
M  V30 3242 H 326.626 2.20238 2.09115 0
M  V30 3243 H 324.211 1.12762 0.980052 0
M  V30 3244 H 326.093 0.838432 4.12975 0
M  V30 3245 H 324.768 0.043051 3.23671 0
M  V30 3246 H 323.675 2.33862 2.91992 0
M  V30 3247 H 325.008 3.06151 3.85399 0
M  V30 3248 N 326.66 -1.06551 1.16123 0
M  V30 3249 C 328.071 -1.60768 0.949232 0
M  V30 3250 C 328.422 -1.89523 -0.507508 0
M  V30 3251 O 327.547 -1.66671 -1.38021 0
M  V30 3252 C 328.142 -2.92086 1.71671 0
M  V30 3253 C 326.701 -3.43015 1.54977 0
M  V30 3254 C 325.848 -2.16947 1.72711 0
M  V30 3255 H 328.799 -0.895354 1.31031 0
M  V30 3256 H 328.82 -3.6138 1.19099 0
M  V30 3257 H 328.332 -2.71127 2.7769 0
M  V30 3258 H 326.433 -3.69039 0.513873 0
M  V30 3259 H 326.546 -4.18516 2.33198 0
M  V30 3260 H 324.91 -2.27041 1.15431 0
M  V30 3261 H 325.693 -1.98473 2.80113 0
M  V30 3262 N 328.138 -0.959301 -1.25041 0
M  V30 3263 C 329.363 -0.633507 -1.97488 0
M  V30 3264 C 329.788 0.788555 -1.70773 0
M  V30 3265 O 329.146 1.53394 -0.966431 0
M  V30 3266 C 329.194 -0.904057 -3.49083 0
M  V30 3267 O 328.298 0.0147939 -4.12397 0
M  V30 3268 H 327.639 -0.240368 -0.618966 0
M  V30 3269 H 330.169 -1.28717 -1.59038 0
M  V30 3270 H 330.179 -0.832203 -3.99423 0
M  V30 3271 H 328.854 -1.94048 -3.67856 0
M  V30 3272 H 327.431 -0.109664 -3.72739 0
M  V30 3273 N 329.616 1.39756 -0.72842 0
M  V30 3274 C 330.564 2.32485 -0.0731849 0
M  V30 3275 C 331.558 1.52717 0.733063 0
M  V30 3276 O 332.764 1.68428 0.634988 0
M  V30 3277 H 329.139 0.751984 -0.00486469 0
M  V30 3278 H 331.11 2.85382 -0.871761 0
M  V30 3279 C 329.859 3.37773 0.824908 0
M  V30 3280 H 329.182 3.99227 0.213915 0
M  V30 3281 H 330.622 4.05121 1.25111 0
M  V30 3282 C 329.081 2.74287 1.95622 0
M  V30 3283 O 329.611 2.61618 3.04826 0
M  V30 3284 N 327.817 2.32475 1.74367 0
M  V30 3285 H 327.364 2.4298 0.855494 0
M  V30 3286 H 327.322 1.90337 2.50238 0
M  V30 3287 N 331.094 0.475555 1.50254 0
M  V30 3288 C 332.341 -0.0778919 2.0235 0
M  V30 3289 C 332.669 -1.39319 1.35722 0
M  V30 3290 O 331.924 -1.89888 0.473395 0
M  V30 3291 C 332.223 -0.305114 3.56095 0
M  V30 3292 C 331.889 0.92903 4.41225 0
M  V30 3293 C 330.551 1.26739 4.6421 0
M  V30 3294 C 332.903 1.75054 4.90923 0
M  V30 3295 C 330.231 2.42724 5.34137 0
M  V30 3296 C 332.583 2.9017 5.62125 0
M  V30 3297 C 331.247 3.24416 5.83362 0
M  V30 3298 H 330.517 -0.0285027 0.740452 0
M  V30 3299 H 333.164 0.630543 1.80821 0
M  V30 3300 H 331.469 -1.09584 3.76163 0
M  V30 3301 H 333.166 -0.747377 3.93974 0
M  V30 3302 H 329.756 0.655428 4.23559 0
M  V30 3303 H 333.94 1.50231 4.73016 0
M  V30 3304 H 329.196 2.69525 5.48786 0
M  V30 3305 H 333.37 3.54169 5.99614 0
M  V30 3306 H 330.997 4.14396 6.37323 0
M  V30 3307 N 332.573 -1.56217 0.208337 0
M  V30 3308 C 333.801 -2.02337 -0.43215 0
M  V30 3309 C 334.216 -1.08834 -1.54275 0
M  V30 3310 O 333.573 -0.0955462 -1.8225 0
M  V30 3311 C 333.624 -3.48072 -0.976138 0
M  V30 3312 O 333.345 -4.38007 0.0901621 0
M  V30 3313 C 334.846 -4.09773 -1.69119 0
M  V30 3314 H 332.066 -0.662385 -0.10718 0
M  V30 3315 H 334.61 -2.01966 0.320923 0
M  V30 3316 H 332.765 -3.49099 -1.67954 0
M  V30 3317 H 333.179 -5.23543 -0.316701 0
M  V30 3318 H 334.653 -5.13556 -2.02397 0
M  V30 3319 H 335.13 -3.53999 -2.59964 0
M  V30 3320 H 335.736 -4.12556 -1.03332 0
M  V30 3321 N 334.051 0.0651679 -1.57465 0
M  V30 3322 C 335.001 1.0838 -2.00594 0
M  V30 3323 C 335.985 1.34106 -0.889071 0
M  V30 3324 O 337.177 1.34295 -1.15299 0
M  V30 3325 C 334.306 2.39565 -2.45894 0
M  V30 3326 C 333.392 2.17085 -3.64328 0
M  V30 3327 N 333.783 1.64553 -4.78285 0
M  V30 3328 C 332.081 2.4753 -3.71006 0
M  V30 3329 C 332.782 1.57042 -5.60101 0
M  V30 3330 N 331.758 2.03328 -5.04141 0
M  V30 3331 H 335.56 0.671062 -2.86136 0
M  V30 3332 H 333.074 0.27213 -1.60104 0
M  V30 3333 H 335.071 3.13308 -2.75034 0
M  V30 3334 H 333.731 2.81549 -1.61741 0
M  V30 3335 H 334.742 1.33323 -5.00445 0
M  V30 3336 H 331.419 2.92835 -2.9758 0
M  V30 3337 H 332.809 1.17223 -6.61595 0
M  V30 3338 N 335.529 1.53961 0.336706 0
M  V30 3339 C 336.945 1.44378 0.680241 0
M  V30 3340 C 337.145 0.606034 1.9217 0
M  V30 3341 O 336.201 0.099688 2.52303 0
M  V30 3342 C 337.514 2.87945 0.8665 0
M  V30 3343 C 339.062 2.97763 0.964682 0
M  V30 3344 C 339.537 4.42453 1.18321 0
M  V30 3345 N 341.028 4.46008 1.25025 0
M  V30 3346 C 341.763 5.55102 1.43697 0
M  V30 3347 N 341.259 6.7419 1.59498 0
M  V30 3348 N 343.052 5.42727 1.463 0
M  V30 3349 H 335.203 2.06918 -0.479455 0
M  V30 3350 H 337.466 0.935634 -0.152619 0
M  V30 3351 H 337.172 3.51691 0.0256937 0
M  V30 3352 H 337.046 3.33293 1.76623 0
M  V30 3353 H 339.433 2.34153 1.796 0
M  V30 3354 H 339.514 2.55766 0.041708 0
M  V30 3355 H 339.158 5.06645 0.356788 0
M  V30 3356 H 339.088 4.82048 2.11985 0
M  V30 3357 H 341.579 3.60196 1.14312 0
M  V30 3358 H 341.892 7.53095 1.734 0
M  V30 3359 H 340.237 6.77123 1.56621 0
M  V30 3360 H 343.428 4.48647 1.33543 0
M  V30 3361 H 343.601 6.27806 1.6051 0
M  V30 3362 N 337.007 -0.598083 1.45811 0
M  V30 3363 C 338.423 -0.919847 1.30426 0
M  V30 3364 C 338.623 -1.99759 0.264303 0
M  V30 3365 O 337.679 -2.50221 -0.338472 0
M  V30 3366 C 338.992 -1.35176 2.68603 0
M  V30 3367 C 340.54 -1.46546 2.76574 0
M  V30 3368 C 341.015 -1.9311 4.15298 0
M  V30 3369 N 342.506 -2.00328 4.1764 0
M  V30 3370 C 343.241 -2.37599 5.21856 0
M  V30 3371 N 342.737 -2.73771 6.36413 0
M  V30 3372 N 344.53 -2.38021 5.09218 0
M  V30 3373 H 336.681 0.114111 2.12093 0
M  V30 3374 H 338.944 -0.0116121 0.947929 0
M  V30 3375 H 338.65 -0.633969 3.45939 0
M  V30 3376 H 338.524 -2.3164 2.97696 0
M  V30 3377 H 340.911 -2.17415 1.99537 0
M  V30 3378 H 340.992 -0.483727 2.51185 0
M  V30 3379 H 340.636 -1.22824 4.92825 0
M  V30 3380 H 340.566 -2.92213 4.38086 0
M  V30 3381 H 343.057 -1.74925 3.34977 0
M  V30 3382 H 343.37 -3.0112 7.11721 0
M  V30 3383 H 341.715 -2.71445 6.39799 0
M  V30 3384 H 344.906 -2.09174 4.18765 0
M  V30 3385 H 345.079 -2.66741 5.90554 0
M  V30 3386 N 338.485 -1.33259 -0.841409 0
M  V30 3387 C 339.435 -1.19872 -1.93945 0
M  V30 3388 C 340.419 -0.102269 -1.60575 0
M  V30 3389 O 341.611 -0.330114 -1.73894 0
M  V30 3390 C 338.74 -0.937517 -3.30251 0
M  V30 3391 C 337.826 -2.07629 -3.69799 0
M  V30 3392 N 338.217 -3.32604 -3.81062 0
M  V30 3393 C 336.515 -1.98242 -3.9952 0
M  V30 3394 C 337.216 -4.07275 -4.15333 0
M  V30 3395 N 336.192 -3.35691 -4.27566 0
M  V30 3396 H 339.994 -2.14604 -2.00805 0
M  V30 3397 H 337.508 -1.2523 -1.03398 0
M  V30 3398 H 339.505 -0.822545 -4.08705 0
M  V30 3399 H 338.165 0.00128798 -3.247 0
M  V30 3400 H 339.176 -3.67382 -3.65035 0
M  V30 3401 H 335.853 -1.12005 -4.02195 0
M  V30 3402 H 337.243 -5.1511 -4.31406 0
M  V30 3403 N 339.963 1.05934 -1.16686 0
M  V30 3404 C 340.893 2.1546 -0.899949 0
M  V30 3405 C 341.874 1.69391 0.155154 0
M  V30 3406 O 343.059 1.94199 0.00648693 0
M  V30 3407 C 340.189 3.44939 -0.404241 0
M  V30 3408 C 339.143 4.04536 -1.39767 0
M  V30 3409 C 338.469 5.29268 -0.760216 0
M  V30 3410 C 339.769 4.42893 -2.76845 0
M  V30 3411 H 341.463 2.38046 -1.81588 0
M  V30 3412 H 339.009 1.14404 -0.874514 0
M  V30 3413 H 340.962 4.20901 -0.204971 0
M  V30 3414 H 339.686 3.21983 0.547206 0
M  V30 3415 H 338.345 3.30635 -1.58355 0
M  V30 3416 H 337.993 5.02611 0.197831 0
M  V30 3417 H 337.693 5.70101 -1.42332 0
M  V30 3418 H 339.217 6.07924 -0.57105 0
M  V30 3419 H 340.631 5.09921 -2.62019 0
M  V30 3420 H 339.028 4.94721 -3.39663 0
M  V30 3421 H 340.098 3.53584 -3.31823 0
M  V30 3422 N 341.441 0.965919 1.2453 0
M  V30 3423 C 342.669 0.644385 1.96609 0
M  V30 3424 C 343.084 -0.785823 1.71669 0
M  V30 3425 O 342.441 -1.52703 0.999399 0
M  V30 3426 C 342.492 0.907375 3.49927 0
M  V30 3427 O 342.213 2.28136 3.74013 0
M  V30 3428 C 343.714 0.599784 4.39224 0
M  V30 3429 H 340.934 0.240588 0.626385 0
M  V30 3430 H 343.478 1.29337 1.58405 0
M  V30 3431 H 341.633 0.304631 3.862 0
M  V30 3432 H 342.047 2.36002 4.68405 0
M  V30 3433 H 343.521 0.834263 5.45659 0
M  V30 3434 H 343.998 -0.465921 4.36722 0
M  V30 3435 H 344.604 1.18235 4.08535 0
M  V30 3436 N 342.919 -1.39368 0.735821 0
M  V30 3437 C 344.144 -2.05319 0.293052 0
M  V30 3438 C 344.569 -1.55115 -1.064 0
M  V30 3439 O 343.927 -0.695261 -1.67439 0
M  V30 3440 C 343.975 -3.59305 0.305323 0
M  V30 3441 O 343.079 -4.06299 -0.706761 0
M  V30 3442 H 342.42 -0.650529 0.13307 0
M  V30 3443 H 344.95 -1.78386 1.00197 0
M  V30 3444 H 344.96 -4.07724 0.149997 0
M  V30 3445 H 343.635 -3.95207 1.29553 0
M  V30 3446 H 342.212 -3.69292 -0.517504 0
M  V30 3447 N 344.397 -0.483516 -1.5 0
M  V30 3448 C 345.327 0.293829 -2.31644 0
M  V30 3449 C 346.308 0.978864 -1.39112 0
M  V30 3450 O 347.493 0.973644 -1.68029 0
M  V30 3451 C 344.623 1.36897 -3.19181 0
M  V30 3452 C 343.577 0.804833 -4.20365 0
M  V30 3453 C 342.903 1.9792 -4.96721 0
M  V30 3454 C 344.203 -0.192313 -5.21946 0
M  V30 3455 H 345.897 -0.387616 -2.9688 0
M  V30 3456 H 343.443 -0.187856 -1.42769 0
M  V30 3457 H 345.396 1.92037 -3.751 0
M  V30 3458 H 344.12 2.07936 -2.51853 0
M  V30 3459 H 342.779 0.275319 -3.65565 0
M  V30 3460 H 342.427 2.67686 -4.25856 0
M  V30 3461 H 342.127 1.60789 -5.65173 0
M  V30 3462 H 343.651 2.53526 -5.55479 0
M  V30 3463 H 345.065 0.270333 -5.72662 0
M  V30 3464 H 343.462 -0.478543 -5.98189 0
M  V30 3465 H 344.532 -1.11409 -4.71928 0
M  V30 3466 N 345.875 1.56104 -0.216619 0
M  V30 3467 C 346.808 2.16026 0.735395 0
M  V30 3468 C 347.786 1.1032 1.1945 0
M  V30 3469 O 348.97 1.38549 1.27814 0
M  V30 3470 C 346.097 2.73656 1.99575 0
M  V30 3471 C 345.143 3.92146 1.67702 0
M  V30 3472 S 345.976 5.29397 0.806145 0
M  V30 3473 C 347.132 5.90463 2.07617 0
M  V30 3474 H 347.365 2.96439 0.226072 0
M  V30 3475 H 344.898 1.544 -0.00136639 0
M  V30 3476 H 346.856 3.075 2.71945 0
M  V30 3477 H 345.517 1.93245 2.47619 0
M  V30 3478 H 344.71 4.30954 2.61332 0
M  V30 3479 H 344.312 3.59423 1.03398 0
M  V30 3480 H 346.604 6.06136 3.02664 0
M  V30 3481 H 347.547 6.86589 1.73207 0
M  V30 3482 H 347.955 5.19252 2.21445 0
M  V30 3483 N 347.353 -0.0568162 1.57498 0
M  V30 3484 C 348.263 -1.08346 2.08083 0
M  V30 3485 C 349.279 -1.41439 1.01346 0
M  V30 3486 O 350.455 -1.51316 1.32912 0
M  V30 3487 C 347.52 -2.37352 2.52715 0
M  V30 3488 C 346.581 -2.11093 3.73816 0
M  V30 3489 C 345.814 -3.33949 4.1631 0
M  V30 3490 O 346.037 -4.43622 3.58547 0
M  V30 3491 O 344.971 -3.21279 5.08983 0
M  V30 3492 H 348.797 -0.683667 2.95905 0
M  V30 3493 H 346.382 -0.271965 1.46904 0
M  V30 3494 H 348.264 -3.13246 2.81877 0
M  V30 3495 H 346.939 -2.76681 1.68016 0
M  V30 3496 H 345.846 -1.32856 3.49714 0
M  V30 3497 H 347.179 -1.76637 4.59413 0
M  V30 3498 N 348.832 -1.54138 -0.328536 0
M  V30 3499 C 350.248 -1.44736 -0.672574 0
M  V30 3500 C 350.448 -0.616217 -1.91846 0
M  V30 3501 O 349.504 -0.113067 -2.52247 0
M  V30 3502 C 350.817 -2.884 -0.851217 0
M  V30 3503 C 352.365 -2.98271 -0.948877 0
M  V30 3504 C 352.84 -4.43074 -1.15973 0
M  V30 3505 N 354.331 -4.46665 -1.22658 0
M  V30 3506 C 355.066 -5.55857 -1.40751 0
M  V30 3507 N 354.562 -6.75026 -1.5592 0
M  V30 3508 N 356.355 -5.43495 -1.4342 0
M  V30 3509 H 348.506 -2.06661 0.490421 0
M  V30 3510 H 350.769 -0.934812 0.157579 0
M  V30 3511 H 350.475 -3.51699 -0.00704236 0
M  V30 3512 H 350.349 -3.34225 -1.74853 0
M  V30 3513 H 352.736 -2.35102 -1.78356 0
M  V30 3514 H 352.817 -2.55785 -0.0281435 0
M  V30 3515 H 352.461 -5.06827 -0.329915 0
M  V30 3516 H 352.391 -4.83165 -2.09426 0
M  V30 3517 H 354.882 -3.60797 -1.124 0
M  V30 3518 H 355.195 -7.54004 -1.69404 0
M  V30 3519 H 353.54 -6.77944 -1.53027 0
M  V30 3520 H 356.731 -4.49349 -1.31162 0
M  V30 3521 H 356.904 -6.28649 -1.57178 0
M  V30 3522 N 350.31 0.590341 -1.46126 0
M  V30 3523 C 351.559 1.34499 -1.50309 0
M  V30 3524 C 351.872 1.94977 -0.156021 0
M  V30 3525 O 353.078 2.71395 -0.0756037 0
M  V30 3526 C 351.534 2.43723 -2.64815 0
M  V30 3527 C 351.142 1.89582 -4.0591 0
M  V30 3528 C 352.886 3.20579 -2.78262 0
M  V30 3529 C 350.793 2.9639 -5.11769 0
M  V30 3530 H 349.723 0.505593 -0.559368 0
M  V30 3531 H 352.374 0.630848 -1.72315 0
M  V30 3532 H 350.756 3.17902 -2.36124 0
M  V30 3533 H 351.93 1.21997 -4.44357 0
M  V30 3534 H 350.245 1.25418 -3.97063 0
M  V30 3535 H 352.842 4.00276 -3.54519 0
M  V30 3536 H 353.185 3.72684 -1.85505 0
M  V30 3537 H 353.718 2.53505 -3.06562 0
M  V30 3538 H 350.457 2.49181 -6.06291 0
M  V30 3539 H 349.977 3.62487 -4.77873 0
M  V30 3540 H 351.656 3.60474 -5.37278 0
M  V30 3541 N 351.788 1.33704 0.83433 0
M  V30 3542 C 352.735 1.24335 1.94447 0
M  V30 3543 C 353.705 0.120991 1.65659 0
M  V30 3544 O 354.89 0.300035 1.88426 0
M  V30 3545 C 352.03 0.993124 3.30501 0
M  V30 3546 C 351.143 2.20217 3.71657 0
M  V30 3547 C 350.278 1.88572 4.96602 0
M  V30 3548 C 349.317 3.05683 5.30306 0
M  V30 3549 N 348.454 2.73997 6.46429 0
M  V30 3550 H 353.294 2.1928 2.01792 0
M  V30 3551 H 350.831 1.09035 0.987404 0
M  V30 3552 H 352.789 0.828467 4.08892 0
M  V30 3553 H 351.419 0.0803902 3.227 0
M  V30 3554 H 350.471 2.47642 2.88752 0
M  V30 3555 H 351.783 3.07752 3.92543 0
M  V30 3556 H 350.937 1.68776 5.82752 0
M  V30 3557 H 349.676 0.982799 4.77695 0
M  V30 3558 H 348.681 3.26088 4.42659 0
M  V30 3559 H 349.906 3.96737 5.51159 0
M  V30 3560 H 347.852 1.86268 6.28999 0
M  V30 3561 H 347.769 3.55064 6.67432 0
M  V30 3562 H 349.037 2.57679 7.35678 0
M  V30 3563 N 353.266 -1.05314 1.17247 0
M  V30 3564 C 354.543 -1.75184 0.87005 0
M  V30 3565 C 354.923 -2.01481 -0.629965 0
M  V30 3566 O 354.271 -1.64988 -1.58086 0
M  V30 3567 C 354.481 -3.04594 1.70363 0
M  V30 3568 C 355.829 -3.78567 1.92281 0
M  V30 3569 O 356.853 -3.14461 1.67311 0
M  V30 3570 O 355.712 -4.93755 2.3424 0
M  V30 3571 H 352.806 -0.761729 0.322021 0
M  V30 3572 H 355.352 -1.11493 1.27935 0
M  V30 3573 H 354.124 -2.81201 2.72106 0
M  V30 3574 H 353.747 -3.76022 1.29202 0
M  V30 3575 N 354.744 -0.972509 -1.24016 0
M  V30 3576 C 356.021 -0.553733 -1.87598 0
M  V30 3577 C 356.401 0.969158 -1.87538 0
M  V30 3578 O 355.749 1.84255 -1.35139 0
M  V30 3579 C 355.959 -1.15076 -3.29482 0
M  V30 3580 C 357.307 -1.23862 -4.06132 0
M  V30 3581 O 358.331 -1.10363 -3.38672 0
M  V30 3582 O 357.19 -1.45252 -5.26844 0
M  V30 3583 H 354.284 -0.185331 -0.805966 0
M  V30 3584 H 356.83 -1.06709 -1.31952 0
M  V30 3585 H 355.602 -2.19333 -3.2405 0
M  V30 3586 H 355.225 -0.621746 -3.92709 0
M  V30 3587 N 356.222 1.38976 -0.743202 0
M  V30 3588 C 357.169 2.30544 -0.10861 0
M  V30 3589 C 358.139 1.49642 0.720869 0
M  V30 3590 O 359.324 1.78304 0.679142 0
M  V30 3591 C 356.464 3.36018 0.786496 0
M  V30 3592 C 355.577 4.31963 -0.0564849 0
M  V30 3593 C 354.712 5.24506 0.840657 0
M  V30 3594 C 353.751 6.121 -0.00658363 0
M  V30 3595 N 352.888 6.96973 0.846943 0
M  V30 3596 H 357.728 2.8424 -0.895088 0
M  V30 3597 H 355.265 1.3995 -0.453048 0
M  V30 3598 H 357.223 3.95768 1.31999 0
M  V30 3599 H 355.853 2.83758 1.53887 0
M  V30 3600 H 354.905 3.73763 -0.707492 0
M  V30 3601 H 356.217 4.93703 -0.711229 0
M  V30 3602 H 355.371 5.89322 1.4417 0
M  V30 3603 H 354.11 4.63107 1.52916 0
M  V30 3604 H 353.115 5.46289 -0.620366 0
M  V30 3605 H 354.34 6.75565 -0.691992 0
M  V30 3606 H 352.286 6.38133 1.52059 0
M  V30 3607 H 352.203 7.5559 0.248864 0
M  V30 3608 H 353.471 7.6621 1.43328 0
M  V30 3609 N 357.7 0.491464 1.49741 0
M  V30 3610 C 358.63 -0.28154 2.31796 0
M  V30 3611 C 359.611 -0.971473 1.3963 0
M  V30 3612 O 360.796 -0.964719 1.68543 0
M  V30 3613 C 357.926 -1.35203 3.19902 0
M  V30 3614 C 356.88 -0.782529 4.20786 0
M  V30 3615 C 356.206 -1.95283 4.97764 0
M  V30 3616 C 357.506 0.21999 5.21837 0
M  V30 3617 H 359.2 0.403355 2.96671 0
M  V30 3618 H 356.746 0.195425 1.42668 0
M  V30 3619 H 358.699 -1.90045 3.76113 0
M  V30 3620 H 357.423 -2.06598 2.52953 0
M  V30 3621 H 356.082 -0.255928 3.65706 0
M  V30 3622 H 355.73 -2.65423 4.2727 0
M  V30 3623 H 355.43 -1.57789 5.66018 0
M  V30 3624 H 356.954 -2.50577 5.56816 0
M  V30 3625 H 358.368 -0.23996 5.72798 0
M  V30 3626 H 356.765 0.51026 5.97927 0
M  V30 3627 H 357.835 1.13911 4.7133 0
M  V30 3628 N 359.178 -1.55987 0.224894 0
M  V30 3629 C 360.141 -2.19178 -0.670348 0
M  V30 3630 C 361.141 -1.15461 -1.11917 0
M  V30 3631 O 362.331 -1.40675 -1.02743 0
M  V30 3632 C 359.463 -2.81777 -1.9187 0
M  V30 3633 H 360.656 -2.99662 -0.119364 0
M  V30 3634 H 358.209 -1.5628 -0.0247128 0
M  V30 3635 H 358.944 -2.05172 -2.51147 0
M  V30 3636 H 358.729 -3.57732 -1.60531 0
M  V30 3637 H 360.219 -3.30205 -2.55645 0
M  V30 3638 N 360.656 0.0484629 -1.57525 0
M  V30 3639 C 361.588 1.08222 -2.02041 0
M  V30 3640 C 362.601 1.33621 -0.930012 0
M  V30 3641 O 363.79 1.3145 -1.20761 0
M  V30 3642 C 360.89 2.42818 -2.36416 0
M  V30 3643 C 360.063 2.37049 -3.67596 0
M  V30 3644 C 359.122 3.53937 -3.89378 0
M  V30 3645 O 358.148 3.34308 -4.60681 0
M  V30 3646 N 359.35 4.75126 -3.3352 0
M  V30 3647 H 362.115 0.702946 -2.9134 0
M  V30 3648 H 359.676 0.236745 -1.6016 0
M  V30 3649 H 361.668 3.197 -2.48141 0
M  V30 3650 H 360.238 2.72661 -1.52888 0
M  V30 3651 H 359.458 1.45395 -3.66407 0
M  V30 3652 H 360.746 2.30318 -4.53686 0
M  V30 3653 H 360.144 4.93976 -2.75688 0
M  V30 3654 H 358.701 5.49439 -3.50656 0
M  V30 3655 N 362.134 1.5431 0.320358 0
M  V30 3656 C 363.097 1.83195 1.3774 0
M  V30 3657 C 364.097 0.703906 1.44575 0
M  V30 3658 O 365.287 0.972214 1.44546 0
M  V30 3659 C 362.419 1.99487 2.76438 0
M  V30 3660 H 363.612 2.77642 1.1338 0
M  V30 3661 H 361.165 1.46076 0.556012 0
M  V30 3662 H 361.9 1.07262 3.06048 0
M  V30 3663 H 361.685 2.81575 2.7287 0
M  V30 3664 H 363.175 2.23271 3.52902 0
M  V30 3665 N 363.613 -0.582584 1.46437 0
M  V30 3666 C 364.86 -1.34079 1.51753 0
M  V30 3667 C 365.188 -1.93762 0.169299 0
M  V30 3668 O 364.443 -1.76989 -0.835062 0
M  V30 3669 C 364.742 -2.48964 2.56421 0
M  V30 3670 C 364.408 -2.07273 4.00436 0
M  V30 3671 C 363.07 -1.95618 4.39644 0
M  V30 3672 C 365.422 -1.75111 4.90903 0
M  V30 3673 C 362.75 -1.5006 5.67185 0
M  V30 3674 C 365.102 -1.31032 6.18881 0
M  V30 3675 C 363.766 -1.17954 6.56996 0
M  V30 3676 H 363.036 -0.49063 0.555304 0
M  V30 3677 H 365.683 -0.656007 1.79913 0
M  V30 3678 H 363.988 -3.22889 2.21923 0
M  V30 3679 H 365.685 -3.07178 2.57765 0
M  V30 3680 H 362.275 -2.17279 3.69443 0
M  V30 3681 H 366.459 -1.83001 4.61329 0
M  V30 3682 H 361.715 -1.38577 5.95488 0
M  V30 3683 H 365.889 -1.052 6.88408 0
M  V30 3684 H 363.516 -0.824279 7.55718 0
M  V30 3685 N 365.091 -1.34144 -0.827227 0
M  V30 3686 C 366.041 -1.21923 -1.92663 0
M  V30 3687 C 367.025 -0.119294 -1.60457 0
M  V30 3688 O 368.217 -0.348539 -1.73534 0
M  V30 3689 C 365.346 -0.972492 -3.29238 0
M  V30 3690 C 364.432 -2.1154 -3.67576 0
M  V30 3691 N 364.823 -3.36627 -3.77512 0
M  V30 3692 C 363.121 -2.02468 -3.97395 0
M  V30 3693 C 363.822 -4.11658 -4.1099 0
M  V30 3694 N 362.798 -3.40207 -4.23981 0
M  V30 3695 H 366.6 -2.16721 -1.98517 0
M  V30 3696 H 364.114 -1.2632 -1.02064 0
M  V30 3697 H 366.111 -0.865847 -4.0781 0
M  V30 3698 H 364.771 -0.0331509 -3.24683 0
M  V30 3699 H 365.782 -3.71234 -3.61118 0
M  V30 3700 H 362.459 -1.16265 -4.00985 0
M  V30 3701 H 363.849 -5.19657 -4.25918 0
M  V30 3702 N 366.569 1.04691 -1.17803 0
M  V30 3703 C 367.517 2.14665 -0.895635 0
M  V30 3704 C 368.511 1.68806 0.141679 0
M  V30 3705 O 369.717 1.79999 -0.00587914 0
M  V30 3706 H 366.092 0.701038 -0.272121 0
M  V30 3707 H 368.063 2.35685 -1.83017 0
M  V30 3708 C 366.812 3.45019 -0.430962 0
M  V30 3709 H 366.135 3.8071 -1.22064 0
M  V30 3710 H 367.575 4.23125 -0.272301 0
M  V30 3711 C 366.034 3.25943 0.852207 0
M  V30 3712 O 366.564 3.5296 1.91786 0
M  V30 3713 N 364.77 2.79304 0.802346 0
M  V30 3714 H 364.317 2.57518 -0.0650788 0
M  V30 3715 H 364.275 2.66921 1.66134 0
M  V30 3716 N 368.047 0.979072 1.23499 0
M  V30 3717 C 368.994 0.517904 2.24914 0
M  V30 3718 C 369.964 -0.442525 1.60097 0
M  V30 3719 O 371.149 -0.350365 1.87556 0
M  V30 3720 C 368.289 -0.174813 3.44657 0
M  V30 3721 C 367.402 0.825721 4.24035 0
M  V30 3722 C 366.537 0.107946 5.3109 0
M  V30 3723 C 365.576 1.09778 6.02175 0
M  V30 3724 N 364.713 0.40925 7.00906 0
M  V30 3725 H 369.553 1.38751 2.63727 0
M  V30 3726 H 367.09 0.695303 1.2963 0
M  V30 3727 H 369.048 -0.593233 4.12961 0
M  V30 3728 H 367.678 -1.0083 3.06648 0
M  V30 3729 H 366.73 1.36253 3.55161 0
M  V30 3730 H 368.042 1.58005 4.73113 0
M  V30 3731 H 367.196 -0.367904 6.05583 0
M  V30 3732 H 365.935 -0.678994 4.8295 0
M  V30 3733 H 364.94 1.5844 5.26476 0
M  V30 3734 H 366.165 1.88536 6.52404 0
M  V30 3735 H 364.111 -0.358506 6.5502 0
M  V30 3736 H 364.028 1.10226 7.47921 0
M  V30 3737 H 365.296 -0.0442557 7.79487 0
M  V30 3738 N 369.525 -1.3858 0.750561 0
M  V30 3739 C 370.936 -1.82927 0.373438 0
M  V30 3740 C 371.287 -1.62634 -1.09748 0
M  V30 3741 O 370.412 -1.12588 -1.84805 0
M  V30 3742 C 371.007 -3.32088 0.671029 0
M  V30 3743 C 369.566 -3.74795 0.34722 0
M  V30 3744 C 368.713 -2.61391 0.92575 0
M  V30 3745 H 371.664 -1.27351 0.946958 0
M  V30 3746 H 371.685 -3.80465 -0.0518269 0
M  V30 3747 H 371.197 -3.46826 1.74164 0
M  V30 3748 H 369.298 -3.65638 -0.716933 0
M  V30 3749 H 369.411 -4.71667 0.840656 0
M  V30 3750 H 367.775 -2.52265 0.351327 0
M  V30 3751 H 368.558 -2.78929 2.00133 0
M  V30 3752 N 371.003 -0.499398 -1.49478 0
M  V30 3753 C 371.913 0.284489 -2.32869 0
M  V30 3754 C 372.929 0.968885 -1.44529 0
M  V30 3755 O 374.105 0.95062 -1.77553 0
M  V30 3756 C 371.17 1.33594 -3.19928 0
M  V30 3757 C 370.231 0.665149 -4.24116 0
M  V30 3758 C 369.464 1.6665 -5.07014 0
M  V30 3759 O 369.687 2.89618 -4.91404 0
M  V30 3760 O 368.621 1.22271 -5.8935 0
M  V30 3761 H 372.447 -0.39802 -3.01081 0
M  V30 3762 H 370.032 -0.260758 -1.47107 0
M  V30 3763 H 371.914 1.94431 -3.73864 0
M  V30 3764 H 370.589 2.0014 -2.54412 0
M  V30 3765 H 369.496 0.0170769 -3.74096 0
M  V30 3766 H 370.829 0.0421555 -4.92182 0
M  V30 3767 N 372.481 1.55866 -0.233164 0
M  V30 3768 C 373.73 1.97779 0.39579 0
M  V30 3769 C 374.043 1.12419 1.60066 0
M  V30 3770 O 375.249 1.44283 2.29988 0
M  V30 3771 C 373.705 3.5188 0.755556 0
M  V30 3772 C 373.313 4.45959 -0.427152 0
M  V30 3773 C 375.057 4.02479 1.34946 0
M  V30 3774 C 372.964 5.91383 -0.0443043 0
M  V30 3775 H 371.894 0.738592 0.15165 0
M  V30 3776 H 374.545 1.80486 -0.331212 0
M  V30 3777 H 372.927 3.64816 1.5403 0
M  V30 3778 H 374.101 4.44776 -1.20462 0
M  V30 3779 H 372.416 4.05765 -0.935068 0
M  V30 3780 H 375.013 5.08637 1.649 0
M  V30 3781 H 375.356 3.49014 2.26925 0
M  V30 3782 H 375.889 3.92813 0.62791 0
M  V30 3783 H 372.628 6.48857 -0.930874 0
M  V30 3784 H 372.148 5.95734 0.697238 0
M  V30 3785 H 373.827 6.45893 0.378334 0
M  V30 3786 N 373.959 -0.0401083 1.57549 0
M  V30 3787 C 374.889 -1.04384 2.08869 0
M  V30 3788 C 375.87 -1.38407 0.988817 0
M  V30 3789 O 377.055 -1.47483 1.26342 0
M  V30 3790 C 374.185 -2.34808 2.55895 0
M  V30 3791 C 373.139 -2.15057 3.70047 0
M  V30 3792 C 372.465 -3.51145 4.03239 0
M  V30 3793 C 373.765 -1.54576 4.98902 0
M  V30 3794 H 375.459 -0.616666 2.92981 0
M  V30 3795 H 373.005 -0.295184 1.40942 0
M  V30 3796 H 374.958 -3.05346 2.90417 0
M  V30 3797 H 373.682 -2.79565 1.68853 0
M  V30 3798 H 372.341 -1.46954 3.35857 0
M  V30 3799 H 371.989 -3.93529 3.13279 0
M  V30 3800 H 371.689 -3.38758 4.80122 0
M  V30 3801 H 373.213 -4.23062 4.40285 0
M  V30 3802 H 374.627 -2.15017 5.31451 0
M  V30 3803 H 373.024 -1.52796 5.80322 0
M  V30 3804 H 374.094 -0.51039 4.82206 0
M  V30 3805 N 375.437 -1.54477 -0.31217 0
M  V30 3806 C 376.677 -1.74958 -1.05684 0
M  V30 3807 C 377.041 -0.518414 -1.84869 0
M  V30 3808 O 378.242 -0.600759 -2.62001 0
M  V30 3809 C 376.513 -2.99656 -1.94785 0
M  V30 3810 S 378.072 -3.4109 -2.76049 0
M  V30 3811 H 374.89 -0.615104 -0.356606 0
M  V30 3812 H 377.492 -1.92669 -0.331514 0
M  V30 3813 H 376.196 -3.87397 -1.35468 0
M  V30 3814 H 375.727 -2.845 -2.71704 0
M  V30 3815 H 377.742 -2.97283 -3.97287 0
M  V30 3816 N 376.915 0.57481 -1.46744 0
M  V30 3817 C 377.878 1.66533 -1.57478 0
M  V30 3818 C 378.878 1.54338 -0.451263 0
M  V30 3819 O 380.068 1.58814 -0.715813 0
M  V30 3820 C 377.2 3.05999 -1.50259 0
M  V30 3821 H 378.393 1.58372 -2.54673 0
M  V30 3822 H 375.946 0.793301 -1.34672 0
M  V30 3823 H 376.681 3.19709 -0.543725 0
M  V30 3824 H 376.466 3.16259 -2.31781 0
M  V30 3825 H 377.956 3.8537 -1.60872 0
M  V30 3826 N 378.394 1.34581 0.820102 0
M  V30 3827 C 379.622 1.3018 1.60813 0
M  V30 3828 C 380.037 -0.123551 1.88395 0
M  V30 3829 O 379.394 -1.07148 1.47735 0
M  V30 3830 C 379.445 2.09312 2.94739 0
M  V30 3831 O 379.166 3.46288 2.68358 0
M  V30 3832 C 380.667 2.1234 3.89136 0
M  V30 3833 H 377.887 0.447726 0.499782 0
M  V30 3834 H 380.431 1.77237 1.02017 0
M  V30 3835 H 378.586 1.65889 3.50085 0
M  V30 3836 H 379 3.87227 3.53774 0
M  V30 3837 H 380.474 2.72126 4.80262 0
M  V30 3838 H 380.951 1.11854 4.24718 0
M  V30 3839 H 381.557 2.55864 3.39726 0
M  V30 3840 N 379.872 -1.04064 1.18357 0
M  V30 3841 C 381.112 -1.78829 0.989921 0
M  V30 3842 C 381.476 -1.86106 -0.472095 0
M  V30 3843 O 382.677 -2.57076 -0.785187 0
M  V30 3844 C 380.948 -3.1823 1.6268 0
M  V30 3845 S 382.507 -4.09332 1.58091 0
M  V30 3846 H 379.325 -0.615754 0.355482 0
M  V30 3847 H 381.927 -1.24778 1.50501 0
M  V30 3848 H 380.631 -3.10543 2.68311 0
M  V30 3849 H 380.162 -3.77357 1.112 0
M  V30 3850 H 382.177 -4.92598 0.596817 0
M  V30 3851 N 381.35 -0.985608 -1.22978 0
M  V30 3852 C 382.3 -0.50118 -2.22423 0
M  V30 3853 C 383.284 0.426649 -1.5514 0
M  V30 3854 O 384.476 0.254656 -1.75159 0
M  V30 3855 C 381.605 0.190003 -3.42774 0
M  V30 3856 C 380.691 -0.757703 -4.17276 0
M  V30 3857 N 381.082 -1.90251 -4.68656 0
M  V30 3858 C 379.38 -0.57209 -4.42316 0
M  V30 3859 C 380.081 -2.49676 -5.25392 0
M  V30 3860 N 379.057 -1.78013 -5.13627 0
M  V30 3861 H 382.859 -1.37441 -2.59783 0
M  V30 3862 H 380.373 -0.846941 -1.38567 0
M  V30 3863 H 382.37 0.55439 -4.13197 0
M  V30 3864 H 381.03 1.05946 -3.06929 0
M  V30 3865 H 382.041 -2.28354 -4.64839 0
M  V30 3866 H 378.718 0.251909 -4.16739 0
M  V30 3867 H 380.108 -3.46384 -5.75732 0
M  V30 3868 N 382.828 1.3818 -0.7579 0
M  V30 3869 C 383.778 2.27741 -0.108674 0
M  V30 3870 C 384.762 1.45415 0.688709 0
M  V30 3871 O 385.954 1.68108 0.553956 0
M  V30 3872 C 383.083 3.34313 0.780367 0
M  V30 3873 C 382.169 4.24093 -0.0240977 0
M  V30 3874 N 382.56 4.9451 -1.06271 0
M  V30 3875 C 380.858 4.45542 0.202049 0
M  V30 3876 C 381.559 5.60675 -1.54979 0
M  V30 3877 N 380.535 5.36684 -0.864348 0
M  V30 3878 H 384.337 2.79649 -0.904071 0
M  V30 3879 H 381.851 1.51133 -0.594346 0
M  V30 3880 H 383.848 3.97368 1.26114 0
M  V30 3881 H 382.508 2.83962 1.57467 0
M  V30 3882 H 383.519 4.97345 -1.44459 0
M  V30 3883 H 380.196 4.06091 0.96935 0
M  V30 3884 H 381.586 6.26992 -2.41517 0
M  V30 3885 N 384.306 0.507319 1.49211 0
M  V30 3886 C 385.722 0.163682 1.58758 0
M  V30 3887 C 385.922 -1.33208 1.51188 0
M  V30 3888 O 384.978 -2.10855 1.38911 0
M  V30 3889 C 386.291 0.746095 2.91297 0
M  V30 3890 C 387.839 0.712773 3.04776 0
M  V30 3891 C 388.314 1.27336 4.39943 0
M  V30 3892 N 389.805 1.23433 4.46451 0
M  V30 3893 C 390.54 1.63821 5.495 0
M  V30 3894 N 390.036 2.11832 6.5962 0
M  V30 3895 N 391.829 1.55198 5.4025 0
M  V30 3896 H 383.98 1.47972 1.52375 0
M  V30 3897 H 386.243 0.614147 0.722168 0
M  V30 3898 H 385.949 1.79534 3.02424 0
M  V30 3899 H 385.823 0.210137 3.76614 0
M  V30 3900 H 388.21 -0.327656 2.93275 0
M  V30 3901 H 388.291 1.28595 2.21127 0
M  V30 3902 H 387.935 2.3126 4.52196 0
M  V30 3903 H 387.865 0.676066 5.22242 0
M  V30 3904 H 390.356 0.882627 3.67448 0
M  V30 3905 H 390.669 2.40703 7.34358 0
M  V30 3906 H 389.014 2.1581 6.60644 0
M  V30 3907 H 392.205 1.17505 4.53112 0
M  V30 3908 H 392.378 1.86997 6.20432 0
M  V30 3909 N 385.784 -1.5574 0.241426 0
M  V30 3910 C 387.009 -2.0366 -0.392111 0
M  V30 3911 C 387.434 -1.11969 -1.51144 0
M  V30 3912 O 386.792 -0.111594 -1.80956 0
M  V30 3913 C 386.84 -3.49638 -0.882371 0
M  V30 3914 O 385.944 -3.6108 -1.99235 0
M  V30 3915 H 385.285 -0.658379 -0.0862122 0
M  V30 3916 H 387.815 -2.01302 0.365881 0
M  V30 3917 H 387.825 -3.90351 -1.18702 0
M  V30 3918 H 386.5 -4.15852 -0.0632361 0
M  V30 3919 H 385.077 -3.32262 -1.69282 0
M  V30 3920 N 387.262 0.0317525 -1.57568 0
M  V30 3921 C 388.673 0.578692 -1.77505 0
M  V30 3922 C 389.024 1.75749 -0.872164 0
M  V30 3923 O 388.149 2.16298 -0.0663106 0
M  V30 3924 C 388.744 1.05658 -3.21904 0
M  V30 3925 C 387.303 1.54906 -3.43047 0
M  V30 3926 C 386.45 0.485939 -2.73009 0
M  V30 3927 H 389.401 -0.194475 -1.57504 0
M  V30 3928 H 389.422 1.92404 -3.28269 0
M  V30 3929 H 388.934 0.198422 -3.87592 0
M  V30 3930 H 387.035 2.42915 -2.82529 0
M  V30 3931 H 387.148 1.59841 -4.5165 0
M  V30 3932 H 385.512 0.940354 -2.36705 0
M  V30 3933 H 386.295 -0.362709 -3.41379 0
M  V30 3934 N 388.74 1.54641 0.303973 0
M  V30 3935 C 389.67 1.88386 1.3796 0
M  V30 3936 C 390.651 0.742485 1.5304 0
M  V30 3937 O 391.836 0.997959 1.66597 0
M  V30 3938 C 388.966 2.12854 2.74427 0
M  V30 3939 C 387.92 3.28702 2.74115 0
M  V30 3940 C 387.246 3.38582 4.13844 0
M  V30 3941 C 388.546 4.65881 2.3612 0
M  V30 3942 H 390.24 2.78474 1.09966 0
M  V30 3943 H 387.786 1.33988 0.527556 0
M  V30 3944 H 389.739 2.35047 3.49758 0
M  V30 3945 H 388.463 1.19535 3.03939 0
M  V30 3946 H 387.122 3.06428 2.0124 0
M  V30 3947 H 386.77 2.42784 4.40528 0
M  V30 3948 H 386.47 4.16453 4.14537 0
M  V30 3949 H 387.994 3.63031 4.90959 0
M  V30 3950 H 389.408 4.87823 3.01167 0
M  V30 3951 H 387.805 5.46444 2.48031 0
M  V30 3952 H 388.875 4.66799 1.3125 0
M  V30 3953 N 390.218 -0.567019 1.47046 0
M  V30 3954 C 391.443 -1.3551 1.57009 0
M  V30 3955 C 391.868 -1.86841 0.217259 0
M  V30 3956 O 391.226 -1.62435 -0.805268 0
M  V30 3957 C 391.274 -2.50777 2.5912 0
M  V30 3958 O 390.378 -3.52706 2.13711 0
M  V30 3959 H 389.719 -0.402919 0.52778 0
M  V30 3960 H 392.249 -0.686241 1.92748 0
M  V30 3961 H 392.259 -2.97481 2.79229 0
M  V30 3962 H 390.934 -2.12771 3.57353 0
M  V30 3963 H 389.511 -3.12374 2.03659 0
M  V30 3964 N 391.696 -1.35014 -0.812953 0
M  V30 3965 C 392.626 -1.30069 -1.93919 0
M  V30 3966 C 393.607 -0.176275 -1.69184 0
M  V30 3967 O 394.792 -0.370227 -1.90638 0
M  V30 3968 C 391.922 -1.06547 -3.30552 0
M  V30 3969 C 390.876 -2.15561 -3.69753 0
M  V30 3970 C 390.202 -1.77214 -5.04479 0
M  V30 3971 C 391.502 -3.57476 -3.808 0
M  V30 3972 H 393.196 -2.24303 -1.98314 0
M  V30 3973 H 390.742 -1.07977 -0.952736 0
M  V30 3974 H 392.695 -1.01729 -4.08937 0
M  V30 3975 H 391.419 -0.0875719 -3.26483 0
M  V30 3976 H 390.078 -2.19466 -2.9365 0
M  V30 3977 H 389.726 -0.780589 -4.96906 0
M  V30 3978 H 389.426 -2.50184 -5.31678 0
M  V30 3979 H 390.95 -1.7391 -5.8531 0
M  V30 3980 H 392.364 -3.55929 -4.4943 0
M  V30 3981 H 390.761 -4.29152 -4.19462 0
M  V30 3982 H 391.831 -3.94091 -2.82525 0
M  V30 3983 N 393.175 1.03435 -1.18907 0
M  V30 3984 C 394.403 1.80381 -1.01342 0
M  V30 3985 C 394.818 1.83649 0.438005 0
M  V30 3986 O 394.175 1.27655 1.30424 0
M  V30 3987 C 394.226 3.25689 -1.56873 0
M  V30 3988 O 393.947 3.22673 -2.96334 0
M  V30 3989 C 395.448 4.19255 -1.44014 0
M  V30 3990 H 392.668 0.56784 -0.35749 0
M  V30 3991 H 395.212 1.30317 -1.576 0
M  V30 3992 H 393.367 3.72962 -1.04777 0
M  V30 3993 H 393.781 4.13748 -3.22355 0
M  V30 3994 H 395.255 5.19123 -1.87657 0
M  V30 3995 H 395.732 4.37467 -0.389815 0
M  V30 3996 H 396.338 3.77851 -1.95214 0
M  V30 3997 N 394.653 0.992116 1.22453 0
M  V30 3998 C 396.064 0.702776 1.72968 0
M  V30 3999 C 396.415 -0.780399 1.80012 0
M  V30 4000 O 395.54 -1.61007 1.44589 0
M  V30 4001 C 396.135 1.26903 3.14135 0
M  V30 4002 C 394.694 1.02909 3.62059 0
M  V30 4003 C 393.841 1.38969 2.39964 0
M  V30 4004 H 396.792 1.16457 1.07812 0
M  V30 4005 H 396.813 0.647223 3.74955 0
M  V30 4006 H 396.325 2.34851 3.08977 0
M  V30 4007 H 394.426 -0.0337979 3.72585 0
M  V30 4008 H 394.539 1.69191 4.48231 0
M  V30 4009 H 392.903 0.808279 2.41535 0
M  V30 4010 H 393.686 2.4792 2.37467 0
M  V30 4011 N 396.131 -1.37776 0.765217 0
M  V30 4012 C 397.542 -1.82521 0.392819 0
M  V30 4013 C 397.893 -1.63789 -1.08017 0
M  V30 4014 O 397.018 -1.14542 -1.83601 0
M  V30 4015 C 397.613 -3.31358 0.706214 0
M  V30 4016 C 396.172 -3.74406 0.386952 0
M  V30 4017 C 395.319 -2.60394 0.953422 0
M  V30 4018 H 398.27 -1.2634 0.960412 0
M  V30 4019 H 398.291 -3.80498 -0.0114706 0
M  V30 4020 H 397.803 -3.44959 1.77833 0
M  V30 4021 H 395.904 -3.66377 -0.678112 0
M  V30 4022 H 396.017 -4.70749 0.890636 0
M  V30 4023 H 394.381 -2.51878 0.378064 0
M  V30 4024 H 395.164 -2.76791 2.03081 0
M  V30 4025 N 397.609 -0.515225 -1.4894 0
M  V30 4026 C 398.556 0.255567 -2.29381 0
M  V30 4027 C 399.526 0.947387 -1.36432 0
M  V30 4028 O 400.711 0.951288 -1.65394 0
M  V30 4029 C 397.851 1.30551 -3.19453 0
M  V30 4030 C 396.964 0.624029 -4.27469 0
M  V30 4031 C 396.099 1.65563 -5.0474 0
M  V30 4032 C 395.138 0.956802 -6.04576 0
M  V30 4033 N 394.275 1.93326 -6.74959 0
M  V30 4034 H 399.115 -0.436607 -2.94784 0
M  V30 4035 H 396.652 -0.227154 -1.45336 0
M  V30 4036 H 398.61 1.92639 -3.70062 0
M  V30 4037 H 397.24 1.96626 -2.56004 0
M  V30 4038 H 396.292 -0.110459 -3.8024 0
M  V30 4039 H 397.604 0.0746092 -4.98744 0
M  V30 4040 H 396.758 2.35119 -5.59289 0
M  V30 4041 H 395.497 2.23893 -4.3327 0
M  V30 4042 H 394.502 0.247097 -5.49244 0
M  V30 4043 H 395.727 0.379814 -6.78037 0
M  V30 4044 H 393.673 2.50591 -6.06251 0
M  V30 4045 H 393.59 1.43489 -7.42258 0
M  V30 4046 H 394.858 2.62126 -7.34105 0
M  V30 4047 N 399.087 1.5561 -0.249682 0
M  V30 4048 C 400.327 2.00916 0.37579 0
M  V30 4049 C 400.691 1.13409 1.54927 0
M  V30 4050 O 401.892 1.48183 2.24266 0
M  V30 4051 C 400.163 3.48949 0.772633 0
M  V30 4052 S 401.722 4.16261 1.38824 0
M  V30 4053 H 398.54 0.70112 0.118117 0
M  V30 4054 H 401.142 1.92052 -0.365567 0
M  V30 4055 H 399.846 4.103 -0.090683 0
M  V30 4056 H 399.377 3.61745 1.5461 0
M  V30 4057 H 401.392 4.17778 2.67724 0
M  V30 4058 N 400.565 -0.0233959 1.57583 0
M  V30 4059 C 401.813 -0.711654 1.89156 0
M  V30 4060 C 402.134 -1.75591 0.848096 0
M  V30 4061 O 401.404 -1.95547 -0.117566 0
M  V30 4062 H 399.984 -0.265835 0.698098 0
M  V30 4063 H 402.646 0.0119948 1.94896 0
M  V30 4064 H 401.742 -1.19766 2.88206 0
M  V30 4065 N 402.043 -1.548 -0.295768 0
M  V30 4066 C 403.268 -1.78653 -1.05346 0
M  V30 4067 C 403.693 -0.546894 -1.79974 0
M  V30 4068 O 403.051 0.502763 -1.7419 0
M  V30 4069 C 403.099 -2.99679 -2.00561 0
M  V30 4070 O 402.203 -2.7317 -3.08953 0
M  V30 4071 H 401.544 -0.59116 -0.302367 0
M  V30 4072 H 404.074 -2.01895 -0.331598 0
M  V30 4073 H 404.084 -3.27793 -2.42932 0
M  V30 4074 H 402.759 -3.89562 -1.4565 0
M  V30 4075 H 401.336 -2.56089 -2.71059 0
M  V30 4076 N 403.521 0.559213 -1.47345 0
M  V30 4077 C 404.761 1.32728 -1.55444 0
M  V30 4078 C 405.125 1.90838 -0.210895 0
M  V30 4079 O 406.326 2.68282 -0.166719 0
M  V30 4080 C 404.597 2.4092 -2.63993 0
M  V30 4081 S 406.156 3.2784 -2.91661 0
M  V30 4082 H 402.974 0.451883 -0.548929 0
M  V30 4083 H 405.576 0.640404 -1.84714 0
M  V30 4084 H 404.28 1.9666 -3.60212 0
M  V30 4085 H 403.811 3.14351 -2.36531 0
M  V30 4086 H 405.826 4.40341 -2.28722 0
M  V30 4087 N 404.999 1.35443 0.805782 0
M  V30 4088 C 405.949 1.24972 1.90699 0
M  V30 4089 C 406.933 0.144806 1.60247 0
M  V30 4090 O 408.125 0.376102 1.72958 0
M  V30 4091 C 405.254 1.02475 3.27649 0
M  V30 4092 C 404.34 2.17361 3.64164 0
M  V30 4093 N 404.731 3.42591 3.72109 0
M  V30 4094 C 403.029 2.08765 3.94123 0
M  V30 4095 C 403.73 4.18144 4.04389 0
M  V30 4096 N 402.706 3.4691 4.18515 0
M  V30 4097 H 406.508 2.19852 1.95044 0
M  V30 4098 H 404.022 1.27928 1.00041 0
M  V30 4099 H 406.019 0.930617 4.06381 0
M  V30 4100 H 404.679 0.0848009 3.24589 0
M  V30 4101 H 405.69 3.76932 3.55166 0
M  V30 4102 H 402.367 1.22629 3.99084 0
M  V30 4103 H 403.757 5.26367 4.17597 0
M  V30 4104 N 406.477 -1.02803 1.19454 0
M  V30 4105 C 407.705 -1.79841 1.02297 0
M  V30 4106 C 408.12 -1.83879 -0.428259 0
M  V30 4107 O 407.477 -1.28345 -1.29745 0
M  V30 4108 C 407.528 -3.24852 1.58598 0
M  V30 4109 O 407.249 -3.21097 2.98041 0
M  V30 4110 C 408.75 -4.18485 1.46236 0
M  V30 4111 H 405.97 -0.565936 0.360496 0
M  V30 4112 H 408.514 -1.2948 1.58288 0
M  V30 4113 H 406.669 -3.72401 1.06753 0
M  V30 4114 H 407.083 -4.12033 3.24545 0
M  V30 4115 H 408.557 -5.18121 1.90407 0
M  V30 4116 H 409.034 -4.37254 0.41301 0
M  V30 4117 H 409.64 -3.76811 1.97215 0
M  V30 4118 N 407.956 -0.998596 -1.21925 0
M  V30 4119 C 408.903 -0.553621 -2.24062 0
M  V30 4120 C 409.873 0.416999 -1.6078 0
M  V30 4121 O 411.058 0.320482 -1.88089 0
M  V30 4122 C 408.198 0.119959 -3.44891 0
M  V30 4123 C 407.311 -0.893077 -4.22668 0
M  V30 4124 C 406.446 -0.192424 -5.30851 0
M  V30 4125 C 405.485 -1.19344 -6.00353 0
M  V30 4126 N 404.622 -0.520707 -7.00166 0
M  V30 4127 H 409.462 -1.4293 -2.61486 0
M  V30 4128 H 406.999 -0.715838 -1.28507 0
M  V30 4129 H 408.957 0.527459 -4.13852 0
M  V30 4130 H 407.587 0.959389 -3.08214 0
M  V30 4131 H 406.639 -1.41886 -3.52948 0
M  V30 4132 H 407.951 -1.65512 -4.70539 0
M  V30 4133 H 407.105 0.271515 -6.06092 0
M  V30 4134 H 405.844 0.602075 -4.83969 0
M  V30 4135 H 404.849 -1.66795 -5.23889 0
M  V30 4136 H 406.074 -1.98891 -6.49322 0
M  V30 4137 H 404.02 0.254252 -6.55507 0
M  V30 4138 H 403.937 -1.2211 -7.46073 0
M  V30 4139 H 405.205 -0.0797596 -7.79459 0
M  V30 4140 N 409.434 1.37368 -0.772513 0
M  V30 4141 C 410.344 2.34053 -0.160081 0
M  V30 4142 C 411.36 1.60216 0.678728 0
M  V30 4143 O 412.536 1.92303 0.59847 0
M  V30 4144 C 409.601 3.3939 0.708182 0
M  V30 4145 C 408.662 4.29048 -0.147172 0
M  V30 4146 C 407.895 5.29354 0.679744 0
M  V30 4147 O 408.118 5.3723 1.91678 0
M  V30 4148 O 407.052 6.01835 0.0885444 0
M  V30 4149 H 410.878 2.88159 -0.959053 0
M  V30 4150 H 408.463 1.39543 -0.533685 0
M  V30 4151 H 410.345 4.03839 1.20384 0
M  V30 4152 H 409.02 2.8761 1.48533 0
M  V30 4153 H 407.927 3.67697 -0.689205 0
M  V30 4154 H 409.26 4.84134 -0.887423 0
M  V30 4155 N 410.912 0.523116 1.48665 0
M  V30 4156 C 412.161 -0.01544 2.01694 0
M  V30 4157 C 412.474 -1.35975 1.40606 0
M  V30 4158 O 413.68 -1.98627 1.85093 0
M  V30 4159 C 412.136 -0.0779303 3.59816 0
M  V30 4160 C 411.744 1.26107 4.29885 0
M  V30 4161 C 413.488 -0.565678 4.20714 0
M  V30 4162 C 411.395 1.15954 5.79921 0
M  V30 4163 H 410.325 -0.00954163 0.75394 0
M  V30 4164 H 412.976 0.665865 1.70993 0
M  V30 4165 H 411.358 -0.824165 3.87329 0
M  V30 4166 H 412.532 2.02233 4.14051 0
M  V30 4167 H 410.847 1.68401 3.80828 0
M  V30 4168 H 413.444 -0.6595 5.30617 0
M  V30 4169 H 413.787 -1.56984 3.85567 0
M  V30 4170 H 414.32 0.12467 3.97605 0
M  V30 4171 H 411.059 2.13864 6.19631 0
M  V30 4172 H 410.579 0.439529 5.98187 0
M  V30 4173 H 412.258 0.847361 6.41427 0
M  V30 4174 N 412.39 -1.55475 0.257931 0
M  V30 4175 C 413.667 -1.91155 -0.414629 0
M  V30 4176 C 414.047 -1.18008 -1.75035 0
M  V30 4177 O 413.395 -0.301193 -2.26506 0
M  V30 4178 C 413.605 -3.44283 -0.571859 0
M  V30 4179 C 414.953 -4.15744 -0.862678 0
M  V30 4180 O 415.977 -3.50083 -0.657314 0
M  V30 4181 O 414.836 -5.31909 -1.2544 0
M  V30 4182 H 411.93 -0.796016 -0.22425 0
M  V30 4183 H 414.476 -1.66976 0.302814 0
M  V30 4184 H 413.248 -3.89558 0.368844 0
M  V30 4185 H 412.871 -3.7436 -1.33943 0
M  V30 4186 N 413.868 0.0150385 -1.57593 0
M  V30 4187 C 414.815 1.01126 -2.07466 0
M  V30 4188 C 415.785 1.35064 -0.966794 0
M  V30 4189 O 416.97 1.4516 -1.23827 0
M  V30 4190 C 414.11 2.30276 -2.57035 0
M  V30 4191 C 413.223 2.02373 -3.81666 0
M  V30 4192 C 412.358 3.25496 -4.19793 0
M  V30 4193 C 411.397 2.93211 -5.37303 0
M  V30 4194 N 410.534 4.08826 -5.70794 0
M  V30 4195 H 415.374 0.57901 -2.92321 0
M  V30 4196 H 412.911 0.27426 -1.44521 0
M  V30 4197 H 414.869 3.05757 -2.83846 0
M  V30 4198 H 413.499 2.71197 -1.75077 0
M  V30 4199 H 412.551 1.17327 -3.61854 0
M  V30 4200 H 413.863 1.74567 -4.67256 0
M  V30 4201 H 413.017 4.09333 -4.47807 0
M  V30 4202 H 411.756 3.56428 -3.32882 0
M  V30 4203 H 410.761 2.07777 -5.09027 0
M  V30 4204 H 411.986 2.63542 -6.25877 0
M  V30 4205 H 409.932 4.39682 -4.86842 0
M  V30 4206 H 409.849 3.84491 -6.50924 0
M  V30 4207 H 411.117 4.93496 -6.03392 0
M  V30 4208 N 415.346 1.54954 0.287554 0
M  V30 4209 C 416.309 1.86076 1.33823 0
M  V30 4210 C 417.309 0.734414 1.43049 0
M  V30 4211 O 418.499 1.00266 1.42452 0
M  V30 4212 C 415.631 2.05305 2.72144 0
M  V30 4213 H 416.824 2.79984 1.07465 0
M  V30 4214 H 414.377 1.47223 0.524902 0
M  V30 4215 H 415.112 1.1373 3.03704 0
M  V30 4216 H 414.897 2.873 2.66836 0
M  V30 4217 H 416.387 2.30706 3.48087 0
M  V30 4218 N 416.824 -0.551391 1.4764 0
M  V30 4219 C 417.772 -1.67896 1.60978 0
M  V30 4220 C 418.766 -1.62549 0.476877 0
M  V30 4221 O 419.972 -1.67664 0.654878 0
M  V30 4222 H 416.347 -0.555649 0.506713 0
M  V30 4223 H 418.318 -1.53784 2.55721 0
M  V30 4224 C 417.067 -3.06234 1.64669 0
M  V30 4225 H 416.39 -3.11033 2.51194 0
M  V30 4226 H 417.83 -3.84804 1.7805 0
M  V30 4227 C 416.289 -3.34737 0.381115 0
M  V30 4228 O 416.819 -3.98381 -0.515297 0
M  V30 4229 N 415.025 -2.8944 0.259354 0
M  V30 4230 H 414.572 -2.37827 0.98976 0
M  V30 4231 H 414.53 -3.08882 -0.586464 0
M  V30 4232 N 418.302 -1.35869 -0.798587 0
M  V30 4233 C 419.713 -1.26498 -1.37314 0
M  V30 4234 C 420.064 0.0991899 -1.95949 0
M  V30 4235 O 419.189 1.0004 -1.91888 0
M  V30 4236 C 419.784 -2.29054 -2.49639 0
M  V30 4237 C 418.343 -2.234 -3.02935 0
M  V30 4238 C 417.49 -2.14329 -1.75949 0
M  V30 4239 H 420.441 -1.46881 -0.600971 0
M  V30 4240 H 420.462 -1.92166 -3.28409 0
M  V30 4241 H 419.974 -3.2833 -2.06933 0
M  V30 4242 H 418.075 -1.27562 -3.50084 0
M  V30 4243 H 418.188 -3.15703 -3.60372 0
M  V30 4244 H 416.552 -1.60435 -1.9782 0
M  V30 4245 H 417.335 -3.15477 -1.35384 0
M  V30 4246 N 419.78 1.02168 -1.19998 0
M  V30 4247 C 421.028 1.75338 -1.00504 0
M  V30 4248 C 421.349 1.89387 0.464506 0
M  V30 4249 O 420.619 1.43268 1.33608 0
M  V30 4250 H 419.199 0.649564 -0.368885 0
M  V30 4251 H 421.861 1.23205 -1.51018 0
M  V30 4252 H 420.957 2.75892 -1.45912 0
M  V30 4253 N 421.258 1.00505 1.21394 0
M  V30 4254 C 422.674 0.717873 1.42544 0
M  V30 4255 C 422.874 -0.706936 1.88692 0
M  V30 4256 O 421.93 -1.47627 2.04847 0
M  V30 4257 C 423.243 1.73377 2.45684 0
M  V30 4258 C 424.791 1.75059 2.59467 0
M  V30 4259 C 425.266 2.75545 3.6584 0
M  V30 4260 N 426.757 2.74213 3.73311 0
M  V30 4261 C 427.492 3.48626 4.55245 0
M  V30 4262 N 426.988 4.32678 5.41075 0
M  V30 4263 N 428.781 3.37276 4.49668 0
M  V30 4264 H 420.932 1.92506 0.897503 0
M  V30 4265 H 423.195 0.830919 0.456375 0
M  V30 4266 H 422.901 2.75395 2.18748 0
M  V30 4267 H 422.775 1.53647 3.44489 0
M  V30 4268 H 425.162 0.737337 2.8574 0
M  V30 4269 H 425.243 1.98861 1.60897 0
M  V30 4270 H 424.887 3.77028 3.40313 0
M  V30 4271 H 424.817 2.49009 4.64007 0
M  V30 4272 H 427.308 2.13234 3.11993 0
M  V30 4273 H 427.621 4.86253 6.00648 0
M  V30 4274 H 425.966 4.3676 5.40616 0
M  V30 4275 H 429.157 2.71043 3.81646 0
M  V30 4276 H 429.33 3.95524 5.13288 0
M  V30 4277 N 422.737 -1.36956 0.779787 0
M  V30 4278 C 424.148 -1.82094 0.412156 0
M  V30 4279 C 424.499 -1.64926 -1.06273 0
M  V30 4280 O 423.624 -1.16483 -1.82375 0
M  V30 4281 C 424.219 -3.3059 0.741319 0
M  V30 4282 C 422.778 -3.73974 0.426641 0
M  V30 4283 C 421.925 -2.59368 0.980987 0
M  V30 4284 H 424.876 -1.25314 0.973758 0
M  V30 4285 H 424.897 -3.80489 0.028887 0
M  V30 4286 H 424.409 -3.43054 1.81482 0
M  V30 4287 H 422.51 -3.67076 -0.639215 0
M  V30 4288 H 422.623 -4.69778 0.940515 0
M  V30 4289 H 420.987 -2.51463 0.404757 0
M  V30 4290 H 421.77 -2.74621 2.06005 0
M  V30 4291 N 424.215 -0.530993 -1.48385 0
M  V30 4292 C 425.163 0.244595 -2.3131 0
M  V30 4293 C 426.157 0.93451 -1.41291 0
M  V30 4294 O 427.363 0.85878 -1.58193 0
M  V30 4295 H 423.738 0.0977472 -0.74562 0
M  V30 4296 H 425.709 -0.474369 -2.94605 0
M  V30 4297 C 424.458 1.2779 -3.23365 0
M  V30 4298 H 423.781 0.756439 -3.92579 0
M  V30 4299 H 425.221 1.79198 -3.84271 0
M  V30 4300 C 423.68 2.31205 -2.45042 0
M  V30 4301 O 424.21 3.37661 -2.17596 0
M  V30 4302 N 422.416 2.04446 -2.0652 0
M  V30 4303 H 421.963 1.17891 -2.2904 0
M  V30 4304 H 421.921 2.73861 -1.54427 0
M  V30 4305 N 425.693 1.55336 -0.266172 0
M  V30 4306 C 426.623 2.25146 0.618981 0
M  V30 4307 C 427.604 1.23845 1.16604 0
M  V30 4308 O 428.789 1.52544 1.20183 0
M  V30 4309 C 425.919 2.96572 1.80728 0
M  V30 4310 C 424.873 4.04726 1.39215 0
M  V30 4311 C 424.199 4.63678 2.66283 0
M  V30 4312 C 425.499 5.19407 0.548942 0
M  V30 4313 H 427.193 2.99377 0.0368116 0
M  V30 4314 H 424.739 1.43991 0.0162651 0
M  V30 4315 H 426.692 3.44116 2.43232 0
M  V30 4316 H 425.416 2.19861 2.41514 0
M  V30 4317 H 424.075 3.57979 0.790351 0
M  V30 4318 H 423.723 3.83646 3.25308 0
M  V30 4319 H 423.423 5.367 2.39222 0
M  V30 4320 H 424.947 5.13967 3.29651 0
M  V30 4321 H 426.361 5.63059 1.07876 0
M  V30 4322 H 424.758 5.98936 0.373593 0
M  V30 4323 H 425.828 4.8295 -0.434394 0
M  V30 4324 N 427.171 -0.0066808 1.57599 0
M  V30 4325 C 428.104 -1.03397 2.03431 0
M  V30 4326 C 429.082 -1.33872 0.922877 0
M  V30 4327 O 430.266 -1.4615 1.19048 0
M  V30 4328 C 427.393 -2.36325 2.42628 0
M  V30 4329 C 426.439 -2.21557 3.64438 0
M  V30 4330 S 427.272 -1.54789 5.12641 0
M  V30 4331 C 428.428 -2.8916 5.55101 0
M  V30 4332 H 428.661 -0.643687 2.90248 0
M  V30 4333 H 426.194 -0.217349 1.52863 0
M  V30 4334 H 428.152 -3.12759 2.65879 0
M  V30 4335 H 426.813 -2.72495 1.56222 0
M  V30 4336 H 426.006 -3.1974 3.89592 0
M  V30 4337 H 425.608 -1.53267 3.41153 0
M  V30 4338 H 427.9 -3.8547 5.57153 0
M  V30 4339 H 428.843 -2.68713 6.55133 0
M  V30 4340 H 429.251 -2.92762 4.82649 0
M  V30 4341 N 428.649 -1.55105 -0.279332 0
M  V30 4342 C 429.612 -1.86783 -1.32834 0
M  V30 4343 C 430.612 -0.74199 -1.42657 0
M  V30 4344 O 431.802 -1.0102 -1.41918 0
M  V30 4345 C 428.934 -2.06746 -2.71052 0
M  V30 4346 H 430.127 -2.8055 -1.05979 0
M  V30 4347 H 427.68 -1.47499 -0.517087 0
M  V30 4348 H 428.415 -1.15339 -3.03097 0
M  V30 4349 H 428.2 -2.88711 -2.65309 0
M  V30 4350 H 429.69 -2.32549 -3.46858 0
M  V30 4351 N 430.127 0.543554 -1.4793 0
M  V30 4352 C 431.09 1.63156 -1.60975 0
M  V30 4353 C 432.09 1.53346 -0.483899 0
M  V30 4354 O 433.28 1.5726 -0.749339 0
M  V30 4355 C 430.412 3.02743 -1.56716 0
M  V30 4356 H 431.605 1.52934 -2.57975 0
M  V30 4357 H 429.158 0.764557 -1.36324 0
M  V30 4358 H 429.893 3.18484 -0.611418 0
M  V30 4359 H 429.678 3.11272 -2.38438 0
M  V30 4360 H 431.168 3.81871 -1.6901 0
M  V30 4361 N 431.605 1.3629 0.791371 0
M  V30 4362 C 432.835 1.33368 1.57786 0
M  V30 4363 C 433.243 -0.0875188 1.88997 0
M  V30 4364 O 432.586 -1.05427 1.50435 0
M  V30 4365 C 432.648 2.08802 2.92646 0
M  V30 4366 C 432.312 3.57903 2.84174 0
M  V30 4367 C 433.309 4.52191 2.56553 0
M  V30 4368 C 430.994 4.00762 3.02812 0
M  V30 4369 C 432.988 5.87315 2.47669 0
M  V30 4370 C 430.675 5.35977 2.93551 0
M  V30 4371 C 431.673 6.29066 2.66017 0
M  V30 4372 O 431.361 7.61798 2.56746 0
M  V30 4373 H 431.093 0.459166 0.496128 0
M  V30 4374 H 433.647 1.79952 0.990269 0
M  V30 4375 H 431.877 1.56878 3.53449 0
M  V30 4376 H 433.566 1.98762 3.53904 0
M  V30 4377 H 434.332 4.20393 2.41858 0
M  V30 4378 H 430.211 3.2868 3.2325 0
M  V30 4379 H 433.755 6.59943 2.26099 0
M  V30 4380 H 429.652 5.67384 3.07808 0
M  V30 4381 H 430.42 7.71898 2.72242 0
M  V30 4382 N 433.083 -1.0153 1.20538 0
M  V30 4383 C 434.033 -2.08482 0.922991 0
M  V30 4384 C 435.017 -1.60469 -0.117702 0
M  V30 4385 O 436.209 -1.76772 0.0898465 0
M  V30 4386 C 433.338 -3.39952 0.478312 0
M  V30 4387 C 432.424 -3.94662 1.5525 0
M  V30 4388 N 432.815 -4.22866 2.77521 0
M  V30 4389 C 431.113 -4.22825 1.41897 0
M  V30 4390 C 431.814 -4.67002 3.4682 0
M  V30 4391 N 430.79 -4.69356 2.74237 0
M  V30 4392 H 434.592 -2.28199 1.85209 0
M  V30 4393 H 432.106 -1.19512 1.09957 0
M  V30 4394 H 434.103 -4.16105 0.257408 0
M  V30 4395 H 432.763 -3.21648 -0.444148 0
M  V30 4396 H 433.774 -4.11732 3.1416 0
M  V30 4397 H 430.451 -4.13714 0.561015 0
M  V30 4398 H 431.841 -4.97632 4.51455 0
M  V30 4399 N 434.561 -1.01147 -1.20859 0
M  V30 4400 C 435.491 -0.597663 -2.25722 0
M  V30 4401 C 436.472 0.384744 -1.65692 0
M  V30 4402 O 437.657 0.271303 -1.92296 0
M  V30 4403 C 434.787 0.0700149 -3.47229 0
M  V30 4404 C 433.741 -0.832843 -4.19819 0
M  V30 4405 C 433.067 -0.0312202 -5.34691 0
M  V30 4406 C 434.367 -2.1385 -4.76514 0
M  V30 4407 H 436.061 -1.47423 -2.60589 0
M  V30 4408 H 433.607 -0.710301 -1.25263 0
M  V30 4409 H 435.56 0.37103 -4.19763 0
M  V30 4410 H 434.284 0.981259 -3.11511 0
M  V30 4411 H 432.943 -1.11778 -3.49144 0
M  V30 4412 H 432.591 0.881515 -4.95215 0
M  V30 4413 H 432.291 -0.632434 -5.84187 0
M  V30 4414 H 433.815 0.26346 -6.10031 0
M  V30 4415 H 435.229 -1.9002 -5.40893 0
M  V30 4416 H 433.626 -2.69012 -5.36426 0
M  V30 4417 H 434.696 -2.80495 -3.95538 0
M  V30 4418 N 436.039 1.36541 -0.78704 0
M  V30 4419 C 436.971 2.28761 -0.141773 0
M  V30 4420 C 437.984 1.49365 0.647599 0
M  V30 4421 O 439.173 1.71836 0.483173 0
M  V30 4422 C 436.273 3.28771 0.822368 0
M  V30 4423 C 435.446 4.3732 0.0835594 0
M  V30 4424 C 434.505 5.17307 0.963296 0
M  V30 4425 O 433.531 5.67638 0.421419 0
M  V30 4426 N 434.733 5.33515 2.28784 0
M  V30 4427 H 437.498 2.84777 -0.933919 0
M  V30 4428 H 435.059 1.48682 -0.640735 0
M  V30 4429 H 437.051 3.79169 1.41468 0
M  V30 4430 H 435.621 2.73412 1.5154 0
M  V30 4431 H 434.841 3.88118 -0.689809 0
M  V30 4432 H 436.129 5.0701 -0.426358 0
M  V30 4433 H 435.527 4.94234 2.75226 0
M  V30 4434 H 434.084 5.87165 2.82985 0
M  V30 4435 N 437.518 0.538854 1.48102 0
M  V30 4436 C 438.758 0.0101209 2.04397 0
M  V30 4437 C 439.122 -1.30741 1.40609 0
M  V30 4438 O 440.323 -1.92272 1.87843 0
M  V30 4439 C 438.594 -0.100232 3.57259 0
M  V30 4440 S 440.153 -0.577746 4.3498 0
M  V30 4441 H 436.971 0.0163171 0.710813 0
M  V30 4442 H 439.573 0.721429 1.81702 0
M  V30 4443 H 438.277 0.863351 4.01216 0
M  V30 4444 H 437.808 -0.835651 3.84422 0
M  V30 4445 H 439.823 -1.84073 4.60794 0
M  V30 4446 N 438.996 -1.55193 0.274407 0
M  V30 4447 C 439.929 -2.18606 -0.654712 0
M  V30 4448 C 440.907 -1.14677 -1.15273 0
M  V30 4449 O 442.091 -1.43198 -1.22583 0
M  V30 4450 C 439.218 -2.80875 -1.89281 0
M  V30 4451 C 438.264 -3.981 -1.53032 0
M  V30 4452 S 439.097 -5.32025 -0.609107 0
M  V30 4453 C 440.253 -5.97761 -1.85559 0
M  V30 4454 H 440.486 -2.97074 -0.115894 0
M  V30 4455 H 438.019 -1.54288 0.05867 0
M  V30 4456 H 439.977 -3.17381 -2.60345 0
M  V30 4457 H 438.638 -2.02302 -2.40277 0
M  V30 4458 H 437.831 -4.40356 -2.45158 0
M  V30 4459 H 437.433 -3.63013 -0.899874 0
M  V30 4460 H 439.725 -6.16951 -2.7996 0
M  V30 4461 H 440.668 -6.92545 -1.47605 0
M  V30 4462 H 441.076 -5.27113 -2.02021 0
M  V30 4463 N 440.474 -0.00167713 -1.576 0
M  V30 4464 C 441.722 0.681471 -1.90264 0
M  V30 4465 C 442.043 1.7422 -0.875924 0
M  V30 4466 O 441.313 1.95709 0.0864412 0
M  V30 4467 H 439.893 0.254696 -0.702239 0
M  V30 4468 H 442.555 -0.0429996 -1.94853 0
M  V30 4469 H 441.651 1.15166 -2.90075 0
M  V30 4470 N 441.952 1.55251 0.271103 0
M  V30 4471 C 443.192 1.77698 1.01008 0
M  V30 4472 C 443.556 0.567246 1.83429 0
M  V30 4473 O 444.757 0.670013 2.60316 0
M  V30 4474 C 443.028 3.04715 1.86772 0
M  V30 4475 S 444.587 3.48289 2.66909 0
M  V30 4476 H 441.405 0.624343 0.340172 0
M  V30 4477 H 444.007 1.9348 0.280315 0
M  V30 4478 H 442.711 3.90853 1.25149 0
M  V30 4479 H 442.242 2.91604 2.64066 0
M  V30 4480 H 444.257 3.07712 3.89266 0
M  V30 4481 N 443.43 -0.535701 1.48216 0
M  V30 4482 C 444.38 -1.63688 1.58714 0
M  V30 4483 C 445.364 -1.54635 0.444615 0
M  V30 4484 O 446.556 -1.62753 0.695742 0
M  V30 4485 C 443.685 -3.02423 1.62466 0
M  V30 4486 C 442.771 -3.16601 2.82178 0
M  V30 4487 N 443.162 -3.00771 4.06658 0
M  V30 4488 C 441.46 -3.47645 2.79391 0
M  V30 4489 C 442.161 -3.18213 4.86945 0
M  V30 4490 N 441.137 -3.45528 4.19656 0
M  V30 4491 H 444.939 -1.5005 2.5271 0
M  V30 4492 H 442.453 -0.741018 1.44508 0
M  V30 4493 H 444.45 -3.81517 1.6808 0
M  V30 4494 H 443.11 -3.17157 0.695826 0
M  V30 4495 H 444.121 -2.77652 4.37184 0
M  V30 4496 H 440.798 -3.68771 1.95739 0
M  V30 4497 H 442.188 -3.1076 5.95716 0
M  V30 4498 N 444.908 -1.36708 -0.784132 0
M  V30 4499 C 445.855 -1.31466 -1.89698 0
M  V30 4500 C 446.825 -0.18239 -1.65096 0
M  V30 4501 O 448.01 -0.369762 -1.87183 0
M  V30 4502 C 445.15 -1.1151 -3.26588 0
M  V30 4503 C 444.263 -2.33859 -3.63227 0
M  V30 4504 C 443.398 -2.06873 -4.89262 0
M  V30 4505 C 442.437 -3.25154 -5.18595 0
M  V30 4506 N 441.574 -2.978 -6.35814 0
M  V30 4507 H 446.414 -2.26619 -1.93515 0
M  V30 4508 H 443.951 -1.12625 -0.946256 0
M  V30 4509 H 445.909 -0.979653 -4.05535 0
M  V30 4510 H 444.539 -0.200103 -3.22179 0
M  V30 4511 H 443.591 -2.58188 -2.79362 0
M  V30 4512 H 444.903 -3.22109 -3.8085 0
M  V30 4513 H 444.057 -1.90289 -5.76086 0
M  V30 4514 H 442.796 -1.15942 -4.73718 0
M  V30 4515 H 441.801 -3.42292 -4.30251 0
M  V30 4516 H 443.026 -4.1692 -5.36055 0
M  V30 4517 H 440.972 -2.09485 -6.21653 0
M  V30 4518 H 440.889 -3.7959 -6.53794 0
M  V30 4519 H 442.157 -2.84805 -7.25607 0
M  V30 4520 N 446.386 1.0089 -1.21074 0
M  V30 4521 C 447.634 1.74262 -1.02358 0
M  V30 4522 C 447.955 1.89869 0.444393 0
M  V30 4523 O 447.225 1.44677 1.32081 0
M  V30 4524 H 445.805 0.645615 -0.375754 0
M  V30 4525 H 448.467 1.21596 -1.52317 0
M  V30 4526 H 447.563 2.74328 -1.4883 0
M  V30 4527 N 447.864 1.01787 1.20321 0
M  V30 4528 C 448.797 0.533882 2.21867 0
M  V30 4529 C 449.775 -0.419361 1.57099 0
M  V30 4530 O 450.959 -0.339062 1.85426 0
M  V30 4531 C 448.086 -0.222899 3.37966 0
M  V30 4532 C 447.132 0.680091 4.21043 0
M  V30 4533 S 447.965 2.14997 4.90445 0
M  V30 4534 C 449.121 1.40339 6.09964 0
M  V30 4535 H 449.354 1.39429 2.62577 0
M  V30 4536 H 446.887 0.826867 1.30393 0
M  V30 4537 H 448.845 -0.653425 4.05266 0
M  V30 4538 H 447.506 -1.0589 2.95713 0
M  V30 4539 H 446.699 0.0964704 5.03908 0
M  V30 4540 H 446.301 1.04845 3.59004 0
M  V30 4541 H 448.593 0.68407 6.74038 0
M  V30 4542 H 449.536 2.20823 6.72787 0
M  V30 4543 H 449.944 0.905716 5.57187 0
M  V30 4544 N 449.342 -1.36122 0.79427 0
M  V30 4545 C 450.619 -1.93398 0.292685 0
M  V30 4546 C 450.999 -1.72567 -1.21589 0
M  V30 4547 O 450.347 -1.08745 -2.00965 0
M  V30 4548 C 450.557 -3.42099 0.690614 0
M  V30 4549 C 451.905 -4.19231 0.673105 0
M  V30 4550 O 452.929 -3.50559 0.631389 0
M  V30 4551 O 451.788 -5.41732 0.720362 0
M  V30 4552 H 448.882 -0.823712 0.0736693 0
M  V30 4553 H 451.428 -1.45273 0.87714 0
M  V30 4554 H 450.2 -3.50938 1.73085 0
M  V30 4555 H 449.823 -3.97519 0.0803036 0
M  V30 4556 N 450.82 -0.546701 -1.47814 0
M  V30 4557 C 452.066 -0.0187684 -2.02791 0
M  V30 4558 C 452.399 1.32338 -1.42128 0
M  V30 4559 O 451.674 1.85867 -0.573023 0
M  V30 4560 C 451.957 0.0854985 -3.59998 0
M  V30 4561 C 451.81 -1.283 -4.31114 0
M  V30 4562 C 453.129 0.80412 -4.32691 0
M  V30 4563 H 450.248 -0.0082946 -0.736953 0
M  V30 4564 H 452.89 -0.706962 -1.76358 0
M  V30 4565 H 451.04 0.671609 -3.82651 0
M  V30 4566 H 452.712 -1.91151 -4.19832 0
M  V30 4567 H 450.955 -1.86049 -3.91878 0
M  V30 4568 H 451.626 -1.16287 -5.39612 0
M  V30 4569 H 454.102 0.306576 -4.14969 0
M  V30 4570 H 452.978 0.846011 -5.42341 0
M  V30 4571 H 453.239 1.85802 -4.01161 0
M  V30 4572 N 452.299 1.55045 -0.282633 0
M  V30 4573 C 453.262 2.21515 0.588539 0
M  V30 4574 C 454.262 1.19535 1.07554 0
M  V30 4575 O 455.452 1.44391 0.974514 0
M  V30 4576 C 452.584 2.88704 1.8128 0
M  V30 4577 H 453.777 2.99899 0.00806397 0
M  V30 4578 H 451.33 1.56265 -0.0333067 0
M  V30 4579 H 452.065 2.14352 2.43359 0
M  V30 4580 H 451.85 3.63443 1.47144 0
M  V30 4581 H 453.34 3.39465 2.43214 0
M  V30 4582 N 453.777 0.010035 1.57597 0
M  V30 4583 C 455.193 -0.346164 1.55801 0
M  V30 4584 C 455.393 -1.74144 1.01371 0
M  V30 4585 O 454.449 -2.43938 0.651968 0
M  V30 4586 C 455.762 -0.212216 2.9995 0
M  V30 4587 C 457.31 -0.286409 3.11687 0
M  V30 4588 C 457.785 -0.18147 4.5764 0
M  V30 4589 N 459.276 -0.239056 4.62583 0
M  V30 4590 C 460.011 -0.181351 5.73113 0
M  V30 4591 N 459.507 -0.073661 6.92761 0
M  V30 4592 N 461.3 -0.233949 5.61613 0
M  V30 4593 H 453.451 0.922657 1.91313 0
M  V30 4594 H 455.714 0.354595 0.879185 0
M  V30 4595 H 455.42 0.748169 3.4365 0
M  V30 4596 H 455.294 -0.990224 3.6397 0
M  V30 4597 H 457.681 -1.23724 2.67911 0
M  V30 4598 H 457.762 0.521645 2.50425 0
M  V30 4599 H 457.406 0.765863 5.02093 0
M  V30 4600 H 457.336 -1.00814 5.1686 0
M  V30 4601 H 459.827 -0.32321 3.76515 0
M  V30 4602 H 460.14 -0.0358003 7.72792 0
M  V30 4603 H 458.485 -0.0391461 6.94989 0
M  V30 4604 H 461.676 -0.316347 4.6703 0
M  V30 4605 H 461.849 -0.185514 6.47734 0
M  V30 4606 N 455.255 -1.55392 -0.262866 0
M  V30 4607 C 456.666 -1.67079 -0.833158 0
M  V30 4608 C 457.017 -0.604539 -1.86654 0
M  V30 4609 O 456.142 0.252138 -2.14926 0
M  V30 4610 C 456.737 -3.02891 -1.51797 0
M  V30 4611 C 455.296 -3.16571 -2.03617 0
M  V30 4612 C 454.443 -2.62909 -0.881701 0
M  V30 4613 H 457.394 -1.58652 -0.0389986 0
M  V30 4614 H 457.415 -2.96445 -2.38538 0
M  V30 4615 H 456.927 -3.80473 -0.765619 0
M  V30 4616 H 455.028 -2.43782 -2.81782 0
M  V30 4617 H 455.141 -4.23271 -2.24452 0
M  V30 4618 H 453.505 -2.20324 -1.27786 0
M  V30 4619 H 454.288 -3.43003 -0.14269 0
M  V30 4620 N 456.733 0.527833 -1.48498 0
M  V30 4621 C 458.149 0.856571 -1.34666 0
M  V30 4622 C 458.349 1.98271 -0.35931 0
M  V30 4623 O 457.405 2.51551 0.218703 0
M  V30 4624 C 458.718 1.22207 -2.74747 0
M  V30 4625 C 460.266 1.33183 -2.83251 0
M  V30 4626 C 460.741 1.73075 -4.24039 0
M  V30 4627 N 462.232 1.80174 -4.26722 0
M  V30 4628 C 462.967 2.1243 -5.32598 0
M  V30 4629 N 462.463 2.43096 -6.4875 0
M  V30 4630 N 464.256 2.13454 -5.19994 0
M  V30 4631 H 456.407 -0.215174 -2.11307 0
M  V30 4632 H 458.67 -0.0336281 -0.947403 0
M  V30 4633 H 458.376 0.468195 -3.4857 0
M  V30 4634 H 458.25 2.17173 -3.08409 0
M  V30 4635 H 460.637 2.07647 -2.09683 0
M  V30 4636 H 460.718 0.363333 -2.53206 0
M  V30 4637 H 460.362 0.991712 -4.98124 0
M  V30 4638 H 460.292 2.70979 -4.51529 0
M  V30 4639 H 462.783 1.58744 -3.42942 0
M  V30 4640 H 463.096 2.6682 -7.25277 0
M  V30 4641 H 461.441 2.40611 -6.52021 0
M  V30 4642 H 464.632 1.88956 -4.28268 0
M  V30 4643 H 464.805 2.38261 -6.02608 0
M  V30 4644 N 458.211 1.37122 0.776871 0
M  V30 4645 C 459.488 1.22586 1.52421 0
M  V30 4646 C 459.868 -0.182726 2.10308 0
M  V30 4647 O 459.216 -1.18979 1.9508 0
M  V30 4648 C 459.426 2.31782 2.60918 0
M  V30 4649 C 460.774 2.69071 3.2846 0
M  V30 4650 O 461.798 2.3092 2.71209 0
M  V30 4651 O 460.657 3.3478 4.31954 0
M  V30 4652 H 457.751 0.478045 0.674835 0
M  V30 4653 H 460.297 1.48888 0.814275 0
M  V30 4654 H 459.069 3.26131 2.16227 0
M  V30 4655 H 458.692 2.06916 3.39517 0
M  V30 4656 N 459.689 -1.00246 1.21608 0
M  V30 4657 C 460.917 -1.77631 1.06089 0
M  V30 4658 C 461.332 -1.84746 -0.38916 0
M  V30 4659 O 460.689 -1.31068 -1.26994 0
M  V30 4660 C 460.74 -3.21415 1.65453 0
M  V30 4661 O 460.461 -3.14703 3.04785 0
M  V30 4662 C 461.962 -4.15289 1.55079 0
M  V30 4663 H 459.182 -0.558162 0.37242 0
M  V30 4664 H 461.726 -1.26093 1.60999 0
M  V30 4665 H 459.881 -3.70053 1.14629 0
M  V30 4666 H 460.295 -4.05056 3.33212 0
M  V30 4667 H 461.769 -5.13965 2.01355 0
M  V30 4668 H 462.246 -4.36279 0.505665 0
M  V30 4669 H 462.852 -3.72543 2.05163 0
M  V30 4670 N 461.167 -1.02423 -1.1978 0
M  V30 4671 C 462.444 -0.632802 -1.85081 0
M  V30 4672 C 462.824 0.888745 -1.9148 0
M  V30 4673 O 462.172 1.78357 -1.42832 0
M  V30 4674 C 462.382 -1.28947 -3.24305 0
M  V30 4675 C 463.73 -1.40976 -4.00513 0
M  V30 4676 O 464.754 -1.24628 -3.33686 0
M  V30 4677 O 463.613 -1.67467 -5.20209 0
M  V30 4678 H 460.707 -0.219348 -0.79738 0
M  V30 4679 H 463.253 -1.12209 -1.27307 0
M  V30 4680 H 462.025 -2.3288 -3.14456 0
M  V30 4681 H 461.648 -0.787748 -3.89718 0
M  V30 4682 N 462.645 1.35699 -0.801477 0
M  V30 4683 C 463.885 2.00741 -0.385027 0
M  V30 4684 C 464.249 1.62213 1.02718 0
M  V30 4685 O 465.45 2.19936 1.54537 0
M  V30 4686 C 463.721 3.53032 -0.557057 0
M  V30 4687 S 465.28 4.38195 -0.230272 0
M  V30 4688 H 462.098 0.695748 -0.146477 0
M  V30 4689 H 464.7 1.65378 -1.04261 0
M  V30 4690 H 463.404 3.7856 -1.58494 0
M  V30 4691 H 462.935 3.93229 0.116029 0
M  V30 4692 H 464.95 4.86748 0.963895 0
M  V30 4693 N 464.123 0.554532 1.47522 0
M  V30 4694 C 465.351 0.034257 2.06872 0
M  V30 4695 C 465.766 -1.25826 1.40759 0
M  V30 4696 O 465.123 -1.75425 0.503217 0
M  V30 4697 C 465.174 -0.167827 3.6111 0
M  V30 4698 O 464.895 1.07351 4.24744 0
M  V30 4699 C 466.396 -0.72569 4.3732 0
M  V30 4700 H 463.616 0.0446275 0.669514 0
M  V30 4701 H 466.16 0.767181 1.89564 0
M  V30 4702 H 464.315 -0.850872 3.7794 0
M  V30 4703 H 464.729 0.869563 5.17242 0
M  V30 4704 H 466.203 -0.816394 5.45929 0
M  V30 4705 H 466.68 -1.73635 4.0342 0
M  V30 4706 H 467.286 -0.0784292 4.25228 0
M  V30 4707 N 465.601 -1.54893 0.290851 0
M  V30 4708 C 466.829 -2.04343 -0.324288 0
M  V30 4709 C 467.244 -1.16859 -1.48289 0
M  V30 4710 O 466.601 -0.192018 -1.81487 0
M  V30 4711 C 466.652 -3.52756 -0.79026 0
M  V30 4712 O 466.373 -4.36913 0.322213 0
M  V30 4713 C 467.874 -4.18161 -1.4716 0
M  V30 4714 H 465.094 -0.667135 -0.0719173 0
M  V30 4715 H 467.638 -1.99981 0.427529 0
M  V30 4716 H 465.793 -3.57511 -1.49213 0
M  V30 4717 H 466.207 -5.24486 -0.0387372 0
M  V30 4718 H 467.681 -5.23562 -1.7489 0
M  V30 4719 H 468.158 -3.67282 -2.40834 0
M  V30 4720 H 468.764 -4.17454 -0.813178 0
M  V30 4721 N 467.08 -0.0183926 -1.57589 0
M  V30 4722 C 468.32 0.666846 -1.93216 0
M  V30 4723 C 468.684 1.69905 -0.894215 0
M  V30 4724 O 469.885 2.436 -1.13633 0
M  V30 4725 C 468.156 1.27684 -3.33814 0
M  V30 4726 S 469.715 1.98464 -3.91353 0
M  V30 4727 H 466.533 0.219826 -0.676164 0
M  V30 4728 H 469.135 -0.0794893 -1.95338 0
M  V30 4729 H 467.839 0.513006 -4.07181 0
M  V30 4730 H 467.37 2.06071 -3.3511 0
M  V30 4731 H 469.385 3.26189 -3.73918 0
M  V30 4732 N 468.558 1.5553 0.254621 0
M  V30 4733 C 469.508 1.86057 1.31783 0
M  V30 4734 C 470.492 0.720827 1.4385 0
M  V30 4735 O 471.684 0.982586 1.47222 0
M  V30 4736 C 468.813 2.15203 2.67475 0
M  V30 4737 C 467.899 3.35484 2.59444 0
M  V30 4738 N 468.29 4.54945 2.2104 0
M  V30 4739 C 466.588 3.38441 2.90472 0
M  V30 4740 C 467.289 5.3707 2.23453 0
M  V30 4741 N 466.265 4.75936 2.62652 0
M  V30 4742 H 470.067 2.75953 1.01129 0
M  V30 4743 H 467.581 1.55653 0.463255 0
M  V30 4744 H 469.578 2.35235 3.44195 0
M  V30 4745 H 468.238 1.26601 2.99002 0
M  V30 4746 H 469.249 4.8071 1.92712 0
M  V30 4747 H 465.926 2.60087 3.2659 0
M  V30 4748 H 467.316 6.42626 1.96166 0
M  V30 4749 N 470.036 -0.519951 1.48776 0
M  V30 4750 C 470.983 -1.62352 1.64044 0
M  V30 4751 C 471.953 -1.58945 0.482251 0
M  V30 4752 O 473.138 -1.77219 0.706971 0
M  V30 4753 C 470.278 -3.00579 1.69547 0
M  V30 4754 C 469.391 -3.14145 2.96541 0
M  V30 4755 C 468.526 -4.42991 2.93142 0
M  V30 4756 C 467.565 -4.50122 4.14797 0
M  V30 4757 N 466.702 -5.7037 4.09418 0
M  V30 4758 H 471.542 -1.48643 2.58281 0
M  V30 4759 H 469.079 -0.723516 1.28077 0
M  V30 4760 H 471.037 -3.80671 1.70719 0
M  V30 4761 H 469.667 -3.13036 0.787918 0
M  V30 4762 H 468.719 -2.27239 3.05068 0
M  V30 4763 H 470.031 -3.15275 3.86527 0
M  V30 4764 H 469.185 -5.31385 2.92772 0
M  V30 4765 H 467.924 -4.44398 2.00902 0
M  V30 4766 H 466.929 -3.60133 4.15433 0
M  V30 4767 H 468.154 -4.50445 5.08208 0
M  V30 4768 H 466.1 -5.72655 3.20004 0
M  V30 4769 H 466.017 -5.73036 4.93119 0
M  V30 4770 H 467.285 -6.61023 4.13121 0
M  V30 4771 N 471.514 -1.37532 -0.769588 0
M  V30 4772 C 472.477 -1.33292 -1.86456 0
M  V30 4773 C 473.477 -0.236537 -1.59051 0
M  V30 4774 O 474.667 -0.492511 -1.67093 0
M  V30 4775 C 471.799 -1.07118 -3.23633 0
M  V30 4776 H 472.992 -2.30692 -1.91628 0
M  V30 4777 H 470.545 -1.22593 -0.969572 0
M  V30 4778 H 471.28 -0.102578 -3.24138 0
M  V30 4779 H 471.065 -1.86479 -3.44917 0
M  V30 4780 H 472.555 -1.06806 -4.03711 0
M  V30 4781 N 472.992 0.995999 -1.22138 0
M  V30 4782 C 473.955 2.06711 -0.990109 0
M  V30 4783 C 474.955 1.60744 0.0422978 0
M  V30 4784 O 476.145 1.73095 -0.195895 0
M  V30 4785 C 473.277 3.37288 -0.49491 0
M  V30 4786 H 474.47 2.28661 -1.94047 0
M  V30 4787 H 472.023 1.16711 -1.03963 0
M  V30 4788 H 472.758 3.21022 0.459948 0
M  V30 4789 H 472.543 3.71986 -1.23971 0
M  V30 4790 H 474.033 4.16103 -0.353253 0
M  V30 4791 N 474.47 1.03057 1.19235 0
M  V30 4792 C 475.881 0.757449 1.70645 0
M  V30 4793 C 476.232 -0.722735 1.82403 0
M  V30 4794 O 475.357 -1.56325 1.49638 0
M  V30 4795 C 475.952 1.36833 3.09939 0
M  V30 4796 C 474.511 1.14375 3.58602 0
M  V30 4797 C 473.658 1.46533 2.35422 0
M  V30 4798 H 476.609 1.19828 1.04052 0
M  V30 4799 H 476.63 0.766184 3.72706 0
M  V30 4800 H 476.142 2.44562 3.01349 0
M  V30 4801 H 474.243 0.0847542 3.72504 0
M  V30 4802 H 474.356 1.83366 4.42622 0
M  V30 4803 H 472.72 0.884712 2.38841 0
M  V30 4804 H 473.503 2.55349 2.2946 0
M  V30 4805 N 475.948 -1.35272 0.808662 0
M  V30 4806 C 476.895 -2.29764 0.218482 0
M  V30 4807 C 477.865 -1.52911 -0.648652 0
M  V30 4808 O 479.05 -1.81341 -0.593297 0
M  V30 4809 C 476.19 -3.39388 -0.625282 0
M  V30 4810 C 475.303 -4.31202 0.262516 0
M  V30 4811 C 474.438 -5.27919 -0.589451 0
M  V30 4812 C 473.477 -6.11371 0.298617 0
M  V30 4813 N 472.614 -7.0022 -0.513443 0
M  V30 4814 H 477.454 -2.79645 1.02968 0
M  V30 4815 H 474.991 -1.37629 0.519303 0
M  V30 4816 H 476.949 -4.01615 -1.12966 0
M  V30 4817 H 475.579 -2.90777 -1.40173 0
M  V30 4818 H 474.631 -3.69962 0.885013 0
M  V30 4819 H 475.943 -4.89748 0.945971 0
M  V30 4820 H 475.097 -5.95529 -1.15888 0
M  V30 4821 H 473.836 -4.69875 -1.30647 0
M  V30 4822 H 472.841 -5.42707 0.880301 0
M  V30 4823 H 474.066 -6.71494 1.01352 0
M  V30 4824 H 472.012 -6.44662 -1.21439 0
M  V30 4825 H 471.929 -7.55917 0.111922 0
M  V30 4826 H 473.197 -7.72175 -1.06608 0
M  V30 4827 N 477.426 -0.562348 -1.47226 0
M  V30 4828 C 478.651 -0.0432632 -2.07355 0
M  V30 4829 C 479.076 1.24332 -1.41149 0
M  V30 4830 O 478.434 1.74603 -0.488226 0
M  V30 4831 C 478.482 0.130288 -3.60365 0
M  V30 4832 O 477.586 1.19166 -3.94808 0
M  V30 4833 H 476.927 -0.0536334 -0.66183 0
M  V30 4834 H 479.457 -0.779495 -1.89169 0
M  V30 4835 H 479.467 0.342881 -4.06557 0
M  V30 4836 H 478.142 -0.809389 -4.07948 0
M  V30 4837 H 476.719 0.959153 -3.60354 0
M  V30 4838 N 478.904 1.54736 -0.299062 0
M  V30 4839 C 479.867 2.22127 0.565012 0
M  V30 4840 C 480.867 1.20669 1.06281 0
M  V30 4841 O 482.057 1.45417 0.959145 0
M  V30 4842 C 479.189 2.90611 1.78208 0
M  V30 4843 H 480.382 2.99891 -0.0237448 0
M  V30 4844 H 477.935 1.5622 -0.0498788 0
M  V30 4845 H 478.67 2.16921 2.41072 0
M  V30 4846 H 478.455 3.64984 1.43281 0
M  V30 4847 H 479.945 3.42026 2.396 0
M  V30 4848 N 480.382 0.0267497 1.57577 0
M  V30 4849 C 481.659 -0.690926 1.82991 0
M  V30 4850 C 482.039 -1.90471 0.910164 0
M  V30 4851 O 481.387 -2.28474 -0.0347985 0
M  V30 4852 C 481.597 -1.07139 3.32148 0
M  V30 4853 C 482.945 -1.46402 3.98562 0
M  V30 4854 O 483.969 -1.16443 3.36629 0
M  V30 4855 O 482.828 -2.02214 5.07712 0
M  V30 4856 H 479.922 -0.338747 0.75444 0
M  V30 4857 H 482.468 0.0542506 1.69613 0
M  V30 4858 H 481.24 -0.207394 3.9075 0
M  V30 4859 H 480.863 -1.87481 3.50623 0
M  V30 4860 O 481.899 -1.6109 -0.114939 0
M  V30 4861 H 482.59 -1.78767 -0.745784 0
M  V30 END ATOM
M  V30 BEGIN BOND
M  V30 END BOND
M  V30 END CTAB
M  END
$$$$
