drugbank_target|Q9RP17 Surface protein A (DB03994)
 OpenBabel12092120253D

  0  0  0     0  0            999 V3000
M  V30 BEGIN CTAB
M  V30 COUNTS 2609 2634 0 0 0
M  V30 BEGIN ATOM
M  V30 1 H -0.908 1.98254 -0.117106 0
M  V30 2 N 0 1.576 0 0
M  V30 3 C 0.933 2.03868 1.02534 0
M  V30 4 C 1.911 0.928543 1.3348 0
M  V30 5 O 3.095 1.19667 1.45644 0
M  V30 6 C 0.222 2.43627 2.35294 0
M  V30 7 C -0.732 3.65373 2.2001 0
M  V30 8 S 0.101 5.13292 1.52614 0
M  V30 9 C 1.257 5.56322 2.86805 0
M  V30 10 H 1.49 2.90518 0.631377 0
M  V30 11 H -0.977 1.52953 0.210867 0
M  V30 12 H 0.981 2.67203 3.11629 0
M  V30 13 H -0.358 1.57376 2.7183 0
M  V30 14 H -1.165 3.90944 3.18086 0
M  V30 15 H -1.563 3.418 1.51819 0
M  V30 16 H 0.729 5.58782 3.83104 0
M  V30 17 H 1.672 6.56266 2.65933 0
M  V30 18 H 2.08 4.83886 2.90714 0
M  V30 19 N 1.4781 -0.272755 1.55222 0
M  V30 20 C 2.4251 -1.33716 1.88119 0
M  V30 21 C 3.3951 -1.49066 0.73271 0
M  V30 22 O 4.5801 -1.63469 0.984002 0
M  V30 23 C 1.7201 -2.69238 2.15882 0
M  V30 24 C 0.8331 -2.62108 3.43399 0
M  V30 25 C -0.0319 -3.89811 3.60861 0
M  V30 26 C -0.9929 -3.77193 4.8207 0
M  V30 27 N -1.8559 -4.9673 4.96189 0
M  V30 28 H 2.9841 -1.04962 2.78903 0
M  V30 29 H 0.5211 -0.507088 1.38083 0
M  V30 30 H 2.4791 -3.48089 2.29978 0
M  V30 31 H 1.1091 -2.96194 1.28331 0
M  V30 32 H 0.1611 -1.74967 3.37773 0
M  V30 33 H 1.4731 -2.48685 4.32386 0
M  V30 34 H 0.6271 -4.77103 3.74777 0
M  V30 35 H -0.6339 -4.06102 2.7006 0
M  V30 36 H -1.6289 -2.88284 4.68159 0
M  V30 37 H -0.4039 -3.62421 5.74307 0
M  V30 38 H -2.4579 -5.13431 4.08319 0
M  V30 39 H -2.5409 -4.85839 5.79221 0
M  V30 40 H -1.2729 -5.85594 5.1449 0
M  V30 41 N 2.9562 -1.48159 -0.537278 0
M  V30 42 C 3.9032 -1.62138 -1.64256 0
M  V30 43 C 4.8732 -0.463668 -1.59497 0
M  V30 44 O 6.0582 -0.686241 -1.78032 0
M  V30 45 C 3.1982 -1.66028 -3.02537 0
M  V30 46 C 2.3112 -2.92855 -3.17585 0
M  V30 47 C 1.4462 -2.87952 -4.46382 0
M  V30 48 C 0.4852 -4.09516 -4.54932 0
M  V30 49 N -0.3778 -4.02733 -5.75109 0
M  V30 50 H 4.4622 -2.56529 -1.51647 0
M  V30 51 H 1.9992 -1.27224 -0.738414 0
M  V30 52 H 3.9572 -1.66265 -3.82638 0
M  V30 53 H 2.5872 -0.751331 -3.13934 0
M  V30 54 H 1.6392 -3.02395 -2.30784 0
M  V30 55 H 2.9512 -3.82822 -3.19764 0
M  V30 56 H 2.1052 -2.8655 -5.34765 0
M  V30 57 H 0.8442 -1.95702 -4.46712 0
M  V30 58 H -0.1508 -4.11201 -3.64957 0
M  V30 59 H 1.0742 -5.02917 -4.56346 0
M  V30 60 H -0.9798 -3.13299 -5.76351 0
M  V30 61 H -1.0628 -4.86397 -5.78752 0
M  V30 62 H 0.2052 -4.05379 -6.65799 0
M  V30 63 N 4.4343 0.785586 -1.36625 0
M  V30 64 C 5.3973 1.87999 -1.31107 0
M  V30 65 C 6.3973 1.59316 -0.217959 0
M  V30 66 O 7.5873 1.67656 -0.472977 0
M  V30 67 C 4.7193 3.24861 -1.03334 0
M  V30 68 H 5.9123 1.94307 -2.2844 0
M  V30 69 H 3.4653 0.983813 -1.21453 0
M  V30 70 H 4.2003 3.24235 -0.0647432 0
M  V30 71 H 3.9853 3.4707 -1.82441 0
M  V30 72 H 5.4753 4.04929 -1.02088 0
M  V30 73 N 5.9124 1.20967 1.01018 0
M  V30 74 C 6.8424 0.988272 2.11555 0
M  V30 75 C 7.8234 -0.0849778 1.69888 0
M  V30 76 O 9.0084 0.0738202 1.9406 0
M  V30 77 C 6.1384 0.546528 3.42973 0
M  V30 78 C 5.0924 1.56375 3.9841 0
M  V30 79 C 4.4184 0.97842 5.25672 0
M  V30 80 C 5.7184 2.94922 4.31066 0
M  V30 81 H 7.4124 1.91276 2.30334 0
M  V30 82 H 4.9584 0.921073 1.1069 0
M  V30 83 H 6.9114 0.378839 4.19694 0
M  V30 84 H 5.6354 -0.413598 3.23971 0
M  V30 85 H 4.2944 1.71891 3.23804 0
M  V30 86 H 3.9424 0.0101688 5.02999 0
M  V30 87 H 3.6424 1.65784 5.63728 0
M  V30 88 H 5.1664 0.821939 6.05043 0
M  V30 89 H 6.5804 2.8288 4.9865 0
M  V30 90 H 4.9774 3.5983 4.80253 0
M  V30 91 H 6.0474 3.4616 3.39561 0
M  V30 92 N 7.3905 -1.2043 1.01659 0
M  V30 93 C 8.3535 -2.21433 0.591616 0
M  V30 94 C 9.3535 -1.57203 -0.338226 0
M  V30 95 O 10.5435 -1.73737 -0.126918 0
M  V30 96 C 7.6755 -3.40628 -0.136058 0
M  V30 97 H 8.8685 -2.60545 1.48514 0
M  V30 98 H 6.4215 -1.33893 0.806379 0
M  V30 99 H 7.1565 -3.07019 -1.04449 0
M  V30 100 H 6.9415 -3.88475 0.531917 0
M  V30 101 H 8.4315 -4.15475 -0.420735 0
M  V30 102 N 8.8686 -0.792821 -1.36206 0
M  V30 103 C 10.0966 -0.378825 -2.03402 0
M  V30 104 C 10.5116 1.00586 -1.59774 0
M  V30 105 O 9.8686 1.64574 -0.788764 0
M  V30 106 C 9.9196 -0.43683 -3.58851 0
M  V30 107 O 9.6406 -1.76691 -4.00889 0
M  V30 108 C 11.1416 -0.0138943 -4.43298 0
M  V30 109 H 8.3616 -0.155673 -0.652692 0
M  V30 110 H 10.9056 -1.07261 -1.74113 0
M  V30 111 H 9.0606 0.208575 -3.86838 0
M  V30 112 H 9.4746 -1.72011 -4.95492 0
M  V30 113 H 10.9486 -0.105615 -5.51899 0
M  V30 114 H 11.4256 1.03915 -4.2673 0
M  V30 115 H 12.0316 -0.63192 -4.20579 0
M  V30 116 N 10.3467 1.47872 -0.545128 0
M  V30 117 C 11.2767 2.32661 0.197793 0
M  V30 118 C 12.2577 1.43041 0.920504 0
M  V30 119 O 13.4427 1.71912 0.90333 0
M  V30 120 C 10.5727 3.24569 1.23582 0
M  V30 121 C 9.5267 4.23333 0.630323 0
M  V30 122 C 8.8527 5.0448 1.77211 0
M  V30 123 C 10.1527 5.20704 -0.407974 0
M  V30 124 H 11.8467 2.95024 -0.510045 0
M  V30 125 H 9.3927 1.4187 -0.246731 0
M  V30 126 H 11.3457 3.8272 1.76362 0
M  V30 127 H 10.0697 2.60236 1.97344 0
M  V30 128 H 8.7287 3.6639 0.123922 0
M  V30 129 H 8.3767 4.36561 2.49847 0
M  V30 130 H 8.0767 5.71339 1.37281 0
M  V30 131 H 9.6007 5.65487 2.3034 0
M  V30 132 H 11.0147 5.7329 0.033305 0
M  V30 133 H 9.4117 5.95699 -0.725486 0
M  V30 134 H 10.4817 4.66917 -1.30828 0
M  V30 135 N 11.8248 0.280983 1.55075 0
M  V30 136 C 13.0738 -0.334784 1.98902 0
M  V30 137 C 13.3868 -1.56534 1.17288 0
M  V30 138 O 14.5928 -2.25443 1.51287 0
M  V30 139 C 13.0488 -0.646994 3.54037 0
M  V30 140 C 12.6568 0.564085 4.44435 0
M  V30 141 C 14.4008 -1.22506 4.06439 0
M  V30 142 C 12.3078 0.226137 5.90967 0
M  V30 143 H 11.2378 -0.128866 0.742906 0
M  V30 144 H 13.8888 0.386556 1.79382 0
M  V30 145 H 12.2708 -1.42739 3.6938 0
M  V30 146 H 13.4448 1.34082 4.40861 0
M  V30 147 H 11.7598 1.0594 4.02698 0
M  V30 148 H 14.3568 -1.49182 5.13468 0
M  V30 149 H 14.6998 -2.16085 3.55827 0
M  V30 150 H 15.2328 -0.50682 3.94558 0
M  V30 151 H 11.9718 1.12996 6.45687 0
M  V30 152 H 11.4918 -0.513717 5.97596 0
M  V30 153 H 13.1708 -0.179539 6.46751 0
M  V30 154 N 13.3029 -1.57598 0.00835791 0
M  V30 155 C 14.2659 -2.07884 -0.965242 0
M  V30 156 C 15.2659 -0.989825 -1.26725 0
M  V30 157 O 16.4559 -1.25218 -1.21104 0
M  V30 158 C 13.5879 -2.52731 -2.28779 0
M  V30 159 H 14.7809 -2.95178 -0.530112 0
M  V30 160 H 12.3339 -1.54458 -0.239283 0
M  V30 161 H 13.0689 -1.68705 -2.76964 0
M  V30 162 H 12.8539 -3.32272 -2.08177 0
M  V30 163 H 14.3439 -2.91933 -2.98605 0
M  V30 164 N 14.781 0.264519 -1.55364 0
M  V30 165 C 15.711 1.33121 -1.91836 0
M  V30 166 C 16.692 1.51101 -0.781192 0
M  V30 167 O 17.877 1.64003 -1.04003 0
M  V30 168 C 15.007 2.68921 -2.19769 0
M  V30 169 C 13.961 2.65661 -3.35571 0
M  V30 170 C 13.287 4.05093 -3.49004 0
M  V30 171 C 14.587 2.24187 -4.71739 0
M  V30 172 H 16.281 1.02844 -2.81182 0
M  V30 173 H 13.827 0.493286 -1.35287 0
M  V30 174 H 15.78 3.43663 -2.43872 0
M  V30 175 H 14.504 3.00799 -1.27231 0
M  V30 176 H 13.163 1.93377 -3.1145 0
M  V30 177 H 12.811 4.34206 -2.53917 0
M  V30 178 H 12.511 4.03804 -4.26868 0
M  V30 179 H 14.035 4.81561 -3.75408 0
M  V30 180 H 15.449 2.88654 -4.9533 0
M  V30 181 H 13.846 2.34044 -5.52579 0
M  V30 182 H 14.916 1.19327 -4.69988 0
M  V30 183 N 16.2591 1.48442 0.529413 0
M  V30 184 C 17.2221 1.62524 1.61612 0
M  V30 185 C 18.2221 0.498509 1.52877 0
M  V30 186 O 19.4121 0.76431 1.56537 0
M  V30 187 C 16.5441 1.59597 3.01233 0
M  V30 188 H 17.7371 2.59423 1.50465 0
M  V30 189 H 15.2901 1.37047 0.751514 0
M  V30 190 H 16.0251 0.641781 3.17886 0
M  V30 191 H 15.8101 2.41397 3.08982 0
M  V30 192 H 17.3001 1.72646 3.80241 0
M  V30 193 N 17.7372 -0.778329 1.37039 0
M  V30 194 C 18.6672 -1.90546 1.34962 0
M  V30 195 C 19.6482 -1.68681 0.219274 0
M  V30 196 O 20.8332 -1.89634 0.418624 0
M  V30 197 C 17.9632 -3.27734 1.14925 0
M  V30 198 C 16.9172 -3.64147 2.24902 0
M  V30 199 C 16.2432 -4.99806 1.89996 0
M  V30 200 C 17.5432 -3.71579 3.67051 0
M  V30 201 H 19.2372 -1.92541 2.29277 0
M  V30 202 H 16.7832 -0.924948 1.10366 0
M  V30 203 H 18.7362 -4.06215 1.12104 0
M  V30 204 H 17.4602 -3.26154 0.170631 0
M  V30 205 H 16.1192 -2.8797 2.26868 0
M  V30 206 H 15.7672 -4.94759 0.906796 0
M  V30 207 H 15.4672 -5.25139 2.63634 0
M  V30 208 H 16.9912 -5.80694 1.88749 0
M  V30 209 H 18.4052 -4.40227 3.67251 0
M  V30 210 H 16.8022 -4.08405 4.39688 0
M  V30 211 H 17.8722 -2.72404 4.01154 0
M  V30 212 N 19.2153 -1.21501 -1.00376 0
M  V30 213 C 20.6263 -1.03146 -1.55621 0
M  V30 214 C 20.9773 0.408375 -1.91903 0
M  V30 215 O 20.1023 1.29177 -1.73616 0
M  V30 216 C 20.6973 -1.86612 -2.82775 0
M  V30 217 C 19.2563 -1.72586 -3.34501 0
M  V30 218 C 18.4033 -1.83747 -2.07683 0
M  V30 219 H 21.3543 -1.35505 -0.826081 0
M  V30 220 H 21.3753 -1.3771 -3.54706 0
M  V30 221 H 20.8873 -2.91399 -2.56336 0
M  V30 222 H 18.9883 -0.704877 -3.65872 0
M  V30 223 H 19.1013 -2.54623 -4.05837 0
M  V30 224 H 17.4653 -1.27069 -2.20739 0
M  V30 225 H 18.2483 -2.90044 -1.83655 0
M  V30 226 N 20.6934 1.19889 -1.02296 0
M  V30 227 C 21.6564 2.21116 -0.603351 0
M  V30 228 C 22.6564 1.5738 0.329884 0
M  V30 229 O 23.8464 1.73802 0.117702 0
M  V30 230 C 20.9784 3.40696 0.117992 0
M  V30 231 H 22.1714 2.59754 -1.49893 0
M  V30 232 H 19.7244 1.33463 -0.813468 0
M  V30 233 H 20.4594 3.07569 1.0282 0
M  V30 234 H 20.2444 3.88188 -0.552511 0
M  V30 235 H 21.7344 4.15692 0.398696 0
M  V30 236 N 22.1715 0.800033 1.35784 0
M  V30 237 C 23.1345 0.211565 2.28221 0
M  V30 238 C 24.1345 -0.59728 1.49296 0
M  V30 239 O 25.3245 -0.416721 1.69142 0
M  V30 240 C 22.4565 -0.705846 3.33513 0
M  V30 241 H 23.6495 1.02677 2.81776 0
M  V30 242 H 21.2025 0.570211 1.45528 0
M  V30 243 H 21.9375 -1.54498 2.85133 0
M  V30 244 H 21.7225 -0.127655 3.91892 0
M  V30 245 H 23.2125 -1.11211 4.02519 0
M  V30 246 N 23.6496 -1.47581 0.552962 0
M  V30 247 C 24.6126 -2.28439 -0.186605 0
M  V30 248 C 25.6126 -1.36706 -0.84665 0
M  V30 249 O 26.8026 -1.59378 -0.703164 0
M  V30 250 C 23.9346 -3.16264 -1.2724 0
M  V30 251 H 25.1276 -2.95294 0.523609 0
M  V30 252 H 22.6806 -1.532 0.309745 0
M  V30 253 H 23.4156 -2.54091 -2.01514 0
M  V30 254 H 23.2006 -3.83769 -0.803968 0
M  V30 255 H 24.6906 -3.77198 -1.79196 0
M  V30 256 N 25.1277 -0.289203 -1.54924 0
M  V30 257 C 26.0577 0.58549 -2.2604 0
M  V30 258 C 27.0387 1.14753 -1.25562 0
M  V30 259 O 28.2237 1.17906 -1.54311 0
M  V30 260 C 25.3537 1.76305 -2.99222 0
M  V30 261 C 24.3077 1.33191 -4.06748 0
M  V30 262 C 23.6337 2.5937 -4.6758 0
M  V30 263 C 24.9337 0.471775 -5.20165 0
M  V30 264 H 26.6277 -0.00763532 -2.99399 0
M  V30 265 H 24.1737 -0.00511229 -1.43999 0
M  V30 266 H 26.1267 2.38097 -3.47689 0
M  V30 267 H 24.8507 2.38223 -2.23422 0
M  V30 268 H 23.5097 0.737121 -3.59113 0
M  V30 269 H 23.1577 3.19576 -3.88433 0
M  V30 270 H 22.8577 2.31228 -5.40192 0
M  V30 271 H 24.3817 3.21985 -5.18804 0
M  V30 272 H 25.7957 0.995056 -5.64599 0
M  V30 273 H 24.1927 0.284639 -5.99425 0
M  V30 274 H 25.2627 -0.506041 -4.82252 0
M  V30 275 N 26.6058 1.57591 -0.0167156 0
M  V30 276 C 27.5688 2.08393 0.954204 0
M  V30 277 C 28.5688 0.996531 1.26198 0
M  V30 278 O 29.7588 1.25858 1.20438 0
M  V30 279 C 26.8908 2.5394 2.27436 0
M  V30 280 H 28.0838 2.95455 0.514451 0
M  V30 281 H 25.6368 1.54582 0.231089 0
M  V30 282 H 26.3718 1.70171 2.76066 0
M  V30 283 H 26.1568 3.33371 2.06412 0
M  V30 284 H 27.6468 2.93512 2.97053 0
M  V30 285 N 28.0839 -0.256276 1.55502 0
M  V30 286 C 28.9939 -1.33882 1.92647 0
M  V30 287 C 30.0099 -1.53159 0.825727 0
M  V30 288 O 31.1859 -1.66963 1.12629 0
M  V30 289 C 28.2509 -2.6751 2.20543 0
M  V30 290 C 27.3119 -2.56836 3.43997 0
M  V30 291 C 26.5449 -3.84092 3.70553 0
M  V30 292 O 26.7679 -4.85545 2.99336 0
M  V30 293 O 25.7019 -3.83288 4.64084 0
M  V30 294 H 29.5279 -1.05374 2.84833 0
M  V30 295 H 27.1129 -0.456237 1.42263 0
M  V30 296 H 28.9949 -3.46492 2.39835 0
M  V30 297 H 27.6699 -2.9577 1.31536 0
M  V30 298 H 26.5769 -1.76172 3.30021 0
M  V30 299 H 27.9099 -2.33523 4.33275 0
M  V30 300 N 29.562 -1.4872 -0.521534 0
M  V30 301 C 30.81 -1.56857 -1.27437 0
M  V30 302 C 31.131 -0.247982 -1.93417 0
M  V30 303 O 30.401 0.731151 -1.81744 0
M  V30 304 H 28.981 -0.577885 -0.473347 0
M  V30 305 H 31.643 -1.85233 -0.606205 0
M  V30 306 H 30.739 -2.35402 -2.0492 0
M  V30 307 N 31.0401 0.771051 -1.3745 0
M  V30 308 C 32.0031 1.86598 -1.33093 0
M  V30 309 C 33.0031 1.59076 -0.234845 0
M  V30 310 O 34.1931 1.67145 -0.490732 0
M  V30 311 C 31.3251 3.23747 -1.06773 0
M  V30 312 H 32.5181 1.91873 -2.30488 0
M  V30 313 H 30.0711 0.970876 -1.2249 0
M  V30 314 H 30.8061 3.24148 -0.099129 0
M  V30 315 H 30.5911 3.45115 -1.86112 0
M  V30 316 H 32.0811 4.03824 -1.06377 0
M  V30 317 N 32.5182 1.22032 0.997298 0
M  V30 318 C 33.7432 1.06921 1.77715 0
M  V30 319 C 34.1682 -0.376226 1.84299 0
M  V30 320 O 33.5262 -1.27165 1.29223 0
M  V30 321 C 33.5742 1.67996 3.19076 0
M  V30 322 O 32.6782 0.930653 4.01762 0
M  V30 323 H 32.0192 0.375814 0.547412 0
M  V30 324 H 34.5492 1.61737 1.25309 0
M  V30 325 H 34.5592 1.72538 3.69723 0
M  V30 326 H 33.2342 2.73182 3.13599 0
M  V30 327 H 31.8112 0.960917 3.60307 0
M  V30 328 N 33.9963 -1.19345 1.0293 0
M  V30 329 C 35.2443 -1.88665 0.724574 0
M  V30 330 C 35.5653 -1.80036 -0.749144 0
M  V30 331 O 34.8353 -1.2111 -1.53978 0
M  V30 332 H 33.4153 -0.698406 0.265025 0
M  V30 333 H 36.0773 -1.44885 1.30362 0
M  V30 334 H 35.1733 -2.94987 1.01926 0
M  V30 335 N 35.4744 -0.807222 -1.35358 0
M  V30 336 C 36.7214 -0.387888 -1.9875 0
M  V30 337 C 37.0494 1.04509 -1.64037 0
M  V30 338 O 36.3044 1.73986 -0.895946 0
M  V30 339 C 36.6034 -0.519036 -3.53611 0
M  V30 340 C 36.2694 -1.91542 -4.08194 0
M  V30 341 C 34.9314 -2.29745 -4.22813 0
M  V30 342 C 37.2834 -2.82896 -4.37744 0
M  V30 343 C 34.6114 -3.58668 -4.643 0
M  V30 344 C 36.9634 -4.11265 -4.8067 0
M  V30 345 C 35.6274 -4.49466 -4.93494 0
M  V30 346 H 34.8974 -0.141938 -0.727279 0
M  V30 347 H 37.5444 -1.02814 -1.6156 0
M  V30 348 H 35.8494 0.204658 -3.91265 0
M  V30 349 H 37.5464 -0.175345 -4.00616 0
M  V30 350 H 34.1364 -1.60862 -3.97268 0
M  V30 351 H 38.3204 -2.54629 -4.26002 0
M  V30 352 H 33.5764 -3.88113 -4.72418 0
M  V30 353 H 37.7504 -4.82153 -5.02496 0
M  V30 354 H 35.3774 -5.49418 -5.25399 0
M  V30 355 N 36.9525 1.47285 -0.560781 0
M  V30 356 C 38.1825 2.06555 -0.0429638 0
M  V30 357 C 38.5905 1.41339 1.25777 0
M  V30 358 O 37.9335 0.505182 1.76617 0
M  V30 359 C 37.9955 3.58827 0.219887 0
M  V30 360 C 37.6595 4.46105 -0.991944 0
M  V30 361 C 38.6565 4.84 -1.89843 0
M  V30 362 C 36.3415 4.87567 -1.20762 0
M  V30 363 C 38.3355 5.6216 -3.00425 0
M  V30 364 C 36.0225 5.65491 -2.31653 0
M  V30 365 C 37.0205 6.02699 -3.21315 0
M  V30 366 O 36.7085 6.79052 -4.30283 0
M  V30 367 H 36.4405 0.674537 -0.0444468 0
M  V30 368 H 38.9945 1.90225 -0.774818 0
M  V30 369 H 37.2245 3.73383 1.00609 0
M  V30 370 H 38.9135 4.00103 0.683522 0
M  V30 371 H 39.6795 4.52564 -1.74387 0
M  V30 372 H 35.5585 4.5807 -0.518893 0
M  V30 373 H 39.1025 5.9112 -3.70436 0
M  V30 374 H 34.9995 5.9634 -2.47081 0
M  V30 375 H 35.7675 6.9745 -4.28376 0
M  V30 376 N 38.4306 0.297415 1.54768 0
M  V30 377 C 39.6766 -0.313376 2.00364 0
M  V30 378 C 40.0096 -1.53815 1.18553 0
M  V30 379 O 39.2846 -1.92739 0.261103 0
M  V30 380 C 39.5676 -0.673525 3.53745 0
M  V30 381 C 39.4206 0.560133 4.46299 0
M  V30 382 C 40.7396 -1.50143 4.13697 0
M  V30 383 H 37.8586 -0.112428 0.728374 0
M  V30 384 H 40.5006 0.4088 1.8555 0
M  V30 385 H 38.6506 -1.28881 3.665 0
M  V30 386 H 40.3226 1.19863 4.45455 0
M  V30 387 H 38.5656 1.19405 4.17043 0
M  V30 388 H 39.2366 0.26405 5.51368 0
M  V30 389 H 41.7126 -0.981588 4.04356 0
M  V30 390 H 40.5886 -1.72221 5.21182 0
M  V30 391 H 40.8496 -2.48952 3.65343 0
M  V30 392 N 39.9087 -1.5758 0.0250728 0
M  V30 393 C 40.8407 -2.06869 -0.986796 0
M  V30 394 C 41.8537 -0.991332 -1.29137 0
M  V30 395 O 43.0427 -1.26761 -1.25674 0
M  V30 396 C 40.1427 -2.47486 -2.31525 0
M  V30 397 C 39.3157 -3.78253 -2.19643 0
M  V30 398 C 38.3747 -4.05464 -3.35388 0
M  V30 399 O 37.4007 -4.75774 -3.12454 0
M  V30 400 N 38.6027 -3.55321 -4.59051 0
M  V30 401 H 41.3677 -2.94302 -0.566276 0
M  V30 402 H 38.9287 -1.6109 -0.161776 0
M  V30 403 H 40.9207 -2.62785 -3.07776 0
M  V30 404 H 39.4907 -1.65441 -2.65232 0
M  V30 405 H 38.7107 -3.7279 -1.28144 0
M  V30 406 H 39.9987 -4.63936 -2.08903 0
M  V30 407 H 39.3967 -2.98431 -4.80578 0
M  V30 408 H 37.9537 -3.75905 -5.32483 0
M  V30 409 N 41.3868 0.248026 -1.55636 0
M  V30 410 C 42.3498 1.29044 -1.89421 0
M  V30 411 C 43.3498 1.41134 -0.770581 0
M  V30 412 O 44.5398 1.39854 -1.03858 0
M  V30 413 C 41.6718 2.66831 -2.12165 0
M  V30 414 H 42.8648 1.00305 -2.82629 0
M  V30 415 H 40.4178 0.487265 -1.48511 0
M  V30 416 H 41.1528 3.00711 -1.21422 0
M  V30 417 H 40.9378 2.59438 -2.93997 0
M  V30 418 H 42.4278 3.42103 -2.3949 0
M  V30 419 N 42.8649 1.48995 0.513639 0
M  V30 420 C 44.1419 1.48338 1.27495 0
M  V30 421 C 44.5219 0.204065 2.10111 0
M  V30 422 O 43.8699 -0.813881 2.13514 0
M  V30 423 C 44.0799 2.75498 2.14247 0
M  V30 424 C 45.4279 3.24484 2.73852 0
M  V30 425 O 46.4519 2.76528 2.24523 0
M  V30 426 O 45.3109 4.07974 3.6362 0
M  V30 427 H 42.4049 0.593149 0.576284 0
M  V30 428 H 44.9509 1.61246 0.528948 0
M  V30 429 H 43.7229 3.60109 1.53092 0
M  V30 430 H 43.3459 2.6539 2.96064 0
M  V30 431 N 44.343 -0.763751 1.37857 0
M  V30 432 C 45.306 -1.85889 1.34081 0
M  V30 433 C 46.306 -1.58949 0.243277 0
M  V30 434 O 47.496 -1.66882 0.499589 0
M  V30 435 C 44.628 -3.23176 1.08489 0
M  V30 436 H 45.821 -1.90648 2.31502 0
M  V30 437 H 43.374 -0.964367 1.23003 0
M  V30 438 H 44.109 -3.24091 0.116318 0
M  V30 439 H 43.894 -3.44124 1.8794 0
M  V30 440 H 45.384 -4.03254 1.08517 0
M  V30 441 N 45.8211 -1.22559 -0.990812 0
M  V30 442 C 46.7841 -0.998863 -2.0629 0
M  V30 443 C 47.7841 0.0354834 -1.60761 0
M  V30 444 O 48.9741 -0.203231 -1.7301 0
M  V30 445 C 46.1061 -0.509203 -3.37076 0
M  V30 446 H 47.2991 -1.95014 -2.27837 0
M  V30 447 H 44.8521 -1.04456 -1.16269 0
M  V30 448 H 45.5871 0.446335 -3.21214 0
M  V30 449 H 45.3721 -1.25547 -3.71457 0
M  V30 450 H 46.8621 -0.370888 -4.1595 0
M  V30 451 N 47.2992 1.18797 -1.03562 0
M  V30 452 C 48.2492 2.20161 -0.592724 0
M  V30 453 C 49.2332 1.56772 0.362133 0
M  V30 454 O 50.4252 1.76062 0.182009 0
M  V30 455 C 47.5542 3.43266 0.0481024 0
M  V30 456 C 46.6402 4.13786 -0.9296 0
M  V30 457 N 47.0312 4.60388 -2.09467 0
M  V30 458 C 45.3292 4.39572 -0.754499 0
M  V30 459 C 46.0302 5.14619 -2.71187 0
M  V30 460 N 45.0062 5.05826 -1.991 0
M  V30 461 H 48.8082 2.53877 -1.48066 0
M  V30 462 H 46.3222 1.34946 -0.903514 0
M  V30 463 H 48.3192 4.15136 0.383058 0
M  V30 464 H 46.9792 3.11048 0.931636 0
M  V30 465 H 47.9902 4.54999 -2.47379 0
M  V30 466 H 44.6672 4.17425 0.0793713 0
M  V30 467 H 46.0572 5.60917 -3.69895 0
M  V30 468 N 48.7773 0.814389 1.34928 0
M  V30 469 C 49.7403 0.235759 2.27984 0
M  V30 470 C 50.7403 -0.581412 1.49921 0
M  V30 471 O 51.9303 -0.398758 1.69575 0
M  V30 472 C 49.0623 -0.670433 3.34242 0
M  V30 473 H 50.2553 1.05659 2.80671 0
M  V30 474 H 47.8083 0.585614 1.44915 0
M  V30 475 H 48.5433 -1.51466 2.86755 0
M  V30 476 H 48.3283 -0.0860822 3.92005 0
M  V30 477 H 49.8183 -1.06935 4.03676 0
M  V30 478 N 50.2554 -1.46986 0.568584 0
M  V30 479 C 51.2024 -2.30153 -0.172707 0
M  V30 480 C 52.1724 -1.39759 -0.897586 0
M  V30 481 O 53.3574 -1.68716 -0.891044 0
M  V30 482 C 50.4974 -3.23952 -1.1895 0
M  V30 483 C 49.6104 -4.29441 -0.469517 0
M  V30 484 C 48.7454 -5.1038 -1.47259 0
M  V30 485 C 47.7844 -6.07632 -0.738225 0
M  V30 486 N 46.9214 -6.8149 -1.68868 0
M  V30 487 H 51.7614 -2.93019 0.542596 0
M  V30 488 H 49.2984 -1.44422 0.279401 0
M  V30 489 H 51.2564 -3.76767 -1.79173 0
M  V30 490 H 49.8864 -2.62926 -1.87269 0
M  V30 491 H 48.9384 -3.79594 0.247467 0
M  V30 492 H 50.2504 -4.98689 0.105241 0
M  V30 493 H 49.4044 -5.67402 -2.14803 0
M  V30 494 H 48.1434 -4.4106 -2.08128 0
M  V30 495 H 47.1484 -5.49778 -0.0489293 0
M  V30 496 H 48.3734 -6.78966 -0.135129 0
M  V30 497 H 46.3194 -6.14891 -2.28573 0
M  V30 498 H 46.2364 -7.46948 -1.16636 0
M  V30 499 H 47.5044 -7.43078 -2.3549 0
M  V30 500 N 51.7335 -0.305618 -1.54608 0
M  V30 501 C 52.6965 0.555591 -2.22364 0
M  V30 502 C 53.6965 1.05768 -1.21119 0
M  V30 503 O 54.8865 0.952972 -1.45822 0
M  V30 504 C 52.0185 1.76974 -2.91364 0
M  V30 505 H 53.2115 -0.0364572 -2.99878 0
M  V30 506 H 50.7645 -0.0565007 -1.56198 0
M  V30 507 H 51.4995 2.40151 -2.17941 0
M  V30 508 H 51.2845 1.41732 -3.65588 0
M  V30 509 H 52.7745 2.38148 -3.43038 0
M  V30 510 N 53.2116 1.57565 -0.0334293 0
M  V30 511 C 54.4366 1.96689 0.657895 0
M  V30 512 C 54.8616 0.910057 1.64619 0
M  V30 513 O 54.2196 -0.128598 1.80843 0
M  V30 514 C 54.2676 3.34905 1.33683 0
M  V30 515 O 53.3716 3.31574 2.45219 0
M  V30 516 H 52.7126 0.641205 0.172489 0
M  V30 517 H 55.2426 2.04372 -0.0965621 0
M  V30 518 H 55.2526 3.71234 1.69262 0
M  V30 519 H 53.9276 4.11366 0.612411 0
M  V30 520 H 52.5046 3.06968 2.11719 0
M  V30 521 N 54.6897 -0.239769 1.55765 0
M  V30 522 C 55.9147 -0.988373 1.82335 0
M  V30 523 C 56.3397 -1.77886 0.611421 0
M  V30 524 O 55.6977 -1.75889 -0.439639 0
M  V30 525 C 55.7457 -1.89627 3.06715 0
M  V30 526 O 54.8497 -2.98904 2.84131 0
M  V30 527 H 54.1907 -0.280858 0.601677 0
M  V30 528 H 56.7207 -0.258597 2.02959 0
M  V30 529 H 56.7307 -2.30957 3.36338 0
M  V30 530 H 55.4057 -1.31511 3.9456 0
M  V30 531 H 53.9827 -2.61651 2.65694 0
M  V30 532 N 56.1678 -1.49265 -0.50573 0
M  V30 533 C 57.3928 -1.62478 -1.28902 0
M  V30 534 C 57.8178 -0.294332 -1.85783 0
M  V30 535 O 57.1758 0.737412 -1.65626 0
M  V30 536 C 57.2238 -2.69268 -2.39848 0
M  V30 537 O 56.3278 -2.28113 -3.43567 0
M  V30 538 H 55.6688 -0.54399 -0.380751 0
M  V30 539 H 58.1988 -1.95421 -0.605952 0
M  V30 540 H 58.2088 -2.91291 -2.85681 0
M  V30 541 H 56.8838 -3.65846 -1.97812 0
M  V30 542 H 55.4608 -2.16401 -3.03685 0
M  V30 543 N 57.6459 0.756429 -1.3826 0
M  V30 544 C 58.5759 1.88374 -1.37976 0
M  V30 545 C 59.5569 1.68311 -0.246082 0
M  V30 546 O 60.7419 1.88944 -0.44874 0
M  V30 547 C 57.8719 3.25864 -1.20125 0
M  V30 548 C 56.8259 3.60523 -2.30666 0
M  V30 549 C 56.1519 4.9672 -1.97923 0
M  V30 550 C 57.4519 3.65692 -3.72916 0
M  V30 551 H 59.1459 1.88869 -2.32312 0
M  V30 552 H 56.6919 0.907272 -1.11824 0
M  V30 553 H 58.6449 4.0438 -1.18552 0
M  V30 554 H 57.3689 3.25841 -0.222498 0
M  V30 555 H 56.0279 2.84324 -2.3142 0
M  V30 556 H 55.6759 4.93253 -0.985393 0
M  V30 557 H 55.3759 5.20878 -2.71955 0
M  V30 558 H 56.8999 5.77618 -1.97964 0
M  V30 559 H 58.3139 4.34328 -3.74208 0
M  V30 560 H 56.7109 4.01358 -4.4613 0
M  V30 561 H 57.7809 2.65987 -4.05436 0
M  V30 562 N 59.124 1.23083 0.984299 0
M  V30 563 C 60.372 1.05848 1.72165 0
M  V30 564 C 60.693 -0.406049 1.90726 0
M  V30 565 O 59.963 -1.29139 1.47309 0
M  V30 566 H 58.543 0.388685 0.637913 0
M  V30 567 H 61.205 1.54736 1.18503 0
M  V30 568 H 60.301 1.54327 2.71274 0
M  V30 569 N 60.6021 -1.18246 1.0419 0
M  V30 570 C 61.8271 -1.92736 0.765996 0
M  V30 571 C 62.2521 -1.75728 -0.67091 0
M  V30 572 O 61.6101 -1.06825 -1.46486 0
M  V30 573 C 61.6581 -3.42148 1.13875 0
M  V30 574 O 60.7621 -4.11548 0.264954 0
M  V30 575 H 60.1031 -0.601238 0.281797 0
M  V30 576 H 62.6331 -1.49942 1.39207 0
M  V30 577 H 62.6431 -3.92858 1.1012 0
M  V30 578 H 61.3181 -3.53848 2.18551 0
M  V30 579 H 59.8951 -3.71137 0.362226 0
M  V30 580 N 62.0802 -0.821533 -1.34494 0
M  V30 581 C 63.0432 -0.247847 -2.27856 0
M  V30 582 C 64.0432 0.573453 -1.50227 0
M  V30 583 O 65.2332 0.389759 -1.69784 0
M  V30 584 C 62.3652 0.652698 -3.34593 0
M  V30 585 H 63.5582 -1.07146 -2.80107 0
M  V30 586 H 61.1112 -0.593291 -1.44602 0
M  V30 587 H 61.8462 1.49943 -2.87555 0
M  V30 588 H 61.6312 0.065292 -3.92046 0
M  V30 589 H 63.1212 1.04793 -4.04238 0
M  V30 590 N 63.5583 1.46682 -0.576371 0
M  V30 591 C 64.5053 2.30241 0.160499 0
M  V30 592 C 65.4753 1.40233 0.890162 0
M  V30 593 O 66.6603 1.69186 0.882084 0
M  V30 594 C 63.8003 3.24578 1.1723 0
M  V30 595 C 62.9133 4.29684 0.446736 0
M  V30 596 C 62.0483 5.11154 1.44551 0
M  V30 597 C 61.0873 6.08015 0.70599 0
M  V30 598 N 60.2243 6.82376 1.65251 0
M  V30 599 H 65.0643 2.92727 -0.558127 0
M  V30 600 H 62.6013 1.44272 -0.287056 0
M  V30 601 H 64.5593 3.77711 1.77172 0
M  V30 602 H 63.1893 2.63916 1.85872 0
M  V30 603 H 62.2413 3.79458 -0.267594 0
M  V30 604 H 63.5533 4.98626 -0.131686 0
M  V30 605 H 62.7073 5.68533 2.11791 0
M  V30 606 H 61.4463 4.42158 2.05786 0
M  V30 607 H 60.4513 5.49796 0.0197725 0
M  V30 608 H 61.6763 6.79028 0.09912 0
M  V30 609 H 59.6223 6.16094 2.25308 0
M  V30 610 H 59.5393 7.47556 1.12673 0
M  V30 611 H 60.8073 7.44316 2.31546 0
M  V30 612 N 65.0364 0.313813 1.54444 0
M  V30 613 C 66.2844 -0.291099 1.99993 0
M  V30 614 C 66.6054 -1.53418 1.20366 0
M  V30 615 O 65.8754 -1.93544 0.302927 0
M  V30 616 H 64.4554 -0.110552 0.738774 0
M  V30 617 H 67.1174 0.428106 1.9014 0
M  V30 618 H 66.2134 -0.554268 3.07139 0
M  V30 619 N 66.5145 -1.57545 0.0417849 0
M  V30 620 C 67.7615 -1.92317 -0.634082 0
M  V30 621 C 68.0895 -0.919334 -1.71402 0
M  V30 622 O 67.3445 0.0698253 -1.95575 0
M  V30 623 C 67.6435 -3.33794 -1.27735 0
M  V30 624 C 67.3095 -4.49716 -0.326543 0
M  V30 625 C 65.9715 -4.81156 -0.0648814 0
M  V30 626 C 68.3235 -5.20182 0.325623 0
M  V30 627 C 65.6515 -5.80414 0.856539 0
M  V30 628 C 68.0035 -6.20424 1.23518 0
M  V30 629 C 66.6675 -6.50298 1.5056 0
M  V30 630 H 65.9375 -0.703736 -0.232027 0
M  V30 631 H 68.5845 -1.91205 0.106259 0
M  V30 632 H 66.8895 -3.31228 -2.09274 0
M  V30 633 H 68.5865 -3.57975 -1.80707 0
M  V30 634 H 65.1765 -4.25176 -0.540665 0
M  V30 635 H 69.3605 -4.96112 0.136546 0
M  V30 636 H 64.6165 -6.019 1.07363 0
M  V30 637 H 68.7905 -6.74141 1.74664 0
M  V30 638 H 66.4175 -7.27025 2.22123 0
M  V30 639 N 67.9926 0.231505 -1.5589 0
M  V30 640 C 69.2176 0.978689 -1.82856 0
M  V30 641 C 69.6426 1.77559 -0.620846 0
M  V30 642 O 69.0006 1.76119 0.430305 0
M  V30 643 C 69.0486 1.87997 -3.07716 0
M  V30 644 O 68.1526 2.97393 -2.85712 0
M  V30 645 H 67.4936 0.277663 -0.603158 0
M  V30 646 H 70.0236 0.24783 -2.03093 0
M  V30 647 H 70.0336 2.2917 -3.37558 0
M  V30 648 H 68.7086 1.29417 -3.95252 0
M  V30 649 H 67.2856 2.60238 -2.67078 0
M  V30 650 N 69.4707 1.49531 0.497807 0
M  V30 651 C 70.8817 1.52344 1.07927 0
M  V30 652 C 71.2327 0.311469 1.93712 0
M  V30 653 O 70.3577 -0.578405 2.08527 0
M  V30 654 C 70.9527 2.76062 1.96405 0
M  V30 655 C 69.5117 2.81643 2.49709 0
M  V30 656 C 68.6587 2.46299 1.27404 0
M  V30 657 H 71.6097 1.56182 0.281576 0
M  V30 658 H 71.6307 2.56405 2.81135 0
M  V30 659 H 71.1427 3.64254 1.33943 0
M  V30 660 H 69.2437 1.97739 3.15801 0
M  V30 661 H 69.3567 3.83891 2.86643 0
M  V30 662 H 67.7207 1.98148 1.60029 0
M  V30 663 H 68.5037 3.36769 0.66645 0
M  V30 664 N 70.9488 -0.749086 1.3866 0
M  V30 665 C 72.3648 -1.05276 1.19955 0
M  V30 666 C 72.5648 -2.01435 0.05134 0
M  V30 667 O 71.6208 -2.45232 -0.60147 0
M  V30 668 C 72.9338 -1.62853 2.52783 0
M  V30 669 C 74.4818 -1.75002 2.59506 0
M  V30 670 C 74.9568 -2.35991 3.92521 0
M  V30 671 N 76.4478 -2.43416 3.94085 0
M  V30 672 C 77.1828 -2.91511 4.9377 0
M  V30 673 N 76.6788 -3.39608 6.03853 0
M  V30 674 N 78.4718 -2.90592 4.81157 0
M  V30 675 H 70.6228 -0.111066 2.12109 0
M  V30 676 H 72.8858 -0.111901 0.941373 0
M  V30 677 H 72.5918 -0.99664 3.37283 0
M  V30 678 H 72.4658 -2.61854 2.715 0
M  V30 679 H 74.8528 -2.37317 1.75398 0
M  V30 680 H 74.9338 -0.74693 2.44652 0
M  V30 681 H 74.5778 -1.74308 4.77053 0
M  V30 682 H 74.5078 -3.3695 4.04688 0
M  V30 683 H 76.9988 -2.09405 3.14576 0
M  V30 684 H 77.3118 -3.74775 6.75843 0
M  V30 685 H 75.6568 -3.37653 6.07466 0
M  V30 686 H 78.8478 -2.52332 3.94267 0
M  V30 687 H 79.0208 -3.27762 5.58996 0
M  V30 688 N 72.4269 -1.23603 -0.977757 0
M  V30 689 C 73.6759 -1.06377 -1.71368 0
M  V30 690 C 73.9889 0.399062 -1.91486 0
M  V30 691 O 75.1949 0.691312 -2.62551 0
M  V30 692 C 73.6509 -1.85512 -3.08404 0
M  V30 693 C 73.2589 -3.36141 -2.96164 0
M  V30 694 C 75.0029 -1.76783 -3.85938 0
M  V30 695 C 72.9099 -4.07659 -4.28449 0
M  V30 696 H 71.8399 -0.394452 -0.642591 0
M  V30 697 H 74.4909 -1.47594 -1.09034 0
M  V30 698 H 72.8729 -1.37103 -3.71509 0
M  V30 699 H 74.0469 -3.92056 -2.42133 0
M  V30 700 H 72.3619 -3.45712 -2.32104 0
M  V30 701 H 74.9589 -2.27526 -4.83876 0
M  V30 702 H 75.3019 -0.731116 -4.0983 0
M  V30 703 H 75.8349 -2.22818 -3.2954 0
M  V30 704 H 72.5739 -5.11648 -4.09752 0
M  V30 705 H 72.0939 -3.5653 -4.82334 0
M  V30 706 H 73.7729 -4.141 -4.97122 0
M  V30 707 N 73.905 1.17692 -1.04816 0
M  V30 708 C 75.13 1.92327 -0.776207 0
M  V30 709 C 75.555 1.76082 0.661581 0
M  V30 710 O 74.913 1.076 1.45917 0
M  V30 711 C 74.961 3.41539 -1.15687 0
M  V30 712 O 74.065 4.11402 -0.286775 0
M  V30 713 H 73.406 0.599735 -0.284981 0
M  V30 714 H 75.936 1.49201 -1.4 0
M  V30 715 H 75.946 3.92269 -1.12202 0
M  V30 716 H 74.621 3.52684 -2.20425 0
M  V30 717 H 73.198 3.70939 -0.381903 0
M  V30 718 N 75.3831 0.828654 1.34056 0
M  V30 719 C 76.3461 0.259927 2.27721 0
M  V30 720 C 77.3461 -0.565478 1.50529 0
M  V30 721 O 78.5361 -0.38075 1.69988 0
M  V30 722 C 75.6681 -0.634944 3.34935 0
M  V30 723 H 76.8611 1.0863 2.79534 0
M  V30 724 H 74.4141 0.600951 1.44285 0
M  V30 725 H 75.1491 -1.48416 2.88346 0
M  V30 726 H 74.9341 -0.0444999 3.92075 0
M  V30 727 H 76.4241 -1.02648 4.04788 0
M  V30 728 N 76.8612 -1.46375 0.584142 0
M  V30 729 C 78.1092 -2.01978 0.0701287 0
M  V30 730 C 78.4302 -1.4579 -1.295 0
M  V30 731 O 77.7002 -0.64314 -1.85042 0
M  V30 732 H 76.2802 -0.746648 0.0229345 0
M  V30 733 H 78.9422 -1.79461 0.760245 0
M  V30 734 H 78.0382 -3.121 0.0022064 0
M  V30 735 N 78.3393 -0.321999 -1.54275 0
M  V30 736 C 79.5693 0.282642 -2.04658 0
M  V30 737 C 79.9773 1.46453 -1.19784 0
M  V30 738 O 79.3203 1.82367 -0.220932 0
M  V30 739 C 79.3823 0.781857 -3.50895 0
M  V30 740 C 79.0463 -0.277517 -4.56157 0
M  V30 741 C 80.0433 -1.11307 -5.07845 0
M  V30 742 C 77.7283 -0.425256 -5.00497 0
M  V30 743 C 79.7223 -2.08211 -6.02434 0
M  V30 744 C 77.4093 -1.39771 -5.94901 0
M  V30 745 C 78.4073 -2.2246 -6.45756 0
M  V30 746 O 78.0953 -3.18054 -7.38307 0
M  V30 747 H 77.8273 0.0622636 -0.673126 0
M  V30 748 H 80.3813 -0.465792 -2.00049 0
M  V30 749 H 78.6113 1.58118 -3.52896 0
M  V30 750 H 80.3003 1.30467 -3.84361 0
M  V30 751 H 81.0663 -1.00991 -4.74369 0
M  V30 752 H 76.9453 0.20847 -4.60528 0
M  V30 753 H 80.4893 -2.72791 -6.42052 0
M  V30 754 H 76.3863 -1.50152 -6.27794 0
M  V30 755 H 77.1543 -3.13275 -7.56175 0
M  V30 756 N 79.8174 1.5752 -0.0501392 0
M  V30 757 C 81.2334 1.56631 0.306402 0
M  V30 758 C 81.4334 1.0577 1.71508 0
M  V30 759 O 80.4894 0.713837 2.422 0
M  V30 760 C 81.8024 3.00393 0.135811 0
M  V30 761 C 83.3504 3.12315 0.206993 0
M  V30 762 C 83.8254 4.57954 0.064944 0
M  V30 763 N 85.3164 4.63041 0.121254 0
M  V30 764 C 86.0514 5.73389 0.0354381 0
M  V30 765 N 85.5474 6.92724 -0.102666 0
M  V30 766 N 87.3404 5.62026 0.090946 0
M  V30 767 H 79.4914 1.88903 -0.971046 0
M  V30 768 H 81.7544 0.869876 -0.376855 0
M  V30 769 H 81.4604 3.41635 -0.835384 0
M  V30 770 H 81.3344 3.66373 0.897275 0
M  V30 771 H 83.7214 2.70973 1.16866 0
M  V30 772 H 83.8024 2.49016 -0.585208 0
M  V30 773 H 83.4464 4.99981 -0.893394 0
M  V30 774 H 83.3764 5.19258 0.876277 0
M  V30 775 H 85.8674 3.77216 0.227284 0
M  V30 776 H 86.1804 7.72633 -0.160882 0
M  V30 777 H 84.5254 6.94864 -0.137737 0
M  V30 778 H 87.7164 4.67684 0.197388 0
M  V30 779 H 87.8894 6.47997 0.0206089 0
M  V30 780 N 81.2955 -0.223234 1.56011 0
M  V30 781 C 82.5445 -0.945912 1.78144 0
M  V30 782 C 82.8575 -1.85567 0.618396 0
M  V30 783 O 84.0635 -2.61688 0.723318 0
M  V30 784 C 82.5195 -1.73216 3.15475 0
M  V30 785 C 82.1275 -0.868619 4.39499 0
M  V30 786 C 83.8715 -2.44615 3.46935 0
M  V30 787 C 81.7785 -1.65212 5.67855 0
M  V30 788 H 80.7085 -0.356929 0.664167 0
M  V30 789 H 83.3595 -0.199845 1.82409 0
M  V30 790 H 81.7415 -2.52107 3.05382 0
M  V30 791 H 82.9155 -0.120366 4.60643 0
M  V30 792 H 81.2305 -0.26683 4.15544 0
M  V30 793 H 83.8275 -3.03732 4.40058 0
M  V30 794 H 84.1705 -3.17417 2.69355 0
M  V30 795 H 84.7035 -1.72715 3.58349 0
M  V30 796 H 81.4425 -0.967407 6.48322 0
M  V30 797 H 80.9625 -2.37503 5.50774 0
M  V30 798 H 82.6415 -2.21322 6.07968 0
M  V30 799 N 82.7736 -1.49793 -0.48987 0
M  V30 800 C 83.7216 -1.67783 -1.61095 0
M  V30 801 C 84.7156 -0.543683 -1.60438 0
M  V30 802 O 85.9216 -0.723647 -1.64813 0
M  V30 803 H 82.2966 -0.529255 -0.534222 0
M  V30 804 H 84.2676 -2.61861 -1.43078 0
M  V30 805 C 83.0166 -1.77191 -2.99164 0
M  V30 806 H 82.3396 -2.63841 -3.0038 0
M  V30 807 H 83.7796 -1.93809 -3.77113 0
M  V30 808 C 82.2386 -0.519203 -3.32875 0
M  V30 809 O 82.7686 0.350124 -4.00171 0
M  V30 810 N 80.9746 -0.378816 -2.8812 0
M  V30 811 H 80.5216 -1.08725 -2.33531 0
M  V30 812 H 80.4796 0.458239 -3.11043 0
M  V30 813 N 84.2517 0.741722 -1.39055 0
M  V30 814 C 85.5287 1.49252 -1.26425 0
M  V30 815 C 85.9087 2.10705 0.129144 0
M  V30 816 O 85.2567 1.98045 1.13976 0
M  V30 817 C 85.4667 2.54934 -2.38347 0
M  V30 818 C 86.8147 3.21506 -2.77343 0
M  V30 819 O 87.8387 2.65245 -2.37747 0
M  V30 820 O 86.6977 4.23294 -3.45665 0
M  V30 821 H 83.7917 0.662451 -0.495064 0
M  V30 822 H 86.3377 0.776121 -1.50912 0
M  V30 823 H 85.1097 2.07857 -3.31529 0
M  V30 824 H 84.7327 3.34141 -2.15489 0
M  V30 825 N 85.7298 1.2412 0.971189 0
M  V30 826 C 86.6598 1.05508 2.08304 0
M  V30 827 C 87.6408 -0.0308864 1.70072 0
M  V30 828 O 88.8258 0.135521 1.93727 0
M  V30 829 C 85.9558 0.655365 3.4106 0
M  V30 830 C 84.9098 1.68971 3.93234 0
M  V30 831 C 84.2358 1.14516 5.22293 0
M  V30 832 C 85.5358 3.08487 4.21465 0
M  V30 833 H 87.2298 1.98507 2.24132 0
M  V30 834 H 84.7758 0.955821 1.07704 0
M  V30 835 H 86.7288 0.51217 4.18276 0
M  V30 836 H 85.4528 -0.31032 3.25122 0
M  V30 837 H 84.1118 1.82106 3.18171 0
M  V30 838 H 83.7598 0.170189 5.02712 0
M  V30 839 H 83.4598 1.83635 5.58168 0
M  V30 840 H 84.9838 1.01401 6.02121 0
M  V30 841 H 86.3978 2.98601 4.89398 0
M  V30 842 H 84.7948 3.74926 4.68562 0
M  V30 843 H 85.8648 3.56787 3.28376 0
M  V30 844 N 87.2079 -1.17134 1.05439 0
M  V30 845 C 88.6239 -1.39454 0.776201 0
M  V30 846 C 88.8239 -1.91454 -0.628307 0
M  V30 847 O 87.8799 -2.10777 -1.39031 0
M  V30 848 C 89.1929 -2.38305 1.83388 0
M  V30 849 C 90.7409 -2.52006 1.85639 0
M  V30 850 C 91.2159 -3.54133 2.90437 0
M  V30 851 N 92.7069 -3.61653 2.89415 0
M  V30 852 C 93.4419 -4.4044 3.67152 0
M  V30 853 N 92.9379 -5.22721 4.54681 0
M  V30 854 N 94.7309 -4.35337 3.55581 0
M  V30 855 H 86.8819 -0.817134 1.96053 0
M  V30 856 H 89.1449 -0.421626 0.849079 0
M  V30 857 H 88.8509 -2.07173 2.84204 0
M  V30 858 H 88.7249 -3.37841 1.67761 0
M  V30 859 H 91.1119 -2.82447 0.85486 0
M  V30 860 H 91.1929 -1.52537 2.05344 0
M  V30 861 H 90.8369 -3.24431 3.90777 0
M  V30 862 H 90.7669 -4.53313 2.67983 0
M  V30 863 H 93.2579 -3.02909 2.25952 0
M  V30 864 H 93.5709 -5.80027 5.10674 0
M  V30 865 H 91.9159 -5.22093 4.58741 0
M  V30 866 H 95.1069 -3.70112 2.86592 0
M  V30 867 H 95.2799 -4.96494 4.1641 0
M  V30 868 N 88.686 -0.835752 -1.33615 0
M  V30 869 C 89.933 -0.429959 -1.97883 0
M  V30 870 C 90.261 1.01006 -1.66217 0
M  V30 871 O 89.516 1.72047 -0.93265 0
M  V30 872 C 89.815 -0.593925 -3.52431 0
M  V30 873 C 89.481 -2.00158 -4.04039 0
M  V30 874 C 88.143 -2.38662 -4.17844 0
M  V30 875 C 90.495 -2.92117 -4.31644 0
M  V30 876 C 87.823 -3.68435 -4.56588 0
M  V30 877 C 90.175 -4.21368 -4.71838 0
M  V30 878 C 88.839 -4.59833 -4.83849 0
M  V30 879 H 88.109 -0.157333 -0.724104 0
M  V30 880 H 90.756 -1.06217 -1.59343 0
M  V30 881 H 89.061 0.121619 -3.91611 0
M  V30 882 H 90.758 -0.260282 -4.00154 0
M  V30 883 H 87.348 -1.69252 -3.93766 0
M  V30 884 H 91.532 -2.63608 -4.20505 0
M  V30 885 H 86.788 -3.98046 -4.64079 0
M  V30 886 H 90.962 -4.92703 -4.92155 0
M  V30 887 H 88.589 -5.60438 -5.13627 0
M  V30 888 N 90.1641 1.46063 -0.591896 0
M  V30 889 C 91.1271 2.28854 0.125973 0
M  V30 890 C 92.1271 1.38903 0.810107 0
M  V30 891 O 93.3171 1.61186 0.66066 0
M  V30 892 C 90.4491 3.19526 1.1881 0
M  V30 893 H 91.6421 2.93802 -0.601717 0
M  V30 894 H 89.1951 1.52325 -0.350254 0
M  V30 895 H 89.9301 2.59345 1.94707 0
M  V30 896 H 89.7151 3.85766 0.701936 0
M  V30 897 H 91.2051 3.81817 1.69132 0
M  V30 898 N 91.6422 0.330177 1.54103 0
M  V30 899 C 92.8882 -0.270806 2.00984 0
M  V30 900 C 93.2212 -1.51265 1.21789 0
M  V30 901 O 92.4962 -1.92142 0.301927 0
M  V30 902 C 92.7792 -0.598339 3.55094 0
M  V30 903 C 92.6322 0.654674 4.4501 0
M  V30 904 C 93.9512 -1.41334 4.16789 0
M  V30 905 H 91.0702 -0.0969531 0.730595 0
M  V30 906 H 93.7122 0.448066 1.84641 0
M  V30 907 H 91.8622 -1.21078 3.69151 0
M  V30 908 H 93.5342 1.29285 4.42813 0
M  V30 909 H 91.7772 1.28224 4.14416 0
M  V30 910 H 92.4482 0.380944 5.50684 0
M  V30 911 H 94.9242 -0.895597 4.06347 0
M  V30 912 H 93.8002 -1.61127 5.24718 0
M  V30 913 H 94.0612 -2.41146 3.70541 0
M  V30 914 N 93.1203 -1.57491 0.0584922 0
M  V30 915 C 94.3973 -1.84346 -0.653918 0
M  V30 916 C 94.7773 -0.948355 -1.88599 0
M  V30 917 O 94.1253 -0.0112403 -2.28497 0
M  V30 918 C 94.3353 -3.34239 -1.00425 0
M  V30 919 C 95.6833 -4.01431 -1.38342 0
M  V30 920 O 96.7073 -3.38907 -1.09637 0
M  V30 921 O 95.5663 -5.11683 -1.91943 0
M  V30 922 H 92.6603 -0.761112 -0.323478 0
M  V30 923 H 95.2063 -1.6947 0.0884125 0
M  V30 924 H 93.9783 -3.91089 -0.128625 0
M  V30 925 H 93.6013 -3.54329 -1.80378 0
M  V30 926 N 94.5984 0.214957 -1.56127 0
M  V30 927 C 95.8284 0.953707 -1.8327 0
M  V30 928 C 96.2364 1.78181 -0.636262 0
M  V30 929 O 95.5794 1.79191 0.404516 0
M  V30 930 C 95.6414 1.91516 -3.0424 0
M  V30 931 C 95.3054 1.27094 -4.38972 0
M  V30 932 C 96.3024 0.657575 -5.15725 0
M  V30 933 C 93.9874 1.28073 -4.85698 0
M  V30 934 C 95.9814 0.0625968 -6.37369 0
M  V30 935 C 93.6684 0.681914 -6.07283 0
M  V30 936 C 94.6664 0.0739046 -6.8296 0
M  V30 937 O 94.3544 -0.515582 -8.02245 0
M  V30 938 H 94.0864 0.284764 -0.613095 0
M  V30 939 H 96.6404 0.233283 -2.04071 0
M  V30 940 H 94.8704 2.67475 -2.79274 0
M  V30 941 H 96.5594 2.52001 -3.18198 0
M  V30 942 H 97.3254 0.642288 -4.80728 0
M  V30 943 H 93.2044 1.74337 -4.26764 0
M  V30 944 H 96.7484 -0.412593 -6.96379 0
M  V30 945 H 92.6454 0.694636 -6.41752 0
M  V30 946 H 93.4134 -0.410544 -8.1747 0
M  V30 947 N 96.0765 1.50051 0.48192 0
M  V30 948 C 97.3045 1.64237 1.25832 0
M  V30 949 C 97.7195 0.321336 1.86045 0
M  V30 950 O 97.0765 -0.695478 1.68729 0
M  V30 951 C 97.1275 2.72548 2.37487 0
M  V30 952 O 96.8485 3.99529 1.79745 0
M  V30 953 C 98.3495 2.9761 3.28547 0
M  V30 954 H 95.5695 0.55237 0.380957 0
M  V30 955 H 98.1135 1.96207 0.576467 0
M  V30 956 H 96.2685 2.43303 3.01467 0
M  V30 957 H 96.6825 4.59342 2.5319 0
M  V30 958 H 98.1565 3.77084 4.03127 0
M  V30 959 H 98.6335 2.0826 3.86684 0
M  V30 960 H 99.2395 3.28345 2.70314 0
M  V30 961 N 97.5546 -0.734337 1.39446 0
M  V30 962 C 98.9706 -1.03997 1.21065 0
M  V30 963 C 99.1706 -2.01369 0.0727019 0
M  V30 964 O 98.2266 -2.45856 -0.575426 0
M  V30 965 C 99.5396 -1.60163 2.54496 0
M  V30 966 C 101.088 -1.7224 2.61347 0
M  V30 967 C 101.563 -2.31814 3.95002 0
M  V30 968 N 103.054 -2.39223 3.96644 0
M  V30 969 C 103.789 -2.86258 4.96834 0
M  V30 970 N 103.285 -3.33184 6.07421 0
M  V30 971 N 105.078 -2.85473 4.84213 0
M  V30 972 H 97.2286 -0.0885624 2.12215 0
M  V30 973 H 99.4916 -0.10191 0.942506 0
M  V30 974 H 99.1976 -0.960811 3.38321 0
M  V30 975 H 99.0716 -2.5896 2.74262 0
M  V30 976 H 101.459 -2.35443 1.77906 0
M  V30 977 H 101.54 -0.720939 2.4543 0
M  V30 978 H 101.184 -1.69238 4.78875 0
M  V30 979 H 101.114 -3.32638 4.08239 0
M  V30 980 H 103.605 -2.06057 3.16779 0
M  V30 981 H 103.918 -3.67586 6.7978 0
M  V30 982 H 102.263 -3.31191 6.11013 0
M  V30 983 H 105.454 -2.48136 3.96921 0
M  V30 984 H 105.627 -3.21814 5.62441 0
M  V30 985 N 99.0327 -1.24633 -0.964593 0
M  V30 986 C 100.263 -1.11339 -1.74032 0
M  V30 987 C 100.671 0.336593 -1.86182 0
M  V30 988 O 100.014 1.24389 -1.35178 0
M  V30 989 C 100.076 -1.68284 -3.1768 0
M  V30 990 C 99.7397 -3.17196 -3.28992 0
M  V30 991 C 100.737 -4.14308 -3.14078 0
M  V30 992 C 98.4217 -3.57215 -3.53133 0
M  V30 993 C 100.416 -5.4942 -3.23135 0
M  V30 994 C 98.1027 -4.92468 -3.61827 0
M  V30 995 C 99.1007 -5.8838 -3.46841 0
M  V30 996 O 98.7887 -7.21173 -3.55197 0
M  V30 997 H 98.5207 -0.389551 -0.552472 0
M  V30 998 H 101.075 -1.65282 -1.21946 0
M  V30 999 H 99.3047 -1.08777 -3.71085 0
M  V30 1000 H 100.994 -1.50234 -3.77074 0
M  V30 1001 H 101.76 -3.84731 -2.95308 0
M  V30 1002 H 97.6387 -2.83063 -3.63863 0
M  V30 1003 H 101.183 -6.24263 -3.11355 0
M  V30 1004 H 97.0797 -5.21714 -3.80111 0
M  V30 1005 H 97.8477 -7.29135 -3.71892 0
M  V30 1006 N 100.511 1.16574 -1.06058 0
M  V30 1007 C 101.458 2.20883 -0.669263 0
M  V30 1008 C 102.428 1.62729 0.332918 0
M  V30 1009 O 103.613 1.895 0.222346 0
M  V30 1010 C 100.753 3.45049 -0.0593572 0
M  V30 1011 C 99.8658 4.17458 -1.11143 0
M  V30 1012 C 99.0008 5.29135 -0.467916 0
M  V30 1013 C 98.0398 5.93343 -1.50369 0
M  V30 1014 N 97.1768 6.96516 -0.883706 0
M  V30 1015 H 102.017 2.53709 -1.5632 0
M  V30 1016 H 99.5538 1.24616 -0.781625 0
M  V30 1017 H 101.512 4.16033 0.311771 0
M  V30 1018 H 100.142 3.12781 0.797992 0
M  V30 1019 H 99.1938 3.45101 -1.60029 0
M  V30 1020 H 100.506 4.61307 -1.89731 0
M  V30 1021 H 99.6598 6.06684 -0.0436871 0
M  V30 1022 H 98.3988 4.86443 0.349864 0
M  V30 1023 H 97.4038 5.14517 -1.93784 0
M  V30 1024 H 98.6288 6.38114 -2.32352 0
M  V30 1025 H 96.5748 6.55943 -0.086595 0
M  V30 1026 H 96.4918 7.38723 -1.607 0
M  V30 1027 H 97.7598 7.77993 -0.484543 0
M  V30 1028 N 101.989 0.842826 1.3317 0
M  V30 1029 C 102.937 0.267495 2.31057 0
M  V30 1030 C 103.931 -0.602682 1.58316 0
M  V30 1031 O 105.137 -0.491803 1.73151 0
M  V30 1032 H 101.512 0.0677813 0.748939 0
M  V30 1033 H 103.483 1.10754 2.77085 0
M  V30 1034 C 102.232 -0.539331 3.43492 0
M  V30 1035 H 101.555 0.12095 3.99617 0
M  V30 1036 H 102.995 -0.90767 4.14171 0
M  V30 1037 C 101.454 -1.71981 2.89697 0
M  V30 1038 O 101.984 -2.81862 2.86211 0
M  V30 1039 N 100.19 -1.54299 2.46252 0
M  V30 1040 H 99.7369 -0.649143 2.49287 0
M  V30 1041 H 99.6949 -2.33431 2.10612 0
M  V30 1042 N 103.467 -1.45747 0.599634 0
M  V30 1043 C 104.697 -2.06369 0.0977132 0
M  V30 1044 C 105.105 -1.44624 -1.21985 0
M  V30 1045 O 104.448 -0.551831 -1.75216 0
M  V30 1046 C 104.51 -3.59284 -0.124673 0
M  V30 1047 C 104.174 -4.43318 1.10987 0
M  V30 1048 C 105.171 -4.78796 2.02609 0
M  V30 1049 C 102.856 -4.84194 1.33647 0
M  V30 1050 C 104.85 -5.53997 3.15224 0
M  V30 1051 C 102.537 -5.5915 2.46565 0
M  V30 1052 C 103.535 -5.93968 3.37182 0
M  V30 1053 O 103.223 -6.67405 4.48136 0
M  V30 1054 H 102.955 -0.673122 0.0623153 0
M  V30 1055 H 105.509 -1.88104 0.824981 0
M  V30 1056 H 103.739 -3.75919 -0.906745 0
M  V30 1057 H 105.428 -4.01775 -0.577201 0
M  V30 1058 H 106.194 -4.47781 1.86325 0
M  V30 1059 H 102.073 -4.56534 0.64016 0
M  V30 1060 H 105.617 -5.81091 3.85978 0
M  V30 1061 H 101.514 -5.89579 2.62805 0
M  V30 1062 H 102.282 -6.85847 4.46717 0
M  V30 1063 N 104.945 -0.338344 -1.53925 0
M  V30 1064 C 105.892 0.520845 -2.24846 0
M  V30 1065 C 106.862 1.09976 -1.24477 0
M  V30 1066 O 108.047 1.13735 -1.53196 0
M  V30 1067 C 105.187 1.6685 -3.02084 0
M  V30 1068 C 104.3 1.11739 -4.17299 0
M  V30 1069 C 103.435 2.23193 -4.82036 0
M  V30 1070 C 102.474 1.65407 -5.89328 0
M  V30 1071 N 101.611 2.70582 -6.47866 0
M  V30 1072 H 106.451 -0.0904881 -2.97863 0
M  V30 1073 H 103.988 -0.0564282 -1.46992 0
M  V30 1074 H 105.946 2.34407 -3.45122 0
M  V30 1075 H 104.576 2.2509 -2.31375 0
M  V30 1076 H 103.628 0.332919 -3.7894 0
M  V30 1077 H 104.94 0.654677 -4.94485 0
M  V30 1078 H 104.094 2.98626 -5.28117 0
M  V30 1079 H 102.833 2.72807 -4.04262 0
M  V30 1080 H 101.838 0.884779 -5.42634 0
M  V30 1081 H 103.063 1.16652 -6.69006 0
M  V30 1082 H 101.009 3.1946 -5.72959 0
M  V30 1083 H 100.926 2.28917 -7.20509 0
M  V30 1084 H 102.194 3.45799 -6.98601 0
M  V30 1085 N 106.423 1.57458 -0.0668435 0
M  V30 1086 C 107.386 2.11323 0.887422 0
M  V30 1087 C 108.386 1.03618 1.22964 0
M  V30 1088 O 109.576 1.29626 1.16373 0
M  V30 1089 C 106.708 2.61048 2.19242 0
M  V30 1090 H 107.901 2.96942 0.420194 0
M  V30 1091 H 105.454 1.55239 0.181793 0
M  V30 1092 H 106.189 1.78868 2.70512 0
M  V30 1093 H 105.974 3.39769 1.95702 0
M  V30 1094 H 107.464 3.02814 2.87565 0
M  V30 1095 N 107.901 -0.206675 1.56239 0
M  V30 1096 C 109.312 -0.772383 1.69974 0
M  V30 1097 C 109.663 -1.84353 0.671436 0
M  V30 1098 O 108.788 -2.15695 -0.174491 0
M  V30 1099 C 109.383 -1.40779 3.08167 0
M  V30 1100 C 107.942 -1.92072 3.23706 0
M  V30 1101 C 107.089 -0.786347 2.65917 0
M  V30 1102 H 110.04 0.0182223 1.5869 0
M  V30 1103 H 110.061 -2.27696 3.04852 0
M  V30 1104 H 109.573 -0.627958 3.82986 0
M  V30 1105 H 107.674 -2.7281 2.53782 0
M  V30 1106 H 107.787 -2.09046 4.31087 0
M  V30 1107 H 106.151 -1.1976 2.24788 0
M  V30 1108 H 106.934 -0.0189416 3.43295 0
M  V30 1109 N 109.379 -1.50304 -0.473955 0
M  V30 1110 C 110.604 -1.65175 -1.25427 0
M  V30 1111 C 111.029 -0.333673 -1.85117 0
M  V30 1112 O 110.387 0.702114 -1.67153 0
M  V30 1113 C 110.435 -2.74295 -2.34082 0
M  V30 1114 O 109.539 -2.35349 -3.38651 0
M  V30 1115 H 108.88 -0.551944 -0.369126 0
M  V30 1116 H 111.41 -1.96662 -0.564364 0
M  V30 1117 H 111.42 -2.97285 -2.79438 0
M  V30 1118 H 110.095 -3.69959 -1.90008 0
M  V30 1119 H 108.672 -2.22794 -2.99027 0
M  V30 1120 N 110.857 0.726932 -1.39834 0
M  V30 1121 C 112.085 1.51613 -1.40787 0
M  V30 1122 C 112.5 1.88799 -0.00451505 0
M  V30 1123 O 111.857 1.54662 0.968809 0
M  V30 1124 C 111.908 2.79863 -2.28821 0
M  V30 1125 O 111.629 2.44253 -3.63692 0
M  V30 1126 C 113.13 3.73837 -2.38245 0
M  V30 1127 H 110.35 0.468264 -0.480593 0
M  V30 1128 H 112.894 0.897607 -1.83748 0
M  V30 1129 H 111.049 3.38027 -1.89252 0
M  V30 1130 H 111.463 3.26695 -4.1033 0
M  V30 1131 H 112.937 4.60699 -3.04073 0
M  V30 1132 H 113.414 4.16153 -1.40403 0
M  V30 1133 H 114.02 3.21589 -2.78317 0
M  V30 1134 N 112.336 1.25143 0.95797 0
M  V30 1135 C 113.613 1.00472 1.67823 0
M  V30 1136 C 113.993 -0.470056 2.058 0
M  V30 1137 O 113.341 -1.44663 1.76875 0
M  V30 1138 C 113.551 1.9372 2.90299 0
M  V30 1139 C 114.899 2.21371 3.62326 0
M  V30 1140 O 115.923 1.91451 3.00375 0
M  V30 1141 O 114.782 2.72231 4.7387 0
M  V30 1142 H 111.876 0.380752 0.734137 0
M  V30 1143 H 114.422 1.36283 1.01119 0
M  V30 1144 H 113.194 2.93316 2.59001 0
M  V30 1145 H 112.817 1.58286 3.64735 0
M  V30 1146 N 113.814 -1.1601 1.06675 0
M  V30 1147 C 115.061 -1.86633 0.785781 0
M  V30 1148 C 115.389 -1.81929 -0.687896 0
M  V30 1149 O 114.644 -1.23253 -1.52011 0
M  V30 1150 C 114.943 -3.35547 1.23057 0
M  V30 1151 C 114.609 -3.60448 2.70902 0
M  V30 1152 C 113.271 -3.66954 3.11285 0
M  V30 1153 C 115.623 -3.7071 3.66365 0
M  V30 1154 C 112.951 -3.81225 4.45965 0
M  V30 1155 C 115.303 -3.86503 5.00797 0
M  V30 1156 C 113.967 -3.91252 5.40813 0
M  V30 1157 H 113.237 -0.682937 0.287538 0
M  V30 1158 H 115.884 -1.37146 1.33654 0
M  V30 1159 H 114.189 -3.87193 0.59907 0
M  V30 1160 H 115.886 -3.88583 0.990163 0
M  V30 1161 H 112.476 -3.56021 2.38636 0
M  V30 1162 H 116.66 -3.64991 3.36296 0
M  V30 1163 H 111.916 -3.83155 4.76447 0
M  V30 1164 H 116.09 -3.93385 5.74649 0
M  V30 1165 H 113.717 -4.02062 6.45174 0
M  V30 1166 N 115.292 -0.849877 -1.32721 0
M  V30 1167 C 116.239 -0.289033 -2.28983 0
M  V30 1168 C 117.209 0.601324 -1.54833 0
M  V30 1169 O 118.394 0.537253 -1.8308 0
M  V30 1170 C 115.534 0.520623 -3.4115 0
M  V30 1171 C 114.647 -0.394989 -4.3019 0
M  V30 1172 C 113.782 0.426834 -5.29482 0
M  V30 1173 C 112.821 -0.486476 -6.10164 0
M  V30 1174 N 111.958 0.297879 -7.01468 0
M  V30 1175 H 116.798 -1.11519 -2.76347 0
M  V30 1176 H 114.335 -0.56138 -1.35967 0
M  V30 1177 H 116.293 1.00563 -4.04899 0
M  V30 1178 H 114.923 1.31165 -2.9495 0
M  V30 1179 H 113.975 -0.99836 -3.67065 0
M  V30 1180 H 115.287 -1.09612 -4.86607 0
M  V30 1181 H 114.441 0.975205 -5.98811 0
M  V30 1182 H 113.18 1.16136 -4.73671 0
M  V30 1183 H 112.185 -1.04677 -5.39743 0
M  V30 1184 H 113.41 -1.21953 -6.6806 0
M  V30 1185 H 111.356 1.01558 -6.48091 0
M  V30 1186 H 111.273 -0.344318 -7.55216 0
M  V30 1187 H 112.541 0.828131 -7.75089 0
M  V30 1188 N 116.77 1.45427 -0.607355 0
M  V30 1189 C 117.7 2.3329 0.0989352 0
M  V30 1190 C 118.681 1.46816 0.859007 0
M  V30 1191 O 119.866 1.75588 0.829604 0
M  V30 1192 C 116.996 3.29518 1.09705 0
M  V30 1193 C 115.95 4.25626 0.450206 0
M  V30 1194 C 115.276 5.11542 1.55655 0
M  V30 1195 C 116.576 5.18505 -0.628455 0
M  V30 1196 H 118.27 2.92595 -0.634716 0
M  V30 1197 H 115.816 1.40696 -0.306681 0
M  V30 1198 H 117.769 3.89855 1.59971 0
M  V30 1199 H 116.493 2.68372 1.86129 0
M  V30 1200 H 115.152 3.66586 -0.0315886 0
M  V30 1201 H 114.8 4.46765 2.31107 0
M  V30 1202 H 114.5 5.76647 1.12925 0
M  V30 1203 H 116.024 5.74748 2.06148 0
M  V30 1204 H 117.438 5.72916 -0.209877 0
M  V30 1205 H 115.835 5.92085 -0.977489 0
M  V30 1206 H 116.905 4.60948 -1.50514 0
M  V30 1207 N 118.248 0.346503 1.53744 0
M  V30 1208 C 119.478 -0.250047 2.05081 0
M  V30 1209 C 119.886 -1.44529 1.22098 0
M  V30 1210 O 119.229 -1.81992 0.249917 0
M  V30 1211 C 119.291 -0.725934 3.52094 0
M  V30 1212 C 118.955 0.350053 4.55657 0
M  V30 1213 C 119.952 1.19372 5.0601 0
M  V30 1214 C 117.637 0.504827 4.99757 0
M  V30 1215 C 119.631 2.17768 5.99046 0
M  V30 1216 C 117.318 1.49218 5.92602 0
M  V30 1217 C 118.316 2.32706 6.42135 0
M  V30 1218 O 118.004 3.2976 7.33153 0
M  V30 1219 H 117.736 -0.0515469 0.674032 0
M  V30 1220 H 120.29 0.497559 1.99282 0
M  V30 1221 H 118.52 -1.52483 3.55367 0
M  V30 1222 H 120.209 -1.24336 3.86388 0
M  V30 1223 H 120.975 1.08525 4.72702 0
M  V30 1224 H 116.854 -0.135178 4.60802 0
M  V30 1225 H 120.398 2.82971 6.37631 0
M  V30 1226 H 116.295 1.6012 6.25325 0
M  V30 1227 H 117.063 3.25265 7.51096 0
M  V30 1228 N 119.726 -1.57421 0.075193 0
M  V30 1229 C 120.951 -1.98364 -0.605515 0
M  V30 1230 C 121.376 -0.953383 -1.62149 0
M  V30 1231 O 120.734 0.0806053 -1.81121 0
M  V30 1232 C 120.782 -3.38332 -1.24756 0
M  V30 1233 O 119.886 -3.37959 -2.36342 0
M  V30 1234 H 119.227 -0.645553 -0.155428 0
M  V30 1235 H 121.757 -2.04044 0.150714 0
M  V30 1236 H 121.767 -3.75591 -1.5936 0
M  V30 1237 H 120.442 -4.12846 -0.503129 0
M  V30 1238 H 119.019 -3.12474 -2.03506 0
M  V30 1239 N 121.204 0.198386 -1.56346 0
M  V30 1240 C 122.453 0.917451 -1.79627 0
M  V30 1241 C 122.766 1.8456 -0.64784 0
M  V30 1242 O 123.972 2.60504 -0.764859 0
M  V30 1243 C 122.428 1.68175 -3.18191 0
M  V30 1244 C 122.036 0.798589 -4.40825 0
M  V30 1245 C 123.78 2.39065 -3.50782 0
M  V30 1246 C 121.687 1.56157 -5.70411 0
M  V30 1247 H 120.617 0.346317 -0.669762 0
M  V30 1248 H 123.268 0.170801 -1.82703 0
M  V30 1249 H 121.65 2.47216 -3.09354 0
M  V30 1250 H 122.824 0.0470665 -4.60776 0
M  V30 1251 H 121.139 0.200686 -4.15916 0
M  V30 1252 H 123.736 2.96692 -4.44835 0
M  V30 1253 H 124.079 3.13091 -2.74371 0
M  V30 1254 H 124.612 1.66993 -3.61052 0
M  V30 1255 H 121.351 0.864142 -6.49779 0
M  V30 1256 H 120.871 2.2871 -5.54483 0
M  V30 1257 H 122.55 2.11622 -6.11412 0
M  V30 1258 N 122.682 1.50554 0.465978 0
M  V30 1259 C 123.93 1.61479 1.21528 0
M  V30 1260 C 124.251 0.319596 1.92363 0
M  V30 1261 O 123.521 -0.663194 1.84333 0
M  V30 1262 H 122.101 0.595055 0.451573 0
M  V30 1263 H 124.763 1.87355 0.53704 0
M  V30 1264 H 123.859 2.42846 1.96042 0
M  V30 1265 N 124.16 -0.719506 1.40217 0
M  V30 1266 C 125.123 -1.8153 1.39927 0
M  V30 1267 C 126.123 -1.58095 0.293723 0
M  V30 1268 O 127.313 -1.65209 0.552429 0
M  V30 1269 C 124.445 -3.19561 1.18716 0
M  V30 1270 H 125.638 -1.83186 2.37451 0
M  V30 1271 H 123.191 -0.924746 1.26008 0
M  V30 1272 H 123.926 -3.23557 0.219366 0
M  V30 1273 H 123.711 -3.3797 1.98793 0
M  V30 1274 H 125.201 -3.99598 1.21291 0
M  V30 1275 N 125.638 -1.25649 -0.95132 0
M  V30 1276 C 126.863 -1.13443 -1.73624 0
M  V30 1277 C 127.288 0.307565 -1.85568 0
M  V30 1278 O 126.646 1.22282 -1.33854 0
M  V30 1279 C 126.694 -1.79723 -3.12621 0
M  V30 1280 O 125.798 -1.07912 -3.98031 0
M  V30 1281 H 125.139 -0.395872 -0.533086 0
M  V30 1282 H 127.669 -1.66276 -1.1922 0
M  V30 1283 H 127.679 -1.86141 -3.63064 0
M  V30 1284 H 126.354 -2.84633 -3.03244 0
M  V30 1285 H 124.931 -1.09398 -3.56492 0
M  V30 1286 N 127.117 1.15442 -1.07289 0
M  V30 1287 C 128.08 2.18358 -0.696591 0
M  V30 1288 C 129.08 1.58637 0.262837 0
M  V30 1289 O 130.27 1.74145 0.0438809 0
M  V30 1290 C 127.402 3.4089 -0.0266151 0
M  V30 1291 H 128.595 2.53162 -1.60776 0
M  V30 1292 H 126.148 1.29893 -0.869342 0
M  V30 1293 H 126.883 3.11653 0.896822 0
M  V30 1294 H 126.668 3.85495 -0.716657 0
M  V30 1295 H 128.158 4.17009 0.222028 0
M  V30 1296 N 128.595 0.856903 1.32268 0
M  V30 1297 C 129.844 0.457599 1.96441 0
M  V30 1298 C 130.157 -0.992426 1.68553 0
M  V30 1299 O 131.363 -1.49727 2.26482 0
M  V30 1300 C 129.819 0.767358 3.51624 0
M  V30 1301 C 129.427 2.23326 3.88367 0
M  V30 1302 C 131.171 0.435887 4.22256 0
M  V30 1303 C 129.078 2.48613 5.36606 0
M  V30 1304 H 128.008 0.167387 0.735185 0
M  V30 1305 H 130.659 1.048 1.5063 0
M  V30 1306 H 129.041 0.106367 3.95857 0
M  V30 1307 H 130.215 2.93623 3.55137 0
M  V30 1308 H 128.53 2.52948 3.30766 0
M  V30 1309 H 131.127 0.602202 5.31298 0
M  V30 1310 H 131.47 -0.622672 4.11617 0
M  V30 1311 H 132.003 1.05286 3.83614 0
M  V30 1312 H 128.742 3.53101 5.52268 0
M  V30 1313 H 128.262 1.82896 5.71235 0
M  V30 1314 H 129.941 2.32676 6.03714 0
M  V30 1315 N 130.073 -1.45103 0.615059 0
M  V30 1316 C 131.303 -2.06254 0.119596 0
M  V30 1317 C 131.711 -1.4591 -1.20445 0
M  V30 1318 O 131.054 -0.570384 -1.7462 0
M  V30 1319 C 131.116 -3.59396 -0.0865591 0
M  V30 1320 C 130.78 -4.42116 1.15683 0
M  V30 1321 C 131.777 -4.7662 2.07676 0
M  V30 1322 C 129.462 -4.82749 1.38775 0
M  V30 1323 C 131.456 -5.50622 3.21082 0
M  V30 1324 C 129.143 -5.56504 2.52481 0
M  V30 1325 C 130.141 -5.90358 3.43463 0
M  V30 1326 O 129.829 -6.62615 4.55189 0
M  V30 1327 H 129.561 -0.672423 0.0694512 0
M  V30 1328 H 132.115 -1.87219 0.844885 0
M  V30 1329 H 130.345 -3.76859 -0.866823 0
M  V30 1330 H 132.034 -4.02365 -0.534555 0
M  V30 1331 H 132.8 -4.4578 1.91063 0
M  V30 1332 H 128.679 -4.55829 0.688545 0
M  V30 1333 H 132.223 -5.76965 3.92119 0
M  V30 1334 H 128.12 -5.86759 2.69043 0
M  V30 1335 H 128.888 -6.81071 4.53966 0
M  V30 1336 N 131.551 -0.354651 -1.53558 0
M  V30 1337 C 132.828 0.294281 -1.93374 0
M  V30 1338 C 133.208 1.67313 -1.28723 0
M  V30 1339 O 132.556 2.24179 -0.442247 0
M  V30 1340 C 132.766 0.355445 -3.47185 0
M  V30 1341 C 134.114 0.601007 -4.20325 0
M  V30 1342 O 135.138 0.437106 -3.53508 0
M  V30 1343 O 133.997 0.919322 -5.38712 0
M  V30 1344 H 131.091 0.174033 -0.808481 0
M  V30 1345 H 133.637 -0.406638 -1.64756 0
M  V30 1346 H 132.409 -0.611729 -3.86489 0
M  V30 1347 H 132.032 1.1027 -3.82003 0
M  V30 1348 N 133.029 1.57378 -0.0835403 0
M  V30 1349 C 134.276 1.9393 0.58287 0
M  V30 1350 C 134.604 0.964455 1.68904 0
M  V30 1351 O 133.859 -0.0179474 1.95692 0
M  V30 1352 C 134.158 3.37063 1.1884 0
M  V30 1353 C 133.824 4.50424 0.207194 0
M  V30 1354 C 132.486 4.81159 -0.0627115 0
M  V30 1355 C 134.838 5.19136 -0.463426 0
M  V30 1356 C 132.166 5.77939 -1.01012 0
M  V30 1357 C 134.518 6.16931 -1.39924 0
M  V30 1358 C 133.182 6.46078 -1.67749 0
M  V30 1359 H 132.452 0.70964 0.213287 0
M  V30 1360 H 135.099 1.90856 -0.156916 0
M  V30 1361 H 133.404 3.3666 2.00418 0
M  V30 1362 H 135.101 3.6264 1.71153 0
M  V30 1363 H 131.691 4.2646 0.427747 0
M  V30 1364 H 135.875 4.95576 -0.268034 0
M  V30 1365 H 131.131 5.98842 -1.23283 0
M  V30 1366 H 135.305 6.69273 -1.92476 0
M  V30 1367 H 132.932 7.2088 -2.41321 0
M  V30 1368 N 134.507 -0.190092 1.56449 0
M  V30 1369 C 135.784 -0.935886 1.71757 0
M  V30 1370 C 136.164 -2.01173 0.639726 0
M  V30 1371 O 135.512 -2.25827 -0.348502 0
M  V30 1372 C 135.722 -1.51775 3.1427 0
M  V30 1373 C 137.07 -1.99794 3.74656 0
M  V30 1374 O 138.094 -1.61607 3.1743 0
M  V30 1375 O 136.953 -2.70079 4.751 0
M  V30 1376 H 134.047 -0.439229 0.700719 0
M  V30 1377 H 136.593 -0.179395 1.68749 0
M  V30 1378 H 135.365 -0.742505 3.84191 0
M  V30 1379 H 134.988 -2.33894 3.21527 0
M  V30 1380 N 135.985 -1.50799 -0.457987 0
M  V30 1381 C 137.213 -1.66218 -1.23203 0
M  V30 1382 C 137.628 -0.350894 -1.85511 0
M  V30 1383 O 136.985 0.668546 -1.69814 0
M  V30 1384 C 137.036 -2.76291 -2.33121 0
M  V30 1385 O 136.757 -4.02338 -1.73366 0
M  V30 1386 C 138.258 -3.028 -3.2377 0
M  V30 1387 H 135.478 -0.558361 -0.372121 0
M  V30 1388 H 138.022 -1.97099 -0.545179 0
M  V30 1389 H 136.177 -2.48068 -2.97558 0
M  V30 1390 H 136.591 -4.63312 -2.4585 0
M  V30 1391 H 138.065 -3.8345 -3.97077 0
M  V30 1392 H 138.542 -2.14385 -3.83322 0
M  V30 1393 H 139.148 -3.32604 -2.65056 0
M  V30 1394 N 137.463 0.71206 -1.40597 0
M  V30 1395 C 138.395 1.83704 -1.37061 0
M  V30 1396 C 139.408 1.60453 -0.275426 0
M  V30 1397 O 140.597 1.70262 -0.53602 0
M  V30 1398 C 137.697 3.20172 -1.11099 0
M  V30 1399 C 136.87 3.7059 -2.3234 0
M  V30 1400 C 135.929 4.85681 -2.02485 0
M  V30 1401 O 134.955 4.9815 -2.75382 0
M  V30 1402 N 136.157 5.71735 -1.00497 0
M  V30 1403 H 138.922 1.87235 -2.34016 0
M  V30 1404 H 136.483 0.893739 -1.34996 0
M  V30 1405 H 138.475 3.94768 -0.891064 0
M  V30 1406 H 137.045 3.11767 -0.227989 0
M  V30 1407 H 136.265 2.87085 -2.7014 0
M  V30 1408 H 137.553 4.01011 -3.13157 0
M  V30 1409 H 136.951 5.64275 -0.401298 0
M  V30 1410 H 135.508 6.463 -0.844942 0
M  V30 1411 N 138.941 1.26152 0.944643 0
M  V30 1412 C 140.166 1.14363 1.7302 0
M  V30 1413 C 140.591 -0.29772 1.85729 0
M  V30 1414 O 139.949 -1.2157 1.34501 0
M  V30 1415 C 139.997 1.81378 3.11664 0
M  V30 1416 O 139.101 1.10022 3.97453 0
M  V30 1417 H 138.442 0.398694 0.53098 0
M  V30 1418 H 140.972 1.66906 1.18337 0
M  V30 1419 H 140.982 1.88064 3.62072 0
M  V30 1420 H 139.657 2.86237 3.0173 0
M  V30 1421 H 138.234 1.11287 3.55907 0
M  V30 1422 N 140.419 -1.14872 1.07899 0
M  V30 1423 C 141.83 -1.67367 0.827363 0
M  V30 1424 C 142.181 -1.85236 -0.646693 0
M  V30 1425 O 141.306 -1.55974 -1.50004 0
M  V30 1426 C 141.901 -3.04016 1.49532 0
M  V30 1427 C 140.46 -3.53566 1.29106 0
M  V30 1428 C 139.607 -2.29161 1.56143 0
M  V30 1429 H 142.558 -0.990083 1.24028 0
M  V30 1430 H 142.579 -3.69219 0.919643 0
M  V30 1431 H 142.091 -2.90978 2.56814 0
M  V30 1432 H 140.192 -3.71835 0.238713 0
M  V30 1433 H 140.305 -4.34661 2.01511 0
M  V30 1434 H 138.669 -2.34978 0.982717 0
M  V30 1435 H 139.452 -2.18705 2.64619 0
M  V30 1436 N 141.898 -0.863906 -1.31812 0
M  V30 1437 C 143.144 -0.472535 -1.97218 0
M  V30 1438 C 143.477 0.971394 -1.68159 0
M  V30 1439 O 142.752 1.68309 -0.974798 0
M  V30 1440 C 143.035 -0.723054 -3.52766 0
M  V30 1441 C 142.888 -2.21608 -3.91421 0
M  V30 1442 C 144.207 -0.185522 -4.39709 0
M  V30 1443 H 141.326 -0.173158 -0.71637 0
M  V30 1444 H 143.968 -1.08403 -1.56041 0
M  V30 1445 H 142.118 -0.202577 -3.87971 0
M  V30 1446 H 143.79 -2.80334 -3.66347 0
M  V30 1447 H 142.033 -2.691 -3.40246 0
M  V30 1448 H 142.704 -2.34203 -4.99853 0
M  V30 1449 H 145.18 -0.630726 -4.11292 0
M  V30 1450 H 144.056 -0.390306 -5.47511 0
M  V30 1451 H 144.317 0.912229 -4.32586 0
M  V30 1452 N 143.376 1.44774 -0.622745 0
M  V30 1453 C 144.323 2.30635 0.0871679 0
M  V30 1454 C 145.293 1.42994 0.845097 0
M  V30 1455 O 146.478 1.71907 0.827812 0
M  V30 1456 C 143.618 3.28144 1.06844 0
M  V30 1457 C 142.731 4.30888 0.309809 0
M  V30 1458 C 141.866 5.15494 1.28215 0
M  V30 1459 C 140.905 6.09953 0.512198 0
M  V30 1460 N 140.042 6.87287 1.43458 0
M  V30 1461 H 144.882 2.90803 -0.650974 0
M  V30 1462 H 142.419 1.43286 -0.33281 0
M  V30 1463 H 144.377 3.83157 1.65066 0
M  V30 1464 H 143.007 2.69695 1.77382 0
M  V30 1465 H 142.059 3.78414 -0.388181 0
M  V30 1466 H 143.371 4.97955 -0.290254 0
M  V30 1467 H 142.525 5.74983 1.93596 0
M  V30 1468 H 141.264 4.48481 1.91614 0
M  V30 1469 H 140.269 5.49581 -0.155151 0
M  V30 1470 H 141.494 6.78999 -0.116958 0
M  V30 1471 H 139.44 6.2295 2.05594 0
M  V30 1472 H 139.357 7.50763 0.888335 0
M  V30 1473 H 140.625 7.51306 2.07749 0
M  V30 1474 N 144.854 0.36279 1.53368 0
M  V30 1475 C 146.265 -0.117022 1.86333 0
M  V30 1476 C 146.616 -1.48397 1.28347 0
M  V30 1477 O 145.741 -2.07787 0.604428 0
M  V30 1478 C 146.336 -0.21912 3.38091 0
M  V30 1479 C 144.895 -0.643184 3.70864 0
M  V30 1480 C 144.042 0.211318 2.76494 0
M  V30 1481 H 146.993 0.581687 1.47655 0
M  V30 1482 H 147.014 -1.04319 3.6592 0
M  V30 1483 H 146.526 0.775902 3.80265 0
M  V30 1484 H 144.627 -1.64654 3.34245 0
M  V30 1485 H 144.74 -0.41973 4.77258 0
M  V30 1486 H 143.104 -0.319367 2.5269 0
M  V30 1487 H 143.887 1.20383 3.21501 0
M  V30 1488 N 146.332 -1.57332 0.0918853 0
M  V30 1489 C 147.562 -1.98286 -0.580205 0
M  V30 1490 C 147.97 -0.969713 -1.6246 0
M  V30 1491 O 147.313 0.0493501 -1.83634 0
M  V30 1492 C 147.375 -3.35603 -1.28882 0
M  V30 1493 C 147.039 -4.55285 -0.395559 0
M  V30 1494 C 148.036 -5.18687 0.355002 0
M  V30 1495 C 145.721 -5.01314 -0.314556 0
M  V30 1496 C 147.715 -6.26484 1.17458 0
M  V30 1497 C 145.402 -6.08979 0.508677 0
M  V30 1498 C 146.4 -6.71429 1.2519 0
M  V30 1499 O 146.088 -7.77018 2.06151 0
M  V30 1500 H 145.82 -0.656678 -0.160466 0
M  V30 1501 H 148.374 -2.04721 0.16688 0
M  V30 1502 H 146.604 -3.25842 -2.08241 0
M  V30 1503 H 148.293 -3.61026 -1.85512 0
M  V30 1504 H 149.059 -4.84058 0.302134 0
M  V30 1505 H 144.938 -4.5247 -0.882697 0
M  V30 1506 H 148.482 -6.75159 1.75518 0
M  V30 1507 H 144.379 -6.4304 0.563037 0
M  V30 1508 H 145.147 -7.93991 1.98799 0
M  V30 1509 N 147.81 0.181792 -1.56548 0
M  V30 1510 C 148.74 1.22765 -1.98623 0
M  V30 1511 C 149.721 1.46747 -0.860189 0
M  V30 1512 O 150.906 1.58259 -1.12551 0
M  V30 1513 C 148.036 2.56894 -2.33715 0
M  V30 1514 C 146.99 2.475 -3.49182 0
M  V30 1515 C 146.316 3.86023 -3.69986 0
M  V30 1516 C 147.616 1.98866 -4.82959 0
M  V30 1517 H 149.31 0.877942 -2.86239 0
M  V30 1518 H 146.856 0.42088 -1.37712 0
M  V30 1519 H 148.809 3.30253 -2.61746 0
M  V30 1520 H 147.533 2.93632 -1.42997 0
M  V30 1521 H 146.192 1.76596 -3.21262 0
M  V30 1522 H 145.84 4.20136 -2.76576 0
M  V30 1523 H 145.54 3.80609 -4.47672 0
M  V30 1524 H 147.064 4.60984 -4.00407 0
M  V30 1525 H 148.478 2.61992 -5.09934 0
M  V30 1526 H 146.875 2.04424 -5.64208 0
M  V30 1527 H 147.945 0.942465 -4.75653 0
M  V30 1528 N 149.288 1.51039 0.449983 0
M  V30 1529 C 150.536 1.62759 1.19808 0
M  V30 1530 C 150.857 0.339981 1.92013 0
M  V30 1531 O 150.127 -0.643606 1.85026 0
M  V30 1532 H 148.707 0.599811 0.445237 0
M  V30 1533 H 151.369 1.87914 0.517138 0
M  V30 1534 H 150.465 2.44911 1.93455 0
M  V30 1535 N 150.766 -0.704594 1.40972 0
M  V30 1536 C 151.729 -1.80035 1.41845 0
M  V30 1537 C 152.729 -1.57774 0.310474 0
M  V30 1538 O 153.919 -1.64613 0.56992 0
M  V30 1539 C 151.051 -3.18284 1.22098 0
M  V30 1540 H 152.244 -1.80658 2.3938 0
M  V30 1541 H 149.797 -0.911329 1.26982 0
M  V30 1542 H 150.532 -3.23306 0.253672 0
M  V30 1543 H 150.317 -3.35843 2.02366 0
M  V30 1544 H 151.807 -3.98289 1.25522 0
M  V30 1545 N 152.244 -1.26651 -0.937939 0
M  V30 1546 C 153.66 -1.03834 -1.21205 0
M  V30 1547 C 153.86 0.234502 -2.00131 0
M  V30 1548 O 152.916 0.942767 -2.3424 0
M  V30 1549 C 154.229 -2.27167 -1.97017 0
M  V30 1550 C 155.777 -2.32101 -2.09996 0
M  V30 1551 C 156.252 -3.55136 -2.8921 0
M  V30 1552 N 157.743 -3.55632 -2.96783 0
M  V30 1553 C 158.478 -4.475 -3.58512 0
M  V30 1554 N 157.974 -5.4966 -4.21717 0
M  V30 1555 N 159.767 -4.35145 -3.55816 0
M  V30 1556 H 151.918 -2.08398 -0.410391 0
M  V30 1557 H 154.181 -0.916031 -0.244114 0
M  V30 1558 H 153.887 -3.19765 -1.46434 0
M  V30 1559 H 153.761 -2.31672 -2.97671 0
M  V30 1560 H 156.148 -1.40015 -2.59769 0
M  V30 1561 H 156.229 -2.31605 -1.08594 0
M  V30 1562 H 155.873 -4.47553 -2.40123 0
M  V30 1563 H 155.803 -3.5288 -3.90875 0
M  V30 1564 H 158.294 -2.81743 -2.51852 0
M  V30 1565 H 158.607 -6.15943 -4.66727 0
M  V30 1566 H 156.952 -5.53514 -4.20294 0
M  V30 1567 H 160.143 -3.5455 -3.05634 0
M  V30 1568 H 160.316 -5.06934 -4.03636 0
M  V30 1569 N 153.722 1.14298 -1.08507 0
M  V30 1570 C 154.652 2.21542 -0.737646 0
M  V30 1571 C 155.633 1.67773 0.280377 0
M  V30 1572 O 156.818 1.93616 0.150521 0
M  V30 1573 C 153.948 3.46988 -0.147259 0
M  V30 1574 C 152.902 4.13789 -1.09374 0
M  V30 1575 C 152.228 5.33449 -0.365524 0
M  V30 1576 C 153.528 4.62208 -2.4323 0
M  V30 1577 H 155.222 2.5086 -1.6343 0
M  V30 1578 H 152.768 1.20576 -0.787243 0
M  V30 1579 H 154.721 4.21262 0.107808 0
M  V30 1580 H 153.445 3.17037 0.784538 0
M  V30 1581 H 152.104 3.4147 -1.33393 0
M  V30 1582 H 151.752 4.99759 0.57011 0
M  V30 1583 H 151.452 5.79088 -0.996512 0
M  V30 1584 H 152.976 6.10485 -0.118534 0
M  V30 1585 H 154.39 5.27952 -2.23472 0
M  V30 1586 H 152.787 5.18553 -3.02031 0
M  V30 1587 H 153.857 3.77224 -3.04681 0
M  V30 1588 N 155.201 0.870884 1.31352 0
M  V30 1589 C 156.426 0.495957 2.01383 0
M  V30 1590 C 156.851 -0.904324 1.64935 0
M  V30 1591 O 156.209 -1.59687 0.858466 0
M  V30 1592 C 156.257 0.661433 3.54482 0
M  V30 1593 O 155.361 -0.298851 4.11316 0
M  V30 1594 H 154.702 0.197158 0.634054 0
M  V30 1595 H 157.232 1.17455 1.67527 0
M  V30 1596 H 157.242 0.555072 4.04207 0
M  V30 1597 H 155.917 1.68246 3.8035 0
M  V30 1598 H 154.494 -0.147368 3.72609 0
M  V30 1599 N 156.679 -1.44442 0.630414 0
M  V30 1600 C 157.609 -2.33418 -0.0618083 0
M  V30 1601 C 158.59 -1.48165 -0.835541 0
M  V30 1602 O 159.775 -1.76886 -0.801564 0
M  V30 1603 C 156.905 -3.31222 -1.04449 0
M  V30 1604 C 155.859 -4.26288 -0.382436 0
M  V30 1605 C 155.185 -5.13954 -1.47497 0
M  V30 1606 C 156.485 -5.1744 0.710865 0
M  V30 1607 H 158.179 -2.91548 0.681184 0
M  V30 1608 H 155.725 -1.40191 0.329026 0
M  V30 1609 H 157.678 -3.92351 -1.53748 0
M  V30 1610 H 156.402 -2.71299 -1.81836 0
M  V30 1611 H 155.061 -3.6649 0.0899054 0
M  V30 1612 H 154.709 -4.50385 -2.2397 0
M  V30 1613 H 154.409 -5.7837 -1.03737 0
M  V30 1614 H 155.933 -5.77955 -1.96979 0
M  V30 1615 H 157.347 -5.72509 0.300996 0
M  V30 1616 H 155.744 -5.90455 1.07156 0
M  V30 1617 H 156.814 -4.58496 1.57829 0
M  V30 1618 N 158.157 -0.370918 -1.53173 0
M  V30 1619 C 159.105 0.488101 -2.27421 0
M  V30 1620 C 160.099 1.07884 -1.30604 0
M  V30 1621 O 161.305 1.02143 -1.48212 0
M  V30 1622 H 157.68 0.176134 -0.731082 0
M  V30 1623 H 159.651 -0.159815 -2.97972 0
M  V30 1624 C 158.4 1.61306 -3.08019 0
M  V30 1625 H 157.723 1.1678 -3.82364 0
M  V30 1626 H 159.163 2.18872 -3.63141 0
M  V30 1627 C 157.622 2.55848 -2.19188 0
M  V30 1628 O 158.152 3.58799 -1.80626 0
M  V30 1629 N 156.358 2.2516 -1.83715 0
M  V30 1630 H 155.905 1.41476 -2.15273 0
M  V30 1631 H 155.863 2.8867 -1.24567 0
M  V30 1632 N 159.635 1.57281 -0.100228 0
M  V30 1633 C 161.051 1.57527 0.256416 0
M  V30 1634 C 161.251 1.11173 1.68056 0
M  V30 1635 O 160.307 0.79053 2.39806 0
M  V30 1636 C 161.62 3.00673 0.0401747 0
M  V30 1637 C 163.168 3.12815 0.107528 0
M  V30 1638 C 163.643 4.57929 -0.0807834 0
M  V30 1639 N 165.134 4.63193 -0.0261207 0
M  V30 1640 C 165.869 5.73212 -0.146999 0
M  V30 1641 N 165.365 6.92047 -0.322999 0
M  V30 1642 N 167.158 5.62031 -0.0879044 0
M  V30 1643 H 159.309 1.85718 -1.03065 0
M  V30 1644 H 161.572 0.857446 -0.404339 0
M  V30 1645 H 161.278 3.38804 -0.943649 0
M  V30 1646 H 161.152 3.69042 0.780262 0
M  V30 1647 H 163.539 2.74554 1.08186 0
M  V30 1648 H 163.62 2.47028 -0.664134 0
M  V30 1649 H 163.264 4.96886 -1.05201 0
M  V30 1650 H 163.194 5.21783 0.710635 0
M  V30 1651 H 165.685 3.77748 0.107161 0
M  V30 1652 H 165.998 7.7173 -0.406608 0
M  V30 1653 H 164.343 6.94074 -0.358733 0
M  V30 1654 H 167.534 4.68075 0.048498 0
M  V30 1655 H 167.707 6.47734 -0.185557 0
M  V30 1656 N 161.113 -0.173488 1.56642 0
M  V30 1657 C 162.076 -1.19859 1.95362 0
M  V30 1658 C 163.076 -1.37296 0.83704 0
M  V30 1659 O 164.266 -1.34739 1.10413 0
M  V30 1660 C 161.398 -2.56405 2.24654 0
M  V30 1661 H 162.591 -0.867062 2.87092 0
M  V30 1662 H 160.144 -0.415853 1.50666 0
M  V30 1663 H 160.879 -2.94576 1.35631 0
M  V30 1664 H 160.664 -2.45115 3.06041 0
M  V30 1665 H 162.154 -3.30287 2.5554 0
M  V30 1666 N 162.591 -1.51276 -0.441967 0
M  V30 1667 C 163.816 -1.67799 -1.21895 0
M  V30 1668 C 164.241 -0.372864 -1.84367 0
M  V30 1669 O 163.599 0.666501 -1.68604 0
M  V30 1670 C 163.647 -2.79199 -2.28211 0
M  V30 1671 O 162.751 -2.42479 -3.33583 0
M  V30 1672 H 162.092 -0.559649 -0.357336 0
M  V30 1673 H 164.622 -1.97815 -0.522522 0
M  V30 1674 H 164.632 -3.03146 -2.73069 0
M  V30 1675 H 163.307 -3.73906 -1.82118 0
M  V30 1676 H 161.884 -2.29087 -2.94234 0
M  V30 1677 N 164.069 0.697108 -1.41344 0
M  V30 1678 C 165.315 1.4593 -1.40827 0
M  V30 1679 C 165.648 1.94193 -0.0167098 0
M  V30 1680 O 164.923 1.69425 0.955263 0
M  V30 1681 C 165.206 2.67229 -2.41373 0
M  V30 1682 C 165.059 2.24741 -3.8963 0
M  V30 1683 C 166.378 3.69423 -2.39196 0
M  V30 1684 H 163.497 0.529303 -0.512842 0
M  V30 1685 H 166.139 0.794112 -1.72609 0
M  V30 1686 H 164.289 3.23982 -2.14401 0
M  V30 1687 H 165.961 1.73327 -4.27499 0
M  V30 1688 H 164.204 1.56542 -4.0457 0
M  V30 1689 H 164.875 3.1177 -4.55525 0
M  V30 1690 H 167.351 3.2234 -2.63128 0
M  V30 1691 H 166.227 4.51907 -3.11563 0
M  V30 1692 H 166.488 4.19012 -1.41001 0
M  V30 1693 N 165.547 1.27147 0.931209 0
M  V30 1694 C 166.824 1.0401 1.65654 0
M  V30 1695 C 167.204 -0.426297 2.06751 0
M  V30 1696 O 166.552 -1.40879 1.79904 0
M  V30 1697 C 166.762 1.99834 2.86125 0
M  V30 1698 C 168.11 2.29007 3.57549 0
M  V30 1699 O 169.134 1.97779 2.96246 0
M  V30 1700 O 167.993 2.82222 4.67989 0
M  V30 1701 H 165.087 0.396239 0.725895 0
M  V30 1702 H 167.633 1.38397 0.982056 0
M  V30 1703 H 166.405 2.98744 2.52721 0
M  V30 1704 H 166.028 1.65987 3.61295 0
M  V30 1705 N 167.025 -1.13721 1.09112 0
M  V30 1706 C 167.955 -2.21148 0.749385 0
M  V30 1707 C 168.936 -1.6792 -0.271475 0
M  V30 1708 O 170.121 -1.93693 -0.140251 0
M  V30 1709 C 167.251 -3.46905 0.165659 0
M  V30 1710 C 166.205 -4.13203 1.11567 0
M  V30 1711 C 165.531 -5.33248 0.393809 0
M  V30 1712 C 166.831 -4.60912 2.45678 0
M  V30 1713 H 168.525 -2.4999 1.64758 0
M  V30 1714 H 166.071 -1.20156 0.793626 0
M  V30 1715 H 168.024 -4.21313 -0.085466 0
M  V30 1716 H 166.748 -3.17449 -0.767714 0
M  V30 1717 H 165.407 -3.40758 1.35202 0
M  V30 1718 H 165.055 -5.00054 -0.543599 0
M  V30 1719 H 164.755 -5.78552 1.02721 0
M  V30 1720 H 166.279 -6.10413 0.150908 0
M  V30 1721 H 167.693 -5.26759 2.26269 0
M  V30 1722 H 166.09 -5.16944 3.04776 0
M  V30 1723 H 167.16 -3.75603 3.06677 0
M  V30 1724 N 168.503 -0.877838 -1.30888 0
M  V30 1725 C 169.751 -0.491723 -1.96027 0
M  V30 1726 C 170.072 0.960827 -1.69685 0
M  V30 1727 O 169.342 1.67462 -1.01654 0
M  V30 1728 H 167.922 -0.17885 -0.725273 0
M  V30 1729 H 170.584 -1.11935 -1.59551 0
M  V30 1730 H 169.68 -0.656016 -3.05128 0
M  V30 1731 N 169.982 1.44106 -0.638065 0
M  V30 1732 C 171.23 2.01579 -0.145043 0
M  V30 1733 C 171.551 1.50496 1.24 0
M  V30 1734 O 170.821 0.711374 1.82527 0
M  V30 1735 H 169.401 0.745282 -0.05063 0
M  V30 1736 H 172.063 1.76516 -0.826327 0
M  V30 1737 H 171.159 3.11877 -0.118039 0
M  V30 1738 N 171.46 0.379036 1.52974 0
M  V30 1739 C 172.685 -0.209353 2.06341 0
M  V30 1740 C 173.11 -1.40583 1.24972 0
M  V30 1741 O 172.468 -1.79246 0.272155 0
M  V30 1742 C 172.516 -0.567786 3.56102 0
M  V30 1743 O 171.62 -1.66318 3.77375 0
M  V30 1744 H 170.961 -0.0272919 0.663439 0
M  V30 1745 H 173.491 0.543536 1.97248 0
M  V30 1746 H 173.501 -0.835003 3.99364 0
M  V30 1747 H 172.176 0.307013 4.14765 0
M  V30 1748 H 170.753 -1.39048 3.46006 0
M  V30 1749 N 172.938 -1.57226 0.108567 0
M  V30 1750 C 174.215 -1.86333 -0.594939 0
M  V30 1751 C 174.595 -1.00788 -1.85486 0
M  V30 1752 O 173.943 -0.0839293 -2.28346 0
M  V30 1753 C 174.153 -3.37265 -0.897405 0
M  V30 1754 C 175.501 -4.05629 -1.25501 0
M  V30 1755 O 176.525 -3.42224 -0.987998 0
M  V30 1756 O 175.384 -5.17531 -1.75567 0
M  V30 1757 H 172.478 -0.771018 -0.2991 0
M  V30 1758 H 175.024 -1.69102 0.142283 0
M  V30 1759 H 173.796 -3.913 -0.00413806 0
M  V30 1760 H 173.419 -3.59889 -1.69014 0
M  V30 1761 N 174.416 0.165178 -1.56732 0
M  V30 1762 C 175.641 0.900253 -1.86843 0
M  V30 1763 C 176.066 1.74766 -0.695596 0
M  V30 1764 O 175.424 1.77786 0.35522 0
M  V30 1765 C 175.472 1.74777 -3.15413 0
M  V30 1766 O 174.576 2.85007 -2.98068 0
M  V30 1767 H 173.917 0.251832 -0.614391 0
M  V30 1768 H 176.447 0.161468 -2.03962 0
M  V30 1769 H 176.457 2.14646 -3.46974 0
M  V30 1770 H 175.132 1.12537 -4.00385 0
M  V30 1771 H 173.709 2.48676 -2.77875 0
M  V30 1772 N 175.894 1.51508 0.433938 0
M  V30 1773 C 177.141 1.64345 1.18309 0
M  V30 1774 C 177.469 0.361315 1.91115 0
M  V30 1775 O 176.724 -0.654753 1.84422 0
M  V30 1776 C 177.023 2.79928 2.22205 0
M  V30 1777 C 176.689 4.19078 1.66387 0
M  V30 1778 C 175.351 4.56932 1.50887 0
M  V30 1779 C 177.703 5.05894 1.25381 0
M  V30 1780 C 175.031 5.79305 0.928608 0
M  V30 1781 C 177.383 6.2885 0.687823 0
M  V30 1782 C 176.047 6.65473 0.519755 0
M  V30 1783 H 175.317 0.601381 0.432923 0
M  V30 1784 H 177.964 1.85549 0.473676 0
M  V30 1785 H 176.269 2.52959 2.99197 0
M  V30 1786 H 177.966 2.87059 2.79997 0
M  V30 1787 H 174.556 3.89234 1.79428 0
M  V30 1788 H 178.74 4.77253 1.36175 0
M  V30 1789 H 173.996 6.06324 0.786186 0
M  V30 1790 H 178.17 6.95461 0.361581 0
M  V30 1791 H 175.797 7.6017 0.0679979 0
M  V30 1792 N 177.372 -0.689602 1.41712 0
M  V30 1793 C 178.597 -1.48329 1.44959 0
M  V30 1794 C 179.022 -1.8801 0.0581283 0
M  V30 1795 O 178.38 -1.55026 -0.940035 0
M  V30 1796 C 178.428 -2.71835 2.36935 0
M  V30 1797 O 177.532 -3.69549 1.8305 0
M  V30 1798 H 176.873 -0.446199 0.491734 0
M  V30 1799 H 179.403 -0.847127 1.86239 0
M  V30 1800 H 179.413 -3.20076 2.53013 0
M  V30 1801 H 178.088 -2.42291 3.38035 0
M  V30 1802 H 176.665 -3.2851 1.76452 0
M  V30 1803 N 178.85 -1.27639 -0.924453 0
M  V30 1804 C 179.782 -1.06442 -2.02985 0
M  V30 1805 C 180.795 -0.0194771 -1.62788 0
M  V30 1806 O 181.984 -0.261388 -1.76576 0
M  V30 1807 C 179.084 -0.59327 -3.33667 0
M  V30 1808 C 178.257 -1.71123 -4.02537 0
M  V30 1809 C 177.316 -1.23527 -5.11495 0
M  V30 1810 O 176.342 -1.93553 -5.35281 0
M  V30 1811 N 177.544 -0.0926678 -5.80426 0
M  V30 1812 H 180.309 -2.01633 -2.2173 0
M  V30 1813 H 177.87 -1.19248 -1.09505 0
M  V30 1814 H 179.862 -0.258686 -4.03872 0
M  V30 1815 H 178.432 0.265502 -3.1147 0
M  V30 1816 H 177.652 -2.21593 -3.26022 0
M  V30 1817 H 178.94 -2.46145 -4.45298 0
M  V30 1818 H 178.338 0.491741 -5.63559 0
M  V30 1819 H 176.895 0.182714 -6.51544 0
M  V30 1820 N 180.328 1.1314 -1.09713 0
M  V30 1821 C 181.556 1.88321 -0.856898 0
M  V30 1822 C 181.971 1.79276 0.592073 0
M  V30 1823 O 181.328 1.16142 1.40774 0
M  V30 1824 C 181.379 3.37812 -1.28706 0
M  V30 1825 O 181.1 3.46627 -2.67921 0
M  V30 1826 C 182.601 4.29952 -1.07964 0
M  V30 1827 H 179.821 0.596094 -0.308079 0
M  V30 1828 H 182.365 1.43205 -1.45988 0
M  V30 1829 H 180.52 3.805 -0.727912 0
M  V30 1830 H 180.934 4.39579 -2.8613 0
M  V30 1831 H 182.408 5.33159 -1.42986 0
M  V30 1832 H 182.885 4.39196 -0.0176577 0
M  V30 1833 H 183.491 3.93036 -1.62489 0
M  V30 1834 N 181.806 0.884767 1.30421 0
M  V30 1835 C 183.031 0.517288 2.00845 0
M  V30 1836 C 183.456 -0.886779 1.65885 0
M  V30 1837 O 182.814 -1.58768 0.875354 0
M  V30 1838 C 182.862 0.698994 3.5376 0
M  V30 1839 O 181.966 -0.255208 4.1161 0
M  V30 1840 H 181.307 0.203872 0.631927 0
M  V30 1841 H 183.837 1.19225 1.66272 0
M  V30 1842 H 183.847 0.597912 4.03595 0
M  V30 1843 H 182.522 1.72271 3.78544 0
M  V30 1844 H 181.099 -0.10784 3.72744 0
M  V30 1845 N 183.284 -1.43765 0.645699 0
M  V30 1846 C 184.533 -2.01116 0.153412 0
M  V30 1847 C 184.846 -1.51493 -1.23731 0
M  V30 1848 O 186.052 -2.01067 -1.8244 0
M  V30 1849 C 184.508 -3.59206 0.223473 0
M  V30 1850 C 184.116 -4.17823 1.61642 0
M  V30 1851 C 185.86 -4.23972 -0.211597 0
M  V30 1852 C 183.767 -5.68183 1.64081 0
M  V30 1853 H 182.697 -0.752093 0.0535891 0
M  V30 1854 H 185.348 -1.6482 0.806633 0
M  V30 1855 H 183.73 -3.92867 -0.497118 0
M  V30 1856 H 184.904 -3.95674 2.36176 0
M  V30 1857 H 183.219 -3.65399 1.99681 0
M  V30 1858 H 185.816 -5.34275 -0.213112 0
M  V30 1859 H 186.159 -3.97352 -1.24165 0
M  V30 1860 H 186.692 -3.95166 0.456988 0
M  V30 1861 H 183.431 -5.99559 2.64971 0
M  V30 1862 H 182.951 -5.9241 0.938611 0
M  V30 1863 H 184.63 -6.32085 1.3812 0
M  V30 1864 N 184.763 -0.387143 -1.52771 0
M  V30 1865 C 186.011 0.195349 -2.01154 0
M  V30 1866 C 186.332 1.475 -1.27549 0
M  V30 1867 O 185.602 1.91878 -0.394924 0
M  V30 1868 H 184.182 0.075178 -0.743207 0
M  V30 1869 H 186.844 -0.518337 -1.87881 0
M  V30 1870 H 185.94 0.407096 -3.09434 0
M  V30 1871 N 186.241 1.57166 -0.116904 0
M  V30 1872 C 187.171 2.18222 0.830759 0
M  V30 1873 C 188.152 1.12167 1.27877 0
M  V30 1874 O 189.337 1.40394 1.34176 0
M  V30 1875 C 186.467 2.77996 2.08172 0
M  V30 1876 C 185.421 3.89614 1.77157 0
M  V30 1877 C 184.747 4.36187 3.09265 0
M  V30 1878 C 186.047 5.1181 1.04151 0
M  V30 1879 H 187.741 2.97664 0.321992 0
M  V30 1880 H 185.287 1.4318 0.153434 0
M  V30 1881 H 187.24 3.19366 2.74924 0
M  V30 1882 H 185.964 1.9584 2.6137 0
M  V30 1883 H 184.623 3.48816 1.12796 0
M  V30 1884 H 184.271 3.50893 3.60393 0
M  V30 1885 H 183.971 5.11455 2.89288 0
M  V30 1886 H 185.495 4.80207 3.77139 0
M  V30 1887 H 186.909 5.50214 1.61052 0
M  V30 1888 H 185.306 5.92648 0.942762 0
M  V30 1889 H 186.376 4.84892 0.0279022 0
M  V30 1890 N 187.719 -0.156864 1.56817 0
M  V30 1891 C 188.967 -0.869404 1.82444 0
M  V30 1892 C 189.288 -1.82147 0.69623 0
M  V30 1893 O 188.558 -1.93847 -0.28287 0
M  V30 1894 H 187.138 -0.324043 0.673056 0
M  V30 1895 H 189.8 -0.153224 1.94297 0
M  V30 1896 H 188.896 -1.43761 2.77019 0
M  V30 1897 N 189.197 -1.51736 -0.425897 0
M  V30 1898 C 190.443 -1.65214 -1.1761 0
M  V30 1899 C 190.776 -0.372778 -1.90589 0
M  V30 1900 O 190.051 0.628139 -1.84078 0
M  V30 1901 C 190.334 -2.86312 -2.18398 0
M  V30 1902 C 190.187 -4.24254 -1.49426 0
M  V30 1903 C 191.506 -3.02925 -3.19256 0
M  V30 1904 H 188.625 -0.601263 -0.426206 0
M  V30 1905 H 191.267 -1.8425 -0.463882 0
M  V30 1906 H 189.417 -2.70213 -2.79137 0
M  V30 1907 H 191.089 -4.52046 -0.919362 0
M  V30 1908 H 189.332 -4.26426 -0.796432 0
M  V30 1909 H 190.003 -5.05001 -2.22885 0
M  V30 1910 H 192.479 -3.1781 -2.68581 0
M  V30 1911 H 191.355 -3.89199 -3.8706 0
M  V30 1912 H 191.616 -2.15497 -3.86023 0
M  V30 1913 N 190.675 0.682077 -1.42076 0
M  V30 1914 C 191.605 1.80796 -1.47767 0
M  V30 1915 C 192.586 1.6677 -0.334954 0
M  V30 1916 O 193.771 1.863 -0.548264 0
M  V30 1917 C 190.901 3.19038 -1.37229 0
M  V30 1918 C 189.855 3.47789 -2.49453 0
M  V30 1919 C 189.181 4.8553 -2.23975 0
M  V30 1920 C 190.481 3.45411 -3.91776 0
M  V30 1921 H 192.175 1.7629 -2.41997 0
M  V30 1922 H 189.721 0.846721 -1.16476 0
M  V30 1923 H 191.674 3.97528 -1.39821 0
M  V30 1924 H 190.398 3.24204 -0.394907 0
M  V30 1925 H 189.057 2.71657 -2.46166 0
M  V30 1926 H 188.705 4.87337 -1.24547 0
M  V30 1927 H 188.405 5.0573 -2.99184 0
M  V30 1928 H 189.929 5.66312 -2.28304 0
M  V30 1929 H 191.343 4.13882 -3.96705 0
M  V30 1930 H 189.74 3.77145 -4.66778 0
M  V30 1931 H 190.81 2.44122 -4.18966 0
M  V30 1932 N 192.153 1.28127 0.917671 0
M  V30 1933 C 193.381 1.17892 1.70026 0
M  V30 1934 C 193.796 -0.262958 1.8696 0
M  V30 1935 O 193.153 -1.17811 1.3938 0
M  V30 1936 C 193.204 1.86872 3.09453 0
M  V30 1937 O 192.925 3.25428 2.93306 0
M  V30 1938 C 194.426 1.8289 4.03815 0
M  V30 1939 H 191.646 0.40942 0.531617 0
M  V30 1940 H 194.19 1.69181 1.14883 0
M  V30 1941 H 192.345 1.39464 3.61426 0
M  V30 1942 H 192.759 3.59918 3.81523 0
M  V30 1943 H 194.233 2.35751 4.99125 0
M  V30 1944 H 194.71 0.800412 4.31845 0
M  V30 1945 H 195.316 2.29959 3.57769 0
M  V30 1946 N 193.631 -1.12557 1.10312 0
M  V30 1947 C 194.879 -1.83675 0.843091 0
M  V30 1948 C 195.2 -1.84435 -0.633131 0
M  V30 1949 O 194.47 -1.30657 -1.45964 0
M  V30 1950 H 193.05 -0.680138 0.308904 0
M  V30 1951 H 195.712 -1.36301 1.39313 0
M  V30 1952 H 194.808 -2.87908 1.2048 0
M  V30 1953 N 195.109 -0.891671 -1.2995 0
M  V30 1954 C 196.355 -0.514261 -1.96171 0
M  V30 1955 C 196.688 0.935506 -1.70182 0
M  V30 1956 O 195.963 1.66204 -1.01028 0
M  V30 1957 C 196.246 -0.797719 -3.51153 0
M  V30 1958 C 196.099 -2.2986 -3.86632 0
M  V30 1959 C 197.418 -0.278749 -4.39216 0
M  V30 1960 H 194.537 -0.188314 -0.712535 0
M  V30 1961 H 197.179 -1.11689 -1.53706 0
M  V30 1962 H 195.329 -0.284826 -3.87455 0
M  V30 1963 H 197.001 -2.88042 -3.60319 0
M  V30 1964 H 195.244 -2.76257 -3.34462 0
M  V30 1965 H 195.915 -2.44753 -4.94773 0
M  V30 1966 H 198.391 -0.717825 -4.09862 0
M  V30 1967 H 197.267 -0.506353 -5.46559 0
M  V30 1968 H 197.528 0.820266 -4.34424 0
M  V30 1969 N 196.587 1.43421 -0.653314 0
M  V30 1970 C 197.812 2.06678 -0.172846 0
M  V30 1971 C 198.237 1.48648 1.15262 0
M  V30 1972 O 197.595 0.596457 1.71208 0
M  V30 1973 C 197.643 3.60474 -0.0953184 0
M  V30 1974 O 196.747 4.01487 0.942442 0
M  V30 1975 H 196.088 0.657181 -0.0949155 0
M  V30 1976 H 198.618 1.83925 -0.896265 0
M  V30 1977 H 198.628 4.07905 0.0879728 0
M  V30 1978 H 197.303 4.02088 -1.06291 0
M  V30 1979 H 195.88 3.65646 0.731932 0
M  V30 1980 N 198.065 0.39524 1.52563 0
M  V30 1981 C 199.295 -0.184675 2.05773 0
M  V30 1982 C 199.703 -1.40571 1.26635 0
M  V30 1983 O 199.046 -1.81105 0.30769 0
M  V30 1984 C 199.108 -0.613551 3.54226 0
M  V30 1985 C 198.772 0.49484 4.54313 0
M  V30 1986 C 199.769 1.3541 5.01956 0
M  V30 1987 C 197.454 0.663565 4.97898 0
M  V30 1988 C 199.448 2.36716 5.91814 0
M  V30 1989 C 197.135 1.67996 5.87555 0
M  V30 1990 C 198.133 2.53017 6.34406 0
M  V30 1991 O 197.821 3.52917 7.22291 0
M  V30 1992 H 197.553 -0.030077 0.675331 0
M  V30 1993 H 200.107 0.560708 1.97599 0
M  V30 1994 H 198.337 -1.411 3.60038 0
M  V30 1995 H 200.026 -1.11981 3.90148 0
M  V30 1996 H 200.792 1.23509 4.6901 0
M  V30 1997 H 196.671 0.0114913 4.60999 0
M  V30 1998 H 200.215 3.03113 6.28306 0
M  V30 1999 H 196.112 1.79933 6.19915 0
M  V30 2000 H 196.88 3.48996 7.40367 0
M  V30 2001 N 199.544 -1.57102 0.125237 0
M  V30 2002 C 200.507 -2.14471 -0.80838 0
M  V30 2003 C 201.507 -1.0811 -1.19033 0
M  V30 2004 O 202.697 -1.33856 -1.11482 0
M  V30 2005 C 199.829 -2.69005 -2.09402 0
M  V30 2006 H 201.022 -2.98297 -0.309696 0
M  V30 2007 H 198.575 -1.55807 -0.124051 0
M  V30 2008 H 199.31 -1.88785 -2.63687 0
M  V30 2009 H 199.095 -3.46799 -1.82957 0
M  V30 2010 H 200.585 -3.13278 -2.76128 0
M  V30 2011 N 201.022 0.148545 -1.56898 0
M  V30 2012 C 202.268 0.862694 -1.83536 0
M  V30 2013 C 202.601 1.80889 -0.706604 0
M  V30 2014 O 201.876 1.92328 0.289885 0
M  V30 2015 C 202.159 1.63853 -3.20662 0
M  V30 2016 C 202.012 0.713925 -4.44098 0
M  V30 2017 C 203.331 2.60133 -3.54991 0
M  V30 2018 H 200.45 0.312179 -0.667618 0
M  V30 2019 H 203.092 0.127953 -1.89569 0
M  V30 2020 H 201.242 2.26489 -3.1565 0
M  V30 2021 H 202.914 0.098686 -4.61194 0
M  V30 2022 H 201.157 0.0234019 -4.33794 0
M  V30 2023 H 201.828 1.29278 -5.36648 0
M  V30 2024 H 204.304 2.07616 -3.60603 0
M  V30 2025 H 203.18 3.11468 -4.51972 0
M  V30 2026 H 203.441 3.41417 -2.80868 0
M  V30 2027 N 202.5 1.5196 0.417844 0
M  V30 2028 C 203.728 1.69426 1.18753 0
M  V30 2029 C 204.143 0.399955 1.84515 0
M  V30 2030 O 203.5 -0.623288 1.71527 0
M  V30 2031 C 203.551 2.82375 2.25714 0
M  V30 2032 O 203.272 4.06793 1.62638 0
M  V30 2033 C 204.773 3.11277 3.15628 0
M  V30 2034 H 201.993 0.568031 0.357186 0
M  V30 2035 H 204.537 1.98475 0.49273 0
M  V30 2036 H 202.692 2.5587 2.90877 0
M  V30 2037 H 203.106 4.69667 2.3348 0
M  V30 2038 H 204.58 3.93843 3.86771 0
M  V30 2039 H 205.057 2.24473 3.77503 0
M  V30 2040 H 205.663 3.39515 2.56144 0
M  V30 2041 N 203.978 -0.674533 1.42435 0
M  V30 2042 C 205.389 -1.25514 1.38214 0
M  V30 2043 C 205.74 -1.96055 0.0755464 0
M  V30 2044 O 204.865 -2.00028 -0.8257 0
M  V30 2045 C 205.46 -2.28269 2.50357 0
M  V30 2046 C 204.019 -2.81856 2.49467 0
M  V30 2047 C 203.166 -1.56182 2.29134 0
M  V30 2048 H 206.117 -0.467902 1.51646 0
M  V30 2049 H 206.138 -3.10009 2.20624 0
M  V30 2050 H 205.65 -1.769 3.45439 0
M  V30 2051 H 203.751 -3.37346 1.58204 0
M  V30 2052 H 203.864 -3.30854 3.46515 0
M  V30 2053 H 202.228 -1.82761 1.774 0
M  V30 2054 H 203.011 -1.06778 3.26272 0
M  V30 2055 N 205.456 -1.28612 -0.910864 0
M  V30 2056 C 206.404 -1.1265 -2.03501 0
M  V30 2057 C 207.398 -0.0450054 -1.6934 0
M  V30 2058 O 208.604 -0.203988 -1.7884 0
M  V30 2059 H 204.979 -0.347639 -0.666822 0
M  V30 2060 H 206.95 -2.07849 -2.14106 0
M  V30 2061 C 205.699 -0.808143 -3.38178 0
M  V30 2062 H 205.022 -1.63231 -3.6496 0
M  V30 2063 H 206.462 -0.736426 -4.17556 0
M  V30 2064 C 204.921 0.488226 -3.33344 0
M  V30 2065 O 205.451 1.51766 -3.71927 0
M  V30 2066 N 203.657 0.490009 -2.86439 0
M  V30 2067 H 203.204 -0.348161 -2.55236 0
M  V30 2068 H 203.162 1.35741 -2.83587 0
M  V30 2069 N 206.934 1.1197 -1.10907 0
M  V30 2070 C 208.18 1.8386 -0.855773 0
M  V30 2071 C 208.513 1.84134 0.617103 0
M  V30 2072 O 207.788 1.29041 1.45529 0
M  V30 2073 C 208.071 3.31305 -1.411 0
M  V30 2074 C 207.924 3.39456 -2.9511 0
M  V30 2075 C 209.243 4.2721 -1.05736 0
M  V30 2076 H 206.362 0.667545 -0.312334 0
M  V30 2077 H 209.004 1.31331 -1.37303 0
M  V30 2078 H 207.154 3.76169 -0.97105 0
M  V30 2079 H 208.826 3.03191 -3.47668 0
M  V30 2080 H 207.069 2.79849 -3.31462 0
M  V30 2081 H 207.74 4.43209 -3.29044 0
M  V30 2082 H 210.216 3.90497 -1.43706 0
M  V30 2083 H 209.092 5.28775 -1.47269 0
M  V30 2084 H 209.353 4.42088 0.0325958 0
M  V30 2085 N 208.412 0.89855 1.29475 0
M  V30 2086 C 209.689 0.443416 1.90508 0
M  V30 2087 C 210.069 -1.07685 1.81569 0
M  V30 2088 O 209.417 -1.9182 1.24166 0
M  V30 2089 C 209.627 0.956708 3.35631 0
M  V30 2090 C 210.975 0.999728 4.12663 0
M  V30 2091 O 211.999 0.904299 3.4453 0
M  V30 2092 O 210.858 1.14289 5.34416 0
M  V30 2093 H 207.952 0.138025 0.815401 0
M  V30 2094 H 210.498 0.98834 1.37949 0
M  V30 2095 H 209.27 2.00067 3.36287 0
M  V30 2096 H 208.893 0.391728 3.95666 0
M  V30 2097 N 209.89 -1.43072 0.660911 0
M  V30 2098 C 210.82 -2.33497 -0.0122829 0
M  V30 2099 C 211.801 -1.49903 -0.803925 0
M  V30 2100 O 212.986 -1.78546 -0.763864 0
M  V30 2101 C 210.116 -3.33363 -0.973994 0
M  V30 2102 C 209.07 -4.27003 -0.291928 0
M  V30 2103 C 208.396 -5.16967 -1.36562 0
M  V30 2104 C 209.696 -5.15816 0.820462 0
M  V30 2105 H 211.39 -2.90038 0.742873 0
M  V30 2106 H 208.936 -1.39461 0.358688 0
M  V30 2107 H 210.889 -3.95524 -1.45392 0
M  V30 2108 H 209.613 -2.75095 -1.7604 0
M  V30 2109 H 208.272 -3.66217 0.167623 0
M  V30 2110 H 207.92 -4.55034 -2.14366 0
M  V30 2111 H 207.62 -5.80441 -0.914454 0
M  V30 2112 H 209.144 -5.82003 -1.84675 0
M  V30 2113 H 210.558 -5.71742 0.422366 0
M  V30 2114 H 208.955 -5.8805 1.19656 0
M  V30 2115 H 210.025 -4.55045 1.67518 0
M  V30 2116 N 211.368 -0.403325 -1.52352 0
M  V30 2117 C 212.645 0.232611 -1.94212 0
M  V30 2118 C 213.025 1.63133 -1.33981 0
M  V30 2119 O 212.373 2.22659 -0.513344 0
M  V30 2120 C 212.583 0.244811 -3.4814 0
M  V30 2121 C 213.931 0.46698 -4.22024 0
M  V30 2122 O 214.955 0.324419 -3.5472 0
M  V30 2123 O 213.814 0.74747 -5.41364 0
M  V30 2124 H 210.908 0.148223 -0.813609 0
M  V30 2125 H 213.454 -0.458848 -1.63379 0
M  V30 2126 H 212.226 -0.734378 -3.84347 0
M  V30 2127 H 211.849 0.980611 -3.85318 0
M  V30 2128 N 212.846 1.57033 -0.133567 0
M  V30 2129 C 213.809 2.14897 0.796995 0
M  V30 2130 C 214.809 1.0874 1.18458 0
M  V30 2131 O 215.999 1.34446 1.1077 0
M  V30 2132 C 213.131 2.70112 2.07973 0
M  V30 2133 H 214.324 2.98457 0.293873 0
M  V30 2134 H 211.877 1.55871 0.115787 0
M  V30 2135 H 212.612 1.9018 2.62682 0
M  V30 2136 H 212.397 3.47764 1.81115 0
M  V30 2137 H 213.887 3.14738 2.74462 0
M  V30 2138 N 214.325 -0.140222 1.56975 0
M  V30 2139 C 215.573 -0.850005 1.83356 0
M  V30 2140 C 215.894 -1.81399 0.71551 0
M  V30 2141 O 215.164 -1.94136 -0.262294 0
M  V30 2142 H 213.744 -0.316886 0.676456 0
M  V30 2143 H 216.406 -0.132608 1.94448 0
M  V30 2144 H 215.502 -1.40814 2.78528 0
M  V30 2145 N 215.803 -1.52179 -0.40978 0
M  V30 2146 C 217.033 -1.69807 -1.17682 0
M  V30 2147 C 217.441 -0.406908 -1.84773 0
M  V30 2148 O 216.784 0.626863 -1.72673 0
M  V30 2149 C 216.846 -2.77712 -2.2829 0
M  V30 2150 C 216.51 -4.19481 -1.81341 0
M  V30 2151 C 217.507 -5.03345 -1.30154 0
M  V30 2152 C 215.192 -4.65713 -1.88194 0
M  V30 2153 C 217.186 -6.31511 -0.864416 0
M  V30 2154 C 214.873 -5.93869 -1.44093 0
M  V30 2155 C 215.871 -6.76597 -0.933023 0
M  V30 2156 O 215.559 -8.02354 -0.49838 0
M  V30 2157 H 215.291 -0.572372 -0.359675 0
M  V30 2158 H 217.845 -1.99511 -0.488311 0
M  V30 2159 H 216.075 -2.43383 -3.00502 0
M  V30 2160 H 217.764 -2.83946 -2.90051 0
M  V30 2161 H 218.53 -4.68819 -1.24232 0
M  V30 2162 H 214.409 -4.01424 -2.26671 0
M  V30 2163 H 217.953 -6.96033 -0.467286 0
M  V30 2164 H 213.85 -6.27903 -1.49694 0
M  V30 2165 H 214.618 -8.16135 -0.621747 0
M  V30 2166 N 217.281 0.66697 -1.42791 0
M  V30 2167 C 218.697 0.981027 -1.25889 0
M  V30 2168 C 218.897 2.00793 -0.168695 0
M  V30 2169 O 217.953 2.48321 0.45747 0
M  V30 2170 C 219.266 1.47838 -2.61848 0
M  V30 2171 C 220.814 1.59575 -2.69267 0
M  V30 2172 C 221.289 2.12704 -4.05612 0
M  V30 2173 N 222.78 2.20026 -4.07606 0
M  V30 2174 C 223.515 2.62227 -5.09926 0
M  V30 2175 N 223.011 3.03824 -6.22626 0
M  V30 2176 N 224.804 2.62045 -4.97281 0
M  V30 2177 H 216.955 -0.0127891 -2.12396 0
M  V30 2178 H 219.218 0.0568258 -0.946295 0
M  V30 2179 H 218.924 0.798299 -3.4252 0
M  V30 2180 H 218.798 2.45579 -2.86305 0
M  V30 2181 H 221.185 2.26687 -1.88936 0
M  V30 2182 H 221.266 0.60302 -2.48591 0
M  V30 2183 H 220.91 1.46198 -4.86404 0
M  V30 2184 H 220.84 3.12782 -4.23645 0
M  V30 2185 H 223.331 1.90708 -3.2625 0
M  V30 2186 H 223.644 3.34734 -6.96544 0
M  V30 2187 H 221.989 3.01662 -6.26119 0
M  V30 2188 H 225.18 2.28916 -4.08308 0
M  V30 2189 H 225.353 2.94613 -5.77154 0
M  V30 2190 N 218.759 1.29093 0.90403 0
M  V30 2191 C 219.989 1.19516 1.68522 0
M  V30 2192 C 220.397 -0.24738 1.87576 0
M  V30 2193 O 219.74 -1.17798 1.40959 0
M  V30 2194 C 219.802 1.83249 3.0929 0
M  V30 2195 C 219.466 3.32531 3.13484 0
M  V30 2196 C 220.463 4.28821 2.93953 0
M  V30 2197 C 218.148 3.73656 3.35688 0
M  V30 2198 C 220.142 5.64212 2.96553 0
M  V30 2199 C 217.829 5.0917 3.37919 0
M  V30 2200 C 218.827 6.04258 3.18373 0
M  V30 2201 O 218.515 7.37298 3.20385 0
M  V30 2202 H 218.247 0.415467 0.533257 0
M  V30 2203 H 220.801 1.70912 1.13922 0
M  V30 2204 H 219.031 1.26358 3.65473 0
M  V30 2205 H 220.72 1.68054 3.69476 0
M  V30 2206 H 221.486 3.98382 2.76616 0
M  V30 2207 H 217.365 3.00101 3.49943 0
M  V30 2208 H 220.909 6.38407 2.81216 0
M  V30 2209 H 216.806 5.39256 3.54787 0
M  V30 2210 H 217.574 7.46048 3.36681 0
M  V30 2211 N 220.237 -1.11381 1.11499 0
M  V30 2212 C 221.185 -2.19522 0.768956 0
M  V30 2213 C 222.179 -1.67693 -0.239857 0
M  V30 2214 O 223.385 -1.79727 -0.0990755 0
M  V30 2215 H 219.76 -0.715711 0.230786 0
M  V30 2216 H 221.731 -2.45954 1.68964 0
M  V30 2217 C 220.48 -3.46945 0.229073 0
M  V30 2218 H 219.803 -3.8718 0.996596 0
M  V30 2219 H 221.243 -4.23993 0.0251441 0
M  V30 2220 C 219.702 -3.2042 -1.04079 0
M  V30 2221 O 220.232 -3.41178 -2.12038 0
M  V30 2222 N 218.438 -2.74151 -0.963823 0
M  V30 2223 H 217.985 -2.57459 -0.0851722 0
M  V30 2224 H 217.943 -2.56781 -1.81414 0
M  V30 2225 N 221.715 -0.905404 -1.28997 0
M  V30 2226 C 222.945 -0.549049 -1.99171 0
M  V30 2227 C 223.353 0.87203 -1.67906 0
M  V30 2228 O 222.696 1.58796 -0.923561 0
M  V30 2229 C 222.758 -0.668306 -3.53234 0
M  V30 2230 C 222.422 -2.0574 -4.08069 0
M  V30 2231 C 223.419 -3.0292 -4.22534 0
M  V30 2232 C 221.104 -2.36833 -4.42962 0
M  V30 2233 C 223.098 -4.29314 -4.71135 0
M  V30 2234 C 220.785 -3.63467 -4.91258 0
M  V30 2235 C 221.783 -4.59522 -5.053 0
M  V30 2236 O 221.471 -5.83907 -5.52546 0
M  V30 2237 H 221.203 -0.208784 -0.64295 0
M  V30 2238 H 223.757 -1.21836 -1.65363 0
M  V30 2239 H 221.987 0.0580547 -3.86656 0
M  V30 2240 H 223.676 -0.320273 -4.04634 0
M  V30 2241 H 224.442 -2.80216 -3.95859 0
M  V30 2242 H 220.321 -1.62824 -4.31288 0
M  V30 2243 H 223.865 -5.04293 -4.8201 0
M  V30 2244 H 219.762 -3.86 -5.17372 0
M  V30 2245 H 220.53 -5.86578 -5.70849 0
M  V30 2246 N 223.193 1.4272 -0.668489 0
M  V30 2247 C 224.442 2.00846 -0.185389 0
M  V30 2248 C 224.755 1.53442 1.21305 0
M  V30 2249 O 225.961 2.03944 1.79218 0
M  V30 2250 C 224.417 3.58805 -0.280591 0
M  V30 2251 C 224.025 4.15198 -1.68268 0
M  V30 2252 C 225.769 4.24255 0.14412 0
M  V30 2253 C 223.676 5.655 -1.73099 0
M  V30 2254 H 222.606 0.751145 -0.0655475 0
M  V30 2255 H 225.257 1.63516 -0.832752 0
M  V30 2256 H 223.639 3.93608 0.434553 0
M  V30 2257 H 224.813 3.91866 -2.42441 0
M  V30 2258 H 223.128 3.62176 -2.05469 0
M  V30 2259 H 225.725 5.34547 0.128086 0
M  V30 2260 H 226.068 3.99277 1.17827 0
M  V30 2261 H 226.601 3.94389 -0.519798 0
M  V30 2262 H 223.34 5.95268 -2.74475 0
M  V30 2263 H 222.86 5.90842 -1.03274 0
M  V30 2264 H 224.539 6.29808 -1.48158 0
M  V30 2265 N 224.671 0.411399 1.52136 0
M  V30 2266 C 225.919 -0.163322 2.01439 0
M  V30 2267 C 226.24 -1.45453 1.29879 0
M  V30 2268 O 225.51 -1.91225 0.4254 0
M  V30 2269 H 224.09 -0.0633447 0.744309 0
M  V30 2270 H 226.752 0.548161 1.87033 0
M  V30 2271 H 225.848 -0.357817 3.10042 0
M  V30 2272 N 226.149 -1.5696 0.141893 0
M  V30 2273 C 227.096 -2.16501 -0.799737 0
M  V30 2274 C 228.066 -1.09643 -1.24771 0
M  V30 2275 O 229.251 -1.3766 -1.32115 0
M  V30 2276 C 226.391 -2.78679 -2.03549 0
M  V30 2277 C 225.504 -3.99914 -1.6338 0
M  V30 2278 C 224.639 -4.50106 -2.82096 0
M  V30 2279 C 223.678 -5.63819 -2.38275 0
M  V30 2280 N 222.815 -6.08651 -3.49983 0
M  V30 2281 H 227.655 -2.96632 -0.285179 0
M  V30 2282 H 225.192 -1.46533 -0.129053 0
M  V30 2283 H 227.15 -3.1287 -2.75986 0
M  V30 2284 H 225.78 -2.012 -2.52425 0
M  V30 2285 H 224.832 -3.71735 -0.807279 0
M  V30 2286 H 226.144 -4.82311 -1.27192 0
M  V30 2287 H 225.298 -4.86325 -3.62729 0
M  V30 2288 H 224.037 -3.66706 -3.21525 0
M  V30 2289 H 223.042 -5.2718 -1.56081 0
M  V30 2290 H 224.267 -6.49 -1.99938 0
M  V30 2291 H 222.213 -5.28188 -3.89042 0
M  V30 2292 H 222.13 -6.85961 -3.17794 0
M  V30 2293 H 223.398 -6.49515 -4.30988 0
M  V30 2294 N 227.627 0.131896 -1.57047 0
M  V30 2295 C 228.873 0.843179 -1.84441 0
M  V30 2296 C 229.206 1.80129 -0.725749 0
M  V30 2297 O 228.481 1.92624 0.269469 0
M  V30 2298 C 228.764 1.60442 -3.22382 0
M  V30 2299 C 228.617 0.666782 -4.4483 0
M  V30 2300 C 229.936 2.56354 -3.5773 0
M  V30 2301 H 227.055 0.305081 -0.670891 0
M  V30 2302 H 229.697 0.107839 -1.89694 0
M  V30 2303 H 227.847 2.23128 -3.18035 0
M  V30 2304 H 229.519 0.0497646 -4.61273 0
M  V30 2305 H 227.762 -0.022609 -4.33794 0
M  V30 2306 H 228.433 1.23579 -5.37989 0
M  V30 2307 H 230.909 2.0378 -3.62785 0
M  V30 2308 H 229.785 3.06657 -4.5525 0
M  V30 2309 H 230.046 3.38419 -2.84473 0
M  V30 2310 N 229.106 1.52395 0.401703 0
M  V30 2311 C 230.054 1.7689 1.51039 0
M  V30 2312 C 231.048 0.636298 1.56996 0
M  V30 2313 O 232.254 0.818507 1.60314 0
M  V30 2314 H 228.629 0.559502 0.502456 0
M  V30 2315 H 230.6 2.69757 1.27568 0
M  V30 2316 C 229.349 1.94331 2.88324 0
M  V30 2317 H 228.672 2.80905 2.84486 0
M  V30 2318 H 230.112 2.15466 3.65172 0
M  V30 2319 C 228.571 0.712396 3.29282 0
M  V30 2320 O 229.101 -0.116218 4.01532 0
M  V30 2321 N 227.307 0.546154 2.85422 0
M  V30 2322 H 226.854 1.22156 2.26794 0
M  V30 2323 H 226.812 -0.276113 3.13185 0
M  V30 2324 N 230.584 -0.659388 1.43143 0
M  V30 2325 C 231.812 -1.44723 1.47861 0
M  V30 2326 C 232.227 -1.88563 0.0945886 0
M  V30 2327 O 231.584 -1.59108 -0.893915 0
M  V30 2328 C 231.635 -2.68627 2.41913 0
M  V30 2329 O 231.356 -2.26623 3.74932 0
M  V30 2330 C 232.857 -3.62045 2.55809 0
M  V30 2331 H 230.077 -0.444801 0.502387 0
M  V30 2332 H 232.621 -0.808916 1.87821 0
M  V30 2333 H 230.776 -3.28613 2.05164 0
M  V30 2334 H 231.19 -3.06745 4.2545 0
M  V30 2335 H 232.664 -4.45666 3.25708 0
M  V30 2336 H 233.141 -4.08981 1.60099 0
M  V30 2337 H 233.747 -3.07944 2.93344 0
M  V30 2338 N 232.062 -1.29571 -0.897171 0
M  V30 2339 C 233.308 -1.17863 -1.65034 0
M  V30 2340 C 233.641 0.268729 -1.92332 0
M  V30 2341 O 232.916 1.19378 -1.53555 0
M  V30 2342 C 233.199 -1.995 -2.99786 0
M  V30 2343 C 233.052 -3.5239 -2.79538 0
M  V30 2344 C 234.371 -1.82335 -4.00552 0
M  V30 2345 H 231.49 -0.429528 -0.598895 0
M  V30 2346 H 234.132 -1.59072 -1.03905 0
M  V30 2347 H 232.282 -1.64485 -3.51962 0
M  V30 2348 H 233.954 -3.97401 -2.34244 0
M  V30 2349 H 232.197 -3.77187 -2.14273 0
M  V30 2350 H 232.868 -4.04787 -3.75302 0
M  V30 2351 H 235.344 -2.12924 -3.57495 0
M  V30 2352 H 234.22 -2.41801 -4.92771 0
M  V30 2353 H 234.481 -0.779209 -4.35179 0
M  V30 2354 N 233.54 1.10788 -1.12088 0
M  V30 2355 C 234.487 2.17025 -0.785407 0
M  V30 2356 C 235.457 1.64265 0.246191 0
M  V30 2357 O 236.642 1.90412 0.121584 0
M  V30 2358 C 233.782 3.44249 -0.242177 0
M  V30 2359 C 232.895 4.1098 -1.33115 0
M  V30 2360 C 232.03 5.25911 -0.747741 0
M  V30 2361 C 231.069 5.84538 -1.81609 0
M  V30 2362 N 230.206 6.90853 -1.25167 0
M  V30 2363 H 235.046 2.45066 -1.69548 0
M  V30 2364 H 232.583 1.20297 -0.846582 0
M  V30 2365 H 234.541 4.17101 0.0908026 0
M  V30 2366 H 233.171 3.16571 0.631072 0
M  V30 2367 H 232.223 3.36133 -1.78097 0
M  V30 2368 H 233.535 4.50601 -2.13917 0
M  V30 2369 H 232.689 6.056 -0.365216 0
M  V30 2370 H 231.428 4.87614 0.0915188 0
M  V30 2371 H 230.433 5.03522 -2.20785 0
M  V30 2372 H 231.658 6.249 -2.6585 0
M  V30 2373 H 229.604 6.54562 -0.434174 0
M  V30 2374 H 229.521 7.29166 -1.99633 0
M  V30 2375 H 230.789 7.7433 -0.896259 0
M  V30 2376 N 235.018 0.912232 1.28515 0
M  V30 2377 C 235.966 0.389597 2.29314 0
M  V30 2378 C 236.96 -0.517915 1.61289 0
M  V30 2379 O 238.166 -0.399328 1.75515 0
M  V30 2380 H 234.541 0.107386 0.744293 0
M  V30 2381 H 236.512 1.25286 2.70825 0
M  V30 2382 C 235.261 -0.356496 3.45868 0
M  V30 2383 H 234.584 0.332608 3.98414 0
M  V30 2384 H 236.024 -0.686851 4.184 0
M  V30 2385 C 234.483 -1.56383 2.98406 0
M  V30 2386 O 235.013 -2.66294 3.00749 0
M  V30 2387 N 233.219 -1.41029 2.54085 0
M  V30 2388 H 232.766 -0.516089 2.52377 0
M  V30 2389 H 232.724 -2.21939 2.22689 0
M  V30 2390 N 236.496 -1.42363 0.676048 0
M  V30 2391 C 237.742 -2.0182 0.199125 0
M  V30 2392 C 238.075 -1.53339 -1.19168 0
M  V30 2393 O 237.35 -0.736124 -1.80032 0
M  V30 2394 C 237.633 -3.59331 0.235144 0
M  V30 2395 C 237.486 -4.17989 1.66149 0
M  V30 2396 C 238.805 -4.3813 -0.41595 0
M  V30 2397 H 235.924 -0.733293 0.0738311 0
M  V30 2398 H 238.566 -1.69368 0.86107 0
M  V30 2399 H 236.716 -3.87109 -0.328487 0
M  V30 2400 H 238.388 -4.0116 2.27747 0
M  V30 2401 H 236.631 -3.7377 2.20178 0
M  V30 2402 H 237.302 -5.27126 1.63837 0
M  V30 2403 H 239.778 -4.16051 0.0638529 0
M  V30 2404 H 238.654 -5.47717 -0.360115 0
M  V30 2405 H 238.915 -4.16101 -1.49373 0
M  V30 2406 N 237.974 -0.419461 -1.51915 0
M  V30 2407 C 239.39 -0.0708431 -1.59443 0
M  V30 2408 C 239.59 1.41796 -1.43164 0
M  V30 2409 O 238.646 2.18596 -1.26381 0
M  V30 2410 C 239.959 -0.574991 -2.95151 0
M  V30 2411 C 241.507 -0.533867 -3.08413 0
M  V30 2412 C 241.982 -1.01469 -4.46618 0
M  V30 2413 N 243.473 -0.971939 -4.52888 0
M  V30 2414 C 244.208 -1.31505 -5.58116 0
M  V30 2415 N 243.704 -1.73014 -6.70849 0
M  V30 2416 N 245.497 -1.23436 -5.48379 0
M  V30 2417 H 237.648 -1.38836 -1.60743 0
M  V30 2418 H 239.911 -0.570998 -0.756747 0
M  V30 2419 H 239.617 -1.61597 -3.12377 0
M  V30 2420 H 239.491 0.00979777 -3.77199 0
M  V30 2421 H 241.878 0.498086 -2.90866 0
M  V30 2422 H 241.959 -1.15484 -2.28248 0
M  V30 2423 H 241.603 -2.04502 -4.6491 0
M  V30 2424 H 241.533 -0.370433 -5.25295 0
M  V30 2425 H 244.024 -0.666893 -3.71969 0
M  V30 2426 H 244.337 -1.97479 -7.47143 0
M  V30 2427 H 242.682 -1.76926 -6.72103 0
M  V30 2428 H 245.873 -0.908869 -4.59192 0
M  V30 2429 H 246.046 -1.50506 -6.30279 0
M  V30 2430 N 239.452 1.56882 -0.150215 0
M  V30 2431 C 240.677 2.01027 0.510184 0
M  V30 2432 C 241.102 1.02966 1.57415 0
M  V30 2433 O 240.46 0.00590158 1.81299 0
M  V30 2434 C 240.508 3.43899 1.08472 0
M  V30 2435 O 239.612 3.4885 2.19948 0
M  V30 2436 H 238.953 0.652233 0.124451 0
M  V30 2437 H 241.483 2.03093 -0.247894 0
M  V30 2438 H 241.493 3.82766 1.41259 0
M  V30 2439 H 240.168 4.14776 0.305582 0
M  V30 2440 H 238.745 3.21827 1.88366 0
M  V30 2441 N 240.93 -0.123565 1.57115 0
M  V30 2442 C 242.178 -0.83051 1.84247 0
M  V30 2443 C 242.499 -1.80629 0.73471 0
M  V30 2444 O 241.769 -1.94403 -0.241688 0
M  V30 2445 H 240.349 -0.309694 0.679778 0
M  V30 2446 H 243.011 -0.111976 1.94578 0
M  V30 2447 H 242.107 -1.37852 2.80006 0
M  V30 2448 N 242.408 -1.52605 -0.393616 0
M  V30 2449 C 243.318 -1.79971 -1.50492 0
M  V30 2450 C 244.334 -0.686181 -1.59899 0
M  V30 2451 O 245.51 -0.973274 -1.76322 0
M  V30 2452 C 242.575 -1.95867 -2.86072 0
M  V30 2453 C 241.636 -3.19781 -2.86424 0
M  V30 2454 C 240.869 -3.34909 -4.15538 0
M  V30 2455 O 241.092 -2.54948 -5.10253 0
M  V30 2456 O 240.026 -4.28141 -4.23059 0
M  V30 2457 H 243.852 -2.74328 -1.30299 0
M  V30 2458 H 241.437 -1.3764 -0.581005 0
M  V30 2459 H 243.319 -2.08056 -3.66457 0
M  V30 2460 H 241.994 -1.04699 -3.063 0
M  V30 2461 H 240.901 -3.13038 -2.04837 0
M  V30 2462 H 242.234 -4.1078 -2.71147 0
M  V30 2463 N 243.887 0.651787 -1.4349 0
M  V30 2464 C 244.817 1.77621 -1.51569 0
M  V30 2465 C 245.798 1.66022 -0.370253 0
M  V30 2466 O 246.983 1.85095 -0.587658 0
M  V30 2467 C 244.113 3.16056 -1.43966 0
M  V30 2468 C 243.067 3.4242 -2.56774 0
M  V30 2469 C 242.393 4.8067 -2.34223 0
M  V30 2470 C 243.693 3.37023 -3.99015 0
M  V30 2471 H 245.387 1.71117 -2.45681 0
M  V30 2472 H 242.933 0.821825 -1.18246 0
M  V30 2473 H 244.886 3.94472 -1.48221 0
M  V30 2474 H 243.61 3.23293 -0.463586 0
M  V30 2475 H 242.269 2.66375 -2.51873 0
M  V30 2476 H 241.917 4.84585 -1.34856 0
M  V30 2477 H 241.617 4.9927 -3.09844 0
M  V30 2478 H 243.141 5.61342 -2.40265 0
M  V30 2479 H 244.555 4.05374 -4.05395 0
M  V30 2480 H 242.952 3.67159 -4.74673 0
M  V30 2481 H 244.022 2.3518 -4.2405 0
M  V30 2482 N 245.365 1.30045 0.890287 0
M  V30 2483 C 246.59 1.21598 1.68014 0
M  V30 2484 C 247.015 -0.218678 1.86825 0
M  V30 2485 O 246.373 -1.15756 1.39536 0
M  V30 2486 C 246.421 1.94434 3.03691 0
M  V30 2487 O 245.525 1.2678 3.92429 0
M  V30 2488 H 244.866 0.420856 0.513592 0
M  V30 2489 H 247.396 1.71775 1.11151 0
M  V30 2490 H 247.406 2.03251 3.5377 0
M  V30 2491 H 246.081 2.98777 2.89318 0
M  V30 2492 H 244.658 1.26282 3.50866 0
M  V30 2493 N 246.843 -1.10192 1.12674 0
M  V30 2494 C 247.806 -2.14786 0.799979 0
M  V30 2495 C 248.806 -1.59711 -0.18685 0
M  V30 2496 O 249.996 -1.74156 0.0392558 0
M  V30 2497 C 247.128 -3.40374 0.189228 0
M  V30 2498 H 248.321 -2.45203 1.72671 0
M  V30 2499 H 245.874 -1.25597 0.930326 0
M  V30 2500 H 246.609 -3.15577 -0.747107 0
M  V30 2501 H 246.394 -3.81637 0.899766 0
M  V30 2502 H 247.884 -4.17594 -0.0228143 0
M  V30 2503 N 248.321 -0.919034 -1.28029 0
M  V30 2504 C 249.569 -0.553838 -1.94363 0
M  V30 2505 C 249.89 0.906357 -1.72656 0
M  V30 2506 O 249.16 1.64143 -1.0693 0
M  V30 2507 H 247.74 -0.201834 -0.719216 0
M  V30 2508 H 250.402 -1.16954 -1.55909 0
M  V30 2509 H 249.498 -0.752758 -3.02886 0
M  V30 2510 N 249.799 1.42003 -0.683588 0
M  V30 2511 C 251.045 2.01712 -0.209825 0
M  V30 2512 C 251.378 1.53968 1.18353 0
M  V30 2513 O 250.653 0.745661 1.79639 0
M  V30 2514 C 250.936 3.59202 -0.254197 0
M  V30 2515 C 250.789 4.17102 -1.68363 0
M  V30 2516 C 252.108 4.38344 0.392709 0
M  V30 2517 H 249.227 0.732891 -0.0777189 0
M  V30 2518 H 251.869 1.68909 -0.87004 0
M  V30 2519 H 250.019 3.87278 0.307954 0
M  V30 2520 H 251.691 3.99946 -2.29871 0
M  V30 2521 H 249.934 3.72597 -2.22157 0
M  V30 2522 H 250.605 5.26249 -1.6663 0
M  V30 2523 H 253.081 4.16011 -0.0859162 0
M  V30 2524 H 251.957 5.47901 0.331063 0
M  V30 2525 H 252.218 4.16887 1.47164 0
M  V30 2526 N 251.277 0.427512 1.51691 0
M  V30 2527 C 252.693 0.0792977 1.59403 0
M  V30 2528 C 252.893 -1.41035 1.43914 0
M  V30 2529 O 251.949 -2.17922 1.27539 0
M  V30 2530 C 253.262 0.590636 2.94842 0
M  V30 2531 C 254.81 0.550215 3.08126 0
M  V30 2532 C 255.285 1.03836 4.46074 0
M  V30 2533 N 256.776 0.995943 4.52366 0
M  V30 2534 C 257.511 1.34463 5.57411 0
M  V30 2535 N 257.007 1.76569 6.69922 0
M  V30 2536 N 258.8 1.26343 5.47717 0
M  V30 2537 H 250.951 1.39687 1.60004 0
M  V30 2538 H 253.214 0.575003 0.753708 0
M  V30 2539 H 252.92 1.63251 3.11516 0
M  V30 2540 H 252.794 0.0102061 3.77199 0
M  V30 2541 H 255.181 -0.482654 2.91126 0
M  V30 2542 H 255.262 1.16693 2.27632 0
M  V30 2543 H 254.906 2.06965 4.63819 0
M  V30 2544 H 254.836 0.398286 5.25092 0
M  V30 2545 H 257.327 0.68661 3.7161 0
M  V30 2546 H 257.64 2.01438 7.46085 0
M  V30 2547 H 255.985 1.80488 6.71155 0
M  V30 2548 H 259.176 0.933209 4.58703 0
M  V30 2549 H 259.349 1.53846 6.29472 0
M  V30 2550 N 252.755 -1.56801 0.158532 0
M  V30 2551 C 254.001 -1.96781 -0.490405 0
M  V30 2552 C 254.334 -1.04397 -1.63753 0
M  V30 2553 O 253.609 -0.0885805 -1.94298 0
M  V30 2554 C 253.892 -3.4635 -0.985594 0
M  V30 2555 C 253.745 -4.49512 0.160824 0
M  V30 2556 C 255.064 -3.98697 -1.86355 0
M  V30 2557 H 252.183 -0.715482 -0.176788 0
M  V30 2558 H 254.825 -1.88451 0.242088 0
M  V30 2559 H 252.975 -3.53579 -1.60978 0
M  V30 2560 H 254.647 -4.54353 0.797537 0
M  V30 2561 H 252.89 -4.26013 0.818256 0
M  V30 2562 H 253.561 -5.51531 -0.227569 0
M  V30 2563 H 256.037 -3.94019 -1.33746 0
M  V30 2564 H 254.913 -5.03792 -2.17909 0
M  V30 2565 H 255.174 -3.41744 -2.8047 0
M  V30 2566 N 254.233 0.115231 -1.57178 0
M  V30 2567 C 255.18 1.14115 -2.00615 0
M  V30 2568 C 256.15 1.40939 -0.878941 0
M  V30 2569 O 257.335 1.52741 -1.14345 0
M  V30 2570 C 254.475 2.46156 -2.4187 0
M  V30 2571 C 253.588 2.26236 -3.68024 0
M  V30 2572 C 252.723 3.51534 -3.98243 0
M  V30 2573 C 251.762 3.26787 -5.17568 0
M  V30 2574 N 250.899 4.44298 -5.43639 0
M  V30 2575 H 255.739 0.763743 -2.88047 0
M  V30 2576 H 253.276 0.365615 -1.42484 0
M  V30 2577 H 255.234 3.23189 -2.63827 0
M  V30 2578 H 253.864 2.81783 -1.57475 0
M  V30 2579 H 252.916 1.40102 -3.5366 0
M  V30 2580 H 254.228 2.03929 -4.55208 0
M  V30 2581 H 253.382 4.36984 -4.20868 0
M  V30 2582 H 252.121 3.76876 -3.09541 0
M  V30 2583 H 251.126 2.39729 -4.94783 0
M  V30 2584 H 252.351 3.02812 -6.0785 0
M  V30 2585 H 250.297 4.69754 -4.57895 0
M  V30 2586 H 250.214 4.25109 -6.25154 0
M  V30 2587 H 251.482 5.3087 -5.70786 0
M  V30 2588 N 255.711 1.52812 0.385517 0
M  V30 2589 C 256.958 1.68026 1.1302 0
M  V30 2590 C 257.286 0.421934 1.89868 0
M  V30 2591 O 256.541 -0.595749 1.86412 0
M  V30 2592 C 256.84 2.86856 2.13187 0
M  V30 2593 C 256.506 4.24159 1.5297 0
M  V30 2594 C 255.168 4.61501 1.36274 0
M  V30 2595 C 257.52 5.09627 1.09223 0
M  V30 2596 C 254.848 5.81966 0.743837 0
M  V30 2597 C 257.2 6.30719 0.487411 0
M  V30 2598 C 255.864 6.6679 0.307777 0
M  V30 2599 H 255.134 0.614849 0.413571 0
M  V30 2600 H 257.781 1.86962 0.414405 0
M  V30 2601 H 256.086 2.6235 2.90998 0
M  V30 2602 H 257.783 2.95821 2.70722 0
M  V30 2603 H 254.373 3.94746 1.66954 0
M  V30 2604 H 258.557 4.81343 1.20922 0
M  V30 2605 H 253.813 6.08519 0.592891 0
M  V30 2606 H 257.987 6.96259 0.140143 0
M  V30 2607 H 255.614 7.60001 -0.173879 0
M  V30 2608 O 257.228 -0.531464 1.52505 0
M  V30 2609 H 257.919 -1.18658 1.53101 0
M  V30 END ATOM
M  V30 BEGIN BOND
M  V30 END BOND
M  V30 END CTAB
M  END
$$$$
