drugbank_target|Q9RQB9 Cytochrome c'' (DB03317)
 OpenBabel12092119583D

  0  0  0     0  0            999 V3000
M  V30 BEGIN CTAB
M  V30 COUNTS 2232 2256 0 0 0
M  V30 BEGIN ATOM
M  V30 1 H -0.908 1.98254 -0.117106 0
M  V30 2 N 0 1.576 0 0
M  V30 3 C 0.933 2.03868 1.02534 0
M  V30 4 C 1.911 0.928543 1.3348 0
M  V30 5 O 3.095 1.19667 1.45644 0
M  V30 6 C 0.222 2.43627 2.35294 0
M  V30 7 C -0.732 3.65373 2.2001 0
M  V30 8 S 0.101 5.13292 1.52614 0
M  V30 9 C 1.257 5.56322 2.86805 0
M  V30 10 H 1.49 2.90518 0.631377 0
M  V30 11 H -0.977 1.52953 0.210867 0
M  V30 12 H 0.981 2.67203 3.11629 0
M  V30 13 H -0.358 1.57376 2.7183 0
M  V30 14 H -1.165 3.90944 3.18086 0
M  V30 15 H -1.563 3.418 1.51819 0
M  V30 16 H 0.729 5.58782 3.83104 0
M  V30 17 H 1.672 6.56266 2.65933 0
M  V30 18 H 2.08 4.83886 2.90714 0
M  V30 19 N 1.4781 -0.272755 1.55222 0
M  V30 20 C 2.4251 -1.33716 1.88119 0
M  V30 21 C 3.3951 -1.49066 0.73271 0
M  V30 22 O 4.5801 -1.63469 0.984002 0
M  V30 23 C 1.7201 -2.69238 2.15882 0
M  V30 24 C 0.8331 -2.62108 3.43399 0
M  V30 25 C -0.0319 -3.89811 3.60861 0
M  V30 26 C -0.9929 -3.77193 4.8207 0
M  V30 27 N -1.8559 -4.9673 4.96189 0
M  V30 28 H 2.9841 -1.04962 2.78903 0
M  V30 29 H 0.5211 -0.507088 1.38083 0
M  V30 30 H 2.4791 -3.48089 2.29978 0
M  V30 31 H 1.1091 -2.96194 1.28331 0
M  V30 32 H 0.1611 -1.74967 3.37773 0
M  V30 33 H 1.4731 -2.48685 4.32386 0
M  V30 34 H 0.6271 -4.77103 3.74777 0
M  V30 35 H -0.6339 -4.06102 2.7006 0
M  V30 36 H -1.6289 -2.88284 4.68159 0
M  V30 37 H -0.4039 -3.62421 5.74307 0
M  V30 38 H -2.4579 -5.13431 4.08319 0
M  V30 39 H -2.5409 -4.85839 5.79221 0
M  V30 40 H -1.2729 -5.85594 5.1449 0
M  V30 41 N 2.9562 -1.48159 -0.537278 0
M  V30 42 C 4.2052 -1.5506 -1.28993 0
M  V30 43 C 4.5182 -0.226211 -1.94288 0
M  V30 44 O 5.7242 -0.173395 -2.70946 0
M  V30 45 C 4.1802 -2.73429 -2.34018 0
M  V30 46 C 3.7882 -4.1248 -1.74825 0
M  V30 47 C 5.5322 -2.89638 -3.10339 0
M  V30 48 C 3.4392 -5.22121 -2.77747 0
M  V30 49 H 2.3692 -0.577231 -0.485098 0
M  V30 50 H 5.0202 -1.74478 -0.568317 0
M  V30 51 H 3.4022 -2.47431 -3.09182 0
M  V30 52 H 4.5762 -4.48466 -1.05899 0
M  V30 53 H 2.8912 -4.01327 -1.11022 0
M  V30 54 H 5.4882 -3.68718 -3.87235 0
M  V30 55 H 5.8312 -1.9882 -3.65754 0
M  V30 56 H 6.3642 -3.15502 -2.42288 0
M  V30 57 H 3.1032 -6.1488 -2.27161 0
M  V30 58 H 2.6232 -4.90631 -3.45024 0
M  V30 59 H 4.3022 -5.49924 -3.4087 0
M  V30 60 N 4.4343 0.785586 -1.36625 0
M  V30 61 C 5.3813 1.89838 -1.31264 0
M  V30 62 C 6.3513 1.65115 -0.180633 0
M  V30 63 O 7.5363 1.87222 -0.36777 0
M  V30 64 C 4.6763 3.26706 -1.11163 0
M  V30 65 C 3.7893 3.63476 -2.33472 0
M  V30 66 C 2.9243 4.89481 -2.06353 0
M  V30 67 C 1.9633 5.18941 -3.24602 0
M  V30 68 N 1.1003 6.36131 -2.97123 0
M  V30 69 H 5.9403 1.93756 -2.26413 0
M  V30 70 H 3.4773 0.947454 -1.12524 0
M  V30 71 H 5.4353 4.05639 -0.975337 0
M  V30 72 H 4.0653 3.222 -0.196674 0
M  V30 73 H 3.1173 2.79636 -2.57891 0
M  V30 74 H 4.4293 3.81193 -3.21704 0
M  V30 75 H 3.5833 5.76288 -1.89675 0
M  V30 76 H 2.3223 4.73841 -1.15437 0
M  V30 77 H 1.3273 4.30615 -3.41834 0
M  V30 78 H 2.5523 5.36498 -4.16349 0
M  V30 79 H 0.4983 6.21875 -2.08823 0
M  V30 80 H 0.4153 6.54198 -3.78894 0
M  V30 81 H 1.6833 7.2591 -2.84033 0
M  V30 82 N 5.9124 1.20967 1.01018 0
M  V30 83 C 7.1404 1.04956 1.78303 0
M  V30 84 C 7.5554 -0.400915 1.84494 0
M  V30 85 O 6.9124 -1.27826 1.30257 0
M  V30 86 C 6.9634 1.63403 3.22462 0
M  V30 87 O 6.6844 3.02775 3.16637 0
M  V30 88 C 8.1854 1.52432 4.16268 0
M  V30 89 H 5.4054 0.368858 0.560522 0
M  V30 90 H 7.9494 1.60193 1.27116 0
M  V30 91 H 6.1044 1.1227 3.70775 0
M  V30 92 H 6.5184 3.30626 4.07169 0
M  V30 93 H 7.9924 1.98078 5.15237 0
M  V30 94 H 8.4694 0.477875 4.36592 0
M  V30 95 H 9.0754 2.02787 3.73841 0
M  V30 96 N 7.3905 -1.2043 1.01659 0
M  V30 97 C 8.6395 -1.89118 0.701237 0
M  V30 98 C 8.9525 -1.79705 -0.772358 0
M  V30 99 O 10.1585 -2.43528 -1.20026 0
M  V30 100 C 8.6145 -3.39168 1.20388 0
M  V30 101 C 8.2225 -3.57166 2.70438 0
M  V30 102 C 9.9665 -4.1341 0.963953 0
M  V30 103 C 7.8735 -5.01042 3.14183 0
M  V30 104 H 6.8035 -0.708267 0.2586 0
M  V30 105 H 9.4545 -1.36239 1.22927 0
M  V30 106 H 7.8365 -3.91369 0.603824 0
M  V30 107 H 9.0105 -3.15351 3.35992 0
M  V30 108 H 7.3255 -2.96294 2.92572 0
M  V30 109 H 9.9225 -5.19491 1.26621 0
M  V30 110 H 10.2655 -4.16181 -0.099578 0
M  V30 111 H 10.7985 -3.67309 1.52738 0
M  V30 112 H 7.5375 -5.03426 4.19812 0
M  V30 113 H 7.0575 -5.43668 2.53348 0
M  V30 114 H 8.7365 -5.69623 3.0682 0
M  V30 115 N 8.8686 -0.792821 -1.36206 0
M  V30 116 C 10.1176 -0.363353 -1.984 0
M  V30 117 C 10.4306 1.07172 -1.63626 0
M  V30 118 O 11.6366 1.60362 -2.19081 0
M  V30 119 C 10.0926 -0.59872 -3.54885 0
M  V30 120 C 9.7006 -2.04543 -3.9858 0
M  V30 121 C 11.4446 -0.233926 -4.23855 0
M  V30 122 C 9.3516 -2.22727 -5.47856 0
M  V30 123 H 8.2816 -0.13212 -0.742334 0
M  V30 124 H 10.9326 -0.974935 -1.55458 0
M  V30 125 H 9.3146 0.0826222 -3.95914 0
M  V30 126 H 10.4886 -2.76345 -3.68741 0
M  V30 127 H 8.8036 -2.36879 -3.42458 0
M  V30 128 H 11.4006 -0.348027 -5.33566 0
M  V30 129 H 11.7436 0.818351 -4.08177 0
M  V30 130 H 12.2766 -0.868639 -3.882 0
M  V30 131 H 9.0156 -3.2635 -5.68486 0
M  V30 132 H 8.5356 -1.55434 -5.7931 0
M  V30 133 H 10.2146 -2.03607 -6.14128 0
M  V30 134 N 10.3467 1.47872 -0.545128 0
M  V30 135 C 11.3097 2.28337 0.198717 0
M  V30 136 C 12.3097 1.36255 0.853888 0
M  V30 137 O 13.4997 1.59003 0.711606 0
M  V30 138 C 10.6317 3.15585 1.28915 0
M  V30 139 H 11.8247 2.95567 -0.507941 0
M  V30 140 H 9.3777 1.53362 -0.301616 0
M  V30 141 H 10.1127 2.53019 2.02859 0
M  V30 142 H 9.8977 3.83337 0.824309 0
M  V30 143 H 11.3877 3.76243 1.81194 0
M  V30 144 N 11.8248 0.280983 1.55075 0
M  V30 145 C 13.0708 -0.33461 2.00021 0
M  V30 146 C 13.4038 -1.55063 1.16915 0
M  V30 147 O 12.6788 -1.93006 0.240646 0
M  V30 148 C 12.9618 -0.711007 3.53011 0
M  V30 149 C 12.8148 0.512766 4.46868 0
M  V30 150 C 14.1338 -1.54522 4.12081 0
M  V30 151 H 11.2528 -0.120147 0.727141 0
M  V30 152 H 13.8948 0.389097 1.85973 0
M  V30 153 H 12.0448 -1.32761 3.65112 0
M  V30 154 H 13.7168 1.15131 4.46702 0
M  V30 155 H 11.9598 1.14975 4.18286 0
M  V30 156 H 12.6308 0.205556 5.51617 0
M  V30 157 H 15.1068 -1.02442 4.03293 0
M  V30 158 H 13.9828 -1.77739 5.19327 0
M  V30 159 H 14.2438 -2.52813 3.62682 0
M  V30 160 N 13.3029 -1.57598 0.00835791 0
M  V30 161 C 14.5499 -1.90928 -0.674732 0
M  V30 162 C 14.8779 -0.88277 -1.73313 0
M  V30 163 O 14.1329 0.111294 -1.95383 0
M  V30 164 C 14.4319 -3.3101 -1.34787 0
M  V30 165 C 14.0979 -4.48922 -0.421861 0
M  V30 166 C 12.7599 -4.8091 -0.166927 0
M  V30 167 C 15.1119 -5.20755 0.215211 0
M  V30 168 C 12.4399 -5.821 0.733232 0
M  V30 169 C 14.7919 -6.22905 1.1033 0
M  V30 170 C 13.4559 -6.53346 1.36733 0
M  V30 171 H 12.7259 -0.698656 -0.246902 0
M  V30 172 H 15.3729 -1.91387 0.0656779 0
M  V30 173 H 13.6779 -3.26714 -2.16253 0
M  V30 174 H 15.3749 -3.54061 -1.8826 0
M  V30 175 H 11.9649 -4.23934 -0.630729 0
M  V30 176 H 16.1489 -4.9629 0.0312829 0
M  V30 177 H 11.4049 -6.04042 0.945712 0
M  V30 178 H 15.5789 -6.77694 1.60325 0
M  V30 179 H 13.2059 -7.31573 2.06652 0
M  V30 180 N 14.781 0.264519 -1.55364 0
M  V30 181 C 16.029 0.993021 -1.76021 0
M  V30 182 C 16.35 1.86511 -0.569099 0
M  V30 183 O 15.62 1.91438 0.415735 0
M  V30 184 H 14.2 0.369639 -0.649135 0
M  V30 185 H 16.862 0.286707 -1.9278 0
M  V30 186 H 15.958 1.62502 -2.66457 0
M  V30 187 N 16.2591 1.48442 0.529413 0
M  V30 188 C 17.5051 1.5672 1.28711 0
M  V30 189 C 17.8381 0.2406 1.92704 0
M  V30 190 O 17.1131 -0.753454 1.79313 0
M  V30 191 C 17.3961 2.70587 2.37603 0
M  V30 192 C 17.2491 4.12953 1.78297 0
M  V30 193 C 18.5681 2.80212 3.39366 0
M  V30 194 H 15.6871 0.570474 0.466613 0
M  V30 195 H 18.3291 1.80617 0.589706 0
M  V30 196 H 16.4791 2.50342 2.97088 0
M  V30 197 H 18.1511 4.44639 1.22858 0
M  V30 198 H 16.3941 4.19927 1.0883 0
M  V30 199 H 17.0651 4.88448 2.57144 0
M  V30 200 H 19.5411 2.98553 2.89836 0
M  V30 201 H 18.4171 3.61611 4.12951 0
M  V30 202 H 18.6781 1.88393 3.99951 0
M  V30 203 N 17.7372 -0.778329 1.37039 0
M  V30 204 C 18.6672 -1.90546 1.34962 0
M  V30 205 C 19.6482 -1.68681 0.219274 0
M  V30 206 O 20.8332 -1.89634 0.418624 0
M  V30 207 C 17.9632 -3.27734 1.14925 0
M  V30 208 C 16.9172 -3.64147 2.24902 0
M  V30 209 C 16.2432 -4.99806 1.89996 0
M  V30 210 C 17.5432 -3.71579 3.67051 0
M  V30 211 H 19.2372 -1.92541 2.29277 0
M  V30 212 H 16.7832 -0.924948 1.10366 0
M  V30 213 H 18.7362 -4.06215 1.12104 0
M  V30 214 H 17.4602 -3.26154 0.170631 0
M  V30 215 H 16.1192 -2.8797 2.26868 0
M  V30 216 H 15.7672 -4.94759 0.906796 0
M  V30 217 H 15.4672 -5.25139 2.63634 0
M  V30 218 H 16.9912 -5.80694 1.88749 0
M  V30 219 H 18.4052 -4.40227 3.67251 0
M  V30 220 H 16.8022 -4.08405 4.39688 0
M  V30 221 H 17.8722 -2.72404 4.01154 0
M  V30 222 N 19.2153 -1.21501 -1.00376 0
M  V30 223 C 20.4623 -1.03299 -1.74171 0
M  V30 224 C 20.7903 0.433326 -1.89612 0
M  V30 225 O 20.0453 1.33779 -1.42834 0
M  V30 226 C 20.3443 -1.67673 -3.15627 0
M  V30 227 C 20.0103 -3.17533 -3.2013 0
M  V30 228 C 18.6723 -3.58427 -3.21067 0
M  V30 229 C 21.0243 -4.13504 -3.17275 0
M  V30 230 C 18.3523 -4.93794 -3.16835 0
M  V30 231 C 20.7043 -5.48834 -3.14585 0
M  V30 232 C 19.3683 -5.89123 -3.13831 0
M  V30 233 H 18.6383 -0.377999 -0.637336 0
M  V30 234 H 21.2853 -1.51111 -1.17634 0
M  V30 235 H 19.5903 -1.12158 -3.75404 0
M  V30 236 H 21.2873 -1.51091 -3.71446 0
M  V30 237 H 17.8773 -2.84965 -3.20145 0
M  V30 238 H 22.0613 -3.82936 -3.15711 0
M  V30 239 H 17.3173 -5.24255 -3.1459 0
M  V30 240 H 21.4913 -6.22934 -3.1133 0
M  V30 241 H 19.1183 -6.93984 -3.10307 0
M  V30 242 N 20.6934 1.19889 -1.02296 0
M  V30 243 C 21.9184 1.9393 -0.735237 0
M  V30 244 C 22.3434 1.74639 0.698782 0
M  V30 245 O 21.7014 1.04481 1.48167 0
M  V30 246 C 21.7494 3.43916 -1.08417 0
M  V30 247 O 20.8534 4.11917 -0.199446 0
M  V30 248 H 20.1944 0.605645 -0.272196 0
M  V30 249 H 22.7244 1.52137 -1.36804 0
M  V30 250 H 22.7344 3.9456 -1.03856 0
M  V30 251 H 21.4094 3.5728 -2.12894 0
M  V30 252 H 19.9864 3.71666 -0.303136 0
M  V30 253 N 22.1715 0.800033 1.35784 0
M  V30 254 C 23.1345 0.211565 2.28221 0
M  V30 255 C 24.1345 -0.59728 1.49296 0
M  V30 256 O 25.3245 -0.416721 1.69142 0
M  V30 257 C 22.4565 -0.705846 3.33513 0
M  V30 258 H 23.6495 1.02677 2.81776 0
M  V30 259 H 21.2025 0.570211 1.45528 0
M  V30 260 H 21.9375 -1.54498 2.85133 0
M  V30 261 H 21.7225 -0.127655 3.91892 0
M  V30 262 H 23.2125 -1.11211 4.02519 0
M  V30 263 N 23.6496 -1.47581 0.552962 0
M  V30 264 C 24.5996 -2.26961 -0.217423 0
M  V30 265 C 25.5836 -1.34099 -0.889168 0
M  V30 266 O 26.7756 -1.58483 -0.788176 0
M  V30 267 C 23.9046 -3.19756 -1.24944 0
M  V30 268 C 22.9906 -4.20097 -0.581327 0
M  V30 269 N 23.3816 -5.04614 0.346171 0
M  V30 270 C 21.6796 -4.38099 -0.835767 0
M  V30 271 C 22.3806 -5.77052 0.733854 0
M  V30 272 N 21.3566 -5.43526 0.0896567 0
M  V30 273 H 25.1586 -2.89688 0.495761 0
M  V30 274 H 22.6726 -1.58068 0.372597 0
M  V30 275 H 24.6696 -3.75305 -1.81527 0
M  V30 276 H 23.3296 -2.58585 -1.96376 0
M  V30 277 H 24.3406 -5.12869 0.720098 0
M  V30 278 H 21.0176 -3.88102 -1.53892 0
M  V30 279 H 22.4076 -6.5504 1.49574 0
M  V30 280 N 25.1277 -0.289203 -1.54924 0
M  V30 281 C 26.0907 0.579144 -2.21762 0
M  V30 282 C 27.0907 1.07047 -1.1999 0
M  V30 283 O 28.2807 0.968384 -1.44803 0
M  V30 284 C 25.4127 1.80055 -2.8947 0
M  V30 285 H 26.6057 -0.00464908 -2.999 0
M  V30 286 H 24.1587 -0.0399306 -1.56249 0
M  V30 287 H 24.8937 2.42449 -2.15381 0
M  V30 288 H 24.6787 1.45602 -3.64064 0
M  V30 289 H 26.1687 2.41773 -3.40493 0
M  V30 290 N 26.6058 1.57591 -0.0167156 0
M  V30 291 C 27.5358 2.12496 0.967858 0
M  V30 292 C 28.5168 1.03807 1.34752 0
M  V30 293 O 29.7018 1.31577 1.42833 0
M  V30 294 C 26.8318 2.64194 2.25431 0
M  V30 295 C 25.7858 3.77559 2.01576 0
M  V30 296 C 25.1118 4.15636 3.36379 0
M  V30 297 C 26.4118 5.04151 1.36489 0
M  V30 298 H 28.1058 2.95013 0.510643 0
M  V30 299 H 25.6518 1.41915 0.244181 0
M  V30 300 H 27.6048 3.01236 2.94678 0
M  V30 301 H 26.3288 1.78821 2.73296 0
M  V30 302 H 24.9878 3.40937 1.34751 0
M  V30 303 H 24.6358 3.27263 3.81979 0
M  V30 304 H 24.3358 4.92022 3.21229 0
M  V30 305 H 25.8598 4.5525 4.06915 0
M  V30 306 H 27.2738 5.38857 1.95718 0
M  V30 307 H 25.6708 5.85453 1.31776 0
M  V30 308 H 26.7408 4.83733 0.336219 0
M  V30 309 N 28.0839 -0.256276 1.55502 0
M  V30 310 C 29.0469 -1.30047 1.88734 0
M  V30 311 C 30.0469 -1.4154 0.763086 0
M  V30 312 O 31.2369 -1.40403 1.03115 0
M  V30 313 C 28.3689 -2.67953 2.10747 0
M  V30 314 H 29.5619 -1.01802 2.82093 0
M  V30 315 H 27.1149 -0.495134 1.4825 0
M  V30 316 H 27.8499 -3.01351 1.19825 0
M  V30 317 H 27.6349 -2.60993 2.92617 0
M  V30 318 H 29.1249 -3.43368 2.37673 0
M  V30 319 N 29.562 -1.4872 -0.521534 0
M  V30 320 C 30.839 -1.4766 -1.2828 0
M  V30 321 C 31.219 -0.19292 -2.10217 0
M  V30 322 O 30.567 0.825193 -2.13079 0
M  V30 323 C 30.777 -2.74358 -2.15705 0
M  V30 324 C 32.125 -3.23028 -2.75569 0
M  V30 325 O 33.149 -2.75333 -2.25987 0
M  V30 326 O 32.008 -4.0604 -3.65778 0
M  V30 327 H 29.102 -0.590085 -0.579421 0
M  V30 328 H 31.648 -1.60963 -0.537492 0
M  V30 329 H 30.42 -3.59292 -1.54999 0
M  V30 330 H 30.043 -2.63816 -2.97467 0
M  V30 331 N 31.0401 0.771051 -1.3745 0
M  V30 332 C 32.2861 1.5319 -1.32894 0
M  V30 333 C 32.6191 1.94008 0.0862511 0
M  V30 334 O 31.8941 1.64124 1.04373 0
M  V30 335 C 32.1771 2.79648 -2.26868 0
M  V30 336 C 32.0301 2.45079 -3.77169 0
M  V30 337 C 33.3491 3.81583 -2.19277 0
M  V30 338 H 30.4681 0.555744 -0.484064 0
M  V30 339 H 33.1101 0.884492 -1.68157 0
M  V30 340 H 31.2601 3.34891 -1.96926 0
M  V30 341 H 32.9321 1.95745 -4.1771 0
M  V30 342 H 31.1751 1.77767 -3.95704 0
M  V30 343 H 31.8461 3.35478 -4.38359 0
M  V30 344 H 34.3221 3.35835 -2.45671 0
M  V30 345 H 33.1981 4.67787 -2.87171 0
M  V30 346 H 33.4591 4.25897 -1.18592 0
M  V30 347 N 32.5182 1.22032 0.997298 0
M  V30 348 C 33.7462 1.06841 1.7718 0
M  V30 349 C 34.1612 -0.381325 1.84909 0
M  V30 350 O 33.5182 -1.26437 1.31605 0
M  V30 351 C 33.5692 1.66814 3.20711 0
M  V30 352 O 33.2902 3.06116 3.13408 0
M  V30 353 C 34.7912 1.56838 4.14628 0
M  V30 354 H 32.0112 0.374782 0.556578 0
M  V30 355 H 34.5552 1.61532 1.2541 0
M  V30 356 H 32.7102 1.16196 3.69564 0
M  V30 357 H 33.1242 3.34926 4.0364 0
M  V30 358 H 34.5982 2.03532 5.13107 0
M  V30 359 H 35.0752 0.524155 4.36061 0
M  V30 360 H 35.6812 2.06741 3.7167 0
M  V30 361 N 33.9963 -1.19345 1.0293 0
M  V30 362 C 34.9443 -2.24621 0.604001 0
M  V30 363 C 35.9383 -1.65452 -0.363587 0
M  V30 364 O 37.1443 -1.78497 -0.23212 0
M  V30 365 H 33.5193 -0.730858 0.177061 0
M  V30 366 H 35.4903 -2.5781 1.50255 0
M  V30 367 C 34.2393 -3.47688 -0.0289127 0
M  V30 368 H 33.5623 -3.93505 0.706651 0
M  V30 369 H 35.0023 -4.23011 -0.289432 0
M  V30 370 C 33.4613 -3.11817 -1.2756 0
M  V30 371 O 33.9913 -3.2451 -2.36762 0
M  V30 372 N 32.1973 -2.66246 -1.16453 0
M  V30 373 H 31.7443 -2.56118 -0.275914 0
M  V30 374 H 31.7023 -2.42617 -1.99961 0
M  V30 375 N 35.4744 -0.807222 -1.35358 0
M  V30 376 C 36.4374 -0.223665 -2.28106 0
M  V30 377 C 37.4374 0.589354 -1.4961 0
M  V30 378 O 38.6274 0.407745 -1.69361 0
M  V30 379 C 35.7594 0.688149 -3.33882 0
M  V30 380 H 36.9524 -1.04169 -2.81227 0
M  V30 381 H 34.5054 -0.577921 -1.45223 0
M  V30 382 H 35.2404 1.52984 -2.85948 0
M  V30 383 H 35.0254 0.10687 -3.91954 0
M  V30 384 H 36.5154 1.09075 -4.03104 0
M  V30 385 N 36.9525 1.47285 -0.560781 0
M  V30 386 C 37.8625 2.33846 0.187954 0
M  V30 387 C 38.8785 1.48412 0.908293 0
M  V30 388 O 40.0545 1.81332 0.876388 0
M  V30 389 C 37.1195 3.25178 1.2025 0
M  V30 390 C 36.1805 4.26504 0.489208 0
M  V30 391 C 35.4135 5.13472 1.45542 0
M  V30 392 O 35.6365 5.02959 2.6905 0
M  V30 393 O 34.5705 5.93902 0.977963 0
M  V30 394 H 38.3965 2.99177 -0.522177 0
M  V30 395 H 35.9815 1.45903 -0.321364 0
M  V30 396 H 37.8635 3.81584 1.78805 0
M  V30 397 H 36.5385 2.6247 1.89449 0
M  V30 398 H 35.4455 3.73847 -0.137627 0
M  V30 399 H 36.7785 4.91935 -0.161399 0
M  V30 400 N 38.4306 0.297415 1.54768 0
M  V30 401 C 39.3776 -0.580276 2.23386 0
M  V30 402 C 40.3476 -1.13238 1.21517 0
M  V30 403 O 41.5326 -1.17757 1.50126 0
M  V30 404 C 38.6726 -1.74801 2.97555 0
M  V30 405 C 37.7856 -1.22764 4.1419 0
M  V30 406 C 36.9206 -2.35895 4.75949 0
M  V30 407 C 35.9596 -1.80974 5.84735 0
M  V30 408 N 35.0966 -2.87664 6.40464 0
M  V30 409 H 39.9366 0.0114833 2.97998 0
M  V30 410 H 37.4736 0.0174361 1.4709 0
M  V30 411 H 39.4316 -2.43475 3.38786 0
M  V30 412 H 38.0616 -2.31145 2.25326 0
M  V30 413 H 37.1136 -0.433271 3.77924 0
M  V30 414 H 38.4256 -0.785551 4.92575 0
M  V30 415 H 37.5796 -3.12523 5.20014 0
M  V30 416 H 36.3186 -2.83429 3.96887 0
M  V30 417 H 35.3236 -1.02834 5.40097 0
M  V30 418 H 36.5486 -1.34348 6.65678 0
M  V30 419 H 34.4946 -3.34538 5.64287 0
M  V30 420 H 34.4116 -2.4794 7.14186 0
M  V30 421 H 35.6796 -3.642 6.89187 0
M  V30 422 N 39.9087 -1.5758 0.0250728 0
M  V30 423 C 40.8387 -2.13007 -0.956575 0
M  V30 424 C 41.8197 -1.0452 -1.342 0
M  V30 425 O 43.0047 -1.32332 -1.42133 0
M  V30 426 C 40.1347 -2.65386 -2.24026 0
M  V30 427 C 39.0887 -3.78623 -1.99571 0
M  V30 428 C 38.4147 -4.17414 -3.3417 0
M  V30 429 C 39.7147 -5.04867 -1.33814 0
M  V30 430 H 41.4087 -2.9528 -0.494991 0
M  V30 431 H 38.9547 -1.42042 -0.236651 0
M  V30 432 H 40.9077 -3.02794 -2.93076 0
M  V30 433 H 39.6317 -1.80268 -2.72343 0
M  V30 434 H 38.2907 -3.41646 -1.32941 0
M  V30 435 H 37.9387 -3.29284 -3.80238 0
M  V30 436 H 37.6387 -4.93719 -3.18615 0
M  V30 437 H 39.1627 -4.57402 -4.04495 0
M  V30 438 H 40.5767 -5.39888 -1.92857 0
M  V30 439 H 38.9737 -5.86144 -1.28669 0
M  V30 440 H 40.0437 -4.83904 -0.310561 0
M  V30 441 N 41.3868 0.248026 -1.55636 0
M  V30 442 C 42.6328 0.97767 -1.77678 0
M  V30 443 C 42.9658 1.85016 -0.590135 0
M  V30 444 O 42.2408 1.90095 0.411611 0
M  V30 445 C 42.5238 1.83914 -3.09593 0
M  V30 446 C 42.3768 0.99491 -4.38659 0
M  V30 447 C 43.6958 2.82183 -3.37729 0
M  V30 448 H 40.8148 0.354005 -0.646413 0
M  V30 449 H 43.4568 0.248253 -1.88371 0
M  V30 450 H 41.6068 2.46104 -3.00608 0
M  V30 451 H 43.2788 0.391789 -4.59633 0
M  V30 452 H 41.5218 0.299231 -4.32767 0
M  V30 453 H 42.1928 1.63145 -5.2734 0
M  V30 454 H 44.6688 2.30129 -3.4667 0
M  V30 455 H 43.5448 3.39582 -4.31249 0
M  V30 456 H 43.8058 3.58588 -2.58586 0
M  V30 457 N 42.8649 1.48995 0.513639 0
M  V30 458 C 44.0949 1.61297 1.291 0
M  V30 459 C 44.5029 0.278656 1.87137 0
M  V30 460 O 43.8459 -0.744325 1.67945 0
M  V30 461 C 43.9079 2.61326 2.46879 0
M  V30 462 C 43.5719 4.05993 2.09807 0
M  V30 463 C 44.5689 4.93183 1.64519 0
M  V30 464 C 42.2539 4.51642 2.19829 0
M  V30 465 C 44.2479 6.24056 1.2974 0
M  V30 466 C 41.9349 5.82532 1.84662 0
M  V30 467 C 42.9329 6.68562 1.3969 0
M  V30 468 O 42.6209 7.97014 1.04992 0
M  V30 469 H 42.3529 0.546236 0.39825 0
M  V30 470 H 44.9069 1.95673 0.62459 0
M  V30 471 H 43.1369 2.22104 3.16554 0
M  V30 472 H 44.8259 2.6329 3.08923 0
M  V30 473 H 45.5919 4.59147 1.56233 0
M  V30 474 H 41.4709 3.84855 2.53786 0
M  V30 475 H 45.0149 6.91161 0.945659 0
M  V30 476 H 40.9119 6.16099 1.92594 0
M  V30 477 H 41.6799 8.09913 1.18249 0
M  V30 478 N 44.343 -0.763751 1.37857 0
M  V30 479 C 45.29 -1.87726 1.34267 0
M  V30 480 C 46.26 -1.64807 0.206879 0
M  V30 481 O 47.445 -1.86613 0.397508 0
M  V30 482 C 44.585 -3.24896 1.16346 0
M  V30 483 C 43.698 -3.59716 2.39225 0
M  V30 484 C 42.833 -4.86137 2.14114 0
M  V30 485 C 41.872 -5.13711 3.32817 0
M  V30 486 N 41.009 -6.31323 3.07206 0
M  V30 487 H 45.849 -1.90129 2.29466 0
M  V30 488 H 43.386 -0.929433 1.14017 0
M  V30 489 H 45.344 -4.04036 1.03975 0
M  V30 490 H 43.974 -3.21847 0.247909 0
M  V30 491 H 43.026 -2.75498 2.62307 0
M  V30 492 H 44.338 -3.76027 3.27728 0
M  V30 493 H 43.492 -5.73198 1.9882 0
M  V30 494 H 42.231 -4.71945 1.22961 0
M  V30 495 H 41.236 -4.25123 3.48641 0
M  V30 496 H 42.461 -5.29807 4.24832 0
M  V30 497 H 40.407 -6.18474 2.1869 0
M  V30 498 H 40.324 -6.48087 3.89254 0
M  V30 499 H 41.592 -7.213 2.95546 0
M  V30 500 N 45.8211 -1.22559 -0.990812 0
M  V30 501 C 47.0511 -1.07623 -1.76355 0
M  V30 502 C 47.4591 0.37601 -1.85426 0
M  V30 503 O 46.8021 1.27228 -1.32509 0
M  V30 504 C 46.8641 -1.61507 -3.21179 0
M  V30 505 C 46.5281 -3.10146 -3.35646 0
M  V30 506 C 47.5251 -4.07553 -3.22796 0
M  V30 507 C 45.2101 -3.49644 -3.60631 0
M  V30 508 C 47.2041 -5.42442 -3.34716 0
M  V30 509 C 44.8911 -4.84682 -3.72192 0
M  V30 510 C 45.8891 -5.8089 -3.59243 0
M  V30 511 O 45.5771 -7.13476 -3.70415 0
M  V30 512 H 45.3091 -0.377745 -0.560611 0
M  V30 513 H 47.8631 -1.62658 -1.25425 0
M  V30 514 H 46.0931 -1.00881 -3.73309 0
M  V30 515 H 47.7821 -1.42202 -3.80175 0
M  V30 516 H 48.5481 -3.78381 -3.03403 0
M  V30 517 H 44.4271 -2.75282 -3.69785 0
M  V30 518 H 47.9711 -6.17518 -3.24526 0
M  V30 519 H 43.8681 -5.13534 -3.91092 0
M  V30 520 H 44.6361 -7.21083 -3.87275 0
M  V30 521 N 47.2992 1.18797 -1.03562 0
M  V30 522 C 48.5272 1.92599 -0.755869 0
M  V30 523 C 48.9422 1.75886 0.686271 0
M  V30 524 O 48.2992 1.08517 1.46732 0
M  V30 525 C 48.3502 3.44159 -1.10619 0
M  V30 526 O 48.0712 3.60341 -2.4917 0
M  V30 527 C 49.5722 4.3507 -0.850214 0
M  V30 528 H 46.7922 0.611587 -0.276048 0
M  V30 529 H 49.3362 1.50742 -1.38192 0
M  V30 530 H 47.4912 3.83823 -0.525194 0
M  V30 531 H 47.9052 4.54128 -2.62427 0
M  V30 532 H 49.3792 5.39989 -1.14523 0
M  V30 533 H 49.8562 4.38673 0.215176 0
M  V30 534 H 50.4622 4.01097 -1.41426 0
M  V30 535 N 48.7773 0.814389 1.34928 0
M  V30 536 C 49.7253 0.218424 2.31572 0
M  V30 537 C 50.7193 -0.636128 1.57002 0
M  V30 538 O 51.9253 -0.52842 1.72069 0
M  V30 539 H 48.3003 0.0518799 0.750208 0
M  V30 540 H 50.2713 1.04852 2.79372 0
M  V30 541 C 49.0203 -0.61207 3.4227 0
M  V30 542 H 48.3433 0.0361578 3.99784 0
M  V30 543 H 49.7833 -0.995317 4.12152 0
M  V30 544 C 48.2423 -1.78087 2.85984 0
M  V30 545 O 48.7723 -2.8787 2.80168 0
M  V30 546 N 46.9783 -1.59488 2.42924 0
M  V30 547 H 46.5253 -0.701874 2.47854 0
M  V30 548 H 46.4833 -2.37846 2.05613 0
M  V30 549 N 50.2554 -1.46986 0.568584 0
M  V30 550 C 51.5044 -2.01646 0.0465894 0
M  V30 551 C 51.8174 -1.44721 -1.31587 0
M  V30 552 O 53.0234 -1.91113 -1.92842 0
M  V30 553 C 51.4794 -3.59885 0.032752 0
M  V30 554 C 51.0874 -4.25804 1.39266 0
M  V30 555 C 52.8314 -4.22255 -0.436038 0
M  V30 556 C 50.7384 -5.76081 1.33732 0
M  V30 557 H 49.6684 -0.753876 0.013647 0
M  V30 558 H 52.3194 -1.68864 0.718131 0
M  V30 559 H 50.7014 -3.8968 -0.704669 0
M  V30 560 H 51.8754 -4.07637 2.1487 0
M  V30 561 H 50.1904 -3.7547 1.80032 0
M  V30 562 H 52.7874 -5.32394 -0.49602 0
M  V30 563 H 53.1304 -3.90212 -1.45053 0
M  V30 564 H 53.6634 -3.97033 0.246877 0
M  V30 565 H 50.4024 -6.12761 2.32817 0
M  V30 566 H 49.9224 -5.96553 0.623267 0
M  V30 567 H 51.6014 -6.38518 1.0442 0
M  V30 568 N 51.7335 -0.305618 -1.54608 0
M  V30 569 C 52.6965 0.555591 -2.22364 0
M  V30 570 C 53.6965 1.05768 -1.21119 0
M  V30 571 O 54.8865 0.952972 -1.45822 0
M  V30 572 C 52.0185 1.76974 -2.91364 0
M  V30 573 H 53.2115 -0.0364572 -2.99878 0
M  V30 574 H 50.7645 -0.0565007 -1.56198 0
M  V30 575 H 51.4995 2.40151 -2.17941 0
M  V30 576 H 51.2845 1.41732 -3.65588 0
M  V30 577 H 52.7745 2.38148 -3.43038 0
M  V30 578 N 53.2116 1.57565 -0.0334293 0
M  V30 579 C 54.1616 2.06978 0.956237 0
M  V30 580 C 55.1456 0.971193 1.28283 0
M  V30 581 O 56.3376 1.23471 1.26822 0
M  V30 582 C 53.4666 2.60393 2.23719 0
M  V30 583 C 52.5526 3.7719 1.93877 0
M  V30 584 N 52.9436 4.87639 1.34321 0
M  V30 585 C 51.2416 3.85758 2.23845 0
M  V30 586 C 51.9426 5.68825 1.21709 0
M  V30 587 N 50.9186 5.1587 1.71404 0
M  V30 588 H 54.7206 2.89773 0.490815 0
M  V30 589 H 52.2346 1.61492 0.171478 0
M  V30 590 H 54.2316 2.94088 2.95496 0
M  V30 591 H 52.8916 1.79031 2.70884 0
M  V30 592 H 53.9026 5.07803 1.01767 0
M  V30 593 H 50.5796 3.1531 2.73653 0
M  V30 594 H 51.9696 6.67631 0.75621 0
M  V30 595 N 54.6897 -0.239769 1.55765 0
M  V30 596 C 55.9147 -0.988373 1.82335 0
M  V30 597 C 56.3397 -1.77886 0.611421 0
M  V30 598 O 55.6977 -1.75889 -0.439639 0
M  V30 599 C 55.7457 -1.89627 3.06715 0
M  V30 600 O 54.8497 -2.98904 2.84131 0
M  V30 601 H 54.1907 -0.280858 0.601677 0
M  V30 602 H 56.7207 -0.258597 2.02959 0
M  V30 603 H 56.7307 -2.30957 3.36338 0
M  V30 604 H 55.4057 -1.31511 3.9456 0
M  V30 605 H 53.9827 -2.61651 2.65694 0
M  V30 606 N 56.1678 -1.49265 -0.50573 0
M  V30 607 C 57.1308 -1.65075 -1.59006 0
M  V30 608 C 58.1308 -0.522768 -1.52065 0
M  V30 609 O 59.3208 -0.789117 -1.55302 0
M  V30 610 C 56.4528 -1.64369 -2.98656 0
M  V30 611 H 57.6458 -2.61784 -1.46319 0
M  V30 612 H 55.1988 -1.38226 -0.729616 0
M  V30 613 H 55.9338 -0.692272 -3.16825 0
M  V30 614 H 55.7188 -2.46282 -3.05103 0
M  V30 615 H 57.2088 -1.78674 -3.77446 0
M  V30 616 N 57.6459 0.756429 -1.3826 0
M  V30 617 C 58.5939 1.89149 -1.35372 0
M  V30 618 C 59.5879 1.67691 -0.24004 0
M  V30 619 O 60.7939 1.75294 -0.408919 0
M  V30 620 H 57.1689 0.622271 -0.422236 0
M  V30 621 H 59.1399 1.88701 -2.31159 0
M  V30 622 C 57.8889 3.26599 -1.19284 0
M  V30 623 H 57.2119 3.43695 -2.0424 0
M  V30 624 H 58.6519 4.06274 -1.21316 0
M  V30 625 C 57.1109 3.3675 0.100454 0
M  V30 626 O 57.6409 3.86951 1.07851 0
M  V30 627 N 55.8469 2.90179 0.15633 0
M  V30 628 H 55.3939 2.49517 -0.640253 0
M  V30 629 H 55.3519 2.97352 1.02123 0
M  V30 630 N 59.124 1.23083 0.984299 0
M  V30 631 C 60.535 1.05609 1.5396 0
M  V30 632 C 60.886 -0.377793 1.92528 0
M  V30 633 O 60.011 -1.26398 1.75649 0
M  V30 634 C 60.606 1.91087 2.7977 0
M  V30 635 C 59.165 1.77885 3.31713 0
M  V30 636 C 58.312 1.87028 2.04733 0
M  V30 637 H 61.263 1.36802 0.804419 0
M  V30 638 H 61.284 1.43336 3.5247 0
M  V30 639 H 60.796 2.9544 2.51668 0
M  V30 640 H 58.897 0.762995 3.64704 0
M  V30 641 H 59.01 2.61047 4.01735 0
M  V30 642 H 57.374 1.30565 2.18689 0
M  V30 643 H 58.157 2.92929 1.79017 0
M  V30 644 N 60.6021 -1.18246 1.0419 0
M  V30 645 C 61.5351 -2.20746 0.578474 0
M  V30 646 C 62.5131 -1.57912 -0.387624 0
M  V30 647 O 63.6971 -1.86071 -0.301634 0
M  V30 648 C 60.8241 -3.38346 -0.154762 0
M  V30 649 C 59.8701 -4.19587 0.764782 0
M  V30 650 S 60.7031 -4.86014 2.24835 0
M  V30 651 C 61.8591 -6.07012 1.526 0
M  V30 652 H 62.0921 -2.59715 1.44691 0
M  V30 653 H 59.6251 -1.287 0.85297 0
M  V30 654 H 61.5831 -4.065 -0.571641 0
M  V30 655 H 60.2441 -2.97786 -0.999105 0
M  V30 656 H 59.4371 -5.03611 0.197976 0
M  V30 657 H 59.0391 -3.56818 1.12057 0
M  V30 658 H 61.3311 -6.72523 0.819733 0
M  V30 659 H 62.2741 -6.68202 2.34333 0
M  V30 660 H 62.6821 -5.55249 1.01779 0
M  V30 661 N 62.0802 -0.821533 -1.34494 0
M  V30 662 C 63.3102 -0.421272 -2.02259 0
M  V30 663 C 63.7182 0.977047 -1.6202 0
M  V30 664 O 63.0612 1.64348 -0.820703 0
M  V30 665 C 63.1232 -0.44231 -3.56769 0
M  V30 666 C 62.7872 -1.79372 -4.20327 0
M  V30 667 C 63.7842 -2.75435 -4.40944 0
M  V30 668 C 61.4692 -2.08182 -4.57127 0
M  V30 669 C 63.4632 -3.98482 -4.97484 0
M  V30 670 C 61.1502 -3.31489 -5.13379 0
M  V30 671 C 62.1482 -4.26457 -5.33501 0
M  V30 672 O 61.8362 -5.47585 -5.88562 0
M  V30 673 H 61.5682 -0.167473 -0.654927 0
M  V30 674 H 64.1222 -1.11073 -1.72777 0
M  V30 675 H 62.3522 0.303836 -3.85505 0
M  V30 676 H 64.0412 -0.0622925 -4.05852 0
M  V30 677 H 64.8072 -2.54473 -4.12878 0
M  V30 678 H 60.6862 -1.35066 -4.4077 0
M  V30 679 H 64.2302 -4.72618 -5.13106 0
M  V30 680 H 60.1272 -3.52316 -5.40873 0
M  V30 681 H 60.8952 -5.49086 -6.06998 0
M  V30 682 N 63.5583 1.46682 -0.576371 0
M  V30 683 C 64.4683 2.34032 0.163141 0
M  V30 684 C 65.4843 1.49367 0.892501 0
M  V30 685 O 66.6603 1.82252 0.857106 0
M  V30 686 C 63.7253 3.26435 1.16795 0
M  V30 687 C 62.7863 4.26998 0.443944 0
M  V30 688 C 62.0193 5.14986 1.40088 0
M  V30 689 O 62.2423 5.05785 2.637 0
M  V30 690 O 61.1763 5.94906 0.914917 0
M  V30 691 H 65.0023 2.98607 -0.55388 0
M  V30 692 H 62.5873 1.45554 -0.336821 0
M  V30 693 H 64.4693 3.83459 1.74748 0
M  V30 694 H 63.1443 2.64465 1.86655 0
M  V30 695 H 62.0513 3.7368 -0.177271 0
M  V30 696 H 63.3843 4.91736 -0.213566 0
M  V30 697 N 65.0364 0.313813 1.54444 0
M  V30 698 C 65.9994 -0.54379 2.22656 0
M  V30 699 C 66.9994 -1.05124 1.21678 0
M  V30 700 O 68.1894 -0.945225 1.46325 0
M  V30 701 C 65.3214 -1.75427 2.92298 0
M  V30 702 H 66.5144 0.0523599 2.99854 0
M  V30 703 H 64.0674 0.0647834 1.56166 0
M  V30 704 H 64.8024 -2.38991 2.19211 0
M  V30 705 H 64.5874 -1.39791 3.66334 0
M  V30 706 H 66.0774 -2.36325 3.44297 0
M  V30 707 N 66.5145 -1.57545 0.0417849 0
M  V30 708 C 67.9255 -1.80011 -0.495259 0
M  V30 709 C 68.2765 -0.953199 -1.71489 0
M  V30 710 O 67.4015 -0.167138 -2.15754 0
M  V30 711 C 67.9965 -3.26482 -0.905265 0
M  V30 712 C 66.5555 -3.499 -1.38734 0
M  V30 713 C 65.7025 -2.74979 -0.358056 0
M  V30 714 H 68.6535 -1.56425 0.267736 0
M  V30 715 H 68.6745 -3.36887 -1.76882 0
M  V30 716 H 68.1865 -3.88096 -0.017401 0
M  V30 717 H 66.2875 -2.93553 -2.29471 0
M  V30 718 H 66.4005 -4.58615 -1.38598 0
M  V30 719 H 64.7645 -2.40834 -0.828912 0
M  V30 720 H 65.5475 -3.39315 0.521561 0
M  V30 721 N 67.9926 0.231505 -1.5589 0
M  V30 722 C 69.2176 0.978689 -1.82856 0
M  V30 723 C 69.6426 1.77559 -0.620846 0
M  V30 724 O 69.0006 1.76119 0.430305 0
M  V30 725 C 69.0486 1.87997 -3.07716 0
M  V30 726 O 68.1526 2.97393 -2.85712 0
M  V30 727 H 67.4936 0.277663 -0.603158 0
M  V30 728 H 70.0236 0.24783 -2.03093 0
M  V30 729 H 70.0336 2.2917 -3.37558 0
M  V30 730 H 68.7086 1.29417 -3.95252 0
M  V30 731 H 67.2856 2.60238 -2.67078 0
M  V30 732 N 69.4707 1.49531 0.497807 0
M  V30 733 C 70.7197 1.58426 1.24837 0
M  V30 734 C 71.0327 0.277643 1.93619 0
M  V30 735 O 72.2387 0.24517 2.70391 0
M  V30 736 C 70.6947 2.79538 2.26686 0
M  V30 737 C 70.3027 4.16971 1.63828 0
M  V30 738 C 72.0467 2.97764 3.0255 0
M  V30 739 C 69.9537 5.29301 2.63807 0
M  V30 740 H 68.8837 0.58989 0.469623 0
M  V30 741 H 71.5347 1.75923 0.521857 0
M  V30 742 H 69.9167 2.55542 3.02514 0
M  V30 743 H 71.0907 4.51116 0.939711 0
M  V30 744 H 69.4057 4.04129 1.00342 0
M  V30 745 H 72.0027 3.78856 3.77323 0
M  V30 746 H 72.3457 2.08448 3.60354 0
M  V30 747 H 72.8787 3.21815 2.33838 0
M  V30 748 H 69.6177 6.20687 2.10779 0
M  V30 749 H 69.1377 4.99606 3.31894 0
M  V30 750 H 70.8167 5.58768 3.2617 0
M  V30 751 N 70.9488 -0.749086 1.3866 0
M  V30 752 C 72.1768 -1.53834 1.38358 0
M  V30 753 C 72.5918 -1.88783 -0.0255219 0
M  V30 754 O 71.9488 -1.53101 -0.993292 0
M  V30 755 C 71.9998 -2.83468 2.2434 0
M  V30 756 O 71.7208 -2.50008 3.5976 0
M  V30 757 C 73.2218 -3.7758 2.32267 0
M  V30 758 H 70.4418 -0.47585 0.473083 0
M  V30 759 H 72.9858 -0.926726 1.82297 0
M  V30 760 H 71.1408 -3.40995 1.83851 0
M  V30 761 H 71.5548 -3.33182 4.05081 0
M  V30 762 H 73.0288 -4.65478 2.96706 0
M  V30 763 H 73.5058 -4.18334 1.33765 0
M  V30 764 H 74.1118 -3.25976 2.73166 0
M  V30 765 N 72.4269 -1.23603 -0.977757 0
M  V30 766 C 73.7039 -0.977897 -1.69401 0
M  V30 767 C 74.0839 0.502738 -2.05026 0
M  V30 768 O 73.4319 1.47459 -1.74551 0
M  V30 769 C 73.6419 -1.89077 -2.93345 0
M  V30 770 C 74.9899 -2.15579 -3.65802 0
M  V30 771 O 76.0139 -1.86648 -3.03383 0
M  V30 772 O 74.8729 -2.64658 -4.78141 0
M  V30 773 H 71.9669 -0.369025 -0.740101 0
M  V30 774 H 74.5129 -1.34657 -1.03274 0
M  V30 775 H 73.2849 -2.89158 -2.63634 0
M  V30 776 H 72.9079 -1.52463 -3.67207 0
M  V30 777 N 73.905 1.17692 -1.04816 0
M  V30 778 C 75.153 1.87488 -0.754497 0
M  V30 779 C 75.474 1.81205 0.720407 0
M  V30 780 O 74.744 1.23544 1.52032 0
M  V30 781 H 73.324 0.694101 -0.276102 0
M  V30 782 H 75.986 1.42793 -1.32651 0
M  V30 783 H 75.082 2.93328 -1.06606 0
M  V30 784 N 75.3831 0.828654 1.34056 0
M  V30 785 C 76.3301 0.252567 2.29414 0
M  V30 786 C 77.3001 -0.62588 1.53857 0
M  V30 787 O 78.4851 -0.566312 1.82202 0
M  V30 788 C 75.6251 -0.574831 3.40279 0
M  V30 789 C 74.7381 0.326499 4.30764 0
M  V30 790 C 73.8731 -0.511016 5.28736 0
M  V30 791 C 72.9121 0.389342 6.1086 0
M  V30 792 N 72.0491 -0.409439 7.00905 0
M  V30 793 H 76.8891 1.07108 2.78086 0
M  V30 794 H 74.4261 0.539677 1.36843 0
M  V30 795 H 76.3841 -1.06992 4.03248 0
M  V30 796 H 75.0141 -1.35841 2.92826 0
M  V30 797 H 74.0661 0.939837 3.68607 0
M  V30 798 H 75.3781 1.01857 4.88289 0
M  V30 799 H 74.5321 -1.07035 5.97184 0
M  V30 800 H 73.2711 -1.23657 4.71763 0
M  V30 801 H 72.2761 0.960769 5.4134 0
M  V30 802 H 73.5011 1.1131 6.69916 0
M  V30 803 H 71.4471 -1.11856 6.46393 0
M  V30 804 H 71.3641 0.224126 7.55668 0
M  V30 805 H 72.6321 -0.951336 7.73673 0
M  V30 806 N 76.8612 -1.46375 0.584142 0
M  V30 807 C 78.1102 -2.01585 0.0679741 0
M  V30 808 C 78.4232 -1.46109 -1.30045 0
M  V30 809 O 79.6292 -1.93148 -1.90804 0
M  V30 810 C 78.0852 -3.5983 0.0709207 0
M  V30 811 C 77.6932 -4.24303 1.43775 0
M  V30 812 C 79.4372 -4.22693 -0.391228 0
M  V30 813 C 77.3442 -5.74631 1.39834 0
M  V30 814 H 76.2742 -0.753689 0.0216421 0
M  V30 815 H 78.9252 -1.68093 0.736001 0
M  V30 816 H 77.3072 -3.90405 -0.663299 0
M  V30 817 H 78.4812 -4.05335 2.19181 0
M  V30 818 H 76.7962 -3.73539 1.84004 0
M  V30 819 H 79.3932 -5.3289 -0.439524 0
M  V30 820 H 79.7362 -3.91728 -1.40906 0
M  V30 821 H 80.2692 -3.96749 0.288974 0
M  V30 822 H 77.0082 -6.10258 2.39303 0
M  V30 823 H 76.5282 -5.95858 0.686505 0
M  V30 824 H 78.2072 -6.37375 1.11187 0
M  V30 825 N 78.3393 -0.321999 -1.54275 0
M  V30 826 C 79.5863 0.281044 -2.0054 0
M  V30 827 C 79.9143 1.52265 -1.21019 0
M  V30 828 O 79.1693 1.93687 -0.279982 0
M  V30 829 C 79.4683 0.661769 -3.5122 0
M  V30 830 C 79.1343 -0.480482 -4.48333 0
M  V30 831 C 77.7963 -0.794005 -4.74604 0
M  V30 832 C 80.1483 -1.24783 -5.06042 0
M  V30 833 C 77.4763 -1.87763 -5.55844 0
M  V30 834 C 79.8283 -2.32153 -5.88462 0
M  V30 835 C 78.4923 -2.64089 -6.13036 0
M  V30 836 H 77.7623 0.102841 -0.733829 0
M  V30 837 H 80.4093 -0.445453 -1.86247 0
M  V30 838 H 78.7143 1.46867 -3.63232 0
M  V30 839 H 80.4113 1.13989 -3.84457 0
M  V30 840 H 77.0013 -0.226039 -4.28004 0
M  V30 841 H 81.1853 -1.01887 -4.85729 0
M  V30 842 H 76.4413 -2.12954 -5.73115 0
M  V30 843 H 80.6153 -2.92057 -6.32199 0
M  V30 844 H 78.2423 -3.48185 -6.75775 0
M  V30 845 N 79.8174 1.5752 -0.0501392 0
M  V30 846 C 81.0644 1.9265 0.623874 0
M  V30 847 C 81.3924 0.928411 1.70912 0
M  V30 848 O 80.6474 -0.0594525 1.9561 0
M  V30 849 C 80.9464 3.34467 1.25963 0
M  V30 850 C 80.6124 4.49883 0.302689 0
M  V30 851 C 79.2744 4.81184 0.0393636 0
M  V30 852 C 81.6264 5.20002 -0.353205 0
M  V30 853 C 78.9544 5.79951 -0.887308 0
M  V30 854 C 81.3064 6.1976 -1.26806 0
M  V30 855 C 79.9704 6.49491 -1.54007 0
M  V30 856 H 79.2404 0.704957 0.228292 0
M  V30 857 H 81.8874 1.91146 -0.116398 0
M  V30 858 H 80.1924 3.32333 2.07514 0
M  V30 859 H 81.8894 3.58928 1.78806 0
M  V30 860 H 78.4794 4.25457 0.518109 0
M  V30 861 H 82.6634 4.96033 -0.162854 0
M  V30 862 H 77.9194 6.01322 -1.10553 0
M  V30 863 H 82.0934 6.73205 -1.78236 0
M  V30 864 H 79.7204 7.25837 -2.25976 0
M  V30 865 N 81.2955 -0.223234 1.56011 0
M  V30 866 C 82.2435 -1.29627 1.93131 0
M  V30 867 C 83.2375 -1.48608 0.813146 0
M  V30 868 O 84.4435 -1.49802 0.997966 0
M  V30 869 H 80.8185 -0.434563 0.613726 0
M  V30 870 H 82.7895 -0.955995 2.82672 0
M  V30 871 C 81.5385 -2.63983 2.26292 0
M  V30 872 H 80.8615 -2.50185 3.11846 0
M  V30 873 H 82.3015 -3.3788 2.56151 0
M  V30 874 C 80.7605 -3.18866 1.08747 0
M  V30 875 O 81.2905 -4.00192 0.347727 0
M  V30 876 N 79.4965 -2.77217 0.871743 0
M  V30 877 H 79.0435 -2.1119 1.47501 0
M  V30 878 H 79.0015 -3.1428 0.0869905 0
M  V30 879 N 82.7736 -1.49793 -0.48987 0
M  V30 880 C 84.1896 -1.36803 -0.822022 0
M  V30 881 C 84.3896 -0.409652 -1.97292 0
M  V30 882 O 83.4456 0.154614 -2.52026 0
M  V30 883 C 84.7586 -2.77768 -1.15175 0
M  V30 884 C 86.3066 -2.86549 -1.25931 0
M  V30 885 C 86.7816 -4.28306 -1.62228 0
M  V30 886 N 88.2726 -4.31169 -1.69256 0
M  V30 887 C 89.0076 -5.37832 -1.98807 0
M  V30 888 N 88.5036 -6.54726 -2.26507 0
M  V30 889 N 90.2966 -5.25258 -2.00152 0
M  V30 890 H 82.4476 -2.10691 0.268881 0
M  V30 891 H 84.7106 -0.946241 0.057728 0
M  V30 892 H 84.4166 -3.49648 -0.379335 0
M  V30 893 H 84.2906 -3.13836 -2.09253 0
M  V30 894 H 86.6776 -2.14899 -2.02243 0
M  V30 895 H 86.7586 -2.54049 -0.298776 0
M  V30 896 H 86.4026 -5.00486 -0.864622 0
M  V30 897 H 86.3326 -4.58279 -2.594 0
M  V30 898 H 88.8236 -3.4687 -1.49965 0
M  V30 899 H 89.1366 -7.31833 -2.48276 0
M  V30 900 H 87.4816 -6.57933 -2.23939 0
M  V30 901 H 90.6726 -4.32938 -1.77996 0
M  V30 902 H 90.8456 -6.08476 -2.22848 0
M  V30 903 N 84.2517 0.741722 -1.39055 0
M  V30 904 C 85.1987 1.85566 -1.37237 0
M  V30 905 C 86.1687 1.64457 -0.233072 0
M  V30 906 O 87.3537 1.85957 -0.427147 0
M  V30 907 C 84.4937 3.23004 -1.215 0
M  V30 908 C 83.6067 3.55864 -2.44918 0
M  V30 909 C 82.7417 4.82669 -2.21821 0
M  V30 910 C 81.7807 5.08351 -3.40948 0
M  V30 911 N 80.9177 6.26356 -3.17211 0
M  V30 912 H 85.7577 1.86455 -2.32462 0
M  V30 913 H 83.2947 0.911176 -1.15482 0
M  V30 914 H 85.2527 4.02331 -1.10389 0
M  V30 915 H 83.8827 3.21411 -0.29908 0
M  V30 916 H 82.9347 2.7129 -2.66657 0
M  V30 917 H 84.2467 3.70765 -3.33668 0
M  V30 918 H 83.4007 5.69962 -2.07914 0
M  V30 919 H 82.1397 4.69929 -1.30454 0
M  V30 920 H 81.1447 4.19522 -3.55361 0
M  V30 921 H 82.3697 5.22981 -4.33207 0
M  V30 922 H 80.3157 6.14917 -2.28502 0
M  V30 923 H 80.2327 6.41813 -3.99515 0
M  V30 924 H 81.5007 7.16506 -3.06984 0
M  V30 925 N 85.7298 1.2412 0.971189 0
M  V30 926 C 86.9768 1.07881 1.71371 0
M  V30 927 C 87.3048 -0.382901 1.90694 0
M  V30 928 O 86.5598 -1.29945 1.46331 0
M  V30 929 C 86.8588 1.75983 3.11071 0
M  V30 930 C 86.5248 3.25909 3.11599 0
M  V30 931 C 85.1868 3.66813 3.11451 0
M  V30 932 C 87.5388 4.21771 3.062 0
M  V30 933 C 84.8668 5.02021 3.03631 0
M  V30 934 C 87.2188 5.56982 2.99923 0
M  V30 935 C 85.8828 5.97237 2.98102 0
M  V30 936 H 85.1528 0.394764 0.62709 0
M  V30 937 H 87.7998 1.54176 1.13587 0
M  V30 938 H 86.1048 1.22072 3.72298 0
M  V30 939 H 87.8018 1.60887 3.6731 0
M  V30 940 H 84.3918 2.93353 3.12477 0
M  V30 941 H 88.5758 3.91172 3.05447 0
M  V30 942 H 83.8318 5.32411 3.0058 0
M  V30 943 H 88.0058 6.30969 2.94704 0
M  V30 944 H 85.6328 7.01967 2.91798 0
M  V30 945 N 87.2079 -1.17134 1.05439 0
M  V30 946 C 88.1549 -2.21235 0.657539 0
M  V30 947 C 89.1249 -1.62551 -0.341543 0
M  V30 948 O 90.3099 -1.89379 -0.232393 0
M  V30 949 C 87.4499 -3.45076 0.0410575 0
M  V30 950 C 86.5629 -4.18042 1.08927 0
M  V30 951 C 85.6979 -5.29376 0.439848 0
M  V30 952 C 84.7369 -5.94132 1.4722 0
M  V30 953 N 83.8739 -6.96975 0.846756 0
M  V30 954 H 88.7139 -2.54534 1.54972 0
M  V30 955 H 86.2509 -1.25028 0.775006 0
M  V30 956 H 88.2089 -4.15862 -0.33383 0
M  V30 957 H 86.8389 -3.12353 -0.814568 0
M  V30 958 H 85.8909 -3.45945 1.58196 0
M  V30 959 H 87.2029 -4.62306 1.87282 0
M  V30 960 H 86.3569 -6.06699 0.0115125 0
M  V30 961 H 85.0959 -4.86251 -0.375656 0
M  V30 962 H 84.1009 -5.15538 1.91052 0
M  V30 963 H 85.3259 -6.39337 2.28965 0
M  V30 964 H 83.2719 -6.5598 0.0518075 0
M  V30 965 H 83.1889 -7.39565 1.5678 0
M  V30 966 H 84.4569 -7.78239 0.443277 0
M  V30 967 N 88.686 -0.835752 -1.33615 0
M  V30 968 C 89.914 -0.443344 -2.02094 0
M  V30 969 C 90.329 0.954522 -1.62894 0
M  V30 970 O 89.686 1.61982 -0.840723 0
M  V30 971 C 89.737 -0.550775 -3.5728 0
M  V30 972 O 89.458 -1.89356 -3.95065 0
M  V30 973 C 90.959 -0.154919 -4.43029 0
M  V30 974 H 88.179 -0.176359 -0.647409 0
M  V30 975 H 90.723 -1.12746 -1.70612 0
M  V30 976 H 88.878 0.0853997 -3.87306 0
M  V30 977 H 89.292 -1.87687 -4.89769 0
M  V30 978 H 90.766 -0.281144 -5.51284 0
M  V30 979 H 91.243 0.902863 -4.2982 0
M  V30 980 H 91.849 -0.765404 -4.18356 0
M  V30 981 N 90.1641 1.46063 -0.591896 0
M  V30 982 C 91.5751 1.85944 -0.167822 0
M  V30 983 C 91.9261 1.49429 1.27143 0
M  V30 984 O 91.0511 0.913515 1.96173 0
M  V30 985 C 91.6461 3.37489 -0.297794 0
M  V30 986 C 90.2051 3.76332 0.0714732 0
M  V30 987 C 89.3521 2.7006 -0.629509 0
M  V30 988 H 92.3031 1.37087 -0.799555 0
M  V30 989 H 92.3241 3.77532 0.474349 0
M  V30 990 H 91.8361 3.64034 -1.3454 0
M  V30 991 H 89.9371 3.55405 1.11886 0
M  V30 992 H 90.0501 4.78088 -0.311245 0
M  V30 993 H 88.4141 2.54607 -0.0687867 0
M  V30 994 H 89.1971 2.99444 -1.67894 0
M  V30 995 N 91.6422 0.330177 1.54103 0
M  V30 996 C 92.8672 -0.274893 2.0557 0
M  V30 997 C 93.2922 -1.44487 1.20437 0
M  V30 998 O 92.6502 -1.80021 0.214991 0
M  V30 999 C 92.6982 -0.68079 3.54115 0
M  V30 1000 O 91.8022 -1.7824 3.71893 0
M  V30 1001 H 91.1432 -0.0483849 0.662235 0
M  V30 1002 H 93.6732 0.480508 1.98878 0
M  V30 1003 H 93.6832 -0.961635 3.96505 0
M  V30 1004 H 92.3582 0.174903 4.15532 0
M  V30 1005 H 90.9352 -1.49985 3.41407 0
M  V30 1006 N 93.1203 -1.57491 0.0584922 0
M  V30 1007 C 94.3683 -1.92597 -0.612436 0
M  V30 1008 C 94.6893 -0.938162 -1.70949 0
M  V30 1009 O 93.9593 0.0158301 -1.95894 0
M  V30 1010 H 92.5393 -0.710964 -0.229214 0
M  V30 1011 H 95.2013 -1.94571 0.113218 0
M  V30 1012 H 94.2973 -2.94038 -1.04633 0
M  V30 1013 N 94.5984 0.214957 -1.56127 0
M  V30 1014 C 95.5454 1.26642 -1.92952 0
M  V30 1015 C 96.5154 1.46244 -0.78753 0
M  V30 1016 O 97.7004 1.59704 -1.04399 0
M  V30 1017 C 94.8404 2.6104 -2.25726 0
M  V30 1018 C 93.9534 2.49183 -3.52891 0
M  V30 1019 C 93.0884 3.76149 -3.7508 0
M  V30 1020 C 92.1274 3.59041 -4.95738 0
M  V30 1021 N 91.2644 4.77972 -5.14283 0
M  V30 1022 H 96.1044 0.945384 -2.82607 0
M  V30 1023 H 93.6414 0.455489 -1.3987 0
M  V30 1024 H 95.5994 3.39313 -2.42739 0
M  V30 1025 H 94.2294 2.91227 -1.39236 0
M  V30 1026 H 93.2814 1.6231 -3.44034 0
M  V30 1027 H 94.5934 2.32466 -4.41318 0
M  V30 1028 H 93.7474 4.62865 -3.92226 0
M  V30 1029 H 92.4864 3.95799 -2.84947 0
M  V30 1030 H 91.4914 2.7071 -4.78535 0
M  V30 1031 H 92.7164 3.40856 -5.87362 0
M  V30 1032 H 90.6624 4.97923 -4.27093 0
M  V30 1033 H 90.5794 4.64006 -5.96853 0
M  V30 1034 H 91.8474 5.66096 -5.35869 0
M  V30 1035 N 96.0765 1.50051 0.48192 0
M  V30 1036 C 96.9865 1.7089 1.60728 0
M  V30 1037 C 98.0025 0.591788 1.63627 0
M  V30 1038 O 99.1785 0.868817 1.81696 0
M  V30 1039 C 96.2435 1.78855 2.97005 0
M  V30 1040 C 95.3045 3.02537 3.04581 0
M  V30 1041 C 94.5375 3.10112 4.34357 0
M  V30 1042 O 94.7605 2.24765 5.24249 0
M  V30 1043 O 93.6945 4.02747 4.47301 0
M  V30 1044 H 97.5205 2.66264 1.46072 0
M  V30 1045 H 95.1055 1.34018 0.660264 0
M  V30 1046 H 96.9875 1.86336 3.77964 0
M  V30 1047 H 95.6625 0.866628 3.11883 0
M  V30 1048 H 94.5695 3.00563 2.22739 0
M  V30 1049 H 95.9025 3.94272 2.94636 0
M  V30 1050 N 97.5546 -0.734337 1.39446 0
M  V30 1051 C 98.5176 -1.83004 1.37994 0
M  V30 1052 C 99.5176 -1.58397 0.276938 0
M  V30 1053 O 100.708 -1.65785 0.534875 0
M  V30 1054 C 97.8396 -3.20802 1.1532 0
M  V30 1055 H 99.0326 -1.85694 2.35494 0
M  V30 1056 H 96.5856 -0.938059 1.25021 0
M  V30 1057 H 97.3206 -3.23772 0.185036 0
M  V30 1058 H 97.1056 -3.4006 1.95197 0
M  V30 1059 H 98.5956 -4.00862 1.17046 0
M  V30 1060 N 99.0327 -1.24633 -0.964593 0
M  V30 1061 C 99.9957 -1.0424 -2.04124 0
M  V30 1062 C 100.996 0.00137563 -1.608 0
M  V30 1063 O 102.186 -0.239883 -1.7254 0
M  V30 1064 C 99.3177 -0.580588 -3.3592 0
M  V30 1065 H 100.511 -1.99803 -2.23649 0
M  V30 1066 H 98.0637 -1.06899 -1.14027 0
M  V30 1067 H 98.7987 0.3781 -3.22088 0
M  V30 1068 H 98.5837 -1.33398 -3.6871 0
M  V30 1069 H 100.074 -0.459034 -4.15069 0
M  V30 1070 N 100.511 1.16574 -1.06058 0
M  V30 1071 C 101.751 1.88723 -0.78504 0
M  V30 1072 C 102.115 1.79706 0.676006 0
M  V30 1073 O 103.316 2.46757 1.06603 0
M  V30 1074 C 101.587 3.34338 -1.26304 0
M  V30 1075 S 103.146 4.24366 -1.1162 0
M  V30 1076 H 99.9638 0.651448 -0.284846 0
M  V30 1077 H 102.566 1.40732 -1.35701 0
M  V30 1078 H 101.27 3.38439 -2.32136 0
M  V30 1079 H 100.801 3.87378 -0.685719 0
M  V30 1080 H 102.816 4.96179 -0.0456539 0
M  V30 1081 N 101.989 0.842826 1.3317 0
M  V30 1082 C 102.952 0.284065 2.27433 0
M  V30 1083 C 103.952 -0.54948 1.5112 0
M  V30 1084 O 105.142 -0.362699 1.70382 0
M  V30 1085 C 102.274 -0.599384 3.35589 0
M  V30 1086 H 103.467 1.11589 2.78366 0
M  V30 1087 H 101.02 0.616221 1.4364 0
M  V30 1088 H 101.755 -1.45349 2.89904 0
M  V30 1089 H 101.54 -0.00291266 3.921 0
M  V30 1090 H 103.03 -0.983488 4.05854 0
M  V30 1091 N 103.467 -1.45747 0.599634 0
M  V30 1092 C 104.692 -2.07178 0.0960198 0
M  V30 1093 C 105.117 -1.44268 -1.207 0
M  V30 1094 O 104.475 -0.532503 -1.73303 0
M  V30 1095 C 104.523 -3.60579 -0.0385348 0
M  V30 1096 O 103.627 -3.97713 -1.0908 0
M  V30 1097 H 102.968 -0.660251 0.0704593 0
M  V30 1098 H 105.498 -1.87124 0.827385 0
M  V30 1099 H 105.508 -4.07298 -0.239304 0
M  V30 1100 H 104.183 -4.05756 0.912947 0
M  V30 1101 H 102.76 -3.62678 -0.867135 0
M  V30 1102 N 104.945 -0.338344 -1.53925 0
M  V30 1103 C 106.185 0.260168 -2.02737 0
M  V30 1104 C 106.549 1.48181 -1.22092 0
M  V30 1105 O 107.75 2.15416 -1.60777 0
M  V30 1106 C 106.021 0.571627 -3.52799 0
M  V30 1107 S 107.58 1.14769 -4.23525 0
M  V30 1108 H 104.398 0.077791 -0.706732 0
M  V30 1109 H 107 -0.474899 -1.89644 0
M  V30 1110 H 105.704 -0.325392 -4.09108 0
M  V30 1111 H 105.235 1.3365 -3.70002 0
M  V30 1112 H 107.25 2.43372 -4.32417 0
M  V30 1113 N 106.423 1.57458 -0.0668435 0
M  V30 1114 C 107.373 2.0896 0.912119 0
M  V30 1115 C 108.357 0.998186 1.26195 0
M  V30 1116 O 109.549 1.26133 1.24175 0
M  V30 1117 C 106.678 2.6508 2.18145 0
M  V30 1118 C 105.764 3.81218 1.85832 0
M  V30 1119 N 106.155 4.90378 1.23948 0
M  V30 1120 C 104.453 3.9042 2.15612 0
M  V30 1121 C 105.154 5.71279 1.09616 0
M  V30 1122 N 104.13 5.19389 1.60423 0
M  V30 1123 H 107.932 2.90749 0.42924 0
M  V30 1124 H 105.446 1.6182 0.137184 0
M  V30 1125 H 107.443 3.0029 2.89192 0
M  V30 1126 H 106.103 1.84736 2.67025 0
M  V30 1127 H 107.114 5.09847 0.909731 0
M  V30 1128 H 103.791 3.21043 2.66903 0
M  V30 1129 H 105.181 6.69085 0.614425 0
M  V30 1130 N 107.901 -0.206675 1.56239 0
M  V30 1131 C 109.129 -0.945345 1.8404 0
M  V30 1132 C 109.544 -1.77336 0.647885 0
M  V30 1133 O 108.901 -1.78425 -0.383511 0
M  V30 1134 C 108.952 -1.8509 3.10522 0
M  V30 1135 O 108.673 -1.05634 4.25174 0
M  V30 1136 C 110.174 -2.70222 3.51418 0
M  V30 1137 H 107.394 -0.276372 0.61144 0
M  V30 1138 H 109.938 -0.217417 2.03341 0
M  V30 1139 H 108.093 -2.53259 2.93153 0
M  V30 1140 H 108.507 -1.67238 4.97124 0
M  V30 1141 H 109.981 -3.29438 4.42916 0
M  V30 1142 H 110.458 -3.43358 2.73864 0
M  V30 1143 H 111.064 -2.07443 3.71278 0
M  V30 1144 N 109.379 -1.50304 -0.473955 0
M  V30 1145 C 110.327 -1.69482 -1.59307 0
M  V30 1146 C 111.321 -0.560669 -1.59853 0
M  V30 1147 O 112.527 -0.741087 -1.64036 0
M  V30 1148 H 108.902 -0.534892 -0.528578 0
M  V30 1149 H 110.873 -2.63364 -1.40293 0
M  V30 1150 C 109.622 -1.80354 -2.97267 0
M  V30 1151 H 108.945 -2.67012 -2.97564 0
M  V30 1152 H 110.385 -1.97798 -3.75036 0
M  V30 1153 C 108.844 -0.55448 -3.32306 0
M  V30 1154 O 109.374 0.307661 -4.0052 0
M  V30 1155 N 107.58 -0.409354 -2.87702 0
M  V30 1156 H 107.127 -1.11196 -2.32364 0
M  V30 1157 H 107.085 0.425223 -3.11511 0
M  V30 1158 N 110.857 0.726932 -1.39834 0
M  V30 1159 C 111.805 1.86235 -1.39353 0
M  V30 1160 C 112.799 1.67144 -0.275555 0
M  V30 1161 O 114.005 1.74387 -0.44601 0
M  V30 1162 H 110.38 0.613174 -0.43534 0
M  V30 1163 H 112.351 1.83756 -2.35109 0
M  V30 1164 C 111.1 3.23995 -1.26185 0
M  V30 1165 H 110.423 3.39285 -2.11484 0
M  V30 1166 H 111.863 4.03609 -1.29907 0
M  V30 1167 C 110.322 3.36888 0.0290018 0
M  V30 1168 O 110.852 3.89152 0.99619 0
M  V30 1169 N 109.058 2.90446 0.0947437 0
M  V30 1170 H 108.605 2.48102 -0.693035 0
M  V30 1171 H 108.563 2.99451 0.957932 0
M  V30 1172 N 112.336 1.25143 0.95797 0
M  V30 1173 C 113.747 1.08851 1.51685 0
M  V30 1174 C 114.098 -0.33687 1.93286 0
M  V30 1175 O 113.223 -1.22644 1.7829 0
M  V30 1176 C 113.818 1.96978 2.75654 0
M  V30 1177 C 112.377 1.84881 3.27866 0
M  V30 1178 C 111.524 1.91329 2.0072 0
M  V30 1179 H 114.475 1.38478 0.77522 0
M  V30 1180 H 114.496 1.5078 3.4935 0
M  V30 1181 H 114.008 3.00712 2.45345 0
M  V30 1182 H 112.109 0.840182 3.63004 0
M  V30 1183 H 112.222 2.6951 3.96107 0
M  V30 1184 H 110.586 1.35174 2.15871 0
M  V30 1185 H 111.369 2.96661 1.72764 0
M  V30 1186 N 113.814 -1.1601 1.06675 0
M  V30 1187 C 114.777 -2.18724 0.685001 0
M  V30 1188 C 115.777 -1.58496 -0.271246 0
M  V30 1189 O 116.967 -1.74119 -0.0531156 0
M  V30 1190 C 114.099 -3.40899 0.00853648 0
M  V30 1191 H 115.292 -2.54011 1.59431 0
M  V30 1192 H 112.845 -1.30352 0.862441 0
M  V30 1193 H 113.58 -3.11173 -0.913337 0
M  V30 1194 H 113.365 -3.8587 0.696204 0
M  V30 1195 H 114.855 -4.16886 -0.24414 0
M  V30 1196 N 115.292 -0.849877 -1.32721 0
M  V30 1197 C 116.24 -0.279745 -2.30912 0
M  V30 1198 C 117.234 0.594278 -1.58634 0
M  V30 1199 O 118.44 0.482613 -1.73409 0
M  V30 1200 H 114.815 -0.0717521 -0.748569 0
M  V30 1201 H 116.786 -1.12222 -2.76494 0
M  V30 1202 C 115.535 0.521108 -3.43773 0
M  V30 1203 H 114.858 -0.142141 -3.99547 0
M  V30 1204 H 116.298 0.885693 -4.14646 0
M  V30 1205 C 114.757 1.70442 -2.90605 0
M  V30 1206 O 115.287 2.8034 -2.87702 0
M  V30 1207 N 113.493 1.52991 -2.47067 0
M  V30 1208 H 113.04 0.635914 -2.49628 0
M  V30 1209 H 112.998 2.32311 -2.11847 0
M  V30 1210 N 116.77 1.45427 -0.607355 0
M  V30 1211 C 118.016 2.0254 -0.102607 0
M  V30 1212 C 118.349 1.47478 1.26348 0
M  V30 1213 O 117.624 0.64939 1.83339 0
M  V30 1214 C 117.907 3.60044 -0.0634347 0
M  V30 1215 C 117.76 4.2544 -1.46017 0
M  V30 1216 C 119.079 4.35646 0.624514 0
M  V30 1217 H 116.198 0.73598 -0.0387607 0
M  V30 1218 H 118.84 1.73284 -0.779282 0
M  V30 1219 H 116.99 3.85101 0.512808 0
M  V30 1220 H 118.662 4.11569 -2.08347 0
M  V30 1221 H 116.905 3.83849 -2.02094 0
M  V30 1222 H 117.576 5.34342 -1.385 0
M  V30 1223 H 120.052 4.15882 0.134723 0
M  V30 1224 H 118.928 5.45376 0.621028 0
M  V30 1225 H 119.189 4.08501 1.69055 0
M  V30 1226 N 118.248 0.346503 1.53744 0
M  V30 1227 C 119.496 -0.248612 2.00565 0
M  V30 1228 C 119.817 -1.5083 1.23593 0
M  V30 1229 O 119.087 -1.92858 0.343912 0
M  V30 1230 H 117.667 -0.0948564 0.740953 0
M  V30 1231 H 120.329 0.468341 1.89189 0
M  V30 1232 H 119.425 -0.488994 3.08245 0
M  V30 1233 N 119.726 -1.57421 0.075193 0
M  V30 1234 C 120.673 -2.12915 -0.890843 0
M  V30 1235 C 121.643 -1.04252 -1.29309 0
M  V30 1236 O 122.828 -1.31933 -1.37834 0
M  V30 1237 C 119.968 -2.69795 -2.15186 0
M  V30 1238 C 119.081 -3.92624 -1.80194 0
M  V30 1239 C 118.216 -4.37736 -3.00933 0
M  V30 1240 C 117.255 -5.53205 -2.61974 0
M  V30 1241 N 116.392 -5.9326 -3.75483 0
M  V30 1242 H 121.232 -2.95156 -0.410735 0
M  V30 1243 H 118.769 -1.45854 -0.191086 0
M  V30 1244 H 120.727 -3.00883 -2.89008 0
M  V30 1245 H 119.357 -1.90313 -2.60731 0
M  V30 1246 H 118.409 -3.67977 -0.964218 0
M  V30 1247 H 119.721 -4.76482 -1.47534 0
M  V30 1248 H 118.875 -4.70503 -3.8303 0
M  V30 1249 H 117.614 -3.52739 -3.36789 0
M  V30 1250 H 116.619 -5.20086 -1.783 0
M  V30 1251 H 117.844 -6.39936 -2.27284 0
M  V30 1252 H 115.79 -5.11212 -4.11094 0
M  V30 1253 H 115.707 -6.71865 -3.46602 0
M  V30 1254 H 116.975 -6.30651 -4.58148 0
M  V30 1255 N 121.204 0.198386 -1.56346 0
M  V30 1256 C 122.152 1.26538 -1.95169 0
M  V30 1257 C 123.146 1.47295 -0.836685 0
M  V30 1258 O 124.352 1.48195 -1.02167 0
M  V30 1259 H 120.727 0.424744 -0.620561 0
M  V30 1260 H 122.698 0.910904 -2.84157 0
M  V30 1261 C 121.447 2.6035 -2.30463 0
M  V30 1262 H 120.77 2.45192 -3.15786 0
M  V30 1263 H 122.21 3.33762 -2.61494 0
M  V30 1264 C 120.669 3.17096 -1.13806 0
M  V30 1265 O 121.199 3.99588 -0.41135 0
M  V30 1266 N 119.405 2.75795 -0.915736 0
M  V30 1267 H 118.952 2.08816 -1.50843 0
M  V30 1268 H 118.91 3.14101 -0.136979 0
M  V30 1269 N 122.682 1.50554 0.465978 0
M  V30 1270 C 123.931 1.61038 1.21448 0
M  V30 1271 C 124.244 0.31865 1.92987 0
M  V30 1272 O 125.45 0.302469 2.6981 0
M  V30 1273 C 123.906 2.84283 2.20706 0
M  V30 1274 C 123.514 4.20352 1.54946 0
M  V30 1275 C 125.258 3.04115 2.96166 0
M  V30 1276 C 123.165 5.34778 2.5252 0
M  V30 1277 H 122.095 0.599718 0.457005 0
M  V30 1278 H 124.746 1.7699 0.484424 0
M  V30 1279 H 123.128 2.61901 2.97025 0
M  V30 1280 H 124.302 4.53008 0.843811 0
M  V30 1281 H 122.617 4.06167 0.917475 0
M  V30 1282 H 125.214 3.86774 3.69202 0
M  V30 1283 H 125.557 2.16045 3.55852 0
M  V30 1284 H 126.09 3.26702 2.26959 0
M  V30 1285 H 122.829 6.25018 1.97566 0
M  V30 1286 H 122.349 5.06534 3.21222 0
M  V30 1287 H 124.028 5.65561 3.14245 0
M  V30 1288 N 124.16 -0.719506 1.40217 0
M  V30 1289 C 125.406 -1.48152 1.38488 0
M  V30 1290 C 125.739 -1.94195 -0.0141867 0
M  V30 1291 O 125.014 -1.67884 -0.982096 0
M  V30 1292 C 125.297 -2.71035 2.37091 0
M  V30 1293 C 125.15 -2.30912 3.86005 0
M  V30 1294 C 126.469 -3.73182 2.33288 0
M  V30 1295 H 123.588 -0.537395 0.504357 0
M  V30 1296 H 126.23 -0.821472 1.71324 0
M  V30 1297 H 124.38 -3.27352 2.0922 0
M  V30 1298 H 126.052 -1.80107 4.24687 0
M  V30 1299 H 124.295 -1.62958 4.02029 0
M  V30 1300 H 124.966 -3.18978 4.50508 0
M  V30 1301 H 127.442 -3.26485 2.57966 0
M  V30 1302 H 126.318 -4.56806 3.04334 0
M  V30 1303 H 126.579 -4.21202 1.34317 0
M  V30 1304 N 125.638 -1.25649 -0.95132 0
M  V30 1305 C 126.866 -1.13343 -1.73092 0
M  V30 1306 C 127.281 0.312434 -1.86197 0
M  V30 1307 O 126.638 1.21465 -1.36207 0
M  V30 1308 C 126.689 -1.78602 -3.14299 0
M  V30 1309 O 126.41 -3.17537 -3.01831 0
M  V30 1310 C 127.911 -1.72119 -4.08522 0
M  V30 1311 H 125.131 -0.395181 -0.542285 0
M  V30 1312 H 127.675 -1.66076 -1.19328 0
M  V30 1313 H 125.83 -1.29832 -3.64996 0
M  V30 1314 H 126.244 -3.49676 -3.90931 0
M  V30 1315 H 127.718 -2.22435 -5.052 0
M  V30 1316 H 128.195 -0.685635 -4.33815 0
M  V30 1317 H 128.801 -2.20393 -3.63741 0
M  V30 1318 N 127.117 1.15442 -1.07289 0
M  V30 1319 C 128.365 1.85845 -0.794096 0
M  V30 1320 C 128.686 1.82692 0.681809 0
M  V30 1321 O 127.956 1.26741 1.49377 0
M  V30 1322 H 126.536 0.688089 -0.290763 0
M  V30 1323 H 129.198 1.39947 -1.3565 0
M  V30 1324 H 128.294 2.91001 -1.12804 0
M  V30 1325 N 128.595 0.856903 1.32268 0
M  V30 1326 C 129.542 0.301172 2.28827 0
M  V30 1327 C 130.512 -0.593104 1.5515 0
M  V30 1328 O 131.697 -0.527537 1.83362 0
M  V30 1329 C 128.837 -0.502523 3.41422 0
M  V30 1330 C 127.95 0.417797 4.29975 0
M  V30 1331 C 127.085 -0.398749 5.29701 0
M  V30 1332 C 126.124 0.518827 6.09897 0
M  V30 1333 N 125.261 -0.260674 7.01616 0
M  V30 1334 H 130.101 1.12983 2.75751 0
M  V30 1335 H 127.638 0.568582 1.35667 0
M  V30 1336 H 129.596 -0.984141 4.05426 0
M  V30 1337 H 128.226 -1.29599 2.95642 0
M  V30 1338 H 127.278 1.01781 3.66531 0
M  V30 1339 H 128.59 1.12191 4.86019 0
M  V30 1340 H 127.744 -0.943435 5.9932 0
M  V30 1341 H 126.483 -1.13622 4.7428 0
M  V30 1342 H 125.488 1.07538 5.39181 0
M  V30 1343 H 126.713 1.25495 6.67404 0
M  V30 1344 H 124.659 -0.981198 6.4862 0
M  V30 1345 H 124.576 0.384364 7.55022 0
M  V30 1346 H 125.844 -0.787014 7.75517 0
M  V30 1347 N 130.073 -1.45103 0.615059 0
M  V30 1348 C 130.983 -2.34382 -0.101034 0
M  V30 1349 C 131.999 -1.51681 -0.852585 0
M  V30 1350 O 133.175 -1.8446 -0.808484 0
M  V30 1351 C 130.24 -3.29417 -1.08099 0
M  V30 1352 C 129.301 -4.28025 -0.330577 0
M  V30 1353 C 128.534 -5.1852 -1.26385 0
M  V30 1354 O 128.757 -5.12598 -2.50198 0
M  V30 1355 O 127.691 -5.97122 -0.756866 0
M  V30 1356 H 131.517 -2.97033 0.632855 0
M  V30 1357 H 129.102 -1.4461 0.375293 0
M  V30 1358 H 130.984 -3.87958 -1.6452 0
M  V30 1359 H 129.659 -2.69321 -1.79577 0
M  V30 1360 H 128.566 -3.73078 0.276283 0
M  V30 1361 H 129.899 -4.90997 0.343866 0
M  V30 1362 N 131.551 -0.354651 -1.53558 0
M  V30 1363 C 132.8 0.239504 -2.00273 0
M  V30 1364 C 133.113 1.50759 -1.24623 0
M  V30 1365 O 134.319 2.17968 -1.61871 0
M  V30 1366 C 132.775 0.477341 -3.5672 0
M  V30 1367 C 132.383 -0.775488 -4.41237 0
M  V30 1368 C 134.127 1.02975 -4.11821 0
M  V30 1369 C 132.034 -0.507838 -5.89216 0
M  V30 1370 H 130.964 0.0932743 -0.748208 0
M  V30 1371 H 133.615 -0.471701 -1.77334 0
M  V30 1372 H 131.997 1.24953 -3.7577 0
M  V30 1373 H 133.171 -1.54963 -4.33962 0
M  V30 1374 H 131.486 -1.25033 -3.97185 0
M  V30 1375 H 134.083 1.24513 -5.2 0
M  V30 1376 H 134.426 1.98862 -3.65731 0
M  V30 1377 H 134.959 0.317994 -3.96527 0
M  V30 1378 H 131.698 -1.43674 -6.39561 0
M  V30 1379 H 131.218 0.228011 -5.99366 0
M  V30 1380 H 132.897 -0.129238 -6.46871 0
M  V30 1381 N 133.029 1.57378 -0.0835403 0
M  V30 1382 C 134.44 1.81261 0.447358 0
M  V30 1383 C 134.791 0.998331 1.68902 0
M  V30 1384 O 133.916 0.224282 2.15235 0
M  V30 1385 C 134.511 3.28767 0.818386 0
M  V30 1386 C 133.07 3.53455 1.29409 0
M  V30 1387 C 132.217 2.75831 0.285024 0
M  V30 1388 H 135.168 1.5566 -0.309115 0
M  V30 1389 H 135.189 3.41459 1.67887 0
M  V30 1390 H 134.701 3.88006 -0.0855019 0
M  V30 1391 H 132.802 2.99534 2.21608 0
M  V30 1392 H 132.915 4.62128 1.2639 0
M  V30 1393 H 131.279 2.42947 0.764767 0
M  V30 1394 H 132.062 3.37813 -0.611341 0
M  V30 1395 N 134.507 -0.190092 1.56449 0
M  V30 1396 C 135.918 -0.754312 1.70784 0
M  V30 1397 C 136.269 -1.83631 0.690951 0
M  V30 1398 O 135.394 -2.15868 -0.151604 0
M  V30 1399 C 135.989 -1.37503 3.09642 0
M  V30 1400 C 134.548 -1.88628 3.25725 0
M  V30 1401 C 133.695 -0.758098 2.66736 0
M  V30 1402 H 136.646 0.0350524 1.58661 0
M  V30 1403 H 136.667 -2.2445 3.0725 0
M  V30 1404 H 136.179 -0.587302 3.83631 0
M  V30 1405 H 134.28 -2.70103 2.56661 0
M  V30 1406 H 134.393 -2.04462 4.3328 0
M  V30 1407 H 132.757 -1.17369 2.26046 0
M  V30 1408 H 133.54 0.0174705 3.43296 0
M  V30 1409 N 135.985 -1.50799 -0.457987 0
M  V30 1410 C 136.915 -1.73553 -1.5621 0
M  V30 1411 C 137.896 -0.584774 -1.59732 0
M  V30 1412 O 139.081 -0.825314 -1.7579 0
M  V30 1413 C 136.211 -1.84169 -2.94447 0
M  V30 1414 C 135.165 -2.99461 -3.0579 0
M  V30 1415 C 134.491 -2.95235 -4.45803 0
M  V30 1416 C 135.791 -4.39766 -2.81786 0
M  V30 1417 H 137.485 -2.66 -1.37421 0
M  V30 1418 H 135.031 -1.28002 -0.659662 0
M  V30 1419 H 136.984 -1.98672 -3.71628 0
M  V30 1420 H 135.708 -0.883545 -3.14422 0
M  V30 1421 H 134.367 -2.8463 -2.31044 0
M  V30 1422 H 134.015 -1.97239 -4.62715 0
M  V30 1423 H 133.715 -3.72642 -4.54326 0
M  V30 1424 H 135.239 -3.11803 -5.24987 0
M  V30 1425 H 136.653 -4.55054 -3.4871 0
M  V30 1426 H 135.05 -5.18722 -3.0174 0
M  V30 1427 H 136.12 -4.51229 -1.7754 0
M  V30 1428 N 137.463 0.71206 -1.40597 0
M  V30 1429 C 138.426 1.80785 -1.40888 0
M  V30 1430 C 139.426 1.57937 -0.302103 0
M  V30 1431 O 140.616 1.64913 -0.561182 0
M  V30 1432 C 137.748 3.18927 -1.20409 0
M  V30 1433 H 138.941 1.81924 -2.38419 0
M  V30 1434 H 136.494 0.91805 -1.26497 0
M  V30 1435 H 137.229 3.23436 -0.236522 0
M  V30 1436 H 137.014 3.36911 -2.00582 0
M  V30 1437 H 138.504 3.98949 -1.23408 0
M  V30 1438 N 138.941 1.26152 0.944643 0
M  V30 1439 C 140.352 1.10454 1.50522 0
M  V30 1440 C 140.703 -0.31635 1.93633 0
M  V30 1441 O 139.828 -1.20746 1.79581 0
M  V30 1442 C 140.423 1.99891 2.73549 0
M  V30 1443 C 138.982 1.88348 3.25886 0
M  V30 1444 C 138.129 1.93447 1.9868 0
M  V30 1445 H 141.08 1.39292 0.760489 0
M  V30 1446 H 141.101 1.54477 3.47732 0
M  V30 1447 H 140.613 3.03297 2.42141 0
M  V30 1448 H 138.714 0.878636 3.62092 0
M  V30 1449 H 138.827 2.73696 3.93227 0
M  V30 1450 H 137.191 1.37456 2.14425 0
M  V30 1451 H 137.974 2.98476 1.69607 0
M  V30 1452 N 140.419 -1.14872 1.07899 0
M  V30 1453 C 141.835 -1.37776 0.805606 0
M  V30 1454 C 142.035 -1.92743 -0.587555 0
M  V30 1455 O 141.091 -2.13678 -1.34528 0
M  V30 1456 C 142.404 -2.34361 1.88402 0
M  V30 1457 C 143.952 -2.48012 1.90942 0
M  V30 1458 C 144.427 -3.47893 2.97883 0
M  V30 1459 N 145.918 -3.55433 2.97021 0
M  V30 1460 C 146.653 -4.32553 3.76412 0
M  V30 1461 N 146.149 -5.12959 4.65666 0
M  V30 1462 N 147.942 -4.27697 3.64735 0
M  V30 1463 H 140.093 -0.775365 1.97742 0
M  V30 1464 H 142.356 -0.403521 0.857831 0
M  V30 1465 H 142.062 -2.01098 2.88535 0
M  V30 1466 H 141.936 -3.34206 1.74889 0
M  V30 1467 H 144.323 -2.8057 0.914579 0
M  V30 1468 H 144.404 -1.48147 2.08534 0
M  V30 1469 H 144.048 -3.16069 3.97571 0
M  V30 1470 H 143.978 -4.47527 2.77538 0
M  V30 1471 H 146.469 -2.98048 2.32326 0
M  V30 1472 H 146.782 -5.69065 5.22862 0
M  V30 1473 H 145.127 -5.12245 4.69712 0
M  V30 1474 H 148.318 -3.63949 2.94378 0
M  V30 1475 H 148.491 -4.8755 4.26848 0
M  V30 1476 N 141.898 -0.863906 -1.31812 0
M  V30 1477 C 143.144 -0.472535 -1.97218 0
M  V30 1478 C 143.477 0.971394 -1.68159 0
M  V30 1479 O 142.752 1.68309 -0.974798 0
M  V30 1480 C 143.035 -0.723054 -3.52766 0
M  V30 1481 C 142.888 -2.21608 -3.91421 0
M  V30 1482 C 144.207 -0.185522 -4.39709 0
M  V30 1483 H 141.326 -0.173158 -0.71637 0
M  V30 1484 H 143.968 -1.08403 -1.56041 0
M  V30 1485 H 142.118 -0.202577 -3.87971 0
M  V30 1486 H 143.79 -2.80334 -3.66347 0
M  V30 1487 H 142.033 -2.691 -3.40246 0
M  V30 1488 H 142.704 -2.34203 -4.99853 0
M  V30 1489 H 145.18 -0.630726 -4.11292 0
M  V30 1490 H 144.056 -0.390306 -5.47511 0
M  V30 1491 H 144.317 0.912229 -4.32586 0
M  V30 1492 N 143.376 1.44774 -0.622745 0
M  V30 1493 C 144.324 2.32387 0.0994683 0
M  V30 1494 C 145.318 1.46859 0.844326 0
M  V30 1495 O 146.524 1.63254 0.758174 0
M  V30 1496 H 142.899 0.750273 0.0509291 0
M  V30 1497 H 144.87 2.91062 -0.65767 0
M  V30 1498 C 143.619 3.30723 1.07319 0
M  V30 1499 H 142.942 3.96541 0.509462 0
M  V30 1500 H 144.382 3.94725 1.54817 0
M  V30 1501 C 142.841 2.59021 2.15429 0
M  V30 1502 O 143.371 2.38286 3.23393 0
M  V30 1503 N 141.577 2.189 1.91131 0
M  V30 1504 H 141.124 2.35964 1.03337 0
M  V30 1505 H 141.082 1.71251 2.63668 0
M  V30 1506 N 144.854 0.36279 1.53368 0
M  V30 1507 C 146.082 -0.228613 2.05633 0
M  V30 1508 C 146.497 -1.42676 1.23649 0
M  V30 1509 O 145.854 -1.80394 0.27647 0
M  V30 1510 C 145.905 -0.624845 3.56059 0
M  V30 1511 O 145.626 0.525675 4.34935 0
M  V30 1512 C 147.127 -1.27493 4.24571 0
M  V30 1513 H 144.347 -0.0407183 0.669763 0
M  V30 1514 H 146.891 0.520352 1.97769 0
M  V30 1515 H 145.046 -1.32373 3.64083 0
M  V30 1516 H 145.46 0.205969 5.24095 0
M  V30 1517 H 146.934 -1.50277 5.31151 0
M  V30 1518 H 147.411 -2.23439 3.78116 0
M  V30 1519 H 148.017 -0.617558 4.20792 0
M  V30 1520 N 146.332 -1.57332 0.0918853 0
M  V30 1521 C 147.279 -2.13847 -0.868211 0
M  V30 1522 C 148.249 -1.05618 -1.28196 0
M  V30 1523 O 149.434 -1.33387 -1.36427 0
M  V30 1524 C 146.574 -2.72062 -2.12312 0
M  V30 1525 C 145.687 -3.94514 -1.7602 0
M  V30 1526 C 144.822 -4.40903 -2.96273 0
M  V30 1527 C 143.861 -5.55953 -2.56092 0
M  V30 1528 N 142.998 -5.97209 -3.69169 0
M  V30 1529 H 147.838 -2.95575 -0.379406 0
M  V30 1530 H 145.375 -1.46048 -0.175606 0
M  V30 1531 H 147.333 -3.03931 -2.858 0
M  V30 1532 H 145.963 -1.93068 -2.58698 0
M  V30 1533 H 145.015 -3.68979 -0.925135 0
M  V30 1534 H 146.327 -4.7802 -1.42472 0
M  V30 1535 H 145.481 -4.74539 -3.78018 0
M  V30 1536 H 144.22 -3.56291 -3.33029 0
M  V30 1537 H 143.225 -5.21948 -1.72773 0
M  V30 1538 H 144.45 -6.42311 -2.20484 0
M  V30 1539 H 142.396 -5.15543 -4.05649 0
M  V30 1540 H 142.313 -6.75504 -3.39456 0
M  V30 1541 H 143.581 -6.35475 -4.51434 0
M  V30 1542 N 147.81 0.181792 -1.56548 0
M  V30 1543 C 149.226 0.53316 -1.50431 0
M  V30 1544 C 149.426 1.85184 -0.794297 0
M  V30 1545 O 148.482 2.50058 -0.350318 0
M  V30 1546 C 149.795 0.575597 -2.9514 0
M  V30 1547 C 151.343 0.663519 -3.05886 0
M  V30 1548 C 151.818 0.736946 -4.52032 0
M  V30 1549 N 153.309 0.800118 -4.56237 0
M  V30 1550 C 154.044 0.877327 -5.66649 0
M  V30 1551 N 153.54 0.916016 -6.86718 0
M  V30 1552 N 155.333 0.915542 -5.54594 0
M  V30 1553 H 147.484 -0.683025 -2.01118 0
M  V30 1554 H 149.747 -0.244988 -0.915797 0
M  V30 1555 H 149.453 -0.324482 -3.502 0
M  V30 1556 H 149.327 1.42572 -3.49218 0
M  V30 1557 H 151.714 1.55403 -2.50867 0
M  V30 1558 H 151.795 -0.21307 -2.54911 0
M  V30 1559 H 151.439 -0.149262 -5.07681 0
M  V30 1560 H 151.369 1.62953 -5.00753 0
M  V30 1561 H 153.86 0.778926 -3.69785 0
M  V30 1562 H 154.173 0.975813 -7.66614 0
M  V30 1563 H 152.518 0.884469 -6.89349 0
M  V30 1564 H 155.709 0.882245 -4.59711 0
M  V30 1565 H 155.882 0.972253 -6.40665 0
M  V30 1566 N 149.288 1.51039 0.449983 0
M  V30 1567 C 150.535 1.63081 1.20045 0
M  V30 1568 C 150.863 0.341024 1.91487 0
M  V30 1569 O 150.118 -0.674276 1.83717 0
M  V30 1570 C 150.417 2.77556 2.25161 0
M  V30 1571 C 150.083 4.17289 1.70823 0
M  V30 1572 C 148.745 4.55305 1.55725 0
M  V30 1573 C 151.097 5.04536 1.3074 0
M  V30 1574 C 148.425 5.78287 0.989999 0
M  V30 1575 C 150.777 6.28085 0.754482 0
M  V30 1576 C 149.441 6.64885 0.590308 0
M  V30 1577 H 148.711 0.596755 0.439277 0
M  V30 1578 H 151.358 1.85037 0.49333 0
M  V30 1579 H 149.663 2.49771 3.01863 0
M  V30 1580 H 151.36 2.84073 2.83026 0
M  V30 1581 H 147.95 3.8731 1.83546 0
M  V30 1582 H 152.134 4.75782 1.41229 0
M  V30 1583 H 147.39 6.05456 0.850451 0
M  V30 1584 H 151.564 6.95038 0.435324 0
M  V30 1585 H 149.191 7.60055 0.14862 0
M  V30 1586 N 150.766 -0.704594 1.40972 0
M  V30 1587 C 151.994 -1.49354 1.43182 0
M  V30 1588 C 152.409 -1.88768 0.0345508 0
M  V30 1589 O 151.766 -1.56184 -0.944081 0
M  V30 1590 C 151.817 -2.76187 2.33244 0
M  V30 1591 O 151.538 -2.38436 3.67532 0
M  V30 1592 C 153.039 -3.7 2.44162 0
M  V30 1593 H 150.259 -0.460559 0.487982 0
M  V30 1594 H 152.803 -0.868261 1.85153 0
M  V30 1595 H 150.958 -3.34974 1.94606 0
M  V30 1596 H 151.372 -3.20126 4.15475 0
M  V30 1597 H 152.846 -4.55803 3.11364 0
M  V30 1598 H 153.323 -4.13867 1.47006 0
M  V30 1599 H 153.929 -3.17121 2.83398 0
M  V30 1600 N 152.244 -1.26651 -0.937939 0
M  V30 1601 C 153.521 -1.0313 -1.66204 0
M  V30 1602 C 153.901 0.437256 -2.06522 0
M  V30 1603 O 153.249 1.41831 -1.79154 0
M  V30 1604 C 153.459 -1.98314 -2.87181 0
M  V30 1605 C 154.807 -2.27107 -3.58758 0
M  V30 1606 O 155.831 -1.96205 -2.97291 0
M  V30 1607 O 154.69 -2.79736 -4.69479 0
M  V30 1608 H 151.784 -0.392384 -0.727986 0
M  V30 1609 H 154.33 -1.37874 -0.989382 0
M  V30 1610 H 153.102 -2.97399 -2.54302 0
M  V30 1611 H 152.725 -1.64068 -3.6217 0
M  V30 1612 N 153.722 1.14298 -1.08507 0
M  V30 1613 C 154.971 1.84708 -0.810305 0
M  V30 1614 C 155.284 1.83903 0.666271 0
M  V30 1615 O 156.49 2.50112 1.05624 0
M  V30 1616 C 154.946 3.31572 -1.39957 0
M  V30 1617 C 154.554 3.40791 -2.90801 0
M  V30 1618 C 156.298 4.07087 -1.20334 0
M  V30 1619 C 154.205 4.81872 -3.4286 0
M  V30 1620 H 153.135 0.691985 -0.299454 0
M  V30 1621 H 155.786 1.28841 -1.30661 0
M  V30 1622 H 154.168 3.87183 -0.830976 0
M  V30 1623 H 155.342 2.95225 -3.53806 0
M  V30 1624 H 153.657 2.78732 -3.0935 0
M  V30 1625 H 156.254 5.11225 -1.56693 0
M  V30 1626 H 156.597 4.16054 -0.143237 0
M  V30 1627 H 157.13 3.57779 -1.73893 0
M  V30 1628 H 153.869 4.78094 -4.48449 0
M  V30 1629 H 153.389 5.27972 -2.84615 0
M  V30 1630 H 155.068 5.50765 -3.39509 0
M  V30 1631 N 155.201 0.870884 1.31352 0
M  V30 1632 C 156.478 0.402907 1.91405 0
M  V30 1633 C 156.858 -1.11512 1.79244 0
M  V30 1634 O 156.206 -1.94411 1.2007 0
M  V30 1635 C 156.416 0.885301 3.37585 0
M  V30 1636 C 157.764 0.911971 4.14691 0
M  V30 1637 O 158.788 0.831016 3.46371 0
M  V30 1638 O 157.647 1.02927 5.3672 0
M  V30 1639 H 154.741 0.120698 0.818145 0
M  V30 1640 H 157.287 0.958857 1.40014 0
M  V30 1641 H 156.059 1.92889 3.40455 0
M  V30 1642 H 155.682 0.307714 3.96407 0
M  V30 1643 N 156.679 -1.44442 0.630414 0
M  V30 1644 C 157.626 -2.30678 -0.0749355 0
M  V30 1645 C 158.596 -1.4344 -0.837502 0
M  V30 1646 O 159.781 -1.72343 -0.818684 0
M  V30 1647 C 156.921 -3.28706 -1.05103 0
M  V30 1648 C 156.034 -4.31046 -0.286954 0
M  V30 1649 C 155.169 -5.16167 -1.2548 0
M  V30 1650 C 154.208 -6.10216 -0.479843 0
M  V30 1651 N 153.345 -6.88039 -1.39811 0
M  V30 1652 H 158.185 -2.90454 0.666386 0
M  V30 1653 H 155.722 -1.43107 0.340404 0
M  V30 1654 H 157.68 -3.84027 -1.63031 0
M  V30 1655 H 156.31 -2.70632 -1.75949 0
M  V30 1656 H 155.362 -3.78203 0.408243 0
M  V30 1657 H 156.674 -4.97794 0.316657 0
M  V30 1658 H 155.828 -5.76002 -1.90544 0
M  V30 1659 H 154.567 -4.49491 -1.89233 0
M  V30 1660 H 153.572 -5.49491 0.184295 0
M  V30 1661 H 154.797 -6.78928 0.152965 0
M  V30 1662 H 152.743 -6.24032 -2.02287 0
M  V30 1663 H 152.66 -7.51223 -0.848508 0
M  V30 1664 H 153.928 -7.52397 -2.03762 0
M  V30 1665 N 158.157 -0.370918 -1.53173 0
M  V30 1666 C 159.403 0.217423 -2.01631 0
M  V30 1667 C 159.736 1.47983 -1.25756 0
M  V30 1668 O 159.011 1.91274 -0.352764 0
M  V30 1669 C 159.294 0.503982 -3.56556 0
M  V30 1670 C 159.147 -0.77243 -4.43118 0
M  V30 1671 C 160.466 1.30234 -4.20389 0
M  V30 1672 H 157.585 0.0775486 -0.732909 0
M  V30 1673 H 160.227 -0.496863 -1.83388 0
M  V30 1674 H 158.377 1.11248 -3.72231 0
M  V30 1675 H 160.049 -1.4098 -4.39229 0
M  V30 1676 H 158.292 -1.39167 -4.10871 0
M  V30 1677 H 158.963 -0.526815 -5.4948 0
M  V30 1678 H 161.439 0.787546 -4.08579 0
M  V30 1679 H 160.315 1.47158 -5.28806 0
M  V30 1680 H 160.576 2.31237 -3.76805 0
M  V30 1681 N 159.635 1.57281 -0.100228 0
M  V30 1682 C 160.545 2.17833 0.870965 0
M  V30 1683 C 161.561 1.14921 1.30649 0
M  V30 1684 O 162.737 1.47313 1.37335 0
M  V30 1685 C 159.802 2.75085 2.1102 0
M  V30 1686 C 158.863 3.9297 1.72838 0
M  V30 1687 C 158.096 4.47482 2.90854 0
M  V30 1688 O 158.319 4.00922 4.05731 0
M  V30 1689 O 157.253 5.38433 2.69023 0
M  V30 1690 H 161.079 3.0124 0.38575 0
M  V30 1691 H 158.664 1.48881 0.124397 0
M  V30 1692 H 160.546 3.11656 2.83634 0
M  V30 1693 H 159.221 1.94721 2.58584 0
M  V30 1694 H 158.128 3.61201 0.973883 0
M  V30 1695 H 159.461 4.74713 1.30033 0
M  V30 1696 N 161.113 -0.173488 1.56642 0
M  V30 1697 C 162.39 -0.917617 1.7274 0
M  V30 1698 C 162.77 -2.00484 0.661027 0
M  V30 1699 O 162.118 -2.26184 -0.32453 0
M  V30 1700 C 162.328 -1.48433 3.15862 0
M  V30 1701 C 163.676 -1.95809 3.76754 0
M  V30 1702 O 164.7 -1.58231 3.19126 0
M  V30 1703 O 163.559 -2.65024 4.77938 0
M  V30 1704 H 160.653 -0.431772 0.705338 0
M  V30 1705 H 163.199 -0.161487 1.6893 0
M  V30 1706 H 161.971 -0.701715 3.84957 0
M  V30 1707 H 161.594 -2.30471 3.23989 0
M  V30 1708 N 162.591 -1.51276 -0.441967 0
M  V30 1709 C 163.501 -1.75092 -1.56141 0
M  V30 1710 C 164.517 -0.634963 -1.62001 0
M  V30 1711 O 165.693 -0.916686 -1.79329 0
M  V30 1712 C 162.758 -1.86666 -2.92158 0
M  V30 1713 C 161.819 -3.10506 -2.96453 0
M  V30 1714 C 161.052 -3.21519 -4.25982 0
M  V30 1715 O 161.275 -2.38586 -5.18105 0
M  V30 1716 O 160.209 -4.14465 -4.36466 0
M  V30 1717 H 164.035 -2.70044 -1.38961 0
M  V30 1718 H 161.62 -1.35722 -0.624499 0
M  V30 1719 H 163.502 -1.96292 -3.72891 0
M  V30 1720 H 162.177 -0.949014 -3.09476 0
M  V30 1721 H 161.084 -3.06363 -2.14692 0
M  V30 1722 H 162.417 -4.01945 -2.84079 0
M  V30 1723 N 164.069 0.697108 -1.41344 0
M  V30 1724 C 165.316 1.45714 -1.40619 0
M  V30 1725 C 165.644 1.94494 -0.0147907 0
M  V30 1726 O 164.899 1.69794 0.973066 0
M  V30 1727 C 165.198 2.68553 -2.35826 0
M  V30 1728 C 164.864 2.38438 -3.82698 0
M  V30 1729 C 163.526 2.29936 -4.22709 0
M  V30 1730 C 165.878 2.13567 -4.75435 0
M  V30 1731 C 163.206 1.94656 -5.53467 0
M  V30 1732 C 165.558 1.79797 -6.06511 0
M  V30 1733 C 164.222 1.69789 -6.45545 0
M  V30 1734 H 163.492 0.533206 -0.51456 0
M  V30 1735 H 166.139 0.796901 -1.74131 0
M  V30 1736 H 164.444 3.39503 -1.95563 0
M  V30 1737 H 166.141 3.2669 -2.32539 0
M  V30 1738 H 162.731 2.4595 -3.51008 0
M  V30 1739 H 166.915 2.19082 -4.45328 0
M  V30 1740 H 162.171 1.8546 -5.82593 0
M  V30 1741 H 166.345 1.59572 -6.77872 0
M  V30 1742 H 163.972 1.4222 -7.46778 0
M  V30 1743 N 165.547 1.27147 0.931209 0
M  V30 1744 C 166.775 1.16082 1.71267 0
M  V30 1745 C 167.19 -0.282772 1.8667 0
M  V30 1746 O 166.547 -1.19283 1.38122 0
M  V30 1747 C 166.598 1.8358 3.11417 0
M  V30 1748 O 166.319 3.22299 2.96741 0
M  V30 1749 C 167.82 1.78597 4.05732 0
M  V30 1750 H 165.04 0.403758 0.535929 0
M  V30 1751 H 167.584 1.67953 1.16671 0
M  V30 1752 H 165.739 1.35623 3.62885 0
M  V30 1753 H 166.153 3.55851 3.85319 0
M  V30 1754 H 167.627 2.30444 5.01597 0
M  V30 1755 H 168.104 0.754564 4.3267 0
M  V30 1756 H 168.71 2.26152 3.60188 0
M  V30 1757 N 167.025 -1.13721 1.09112 0
M  V30 1758 C 167.972 -2.19031 0.727591 0
M  V30 1759 C 168.942 -1.63555 -0.289656 0
M  V30 1760 O 170.127 -1.90023 -0.172026 0
M  V30 1761 C 167.267 -3.4477 0.15082 0
M  V30 1762 C 166.38 -4.14365 1.22172 0
M  V30 1763 C 165.515 -5.27709 0.608042 0
M  V30 1764 C 164.554 -5.89147 1.66047 0
M  V30 1765 N 163.691 -6.93929 1.06806 0
M  V30 1766 H 168.531 -2.49475 1.62991 0
M  V30 1767 H 166.068 -1.22499 0.81439 0
M  V30 1768 H 168.026 -4.16714 -0.201358 0
M  V30 1769 H 166.656 -3.14787 -0.714783 0
M  V30 1770 H 165.708 -3.40737 1.69122 0
M  V30 1771 H 167.02 -4.56114 2.01895 0
M  V30 1772 H 166.174 -6.06355 0.204523 0
M  V30 1773 H 164.913 -4.872 -0.220769 0
M  V30 1774 H 163.918 -5.09198 2.07357 0
M  V30 1775 H 165.143 -6.31729 2.49189 0
M  V30 1776 H 163.089 -6.55483 0.260476 0
M  V30 1777 H 163.006 -7.34202 1.8023 0
M  V30 1778 H 164.274 -7.76434 0.690644 0
M  V30 1779 N 168.503 -0.877838 -1.30888 0
M  V30 1780 C 169.453 -0.310872 -2.25871 0
M  V30 1781 C 170.437 0.556596 -1.50966 0
M  V30 1782 O 171.629 0.402187 -1.7237 0
M  V30 1783 C 168.758 0.479821 -3.3993 0
M  V30 1784 C 167.844 -0.401333 -4.22197 0
M  V30 1785 N 168.235 -1.49848 -4.83093 0
M  V30 1786 C 166.533 -0.195167 -4.45573 0
M  V30 1787 C 167.234 -2.0425 -5.44662 0
M  V30 1788 N 166.21 -1.33843 -5.26865 0
M  V30 1789 H 170.012 -1.1493 -2.70496 0
M  V30 1790 H 167.526 -0.726458 -1.45246 0
M  V30 1791 H 169.523 0.902582 -4.07012 0
M  V30 1792 H 168.183 1.31577 -2.96846 0
M  V30 1793 H 169.194 -1.88137 -4.82519 0
M  V30 1794 H 165.871 0.604192 -4.13105 0
M  V30 1795 H 167.261 -2.96345 -6.03017 0
M  V30 1796 N 169.982 1.44106 -0.638065 0
M  V30 1797 C 171.222 2.03858 -0.148733 0
M  V30 1798 C 171.586 1.49153 1.20903 0
M  V30 1799 O 172.787 2.00452 1.79088 0
M  V30 1800 C 171.058 3.57117 -0.142314 0
M  V30 1801 S 172.617 4.37897 0.281385 0
M  V30 1802 H 169.435 0.708069 -0.0644912 0
M  V30 1803 H 172.037 1.7639 -0.843009 0
M  V30 1804 H 170.741 3.94436 -1.13349 0
M  V30 1805 H 170.272 3.89205 0.572988 0
M  V30 1806 H 172.287 4.72218 1.52395 0
M  V30 1807 N 171.46 0.379036 1.52974 0
M  V30 1808 C 172.408 -0.476033 2.27677 0
M  V30 1809 C 173.402 -1.0719 1.31174 0
M  V30 1810 O 174.608 -1.01355 1.48752 0
M  V30 1811 H 170.983 -0.172255 0.732006 0
M  V30 1812 H 172.954 0.175615 2.97883 0
M  V30 1813 C 171.703 -1.5967 3.0887 0
M  V30 1814 H 171.026 -1.1475 3.82978 0
M  V30 1815 H 172.466 -2.16943 3.64296 0
M  V30 1816 C 170.925 -2.54682 2.20542 0
M  V30 1817 O 171.455 -3.57836 1.82527 0
M  V30 1818 N 169.661 -2.24183 1.84907 0
M  V30 1819 H 169.208 -1.40333 2.1602 0
M  V30 1820 H 169.166 -2.88006 1.26096 0
M  V30 1821 N 172.938 -1.57226 0.108567 0
M  V30 1822 C 174.215 -1.86333 -0.594939 0
M  V30 1823 C 174.595 -1.00788 -1.85486 0
M  V30 1824 O 173.943 -0.0839293 -2.28346 0
M  V30 1825 C 174.153 -3.37265 -0.897405 0
M  V30 1826 C 175.501 -4.05629 -1.25501 0
M  V30 1827 O 176.525 -3.42224 -0.987998 0
M  V30 1828 O 175.384 -5.17531 -1.75567 0
M  V30 1829 H 172.478 -0.771018 -0.2991 0
M  V30 1830 H 175.024 -1.69102 0.142283 0
M  V30 1831 H 173.796 -3.913 -0.00413806 0
M  V30 1832 H 173.419 -3.59889 -1.69014 0
M  V30 1833 N 174.416 0.165178 -1.56732 0
M  V30 1834 C 175.665 0.879143 -1.81532 0
M  V30 1835 C 175.978 1.83144 -0.686842 0
M  V30 1836 O 177.184 2.58823 -0.819944 0
M  V30 1837 C 175.64 1.61388 -3.21686 0
M  V30 1838 C 175.248 0.704904 -4.4242 0
M  V30 1839 C 176.992 2.3157 -3.55774 0
M  V30 1840 C 174.899 1.44022 -5.73595 0
M  V30 1841 H 173.829 0.332033 -0.676957 0
M  V30 1842 H 176.48 0.132008 -1.83025 0
M  V30 1843 H 174.862 2.40599 -3.14529 0
M  V30 1844 H 176.036 -0.0506815 -4.60772 0
M  V30 1845 H 174.351 0.112419 -4.16248 0
M  V30 1846 H 176.948 2.8719 -4.51028 0
M  V30 1847 H 177.291 3.07201 -2.8095 0
M  V30 1848 H 177.824 1.59297 -3.64513 0
M  V30 1849 H 174.563 0.72612 -6.51466 0
M  V30 1850 H 174.083 2.16898 -5.5921 0
M  V30 1851 H 175.762 1.98606 -6.15764 0
M  V30 1852 N 175.894 1.51508 0.433938 0
M  V30 1853 C 176.824 1.76016 1.53429 0
M  V30 1854 C 177.805 0.610112 1.58782 0
M  V30 1855 O 178.99 0.853177 1.74455 0
M  V30 1856 C 176.12 1.88831 2.9148 0
M  V30 1857 C 175.074 3.04288 3.00987 0
M  V30 1858 C 174.4 3.0229 4.4105 0
M  V30 1859 C 175.7 4.44193 2.74754 0
M  V30 1860 H 177.394 2.68152 1.33171 0
M  V30 1861 H 174.94 1.29035 0.639214 0
M  V30 1862 H 176.893 2.04559 3.6842 0
M  V30 1863 H 175.617 0.933455 3.12976 0
M  V30 1864 H 174.276 2.8827 2.26486 0
M  V30 1865 H 173.924 2.04576 4.59519 0
M  V30 1866 H 173.624 3.79822 4.4834 0
M  V30 1867 H 175.148 3.20116 5.1996 0
M  V30 1868 H 176.562 4.60544 3.41426 0
M  V30 1869 H 174.959 5.23457 2.9345 0
M  V30 1870 H 176.029 4.53996 1.70339 0
M  V30 1871 N 177.372 -0.689602 1.41712 0
M  V30 1872 C 178.62 -1.4468 1.4111 0
M  V30 1873 C 178.941 -1.94986 0.0232196 0
M  V30 1874 O 178.211 -1.72097 -0.935913 0
M  V30 1875 H 176.791 -0.536847 0.519427 0
M  V30 1876 H 179.453 -0.815825 1.77004 0
M  V30 1877 H 178.549 -2.30706 2.10193 0
M  V30 1878 N 178.85 -1.27639 -0.924453 0
M  V30 1879 C 179.813 -1.10681 -2.00705 0
M  V30 1880 C 180.813 -0.0497823 -1.60723 0
M  V30 1881 O 182.003 -0.294654 -1.7169 0
M  V30 1882 C 179.135 -0.687164 -3.33902 0
M  V30 1883 H 180.328 -2.06817 -2.17179 0
M  V30 1884 H 177.881 -1.10473 -1.10569 0
M  V30 1885 H 178.616 0.275439 -3.23128 0
M  V30 1886 H 178.401 -1.45061 -3.6428 0
M  V30 1887 H 179.891 -0.590853 -4.13399 0
M  V30 1888 N 180.328 1.1314 -1.09713 0
M  V30 1889 C 181.605 1.80762 -0.747302 0
M  V30 1890 C 181.985 1.96663 0.767265 0
M  V30 1891 O 181.333 1.53706 1.69076 0
M  V30 1892 C 181.543 3.15606 -1.48975 0
M  V30 1893 C 182.891 3.90914 -1.65746 0
M  V30 1894 O 183.915 3.25239 -1.45251 0
M  V30 1895 O 182.774 5.08718 -1.9967 0
M  V30 1896 H 179.868 0.782103 -0.268782 0
M  V30 1897 H 182.414 1.20041 -1.19951 0
M  V30 1898 H 181.186 2.99278 -2.52088 0
M  V30 1899 H 180.809 3.84029 -1.02991 0
M  V30 1900 N 181.806 0.884767 1.30421 0
M  V30 1901 C 183.046 0.509806 1.9794 0
M  V30 1902 C 183.41 -0.923736 1.68319 0
M  V30 1903 O 184.611 -1.40481 2.29169 0
M  V30 1904 C 182.882 0.776732 3.48858 0
M  V30 1905 S 184.441 0.503843 4.35898 0
M  V30 1906 H 181.259 0.189699 0.685227 0
M  V30 1907 H 183.861 1.14399 1.58535 0
M  V30 1908 H 182.565 1.81857 3.67908 0
M  V30 1909 H 182.096 0.1301 3.93185 0
M  V30 1910 H 184.111 -0.657625 4.91823 0
M  V30 1911 N 183.284 -1.43765 0.645699 0
M  V30 1912 C 184.509 -2.06767 0.161883 0
M  V30 1913 C 184.934 -1.48034 -1.16049 0
M  V30 1914 O 184.292 -0.587369 -1.71522 0
M  V30 1915 C 184.34 -3.60519 0.0762003 0
M  V30 1916 O 183.444 -4.00982 -0.963721 0
M  V30 1917 H 182.785 -0.657675 0.091429 0
M  V30 1918 H 185.315 -1.84397 0.886499 0
M  V30 1919 H 185.325 -4.07853 -0.109604 0
M  V30 1920 H 184 -4.02646 1.04157 0
M  V30 1921 H 182.577 -3.65253 -0.751312 0
M  V30 1922 N 184.763 -0.387143 -1.52771 0
M  V30 1923 C 186.174 0.0873634 -1.86495 0
M  V30 1924 C 186.525 1.46336 -1.30691 0
M  V30 1925 O 185.65 2.068 -0.637409 0
M  V30 1926 C 186.245 0.165305 -3.38396 0
M  V30 1927 C 184.804 0.584101 -3.7184 0
M  V30 1928 C 183.951 -0.255279 -2.76122 0
M  V30 1929 H 186.902 -0.605104 -1.46711 0
M  V30 1930 H 186.923 0.984848 -3.67534 0
M  V30 1931 H 186.435 -0.836301 -3.78982 0
M  V30 1932 H 184.536 1.59315 -3.36823 0
M  V30 1933 H 184.649 0.343749 -4.77865 0
M  V30 1934 H 183.013 0.279126 -2.53166 0
M  V30 1935 H 183.796 -1.25482 -3.19545 0
M  V30 1936 N 186.241 1.57166 -0.116904 0
M  V30 1937 C 187.466 1.999 0.55271 0
M  V30 1938 C 187.891 0.996039 1.59564 0
M  V30 1939 O 187.249 -0.032556 1.81271 0
M  V30 1940 C 187.297 3.4152 1.15742 0
M  V30 1941 O 186.401 3.44106 2.27299 0
M  V30 1942 H 185.742 0.649447 0.138258 0
M  V30 1943 H 188.272 2.03573 -0.204759 0
M  V30 1944 H 188.282 3.79684 1.49346 0
M  V30 1945 H 186.957 4.14034 0.393493 0
M  V30 1946 H 185.534 3.17759 1.9515 0
M  V30 1947 N 187.719 -0.156864 1.56817 0
M  V30 1948 C 188.629 -1.2136 2.00771 0
M  V30 1949 C 189.645 -1.47598 0.921459 0
M  V30 1950 O 190.821 -1.59462 1.2302 0
M  V30 1951 C 187.886 -2.52943 2.37109 0
M  V30 1952 C 186.947 -2.34439 3.59634 0
M  V30 1953 C 186.18 -3.59748 3.94229 0
M  V30 1954 O 186.403 -4.65526 3.29609 0
M  V30 1955 O 185.337 -3.52998 4.8752 0
M  V30 1956 H 189.163 -0.870468 2.90958 0
M  V30 1957 H 186.748 -0.36484 1.44877 0
M  V30 1958 H 188.63 -3.30538 2.61386 0
M  V30 1959 H 187.305 -2.86806 1.5008 0
M  V30 1960 H 186.212 -1.54828 3.40557 0
M  V30 1961 H 187.545 -2.05496 4.4725 0
M  V30 1962 N 189.197 -1.51736 -0.425897 0
M  V30 1963 C 190.144 -1.73875 -1.51776 0
M  V30 1964 C 191.114 -0.580702 -1.55618 0
M  V30 1965 O 192.299 -0.81641 -1.72451 0
M  V30 1966 C 189.439 -1.88012 -2.89388 0
M  V30 1967 C 188.552 -3.15606 -2.94986 0
M  V30 1968 C 187.687 -3.20271 -4.23793 0
M  V30 1969 C 186.726 -4.42134 -4.23302 0
M  V30 1970 N 185.863 -4.44284 -5.43651 0
M  V30 1971 H 190.703 -2.67071 -1.32201 0
M  V30 1972 H 188.24 -1.32351 -0.642008 0
M  V30 1973 H 190.198 -1.9419 -3.69251 0
M  V30 1974 H 188.828 -0.98213 -3.07496 0
M  V30 1975 H 187.88 -3.18681 -2.07717 0
M  V30 1976 H 189.192 -4.05486 -2.90486 0
M  V30 1977 H 188.346 -3.25428 -5.12036 0
M  V30 1978 H 187.085 -2.28299 -4.30965 0
M  V30 1979 H 186.09 -4.3714 -3.3345 0
M  V30 1980 H 187.315 -5.35382 -4.17783 0
M  V30 1981 H 185.261 -3.55188 -5.51523 0
M  V30 1982 H 185.178 -5.27988 -5.41078 0
M  V30 1983 H 186.446 -4.53649 -6.33895 0
M  V30 1984 N 190.675 0.682077 -1.42076 0
M  V30 1985 C 191.638 1.77756 -1.44691 0
M  V30 1986 C 192.638 1.5726 -0.335535 0
M  V30 1987 O 193.828 1.63686 -0.596037 0
M  V30 1988 C 190.96 3.16301 -1.27146 0
M  V30 1989 H 192.153 1.76826 -2.42224 0
M  V30 1990 H 189.706 0.891012 -1.28416 0
M  V30 1991 H 190.441 3.22862 -0.305075 0
M  V30 1992 H 190.226 3.32581 -2.07683 0
M  V30 1993 H 191.716 3.96241 -1.31843 0
M  V30 1994 N 192.153 1.28127 0.917671 0
M  V30 1995 C 193.101 1.11569 2.04096 0
M  V30 1996 C 194.095 0.0360242 1.69362 0
M  V30 1997 O 195.301 0.194501 1.78946 0
M  V30 1998 H 191.676 0.344097 0.668656 0
M  V30 1999 H 193.647 2.06711 2.15205 0
M  V30 2000 C 192.396 0.790197 3.38602 0
M  V30 2001 H 191.719 1.61293 3.6582 0
M  V30 2002 H 193.159 0.714271 4.1794 0
M  V30 2003 C 191.618 -0.505897 3.3308 0
M  V30 2004 O 192.148 -1.53736 3.71117 0
M  V30 2005 N 190.354 -0.505193 2.86175 0
M  V30 2006 H 189.901 0.334621 2.55417 0
M  V30 2007 H 189.859 -1.37243 2.82863 0
M  V30 2008 N 193.631 -1.12557 1.10312 0
M  V30 2009 C 194.878 -1.84038 0.844759 0
M  V30 2010 C 195.206 -1.84026 -0.629668 0
M  V30 2011 O 194.461 -1.28026 -1.48013 0
M  V30 2012 C 194.76 -3.31462 1.33669 0
M  V30 2013 C 194.426 -3.51647 2.82232 0
M  V30 2014 C 193.088 -3.56864 3.22802 0
M  V30 2015 C 195.44 -3.58867 3.77974 0
M  V30 2016 C 192.768 -3.66844 4.57867 0
M  V30 2017 C 195.12 -3.70375 5.1284 0
M  V30 2018 C 193.784 -3.73848 5.52986 0
M  V30 2019 H 193.054 -0.673444 0.309119 0
M  V30 2020 H 195.701 -1.32824 1.37949 0
M  V30 2021 H 194.006 -3.85091 0.721949 0
M  V30 2022 H 195.703 -3.85236 1.11329 0
M  V30 2023 H 192.293 -3.48249 2.49842 0
M  V30 2024 H 196.477 -3.54107 3.47738 0
M  V30 2025 H 191.733 -3.67804 4.88396 0
M  V30 2026 H 195.907 -3.74904 5.86873 0
M  V30 2027 H 193.534 -3.81333 6.57639 0
M  V30 2028 N 195.109 -0.891671 -1.2995 0
M  V30 2029 C 196.358 -0.509521 -1.95158 0
M  V30 2030 C 196.671 0.947388 -1.71125 0
M  V30 2031 O 197.877 1.43669 -2.30372 0
M  V30 2032 C 196.333 -0.860315 -3.49466 0
M  V30 2033 C 195.941 -2.33545 -3.8231 0
M  V30 2034 C 197.685 -0.547687 -4.20952 0
M  V30 2035 C 195.592 -2.62752 -5.29826 0
M  V30 2036 H 194.522 -0.18682 -0.730489 0
M  V30 2037 H 197.173 -1.08756 -1.47798 0
M  V30 2038 H 195.555 -0.211285 -3.95436 0
M  V30 2039 H 196.729 -3.02936 -3.47227 0
M  V30 2040 H 195.044 -2.61629 -3.23944 0
M  V30 2041 H 197.641 -0.742854 -5.29515 0
M  V30 2042 H 197.984 0.51332 -4.13123 0
M  V30 2043 H 198.517 -1.1542 -3.80688 0
M  V30 2044 H 195.256 -3.6762 -5.42712 0
M  V30 2045 H 194.776 -1.97977 -5.66185 0
M  V30 2046 H 196.455 -2.48601 -5.97333 0
M  V30 2047 N 196.587 1.43421 -0.653314 0
M  V30 2048 C 197.55 2.29182 0.0287951 0
M  V30 2049 C 198.55 1.42213 0.750465 0
M  V30 2050 O 199.74 1.63843 0.591701 0
M  V30 2051 C 196.872 3.24278 1.05151 0
M  V30 2052 H 198.065 2.90985 -0.725786 0
M  V30 2053 H 195.618 1.50702 -0.414545 0
M  V30 2054 H 196.353 2.6737 1.83532 0
M  V30 2055 H 196.138 3.88396 0.537687 0
M  V30 2056 H 197.628 3.88647 1.52786 0
M  V30 2057 N 198.065 0.39524 1.52563 0
M  V30 2058 C 199.295 -0.184675 2.05773 0
M  V30 2059 C 199.703 -1.40571 1.26635 0
M  V30 2060 O 199.046 -1.81105 0.30769 0
M  V30 2061 C 199.108 -0.613551 3.54226 0
M  V30 2062 C 198.772 0.49484 4.54313 0
M  V30 2063 C 199.769 1.3541 5.01956 0
M  V30 2064 C 197.454 0.663565 4.97898 0
M  V30 2065 C 199.448 2.36716 5.91814 0
M  V30 2066 C 197.135 1.67996 5.87555 0
M  V30 2067 C 198.133 2.53017 6.34406 0
M  V30 2068 O 197.821 3.52917 7.22291 0
M  V30 2069 H 197.553 -0.030077 0.675331 0
M  V30 2070 H 200.107 0.560708 1.97599 0
M  V30 2071 H 198.337 -1.411 3.60038 0
M  V30 2072 H 200.026 -1.11981 3.90148 0
M  V30 2073 H 200.792 1.23509 4.6901 0
M  V30 2074 H 196.671 0.0114913 4.60999 0
M  V30 2075 H 200.215 3.03113 6.28306 0
M  V30 2076 H 196.112 1.79933 6.19915 0
M  V30 2077 H 196.88 3.48996 7.40367 0
M  V30 2078 N 199.544 -1.57102 0.125237 0
M  V30 2079 C 200.474 -2.18659 -0.819174 0
M  V30 2080 C 201.455 -1.12843 -1.27281 0
M  V30 2081 O 202.64 -1.41104 -1.33429 0
M  V30 2082 C 199.77 -2.79096 -2.06695 0
M  V30 2083 C 198.724 -3.90548 -1.75088 0
M  V30 2084 C 198.05 -4.37821 -3.06948 0
M  V30 2085 C 199.35 -5.12356 -1.01435 0
M  V30 2086 H 201.044 -2.9783 -0.306202 0
M  V30 2087 H 198.59 -1.4326 -0.145839 0
M  V30 2088 H 200.543 -3.2082 -2.73226 0
M  V30 2089 H 199.267 -1.97223 -2.60328 0
M  V30 2090 H 197.926 -3.49409 -1.10944 0
M  V30 2091 H 197.574 -3.52799 -3.58527 0
M  V30 2092 H 197.274 -5.12982 -2.86571 0
M  V30 2093 H 198.798 -4.822 -3.74587 0
M  V30 2094 H 200.212 -5.5106 -1.58132 0
M  V30 2095 H 198.609 -5.9314 -0.911319 0
M  V30 2096 H 199.679 -4.849 -0.00218681 0
M  V30 2097 N 201.022 0.148545 -1.56898 0
M  V30 2098 C 201.952 1.18524 -2.01182 0
M  V30 2099 C 202.933 1.4489 -0.891123 0
M  V30 2100 O 204.118 1.55836 -1.15882 0
M  V30 2101 C 201.248 2.51879 -2.39112 0
M  V30 2102 C 200.202 2.40038 -3.54353 0
M  V30 2103 C 199.528 3.78089 -3.78091 0
M  V30 2104 C 200.828 1.88577 -4.87069 0
M  V30 2105 H 202.522 0.817029 -2.88036 0
M  V30 2106 H 200.068 0.391575 -1.38574 0
M  V30 2107 H 202.021 3.24627 -2.68692 0
M  V30 2108 H 200.745 2.90532 -1.49193 0
M  V30 2109 H 199.404 1.69742 -3.24936 0
M  V30 2110 H 199.052 4.14175 -2.85426 0
M  V30 2111 H 198.752 3.71028 -4.55645 0
M  V30 2112 H 200.276 4.52387 -4.10095 0
M  V30 2113 H 201.69 2.51117 -5.15377 0
M  V30 2114 H 200.087 1.9241 -5.68417 0
M  V30 2115 H 201.157 0.84136 -4.77545 0
M  V30 2116 N 202.5 1.5196 0.417844 0
M  V30 2117 C 203.728 1.69426 1.18753 0
M  V30 2118 C 204.143 0.399955 1.84515 0
M  V30 2119 O 203.5 -0.623288 1.71527 0
M  V30 2120 C 203.551 2.82375 2.25714 0
M  V30 2121 O 203.272 4.06793 1.62638 0
M  V30 2122 C 204.773 3.11277 3.15628 0
M  V30 2123 H 201.993 0.568031 0.357186 0
M  V30 2124 H 204.537 1.98475 0.49273 0
M  V30 2125 H 202.692 2.5587 2.90877 0
M  V30 2126 H 203.106 4.69667 2.3348 0
M  V30 2127 H 204.58 3.93843 3.86771 0
M  V30 2128 H 205.057 2.24473 3.77503 0
M  V30 2129 H 205.663 3.39515 2.56144 0
M  V30 2130 N 203.978 -0.674533 1.42435 0
M  V30 2131 C 204.888 -1.81751 1.48337 0
M  V30 2132 C 205.904 -1.69975 0.372099 0
M  V30 2133 O 207.08 -1.91521 0.62304 0
M  V30 2134 C 204.145 -3.17895 1.38361 0
M  V30 2135 C 203.206 -3.41625 2.59982 0
M  V30 2136 C 202.439 -4.71274 2.50473 0
M  V30 2137 O 202.662 -5.49197 1.54075 0
M  V30 2138 O 201.596 -4.96254 3.4061 0
M  V30 2139 H 205.422 -1.79728 2.44809 0
M  V30 2140 H 203.007 -0.830312 1.24202 0
M  V30 2141 H 204.889 -3.99136 1.35161 0
M  V30 2142 H 203.564 -3.20555 0.450144 0
M  V30 2143 H 202.471 -2.60231 2.68757 0
M  V30 2144 H 203.804 -3.43796 3.52229 0
M  V30 2145 N 205.456 -1.28612 -0.910864 0
M  V30 2146 C 206.684 -1.18792 -1.69399 0
M  V30 2147 C 207.099 0.253039 -1.87097 0
M  V30 2148 O 206.456 1.17071 -1.40003 0
M  V30 2149 C 206.507 -1.88511 -3.08457 0
M  V30 2150 O 206.228 -3.26979 -2.91576 0
M  V30 2151 C 207.729 -1.85029 -4.02839 0
M  V30 2152 H 204.949 -0.412233 -0.529438 0
M  V30 2153 H 207.493 -1.69788 -1.13984 0
M  V30 2154 H 205.648 -1.41379 -3.60681 0
M  V30 2155 H 206.062 -3.61936 -3.79608 0
M  V30 2156 H 207.536 -2.38395 -4.97867 0
M  V30 2157 H 208.013 -0.823303 -4.31414 0
M  V30 2158 H 208.619 -2.31853 -3.56545 0
M  V30 2159 N 206.934 1.1197 -1.10907 0
M  V30 2160 C 207.881 2.17846 -0.762345 0
M  V30 2161 C 208.851 1.63995 0.263599 0
M  V30 2162 O 210.036 1.90273 0.141773 0
M  V30 2163 C 207.176 3.44487 -0.205651 0
M  V30 2164 C 206.289 4.12369 -1.28748 0
M  V30 2165 C 205.424 5.26674 -0.691919 0
M  V30 2166 C 204.463 5.86431 -1.75399 0
M  V30 2167 N 203.6 6.92142 -1.17833 0
M  V30 2168 H 208.44 2.46851 -1.6694 0
M  V30 2169 H 205.977 1.21188 -0.833776 0
M  V30 2170 H 207.935 4.16981 0.135037 0
M  V30 2171 H 206.565 3.15884 0.664613 0
M  V30 2172 H 205.617 3.38003 -1.74522 0
M  V30 2173 H 206.929 4.52844 -2.09125 0
M  V30 2174 H 206.083 6.05953 -0.300963 0
M  V30 2175 H 204.822 4.8749 0.143232 0
M  V30 2176 H 203.827 5.05835 -2.15432 0
M  V30 2177 H 205.052 6.27685 -2.59208 0
M  V30 2178 H 202.998 6.54985 -0.364725 0
M  V30 2179 H 202.915 7.31242 -1.91887 0
M  V30 2180 H 204.183 7.75237 -0.81408 0
M  V30 2181 N 208.412 0.89855 1.29475 0
M  V30 2182 C 209.823 0.572537 1.77705 0
M  V30 2183 C 210.174 -0.911778 1.73727 0
M  V30 2184 O 209.299 -1.71288 1.32247 0
M  V30 2185 C 209.894 1.03252 3.22683 0
M  V30 2186 C 208.453 0.757687 3.68695 0
M  V30 2187 C 207.6 1.20787 2.49612 0
M  V30 2188 H 210.551 1.08139 1.16153 0
M  V30 2189 H 210.572 0.367307 3.78723 0
M  V30 2190 H 210.084 2.11285 3.25546 0
M  V30 2191 H 208.185 -0.310079 3.71308 0
M  V30 2192 H 208.298 1.35476 4.59547 0
M  V30 2193 H 206.662 0.626888 2.46865 0
M  V30 2194 H 207.445 2.29622 2.55203 0
M  V30 2195 N 209.89 -1.43072 0.660911 0
M  V30 2196 C 211.118 -2.06067 0.185422 0
M  V30 2197 C 211.533 -1.49582 -1.15198 0
M  V30 2198 O 210.89 -0.630134 -1.71276 0
M  V30 2199 C 210.941 -3.61371 0.0966523 0
M  V30 2200 O 210.662 -4.15758 1.38119 0
M  V30 2201 C 212.163 -4.41455 -0.403996 0
M  V30 2202 H 209.383 -0.664459 0.0934604 0
M  V30 2203 H 211.927 -1.83447 0.90373 0
M  V30 2204 H 210.082 -3.8315 -0.572259 0
M  V30 2205 H 210.496 -5.09499 1.24542 0
M  V30 2206 H 211.97 -5.50437 -0.415045 0
M  V30 2207 H 212.447 -4.15036 -1.43674 0
M  V30 2208 H 213.053 -4.24663 0.232691 0
M  V30 2209 N 211.368 -0.403325 -1.52352 0
M  V30 2210 C 212.315 0.425011 -2.26853 0
M  V30 2211 C 213.285 1.04598 -1.29029 0
M  V30 2212 O 214.47 1.07135 -1.57882 0
M  V30 2213 C 211.61 1.53888 -3.08889 0
M  V30 2214 C 210.723 0.939396 -4.21663 0
M  V30 2215 C 209.858 2.02547 -4.91068 0
M  V30 2216 C 208.897 1.40263 -5.95813 0
M  V30 2217 N 208.034 2.4286 -6.58759 0
M  V30 2218 H 212.874 -0.21674 -2.97211 0
M  V30 2219 H 210.411 -0.118722 -1.4662 0
M  V30 2220 H 212.369 2.19558 -3.54753 0
M  V30 2221 H 210.999 2.15074 -2.40714 0
M  V30 2222 H 210.051 0.171898 -3.80011 0
M  V30 2223 H 211.363 0.44436 -4.96817 0
M  V30 2224 H 210.517 2.75958 -5.40308 0
M  V30 2225 H 209.256 2.55415 -4.15469 0
M  V30 2226 H 208.261 0.653833 -5.45898 0
M  V30 2227 H 209.486 0.881719 -6.73352 0
M  V30 2228 H 207.432 2.94871 -5.85992 0
M  V30 2229 H 207.349 1.98152 -7.2957 0
M  V30 2230 H 208.617 3.15858 -7.12639 0
M  V30 2231 O 212.885 1.59156 -0.274172 0
M  V30 2232 H 213.576 1.91425 0.295987 0
M  V30 END ATOM
M  V30 BEGIN BOND
M  V30 END BOND
M  V30 END CTAB
M  END
$$$$
