drugbank_target|Q9RW27 NimA-related protein (DB04398)
 OpenBabel12092120293D

  0  0  0     0  0            999 V3000
M  V30 BEGIN CTAB
M  V30 COUNTS 3047 3085 0 0 0
M  V30 BEGIN ATOM
M  V30 1 H -0.908 1.98254 -0.117106 0
M  V30 2 N 0 1.576 0 0
M  V30 3 C 0.933 2.03868 1.02534 0
M  V30 4 C 1.911 0.928543 1.3348 0
M  V30 5 O 3.095 1.19667 1.45644 0
M  V30 6 C 0.222 2.43627 2.35294 0
M  V30 7 C -0.732 3.65373 2.2001 0
M  V30 8 S 0.101 5.13292 1.52614 0
M  V30 9 C 1.257 5.56322 2.86805 0
M  V30 10 H 1.49 2.90518 0.631377 0
M  V30 11 H -0.977 1.52953 0.210867 0
M  V30 12 H 0.981 2.67203 3.11629 0
M  V30 13 H -0.358 1.57376 2.7183 0
M  V30 14 H -1.165 3.90944 3.18086 0
M  V30 15 H -1.563 3.418 1.51819 0
M  V30 16 H 0.729 5.58782 3.83104 0
M  V30 17 H 1.672 6.56266 2.65933 0
M  V30 18 H 2.08 4.83886 2.90714 0
M  V30 19 N 1.4781 -0.272755 1.55222 0
M  V30 20 C 2.7031 -1.02683 1.80197 0
M  V30 21 C 3.1281 -1.79142 0.573551 0
M  V30 22 O 2.4861 -1.74917 -0.476849 0
M  V30 23 C 2.5341 -1.9609 3.02624 0
M  V30 24 O 1.6381 -3.04863 2.77727 0
M  V30 25 H 0.9791 -0.293557 0.595584 0
M  V30 26 H 3.5091 -0.30159 2.02365 0
M  V30 27 H 3.5191 -2.38039 3.31363 0
M  V30 28 H 2.1941 -1.39851 3.91682 0
M  V30 29 H 0.7711 -2.67228 2.60084 0
M  V30 30 N 2.9562 -1.48159 -0.537278 0
M  V30 31 C 4.2332 -1.46291 -1.29839 0
M  V30 32 C 4.6132 -0.170613 -2.10409 0
M  V30 33 O 3.9612 0.847746 -2.12192 0
M  V30 34 C 4.1712 -2.72055 -2.18603 0
M  V30 35 C 5.5192 -3.20087 -2.7898 0
M  V30 36 O 6.5432 -2.72921 -2.28894 0
M  V30 37 O 5.4022 -4.02138 -3.70064 0
M  V30 38 H 2.4962 -0.583906 -0.585647 0
M  V30 39 H 5.0422 -1.60384 -0.554534 0
M  V30 40 H 3.8142 -3.57628 -1.58801 0
M  V30 41 H 3.4372 -2.60646 -3.00249 0
M  V30 42 N 4.4343 0.785586 -1.36625 0
M  V30 43 C 5.6813 1.54362 -1.31067 0
M  V30 44 C 6.0093 1.94195 0.10893 0
M  V30 45 O 5.2643 1.63262 1.07908 0
M  V30 46 C 5.5633 2.83007 -2.1827 0
M  V30 47 C 5.2293 2.62294 -3.6676 0
M  V30 48 C 3.8913 2.56353 -4.0723 0
M  V30 49 C 6.2433 2.43371 -4.6089 0
M  V30 50 C 3.5713 2.29461 -5.39967 0
M  V30 51 C 5.9233 2.18005 -5.93849 0
M  V30 52 C 4.5873 2.105 -6.3344 0
M  V30 53 H 3.8573 0.564851 -0.479609 0
M  V30 54 H 6.5043 0.906028 -1.68711 0
M  V30 55 H 4.8093 3.51253 -1.73576 0
M  V30 56 H 6.5063 3.40817 -2.11292 0
M  V30 57 H 3.0963 2.67774 -3.34656 0
M  V30 58 H 7.2803 2.46959 -4.30494 0
M  V30 59 H 2.5363 2.22135 -5.69619 0
M  V30 60 H 6.7103 2.02359 -6.66351 0
M  V30 61 H 4.3373 1.89425 -7.36222 0
M  V30 62 N 5.9124 1.20967 1.01018 0
M  V30 63 C 7.1424 1.04803 1.78044 0
M  V30 64 C 7.5504 -0.405462 1.84804 0
M  V30 65 O 6.8934 -1.2932 1.30468 0
M  V30 66 C 6.9554 1.56377 3.23707 0
M  V30 67 C 6.6194 3.04767 3.40538 0
M  V30 68 C 7.6164 4.02366 3.29239 0
M  V30 69 C 5.3014 3.43862 3.66147 0
M  V30 70 C 7.2954 5.37049 3.43304 0
M  V30 71 C 4.9824 4.78699 3.79855 0
M  V30 72 C 5.9804 5.75101 3.68439 0
M  V30 73 O 5.6684 7.07493 3.81719 0
M  V30 74 H 5.4004 0.368778 0.56655 0
M  V30 75 H 7.9544 1.60642 1.27997 0
M  V30 76 H 6.1844 0.949297 3.74867 0
M  V30 77 H 7.8734 1.36136 3.8239 0
M  V30 78 H 8.6394 3.73506 3.09384 0
M  V30 79 H 4.5184 2.69364 3.74118 0
M  V30 80 H 8.0624 6.12277 3.34309 0
M  V30 81 H 3.9594 5.07247 3.99213 0
M  V30 82 H 4.7274 7.1483 3.98697 0
M  V30 83 N 7.3905 -1.2043 1.01659 0
M  V30 84 C 8.6675 -1.8548 0.621004 0
M  V30 85 C 9.0475 -1.9091 -0.900919 0
M  V30 86 O 8.3955 -1.41694 -1.79263 0
M  V30 87 C 8.6055 -3.25119 1.2688 0
M  V30 88 C 9.9535 -4.01403 1.38423 0
M  V30 89 O 10.9775 -3.34473 1.22501 0
M  V30 90 O 9.8365 -5.21265 1.64151 0
M  V30 91 H 6.9305 -0.798761 0.214266 0
M  V30 92 H 9.4765 -1.28019 1.11396 0
M  V30 93 H 8.2485 -3.15932 2.30873 0
M  V30 94 H 7.8715 -3.90212 0.762917 0
M  V30 95 N 8.8686 -0.792821 -1.36206 0
M  V30 96 C 10.2796 -0.429513 -1.81692 0
M  V30 97 C 10.6306 1.04695 -1.65932 0
M  V30 98 O 9.7556 1.81256 -1.18218 0
M  V30 99 C 10.3506 -0.772831 -3.29868 0
M  V30 100 C 8.9096 -0.462307 -3.7355 0
M  V30 101 C 8.0566 -1.00569 -2.5842 0
M  V30 102 H 11.0076 -0.985672 -1.24379 0
M  V30 103 H 11.0286 -0.0651928 -3.80444 0
M  V30 104 H 10.5406 -1.84747 -3.41307 0
M  V30 105 H 8.6416 0.604158 -3.67669 0
M  V30 106 H 8.7546 -0.985299 -4.68859 0
M  V30 107 H 7.1186 -0.428734 -2.51066 0
M  V30 108 H 7.9016 -2.08616 -2.72643 0
M  V30 109 N 10.3467 1.47872 -0.545128 0
M  V30 110 C 11.7627 1.5829 -0.204032 0
M  V30 111 C 11.9627 1.54529 1.29317 0
M  V30 112 O 11.0187 1.44232 2.07252 0
M  V30 113 C 12.3317 2.89304 -0.819987 0
M  V30 114 C 13.8797 3.02864 -0.790105 0
M  V30 115 C 14.3547 4.3656 -1.38491 0
M  V30 116 N 15.8457 4.43165 -1.34755 0
M  V30 117 C 16.5807 5.45153 -1.77753 0
M  V30 118 N 16.0767 6.54016 -2.2855 0
M  V30 119 N 17.8697 5.36125 -1.68897 0
M  V30 120 H 10.0207 1.4856 -1.51802 0
M  V30 121 H 12.2837 0.706305 -0.632327 0
M  V30 122 H 11.9897 2.97757 -1.87173 0
M  V30 123 H 11.8637 3.75957 -0.305915 0
M  V30 124 H 14.2507 2.94014 0.252913 0
M  V30 125 H 14.3317 2.17782 -1.34181 0
M  V30 126 H 13.9757 4.46164 -2.42693 0
M  V30 127 H 13.9057 5.20353 -0.808754 0
M  V30 128 H 16.3967 3.65083 -0.975855 0
M  V30 129 H 16.7097 7.27994 -2.59314 0
M  V30 130 H 15.0547 6.54938 -2.32553 0
M  V30 131 H 18.2457 4.49975 -1.28998 0
M  V30 132 H 18.4187 6.15472 -2.02726 0
M  V30 133 N 11.8248 0.280983 1.55075 0
M  V30 134 C 12.7348 -0.61388 2.26426 0
M  V30 135 C 13.7508 -1.16521 1.29224 0
M  V30 136 O 14.9268 -1.19426 1.62171 0
M  V30 137 C 11.9918 -1.7788 2.9759 0
M  V30 138 C 11.0528 -1.26355 4.10284 0
M  V30 139 C 10.2858 -2.37295 4.78045 0
M  V30 140 O 10.5088 -3.56777 4.45047 0
M  V30 141 O 9.4428 -2.05119 5.65871 0
M  V30 142 H 13.2688 -0.0356932 3.03679 0
M  V30 143 H 10.8538 0.0481686 1.49322 0
M  V30 144 H 12.7358 -2.45791 3.42293 0
M  V30 145 H 11.4108 -2.34397 2.23249 0
M  V30 146 H 10.3178 -0.550735 3.70024 0
M  V30 147 H 11.6508 -0.744065 4.86543 0
M  V30 148 N 13.3029 -1.57598 0.00835791 0
M  V30 149 C 14.7189 -1.55764 -0.347822 0
M  V30 150 C 14.9189 -1.01186 -1.74252 0
M  V30 151 O 13.9749 -0.649371 -2.44007 0
M  V30 152 C 15.2879 -2.99927 -0.215407 0
M  V30 153 C 16.8359 -3.11656 -0.289725 0
M  V30 154 C 17.3109 -4.57621 -0.18634 0
M  V30 155 N 18.8019 -4.62557 -0.243978 0
M  V30 156 C 19.5369 -5.73094 -0.18745 0
M  V30 157 N 19.0329 -6.92753 -0.0810331 0
M  V30 158 N 20.8259 -5.61588 -0.239925 0
M  V30 159 H 12.9769 -1.91411 0.92062 0
M  V30 160 H 15.2399 -0.879562 0.353659 0
M  V30 161 H 14.9459 -3.43729 0.744512 0
M  V30 162 H 14.8199 -3.63865 -0.994097 0
M  V30 163 H 17.2069 -2.67779 -1.24009 0
M  V30 164 H 17.2879 -2.5048 0.51898 0
M  V30 165 H 16.9319 -5.02174 0.760519 0
M  V30 166 H 16.8619 -5.16752 -1.01364 0
M  V30 167 H 19.3529 -3.76481 -0.327217 0
M  V30 168 H 19.6659 -7.72787 -0.0440241 0
M  V30 169 H 18.0109 -6.94984 -0.0465419 0
M  V30 170 H 21.2019 -4.66996 -0.321317 0
M  V30 171 H 21.3749 -6.47714 -0.192407 0
M  V30 172 N 14.781 0.264519 -1.55364 0
M  V30 173 C 16.058 1.01677 -1.67096 0
M  V30 174 C 16.438 2.03996 -0.543015 0
M  V30 175 O 15.786 2.23907 0.45585 0
M  V30 176 C 15.996 1.66596 -3.0667 0
M  V30 177 C 17.344 2.17442 -3.64697 0
M  V30 178 O 18.368 1.76568 -3.09358 0
M  V30 179 O 17.227 2.92439 -4.61673 0
M  V30 180 H 14.321 0.472161 -0.678965 0
M  V30 181 H 16.867 0.259703 -1.67701 0
M  V30 182 H 15.639 0.924962 -3.80211 0
M  V30 183 H 15.262 2.48968 -3.10001 0
M  V30 184 N 16.2591 1.48442 0.529413 0
M  V30 185 C 17.6701 1.5002 1.11134 0
M  V30 186 C 18.0211 0.27031 1.94329 0
M  V30 187 O 17.1461 -0.622507 2.07253 0
M  V30 188 C 17.7411 2.71834 2.02217 0
M  V30 189 C 16.3001 2.76283 2.55627 0
M  V30 190 C 15.4471 2.43542 1.326 0
M  V30 191 H 18.3981 1.5555 0.314641 0
M  V30 192 H 18.4191 2.50384 2.8651 0
M  V30 193 H 17.9311 3.61331 1.41639 0
M  V30 194 H 16.0321 1.90995 3.19924 0
M  V30 195 H 16.1451 3.77725 2.94721 0
M  V30 196 H 14.5091 1.94709 1.64196 0
M  V30 197 H 15.2921 3.3528 0.737734 0
M  V30 198 N 17.7372 -0.778329 1.37039 0
M  V30 199 C 18.9622 -1.57248 1.35233 0
M  V30 200 C 19.3872 -1.87999 -0.0615568 0
M  V30 201 O 18.7452 -1.48734 -1.03672 0
M  V30 202 C 18.7932 -2.86353 2.19167 0
M  V30 203 O 17.8972 -3.80442 1.59178 0
M  V30 204 H 17.2382 -0.476569 0.462362 0
M  V30 205 H 19.7682 -0.963853 1.80474 0
M  V30 206 H 19.7782 -3.35519 2.32145 0
M  V30 207 H 18.4532 -2.63299 3.21942 0
M  V30 208 H 17.0302 -3.39067 1.55203 0
M  V30 209 N 19.2153 -1.21501 -1.00376 0
M  V30 210 C 20.4613 -1.03452 -1.74429 0
M  V30 211 C 20.7943 0.430764 -1.89362 0
M  V30 212 O 20.0693 1.31962 -1.42886 0
M  V30 213 C 20.3523 -1.73375 -3.15615 0
M  V30 214 C 20.2053 -3.27431 -3.08397 0
M  V30 215 C 21.5243 -1.47732 -4.14564 0
M  V30 216 H 18.6433 -0.377226 -0.633143 0
M  V30 217 H 21.2853 -1.49693 -1.17013 0
M  V30 218 H 19.4353 -1.34064 -3.64636 0
M  V30 219 H 21.1073 -3.76119 -2.67081 0
M  V30 220 H 19.3503 -3.5767 -2.45468 0
M  V30 221 H 20.0213 -3.71524 -4.08258 0
M  V30 222 H 22.4973 -1.8186 -3.74254 0
M  V30 223 H 21.3733 -1.99169 -5.11491 0
M  V30 224 H 21.6343 -0.407589 -4.40217 0
M  V30 225 N 20.6934 1.19889 -1.02296 0
M  V30 226 C 21.9184 1.9393 -0.735237 0
M  V30 227 C 22.3434 1.74639 0.698782 0
M  V30 228 O 21.7014 1.04481 1.48167 0
M  V30 229 C 21.7494 3.43916 -1.08417 0
M  V30 230 O 20.8534 4.11917 -0.199446 0
M  V30 231 H 20.1944 0.605645 -0.272196 0
M  V30 232 H 22.7244 1.52137 -1.36804 0
M  V30 233 H 22.7344 3.9456 -1.03856 0
M  V30 234 H 21.4094 3.5728 -2.12894 0
M  V30 235 H 19.9864 3.71666 -0.303136 0
M  V30 236 N 22.1715 0.800033 1.35784 0
M  V30 237 C 23.5875 0.482977 1.52117 0
M  V30 238 C 23.7875 -0.996948 1.75109 0
M  V30 239 O 22.8435 -1.78216 1.78872 0
M  V30 240 C 24.1565 1.32264 2.70049 0
M  V30 241 C 25.7045 1.31742 2.83924 0
M  V30 242 C 26.1795 2.14106 4.04874 0
M  V30 243 N 27.6705 2.11607 4.12039 0
M  V30 244 C 28.4055 2.72099 5.04727 0
M  V30 245 N 27.9015 3.41492 6.02789 0
M  V30 246 N 29.6945 2.61776 4.97423 0
M  V30 247 H 21.8455 1.75856 1.19115 0
M  V30 248 H 24.1085 0.748122 0.582252 0
M  V30 249 H 23.8145 2.37261 2.59616 0
M  V30 250 H 23.6885 0.971303 3.6448 0
M  V30 251 H 26.0755 0.275333 2.93813 0
M  V30 252 H 26.1565 1.70859 1.9037 0
M  V30 253 H 25.8005 3.18351 3.95746 0
M  V30 254 H 25.7305 1.72353 4.97596 0
M  V30 255 H 28.2215 1.61112 3.41835 0
M  V30 256 H 28.5345 3.84953 6.70098 0
M  V30 257 H 26.8795 3.45596 6.02983 0
M  V30 258 H 30.0705 2.07157 4.19766 0
M  V30 259 H 30.2435 3.0921 5.69468 0
M  V30 260 N 23.6496 -1.47581 0.552962 0
M  V30 261 C 25.0656 -1.5818 0.212424 0
M  V30 262 C 25.2656 -1.55213 -1.28496 0
M  V30 263 O 24.3216 -1.45329 -2.06484 0
M  V30 264 C 25.6346 -2.88865 0.835318 0
M  V30 265 C 27.1826 -3.0244 0.806156 0
M  V30 266 C 27.6576 -4.35819 1.40804 0
M  V30 267 N 29.1486 -4.42444 1.37103 0
M  V30 268 C 29.8836 -5.44202 1.80641 0
M  V30 269 N 29.3796 -6.52795 2.32015 0
M  V30 270 N 31.1726 -5.35222 1.71738 0
M  V30 271 H 23.3236 -1.47753 1.52587 0
M  V30 272 H 25.5866 -0.702941 0.636064 0
M  V30 273 H 25.2926 -2.9676 1.88749 0
M  V30 274 H 25.1666 -3.7579 0.325848 0
M  V30 275 H 27.5536 -2.94144 -0.237317 0
M  V30 276 H 27.6346 -2.17068 1.35334 0
M  V30 277 H 27.2786 -4.44871 2.45056 0
M  V30 278 H 27.2086 -5.19916 0.836338 0
M  V30 279 H 29.6996 -3.6456 0.995202 0
M  V30 280 H 30.0126 -7.26609 2.63171 0
M  V30 281 H 28.3576 -6.53696 2.36023 0
M  V30 282 H 31.5486 -4.49284 1.31382 0
M  V30 283 H 31.7216 -6.14389 2.05987 0
M  V30 284 N 25.1277 -0.289203 -1.54924 0
M  V30 285 C 26.5387 0.205791 -1.85562 0
M  V30 286 C 26.8897 1.54351 -1.2112 0
M  V30 287 O 26.0147 2.10435 -0.504601 0
M  V30 288 C 26.6097 0.380177 -3.3666 0
M  V30 289 C 25.1687 0.819395 -3.67373 0
M  V30 290 C 24.3157 -0.079159 -2.77187 0
M  V30 291 H 27.2667 -0.510577 -1.50262 0
M  V30 292 H 27.2877 1.21659 -3.60526 0
M  V30 293 H 26.7997 -0.593589 -3.83534 0
M  V30 294 H 24.9007 1.80413 -3.26009 0
M  V30 295 H 25.0137 0.646957 -4.74712 0
M  V30 296 H 23.3777 0.439565 -2.50878 0
M  V30 297 H 24.1607 -1.04906 -3.26878 0
M  V30 298 N 26.6058 1.57591 -0.0167156 0
M  V30 299 C 27.5378 2.06343 0.997753 0
M  V30 300 C 28.5508 0.984469 1.29661 0
M  V30 301 O 29.7398 1.26093 1.26344 0
M  V30 302 C 26.8398 2.46255 2.32834 0
M  V30 303 C 26.0128 3.77083 2.21646 0
M  V30 304 C 25.0718 4.0368 3.37534 0
M  V30 305 O 24.0978 4.7411 3.14973 0
M  V30 306 N 25.2998 3.52881 4.60929 0
M  V30 307 H 28.0648 2.93997 0.581875 0
M  V30 308 H 25.6258 1.61002 0.170316 0
M  V30 309 H 27.6178 2.61149 3.09166 0
M  V30 310 H 26.1878 1.64032 2.66106 0
M  V30 311 H 25.4078 3.72106 1.30119 0
M  V30 312 H 26.6958 4.62822 2.11361 0
M  V30 313 H 26.0938 2.95878 4.82154 0
M  V30 314 H 24.6508 3.73076 5.34469 0
M  V30 315 N 28.0839 -0.256276 1.55502 0
M  V30 316 C 29.0319 -1.33694 1.90338 0
M  V30 317 C 30.0259 -1.50299 0.781441 0
M  V30 318 O 31.2319 -1.51885 0.965966 0
M  V30 319 H 27.6069 -0.447483 0.60437 0
M  V30 320 H 29.5779 -1.01574 2.8058 0
M  V30 321 C 28.3269 -2.68724 2.20642 0
M  V30 322 H 27.6499 -2.56743 3.06469 0
M  V30 323 H 29.0899 -3.43237 2.48926 0
M  V30 324 C 27.5489 -3.21101 1.01959 0
M  V30 325 O 28.0789 -4.0084 0.262762 0
M  V30 326 N 26.2849 -2.79003 0.812746 0
M  V30 327 H 25.8319 -2.14271 1.42989 0
M  V30 328 H 25.7899 -3.14393 0.0203076 0
M  V30 329 N 29.562 -1.4872 -0.521534 0
M  V30 330 C 30.978 -1.35028 -0.850855 0
M  V30 331 C 31.178 -0.367712 -1.98116 0
M  V30 332 O 30.234 0.208037 -2.51642 0
M  V30 333 C 31.547 -2.75263 -1.21041 0
M  V30 334 C 33.095 -2.83813 -1.31981 0
M  V30 335 C 33.57 -4.24769 -1.71276 0
M  V30 336 N 35.061 -4.27482 -1.78363 0
M  V30 337 C 35.796 -5.33494 -2.1017 0
M  V30 338 N 35.292 -6.49775 -2.40343 0
M  V30 339 N 37.085 -5.20894 -2.11248 0
M  V30 340 H 29.236 -2.11214 0.22413 0
M  V30 341 H 31.499 -0.947252 0.0376439 0
M  V30 342 H 31.205 -3.48765 -0.453415 0
M  V30 343 H 31.079 -3.09327 -2.15863 0
M  V30 344 H 33.466 -2.10561 -2.06756 0
M  V30 345 H 33.547 -2.53358 -0.352596 0
M  V30 346 H 33.191 -4.9854 -0.970588 0
M  V30 347 H 33.121 -4.52673 -2.69062 0
M  V30 348 H 35.612 -3.43611 -1.57288 0
M  V30 349 H 35.925 -7.26402 -2.63743 0
M  V30 350 H 34.27 -6.53035 -2.37844 0
M  V30 351 H 37.461 -4.29065 -1.87139 0
M  V30 352 H 37.634 -6.03612 -2.35704 0
M  V30 353 N 31.0401 0.771051 -1.3745 0
M  V30 354 C 31.9721 1.89352 -1.29146 0
M  V30 355 C 32.9851 1.61477 -0.207124 0
M  V30 356 O 34.1741 1.72382 -0.463324 0
M  V30 357 C 31.2741 3.24596 -0.974195 0
M  V30 358 C 30.4471 3.80111 -2.16413 0
M  V30 359 C 29.5061 4.93832 -1.81703 0
M  V30 360 O 28.5321 5.09382 -2.54006 0
M  V30 361 N 29.7341 5.75483 -0.761573 0
M  V30 362 H 32.4991 1.96991 -2.25864 0
M  V30 363 H 30.0601 0.950191 -1.31084 0
M  V30 364 H 32.0521 3.98193 -0.722828 0
M  V30 365 H 30.6221 3.12454 -0.0955527 0
M  V30 366 H 29.8421 2.98284 -2.57721 0
M  V30 367 H 31.1301 4.13932 -2.95867 0
M  V30 368 H 30.5281 5.65469 -0.161609 0
M  V30 369 H 29.0851 6.49302 -0.570064 0
M  V30 370 N 32.5182 1.22032 0.997298 0
M  V30 371 C 33.7432 1.06921 1.77715 0
M  V30 372 C 34.1682 -0.376226 1.84299 0
M  V30 373 O 33.5262 -1.27165 1.29223 0
M  V30 374 C 33.5742 1.67996 3.19076 0
M  V30 375 O 32.6782 0.930653 4.01762 0
M  V30 376 H 32.0192 0.375814 0.547412 0
M  V30 377 H 34.5492 1.61737 1.25309 0
M  V30 378 H 34.5592 1.72538 3.69723 0
M  V30 379 H 33.2342 2.73182 3.13599 0
M  V30 380 H 31.8112 0.960917 3.60307 0
M  V30 381 N 33.9963 -1.19345 1.0293 0
M  V30 382 C 35.2733 -1.84811 0.640642 0
M  V30 383 C 35.6533 -1.91855 -0.88062 0
M  V30 384 O 35.0013 -1.43587 -1.7775 0
M  V30 385 C 35.2113 -3.23755 1.30321 0
M  V30 386 C 36.5593 -3.99912 1.42673 0
M  V30 387 O 37.5833 -3.33155 1.26041 0
M  V30 388 O 36.4423 -5.19494 1.6967 0
M  V30 389 H 33.5363 -0.796443 0.222726 0
M  V30 390 H 36.0823 -1.26831 1.12748 0
M  V30 391 H 34.8543 -3.13466 2.34211 0
M  V30 392 H 34.4773 -3.89381 0.804261 0
M  V30 393 N 35.4744 -0.807222 -1.35358 0
M  V30 394 C 36.3844 -0.219594 -2.3357 0
M  V30 395 C 37.4004 0.637734 -1.61892 0
M  V30 396 O 38.5764 0.549336 -1.93763 0
M  V30 397 C 35.6414 0.62158 -3.41083 0
M  V30 398 C 34.7024 -0.256315 -4.28534 0
M  V30 399 C 33.9354 0.544807 -5.30912 0
M  V30 400 O 34.1584 1.77944 -5.41934 0
M  V30 401 O 33.0924 -0.0646478 -6.01865 0
M  V30 402 H 36.9184 -1.03208 -2.85625 0
M  V30 403 H 34.5034 -0.569025 -1.38139 0
M  V30 404 H 36.3854 1.10067 -4.06772 0
M  V30 405 H 35.0604 1.41165 -2.91297 0
M  V30 406 H 33.9674 -0.782559 -3.65823 0
M  V30 407 H 35.3004 -1.01034 -4.81719 0
M  V30 408 N 36.9525 1.47285 -0.560781 0
M  V30 409 C 38.1985 2.03347 -0.0463654 0
M  V30 410 C 38.5535 1.42702 1.2905 0
M  V30 411 O 37.8465 0.574619 1.8278 0
M  V30 412 C 38.0405 3.57258 0.100784 0
M  V30 413 C 37.8695 4.32827 -1.22027 0
M  V30 414 C 36.6395 4.72588 -1.78854 0
M  V30 415 C 38.8375 4.67739 -2.13834 0
M  V30 416 N 36.8195 5.32816 -3.04927 0
M  V30 417 C 38.1905 5.28307 -3.24487 0
M  V30 418 C 40.2455 4.49667 -2.13784 0
M  V30 419 C 38.9485 5.72711 -4.35194 0
M  V30 420 C 40.9745 4.95073 -3.23506 0
M  V30 421 C 40.3365 5.55693 -4.32879 0
M  V30 422 H 36.4355 0.779755 -0.0592166 0
M  V30 423 H 39.0195 1.79723 -0.748857 0
M  V30 424 H 37.1905 3.80642 0.772404 0
M  V30 425 H 38.9225 3.9996 0.617589 0
M  V30 426 H 35.6775 4.54656 -1.32609 0
M  V30 427 H 36.1015 5.67471 -3.69197 0
M  V30 428 H 40.7435 4.02154 -1.30507 0
M  V30 429 H 38.4615 6.19214 -5.1923 0
M  V30 430 H 42.0475 4.82859 -3.24559 0
M  V30 431 H 40.9275 5.90188 -5.1638 0
M  V30 432 N 38.4306 0.297415 1.54768 0
M  V30 433 C 39.6796 -0.313669 1.99246 0
M  V30 434 C 39.9926 -1.55281 1.18942 0
M  V30 435 O 41.1986 -2.23825 1.5367 0
M  V30 436 C 39.6546 -0.609407 3.54703 0
M  V30 437 C 39.2626 0.611192 4.43811 0
M  V30 438 C 41.0066 -1.18188 4.07715 0
M  V30 439 C 38.9136 0.288805 5.90694 0
M  V30 440 H 37.8436 -0.120979 0.744231 0
M  V30 441 H 40.4946 0.40556 1.78962 0
M  V30 442 H 38.8766 -1.38813 3.70873 0
M  V30 443 H 40.0506 1.3875 4.39414 0
M  V30 444 H 38.3656 1.10205 4.01552 0
M  V30 445 H 40.9626 -1.43727 5.15021 0
M  V30 446 H 41.3056 -2.12299 3.58099 0
M  V30 447 H 41.8386 -0.464944 3.95074 0
M  V30 448 H 38.5776 1.19838 6.44453 0
M  V30 449 H 38.0976 -0.450305 5.98107 0
M  V30 450 H 39.7766 -0.110933 6.46905 0
M  V30 451 N 39.9087 -1.5758 0.0250728 0
M  V30 452 C 41.3247 -1.56124 -0.331282 0
M  V30 453 C 41.5247 -1.03029 -1.73169 0
M  V30 454 O 40.5807 -0.675215 -2.43305 0
M  V30 455 C 41.8937 -3.00139 -0.183584 0
M  V30 456 C 43.4417 -3.11946 -0.256654 0
M  V30 457 C 43.9167 -4.57793 -0.137792 0
M  V30 458 N 45.4077 -4.6279 -0.194904 0
M  V30 459 C 46.1427 -5.7326 -0.126655 0
M  V30 460 N 45.6387 -6.928 -0.00755288 0
M  V30 461 N 47.4317 -5.61811 -0.180348 0
M  V30 462 H 39.5827 -1.90424 0.94087 0
M  V30 463 H 41.8457 -0.875761 0.362968 0
M  V30 464 H 41.5517 -3.4292 0.780927 0
M  V30 465 H 41.4257 -3.64899 -0.955448 0
M  V30 466 H 43.8127 -2.69079 -1.21162 0
M  V30 467 H 43.8937 -2.49915 0.545517 0
M  V30 468 H 43.5377 -5.01339 0.813739 0
M  V30 469 H 43.4677 -5.17798 -0.958775 0
M  V30 470 H 45.9587 -3.76807 -0.287267 0
M  V30 471 H 46.2717 -7.72791 0.0379428 0
M  V30 472 H 44.6167 -6.94995 0.0271731 0
M  V30 473 H 47.8077 -4.6731 -0.271767 0
M  V30 474 H 47.9807 -6.47882 -0.123697 0
M  V30 475 N 41.3868 0.248026 -1.55636 0
M  V30 476 C 42.2968 1.32859 -1.93354 0
M  V30 477 C 43.3128 1.52719 -0.833838 0
M  V30 478 O 44.4888 1.66363 -1.13513 0
M  V30 479 C 41.5538 2.66337 -2.21958 0
M  V30 480 C 40.6148 2.55008 -3.45354 0
M  V30 481 C 39.8478 3.82121 -3.72584 0
M  V30 482 O 40.0708 4.83951 -3.01907 0
M  V30 483 O 39.0048 3.80822 -4.6611 0
M  V30 484 H 42.8308 1.03862 -2.85388 0
M  V30 485 H 40.4158 0.448686 -1.42503 0
M  V30 486 H 42.2978 3.45216 -2.4167 0
M  V30 487 H 40.9728 2.95068 -1.33103 0
M  V30 488 H 39.8798 1.7442 -3.30951 0
M  V30 489 H 41.2128 2.31222 -4.34508 0
M  V30 490 N 42.8649 1.48995 0.513639 0
M  V30 491 C 43.7949 1.67636 1.62544 0
M  V30 492 C 44.7759 0.525087 1.61793 0
M  V30 493 O 45.9609 0.759502 1.78732 0
M  V30 494 C 43.0909 1.73114 3.01079 0
M  V30 495 C 42.0449 2.87905 3.16693 0
M  V30 496 C 41.3709 2.78486 4.56453 0
M  V30 497 C 42.6709 4.29005 2.97913 0
M  V30 498 H 44.3649 2.60716 1.47198 0
M  V30 499 H 41.9109 1.25465 0.706714 0
M  V30 500 H 43.8639 1.84742 3.78746 0
M  V30 501 H 42.5879 0.766241 3.17484 0
M  V30 502 H 41.2469 2.75859 2.41448 0
M  V30 503 H 40.8949 1.7993 4.69717 0
M  V30 504 H 40.5949 3.55523 4.67843 0
M  V30 505 H 42.1189 2.92104 5.36197 0
M  V30 506 H 43.5329 4.41798 3.65359 0
M  V30 507 H 41.9299 5.07166 3.20785 0
M  V30 508 H 42.9999 4.44329 1.94165 0
M  V30 509 N 44.343 -0.763751 1.37857 0
M  V30 510 C 45.273 -1.89103 1.36975 0
M  V30 511 C 46.254 -1.68439 0.237152 0
M  V30 512 O 47.439 -1.8918 0.438713 0
M  V30 513 C 44.569 -3.26496 1.18395 0
M  V30 514 C 43.523 -3.61741 2.28751 0
M  V30 515 C 42.849 -4.97762 1.95286 0
M  V30 516 C 44.149 -3.67665 3.70972 0
M  V30 517 H 45.843 -1.90099 2.31307 0
M  V30 518 H 43.389 -0.91319 1.11341 0
M  V30 519 H 45.342 -4.05003 1.16406 0
M  V30 520 H 44.066 -3.25955 0.205215 0
M  V30 521 H 42.725 -2.85547 2.29909 0
M  V30 522 H 42.373 -4.93769 0.959221 0
M  V30 523 H 42.073 -5.22313 2.69189 0
M  V30 524 H 43.597 -5.7866 1.94898 0
M  V30 525 H 45.011 -4.36307 3.719 0
M  V30 526 H 43.408 -4.03718 4.43995 0
M  V30 527 H 44.478 -2.68134 4.0402 0
M  V30 528 N 45.8211 -1.22559 -0.990812 0
M  V30 529 C 46.7511 -1.0218 -2.09956 0
M  V30 530 C 47.7321 0.0579394 -1.70001 0
M  V30 531 O 48.9171 -0.104684 -1.93918 0
M  V30 532 C 46.0471 -0.601023 -3.4206 0
M  V30 533 C 45.0011 -1.62694 -3.95872 0
M  V30 534 C 44.3271 -1.06193 -5.24049 0
M  V30 535 C 45.6271 -3.01743 -4.2632 0
M  V30 536 H 47.3211 -1.94916 -2.27262 0
M  V30 537 H 44.8671 -0.938566 -1.09211 0
M  V30 538 H 46.8201 -0.445561 -4.19038 0
M  V30 539 H 45.5441 0.362005 -3.24588 0
M  V30 540 H 44.2031 -1.77021 -3.21028 0
M  V30 541 H 43.8511 -0.0901903 -5.02919 0
M  V30 542 H 43.5511 -1.74732 -5.61019 0
M  V30 543 H 45.0751 -0.918092 -6.03658 0
M  V30 544 H 46.4891 -2.90777 -4.94087 0
M  V30 545 H 44.8861 -3.67425 -4.74467 0
M  V30 546 H 45.9561 -3.51518 -3.34011 0
M  V30 547 N 47.2992 1.18797 -1.03562 0
M  V30 548 C 48.7152 1.40671 -0.753917 0
M  V30 549 C 48.9152 1.9043 0.658686 0
M  V30 550 O 47.9712 2.08538 1.42366 0
M  V30 551 C 49.2842 2.41192 -1.79574 0
M  V30 552 C 50.8322 2.54928 -1.81606 0
M  V30 553 C 51.3072 3.58709 -2.84766 0
M  V30 554 N 52.7982 3.66212 -2.83625 0
M  V30 555 C 53.5332 4.46225 -3.60098 0
M  V30 556 N 53.0292 5.29888 -4.46308 0
M  V30 557 N 54.8222 4.40939 -3.4861 0
M  V30 558 H 46.9732 0.848221 -1.94728 0
M  V30 559 H 49.2362 0.435081 -0.842264 0
M  V30 560 H 48.9422 2.11669 -2.80872 0
M  V30 561 H 48.8162 3.40467 -1.62365 0
M  V30 562 H 51.2032 2.83771 -0.809817 0
M  V30 563 H 51.2842 1.55784 -2.02891 0
M  V30 564 H 50.9282 3.30607 -3.85566 0
M  V30 565 H 50.8582 4.57519 -2.60737 0
M  V30 566 H 53.3492 3.06466 -2.21105 0
M  V30 567 H 53.6622 5.88078 -5.01382 0
M  V30 568 H 52.0072 5.29326 -4.50377 0
M  V30 569 H 55.1982 3.74624 -2.80668 0
M  V30 570 H 55.3712 5.03056 -4.08459 0
M  V30 571 N 48.7773 0.814389 1.34928 0
M  V30 572 C 50.0253 0.397636 1.9815 0
M  V30 573 C 50.3463 -1.04069 1.64908 0
M  V30 574 O 49.6163 -1.72121 0.93548 0
M  V30 575 H 48.1963 0.144043 0.732981 0
M  V30 576 H 50.8583 1.04195 1.6471 0
M  V30 577 H 49.9543 0.509688 3.0791 0
M  V30 578 N 50.2554 -1.46986 0.568584 0
M  V30 579 C 51.4834 -2.0683 0.0539956 0
M  V30 580 C 51.8984 -1.41953 -1.24478 0
M  V30 581 O 51.2554 -0.519933 -1.74937 0
M  V30 582 C 51.3064 -3.61254 -0.133362 0
M  V30 583 O 51.0274 -4.237 1.11399 0
M  V30 584 C 52.5284 -4.37992 -0.683927 0
M  V30 585 H 49.7484 -0.669058 0.0510141 0
M  V30 586 H 52.2924 -1.88824 0.785234 0
M  V30 587 H 50.4474 -3.78735 -0.81477 0
M  V30 588 H 50.8614 -5.16388 0.91888 0
M  V30 589 H 52.3354 -5.46684 -0.764263 0
M  V30 590 H 52.8124 -4.05058 -1.69778 0
M  V30 591 H 53.4184 -4.25283 -0.0378494 0
M  V30 592 N 51.7335 -0.305618 -1.54608 0
M  V30 593 C 52.9825 0.303098 -1.9941 0
M  V30 594 C 53.2955 1.54648 -1.19764 0
M  V30 595 O 54.5015 2.23007 -1.54855 0
M  V30 596 C 52.9575 0.590588 -3.55021 0
M  V30 597 C 52.5655 -0.634719 -4.43481 0
M  V30 598 C 54.3095 1.16025 -4.08336 0
M  V30 599 C 52.2165 -0.320126 -5.90533 0
M  V30 600 H 51.1465 0.117031 -0.744862 0
M  V30 601 H 53.7975 -0.415045 -1.78745 0
M  V30 602 H 52.1795 1.36845 -3.71604 0
M  V30 603 H 53.3535 -1.41079 -4.38672 0
M  V30 604 H 51.6685 -1.12333 -4.00962 0
M  V30 605 H 54.2655 1.40994 -5.15776 0
M  V30 606 H 54.6085 2.10397 -3.5922 0
M  V30 607 H 55.1415 0.443985 -3.95315 0
M  V30 608 H 51.8805 -1.23254 -6.43808 0
M  V30 609 H 51.4005 0.418579 -5.98338 0
M  V30 610 H 53.0795 0.0766241 -6.46955 0
M  V30 611 N 53.2116 1.57565 -0.0334293 0
M  V30 612 C 54.1746 2.09393 0.932048 0
M  V30 613 C 55.1746 1.00986 1.25134 0
M  V30 614 O 56.3646 1.27129 1.19096 0
M  V30 615 C 53.4966 2.56338 2.2473 0
M  V30 616 H 54.6896 2.95984 0.483085 0
M  V30 617 H 52.2426 1.54819 0.21468 0
M  V30 618 H 52.9776 1.7309 2.74245 0
M  V30 619 H 52.7626 3.35542 2.02865 0
M  V30 620 H 54.2526 2.96646 2.93923 0
M  V30 621 N 54.6897 -0.239769 1.55765 0
M  V30 622 C 56.1057 -0.588624 1.48349 0
M  V30 623 C 56.3057 -1.88005 0.72502 0
M  V30 624 O 55.3617 -2.51186 0.257269 0
M  V30 625 C 56.6747 -0.68474 2.928 0
M  V30 626 C 58.2227 -0.77659 3.03213 0
M  V30 627 C 58.6977 -0.904207 4.48986 0
M  V30 628 N 60.1887 -0.968896 4.52953 0
M  V30 629 C 60.9237 -1.08703 5.63002 0
M  V30 630 N 60.4197 -1.17026 6.82845 0
M  V30 631 N 62.2127 -1.12074 5.50814 0
M  V30 632 H 54.3637 0.607911 2.03515 0
M  V30 633 H 56.6267 0.21083 0.924259 0
M  V30 634 H 56.3327 0.194284 3.51163 0
M  V30 635 H 56.2067 -1.55435 3.43686 0
M  V30 636 H 58.5937 -1.64606 2.44926 0
M  V30 637 H 58.6747 0.118315 2.55526 0
M  V30 638 H 58.3187 -0.0392633 5.07885 0
M  V30 639 H 58.2487 -1.81426 4.9436 0
M  V30 640 H 60.7397 -0.915633 3.6664 0
M  V30 641 H 61.0527 -1.25966 7.62465 0
M  V30 642 H 59.3977 -1.13971 6.85591 0
M  V30 643 H 62.5887 -1.05226 4.5612 0
M  V30 644 H 62.7617 -1.20936 6.36615 0
M  V30 645 N 56.1678 -1.49265 -0.50573 0
M  V30 646 C 57.4138 -1.58748 -1.26202 0
M  V30 647 C 57.7468 -0.271227 -1.92297 0
M  V30 648 O 57.0218 0.724831 -1.80489 0
M  V30 649 C 57.3048 -2.74332 -2.33268 0
M  V30 650 C 57.1578 -4.15737 -1.71705 0
M  V30 651 C 58.4768 -2.85576 -3.34865 0
M  V30 652 H 55.5958 -0.577826 -0.457478 0
M  V30 653 H 58.2378 -1.81532 -0.560897 0
M  V30 654 H 56.3878 -2.55036 -2.93068 0
M  V30 655 H 58.0598 -4.46537 -1.15769 0
M  V30 656 H 56.3028 -4.21605 -1.02135 0
M  V30 657 H 56.9738 -4.92477 -2.49341 0
M  V30 658 H 59.4498 -3.03127 -2.8505 0
M  V30 659 H 58.3258 -3.68135 -4.07146 0
M  V30 660 H 58.5868 -1.94732 -3.96903 0
M  V30 661 N 57.6459 0.756429 -1.3826 0
M  V30 662 C 58.6089 1.85176 -1.35065 0
M  V30 663 C 59.6089 1.58818 -0.251703 0
M  V30 664 O 60.7989 1.66615 -0.508433 0
M  V30 665 C 57.9309 3.22596 -1.10201 0
M  V30 666 H 59.1239 1.89417 -2.3251 0
M  V30 667 H 56.6769 0.95783 -1.23512 0
M  V30 668 H 57.4119 3.24025 -0.133504 0
M  V30 669 H 57.1969 3.43122 -1.89762 0
M  V30 670 H 58.6869 4.02673 -1.10654 0
M  V30 671 N 59.124 1.23083 0.984299 0
M  V30 672 C 60.352 1.08714 1.76037 0
M  V30 673 C 60.767 -0.361691 1.85303 0
M  V30 674 O 60.124 -1.25034 1.32939 0
M  V30 675 C 60.175 1.70206 3.18923 0
M  V30 676 O 59.896 3.09423 3.10144 0
M  V30 677 C 61.397 1.61227 4.12941 0
M  V30 678 H 58.617 0.380664 0.552572 0
M  V30 679 H 61.161 1.62853 1.23689 0
M  V30 680 H 59.316 1.20109 3.6831 0
M  V30 681 H 59.73 3.39188 4.00065 0
M  V30 682 H 61.204 2.08962 5.10919 0
M  V30 683 H 61.681 0.570375 4.35481 0
M  V30 684 H 62.287 2.10671 3.69456 0
M  V30 685 N 60.6021 -1.18246 1.0419 0
M  V30 686 C 61.5321 -2.24127 0.654914 0
M  V30 687 C 62.5131 -1.66617 -0.342451 0
M  V30 688 O 63.6981 -1.92924 -0.222277 0
M  V30 689 C 60.8281 -3.47295 0.0183757 0
M  V30 690 C 59.7821 -4.17563 0.939414 0
M  V30 691 C 59.1081 -5.34438 0.167286 0
M  V30 692 C 60.4081 -4.70917 2.25908 0
M  V30 693 H 62.1021 -2.56753 1.54007 0
M  V30 694 H 59.6481 -1.23414 0.74195 0
M  V30 695 H 61.6011 -4.20572 -0.264082 0
M  V30 696 H 60.3251 -3.13907 -0.901664 0
M  V30 697 H 58.9841 -3.46186 1.20628 0
M  V30 698 H 58.6321 -4.97298 -0.7552 0
M  V30 699 H 58.3321 -5.82388 0.780901 0
M  V30 700 H 59.8561 -6.10504 -0.108125 0
M  V30 701 H 61.2701 -5.35882 2.03724 0
M  V30 702 H 59.6671 -5.29406 2.82577 0
M  V30 703 H 60.7371 -3.88272 2.9047 0
M  V30 704 N 62.0802 -0.821533 -1.34494 0
M  V30 705 C 63.3262 -0.418729 -1.99043 0
M  V30 706 C 63.6812 1.00672 -1.6396 0
M  V30 707 O 62.9742 1.69132 -0.900271 0
M  V30 708 C 63.1682 -0.556512 -3.53041 0
M  V30 709 C 62.9972 -1.9938 -4.03085 0
M  V30 710 C 61.7672 -2.62539 -4.31742 0
M  V30 711 C 63.9652 -2.96035 -4.20556 0
M  V30 712 N 61.9472 -3.97523 -4.67813 0
M  V30 713 C 63.3182 -4.15924 -4.59791 0
M  V30 714 C 65.3732 -2.9267 -4.02801 0
M  V30 715 C 64.0762 -5.32899 -4.83126 0
M  V30 716 C 66.1022 -4.08861 -4.27302 0
M  V30 717 C 65.4642 -5.275 -4.66822 0
M  V30 718 H 61.5632 -0.201299 -0.755647 0
M  V30 719 H 64.1472 -1.06594 -1.62929 0
M  V30 720 H 62.3182 0.0607924 -3.88352 0
M  V30 721 H 64.0502 -0.126842 -4.04501 0
M  V30 722 H 60.8052 -2.13789 -4.22601 0
M  V30 723 H 61.2292 -4.67061 -4.90085 0
M  V30 724 H 65.8712 -2.02088 -3.71376 0
M  V30 725 H 63.5892 -6.24041 -5.13418 0
M  V30 726 H 67.1752 -4.07654 -4.15101 0
M  V30 727 H 66.0552 -6.15913 -4.85408 0
M  V30 728 N 63.5583 1.46682 -0.576371 0
M  V30 729 C 64.4903 2.28341 0.198231 0
M  V30 730 C 65.5033 1.38141 0.861453 0
M  V30 731 O 66.6923 1.62797 0.732082 0
M  V30 732 C 63.7923 3.12986 1.29972 0
M  V30 733 C 62.9653 4.31271 0.729639 0
M  V30 734 C 62.0243 4.97363 1.71803 0
M  V30 735 O 61.0503 5.55156 1.25658 0
M  V30 736 N 62.2523 4.93796 3.05198 0
M  V30 737 H 65.0173 2.9546 -0.502324 0
M  V30 738 H 62.5783 1.56525 -0.413715 0
M  V30 739 H 64.5703 3.54066 1.96008 0
M  V30 740 H 63.1403 2.47984 1.90323 0
M  V30 741 H 62.3603 3.94052 -0.108012 0
M  V30 742 H 63.6483 5.07739 0.328438 0
M  V30 743 H 63.0463 4.48077 3.45317 0
M  V30 744 H 61.6033 5.38837 3.6674 0
M  V30 745 N 65.0364 0.313813 1.54444 0
M  V30 746 C 66.2844 -0.291099 1.99993 0
M  V30 747 C 66.6054 -1.53418 1.20366 0
M  V30 748 O 65.8754 -1.93544 0.302927 0
M  V30 749 H 64.4554 -0.110552 0.738774 0
M  V30 750 H 67.1174 0.428106 1.9014 0
M  V30 751 H 66.2134 -0.554268 3.07139 0
M  V30 752 N 66.5145 -1.57545 0.0417849 0
M  V30 753 C 67.4245 -2.14451 -0.951213 0
M  V30 754 C 68.4405 -1.09992 -1.34825 0
M  V30 755 O 69.6165 -1.42114 -1.42708 0
M  V30 756 C 66.6815 -2.67063 -2.21084 0
M  V30 757 C 65.7425 -3.86284 -1.87304 0
M  V30 758 C 64.9755 -4.36378 -3.07261 0
M  V30 759 O 65.1985 -3.85587 -4.20332 0
M  V30 760 O 64.1325 -5.28077 -2.88822 0
M  V30 761 H 67.9585 -2.99601 -0.497287 0
M  V30 762 H 65.5435 -1.48317 -0.179567 0
M  V30 763 H 67.4255 -3.00914 -2.95006 0
M  V30 764 H 66.1005 -1.84989 -2.65633 0
M  V30 765 H 65.0075 -3.57338 -1.10727 0
M  V30 766 H 66.3405 -4.6956 -1.47562 0
M  V30 767 N 67.9926 0.231505 -1.5589 0
M  V30 768 C 69.2696 0.981096 -1.69215 0
M  V30 769 C 69.6496 2.02799 -0.586164 0
M  V30 770 O 68.9976 2.24823 0.408253 0
M  V30 771 C 69.2076 1.60054 -3.10135 0
M  V30 772 C 70.5556 2.09658 -3.69227 0
M  V30 773 O 71.5796 1.69967 -3.13033 0
M  V30 774 O 70.4386 2.8258 -4.67772 0
M  V30 775 H 67.5326 0.457653 -0.688827 0
M  V30 776 H 70.0786 0.224073 -1.68214 0
M  V30 777 H 68.8506 0.844105 -3.82087 0
M  V30 778 H 68.4736 2.42336 -3.15212 0
M  V30 779 N 69.4707 1.49531 0.497807 0
M  V30 780 C 70.7187 1.58865 1.24926 0
M  V30 781 C 71.0397 0.278721 1.92998 0
M  V30 782 O 70.3097 -0.702144 1.82885 0
M  V30 783 H 68.8897 0.585343 0.464094 0
M  V30 784 H 71.5517 1.86174 0.57666 0
M  V30 785 H 70.6477 2.38633 2.01149 0
M  V30 786 N 70.9488 -0.749086 1.3866 0
M  V30 787 C 71.9118 -1.84457 1.36045 0
M  V30 788 C 72.9118 -1.58682 0.260122 0
M  V30 789 O 74.1018 -1.66343 0.517261 0
M  V30 790 C 71.2338 -3.22008 1.11911 0
M  V30 791 H 72.4268 -1.88182 2.33512 0
M  V30 792 H 69.9798 -0.951266 1.24019 0
M  V30 793 H 70.7148 -3.2395 0.150686 0
M  V30 794 H 70.4998 -3.42111 1.91579 0
M  V30 795 H 71.9898 -4.0208 1.12788 0
M  V30 796 N 72.4269 -1.23603 -0.977757 0
M  V30 797 C 73.3899 -1.02069 -2.05218 0
M  V30 798 C 74.3899 0.0184305 -1.60789 0
M  V30 799 O 75.5799 -0.221569 -1.72785 0
M  V30 800 C 72.7119 -0.544926 -3.36517 0
M  V30 801 H 73.9049 -1.9742 -2.25755 0
M  V30 802 H 71.4579 -1.05684 -1.15155 0
M  V30 803 H 72.1929 0.412241 -3.21669 0
M  V30 804 H 71.9779 -1.2948 -3.70105 0
M  V30 805 H 73.4679 -0.414985 -4.15533 0
M  V30 806 N 73.905 1.17692 -1.04816 0
M  V30 807 C 75.152 1.87859 -0.75599 0
M  V30 808 C 75.48 1.80812 0.716752 0
M  V30 809 O 74.735 1.20819 1.53952 0
M  V30 810 C 75.034 3.37462 -1.17703 0
M  V30 811 C 74.7 3.64713 -2.65133 0
M  V30 812 C 73.362 3.71859 -3.05408 0
M  V30 813 C 75.714 3.76492 -3.60421 0
M  V30 814 C 73.042 3.88271 -4.39843 0
M  V30 815 C 75.394 3.94421 -4.94585 0
M  V30 816 C 74.058 3.99806 -5.3452 0
M  V30 817 H 73.328 0.687425 -0.276636 0
M  V30 818 H 75.975 1.39255 -1.31455 0
M  V30 819 H 74.28 3.88097 -0.537395 0
M  V30 820 H 75.977 3.90109 -0.928218 0
M  V30 821 H 72.567 3.59772 -2.32942 0
M  V30 822 H 76.751 3.70295 -3.30447 0
M  V30 823 H 72.007 3.90687 -4.70291 0
M  V30 824 H 76.181 4.02477 -5.68318 0
M  V30 825 H 73.808 4.12276 -6.38696 0
M  V30 826 N 75.3831 0.828654 1.34056 0
M  V30 827 C 76.7941 0.477534 1.8049 0
M  V30 828 C 77.1451 -1.00258 1.6865 0
M  V30 829 O 76.2701 -1.78057 1.22982 0
M  V30 830 C 76.8651 0.860018 3.27703 0
M  V30 831 C 75.4241 0.561185 3.72193 0
M  V30 832 C 74.5711 1.07385 2.55663 0
M  V30 833 H 77.5221 1.0183 1.21722 0
M  V30 834 H 77.5431 0.166038 3.80138 0
M  V30 835 H 77.0551 1.93731 3.36288 0
M  V30 836 H 75.1561 -0.506465 3.69142 0
M  V30 837 H 75.2691 1.10926 4.66082 0
M  V30 838 H 73.6331 0.495149 2.49841 0
M  V30 839 H 74.4161 2.15771 2.67016 0
M  V30 840 N 76.8612 -1.46375 0.584142 0
M  V30 841 C 78.1082 -2.02378 0.0702675 0
M  V30 842 C 78.4362 -1.45545 -1.29023 0
M  V30 843 O 77.6912 -0.610967 -1.85918 0
M  V30 844 C 77.9902 -3.57373 -0.0439342 0
M  V30 845 C 77.6562 -4.33252 1.24915 0
M  V30 846 C 76.3182 -4.53701 1.60341 0
M  V30 847 C 78.6702 -4.7681 2.1048 0
M  V30 848 C 75.9982 -5.1496 2.81128 0
M  V30 849 C 78.3502 -5.39404 3.30494 0
M  V30 850 C 77.0142 -5.5808 3.66201 0
M  V30 851 H 76.2842 -0.740554 0.0257127 0
M  V30 852 H 78.9312 -1.75727 0.761065 0
M  V30 853 H 77.2362 -3.83169 -0.817869 0
M  V30 854 H 78.9332 -3.98384 -0.457318 0
M  V30 855 H 75.5232 -4.17633 0.963364 0
M  V30 856 H 79.7072 -4.60766 1.84414 0
M  V30 857 H 74.9632 -5.27611 3.08928 0
M  V30 858 H 79.1372 -5.72114 3.97063 0
M  V30 859 H 76.7642 -6.05318 4.59885 0
M  V30 860 N 78.3393 -0.321999 -1.54275 0
M  V30 861 C 79.5883 0.281931 -1.9972 0
M  V30 862 C 79.9013 1.53369 -1.21397 0
M  V30 863 O 81.1073 2.21352 -1.57211 0
M  V30 864 C 79.5633 0.5529 -3.55628 0
M  V30 865 C 79.1713 -0.681721 -4.42783 0
M  V30 866 C 80.9153 1.11687 -4.09544 0
M  V30 867 C 78.8223 -0.382742 -5.9016 0
M  V30 868 H 77.7523 0.109124 -0.746062 0
M  V30 869 H 80.4033 -0.43398 -1.78294 0
M  V30 870 H 78.7853 1.32896 -3.73035 0
M  V30 871 H 79.9593 -1.45723 -4.37151 0
M  V30 872 H 78.2743 -1.1658 -3.99748 0
M  V30 873 H 80.8713 1.35515 -5.17242 0
M  V30 874 H 81.2143 2.06575 -3.61431 0
M  V30 875 H 81.7473 0.402032 -3.95763 0
M  V30 876 H 78.4863 -1.30076 -6.42464 0
M  V30 877 H 78.0063 0.355094 -5.98748 0
M  V30 878 H 79.6853 0.00800157 -6.47 0
M  V30 879 N 79.8174 1.5752 -0.0501392 0
M  V30 880 C 81.0454 1.96963 0.633492 0
M  V30 881 C 81.4604 0.927631 1.6444 0
M  V30 882 O 80.8174 -0.0882665 1.82286 0
M  V30 883 C 80.8684 3.36487 1.32132 0
M  V30 884 O 80.5894 4.36693 0.350894 0
M  V30 885 C 82.0904 3.90682 2.09481 0
M  V30 886 H 79.3104 0.648244 0.173266 0
M  V30 887 H 81.8544 2.0417 -0.116134 0
M  V30 888 H 80.0094 3.30434 2.02218 0
M  V30 889 H 80.4234 5.17702 0.841735 0
M  V30 890 H 81.8974 4.90591 2.5303 0
M  V30 891 H 82.3744 3.26053 2.94255 0
M  V30 892 H 82.9804 4.00069 1.44307 0
M  V30 893 N 81.2955 -0.223234 1.56011 0
M  V30 894 C 82.7065 -0.790368 1.69145 0
M  V30 895 C 83.0575 -1.85055 0.651845 0
M  V30 896 O 82.1825 -2.15498 -0.197359 0
M  V30 897 C 82.7775 -1.4404 3.06656 0
M  V30 898 C 81.3365 -1.95494 3.2165 0
M  V30 899 C 80.4835 -0.814506 2.65068 0
M  V30 900 H 83.4345 0.00139011 1.587 0
M  V30 901 H 83.4555 -2.30916 3.0242 0
M  V30 902 H 82.9675 -0.668543 3.82298 0
M  V30 903 H 81.0685 -2.75487 2.50874 0
M  V30 904 H 81.1815 -2.13607 4.28846 0
M  V30 905 H 79.5455 -1.22137 2.23505 0
M  V30 906 H 80.3285 -0.0553515 3.43255 0
M  V30 907 N 82.7736 -1.49793 -0.48987 0
M  V30 908 C 83.7036 -1.70201 -1.59856 0
M  V30 909 C 84.6846 -0.55076 -1.60937 0
M  V30 910 O 85.8696 -0.787841 -1.77501 0
M  V30 911 C 82.9996 -1.77882 -2.98287 0
M  V30 912 C 81.9536 -2.92907 -3.12073 0
M  V30 913 C 81.2796 -2.85712 -4.51965 0
M  V30 914 C 82.5796 -4.3369 -2.91051 0
M  V30 915 H 84.2736 -2.63025 -1.43032 0
M  V30 916 H 81.8196 -1.26574 -0.686664 0
M  V30 917 H 83.7726 -1.90744 -3.75759 0
M  V30 918 H 82.4966 -0.816653 -3.16225 0
M  V30 919 H 81.1556 -2.79665 -2.37029 0
M  V30 920 H 80.8036 -1.8738 -4.66795 0
M  V30 921 H 80.5036 -3.62921 -4.62128 0
M  V30 922 H 82.0276 -3.00598 -5.31482 0
M  V30 923 H 83.4416 -4.47555 -3.58284 0
M  V30 924 H 81.8386 -5.12205 -3.12675 0
M  V30 925 H 82.9086 -4.47362 -1.87071 0
M  V30 926 N 84.2517 0.741722 -1.39055 0
M  V30 927 C 85.2147 1.83733 -1.37021 0
M  V30 928 C 86.2147 1.58542 -0.268534 0
M  V30 929 O 87.4047 1.66067 -0.526076 0
M  V30 930 C 84.5367 3.2141 -1.13617 0
M  V30 931 H 85.7297 1.86941 -2.34506 0
M  V30 932 H 83.2827 0.944676 -1.24521 0
M  V30 933 H 84.0177 3.23865 -0.167863 0
M  V30 934 H 83.8027 3.4109 -1.93391 0
M  V30 935 H 85.2927 4.01477 -1.14918 0
M  V30 936 N 85.7298 1.2412 0.971189 0
M  V30 937 C 86.9598 1.10415 1.7462 0
M  V30 938 C 87.3678 -0.346462 1.86001 0
M  V30 939 O 86.7108 -1.25104 1.34517 0
M  V30 940 C 86.7728 1.66596 3.18568 0
M  V30 941 C 86.4368 3.15446 3.3067 0
M  V30 942 C 87.4338 4.12636 3.16271 0
M  V30 943 C 85.1188 3.55337 3.55022 0
M  V30 944 C 87.1128 5.47699 3.26044 0
M  V30 945 C 84.7998 4.90542 3.64434 0
M  V30 946 C 85.7978 5.86532 3.49956 0
M  V30 947 O 85.4858 7.19279 3.59017 0
M  V30 948 H 85.2178 0.386616 0.55453 0
M  V30 949 H 87.7718 1.64633 1.22821 0
M  V30 950 H 86.0018 1.06808 3.71657 0
M  V30 951 H 87.6908 1.48232 3.77865 0
M  V30 952 H 88.4568 3.8316 2.97344 0
M  V30 953 H 84.3358 2.8113 3.65359 0
M  V30 954 H 87.8798 6.22603 3.14661 0
M  V30 955 H 83.7768 5.19691 3.82873 0
M  V30 956 H 84.5448 7.27153 3.75754 0
M  V30 957 N 87.2079 -1.17134 1.05439 0
M  V30 958 C 88.1709 -2.19439 0.661764 0
M  V30 959 C 89.1709 -1.58199 -0.288042 0
M  V30 960 O 90.3609 -1.74053 -0.0715803 0
M  V30 961 C 87.4929 -3.40889 -0.0276209 0
M  V30 962 H 88.6859 -2.55688 1.56728 0
M  V30 963 H 86.2389 -1.31259 0.848567 0
M  V30 964 H 86.9739 -3.10187 -0.94629 0
M  V30 965 H 86.7589 -3.86586 0.655238 0
M  V30 966 H 88.2489 -4.16603 -0.288342 0
M  V30 967 N 88.686 -0.835752 -1.33615 0
M  V30 968 C 89.916 -0.442701 -2.01801 0
M  V30 969 C 90.324 0.959807 -1.63047 0
M  V30 970 O 89.667 1.63468 -0.838088 0
M  V30 971 C 89.729 -0.480125 -3.56279 0
M  V30 972 C 89.393 -1.8382 -4.18401 0
M  V30 973 C 90.39 -2.80097 -4.37998 0
M  V30 974 C 88.075 -2.13019 -4.54894 0
M  V30 975 C 90.069 -4.03736 -4.9323 0
M  V30 976 C 87.756 -3.36916 -5.09834 0
M  V30 977 C 88.754 -4.32091 -5.28948 0
M  V30 978 O 88.442 -5.53797 -5.82721 0
M  V30 979 H 88.174 -0.17441 -0.653114 0
M  V30 980 H 90.728 -1.129 -1.71589 0
M  V30 981 H 88.958 0.262931 -3.85805 0
M  V30 982 H 90.647 -0.105335 -4.05763 0
M  V30 983 H 91.413 -2.58838 -4.10156 0
M  V30 984 H 87.292 -1.39733 -4.39313 0
M  V30 985 H 90.836 -4.78034 -5.08064 0
M  V30 986 H 86.733 -3.58033 -5.37106 0
M  V30 987 H 87.501 -5.55494 -6.0114 0
M  V30 988 N 90.1641 1.46063 -0.591896 0
M  V30 989 C 91.5801 1.57561 -0.254288 0
M  V30 990 C 91.7801 1.58565 1.24336 0
M  V30 991 O 90.8361 1.50753 2.02558 0
M  V30 992 C 92.1491 2.86549 -0.911611 0
M  V30 993 C 93.6971 3.00197 -0.886059 0
M  V30 994 C 94.1721 4.31933 -1.5231 0
M  V30 995 N 95.6631 4.38654 -1.48786 0
M  V30 996 C 96.3981 5.39222 -1.95006 0
M  V30 997 N 95.8941 6.46414 -2.49241 0
M  V30 998 N 97.6871 5.3048 -1.85868 0
M  V30 999 H 89.8381 1.43655 -1.56451 0
M  V30 1000 H 92.1011 0.68583 -0.654478 0
M  V30 1001 H 91.8071 2.91651 -1.96551 0
M  V30 1002 H 91.6811 3.74794 -0.425368 0
M  V30 1003 H 94.0681 2.9467 0.159246 0
M  V30 1004 H 94.1491 2.13403 -1.41041 0
M  V30 1005 H 93.7931 4.38217 -2.56765 0
M  V30 1006 H 93.7231 5.17516 -0.973891 0
M  V30 1007 H 96.2141 3.61793 -1.09151 0
M  V30 1008 H 96.5271 7.19376 -2.82344 0
M  V30 1009 H 94.8721 6.47208 -2.53272 0
M  V30 1010 H 98.0631 4.45643 -1.43248 0
M  V30 1011 H 98.2361 6.08711 -2.22204 0
M  V30 1012 N 91.6422 0.330177 1.54103 0
M  V30 1013 C 93.0532 -0.15652 1.86043 0
M  V30 1014 C 93.4042 -1.51086 1.2517 0
M  V30 1015 O 92.5292 -2.09023 0.560217 0
M  V30 1016 C 93.1242 -0.290784 3.3755 0
M  V30 1017 C 91.6832 -0.721705 3.69416 0
M  V30 1018 C 90.8302 0.152622 2.7688 0
M  V30 1019 H 93.7812 0.550237 1.48856 0
M  V30 1020 H 93.8022 -1.12058 3.63625 0
M  V30 1021 H 93.3142 0.695068 3.81825 0
M  V30 1022 H 91.4152 -1.71706 3.30678 0
M  V30 1023 H 91.5282 -0.520869 4.7626 0
M  V30 1024 H 89.8922 -0.372894 2.51956 0
M  V30 1025 H 90.6752 1.13536 3.23982 0
M  V30 1026 N 93.1203 -1.57491 0.0584922 0
M  V30 1027 C 94.0303 -2.15448 -0.928414 0
M  V30 1028 C 95.0463 -1.11416 -1.3365 0
M  V30 1029 O 96.2223 -1.4362 -1.41193 0
M  V30 1030 C 93.2873 -2.69393 -2.18239 0
M  V30 1031 C 92.3483 -3.88249 -1.83196 0
M  V30 1032 C 91.5813 -4.39613 -3.02616 0
M  V30 1033 O 91.8043 -3.90023 -4.16219 0
M  V30 1034 O 90.7383 -5.31111 -2.83204 0
M  V30 1035 H 94.5643 -3.00112 -0.465483 0
M  V30 1036 H 92.1493 -1.48499 -0.163826 0
M  V30 1037 H 94.0313 -3.04026 -2.91798 0
M  V30 1038 H 92.7063 -1.87796 -2.63656 0
M  V30 1039 H 91.6133 -3.58492 -1.06931 0
M  V30 1040 H 92.9463 -4.71098 -1.42573 0
M  V30 1041 N 94.5984 0.214957 -1.56127 0
M  V30 1042 C 95.5304 1.29004 -1.89448 0
M  V30 1043 C 96.5434 1.42716 -0.783326 0
M  V30 1044 O 97.7324 1.43496 -1.06166 0
M  V30 1045 C 94.8324 2.66482 -2.09381 0
M  V30 1046 C 94.0054 2.74633 -3.40434 0
M  V30 1047 C 93.0644 3.9317 -3.49719 0
M  V30 1048 O 92.0904 3.812 -4.227 0
M  V30 1049 N 93.2924 5.07765 -2.81346 0
M  V30 1050 H 96.0574 1.00743 -2.82261 0
M  V30 1051 H 93.6184 0.40497 -1.56753 0
M  V30 1052 H 95.6104 3.44173 -2.12901 0
M  V30 1053 H 94.1804 2.87314 -1.23163 0
M  V30 1054 H 93.4004 1.83368 -3.48955 0
M  V30 1055 H 94.6884 2.77054 -4.26754 0
M  V30 1056 H 94.0864 5.20386 -2.21843 0
M  V30 1057 H 92.6434 5.83474 -2.90519 0
M  V30 1058 N 96.0765 1.50051 0.48192 0
M  V30 1059 C 97.3245 1.60181 1.23234 0
M  V30 1060 C 97.6455 0.299176 1.92691 0
M  V30 1061 O 96.9155 -0.682708 1.83619 0
M  V30 1062 H 95.4955 0.590232 0.457859 0
M  V30 1063 H 98.1575 1.86775 0.556881 0
M  V30 1064 H 97.2535 2.40753 1.98607 0
M  V30 1065 N 97.5546 -0.734337 1.39446 0
M  V30 1066 C 98.8316 -1.48579 1.27215 0
M  V30 1067 C 99.2116 -2.1077 -0.117968 0
M  V30 1068 O 98.5596 -1.98646 -1.12924 0
M  V30 1069 C 98.7696 -2.53667 2.39696 0
M  V30 1070 C 100.118 -3.20031 2.79044 0
M  V30 1071 O 101.142 -2.6398 2.39151 0
M  V30 1072 O 100.001 -4.21455 3.47905 0
M  V30 1073 H 97.0946 -0.659816 0.49857 0
M  V30 1074 H 99.6406 -0.768106 1.51322 0
M  V30 1075 H 98.4126 -2.06096 3.32626 0
M  V30 1076 H 98.0356 -3.32994 2.17258 0
M  V30 1077 N 99.0327 -1.24633 -0.964593 0
M  V30 1078 C 99.9627 -1.06611 -2.07741 0
M  V30 1079 C 100.944 0.0218666 -1.70086 0
M  V30 1080 O 102.129 -0.145793 -1.93652 0
M  V30 1081 C 99.2587 -0.673444 -3.40708 0
M  V30 1082 C 98.2127 -1.71054 -3.92332 0
M  V30 1083 C 97.5387 -1.17285 -5.21678 0
M  V30 1084 C 98.8387 -3.10718 -4.19824 0
M  V30 1085 H 100.533 -1.99693 -2.23076 0
M  V30 1086 H 98.0787 -0.96152 -1.07195 0
M  V30 1087 H 100.032 -0.534345 -4.17998 0
M  V30 1088 H 98.7557 0.293073 -3.25282 0
M  V30 1089 H 97.4147 -1.83791 -3.17201 0
M  V30 1090 H 97.0627 -0.196847 -5.02615 0
M  V30 1091 H 96.7627 -1.86592 -5.57187 0
M  V30 1092 H 98.2867 -1.04593 -6.01575 0
M  V30 1093 H 99.7007 -3.01192 -4.87808 0
M  V30 1094 H 98.0977 -3.77406 -4.66567 0
M  V30 1095 H 99.1677 -3.58524 -3.26479 0
M  V30 1096 N 100.511 1.16574 -1.06058 0
M  V30 1097 C 101.757 1.87324 -0.777022 0
M  V30 1098 C 102.09 1.81351 0.694645 0
M  V30 1099 O 101.365 1.22753 1.50871 0
M  V30 1100 C 101.648 3.36991 -1.26922 0
M  V30 1101 C 101.501 3.51667 -2.80447 0
M  V30 1102 C 102.82 4.3131 -0.87521 0
M  V30 1103 H 99.9388 0.680191 -0.28374 0
M  V30 1104 H 102.581 1.37036 -1.3161 0
M  V30 1105 H 100.731 3.79949 -0.81063 0
M  V30 1106 H 102.403 3.17664 -3.34495 0
M  V30 1107 H 100.646 2.93656 -3.19294 0
M  V30 1108 H 101.317 4.56766 -3.0995 0
M  V30 1109 H 103.793 3.9624 -1.27014 0
M  V30 1110 H 102.669 5.34545 -1.2471 0
M  V30 1111 H 102.93 4.41552 0.220071 0
M  V30 1112 N 101.989 0.842826 1.3317 0
M  V30 1113 C 103.219 0.453397 2.01564 0
M  V30 1114 C 103.627 -0.951147 1.63554 0
M  V30 1115 O 102.97 -1.63021 0.846746 0
M  V30 1116 C 103.032 0.499013 3.5602 0
M  V30 1117 C 102.696 1.86037 4.1742 0
M  V30 1118 C 103.693 2.82416 4.36506 0
M  V30 1119 C 101.378 2.15428 4.53757 0
M  V30 1120 C 103.372 4.06346 4.91082 0
M  V30 1121 C 101.059 3.39615 5.0804 0
M  V30 1122 C 102.057 4.3489 5.26649 0
M  V30 1123 O 101.745 5.5688 5.79776 0
M  V30 1124 H 101.477 0.177871 0.652179 0
M  V30 1125 H 104.031 1.13808 1.70988 0
M  V30 1126 H 102.261 -0.242467 3.85939 0
M  V30 1127 H 103.95 0.126852 4.05702 0
M  V30 1128 H 104.716 2.6101 4.08777 0
M  V30 1129 H 100.595 1.42061 4.38565 0
M  V30 1130 H 104.139 4.80722 5.05522 0
M  V30 1131 H 100.036 3.60876 5.352 0
M  V30 1132 H 100.804 5.58674 5.98185 0
M  V30 1133 N 103.467 -1.45747 0.599634 0
M  V30 1134 C 104.417 -2.27538 -0.145107 0
M  V30 1135 C 105.401 -1.3686 -0.846055 0
M  V30 1136 O 106.593 -1.6091 -0.737357 0
M  V30 1137 C 103.722 -3.23569 -1.14708 0
M  V30 1138 C 102.808 -4.21734 -0.447383 0
M  V30 1139 N 103.199 -5.03257 0.506535 0
M  V30 1140 C 101.497 -4.40536 -0.695966 0
M  V30 1141 C 102.198 -5.74426 0.917068 0
M  V30 1142 N 101.174 -5.42966 0.26253 0
M  V30 1143 H 104.976 -2.87965 0.587672 0
M  V30 1144 H 102.49 -1.56803 0.422697 0
M  V30 1145 H 104.487 -3.8089 -1.69495 0
M  V30 1146 H 103.147 -2.64702 -1.8805 0
M  V30 1147 H 104.158 -5.10319 0.882899 0
M  V30 1148 H 100.835 -3.92802 -1.41467 0
M  V30 1149 H 102.225 -6.4995 1.70338 0
M  V30 1150 N 104.945 -0.338344 -1.53925 0
M  V30 1151 C 106.173 0.261298 -2.05243 0
M  V30 1152 C 106.588 1.44625 -1.21363 0
M  V30 1153 O 105.945 1.80811 -0.247736 0
M  V30 1154 C 105.996 0.681412 -3.5502 0
M  V30 1155 O 105.717 -0.456414 -4.35716 0
M  V30 1156 C 107.218 1.34232 -4.22489 0
M  V30 1157 H 104.438 0.0513685 -0.669031 0
M  V30 1158 H 106.982 -0.488822 -1.98572 0
M  V30 1159 H 105.137 1.38148 -3.61931 0
M  V30 1160 H 105.551 -0.122564 -5.24357 0
M  V30 1161 H 107.025 1.58708 -5.28693 0
M  V30 1162 H 107.502 2.29426 -3.74514 0
M  V30 1163 H 108.108 0.684424 -4.19757 0
M  V30 1164 N 106.423 1.57458 -0.0668435 0
M  V30 1165 C 107.371 2.13639 0.919851 0
M  V30 1166 C 108.365 1.07204 1.31163 0
M  V30 1167 O 109.571 1.25591 1.28945 0
M  V30 1168 H 105.946 0.683048 0.314562 0
M  V30 1169 H 107.917 2.95415 0.421047 0
M  V30 1170 C 106.666 2.70892 2.17975 0
M  V30 1171 H 105.989 3.5246 1.88711 0
M  V30 1172 H 107.429 3.13803 2.85138 0
M  V30 1173 C 105.888 1.65414 2.93496 0
M  V30 1174 O 106.418 1.07619 3.87015 0
M  V30 1175 N 104.624 1.36564 2.56512 0
M  V30 1176 H 104.171 1.83751 1.80536 0
M  V30 1177 H 104.129 0.66223 3.07347 0
M  V30 1178 N 107.901 -0.206675 1.56239 0
M  V30 1179 C 109.147 -0.930218 1.80208 0
M  V30 1180 C 109.48 -1.83387 0.638981 0
M  V30 1181 O 108.755 -1.91119 -0.361066 0
M  V30 1182 C 109.038 -1.75641 3.1436 0
M  V30 1183 C 108.891 -0.878257 4.41142 0
M  V30 1184 C 110.21 -2.73129 3.45092 0
M  V30 1185 H 107.329 -0.336742 0.655571 0
M  V30 1186 H 109.971 -0.198222 1.88963 0
M  V30 1187 H 108.121 -2.38048 3.07027 0
M  V30 1188 H 109.793 -0.269787 4.6051 0
M  V30 1189 H 108.036 -0.184385 4.33408 0
M  V30 1190 H 108.707 -1.49106 5.3148 0
M  V30 1191 H 111.183 -2.20856 3.52649 0
M  V30 1192 H 110.059 -3.28028 4.40101 0
M  V30 1193 H 110.32 -3.51606 2.68003 0
M  V30 1194 N 109.379 -1.50304 -0.473955 0
M  V30 1195 C 110.625 -1.61389 -1.22806 0
M  V30 1196 C 110.958 -0.311955 -1.91678 0
M  V30 1197 O 110.233 0.686384 -1.81986 0
M  V30 1198 C 110.516 -2.79219 -2.27396 0
M  V30 1199 C 110.369 -4.19286 -1.62848 0
M  V30 1200 C 111.688 -2.92614 -3.28732 0
M  V30 1201 H 108.807 -0.587399 -0.445119 0
M  V30 1202 H 111.449 -1.82681 -0.522265 0
M  V30 1203 H 109.599 -2.61195 -2.87592 0
M  V30 1204 H 111.271 -4.48892 -1.06271 0
M  V30 1205 H 109.514 -4.23677 -0.931693 0
M  V30 1206 H 110.185 -4.97655 -2.38838 0
M  V30 1207 H 112.661 -3.09105 -2.78556 0
M  V30 1208 H 111.537 -3.76688 -3.99246 0
M  V30 1209 H 111.798 -2.03107 -3.92683 0
M  V30 1210 N 110.857 0.726932 -1.39834 0
M  V30 1211 C 112.105 1.4837 -1.37225 0
M  V30 1212 C 112.426 1.94979 0.0284857 0
M  V30 1213 O 111.696 1.69555 0.981213 0
M  V30 1214 H 110.276 0.55043 -0.505011 0
M  V30 1215 H 112.938 0.862468 -1.74778 0
M  V30 1216 H 112.034 2.36198 -2.04003 0
M  V30 1217 N 112.336 1.25143 0.95797 0
M  V30 1218 C 113.752 1.01892 1.22842 0
M  V30 1219 C 113.952 -0.266311 1.99732 0
M  V30 1220 O 113.008 -0.979913 2.3271 0
M  V30 1221 C 114.321 2.24004 2.00606 0
M  V30 1222 C 115.869 2.28731 2.13662 0
M  V30 1223 C 116.344 3.5049 2.94823 0
M  V30 1224 N 117.835 3.50866 3.02403 0
M  V30 1225 C 118.57 4.4174 3.65586 0
M  V30 1226 N 118.066 5.42882 4.30408 0
M  V30 1227 N 119.859 4.29429 3.62694 0
M  V30 1228 H 112.01 2.07718 0.443493 0
M  V30 1229 H 114.273 0.912031 0.258657 0
M  V30 1230 H 113.979 3.17395 1.51503 0
M  V30 1231 H 113.853 2.26907 3.01319 0
M  V30 1232 H 116.24 1.35865 2.61963 0
M  V30 1233 H 116.321 2.29848 1.12265 0
M  V30 1234 H 115.965 4.43676 2.47213 0
M  V30 1235 H 115.895 3.46617 3.96439 0
M  V30 1236 H 118.386 2.777 2.56302 0
M  V30 1237 H 118.699 6.0844 4.76467 0
M  V30 1238 H 117.044 5.46758 4.29047 0
M  V30 1239 H 120.235 3.49643 3.11236 0
M  V30 1240 H 120.408 5.00448 4.1165 0
M  V30 1241 N 113.814 -1.1601 1.06675 0
M  V30 1242 C 114.744 -2.22688 0.702307 0
M  V30 1243 C 115.725 -1.67306 -0.307032 0
M  V30 1244 O 116.91 -1.93352 -0.181305 0
M  V30 1245 C 114.04 -3.47178 0.092038 0
M  V30 1246 C 112.994 -4.15477 1.02777 0
M  V30 1247 C 112.32 -5.33963 0.28061 0
M  V30 1248 C 113.62 -4.66019 2.35846 0
M  V30 1249 H 115.314 -2.53429 1.59419 0
M  V30 1250 H 112.86 -1.21813 0.767961 0
M  V30 1251 H 114.813 -4.21037 -0.174814 0
M  V30 1252 H 113.537 -3.15749 -0.834877 0
M  V30 1253 H 112.196 -3.43549 1.27944 0
M  V30 1254 H 111.844 -4.98788 -0.649545 0
M  V30 1255 H 111.544 -5.806 0.904258 0
M  V30 1256 H 113.068 -6.10596 0.021396 0
M  V30 1257 H 114.482 -5.3144 2.15045 0
M  V30 1258 H 112.879 -5.23293 2.93743 0
M  V30 1259 H 113.949 -3.82023 2.98641 0
M  V30 1260 N 115.292 -0.849877 -1.32721 0
M  V30 1261 C 116.708 -0.539102 -1.50219 0
M  V30 1262 C 116.908 0.931271 -1.78689 0
M  V30 1263 O 115.964 1.71455 -1.85363 0
M  V30 1264 C 117.277 -1.42196 -2.64954 0
M  V30 1265 C 118.825 -1.42189 -2.78839 0
M  V30 1266 C 119.3 -2.28985 -3.96648 0
M  V30 1267 N 120.791 -2.26754 -4.03902 0
M  V30 1268 C 121.526 -2.90644 -4.94281 0
M  V30 1269 N 121.022 -3.63629 -5.897 0
M  V30 1270 N 122.815 -2.80057 -4.87365 0
M  V30 1271 H 114.966 -1.80156 -1.12506 0
M  V30 1272 H 117.229 -0.769217 -0.554085 0
M  V30 1273 H 116.935 -2.46733 -2.50631 0
M  V30 1274 H 116.809 -1.10591 -3.60624 0
M  V30 1275 H 119.196 -0.38419 -2.92588 0
M  V30 1276 H 119.277 -1.77807 -1.83898 0
M  V30 1277 H 118.921 -3.32819 -3.83658 0
M  V30 1278 H 118.851 -1.90702 -4.90857 0
M  V30 1279 H 121.342 -1.73688 -3.3562 0
M  V30 1280 H 121.655 -4.09558 -6.55349 0
M  V30 1281 H 120 -3.67737 -5.89741 0
M  V30 1282 H 123.191 -2.22593 -4.11789 0
M  V30 1283 H 123.364 -3.30132 -5.57599 0
M  V30 1284 N 116.77 1.45427 -0.607355 0
M  V30 1285 C 117.733 2.28974 0.101693 0
M  V30 1286 C 118.733 1.39754 0.795329 0
M  V30 1287 O 119.923 1.61878 0.643527 0
M  V30 1288 C 117.055 3.20768 1.15414 0
M  V30 1289 H 118.248 2.93147 -0.632844 0
M  V30 1290 H 115.801 1.51945 -0.366391 0
M  V30 1291 H 116.536 2.61395 1.91945 0
M  V30 1292 H 116.321 3.86489 0.66098 0
M  V30 1293 H 117.811 3.83589 1.65073 0
M  V30 1294 N 118.248 0.346503 1.53744 0
M  V30 1295 C 119.196 -0.52422 2.26616 0
M  V30 1296 C 120.19 -1.09948 1.28871 0
M  V30 1297 O 121.396 -1.04488 1.46568 0
M  V30 1298 H 117.771 -0.187743 0.728187 0
M  V30 1299 H 119.742 0.11239 2.98188 0
M  V30 1300 C 118.491 -1.66186 3.05414 0
M  V30 1301 H 117.814 -1.22848 3.80458 0
M  V30 1302 H 119.254 -2.24622 3.59612 0
M  V30 1303 C 117.713 -2.59302 2.1509 0
M  V30 1304 O 118.243 -3.61628 1.74895 0
M  V30 1305 N 116.449 -2.28055 1.8011 0
M  V30 1306 H 115.996 -1.44883 2.12994 0
M  V30 1307 H 115.954 -2.90615 1.19958 0
M  V30 1308 N 119.726 -1.57421 0.075193 0
M  V30 1309 C 120.689 -2.11791 -0.876203 0
M  V30 1310 C 121.689 -1.04268 -1.22412 0
M  V30 1311 O 122.879 -1.30242 -1.15684 0
M  V30 1312 C 120.011 -2.62207 -2.17854 0
M  V30 1313 H 121.204 -2.9716 -0.40444 0
M  V30 1314 H 118.757 -1.55333 -0.173557 0
M  V30 1315 H 119.492 -1.803 -2.6956 0
M  V30 1316 H 119.277 -3.40802 -1.93897 0
M  V30 1317 H 120.767 -3.04335 -2.85955 0
M  V30 1318 N 121.204 0.198386 -1.56346 0
M  V30 1319 C 122.452 0.91747 -1.80075 0
M  V30 1320 C 122.773 1.83929 -0.647692 0
M  V30 1321 O 122.043 1.93029 0.334166 0
M  V30 1322 H 120.623 0.341774 -0.664228 0
M  V30 1323 H 123.285 0.204684 -1.93822 0
M  V30 1324 H 122.381 1.51055 -2.7311 0
M  V30 1325 N 122.682 1.50554 0.465978 0
M  V30 1326 C 123.614 1.65949 1.58093 0
M  V30 1327 C 124.627 0.540827 1.53554 0
M  V30 1328 O 125.816 0.814187 1.5885 0
M  V30 1329 C 122.916 1.63261 2.96983 0
M  V30 1330 C 122.089 2.91245 3.26336 0
M  V30 1331 C 121.148 2.8113 4.44806 0
M  V30 1332 O 120.174 3.55086 4.44862 0
M  V30 1333 N 121.376 1.95032 5.46756 0
M  V30 1334 H 124.141 2.62122 1.45301 0
M  V30 1335 H 121.702 1.48082 0.65448 0
M  V30 1336 H 123.694 1.54101 3.74212 0
M  V30 1337 H 122.264 0.748032 3.03518 0
M  V30 1338 H 121.484 3.14493 2.37672 0
M  V30 1339 H 122.772 3.76022 3.42761 0
M  V30 1340 H 122.17 1.3427 5.49534 0
M  V30 1341 H 120.727 1.91772 6.2295 0
M  V30 1342 N 124.16 -0.719506 1.40217 0
M  V30 1343 C 125.408 -1.47641 1.3801 0
M  V30 1344 C 125.729 -1.94992 -0.018145 0
M  V30 1345 O 124.999 -1.70073 -0.972207 0
M  V30 1346 H 123.579 -0.547744 0.507923 0
M  V30 1347 H 126.241 -0.853187 1.75233 0
M  V30 1348 H 125.337 -2.35112 2.05253 0
M  V30 1349 N 125.638 -1.25649 -0.95132 0
M  V30 1350 C 126.588 -1.03004 -2.03406 0
M  V30 1351 C 127.572 0.034187 -1.60864 0
M  V30 1352 O 128.764 -0.181549 -1.76066 0
M  V30 1353 C 125.893 -0.654255 -3.37008 0
M  V30 1354 C 124.979 -1.75542 -3.86065 0
M  V30 1355 N 125.37 -2.99113 -4.07879 0
M  V30 1356 C 123.668 -1.63669 -4.14884 0
M  V30 1357 C 124.369 -3.70611 -4.48356 0
M  V30 1358 N 123.345 -2.98247 -4.54477 0
M  V30 1359 H 127.147 -1.96813 -2.1827 0
M  V30 1360 H 124.661 -1.16017 -1.13639 0
M  V30 1361 H 126.658 -0.473206 -4.14206 0
M  V30 1362 H 125.318 0.276468 -3.23521 0
M  V30 1363 H 126.329 -3.35124 -3.94857 0
M  V30 1364 H 123.006 -0.775161 -4.10241 0
M  V30 1365 H 124.396 -4.76695 -4.73509 0
M  V30 1366 N 127.117 1.15442 -1.07289 0
M  V30 1367 C 128.528 1.67803 -0.818475 0
M  V30 1368 C 128.879 1.8489 0.656507 0
M  V30 1369 O 128.004 1.55176 1.50829 0
M  V30 1370 C 128.599 3.04805 -1.47917 0
M  V30 1371 C 127.158 3.54245 -1.27229 0
M  V30 1372 C 126.305 2.29986 -1.54925 0
M  V30 1373 H 129.256 0.996646 -1.23502 0
M  V30 1374 H 129.277 3.69702 -0.90005 0
M  V30 1375 H 128.789 2.92336 -2.55267 0
M  V30 1376 H 126.89 3.71956 -0.21899 0
M  V30 1377 H 127.003 4.35723 -1.99203 0
M  V30 1378 H 125.367 2.35496 -0.970242 0
M  V30 1379 H 126.15 2.20105 -2.63455 0
M  V30 1380 N 128.595 0.856903 1.32268 0
M  V30 1381 C 129.558 0.308171 2.27119 0
M  V30 1382 C 130.558 -0.533421 1.51695 0
M  V30 1383 O 131.748 -0.344607 1.70757 0
M  V30 1384 C 128.88 -0.563757 3.36206 0
M  V30 1385 H 130.073 1.14535 2.77167 0
M  V30 1386 H 127.626 0.631421 1.42978 0
M  V30 1387 H 128.361 -1.42266 2.91429 0
M  V30 1388 H 128.146 0.0386749 3.92081 0
M  V30 1389 H 129.636 -0.940386 4.06874 0
M  V30 1390 N 130.073 -1.45103 0.615059 0
M  V30 1391 C 131.301 -2.06553 0.11977 0
M  V30 1392 C 131.716 -1.45842 -1.19898 0
M  V30 1393 O 131.073 -0.575325 -1.73194 0
M  V30 1394 C 131.124 -3.61495 -0.018364 0
M  V30 1395 O 130.845 -4.19942 1.24822 0
M  V30 1396 C 132.346 -4.39947 -0.544237 0
M  V30 1397 H 129.566 -0.667096 0.0722739 0
M  V30 1398 H 132.11 -1.8623 0.84491 0
M  V30 1399 H 130.265 -3.81135 -0.693865 0
M  V30 1400 H 130.679 -5.13204 1.0827 0
M  V30 1401 H 132.153 -5.48838 -0.589953 0
M  V30 1402 H 132.63 -4.10255 -1.56805 0
M  V30 1403 H 133.236 -4.25188 0.0974703 0
M  V30 1404 N 131.551 -0.354651 -1.53558 0
M  V30 1405 C 132.481 0.489091 -2.2832 0
M  V30 1406 C 133.462 1.09324 -1.30316 0
M  V30 1407 O 134.647 1.11255 -1.59173 0
M  V30 1408 C 131.777 1.63456 -3.0643 0
M  V30 1409 C 130.731 1.1582 -4.12031 0
M  V30 1410 C 130.057 2.39305 -4.7816 0
M  V30 1411 C 131.357 0.250731 -5.21698 0
M  V30 1412 H 133.051 -0.134614 -2.99097 0
M  V30 1413 H 130.597 -0.0661826 -1.43848 0
M  V30 1414 H 132.55 2.23136 -3.57475 0
M  V30 1415 H 131.274 2.28533 -2.33325 0
M  V30 1416 H 129.933 0.584146 -3.61916 0
M  V30 1417 H 129.581 3.02814 -4.01637 0
M  V30 1418 H 129.281 2.08109 -5.49513 0
M  V30 1419 H 130.805 2.99691 -5.31994 0
M  V30 1420 H 132.219 0.754695 -5.68311 0
M  V30 1421 H 130.616 0.0301468 -6.00092 0
M  V30 1422 H 131.686 -0.710125 -4.79672 0
M  V30 1423 N 133.029 1.57378 -0.0835403 0
M  V30 1424 C 133.939 2.16897 0.894021 0
M  V30 1425 C 134.955 1.13528 1.31861 0
M  V30 1426 O 136.131 1.45848 1.3889 0
M  V30 1427 C 133.196 2.72831 2.13925 0
M  V30 1428 C 132.257 3.91115 1.76997 0
M  V30 1429 C 131.49 4.44371 2.95584 0
M  V30 1430 O 131.713 3.96596 4.09961 0
M  V30 1431 O 130.647 5.35549 2.74719 0
M  V30 1432 H 134.473 3.00814 0.417679 0
M  V30 1433 H 132.058 1.48741 0.140181 0
M  V30 1434 H 133.94 3.0863 2.86924 0
M  V30 1435 H 132.615 1.91967 2.60635 0
M  V30 1436 H 131.522 3.60148 1.01214 0
M  V30 1437 H 132.855 4.73307 1.3506 0
M  V30 1438 N 134.507 -0.190092 1.56449 0
M  V30 1439 C 135.753 -0.911052 1.81184 0
M  V30 1440 C 136.086 -1.82699 0.658396 0
M  V30 1441 O 135.361 -1.91491 -0.340775 0
M  V30 1442 C 135.644 -1.72297 3.16205 0
M  V30 1443 C 135.497 -0.831419 4.42049 0
M  V30 1444 C 136.816 -2.69454 3.47969 0
M  V30 1445 H 133.935 -0.32977 0.659106 0
M  V30 1446 H 136.577 -0.178169 1.89163 0
M  V30 1447 H 134.727 -2.34778 3.09534 0
M  V30 1448 H 136.399 -0.220929 4.60771 0
M  V30 1449 H 134.642 -0.138406 4.33579 0
M  V30 1450 H 135.313 -1.43461 5.33032 0
M  V30 1451 H 137.789 -2.17104 3.54972 0
M  V30 1452 H 136.665 -3.23342 4.43555 0
M  V30 1453 H 136.926 -3.48744 2.71717 0
M  V30 1454 N 135.985 -1.50799 -0.457987 0
M  V30 1455 C 137.21 -1.66496 -1.23668 0
M  V30 1456 C 137.635 -0.353288 -1.84752 0
M  V30 1457 O 136.993 0.684346 -1.67888 0
M  V30 1458 C 137.041 -2.76763 -2.3116 0
M  V30 1459 O 136.145 -2.38928 -3.36136 0
M  V30 1460 H 135.486 -0.555828 -0.363252 0
M  V30 1461 H 138.016 -1.9725 -0.543474 0
M  V30 1462 H 138.026 -3.00232 -2.76269 0
M  V30 1463 H 136.701 -3.71954 -1.86073 0
M  V30 1464 H 135.278 -2.25953 -2.96647 0
M  V30 1465 N 137.463 0.71206 -1.40597 0
M  V30 1466 C 138.373 1.8562 -1.43466 0
M  V30 1467 C 139.389 1.70902 -0.326902 0
M  V30 1468 O 140.565 1.93105 -0.572043 0
M  V30 1469 C 137.63 3.21451 -1.29884 0
M  V30 1470 C 136.691 3.48398 -2.50833 0
M  V30 1471 C 135.924 4.77749 -2.3789 0
M  V30 1472 O 136.147 5.53089 -1.39459 0
M  V30 1473 O 135.081 5.05111 -3.27333 0
M  V30 1474 H 138.907 1.86155 -2.39958 0
M  V30 1475 H 136.492 0.86295 -1.21957 0
M  V30 1476 H 138.374 4.02579 -1.24531 0
M  V30 1477 H 137.049 3.21636 -0.364997 0
M  V30 1478 H 135.956 2.67265 -2.61763 0
M  V30 1479 H 137.289 3.53014 -3.4299 0
M  V30 1480 N 138.941 1.26152 0.944643 0
M  V30 1481 C 140.19 1.10883 1.68487 0
M  V30 1482 C 140.503 -0.348153 1.92477 0
M  V30 1483 O 141.709 -0.621459 2.64292 0
M  V30 1484 C 140.165 1.93624 3.03377 0
M  V30 1485 C 139.773 3.43875 2.87148 0
M  V30 1486 C 141.517 1.86954 3.81115 0
M  V30 1487 C 139.424 4.18875 4.1749 0
M  V30 1488 H 138.354 0.41135 0.631907 0
M  V30 1489 H 141.005 1.50433 1.05082 0
M  V30 1490 H 139.387 1.46904 3.67743 0
M  V30 1491 H 140.561 3.98338 2.31653 0
M  V30 1492 H 138.876 3.51744 2.22856 0
M  V30 1493 H 141.473 2.40275 4.77673 0
M  V30 1494 H 141.816 0.839518 4.07747 0
M  V30 1495 H 142.349 2.31477 3.23517 0
M  V30 1496 H 139.088 5.22332 3.96043 0
M  V30 1497 H 138.608 3.69193 4.72712 0
M  V30 1498 H 140.287 4.27134 4.85968 0
M  V30 1499 N 140.419 -1.14872 1.07899 0
M  V30 1500 C 141.667 -1.85422 0.803941 0
M  V30 1501 C 141.988 -1.83051 -0.67211 0
M  V30 1502 O 141.258 -1.27532 -1.48703 0
M  V30 1503 H 139.838 -0.686537 0.294408 0
M  V30 1504 H 142.5 -1.39226 1.3639 0
M  V30 1505 H 141.596 -2.90399 1.14346 0
M  V30 1506 N 141.898 -0.863906 -1.31812 0
M  V30 1507 C 142.83 -0.272485 -2.27575 0
M  V30 1508 C 143.843 0.56104 -1.52827 0
M  V30 1509 O 145.032 0.384021 -1.7432 0
M  V30 1510 C 142.132 0.63283 -3.32939 0
M  V30 1511 C 141.305 -0.166902 -4.37081 0
M  V30 1512 C 140.364 0.665608 -5.21973 0
M  V30 1513 O 139.39 0.0958091 -5.69119 0
M  V30 1514 N 140.592 1.9787 -5.45736 0
M  V30 1515 H 143.357 -1.0954 -2.78964 0
M  V30 1516 H 140.918 -0.724791 -1.4477 0
M  V30 1517 H 142.91 1.19532 -3.86645 0
M  V30 1518 H 141.48 1.35642 -2.81638 0
M  V30 1519 H 140.7 -0.910838 -3.83533 0
M  V30 1520 H 141.988 -0.715874 -5.03739 0
M  V30 1521 H 141.386 2.46484 -5.09178 0
M  V30 1522 H 139.943 2.48911 -6.024 0
M  V30 1523 N 143.376 1.44774 -0.622745 0
M  V30 1524 C 144.623 2.02121 -0.1239 0
M  V30 1525 C 144.951 1.48915 1.25118 0
M  V30 1526 O 144.206 0.660045 1.84233 0
M  V30 1527 C 144.505 3.57364 -0.0508323 0
M  V30 1528 C 144.171 4.29787 -1.36358 0
M  V30 1529 C 142.833 4.4929 -1.72314 0
M  V30 1530 C 145.185 4.71062 -2.23048 0
M  V30 1531 C 142.513 5.07325 -2.94682 0
M  V30 1532 C 144.865 5.30452 -3.44679 0
M  V30 1533 C 143.529 5.48175 -3.80868 0
M  V30 1534 H 142.799 0.739612 -0.0453381 0
M  V30 1535 H 145.446 1.73648 -0.807389 0
M  V30 1536 H 143.751 3.85202 0.715991 0
M  V30 1537 H 145.448 3.99456 0.351533 0
M  V30 1538 H 142.038 4.14932 -1.07375 0
M  V30 1539 H 146.222 4.55715 -1.96565 0
M  V30 1540 H 141.478 5.19235 -3.22809 0
M  V30 1541 H 145.652 5.61385 -4.12092 0
M  V30 1542 H 143.279 5.92912 -4.75773 0
M  V30 1543 N 144.854 0.36279 1.53368 0
M  V30 1544 C 145.784 -0.476976 2.28576 0
M  V30 1545 C 146.765 -1.08631 1.30894 0
M  V30 1546 O 147.95 -1.10409 1.59761 0
M  V30 1547 C 145.08 -1.61828 3.07293 0
M  V30 1548 C 144.034 -1.13633 4.1264 0
M  V30 1549 C 143.36 -2.36766 4.79423 0
M  V30 1550 C 144.66 -0.223061 5.21823 0
M  V30 1551 H 146.354 0.150474 2.99022 0
M  V30 1552 H 143.9 0.0738103 1.43811 0
M  V30 1553 H 145.853 -2.21237 3.58653 0
M  V30 1554 H 144.577 -2.27292 2.34533 0
M  V30 1555 H 143.236 -0.564945 3.62221 0
M  V30 1556 H 142.884 -3.0068 4.03238 0
M  V30 1557 H 142.584 -2.05192 5.50609 0
M  V30 1558 H 144.108 -2.96865 5.33576 0
M  V30 1559 H 145.522 -0.724545 5.68703 0
M  V30 1560 H 143.919 0.001678 6.001 0
M  V30 1561 H 144.989 0.735553 4.79289 0
M  V30 1562 N 146.332 -1.57332 0.0918853 0
M  V30 1563 C 147.743 -1.81496 -0.437739 0
M  V30 1564 C 148.094 -1.00727 -1.6837 0
M  V30 1565 O 147.219 -0.235694 -2.15113 0
M  V30 1566 C 147.814 -3.29197 -0.800939 0
M  V30 1567 C 146.373 -3.54136 -1.27532 0
M  V30 1568 C 145.52 -2.75979 -0.270392 0
M  V30 1569 H 148.471 -1.55494 0.317366 0
M  V30 1570 H 148.492 -3.42344 -1.66074 0
M  V30 1571 H 148.004 -3.87955 0.106078 0
M  V30 1572 H 146.105 -3.00705 -2.20016 0
M  V30 1573 H 146.218 -4.62792 -1.23938 0
M  V30 1574 H 144.582 -2.43349 -0.751872 0
M  V30 1575 H 145.365 -3.37484 0.629248 0
M  V30 1576 N 147.81 0.181792 -1.56548 0
M  V30 1577 C 149.035 0.920019 -1.85877 0
M  V30 1578 C 149.46 1.75494 -0.677021 0
M  V30 1579 O 148.818 1.77399 0.374056 0
M  V30 1580 C 148.866 1.78112 -3.13542 0
M  V30 1581 O 147.97 2.88152 -2.95029 0
M  V30 1582 H 147.311 0.258334 -0.611686 0
M  V30 1583 H 149.841 0.183092 -2.03779 0
M  V30 1584 H 149.851 2.18314 -3.44678 0
M  V30 1585 H 148.526 1.16777 -3.99169 0
M  V30 1586 H 147.103 2.51609 -2.75222 0
M  V30 1587 N 149.288 1.51039 0.449983 0
M  V30 1588 C 150.236 1.71995 1.5659 0
M  V30 1589 C 151.23 0.586029 1.5894 0
M  V30 1590 O 152.436 0.76709 1.62837 0
M  V30 1591 H 148.811 0.543233 0.520001 0
M  V30 1592 H 150.782 2.65562 1.36085 0
M  V30 1593 C 149.531 1.8506 2.9436 0
M  V30 1594 H 148.854 2.71712 2.93279 0
M  V30 1595 H 150.294 2.0374 3.71842 0
M  V30 1596 C 148.753 0.607277 3.31382 0
M  V30 1597 O 149.283 -0.243903 4.00959 0
M  V30 1598 N 147.489 0.455073 2.87015 0
M  V30 1599 H 147.036 1.14879 2.30566 0
M  V30 1600 H 146.994 -0.375611 3.12148 0
M  V30 1601 N 150.766 -0.704594 1.40972 0
M  V30 1602 C 151.991 -1.49858 1.43378 0
M  V30 1603 C 152.416 -1.88061 0.038184 0
M  V30 1604 O 151.774 -1.5402 -0.956425 0
M  V30 1605 C 151.822 -2.74333 2.34038 0
M  V30 1606 O 150.926 -3.7147 1.7912 0
M  V30 1607 H 150.267 -0.45139 0.486974 0
M  V30 1608 H 152.797 -0.866832 1.8533 0
M  V30 1609 H 152.807 -3.22741 2.49604 0
M  V30 1610 H 151.482 -2.45863 3.35446 0
M  V30 1611 H 150.059 -3.30363 1.72958 0
M  V30 1612 N 152.244 -1.26651 -0.937939 0
M  V30 1613 C 153.655 -1.1125 -1.49934 0
M  V30 1614 C 154.006 0.306077 -1.93798 0
M  V30 1615 O 153.131 1.19792 -1.80219 0
M  V30 1616 C 153.726 -2.01339 -2.72485 0
M  V30 1617 C 152.285 -1.90074 -3.24883 0
M  V30 1618 C 151.432 -1.94498 -1.97651 0
M  V30 1619 H 154.383 -1.39693 -0.753091 0
M  V30 1620 H 154.404 -1.56319 -3.46907 0
M  V30 1621 H 153.916 -3.04577 -2.40529 0
M  V30 1622 H 152.017 -0.897827 -3.61621 0
M  V30 1623 H 152.13 -2.75778 -3.9177 0
M  V30 1624 H 150.494 -1.38591 -2.13693 0
M  V30 1625 H 151.277 -2.99372 -1.68022 0
M  V30 1626 N 153.722 1.14298 -1.08507 0
M  V30 1627 C 154.652 2.21542 -0.737646 0
M  V30 1628 C 155.633 1.67773 0.280377 0
M  V30 1629 O 156.818 1.93616 0.150521 0
M  V30 1630 C 153.948 3.46988 -0.147259 0
M  V30 1631 C 152.902 4.13789 -1.09374 0
M  V30 1632 C 152.228 5.33449 -0.365524 0
M  V30 1633 C 153.528 4.62208 -2.4323 0
M  V30 1634 H 155.222 2.5086 -1.6343 0
M  V30 1635 H 152.768 1.20576 -0.787243 0
M  V30 1636 H 154.721 4.21262 0.107808 0
M  V30 1637 H 153.445 3.17037 0.784538 0
M  V30 1638 H 152.104 3.4147 -1.33393 0
M  V30 1639 H 151.752 4.99759 0.57011 0
M  V30 1640 H 151.452 5.79088 -0.996512 0
M  V30 1641 H 152.976 6.10485 -0.118534 0
M  V30 1642 H 154.39 5.27952 -2.23472 0
M  V30 1643 H 152.787 5.18553 -3.02031 0
M  V30 1644 H 153.857 3.77224 -3.04681 0
M  V30 1645 N 155.201 0.870884 1.31352 0
M  V30 1646 C 156.111 0.330783 2.32256 0
M  V30 1647 C 157.127 -0.559767 1.6475 0
M  V30 1648 O 158.303 -0.456263 1.96164 0
M  V30 1649 C 155.368 -0.458137 3.4366 0
M  V30 1650 C 154.429 0.460482 4.26823 0
M  V30 1651 C 153.662 -0.290881 5.32907 0
M  V30 1652 O 153.885 -1.51885 5.49806 0
M  V30 1653 O 152.819 0.351732 6.00871 0
M  V30 1654 H 156.645 1.16718 2.80376 0
M  V30 1655 H 154.23 0.634285 1.35267 0
M  V30 1656 H 156.112 -0.905343 4.1156 0
M  V30 1657 H 154.787 -1.27106 2.97701 0
M  V30 1658 H 153.694 0.956207 3.61673 0
M  V30 1659 H 155.027 1.23903 4.7635 0
M  V30 1660 N 156.679 -1.44442 0.630414 0
M  V30 1661 C 157.609 -2.33418 -0.0618083 0
M  V30 1662 C 158.59 -1.48165 -0.835541 0
M  V30 1663 O 159.775 -1.76886 -0.801564 0
M  V30 1664 C 156.905 -3.31222 -1.04449 0
M  V30 1665 C 155.859 -4.26288 -0.382436 0
M  V30 1666 C 155.185 -5.13954 -1.47497 0
M  V30 1667 C 156.485 -5.1744 0.710865 0
M  V30 1668 H 158.179 -2.91548 0.681184 0
M  V30 1669 H 155.725 -1.40191 0.329026 0
M  V30 1670 H 157.678 -3.92351 -1.53748 0
M  V30 1671 H 156.402 -2.71299 -1.81836 0
M  V30 1672 H 155.061 -3.6649 0.0899054 0
M  V30 1673 H 154.709 -4.50385 -2.2397 0
M  V30 1674 H 154.409 -5.7837 -1.03737 0
M  V30 1675 H 155.933 -5.77955 -1.96979 0
M  V30 1676 H 157.347 -5.72509 0.300996 0
M  V30 1677 H 155.744 -5.90455 1.07156 0
M  V30 1678 H 156.814 -4.58496 1.57829 0
M  V30 1679 N 158.157 -0.370918 -1.53173 0
M  V30 1680 C 159.382 0.220293 -2.06227 0
M  V30 1681 C 159.807 1.41243 -1.24225 0
M  V30 1682 O 159.165 1.79387 -0.262645 0
M  V30 1683 C 159.213 0.586663 -3.55796 0
M  V30 1684 O 158.317 1.68317 -3.76488 0
M  V30 1685 H 157.658 0.0308099 -0.663285 0
M  V30 1686 H 160.188 -0.533068 -1.97534 0
M  V30 1687 H 160.198 0.85617 -3.98916 0
M  V30 1688 H 158.873 -0.285013 -4.14922 0
M  V30 1689 H 157.45 1.40881 -3.45264 0
M  V30 1690 N 159.635 1.57281 -0.100228 0
M  V30 1691 C 160.881 1.94826 0.563101 0
M  V30 1692 C 161.214 0.982475 1.67514 0
M  V30 1693 O 160.489 0.0164069 1.94493 0
M  V30 1694 C 160.772 3.42453 1.11346 0
M  V30 1695 C 160.625 4.498 0.00612081 0
M  V30 1696 C 161.944 3.91506 2.01024 0
M  V30 1697 H 159.063 0.708428 0.203221 0
M  V30 1698 H 161.705 1.8922 -0.171979 0
M  V30 1699 H 159.855 3.47361 1.7399 0
M  V30 1700 H 161.527 4.57 -0.628357 0
M  V30 1701 H 159.77 4.28756 -0.659581 0
M  V30 1702 H 160.441 5.50306 0.432109 0
M  V30 1703 H 162.917 3.88784 1.48278 0
M  V30 1704 H 161.793 4.95358 2.36457 0
M  V30 1705 H 162.054 3.31099 2.92961 0
M  V30 1706 N 161.113 -0.173488 1.56642 0
M  V30 1707 C 162.045 -1.23935 1.92802 0
M  V30 1708 C 163.058 -1.40589 0.820889 0
M  V30 1709 O 164.247 -1.40631 1.09933 0
M  V30 1710 C 161.347 -2.60837 2.16373 0
M  V30 1711 C 160.52 -2.6551 3.47596 0
M  V30 1712 C 159.579 -3.8376 3.60021 0
M  V30 1713 O 158.605 -3.69859 4.32658 0
M  V30 1714 N 159.807 -5.00127 2.94709 0
M  V30 1715 H 162.572 -0.932236 2.84832 0
M  V30 1716 H 160.133 -0.363268 1.57772 0
M  V30 1717 H 162.125 -3.38407 2.21952 0
M  V30 1718 H 160.695 -2.83948 1.30738 0
M  V30 1719 H 159.915 -1.74052 3.53694 0
M  V30 1720 H 161.203 -2.65641 4.33949 0
M  V30 1721 H 160.601 -5.14322 2.35563 0
M  V30 1722 H 159.158 -5.75567 3.05886 0
M  V30 1723 N 162.591 -1.51276 -0.441967 0
M  V30 1724 C 163.821 -1.67273 -1.21257 0
M  V30 1725 C 164.229 -0.367624 -1.85594 0
M  V30 1726 O 163.572 0.663349 -1.71305 0
M  V30 1727 C 163.634 -2.72807 -2.34129 0
M  V30 1728 C 163.298 -4.1554 -1.90198 0
M  V30 1729 C 164.295 -5.00471 -1.40801 0
M  V30 1730 C 161.98 -4.61616 -1.9803 0
M  V30 1731 C 163.974 -6.29536 -0.998174 0
M  V30 1732 C 161.661 -5.90679 -1.56658 0
M  V30 1733 C 162.659 -6.74466 -1.07633 0
M  V30 1734 O 162.347 -8.01116 -0.668459 0
M  V30 1735 H 162.079 -0.564614 -0.371734 0
M  V30 1736 H 164.633 -1.9843 -0.530521 0
M  V30 1737 H 162.863 -2.36954 -3.05597 0
M  V30 1738 H 164.552 -2.77729 -2.96009 0
M  V30 1739 H 165.318 -4.66079 -1.34148 0
M  V30 1740 H 161.197 -3.96526 -2.35135 0
M  V30 1741 H 164.741 -6.94885 -0.61482 0
M  V30 1742 H 160.638 -6.24586 -1.62979 0
M  V30 1743 H 161.406 -8.14633 -0.794722 0
M  V30 1744 N 164.069 0.697108 -1.41344 0
M  V30 1745 C 165.485 1.00751 -1.2378 0
M  V30 1746 C 165.685 2.01105 -0.126066 0
M  V30 1747 O 164.741 2.47295 0.51004 0
M  V30 1748 C 166.054 1.53359 -2.58653 0
M  V30 1749 C 167.602 1.6525 -2.65822 0
M  V30 1750 C 168.077 2.2126 -4.01009 0
M  V30 1751 N 169.568 2.28622 -4.02847 0
M  V30 1752 C 170.303 2.72984 -5.04249 0
M  V30 1753 N 169.799 3.16962 -6.16041 0
M  V30 1754 N 171.592 2.72534 -4.91611 0
M  V30 1755 H 163.743 0.0322662 -2.12375 0
M  V30 1756 H 166.006 0.0768853 -0.944877 0
M  V30 1757 H 165.712 0.870773 -3.4075 0
M  V30 1758 H 165.586 2.51597 -2.81032 0
M  V30 1759 H 167.973 2.30644 -1.84086 0
M  V30 1760 H 168.054 0.655614 -2.47256 0
M  V30 1761 H 167.698 1.56482 -4.83193 0
M  V30 1762 H 167.628 3.21698 -4.16915 0
M  V30 1763 H 170.119 1.97585 -3.22131 0
M  V30 1764 H 170.432 3.49434 -6.89287 0
M  V30 1765 H 168.777 3.14875 -6.1958 0
M  V30 1766 H 171.968 2.37525 -4.0336 0
M  V30 1767 H 172.141 3.06789 -5.70775 0
M  V30 1768 N 165.547 1.27147 0.931209 0
M  V30 1769 C 166.772 1.16191 1.71797 0
M  V30 1770 C 167.197 -0.278004 1.86034 0
M  V30 1771 O 166.555 -1.20137 1.35782 0
M  V30 1772 C 166.603 1.84673 3.09723 0
M  V30 1773 O 165.707 1.14231 3.96264 0
M  V30 1774 H 165.048 0.404303 0.526721 0
M  V30 1775 H 167.578 1.68152 1.1656 0
M  V30 1776 H 167.588 1.91893 3.60057 0
M  V30 1777 H 166.263 2.89421 2.98677 0
M  V30 1778 H 164.84 1.15056 3.54706 0
M  V30 1779 N 167.025 -1.13721 1.09112 0
M  V30 1780 C 168.271 -1.85198 0.826414 0
M  V30 1781 C 168.604 -1.83129 -0.646319 0
M  V30 1782 O 167.879 -1.2671 -1.47563 0
M  V30 1783 C 168.162 -3.33507 1.35812 0
M  V30 1784 C 168.015 -3.44108 2.89672 0
M  V30 1785 C 169.334 -4.28838 0.989256 0
M  V30 1786 H 166.453 -0.67243 0.301675 0
M  V30 1787 H 169.095 -1.33499 1.35197 0
M  V30 1788 H 167.245 -3.77666 0.911082 0
M  V30 1789 H 168.917 -3.08684 3.428 0
M  V30 1790 H 167.16 -2.85087 3.26967 0
M  V30 1791 H 167.831 -4.48388 3.21951 0
M  V30 1792 H 170.307 -3.92734 1.37475 0
M  V30 1793 H 169.183 -5.31051 1.38838 0
M  V30 1794 H 169.444 -4.4198 -0.102924 0
M  V30 1795 N 168.503 -0.877838 -1.30888 0
M  V30 1796 C 169.436 -0.283995 -2.26426 0
M  V30 1797 C 170.414 0.591361 -1.51465 0
M  V30 1798 O 171.598 0.54304 -1.80509 0
M  V30 1799 C 168.725 0.597129 -3.33395 0
M  V30 1800 C 167.771 -0.207937 -4.25993 0
M  V30 1801 S 168.604 -1.59158 -5.11301 0
M  V30 1802 C 169.76 -0.716791 -6.21782 0
M  V30 1803 H 169.993 -1.09383 -2.76446 0
M  V30 1804 H 167.526 -0.676828 -1.38775 0
M  V30 1805 H 169.484 1.09978 -3.95493 0
M  V30 1806 H 168.145 1.38099 -2.82113 0
M  V30 1807 H 167.338 0.464163 -5.01858 0
M  V30 1808 H 166.94 -0.642963 -3.68432 0
M  V30 1809 H 169.232 0.0692833 -6.77465 0
M  V30 1810 H 170.175 -1.44682 -6.93161 0
M  V30 1811 H 170.583 -0.280855 -5.63801 0
M  V30 1812 N 169.982 1.44106 -0.638065 0
M  V30 1813 C 171.228 2.02277 -0.145546 0
M  V30 1814 C 171.561 1.50125 1.23191 0
M  V30 1815 O 170.836 0.688133 1.8192 0
M  V30 1816 C 171.119 3.59829 -0.139791 0
M  V30 1817 C 170.972 4.22247 -1.55008 0
M  V30 1818 C 172.291 4.36873 0.531966 0
M  V30 1819 H 169.41 0.734992 -0.0543632 0
M  V30 1820 H 172.052 1.71592 -0.815863 0
M  V30 1821 H 170.202 3.86102 0.431007 0
M  V30 1822 H 171.874 4.07057 -2.1703 0
M  V30 1823 H 170.117 3.79476 -2.10191 0
M  V30 1824 H 170.788 5.31284 -1.49804 0
M  V30 1825 H 173.264 4.16074 0.0464781 0
M  V30 1826 H 172.14 5.4657 0.505206 0
M  V30 1827 H 172.401 4.11995 1.60352 0
M  V30 1828 N 171.46 0.379036 1.52974 0
M  V30 1829 C 172.707 -0.206421 2.01445 0
M  V30 1830 C 173.035 -1.47668 1.26587 0
M  V30 1831 O 172.29 -1.92514 0.351675 0
M  V30 1832 C 172.589 -0.53096 3.53434 0
M  V30 1833 C 172.255 0.646546 4.46241 0
M  V30 1834 C 170.917 0.969604 4.7133 0
M  V30 1835 C 173.269 1.43479 5.01062 0
M  V30 1836 C 170.597 2.08263 5.48492 0
M  V30 1837 C 172.949 2.53834 5.7944 0
M  V30 1838 C 171.613 2.86659 6.02812 0
M  V30 1839 H 170.883 -0.0755349 0.73714 0
M  V30 1840 H 173.53 0.514271 1.84465 0
M  V30 1841 H 171.835 -1.33285 3.68432 0
M  V30 1842 H 173.532 -0.996417 3.88423 0
M  V30 1843 H 170.122 0.384734 4.2687 0
M  V30 1844 H 174.306 1.19844 4.81613 0
M  V30 1845 H 169.562 2.34078 5.64816 0
M  V30 1846 H 173.736 3.15319 6.20924 0
M  V30 1847 H 171.363 3.73026 6.62387 0
M  V30 1848 N 172.938 -1.57226 0.108567 0
M  V30 1849 C 174.186 -1.94448 -0.550853 0
M  V30 1850 C 174.507 -0.992074 -1.67878 0
M  V30 1851 O 173.777 -0.0465 -1.95845 0
M  V30 1852 H 172.357 -0.717897 -0.206479 0
M  V30 1853 H 175.019 -1.94112 0.175062 0
M  V30 1854 H 174.115 -2.97218 -0.952259 0
M  V30 1855 N 174.416 0.165178 -1.56732 0
M  V30 1856 C 175.644 0.896218 -1.86482 0
M  V30 1857 C 176.059 1.75555 -0.694675 0
M  V30 1858 O 175.416 1.79379 0.33607 0
M  V30 1859 C 175.467 1.76792 -3.1532 0
M  V30 1860 O 175.188 0.943239 -4.27825 0
M  V30 1861 C 176.689 2.6081 -3.58459 0
M  V30 1862 H 173.909 0.260064 -0.618553 0
M  V30 1863 H 176.453 0.163428 -2.03846 0
M  V30 1864 H 174.608 2.45398 -2.99764 0
M  V30 1865 H 175.022 1.53998 -5.01383 0
M  V30 1866 H 176.496 3.17579 -4.51495 0
M  V30 1867 H 176.973 3.35977 -2.82872 0
M  V30 1868 H 177.579 1.97526 -3.76648 0
M  V30 1869 N 175.894 1.51508 0.433938 0
M  V30 1870 C 176.857 1.72473 1.50949 0
M  V30 1871 C 177.857 0.594725 1.49398 0
M  V30 1872 O 179.047 0.862315 1.5136 0
M  V30 1873 C 176.179 1.78431 2.90474 0
M  V30 1874 H 177.372 2.68467 1.33662 0
M  V30 1875 H 174.925 1.41549 0.662836 0
M  V30 1876 H 175.66 0.842645 3.13161 0
M  V30 1877 H 175.445 2.60558 2.93005 0
M  V30 1878 H 176.935 1.96479 3.68491 0
M  V30 1879 N 177.372 -0.689602 1.41712 0
M  V30 1880 C 178.788 -1.00093 1.24312 0
M  V30 1881 C 178.988 -2.01036 0.136729 0
M  V30 1882 O 178.044 -2.47562 -0.496918 0
M  V30 1883 C 179.357 -1.51985 2.59463 0
M  V30 1884 C 180.905 -1.63838 2.66695 0
M  V30 1885 C 181.38 -2.1913 4.02177 0
M  V30 1886 N 182.871 -2.26483 4.04054 0
M  V30 1887 C 183.606 -2.70306 5.0569 0
M  V30 1888 N 183.102 -3.13691 6.17713 0
M  V30 1889 N 184.895 -2.69923 4.9305 0
M  V30 1890 H 177.046 -0.0210029 2.1239 0
M  V30 1891 H 179.309 -0.0718733 0.945272 0
M  V30 1892 H 179.015 -0.85269 3.41207 0
M  V30 1893 H 178.889 -2.50103 2.82362 0
M  V30 1894 H 181.276 -2.29664 1.85306 0
M  V30 1895 H 181.357 -0.642492 2.476 0
M  V30 1896 H 181.001 -1.53918 4.84016 0
M  V30 1897 H 180.931 -3.19482 4.18615 0
M  V30 1898 H 183.422 -1.95874 3.23174 0
M  V30 1899 H 183.735 -3.45773 6.9113 0
M  V30 1900 H 182.08 -3.11585 6.21241 0
M  V30 1901 H 185.271 -2.35382 4.04614 0
M  V30 1902 H 185.444 -3.03758 5.72394 0
M  V30 1903 N 178.85 -1.27639 -0.924453 0
M  V30 1904 C 180.096 -1.14336 -1.67497 0
M  V30 1905 C 180.429 0.309465 -1.91718 0
M  V30 1906 O 179.704 1.22608 -1.50989 0
M  V30 1907 C 179.987 -1.93096 -3.0395 0
M  V30 1908 C 179.84 -3.46381 -2.8695 0
M  V30 1909 C 181.159 -1.73798 -4.0433 0
M  V30 1910 H 178.278 -0.416728 -0.607871 0
M  V30 1911 H 180.92 -1.56832 -1.07256 0
M  V30 1912 H 179.07 -1.56982 -3.55372 0
M  V30 1913 H 180.742 -3.92343 -2.42621 0
M  V30 1914 H 178.985 -3.72557 -2.22225 0
M  V30 1915 H 179.656 -3.96735 -3.83804 0
M  V30 1916 H 182.132 -2.05293 -3.61931 0
M  V30 1917 H 181.008 -2.31294 -4.97789 0
M  V30 1918 H 181.269 -0.686725 -4.36734 0
M  V30 1919 N 180.328 1.1314 -1.09713 0
M  V30 1920 C 181.258 2.20748 -0.761102 0
M  V30 1921 C 182.239 1.68061 0.262566 0
M  V30 1922 O 183.424 1.93765 0.129977 0
M  V30 1923 C 180.554 3.46812 -0.184054 0
M  V30 1924 C 179.508 4.12606 -1.13757 0
M  V30 1925 C 178.834 5.33031 -0.422083 0
M  V30 1926 C 180.134 4.59603 -2.48118 0
M  V30 1927 H 181.828 2.49113 -1.66082 0
M  V30 1928 H 179.374 1.19734 -0.799987 0
M  V30 1929 H 181.327 4.21353 0.0631215 0
M  V30 1930 H 180.051 3.17851 0.750868 0
M  V30 1931 H 178.71 3.40036 -1.37007 0
M  V30 1932 H 178.358 5.00335 0.517072 0
M  V30 1933 H 178.058 5.77999 -1.05788 0
M  V30 1934 H 179.582 6.10325 -0.183277 0
M  V30 1935 H 180.996 5.25552 -2.29059 0
M  V30 1936 H 179.393 5.15321 -3.07514 0
M  V30 1937 H 180.463 3.73971 -3.08665 0
M  V30 1938 N 181.806 0.884767 1.30421 0
M  V30 1939 C 182.769 0.356277 2.26414 0
M  V30 1940 C 183.769 -0.501124 1.52792 0
M  V30 1941 O 184.959 -0.30831 1.7145 0
M  V30 1942 C 182.091 -0.492316 3.37326 0
M  V30 1943 H 183.284 1.20389 2.74675 0
M  V30 1944 H 180.837 0.661607 1.41607 0
M  V30 1945 H 181.572 -1.36052 2.94381 0
M  V30 1946 H 181.357 0.121832 3.91911 0
M  V30 1947 H 182.847 -0.853871 4.08777 0
M  V30 1948 N 183.284 -1.43765 0.645699 0
M  V30 1949 C 184.532 -2.01499 0.155731 0
M  V30 1950 C 184.853 -1.51151 -1.232 0
M  V30 1951 O 184.123 -0.721044 -1.82148 0
M  V30 1952 H 182.703 -0.745003 0.0545817 0
M  V30 1953 H 185.365 -1.76075 0.835677 0
M  V30 1954 H 184.461 -3.1181 0.134577 0
M  V30 1955 N 184.763 -0.387143 -1.52771 0
M  V30 1956 C 185.673 0.456442 -2.30117 0
M  V30 1957 C 186.689 1.07342 -1.36944 0
M  V30 1958 O 187.865 1.07971 -1.70013 0
M  V30 1959 C 184.93 1.56957 -3.09136 0
M  V30 1960 C 183.991 0.977916 -4.18014 0
M  V30 1961 C 183.224 2.038 -4.93256 0
M  V30 1962 O 183.447 3.25271 -4.68567 0
M  V30 1963 O 182.381 1.6565 -5.78657 0
M  V30 1964 H 186.207 -0.17359 -3.03203 0
M  V30 1965 H 183.792 -0.150919 -1.48636 0
M  V30 1966 H 185.674 2.21628 -3.58412 0
M  V30 1967 H 184.349 2.18461 -2.38865 0
M  V30 1968 H 183.256 0.294525 -3.72939 0
M  V30 1969 H 184.589 0.407128 -4.90513 0
M  V30 1970 N 186.241 1.57166 -0.116904 0
M  V30 1971 C 187.518 1.86645 0.585049 0
M  V30 1972 C 187.898 1.0177 1.84949 0
M  V30 1973 O 187.246 0.0960379 2.28298 0
M  V30 1974 C 187.456 3.37736 0.879507 0
M  V30 1975 C 188.804 4.06289 1.23348 0
M  V30 1976 O 189.828 3.42743 0.969836 0
M  V30 1977 O 188.687 5.18455 1.7282 0
M  V30 1978 H 185.781 0.772593 0.295007 0
M  V30 1979 H 188.327 1.69025 -0.151249 0
M  V30 1980 H 187.099 3.91296 -0.0166136 0
M  V30 1981 H 186.722 3.6078 1.67103 0
M  V30 1982 N 187.719 -0.156864 1.56817 0
M  V30 1983 C 188.682 -1.17781 1.96622 0
M  V30 1984 C 189.682 -1.36401 0.851555 0
M  V30 1985 O 190.872 -1.33561 1.11836 0
M  V30 1986 C 188.004 -2.54008 2.27361 0
M  V30 1987 H 189.197 -0.836564 2.87996 0
M  V30 1988 H 186.75 -0.39985 1.51099 0
M  V30 1989 H 187.485 -2.9312 1.38748 0
M  V30 1990 H 187.27 -2.41856 3.08623 0
M  V30 1991 H 188.76 -3.27558 2.59029 0
M  V30 1992 N 189.197 -1.51736 -0.425897 0
M  V30 1993 C 190.613 -1.40166 -0.76326 0
M  V30 1994 C 190.813 -0.492962 -1.95377 0
M  V30 1995 O 189.869 0.0475815 -2.52455 0
M  V30 1996 C 191.182 -2.82403 -1.03291 0
M  V30 1997 C 192.73 -2.91632 -1.13665 0
M  V30 1998 C 193.205 -4.34801 -1.43916 0
M  V30 1999 N 194.696 -4.3796 -1.50816 0
M  V30 2000 C 195.431 -5.4578 -1.75817 0
M  V30 2001 N 194.927 -6.63744 -1.98534 0
M  V30 2002 N 196.72 -5.33274 -1.77694 0
M  V30 2003 H 188.871 -2.09361 0.358 0
M  V30 2004 H 191.134 -0.942941 0.0978094 0
M  V30 2005 H 190.84 -3.50943 -0.230696 0
M  V30 2006 H 190.714 -3.22428 -1.95754 0
M  V30 2007 H 193.101 -2.23284 -1.92947 0
M  V30 2008 H 193.182 -2.55088 -0.190756 0
M  V30 2009 H 192.826 -5.03703 -0.65157 0
M  V30 2010 H 192.756 -4.68868 -2.39729 0
M  V30 2011 H 195.247 -3.52919 -1.35118 0
M  V30 2012 H 195.56 -7.41704 -2.17013 0
M  V30 2013 H 193.905 -6.66839 -1.95832 0
M  V30 2014 H 197.096 -4.40098 -1.59473 0
M  V30 2015 H 197.269 -6.1738 -1.9684 0
M  V30 2016 N 190.675 0.682077 -1.42076 0
M  V30 2017 C 191.638 1.77756 -1.44691 0
M  V30 2018 C 192.638 1.5726 -0.335535 0
M  V30 2019 O 193.828 1.63686 -0.596037 0
M  V30 2020 C 190.96 3.16301 -1.27146 0
M  V30 2021 H 192.153 1.76826 -2.42224 0
M  V30 2022 H 189.706 0.891012 -1.28416 0
M  V30 2023 H 190.441 3.22862 -0.305075 0
M  V30 2024 H 190.226 3.32581 -2.07683 0
M  V30 2025 H 191.716 3.96241 -1.31843 0
M  V30 2026 N 192.153 1.28127 0.917671 0
M  V30 2027 C 193.116 1.11744 2.00115 0
M  V30 2028 C 194.116 0.0583052 1.60694 0
M  V30 2029 O 195.306 0.303755 1.71531 0
M  V30 2030 C 192.438 0.704862 3.33533 0
M  V30 2031 H 193.631 2.07966 2.16079 0
M  V30 2032 H 191.184 1.11058 1.09981 0
M  V30 2033 H 191.919 -0.258299 3.2327 0
M  V30 2034 H 191.704 1.4699 3.63505 0
M  V30 2035 H 193.194 0.612768 4.1308 0
M  V30 2036 N 193.631 -1.12557 1.10312 0
M  V30 2037 C 194.561 -2.20341 0.772798 0
M  V30 2038 C 195.542 -1.68198 -0.25365 0
M  V30 2039 O 196.727 -1.93831 -0.119699 0
M  V30 2040 C 193.857 -3.46709 0.202443 0
M  V30 2041 C 192.811 -4.11996 1.15943 0
M  V30 2042 C 192.137 -5.328 0.450345 0
M  V30 2043 C 193.437 -4.5828 2.50552 0
M  V30 2044 H 195.131 -2.48229 1.674 0
M  V30 2045 H 192.677 -1.19308 0.806326 0
M  V30 2046 H 194.63 -4.2138 -0.0407752 0
M  V30 2047 H 193.354 -3.18245 -0.734001 0
M  V30 2048 H 192.013 -3.39305 1.38808 0
M  V30 2049 H 191.661 -5.00602 -0.490531 0
M  V30 2050 H 191.361 -5.7743 1.08851 0
M  V30 2051 H 192.885 -6.10219 0.215642 0
M  V30 2052 H 194.299 -5.2433 2.31843 0
M  V30 2053 H 192.696 -5.13683 3.10242 0
M  V30 2054 H 193.766 -3.72329 3.10643 0
M  V30 2055 N 195.109 -0.891671 -1.2995 0
M  V30 2056 C 196.337 -0.52866 -2.00032 0
M  V30 2057 C 196.752 0.884574 -1.66795 0
M  V30 2058 O 196.109 1.5827 -0.908669 0
M  V30 2059 C 196.16 -0.701814 -3.54622 0
M  V30 2060 O 195.881 -2.05942 -3.86678 0
M  V30 2061 C 197.382 -0.342683 -4.41973 0
M  V30 2062 H 194.602 -0.203659 -0.639347 0
M  V30 2063 H 197.146 -1.19881 -1.65677 0
M  V30 2064 H 195.301 -0.0789468 -3.8732 0
M  V30 2065 H 195.715 -2.08291 -4.81368 0
M  V30 2066 H 197.189 -0.514709 -5.49595 0
M  V30 2067 H 197.666 0.71975 -4.33262 0
M  V30 2068 H 198.272 -0.942154 -4.14733 0
M  V30 2069 N 196.587 1.43421 -0.653314 0
M  V30 2070 C 197.815 2.06163 -0.174491 0
M  V30 2071 C 198.23 1.48969 1.1599 0
M  V30 2072 O 197.587 0.621042 1.71608 0
M  V30 2073 C 197.638 3.61417 -0.0774865 0
M  V30 2074 O 197.359 4.16485 -1.35912 0
M  V30 2075 C 198.86 4.41235 0.427402 0
M  V30 2076 H 196.08 0.664946 -0.0899353 0
M  V30 2077 H 198.624 1.83924 -0.893988 0
M  V30 2078 H 196.779 3.82841 0.59257 0
M  V30 2079 H 197.193 5.10153 -1.21839 0
M  V30 2080 H 198.667 5.5021 0.44423 0
M  V30 2081 H 199.144 4.14268 1.45873 0
M  V30 2082 H 199.75 4.2478 -0.210167 0
M  V30 2083 N 198.065 0.39524 1.52563 0
M  V30 2084 C 198.995 -0.428384 2.29537 0
M  V30 2085 C 199.976 -1.05831 1.33169 0
M  V30 2086 O 201.161 -1.06995 1.62067 0
M  V30 2087 C 198.291 -1.55274 3.10656 0
M  V30 2088 C 197.245 -1.04855 4.14957 0
M  V30 2089 C 196.571 -2.26543 4.84337 0
M  V30 2090 C 197.871 -0.112324 5.22179 0
M  V30 2091 H 199.565 0.213867 2.98635 0
M  V30 2092 H 197.111 0.104298 1.43622 0
M  V30 2093 H 199.064 -2.1358 3.63265 0
M  V30 2094 H 197.788 -2.22266 2.39302 0
M  V30 2095 H 196.447 -0.487985 3.63338 0
M  V30 2096 H 196.095 -2.92059 4.09525 0
M  V30 2097 H 195.795 -1.93466 5.54837 0
M  V30 2098 H 197.319 -2.85481 5.39753 0
M  V30 2099 H 198.733 -0.603752 5.70112 0
M  V30 2100 H 197.13 0.128968 5.99961 0
M  V30 2101 H 198.2 0.837052 4.77621 0
M  V30 2102 N 199.544 -1.57102 0.125237 0
M  V30 2103 C 200.769 -2.0019 -0.542101 0
M  V30 2104 C 201.194 -1.00449 -1.59034 0
M  V30 2105 O 200.552 0.0229423 -1.81285 0
M  V30 2106 C 200.6 -3.42129 -1.13929 0
M  V30 2107 O 199.704 -3.45307 -2.2547 0
M  V30 2108 H 199.045 -0.650171 -0.134812 0
M  V30 2109 H 201.575 -2.03461 0.215553 0
M  V30 2110 H 201.585 -3.80471 -1.4733 0
M  V30 2111 H 200.26 -4.14237 -0.371531 0
M  V30 2112 H 198.837 -3.1879 -1.93462 0
M  V30 2113 N 201.022 0.148545 -1.56898 0
M  V30 2114 C 201.932 1.20293 -2.01412 0
M  V30 2115 C 202.948 1.47107 -0.929273 0
M  V30 2116 O 204.124 1.58807 -1.23863 0
M  V30 2117 C 201.189 2.51682 -2.38447 0
M  V30 2118 C 200.25 2.32529 -3.60872 0
M  V30 2119 C 199.483 3.57653 -3.96132 0
M  V30 2120 O 199.706 4.63771 -3.32073 0
M  V30 2121 O 198.64 3.50408 -4.89385 0
M  V30 2122 H 202.466 0.855025 -2.91416 0
M  V30 2123 H 200.051 0.357151 -1.45068 0
M  V30 2124 H 201.933 3.29147 -2.63135 0
M  V30 2125 H 200.608 2.86006 -1.51599 0
M  V30 2126 H 199.515 1.53019 -3.41373 0
M  V30 2127 H 200.848 2.03121 -4.48333 0
M  V30 2128 N 202.5 1.5196 0.417844 0
M  V30 2129 C 203.916 1.40569 0.755816 0
M  V30 2130 C 204.116 0.503316 1.95113 0
M  V30 2131 O 203.172 -0.0341925 2.52477 0
M  V30 2132 C 204.485 2.82947 1.01791 0
M  V30 2133 C 206.033 2.92231 1.12116 0
M  V30 2134 C 206.508 4.35559 1.41608 0
M  V30 2135 N 207.999 4.38753 1.48491 0
M  V30 2136 C 208.734 5.46705 1.7292 0
M  V30 2137 N 208.23 6.64788 1.95011 0
M  V30 2138 N 210.023 5.34209 1.74863 0
M  V30 2139 H 202.174 2.09168 -0.369098 0
M  V30 2140 H 204.437 0.942409 -0.102809 0
M  V30 2141 H 204.143 3.5106 0.212081 0
M  V30 2142 H 204.017 3.23462 1.94042 0
M  V30 2143 H 206.404 2.24304 1.9176 0
M  V30 2144 H 206.485 2.55185 0.177225 0
M  V30 2145 H 206.129 5.04042 0.624848 0
M  V30 2146 H 206.059 4.70133 2.37239 0
M  V30 2147 H 208.55 3.5363 1.33244 0
M  V30 2148 H 208.863 7.42845 2.13076 0
M  V30 2149 H 207.208 6.67869 1.92293 0
M  V30 2150 H 210.399 4.40937 1.57137 0
M  V30 2151 H 210.572 6.18415 1.93563 0
M  V30 2152 N 203.978 -0.674533 1.42435 0
M  V30 2153 C 205.224 -1.43671 1.43131 0
M  V30 2154 C 205.557 -1.94142 0.0476021 0
M  V30 2155 O 204.832 -1.70924 -0.928188 0
M  V30 2156 C 205.115 -2.63355 2.45594 0
M  V30 2157 C 204.968 -2.18514 3.93156 0
M  V30 2158 C 206.287 -3.65571 2.45043 0
M  V30 2159 H 203.406 -0.521077 0.521198 0
M  V30 2160 H 206.048 -0.766551 1.7385 0
M  V30 2161 H 204.198 -3.2053 2.19528 0
M  V30 2162 H 205.87 -1.66504 4.30202 0
M  V30 2163 H 204.113 -1.50086 4.07009 0
M  V30 2164 H 204.784 -3.04484 4.60428 0
M  V30 2165 H 207.26 -3.18113 2.68223 0
M  V30 2166 H 206.136 -4.46893 3.18713 0
M  V30 2167 H 206.397 -4.16716 1.47649 0
M  V30 2168 N 205.456 -1.28612 -0.910864 0
M  V30 2169 C 206.703 -1.15934 -1.66029 0
M  V30 2170 C 207.031 0.291483 -1.92303 0
M  V30 2171 O 206.286 1.22816 -1.52364 0
M  V30 2172 C 206.585 -1.90624 -3.0232 0
M  V30 2173 C 206.251 -3.40405 -2.95695 0
M  V30 2174 C 204.913 -3.81255 -2.93595 0
M  V30 2175 C 207.265 -4.359 -2.85728 0
M  V30 2176 C 204.593 -5.15936 -2.79334 0
M  V30 2177 C 206.945 -5.70657 -2.73007 0
M  V30 2178 C 205.609 -6.10779 -2.69267 0
M  V30 2179 H 204.879 -0.424234 -0.607541 0
M  V30 2180 H 207.526 -1.5942 -1.06101 0
M  V30 2181 H 205.831 -1.39696 -3.6605 0
M  V30 2182 H 207.528 -1.78228 -3.59215 0
M  V30 2183 H 204.118 -3.07927 -2.98125 0
M  V30 2184 H 208.302 -4.053 -2.86436 0
M  V30 2185 H 203.558 -5.46146 -2.74835 0
M  V30 2186 H 207.732 -6.44311 -2.64264 0
M  V30 2187 H 205.359 -7.1509 -2.57974 0
M  V30 2188 N 206.934 1.1197 -1.10907 0
M  V30 2189 C 208.345 1.65114 -0.871446 0
M  V30 2190 C 208.696 1.86885 0.597353 0
M  V30 2191 O 207.821 1.59896 1.45816 0
M  V30 2192 C 208.416 2.99944 -1.5754 0
M  V30 2193 C 206.975 3.50018 -1.38435 0
M  V30 2194 C 206.122 2.24941 -1.62164 0
M  V30 2195 H 209.073 0.956851 -1.2661 0
M  V30 2196 H 209.094 3.66651 -1.01721 0
M  V30 2197 H 208.606 2.84067 -2.64438 0
M  V30 2198 H 206.707 3.71071 -0.337214 0
M  V30 2199 H 206.82 4.29165 -2.12965 0
M  V30 2200 H 205.184 2.3229 -1.04467 0
M  V30 2201 H 205.967 2.11612 -2.70324 0
M  V30 2202 N 208.412 0.89855 1.29475 0
M  V30 2203 C 209.66 0.522847 1.9522 0
M  V30 2204 C 209.981 -0.93371 1.71192 0
M  V30 2205 O 209.251 -1.65823 1.04305 0
M  V30 2206 H 207.831 0.190366 0.722336 0
M  V30 2207 H 210.493 1.14459 1.5775 0
M  V30 2208 H 209.589 0.704476 3.04045 0
M  V30 2209 N 209.89 -1.43072 0.660911 0
M  V30 2210 C 210.82 -2.33497 -0.0122829 0
M  V30 2211 C 211.801 -1.49903 -0.803925 0
M  V30 2212 O 212.986 -1.78546 -0.763864 0
M  V30 2213 C 210.116 -3.33363 -0.973994 0
M  V30 2214 C 209.07 -4.27003 -0.291928 0
M  V30 2215 C 208.396 -5.16967 -1.36562 0
M  V30 2216 C 209.696 -5.15816 0.820462 0
M  V30 2217 H 211.39 -2.90038 0.742873 0
M  V30 2218 H 208.936 -1.39461 0.358688 0
M  V30 2219 H 210.889 -3.95524 -1.45392 0
M  V30 2220 H 209.613 -2.75095 -1.7604 0
M  V30 2221 H 208.272 -3.66217 0.167623 0
M  V30 2222 H 207.92 -4.55034 -2.14366 0
M  V30 2223 H 207.62 -5.80441 -0.914454 0
M  V30 2224 H 209.144 -5.82003 -1.84675 0
M  V30 2225 H 210.558 -5.71742 0.422366 0
M  V30 2226 H 208.955 -5.8805 1.19656 0
M  V30 2227 H 210.025 -4.55045 1.67518 0
M  V30 2228 N 211.368 -0.403325 -1.52352 0
M  V30 2229 C 212.315 0.425011 -2.26853 0
M  V30 2230 C 213.285 1.04598 -1.29029 0
M  V30 2231 O 214.47 1.07135 -1.57882 0
M  V30 2232 C 211.61 1.53888 -3.08889 0
M  V30 2233 C 210.723 0.939396 -4.21663 0
M  V30 2234 C 209.858 2.02547 -4.91068 0
M  V30 2235 C 208.897 1.40263 -5.95813 0
M  V30 2236 N 208.034 2.4286 -6.58759 0
M  V30 2237 H 212.874 -0.21674 -2.97211 0
M  V30 2238 H 210.411 -0.118722 -1.4662 0
M  V30 2239 H 212.369 2.19558 -3.54753 0
M  V30 2240 H 210.999 2.15074 -2.40714 0
M  V30 2241 H 210.051 0.171898 -3.80011 0
M  V30 2242 H 211.363 0.44436 -4.96817 0
M  V30 2243 H 210.517 2.75958 -5.40308 0
M  V30 2244 H 209.256 2.55415 -4.15469 0
M  V30 2245 H 208.261 0.653833 -5.45898 0
M  V30 2246 H 209.486 0.881719 -6.73352 0
M  V30 2247 H 207.432 2.94871 -5.85992 0
M  V30 2248 H 207.349 1.98152 -7.2957 0
M  V30 2249 H 208.617 3.15858 -7.12639 0
M  V30 2250 N 212.846 1.57033 -0.133567 0
M  V30 2251 C 214.092 1.95976 0.521649 0
M  V30 2252 C 214.425 1.01779 1.65393 0
M  V30 2253 O 213.7 0.0576581 1.94415 0
M  V30 2254 C 213.983 3.44738 1.04057 0
M  V30 2255 C 213.836 4.49711 -0.0892897 0
M  V30 2256 C 215.155 3.95682 1.92675 0
M  V30 2257 H 212.274 0.712579 0.188149 0
M  V30 2258 H 214.916 1.88813 -0.212076 0
M  V30 2259 H 213.066 3.50973 1.66583 0
M  V30 2260 H 214.738 4.55565 -0.725152 0
M  V30 2261 H 212.981 4.27261 -0.750378 0
M  V30 2262 H 213.652 5.51099 0.315284 0
M  V30 2263 H 216.128 3.91841 1.39998 0
M  V30 2264 H 215.004 5.00262 2.25897 0
M  V30 2265 H 215.265 3.37239 2.85872 0
M  V30 2266 N 214.325 -0.140222 1.56975 0
M  V30 2267 C 215.573 -0.850005 1.83356 0
M  V30 2268 C 215.894 -1.81399 0.71551 0
M  V30 2269 O 215.164 -1.94136 -0.262294 0
M  V30 2270 H 213.744 -0.316886 0.676456 0
M  V30 2271 H 216.406 -0.132608 1.94448 0
M  V30 2272 H 215.502 -1.40814 2.78528 0
M  V30 2273 N 215.803 -1.52179 -0.40978 0
M  V30 2274 C 216.713 -1.78364 -1.52392 0
M  V30 2275 C 217.729 -0.669183 -1.60617 0
M  V30 2276 O 218.905 -0.954518 -1.77344 0
M  V30 2277 C 215.97 -1.92822 -2.88133 0
M  V30 2278 C 215.031 -3.16725 -2.898 0
M  V30 2279 C 214.264 -3.30483 -4.19067 0
M  V30 2280 O 214.487 -2.49522 -5.12928 0
M  V30 2281 O 213.421 -4.2363 -4.27576 0
M  V30 2282 H 217.247 -2.72931 -1.33201 0
M  V30 2283 H 214.832 -1.37016 -0.59557 0
M  V30 2284 H 216.714 -2.04157 -3.68643 0
M  V30 2285 H 215.389 -1.01444 -3.07393 0
M  V30 2286 H 214.296 -3.10848 -2.08146 0
M  V30 2287 H 215.629 -4.07881 -2.75489 0
M  V30 2288 N 217.281 0.66697 -1.42791 0
M  V30 2289 C 218.509 1.45505 -1.47091 0
M  V30 2290 C 218.924 1.8861 -0.0845873 0
M  V30 2291 O 218.281 1.58632 0.90234 0
M  V30 2292 C 218.332 2.69906 -2.40485 0
M  V30 2293 O 218.053 2.28608 -3.73725 0
M  V30 2294 C 219.554 3.63396 -2.53886 0
M  V30 2295 H 216.774 0.447459 -0.500022 0
M  V30 2296 H 219.318 0.818866 -1.8739 0
M  V30 2297 H 217.473 3.29696 -2.03419 0
M  V30 2298 H 217.887 3.08997 -4.23817 0
M  V30 2299 H 219.361 4.47387 -3.2334 0
M  V30 2300 H 219.838 4.09824 -1.57927 0
M  V30 2301 H 220.444 3.09495 -2.91706 0
M  V30 2302 N 218.759 1.29093 0.90403 0
M  V30 2303 C 219.987 1.19689 1.68766 0
M  V30 2304 C 220.402 -0.243113 1.87228 0
M  V30 2305 O 219.759 -1.16326 1.40621 0
M  V30 2306 C 219.81 1.90144 3.07453 0
M  V30 2307 O 219.531 3.2852 2.89838 0
M  V30 2308 C 221.032 1.87162 4.01852 0
M  V30 2309 H 218.252 0.415035 0.527244 0
M  V30 2310 H 220.796 1.7039 1.13082 0
M  V30 2311 H 218.951 1.43289 3.59926 0
M  V30 2312 H 219.365 3.63944 3.77684 0
M  V30 2313 H 220.839 2.41032 4.96596 0
M  V30 2314 H 221.316 0.84617 4.30972 0
M  V30 2315 H 221.922 2.33741 3.5531 0
M  V30 2316 N 220.237 -1.11381 1.11499 0
M  V30 2317 C 221.653 -1.35143 0.849031 0
M  V30 2318 C 221.853 -1.94515 -0.525938 0
M  V30 2319 O 220.909 -2.1785 -1.27662 0
M  V30 2320 C 222.222 -2.28249 1.95762 0
M  V30 2321 C 223.77 -2.41812 1.98736 0
M  V30 2322 C 224.245 -3.3824 3.088 0
M  V30 2323 N 225.736 -3.45803 3.08179 0
M  V30 2324 C 226.471 -4.20358 3.89982 0
M  V30 2325 N 225.967 -4.97884 4.8175 0
M  V30 2326 N 227.76 -4.15877 3.78157 0
M  V30 2327 H 219.911 -0.712062 2.00109 0
M  V30 2328 H 222.174 -0.376025 0.870235 0
M  V30 2329 H 221.88 -1.91817 2.94787 0
M  V30 2330 H 221.754 -3.28473 1.85433 0
M  V30 2331 H 224.141 -2.77518 1.00338 0
M  V30 2332 H 224.222 -1.41437 2.13141 0
M  V30 2333 H 223.866 -3.03261 4.07425 0
M  V30 2334 H 223.796 -4.38471 2.91635 0
M  V30 2335 H 226.287 -2.90506 2.41691 0
M  V30 2336 H 226.6 -5.52142 5.40702 0
M  V30 2337 H 224.945 -4.97043 4.85771 0
M  V30 2338 H 228.136 -3.544 3.05808 0
M  V30 2339 H 228.309 -4.73723 4.42143 0
M  V30 2340 N 221.715 -0.905404 -1.28997 0
M  V30 2341 C 223.126 -0.581953 -1.77398 0
M  V30 2342 C 223.477 0.902552 -1.74208 0
M  V30 2343 O 222.602 1.70584 -1.33154 0
M  V30 2344 C 223.197 -1.04961 -3.22131 0
M  V30 2345 C 221.756 -0.777229 -3.68288 0
M  V30 2346 C 220.903 -1.22109 -2.48967 0
M  V30 2347 H 223.854 -1.08754 -1.15578 0
M  V30 2348 H 223.875 -0.387387 -3.78523 0
M  V30 2349 H 223.387 -2.13008 -3.24421 0
M  V30 2350 H 221.488 0.290383 -3.71467 0
M  V30 2351 H 221.601 -1.37911 -4.58822 0
M  V30 2352 H 219.965 -0.639971 -2.46529 0
M  V30 2353 H 220.748 -2.30972 -2.53982 0
M  V30 2354 N 223.193 1.4272 -0.668489 0
M  V30 2355 C 224.442 2.00846 -0.185389 0
M  V30 2356 C 224.755 1.53442 1.21305 0
M  V30 2357 O 225.961 2.03944 1.79218 0
M  V30 2358 C 224.417 3.58805 -0.280591 0
M  V30 2359 C 224.025 4.15198 -1.68268 0
M  V30 2360 C 225.769 4.24255 0.14412 0
M  V30 2361 C 223.676 5.655 -1.73099 0
M  V30 2362 H 222.606 0.751145 -0.0655475 0
M  V30 2363 H 225.257 1.63516 -0.832752 0
M  V30 2364 H 223.639 3.93608 0.434553 0
M  V30 2365 H 224.813 3.91866 -2.42441 0
M  V30 2366 H 223.128 3.62176 -2.05469 0
M  V30 2367 H 225.725 5.34547 0.128086 0
M  V30 2368 H 226.068 3.99277 1.17827 0
M  V30 2369 H 226.601 3.94389 -0.519798 0
M  V30 2370 H 223.34 5.95268 -2.74475 0
M  V30 2371 H 222.86 5.90842 -1.03274 0
M  V30 2372 H 224.539 6.29808 -1.48158 0
M  V30 2373 N 224.671 0.411399 1.52136 0
M  V30 2374 C 225.896 -0.165538 2.06738 0
M  V30 2375 C 226.321 -1.379 1.27926 0
M  V30 2376 O 225.679 -1.78628 0.310114 0
M  V30 2377 C 225.727 -0.492124 3.57226 0
M  V30 2378 O 224.831 -1.58276 3.80818 0
M  V30 2379 H 224.172 -0.0132132 0.663869 0
M  V30 2380 H 226.702 0.585253 1.96051 0
M  V30 2381 H 226.712 -0.750104 4.01045 0
M  V30 2382 H 225.387 0.394922 4.14021 0
M  V30 2383 H 223.964 -1.31677 3.48877 0
M  V30 2384 N 226.149 -1.5696 0.141893 0
M  V30 2385 C 227.059 -2.20066 -0.812905 0
M  V30 2386 C 228.075 -1.18344 -1.27557 0
M  V30 2387 O 229.251 -1.50902 -1.33381 0
M  V30 2388 C 226.316 -2.80583 -2.03652 0
M  V30 2389 C 225.377 -3.97414 -1.62359 0
M  V30 2390 C 224.61 -4.55036 -2.78887 0
M  V30 2391 O 224.833 -4.11538 -3.94959 0
M  V30 2392 O 223.767 -5.45376 -2.54653 0
M  V30 2393 H 227.593 -3.02157 -0.305746 0
M  V30 2394 H 225.178 -1.49159 -0.0848799 0
M  V30 2395 H 227.06 -3.19067 -2.75272 0
M  V30 2396 H 225.735 -2.01508 -2.5333 0
M  V30 2397 H 224.642 -3.63656 -0.877775 0
M  V30 2398 H 225.975 -4.77994 -1.17401 0
M  V30 2399 N 227.627 0.131896 -1.57047 0
M  V30 2400 C 228.904 0.871495 -1.75112 0
M  V30 2401 C 229.284 1.9866 -0.713949 0
M  V30 2402 O 228.632 2.26965 0.264447 0
M  V30 2403 C 228.842 1.40007 -3.19686 0
M  V30 2404 C 230.19 1.85752 -3.81813 0
M  V30 2405 O 231.214 1.49715 -3.23209 0
M  V30 2406 O 230.073 2.5226 -4.84796 0
M  V30 2407 H 227.167 0.412919 -0.716538 0
M  V30 2408 H 229.713 0.116641 -1.69299 0
M  V30 2409 H 228.485 0.599404 -3.86682 0
M  V30 2410 H 228.108 2.218 -3.29986 0
M  V30 2411 N 229.106 1.52395 0.401703 0
M  V30 2412 C 230.383 1.57387 1.16141 0
M  V30 2413 C 230.763 0.359359 2.08019 0
M  V30 2414 O 230.111 -0.65326 2.18963 0
M  V30 2415 C 230.321 2.90631 1.93221 0
M  V30 2416 C 231.669 3.43904 2.49028 0
M  V30 2417 O 232.693 2.92421 2.03393 0
M  V30 2418 O 231.552 4.33823 3.32356 0
M  V30 2419 H 228.646 0.634262 0.530698 0
M  V30 2420 H 231.192 1.64725 0.407883 0
M  V30 2421 H 229.964 3.70473 1.25958 0
M  V30 2422 H 229.587 2.8662 2.75563 0
M  V30 2423 N 230.584 -0.659388 1.43143 0
M  V30 2424 C 231.514 -1.78422 1.50625 0
M  V30 2425 C 232.495 -1.66216 0.361443 0
M  V30 2426 O 233.68 -1.85404 0.577834 0
M  V30 2427 C 230.81 -3.16815 1.42287 0
M  V30 2428 C 229.764 -3.43777 2.54954 0
M  V30 2429 C 229.09 -4.81905 2.31671 0
M  V30 2430 C 230.39 -3.39134 3.97222 0
M  V30 2431 H 232.084 -1.72417 2.44771 0
M  V30 2432 H 229.63 -0.828084 1.17808 0
M  V30 2433 H 231.583 -3.95253 1.46127 0
M  V30 2434 H 230.307 -3.23534 0.446435 0
M  V30 2435 H 228.966 -2.67707 2.50457 0
M  V30 2436 H 228.614 -4.85294 1.32284 0
M  V30 2437 H 228.314 -5.00906 3.07192 0
M  V30 2438 H 229.838 -5.62609 2.37284 0
M  V30 2439 H 231.252 -4.07518 4.03239 0
M  V30 2440 H 229.649 -3.69671 4.72719 0
M  V30 2441 H 230.719 -2.37426 4.22797 0
M  V30 2442 N 232.062 -1.29571 -0.897171 0
M  V30 2443 C 233.009 -1.14916 -2.00158 0
M  V30 2444 C 233.979 -0.0418149 -1.66047 0
M  V30 2445 O 235.164 -0.209793 -1.89643 0
M  V30 2446 C 232.304 -0.834307 -3.34863 0
M  V30 2447 C 231.417 -2.02234 -3.8174 0
M  V30 2448 C 230.552 -1.64664 -5.05034 0
M  V30 2449 C 229.591 -2.80033 -5.44286 0
M  V30 2450 N 228.728 -2.42843 -6.58765 0
M  V30 2451 H 233.568 -2.09403 -2.12025 0
M  V30 2452 H 231.105 -1.042 -1.0383 0
M  V30 2453 H 233.063 -0.632436 -4.12379 0
M  V30 2454 H 231.693 0.0736656 -3.22716 0
M  V30 2455 H 230.745 -2.33583 -3.00238 0
M  V30 2456 H 232.057 -2.88673 -4.06779 0
M  V30 2457 H 231.211 -1.4078 -5.9014 0
M  V30 2458 H 229.95 -0.753766 -4.8184 0
M  V30 2459 H 228.955 -3.04596 -4.57713 0
M  V30 2460 H 230.18 -3.69989 -5.6946 0
M  V30 2461 H 228.126 -1.56046 -6.3717 0
M  V30 2462 H 228.043 -3.22815 -6.83613 0
M  V30 2463 H 229.311 -2.22285 -7.47134 0
M  V30 2464 N 233.54 1.10788 -1.12088 0
M  V30 2465 C 234.956 1.34691 -0.856186 0
M  V30 2466 C 235.156 1.94791 0.515615 0
M  V30 2467 O 234.212 2.18524 1.26505 0
M  V30 2468 C 235.525 2.27208 -1.9697 0
M  V30 2469 C 237.073 2.40755 -2.00016 0
M  V30 2470 C 237.548 3.36598 -3.1059 0
M  V30 2471 N 239.039 3.44164 -3.10008 0
M  V30 2472 C 239.774 4.18284 -3.92206 0
M  V30 2473 N 239.27 4.95322 -4.84384 0
M  V30 2474 N 241.063 4.13865 -3.80357 0
M  V30 2475 H 233.214 0.70144 -2.00483 0
M  V30 2476 H 235.477 0.371405 -0.872217 0
M  V30 2477 H 235.183 1.90251 -2.958 0
M  V30 2478 H 235.057 3.27485 -1.87172 0
M  V30 2479 H 237.444 2.76982 -1.01808 0
M  V30 2480 H 237.525 1.40305 -2.13888 0
M  V30 2481 H 237.169 3.01096 -4.09028 0
M  V30 2482 H 237.099 4.36918 -2.93956 0
M  V30 2483 H 239.59 2.8922 -2.43228 0
M  V30 2484 H 239.903 5.49267 -5.43623 0
M  V30 2485 H 238.248 4.94459 -4.884 0
M  V30 2486 H 241.439 3.52773 -3.07683 0
M  V30 2487 H 241.612 4.71372 -4.44649 0
M  V30 2488 N 235.018 0.912232 1.28515 0
M  V30 2489 C 236.246 0.560416 1.99166 0
M  V30 2490 C 236.661 -0.857927 1.68182 0
M  V30 2491 O 236.018 -1.56805 0.933733 0
M  V30 2492 C 236.069 0.758142 3.53461 0
M  V30 2493 O 235.79 2.12067 3.83352 0
M  V30 2494 C 237.291 0.412954 4.41372 0
M  V30 2495 H 234.511 0.213805 0.636026 0
M  V30 2496 H 237.055 1.22502 1.63749 0
M  V30 2497 H 235.21 0.140556 3.87145 0
M  V30 2498 H 235.624 2.15923 4.77993 0
M  V30 2499 H 237.098 0.60208 5.48707 0
M  V30 2500 H 237.575 -0.65073 4.34353 0
M  V30 2501 H 238.181 1.00802 4.13182 0
M  V30 2502 N 236.496 -1.42363 0.676048 0
M  V30 2503 C 237.721 -2.06377 0.205705 0
M  V30 2504 C 238.146 -1.50463 -1.12883 0
M  V30 2505 O 237.504 -0.623619 -1.70237 0
M  V30 2506 C 237.552 -3.60277 0.152655 0
M  V30 2507 O 236.656 -4.02935 -0.87845 0
M  V30 2508 H 235.997 -0.655588 0.105359 0
M  V30 2509 H 238.527 -1.82475 0.925412 0
M  V30 2510 H 238.537 -4.07993 -0.0230675 0
M  V30 2511 H 237.212 -4.00346 1.12675 0
M  V30 2512 H 235.789 -3.66764 -0.673668 0
M  V30 2513 N 237.974 -0.419461 -1.51915 0
M  V30 2514 C 239.22 0.153166 -2.02221 0
M  V30 2515 C 239.553 1.43907 -1.30401 0
M  V30 2516 O 238.828 1.90055 -0.413438 0
M  V30 2517 C 239.111 0.390291 -3.57979 0
M  V30 2518 C 238.964 -0.913014 -4.40436 0
M  V30 2519 C 240.283 1.16794 -4.2432 0
M  V30 2520 H 237.402 0.0541924 -0.735005 0
M  V30 2521 H 240.044 -0.554955 -1.81715 0
M  V30 2522 H 238.194 0.993491 -3.75582 0
M  V30 2523 H 239.866 -1.54882 -4.34522 0
M  V30 2524 H 238.109 -1.52168 -4.06236 0
M  V30 2525 H 238.78 -0.701361 -5.47526 0
M  V30 2526 H 241.256 0.657161 -4.10878 0
M  V30 2527 H 240.132 1.3026 -5.3322 0
M  V30 2528 H 240.393 2.19132 -3.83971 0
M  V30 2529 N 239.452 1.56882 -0.150215 0
M  V30 2530 C 240.682 2.00302 0.506213 0
M  V30 2531 C 241.09 1.02934 1.58749 0
M  V30 2532 O 240.433 0.0188384 1.8369 0
M  V30 2533 C 240.495 3.40156 1.16337 0
M  V30 2534 C 240.159 4.56439 0.226311 0
M  V30 2535 C 241.156 5.17012 -0.547265 0
M  V30 2536 C 238.841 5.02136 0.128279 0
M  V30 2537 C 240.835 6.21693 -1.40629 0
M  V30 2538 C 238.522 6.06672 -0.734345 0
M  V30 2539 C 239.52 6.6632 -1.50023 0
M  V30 2540 O 239.208 7.68831 -2.34848 0
M  V30 2541 H 238.94 0.662182 0.135984 0
M  V30 2542 H 241.494 2.03961 -0.242746 0
M  V30 2543 H 239.724 3.33346 1.96004 0
M  V30 2544 H 241.413 3.67663 1.71985 0
M  V30 2545 H 242.179 4.82603 -0.48158 0
M  V30 2546 H 238.058 4.55435 0.714157 0
M  V30 2547 H 241.602 6.68179 -2.00455 0
M  V30 2548 H 237.499 6.40507 -0.801309 0
M  V30 2549 H 238.267 7.86065 -2.28131 0
M  V30 2550 N 240.93 -0.123565 1.57115 0
M  V30 2551 C 242.155 -0.850398 1.89164 0
M  V30 2552 C 242.58 -1.7286 0.741688 0
M  V30 2553 O 241.938 -1.78665 -0.307958 0
M  V30 2554 C 241.986 -1.66353 3.19936 0
M  V30 2555 O 241.09 -2.77004 3.0552 0
M  V30 2556 H 240.431 -0.235454 0.620852 0
M  V30 2557 H 242.961 -0.107335 2.04318 0
M  V30 2558 H 242.971 -2.05372 3.52543 0
M  V30 2559 H 241.646 -1.01881 4.03228 0
M  V30 2560 H 240.223 -2.41221 2.84371 0
M  V30 2561 N 242.408 -1.52605 -0.393616 0
M  V30 2562 C 243.338 -1.80022 -1.48709 0
M  V30 2563 C 244.319 -0.651995 -1.57108 0
M  V30 2564 O 245.504 -0.89913 -1.72132 0
M  V30 2565 C 242.634 -1.96492 -2.86371 0
M  V30 2566 C 241.588 -3.12161 -2.92813 0
M  V30 2567 C 240.914 -3.13877 -4.3288 0
M  V30 2568 C 242.214 -4.51322 -2.6288 0
M  V30 2569 H 243.908 -2.71589 -1.26015 0
M  V30 2570 H 241.454 -1.30684 -0.604778 0
M  V30 2571 H 243.407 -2.14255 -3.62867 0
M  V30 2572 H 242.131 -1.01611 -3.10391 0
M  V30 2573 H 240.79 -2.94173 -2.18764 0
M  V30 2574 H 240.438 -2.16687 -4.53933 0
M  V30 2575 H 240.138 -3.91576 -4.38112 0
M  V30 2576 H 241.662 -3.33789 -5.1129 0
M  V30 2577 H 243.076 -4.69435 -3.29096 0
M  V30 2578 H 241.473 -5.31053 -2.79468 0
M  V30 2579 H 242.543 -4.58353 -1.58242 0
M  V30 2580 N 243.887 0.651787 -1.4349 0
M  V30 2581 C 245.112 1.44434 -1.48841 0
M  V30 2582 C 245.537 1.8779 -0.107955 0
M  V30 2583 O 244.895 1.57464 0.898602 0
M  V30 2584 C 244.943 2.65458 -2.44059 0
M  V30 2585 O 244.047 3.64566 -1.92784 0
M  V30 2586 H 243.388 0.433005 -0.503391 0
M  V30 2587 H 245.918 0.797451 -1.88419 0
M  V30 2588 H 245.928 3.13255 -2.6141 0
M  V30 2589 H 244.603 2.33244 -3.4434 0
M  V30 2590 H 243.18 3.23716 -1.851 0
M  V30 2591 N 245.365 1.30045 0.890287 0
M  V30 2592 C 246.614 1.17929 1.63633 0
M  V30 2593 C 246.927 -0.266204 1.9378 0
M  V30 2594 O 248.133 -0.508804 2.6669 0
M  V30 2595 C 246.589 2.06317 2.94892 0
M  V30 2596 C 246.197 3.55745 2.72305 0
M  V30 2597 C 247.941 2.0295 3.72843 0
M  V30 2598 C 245.848 4.36205 3.99348 0
M  V30 2599 H 244.778 0.437782 0.613892 0
M  V30 2600 H 247.429 1.54754 0.986075 0
M  V30 2601 H 245.811 1.6237 3.61182 0
M  V30 2602 H 246.985 4.07805 2.1455 0
M  V30 2603 H 245.3 3.6088 2.07737 0
M  V30 2604 H 247.897 2.60319 4.67053 0
M  V30 2605 H 248.24 1.0117 4.0382 0
M  V30 2606 H 248.773 2.4499 3.13408 0
M  V30 2607 H 245.512 5.38659 3.73533 0
M  V30 2608 H 245.032 3.8891 4.56628 0
M  V30 2609 H 246.711 4.47362 4.67415 0
M  V30 2610 N 246.843 -1.10192 1.12674 0
M  V30 2611 C 248.12 -1.78717 0.794965 0
M  V30 2612 C 248.5 -1.98628 -0.714853 0
M  V30 2613 O 247.848 -1.58135 -1.64941 0
M  V30 2614 C 248.058 -3.11546 1.5729 0
M  V30 2615 C 249.406 -3.86382 1.76052 0
M  V30 2616 O 250.43 -3.21274 1.53823 0
M  V30 2617 O 249.289 -5.03246 2.13087 0
M  V30 2618 H 246.383 -0.774702 0.289423 0
M  V30 2619 H 248.929 -1.16819 1.23091 0
M  V30 2620 H 247.701 -2.92489 2.59935 0
M  V30 2621 H 247.324 -3.81164 1.13137 0
M  V30 2622 N 248.321 -0.919034 -1.28029 0
M  V30 2623 C 249.737 -0.617972 -1.4715 0
M  V30 2624 C 249.937 0.835242 -1.83374 0
M  V30 2625 O 248.993 1.61388 -1.94191 0
M  V30 2626 C 250.306 -1.56041 -2.57044 0
M  V30 2627 C 251.854 -1.56769 -2.7091 0
M  V30 2628 C 252.329 -2.49688 -3.83953 0
M  V30 2629 N 253.82 -2.47845 -3.91314 0
M  V30 2630 C 254.555 -3.16437 -4.78179 0
M  V30 2631 N 254.051 -3.94376 -5.69596 0
M  V30 2632 N 255.844 -3.05498 -4.71834 0
M  V30 2633 H 247.995 -1.85866 -1.02798 0
M  V30 2634 H 250.258 -0.797506 -0.512531 0
M  V30 2635 H 249.964 -2.59671 -2.372 0
M  V30 2636 H 249.838 -1.29551 -3.54255 0
M  V30 2637 H 252.225 -0.538745 -2.90141 0
M  V30 2638 H 252.306 -1.87305 -1.74214 0
M  V30 2639 H 251.95 -3.52688 -3.65477 0
M  V30 2640 H 251.88 -2.16453 -4.80058 0
M  V30 2641 H 254.371 -1.91234 -3.25941 0
M  V30 2642 H 254.684 -4.43721 -6.32718 0
M  V30 2643 H 253.029 -3.98481 -5.69419 0
M  V30 2644 H 256.22 -2.44108 -3.99411 0
M  V30 2645 H 256.393 -3.59225 -5.39316 0
M  V30 2646 N 249.799 1.42003 -0.683588 0
M  V30 2647 C 251.045 2.02223 -0.218536 0
M  V30 2648 C 251.4 1.53126 1.16492 0
M  V30 2649 O 250.693 0.727459 1.77253 0
M  V30 2650 C 250.887 3.56827 -0.202357 0
M  V30 2651 C 250.716 4.20928 -1.5827 0
M  V30 2652 C 249.486 4.5573 -2.18262 0
M  V30 2653 C 251.684 4.47933 -2.52706 0
M  V30 2654 N 249.666 5.05056 -3.48986 0
M  V30 2655 C 251.037 4.98906 -3.68094 0
M  V30 2656 C 253.092 4.29931 -2.51125 0
M  V30 2657 C 251.795 5.33768 -4.82166 0
M  V30 2658 C 253.821 4.65875 -3.643 0
M  V30 2659 C 253.183 5.17008 -4.78417 0
M  V30 2660 H 249.282 0.771931 -0.125088 0
M  V30 2661 H 251.866 1.72729 -0.898479 0
M  V30 2662 H 250.037 3.85819 0.447029 0
M  V30 2663 H 251.769 4.03755 0.276399 0
M  V30 2664 H 248.524 4.41781 -1.70665 0
M  V30 2665 H 248.948 5.34139 -4.15962 0
M  V30 2666 H 253.59 3.89647 -1.6412 0
M  V30 2667 H 251.308 5.72981 -5.6984 0
M  V30 2668 H 254.894 4.53615 -3.64314 0
M  V30 2669 H 253.774 5.44301 -5.64541 0
M  V30 2670 N 251.277 0.427512 1.51691 0
M  V30 2671 C 252.502 -0.143601 2.06902 0
M  V30 2672 C 252.927 -1.36536 1.29382 0
M  V30 2673 O 252.285 -1.78289 0.329043 0
M  V30 2674 C 252.333 -0.454207 3.57728 0
M  V30 2675 O 251.437 -1.54228 3.82475 0
M  V30 2676 H 250.778 -0.00617128 0.663971 0
M  V30 2677 H 253.308 0.606014 1.95419 0
M  V30 2678 H 253.318 -0.707525 4.01818 0
M  V30 2679 H 251.993 0.438812 4.13579 0
M  V30 2680 H 250.57 -1.2797 3.50254 0
M  V30 2681 N 252.755 -1.56801 0.158532 0
M  V30 2682 C 254.003 -1.96102 -0.488712 0
M  V30 2683 C 254.324 -1.04498 -1.64636 0
M  V30 2684 O 253.594 -0.108783 -1.95598 0
M  V30 2685 H 252.174 -0.724102 -0.183535 0
M  V30 2686 H 254.836 -1.93457 0.236728 0
M  V30 2687 H 253.932 -3.00097 -0.857219 0
M  V30 2688 N 254.233 0.115231 -1.57178 0
M  V30 2689 C 255.18 1.14115 -2.00615 0
M  V30 2690 C 256.15 1.40939 -0.878941 0
M  V30 2691 O 257.335 1.52741 -1.14345 0
M  V30 2692 C 254.475 2.46156 -2.4187 0
M  V30 2693 C 253.588 2.26236 -3.68024 0
M  V30 2694 C 252.723 3.51534 -3.98243 0
M  V30 2695 C 251.762 3.26787 -5.17568 0
M  V30 2696 N 250.899 4.44298 -5.43639 0
M  V30 2697 H 255.739 0.763743 -2.88047 0
M  V30 2698 H 253.276 0.365615 -1.42484 0
M  V30 2699 H 255.234 3.23189 -2.63827 0
M  V30 2700 H 253.864 2.81783 -1.57475 0
M  V30 2701 H 252.916 1.40102 -3.5366 0
M  V30 2702 H 254.228 2.03929 -4.55208 0
M  V30 2703 H 253.382 4.36984 -4.20868 0
M  V30 2704 H 252.121 3.76876 -3.09541 0
M  V30 2705 H 251.126 2.39729 -4.94783 0
M  V30 2706 H 252.351 3.02812 -6.0785 0
M  V30 2707 H 250.297 4.69754 -4.57895 0
M  V30 2708 H 250.214 4.25109 -6.25154 0
M  V30 2709 H 251.482 5.3087 -5.70786 0
M  V30 2710 N 255.711 1.52812 0.385517 0
M  V30 2711 C 256.621 1.80766 1.49535 0
M  V30 2712 C 257.637 0.694651 1.59532 0
M  V30 2713 O 258.813 0.982611 1.75803 0
M  V30 2714 C 255.878 1.97381 2.85029 0
M  V30 2715 C 254.939 3.21295 2.84724 0
M  V30 2716 C 254.172 3.37108 4.13756 0
M  V30 2717 O 254.395 2.5765 5.08893 0
M  V30 2718 O 253.329 4.30378 4.20783 0
M  V30 2719 H 257.155 2.75015 1.28842 0
M  V30 2720 H 254.74 1.37946 0.573697 0
M  V30 2721 H 256.622 2.09996 3.65349 0
M  V30 2722 H 255.297 1.06322 3.05741 0
M  V30 2723 H 254.204 3.1412 2.03174 0
M  V30 2724 H 255.537 4.12212 2.68965 0
M  V30 2725 N 257.189 -0.644168 1.43834 0
M  V30 2726 C 258.137 -1.77793 1.49974 0
M  V30 2727 C 259.131 -1.65253 0.372536 0
M  V30 2728 O 260.337 -1.7149 0.546924 0
M  V30 2729 H 256.712 -0.58675 0.47035 0
M  V30 2730 H 258.683 -1.69736 2.45423 0
M  V30 2731 C 257.432 -3.16087 1.4486 0
M  V30 2732 H 256.755 -3.26378 2.30905 0
M  V30 2733 H 258.195 -3.95349 1.53217 0
M  V30 2734 C 256.654 -3.36484 0.167463 0
M  V30 2735 O 257.184 -3.94298 -0.767609 0
M  V30 2736 N 255.39 -2.90504 0.0747556 0
M  V30 2737 H 254.937 -2.4364 0.836507 0
M  V30 2738 H 254.895 -3.04527 -0.781714 0
M  V30 2739 N 258.668 -1.30515 -0.883378 0
M  V30 2740 C 259.914 -1.20617 -1.63778 0
M  V30 2741 C 260.269 0.236469 -1.90941 0
M  V30 2742 O 259.562 1.16596 -1.52039 0
M  V30 2743 C 259.756 -1.96994 -2.98209 0
M  V30 2744 C 259.585 -3.48537 -2.84169 0
M  V30 2745 C 258.355 -4.17893 -2.84067 0
M  V30 2746 C 260.553 -4.43738 -2.60001 0
M  V30 2747 N 258.535 -5.55685 -2.60936 0
M  V30 2748 C 259.906 -5.69105 -2.46007 0
M  V30 2749 C 261.961 -4.33316 -2.45239 0
M  V30 2750 C 260.664 -6.8523 -2.18752 0
M  V30 2751 C 262.69 -5.4921 -2.19369 0
M  V30 2752 C 262.052 -6.73558 -2.06153 0
M  V30 2753 H 258.151 -0.496434 -0.604216 0
M  V30 2754 H 260.735 -1.64544 -1.04083 0
M  V30 2755 H 258.906 -1.55455 -3.55933 0
M  V30 2756 H 260.638 -1.79225 -3.62851 0
M  V30 2757 H 257.393 -3.69739 -2.95956 0
M  V30 2758 H 257.817 -6.28199 -2.52378 0
M  V30 2759 H 262.459 -3.37856 -2.54191 0
M  V30 2760 H 260.177 -7.80729 -2.08537 0
M  V30 2761 H 263.763 -5.43054 -2.08766 0
M  V30 2762 H 262.643 -7.61721 -1.86416 0
M  V30 2763 N 260.146 1.09593 -1.13257 0
M  V30 2764 C 261.109 2.14359 -0.811358 0
M  V30 2765 C 262.109 1.59808 0.178377 0
M  V30 2766 O 263.299 1.74132 -0.0484911 0
M  V30 2767 C 260.431 3.40269 -0.207276 0
M  V30 2768 H 261.624 2.44284 -1.73969 0
M  V30 2769 H 259.177 1.25102 -0.936973 0
M  V30 2770 H 259.912 3.15969 0.73036 0
M  V30 2771 H 259.697 3.81154 -0.919992 0
M  V30 2772 H 261.187 4.176 0.000667944 0
M  V30 2773 N 261.624 0.925811 1.2754 0
M  V30 2774 C 262.534 0.428993 2.30644 0
M  V30 2775 C 263.55 -0.489387 1.66976 0
M  V30 2776 O 264.726 -0.372653 1.97922 0
M  V30 2777 C 261.791 -0.311967 3.45294 0
M  V30 2778 C 260.852 0.641098 4.24486 0
M  V30 2779 C 260.085 -0.0645955 5.33661 0
M  V30 2780 O 260.308 -1.28429 5.55754 0
M  V30 2781 O 259.242 0.606265 5.98839 0
M  V30 2782 H 263.068 1.28504 2.75173 0
M  V30 2783 H 260.653 0.691086 1.32455 0
M  V30 2784 H 262.535 -0.729972 4.15029 0
M  V30 2785 H 261.21 -1.14365 3.02824 0
M  V30 2786 H 260.117 1.10874 3.57292 0
M  V30 2787 H 261.45 1.43995 4.70666 0
M  V30 2788 N 263.102 -1.41638 0.69111 0
M  V30 2789 C 264.034 -2.29194 -0.0161523 0
M  V30 2790 C 265.047 -1.44549 -0.748955 0
M  V30 2791 O 266.236 -1.681 -0.6004 0
M  V30 2792 C 263.336 -3.22325 -1.0469 0
M  V30 2793 C 262.509 -4.35706 -0.384621 0
M  V30 2794 C 261.568 -5.09443 -1.31737 0
M  V30 2795 O 260.594 -5.63386 -0.811451 0
M  V30 2796 N 261.796 -5.16487 -2.64993 0
M  V30 2797 H 264.561 -2.90534 0.735523 0
M  V30 2798 H 262.122 -1.52742 0.53679 0
M  V30 2799 H 264.114 -3.68522 -1.67252 0
M  V30 2800 H 262.684 -2.62323 -1.70015 0
M  V30 2801 H 261.904 -3.91948 0.420804 0
M  V30 2802 H 263.192 -5.08743 0.0760765 0
M  V30 2803 H 262.59 -4.741 -3.08619 0
M  V30 2804 H 261.147 -5.66276 -3.22761 0
M  V30 2805 N 264.58 -0.43555 -1.51462 0
M  V30 2806 C 265.543 0.365137 -2.26273 0
M  V30 2807 C 266.543 0.951227 -1.29647 0
M  V30 2808 O 267.733 0.825958 -1.53374 0
M  V30 2809 C 264.865 1.51645 -3.05314 0
M  V30 2810 H 266.058 -0.290474 -2.9849 0
M  V30 2811 H 263.611 -0.188676 -1.55157 0
M  V30 2812 H 264.346 2.20816 -2.3751 0
M  V30 2813 H 264.131 1.10238 -3.76284 0
M  V30 2814 H 265.621 2.08218 -3.61987 0
M  V30 2815 N 266.058 1.56714 -0.166846 0
M  V30 2816 C 267.307 1.95922 0.479318 0
M  V30 2817 C 267.62 1.05529 1.6469 0
M  V30 2818 O 268.826 1.34399 2.35901 0
M  V30 2819 C 267.282 3.48359 0.90412 0
M  V30 2820 C 266.89 4.47369 -0.237621 0
M  V30 2821 C 268.634 3.96394 1.51896 0
M  V30 2822 C 266.541 5.91039 0.206561 0
M  V30 2823 H 265.471 0.731495 0.18284 0
M  V30 2824 H 268.122 1.81728 -0.254363 0
M  V30 2825 H 266.504 3.57955 1.69365 0
M  V30 2826 H 267.678 4.49485 -1.01489 0
M  V30 2827 H 265.993 4.09366 -0.762128 0
M  V30 2828 H 268.59 5.01186 1.86325 0
M  V30 2829 H 268.933 3.39075 2.41524 0
M  V30 2830 H 269.466 3.89796 0.79395 0
M  V30 2831 H 266.205 6.52221 -0.654834 0
M  V30 2832 H 265.725 5.9224 0.949282 0
M  V30 2833 H 267.404 6.43707 0.651939 0
M  V30 2834 N 267.536 -0.106894 1.57237 0
M  V30 2835 C 268.468 -1.15646 1.97885 0
M  V30 2836 C 269.481 -1.36981 0.879779 0
M  V30 2837 O 270.67 -1.35841 1.15799 0
M  V30 2838 C 267.77 -2.51425 2.27241 0
M  V30 2839 C 266.943 -2.50529 3.58545 0
M  V30 2840 C 266.002 -3.68145 3.75973 0
M  V30 2841 O 265.028 -3.51176 4.47956 0
M  V30 2842 N 266.23 -4.87177 3.15656 0
M  V30 2843 H 268.995 -0.81059 2.8853 0
M  V30 2844 H 266.556 -0.296024 1.59171 0
M  V30 2845 H 268.548 -3.28689 2.36105 0
M  V30 2846 H 267.118 -2.78147 1.42663 0
M  V30 2847 H 266.338 -1.58894 3.60758 0
M  V30 2848 H 267.626 -2.46997 4.44826 0
M  V30 2849 H 267.024 -5.03868 2.57165 0
M  V30 2850 H 265.581 -5.62075 3.30023 0
M  V30 2851 N 269.014 -1.53014 -0.377408 0
M  V30 2852 C 269.924 -1.81557 -1.48574 0
M  V30 2853 C 270.94 -0.703102 -1.59162 0
M  V30 2854 O 272.116 -0.99192 -1.75279 0
M  V30 2855 C 269.181 -1.9889 -2.83978 0
M  V30 2856 C 268.242 -3.22801 -2.83016 0
M  V30 2857 C 267.475 -3.39298 -4.11962 0
M  V30 2858 O 267.698 -2.60345 -5.0752 0
M  V30 2859 O 266.632 -4.32604 -4.18494 0
M  V30 2860 H 270.458 -2.75695 -1.27382 0
M  V30 2861 H 268.043 -1.38248 -0.566373 0
M  V30 2862 H 269.925 -2.11931 -3.6423 0
M  V30 2863 H 268.6 -1.07942 -3.05172 0
M  V30 2864 H 267.507 -3.15193 -2.01505 0
M  V30 2865 H 268.84 -4.13632 -2.66775 0
M  V30 2866 N 270.492 0.636531 -1.44174 0
M  V30 2867 C 271.402 1.77754 -1.53103 0
M  V30 2868 C 272.418 1.68928 -0.417034 0
M  V30 2869 O 273.594 1.89801 -0.6736 0
M  V30 2870 C 270.659 3.14115 -1.46741 0
M  V30 2871 C 269.72 3.34612 -2.68948 0
M  V30 2872 C 268.953 4.64467 -2.6288 0
M  V30 2873 O 269.176 5.44919 -1.68581 0
M  V30 2874 O 268.11 4.87049 -3.53648 0
M  V30 2875 H 271.936 1.73174 -2.49489 0
M  V30 2876 H 269.521 0.79709 -1.2636 0
M  V30 2877 H 271.403 3.95412 -1.45696 0
M  V30 2878 H 270.078 3.19249 -0.534975 0
M  V30 2879 H 268.985 2.53014 -2.75562 0
M  V30 2880 H 270.318 3.34336 -3.61221 0
M  V30 2881 N 271.97 1.30982 0.876444 0
M  V30 2882 C 273.247 1.10942 1.61094 0
M  V30 2883 C 273.627 -0.338223 2.08373 0
M  V30 2884 O 272.975 -1.33122 1.85717 0
M  V30 2885 C 273.185 2.11789 2.77392 0
M  V30 2886 C 274.533 2.43965 3.47514 0
M  V30 2887 O 275.557 2.10166 2.87591 0
M  V30 2888 O 274.416 3.01817 4.55597 0
M  V30 2889 H 271.51 0.42667 0.708436 0
M  V30 2890 H 274.056 1.42438 0.922474 0
M  V30 2891 H 272.828 3.09194 2.39823 0
M  V30 2892 H 272.451 1.81161 3.5393 0
M  V30 2893 N 273.449 -1.08991 1.13837 0
M  V30 2894 C 274.695 -1.81699 0.91417 0
M  V30 2895 C 275.05 -1.84264 -0.553594 0
M  V30 2896 O 274.343 -1.30313 -1.4046 0
M  V30 2897 C 274.537 -3.27042 1.44147 0
M  V30 2898 C 274.366 -3.38637 2.95897 0
M  V30 2899 C 273.136 -3.50177 3.64286 0
M  V30 2900 C 275.334 -3.30791 3.93804 0
M  V30 2901 N 273.316 -3.50501 5.04006 0
M  V30 2902 C 274.687 -3.38037 5.19741 0
M  V30 2903 C 276.742 -3.14488 3.86007 0
M  V30 2904 C 275.445 -3.30659 6.38793 0
M  V30 2905 C 277.471 -3.08438 5.04599 0
M  V30 2906 C 276.833 -3.1628 6.29402 0
M  V30 2907 H 272.932 -0.678967 0.387979 0
M  V30 2908 H 275.516 -1.30224 1.4474 0
M  V30 2909 H 273.687 -3.76976 0.935091 0
M  V30 2910 H 275.419 -3.87785 1.1578 0
M  V30 2911 H 272.174 -3.53815 3.1482 0
M  V30 2912 H 272.598 -3.54236 5.76928 0
M  V30 2913 H 277.24 -3.07291 2.90399 0
M  V30 2914 H 274.958 -3.36618 7.34652 0
M  V30 2915 H 278.544 -2.96952 5.0031 0
M  V30 2916 H 277.424 -3.1162 7.19627 0
M  V30 2917 N 274.927 -0.932562 -1.27047 0
M  V30 2918 C 276.338 -0.619451 -1.76124 0
M  V30 2919 C 276.689 0.865397 -1.76083 0
M  V30 2920 O 275.814 1.67722 -1.36742 0
M  V30 2921 C 276.409 -1.11771 -3.19832 0
M  V30 2922 C 274.968 -0.855174 -3.66557 0
M  V30 2923 C 274.115 -1.27362 -2.46321 0
M  V30 2924 H 277.066 -1.11181 -1.13245 0
M  V30 2925 H 277.087 -0.46759 -3.77616 0
M  V30 2926 H 276.599 -2.19842 -3.1983 0
M  V30 2927 H 274.7 0.211524 -3.71999 0
M  V30 2928 H 274.813 -1.47613 -4.55793 0
M  V30 2929 H 273.177 -0.692119 -2.45116 0
M  V30 2930 H 273.96 -2.36307 -2.49025 0
M  V30 2931 N 276.405 1.4127 -0.698611 0
M  V30 2932 C 277.368 2.29158 -0.044132 0
M  V30 2933 C 278.368 1.44529 0.704841 0
M  V30 2934 O 279.558 1.65643 0.539276 0
M  V30 2935 C 276.69 3.27459 0.947809 0
M  V30 2936 H 277.883 2.88529 -0.817994 0
M  V30 2937 H 275.436 1.49307 -0.46228 0
M  V30 2938 H 276.171 2.73073 1.74933 0
M  V30 2939 H 275.956 3.8991 0.41385 0
M  V30 2940 H 277.446 3.93311 1.40344 0
M  V30 2941 N 277.883 0.443576 1.51229 0
M  V30 2942 C 278.813 -0.355142 2.30783 0
M  V30 2943 C 279.794 -1.0154 1.36468 0
M  V30 2944 O 280.979 -1.01785 1.65389 0
M  V30 2945 C 278.109 -1.45312 3.15439 0
M  V30 2946 C 277.063 -0.916002 4.18083 0
M  V30 2947 C 276.389 -2.1102 4.91299 0
M  V30 2948 C 277.689 0.0538602 5.22272 0
M  V30 2949 H 279.383 0.308767 2.97804 0
M  V30 2950 H 276.929 0.149937 1.43217 0
M  V30 2951 H 278.882 -2.01914 3.69876 0
M  V30 2952 H 277.606 -2.14541 2.46252 0
M  V30 2953 H 276.265 -0.372145 3.64706 0
M  V30 2954 H 275.913 -2.78882 4.18609 0
M  V30 2955 H 275.613 -1.75717 5.60712 0
M  V30 2956 H 277.137 -2.68164 5.48562 0
M  V30 2957 H 278.551 -0.422069 5.71744 0
M  V30 2958 H 276.948 0.319776 5.99247 0
M  V30 2959 H 278.018 0.98858 4.74716 0
M  V30 2960 N 279.361 -1.56624 0.175154 0
M  V30 2961 C 280.609 -1.96609 -0.467885 0
M  V30 2962 C 280.93 -1.06238 -1.63519 0
M  V30 2963 O 280.2 -0.129523 -1.95471 0
M  V30 2964 H 278.78 -0.726008 -0.175845 0
M  V30 2965 H 281.442 -1.93195 0.257234 0
M  V30 2966 H 280.538 -3.00989 -0.825342 0
M  V30 2967 N 280.839 0.0985539 -1.57292 0
M  V30 2968 C 282.25 0.653457 -1.74891 0
M  V30 2969 C 282.601 1.7929 -0.796838 0
M  V30 2970 O 281.726 2.16385 0.0254886 0
M  V30 2971 C 282.321 1.19216 -3.17133 0
M  V30 2972 C 280.88 1.69316 -3.36168 0
M  V30 2973 C 280.027 0.601294 -2.70702 0
M  V30 2974 H 282.978 -0.127497 -1.58187 0
M  V30 2975 H 282.999 2.06154 -3.19814 0
M  V30 2976 H 282.511 0.362635 -3.86402 0
M  V30 2977 H 280.612 2.5468 -2.71972 0
M  V30 2978 H 280.725 1.78853 -4.44464 0
M  V30 2979 H 279.089 1.0399 -2.32504 0
M  V30 2980 H 279.872 -0.217592 -3.4261 0
M  V30 2981 N 282.317 1.53212 0.369288 0
M  V30 2982 C 283.227 1.82342 1.47609 0
M  V30 2983 C 284.243 0.711532 1.58787 0
M  V30 2984 O 285.419 1.0012 1.74751 0
M  V30 2985 C 282.484 2.00393 2.8292 0
M  V30 2986 C 281.545 3.24297 2.81301 0
M  V30 2987 C 280.778 3.41478 4.10157 0
M  V30 2988 O 281.001 2.63033 5.06132 0
M  V30 2989 O 279.935 4.34817 4.16194 0
M  V30 2990 H 283.761 2.76366 1.25918 0
M  V30 2991 H 281.346 1.38547 0.559034 0
M  V30 2992 H 283.228 2.13859 3.63101 0
M  V30 2993 H 281.903 1.09559 3.04596 0
M  V30 2994 H 280.81 3.16257 1.99831 0
M  V30 2995 H 282.143 4.15041 2.64578 0
M  V30 2996 N 283.795 -0.628877 1.44509 0
M  V30 2997 C 285.041 -1.38863 1.48623 0
M  V30 2998 C 285.396 -1.92038 0.117933 0
M  V30 2999 O 284.689 -1.70853 -0.86716 0
M  V30 3000 C 284.883 -2.56995 2.48371 0
M  V30 3001 C 284.712 -2.15385 3.94765 0
M  V30 3002 C 283.482 -2.02558 4.62924 0
M  V30 3003 C 285.68 -1.74158 4.83915 0
M  V30 3004 N 283.662 -1.54534 5.94132 0
M  V30 3005 C 285.033 -1.37396 6.04584 0
M  V30 3006 C 287.088 -1.61559 4.7096 0
M  V30 3007 C 285.791 -0.892948 7.13736 0
M  V30 3008 C 287.817 -1.14862 5.80139 0
M  V30 3009 C 287.179 -0.790516 6.9995 0
M  V30 3010 H 283.278 -0.502858 0.59888 0
M  V30 3011 H 285.862 -0.72121 1.8085 0
M  V30 3012 H 284.033 -3.21362 2.1813 0
M  V30 3013 H 285.765 -3.23801 2.42766 0
M  V30 3014 H 282.52 -2.23082 4.1777 0
M  V30 3015 H 282.944 -1.32815 6.63844 0
M  V30 3016 H 287.586 -1.87876 3.78764 0
M  V30 3017 H 285.304 -0.617291 8.05739 0
M  V30 3018 H 288.89 -1.05569 5.72142 0
M  V30 3019 H 287.77 -0.434713 7.82994 0
M  V30 3020 N 285.273 -1.31445 -0.869486 0
M  V30 3021 C 286.203 -1.21727 -1.99261 0
M  V30 3022 C 287.184 -0.104359 -1.6978 0
M  V30 3023 O 288.369 -0.289038 -1.92037 0
M  V30 3024 C 285.499 -0.924317 -3.34774 0
M  V30 3025 C 284.453 -1.99685 -3.78563 0
M  V30 3026 C 283.779 -1.55658 -5.11541 0
M  V30 3027 C 285.079 -3.41003 -3.95619 0
M  V30 3028 H 286.773 -2.1569 -2.07649 0
M  V30 3029 H 284.319 -1.03839 -0.997675 0
M  V30 3030 H 286.272 -0.842934 -4.12883 0
M  V30 3031 H 284.996 0.0509793 -3.2656 0
M  V30 3032 H 283.655 -2.06813 -3.02694 0
M  V30 3033 H 283.303 -0.569132 -4.9977 0
M  V30 3034 H 283.003 -2.27409 -5.41811 0
M  V30 3035 H 284.527 -1.48928 -5.92159 0
M  V30 3036 H 285.941 -3.36547 -4.64122 0
M  V30 3037 H 284.338 -4.10975 -4.37286 0
M  V30 3038 H 285.408 -3.81754 -2.98985 0
M  V30 3039 N 286.751 1.08385 -1.14413 0
M  V30 3040 C 287.999 1.80419 -0.910679 0
M  V30 3041 C 288.32 1.86658 0.564243 0
M  V30 3042 O 287.59 1.35985 1.41014 0
M  V30 3043 H 286.17 0.668204 -0.333934 0
M  V30 3044 H 288.832 1.31037 -1.44275 0
M  V30 3045 H 287.928 2.83238 -1.31082 0
M  V30 3046 O 288.268 1.07005 1.20964 0
M  V30 3047 H 288.959 0.754737 1.78391 0
M  V30 END ATOM
M  V30 BEGIN BOND
M  V30 END BOND
M  V30 END CTAB
M  END
$$$$
