drugbank_target|Q9RYA6 o-succinylbenzoate synthase (DB04167)
 OpenBabel12092120283D

  0  0  0     0  0            999 V3000
M  V30 BEGIN CTAB
M  V30 COUNTS 5763 5820 0 0 0
M  V30 BEGIN ATOM
M  V30 1 H -0.908 1.98254 -0.117106 0
M  V30 2 N 0 1.576 0 0
M  V30 3 C 0.933 2.03868 1.02534 0
M  V30 4 C 1.911 0.928543 1.3348 0
M  V30 5 O 3.095 1.19667 1.45644 0
M  V30 6 C 0.222 2.43627 2.35294 0
M  V30 7 C -0.732 3.65373 2.2001 0
M  V30 8 S 0.101 5.13292 1.52614 0
M  V30 9 C 1.257 5.56322 2.86805 0
M  V30 10 H 1.49 2.90518 0.631377 0
M  V30 11 H -0.977 1.52953 0.210867 0
M  V30 12 H 0.981 2.67203 3.11629 0
M  V30 13 H -0.358 1.57376 2.7183 0
M  V30 14 H -1.165 3.90944 3.18086 0
M  V30 15 H -1.563 3.418 1.51819 0
M  V30 16 H 0.729 5.58782 3.83104 0
M  V30 17 H 1.672 6.56266 2.65933 0
M  V30 18 H 2.08 4.83886 2.90714 0
M  V30 19 N 1.4781 -0.272755 1.55222 0
M  V30 20 C 2.4411 -1.32041 1.87344 0
M  V30 21 C 3.4411 -1.42342 0.74803 0
M  V30 22 O 4.6311 -1.41488 1.0162 0
M  V30 23 C 1.7631 -2.70173 2.07893 0
M  V30 24 H 2.9561 -1.04789 2.80997 0
M  V30 25 H 0.5091 -0.51083 1.47717 0
M  V30 26 H 1.2441 -3.02605 1.16622 0
M  V30 27 H 1.0291 -2.64082 2.89833 0
M  V30 28 H 2.5191 -3.45869 2.34017 0
M  V30 29 N 2.9562 -1.48159 -0.537278 0
M  V30 30 C 3.9062 -1.5854 -1.63857 0
M  V30 31 C 4.8902 -0.442969 -1.54682 0
M  V30 32 O 6.0822 -0.69401 -1.62827 0
M  V30 33 C 3.2112 -1.62144 -3.02596 0
M  V30 34 C 2.2972 -2.81841 -3.16901 0
M  V30 35 N 2.6882 -4.06337 -3.01204 0
M  V30 36 C 0.9862 -2.79021 -3.47942 0
M  V30 37 C 1.6872 -4.86606 -3.18731 0
M  V30 38 N 0.6632 -4.19288 -3.45974 0
M  V30 39 H 4.4652 -2.5255 -1.50319 0
M  V30 40 H 1.9792 -1.4443 -0.742555 0
M  V30 41 H 3.9762 -1.67674 -3.81695 0
M  V30 42 H 2.6362 -0.69245 -3.17231 0
M  V30 43 H 3.6472 -4.36888 -2.78117 0
M  V30 44 H 0.3242 -1.95347 -3.6898 0
M  V30 45 H 1.7142 -5.95385 -3.11394 0
M  V30 46 N 4.4343 0.785586 -1.36625 0
M  V30 47 C 5.6623 1.57448 -1.3423 0
M  V30 48 C 6.0773 1.88649 0.0755653 0
M  V30 49 O 5.4343 1.50414 1.03354 0
M  V30 50 C 5.4853 2.89316 -2.16745 0
M  V30 51 O 5.2063 2.59459 -3.53005 0
M  V30 52 C 6.7073 3.83606 -2.22174 0
M  V30 53 H 3.9273 0.488226 -0.4603 0
M  V30 54 H 6.4713 0.974733 -1.79775 0
M  V30 55 H 4.6263 3.4575 -1.74745 0
M  V30 56 H 5.0403 3.43804 -3.96105 0
M  V30 57 H 6.5143 4.73181 -2.8426 0
M  V30 58 H 6.9913 4.21734 -1.22627 0
M  V30 59 H 7.5973 3.33104 -2.64427 0
M  V30 60 N 5.9124 1.20967 1.01018 0
M  V30 61 C 7.1604 1.02172 1.74371 0
M  V30 62 C 7.4814 -0.446414 1.89821 0
M  V30 63 O 6.7514 -1.32234 1.44537 0
M  V30 64 H 5.3314 0.375066 0.646014 0
M  V30 65 H 7.9934 1.52187 1.21758 0
M  V30 66 H 7.0894 1.48538 2.74487 0
M  V30 67 N 7.3905 -1.2043 1.01659 0
M  V30 68 C 8.8065 -1.41852 0.731442 0
M  V30 69 C 9.0065 -1.89358 -0.688898 0
M  V30 70 O 8.0625 -2.06247 -1.45666 0
M  V30 71 C 9.3755 -2.44019 1.75714 0
M  V30 72 C 10.9235 -2.57785 1.77527 0
M  V30 73 C 11.3985 -3.63194 2.79023 0
M  V30 74 N 12.8895 -3.70678 2.77763 0
M  V30 75 C 13.6245 -4.51897 3.52954 0
M  V30 76 N 13.1205 -5.36921 4.37821 0
M  V30 77 N 14.9135 -4.4643 3.41551 0
M  V30 78 H 7.0645 -0.879093 1.93354 0
M  V30 79 H 9.3275 -0.448425 0.835236 0
M  V30 80 H 9.0335 -2.1611 2.77469 0
M  V30 81 H 8.9075 -3.43007 1.56927 0
M  V30 82 H 11.2945 -2.85023 0.764569 0
M  V30 83 H 11.3755 -1.58992 2.00387 0
M  V30 84 H 11.0195 -3.36699 3.80258 0
M  V30 85 H 10.9495 -4.61609 2.53425 0
M  V30 86 H 13.4405 -3.09944 2.16201 0
M  V30 87 H 13.7535 -5.95981 4.91962 0
M  V30 88 H 12.0985 -5.36424 4.41899 0
M  V30 89 H 15.2895 -3.79042 2.74672 0
M  V30 90 H 15.4625 -5.09491 4.00404 0
M  V30 91 N 8.8686 -0.792821 -1.36206 0
M  V30 92 C 9.8016 -0.139422 -2.27774 0
M  V30 93 C 10.7796 0.68649 -1.47398 0
M  V30 94 O 11.9636 0.656738 -1.7669 0
M  V30 95 C 9.0906 0.807947 -3.28922 0
M  V30 96 C 8.1366 0.0633999 -4.26453 0
M  V30 97 S 8.9696 -1.26319 -5.20388 0
M  V30 98 C 10.1256 -0.31991 -6.25082 0
M  V30 99 H 10.3586 -0.915809 -2.82843 0
M  V30 100 H 7.8916 -0.587203 -1.42798 0
M  V30 101 H 9.8496 1.34908 -3.87699 0
M  V30 102 H 8.5106 1.55761 -2.72759 0
M  V30 103 H 7.7036 0.782386 -4.9789 0
M  V30 104 H 7.3056 -0.407352 -3.71775 0
M  V30 105 H 9.5976 0.499985 -6.75653 0
M  V30 106 H 10.5406 -1.00307 -7.00959 0
M  V30 107 H 10.9486 0.0782694 -5.64446 0
M  V30 108 N 10.3467 1.47872 -0.545128 0
M  V30 109 C 11.5937 2.02493 -0.0165858 0
M  V30 110 C 11.9217 1.42073 1.32836 0
M  V30 111 O 11.1767 0.561459 1.87473 0
M  V30 112 C 11.4757 3.57131 0.13867 0
M  V30 113 C 11.1417 4.36411 -1.13384 0
M  V30 114 C 9.8037 4.57792 -1.48256 0
M  V30 115 C 12.1557 4.82223 -1.97764 0
M  V30 116 C 9.4837 5.22233 -2.67376 0
M  V30 117 C 11.8357 5.47977 -3.16076 0
M  V30 118 C 10.4997 5.67593 -3.51275 0
M  V30 119 H 9.7697 0.740975 -0.00606918 0
M  V30 120 H 12.4167 1.77683 -0.714207 0
M  V30 121 H 10.7217 3.80865 0.919172 0
M  V30 122 H 12.4187 3.97031 0.562782 0
M  V30 123 H 9.0087 4.2004 -0.852297 0
M  V30 124 H 13.1927 4.65493 -1.72132 0
M  V30 125 H 8.4487 5.35616 -2.94831 0
M  V30 126 H 12.6227 5.8244 -3.81755 0
M  V30 127 H 10.2497 6.17298 -4.43675 0
M  V30 128 N 11.8248 0.280983 1.55075 0
M  V30 129 C 12.7718 -0.603937 2.22758 0
M  V30 130 C 13.7418 -1.1452 1.20309 0
M  V30 131 O 14.9268 -1.19343 1.48869 0
M  V30 132 C 12.0668 -1.77947 2.95684 0
M  V30 133 C 11.1798 -1.2715 4.12864 0
M  V30 134 C 10.3148 -2.4093 4.7342 0
M  V30 135 C 9.3538 -1.87165 5.82783 0
M  V30 136 N 8.4908 -2.94441 6.37377 0
M  V30 137 H 13.3308 -0.020124 2.97993 0
M  V30 138 H 10.8678 0.00183425 1.471 0
M  V30 139 H 12.8258 -2.47055 3.36184 0
M  V30 140 H 11.4558 -2.33522 2.22861 0
M  V30 141 H 10.5078 -0.473331 3.77444 0
M  V30 142 H 11.8198 -0.837751 4.91715 0
M  V30 143 H 10.9738 -3.18021 5.1667 0
M  V30 144 H 9.7128 -2.87623 3.93859 0
M  V30 145 H 8.7178 -1.08556 5.38976 0
M  V30 146 H 9.9428 -1.41401 6.64216 0
M  V30 147 H 7.8888 -3.40505 5.60707 0
M  V30 148 H 7.8058 -2.55501 7.11516 0
M  V30 149 H 9.0738 -3.71489 6.85285 0
M  V30 150 N 13.3029 -1.57598 0.00835791 0
M  V30 151 C 14.5519 -1.90107 -0.673968 0
M  V30 152 C 14.8649 -0.884275 -1.7447 0
M  V30 153 O 16.0709 -1.09987 -2.48224 0
M  V30 154 C 14.5269 -3.37497 -1.24995 0
M  V30 155 C 14.1349 -4.47491 -0.2136 0
M  V30 156 C 15.8789 -3.79104 -1.90999 0
M  V30 157 C 13.7859 -5.85963 -0.80005 0
M  V30 158 H 12.7159 -0.709393 -0.255495 0
M  V30 159 H 15.3669 -1.83365 0.0702693 0
M  V30 160 H 13.7489 -3.39102 -2.04513 0
M  V30 161 H 14.9229 -4.57414 0.557596 0
M  V30 162 H 13.2379 -4.14956 0.346474 0
M  V30 163 H 15.8349 -4.79901 -2.35795 0
M  V30 164 H 16.1779 -3.1306 -2.74407 0
M  V30 165 H 16.7109 -3.79833 -1.18203 0
M  V30 166 H 13.4499 -6.555 -0.00456708 0
M  V30 167 H 12.9699 -5.79687 -1.54021 0
M  V30 168 H 14.6489 -6.33884 -1.29615 0
M  V30 169 N 14.781 0.264519 -1.55364 0
M  V30 170 C 15.691 1.34902 -1.91934 0
M  V30 171 C 16.707 1.53595 -0.817593 0
M  V30 172 O 17.883 1.67558 -1.11742 0
M  V30 173 C 14.948 2.68676 -2.19121 0
M  V30 174 C 14.009 2.58657 -3.4263 0
M  V30 175 C 13.242 3.86051 -3.68511 0
M  V30 176 O 13.465 4.87126 -2.96757 0
M  V30 177 O 12.399 3.85744 -4.62045 0
M  V30 178 H 16.225 1.06883 -2.8427 0
M  V30 179 H 13.81 0.463775 -1.42019 0
M  V30 180 H 15.692 3.47759 -2.37995 0
M  V30 181 H 14.367 2.96463 -1.29966 0
M  V30 182 H 13.274 1.7792 -3.29082 0
M  V30 183 H 14.607 2.35818 -4.32031 0
M  V30 184 N 16.2591 1.48442 0.529413 0
M  V30 185 C 17.2221 1.62524 1.61612 0
M  V30 186 C 18.2221 0.498509 1.52877 0
M  V30 187 O 19.4121 0.76431 1.56537 0
M  V30 188 C 16.5441 1.59597 3.01233 0
M  V30 189 H 17.7371 2.59423 1.50465 0
M  V30 190 H 15.2901 1.37047 0.751514 0
M  V30 191 H 16.0251 0.641781 3.17886 0
M  V30 192 H 15.8101 2.41397 3.08982 0
M  V30 193 H 17.3001 1.72646 3.80241 0
M  V30 194 N 17.7372 -0.778329 1.37039 0
M  V30 195 C 18.7002 -1.87301 1.32102 0
M  V30 196 C 19.7002 -1.59198 0.226405 0
M  V30 197 O 20.8902 -1.67403 0.481861 0
M  V30 198 C 18.0222 -3.24309 1.05055 0
M  V30 199 H 19.2152 -1.93093 2.29467 0
M  V30 200 H 16.7682 -0.977358 1.21973 0
M  V30 201 H 17.5032 -3.24196 0.0819373 0
M  V30 202 H 17.2882 -3.46098 1.84279 0
M  V30 203 H 18.7782 -4.04382 1.04234 0
M  V30 204 N 19.2153 -1.21501 -1.00376 0
M  V30 205 C 20.1253 -0.991447 -2.12621 0
M  V30 206 C 21.1413 0.0568446 -1.73907 0
M  V30 207 O 22.3173 -0.13348 -2.00957 0
M  V30 208 C 19.3823 -0.560312 -3.42142 0
M  V30 209 C 18.4433 -1.68096 -3.95022 0
M  V30 210 C 17.6763 -1.2703 -5.18362 0
M  V30 211 O 17.8993 -0.144438 -5.70217 0
M  V30 212 O 16.8333 -2.08269 -5.64719 0
M  V30 213 H 20.6593 -1.93158 -2.34358 0
M  V30 214 H 18.2443 -0.999999 -1.10997 0
M  V30 215 H 20.1263 -0.329724 -4.20108 0
M  V30 216 H 18.8013 0.351089 -3.2179 0
M  V30 217 H 17.7083 -1.96597 -3.18278 0
M  V30 218 H 19.0413 -2.56983 -4.19786 0
M  V30 219 N 20.6934 1.19889 -1.02296 0
M  V30 220 C 21.9424 1.88743 -0.711257 0
M  V30 221 C 22.2554 1.80112 0.762817 0
M  V30 222 O 23.4614 2.44161 1.18733 0
M  V30 223 C 21.9174 3.38525 -1.22185 0
M  V30 224 C 21.5254 3.55727 -2.72328 0
M  V30 225 C 23.2694 4.12893 -0.985864 0
M  V30 226 C 21.1764 4.99369 -3.16835 0
M  V30 227 H 20.1064 0.706885 -0.262353 0
M  V30 228 H 22.7574 1.35586 -1.23648 0
M  V30 229 H 21.1394 3.91044 -0.624571 0
M  V30 230 H 22.3134 3.13564 -3.3766 0
M  V30 231 H 20.6284 2.94739 -2.9414 0
M  V30 232 H 23.2254 5.18813 -1.29374 0
M  V30 233 H 23.5684 4.16228 0.0775055 0
M  V30 234 H 24.1014 3.66494 -1.54684 0
M  V30 235 H 20.8404 5.01193 -4.22476 0
M  V30 236 H 20.3604 5.42317 -2.56228 0
M  V30 237 H 22.0394 5.67988 -3.09837 0
M  V30 238 N 22.1715 0.800033 1.35784 0
M  V30 239 C 23.4175 0.377901 1.99248 0
M  V30 240 C 23.7505 -1.05052 1.63333 0
M  V30 241 O 23.0255 -1.72768 0.893385 0
M  V30 242 C 23.3085 0.553922 3.55814 0
M  V30 243 C 23.1615 2.0268 4.01548 0
M  V30 244 C 24.4805 -0.0244802 4.40093 0
M  V30 245 H 21.5995 0.138782 0.723815 0
M  V30 246 H 24.2415 1.00835 1.61035 0
M  V30 247 H 22.3915 0.0172398 3.88496 0
M  V30 248 H 24.0635 2.62536 3.79305 0
M  V30 249 H 22.3065 2.5256 3.52698 0
M  V30 250 H 22.9775 2.10087 5.10458 0
M  V30 251 H 25.4535 0.433775 4.13833 0
M  V30 252 H 24.3295 0.128637 5.48749 0
M  V30 253 H 24.5905 -1.11758 4.27741 0
M  V30 254 N 23.6496 -1.47581 0.552962 0
M  V30 255 C 24.8956 -2.02782 0.0273648 0
M  V30 256 C 25.2286 -1.42687 -1.31734 0
M  V30 257 O 24.5036 -0.580897 -1.85623 0
M  V30 258 C 24.7866 -3.60031 -0.0702371 0
M  V30 259 C 24.6396 -4.30566 1.30126 0
M  V30 260 C 25.9586 -4.33028 -0.785771 0
M  V30 261 H 23.0776 -0.736912 0.0114185 0
M  V30 262 H 25.7196 -1.76056 0.714432 0
M  V30 263 H 23.8696 -3.82932 -0.655382 0
M  V30 264 H 25.5416 -4.19018 1.92929 0
M  V30 265 H 23.7846 -3.91086 1.87709 0
M  V30 266 H 24.4556 -5.39114 1.18573 0
M  V30 267 H 26.9316 -4.15095 -0.288982 0
M  V30 268 H 25.8076 -5.42695 -0.823013 0
M  V30 269 H 26.0686 -4.01945 -1.841 0
M  V30 270 N 25.1277 -0.289203 -1.54924 0
M  V30 271 C 26.0907 0.579144 -2.21762 0
M  V30 272 C 27.0907 1.07047 -1.1999 0
M  V30 273 O 28.2807 0.968384 -1.44803 0
M  V30 274 C 25.4127 1.80055 -2.8947 0
M  V30 275 H 26.6057 -0.00464908 -2.999 0
M  V30 276 H 24.1587 -0.0399306 -1.56249 0
M  V30 277 H 24.8937 2.42449 -2.15381 0
M  V30 278 H 24.6787 1.45602 -3.64064 0
M  V30 279 H 26.1687 2.41773 -3.40493 0
M  V30 280 N 26.6058 1.57591 -0.0167156 0
M  V30 281 C 28.0218 1.55946 0.339557 0
M  V30 282 C 28.2218 1.02109 1.73713 0
M  V30 283 O 27.2778 0.662303 2.43659 0
M  V30 284 C 28.5908 3.00037 0.199499 0
M  V30 285 C 30.1388 3.11805 0.273193 0
M  V30 286 C 30.6138 4.57713 0.162068 0
M  V30 287 N 32.1048 4.6268 0.219444 0
M  V30 288 C 32.8398 5.73185 0.157054 0
M  V30 289 N 32.3358 6.92786 0.0442936 0
M  V30 290 N 34.1288 5.61707 0.21014 0
M  V30 291 H 26.2798 1.90921 -0.930758 0
M  V30 292 H 28.5428 0.877674 -0.358319 0
M  V30 293 H 28.2488 3.4333 -0.76273 0
M  V30 294 H 28.1228 3.64387 0.974786 0
M  V30 295 H 30.5098 2.68433 1.22587 0
M  V30 296 H 30.5908 2.50201 -0.532256 0
M  V30 297 H 30.2348 5.01763 -0.78714 0
M  V30 298 H 30.1648 5.17283 0.986222 0
M  V30 299 H 32.6558 3.76649 0.307246 0
M  V30 300 H 32.9688 7.728 0.00304069 0
M  V30 301 H 31.3138 6.94999 0.00968457 0
M  V30 302 H 34.5048 4.6716 0.296546 0
M  V30 303 H 34.6778 6.47807 0.158054 0
M  V30 304 N 28.0839 -0.256276 1.55502 0
M  V30 305 C 29.0139 -1.32102 1.92539 0
M  V30 306 C 29.9949 -1.50684 0.789194 0
M  V30 307 O 31.1799 -1.63449 1.04872 0
M  V30 308 C 28.3099 -2.67752 2.21192 0
M  V30 309 C 27.2639 -2.63878 3.36975 0
M  V30 310 C 26.5899 -4.03236 3.51147 0
M  V30 311 C 27.8899 -2.21682 4.72921 0
M  V30 312 H 29.5839 -1.01351 2.81724 0
M  V30 313 H 27.1299 -0.486105 1.35547 0
M  V30 314 H 29.0829 -3.42365 2.45691 0
M  V30 315 H 27.8069 -3.0012 1.28824 0
M  V30 316 H 26.4659 -1.91722 3.12471 0
M  V30 317 H 26.1139 -4.32854 2.56216 0
M  V30 318 H 25.8139 -4.01535 4.29003 0
M  V30 319 H 27.3379 -4.79563 3.77957 0
M  V30 320 H 28.7519 -2.86023 4.96854 0
M  V30 321 H 27.1489 -2.3111 5.53812 0
M  V30 322 H 28.2189 -1.16833 4.70615 0
M  V30 323 N 29.562 -1.4872 -0.521534 0
M  V30 324 C 30.973 -1.50607 -1.10337 0
M  V30 325 C 31.324 -0.280612 -1.94183 0
M  V30 326 O 30.449 0.611507 -2.0758 0
M  V30 327 C 31.044 -2.72903 -2.00772 0
M  V30 328 C 29.603 -2.77634 -2.54158 0
M  V30 329 C 28.75 -2.44241 -1.31307 0
M  V30 330 H 31.701 -1.55714 -0.306388 0
M  V30 331 H 31.722 -2.519 -2.85178 0
M  V30 332 H 31.234 -3.62077 -1.39721 0
M  V30 333 H 29.335 -1.92689 -3.18907 0
M  V30 334 H 29.448 -3.79283 -2.92714 0
M  V30 335 H 27.812 -1.95577 -1.63161 0
M  V30 336 H 28.595 -3.35666 -0.719943 0
M  V30 337 N 31.0401 0.771051 -1.3745 0
M  V30 338 C 31.9701 1.89827 -1.3597 0
M  V30 339 C 32.9511 1.68562 -0.228216 0
M  V30 340 O 34.1361 1.8941 -0.428675 0
M  V30 341 C 31.2661 3.2712 -1.16662 0
M  V30 342 C 30.2201 3.6295 -2.2683 0
M  V30 343 C 29.5461 4.98791 -1.92644 0
M  V30 344 C 30.8461 3.69627 -3.69017 0
M  V30 345 H 32.5401 1.91323 -2.30295 0
M  V30 346 H 30.0861 0.919082 -1.10855 0
M  V30 347 H 32.0391 4.05615 -1.14256 0
M  V30 348 H 30.7631 3.26059 -0.187926 0
M  V30 349 H 29.4221 2.86763 -2.28392 0
M  V30 350 H 29.0701 4.94271 -0.933021 0
M  V30 351 H 28.7701 5.23733 -2.66416 0
M  V30 352 H 30.2941 5.79685 -1.91826 0
M  V30 353 H 31.7081 4.38273 -3.69581 0
M  V30 354 H 30.1051 4.06067 -4.41848 0
M  V30 355 H 31.1751 2.70273 -4.02592 0
M  V30 356 N 32.5182 1.22032 0.997298 0
M  V30 357 C 33.4652 0.986467 2.08656 0
M  V30 358 C 34.4352 -0.0902671 1.65855 0
M  V30 359 O 35.6202 0.0584294 1.90711 0
M  V30 360 C 32.7602 0.565569 3.40434 0
M  V30 361 C 31.8732 1.71259 3.96604 0
M  V30 362 C 31.0082 1.24011 5.16522 0
M  V30 363 C 30.0472 2.35896 5.64818 0
M  V30 364 N 29.1842 1.89726 6.7598 0
M  V30 365 H 34.0242 1.91892 2.27994 0
M  V30 366 H 31.5612 0.956199 1.11782 0
M  V30 367 H 33.5192 0.302738 4.161 0
M  V30 368 H 32.1492 -0.329879 3.2111 0
M  V30 369 H 31.2012 2.08986 3.17851 0
M  V30 370 H 32.5132 2.55436 4.28432 0
M  V30 371 H 31.6672 0.934395 5.99461 0
M  V30 372 H 30.4062 0.368487 4.86306 0
M  V30 373 H 29.4112 2.67261 4.8047 0
M  V30 374 H 30.6362 3.23567 5.97061 0
M  V30 375 H 28.5822 1.0492 6.47555 0
M  V30 376 H 28.4992 2.67471 7.07103 0
M  V30 377 H 29.7672 1.62211 7.62435 0
M  V30 378 N 33.9963 -1.19345 1.0293 0
M  V30 379 C 35.2433 -1.89038 0.726008 0
M  V30 380 C 35.5713 -1.79649 -0.745427 0
M  V30 381 O 34.8263 -1.18354 -1.55855 0
M  V30 382 C 35.1253 -3.39292 1.12319 0
M  V30 383 C 34.7913 -3.68885 2.59297 0
M  V30 384 C 33.4533 -3.76671 2.99453 0
M  V30 385 C 35.8053 -3.82178 3.54386 0
M  V30 386 C 33.1333 -3.9522 4.33611 0
M  V30 387 C 35.4853 -4.0224 4.88248 0
M  V30 388 C 34.1493 -4.08259 5.28092 0
M  V30 389 H 33.4193 -0.691739 0.265665 0
M  V30 390 H 36.0663 -1.41328 1.29223 0
M  V30 391 H 34.3713 -3.88903 0.475584 0
M  V30 392 H 36.0683 -3.91536 0.866037 0
M  V30 393 H 32.6583 -3.63433 2.27189 0
M  V30 394 H 36.8423 -3.75505 3.24514 0
M  V30 395 H 32.0983 -3.98119 4.64016 0
M  V30 396 H 36.2723 -4.11468 5.61843 0
M  V30 397 H 33.8993 -4.22384 6.32057 0
M  V30 398 N 35.4744 -0.807222 -1.35358 0
M  V30 399 C 36.8904 -0.491038 -1.51858 0
M  V30 400 C 37.0904 0.987648 -1.75635 0
M  V30 401 O 36.1464 1.77265 -1.79815 0
M  V30 402 C 37.4594 -1.33695 -2.69344 0
M  V30 403 C 39.0074 -1.33246 -2.83222 0
M  V30 404 C 39.4824 -2.1625 -4.03733 0
M  V30 405 N 40.9734 -2.1379 -4.10911 0
M  V30 406 C 41.7084 -2.74772 -5.03277 0
M  V30 407 N 41.2044 -3.44684 -6.0097 0
M  V30 408 N 42.9974 -2.6441 -4.96028 0
M  V30 409 H 35.1484 -1.76485 -1.18181 0
M  V30 410 H 37.4114 -0.751199 -0.578276 0
M  V30 411 H 37.1174 -2.38634 -2.58354 0
M  V30 412 H 36.9914 -0.990618 -3.6396 0
M  V30 413 H 39.3784 -0.290911 -2.93663 0
M  V30 414 H 39.4594 -1.71866 -1.89461 0
M  V30 415 H 39.1034 -3.20445 -3.94052 0
M  V30 416 H 39.0334 -1.74989 -4.96675 0
M  V30 417 H 41.5244 -1.62923 -3.40976 0
M  V30 418 H 41.8374 -3.88501 -6.68047 0
M  V30 419 H 40.1824 -3.48788 -6.01142 0
M  V30 420 H 43.3734 -2.0938 -4.18662 0
M  V30 421 H 43.5464 -3.12225 -5.6782 0
M  V30 422 N 36.9525 1.47285 -0.560781 0
M  V30 423 C 38.1995 2.02464 -0.038062 0
M  V30 424 C 38.5275 1.43474 1.31322 0
M  V30 425 O 37.7825 0.581311 1.86867 0
M  V30 426 C 38.0815 3.57258 0.100784 0
M  V30 427 C 37.7475 4.35184 -1.18007 0
M  V30 428 C 36.4095 4.56194 -1.53103 0
M  V30 429 C 38.7615 4.80098 -2.02867 0
M  V30 430 C 36.0895 5.19367 -2.729 0
M  V30 431 C 38.4415 5.44593 -3.21871 0
M  V30 432 C 37.1055 5.63835 -3.57276 0
M  V30 433 H 36.3755 0.740869 -0.0139279 0
M  V30 434 H 39.0225 1.76916 -0.733012 0
M  V30 435 H 37.3275 3.81819 0.878724 0
M  V30 436 H 39.0245 3.97606 0.520639 0
M  V30 437 H 35.6145 4.19113 -0.8968 0
M  V30 438 H 39.7985 4.63642 -1.7706 0
M  V30 439 H 35.0545 5.32459 -3.00496 0
M  V30 440 H 39.2285 5.78358 -3.87911 0
M  V30 441 H 36.8555 6.12557 -4.50197 0
M  V30 442 N 38.4306 0.297415 1.54768 0
M  V30 443 C 39.3406 -0.58983 2.27064 0
M  V30 444 C 40.3566 -1.15144 1.30453 0
M  V30 445 O 41.5326 -1.17699 1.63428 0
M  V30 446 C 38.5976 -1.74714 2.9946 0
M  V30 447 C 37.6586 -1.21997 4.11601 0
M  V30 448 C 36.8916 -2.32212 4.80535 0
M  V30 449 O 37.1146 -3.52036 4.48806 0
M  V30 450 O 36.0486 -1.99106 5.68014 0
M  V30 451 H 39.8746 -0.00348199 3.037 0
M  V30 452 H 37.4596 0.0640035 1.49263 0
M  V30 453 H 39.3416 -2.42147 3.44881 0
M  V30 454 H 38.0166 -2.32016 2.25722 0
M  V30 455 H 36.9236 -0.511458 3.70587 0
M  V30 456 H 38.2566 -0.692419 4.87305 0
M  V30 457 N 39.9087 -1.5758 0.0250728 0
M  V30 458 C 41.1367 -1.9593 -0.664747 0
M  V30 459 C 41.5517 -0.901352 -1.65895 0
M  V30 460 O 40.9087 0.117255 -1.82123 0
M  V30 461 C 40.9597 -3.34342 -1.37468 0
M  V30 462 O 40.6807 -4.36079 -0.420324 0
M  V30 463 C 42.1817 -3.873 -2.1567 0
M  V30 464 H 39.4017 -0.645405 -0.183557 0
M  V30 465 H 41.9457 -2.04329 0.0836372 0
M  V30 466 H 40.1007 -3.27175 -2.0745 0
M  V30 467 H 40.5147 -5.16297 -0.923991 0
M  V30 468 H 41.9887 -4.86504 -2.60803 0
M  V30 469 H 42.4657 -3.21331 -2.99405 0
M  V30 470 H 43.0717 -3.97723 -1.50654 0
M  V30 471 N 41.3868 0.248026 -1.55636 0
M  V30 472 C 42.6118 0.998028 -1.81808 0
M  V30 473 C 43.0368 1.78207 -0.601979 0
M  V30 474 O 42.3948 1.75653 0.448961 0
M  V30 475 C 42.4428 1.9125 -3.05705 0
M  V30 476 O 41.5468 3.00406 -2.82542 0
M  V30 477 H 40.8878 0.284045 -0.600179 0
M  V30 478 H 43.4178 0.269357 -2.02819 0
M  V30 479 H 43.4278 2.32737 -3.35108 0
M  V30 480 H 42.1028 1.33602 -3.93857 0
M  V30 481 H 40.6798 2.63056 -2.64303 0
M  V30 482 N 42.8649 1.48995 0.513639 0
M  V30 483 C 44.1119 1.57843 1.26854 0
M  V30 484 C 44.4399 0.259501 1.92761 0
M  V30 485 O 43.6949 -0.75159 1.80692 0
M  V30 486 C 43.9939 2.67756 2.36731 0
M  V30 487 C 43.6599 4.09669 1.88368 0
M  V30 488 C 42.3219 4.48291 1.74896 0
M  V30 489 C 44.6739 4.98537 1.52021 0
M  V30 490 C 42.0019 5.73568 1.23438 0
M  V30 491 C 44.3539 6.24319 1.0202 0
M  V30 492 C 43.0179 6.61783 0.871778 0
M  V30 493 H 42.2879 0.577587 0.464192 0
M  V30 494 H 44.9349 1.82778 0.571366 0
M  V30 495 H 43.2399 2.36743 3.12185 0
M  V30 496 H 44.9369 2.71813 2.9482 0
M  V30 497 H 41.5269 3.79176 1.99808 0
M  V30 498 H 45.7109 4.69363 1.61281 0
M  V30 499 H 40.9669 6.01304 1.10648 0
M  V30 500 H 45.1409 6.92566 0.729722 0
M  V30 501 H 42.7679 7.5874 0.470852 0
M  V30 502 N 44.343 -0.763751 1.37857 0
M  V30 503 C 45.591 -1.51957 1.33243 0
M  V30 504 C 45.912 -1.94835 -0.0801709 0
M  V30 505 O 45.182 -1.66894 -1.02582 0
M  V30 506 H 43.762 -0.563626 0.49024 0
M  V30 507 H 46.424 -0.908504 1.7243 0
M  V30 508 H 45.52 -2.41523 1.97669 0
M  V30 509 N 45.8211 -1.22559 -0.990812 0
M  V30 510 C 47.0671 -1.05297 -1.73322 0
M  V30 511 C 47.4001 0.410655 -1.89808 0
M  V30 512 O 46.6751 1.30439 -1.44277 0
M  V30 513 C 46.9581 -1.76713 -3.13759 0
M  V30 514 C 46.8111 -3.30684 -3.04907 0
M  V30 515 C 48.1301 -1.52121 -4.12974 0
M  V30 516 H 45.2491 -0.38392 -0.629106 0
M  V30 517 H 47.8911 -1.50926 -1.15418 0
M  V30 518 H 46.0411 -1.37924 -3.63193 0
M  V30 519 H 47.7131 -3.7893 -2.63077 0
M  V30 520 H 45.9561 -3.60253 -2.41661 0
M  V30 521 H 46.6271 -3.75833 -4.04294 0
M  V30 522 H 49.1031 -1.85819 -3.72304 0
M  V30 523 H 47.9791 -2.04582 -5.0935 0
M  V30 524 H 48.2401 -0.454257 -4.3976 0
M  V30 525 N 47.2992 1.18797 -1.03562 0
M  V30 526 C 48.2312 2.21731 -0.580337 0
M  V30 527 C 49.2442 1.59051 0.347349 0
M  V30 528 O 50.4332 1.77929 0.142669 0
M  V30 529 C 47.5332 3.38459 0.172805 0
M  V30 530 C 46.7062 4.3072 -0.761496 0
M  V30 531 C 45.7652 5.26174 -0.0525547 0
M  V30 532 O 44.7912 5.65108 -0.681333 0
M  V30 533 N 45.9932 5.67624 1.21586 0
M  V30 534 H 48.7582 2.61417 -1.46565 0
M  V30 535 H 46.3192 1.33531 -0.915476 0
M  V30 536 H 48.3112 3.99335 0.656793 0
M  V30 537 H 46.8812 2.97507 0.959602 0
M  V30 538 H 46.1012 3.67525 -1.42544 0
M  V30 539 H 47.3892 4.89267 -1.39626 0
M  V30 540 H 46.7872 5.38038 1.74732 0
M  V30 541 H 45.3442 6.30721 1.64421 0
M  V30 542 N 48.7773 0.814389 1.34928 0
M  V30 543 C 50.0053 0.411136 2.02774 0
M  V30 544 C 50.4203 -0.980316 1.61354 0
M  V30 545 O 49.7773 -1.63299 0.814847 0
M  V30 546 C 49.8283 0.493865 3.58111 0
M  V30 547 O 49.5493 1.83047 3.98027 0
M  V30 548 C 51.0503 0.0844174 4.4322 0
M  V30 549 H 48.2703 0.166037 0.650133 0
M  V30 550 H 50.8143 1.10018 1.72384 0
M  V30 551 H 48.9693 -0.147006 3.87121 0
M  V30 552 H 49.3833 1.79872 4.92693 0
M  V30 553 H 50.8573 0.193404 5.51661 0
M  V30 554 H 51.3343 -0.97113 4.28329 0
M  V30 555 H 51.9403 0.69875 4.19521 0
M  V30 556 N 50.2554 -1.46986 0.568584 0
M  V30 557 C 51.2054 -2.27179 -0.193339 0
M  V30 558 C 52.1894 -1.35035 -0.874895 0
M  V30 559 O 53.3814 -1.5931 -0.771322 0
M  V30 560 C 50.5104 -3.21063 -1.21546 0
M  V30 561 C 49.5964 -4.2069 -0.536738 0
M  V30 562 N 49.9874 -5.04218 0.399673 0
M  V30 563 C 48.2854 -4.38961 -0.789254 0
M  V30 564 C 48.9864 -5.76242 0.795017 0
M  V30 565 N 47.9624 -5.434 0.1473 0
M  V30 566 H 51.7644 -2.89146 0.526458 0
M  V30 567 H 49.2784 -1.57664 0.389342 0
M  V30 568 H 51.2754 -3.77209 -1.77536 0
M  V30 569 H 49.9354 -2.60654 -1.93623 0
M  V30 570 H 50.9464 -5.12077 0.774454 0
M  V30 571 H 47.6234 -3.89713 -1.49767 0
M  V30 572 H 49.0134 -6.53417 1.56513 0
M  V30 573 N 51.7335 -0.305618 -1.54608 0
M  V30 574 C 52.6805 0.568421 -2.23691 0
M  V30 575 C 53.6505 1.12592 -1.22116 0
M  V30 576 O 54.8355 1.16959 -1.50749 0
M  V30 577 C 51.9755 1.7322 -2.98477 0
M  V30 578 C 51.0885 1.20566 -4.14835 0
M  V30 579 C 50.2235 2.33368 -4.77193 0
M  V30 580 C 49.2625 1.7787 -5.85686 0
M  V30 581 N 48.3995 2.84263 -6.4198 0
M  V30 582 H 53.2395 -0.0272867 -2.97988 0
M  V30 583 H 50.7765 -0.0252363 -1.47078 0
M  V30 584 H 52.7345 2.41675 -3.40072 0
M  V30 585 H 51.3645 2.29947 -2.26548 0
M  V30 586 H 50.4165 0.413223 -3.78149 0
M  V30 587 H 51.7285 0.759417 -4.92985 0
M  V30 588 H 50.8825 3.09761 -5.21664 0
M  V30 589 H 49.6215 2.8132 -3.98385 0
M  V30 590 H 48.6265 0.99968 -5.40635 0
M  V30 591 H 49.8515 1.30816 -6.66381 0
M  V30 592 H 47.7975 3.31541 -5.66053 0
M  V30 593 H 47.7145 2.44149 -7.15491 0
M  V30 594 H 48.9825 3.6054 -6.91109 0
M  V30 595 N 53.2116 1.57565 -0.0334293 0
M  V30 596 C 54.4576 1.92262 0.645226 0
M  V30 597 C 54.7906 0.910543 1.71531 0
M  V30 598 O 54.0656 -0.066099 1.94388 0
M  V30 599 C 54.3486 3.37422 1.2577 0
M  V30 600 C 54.2016 4.49369 0.196891 0
M  V30 601 C 55.5206 3.82628 2.17449 0
M  V30 602 H 52.6396 0.699171 0.233085 0
M  V30 603 H 55.2816 1.89779 -0.0915694 0
M  V30 604 H 53.4316 3.39669 1.88566 0
M  V30 605 H 55.1036 4.59254 -0.433962 0
M  V30 606 H 53.3466 4.31168 -0.477137 0
M  V30 607 H 54.0176 5.47978 0.665124 0
M  V30 608 H 56.4936 3.82145 1.64634 0
M  V30 609 H 55.3696 4.84883 2.57254 0
M  V30 610 H 55.6306 3.18376 3.0674 0
M  V30 611 N 54.6897 -0.239769 1.55765 0
M  V30 612 C 55.9357 -0.968234 1.78194 0
M  V30 613 C 56.2687 -1.84701 0.599938 0
M  V30 614 O 55.5437 -1.9031 -0.401524 0
M  V30 615 C 55.8267 -1.8227 3.10564 0
M  V30 616 C 55.6797 -0.971633 4.3918 0
M  V30 617 C 56.9987 -2.80388 3.39221 0
M  V30 618 H 54.1177 -0.350572 0.648281 0
M  V30 619 H 56.7597 -0.238259 1.885 0
M  V30 620 H 54.9097 -2.44507 3.01908 0
M  V30 621 H 56.5817 -0.367408 4.59835 0
M  V30 622 H 54.8247 -0.276276 4.32919 0
M  V30 623 H 55.4957 -1.60346 5.28198 0
M  V30 624 H 57.9717 -2.28287 3.47885 0
M  V30 625 H 56.8477 -3.3729 4.33044 0
M  V30 626 H 57.1087 -3.57212 2.60484 0
M  V30 627 N 56.1678 -1.49265 -0.50573 0
M  V30 628 C 57.5788 -1.51769 -1.08734 0
M  V30 629 C 57.9298 -0.301192 -1.93874 0
M  V30 630 O 57.0548 0.589456 -2.08217 0
M  V30 631 C 57.6498 -2.75017 -1.97867 0
M  V30 632 C 56.2088 -2.80314 -2.51199 0
M  V30 633 C 55.3558 -2.4562 -1.28709 0
M  V30 634 H 58.3068 -1.56031 -0.289855 0
M  V30 635 H 58.3278 -2.5491 -2.82491 0
M  V30 636 H 57.8398 -3.63539 -1.35873 0
M  V30 637 H 55.9408 -1.96061 -3.16845 0
M  V30 638 H 56.0538 -3.82366 -2.88675 0
M  V30 639 H 54.4178 -1.97297 -1.61078 0
M  V30 640 H 55.2008 -3.36411 -0.6843 0
M  V30 641 N 57.6459 0.756429 -1.3826 0
M  V30 642 C 58.5759 1.88374 -1.37976 0
M  V30 643 C 59.5569 1.68311 -0.246082 0
M  V30 644 O 60.7419 1.88944 -0.44874 0
M  V30 645 C 57.8719 3.25864 -1.20125 0
M  V30 646 C 56.8259 3.60523 -2.30666 0
M  V30 647 C 56.1519 4.9672 -1.97923 0
M  V30 648 C 57.4519 3.65692 -3.72916 0
M  V30 649 H 59.1459 1.88869 -2.32312 0
M  V30 650 H 56.6919 0.907272 -1.11824 0
M  V30 651 H 58.6449 4.0438 -1.18552 0
M  V30 652 H 57.3689 3.25841 -0.222498 0
M  V30 653 H 56.0279 2.84324 -2.3142 0
M  V30 654 H 55.6759 4.93253 -0.985393 0
M  V30 655 H 55.3759 5.20878 -2.71955 0
M  V30 656 H 56.8999 5.77618 -1.97964 0
M  V30 657 H 58.3139 4.34328 -3.74208 0
M  V30 658 H 56.7109 4.01358 -4.4613 0
M  V30 659 H 57.7809 2.65987 -4.05436 0
M  V30 660 N 59.124 1.23083 0.984299 0
M  V30 661 C 60.054 1.03292 2.09411 0
M  V30 662 C 61.035 -0.048923 1.7003 0
M  V30 663 O 62.22 0.114967 1.93859 0
M  V30 664 C 59.35 0.619155 3.41736 0
M  V30 665 C 58.304 1.64791 3.95004 0
M  V30 666 C 57.63 1.0897 5.23478 0
M  V30 667 C 58.93 3.03999 4.24714 0
M  V30 668 H 60.624 1.96119 2.26225 0
M  V30 669 H 58.17 0.944344 1.08711 0
M  V30 670 H 60.123 0.467777 4.18796 0
M  V30 671 H 58.847 -0.344786 3.24775 0
M  V30 672 H 57.506 1.78721 3.20085 0
M  V30 673 H 57.154 0.11686 5.02864 0
M  V30 674 H 56.854 1.77704 5.60085 0
M  V30 675 H 58.378 0.950093 6.03163 0
M  V30 676 H 59.792 2.93393 4.92538 0
M  V30 677 H 58.189 3.69936 4.72512 0
M  V30 678 H 59.259 3.53285 3.32142 0
M  V30 679 N 60.6021 -1.18246 1.0419 0
M  V30 680 C 61.8511 -1.87588 0.741194 0
M  V30 681 C 62.1641 -1.81303 -0.734066 0
M  V30 682 O 63.3701 -2.46019 -1.14834 0
M  V30 683 C 61.8261 -3.36538 1.27555 0
M  V30 684 C 61.4341 -3.51349 2.77953 0
M  V30 685 C 63.1781 -4.11273 1.05143 0
M  V30 686 C 61.0851 -4.94265 3.2474 0
M  V30 687 H 60.0151 -0.702622 0.273565 0
M  V30 688 H 62.6661 -1.33601 1.25789 0
M  V30 689 H 61.0481 -3.9 0.686703 0
M  V30 690 H 62.2221 -3.08153 3.42605 0
M  V30 691 H 60.5371 -2.90022 2.98791 0
M  V30 692 H 63.1341 -5.16689 1.37611 0
M  V30 693 H 63.4771 -4.16298 -0.0112774 0
M  V30 694 H 64.0101 -3.63987 1.60495 0
M  V30 695 H 60.7491 -4.94408 4.30396 0
M  V30 696 H 60.2691 -5.38172 2.64823 0
M  V30 697 H 61.9481 -5.62987 3.18834 0
M  V30 698 N 62.0802 -0.821533 -1.34494 0
M  V30 699 C 63.0102 -0.257138 -2.3208 0
M  V30 700 C 63.9912 0.625645 -1.58176 0
M  V30 701 O 65.1762 0.552811 -1.86166 0
M  V30 702 C 62.3062 0.582958 -3.42372 0
M  V30 703 C 61.2602 -0.202571 -4.2752 0
M  V30 704 C 60.5862 0.760179 -5.29269 0
M  V30 705 C 61.8862 -1.40998 -5.02908 0
M  V30 706 H 63.5802 -1.07247 -2.79532 0
M  V30 707 H 61.1262 -0.517163 -1.34393 0
M  V30 708 H 63.0792 0.987972 -4.09655 0
M  V30 709 H 61.8032 1.43133 -2.93565 0
M  V30 710 H 60.4622 -0.588936 -3.61838 0
M  V30 711 H 60.1102 1.60447 -4.76724 0
M  V30 712 H 59.8102 0.238809 -5.87115 0
M  V30 713 H 61.3342 1.16308 -5.9942 0
M  V30 714 H 62.7482 -1.07905 -5.63054 0
M  V30 715 H 61.1452 -1.86689 -5.70322 0
M  V30 716 H 62.2152 -2.1889 -4.32684 0
M  V30 717 N 63.5583 1.46682 -0.576371 0
M  V30 718 C 64.5083 2.27278 0.181288 0
M  V30 719 C 65.4923 1.35497 0.867721 0
M  V30 720 O 66.6843 1.59717 0.762863 0
M  V30 721 C 63.8133 3.21703 1.19841 0
M  V30 722 C 62.8993 4.20969 0.51442 0
M  V30 723 N 63.2903 5.03999 -0.426407 0
M  V30 724 C 61.5883 4.39373 0.765963 0
M  V30 725 C 62.2893 5.75812 -0.825565 0
M  V30 726 N 61.2653 5.43315 -0.176116 0
M  V30 727 H 65.0673 2.88863 -0.541785 0
M  V30 728 H 62.5813 1.57455 -0.397697 0
M  V30 729 H 64.5783 3.78145 1.75533 0
M  V30 730 H 63.2383 2.61677 1.92238 0
M  V30 731 H 64.2493 5.11659 -0.8016 0
M  V30 732 H 60.9263 3.90502 1.47698 0
M  V30 733 H 62.3163 6.52577 -1.59976 0
M  V30 734 N 65.0364 0.313813 1.54444 0
M  V30 735 C 66.2844 -0.291099 1.99993 0
M  V30 736 C 66.6054 -1.53418 1.20366 0
M  V30 737 O 65.8754 -1.93544 0.302927 0
M  V30 738 H 64.4554 -0.110552 0.738774 0
M  V30 739 H 67.1174 0.428106 1.9014 0
M  V30 740 H 66.2134 -0.554268 3.07139 0
M  V30 741 N 66.5145 -1.57545 0.0417849 0
M  V30 742 C 67.4245 -2.14451 -0.951213 0
M  V30 743 C 68.4405 -1.09992 -1.34825 0
M  V30 744 O 69.6165 -1.42114 -1.42708 0
M  V30 745 C 66.6815 -2.67063 -2.21084 0
M  V30 746 C 65.7425 -3.86284 -1.87304 0
M  V30 747 C 64.9755 -4.36378 -3.07261 0
M  V30 748 O 65.1985 -3.85587 -4.20332 0
M  V30 749 O 64.1325 -5.28077 -2.88822 0
M  V30 750 H 67.9585 -2.99601 -0.497287 0
M  V30 751 H 65.5435 -1.48317 -0.179567 0
M  V30 752 H 67.4255 -3.00914 -2.95006 0
M  V30 753 H 66.1005 -1.84989 -2.65633 0
M  V30 754 H 65.0075 -3.57338 -1.10727 0
M  V30 755 H 66.3405 -4.6956 -1.47562 0
M  V30 756 N 67.9926 0.231505 -1.5589 0
M  V30 757 C 69.2406 0.955461 -1.78088 0
M  V30 758 C 69.5616 1.85262 -0.608533 0
M  V30 759 O 68.8316 1.92277 0.375035 0
M  V30 760 H 67.4116 0.355787 -0.656829 0
M  V30 761 H 70.0736 0.245751 -1.93344 0
M  V30 762 H 69.1696 1.56814 -2.69844 0
M  V30 763 N 69.4707 1.49531 0.497807 0
M  V30 764 C 70.7167 1.59415 1.25358 0
M  V30 765 C 71.0497 0.281422 1.9215 0
M  V30 766 O 70.3247 -0.715249 1.80871 0
M  V30 767 C 70.6077 2.75566 2.3181 0
M  V30 768 C 70.4607 4.16642 1.69498 0
M  V30 769 C 71.7797 2.87347 3.33346 0
M  V30 770 H 68.8987 0.580244 0.454408 0
M  V30 771 H 71.5407 1.81827 0.551262 0
M  V30 772 H 69.6907 2.56587 2.91711 0
M  V30 773 H 71.3627 4.47145 1.13399 0
M  V30 774 H 69.6057 4.22141 0.998978 0
M  V30 775 H 70.2767 4.93792 2.46725 0
M  V30 776 H 72.7527 3.04634 2.83438 0
M  V30 777 H 71.6287 3.70289 4.05188 0
M  V30 778 H 71.8897 1.96834 3.95865 0
M  V30 779 N 70.9488 -0.749086 1.3866 0
M  V30 780 C 71.8808 -1.87273 1.32142 0
M  V30 781 C 72.8938 -1.61127 0.232787 0
M  V30 782 O 74.0828 -1.71623 0.49069 0
M  V30 783 C 71.1828 -3.23005 1.02571 0
M  V30 784 C 70.3558 -3.7662 2.22433 0
M  V30 785 C 69.4148 -4.90879 1.89537 0
M  V30 786 O 68.4408 -5.05276 2.62078 0
M  V30 787 N 69.6428 -5.74198 0.853031 0
M  V30 788 H 72.4078 -1.93373 2.28969 0
M  V30 789 H 69.9688 -0.929216 1.32579 0
M  V30 790 H 71.9608 -3.96992 0.786085 0
M  V30 791 H 70.5308 -3.12262 0.145249 0
M  V30 792 H 69.7508 -2.94147 2.62434 0
M  V30 793 H 71.0388 -4.09173 3.02415 0
M  V30 794 H 70.4368 -5.6514 0.25155 0
M  V30 795 H 68.9938 -6.48313 0.67329 0
M  V30 796 N 72.4269 -1.23603 -0.977757 0
M  V30 797 C 73.6749 -1.06759 -1.71601 0
M  V30 798 C 73.9959 0.395929 -1.90938 0
M  V30 799 O 73.2659 1.28356 -1.47992 0
M  V30 800 H 71.8459 -0.392062 -0.635843 0
M  V30 801 H 74.5079 -1.55362 -1.1768 0
M  V30 802 H 73.6039 -1.55763 -2.70452 0
M  V30 803 N 73.905 1.17692 -1.04816 0
M  V30 804 C 75.151 1.88137 -0.75711 0
M  V30 805 C 75.484 1.80604 0.713841 0
M  V30 806 O 74.759 1.21146 1.52164 0
M  V30 807 C 75.042 3.38318 -1.2334 0
M  V30 808 C 74.895 3.54622 -2.76701 0
M  V30 809 C 76.214 4.32214 -0.829415 0
M  V30 810 H 73.333 0.683163 -0.27651 0
M  V30 811 H 75.975 1.38424 -1.30149 0
M  V30 812 H 74.125 3.80787 -0.770286 0
M  V30 813 H 75.797 3.21194 -3.31107 0
M  V30 814 H 74.04 2.97026 -3.16161 0
M  V30 815 H 74.711 4.60028 -3.05088 0
M  V30 816 H 77.187 3.97565 -1.22805 0
M  V30 817 H 76.063 5.35838 -1.19033 0
M  V30 818 H 76.324 4.41294 0.266891 0
M  V30 819 N 75.3831 0.828654 1.34056 0
M  V30 820 C 76.3461 0.259927 2.27721 0
M  V30 821 C 77.3461 -0.565478 1.50529 0
M  V30 822 O 78.5361 -0.38075 1.69988 0
M  V30 823 C 75.6681 -0.634944 3.34935 0
M  V30 824 H 76.8611 1.0863 2.79534 0
M  V30 825 H 74.4141 0.600951 1.44285 0
M  V30 826 H 75.1491 -1.48416 2.88346 0
M  V30 827 H 74.9341 -0.0444999 3.92075 0
M  V30 828 H 76.4241 -1.02648 4.04788 0
M  V30 829 N 76.8612 -1.46375 0.584142 0
M  V30 830 C 77.7712 -2.34115 -0.150728 0
M  V30 831 C 78.7872 -1.49838 -0.884567 0
M  V30 832 O 79.9632 -1.82704 -0.847429 0
M  V30 833 C 77.0282 -3.2705 -1.15062 0
M  V30 834 C 76.0892 -4.27228 -0.421293 0
M  V30 835 C 75.3222 -5.15722 -1.37355 0
M  V30 836 O 75.5452 -5.07176 -2.61014 0
M  V30 837 O 74.4792 -5.95383 -0.883355 0
M  V30 838 H 78.3052 -2.98309 0.569708 0
M  V30 839 H 75.8902 -1.45373 0.344535 0
M  V30 840 H 77.7722 -3.84381 -1.72712 0
M  V30 841 H 76.4472 -2.65451 -1.8525 0
M  V30 842 H 75.3542 -3.7358 0.197085 0
M  V30 843 H 76.6872 -4.91616 0.239641 0
M  V30 844 N 78.3393 -0.321999 -1.54275 0
M  V30 845 C 79.5873 0.280489 -2.00144 0
M  V30 846 C 79.9083 1.52777 -1.21178 0
M  V30 847 O 79.1783 1.9338 -0.313187 0
M  V30 848 H 77.7583 0.106632 -0.73935 0
M  V30 849 H 80.4203 -0.438184 -1.8991 0
M  V30 850 H 79.5163 0.537972 -3.07428 0
M  V30 851 N 79.8174 1.5752 -0.0501392 0
M  V30 852 C 81.0454 1.96963 0.633492 0
M  V30 853 C 81.4604 0.927631 1.6444 0
M  V30 854 O 80.8174 -0.0882665 1.82286 0
M  V30 855 C 80.8684 3.36487 1.32132 0
M  V30 856 O 80.5894 4.36693 0.350894 0
M  V30 857 C 82.0904 3.90682 2.09481 0
M  V30 858 H 79.3104 0.648244 0.173266 0
M  V30 859 H 81.8544 2.0417 -0.116134 0
M  V30 860 H 80.0094 3.30434 2.02218 0
M  V30 861 H 80.4234 5.17702 0.841735 0
M  V30 862 H 81.8974 4.90591 2.5303 0
M  V30 863 H 82.3744 3.26053 2.94255 0
M  V30 864 H 82.9804 4.00069 1.44307 0
M  V30 865 N 81.2955 -0.223234 1.56011 0
M  V30 866 C 82.2285 -1.30377 1.87289 0
M  V30 867 C 83.2065 -1.45286 0.730112 0
M  V30 868 O 84.3905 -1.61126 0.978302 0
M  V30 869 C 81.5175 -2.67431 2.07843 0
M  V30 870 C 80.5635 -2.69546 3.30526 0
M  V30 871 S 81.3965 -2.23781 4.865 0
M  V30 872 C 82.5525 -3.62714 5.10088 0
M  V30 873 H 82.7855 -1.03652 2.78646 0
M  V30 874 H 80.3185 -0.425393 1.48424 0
M  V30 875 H 82.2765 -3.46336 2.20368 0
M  V30 876 H 80.9375 -2.91381 1.17285 0
M  V30 877 H 80.1305 -3.70255 3.41947 0
M  V30 878 H 79.7325 -1.98703 3.16849 0
M  V30 879 H 82.0245 -4.58391 4.98883 0
M  V30 880 H 82.9675 -3.5621 6.11981 0
M  V30 881 H 83.3755 -3.56323 4.37829 0
M  V30 882 N 82.7736 -1.49793 -0.48987 0
M  V30 883 C 83.6836 -1.70036 -1.61632 0
M  V30 884 C 84.6996 -0.583102 -1.63939 0
M  V30 885 O 85.8756 -0.859169 -1.82154 0
M  V30 886 C 82.9406 -1.77277 -2.97949 0
M  V30 887 C 82.0016 -3.00918 -3.06181 0
M  V30 888 C 81.2346 -3.07804 -4.35996 0
M  V30 889 O 81.4576 -2.21982 -5.25433 0
M  V30 890 O 80.3916 -4.00369 -4.49431 0
M  V30 891 H 84.2176 -2.65486 -1.47482 0
M  V30 892 H 81.8026 -1.33666 -0.667362 0
M  V30 893 H 83.6846 -1.84329 -3.78947 0
M  V30 894 H 82.3596 -0.850076 -3.12339 0
M  V30 895 H 81.2666 -2.99377 -2.2433 0
M  V30 896 H 82.5996 -3.92704 -2.96723 0
M  V30 897 N 84.2517 0.741722 -1.39055 0
M  V30 898 C 85.2147 1.83733 -1.37021 0
M  V30 899 C 86.2147 1.58542 -0.268534 0
M  V30 900 O 87.4047 1.66067 -0.526076 0
M  V30 901 C 84.5367 3.2141 -1.13617 0
M  V30 902 H 85.7297 1.86941 -2.34506 0
M  V30 903 H 83.2827 0.944676 -1.24521 0
M  V30 904 H 84.0177 3.23865 -0.167863 0
M  V30 905 H 83.8027 3.4109 -1.93391 0
M  V30 906 H 85.2927 4.01477 -1.14918 0
M  V30 907 N 85.7298 1.2412 0.971189 0
M  V30 908 C 87.1458 1.00584 1.23916 0
M  V30 909 C 87.3458 -0.287481 1.99439 0
M  V30 910 O 86.4018 -1.00454 2.31658 0
M  V30 911 C 87.7148 2.21864 2.0297 0
M  V30 912 C 89.2628 2.26452 2.16076 0
M  V30 913 C 89.7378 3.47343 2.98524 0
M  V30 914 N 91.2288 3.47639 3.06107 0
M  V30 915 C 91.9638 4.37837 3.70251 0
M  V30 916 N 91.4598 5.38286 4.36142 0
M  V30 917 N 93.2528 4.25558 3.67228 0
M  V30 918 H 85.4038 2.07236 0.465499 0
M  V30 919 H 87.6668 0.909236 0.268315 0
M  V30 920 H 87.3728 3.15771 1.54861 0
M  V30 921 H 87.2468 2.23698 3.03709 0
M  V30 922 H 89.6338 1.33078 2.6339 0
M  V30 923 H 89.7148 2.28645 1.14696 0
M  V30 924 H 89.3588 4.41029 2.51905 0
M  V30 925 H 89.2888 3.42393 4.00093 0
M  V30 926 H 91.7798 2.74966 2.59233 0
M  V30 927 H 92.0928 6.03352 4.82894 0
M  V30 928 H 90.4378 5.42176 4.34822 0
M  V30 929 H 93.6288 3.46322 3.14927 0
M  V30 930 H 93.8018 4.96054 4.16935 0
M  V30 931 N 87.2079 -1.17134 1.05439 0
M  V30 932 C 88.6189 -1.69084 0.791676 0
M  V30 933 C 88.9699 -1.83822 -0.685839 0
M  V30 934 O 88.0949 -1.52757 -1.53278 0
M  V30 935 C 88.6899 -3.07119 1.4305 0
M  V30 936 C 87.2489 -3.56225 1.21577 0
M  V30 937 C 86.3959 -2.32421 1.51247 0
M  V30 938 H 89.3469 -1.01617 1.219 0
M  V30 939 H 89.3679 -3.71087 0.84112 0
M  V30 940 H 88.8799 -2.9636 2.50584 0
M  V30 941 H 86.9809 -3.72257 0.159787 0
M  V30 942 H 87.0939 -4.38837 1.92246 0
M  V30 943 H 85.4579 -2.3701 0.932653 0
M  V30 944 H 86.2409 -2.24268 2.5992 0
M  V30 945 N 88.686 -0.835752 -1.33615 0
M  V30 946 C 89.619 -0.211815 -2.27215 0
M  V30 947 C 90.597 0.639249 -1.49507 0
M  V30 948 O 91.781 0.600193 -1.78689 0
M  V30 949 C 88.908 0.702893 -3.31326 0
M  V30 950 C 87.954 -0.0723049 -4.26439 0
M  V30 951 S 88.787 -1.42811 -5.16106 0
M  V30 952 C 89.943 -0.518613 -6.23748 0
M  V30 953 H 90.176 -1.00533 -2.79786 0
M  V30 954 H 87.709 -0.632336 -1.40858 0
M  V30 955 H 89.667 1.22505 -3.91794 0
M  V30 956 H 88.328 1.47004 -2.77576 0
M  V30 957 H 87.521 0.62359 -5.00127 0
M  V30 958 H 87.123 -0.525424 -3.70291 0
M  V30 959 H 89.415 0.284778 -6.76901 0
M  V30 960 H 90.358 -1.22556 -6.97413 0
M  V30 961 H 90.766 -0.101344 -5.64409 0
M  V30 962 N 90.1641 1.46063 -0.591896 0
M  V30 963 C 91.3941 2.06418 -0.0867676 0
M  V30 964 C 91.8021 1.43975 1.22751 0
M  V30 965 O 91.1451 0.542531 1.75506 0
M  V30 966 C 91.2071 3.59213 0.143725 0
M  V30 967 C 90.8711 4.439 -1.08635 0
M  V30 968 C 91.8681 4.79864 -2.00067 0
M  V30 969 C 89.5531 4.84896 -1.31077 0
M  V30 970 C 91.5471 5.55661 -3.12282 0
M  V30 971 C 89.2341 5.6045 -2.43596 0
M  V30 972 C 90.2321 5.95747 -3.34027 0
M  V30 973 O 89.9201 6.69772 -4.4459 0
M  V30 974 H 89.6521 0.673443 -0.0587447 0
M  V30 975 H 92.2061 1.88539 -0.814994 0
M  V30 976 H 90.4361 3.75433 0.926668 0
M  V30 977 H 92.1251 4.01463 0.5985 0
M  V30 978 H 92.8911 4.48763 -1.83947 0
M  V30 979 H 88.7701 4.56867 -0.61594 0
M  V30 980 H 92.3141 5.8313 -3.82891 0
M  V30 981 H 88.2111 5.90965 -2.59674 0
M  V30 982 H 88.9791 6.88207 -4.43073 0
M  V30 983 N 91.6422 0.330177 1.54103 0
M  V30 984 C 93.0582 -0.0222371 1.59585 0
M  V30 985 C 93.2582 -1.49902 1.34654 0
M  V30 986 O 92.3142 -2.25592 1.13421 0
M  V30 987 C 93.6272 0.401932 2.98002 0
M  V30 988 C 95.1752 0.353145 3.11001 0
M  V30 989 C 95.6502 0.752576 4.51775 0
M  V30 990 N 97.1412 0.706239 4.57784 0
M  V30 991 C 97.8762 0.987417 5.64834 0
M  V30 992 N 97.3722 1.33607 6.79795 0
M  V30 993 N 99.1652 0.91254 5.54643 0
M  V30 994 H 91.3162 1.29228 1.68564 0
M  V30 995 H 93.5792 0.525906 0.78875 0
M  V30 996 H 93.2852 1.4311 3.21267 0
M  V30 997 H 93.1592 -0.229699 3.765 0
M  V30 998 H 95.5462 -0.666822 2.87467 0
M  V30 999 H 95.6272 1.0198 2.34593 0
M  V30 1000 H 95.2712 1.77049 4.76042 0
M  V30 1001 H 95.2012 0.0635409 5.26562 0
M  V30 1002 H 97.6922 0.44889 3.75224 0
M  V30 1003 H 98.0052 1.53582 7.57385 0
M  V30 1004 H 96.3502 1.37439 6.81275 0
M  V30 1005 H 99.5412 0.639601 4.6371 0
M  V30 1006 H 99.7142 1.13503 6.37982 0
M  V30 1007 N 93.1203 -1.57491 0.0584922 0
M  V30 1008 C 94.0303 -2.15448 -0.928414 0
M  V30 1009 C 95.0463 -1.11416 -1.3365 0
M  V30 1010 O 96.2223 -1.4362 -1.41193 0
M  V30 1011 C 93.2873 -2.69393 -2.18239 0
M  V30 1012 C 92.3483 -3.88249 -1.83196 0
M  V30 1013 C 91.5813 -4.39613 -3.02616 0
M  V30 1014 O 91.8043 -3.90023 -4.16219 0
M  V30 1015 O 90.7383 -5.31111 -2.83204 0
M  V30 1016 H 94.5643 -3.00112 -0.465483 0
M  V30 1017 H 92.1493 -1.48499 -0.163826 0
M  V30 1018 H 94.0313 -3.04026 -2.91798 0
M  V30 1019 H 92.7063 -1.87796 -2.63656 0
M  V30 1020 H 91.6133 -3.58492 -1.06931 0
M  V30 1021 H 92.9463 -4.71098 -1.42573 0
M  V30 1022 N 94.5984 0.214957 -1.56127 0
M  V30 1023 C 95.5084 1.28727 -1.96129 0
M  V30 1024 C 96.5244 1.50916 -0.866044 0
M  V30 1025 O 97.7004 1.63918 -1.17016 0
M  V30 1026 C 94.7654 2.61569 -2.27558 0
M  V30 1027 C 93.8264 2.47625 -3.50685 0
M  V30 1028 C 93.0594 3.74132 -3.80606 0
M  V30 1029 O 93.2824 4.77438 -3.12104 0
M  V30 1030 O 92.2164 3.70849 -4.74083 0
M  V30 1031 H 96.0424 0.977855 -2.87527 0
M  V30 1032 H 93.6274 0.418358 -1.43423 0
M  V30 1033 H 95.5094 3.40012 -2.48938 0
M  V30 1034 H 94.1844 2.92178 -1.39332 0
M  V30 1035 H 93.0914 1.67361 -3.34576 0
M  V30 1036 H 94.4244 2.21954 -4.39315 0
M  V30 1037 N 96.0765 1.50051 0.48192 0
M  V30 1038 C 97.3045 1.64237 1.25832 0
M  V30 1039 C 97.7195 0.321336 1.86045 0
M  V30 1040 O 97.0765 -0.695478 1.68729 0
M  V30 1041 C 97.1275 2.72548 2.37487 0
M  V30 1042 O 96.8485 3.99529 1.79745 0
M  V30 1043 C 98.3495 2.9761 3.28547 0
M  V30 1044 H 95.5695 0.55237 0.380957 0
M  V30 1045 H 98.1135 1.96207 0.576467 0
M  V30 1046 H 96.2685 2.43303 3.01467 0
M  V30 1047 H 96.6825 4.59342 2.5319 0
M  V30 1048 H 98.1565 3.77084 4.03127 0
M  V30 1049 H 98.6335 2.0826 3.86684 0
M  V30 1050 H 99.2395 3.28345 2.70314 0
M  V30 1051 N 97.5546 -0.734337 1.39446 0
M  V30 1052 C 98.8036 -1.48937 1.36017 0
M  V30 1053 C 99.1166 -1.95557 -0.0409005 0
M  V30 1054 O 100.323 -2.70779 -0.19778 0
M  V30 1055 C 98.7786 -2.69125 2.38955 0
M  V30 1056 C 98.3866 -2.29452 3.8478 0
M  V30 1057 C 100.131 -3.46944 2.44603 0
M  V30 1058 C 98.0376 -3.46366 4.79358 0
M  V30 1059 H 96.9676 -0.559296 0.505672 0
M  V30 1060 H 99.6186 -0.800983 1.65095 0
M  V30 1061 H 98.0006 -3.40041 2.02948 0
M  V30 1062 H 99.1746 -1.66077 4.29831 0
M  V30 1063 H 97.4896 -1.64723 3.82433 0
M  V30 1064 H 100.087 -4.33907 3.12456 0
M  V30 1065 H 100.43 -3.89454 1.47076 0
M  V30 1066 H 100.963 -2.83056 2.79507 0
M  V30 1067 H 97.7016 -3.08905 5.78151 0
M  V30 1068 H 97.2216 -4.08719 4.38986 0
M  V30 1069 H 98.9006 -4.12691 4.98292 0
M  V30 1070 N 99.0327 -1.24633 -0.964593 0
M  V30 1071 C 99.9957 -1.0424 -2.04124 0
M  V30 1072 C 100.996 0.00137563 -1.608 0
M  V30 1073 O 102.186 -0.239883 -1.7254 0
M  V30 1074 C 99.3177 -0.580588 -3.3592 0
M  V30 1075 H 100.511 -1.99803 -2.23649 0
M  V30 1076 H 98.0637 -1.06899 -1.14027 0
M  V30 1077 H 98.7987 0.3781 -3.22088 0
M  V30 1078 H 98.5837 -1.33398 -3.6871 0
M  V30 1079 H 100.074 -0.459034 -4.15069 0
M  V30 1080 N 100.511 1.16574 -1.06058 0
M  V30 1081 C 101.759 1.86677 -0.77434 0
M  V30 1082 C 102.08 1.81959 0.701147 0
M  V30 1083 O 101.35 1.2515 1.50713 0
M  V30 1084 H 99.9298 0.691134 -0.283449 0
M  V30 1085 H 102.592 1.41378 -1.34158 0
M  V30 1086 H 101.688 2.92181 -1.09711 0
M  V30 1087 N 101.989 0.842826 1.3317 0
M  V30 1088 C 102.952 0.284065 2.27433 0
M  V30 1089 C 103.952 -0.54948 1.5112 0
M  V30 1090 O 105.142 -0.362699 1.70382 0
M  V30 1091 C 102.274 -0.599384 3.35589 0
M  V30 1092 H 103.467 1.11589 2.78366 0
M  V30 1093 H 101.02 0.616221 1.4364 0
M  V30 1094 H 101.755 -1.45349 2.89904 0
M  V30 1095 H 101.54 -0.00291266 3.921 0
M  V30 1096 H 103.03 -0.983488 4.05854 0
M  V30 1097 N 103.467 -1.45747 0.599634 0
M  V30 1098 C 104.397 -2.33235 -0.111306 0
M  V30 1099 C 105.378 -1.46359 -0.866781 0
M  V30 1100 O 106.563 -1.75146 -0.838904 0
M  V30 1101 C 103.693 -3.28932 -1.11451 0
M  V30 1102 C 102.647 -4.25381 -0.472772 0
M  V30 1103 C 101.973 -5.1071 -1.58365 0
M  V30 1104 C 103.273 -5.18831 0.600948 0
M  V30 1105 H 104.967 -2.92927 0.61919 0
M  V30 1106 H 102.513 -1.40857 0.299215 0
M  V30 1107 H 104.466 -3.89002 -1.62036 0
M  V30 1108 H 103.19 -2.67381 -1.8755 0
M  V30 1109 H 101.849 -3.66598 0.0121472 0
M  V30 1110 H 101.497 -4.45533 -2.33473 0
M  V30 1111 H 101.197 -5.7604 -1.15982 0
M  V30 1112 H 102.721 -5.73647 -2.09194 0
M  V30 1113 H 104.135 -5.73019 0.179491 0
M  V30 1114 H 102.532 -5.92595 0.946076 0
M  V30 1115 H 103.602 -4.6174 1.48068 0
M  V30 1116 N 104.945 -0.338344 -1.53925 0
M  V30 1117 C 106.222 0.314774 -1.93051 0
M  V30 1118 C 106.602 1.68669 -1.26941 0
M  V30 1119 O 105.95 2.24636 -0.418445 0
M  V30 1120 C 106.16 0.392249 -3.46789 0
M  V30 1121 C 107.508 0.645554 -4.19664 0
M  V30 1122 O 108.532 0.474575 -3.53024 0
M  V30 1123 O 107.391 0.976408 -5.37707 0
M  V30 1124 H 104.485 0.182598 -0.80659 0
M  V30 1125 H 107.031 -0.389141 -1.65178 0
M  V30 1126 H 105.803 -0.570702 -3.87116 0
M  V30 1127 H 105.426 1.14316 -3.80812 0
M  V30 1128 N 106.423 1.57458 -0.0668435 0
M  V30 1129 C 107.353 2.15468 0.899764 0
M  V30 1130 C 108.334 1.08042 1.31381 0
M  V30 1131 O 109.519 1.36054 1.38574 0
M  V30 1132 C 106.649 2.71232 2.16911 0
M  V30 1133 C 105.603 3.83781 1.89463 0
M  V30 1134 C 104.929 4.26127 3.22986 0
M  V30 1135 C 106.229 5.08238 1.20381 0
M  V30 1136 H 107.923 2.96488 0.416529 0
M  V30 1137 H 105.469 1.4262 0.198908 0
M  V30 1138 H 107.422 3.10458 2.84945 0
M  V30 1139 H 106.146 1.87426 2.67468 0
M  V30 1140 H 104.805 3.45051 1.23836 0
M  V30 1141 H 104.453 3.39249 3.71374 0
M  V30 1142 H 104.153 5.01993 3.05413 0
M  V30 1143 H 105.677 4.67966 3.92225 0
M  V30 1144 H 107.091 5.44811 1.78475 0
M  V30 1145 H 105.488 5.89349 1.13083 0
M  V30 1146 H 106.558 4.84558 0.182153 0
M  V30 1147 N 107.901 -0.206675 1.56239 0
M  V30 1148 C 108.831 -1.25909 1.96645 0
M  V30 1149 C 109.812 -1.48097 0.836734 0
M  V30 1150 O 110.997 -1.6003 1.10019 0
M  V30 1151 C 108.127 -2.6058 2.29599 0
M  V30 1152 C 107.081 -2.53024 3.452 0
M  V30 1153 C 106.407 -3.91861 3.63798 0
M  V30 1154 C 107.707 -2.06524 4.79734 0
M  V30 1155 H 109.401 -0.923369 2.84806 0
M  V30 1156 H 106.947 -0.442735 1.37025 0
M  V30 1157 H 108.9 -3.34375 2.56459 0
M  V30 1158 H 107.624 -2.95869 1.38307 0
M  V30 1159 H 106.283 -1.81684 3.18412 0
M  V30 1160 H 105.931 -4.24483 2.69857 0
M  V30 1161 H 105.631 -3.87683 4.4156 0
M  V30 1162 H 107.155 -4.67296 3.93022 0
M  V30 1163 H 108.569 -2.70072 5.05702 0
M  V30 1164 H 106.966 -2.13374 5.60885 0
M  V30 1165 H 108.036 -1.01802 4.74093 0
M  V30 1166 N 109.379 -1.50304 -0.473955 0
M  V30 1167 C 110.795 -1.37667 -0.807466 0
M  V30 1168 C 110.995 -0.430555 -1.96846 0
M  V30 1169 O 110.051 0.127874 -2.52176 0
M  V30 1170 C 111.364 -2.78974 -1.12223 0
M  V30 1171 C 112.912 -2.87868 -1.22885 0
M  V30 1172 C 113.387 -4.30003 -1.57676 0
M  V30 1173 N 114.878 -4.3294 -1.64673 0
M  V30 1174 C 115.613 -5.3991 -1.93091 0
M  V30 1175 N 115.109 -6.57092 -2.1955 0
M  V30 1176 N 116.902 -5.27351 -1.94569 0
M  V30 1177 H 109.053 -2.10394 0.291212 0
M  V30 1178 H 111.316 -0.945575 0.0677609 0
M  V30 1179 H 111.022 -3.50031 -0.342229 0
M  V30 1180 H 110.896 -3.16038 -2.05913 0
M  V30 1181 H 113.283 -2.17032 -1.99953 0
M  V30 1182 H 113.364 -2.54352 -0.271814 0
M  V30 1183 H 113.008 -5.01375 -0.81149 0
M  V30 1184 H 112.938 -4.61004 -2.54525 0
M  V30 1185 H 115.429 -3.48441 -1.46277 0
M  V30 1186 H 115.742 -7.34425 -2.405 0
M  V30 1187 H 114.087 -6.60272 -2.16948 0
M  V30 1188 H 117.278 -4.34801 -1.73394 0
M  V30 1189 H 117.451 -6.10805 -2.16381 0
M  V30 1190 N 110.857 0.726932 -1.39834 0
M  V30 1191 C 112.105 1.4837 -1.37225 0
M  V30 1192 C 112.426 1.94979 0.0284857 0
M  V30 1193 O 111.696 1.69555 0.981213 0
M  V30 1194 H 110.276 0.55043 -0.505011 0
M  V30 1195 H 112.938 0.862468 -1.74778 0
M  V30 1196 H 112.034 2.36198 -2.04003 0
M  V30 1197 N 112.336 1.25143 0.95797 0
M  V30 1198 C 113.564 1.12424 1.73691 0
M  V30 1199 C 113.979 -0.322304 1.86029 0
M  V30 1200 O 113.336 -1.22186 1.35561 0
M  V30 1201 C 113.387 1.76933 3.15241 0
M  V30 1202 O 113.108 3.15932 3.03511 0
M  V30 1203 C 114.609 1.6995 4.09429 0
M  V30 1204 H 111.829 0.3923 0.544373 0
M  V30 1205 H 114.373 1.6544 1.20207 0
M  V30 1206 H 112.528 1.27895 3.6568 0
M  V30 1207 H 112.942 3.47598 3.9278 0
M  V30 1208 H 114.416 2.19753 5.06372 0
M  V30 1209 H 114.893 0.662619 4.34173 0
M  V30 1210 H 115.499 2.18461 3.64904 0
M  V30 1211 N 113.814 -1.1601 1.06675 0
M  V30 1212 C 115.061 -1.86633 0.785781 0
M  V30 1213 C 115.389 -1.81929 -0.687896 0
M  V30 1214 O 114.644 -1.23253 -1.52011 0
M  V30 1215 C 114.943 -3.35547 1.23057 0
M  V30 1216 C 114.609 -3.60448 2.70902 0
M  V30 1217 C 113.271 -3.66954 3.11285 0
M  V30 1218 C 115.623 -3.7071 3.66365 0
M  V30 1219 C 112.951 -3.81225 4.45965 0
M  V30 1220 C 115.303 -3.86503 5.00797 0
M  V30 1221 C 113.967 -3.91252 5.40813 0
M  V30 1222 H 113.237 -0.682937 0.287538 0
M  V30 1223 H 115.884 -1.37146 1.33654 0
M  V30 1224 H 114.189 -3.87193 0.59907 0
M  V30 1225 H 115.886 -3.88583 0.990163 0
M  V30 1226 H 112.476 -3.56021 2.38636 0
M  V30 1227 H 116.66 -3.64991 3.36296 0
M  V30 1228 H 111.916 -3.83155 4.76447 0
M  V30 1229 H 116.09 -3.93385 5.74649 0
M  V30 1230 H 113.717 -4.02062 6.45174 0
M  V30 1231 N 115.292 -0.849877 -1.32721 0
M  V30 1232 C 116.222 -0.306308 -2.31482 0
M  V30 1233 C 117.203 0.591952 -1.59468 0
M  V30 1234 O 118.388 0.513199 -1.87296 0
M  V30 1235 C 115.518 0.510204 -3.43532 0
M  V30 1236 C 114.472 -0.293209 -4.26994 0
M  V30 1237 C 113.798 0.647743 -5.30762 0
M  V30 1238 C 115.098 -1.51634 -4.99804 0
M  V30 1239 H 116.792 -1.13153 -2.77195 0
M  V30 1240 H 114.338 -0.545553 -1.33266 0
M  V30 1241 H 116.291 0.900856 -4.11658 0
M  V30 1242 H 115.015 1.36874 -2.96535 0
M  V30 1243 H 113.674 -0.665555 -3.60508 0
M  V30 1244 H 113.322 1.50299 -4.8002 0
M  V30 1245 H 113.022 0.11422 -5.87489 0
M  V30 1246 H 114.546 1.03567 -6.01753 0
M  V30 1247 H 115.96 -1.19824 -5.60638 0
M  V30 1248 H 114.357 -1.98745 -5.66234 0
M  V30 1249 H 115.427 -2.28018 -4.27943 0
M  V30 1250 N 116.77 1.45427 -0.607355 0
M  V30 1251 C 118.181 1.85756 -0.187535 0
M  V30 1252 C 118.532 1.5077 1.25551 0
M  V30 1253 O 117.657 0.93427 1.95193 0
M  V30 1254 C 118.252 3.37154 -0.333572 0
M  V30 1255 C 116.811 3.76387 0.0315542 0
M  V30 1256 C 115.958 2.69377 -0.658117 0
M  V30 1257 H 118.909 1.36231 -0.81405 0
M  V30 1258 H 118.93 3.78014 0.43428 0
M  V30 1259 H 118.442 3.62586 -1.38393 0
M  V30 1260 H 116.543 3.56571 1.0811 0
M  V30 1261 H 116.656 4.77731 -0.361935 0
M  V30 1262 H 115.02 2.5452 -0.0957873 0
M  V30 1263 H 115.803 2.97646 -1.7106 0
M  V30 1264 N 118.248 0.346503 1.53744 0
M  V30 1265 C 119.211 -0.496439 2.23759 0
M  V30 1266 C 120.211 -1.0252 1.2388 0
M  V30 1267 O 121.401 -0.913974 1.48297 0
M  V30 1268 C 118.533 -1.69187 2.95954 0
M  V30 1269 H 119.726 0.115952 2.99676 0
M  V30 1270 H 117.279 0.0978939 1.55993 0
M  V30 1271 H 118.014 -2.34288 2.24231 0
M  V30 1272 H 117.799 -1.31989 3.69217 0
M  V30 1273 H 119.289 -2.28969 3.49232 0
M  V30 1274 N 119.726 -1.57421 0.075193 0
M  V30 1275 C 120.975 -1.92794 -0.592731 0
M  V30 1276 C 121.288 -0.957478 -1.70563 0
M  V30 1277 O 122.494 -1.20417 -2.43335 0
M  V30 1278 C 120.95 -3.42495 -1.10569 0
M  V30 1279 C 120.558 -4.47994 -0.0236121 0
M  V30 1280 C 122.302 -3.86864 -1.74748 0
M  V30 1281 C 120.209 -5.88829 -0.550803 0
M  V30 1282 H 119.139 -0.719591 -0.225177 0
M  V30 1283 H 121.79 -1.82902 0.147978 0
M  V30 1284 H 120.172 -3.47471 -1.89947 0
M  V30 1285 H 121.346 -4.54637 0.751099 0
M  V30 1286 H 119.661 -4.13113 0.522159 0
M  V30 1287 H 122.258 -4.8947 -2.15229 0
M  V30 1288 H 122.601 -3.24417 -2.60882 0
M  V30 1289 H 123.134 -3.84504 -1.01986 0
M  V30 1290 H 119.873 -6.54929 0.273457 0
M  V30 1291 H 119.393 -5.85698 -1.29296 0
M  V30 1292 H 121.072 -6.38811 -1.02613 0
M  V30 1293 N 121.204 0.198386 -1.56346 0
M  V30 1294 C 122.134 1.24865 -1.9731 0
M  V30 1295 C 123.115 1.47651 -0.844576 0
M  V30 1296 O 124.3 1.59444 -1.10866 0
M  V30 1297 C 121.43 2.59358 -2.30977 0
M  V30 1298 C 120.384 2.5119 -3.46537 0
M  V30 1299 C 119.71 3.89926 -3.65871 0
M  V30 1300 C 121.01 2.03977 -4.80823 0
M  V30 1301 H 122.704 0.908252 -2.85291 0
M  V30 1302 H 120.25 0.435462 -1.37258 0
M  V30 1303 H 122.203 3.33011 -2.58228 0
M  V30 1304 H 120.927 2.95132 -1.39874 0
M  V30 1305 H 119.586 1.79993 -3.19371 0
M  V30 1306 H 119.234 4.23046 -2.72105 0
M  V30 1307 H 118.934 3.85336 -4.4361 0
M  V30 1308 H 120.458 4.65205 -3.95495 0
M  V30 1309 H 121.872 2.67386 -5.07127 0
M  V30 1310 H 120.269 2.10397 -5.62008 0
M  V30 1311 H 121.339 0.992861 -4.74626 0
M  V30 1312 N 122.682 1.50554 0.465978 0
M  V30 1313 C 123.93 1.61479 1.21528 0
M  V30 1314 C 124.251 0.319596 1.92363 0
M  V30 1315 O 123.521 -0.663194 1.84333 0
M  V30 1316 H 122.101 0.595055 0.451573 0
M  V30 1317 H 124.763 1.87355 0.53704 0
M  V30 1318 H 123.859 2.42846 1.96042 0
M  V30 1319 N 124.16 -0.719506 1.40217 0
M  V30 1320 C 125.092 -1.84428 1.36084 0
M  V30 1321 C 126.105 -1.60597 0.266913 0
M  V30 1322 O 127.294 -1.70544 0.526983 0
M  V30 1323 C 124.394 -3.20757 1.094 0
M  V30 1324 C 123.567 -3.71817 2.30372 0
M  V30 1325 C 122.626 -4.86748 1.99907 0
M  V30 1326 O 121.652 -4.99603 2.72737 0
M  V30 1327 N 122.854 -5.7226 0.974635 0
M  V30 1328 H 125.619 -1.88473 2.33019 0
M  V30 1329 H 123.18 -0.900885 1.3452 0
M  V30 1330 H 125.172 -3.95235 0.870116 0
M  V30 1331 H 123.742 -3.11884 0.211452 0
M  V30 1332 H 122.962 -2.88514 2.68614 0
M  V30 1333 H 124.25 -4.02666 3.11026 0
M  V30 1334 H 123.648 -5.6448 0.371368 0
M  V30 1335 H 122.205 -6.46739 0.810656 0
M  V30 1336 N 125.638 -1.25649 -0.95132 0
M  V30 1337 C 126.866 -1.13343 -1.73092 0
M  V30 1338 C 127.281 0.312434 -1.86197 0
M  V30 1339 O 126.638 1.21465 -1.36207 0
M  V30 1340 C 126.689 -1.78602 -3.14299 0
M  V30 1341 O 126.41 -3.17537 -3.01831 0
M  V30 1342 C 127.911 -1.72119 -4.08522 0
M  V30 1343 H 125.131 -0.395181 -0.542285 0
M  V30 1344 H 127.675 -1.66076 -1.19328 0
M  V30 1345 H 125.83 -1.29832 -3.64996 0
M  V30 1346 H 126.244 -3.49676 -3.90931 0
M  V30 1347 H 127.718 -2.22435 -5.052 0
M  V30 1348 H 128.195 -0.685635 -4.33815 0
M  V30 1349 H 128.801 -2.20393 -3.63741 0
M  V30 1350 N 127.117 1.15442 -1.07289 0
M  V30 1351 C 128.364 1.86213 -0.795668 0
M  V30 1352 C 128.692 1.82291 0.678238 0
M  V30 1353 O 127.947 1.24057 1.51355 0
M  V30 1354 C 128.246 3.3489 -1.24834 0
M  V30 1355 C 127.912 3.59007 -2.72809 0
M  V30 1356 C 126.574 3.65298 -3.13227 0
M  V30 1357 C 128.926 3.68762 -3.68326 0
M  V30 1358 C 126.254 3.78854 -4.4798 0
M  V30 1359 C 128.606 3.83842 -5.0284 0
M  V30 1360 C 127.27 3.88378 -5.4288 0
M  V30 1361 H 126.54 0.681403 -0.291155 0
M  V30 1362 H 129.187 1.36435 -1.34379 0
M  V30 1363 H 127.492 3.8687 -0.619595 0
M  V30 1364 H 129.189 3.88052 -1.01076 0
M  V30 1365 H 125.779 3.5475 -2.40521 0
M  V30 1366 H 129.963 3.63202 -3.38227 0
M  V30 1367 H 125.219 3.80623 -4.78472 0
M  V30 1368 H 129.393 3.90332 -5.76727 0
M  V30 1369 H 127.02 3.98635 -6.47298 0
M  V30 1370 N 128.595 0.856903 1.32268 0
M  V30 1371 C 129.558 0.308171 2.27119 0
M  V30 1372 C 130.558 -0.533421 1.51695 0
M  V30 1373 O 131.748 -0.344607 1.70757 0
M  V30 1374 C 128.88 -0.563757 3.36206 0
M  V30 1375 H 130.073 1.14535 2.77167 0
M  V30 1376 H 127.626 0.631421 1.42978 0
M  V30 1377 H 128.361 -1.42266 2.91429 0
M  V30 1378 H 128.146 0.0386749 3.92081 0
M  V30 1379 H 129.636 -0.940386 4.06874 0
M  V30 1380 N 130.073 -1.45103 0.615059 0
M  V30 1381 C 131.021 -2.32331 -0.111791 0
M  V30 1382 C 132.015 -1.46409 -0.852102 0
M  V30 1383 O 133.221 -1.62849 -0.766821 0
M  V30 1384 H 129.596 -0.749993 -0.0549072 0
M  V30 1385 H 131.567 -2.91407 0.642225 0
M  V30 1386 C 130.316 -3.3015 -1.09071 0
M  V30 1387 H 129.639 -3.96265 -0.530485 0
M  V30 1388 H 131.079 -3.93898 -1.56908 0
M  V30 1389 C 129.538 -2.57875 -2.168 0
M  V30 1390 O 130.068 -2.36567 -3.24652 0
M  V30 1391 N 128.274 -2.17884 -1.92289 0
M  V30 1392 H 127.821 -2.35413 -1.04587 0
M  V30 1393 H 127.779 -1.6985 -2.64572 0
M  V30 1394 N 131.551 -0.354651 -1.53558 0
M  V30 1395 C 132.962 0.126902 -1.86268 0
M  V30 1396 C 133.313 1.49075 -1.27558 0
M  V30 1397 O 132.438 2.08105 -0.5934 0
M  V30 1398 C 133.033 0.237046 -3.3797 0
M  V30 1399 C 131.592 0.662842 -3.70518 0
M  V30 1400 C 130.739 -0.196652 -2.76602 0
M  V30 1401 H 133.69 -0.573849 -1.47962 0
M  V30 1402 H 133.711 1.06259 -3.65362 0
M  V30 1403 H 133.223 -0.755725 -3.80671 0
M  V30 1404 H 131.324 1.66424 -3.33367 0
M  V30 1405 H 131.437 0.445034 -4.77029 0
M  V30 1406 H 129.801 0.332763 -2.52517 0
M  V30 1407 H 130.584 -1.18676 -3.22135 0
M  V30 1408 N 133.029 1.57378 -0.0835403 0
M  V30 1409 C 133.939 2.16897 0.894021 0
M  V30 1410 C 134.955 1.13528 1.31861 0
M  V30 1411 O 136.131 1.45848 1.3889 0
M  V30 1412 C 133.196 2.72831 2.13925 0
M  V30 1413 C 132.257 3.91115 1.76997 0
M  V30 1414 C 131.49 4.44371 2.95584 0
M  V30 1415 O 131.713 3.96596 4.09961 0
M  V30 1416 O 130.647 5.35549 2.74719 0
M  V30 1417 H 134.473 3.00814 0.417679 0
M  V30 1418 H 132.058 1.48741 0.140181 0
M  V30 1419 H 133.94 3.0863 2.86924 0
M  V30 1420 H 132.615 1.91967 2.60635 0
M  V30 1421 H 131.522 3.60148 1.01214 0
M  V30 1422 H 132.855 4.73307 1.3506 0
M  V30 1423 N 134.507 -0.190092 1.56449 0
M  V30 1424 C 135.47 -1.21925 1.9408 0
M  V30 1425 C 136.47 -1.38176 0.822431 0
M  V30 1426 O 137.66 -1.35903 1.08977 0
M  V30 1427 C 134.792 -2.58773 2.21922 0
M  V30 1428 H 135.985 -0.897464 2.86157 0
M  V30 1429 H 133.538 -0.43181 1.50217 0
M  V30 1430 H 134.273 -2.95998 1.32499 0
M  V30 1431 H 134.058 -2.48348 3.03424 0
M  V30 1432 H 135.548 -3.32978 2.52022 0
M  V30 1433 N 135.985 -1.50799 -0.457987 0
M  V30 1434 C 137.231 -1.62683 -1.21088 0
M  V30 1435 C 137.564 -0.332268 -1.91336 0
M  V30 1436 O 136.839 0.667043 -1.82704 0
M  V30 1437 C 137.122 -2.81615 -2.24422 0
M  V30 1438 C 136.975 -4.20989 -1.58392 0
M  V30 1439 C 138.294 -2.96085 -3.2561 0
M  V30 1440 H 135.413 -0.592087 -0.438864 0
M  V30 1441 H 138.055 -1.83225 -0.50286 0
M  V30 1442 H 136.205 -2.64231 -2.84806 0
M  V30 1443 H 137.877 -4.49994 -1.01504 0
M  V30 1444 H 136.12 -4.24641 -0.886704 0
M  V30 1445 H 136.791 -5.0016 -2.33547 0
M  V30 1446 H 139.267 -3.12042 -2.75262 0
M  V30 1447 H 138.143 -3.80902 -3.95228 0
M  V30 1448 H 138.404 -2.0726 -3.90507 0
M  V30 1449 N 137.463 0.71206 -1.40597 0
M  V30 1450 C 138.426 1.80785 -1.40888 0
M  V30 1451 C 139.426 1.57937 -0.302103 0
M  V30 1452 O 140.616 1.64913 -0.561182 0
M  V30 1453 C 137.748 3.18927 -1.20409 0
M  V30 1454 H 138.941 1.81924 -2.38419 0
M  V30 1455 H 136.494 0.91805 -1.26497 0
M  V30 1456 H 137.229 3.23436 -0.236522 0
M  V30 1457 H 137.014 3.36911 -2.00582 0
M  V30 1458 H 138.504 3.98949 -1.23408 0
M  V30 1459 N 138.941 1.26152 0.944643 0
M  V30 1460 C 140.218 1.02247 1.66748 0
M  V30 1461 C 140.598 -0.448202 2.06287 0
M  V30 1462 O 139.946 -1.42779 1.78399 0
M  V30 1463 C 140.156 1.96788 2.88228 0
M  V30 1464 C 141.504 2.25201 3.59958 0
M  V30 1465 O 142.528 1.94626 2.98327 0
M  V30 1466 O 141.387 2.77242 4.70956 0
M  V30 1467 H 138.481 0.388517 0.730057 0
M  V30 1468 H 141.027 1.37348 0.99668 0
M  V30 1469 H 139.799 2.96047 2.55875 0
M  V30 1470 H 139.422 1.62145 3.63035 0
M  V30 1471 N 140.419 -1.14872 1.07899 0
M  V30 1472 C 141.382 -2.17986 0.708161 0
M  V30 1473 C 142.382 -1.58775 -0.25442 0
M  V30 1474 O 143.572 -1.74166 -0.034645 0
M  V30 1475 C 140.704 -3.40871 0.0446929 0
M  V30 1476 H 141.897 -2.52306 1.62116 0
M  V30 1477 H 139.45 -1.2943 0.876218 0
M  V30 1478 H 140.185 -3.12124 -0.880281 0
M  V30 1479 H 139.97 -3.8511 0.737091 0
M  V30 1480 H 141.46 -4.17121 -0.19991 0
M  V30 1481 N 141.898 -0.863906 -1.31812 0
M  V30 1482 C 142.828 -0.330843 -2.31144 0
M  V30 1483 C 143.809 0.575005 -1.60087 0
M  V30 1484 O 144.994 0.493304 -1.8783 0
M  V30 1485 C 142.124 0.47374 -3.44054 0
M  V30 1486 C 141.078 -0.338481 -4.26659 0
M  V30 1487 C 140.404 0.591412 -5.31419 0
M  V30 1488 C 141.704 -1.56926 -4.98168 0
M  V30 1489 H 143.398 -1.16086 -2.75979 0
M  V30 1490 H 140.944 -0.559657 -1.32679 0
M  V30 1491 H 142.897 0.857143 -4.12591 0
M  V30 1492 H 141.621 1.33721 -2.9797 0
M  V30 1493 H 140.28 -0.703754 -3.59782 0
M  V30 1494 H 139.928 1.45199 -4.81587 0
M  V30 1495 H 139.628 0.0519022 -5.87577 0
M  V30 1496 H 141.152 0.97179 -6.02817 0
M  V30 1497 H 142.566 -1.25764 -5.59336 0
M  V30 1498 H 140.963 -2.04739 -5.64094 0
M  V30 1499 H 142.033 -2.32544 -4.25501 0
M  V30 1500 N 143.376 1.44774 -0.622745 0
M  V30 1501 C 144.624 2.01721 -0.123655 0
M  V30 1502 C 144.945 1.49172 1.25589 0
M  V30 1503 O 144.215 0.691974 1.83272 0
M  V30 1504 H 142.795 0.745777 -0.0427225 0
M  V30 1505 H 145.457 1.77382 -0.807559 0
M  V30 1506 H 144.553 3.11984 -0.0849534 0
M  V30 1507 N 144.854 0.36279 1.53368 0
M  V30 1508 C 146.079 -0.231226 2.06107 0
M  V30 1509 C 146.504 -1.419 1.23474 0
M  V30 1510 O 145.862 -1.79524 0.253128 0
M  V30 1511 C 145.91 -0.605523 3.5548 0
M  V30 1512 O 145.014 -1.70312 3.7559 0
M  V30 1513 H 144.355 -0.034327 0.663112 0
M  V30 1514 H 146.885 0.522584 1.97814 0
M  V30 1515 H 146.895 -0.877314 3.98456 0
M  V30 1516 H 145.57 0.263004 4.15068 0
M  V30 1517 H 144.147 -1.4271 3.44512 0
M  V30 1518 N 146.332 -1.57332 0.0918853 0
M  V30 1519 C 147.562 -1.98286 -0.580205 0
M  V30 1520 C 147.97 -0.969713 -1.6246 0
M  V30 1521 O 147.313 0.0493501 -1.83634 0
M  V30 1522 C 147.375 -3.35603 -1.28882 0
M  V30 1523 C 147.039 -4.55285 -0.395559 0
M  V30 1524 C 148.036 -5.18687 0.355002 0
M  V30 1525 C 145.721 -5.01314 -0.314556 0
M  V30 1526 C 147.715 -6.26484 1.17458 0
M  V30 1527 C 145.402 -6.08979 0.508677 0
M  V30 1528 C 146.4 -6.71429 1.2519 0
M  V30 1529 O 146.088 -7.77018 2.06151 0
M  V30 1530 H 145.82 -0.656678 -0.160466 0
M  V30 1531 H 148.374 -2.04721 0.16688 0
M  V30 1532 H 146.604 -3.25842 -2.08241 0
M  V30 1533 H 148.293 -3.61026 -1.85512 0
M  V30 1534 H 149.059 -4.84058 0.302134 0
M  V30 1535 H 144.938 -4.5247 -0.882697 0
M  V30 1536 H 148.482 -6.75159 1.75518 0
M  V30 1537 H 144.379 -6.4304 0.563037 0
M  V30 1538 H 145.147 -7.93991 1.98799 0
M  V30 1539 N 147.81 0.181792 -1.56548 0
M  V30 1540 C 149.226 0.53316 -1.50431 0
M  V30 1541 C 149.426 1.85184 -0.794297 0
M  V30 1542 O 148.482 2.50058 -0.350318 0
M  V30 1543 C 149.795 0.575597 -2.9514 0
M  V30 1544 C 151.343 0.663519 -3.05886 0
M  V30 1545 C 151.818 0.736946 -4.52032 0
M  V30 1546 N 153.309 0.800118 -4.56237 0
M  V30 1547 C 154.044 0.877327 -5.66649 0
M  V30 1548 N 153.54 0.916016 -6.86718 0
M  V30 1549 N 155.333 0.915542 -5.54594 0
M  V30 1550 H 147.484 -0.683025 -2.01118 0
M  V30 1551 H 149.747 -0.244988 -0.915797 0
M  V30 1552 H 149.453 -0.324482 -3.502 0
M  V30 1553 H 149.327 1.42572 -3.49218 0
M  V30 1554 H 151.714 1.55403 -2.50867 0
M  V30 1555 H 151.795 -0.21307 -2.54911 0
M  V30 1556 H 151.439 -0.149262 -5.07681 0
M  V30 1557 H 151.369 1.62953 -5.00753 0
M  V30 1558 H 153.86 0.778926 -3.69785 0
M  V30 1559 H 154.173 0.975813 -7.66614 0
M  V30 1560 H 152.518 0.884469 -6.89349 0
M  V30 1561 H 155.709 0.882245 -4.59711 0
M  V30 1562 H 155.882 0.972253 -6.40665 0
M  V30 1563 N 149.288 1.51039 0.449983 0
M  V30 1564 C 150.536 1.62759 1.19808 0
M  V30 1565 C 150.857 0.339981 1.92013 0
M  V30 1566 O 150.127 -0.643606 1.85026 0
M  V30 1567 H 148.707 0.599811 0.445237 0
M  V30 1568 H 151.369 1.87914 0.517138 0
M  V30 1569 H 150.465 2.44911 1.93455 0
M  V30 1570 N 150.766 -0.704594 1.40972 0
M  V30 1571 C 151.714 -1.83994 1.42299 0
M  V30 1572 C 152.708 -1.66684 0.302111 0
M  V30 1573 O 153.914 -1.73655 0.473697 0
M  V30 1574 H 150.289 -0.606171 0.44504 0
M  V30 1575 H 152.26 -1.79992 2.38003 0
M  V30 1576 C 151.009 -3.21946 1.31323 0
M  V30 1577 H 150.332 -3.35878 2.16855 0
M  V30 1578 H 151.772 -4.01491 1.36311 0
M  V30 1579 C 150.231 -3.36891 0.0245977 0
M  V30 1580 O 150.761 -3.90687 -0.934153 0
M  V30 1581 N 148.967 -2.90559 -0.0485243 0
M  V30 1582 H 148.514 -2.46968 0.732419 0
M  V30 1583 H 148.472 -3.00937 -0.910171 0
M  V30 1584 N 152.244 -1.26651 -0.937939 0
M  V30 1585 C 153.66 -1.03834 -1.21205 0
M  V30 1586 C 153.86 0.234502 -2.00131 0
M  V30 1587 O 152.916 0.942767 -2.3424 0
M  V30 1588 C 154.229 -2.27167 -1.97017 0
M  V30 1589 C 155.777 -2.32101 -2.09996 0
M  V30 1590 C 156.252 -3.55136 -2.8921 0
M  V30 1591 N 157.743 -3.55632 -2.96783 0
M  V30 1592 C 158.478 -4.475 -3.58512 0
M  V30 1593 N 157.974 -5.4966 -4.21717 0
M  V30 1594 N 159.767 -4.35145 -3.55816 0
M  V30 1595 H 151.918 -2.08398 -0.410391 0
M  V30 1596 H 154.181 -0.916031 -0.244114 0
M  V30 1597 H 153.887 -3.19765 -1.46434 0
M  V30 1598 H 153.761 -2.31672 -2.97671 0
M  V30 1599 H 156.148 -1.40015 -2.59769 0
M  V30 1600 H 156.229 -2.31605 -1.08594 0
M  V30 1601 H 155.873 -4.47553 -2.40123 0
M  V30 1602 H 155.803 -3.5288 -3.90875 0
M  V30 1603 H 158.294 -2.81743 -2.51852 0
M  V30 1604 H 158.607 -6.15943 -4.66727 0
M  V30 1605 H 156.952 -5.53514 -4.20294 0
M  V30 1606 H 160.143 -3.5455 -3.05634 0
M  V30 1607 H 160.316 -5.06934 -4.03636 0
M  V30 1608 N 153.722 1.14298 -1.08507 0
M  V30 1609 C 154.655 2.18447 -0.660004 0
M  V30 1610 C 155.633 1.59242 0.328749 0
M  V30 1611 O 156.817 1.87062 0.232367 0
M  V30 1612 C 153.944 3.38688 0.0290807 0
M  V30 1613 C 152.99 4.1646 -0.919982 0
M  V30 1614 S 153.823 4.77334 -2.42718 0
M  V30 1615 C 154.979 6.00931 -1.75024 0
M  V30 1616 H 155.212 2.54166 -1.54231 0
M  V30 1617 H 152.745 1.25446 -0.900149 0
M  V30 1618 H 154.703 4.08342 0.420378 0
M  V30 1619 H 153.364 3.01289 0.887895 0
M  V30 1620 H 152.557 5.02529 -0.384751 0
M  V30 1621 H 152.159 3.52414 -1.25223 0
M  V30 1622 H 154.451 6.69017 -1.06877 0
M  V30 1623 H 155.394 6.59044 -2.58971 0
M  V30 1624 H 155.802 5.51089 -1.22317 0
M  V30 1625 N 155.201 0.870884 1.31352 0
M  V30 1626 C 156.164 0.332243 2.26779 0
M  V30 1627 C 157.164 -0.517302 1.52252 0
M  V30 1628 O 158.354 -0.326477 1.71113 0
M  V30 1629 C 155.486 -0.528066 3.36785 0
M  V30 1630 H 156.679 1.17469 2.75937 0
M  V30 1631 H 154.232 0.64655 1.423 0
M  V30 1632 H 154.967 -1.39167 2.92922 0
M  V30 1633 H 154.752 0.0802582 3.92018 0
M  V30 1634 H 156.242 -0.897179 4.07849 0
M  V30 1635 N 156.679 -1.44442 0.630414 0
M  V30 1636 C 158.095 -1.56832 0.295973 0
M  V30 1637 C 158.295 -1.61806 -1.20088 0
M  V30 1638 O 157.351 -1.5607 -1.9849 0
M  V30 1639 C 158.664 -2.84031 0.987264 0
M  V30 1640 C 160.212 -2.97742 0.96534 0
M  V30 1641 C 160.687 -4.27743 1.63708 0
M  V30 1642 N 162.178 -4.34555 1.60364 0
M  V30 1643 C 162.913 -5.33862 2.09234 0
M  V30 1644 N 162.409 -6.39578 2.66292 0
M  V30 1645 N 164.202 -5.25366 1.99867 0
M  V30 1646 H 156.353 -1.39457 1.60205 0
M  V30 1647 H 158.616 -0.668237 0.672431 0
M  V30 1648 H 158.322 -2.86338 2.04215 0
M  V30 1649 H 158.196 -3.73534 0.524588 0
M  V30 1650 H 160.583 -2.94989 -0.0810639 0
M  V30 1651 H 160.664 -2.09589 1.4665 0
M  V30 1652 H 160.308 -4.31255 2.68293 0
M  V30 1653 H 160.238 -5.14752 1.11076 0
M  V30 1654 H 162.729 -3.58772 1.18705 0
M  V30 1655 H 163.042 -7.11637 3.01317 0
M  V30 1656 H 161.387 -6.40265 2.70343 0
M  V30 1657 H 164.578 -4.41688 1.55013 0
M  V30 1658 H 164.751 -6.02606 2.38265 0
M  V30 1659 N 158.157 -0.370918 -1.53173 0
M  V30 1660 C 159.12 0.460778 -2.24521 0
M  V30 1661 C 160.12 1.00536 -1.25496 0
M  V30 1662 O 161.31 0.890266 -1.49733 0
M  V30 1663 C 158.442 1.64457 -2.98608 0
M  V30 1664 H 159.635 -0.163613 -2.99453 0
M  V30 1665 H 157.188 -0.122699 -1.55818 0
M  V30 1666 H 157.923 2.30691 -2.2793 0
M  V30 1667 H 157.708 1.26099 -3.7127 0
M  V30 1668 H 159.198 2.23384 -3.5283 0
M  V30 1669 N 159.635 1.57281 -0.100228 0
M  V30 1670 C 160.568 2.09976 0.893612 0
M  V30 1671 C 161.546 1.01155 1.27304 0
M  V30 1672 O 162.73 1.28687 1.37739 0
M  V30 1673 C 159.857 2.58098 2.19324 0
M  V30 1674 C 158.903 3.78626 1.96328 0
M  V30 1675 S 159.736 5.21959 1.19662 0
M  V30 1676 C 160.892 5.73435 2.50844 0
M  V30 1677 H 161.125 2.93946 0.44534 0
M  V30 1678 H 158.658 1.53985 0.113167 0
M  V30 1679 H 160.616 2.8648 2.94005 0
M  V30 1680 H 159.277 1.74344 2.61272 0
M  V30 1681 H 158.47 4.10382 2.92579 0
M  V30 1682 H 158.072 3.50763 1.29775 0
M  V30 1683 H 160.364 5.82015 3.46792 0
M  V30 1684 H 161.307 6.7185 2.23659 0
M  V30 1685 H 161.715 5.01395 2.59352 0
M  V30 1686 N 161.113 -0.173488 1.56642 0
M  V30 1687 C 162.359 -0.891784 1.8214 0
M  V30 1688 C 162.692 -1.8199 0.677736 0
M  V30 1689 O 161.967 -1.91842 -0.320446 0
M  V30 1690 C 162.25 -1.68933 3.18015 0
M  V30 1691 C 162.103 -0.784487 4.42906 0
M  V30 1692 C 163.422 -2.65748 3.50808 0
M  V30 1693 H 160.541 -0.322761 0.662567 0
M  V30 1694 H 163.183 -0.158095 1.89341 0
M  V30 1695 H 161.333 -2.31482 3.12007 0
M  V30 1696 H 163.005 -0.172046 4.60979 0
M  V30 1697 H 161.248 -0.0924117 4.33702 0
M  V30 1698 H 161.919 -1.37799 5.34524 0
M  V30 1699 H 164.395 -2.13327 3.57255 0
M  V30 1700 H 163.271 -3.18619 4.4696 0
M  V30 1701 H 163.532 -3.45842 2.75401 0
M  V30 1702 N 162.591 -1.51276 -0.441967 0
M  V30 1703 C 163.501 -1.75092 -1.56141 0
M  V30 1704 C 164.517 -0.634963 -1.62001 0
M  V30 1705 O 165.693 -0.916686 -1.79329 0
M  V30 1706 C 162.758 -1.86666 -2.92158 0
M  V30 1707 C 161.819 -3.10506 -2.96453 0
M  V30 1708 C 161.052 -3.21519 -4.25982 0
M  V30 1709 O 161.275 -2.38586 -5.18105 0
M  V30 1710 O 160.209 -4.14465 -4.36466 0
M  V30 1711 H 164.035 -2.70044 -1.38961 0
M  V30 1712 H 161.62 -1.35722 -0.624499 0
M  V30 1713 H 163.502 -1.96292 -3.72891 0
M  V30 1714 H 162.177 -0.949014 -3.09476 0
M  V30 1715 H 161.084 -3.06363 -2.14692 0
M  V30 1716 H 162.417 -4.01945 -2.84079 0
M  V30 1717 N 164.069 0.697108 -1.41344 0
M  V30 1718 C 165.002 1.82134 -1.37486 0
M  V30 1719 C 165.98 1.60784 -0.242351 0
M  V30 1720 O 167.164 1.83553 -0.429012 0
M  V30 1721 C 164.291 3.18788 -1.14421 0
M  V30 1722 C 163.337 3.58932 -2.3037 0
M  V30 1723 S 164.17 3.63916 -3.92843 0
M  V30 1724 C 165.326 5.03298 -3.72078 0
M  V30 1725 H 165.559 1.85129 -2.32625 0
M  V30 1726 H 163.092 0.865671 -1.2785 0
M  V30 1727 H 165.05 3.97677 -1.018 0
M  V30 1728 H 163.711 3.13404 -0.20905 0
M  V30 1729 H 162.904 4.58202 -2.09922 0
M  V30 1730 H 162.506 2.87347 -2.39391 0
M  V30 1731 H 164.798 5.90753 -3.31688 0
M  V30 1732 H 165.741 5.28788 -4.70945 0
M  V30 1733 H 166.149 4.74764 -3.05384 0
M  V30 1734 N 165.547 1.27147 0.931209 0
M  V30 1735 C 166.51 1.09615 2.01289 0
M  V30 1736 C 167.51 0.0412581 1.60747 0
M  V30 1737 O 168.7 0.285545 1.71844 0
M  V30 1738 C 165.832 0.669447 3.34262 0
M  V30 1739 H 167.025 2.05662 2.18273 0
M  V30 1740 H 164.578 1.09885 1.11153 0
M  V30 1741 H 165.313 -0.292572 3.22978 0
M  V30 1742 H 165.098 1.43127 3.65044 0
M  V30 1743 H 166.588 0.568921 4.13706 0
M  V30 1744 N 167.025 -1.13721 1.09112 0
M  V30 1745 C 167.988 -2.17222 0.731241 0
M  V30 1746 C 168.988 -1.59035 -0.237566 0
M  V30 1747 O 170.178 -1.74192 -0.0161704 0
M  V30 1748 C 167.31 -3.40804 0.0808443 0
M  V30 1749 H 168.503 -2.50573 1.64783 0
M  V30 1750 H 166.056 -1.28493 0.889897 0
M  V30 1751 H 166.791 -3.1304 -0.847127 0
M  V30 1752 H 166.576 -3.84306 0.777896 0
M  V30 1753 H 168.066 -4.1731 -0.155657 0
M  V30 1754 N 168.503 -0.877838 -1.30888 0
M  V30 1755 C 169.749 -0.502773 -1.97088 0
M  V30 1756 C 170.104 0.936274 -1.68082 0
M  V30 1757 O 169.397 1.65162 -0.971196 0
M  V30 1758 C 169.591 -0.705748 -3.50363 0
M  V30 1759 C 169.42 -2.16297 -3.94266 0
M  V30 1760 C 168.19 -2.80614 -4.20219 0
M  V30 1761 C 170.388 -3.13606 -4.07622 0
M  V30 1762 N 168.37 -4.17007 -4.50532 0
M  V30 1763 C 169.741 -4.35051 -4.41736 0
M  V30 1764 C 171.796 -3.09491 -3.90026 0
M  V30 1765 C 170.499 -5.52911 -4.60089 0
M  V30 1766 C 172.525 -4.26616 -4.09576 0
M  V30 1767 C 171.887 -5.46825 -4.44029 0
M  V30 1768 H 167.986 -0.233168 -0.746429 0
M  V30 1769 H 170.57 -1.13408 -1.58261 0
M  V30 1770 H 168.741 -0.103976 -3.88261 0
M  V30 1771 H 170.473 -0.298291 -4.03599 0
M  V30 1772 H 167.228 -2.3152 -4.13153 0
M  V30 1773 H 167.652 -4.87426 -4.69834 0
M  V30 1774 H 172.294 -2.17657 -3.62471 0
M  V30 1775 H 170.012 -6.45255 -4.86489 0
M  V30 1776 H 173.598 -4.24894 -3.97438 0
M  V30 1777 H 172.478 -6.35947 -4.58848 0
M  V30 1778 N 169.982 1.44106 -0.638065 0
M  V30 1779 C 171.259 1.95453 -0.0759321 0
M  V30 1780 C 171.639 1.57984 1.40015 0
M  V30 1781 O 170.987 0.857361 2.11806 0
M  V30 1782 C 171.197 3.47655 -0.306132 0
M  V30 1783 C 172.545 4.24114 -0.203008 0
M  V30 1784 O 173.569 3.55405 -0.237871 0
M  V30 1785 O 172.428 5.46381 -0.113827 0
M  V30 1786 H 169.522 0.826797 0.0183332 0
M  V30 1787 H 172.068 1.54122 -0.710251 0
M  V30 1788 H 170.84 3.68 -1.3301 0
M  V30 1789 H 170.463 3.95949 0.361991 0
M  V30 1790 N 171.46 0.379036 1.52974 0
M  V30 1791 C 172.39 -0.452706 2.29069 0
M  V30 1792 C 173.371 -1.07237 1.32039 0
M  V30 1793 O 174.556 -1.08708 1.60923 0
M  V30 1794 C 171.686 -1.5856 3.08992 0
M  V30 1795 C 170.64 -1.0925 4.13822 0
M  V30 1796 C 169.966 -2.31668 4.81907 0
M  V30 1797 C 171.266 -0.167702 5.22031 0
M  V30 1798 H 172.96 0.182181 2.98845 0
M  V30 1799 H 170.506 0.0890592 1.43724 0
M  V30 1800 H 172.459 -2.1742 3.6098 0
M  V30 1801 H 171.183 -2.24792 2.36931 0
M  V30 1802 H 169.842 -0.526494 3.628 0
M  V30 1803 H 169.49 -2.96386 4.06404 0
M  V30 1804 H 169.19 -1.9934 5.52754 0
M  V30 1805 H 170.714 -2.91189 5.36695 0
M  V30 1806 H 172.128 -0.664186 5.6944 0
M  V30 1807 H 170.525 0.0653265 6.00064 0
M  V30 1808 H 171.595 0.786347 4.78482 0
M  V30 1809 N 172.938 -1.57226 0.108567 0
M  V30 1810 C 174.184 -1.95919 -0.546564 0
M  V30 1811 C 174.539 -0.990417 -1.6495 0
M  V30 1812 O 173.832 -0.0186593 -1.91591 0
M  V30 1813 C 174.026 -3.38911 -1.13463 0
M  V30 1814 C 173.855 -4.4961 -0.0901926 0
M  V30 1815 C 172.625 -5.04168 0.338008 0
M  V30 1816 C 174.823 -5.09693 0.686808 0
M  V30 1817 N 172.805 -5.98434 1.36931 0
M  V30 1818 C 174.176 -5.99804 1.56958 0
M  V30 1819 C 176.231 -4.92388 0.738846 0
M  V30 1820 C 174.934 -6.74463 2.49983 0
M  V30 1821 C 176.96 -5.67719 1.65676 0
M  V30 1822 C 176.322 -6.57507 2.52713 0
M  V30 1823 H 172.421 -0.763312 -0.169936 0
M  V30 1824 H 175.005 -1.93728 0.194264 0
M  V30 1825 H 173.176 -3.41769 -1.84522 0
M  V30 1826 H 174.908 -3.64752 -1.75322 0
M  V30 1827 H 171.663 -4.73571 -0.0523673 0
M  V30 1828 H 172.087 -6.5027 1.88356 0
M  V30 1829 H 176.729 -4.22724 0.080084 0
M  V30 1830 H 174.447 -7.4338 3.16878 0
M  V30 1831 H 178.033 -5.56338 1.70233 0
M  V30 1832 H 176.913 -7.14778 3.22586 0
M  V30 1833 N 174.416 0.165178 -1.56732 0
M  V30 1834 C 175.379 1.18822 -1.95995 0
M  V30 1835 C 176.379 1.3685 -0.84431 0
M  V30 1836 O 177.569 1.34152 -1.11126 0
M  V30 1837 C 174.701 2.5521 -2.26011 0
M  V30 1838 H 175.894 0.851825 -2.87548 0
M  V30 1839 H 173.447 0.407857 -1.50885 0
M  V30 1840 H 174.182 2.93852 -1.37191 0
M  V30 1841 H 173.967 2.43489 -3.07336 0
M  V30 1842 H 175.457 3.28927 -2.57288 0
M  V30 1843 N 175.894 1.51508 0.433938 0
M  V30 1844 C 177.31 1.39759 0.770682 0
M  V30 1845 C 177.51 0.482594 1.95636 0
M  V30 1846 O 176.566 -0.0609691 2.52426 0
M  V30 1847 C 177.879 2.81851 1.04787 0
M  V30 1848 C 179.427 2.91025 1.1521 0
M  V30 1849 C 179.902 4.34032 1.46219 0
M  V30 1850 N 181.393 4.37154 1.53136 0
M  V30 1851 C 182.128 5.4484 1.78709 0
M  V30 1852 N 181.624 6.62682 2.02051 0
M  V30 1853 N 183.417 5.32324 1.80519 0
M  V30 1854 H 175.568 2.09548 -0.346892 0
M  V30 1855 H 177.831 0.943446 -0.0928074 0
M  V30 1856 H 177.537 3.50815 0.249304 0
M  V30 1857 H 177.411 3.21386 1.97461 0
M  V30 1858 H 179.798 2.22257 1.94128 0
M  V30 1859 H 179.879 2.54983 0.204281 0
M  V30 1860 H 179.523 5.03351 0.678274 0
M  V30 1861 H 179.453 4.6759 2.42212 0
M  V30 1862 H 181.944 3.52197 1.36987 0
M  V30 1863 H 182.257 7.40543 2.20943 0
M  V30 1864 H 180.602 6.65791 1.99366 0
M  V30 1865 H 183.793 4.39246 1.61805 0
M  V30 1866 H 183.966 6.16328 2.00111 0
M  V30 1867 N 177.372 -0.689602 1.41712 0
M  V30 1868 C 178.6 -1.47827 1.44758 0
M  V30 1869 C 179.015 -1.88721 0.0545703 0
M  V30 1870 O 178.372 -1.57176 -0.927463 0
M  V30 1871 C 178.423 -2.73698 2.3616 0
M  V30 1872 O 178.144 -2.34524 3.7004 0
M  V30 1873 C 179.645 -3.67389 2.48072 0
M  V30 1874 H 176.865 -0.455357 0.49284 0
M  V30 1875 H 179.409 -0.848574 1.86063 0
M  V30 1876 H 177.564 -3.32891 1.98148 0
M  V30 1877 H 177.978 -3.15701 4.18847 0
M  V30 1878 H 179.452 -4.52475 3.16181 0
M  V30 1879 H 179.929 -4.12284 1.51388 0
M  V30 1880 H 180.535 -3.14097 2.86746 0
M  V30 1881 N 178.85 -1.27639 -0.924453 0
M  V30 1882 C 179.78 -1.13166 -2.04244 0
M  V30 1883 C 180.761 -0.032256 -1.70069 0
M  V30 1884 O 181.946 -0.207328 -1.9309 0
M  V30 1885 C 179.076 -0.781496 -3.38393 0
M  V30 1886 C 178.03 -1.83449 -3.86692 0
M  V30 1887 C 177.356 -1.33822 -5.17683 0
M  V30 1888 C 178.656 -3.23917 -4.09726 0
M  V30 1889 H 180.35 -2.06689 -2.1661 0
M  V30 1890 H 177.896 -0.995136 -1.04082 0
M  V30 1891 H 179.849 -0.667057 -4.16087 0
M  V30 1892 H 178.573 0.189439 -3.2605 0
M  V30 1893 H 177.232 -1.93789 -3.11193 0
M  V30 1894 H 176.88 -0.35665 -5.01734 0
M  V30 1895 H 176.58 -2.04224 -5.50968 0
M  V30 1896 H 178.104 -1.23679 -5.97943 0
M  V30 1897 H 179.518 -3.16559 -4.77978 0
M  V30 1898 H 177.915 -3.92059 -4.54324 0
M  V30 1899 H 178.985 -3.68729 -3.14908 0
M  V30 1900 N 180.328 1.1314 -1.09713 0
M  V30 1901 C 181.576 1.84119 -0.833338 0
M  V30 1902 C 181.897 1.84097 0.642904 0
M  V30 1903 O 181.167 1.29881 1.46655 0
M  V30 1904 H 179.747 0.681766 -0.305293 0
M  V30 1905 H 182.409 1.37038 -1.38588 0
M  V30 1906 H 181.505 2.88543 -1.18951 0
M  V30 1907 N 181.806 0.884767 1.30421 0
M  V30 1908 C 183.052 0.503851 1.96441 0
M  V30 1909 C 183.385 -0.944518 1.69684 0
M  V30 1910 O 182.66 -1.66737 1.00145 0
M  V30 1911 C 182.943 0.779085 3.51571 0
M  V30 1912 C 182.796 2.27807 3.87846 0
M  V30 1913 C 184.115 0.255452 4.39358 0
M  V30 1914 H 181.234 0.184533 0.713524 0
M  V30 1915 H 183.876 1.10872 1.54297 0
M  V30 1916 H 182.026 0.264274 3.876 0
M  V30 1917 H 183.698 2.86127 3.61841 0
M  V30 1918 H 181.941 2.74479 3.35922 0
M  V30 1919 H 182.612 2.42125 4.96064 0
M  V30 1920 H 185.088 0.696079 4.10236 0
M  V30 1921 H 183.964 0.477361 5.4682 0
M  V30 1922 H 184.225 -0.843293 4.33983 0
M  V30 1923 N 183.284 -1.43765 0.645699 0
M  V30 1924 C 184.695 -1.85193 0.236719 0
M  V30 1925 C 185.046 -1.54045 -1.21509 0
M  V30 1926 O 184.171 -0.985694 -1.92647 0
M  V30 1927 C 184.766 -3.36151 0.422845 0
M  V30 1928 C 183.325 -3.76338 0.0682492 0
M  V30 1929 C 182.472 -2.67538 0.729306 0
M  V30 1930 H 185.423 -1.34025 0.849883 0
M  V30 1931 H 185.444 -3.79032 -0.333904 0
M  V30 1932 H 184.956 -3.5879 1.47958 0
M  V30 1933 H 183.057 -3.59312 -0.986179 0
M  V30 1934 H 183.17 -4.76603 0.488469 0
M  V30 1935 H 181.534 -2.54176 0.163235 0
M  V30 1936 H 182.317 -2.93006 1.78892 0
M  V30 1937 N 184.763 -0.387143 -1.52771 0
M  V30 1938 C 185.693 0.440551 -2.29306 0
M  V30 1939 C 186.674 1.06535 -1.32606 0
M  V30 1940 O 187.859 1.07853 -1.61497 0
M  V30 1941 C 184.989 1.56919 -3.09829 0
M  V30 1942 C 183.943 1.07054 -4.14395 0
M  V30 1943 C 183.269 2.29109 -4.83129 0
M  V30 1944 C 184.569 0.140015 -5.22112 0
M  V30 1945 H 186.263 -0.198026 -2.98744 0
M  V30 1946 H 183.809 -0.09668 -1.43675 0
M  V30 1947 H 185.762 2.15503 -3.62128 0
M  V30 1948 H 184.486 2.23532 -2.3812 0
M  V30 1949 H 183.145 0.507247 -3.63074 0
M  V30 1950 H 182.793 2.94227 -4.0797 0
M  V30 1951 H 182.493 1.96406 -5.53804 0
M  V30 1952 H 184.017 2.88339 -5.38231 0
M  V30 1953 H 185.431 0.633978 -5.69784 0
M  V30 1954 H 183.828 -0.0971485 -6.00021 0
M  V30 1955 H 184.898 -0.811711 -4.78058 0
M  V30 1956 N 186.241 1.57166 -0.116904 0
M  V30 1957 C 187.489 1.94737 0.540533 0
M  V30 1958 C 187.81 1.00096 1.67349 0
M  V30 1959 O 187.08 0.0568854 1.95817 0
M  V30 1960 H 185.66 0.718981 0.202669 0
M  V30 1961 H 188.322 1.94017 -0.185353 0
M  V30 1962 H 187.418 2.97719 0.936483 0
M  V30 1963 N 187.719 -0.156864 1.56817 0
M  V30 1964 C 188.947 -0.886316 1.86955 0
M  V30 1965 C 189.362 -1.75185 0.703975 0
M  V30 1966 O 188.719 -1.79555 -0.326552 0
M  V30 1967 C 188.77 -1.75117 3.16253 0
M  V30 1968 O 188.491 -0.920537 4.2832 0
M  V30 1969 C 189.992 -2.58905 3.59837 0
M  V30 1970 H 187.212 -0.25678 0.619923 0
M  V30 1971 H 189.756 -0.152615 2.0393 0
M  V30 1972 H 187.911 -2.43805 3.01062 0
M  V30 1973 H 188.325 -1.51337 5.02192 0
M  V30 1974 H 189.799 -3.1518 4.53172 0
M  V30 1975 H 190.276 -3.34472 2.84649 0
M  V30 1976 H 190.882 -1.95526 3.7769 0
M  V30 1977 N 189.197 -1.51736 -0.425897 0
M  V30 1978 C 190.127 -1.76827 -1.52494 0
M  V30 1979 C 191.108 -0.618524 -1.58456 0
M  V30 1980 O 192.293 -0.862416 -1.74 0
M  V30 1981 C 189.423 -1.90374 -2.90474 0
M  V30 1982 C 188.377 -3.0588 -2.99369 0
M  V30 1983 C 187.703 -3.04625 -4.3944 0
M  V30 1984 C 189.003 -4.45644 -2.72394 0
M  V30 1985 H 190.697 -2.68855 -1.31748 0
M  V30 1986 H 188.243 -1.29372 -0.632362 0
M  V30 1987 H 190.196 -2.0651 -3.6733 0
M  V30 1988 H 188.92 -0.95004 -3.12477 0
M  V30 1989 H 187.579 -2.89467 -2.24954 0
M  V30 1990 H 187.227 -2.0701 -4.58428 0
M  V30 1991 H 186.927 -3.82195 -4.46319 0
M  V30 1992 H 188.451 -3.22869 -5.18255 0
M  V30 1993 H 189.865 -4.62348 -3.38979 0
M  V30 1994 H 188.262 -5.25006 -2.9067 0
M  V30 1995 H 189.332 -4.54893 -1.67929 0
M  V30 1996 N 190.675 0.682077 -1.42076 0
M  V30 1997 C 191.605 1.80796 -1.47767 0
M  V30 1998 C 192.586 1.6677 -0.334954 0
M  V30 1999 O 193.771 1.863 -0.548264 0
M  V30 2000 C 190.901 3.19038 -1.37229 0
M  V30 2001 C 189.855 3.47789 -2.49453 0
M  V30 2002 C 189.181 4.8553 -2.23975 0
M  V30 2003 C 190.481 3.45411 -3.91776 0
M  V30 2004 H 192.175 1.7629 -2.41997 0
M  V30 2005 H 189.721 0.846721 -1.16476 0
M  V30 2006 H 191.674 3.97528 -1.39821 0
M  V30 2007 H 190.398 3.24204 -0.394907 0
M  V30 2008 H 189.057 2.71657 -2.46166 0
M  V30 2009 H 188.705 4.87337 -1.24547 0
M  V30 2010 H 188.405 5.0573 -2.99184 0
M  V30 2011 H 189.929 5.66312 -2.28304 0
M  V30 2012 H 191.343 4.13882 -3.96705 0
M  V30 2013 H 189.74 3.77145 -4.66778 0
M  V30 2014 H 190.81 2.44122 -4.18966 0
M  V30 2015 N 192.153 1.28127 0.917671 0
M  V30 2016 C 193.401 1.14825 1.66312 0
M  V30 2017 C 193.722 -0.304379 1.9261 0
M  V30 2018 O 192.992 -1.21149 1.53947 0
M  V30 2019 H 191.572 0.421953 0.616413 0
M  V30 2020 H 194.234 1.608 1.10134 0
M  V30 2021 H 193.33 1.68489 2.62712 0
M  V30 2022 N 193.631 -1.12557 1.10312 0
M  V30 2023 C 194.879 -1.83675 0.843091 0
M  V30 2024 C 195.2 -1.84435 -0.633131 0
M  V30 2025 O 194.47 -1.30657 -1.45964 0
M  V30 2026 H 193.05 -0.680138 0.308904 0
M  V30 2027 H 195.712 -1.36301 1.39313 0
M  V30 2028 H 194.808 -2.87908 1.2048 0
M  V30 2029 N 195.109 -0.891671 -1.2995 0
M  V30 2030 C 196.059 -0.334811 -2.25528 0
M  V30 2031 C 197.043 0.540553 -1.51548 0
M  V30 2032 O 198.235 0.383882 -1.72787 0
M  V30 2033 C 195.364 0.44374 -3.4042 0
M  V30 2034 C 194.45 -0.44609 -4.21747 0
M  V30 2035 N 194.841 -1.54963 -4.81477 0
M  V30 2036 C 193.139 -0.242415 -4.45341 0
M  V30 2037 C 193.84 -2.10015 -5.42465 0
M  V30 2038 N 192.816 -1.39423 -5.25416 0
M  V30 2039 H 196.618 -1.17792 -2.69262 0
M  V30 2040 H 194.132 -0.741822 -1.44467 0
M  V30 2041 H 196.129 0.859362 -4.07947 0
M  V30 2042 H 194.789 1.28421 -2.98225 0
M  V30 2043 H 195.8 -1.93244 -4.80497 0
M  V30 2044 H 192.477 0.560342 -4.13723 0
M  V30 2045 H 193.867 -3.02724 -5.9984 0
M  V30 2046 N 196.587 1.43421 -0.653314 0
M  V30 2047 C 197.534 2.30768 0.0382271 0
M  V30 2048 C 198.504 1.44755 0.814576 0
M  V30 2049 O 199.689 1.73624 0.791162 0
M  V30 2050 C 196.829 3.30336 0.998599 0
M  V30 2051 C 195.942 4.31448 0.218342 0
M  V30 2052 C 195.077 5.18098 1.17252 0
M  V30 2053 C 194.116 6.10902 0.382702 0
M  V30 2054 N 193.253 6.90176 1.28848 0
M  V30 2055 H 198.093 2.89357 -0.712511 0
M  V30 2056 H 195.63 1.42548 -0.363128 0
M  V30 2057 H 197.588 3.86572 1.56901 0
M  V30 2058 H 196.218 2.73397 1.71621 0
M  V30 2059 H 195.27 3.77506 -0.46836 0
M  V30 2060 H 196.582 4.97227 -0.395812 0
M  V30 2061 H 195.736 5.7896 1.81356 0
M  V30 2062 H 194.475 4.52444 1.82058 0
M  V30 2063 H 193.48 5.49128 -0.27169 0
M  V30 2064 H 194.705 6.78598 -0.260957 0
M  V30 2065 H 192.651 6.27171 1.92334 0
M  V30 2066 H 192.568 7.52478 0.728887 0
M  V30 2067 H 193.836 7.55543 1.91766 0
M  V30 2068 N 198.065 0.39524 1.52563 0
M  V30 2069 C 198.975 -0.444232 2.30356 0
M  V30 2070 C 199.991 -1.06615 1.37511 0
M  V30 2071 O 201.167 -1.07067 1.70583 0
M  V30 2072 C 198.232 -1.55315 3.09964 0
M  V30 2073 C 197.293 -0.955734 4.18526 0
M  V30 2074 C 196.526 -2.01181 4.9433 0
M  V30 2075 O 196.749 -3.22781 4.70285 0
M  V30 2076 O 195.683 -1.62579 5.79527 0
M  V30 2077 H 199.509 0.189667 3.03107 0
M  V30 2078 H 197.094 0.1588 1.48554 0
M  V30 2079 H 198.976 -2.19724 3.59582 0
M  V30 2080 H 197.651 -2.17191 2.4002 0
M  V30 2081 H 196.558 -0.274743 3.7309 0
M  V30 2082 H 197.891 -0.381109 4.90722 0
M  V30 2083 N 199.544 -1.57102 0.125237 0
M  V30 2084 C 200.476 -2.12726 -0.853237 0
M  V30 2085 C 201.489 -1.07145 -1.22571 0
M  V30 2086 O 202.678 -1.34497 -1.17358 0
M  V30 2087 C 199.778 -2.61709 -2.15317 0
M  V30 2088 C 198.951 -3.91456 -1.95143 0
M  V30 2089 C 198.01 -4.25973 -3.08923 0
M  V30 2090 O 197.036 -4.94682 -2.81564 0
M  V30 2091 N 198.238 -3.83795 -4.35524 0
M  V30 2092 H 201.003 -2.97307 -0.377964 0
M  V30 2093 H 198.564 -1.61792 -0.0590011 0
M  V30 2094 H 200.556 -2.81826 -2.90441 0
M  V30 2095 H 199.126 -1.81974 -2.54174 0
M  V30 2096 H 198.346 -3.80185 -1.04177 0
M  V30 2097 H 199.634 -4.76283 -1.78976 0
M  V30 2098 H 199.032 -3.2839 -4.60626 0
M  V30 2099 H 197.589 -4.09008 -5.07499 0
M  V30 2100 N 201.022 0.148545 -1.56898 0
M  V30 2101 C 202.268 0.862694 -1.83536 0
M  V30 2102 C 202.601 1.80889 -0.706604 0
M  V30 2103 O 201.876 1.92328 0.289885 0
M  V30 2104 C 202.159 1.63853 -3.20662 0
M  V30 2105 C 202.012 0.713925 -4.44098 0
M  V30 2106 C 203.331 2.60133 -3.54991 0
M  V30 2107 H 200.45 0.312179 -0.667618 0
M  V30 2108 H 203.092 0.127953 -1.89569 0
M  V30 2109 H 201.242 2.26489 -3.1565 0
M  V30 2110 H 202.914 0.098686 -4.61194 0
M  V30 2111 H 201.157 0.0234019 -4.33794 0
M  V30 2112 H 201.828 1.29278 -5.36648 0
M  V30 2113 H 204.304 2.07616 -3.60603 0
M  V30 2114 H 203.18 3.11468 -4.51972 0
M  V30 2115 H 203.441 3.41417 -2.80868 0
M  V30 2116 N 202.5 1.5196 0.417844 0
M  V30 2117 C 203.41 1.77554 1.53336 0
M  V30 2118 C 204.426 0.660655 1.6097 0
M  V30 2119 O 205.602 0.945099 1.77848 0
M  V30 2120 C 202.667 1.91291 2.89152 0
M  V30 2121 C 201.728 3.15183 2.91475 0
M  V30 2122 C 200.961 3.28256 4.20813 0
M  V30 2123 O 201.184 2.46798 5.14244 0
M  V30 2124 O 200.118 4.21356 4.29817 0
M  V30 2125 H 203.944 2.7222 1.34647 0
M  V30 2126 H 201.529 1.36698 0.602828 0
M  V30 2127 H 203.411 2.02199 3.69721 0
M  V30 2128 H 202.086 0.998129 3.07927 0
M  V30 2129 H 200.993 3.09739 2.09791 0
M  V30 2130 H 202.326 4.06414 2.77648 0
M  V30 2131 N 203.978 -0.674533 1.42435 0
M  V30 2132 C 205.224 -1.43671 1.43131 0
M  V30 2133 C 205.557 -1.94142 0.0476021 0
M  V30 2134 O 204.832 -1.70924 -0.928188 0
M  V30 2135 C 205.115 -2.63355 2.45594 0
M  V30 2136 C 204.968 -2.18514 3.93156 0
M  V30 2137 C 206.287 -3.65571 2.45043 0
M  V30 2138 H 203.406 -0.521077 0.521198 0
M  V30 2139 H 206.048 -0.766551 1.7385 0
M  V30 2140 H 204.198 -3.2053 2.19528 0
M  V30 2141 H 205.87 -1.66504 4.30202 0
M  V30 2142 H 204.113 -1.50086 4.07009 0
M  V30 2143 H 204.784 -3.04484 4.60428 0
M  V30 2144 H 207.26 -3.18113 2.68223 0
M  V30 2145 H 206.136 -4.46893 3.18713 0
M  V30 2146 H 206.397 -4.16716 1.47649 0
M  V30 2147 N 205.456 -1.28612 -0.910864 0
M  V30 2148 C 206.704 -1.15705 -1.65701 0
M  V30 2149 C 207.025 0.29416 -1.92769 0
M  V30 2150 O 206.295 1.20331 -1.54588 0
M  V30 2151 H 204.875 -0.425216 -0.614167 0
M  V30 2152 H 207.537 -1.61381 -1.0928 0
M  V30 2153 H 206.633 -1.6988 -2.61815 0
M  V30 2154 N 206.934 1.1197 -1.10907 0
M  V30 2155 C 208.18 1.8386 -0.855773 0
M  V30 2156 C 208.513 1.84134 0.617103 0
M  V30 2157 O 207.788 1.29041 1.45529 0
M  V30 2158 C 208.071 3.31305 -1.411 0
M  V30 2159 C 207.924 3.39456 -2.9511 0
M  V30 2160 C 209.243 4.2721 -1.05736 0
M  V30 2161 H 206.362 0.667545 -0.312334 0
M  V30 2162 H 209.004 1.31331 -1.37303 0
M  V30 2163 H 207.154 3.76169 -0.97105 0
M  V30 2164 H 208.826 3.03191 -3.47668 0
M  V30 2165 H 207.069 2.79849 -3.31462 0
M  V30 2166 H 207.74 4.43209 -3.29044 0
M  V30 2167 H 210.216 3.90497 -1.43706 0
M  V30 2168 H 209.092 5.28775 -1.47269 0
M  V30 2169 H 209.353 4.42088 0.0325958 0
M  V30 2170 N 208.412 0.89855 1.29475 0
M  V30 2171 C 209.637 0.538561 2.00285 0
M  V30 2172 C 210.062 -0.869135 1.66816 0
M  V30 2173 O 209.42 -1.57831 0.892145 0
M  V30 2174 C 209.468 0.736475 3.52999 0
M  V30 2175 O 208.572 -0.211537 4.11857 0
M  V30 2176 H 207.913 0.210563 0.62973 0
M  V30 2177 H 210.443 1.20982 1.64998 0
M  V30 2178 H 210.453 0.640685 4.02938 0
M  V30 2179 H 209.128 1.76276 3.76696 0
M  V30 2180 H 207.705 -0.0682991 3.72837 0
M  V30 2181 N 209.89 -1.43072 0.660911 0
M  V30 2182 C 210.82 -2.33497 -0.0122829 0
M  V30 2183 C 211.801 -1.49903 -0.803925 0
M  V30 2184 O 212.986 -1.78546 -0.763864 0
M  V30 2185 C 210.116 -3.33363 -0.973994 0
M  V30 2186 C 209.07 -4.27003 -0.291928 0
M  V30 2187 C 208.396 -5.16967 -1.36562 0
M  V30 2188 C 209.696 -5.15816 0.820462 0
M  V30 2189 H 211.39 -2.90038 0.742873 0
M  V30 2190 H 208.936 -1.39461 0.358688 0
M  V30 2191 H 210.889 -3.95524 -1.45392 0
M  V30 2192 H 209.613 -2.75095 -1.7604 0
M  V30 2193 H 208.272 -3.66217 0.167623 0
M  V30 2194 H 207.92 -4.55034 -2.14366 0
M  V30 2195 H 207.62 -5.80441 -0.914454 0
M  V30 2196 H 209.144 -5.82003 -1.84675 0
M  V30 2197 H 210.558 -5.71742 0.422366 0
M  V30 2198 H 208.955 -5.8805 1.19656 0
M  V30 2199 H 210.025 -4.55045 1.67518 0
M  V30 2200 N 211.368 -0.403325 -1.52352 0
M  V30 2201 C 212.616 0.174003 -2.0135 0
M  V30 2202 C 212.937 1.46139 -1.29106 0
M  V30 2203 O 212.207 1.91448 -0.415253 0
M  V30 2204 H 210.787 0.0672911 -0.743963 0
M  V30 2205 H 213.449 -0.538235 -1.87321 0
M  V30 2206 H 212.545 0.374254 -3.09848 0
M  V30 2207 N 212.846 1.57033 -0.133567 0
M  V30 2208 C 214.095 1.94861 0.520768 0
M  V30 2209 C 214.408 1.02012 1.66892 0
M  V30 2210 O 215.614 1.29365 2.38699 0
M  V30 2211 C 214.07 3.46362 0.977809 0
M  V30 2212 C 213.678 4.47773 -0.142674 0
M  V30 2213 C 215.422 3.93083 1.60269 0
M  V30 2214 C 213.329 5.90468 0.331883 0
M  V30 2215 H 212.259 0.727453 0.198315 0
M  V30 2216 H 214.91 1.82227 -0.215759 0
M  V30 2217 H 213.292 3.54282 1.7692 0
M  V30 2218 H 214.466 4.51536 -0.919317 0
M  V30 2219 H 212.781 4.10891 -0.675124 0
M  V30 2220 H 215.378 4.97121 1.96914 0
M  V30 2221 H 215.721 3.33876 2.48662 0
M  V30 2222 H 216.254 3.88025 0.876453 0
M  V30 2223 H 212.993 6.53463 -0.516341 0
M  V30 2224 H 212.513 5.90094 1.07469 0
M  V30 2225 H 214.192 6.42179 0.788332 0
M  V30 2226 N 214.325 -0.140222 1.56975 0
M  V30 2227 C 215.257 -1.19818 1.95388 0
M  V30 2228 C 216.27 -1.38816 0.850525 0
M  V30 2229 O 217.459 -1.38267 1.12891 0
M  V30 2230 C 214.559 -2.56189 2.21857 0
M  V30 2231 C 213.732 -2.58077 3.5315 0
M  V30 2232 C 212.791 -3.76037 3.6808 0
M  V30 2233 O 211.817 -3.60598 4.40406 0
M  V30 2234 N 213.019 -4.93763 3.05251 0
M  V30 2235 H 215.784 -0.871609 2.86746 0
M  V30 2236 H 213.345 -0.32972 1.58507 0
M  V30 2237 H 215.337 -3.33623 2.2908 0
M  V30 2238 H 213.907 -2.81111 1.36731 0
M  V30 2239 H 213.127 -1.6651 3.57307 0
M  V30 2240 H 214.415 -2.56377 4.39486 0
M  V30 2241 H 213.813 -5.09209 2.46419 0
M  V30 2242 H 212.37 -5.68949 3.18026 0
M  V30 2243 N 215.803 -1.52179 -0.40978 0
M  V30 2244 C 216.766 -1.74853 -1.48186 0
M  V30 2245 C 217.766 -0.618417 -1.48433 0
M  V30 2246 O 218.956 -0.886286 -1.49969 0
M  V30 2247 C 216.088 -1.8303 -2.87598 0
M  V30 2248 H 217.281 -2.70559 -1.29374 0
M  V30 2249 H 214.834 -1.42586 -0.640233 0
M  V30 2250 H 215.569 -0.89236 -3.11781 0
M  V30 2251 H 215.354 -2.65187 -2.88822 0
M  V30 2252 H 216.844 -2.02316 -3.65319 0
M  V30 2253 N 217.281 0.66697 -1.42791 0
M  V30 2254 C 218.529 1.42417 -1.43394 0
M  V30 2255 C 218.85 1.94925 -0.0542373 0
M  V30 2256 O 218.12 1.73564 0.908415 0
M  V30 2257 H 216.7 0.528515 -0.527902 0
M  V30 2258 H 219.362 0.787562 -1.78279 0
M  V30 2259 H 218.458 2.27333 -2.13837 0
M  V30 2260 N 218.759 1.29093 0.90403 0
M  V30 2261 C 219.669 1.15727 2.0407 0
M  V30 2262 C 220.685 0.0815308 1.73809 0
M  V30 2263 O 221.861 0.292749 1.99261 0
M  V30 2264 C 218.926 0.830424 3.36608 0
M  V30 2265 C 217.987 1.98955 3.80415 0
M  V30 2266 C 217.22 1.6782 5.06628 0
M  V30 2267 O 217.443 0.597105 5.67266 0
M  V30 2268 O 216.377 2.52486 5.46383 0
M  V30 2269 H 220.203 2.11171 2.18267 0
M  V30 2270 H 217.788 1.08504 1.027 0
M  V30 2271 H 219.67 0.662521 4.16159 0
M  V30 2272 H 218.345 -0.0942678 3.23563 0
M  V30 2273 H 217.252 2.21267 3.01648 0
M  V30 2274 H 218.585 2.89529 3.98037 0
M  V30 2275 N 220.237 -1.11381 1.11499 0
M  V30 2276 C 221.169 -2.17207 0.731704 0
M  V30 2277 C 222.182 -1.61066 -0.236957 0
M  V30 2278 O 223.371 -1.78489 -0.0197591 0
M  V30 2279 C 220.471 -3.38846 0.0607624 0
M  V30 2280 C 219.644 -4.24451 1.0564 0
M  V30 2281 C 218.703 -5.24562 0.4149 0
M  V30 2282 O 217.729 -5.59071 1.069 0
M  V30 2283 N 218.931 -5.74651 -0.821943 0
M  V30 2284 H 221.696 -2.50699 1.64225 0
M  V30 2285 H 219.257 -1.26908 1.00529 0
M  V30 2286 H 221.249 -4.02911 -0.380139 0
M  V30 2287 H 219.819 -3.03411 -0.752376 0
M  V30 2288 H 219.039 -3.56833 1.67524 0
M  V30 2289 H 220.327 -4.78486 1.72998 0
M  V30 2290 H 219.725 -5.48797 -1.37252 0
M  V30 2291 H 218.282 -6.40549 -1.20582 0
M  V30 2292 N 221.715 -0.905404 -1.28997 0
M  V30 2293 C 222.678 -0.392253 -2.25819 0
M  V30 2294 C 223.678 0.476753 -1.5357 0
M  V30 2295 O 224.868 0.280994 -1.71919 0
M  V30 2296 C 222 0.438588 -3.38067 0
M  V30 2297 H 223.193 -1.24743 -2.72725 0
M  V30 2298 H 220.746 -0.684051 -1.40536 0
M  V30 2299 H 221.481 1.31352 -2.96508 0
M  V30 2300 H 221.266 -0.184167 -3.91667 0
M  V30 2301 H 222.756 0.78873 -4.10084 0
M  V30 2302 N 223.193 1.4272 -0.668489 0
M  V30 2303 C 224.421 2.05966 -0.196348 0
M  V30 2304 C 224.836 1.50191 1.14403 0
M  V30 2305 O 224.193 0.639208 1.7094 0
M  V30 2306 C 224.244 3.61314 -0.115815 0
M  V30 2307 O 223.965 4.1502 -1.40322 0
M  V30 2308 C 225.466 4.41663 0.380579 0
M  V30 2309 H 222.686 0.663954 -0.0969829 0
M  V30 2310 H 225.23 1.82966 -0.913446 0
M  V30 2311 H 223.385 3.83448 0.551931 0
M  V30 2312 H 223.799 5.08832 -1.27243 0
M  V30 2313 H 225.273 5.5065 0.385848 0
M  V30 2314 H 225.75 4.15792 1.41471 0
M  V30 2315 H 226.356 4.24534 -0.255209 0
M  V30 2316 N 224.671 0.411399 1.52136 0
M  V30 2317 C 225.917 -0.163888 2.02137 0
M  V30 2318 C 226.25 -1.44597 1.29636 0
M  V30 2319 O 225.525 -1.90272 0.403353 0
M  V30 2320 C 225.808 -0.40927 3.57767 0
M  V30 2321 C 225.661 0.889643 4.40914 0
M  V30 2322 C 226.98 -1.19042 4.23694 0
M  V30 2323 H 224.099 -0.0580896 0.734707 0
M  V30 2324 H 226.741 0.54531 1.82007 0
M  V30 2325 H 224.891 -1.0134 3.7505 0
M  V30 2326 H 226.563 1.52575 4.35337 0
M  V30 2327 H 224.806 1.50011 4.07037 0
M  V30 2328 H 225.477 0.672314 5.4789 0
M  V30 2329 H 227.953 -0.678942 4.10524 0
M  V30 2330 H 226.829 -1.33086 5.32522 0
M  V30 2331 H 227.09 -2.21166 3.82803 0
M  V30 2332 N 226.149 -1.5696 0.141893 0
M  V30 2333 C 227.426 -1.87553 -0.555281 0
M  V30 2334 C 227.806 -1.04699 -1.83306 0
M  V30 2335 O 227.154 -0.132346 -2.28116 0
M  V30 2336 C 227.364 -3.39093 -0.825664 0
M  V30 2337 C 228.712 -4.08199 -1.16869 0
M  V30 2338 O 229.736 -3.44242 -0.915185 0
M  V30 2339 O 228.595 -5.21139 -1.6455 0
M  V30 2340 H 225.689 -0.777188 -0.282679 0
M  V30 2341 H 228.235 -1.68763 0.17812 0
M  V30 2342 H 227.007 -3.91221 0.0788633 0
M  V30 2343 H 226.63 -3.63393 -1.61343 0
M  V30 2344 N 227.627 0.131896 -1.57047 0
M  V30 2345 C 228.557 1.16384 -2.02428 0
M  V30 2346 C 229.538 1.43936 -0.90644 0
M  V30 2347 O 230.723 1.54599 -1.17528 0
M  V30 2348 C 227.853 2.49328 -2.4177 0
M  V30 2349 C 226.807 2.36266 -3.56879 0
M  V30 2350 C 226.133 3.74057 -3.8208 0
M  V30 2351 C 227.433 1.834 -4.89042 0
M  V30 2352 H 229.127 0.786433 -2.88887 0
M  V30 2353 H 226.673 0.376855 -1.38981 0
M  V30 2354 H 228.626 3.21759 -2.7212 0
M  V30 2355 H 227.35 2.88934 -1.52266 0
M  V30 2356 H 226.009 1.66286 -3.26718 0
M  V30 2357 H 225.657 4.11125 -2.89803 0
M  V30 2358 H 225.357 3.66174 -4.59554 0
M  V30 2359 H 226.881 4.48012 -4.1487 0
M  V30 2360 H 228.295 2.45636 -5.18011 0
M  V30 2361 H 226.692 1.8637 -5.70426 0
M  V30 2362 H 227.762 0.790662 -4.7841 0
M  V30 2363 N 229.106 1.52395 0.401703 0
M  V30 2364 C 230.352 1.67065 1.14966 0
M  V30 2365 C 230.685 0.403052 1.89971 0
M  V30 2366 O 229.96 -0.598774 1.85054 0
M  V30 2367 C 230.243 2.8975 2.13815 0
M  V30 2368 C 230.096 4.26578 1.42658 0
M  V30 2369 C 231.415 3.07965 3.14397 0
M  V30 2370 H 228.534 0.607968 0.416587 0
M  V30 2371 H 231.176 1.84965 0.434511 0
M  V30 2372 H 229.326 2.74619 2.74803 0
M  V30 2373 H 230.998 4.53451 0.847329 0
M  V30 2374 H 229.241 4.27639 0.72849 0
M  V30 2375 H 229.912 5.08483 2.14823 0
M  V30 2376 H 232.388 3.22043 2.63491 0
M  V30 2377 H 231.264 3.95308 3.80819 0
M  V30 2378 H 231.525 2.21611 3.82545 0
M  V30 2379 N 230.584 -0.659388 1.43143 0
M  V30 2380 C 232 -0.974337 1.26407 0
M  V30 2381 C 232.2 -2.007 0.179341 0
M  V30 2382 O 231.256 -2.4856 -0.444295 0
M  V30 2383 C 232.569 -1.46447 2.62628 0
M  V30 2384 C 234.117 -1.58144 2.7011 0
M  V30 2385 C 234.592 -2.1055 4.06734 0
M  V30 2386 N 236.083 -2.17861 4.08767 0
M  V30 2387 C 236.818 -2.59519 5.1131 0
M  V30 2388 N 236.314 -3.00518 6.24228 0
M  V30 2389 N 238.107 -2.59404 4.98664 0
M  V30 2390 H 230.258 0.0240528 2.12386 0
M  V30 2391 H 232.521 -0.0518065 0.946583 0
M  V30 2392 H 232.227 -0.780123 3.42939 0
M  V30 2393 H 232.101 -2.44058 2.87603 0
M  V30 2394 H 234.488 -2.25682 1.90136 0
M  V30 2395 H 234.569 -0.589828 2.48907 0
M  V30 2396 H 234.213 -1.43616 4.87172 0
M  V30 2397 H 234.143 -3.10531 4.25298 0
M  V30 2398 H 236.634 -1.88975 3.27257 0
M  V30 2399 H 236.947 -3.31036 6.98309 0
M  V30 2400 H 235.292 -2.98337 6.2771 0
M  V30 2401 H 238.483 -2.26747 4.09516 0
M  V30 2402 H 238.656 -2.91548 5.78709 0
M  V30 2403 N 232.062 -1.29571 -0.897171 0
M  V30 2404 C 233.009 -1.14916 -2.00158 0
M  V30 2405 C 233.979 -0.0418149 -1.66047 0
M  V30 2406 O 235.164 -0.209793 -1.89643 0
M  V30 2407 C 232.304 -0.834307 -3.34863 0
M  V30 2408 C 231.417 -2.02234 -3.8174 0
M  V30 2409 C 230.552 -1.64664 -5.05034 0
M  V30 2410 C 229.591 -2.80033 -5.44286 0
M  V30 2411 N 228.728 -2.42843 -6.58765 0
M  V30 2412 H 233.568 -2.09403 -2.12025 0
M  V30 2413 H 231.105 -1.042 -1.0383 0
M  V30 2414 H 233.063 -0.632436 -4.12379 0
M  V30 2415 H 231.693 0.0736656 -3.22716 0
M  V30 2416 H 230.745 -2.33583 -3.00238 0
M  V30 2417 H 232.057 -2.88673 -4.06779 0
M  V30 2418 H 231.211 -1.4078 -5.9014 0
M  V30 2419 H 229.95 -0.753766 -4.8184 0
M  V30 2420 H 228.955 -3.04596 -4.57713 0
M  V30 2421 H 230.18 -3.69989 -5.6946 0
M  V30 2422 H 228.126 -1.56046 -6.3717 0
M  V30 2423 H 228.043 -3.22815 -6.83613 0
M  V30 2424 H 229.311 -2.22285 -7.47134 0
M  V30 2425 N 233.54 1.10788 -1.12088 0
M  V30 2426 C 234.49 2.15158 -0.754401 0
M  V30 2427 C 235.474 1.59026 0.244846 0
M  V30 2428 O 236.666 1.76927 0.0509097 0
M  V30 2429 C 233.795 3.42677 -0.206657 0
M  V30 2430 C 232.881 4.05751 -1.23398 0
M  V30 2431 N 233.272 4.43582 -2.43041 0
M  V30 2432 C 231.57 4.32764 -1.07848 0
M  V30 2433 C 232.271 4.93085 -3.08613 0
M  V30 2434 N 231.247 4.89664 -2.36072 0
M  V30 2435 H 235.049 2.42195 -1.6649 0
M  V30 2436 H 232.563 1.27872 -1.00112 0
M  V30 2437 H 234.56 4.16834 0.0740646 0
M  V30 2438 H 233.22 3.17101 0.698342 0
M  V30 2439 H 234.231 4.35395 -2.80449 0
M  V30 2440 H 230.908 4.16863 -0.230483 0
M  V30 2441 H 232.298 5.31933 -4.10483 0
M  V30 2442 N 235.018 0.912232 1.28515 0
M  V30 2443 C 236.264 0.545405 1.95328 0
M  V30 2444 C 236.597 -0.908313 1.71649 0
M  V30 2445 O 235.872 -1.64575 1.03659 0
M  V30 2446 C 236.155 0.853483 3.4984 0
M  V30 2447 C 236.008 2.35982 3.82926 0
M  V30 2448 C 237.327 0.348589 4.38717 0
M  V30 2449 H 234.446 0.199626 0.709449 0
M  V30 2450 H 237.088 1.1412 1.5191 0
M  V30 2451 H 235.238 0.34643 3.86952 0
M  V30 2452 H 236.91 2.93738 3.55691 0
M  V30 2453 H 235.153 2.81543 3.30024 0
M  V30 2454 H 235.824 2.52593 4.90816 0
M  V30 2455 H 238.3 0.78294 4.08668 0
M  V30 2456 H 237.176 0.593242 5.45685 0
M  V30 2457 H 237.437 -0.751049 4.35674 0
M  V30 2458 N 236.496 -1.42363 0.676048 0
M  V30 2459 C 237.406 -2.346 -0.00153389 0
M  V30 2460 C 238.422 -1.5516 -0.787485 0
M  V30 2461 O 239.598 -1.87723 -0.729521 0
M  V30 2462 C 236.663 -3.33705 -0.940298 0
M  V30 2463 C 235.724 -4.29042 -0.148739 0
M  V30 2464 C 234.957 -5.23413 -1.04279 0
M  V30 2465 O 235.18 -5.22749 -2.28232 0
M  V30 2466 O 234.114 -5.99795 -0.502925 0
M  V30 2467 H 237.94 -2.94082 0.758268 0
M  V30 2468 H 235.525 -1.42888 0.436289 0
M  V30 2469 H 237.407 -3.94586 -1.47917 0
M  V30 2470 H 236.082 -2.76695 -1.67993 0
M  V30 2471 H 234.989 -3.71571 0.43427 0
M  V30 2472 H 236.322 -4.89097 0.551805 0
M  V30 2473 N 237.974 -0.419461 -1.51915 0
M  V30 2474 C 238.906 0.43646 -2.25006 0
M  V30 2475 C 239.919 1.00149 -1.28351 0
M  V30 2476 O 241.108 0.898674 -1.54227 0
M  V30 2477 C 238.208 1.6206 -2.9764 0
M  V30 2478 C 237.381 1.17763 -4.21249 0
M  V30 2479 C 236.44 2.22985 -4.76617 0
M  V30 2480 O 235.466 1.83151 -5.38929 0
M  V30 2481 N 236.668 3.55271 -4.59089 0
M  V30 2482 H 239.433 -0.18989 -2.99098 0
M  V30 2483 H 236.994 -0.247386 -1.59999 0
M  V30 2484 H 238.986 2.32038 -3.31573 0
M  V30 2485 H 237.556 2.15266 -2.2667 0
M  V30 2486 H 236.776 0.305582 -3.93014 0
M  V30 2487 H 238.064 0.858781 -5.015 0
M  V30 2488 H 237.462 3.90377 -4.09417 0
M  V30 2489 H 236.019 4.21195 -4.97432 0
M  V30 2490 N 239.452 1.56882 -0.150215 0
M  V30 2491 C 240.7 1.9584 0.499105 0
M  V30 2492 C 241.021 1.03623 1.65188 0
M  V30 2493 O 240.291 0.0984084 1.95653 0
M  V30 2494 H 238.871 0.723119 0.187373 0
M  V30 2495 H 241.533 1.9358 -0.226466 0
M  V30 2496 H 240.629 2.99638 0.873122 0
M  V30 2497 N 240.93 -0.123565 1.57115 0
M  V30 2498 C 242.16 -0.845233 1.88519 0
M  V30 2499 C 242.568 -1.74168 0.739064 0
M  V30 2500 O 241.911 -1.81244 -0.299355 0
M  V30 2501 C 241.973 -1.73452 3.14888 0
M  V30 2502 C 241.637 -1.01285 4.45635 0
M  V30 2503 C 242.634 -0.355774 5.18681 0
M  V30 2504 C 240.319 -0.99538 4.92339 0
M  V30 2505 C 242.313 0.309114 6.3665 0
M  V30 2506 C 240 -0.32669 6.10226 0
M  V30 2507 C 240.998 0.324406 6.82229 0
M  V30 2508 O 240.686 0.982437 7.97874 0
M  V30 2509 H 240.418 -0.248534 0.628655 0
M  V30 2510 H 242.972 -0.113907 2.05084 0
M  V30 2511 H 241.202 -2.50737 2.94394 0
M  V30 2512 H 242.891 -2.33021 3.32349 0
M  V30 2513 H 243.657 -0.360918 4.83655 0
M  V30 2514 H 239.536 -1.49159 4.36202 0
M  V30 2515 H 243.08 0.8179 6.92789 0
M  V30 2516 H 238.977 -0.319294 6.4471 0
M  V30 2517 H 239.745 0.886454 8.13686 0
M  V30 2518 N 242.408 -1.52605 -0.393616 0
M  V30 2519 C 243.824 -1.41753 -0.733357 0
M  V30 2520 C 244.024 -0.534293 -1.94287 0
M  V30 2521 O 243.08 -0.0059787 -2.52499 0
M  V30 2522 C 244.393 -2.84531 -0.972772 0
M  V30 2523 C 245.941 -2.93978 -1.07453 0
M  V30 2524 C 246.416 -4.37756 -1.3466 0
M  V30 2525 N 247.907 -4.4106 -1.41492 0
M  V30 2526 C 248.642 -5.49387 -1.642 0
M  V30 2527 N 248.138 -6.67806 -1.8441 0
M  V30 2528 N 249.931 -5.36923 -1.66342 0
M  V30 2529 H 242.082 -2.08555 0.402328 0
M  V30 2530 H 244.345 -0.940654 0.117789 0
M  V30 2531 H 244.051 -3.51353 -0.156204 0
M  V30 2532 H 243.925 -3.26508 -1.88871 0
M  V30 2533 H 246.312 -2.27326 -1.88167 0
M  V30 2534 H 246.393 -2.55435 -0.136605 0
M  V30 2535 H 246.037 -5.04972 -0.544581 0
M  V30 2536 H 245.967 -4.73848 -2.2973 0
M  V30 2537 H 248.458 -3.55705 -1.27601 0
M  V30 2538 H 248.771 -7.46141 -2.01231 0
M  V30 2539 H 247.116 -6.70843 -1.81644 0
M  V30 2540 H 250.307 -4.43381 -1.50102 0
M  V30 2541 H 250.48 -6.21416 -1.837 0
M  V30 2542 N 243.887 0.651787 -1.4349 0
M  V30 2543 C 245.303 0.96762 -1.26922 0
M  V30 2544 C 245.503 2.00602 -0.189982 0
M  V30 2545 O 244.559 2.48793 0.431107 0
M  V30 2546 C 245.872 1.45052 -2.63401 0
M  V30 2547 C 247.42 1.5671 -2.70945 0
M  V30 2548 C 247.895 2.0839 -4.07845 0
M  V30 2549 N 249.386 2.1569 -4.09917 0
M  V30 2550 C 250.121 2.56804 -5.12679 0
M  V30 2551 N 249.617 2.97203 -6.25813 0
M  V30 2552 N 251.41 2.56756 -5.00033 0
M  V30 2553 H 243.561 -0.0353158 -2.12371 0
M  V30 2554 H 245.824 0.0467858 -0.946845 0
M  V30 2555 H 245.53 0.761926 -3.43348 0
M  V30 2556 H 245.404 2.42529 -2.88894 0
M  V30 2557 H 247.791 2.2467 -1.9133 0
M  V30 2558 H 247.872 0.57662 -2.49216 0
M  V30 2559 H 247.516 1.41031 -4.87927 0
M  V30 2560 H 247.446 3.08271 -4.26938 0
M  V30 2561 H 249.937 1.87237 -3.28254 0
M  V30 2562 H 250.25 3.27328 -7.00055 0
M  V30 2563 H 248.595 2.95004 -6.29283 0
M  V30 2564 H 251.786 2.24572 -4.10713 0
M  V30 2565 H 251.959 2.88475 -5.80247 0
M  V30 2566 N 245.365 1.30045 0.890287 0
M  V30 2567 C 246.614 1.17929 1.63633 0
M  V30 2568 C 246.927 -0.266204 1.9378 0
M  V30 2569 O 248.133 -0.508804 2.6669 0
M  V30 2570 C 246.589 2.06317 2.94892 0
M  V30 2571 C 246.197 3.55745 2.72305 0
M  V30 2572 C 247.941 2.0295 3.72843 0
M  V30 2573 C 245.848 4.36205 3.99348 0
M  V30 2574 H 244.778 0.437782 0.613892 0
M  V30 2575 H 247.429 1.54754 0.986075 0
M  V30 2576 H 245.811 1.6237 3.61182 0
M  V30 2577 H 246.985 4.07805 2.1455 0
M  V30 2578 H 245.3 3.6088 2.07737 0
M  V30 2579 H 247.897 2.60319 4.67053 0
M  V30 2580 H 248.24 1.0117 4.0382 0
M  V30 2581 H 248.773 2.4499 3.13408 0
M  V30 2582 H 245.512 5.38659 3.73533 0
M  V30 2583 H 245.032 3.8891 4.56628 0
M  V30 2584 H 246.711 4.47362 4.67415 0
M  V30 2585 N 246.843 -1.10192 1.12674 0
M  V30 2586 C 247.79 -2.16606 0.796906 0
M  V30 2587 C 248.76 -1.64394 -0.237476 0
M  V30 2588 O 249.945 -1.90474 -0.111484 0
M  V30 2589 C 247.085 -3.44116 0.26043 0
M  V30 2590 C 246.198 -4.10268 1.35293 0
M  V30 2591 C 245.333 -5.25507 0.775621 0
M  V30 2592 C 244.372 -5.83567 1.84706 0
M  V30 2593 N 243.509 -6.90179 1.28829 0
M  V30 2594 H 248.349 -2.44163 1.70846 0
M  V30 2595 H 245.886 -1.19846 0.85295 0
M  V30 2596 H 247.844 -4.17143 -0.0686814 0
M  V30 2597 H 246.474 -3.16901 -0.614274 0
M  V30 2598 H 245.526 -3.35184 1.79877 0
M  V30 2599 H 246.838 -4.4946 2.16303 0
M  V30 2600 H 245.992 -6.05398 0.397327 0
M  V30 2601 H 244.731 -4.87656 -0.0656581 0
M  V30 2602 H 243.736 -5.02344 2.23452 0
M  V30 2603 H 244.961 -6.23482 2.69161 0
M  V30 2604 H 242.907 -6.54322 0.468881 0
M  V30 2605 H 242.824 -7.28097 2.03497 0
M  V30 2606 H 244.092 -7.73844 0.937311 0
M  V30 2607 N 248.321 -0.919034 -1.28029 0
M  V30 2608 C 249.251 -0.428581 -2.29533 0
M  V30 2609 C 250.232 0.50659 -1.62381 0
M  V30 2610 O 251.417 0.413195 -1.89753 0
M  V30 2611 C 248.547 0.327388 -3.45753 0
M  V30 2612 C 247.501 -0.519137 -4.2484 0
M  V30 2613 C 246.827 0.365486 -5.33449 0
M  V30 2614 C 248.127 -1.77914 -4.91064 0
M  V30 2615 H 249.821 -1.27687 -2.70807 0
M  V30 2616 H 247.367 -0.615428 -1.30186 0
M  V30 2617 H 249.32 0.681378 -4.15855 0
M  V30 2618 H 248.044 1.20963 -3.03374 0
M  V30 2619 H 246.703 -0.855717 -3.56473 0
M  V30 2620 H 246.351 1.24642 -4.87312 0
M  V30 2621 H 246.051 -0.197356 -5.87268 0
M  V30 2622 H 247.575 0.715241 -6.06396 0
M  V30 2623 H 248.989 -1.49374 -5.53498 0
M  V30 2624 H 247.386 -2.2848 -5.54903 0
M  V30 2625 H 248.456 -2.50382 -4.15255 0
M  V30 2626 N 249.799 1.42003 -0.683588 0
M  V30 2627 C 250.746 2.30798 -0.0107309 0
M  V30 2628 C 251.716 1.4645 0.783688 0
M  V30 2629 O 252.901 1.75263 0.754156 0
M  V30 2630 C 250.041 3.3238 0.928306 0
M  V30 2631 C 249.154 4.31814 0.126776 0
M  V30 2632 C 248.289 5.20468 1.06236 0
M  V30 2633 C 247.328 6.11577 0.253035 0
M  V30 2634 N 246.465 6.92754 1.14179 0
M  V30 2635 H 251.305 2.8778 -0.773727 0
M  V30 2636 H 248.842 1.41745 -0.393283 0
M  V30 2637 H 250.8 3.89813 1.48666 0
M  V30 2638 H 249.43 2.76976 1.65783 0
M  V30 2639 H 248.482 3.76427 -0.54833 0
M  V30 2640 H 249.794 4.96276 -0.501192 0
M  V30 2641 H 248.948 5.82677 1.69035 0
M  V30 2642 H 247.687 4.56204 1.7242 0
M  V30 2643 H 246.692 5.48428 -0.388108 0
M  V30 2644 H 247.917 6.77892 -0.404839 0
M  V30 2645 H 245.863 6.3111 1.78987 0
M  V30 2646 H 245.78 7.53855 0.569111 0
M  V30 2647 H 247.048 7.59441 1.75697 0
M  V30 2648 N 251.277 0.427512 1.51691 0
M  V30 2649 C 252.526 -0.143679 2.01188 0
M  V30 2650 C 252.839 -1.44642 1.31674 0
M  V30 2651 O 254.045 -2.09997 1.72086 0
M  V30 2652 C 252.501 -0.306602 3.58592 0
M  V30 2653 C 252.109 0.985125 4.37035 0
M  V30 2654 C 253.853 -0.832091 4.16265 0
M  V30 2655 C 251.76 0.788382 5.86122 0
M  V30 2656 H 250.69 -0.0574701 0.751807 0
M  V30 2657 H 253.341 0.555772 1.74881 0
M  V30 2658 H 251.723 -1.06882 3.81303 0
M  V30 2659 H 252.897 1.75492 4.26074 0
M  V30 2660 H 251.212 1.4384 3.90767 0
M  V30 2661 H 253.809 -0.995617 5.25349 0
M  V30 2662 H 254.152 -1.81186 3.74803 0
M  V30 2663 H 254.685 -0.128444 3.97593 0
M  V30 2664 H 251.424 1.74025 6.31978 0
M  V30 2665 H 250.944 0.0582143 5.99772 0
M  V30 2666 H 252.623 0.437722 6.45518 0
M  V30 2667 N 252.755 -1.56801 0.158532 0
M  V30 2668 C 253.702 -2.17337 -0.776729 0
M  V30 2669 C 254.672 -1.1096 -1.23601 0
M  V30 2670 O 255.857 -1.39054 -1.30647 0
M  V30 2671 C 252.997 -2.80822 -2.00582 0
M  V30 2672 C 252.11 -4.01624 -1.59129 0
M  V30 2673 C 251.245 -4.53072 -2.77306 0
M  V30 2674 C 250.284 -5.66314 -2.32282 0
M  V30 2675 N 249.421 -6.12329 -3.43508 0
M  V30 2676 H 254.261 -2.96918 -0.253701 0
M  V30 2677 H 251.798 -1.46661 -0.113504 0
M  V30 2678 H 253.756 -3.15779 -2.72652 0
M  V30 2679 H 252.386 -2.03866 -2.50277 0
M  V30 2680 H 251.438 -3.72571 -0.767806 0
M  V30 2681 H 252.75 -4.83633 -1.2207 0
M  V30 2682 H 251.904 -4.90145 -3.57551 0
M  V30 2683 H 250.643 -3.70095 -3.17617 0
M  V30 2684 H 249.648 -5.28806 -1.5048 0
M  V30 2685 H 250.873 -6.51085 -1.93043 0
M  V30 2686 H 248.819 -5.32284 -3.83418 0
M  V30 2687 H 248.736 -6.89293 -3.105 0
M  V30 2688 H 250.004 -6.5405 -4.24075 0
M  V30 2689 N 254.233 0.115231 -1.57178 0
M  V30 2690 C 255.644 0.67197 -1.74188 0
M  V30 2691 C 255.995 1.80125 -0.777777 0
M  V30 2692 O 255.12 2.16346 0.0484376 0
M  V30 2693 C 255.715 1.22573 -3.1585 0
M  V30 2694 C 254.274 1.72872 -3.34353 0
M  V30 2695 C 253.421 0.629972 -2.70049 0
M  V30 2696 H 256.372 -0.110712 -1.58313 0
M  V30 2697 H 256.393 2.09535 -3.17609 0
M  V30 2698 H 255.905 0.403598 -3.85996 0
M  V30 2699 H 254.006 2.5755 -2.69256 0
M  V30 2700 H 254.119 1.83557 -4.42542 0
M  V30 2701 H 252.483 1.0645 -2.31388 0
M  V30 2702 H 253.266 -0.181241 -3.42821 0
M  V30 2703 N 255.711 1.52812 0.385517 0
M  V30 2704 C 256.959 1.67694 1.12797 0
M  V30 2705 C 257.28 0.421115 1.90399 0
M  V30 2706 O 256.55 -0.564551 1.87589 0
M  V30 2707 H 255.13 0.618155 0.419396 0
M  V30 2708 H 257.792 1.89938 0.436972 0
M  V30 2709 H 256.888 2.52896 1.82894 0
M  V30 2710 N 257.189 -0.644168 1.43834 0
M  V30 2711 C 258.435 -1.40431 1.47141 0
M  V30 2712 C 258.79 -1.92153 0.0975577 0
M  V30 2713 O 258.083 -1.69924 -0.885232 0
M  V30 2714 C 258.277 -2.59615 2.45631 0
M  V30 2715 C 258.106 -2.1956 3.92458 0
M  V30 2716 C 256.876 -2.07456 4.60749 0
M  V30 2717 C 259.074 -1.79281 4.8204 0
M  V30 2718 N 257.056 -1.60827 5.92459 0
M  V30 2719 C 258.427 -1.43801 6.03093 0
M  V30 2720 C 260.482 -1.66545 4.6922 0
M  V30 2721 C 259.185 -0.968599 7.12749 0
M  V30 2722 C 261.211 -1.21008 5.78888 0
M  V30 2723 C 260.573 -0.864711 6.99072 0
M  V30 2724 H 256.672 -0.509182 0.593513 0
M  V30 2725 H 259.256 -0.740351 1.80075 0
M  V30 2726 H 257.427 -3.23658 2.1471 0
M  V30 2727 H 259.159 -3.26357 2.39318 0
M  V30 2728 H 255.914 -2.275 4.1538 0
M  V30 2729 H 256.338 -1.39848 6.62398 0
M  V30 2730 H 260.98 -1.91883 3.7675 0
M  V30 2731 H 258.698 -0.702715 8.05039 0
M  V30 2732 H 262.284 -1.11631 5.7099 0
M  V30 2733 H 261.164 -0.517736 7.82489 0
M  V30 2734 N 258.668 -1.30515 -0.883378 0
M  V30 2735 C 259.945 -1.10086 -1.6168 0
M  V30 2736 C 260.325 0.349269 -2.08191 0
M  V30 2737 O 259.673 1.34105 -1.85008 0
M  V30 2738 C 259.883 -2.10315 -2.78511 0
M  V30 2739 C 261.231 -2.42119 -3.48803 0
M  V30 2740 O 262.255 -2.08638 -2.88702 0
M  V30 2741 O 261.114 -2.99396 -4.57192 0
M  V30 2742 H 258.208 -0.422907 -0.710689 0
M  V30 2743 H 260.754 -1.41947 -0.930015 0
M  V30 2744 H 259.526 -3.07917 -2.41459 0
M  V30 2745 H 259.149 -1.79282 -3.54886 0
M  V30 2746 N 260.146 1.09593 -1.13257 0
M  V30 2747 C 261.392 1.82003 -0.89458 0
M  V30 2748 C 261.725 1.85402 0.577906 0
M  V30 2749 O 261 1.32099 1.42759 0
M  V30 2750 C 261.283 3.28237 -1.48096 0
M  V30 2751 C 261.136 3.3312 -3.02244 0
M  V30 2752 C 262.455 4.24871 -1.14774 0
M  V30 2753 H 259.574 0.66077 -0.326424 0
M  V30 2754 H 262.216 1.28389 -1.40058 0
M  V30 2755 H 260.366 3.74024 -1.05062 0
M  V30 2756 H 262.038 2.95748 -3.54021 0
M  V30 2757 H 260.281 2.72756 -3.37323 0
M  V30 2758 H 260.952 4.3613 -3.38371 0
M  V30 2759 H 263.428 3.87361 -1.51957 0
M  V30 2760 H 262.304 5.25532 -1.58452 0
M  V30 2761 H 262.565 4.42058 -0.0611849 0
M  V30 2762 N 261.624 0.925811 1.2754 0
M  V30 2763 C 262.556 0.380753 2.26015 0
M  V30 2764 C 263.569 -0.487485 1.5533 0
M  V30 2765 O 264.758 -0.300413 1.75954 0
M  V30 2766 C 261.858 -0.473259 3.35579 0
M  V30 2767 C 261.031 0.375249 4.35787 0
M  V30 2768 C 260.09 -0.415809 5.24555 0
M  V30 2769 O 259.116 0.175834 5.68928 0
M  V30 2770 N 260.318 -1.71607 5.54555 0
M  V30 2771 H 263.083 1.22725 2.73421 0
M  V30 2772 H 260.644 0.793037 1.41147 0
M  V30 2773 H 262.636 -1.00949 3.91907 0
M  V30 2774 H 261.206 -1.2205 2.87789 0
M  V30 2775 H 260.426 1.09279 3.7875 0
M  V30 2776 H 261.714 0.955399 4.99749 0
M  V30 2777 H 261.112 -2.2191 5.20358 0
M  V30 2778 H 259.669 -2.19887 6.1359 0
M  V30 2779 N 263.102 -1.41638 0.69111 0
M  V30 2780 C 264.513 -1.84346 0.295517 0
M  V30 2781 C 264.864 -1.57833 -1.16547 0
M  V30 2782 O 263.989 -1.04648 -1.89414 0
M  V30 2783 C 264.584 -3.34636 0.529575 0
M  V30 2784 C 263.143 -3.7593 0.187944 0
M  V30 2785 C 262.29 -2.65082 0.814052 0
M  V30 2786 H 265.241 -1.31253 0.892092 0
M  V30 2787 H 265.262 -3.79903 -0.213148 0
M  V30 2788 H 264.774 -3.53901 1.59297 0
M  V30 2789 H 262.875 -3.62268 -0.871367 0
M  V30 2790 H 262.988 -4.74808 0.63985 0
M  V30 2791 H 261.352 -2.53528 0.244017 0
M  V30 2792 H 262.135 -2.87167 1.88123 0
M  V30 2793 N 264.58 -0.43555 -1.51462 0
M  V30 2794 C 265.826 0.131709 -2.02372 0
M  V30 2795 C 266.159 1.42516 -1.3192 0
M  V30 2796 O 265.434 1.89606 -0.433573 0
M  V30 2797 C 265.717 0.352301 -3.58373 0
M  V30 2798 C 265.57 -0.959676 -4.39443 0
M  V30 2799 C 266.889 1.12286 -4.25535 0
M  V30 2800 H 264.008 0.0463936 -0.735538 0
M  V30 2801 H 266.65 -0.574197 -1.81116 0
M  V30 2802 H 264.8 0.9536 -3.76615 0
M  V30 2803 H 266.472 -1.59482 -4.32855 0
M  V30 2804 H 264.715 -1.56468 -4.04599 0
M  V30 2805 H 265.386 -0.759394 -5.46752 0
M  V30 2806 H 267.862 0.613545 -4.11552 0
M  V30 2807 H 266.738 1.24598 -5.34571 0
M  V30 2808 H 266.999 2.15048 -3.86273 0
M  V30 2809 N 266.058 1.56714 -0.166846 0
M  V30 2810 C 267.474 1.58473 0.189372 0
M  V30 2811 C 267.674 1.18201 1.63189 0
M  V30 2812 O 266.73 0.891528 2.36237 0
M  V30 2813 C 268.043 3.00573 -0.0873872 0
M  V30 2814 C 269.591 3.1299 -0.0252443 0
M  V30 2815 C 270.066 4.57174 -0.274934 0
M  V30 2816 N 271.557 4.62665 -0.222553 0
M  V30 2817 C 272.292 5.72072 -0.389985 0
M  V30 2818 N 271.788 6.90054 -0.616229 0
M  V30 2819 N 273.581 5.61153 -0.326202 0
M  V30 2820 H 265.732 1.8118 -1.10849 0
M  V30 2821 H 267.995 0.839525 -0.440342 0
M  V30 2822 H 267.701 3.34497 -1.0865 0
M  V30 2823 H 267.575 3.72019 0.623037 0
M  V30 2824 H 269.962 2.78895 0.96444 0
M  V30 2825 H 270.043 2.43989 -0.768309 0
M  V30 2826 H 269.687 4.91976 -1.26181 0
M  V30 2827 H 269.617 5.24328 0.48869 0
M  V30 2828 H 272.108 3.77863 -0.0531512 0
M  V30 2829 H 272.421 7.69311 -0.733559 0
M  V30 2830 H 270.766 6.91927 -0.652791 0
M  V30 2831 H 273.957 4.67859 -0.150072 0
M  V30 2832 H 274.13 6.46364 -0.460116 0
M  V30 2833 N 267.536 -0.106894 1.57237 0
M  V30 2834 C 268.499 -1.11466 2.0027 0
M  V30 2835 C 269.499 -1.33623 0.894519 0
M  V30 2836 O 270.689 -1.29935 1.16028 0
M  V30 2837 C 267.821 -2.46646 2.35327 0
M  V30 2838 H 269.014 -0.744516 2.90512 0
M  V30 2839 H 266.567 -0.351576 1.52295 0
M  V30 2840 H 267.302 -2.88558 1.48003 0
M  V30 2841 H 267.087 -2.31915 3.16161 0
M  V30 2842 H 268.577 -3.19151 2.69318 0
M  V30 2843 N 269.014 -1.53014 -0.377408 0
M  V30 2844 C 270.242 -1.72515 -1.14219 0
M  V30 2845 C 270.657 -0.448735 -1.8339 0
M  V30 2846 O 270.014 0.577592 -1.73119 0
M  V30 2847 C 270.065 -2.8826 -2.18148 0
M  V30 2848 O 269.786 -4.10962 -1.51795 0
M  V30 2849 C 271.287 -3.19536 -3.07264 0
M  V30 2850 H 268.507 -0.577301 -0.342001 0
M  V30 2851 H 271.051 -1.99712 -0.439935 0
M  V30 2852 H 269.206 -2.63492 -2.83991 0
M  V30 2853 H 269.62 -4.75693 -2.20945 0
M  V30 2854 H 271.094 -4.03959 -3.76193 0
M  V30 2855 H 271.571 -2.34403 -3.71419 0
M  V30 2856 H 272.177 -3.46186 -2.47053 0
M  V30 2857 N 270.492 0.636531 -1.44174 0
M  V30 2858 C 271.908 0.954104 -1.27941 0
M  V30 2859 C 272.108 2.0039 -0.211248 0
M  V30 2860 O 271.164 2.49236 0.404695 0
M  V30 2861 C 272.477 1.4225 -2.64925 0
M  V30 2862 C 274.025 1.53827 -2.72592 0
M  V30 2863 C 274.5 2.04053 -4.10032 0
M  V30 2864 N 275.991 2.11331 -4.12182 0
M  V30 2865 C 276.726 2.51352 -5.15374 0
M  V30 2866 N 276.222 2.90549 -6.2893 0
M  V30 2867 N 278.015 2.51438 -5.02728 0
M  V30 2868 H 270.166 -0.0578386 -2.12321 0
M  V30 2869 H 272.429 0.0367406 -0.947288 0
M  V30 2870 H 272.135 0.725466 -3.44136 0
M  V30 2871 H 272.009 2.39451 -2.9145 0
M  V30 2872 H 274.396 2.22628 -1.93702 0
M  V30 2873 H 274.477 0.550154 -2.49814 0
M  V30 2874 H 274.121 1.35848 -4.89395 0
M  V30 2875 H 274.051 3.03726 -4.30184 0
M  V30 2876 H 276.542 1.83745 -3.30222 0
M  V30 2877 H 276.855 3.19884 -7.03487 0
M  V30 2878 H 275.2 2.88313 -6.32377 0
M  V30 2879 H 278.391 2.20203 -4.13072 0
M  V30 2880 H 278.564 2.82304 -5.83274 0
M  V30 2881 N 271.97 1.30982 0.876444 0
M  V30 2882 C 272.88 1.2003 2.01569 0
M  V30 2883 C 273.896 0.11838 1.73597 0
M  V30 2884 O 275.072 0.33495 1.98595 0
M  V30 2885 C 272.137 0.901637 3.34771 0
M  V30 2886 C 271.198 2.06979 3.76109 0
M  V30 2887 C 270.431 1.78529 5.02954 0
M  V30 2888 O 270.654 0.717296 5.65872 0
M  V30 2889 O 269.588 2.64019 5.40905 0
M  V30 2890 H 273.414 2.15753 2.13739 0
M  V30 2891 H 270.999 1.10658 1.00375 0
M  V30 2892 H 272.881 0.750645 4.1466 0
M  V30 2893 H 271.556 -0.0256141 3.2369 0
M  V30 2894 H 270.463 2.27616 2.96887 0
M  V30 2895 H 271.796 2.97907 3.91807 0
M  V30 2896 N 273.449 -1.08991 1.13837 0
M  V30 2897 C 274.412 -2.13925 0.822715 0
M  V30 2898 C 275.412 -1.599 -0.1699 0
M  V30 2899 O 276.602 -1.74104 0.0577251 0
M  V30 2900 C 273.734 -3.40155 0.225318 0
M  V30 2901 H 274.927 -2.43358 1.75262 0
M  V30 2902 H 272.48 -1.24603 0.943594 0
M  V30 2903 H 273.215 -3.16352 -0.713594 0
M  V30 2904 H 273 -3.80661 0.940193 0
M  V30 2905 H 274.49 -4.17594 0.0214784 0
M  V30 2906 N 274.927 -0.932562 -1.27047 0
M  V30 2907 C 276.174 -0.575559 -1.94148 0
M  V30 2908 C 276.502 0.883984 -1.73251 0
M  V30 2909 O 275.757 1.64655 -1.0577 0
M  V30 2910 C 276.056 -0.853713 -3.47054 0
M  V30 2911 C 275.722 -2.29577 -3.88079 0
M  V30 2912 C 274.384 -2.68999 -3.9899 0
M  V30 2913 C 276.736 -3.23331 -4.08787 0
M  V30 2914 C 274.064 -4.01289 -4.28 0
M  V30 2915 C 276.416 -4.55207 -4.39282 0
M  V30 2916 C 275.08 -4.94457 -4.48407 0
M  V30 2917 H 274.35 -0.210612 -0.710439 0
M  V30 2918 H 276.997 -1.17744 -1.51025 0
M  V30 2919 H 275.302 -0.169204 -3.91434 0
M  V30 2920 H 276.999 -0.55639 -3.97121 0
M  V30 2921 H 273.589 -1.97994 -3.80127 0
M  V30 2922 H 277.773 -2.94074 -3.99793 0
M  V30 2923 H 273.029 -4.31374 -4.33275 0
M  V30 2924 H 277.203 -5.27852 -4.54252 0
M  V30 2925 H 274.83 -5.96994 -4.7064 0
M  V30 2926 N 276.405 1.4127 -0.698611 0
M  V30 2927 C 277.816 1.84187 -0.305289 0
M  V30 2928 C 278.167 1.58449 1.15708 0
M  V30 2929 O 277.292 1.05651 1.88856 0
M  V30 2930 C 277.887 3.3435 -0.547314 0
M  V30 2931 C 276.446 3.75826 -0.207878 0
M  V30 2932 C 275.593 2.64647 -0.828099 0
M  V30 2933 H 278.544 1.30778 -0.89904 0
M  V30 2934 H 278.565 3.8001 0.192998 0
M  V30 2935 H 278.077 3.53051 -1.61172 0
M  V30 2936 H 276.178 3.62725 0.852143 0
M  V30 2937 H 276.291 4.74462 -0.665021 0
M  V30 2938 H 274.655 2.53395 -0.257458 0
M  V30 2939 H 275.438 2.86165 -1.89643 0
M  V30 2940 N 277.883 0.443576 1.51229 0
M  V30 2941 C 279.16 -0.181038 1.9476 0
M  V30 2942 C 279.54 -1.59523 1.38259 0
M  V30 2943 O 278.888 -2.2122 0.572198 0
M  V30 2944 C 279.098 -0.152422 3.48667 0
M  V30 2945 C 280.446 -0.354923 4.23114 0
M  V30 2946 O 281.47 -0.230257 3.55455 0
M  V30 2947 O 280.329 -0.603674 5.43156 0
M  V30 2948 H 277.423 -0.1266 0.817252 0
M  V30 2949 H 279.969 0.502004 1.62105 0
M  V30 2950 H 278.741 0.836022 3.82265 0
M  V30 2951 H 278.364 -0.878107 3.87782 0
M  V30 2952 N 279.361 -1.56624 0.175154 0
M  V30 2953 C 280.61 -1.96173 -0.468921 0
M  V30 2954 C 280.923 -1.06401 -1.64128 0
M  V30 2955 O 282.129 -1.35648 -2.35185 0
M  V30 2956 C 280.585 -3.48833 -0.885633 0
M  V30 2957 C 280.193 -4.47237 0.261343 0
M  V30 2958 C 281.937 -3.97194 -1.49791 0
M  V30 2959 C 279.844 -5.9114 -0.175214 0
M  V30 2960 H 278.774 -0.732455 -0.178958 0
M  V30 2961 H 281.425 -1.81591 0.263997 0
M  V30 2962 H 279.807 -3.58848 -1.67464 0
M  V30 2963 H 280.981 -4.4894 1.03871 0
M  V30 2964 H 279.296 -4.08956 0.783827 0
M  V30 2965 H 281.893 -5.02167 -1.83665 0
M  V30 2966 H 282.236 -3.40351 -2.39722 0
M  V30 2967 H 282.769 -3.90212 -0.773267 0
M  V30 2968 H 279.508 -6.51865 0.689414 0
M  V30 2969 H 279.028 -5.92735 -0.91786 0
M  V30 2970 H 280.707 -6.44044 -0.617792 0
M  V30 2971 N 280.839 0.0985539 -1.57292 0
M  V30 2972 C 282.255 0.45267 -1.53046 0
M  V30 2973 C 282.455 1.80713 -0.891342 0
M  V30 2974 O 281.511 2.4785 -0.482375 0
M  V30 2975 C 282.824 0.418341 -2.97776 0
M  V30 2976 C 284.372 0.500443 -3.08973 0
M  V30 2977 C 284.847 0.496297 -4.55303 0
M  V30 2978 N 286.338 0.557151 -4.59837 0
M  V30 2979 C 287.073 0.575726 -5.70502 0
M  V30 2980 N 286.569 0.550714 -6.90608 0
M  V30 2981 N 288.362 0.620277 -5.58667 0
M  V30 2982 H 280.513 -0.788673 -1.97215 0
M  V30 2983 H 282.776 -0.293188 -0.901524 0
M  V30 2984 H 282.482 -0.509659 -3.47988 0
M  V30 2985 H 282.356 1.2386 -3.56284 0
M  V30 2986 H 284.743 1.41886 -2.58751 0
M  V30 2987 H 284.824 -0.347894 -2.53423 0
M  V30 2988 H 284.468 -0.418162 -5.06176 0
M  V30 2989 H 284.398 1.3618 -5.08687 0
M  V30 2990 H 286.889 0.581816 -3.73394 0
M  V30 2991 H 287.202 0.568075 -7.70709 0
M  V30 2992 H 285.547 0.517816 -6.93068 0
M  V30 2993 H 288.738 0.637322 -4.63741 0
M  V30 2994 H 288.911 0.631283 -6.44918 0
M  V30 2995 N 282.317 1.53212 0.369288 0
M  V30 2996 C 283.247 1.82365 1.45826 0
M  V30 2997 C 284.228 0.676907 1.56051 0
M  V30 2998 O 285.413 0.926401 1.70679 0
M  V30 2999 C 282.543 2.01023 2.83208 0
M  V30 3000 C 281.497 3.1678 2.8781 0
M  V30 3001 C 280.823 3.20724 4.27832 0
M  V30 3002 C 282.123 4.55447 2.55667 0
M  V30 3003 H 283.817 2.73559 1.21678 0
M  V30 3004 H 281.363 1.3163 0.583911 0
M  V30 3005 H 283.316 2.20001 3.59413 0
M  V30 3006 H 282.04 1.06536 3.08736 0
M  V30 3007 H 280.699 2.97616 2.14056 0
M  V30 3008 H 280.347 2.23882 4.50429 0
M  V30 3009 H 280.047 3.98496 4.31827 0
M  V30 3010 H 281.571 3.41881 5.05915 0
M  V30 3011 H 282.985 4.74611 3.21586 0
M  V30 3012 H 281.382 5.35432 2.70984 0
M  V30 3013 H 282.452 4.60812 1.5093 0
M  V30 3014 N 283.795 -0.628877 1.44509 0
M  V30 3015 C 285.023 -1.41554 1.50897 0
M  V30 3016 C 285.438 -1.8832 0.134564 0
M  V30 3017 O 284.795 -1.60969 -0.859965 0
M  V30 3018 C 284.846 -2.63435 2.47556 0
M  V30 3019 O 284.567 -2.18619 3.79654 0
M  V30 3020 C 286.068 -3.56537 2.63431 0
M  V30 3021 H 283.288 -0.434044 0.511709 0
M  V30 3022 H 285.832 -0.768895 1.89495 0
M  V30 3023 H 283.987 -3.24187 2.12089 0
M  V30 3024 H 284.401 -2.97652 4.31861 0
M  V30 3025 H 285.875 -4.38657 3.35088 0
M  V30 3026 H 286.352 -4.05493 1.68738 0
M  V30 3027 H 286.958 -3.01653 2.9981 0
M  V30 3028 N 285.273 -1.31445 -0.869486 0
M  V30 3029 C 286.519 -1.21337 -1.62496 0
M  V30 3030 C 286.852 0.227872 -1.92858 0
M  V30 3031 O 286.127 1.16094 -1.56053 0
M  V30 3032 C 286.41 -2.05814 -2.95487 0
M  V30 3033 C 286.263 -3.5824 -2.72 0
M  V30 3034 C 287.582 -1.9079 -3.96594 0
M  V30 3035 H 284.701 -0.442135 -0.589649 0
M  V30 3036 H 287.343 -1.6124 -1.00507 0
M  V30 3037 H 285.493 -1.71913 -3.48394 0
M  V30 3038 H 287.165 -4.0228 -2.25762 0
M  V30 3039 H 285.408 -3.81647 -2.06224 0
M  V30 3040 H 286.079 -4.12657 -3.66631 0
M  V30 3041 H 288.555 -2.20459 -3.52898 0
M  V30 3042 H 287.431 -2.52199 -4.87531 0
M  V30 3043 H 287.692 -0.871341 -4.33428 0
M  V30 3044 N 286.751 1.08385 -1.14413 0
M  V30 3045 C 288.028 1.77429 -0.823297 0
M  V30 3046 C 288.408 1.9974 0.683163 0
M  V30 3047 O 287.756 1.60739 1.62405 0
M  V30 3048 C 287.966 3.09004 -1.62227 0
M  V30 3049 C 289.314 3.83532 -1.82177 0
M  V30 3050 O 290.338 3.18786 -1.58915 0
M  V30 3051 O 289.197 4.99792 -2.21067 0
M  V30 3052 H 286.291 0.769999 -0.301712 0
M  V30 3053 H 288.837 1.14846 -1.24934 0
M  V30 3054 H 287.609 2.88316 -2.64555 0
M  V30 3055 H 287.232 3.79316 -1.19187 0
M  V30 3056 N 288.23 0.939286 1.26551 0
M  V30 3057 C 289.193 0.451987 2.24699 0
M  V30 3058 C 290.193 -0.435869 1.5478 0
M  V30 3059 O 291.383 -0.235314 1.72603 0
M  V30 3060 C 288.515 -0.348801 3.39111 0
M  V30 3061 H 289.708 1.3193 2.69322 0
M  V30 3062 H 287.261 0.721072 1.38673 0
M  V30 3063 H 287.996 -1.23444 2.99887 0
M  V30 3064 H 287.781 0.287945 3.91041 0
M  V30 3065 H 289.271 -0.679726 4.12031 0
M  V30 3066 N 289.708 -1.40897 0.706093 0
M  V30 3067 C 290.656 -2.32572 0.0361893 0
M  V30 3068 C 291.65 -1.51532 -0.757266 0
M  V30 3069 O 292.856 -1.67396 -0.661703 0
M  V30 3070 H 289.231 -0.751966 -0.00709935 0
M  V30 3071 H 291.202 -2.86733 0.826249 0
M  V30 3072 C 289.951 -3.36418 -0.87854 0
M  V30 3073 H 289.274 -3.98836 -0.277401 0
M  V30 3074 H 290.714 -4.0308 -1.3154 0
M  V30 3075 C 289.173 -2.71141 -1.99961 0
M  V30 3076 O 289.703 -2.56735 -3.0895 0
M  V30 3077 N 287.909 -2.29671 -1.78043 0
M  V30 3078 H 287.456 -2.41588 -0.894042 0
M  V30 3079 H 287.414 -1.86332 -2.53235 0
M  V30 3080 N 291.186 -0.45159 -1.50991 0
M  V30 3081 C 292.411 0.110667 -2.07105 0
M  V30 3082 C 292.836 1.3446 -1.31538 0
M  V30 3083 O 292.194 1.77743 -0.357365 0
M  V30 3084 C 292.242 0.397238 -3.58405 0
M  V30 3085 O 291.346 1.48124 -3.84881 0
M  V30 3086 H 290.687 -0.00439271 -0.663985 0
M  V30 3087 H 293.217 -0.637026 -1.9443 0
M  V30 3088 H 293.227 0.64351 -4.02893 0
M  V30 3089 H 291.902 -0.504553 -4.12828 0
M  V30 3090 H 290.479 1.22381 -3.52246 0
M  V30 3091 N 292.664 1.56529 -0.183458 0
M  V30 3092 C 293.627 2.17324 0.728223 0
M  V30 3093 C 294.627 1.12453 1.14939 0
M  V30 3094 O 295.817 1.37902 1.06437 0
M  V30 3095 C 292.949 2.76591 1.99274 0
M  V30 3096 H 294.142 2.99241 0.198772 0
M  V30 3097 H 291.695 1.5616 0.0661391 0
M  V30 3098 H 292.43 1.98441 2.56499 0
M  V30 3099 H 292.215 3.5335 1.69959 0
M  V30 3100 H 293.705 3.23311 2.6431 0
M  V30 3101 N 294.142 -0.090211 1.57342 0
M  V30 3102 C 295.372 -0.805055 1.90269 0
M  V30 3103 C 295.78 -1.72561 0.775842 0
M  V30 3104 O 295.123 -1.81839 -0.260843 0
M  V30 3105 C 295.185 -1.66734 3.18497 0
M  V30 3106 C 294.849 -0.918092 4.47683 0
M  V30 3107 C 295.846 -0.245674 5.19319 0
M  V30 3108 C 293.531 -0.890724 4.94339 0
M  V30 3109 C 295.525 0.444088 6.35851 0
M  V30 3110 C 293.212 -0.197179 6.10782 0
M  V30 3111 C 294.21 0.469044 6.81388 0
M  V30 3112 O 293.898 1.15146 7.95611 0
M  V30 3113 H 293.63 -0.235143 0.633785 0
M  V30 3114 H 296.184 -0.0703805 2.05279 0
M  V30 3115 H 294.414 -2.44437 2.99646 0
M  V30 3116 H 296.103 -2.25919 3.37217 0
M  V30 3117 H 296.869 -0.258246 4.84312 0
M  V30 3118 H 292.748 -1.39873 4.39268 0
M  V30 3119 H 296.292 0.964667 6.90898 0
M  V30 3120 H 292.189 -0.18247 6.45242 0
M  V30 3121 H 292.957 1.05885 8.11622 0
M  V30 3122 N 295.62 -1.53406 -0.361157 0
M  V30 3123 C 296.848 -1.73717 -1.12383 0
M  V30 3124 C 297.263 -0.468161 -1.82904 0
M  V30 3125 O 296.62 0.559198 -1.73722 0
M  V30 3126 C 296.671 -2.90558 -2.15078 0
M  V30 3127 O 296.392 -4.12549 -1.47428 0
M  V30 3128 C 297.893 -3.22777 -3.03858 0
M  V30 3129 H 295.113 -0.580896 -0.335858 0
M  V30 3130 H 297.657 -2.00167 -0.418728 0
M  V30 3131 H 295.812 -2.66489 -2.8118 0
M  V30 3132 H 296.226 -4.78009 -2.15887 0
M  V30 3133 H 297.7 -4.07927 -3.71887 0
M  V30 3134 H 298.177 -2.38329 -3.68912 0
M  V30 3135 H 298.783 -3.48787 -2.43367 0
M  V30 3136 N 297.098 0.621204 -1.44841 0
M  V30 3137 C 298.028 1.74366 -1.55303 0
M  V30 3138 C 299.009 1.65199 -0.405385 0
M  V30 3139 O 300.194 1.83807 -0.626787 0
M  V30 3140 C 297.324 3.12931 -1.50637 0
M  V30 3141 C 296.278 3.36896 -2.63979 0
M  V30 3142 C 295.604 4.75594 -2.44366 0
M  V30 3143 C 296.904 3.28483 -4.06074 0
M  V30 3144 H 298.598 1.65867 -2.49256 0
M  V30 3145 H 296.144 0.796558 -1.19962 0
M  V30 3146 H 298.097 3.9124 -1.56555 0
M  V30 3147 H 296.821 3.22237 -0.532057 0
M  V30 3148 H 295.48 2.60972 -2.57467 0
M  V30 3149 H 295.128 4.81616 -1.45105 0
M  V30 3150 H 294.828 4.92586 -3.20364 0
M  V30 3151 H 296.352 5.5612 -2.52117 0
M  V30 3152 H 297.766 3.96684 -4.13902 0
M  V30 3153 H 296.163 3.57008 -4.82354 0
M  V30 3154 H 297.233 2.26133 -4.28943 0
M  V30 3155 N 298.576 1.31904 0.862503 0
M  V30 3156 C 299.539 1.20131 1.95195 0
M  V30 3157 C 300.539 0.126409 1.60302 0
M  V30 3158 O 301.729 0.376234 1.70089 0
M  V30 3159 C 298.861 0.845691 3.30244 0
M  V30 3160 H 300.054 2.16943 2.07064 0
M  V30 3161 H 297.607 1.15622 1.05172 0
M  V30 3162 H 298.342 -0.120957 3.24074 0
M  V30 3163 H 298.127 1.62276 3.56944 0
M  V30 3164 H 299.617 0.787418 4.10109 0
M  V30 3165 N 300.054 -1.07777 1.14986 0
M  V30 3166 C 301.331 -1.7699 0.832695 0
M  V30 3167 C 301.711 -2.001 -0.672561 0
M  V30 3168 O 301.059 -1.61598 -1.6155 0
M  V30 3169 C 301.269 -3.08139 1.63863 0
M  V30 3170 C 302.617 -3.8256 1.84208 0
M  V30 3171 O 303.641 -3.17939 1.60603 0
M  V30 3172 O 302.5 -4.98612 2.23714 0
M  V30 3173 H 299.594 -0.768389 0.305791 0
M  V30 3174 H 302.14 -1.14182 1.25541 0
M  V30 3175 H 300.912 -2.86909 2.6608 0
M  V30 3176 H 300.535 -3.78678 1.21197 0
M  V30 3177 N 301.532 -0.945985 -1.26051 0
M  V30 3178 C 302.495 -0.463897 -2.24456 0
M  V30 3179 C 303.495 0.427655 -1.55009 0
M  V30 3180 O 304.685 0.226157 -1.72726 0
M  V30 3181 C 301.817 0.330812 -3.39291 0
M  V30 3182 H 303.01 -1.33357 -2.68619 0
M  V30 3183 H 300.563 -0.728416 -1.38289 0
M  V30 3184 H 301.298 1.21852 -3.00537 0
M  V30 3185 H 301.083 -0.308679 -3.90883 0
M  V30 3186 H 302.573 0.657865 -4.12386 0
M  V30 3187 N 303.011 1.40521 -0.713556 0
M  V30 3188 C 304.259 2.00527 -0.251692 0
M  V30 3189 C 304.58 1.56857 1.15848 0
M  V30 3190 O 303.85 0.807127 1.785 0
M  V30 3191 H 302.43 0.741551 -0.0900646 0
M  V30 3192 H 305.092 1.71887 -0.918733 0
M  V30 3193 H 304.188 3.10813 -0.283192 0
M  V30 3194 N 304.489 0.459591 1.5075 0
M  V30 3195 C 305.905 0.113092 1.59199 0
M  V30 3196 C 306.105 -1.37951 1.46874 0
M  V30 3197 O 305.161 -2.15168 1.32132 0
M  V30 3198 C 306.474 0.653043 2.93523 0
M  V30 3199 C 308.022 0.615449 3.0689 0
M  V30 3200 C 308.497 1.13275 4.43771 0
M  V30 3201 N 309.988 1.09167 4.50152 0
M  V30 3202 C 310.723 1.46256 5.54434 0
M  V30 3203 N 310.219 1.90739 6.66026 0
M  V30 3204 N 312.012 1.37932 5.44914 0
M  V30 3205 H 304.163 1.43049 1.57005 0
M  V30 3206 H 306.426 0.590861 0.741341 0
M  V30 3207 H 306.132 1.69822 3.07983 0
M  V30 3208 H 306.006 0.0902132 3.77092 0
M  V30 3209 H 308.393 -0.420793 2.92084 0
M  V30 3210 H 308.474 1.21495 2.25106 0
M  V30 3211 H 308.118 2.16757 4.59324 0
M  V30 3212 H 308.048 0.509576 5.24129 0
M  V30 3213 H 310.539 0.76528 3.7007 0
M  V30 3214 H 310.852 2.17218 7.41644 0
M  V30 3215 H 309.197 1.94683 6.67176 0
M  V30 3216 H 312.388 1.0303 4.56621 0
M  V30 3217 H 312.561 1.67164 6.26067 0
M  V30 3218 N 305.967 -1.56429 0.191757 0
M  V30 3219 C 306.897 -2.21937 -0.725696 0
M  V30 3220 C 307.878 -1.1814 -1.2238 0
M  V30 3221 O 309.063 -1.46636 -1.27325 0
M  V30 3222 C 306.193 -2.87611 -1.94672 0
M  V30 3223 C 305.147 -3.97623 -1.58366 0
M  V30 3224 C 304.473 -4.50446 -2.88102 0
M  V30 3225 C 305.773 -5.16197 -0.796133 0
M  V30 3226 H 307.467 -2.98861 -0.179606 0
M  V30 3227 H 305.013 -1.43749 -0.0849464 0
M  V30 3228 H 306.966 -3.3212 -2.59373 0
M  V30 3229 H 305.69 -2.08087 -2.51728 0
M  V30 3230 H 304.349 -3.53801 -0.960247 0
M  V30 3231 H 303.997 -3.67688 -3.43241 0
M  V30 3232 H 303.697 -5.24675 -2.64556 0
M  V30 3233 H 305.221 -4.97654 -3.53798 0
M  V30 3234 H 306.635 -5.57271 -1.34618 0
M  V30 3235 H 305.032 -5.96471 -0.658928 0
M  V30 3236 H 306.102 -4.84473 0.203478 0
M  V30 3237 N 307.445 0.0818655 -1.57387 0
M  V30 3238 C 308.861 0.436412 -1.53517 0
M  V30 3239 C 309.061 1.79758 -0.910459 0
M  V30 3240 O 308.117 2.47324 -0.508636 0
M  V30 3241 C 309.43 0.386734 -2.98203 0
M  V30 3242 C 310.978 0.467644 -3.09487 0
M  V30 3243 C 311.453 0.447978 -4.55804 0
M  V30 3244 N 312.944 0.508348 -4.60402 0
M  V30 3245 C 313.679 0.515184 -5.71081 0
M  V30 3246 N 313.175 0.477435 -6.91153 0
M  V30 3247 N 314.968 0.560988 -5.59294 0
M  V30 3248 H 307.119 -0.809546 -1.96367 0
M  V30 3249 H 309.382 -0.302733 -0.898363 0
M  V30 3250 H 309.088 -0.546539 -3.47427 0
M  V30 3251 H 308.962 1.20075 -3.57578 0
M  V30 3252 H 311.349 1.39134 -2.60242 0
M  V30 3253 H 311.43 -0.374753 -2.5304 0
M  V30 3254 H 311.074 -0.471826 -5.05704 0
M  V30 3255 H 311.004 1.30777 -5.10103 0
M  V30 3256 H 313.495 0.54218 -3.7399 0
M  V30 3257 H 313.808 0.486299 -7.71268 0
M  V30 3258 H 312.153 0.444278 -6.93579 0
M  V30 3259 H 315.344 0.5881 -4.64391 0
M  V30 3260 H 315.517 0.562846 -6.45551 0
M  V30 3261 N 308.923 1.53595 0.353017 0
M  V30 3262 C 309.855 1.77219 1.45348 0
M  V30 3263 C 310.868 0.65324 1.49119 0
M  V30 3264 O 312.057 0.929775 1.52373 0
M  V30 3265 C 309.157 1.84841 2.84055 0
M  V30 3266 C 308.33 3.14649 3.03833 0
M  V30 3267 C 307.389 3.13351 4.22727 0
M  V30 3268 O 306.415 3.87107 4.17297 0
M  V30 3269 N 307.617 2.35052 5.30783 0
M  V30 3270 H 310.382 2.72178 1.25457 0
M  V30 3271 H 307.943 1.52528 0.542833 0
M  V30 3272 H 309.935 1.81435 3.61751 0
M  V30 3273 H 308.505 0.971114 2.97133 0
M  V30 3274 H 307.725 3.31256 2.13689 0
M  V30 3275 H 309.013 4.00411 3.13925 0
M  V30 3276 H 308.411 1.74663 5.38061 0
M  V30 3277 H 306.968 2.37453 6.07009 0
M  V30 3278 N 310.401 -0.613514 1.45168 0
M  V30 3279 C 311.331 -1.7354 1.56225 0
M  V30 3280 C 312.312 -1.64981 0.41414 0
M  V30 3281 O 313.497 -1.83472 0.636526 0
M  V30 3282 C 310.627 -3.12128 1.52295 0
M  V30 3283 C 309.581 -3.35491 2.65762 0
M  V30 3284 C 308.907 -4.74291 2.46885 0
M  V30 3285 C 310.207 -3.26325 4.0781 0
M  V30 3286 H 311.901 -1.64543 2.50132 0
M  V30 3287 H 309.447 -0.790185 1.20383 0
M  V30 3288 H 311.4 -3.90404 1.58628 0
M  V30 3289 H 310.124 -3.2195 0.549139 0
M  V30 3290 H 308.783 -2.59603 2.58847 0
M  V30 3291 H 308.431 -4.80839 1.47657 0
M  V30 3292 H 308.131 -4.9088 3.22972 0
M  V30 3293 H 309.655 -5.54775 2.55063 0
M  V30 3294 H 311.069 -3.94483 4.16 0
M  V30 3295 H 309.466 -3.54445 4.8424 0
M  V30 3296 H 310.536 -2.23855 4.30136 0
M  V30 3297 N 311.879 -1.3236 -0.855495 0
M  V30 3298 C 313.156 -1.13491 -1.59309 0
M  V30 3299 C 313.536 0.30503 -2.08885 0
M  V30 3300 O 312.884 1.30151 -1.87811 0
M  V30 3301 C 313.094 -2.16176 -2.73987 0
M  V30 3302 C 314.442 -2.49463 -3.43589 0
M  V30 3303 O 315.466 -2.14715 -2.84211 0
M  V30 3304 O 314.325 -3.09027 -4.50738 0
M  V30 3305 H 311.419 -0.437887 -0.701559 0
M  V30 3306 H 313.965 -1.43887 -0.899696 0
M  V30 3307 H 312.737 -3.1297 -2.34873 0
M  V30 3308 H 312.36 -1.86769 -3.51003 0
M  V30 3309 N 313.357 1.07166 -1.15556 0
M  V30 3310 C 314.267 2.17947 -0.868116 0
M  V30 3311 C 315.283 1.73297 0.156297 0
M  V30 3312 O 316.459 2.01392 -0.0182327 0
M  V30 3313 C 313.524 3.44789 -0.36355 0
M  V30 3314 C 312.585 4.03996 -1.45209 0
M  V30 3315 C 311.818 5.24783 -0.971508 0
M  V30 3316 O 312.041 5.70109 0.182194 0
M  V30 3317 O 310.975 5.75715 -1.75603 0
M  V30 3318 H 314.801 2.4503 -1.79427 0
M  V30 3319 H 312.386 1.16539 -0.934824 0
M  V30 3320 H 314.268 4.21307 -0.0887113 0
M  V30 3321 H 312.943 3.19253 0.534708 0
M  V30 3322 H 311.85 3.29009 -1.78056 0
M  V30 3323 H 313.183 4.33808 -2.32533 0
M  V30 3324 N 314.835 0.952656 1.25548 0
M  V30 3325 C 316.065 0.622592 1.96996 0
M  V30 3326 C 316.473 -0.809112 1.71026 0
M  V30 3327 O 315.816 -1.55258 0.981861 0
M  V30 3328 C 315.878 0.798946 3.5051 0
M  V30 3329 C 315.542 2.20744 4.00151 0
M  V30 3330 C 316.539 3.18394 4.11001 0
M  V30 3331 C 314.224 2.5311 4.33867 0
M  V30 3332 C 316.218 4.46504 4.54877 0
M  V30 3333 C 313.905 3.8145 4.7743 0
M  V30 3334 C 314.903 4.77959 4.87897 0
M  V30 3335 O 314.591 6.04012 5.30494 0
M  V30 3336 H 314.323 0.232503 0.634758 0
M  V30 3337 H 316.877 1.2789 1.60728 0
M  V30 3338 H 315.107 0.0854903 3.86605 0
M  V30 3339 H 316.796 0.47023 4.03167 0
M  V30 3340 H 317.562 2.94715 3.85186 0
M  V30 3341 H 313.441 1.78719 4.24948 0
M  V30 3342 H 316.985 5.21835 4.62962 0
M  V30 3343 H 312.882 4.04936 5.0269 0
M  V30 3344 H 313.65 6.0736 5.48685 0
M  V30 3345 N 316.313 -1.40141 0.720998 0
M  V30 3346 C 317.59 -1.94677 0.189757 0
M  V30 3347 C 317.97 -1.65879 -1.30566 0
M  V30 3348 O 317.318 -0.979391 -2.06447 0
M  V30 3349 C 317.528 -3.45279 0.508304 0
M  V30 3350 C 318.876 -4.22209 0.449934 0
M  V30 3351 O 319.9 -3.53413 0.444677 0
M  V30 3352 O 318.759 -5.44788 0.432189 0
M  V30 3353 H 315.853 -0.826459 0.0299026 0
M  V30 3354 H 318.399 -1.49719 0.7989 0
M  V30 3355 H 317.171 -3.59619 1.54239 0
M  V30 3356 H 316.794 -3.97386 -0.130525 0
M  V30 3357 N 317.792 -0.46758 -1.50504 0
M  V30 3358 C 318.722 0.318381 -2.31319 0
M  V30 3359 C 319.703 0.993564 -1.38066 0
M  V30 3360 O 320.888 0.991411 -1.66987 0
M  V30 3361 C 318.018 1.40275 -3.17711 0
M  V30 3362 C 316.972 0.849373 -4.19487 0
M  V30 3363 C 316.298 2.03177 -4.94594 0
M  V30 3364 C 317.598 -0.136942 -5.2212 0
M  V30 3365 H 319.292 -0.356106 -2.97275 0
M  V30 3366 H 316.838 -0.172703 -1.42961 0
M  V30 3367 H 318.791 1.96004 -3.73042 0
M  V30 3368 H 317.515 2.10596 -2.49634 0
M  V30 3369 H 316.174 0.314076 -3.65252 0
M  V30 3370 H 315.822 2.72187 -4.22993 0
M  V30 3371 H 315.522 1.66774 -5.63436 0
M  V30 3372 H 317.046 2.59403 -5.52759 0
M  V30 3373 H 318.46 0.331056 -5.72343 0
M  V30 3374 H 316.857 -0.41507 -5.98663 0
M  V30 3375 H 317.927 -1.06398 -4.73083 0
M  V30 3376 N 319.27 1.56325 -0.20005 0
M  V30 3377 C 320.498 2.02105 0.442874 0
M  V30 3378 C 320.913 1.08014 1.5485 0
M  V30 3379 O 320.27 0.0858797 1.82298 0
M  V30 3380 C 320.321 3.47549 0.994583 0
M  V30 3381 O 320.042 4.38049 -0.0669322 0
M  V30 3382 C 321.543 4.0887 1.7129 0
M  V30 3383 H 318.763 0.661807 0.110691 0
M  V30 3384 H 321.307 2.02134 -0.310207 0
M  V30 3385 H 319.462 3.48204 1.69803 0
M  V30 3386 H 319.876 5.23368 0.344462 0
M  V30 3387 H 321.35 5.12475 2.05118 0
M  V30 3388 H 321.827 3.52615 2.61838 0
M  V30 3389 H 322.433 4.12002 1.05518 0
M  V30 3390 N 320.748 -0.0735177 1.57428 0
M  V30 3391 C 321.978 -0.78483 1.91112 0
M  V30 3392 C 322.386 -1.71729 0.7941 0
M  V30 3393 O 321.729 -1.82105 -0.241542 0
M  V30 3394 C 321.791 -1.63346 3.20247 0
M  V30 3395 C 321.455 -0.870557 4.48632 0
M  V30 3396 C 322.452 -0.19058 5.19551 0
M  V30 3397 C 320.137 -0.838242 4.95256 0
M  V30 3398 C 322.131 0.511503 6.35344 0
M  V30 3399 C 319.818 -0.132386 6.10957 0
M  V30 3400 C 320.816 0.541288 6.80852 0
M  V30 3401 O 320.504 1.23578 7.94345 0
M  V30 3402 H 320.236 -0.228408 0.636244 0
M  V30 3403 H 322.79 -0.0486039 2.05342 0
M  V30 3404 H 321.02 -2.41245 3.02222 0
M  V30 3405 H 322.709 -2.22329 3.39595 0
M  V30 3406 H 323.475 -0.206864 4.84559 0
M  V30 3407 H 319.354 -1.35206 4.40727 0
M  V30 3408 H 322.898 1.03789 6.89836 0
M  V30 3409 H 318.795 -0.114023 6.45399 0
M  V30 3410 H 319.563 1.14487 8.10454 0
M  V30 3411 N 322.226 -1.5378 -0.344866 0
M  V30 3412 C 323.475 -1.7018 -1.08267 0
M  V30 3413 C 323.788 -0.471 -1.89845 0
M  V30 3414 O 324.994 -0.515917 -2.66553 0
M  V30 3415 C 323.45 -3.00923 -1.97417 0
M  V30 3416 C 323.058 -4.31335 -1.21053 0
M  V30 3417 C 324.802 -3.26688 -2.71063 0
M  V30 3418 C 322.709 -5.53153 -2.09225 0
M  V30 3419 H 321.639 -0.634138 -0.407903 0
M  V30 3420 H 324.29 -1.8028 -0.342246 0
M  V30 3421 H 322.672 -2.84676 -2.75274 0
M  V30 3422 H 323.846 -4.58281 -0.481159 0
M  V30 3423 H 322.161 -4.12173 -0.591813 0
M  V30 3424 H 324.758 -4.1489 -3.37299 0
M  V30 3425 H 325.101 -2.43639 -3.37558 0
M  V30 3426 H 325.634 -3.43705 -2.0028 0
M  V30 3427 H 322.373 -6.38741 -1.47274 0
M  V30 3428 H 321.893 -5.30458 -2.79955 0
M  V30 3429 H 323.572 -5.88744 -2.68308 0
M  V30 3430 N 323.704 0.605807 -1.45491 0
M  V30 3431 C 324.614 1.74466 -1.56839 0
M  V30 3432 C 325.63 1.68006 -0.452772 0
M  V30 3433 O 326.806 1.8833 -0.713708 0
M  V30 3434 C 323.871 3.10931 -1.53371 0
M  V30 3435 C 322.932 3.28832 -2.75986 0
M  V30 3436 C 322.165 4.58787 -2.72673 0
M  V30 3437 O 322.388 5.4122 -1.80102 0
M  V30 3438 O 321.322 4.79438 -3.63899 0
M  V30 3439 H 325.148 1.67843 -2.53106 0
M  V30 3440 H 322.733 0.770108 -1.28022 0
M  V30 3441 H 324.615 3.92233 -1.54051 0
M  V30 3442 H 323.29 3.18042 -0.602572 0
M  V30 3443 H 322.197 2.47112 -2.80867 0
M  V30 3444 H 323.53 3.26599 -3.68231 0
M  V30 3445 N 325.182 1.32811 0.848464 0
M  V30 3446 C 326.114 1.18095 1.96433 0
M  V30 3447 C 327.127 0.114354 1.62398 0
M  V30 3448 O 328.316 0.363892 1.74751 0
M  V30 3449 C 325.416 0.786798 3.2964 0
M  V30 3450 C 324.589 1.943 3.91875 0
M  V30 3451 C 323.648 1.53138 5.03423 0
M  V30 3452 O 322.674 2.24432 5.23086 0
M  V30 3453 N 323.876 0.430915 5.78898 0
M  V30 3454 H 326.641 2.14218 2.09597 0
M  V30 3455 H 324.202 1.2543 1.02367 0
M  V30 3456 H 326.194 0.493715 4.01677 0
M  V30 3457 H 324.764 -0.0834541 3.12489 0
M  V30 3458 H 323.984 2.40224 3.12547 0
M  V30 3459 H 325.272 2.71689 4.30189 0
M  V30 3460 H 324.67 -0.162333 5.65467 0
M  V30 3461 H 323.227 0.197466 6.51501 0
M  V30 3462 N 326.66 -1.06551 1.16123 0
M  V30 3463 C 328.071 -1.60768 0.949232 0
M  V30 3464 C 328.422 -1.89523 -0.507508 0
M  V30 3465 O 327.547 -1.66671 -1.38021 0
M  V30 3466 C 328.142 -2.92086 1.71671 0
M  V30 3467 C 326.701 -3.43015 1.54977 0
M  V30 3468 C 325.848 -2.16947 1.72711 0
M  V30 3469 H 328.799 -0.895354 1.31031 0
M  V30 3470 H 328.82 -3.6138 1.19099 0
M  V30 3471 H 328.332 -2.71127 2.7769 0
M  V30 3472 H 326.433 -3.69039 0.513873 0
M  V30 3473 H 326.546 -4.18516 2.33198 0
M  V30 3474 H 324.91 -2.27041 1.15431 0
M  V30 3475 H 325.693 -1.98473 2.80113 0
M  V30 3476 N 328.138 -0.959301 -1.25041 0
M  V30 3477 C 329.068 -0.501388 -2.28053 0
M  V30 3478 C 330.049 0.454673 -1.63911 0
M  V30 3479 O 331.234 0.352618 -1.90972 0
M  V30 3480 C 328.364 0.217224 -3.4662 0
M  V30 3481 C 327.318 -0.654034 -4.22973 0
M  V30 3482 C 326.644 0.195589 -5.34342 0
M  V30 3483 C 327.944 -1.93447 -4.85155 0
M  V30 3484 H 329.638 -1.36238 -2.66608 0
M  V30 3485 H 327.184 -0.656534 -1.28163 0
M  V30 3486 H 329.137 0.548732 -4.17812 0
M  V30 3487 H 327.861 1.1125 -3.07068 0
M  V30 3488 H 326.52 -0.968693 -3.5357 0
M  V30 3489 H 326.168 1.09076 -4.91031 0
M  V30 3490 H 325.868 -0.384091 -5.86343 0
M  V30 3491 H 327.392 0.521958 -6.08365 0
M  V30 3492 H 328.806 -1.66908 -5.48466 0
M  V30 3493 H 327.203 -2.46018 -5.47353 0
M  V30 3494 H 328.273 -2.63466 -4.07079 0
M  V30 3495 N 329.616 1.39756 -0.72842 0
M  V30 3496 C 330.579 2.29012 -0.0927297 0
M  V30 3497 C 331.579 1.45992 0.674025 0
M  V30 3498 O 332.769 1.66749 0.50402 0
M  V30 3499 C 329.901 3.29396 0.878137 0
M  V30 3500 H 331.094 2.86729 -0.879011 0
M  V30 3501 H 328.647 1.48293 -0.493847 0
M  V30 3502 H 329.382 2.76722 1.69101 0
M  V30 3503 H 329.167 3.907 0.331051 0
M  V30 3504 H 330.657 3.96199 1.3197 0
M  V30 3505 N 331.094 0.475555 1.50254 0
M  V30 3506 C 332.34 -0.0701075 2.03279 0
M  V30 3507 C 332.695 -1.37007 1.35081 0
M  V30 3508 O 331.988 -1.8577 0.469052 0
M  V30 3509 C 332.182 -0.305114 3.56095 0
M  V30 3510 C 332.011 0.970515 4.39103 0
M  V30 3511 C 330.781 1.51509 4.82051 0
M  V30 3512 C 332.979 1.8671 4.79212 0
M  V30 3513 N 330.961 2.73928 5.49397 0
M  V30 3514 C 332.332 2.93715 5.46014 0
M  V30 3515 C 334.387 1.87695 4.61167 0
M  V30 3516 C 333.09 4.01699 5.96683 0
M  V30 3517 C 335.116 2.94637 5.12779 0
M  V30 3518 C 334.478 4.00361 5.79561 0
M  V30 3519 H 330.577 0.014486 0.781866 0
M  V30 3520 H 333.161 0.644755 1.83714 0
M  V30 3521 H 331.332 -0.989019 3.75597 0
M  V30 3522 H 333.064 -0.845516 3.95769 0
M  V30 3523 H 329.819 1.06367 4.61501 0
M  V30 3524 H 330.243 3.36109 5.87673 0
M  V30 3525 H 334.885 1.07273 4.08965 0
M  V30 3526 H 332.603 4.82934 6.4792 0
M  V30 3527 H 336.189 2.96388 5.00645 0
M  V30 3528 H 335.069 4.81751 6.18778 0
M  V30 3529 N 332.573 -1.56217 0.208337 0
M  V30 3530 C 333.85 -1.89739 -0.475234 0
M  V30 3531 C 334.23 -1.1238 -1.78701 0
M  V30 3532 O 333.578 -0.228979 -2.2735 0
M  V30 3533 C 333.788 -3.42289 -0.681101 0
M  V30 3534 C 335.136 -4.12789 -0.994507 0
M  V30 3535 O 336.16 -3.47814 -0.768357 0
M  V30 3536 O 335.019 -5.27649 -1.42299 0
M  V30 3537 H 332.113 -0.788478 -0.249461 0
M  V30 3538 H 334.659 -1.67855 0.249538 0
M  V30 3539 H 333.431 -3.90534 0.244722 0
M  V30 3540 H 333.054 -3.69909 -1.45785 0
M  V30 3541 N 334.051 0.0651679 -1.57465 0
M  V30 3542 C 335.328 0.79644 -1.78651 0
M  V30 3543 C 335.708 1.95454 -0.797566 0
M  V30 3544 O 335.056 2.27882 0.167946 0
M  V30 3545 C 335.266 1.26322 -3.25337 0
M  V30 3546 C 336.614 1.6939 -3.89348 0
M  V30 3547 O 337.638 1.35872 -3.29268 0
M  V30 3548 O 336.497 2.31471 -4.95059 0
M  V30 3549 H 333.591 0.382157 -0.733407 0
M  V30 3550 H 336.137 0.0447311 -1.69641 0
M  V30 3551 H 334.909 0.434859 -3.88876 0
M  V30 3552 H 334.532 2.07604 -3.39096 0
M  V30 3553 N 335.529 1.53961 0.336706 0
M  V30 3554 C 336.459 1.85417 1.41925 0
M  V30 3555 C 337.44 0.709856 1.5458 0
M  V30 3556 O 338.625 0.962396 1.68676 0
M  V30 3557 C 335.755 2.06985 2.78881 0
M  V30 3558 C 334.709 3.22813 2.81026 0
M  V30 3559 C 334.035 3.29727 4.20932 0
M  V30 3560 C 335.335 4.60767 2.45949 0
M  V30 3561 H 337.029 2.76079 1.15848 0
M  V30 3562 H 334.575 1.32839 0.555859 0
M  V30 3563 H 336.528 2.27575 3.54665 0
M  V30 3564 H 335.252 1.13061 3.06406 0
M  V30 3565 H 333.911 3.0209 2.07695 0
M  V30 3566 H 333.559 2.33385 4.45579 0
M  V30 3567 H 333.259 4.07566 4.23277 0
M  V30 3568 H 334.783 3.52536 4.98549 0
M  V30 3569 H 336.197 4.81325 3.11446 0
M  V30 3570 H 334.594 5.4106 2.59566 0
M  V30 3571 H 335.664 4.6391 1.41122 0
M  V30 3572 N 337.007 -0.598083 1.45811 0
M  V30 3573 C 338.253 -1.35882 1.50545 0
M  V30 3574 C 338.586 -1.93616 0.150445 0
M  V30 3575 O 337.861 -1.75604 -0.83628 0
M  V30 3576 C 338.144 -2.49966 2.59208 0
M  V30 3577 C 337.997 -1.97367 4.04186 0
M  V30 3578 C 339.316 -3.52068 2.64076 0
M  V30 3579 H 336.435 -0.492717 0.548087 0
M  V30 3580 H 339.077 -0.673319 1.77669 0
M  V30 3581 H 337.227 -3.08443 2.3621 0
M  V30 3582 H 338.899 -1.43466 4.38423 0
M  V30 3583 H 337.142 -1.283 4.14393 0
M  V30 3584 H 337.813 -2.79649 4.75921 0
M  V30 3585 H 340.289 -3.03448 2.84708 0
M  V30 3586 H 339.165 -4.2937 3.41954 0
M  V30 3587 H 339.426 -4.08304 1.69531 0
M  V30 3588 N 338.485 -1.33259 -0.841409 0
M  V30 3589 C 339.762 -1.15174 -1.58096 0
M  V30 3590 C 340.142 0.282858 -2.09196 0
M  V30 3591 O 339.49 1.28151 -1.89181 0
M  V30 3592 C 339.7 -2.1907 -2.71679 0
M  V30 3593 C 341.048 -2.53093 -3.40924 0
M  V30 3594 O 342.072 -2.17717 -2.81918 0
M  V30 3595 O 340.931 -3.1379 -4.47435 0
M  V30 3596 H 338.025 -0.445303 -0.696875 0
M  V30 3597 H 340.571 -1.44833 -0.884385 0
M  V30 3598 H 339.343 -3.15443 -2.31541 0
M  V30 3599 H 338.966 -1.90481 -3.49002 0
M  V30 3600 N 339.963 1.05934 -1.16686 0
M  V30 3601 C 340.913 2.11764 -0.844978 0
M  V30 3602 C 341.897 1.59922 0.177178 0
M  V30 3603 O 343.089 1.76983 -0.0241768 0
M  V30 3604 C 340.218 3.41493 -0.351812 0
M  V30 3605 C 339.304 4.00152 -1.40496 0
M  V30 3606 N 339.695 4.32874 -2.61636 0
M  V30 3607 C 337.993 4.278 -1.26106 0
M  V30 3608 C 338.694 4.79552 -3.29249 0
M  V30 3609 N 337.67 4.79211 -2.56628 0
M  V30 3610 H 341.472 2.34916 -1.76612 0
M  V30 3611 H 338.986 1.23511 -1.05446 0
M  V30 3612 H 340.983 4.16773 -0.102796 0
M  V30 3613 H 339.643 3.19778 0.56322 0
M  V30 3614 H 340.654 4.23109 -2.98663 0
M  V30 3615 H 337.331 4.15511 -0.407081 0
M  V30 3616 H 338.721 5.14045 -4.32675 0
M  V30 3617 N 341.441 0.965919 1.2453 0
M  V30 3618 C 342.404 0.499547 2.2369 0
M  V30 3619 C 343.404 -0.40294 1.5567 0
M  V30 3620 O 344.594 -0.19865 1.73064 0
M  V30 3621 C 341.726 -0.276792 3.39774 0
M  V30 3622 H 342.919 1.37613 2.66463 0
M  V30 3623 H 340.472 0.750324 1.37112 0
M  V30 3624 H 341.207 -1.17055 3.02438 0
M  V30 3625 H 340.992 0.370826 3.90343 0
M  V30 3626 H 342.482 -0.592175 4.1338 0
M  V30 3627 N 342.919 -1.39368 0.735821 0
M  V30 3628 C 343.829 -2.34395 0.0979693 0
M  V30 3629 C 344.845 -1.58361 -0.720968 0
M  V30 3630 O 346.021 -1.90648 -0.649245 0
M  V30 3631 C 343.086 -3.37393 -0.797916 0
M  V30 3632 C 342.147 -4.29287 0.0333662 0
M  V30 3633 C 341.38 -5.27365 -0.819854 0
M  V30 3634 O 341.603 -5.31959 -2.05855 0
M  V30 3635 O 340.537 -6.01389 -0.248079 0
M  V30 3636 H 344.363 -2.90601 0.882315 0
M  V30 3637 H 341.948 -1.40909 0.4965 0
M  V30 3638 H 343.83 -4.00505 -1.31048 0
M  V30 3639 H 342.505 -2.83571 -1.56106 0
M  V30 3640 H 341.412 -3.69395 0.591475 0
M  V30 3641 H 342.745 -4.86317 0.758752 0
M  V30 3642 N 344.397 -0.483516 -1.5 0
M  V30 3643 C 345.327 0.293829 -2.31644 0
M  V30 3644 C 346.308 0.978864 -1.39112 0
M  V30 3645 O 347.493 0.973644 -1.68029 0
M  V30 3646 C 344.623 1.36897 -3.19181 0
M  V30 3647 C 343.577 0.804833 -4.20365 0
M  V30 3648 C 342.903 1.9792 -4.96721 0
M  V30 3649 C 344.203 -0.192313 -5.21946 0
M  V30 3650 H 345.897 -0.387616 -2.9688 0
M  V30 3651 H 343.443 -0.187856 -1.42769 0
M  V30 3652 H 345.396 1.92037 -3.751 0
M  V30 3653 H 344.12 2.07936 -2.51853 0
M  V30 3654 H 342.779 0.275319 -3.65565 0
M  V30 3655 H 342.427 2.67686 -4.25856 0
M  V30 3656 H 342.127 1.60789 -5.65173 0
M  V30 3657 H 343.651 2.53526 -5.55479 0
M  V30 3658 H 345.065 0.270333 -5.72662 0
M  V30 3659 H 343.462 -0.478543 -5.98189 0
M  V30 3660 H 344.532 -1.11409 -4.71928 0
M  V30 3661 N 345.875 1.56104 -0.216619 0
M  V30 3662 C 346.838 2.18819 0.681962 0
M  V30 3663 C 347.838 1.14866 1.12528 0
M  V30 3664 O 349.028 1.40128 1.03488 0
M  V30 3665 C 346.16 2.80756 1.93362 0
M  V30 3666 H 347.353 2.99595 0.135254 0
M  V30 3667 H 344.906 1.56265 0.0330003 0
M  V30 3668 H 345.641 2.03837 2.52232 0
M  V30 3669 H 345.426 3.56876 1.62426 0
M  V30 3670 H 346.916 3.28844 2.57393 0
M  V30 3671 N 347.353 -0.0568162 1.57498 0
M  V30 3672 C 348.769 -0.411933 1.54192 0
M  V30 3673 C 348.969 -1.78287 0.938942 0
M  V30 3674 O 348.025 -2.46483 0.547919 0
M  V30 3675 C 349.338 -0.339244 2.9878 0
M  V30 3676 C 350.886 -0.418348 3.10192 0
M  V30 3677 C 351.361 -0.375407 4.56459 0
M  V30 3678 N 352.852 -0.435038 4.61153 0
M  V30 3679 C 353.587 -0.424265 5.71828 0
M  V30 3680 N 353.083 -0.367418 6.91825 0
M  V30 3681 N 354.876 -0.471938 5.60115 0
M  V30 3682 H 347.027 0.840684 1.95055 0
M  V30 3683 H 349.29 0.316987 0.893433 0
M  V30 3684 H 348.996 0.601742 3.46514 0
M  V30 3685 H 348.87 -1.14371 3.59443 0
M  V30 3686 H 351.257 -1.34976 2.62422 0
M  V30 3687 H 351.338 0.414962 2.52412 0
M  V30 3688 H 350.982 0.552219 5.04889 0
M  V30 3689 H 350.912 -1.22645 5.12119 0
M  V30 3690 H 353.403 -0.482612 3.74806 0
M  V30 3691 H 353.716 -0.363535 7.71944 0
M  V30 3692 H 352.061 -0.333879 6.94198 0
M  V30 3693 H 355.252 -0.514145 4.65268 0
M  V30 3694 H 355.425 -0.460073 6.46365 0
M  V30 3695 N 348.832 -1.54138 -0.328536 0
M  V30 3696 C 350.248 -1.44736 -0.672574 0
M  V30 3697 C 350.448 -0.616217 -1.91846 0
M  V30 3698 O 349.504 -0.113067 -2.52247 0
M  V30 3699 C 350.817 -2.884 -0.851217 0
M  V30 3700 C 352.365 -2.98271 -0.948877 0
M  V30 3701 C 352.84 -4.43074 -1.15973 0
M  V30 3702 N 354.331 -4.46665 -1.22658 0
M  V30 3703 C 355.066 -5.55857 -1.40751 0
M  V30 3704 N 354.562 -6.75026 -1.5592 0
M  V30 3705 N 356.355 -5.43495 -1.4342 0
M  V30 3706 H 348.506 -2.06661 0.490421 0
M  V30 3707 H 350.769 -0.934812 0.157579 0
M  V30 3708 H 350.475 -3.51699 -0.00704236 0
M  V30 3709 H 350.349 -3.34225 -1.74853 0
M  V30 3710 H 352.736 -2.35102 -1.78356 0
M  V30 3711 H 352.817 -2.55785 -0.0281435 0
M  V30 3712 H 352.461 -5.06827 -0.329915 0
M  V30 3713 H 352.391 -4.83165 -2.09426 0
M  V30 3714 H 354.882 -3.60797 -1.124 0
M  V30 3715 H 355.195 -7.54004 -1.69404 0
M  V30 3716 H 353.54 -6.77944 -1.53027 0
M  V30 3717 H 356.731 -4.49349 -1.31162 0
M  V30 3718 H 356.904 -6.28649 -1.57178 0
M  V30 3719 N 350.31 0.590341 -1.46126 0
M  V30 3720 C 351.559 1.34499 -1.50309 0
M  V30 3721 C 351.872 1.94977 -0.156021 0
M  V30 3722 O 353.078 2.71395 -0.0756037 0
M  V30 3723 C 351.534 2.43723 -2.64815 0
M  V30 3724 C 351.142 1.89582 -4.0591 0
M  V30 3725 C 352.886 3.20579 -2.78262 0
M  V30 3726 C 350.793 2.9639 -5.11769 0
M  V30 3727 H 349.723 0.505593 -0.559368 0
M  V30 3728 H 352.374 0.630848 -1.72315 0
M  V30 3729 H 350.756 3.17902 -2.36124 0
M  V30 3730 H 351.93 1.21997 -4.44357 0
M  V30 3731 H 350.245 1.25418 -3.97063 0
M  V30 3732 H 352.842 4.00276 -3.54519 0
M  V30 3733 H 353.185 3.72684 -1.85505 0
M  V30 3734 H 353.718 2.53505 -3.06562 0
M  V30 3735 H 350.457 2.49181 -6.06291 0
M  V30 3736 H 349.977 3.62487 -4.77873 0
M  V30 3737 H 351.656 3.60474 -5.37278 0
M  V30 3738 N 351.788 1.33704 0.83433 0
M  V30 3739 C 353.204 1.13137 1.12571 0
M  V30 3740 C 353.404 -0.0747261 2.01361 0
M  V30 3741 O 352.46 -0.753647 2.4099 0
M  V30 3742 C 353.773 2.42105 1.78342 0
M  V30 3743 C 355.321 2.48054 1.90888 0
M  V30 3744 C 355.796 3.76995 2.60075 0
M  V30 3745 N 357.287 3.78092 2.67584 0
M  V30 3746 C 358.022 4.74574 3.21818 0
M  V30 3747 N 357.518 5.81434 3.76705 0
M  V30 3748 N 359.311 4.62044 3.20112 0
M  V30 3749 H 351.462 2.11 0.243489 0
M  V30 3750 H 353.725 0.932532 0.17055 0
M  V30 3751 H 353.431 3.30391 1.20561 0
M  V30 3752 H 353.305 2.54594 2.7832 0
M  V30 3753 H 355.692 1.60215 2.47821 0
M  V30 3754 H 355.773 2.39502 0.898459 0
M  V30 3755 H 355.417 4.65219 2.03799 0
M  V30 3756 H 355.347 3.82825 3.61597 0
M  V30 3757 H 357.838 3.00865 2.28667 0
M  V30 3758 H 358.151 6.51084 4.16305 0
M  V30 3759 H 356.496 5.85163 3.7498 0
M  V30 3760 H 359.687 3.77716 2.76493 0
M  V30 3761 H 359.86 5.37406 3.62076 0
M  V30 3762 N 353.266 -1.05314 1.17247 0
M  V30 3763 C 354.494 -1.81971 0.984593 0
M  V30 3764 C 354.909 -1.82929 -0.467166 0
M  V30 3765 O 354.266 -1.25564 -1.32438 0
M  V30 3766 C 354.317 -3.28143 1.51672 0
M  V30 3767 O 354.038 -3.27347 2.91163 0
M  V30 3768 C 355.539 -4.21493 1.37326 0
M  V30 3769 H 352.759 -0.573455 0.348411 0
M  V30 3770 H 355.303 -1.32808 1.55506 0
M  V30 3771 H 353.458 -3.74582 0.988302 0
M  V30 3772 H 353.872 -4.18824 3.15732 0
M  V30 3773 H 355.346 -5.22043 1.79375 0
M  V30 3774 H 355.823 -4.38031 0.320169 0
M  V30 3775 H 356.429 -3.80909 1.89178 0
M  V30 3776 N 354.744 -0.972509 -1.24016 0
M  V30 3777 C 356.155 -0.67517 -1.74064 0
M  V30 3778 C 356.506 0.808939 -1.78747 0
M  V30 3779 O 355.631 1.63286 -1.42009 0
M  V30 3780 C 356.226 -1.21889 -3.16115 0
M  V30 3781 C 354.785 -0.971358 -3.6365 0
M  V30 3782 C 353.932 -1.35134 -2.42145 0
M  V30 3783 H 356.883 -1.14727 -1.09651 0
M  V30 3784 H 356.904 -0.587489 -3.75937 0
M  V30 3785 H 356.416 -2.29906 -3.12674 0
M  V30 3786 H 354.517 0.0930686 -3.72484 0
M  V30 3787 H 354.63 -1.62039 -4.50866 0
M  V30 3788 H 352.994 -0.769751 -2.4279 0
M  V30 3789 H 353.777 -2.4411 -2.41381 0
M  V30 3790 N 356.222 1.38976 -0.743202 0
M  V30 3791 C 357.152 2.33171 -0.123873 0
M  V30 3792 C 358.133 1.54336 0.71516 0
M  V30 3793 O 359.318 1.82696 0.658467 0
M  V30 3794 C 356.448 3.38474 0.777978 0
M  V30 3795 C 355.402 4.27979 0.0424758 0
M  V30 3796 C 354.728 5.2405 1.06189 0
M  V30 3797 C 356.028 5.10155 -1.1198 0
M  V30 3798 H 357.722 2.85213 -0.910709 0
M  V30 3799 H 355.268 1.37133 -0.439388 0
M  V30 3800 H 357.221 4.03328 1.22084 0
M  V30 3801 H 355.945 2.84891 1.59702 0
M  V30 3802 H 354.604 3.64616 -0.380853 0
M  V30 3803 H 354.252 4.66758 1.87472 0
M  V30 3804 H 353.952 5.84785 0.574485 0
M  V30 3805 H 355.476 5.9178 1.50428 0
M  V30 3806 H 356.89 5.68307 -0.75499 0
M  V30 3807 H 355.287 5.80073 -1.53738 0
M  V30 3808 H 356.357 4.44504 -1.93764 0
M  V30 3809 N 357.7 0.491464 1.49741 0
M  V30 3810 C 358.94 -0.0549118 2.04326 0
M  V30 3811 C 359.304 -1.35148 1.36378 0
M  V30 3812 O 360.505 -1.9815 1.81631 0
M  V30 3813 C 358.776 -0.213841 3.5676 0
M  V30 3814 S 360.335 -0.715839 4.32922 0
M  V30 3815 H 357.153 -0.00630513 0.710972 0
M  V30 3816 H 359.755 0.663257 1.83905 0
M  V30 3817 H 358.459 0.73527 4.0376 0
M  V30 3818 H 357.99 -0.957529 3.81569 0
M  V30 3819 H 360.005 -1.9864 4.54705 0
M  V30 3820 N 359.178 -1.55987 0.224894 0
M  V30 3821 C 360.108 -2.23426 -0.678457 0
M  V30 3822 C 361.089 -1.20709 -1.19847 0
M  V30 3823 O 362.274 -1.49304 -1.24186 0
M  V30 3824 C 359.404 -2.91676 -1.88527 0
M  V30 3825 C 358.358 -4.00893 -1.49896 0
M  V30 3826 C 357.684 -4.56455 -2.78483 0
M  V30 3827 C 358.984 -5.17769 -0.686461 0
M  V30 3828 H 360.678 -2.99175 -0.116173 0
M  V30 3829 H 358.224 -1.43897 -0.054436 0
M  V30 3830 H 360.177 -3.37547 -2.5227 0
M  V30 3831 H 358.901 -2.1338 -2.47258 0
M  V30 3832 H 357.56 -3.55758 -0.884985 0
M  V30 3833 H 357.208 -3.74886 -3.35365 0
M  V30 3834 H 356.908 -5.30169 -2.53368 0
M  V30 3835 H 358.432 -5.05047 -3.43162 0
M  V30 3836 H 359.846 -5.60001 -1.22767 0
M  V30 3837 H 358.243 -5.97735 -0.532259 0
M  V30 3838 H 359.313 -4.83932 0.306196 0
M  V30 3839 N 360.656 0.0484629 -1.57525 0
M  V30 3840 C 361.933 0.777447 -1.79486 0
M  V30 3841 C 362.313 1.94597 -0.818251 0
M  V30 3842 O 361.661 2.28047 0.143767 0
M  V30 3843 C 361.871 1.22864 -3.26658 0
M  V30 3844 C 363.219 1.65251 -3.91123 0
M  V30 3845 O 364.243 1.32372 -3.3069 0
M  V30 3846 O 363.102 2.26207 -4.97486 0
M  V30 3847 H 360.196 0.374357 -0.737419 0
M  V30 3848 H 362.742 0.0267359 -1.69679 0
M  V30 3849 H 361.514 0.393589 -3.89316 0
M  V30 3850 H 361.137 2.03996 -3.41279 0
M  V30 3851 N 362.134 1.5431 0.320358 0
M  V30 3852 C 363.044 1.86946 1.41734 0
M  V30 3853 C 364.06 0.761689 1.56443 0
M  V30 3854 O 365.236 1.05629 1.71477 0
M  V30 3855 C 362.301 2.09293 2.76401 0
M  V30 3856 C 361.362 3.33082 2.70841 0
M  V30 3857 C 360.595 3.54353 3.99086 0
M  V30 3858 O 360.818 2.79002 4.97508 0
M  V30 3859 O 359.752 4.47838 4.0215 0
M  V30 3860 H 363.578 2.80232 1.17062 0
M  V30 3861 H 361.163 1.40255 0.514673 0
M  V30 3862 H 363.045 2.25303 3.56113 0
M  V30 3863 H 361.72 1.19194 3.00956 0
M  V30 3864 H 360.627 3.22454 1.89668 0
M  V30 3865 H 361.96 4.23249 2.5124 0
M  V30 3866 N 363.613 -0.582584 1.46437 0
M  V30 3867 C 364.838 -1.37168 1.55563 0
M  V30 3868 C 365.263 -1.87061 0.19743 0
M  V30 3869 O 364.621 -1.61572 -0.822451 0
M  V30 3870 C 364.669 -2.53511 2.56446 0
M  V30 3871 O 363.773 -3.54953 2.09958 0
M  V30 3872 H 363.114 -0.408494 0.523477 0
M  V30 3873 H 365.644 -0.706646 1.9201 0
M  V30 3874 H 365.654 -3.00426 2.76058 0
M  V30 3875 H 364.329 -2.16549 3.55076 0
M  V30 3876 H 362.906 -3.14516 2.00334 0
M  V30 3877 N 365.091 -1.34144 -0.827227 0
M  V30 3878 C 366.337 -1.26446 -1.58554 0
M  V30 3879 C 366.67 0.1664 -1.93486 0
M  V30 3880 O 365.945 1.1107 -1.59667 0
M  V30 3881 C 366.228 -2.15111 -2.8879 0
M  V30 3882 C 366.081 -3.66712 -2.60465 0
M  V30 3883 C 367.4 -2.03311 -3.90324 0
M  V30 3884 H 364.519 -0.46067 -0.575284 0
M  V30 3885 H 367.161 -1.64356 -0.953269 0
M  V30 3886 H 365.311 -1.8291 -3.42748 0
M  V30 3887 H 366.983 -4.09259 -2.1285 0
M  V30 3888 H 365.226 -3.88014 -1.93978 0
M  V30 3889 H 365.897 -4.24112 -3.53317 0
M  V30 3890 H 368.373 -2.31574 -3.45706 0
M  V30 3891 H 367.249 -2.67582 -4.79261 0
M  V30 3892 H 367.51 -1.00879 -4.30437 0
M  V30 3893 N 366.569 1.04691 -1.17803 0
M  V30 3894 C 367.532 2.10724 -0.901545 0
M  V30 3895 C 368.532 1.6042 0.110437 0
M  V30 3896 O 369.722 1.7377 -0.122303 0
M  V30 3897 C 366.854 3.39084 -0.351409 0
M  V30 3898 H 368.047 2.36686 -1.84174 0
M  V30 3899 H 365.6 1.21015 -0.98919 0
M  V30 3900 H 366.335 3.18782 0.59569 0
M  V30 3901 H 366.12 3.76909 -1.08083 0
M  V30 3902 H 367.61 4.17227 -0.176451 0
M  V30 3903 N 368.047 0.979072 1.23499 0
M  V30 3904 C 369.272 0.664845 1.96455 0
M  V30 3905 C 369.697 -0.761287 1.72006 0
M  V30 3906 O 369.055 -1.51837 0.990713 0
M  V30 3907 C 369.103 0.959479 3.47601 0
M  V30 3908 O 368.207 0.0508168 4.12369 0
M  V30 3909 H 367.548 0.250185 0.615064 0
M  V30 3910 H 370.078 1.31231 1.5697 0
M  V30 3911 H 370.088 0.895642 3.98048 0
M  V30 3912 H 368.763 1.99876 3.64723 0
M  V30 3913 H 367.34 0.16895 3.72517 0
M  V30 3914 N 369.525 -1.3858 0.750561 0
M  V30 3915 C 370.488 -2.28836 0.129152 0
M  V30 3916 C 371.488 -1.47045 -0.650714 0
M  V30 3917 O 372.678 -1.6753 -0.477428 0
M  V30 3918 C 369.81 -3.30751 -0.825622 0
M  V30 3919 H 371.003 -2.85294 0.924516 0
M  V30 3920 H 368.556 -1.47489 0.517376 0
M  V30 3921 H 369.291 -2.79378 -1.64677 0
M  V30 3922 H 369.076 -3.91177 -0.268852 0
M  V30 3923 H 370.566 -3.98249 -1.2565 0
M  V30 3924 N 371.003 -0.499398 -1.49478 0
M  V30 3925 C 371.966 0.268838 -2.27618 0
M  V30 3926 C 372.966 0.895383 -1.33565 0
M  V30 3927 O 374.156 0.760164 -1.56739 0
M  V30 3928 C 371.288 1.38559 -3.11471 0
M  V30 3929 H 372.481 -0.416812 -2.96989 0
M  V30 3930 H 370.034 -0.254313 -1.54217 0
M  V30 3931 H 370.769 2.10544 -2.46661 0
M  V30 3932 H 370.554 0.941797 -3.80621 0
M  V30 3933 H 372.044 1.92678 -3.70493 0
M  V30 3934 N 372.481 1.55866 -0.233164 0
M  V30 3935 C 373.758 1.90471 0.444988 0
M  V30 3936 C 374.138 1.15209 1.7689 0
M  V30 3937 O 373.486 0.265119 2.26957 0
M  V30 3938 C 373.696 3.4333 0.626559 0
M  V30 3939 C 375.044 4.14319 0.92871 0
M  V30 3940 O 376.068 3.48993 0.712926 0
M  V30 3941 O 374.927 5.29846 1.33887 0
M  V30 3942 H 372.021 0.792347 0.236885 0
M  V30 3943 H 374.567 1.67437 -0.276211 0
M  V30 3944 H 373.339 3.90095 -0.306822 0
M  V30 3945 H 372.962 3.72181 1.39881 0
M  V30 3946 N 373.959 -0.0401083 1.57549 0
M  V30 3947 C 374.922 -1.02871 2.04817 0
M  V30 3948 C 375.922 -1.29708 0.950388 0
M  V30 3949 O 377.112 -1.24897 1.21435 0
M  V30 3950 C 374.244 -2.36443 2.45576 0
M  V30 3951 H 375.437 -0.620631 2.93408 0
M  V30 3952 H 372.99 -0.286667 1.53649 0
M  V30 3953 H 373.725 -2.82021 1.60108 0
M  V30 3954 H 373.51 -2.18296 3.25713 0
M  V30 3955 H 375 -3.07441 2.82612 0
M  V30 3956 N 375.437 -1.54477 -0.31217 0
M  V30 3957 C 376.853 -1.45442 -0.657185 0
M  V30 3958 C 377.053 -0.63653 -1.91182 0
M  V30 3959 O 376.109 -0.139815 -2.52113 0
M  V30 3960 C 377.422 -2.89287 -0.82058 0
M  V30 3961 C 378.97 -2.9926 -0.917188 0
M  V30 3962 C 379.445 -4.44279 -1.11267 0
M  V30 3963 N 380.936 -4.4794 -1.17914 0
M  V30 3964 C 381.671 -5.57318 -1.34848 0
M  V30 3965 N 381.167 -6.76642 -1.48752 0
M  V30 3966 N 382.96 -5.44986 -1.37647 0
M  V30 3967 H 375.111 -2.06129 0.512313 0
M  V30 3968 H 377.374 -0.933088 0.167485 0
M  V30 3969 H 377.08 -3.51687 0.0302604 0
M  V30 3970 H 376.954 -3.36061 -1.71298 0
M  V30 3971 H 379.341 -2.36981 -1.75852 0
M  V30 3972 H 379.422 -2.558 -0.00101257 0
M  V30 3973 H 379.066 -5.07149 -0.27614 0
M  V30 3974 H 378.996 -4.85359 -2.04289 0
M  V30 3975 H 381.487 -3.61969 -1.08567 0
M  V30 3976 H 381.8 -7.55758 -1.61397 0
M  V30 3977 H 380.145 -6.79529 -1.45828 0
M  V30 3978 H 383.336 -4.50715 -1.26388 0
M  V30 3979 H 383.509 -6.3028 -1.50501 0
M  V30 3980 N 376.915 0.57481 -1.46744 0
M  V30 3981 C 377.862 1.68329 -1.57905 0
M  V30 3982 C 378.832 1.60625 -0.422927 0
M  V30 3983 O 380.017 1.79721 -0.640711 0
M  V30 3984 C 377.157 3.06665 -1.58274 0
M  V30 3985 C 376.27 3.24935 -2.84678 0
M  V30 3986 C 375.405 4.53566 -2.76499 0
M  V30 3987 C 374.444 4.65207 -3.97806 0
M  V30 3988 N 373.581 5.85172 -3.87967 0
M  V30 3989 H 378.421 1.58127 -2.52587 0
M  V30 3990 H 375.958 0.770552 -1.25303 0
M  V30 3991 H 377.916 3.86745 -1.56473 0
M  V30 3992 H 376.546 3.15745 -0.671194 0
M  V30 3993 H 375.598 2.38405 -2.96424 0
M  V30 3994 H 376.91 3.29403 -3.7456 0
M  V30 3995 H 376.064 5.41885 -2.72848 0
M  V30 3996 H 374.803 4.51548 -1.8427 0
M  V30 3997 H 373.808 3.75304 -4.0178 0
M  V30 3998 H 375.033 4.68997 -4.9114 0
M  V30 3999 H 372.979 5.84137 -2.98529 0
M  V30 4000 H 372.896 5.90943 -4.71511 0
M  V30 4001 H 374.164 6.759 -3.88303 0
M  V30 4002 N 378.394 1.34581 0.820102 0
M  V30 4003 C 379.357 1.2628 1.91275 0
M  V30 4004 C 380.357 0.177344 1.59819 0
M  V30 4005 O 381.547 0.430156 1.68806 0
M  V30 4006 C 378.679 0.950327 3.27386 0
M  V30 4007 H 379.872 2.23421 2.00057 0
M  V30 4008 H 377.425 1.1891 1.0144 0
M  V30 4009 H 378.16 -0.0177938 3.24295 0
M  V30 4010 H 377.945 1.73549 3.51601 0
M  V30 4011 H 379.435 0.917492 4.07396 0
M  V30 4012 N 379.872 -1.04064 1.18357 0
M  V30 4013 C 380.802 -2.14001 0.934113 0
M  V30 4014 C 381.783 -1.69616 -0.128186 0
M  V30 4015 O 382.968 -1.94185 0.0244093 0
M  V30 4016 C 380.098 -3.44253 0.459066 0
M  V30 4017 C 379.052 -4.02261 1.46185 0
M  V30 4018 C 378.378 -5.27992 0.844322 0
M  V30 4019 C 379.678 -4.38432 2.83856 0
M  V30 4020 H 381.372 -2.35127 1.85352 0
M  V30 4021 H 378.918 -1.12998 0.892604 0
M  V30 4022 H 380.871 -4.20522 0.271907 0
M  V30 4023 H 379.595 -3.22813 -0.495912 0
M  V30 4024 H 378.254 -3.28074 1.63595 0
M  V30 4025 H 377.902 -5.02862 -0.117845 0
M  V30 4026 H 377.602 -5.67765 1.51384 0
M  V30 4027 H 379.126 -6.06938 0.667693 0
M  V30 4028 H 380.54 -5.05688 2.70098 0
M  V30 4029 H 378.937 -4.89254 3.47491 0
M  V30 4030 H 380.007 -3.4826 3.37406 0
M  V30 4031 N 381.35 -0.985608 -1.22978 0
M  V30 4032 C 382.313 -0.535071 -2.22867 0
M  V30 4033 C 383.313 0.378123 -1.56291 0
M  V30 4034 O 384.503 0.171092 -1.73358 0
M  V30 4035 C 381.635 0.222702 -3.40172 0
M  V30 4036 H 382.828 -1.41835 -2.6424 0
M  V30 4037 H 380.381 -0.772042 -1.35901 0
M  V30 4038 H 381.116 1.12229 -3.04262 0
M  V30 4039 H 380.901 -0.43288 -3.89703 0
M  V30 4040 H 382.391 0.526335 -4.1427 0
M  V30 4041 N 382.828 1.3818 -0.7579 0
M  V30 4042 C 383.758 2.33027 -0.148597 0
M  V30 4043 C 384.739 1.55085 0.69875 0
M  V30 4044 O 385.924 1.83384 0.639053 0
M  V30 4045 C 383.054 3.3928 0.742034 0
M  V30 4046 C 382.008 4.28 -0.00291946 0
M  V30 4047 C 381.334 5.25146 1.00625 0
M  V30 4048 C 382.634 5.08938 -1.17385 0
M  V30 4049 H 384.328 2.84231 -0.940909 0
M  V30 4050 H 381.874 1.36659 -0.453908 0
M  V30 4051 H 383.827 4.046 1.17799 0
M  V30 4052 H 382.551 2.86569 1.56671 0
M  V30 4053 H 381.21 3.64192 -0.419504 0
M  V30 4054 H 380.858 4.68721 1.8251 0
M  V30 4055 H 380.558 5.85361 0.512428 0
M  V30 4056 H 382.082 5.93342 1.44143 0
M  V30 4057 H 383.496 5.67474 -0.815224 0
M  V30 4058 H 381.893 5.7841 -1.59882 0
M  V30 4059 H 382.963 4.42424 -1.98468 0
M  V30 4060 N 384.306 0.507319 1.49211 0
M  V30 4061 C 385.554 -0.0348839 2.0207 0
M  V30 4062 C 385.875 -1.36898 1.38866 0
M  V30 4063 O 385.145 -1.88133 0.546151 0
M  V30 4064 H 383.725 -0.0158812 0.746831 0
M  V30 4065 H 386.387 0.665998 1.83168 0
M  V30 4066 H 385.483 -0.159917 3.1169 0
M  V30 4067 N 385.784 -1.5574 0.241426 0
M  V30 4068 C 386.747 -2.19877 -0.647063 0
M  V30 4069 C 387.747 -1.16642 -1.10686 0
M  V30 4070 O 388.937 -1.41757 -1.01245 0
M  V30 4071 C 386.069 -2.83797 -1.88871 0
M  V30 4072 H 387.262 -2.99772 -0.087574 0
M  V30 4073 H 384.815 -1.56298 -0.00813574 0
M  V30 4074 H 385.55 -2.07824 -2.48957 0
M  V30 4075 H 385.335 -3.59414 -1.56728 0
M  V30 4076 H 386.825 -3.32898 -2.52129 0
M  V30 4077 N 387.262 0.0317525 -1.57568 0
M  V30 4078 C 388.51 0.721676 -1.88776 0
M  V30 4079 C 388.831 1.76039 -0.838772 0
M  V30 4080 O 388.101 1.95482 0.127935 0
M  V30 4081 H 386.681 0.269534 -0.696678 0
M  V30 4082 H 389.343 -0.00165879 -1.949 0
M  V30 4083 H 388.439 1.21293 -2.87566 0
M  V30 4084 N 388.74 1.54641 0.303973 0
M  V30 4085 C 389.988 1.73437 1.0375 0
M  V30 4086 C 390.309 0.521449 1.87899 0
M  V30 4087 O 389.579 -0.46432 1.90318 0
M  V30 4088 H 388.159 0.639518 0.386039 0
M  V30 4089 H 390.821 1.91988 0.335675 0
M  V30 4090 H 389.917 2.62235 1.69231 0
M  V30 4091 N 390.218 -0.567019 1.47046 0
M  V30 4092 C 391.464 -1.32658 1.53394 0
M  V30 4093 C 391.797 -1.93254 0.19148 0
M  V30 4094 O 391.072 -1.77338 -0.798844 0
M  V30 4095 C 391.355 -2.44412 2.64452 0
M  V30 4096 C 391.208 -1.88749 4.08282 0
M  V30 4097 C 392.527 -3.46387 2.71485 0
M  V30 4098 H 389.646 -0.48098 0.558415 0
M  V30 4099 H 392.288 -0.635481 1.79058 0
M  V30 4100 H 390.438 -3.03363 2.427 0
M  V30 4101 H 392.11 -1.34134 4.41368 0
M  V30 4102 H 390.353 -1.19481 4.17021 0
M  V30 4103 H 391.024 -2.69491 4.81745 0
M  V30 4104 H 393.5 -2.9734 2.91081 0
M  V30 4105 H 392.376 -4.2202 3.50985 0
M  V30 4106 H 392.637 -4.04616 1.78153 0
M  V30 4107 N 391.696 -1.35014 -0.812953 0
M  V30 4108 C 392.945 -1.27269 -1.56479 0
M  V30 4109 C 393.258 0.152771 -1.95002 0
M  V30 4110 O 394.464 0.352451 -2.69203 0
M  V30 4111 C 392.92 -2.23159 -2.82362 0
M  V30 4112 C 392.528 -3.71016 -2.511 0
M  V30 4113 C 394.272 -2.24342 -3.60376 0
M  V30 4114 C 392.179 -4.58746 -3.73237 0
M  V30 4115 H 391.109 -0.472829 -0.587324 0
M  V30 4116 H 393.76 -1.6024 -0.894171 0
M  V30 4117 H 392.142 -1.83151 -3.51101 0
M  V30 4118 H 393.316 -4.1962 -1.90409 0
M  V30 4119 H 391.631 -3.72378 -1.86343 0
M  V30 4120 H 394.228 -2.87107 -4.51081 0
M  V30 4121 H 394.571 -1.24542 -3.97234 0
M  V30 4122 H 395.104 -2.62846 -2.98591 0
M  V30 4123 H 391.843 -5.59521 -3.41492 0
M  V30 4124 H 391.363 -4.14871 -4.33176 0
M  V30 4125 H 393.042 -4.73852 -4.40537 0
M  V30 4126 N 393.175 1.03435 -1.18907 0
M  V30 4127 C 394.123 2.13703 -0.918353 0
M  V30 4128 C 395.117 1.68947 0.123767 0
M  V30 4129 O 396.323 1.79983 -0.0249701 0
M  V30 4130 H 392.698 0.698112 -0.279542 0
M  V30 4131 H 394.669 2.33731 -1.85506 0
M  V30 4132 C 393.418 3.44542 -0.467532 0
M  V30 4133 H 392.741 3.79394 -1.26095 0
M  V30 4134 H 394.181 4.22812 -0.317164 0
M  V30 4135 C 392.64 3.26829 0.817588 0
M  V30 4136 O 393.17 3.54975 1.88031 0
M  V30 4137 N 391.376 2.80139 0.772677 0
M  V30 4138 H 390.923 2.57434 -0.0923883 0
M  V30 4139 H 390.881 2.68668 1.63294 0
M  V30 4140 N 394.653 0.992116 1.22453 0
M  V30 4141 C 395.583 0.561677 2.26644 0
M  V30 4142 C 396.564 -0.411055 1.65059 0
M  V30 4143 O 397.749 -0.301861 1.9184 0
M  V30 4144 C 394.879 -0.125247 3.47074 0
M  V30 4145 C 393.833 0.765948 4.21091 0
M  V30 4146 C 393.159 -0.0538484 5.34673 0
M  V30 4147 C 394.459 2.06242 4.79856 0
M  V30 4148 H 396.153 1.43259 2.62902 0
M  V30 4149 H 393.699 0.690283 1.26377 0
M  V30 4150 H 395.652 -0.437764 4.1912 0
M  V30 4151 H 394.376 -1.03069 3.0991 0
M  V30 4152 H 393.035 1.0621 3.50878 0
M  V30 4153 H 392.683 -0.960188 4.9375 0
M  V30 4154 H 392.383 0.539415 5.85119 0
M  V30 4155 H 393.907 -0.360477 6.09535 0
M  V30 4156 H 395.321 1.8139 5.43848 0
M  V30 4157 H 393.718 2.60444 5.40638 0
M  V30 4158 H 394.788 2.74167 3.99951 0
M  V30 4159 N 396.131 -1.37776 0.765217 0
M  V30 4160 C 397.078 -2.30342 0.145274 0
M  V30 4161 C 398.048 -1.5077 -0.696971 0
M  V30 4162 O 399.233 -1.79362 -0.650689 0
M  V30 4163 C 396.373 -3.37227 -0.732939 0
M  V30 4164 C 395.486 -4.31819 0.125199 0
M  V30 4165 C 394.621 -5.25777 -0.757107 0
M  V30 4166 C 393.66 -6.12012 0.103963 0
M  V30 4167 N 392.797 -6.98232 -0.735953 0
M  V30 4168 H 397.637 -2.8278 0.940195 0
M  V30 4169 H 395.174 -1.39211 0.475255 0
M  V30 4170 H 397.132 -3.97818 -1.25686 0
M  V30 4171 H 395.762 -2.86171 -1.49353 0
M  V30 4172 H 394.814 -3.7259 0.766865 0
M  V30 4173 H 396.126 -4.92509 0.789683 0
M  V30 4174 H 395.28 -5.91541 -1.34776 0
M  V30 4175 H 394.019 -4.65481 -1.45529 0
M  V30 4176 H 393.024 -5.45233 0.707197 0
M  V30 4177 H 394.249 -6.74379 0.799381 0
M  V30 4178 H 392.195 -6.40472 -1.41887 0
M  V30 4179 H 392.112 -7.55891 -0.128624 0
M  V30 4180 H 393.38 -7.68393 -1.31121 0
M  V30 4181 N 397.609 -0.515225 -1.4894 0
M  V30 4182 C 398.855 0.0242508 -2.02785 0
M  V30 4183 C 399.188 1.35323 -1.39289 0
M  V30 4184 O 398.463 1.87041 -0.533469 0
M  V30 4185 C 398.746 0.16184 -3.59736 0
M  V30 4186 C 398.599 -1.19127 -4.33738 0
M  V30 4187 C 399.918 0.895719 -4.30888 0
M  V30 4188 H 397.037 0.00733914 -0.736963 0
M  V30 4189 H 399.679 -0.669395 -1.77818 0
M  V30 4190 H 397.829 0.752624 -3.8114 0
M  V30 4191 H 399.501 -1.82202 -4.23792 0
M  V30 4192 H 397.744 -1.77695 -3.95736 0
M  V30 4193 H 398.415 -1.04815 -5.41957 0
M  V30 4194 H 400.891 0.394528 -4.14225 0
M  V30 4195 H 399.767 0.960859 -5.40425 0
M  V30 4196 H 400.028 1.9427 -3.97129 0
M  V30 4197 N 399.087 1.5561 -0.249682 0
M  V30 4198 C 400.05 2.20217 0.635394 0
M  V30 4199 C 401.05 1.17227 1.10066 0
M  V30 4200 O 402.24 1.42292 1.00492 0
M  V30 4201 C 399.372 2.84794 1.87363 0
M  V30 4202 H 400.565 2.99814 0.0716752 0
M  V30 4203 H 398.118 1.563 -0.000153234 0
M  V30 4204 H 398.853 2.09142 2.47851 0
M  V30 4205 H 398.638 3.60241 1.5482 0
M  V30 4206 H 400.128 3.3423 2.5036 0
M  V30 4207 N 400.565 -0.0233959 1.57583 0
M  V30 4208 C 401.981 -0.379134 1.55031 0
M  V30 4209 C 402.181 -1.76255 0.976548 0
M  V30 4210 O 401.237 -2.45266 0.600078 0
M  V30 4211 C 402.55 -0.275792 2.99433 0
M  V30 4212 C 404.098 -0.352458 3.11009 0
M  V30 4213 C 404.573 -0.278501 4.57152 0
M  V30 4214 N 406.064 -0.337123 4.61972 0
M  V30 4215 C 406.799 -0.302876 5.726 0
M  V30 4216 N 406.295 -0.220589 6.92449 0
M  V30 4217 N 408.088 -0.353023 5.6099 0
M  V30 4218 H 400.239 0.881869 1.93227 0
M  V30 4219 H 402.502 0.335867 0.886509 0
M  V30 4220 H 402.208 0.675108 3.4516 0
M  V30 4221 H 402.082 -1.06721 3.61788 0
M  V30 4222 H 404.469 -1.29379 2.65226 0
M  V30 4223 H 404.55 0.468409 2.51475 0
M  V30 4224 H 404.194 0.659189 5.03604 0
M  V30 4225 H 404.124 -1.11755 5.14605 0
M  V30 4226 H 406.615 -0.403002 3.75745 0
M  V30 4227 H 406.928 -0.199713 7.72542 0
M  V30 4228 H 405.273 -0.186555 6.9475 0
M  V30 4229 H 408.464 -0.415339 4.66254 0
M  V30 4230 H 408.637 -0.322866 6.47195 0
M  V30 4231 N 402.043 -1.548 -0.295768 0
M  V30 4232 C 403.289 -1.74588 -1.03184 0
M  V30 4233 C 403.622 -0.532962 -1.86744 0
M  V30 4234 O 402.897 0.469872 -1.88739 0
M  V30 4235 C 403.18 -3.03791 -1.93347 0
M  V30 4236 C 403.033 -4.35392 -1.12933 0
M  V30 4237 C 404.352 -3.28892 -2.92435 0
M  V30 4238 H 401.471 -0.635221 -0.373715 0
M  V30 4239 H 404.113 -1.87519 -0.30606 0
M  V30 4240 H 402.263 -2.92898 -2.55232 0
M  V30 4241 H 403.935 -4.58211 -0.532943 0
M  V30 4242 H 402.178 -4.31642 -0.432168 0
M  V30 4243 H 402.849 -5.22074 -1.79284 0
M  V30 4244 H 405.325 -3.39429 -2.4068 0
M  V30 4245 H 404.201 -4.20603 -3.52682 0
M  V30 4246 H 404.462 -2.47437 -3.6637 0
M  V30 4247 N 403.521 0.559213 -1.47345 0
M  V30 4248 C 404.769 1.31388 -1.53563 0
M  V30 4249 C 405.09 1.93985 -0.198678 0
M  V30 4250 O 404.36 1.79825 0.777167 0
M  V30 4251 H 402.94 0.487901 -0.565652 0
M  V30 4252 H 405.602 0.65315 -1.8363 0
M  V30 4253 H 404.698 2.10844 -2.30111 0
M  V30 4254 N 404.999 1.35443 0.805782 0
M  V30 4255 C 406.247 1.28507 1.55982 0
M  V30 4256 C 406.568 -0.140046 1.94496 0
M  V30 4257 O 405.838 -1.07666 1.63661 0
M  V30 4258 H 404.418 0.472676 0.578434 0
M  V30 4259 H 407.08 1.69555 0.961098 0
M  V30 4260 H 406.176 1.90148 2.47488 0
M  V30 4261 N 406.477 -1.02803 1.19454 0
M  V30 4262 C 407.427 -2.0945 0.900827 0
M  V30 4263 C 408.411 -1.60335 -0.134715 0
M  V30 4264 O 409.603 -1.76857 0.0710924 0
M  V30 4265 C 406.732 -3.4044 0.442229 0
M  V30 4266 C 405.818 -3.96286 1.51056 0
M  V30 4267 N 406.209 -4.25785 2.73021 0
M  V30 4268 C 404.507 -4.24307 1.37404 0
M  V30 4269 C 405.208 -4.70654 3.41848 0
M  V30 4270 N 404.184 -4.72238 2.69243 0
M  V30 4271 H 407.986 -2.3015 1.82779 0
M  V30 4272 H 405.5 -1.20672 1.08683 0
M  V30 4273 H 407.497 -4.16354 0.21326 0
M  V30 4274 H 406.157 -3.21159 -0.478238 0
M  V30 4275 H 407.168 -4.15041 3.09776 0
M  V30 4276 H 403.845 -4.14285 0.517103 0
M  V30 4277 H 405.235 -5.02392 4.46152 0
M  V30 4278 N 407.956 -0.998596 -1.21925 0
M  V30 4279 C 408.919 -0.558679 -2.22287 0
M  V30 4280 C 409.919 0.361525 -1.56683 0
M  V30 4281 O 411.109 0.152695 -1.73529 0
M  V30 4282 C 408.241 0.18661 -3.40389 0
M  V30 4283 H 409.434 -1.4463 -2.62721 0
M  V30 4284 H 406.987 -0.786413 -1.35075 0
M  V30 4285 H 407.722 1.08996 -3.05435 0
M  V30 4286 H 407.507 -0.474188 -3.89222 0
M  V30 4287 H 408.997 0.482367 -4.14805 0
M  V30 4288 N 409.434 1.37368 -0.772513 0
M  V30 4289 C 410.344 2.34053 -0.160081 0
M  V30 4290 C 411.36 1.60216 0.678728 0
M  V30 4291 O 412.536 1.92303 0.59847 0
M  V30 4292 C 409.601 3.3939 0.708182 0
M  V30 4293 C 408.662 4.29048 -0.147172 0
M  V30 4294 C 407.895 5.29354 0.679744 0
M  V30 4295 O 408.118 5.3723 1.91678 0
M  V30 4296 O 407.052 6.01835 0.0885444 0
M  V30 4297 H 410.878 2.88159 -0.959053 0
M  V30 4298 H 408.463 1.39543 -0.533685 0
M  V30 4299 H 410.345 4.03839 1.20384 0
M  V30 4300 H 409.02 2.8761 1.48533 0
M  V30 4301 H 407.927 3.67697 -0.689205 0
M  V30 4302 H 409.26 4.84134 -0.887423 0
M  V30 4303 N 410.912 0.523116 1.48665 0
M  V30 4304 C 412.137 -0.0117284 2.07397 0
M  V30 4305 C 412.562 -1.28031 1.37803 0
M  V30 4306 O 411.92 -1.75836 0.441762 0
M  V30 4307 C 411.968 -0.225786 3.59892 0
M  V30 4308 O 411.072 -1.29592 3.91509 0
M  V30 4309 H 410.413 0.0360673 0.66302 0
M  V30 4310 H 412.943 0.729066 1.9117 0
M  V30 4311 H 412.953 -0.450552 4.05505 0
M  V30 4312 H 411.628 0.700944 4.09951 0
M  V30 4313 H 410.205 -1.05436 3.57684 0
M  V30 4314 N 412.39 -1.55475 0.257931 0
M  V30 4315 C 413.806 -1.59307 -0.0966563 0
M  V30 4316 C 414.006 -1.27514 -1.5602 0
M  V30 4317 O 413.062 -1.02774 -2.30637 0
M  V30 4318 C 414.375 -2.99552 0.262481 0
M  V30 4319 C 415.923 -3.1231 0.207683 0
M  V30 4320 C 416.398 -4.54793 0.541012 0
M  V30 4321 N 417.889 -4.6058 0.491921 0
M  V30 4322 C 418.624 -5.68825 0.722857 0
M  V30 4323 N 418.12 -6.85287 1.0175 0
M  V30 4324 N 419.913 -5.58296 0.652815 0
M  V30 4325 H 412.064 -1.74409 1.21224 0
M  V30 4326 H 414.327 -0.812424 0.48854 0
M  V30 4327 H 414.033 -3.27593 1.27967 0
M  V30 4328 H 413.907 -3.75019 -0.40508 0
M  V30 4329 H 416.294 -2.84044 -0.800195 0
M  V30 4330 H 416.375 -2.39095 0.909255 0
M  V30 4331 H 416.019 -4.83783 1.5465 0
M  V30 4332 H 415.949 -5.26285 -0.18216 0
M  V30 4333 H 418.44 -3.7691 0.273366 0
M  V30 4334 H 418.753 -7.63725 1.18084 0
M  V30 4335 H 417.098 -6.86945 1.05509 0
M  V30 4336 H 420.289 -4.66189 0.422592 0
M  V30 4337 H 420.462 -6.42582 0.836182 0
M  V30 4338 N 413.868 0.0150385 -1.57593 0
M  V30 4339 C 415.284 0.370907 -1.5523 0
M  V30 4340 C 415.484 1.75735 -0.985882 0
M  V30 4341 O 414.54 2.44944 -0.613077 0
M  V30 4342 C 415.853 0.259908 -2.99575 0
M  V30 4343 C 417.401 0.335959 -3.11192 0
M  V30 4344 C 417.876 0.254253 -4.57294 0
M  V30 4345 N 419.367 0.312618 -4.62144 0
M  V30 4346 C 420.102 0.272505 -5.72752 0
M  V30 4347 N 419.598 0.183864 -6.92556 0
M  V30 4348 N 421.391 0.323267 -5.6117 0
M  V30 4349 H 413.542 -0.892104 -1.92757 0
M  V30 4350 H 415.805 -0.340563 -0.884715 0
M  V30 4351 H 415.511 -0.693403 -3.44797 0
M  V30 4352 H 415.385 1.048 -3.62349 0
M  V30 4353 H 417.772 1.27971 -2.65909 0
M  V30 4354 H 417.853 -0.481739 -2.51223 0
M  V30 4355 H 417.497 -0.685887 -5.03247 0
M  V30 4356 H 417.427 1.09024 -5.15191 0
M  V30 4357 H 419.918 0.38307 -3.75953 0
M  V30 4358 H 420.231 0.15874 -7.72637 0
M  V30 4359 H 418.576 0.149708 -6.94839 0
M  V30 4360 H 421.767 0.390607 -4.66467 0
M  V30 4361 H 421.94 0.288539 -6.47357 0
M  V30 4362 N 415.346 1.54954 0.287554 0
M  V30 4363 C 416.592 1.75132 1.02257 0
M  V30 4364 C 416.925 0.542858 1.86458 0
M  V30 4365 O 416.2 -0.459856 1.88986 0
M  V30 4366 C 416.483 3.04812 1.91733 0
M  V30 4367 C 416.336 4.35985 1.10622 0
M  V30 4368 C 417.655 3.30438 2.90687 0
M  V30 4369 H 414.774 0.637194 0.370341 0
M  V30 4370 H 417.416 1.87678 0.296111 0
M  V30 4371 H 415.566 2.94247 2.53675 0
M  V30 4372 H 417.238 4.58487 0.508636 0
M  V30 4373 H 415.481 4.31865 0.409271 0
M  V30 4374 H 416.152 5.23017 1.76513 0
M  V30 4375 H 418.628 3.40701 2.38877 0
M  V30 4376 H 417.504 4.22467 3.50447 0
M  V30 4377 H 417.765 2.49377 3.65053 0
M  V30 4378 N 416.824 -0.551391 1.4764 0
M  V30 4379 C 417.774 -1.65362 1.56969 0
M  V30 4380 C 418.758 -1.55098 0.428189 0
M  V30 4381 O 419.95 -1.63481 0.678441 0
M  V30 4382 C 417.079 -3.04129 1.59249 0
M  V30 4383 C 416.165 -3.19576 2.78804 0
M  V30 4384 N 416.556 -3.05067 4.03445 0
M  V30 4385 C 414.854 -3.50588 2.75688 0
M  V30 4386 C 415.555 -3.2336 4.83543 0
M  V30 4387 N 414.531 -3.4996 4.15968 0
M  V30 4388 H 418.333 -1.52722 2.51104 0
M  V30 4389 H 415.847 -0.756303 1.43714 0
M  V30 4390 H 417.844 -3.83278 1.64024 0
M  V30 4391 H 416.504 -3.17877 0.662148 0
M  V30 4392 H 417.515 -2.82273 4.34215 0
M  V30 4393 H 414.192 -3.70827 1.91817 0
M  V30 4394 H 415.582 -3.17061 5.92387 0
M  V30 4395 N 418.302 -1.35869 -0.798587 0
M  V30 4396 C 419.579 -1.20145 -1.54352 0
M  V30 4397 C 419.959 0.216161 -2.0999 0
M  V30 4398 O 419.307 1.22068 -1.93162 0
M  V30 4399 C 419.517 -2.27602 -2.64572 0
M  V30 4400 C 420.865 -2.63811 -3.32699 0
M  V30 4401 O 421.889 -2.26576 -2.74849 0
M  V30 4402 O 420.748 -3.27866 -4.37226 0
M  V30 4403 H 417.842 -0.467248 -0.682355 0
M  V30 4404 H 420.388 -1.47574 -0.837859 0
M  V30 4405 H 419.16 -3.2265 -2.21388 0
M  V30 4406 H 418.783 -2.01488 -3.42766 0
M  V30 4407 N 419.78 1.02168 -1.19998 0
M  V30 4408 C 421.026 1.75945 -1.00852 0
M  V30 4409 C 421.359 1.88702 0.458828 0
M  V30 4410 O 420.634 1.40911 1.34069 0
M  V30 4411 C 420.917 3.18154 -1.68671 0
M  V30 4412 C 420.77 3.13224 -3.22817 0
M  V30 4413 C 422.089 4.16711 -1.41561 0
M  V30 4414 H 419.208 0.638673 -0.367785 0
M  V30 4415 H 421.85 1.19222 -1.4794 0
M  V30 4416 H 420 3.66586 -1.28636 0
M  V30 4417 H 421.672 2.72635 -3.72112 0
M  V30 4418 H 419.915 2.50751 -3.53986 0
M  V30 4419 H 420.586 4.13728 -3.65422 0
M  V30 4420 H 423.062 3.76913 -1.76284 0
M  V30 4421 H 421.938 5.14391 -1.91553 0
M  V30 4422 H 422.199 4.40774 -0.342193 0
M  V30 4423 N 421.258 1.00505 1.21394 0
M  V30 4424 C 422.221 0.570459 2.21987 0
M  V30 4425 C 423.221 -0.353211 1.56873 0
M  V30 4426 O 424.411 -0.14349 1.73608 0
M  V30 4427 C 421.543 -0.168555 3.40483 0
M  V30 4428 H 422.736 1.46021 2.6195 0
M  V30 4429 H 420.289 0.793565 1.34656 0
M  V30 4430 H 421.024 -1.07374 3.06009 0
M  V30 4431 H 420.809 0.494823 3.88965 0
M  V30 4432 H 422.299 -0.460362 4.15055 0
M  V30 4433 N 422.737 -1.36956 0.779787 0
M  V30 4434 C 423.669 -2.28833 0.129639 0
M  V30 4435 C 424.682 -1.4902 -0.655511 0
M  V30 4436 O 425.871 -1.71578 -0.492279 0
M  V30 4437 C 422.971 -3.2833 -0.839792 0
M  V30 4438 C 422.144 -4.3727 -0.10675 0
M  V30 4439 C 421.203 -5.16789 -0.990717 0
M  V30 4440 O 420.229 -5.67406 -0.451516 0
M  V30 4441 N 421.431 -5.32294 -2.3161 0
M  V30 4442 H 424.196 -2.85268 0.918803 0
M  V30 4443 H 421.757 -1.49019 0.632841 0
M  V30 4444 H 423.749 -3.78413 -1.43477 0
M  V30 4445 H 422.319 -2.72605 -1.52988 0
M  V30 4446 H 421.539 -3.88478 0.669216 0
M  V30 4447 H 422.827 -5.07229 0.399464 0
M  V30 4448 H 422.225 -4.92768 -2.77843 0
M  V30 4449 H 420.782 -5.85656 -2.86095 0
M  V30 4450 N 424.215 -0.530993 -1.48385 0
M  V30 4451 C 425.44 0.000729535 -2.074 0
M  V30 4452 C 425.865 1.27298 -1.3848 0
M  V30 4453 O 425.223 1.75599 -0.451081 0
M  V30 4454 C 425.271 0.206697 -3.60007 0
M  V30 4455 O 424.375 1.27514 -3.92191 0
M  V30 4456 H 423.716 -0.039583 -0.662819 0
M  V30 4457 H 426.246 -0.739194 -1.9078 0
M  V30 4458 H 426.256 0.42904 -4.05738 0
M  V30 4459 H 424.931 -0.722675 -4.09573 0
M  V30 4460 H 423.508 1.03537 -3.58238 0
M  V30 4461 N 425.693 1.55336 -0.266172 0
M  V30 4462 C 426.94 1.99397 0.353158 0
M  V30 4463 C 427.268 1.15451 1.56529 0
M  V30 4464 O 426.523 0.209974 1.9457 0
M  V30 4465 C 426.822 3.48606 0.787957 0
M  V30 4466 C 426.488 4.49773 -0.318541 0
M  V30 4467 C 425.15 4.77158 -0.62239 0
M  V30 4468 C 427.502 5.10212 -1.06459 0
M  V30 4469 C 424.83 5.62251 -1.67602 0
M  V30 4470 C 427.182 5.96449 -2.10788 0
M  V30 4471 C 425.846 6.22158 -2.41817 0
M  V30 4472 H 425.116 0.729644 0.12923 0
M  V30 4473 H 427.763 1.87732 -0.37802 0
M  V30 4474 H 426.068 3.57701 1.59866 0
M  V30 4475 H 427.765 3.80098 1.27775 0
M  V30 4476 H 424.355 4.2854 -0.0715925 0
M  V30 4477 H 428.539 4.89086 -0.843098 0
M  V30 4478 H 423.795 5.80419 -1.92155 0
M  V30 4479 H 427.969 6.42317 -2.69076 0
M  V30 4480 H 425.596 6.87888 -3.23596 0
M  V30 4481 N 427.171 -0.0066808 1.57599 0
M  V30 4482 C 428.419 -0.691552 1.899 0
M  V30 4483 C 428.74 -1.74682 0.866672 0
M  V30 4484 O 428.01 -1.95661 -0.0968189 0
M  V30 4485 H 426.59 -0.258416 0.700878 0
M  V30 4486 H 429.252 0.0326655 1.94873 0
M  V30 4487 H 428.348 -1.16702 2.8946 0
M  V30 4488 N 428.649 -1.55105 -0.279332 0
M  V30 4489 C 429.612 -1.86783 -1.32834 0
M  V30 4490 C 430.612 -0.74199 -1.42657 0
M  V30 4491 O 431.802 -1.0102 -1.41918 0
M  V30 4492 C 428.934 -2.06746 -2.71052 0
M  V30 4493 H 430.127 -2.8055 -1.05979 0
M  V30 4494 H 427.68 -1.47499 -0.517087 0
M  V30 4495 H 428.415 -1.15339 -3.03097 0
M  V30 4496 H 428.2 -2.88711 -2.65309 0
M  V30 4497 H 429.69 -2.32549 -3.46858 0
M  V30 4498 N 430.127 0.543554 -1.4793 0
M  V30 4499 C 431.538 1.12561 -1.48953 0
M  V30 4500 C 431.889 1.94578 -0.251754 0
M  V30 4501 O 431.014 2.0665 0.642255 0
M  V30 4502 C 431.609 2.04801 -2.69892 0
M  V30 4503 C 430.168 2.58251 -2.73831 0
M  V30 4504 C 429.315 1.34918 -2.42265 0
M  V30 4505 H 432.266 0.32947 -1.55242 0
M  V30 4506 H 432.287 2.88886 -2.47639 0
M  V30 4507 H 431.799 1.4508 -3.59963 0
M  V30 4508 H 429.9 3.21732 -1.87934 0
M  V30 4509 H 430.013 2.98312 -3.74895 0
M  V30 4510 H 428.377 1.66046 -1.93134 0
M  V30 4511 H 429.16 0.769693 -3.3456 0
M  V30 4512 N 431.605 1.3629 0.791371 0
M  V30 4513 C 432.851 1.30605 1.55146 0
M  V30 4514 C 433.184 -0.115042 1.93859 0
M  V30 4515 O 432.459 -1.06798 1.62556 0
M  V30 4516 C 432.742 2.22692 2.82985 0
M  V30 4517 C 432.595 3.73489 2.50651 0
M  V30 4518 C 433.914 2.13588 3.84796 0
M  V30 4519 H 431.033 0.475761 0.562868 0
M  V30 4520 H 433.675 1.66825 0.909358 0
M  V30 4521 H 431.825 1.91933 3.37778 0
M  V30 4522 H 433.497 4.14758 2.01924 0
M  V30 4523 H 431.74 3.93021 1.83622 0
M  V30 4524 H 432.411 4.3333 3.41949 0
M  V30 4525 H 434.887 2.40659 3.39445 0
M  V30 4526 H 433.763 2.80195 4.71998 0
M  V30 4527 H 434.024 1.12256 4.27611 0
M  V30 4528 N 433.083 -1.0153 1.20538 0
M  V30 4529 C 434.329 -1.75517 1.02787 0
M  V30 4530 C 434.684 -1.87411 -0.435289 0
M  V30 4531 O 433.977 -1.38982 -1.31889 0
M  V30 4532 C 434.171 -3.17213 1.64654 0
M  V30 4533 C 434 -3.19134 3.16834 0
M  V30 4534 C 432.77 -3.26301 3.85818 0
M  V30 4535 C 434.968 -3.05077 4.14044 0
M  V30 4536 N 432.95 -3.17739 5.25276 0
M  V30 4537 C 434.321 -3.04299 5.40187 0
M  V30 4538 C 436.376 -2.89303 4.05226 0
M  V30 4539 C 435.079 -2.89365 6.58529 0
M  V30 4540 C 437.105 -2.75723 5.23193 0
M  V30 4541 C 436.467 -2.75612 6.48242 0
M  V30 4542 H 432.566 -0.652919 0.430373 0
M  V30 4543 H 435.15 -1.20755 1.52729 0
M  V30 4544 H 433.321 -3.70266 1.17294 0
M  V30 4545 H 435.053 -3.79637 1.40208 0
M  V30 4546 H 431.808 -3.33078 3.36684 0
M  V30 4547 H 432.232 -3.16829 5.98288 0
M  V30 4548 H 436.874 -2.88201 3.09354 0
M  V30 4549 H 434.592 -2.89216 7.54573 0
M  V30 4550 H 438.178 -2.64533 5.18183 0
M  V30 4551 H 437.058 -2.65224 7.37988 0
M  V30 4552 N 434.561 -1.01147 -1.20859 0
M  V30 4553 C 435.801 -0.706331 -1.91808 0
M  V30 4554 C 436.165 0.749736 -1.76757 0
M  V30 4555 O 437.366 1.16716 -2.42138 0
M  V30 4556 C 435.637 -1.12371 -3.39275 0
M  V30 4557 S 437.196 -0.939764 -4.28619 0
M  V30 4558 H 434.014 -0.257665 -0.662669 0
M  V30 4559 H 436.616 -1.29766 -1.46223 0
M  V30 4560 H 435.32 -2.17943 -3.47749 0
M  V30 4561 H 434.851 -0.524952 -3.89882 0
M  V30 4562 H 436.866 0.159556 -4.95943 0
M  V30 4563 N 436.039 1.36541 -0.78704 0
M  V30 4564 C 437.287 1.98911 -0.357633 0
M  V30 4565 C 437.608 1.62778 1.07371 0
M  V30 4566 O 436.878 0.900612 1.73971 0
M  V30 4567 H 435.458 0.735734 -0.129246 0
M  V30 4568 H 438.12 1.66776 -1.00855 0
M  V30 4569 H 437.216 3.08874 -0.447549 0
M  V30 4570 N 437.518 0.538854 1.48102 0
M  V30 4571 C 438.766 0.00798599 2.02098 0
M  V30 4572 C 439.087 -1.33922 1.41739 0
M  V30 4573 O 438.357 -1.86932 0.585934 0
M  V30 4574 H 436.937 -3.62179e-05 0.747 0
M  V30 4575 H 439.599 0.7047 1.81714 0
M  V30 4576 H 438.695 -0.0937672 3.11959 0
M  V30 4577 N 438.996 -1.55193 0.274407 0
M  V30 4578 C 439.929 -2.18606 -0.654712 0
M  V30 4579 C 440.907 -1.14677 -1.15273 0
M  V30 4580 O 442.091 -1.43198 -1.22583 0
M  V30 4581 C 439.218 -2.80875 -1.89281 0
M  V30 4582 C 438.264 -3.981 -1.53032 0
M  V30 4583 S 439.097 -5.32025 -0.609107 0
M  V30 4584 C 440.253 -5.97761 -1.85559 0
M  V30 4585 H 440.486 -2.97074 -0.115894 0
M  V30 4586 H 438.019 -1.54288 0.05867 0
M  V30 4587 H 439.977 -3.17381 -2.60345 0
M  V30 4588 H 438.638 -2.02302 -2.40277 0
M  V30 4589 H 437.831 -4.40356 -2.45158 0
M  V30 4590 H 437.433 -3.63013 -0.899874 0
M  V30 4591 H 439.725 -6.16951 -2.7996 0
M  V30 4592 H 440.668 -6.92545 -1.47605 0
M  V30 4593 H 441.076 -5.27113 -2.02021 0
M  V30 4594 N 440.474 -0.00167713 -1.576 0
M  V30 4595 C 441.404 0.988091 -2.11563 0
M  V30 4596 C 442.385 1.35736 -1.02517 0
M  V30 4597 O 443.57 1.44082 -1.30208 0
M  V30 4598 C 440.7 2.27941 -2.62031 0
M  V30 4599 C 439.654 2.0517 -3.75619 0
M  V30 4600 C 438.98 3.4033 -4.12407 0
M  V30 4601 C 440.28 1.41294 -5.02825 0
M  V30 4602 H 441.974 0.538771 -2.94513 0
M  V30 4603 H 439.52 0.257712 -1.41675 0
M  V30 4604 H 441.473 2.97539 -2.9841 0
M  V30 4605 H 440.197 2.74989 -1.76205 0
M  V30 4606 H 438.856 1.37998 -3.39635 0
M  V30 4607 H 438.504 3.85085 -3.23603 0
M  V30 4608 H 438.204 3.25909 -4.88935 0
M  V30 4609 H 439.728 4.1124 -4.51347 0
M  V30 4610 H 441.142 2.00851 -5.36965 0
M  V30 4611 H 439.539 1.37356 -5.84169 0
M  V30 4612 H 440.609 0.382362 -4.8339 0
M  V30 4613 N 441.952 1.55251 0.271103 0
M  V30 4614 C 442.862 1.9136 1.35714 0
M  V30 4615 C 443.878 0.811075 1.5394 0
M  V30 4616 O 445.054 1.11031 1.6803 0
M  V30 4617 C 442.119 2.1798 2.69603 0
M  V30 4618 C 441.18 3.4153 2.60107 0
M  V30 4619 C 440.413 3.66871 3.8761 0
M  V30 4620 O 440.636 2.94689 4.8838 0
M  V30 4621 O 439.57 4.60405 3.87699 0
M  V30 4622 H 443.396 2.83815 1.08088 0
M  V30 4623 H 440.981 1.41821 0.469792 0
M  V30 4624 H 442.863 2.36518 3.48765 0
M  V30 4625 H 441.538 1.28708 2.97012 0
M  V30 4626 H 440.445 3.28325 1.79314 0
M  V30 4627 H 441.778 4.31027 2.37647 0
M  V30 4628 N 443.43 -0.535701 1.48216 0
M  V30 4629 C 444.655 -1.32149 1.59848 0
M  V30 4630 C 445.08 -1.86338 0.256842 0
M  V30 4631 O 444.438 -1.64107 -0.770632 0
M  V30 4632 C 444.486 -2.45224 2.64381 0
M  V30 4633 O 443.59 -3.48093 2.21144 0
M  V30 4634 H 442.931 -0.391634 0.536208 0
M  V30 4635 H 445.461 -0.645202 1.94161 0
M  V30 4636 H 445.471 -2.91491 2.85476 0
M  V30 4637 H 444.146 -2.05143 3.61786 0
M  V30 4638 H 442.723 -3.07984 2.10239 0
M  V30 4639 N 444.908 -1.36708 -0.784132 0
M  V30 4640 C 446.156 -1.30972 -1.53918 0
M  V30 4641 C 446.477 0.109086 -1.94695 0
M  V30 4642 O 445.747 1.05048 -1.65353 0
M  V30 4643 H 444.327 -0.481819 -0.570841 0
M  V30 4644 H 446.989 -1.71063 -0.934002 0
M  V30 4645 H 446.085 -1.94061 -2.44431 0
M  V30 4646 N 446.386 1.0089 -1.21074 0
M  V30 4647 C 447.635 1.74019 -1.01981 0
M  V30 4648 C 447.948 1.90408 0.447665 0
M  V30 4649 O 449.154 2.60707 0.757906 0
M  V30 4650 C 447.61 3.13026 -1.77603 0
M  V30 4651 C 447.218 3.04623 -3.28495 0
M  V30 4652 C 448.962 3.90312 -1.66904 0
M  V30 4653 C 446.869 4.38685 -3.96623 0
M  V30 4654 H 445.799 0.652422 -0.377971 0
M  V30 4655 H 448.45 1.12755 -1.44771 0
M  V30 4656 H 446.832 3.74878 -1.27604 0
M  V30 4657 H 448.006 2.52032 -3.85767 0
M  V30 4658 H 446.321 2.40827 -3.39693 0
M  V30 4659 H 448.918 4.8951 -2.15138 0
M  V30 4660 H 449.261 4.11558 -0.62658 0
M  V30 4661 H 449.794 3.35104 -2.14359 0
M  V30 4662 H 446.533 4.22641 -5.01054 0
M  V30 4663 H 446.053 4.91252 -3.4414 0
M  V30 4664 H 447.732 5.075 -4.01314 0
M  V30 4665 N 447.864 1.01787 1.20321 0
M  V30 4666 C 449.112 0.706538 1.89347 0
M  V30 4667 C 449.433 -0.766289 1.79313 0
M  V30 4668 O 448.703 -1.55126 1.19635 0
M  V30 4669 H 447.283 0.258348 0.700903 0
M  V30 4670 H 449.945 1.28974 1.46122 0
M  V30 4671 H 449.041 0.991066 2.95946 0
M  V30 4672 N 449.342 -1.36122 0.79427 0
M  V30 4673 C 450.758 -1.5232 0.476525 0
M  V30 4674 C 450.958 -1.74685 -1.00436 0
M  V30 4675 O 450.014 -1.78115 -1.78973 0
M  V30 4676 C 451.327 -2.70607 1.31119 0
M  V30 4677 C 452.875 -2.8448 1.30537 0
M  V30 4678 C 453.35 -4.05778 2.12387 0
M  V30 4679 N 454.841 -4.12933 2.09859 0
M  V30 4680 C 455.576 -5.05876 2.69957 0
M  V30 4681 N 455.072 -6.04232 3.38934 0
M  V30 4682 N 456.865 -4.98528 2.59665 0
M  V30 4683 H 449.016 -1.1986 1.75349 0
M  V30 4684 H 451.279 -0.585418 0.745647 0
M  V30 4685 H 450.985 -2.60619 2.36158 0
M  V30 4686 H 450.859 -3.64888 0.955843 0
M  V30 4687 H 453.246 -2.93927 0.262876 0
M  V30 4688 H 453.327 -1.91093 1.70051 0
M  V30 4689 H 452.971 -3.97092 3.1667 0
M  V30 4690 H 452.901 -4.98323 1.70242 0
M  V30 4691 H 455.392 -3.42515 1.59662 0
M  V30 4692 H 455.705 -6.71724 3.82109 0
M  V30 4693 H 454.05 -6.04443 3.43036 0
M  V30 4694 H 457.241 -4.20641 2.05375 0
M  V30 4695 H 457.414 -5.70773 3.06793 0
M  V30 4696 N 450.82 -0.546701 -1.47814 0
M  V30 4697 C 451.783 0.196287 -2.28358 0
M  V30 4698 C 452.783 0.852437 -1.36346 0
M  V30 4699 O 453.973 0.709913 -1.59078 0
M  V30 4700 C 451.105 1.28579 -3.15722 0
M  V30 4701 H 452.298 -0.511086 -2.95513 0
M  V30 4702 H 449.851 -0.303248 -1.5333 0
M  V30 4703 H 450.586 2.0259 -2.53235 0
M  V30 4704 H 450.371 0.820229 -3.83425 0
M  V30 4705 H 451.861 1.80793 -3.76435 0
M  V30 4706 N 452.299 1.55045 -0.282633 0
M  V30 4707 C 453.249 2.19514 0.616249 0
M  V30 4708 C 454.233 1.16216 1.11277 0
M  V30 4709 O 455.425 1.42004 1.05659 0
M  V30 4710 C 452.554 2.92548 1.7964 0
M  V30 4711 C 451.64 4.03142 1.31671 0
M  V30 4712 N 452.031 5.0276 0.553695 0
M  V30 4713 C 450.329 4.1635 1.59903 0
M  V30 4714 C 451.03 5.80923 0.30054 0
M  V30 4715 N 450.006 5.3651 0.875116 0
M  V30 4716 H 453.808 2.93889 0.0255363 0
M  V30 4717 H 451.322 1.62169 -0.0865362 0
M  V30 4718 H 453.319 3.37188 2.45173 0
M  V30 4719 H 451.979 2.19685 2.39099 0
M  V30 4720 H 452.99 5.17512 0.20032 0
M  V30 4721 H 449.667 3.54682 2.20243 0
M  V30 4722 H 451.057 6.7118 -0.311053 0
M  V30 4723 N 453.777 0.010035 1.57597 0
M  V30 4724 C 454.725 -0.996272 2.10184 0
M  V30 4725 C 455.719 -1.34942 1.02406 0
M  V30 4726 O 456.925 -1.33389 1.20861 0
M  V30 4727 H 453.3 -0.338982 0.671264 0
M  V30 4728 H 455.271 -0.527272 2.93705 0
M  V30 4729 C 454.02 -2.27599 2.62857 0
M  V30 4730 H 453.343 -2.01295 3.45428 0
M  V30 4731 H 454.783 -2.96265 3.0332 0
M  V30 4732 C 453.242 -2.99269 1.54725 0
M  V30 4733 O 453.772 -3.90644 0.93597 0
M  V30 4734 N 451.978 -2.61269 1.27228 0
M  V30 4735 H 451.525 -1.87043 1.77123 0
M  V30 4736 H 451.483 -3.09534 0.550999 0
M  V30 4737 N 455.255 -1.55392 -0.262866 0
M  V30 4738 C 456.504 -1.75679 -0.990943 0
M  V30 4739 C 456.817 -0.57097 -1.87081 0
M  V30 4740 O 458.023 -0.656486 -2.63444 0
M  V30 4741 C 456.479 -3.10964 -1.81188 0
M  V30 4742 C 456.087 -4.37146 -0.980188 0
M  V30 4743 C 457.831 -3.40597 -2.53365 0
M  V30 4744 C 455.738 -5.63466 -1.7961 0
M  V30 4745 H 454.668 -0.654868 -0.373716 0
M  V30 4746 H 457.319 -1.81841 -0.246203 0
M  V30 4747 H 455.701 -2.98867 -2.59797 0
M  V30 4748 H 456.875 -4.60187 -0.237558 0
M  V30 4749 H 455.19 -4.14731 -0.372497 0
M  V30 4750 H 457.787 -4.32186 -3.14833 0
M  V30 4751 H 458.13 -2.6119 -3.24169 0
M  V30 4752 H 458.663 -3.53838 -1.81779 0
M  V30 4753 H 455.402 -6.4565 -1.13209 0
M  V30 4754 H 454.922 -5.44552 -2.51443 0
M  V30 4755 H 456.601 -6.02139 -2.36723 0
M  V30 4756 N 456.733 0.527833 -1.48498 0
M  V30 4757 C 457.683 1.62844 -1.5958 0
M  V30 4758 C 458.667 1.54397 -0.452809 0
M  V30 4759 O 459.859 1.62381 -0.704364 0
M  V30 4760 C 456.988 3.01557 -1.64067 0
M  V30 4761 C 456.074 3.151 -2.83853 0
M  V30 4762 N 456.465 2.9861 -4.08247 0
M  V30 4763 C 454.763 3.46158 -2.8123 0
M  V30 4764 C 455.464 3.15626 -4.88626 0
M  V30 4765 N 454.44 3.43298 -4.21483 0
M  V30 4766 H 458.242 1.48708 -2.53502 0
M  V30 4767 H 455.756 0.733343 -1.44899 0
M  V30 4768 H 457.753 3.8062 -1.70101 0
M  V30 4769 H 456.413 3.16783 -0.712636 0
M  V30 4770 H 457.424 2.75329 -4.3865 0
M  V30 4771 H 454.101 3.67728 -1.97692 0
M  V30 4772 H 455.491 3.07596 -5.97356 0
M  V30 4773 N 458.211 1.37122 0.776871 0
M  V30 4774 C 459.141 1.35164 1.90402 0
M  V30 4775 C 460.122 0.221069 1.68657 0
M  V30 4776 O 461.307 0.420642 1.8959 0
M  V30 4777 C 458.437 1.15274 3.27611 0
M  V30 4778 C 457.391 2.25289 3.63908 0
M  V30 4779 C 456.717 1.90527 4.99603 0
M  V30 4780 C 458.017 3.67446 3.71188 0
M  V30 4781 H 459.711 2.29482 1.92297 0
M  V30 4782 H 457.257 1.10465 0.923773 0
M  V30 4783 H 459.21 1.12536 4.06096 0
M  V30 4784 H 457.934 0.174102 3.26136 0
M  V30 4785 H 456.593 2.27174 2.87728 0
M  V30 4786 H 456.241 0.91206 4.94662 0
M  V30 4787 H 455.941 2.64193 5.24858 0
M  V30 4788 H 457.465 1.89367 5.80493 0
M  V30 4789 H 458.879 3.67719 4.39836 0
M  V30 4790 H 457.276 4.40123 4.07936 0
M  V30 4791 H 458.346 4.01443 2.71977 0
M  V30 4792 N 459.689 -1.00246 1.21608 0
M  V30 4793 C 460.914 -1.78167 1.06167 0
M  V30 4794 C 461.339 -1.84138 -0.384035 0
M  V30 4795 O 460.697 -1.28683 -1.27712 0
M  V30 4796 C 460.745 -3.19786 1.66642 0
M  V30 4797 O 459.849 -4.02153 0.913613 0
M  V30 4798 H 459.19 -0.549 0.37349 0
M  V30 4799 H 461.72 -1.25994 1.61204 0
M  V30 4800 H 461.73 -3.70451 1.70969 0
M  V30 4801 H 460.405 -3.14754 2.7185 0
M  V30 4802 H 458.982 -3.60711 0.945635 0
M  V30 4803 N 461.167 -1.02423 -1.1978 0
M  V30 4804 C 462.395 -0.737456 -1.93311 0
M  V30 4805 C 462.81 0.703023 -1.75223 0
M  V30 4806 O 462.167 1.47761 -1.07112 0
M  V30 4807 C 462.218 -1.0733 -3.45199 0
M  V30 4808 O 461.939 -2.4572 -3.62702 0
M  V30 4809 C 463.44 -0.80866 -4.35862 0
M  V30 4810 H 460.66 -0.2702 -0.614193 0
M  V30 4811 H 463.204 -1.36747 -1.52054 0
M  V30 4812 H 461.359 -0.488545 -3.84307 0
M  V30 4813 H 461.773 -2.58081 -4.56612 0
M  V30 4814 H 463.247 -1.09365 -5.41057 0
M  V30 4815 H 463.724 0.257025 -4.38447 0
M  V30 4816 H 464.33 -1.37592 -4.02428 0
M  V30 4817 N 462.645 1.35699 -0.801477 0
M  V30 4818 C 463.575 2.32436 -0.222658 0
M  V30 4819 C 464.556 1.5723 0.649057 0
M  V30 4820 O 465.741 1.85324 0.580387 0
M  V30 4821 C 462.871 3.41469 0.633719 0
M  V30 4822 C 461.825 4.27774 -0.139083 0
M  V30 4823 C 461.151 5.28082 0.838666 0
M  V30 4824 C 462.451 5.04946 -1.33517 0
M  V30 4825 H 464.145 2.81094 -1.03086 0
M  V30 4826 H 461.691 1.35146 -0.497155 0
M  V30 4827 H 463.644 4.08143 1.04868 0
M  V30 4828 H 462.368 2.91408 1.47475 0
M  V30 4829 H 461.027 3.62673 -0.535156 0
M  V30 4830 H 460.675 4.7429 1.67506 0
M  V30 4831 H 460.375 5.86695 0.32594 0
M  V30 4832 H 461.899 5.97628 1.25194 0
M  V30 4833 H 463.313 5.64593 -0.995349 0
M  V30 4834 H 461.71 5.7303 -1.78202 0
M  V30 4835 H 462.78 4.35886 -2.12442 0
M  V30 4836 N 464.123 0.554532 1.47522 0
M  V30 4837 C 465.534 0.120446 1.86311 0
M  V30 4838 C 465.885 -1.30904 1.46145 0
M  V30 4839 O 465.01 -1.98434 0.863294 0
M  V30 4840 C 465.605 0.211808 3.38137 0
M  V30 4841 C 464.164 -0.167224 3.76028 0
M  V30 4842 C 463.311 0.560576 2.71575 0
M  V30 4843 H 466.262 0.764408 1.39077 0
M  V30 4844 H 466.283 -0.570275 3.76202 0
M  V30 4845 H 465.795 1.25232 3.6734 0
M  V30 4846 H 463.896 -1.20894 3.52442 0
M  V30 4847 H 464.009 0.189473 4.78725 0
M  V30 4848 H 462.373 0.00396836 2.547 0
M  V30 4849 H 463.156 1.60219 3.0362 0
M  V30 4850 N 465.601 -1.54893 0.290851 0
M  V30 4851 C 466.549 -2.24579 -0.605576 0
M  V30 4852 C 467.543 -1.24824 -1.14522 0
M  V30 4853 O 468.749 -1.42706 -1.09704 0
M  V30 4854 H 465.124 -0.720946 -0.213872 0
M  V30 4855 H 467.095 -2.984 0.0048173 0
M  V30 4856 C 465.844 -2.99224 -1.77088 0
M  V30 4857 H 465.167 -3.75782 -1.36484 0
M  V30 4858 H 466.607 -3.51281 -2.3744 0
M  V30 4859 C 465.066 -2.05602 -2.66888 0
M  V30 4860 O 465.596 -1.61745 -3.67698 0
M  V30 4861 N 463.802 -1.71771 -2.34399 0
M  V30 4862 H 463.349 -2.07633 -1.52468 0
M  V30 4863 H 463.307 -1.09403 -2.94751 0
M  V30 4864 N 467.08 -0.0183926 -1.57589 0
M  V30 4865 C 468.327 0.662562 -1.91354 0
M  V30 4866 C 468.655 1.72747 -0.893788 0
M  V30 4867 O 467.91 1.9545 0.0988509 0
M  V30 4868 C 468.209 1.32676 -3.31861 0
M  V30 4869 C 467.875 0.393267 -4.49182 0
M  V30 4870 C 466.537 0.136302 -4.81007 0
M  V30 4871 C 468.889 -0.248366 -5.20608 0
M  V30 4872 C 466.217 -0.770282 -5.81621 0
M  V30 4873 C 468.569 -1.14294 -6.22189 0
M  V30 4874 C 467.233 -1.4089 -6.52462 0
M  V30 4875 H 466.503 0.242448 -0.700214 0
M  V30 4876 H 469.15 -0.0778629 -1.91342 0
M  V30 4877 H 467.455 2.14168 -3.28084 0
M  V30 4878 H 469.152 1.86001 -3.55253 0
M  V30 4879 H 465.742 0.603723 -4.24327 0
M  V30 4880 H 469.926 -0.062883 -4.9626 0
M  V30 4881 H 465.182 -0.984154 -6.03427 0
M  V30 4882 H 469.356 -1.64637 -6.76659 0
M  V30 4883 H 466.983 -2.11306 -7.30242 0
M  V30 4884 N 468.558 1.5553 0.254621 0
M  V30 4885 C 469.974 1.4778 0.602753 0
M  V30 4886 C 470.174 0.707047 1.88688 0
M  V30 4887 O 469.23 0.233288 2.5142 0
M  V30 4888 C 470.543 2.92133 0.712648 0
M  V30 4889 C 472.091 3.02458 0.805488 0
M  V30 4890 C 472.566 4.48102 0.947009 0
M  V30 4891 N 474.057 4.52008 1.01207 0
M  V30 4892 C 474.792 5.61939 1.1407 0
M  V30 4893 N 474.288 6.81697 1.23536 0
M  V30 4894 N 476.081 5.49719 1.17325 0
M  V30 4895 H 468.232 2.04085 -0.588463 0
M  V30 4896 H 470.495 0.926229 -0.202001 0
M  V30 4897 H 470.201 3.51332 -0.160766 0
M  V30 4898 H 470.075 3.42187 1.58707 0
M  V30 4899 H 472.462 2.43344 1.66936 0
M  V30 4900 H 472.543 2.55627 -0.0939266 0
M  V30 4901 H 472.187 5.07824 0.087725 0
M  V30 4902 H 472.117 4.92607 1.86135 0
M  V30 4903 H 474.608 3.65749 0.950577 0
M  V30 4904 H 474.921 7.61228 1.33236 0
M  V30 4905 H 473.266 6.84473 1.20508 0
M  V30 4906 H 476.457 4.55095 1.09573 0
M  V30 4907 H 476.63 6.35432 1.27005 0
M  V30 4908 N 470.036 -0.519951 1.48776 0
M  V30 4909 C 470.966 -1.63253 1.66945 0
M  V30 4910 C 471.947 -1.62014 0.518224 0
M  V30 4911 O 473.132 -1.79053 0.751919 0
M  V30 4912 C 470.262 -3.0181 1.71836 0
M  V30 4913 C 469.216 -3.17911 2.8656 0
M  V30 4914 C 468.542 -4.5763 2.76548 0
M  V30 4915 C 469.842 -2.99729 4.27738 0
M  V30 4916 H 471.536 -1.48302 2.6009 0
M  V30 4917 H 469.082 -0.712026 1.25165 0
M  V30 4918 H 471.035 -3.79525 1.83135 0
M  V30 4919 H 469.759 -3.17806 0.752775 0
M  V30 4920 H 468.418 -2.42616 2.74833 0
M  V30 4921 H 468.066 -4.70476 1.77937 0
M  V30 4922 H 467.766 -4.69346 3.53536 0
M  V30 4923 H 469.29 -5.37431 2.89828 0
M  V30 4924 H 470.704 -3.67228 4.40246 0
M  V30 4925 H 469.101 -3.22932 5.05801 0
M  V30 4926 H 470.171 -1.96047 4.43502 0
M  V30 4927 N 471.514 -1.37532 -0.769588 0
M  V30 4928 C 472.925 -1.29382 -1.346 0
M  V30 4929 C 473.276 0.0576039 -1.96115 0
M  V30 4930 O 472.401 0.95947 -1.93967 0
M  V30 4931 C 472.996 -2.34298 -2.44724 0
M  V30 4932 C 471.555 -2.29776 -2.98128 0
M  V30 4933 C 470.702 -2.18013 -1.71364 0
M  V30 4934 H 473.653 -1.48123 -0.56968 0
M  V30 4935 H 473.674 -1.99089 -3.24259 0
M  V30 4936 H 473.186 -3.32645 -1.99922 0
M  V30 4937 H 471.287 -1.34959 -3.47299 0
M  V30 4938 H 471.4 -3.23276 -3.53595 0
M  V30 4939 H 469.764 -1.64595 -1.94372 0
M  V30 4940 H 470.547 -3.18278 -1.28662 0
M  V30 4941 N 472.992 0.995999 -1.22138 0
M  V30 4942 C 474.24 1.73167 -1.042 0
M  V30 4943 C 474.561 1.90329 0.42423 0
M  V30 4944 O 473.831 1.4607 1.30539 0
M  V30 4945 H 472.411 0.641593 -0.38258 0
M  V30 4946 H 475.073 1.19974 -1.53598 0
M  V30 4947 H 474.169 2.72734 -1.51731 0
M  V30 4948 N 474.47 1.03057 1.19235 0
M  V30 4949 C 475.747 0.642608 1.84743 0
M  V30 4950 C 476.127 -0.878577 1.91948 0
M  V30 4951 O 475.475 -1.77597 1.43776 0
M  V30 4952 C 475.685 1.30665 3.23616 0
M  V30 4953 C 477.033 1.43098 3.9976 0
M  V30 4954 O 478.057 1.26396 3.3302 0
M  V30 4955 O 476.916 1.70223 5.19313 0
M  V30 4956 H 474.01 0.223573 0.796206 0
M  V30 4957 H 476.556 1.12883 1.26711 0
M  V30 4958 H 475.328 2.34544 3.13217 0
M  V30 4959 H 474.951 0.808405 3.89295 0
M  V30 4960 N 475.948 -1.35272 0.808662 0
M  V30 4961 C 477.176 -2.02946 0.402537 0
M  V30 4962 C 477.591 -1.60937 -0.987147 0
M  V30 4963 O 476.948 -0.807917 -1.63643 0
M  V30 4964 C 476.999 -3.58317 0.47868 0
M  V30 4965 O 476.72 -3.98799 1.81358 0
M  V30 4966 C 478.221 -4.43251 0.0656281 0
M  V30 4967 H 475.441 -0.650831 0.163279 0
M  V30 4968 H 477.985 -1.72849 1.09286 0
M  V30 4969 H 476.14 -3.87055 -0.163415 0
M  V30 4970 H 476.554 -4.93451 1.77781 0
M  V30 4971 H 478.028 -5.51738 0.170017 0
M  V30 4972 H 478.505 -4.27913 -0.989278 0
M  V30 4973 H 479.111 -4.19813 0.68096 0
M  V30 4974 N 477.426 -0.562348 -1.47226 0
M  V30 4975 C 478.651 -0.0432632 -2.07355 0
M  V30 4976 C 479.076 1.24332 -1.41149 0
M  V30 4977 O 478.434 1.74603 -0.488226 0
M  V30 4978 C 478.482 0.130288 -3.60365 0
M  V30 4979 O 477.586 1.19166 -3.94808 0
M  V30 4980 H 476.927 -0.0536334 -0.66183 0
M  V30 4981 H 479.457 -0.779495 -1.89169 0
M  V30 4982 H 479.467 0.342881 -4.06557 0
M  V30 4983 H 478.142 -0.809389 -4.07948 0
M  V30 4984 H 476.719 0.959153 -3.60354 0
M  V30 4985 N 478.904 1.54736 -0.299062 0
M  V30 4986 C 480.129 2.04975 0.316254 0
M  V30 4987 C 480.554 1.17501 1.46885 0
M  V30 4988 O 479.912 0.178678 1.80417 0
M  V30 4989 C 479.96 3.52672 0.751997 0
M  V30 4990 O 479.064 3.68226 1.85697 0
M  V30 4991 H 478.405 0.661126 0.0617175 0
M  V30 4992 H 480.935 1.99805 -0.440341 0
M  V30 4993 H 480.945 3.94488 1.04133 0
M  V30 4994 H 479.62 4.158 -0.0911482 0
M  V30 4995 H 478.197 3.38316 1.56834 0
M  V30 4996 N 480.382 0.0267497 1.57577 0
M  V30 4997 C 481.345 -0.940916 2.08996 0
M  V30 4998 C 482.345 -1.25561 1.00455 0
M  V30 4999 O 483.535 -1.19634 1.26623 0
M  V30 5000 C 480.667 -2.25814 2.55384 0
M  V30 5001 H 481.86 -0.495628 2.95776 0
M  V30 5002 H 479.413 -0.221241 1.54726 0
M  V30 5003 H 480.148 -2.74976 1.71926 0
M  V30 5004 H 479.933 -2.04285 3.34679 0
M  V30 5005 H 481.423 -2.95178 2.95398 0
M  V30 5006 N 481.861 -1.55662 -0.24637 0
M  V30 5007 C 483.086 -1.81914 -0.996093 0
M  V30 5008 C 483.511 -0.603875 -1.78143 0
M  V30 5009 O 482.869 0.447091 -1.75701 0
M  V30 5010 C 482.917 -3.05908 -1.90925 0
M  V30 5011 O 482.021 -2.82861 -3.00105 0
M  V30 5012 H 481.362 -0.600481 -0.283406 0
M  V30 5013 H 483.892 -2.02848 -0.267199 0
M  V30 5014 H 483.902 -3.35356 -2.3238 0
M  V30 5015 H 482.577 -3.93999 -1.33183 0
M  V30 5016 H 481.154 -2.64583 -2.62775 0
M  V30 5017 N 483.339 0.512053 -1.4905 0
M  V30 5018 C 484.755 0.84224 -1.35567 0
M  V30 5019 C 484.955 1.97878 -0.380319 0
M  V30 5020 O 484.011 2.51769 0.19201 0
M  V30 5021 C 485.324 1.19286 -2.76028 0
M  V30 5022 C 486.872 1.30171 -2.84648 0
M  V30 5023 C 487.347 1.68568 -4.25851 0
M  V30 5024 N 488.838 1.75638 -4.28609 0
M  V30 5025 C 489.573 2.06769 -5.34821 0
M  V30 5026 N 489.069 2.36201 -6.51292 0
M  V30 5027 N 490.862 2.07927 -5.22229 0
M  V30 5028 H 483.013 -0.237574 -2.11067 0
M  V30 5029 H 485.276 -0.0436747 -0.946993 0
M  V30 5030 H 484.982 0.431199 -3.49047 0
M  V30 5031 H 484.856 2.13889 -3.10695 0
M  V30 5032 H 487.243 2.05411 -2.11873 0
M  V30 5033 H 487.324 0.336457 -2.53578 0
M  V30 5034 H 486.968 0.938824 -4.99148 0
M  V30 5035 H 486.898 2.66174 -4.54377 0
M  V30 5036 H 489.389 1.55097 -3.44606 0
M  V30 5037 H 489.702 2.59112 -7.28066 0
M  V30 5038 H 488.047 2.33681 -6.54536 0
M  V30 5039 H 491.238 1.84403 -4.30248 0
M  V30 5040 H 491.411 2.31856 -6.05101 0
M  V30 5041 N 484.817 1.37938 0.762283 0
M  V30 5042 C 486.047 1.36685 1.54922 0
M  V30 5043 C 486.455 -0.0474099 1.89141 0
M  V30 5044 O 485.798 -1.02213 1.52638 0
M  V30 5045 C 485.86 2.14963 2.88152 0
M  V30 5046 C 485.524 3.6385 2.76518 0
M  V30 5047 C 486.521 4.57531 2.46904 0
M  V30 5048 C 484.206 4.07095 2.94243 0
M  V30 5049 C 486.2 5.92436 2.35156 0
M  V30 5050 C 483.887 5.42083 2.82116 0
M  V30 5051 C 484.885 6.34567 2.52614 0
M  V30 5052 O 484.573 7.67073 2.40529 0
M  V30 5053 H 484.305 0.469586 0.486276 0
M  V30 5054 H 486.859 1.82012 0.951876 0
M  V30 5055 H 485.089 1.6434 3.50042 0
M  V30 5056 H 486.778 2.06224 3.49609 0
M  V30 5057 H 487.544 4.25428 2.32886 0
M  V30 5058 H 483.423 3.35462 3.16206 0
M  V30 5059 H 486.967 6.64591 2.12049 0
M  V30 5060 H 482.864 5.73785 2.95704 0
M  V30 5061 H 483.632 7.77499 2.55807 0
M  V30 5062 N 486.295 -0.989507 1.22664 0
M  V30 5063 C 487.541 -1.73298 1.06487 0
M  V30 5064 C 487.896 -1.88292 -0.395438 0
M  V30 5065 O 487.189 -1.41748 -1.28911 0
M  V30 5066 C 487.383 -3.13649 1.71345 0
M  V30 5067 C 487.212 -3.12341 3.23532 0
M  V30 5068 C 485.982 -3.18044 3.92653 0
M  V30 5069 C 488.18 -2.96226 4.20422 0
M  V30 5070 N 486.162 -3.06526 5.31898 0
M  V30 5071 C 487.533 -2.92773 5.4652 0
M  V30 5072 C 489.588 -2.80642 4.11271 0
M  V30 5073 C 488.291 -2.75332 6.64519 0
M  V30 5074 C 490.317 -2.64563 5.28924 0
M  V30 5075 C 489.679 -2.618 6.53942 0
M  V30 5076 H 485.778 -0.643643 0.444126 0
M  V30 5077 H 488.362 -1.17489 1.55256 0
M  V30 5078 H 486.533 -3.67694 1.25122 0
M  V30 5079 H 488.265 -3.76577 1.48229 0
M  V30 5080 H 485.02 -3.25861 3.43673 0
M  V30 5081 H 485.444 -3.04067 6.04874 0
M  V30 5082 H 490.086 -2.81574 3.15398 0
M  V30 5083 H 487.804 -2.73145 7.60538 0
M  V30 5084 H 491.39 -2.53482 5.23677 0
M  V30 5085 H 490.27 -2.49511 7.43447 0
M  V30 5086 N 487.773 -1.03688 -1.18687 0
M  V30 5087 C 488.683 -0.634908 -2.25845 0
M  V30 5088 C 489.699 0.337065 -1.70704 0
M  V30 5089 O 490.875 0.192943 -2.00474 0
M  V30 5090 C 487.94 -0.000180054 -3.467 0
M  V30 5091 C 487.001 -1.02067 -4.1699 0
M  V30 5092 C 486.234 -0.41614 -5.32075 0
M  V30 5093 O 486.457 0.778712 -5.65059 0
M  V30 5094 O 485.391 -1.14296 -5.90948 0
M  V30 5095 H 489.217 -1.52757 -2.62486 0
M  V30 5096 H 486.802 -0.807533 -1.25695 0
M  V30 5097 H 488.684 0.353342 -4.19916 0
M  V30 5098 H 487.359 0.866367 -3.11891 0
M  V30 5099 H 486.266 -1.42592 -3.45859 0
M  V30 5100 H 487.599 -1.85786 -4.5579 0
M  V30 5101 N 489.251 1.34841 -0.815825 0
M  V30 5102 C 490.667 1.51543 -0.500697 0
M  V30 5103 C 490.867 1.76261 0.976444 0
M  V30 5104 O 489.923 1.8094 1.76117 0
M  V30 5105 C 491.236 2.68487 -1.35407 0
M  V30 5106 C 492.784 2.82368 -1.35046 0
M  V30 5107 C 493.259 4.02347 -2.18816 0
M  V30 5108 N 494.75 4.09542 -2.16402 0
M  V30 5109 C 495.485 5.01517 -2.77971 0
M  V30 5110 N 494.981 5.98763 -3.48503 0
M  V30 5111 N 496.774 4.94334 -2.67563 0
M  V30 5112 H 488.925 1.17055 -1.77234 0
M  V30 5113 H 491.188 0.573481 -0.754866 0
M  V30 5114 H 490.894 2.56829 -2.40274 0
M  V30 5115 H 490.768 3.63321 -1.01377 0
M  V30 5116 H 493.155 2.93471 -0.309604 0
M  V30 5117 H 493.236 1.88363 -1.73069 0
M  V30 5118 H 492.88 3.92004 -3.22948 0
M  V30 5119 H 492.81 4.95551 -1.78148 0
M  V30 5120 H 495.301 3.39932 -1.65091 0
M  V30 5121 H 495.614 6.6556 -3.92747 0
M  V30 5122 H 493.959 5.98909 -3.52609 0
M  V30 5123 H 497.15 4.1732 -2.12041 0
M  V30 5124 H 497.323 5.6582 -3.15834 0
M  V30 5125 N 490.729 0.570148 1.46925 0
M  V30 5126 C 492.006 -0.0153259 1.95594 0
M  V30 5127 C 492.386 -1.47232 1.51281 0
M  V30 5128 O 491.734 -2.15574 0.757624 0
M  V30 5129 C 491.944 0.143624 3.48704 0
M  V30 5130 C 493.292 0.00494484 4.246 0
M  V30 5131 O 494.316 0.0718214 3.56128 0
M  V30 5132 O 493.175 -0.141175 5.46318 0
M  V30 5133 H 490.269 -0.0568819 0.825041 0
M  V30 5134 H 492.815 0.637583 1.57267 0
M  V30 5135 H 491.587 1.15699 3.73804 0
M  V30 5136 H 491.21 -0.5463 3.93829 0
M  V30 5137 N 492.207 -1.54576 0.307264 0
M  V30 5138 C 493.137 -2.26708 -0.55907 0
M  V30 5139 C 494.118 -1.26893 -1.1328 0
M  V30 5140 O 495.303 -1.55677 -1.16097 0
M  V30 5141 C 492.433 -3.01259 -1.72801 0
M  V30 5142 C 491.387 -4.08275 -1.28435 0
M  V30 5143 C 490.713 -4.70575 -2.53895 0
M  V30 5144 C 492.013 -5.2068 -0.411038 0
M  V30 5145 H 493.707 -2.9937 0.042576 0
M  V30 5146 H 491.253 -1.43983 0.0219173 0
M  V30 5147 H 493.206 -3.50444 -2.34023 0
M  V30 5148 H 491.93 -2.26187 -2.356 0
M  V30 5149 H 490.589 -3.59949 -0.695161 0
M  V30 5150 H 490.237 -3.92136 -3.15021 0
M  V30 5151 H 489.937 -5.42854 -2.24908 0
M  V30 5152 H 491.461 -5.22527 -3.15908 0
M  V30 5153 H 492.875 -5.65721 -0.929097 0
M  V30 5154 H 491.272 -5.99716 -0.214664 0
M  V30 5155 H 492.342 -4.81629 0.562287 0
M  V30 5156 N 493.685 -0.035106 -1.57561 0
M  V30 5157 C 494.934 0.641604 -1.91223 0
M  V30 5158 C 495.247 1.72944 -0.913761 0
M  V30 5159 O 496.453 2.46321 -1.14185 0
M  V30 5160 C 494.909 1.19249 -3.3957 0
M  V30 5161 C 494.517 0.137616 -4.47789 0
M  V30 5162 C 496.261 1.84537 -3.82291 0
M  V30 5163 C 494.168 0.700478 -5.87237 0
M  V30 5164 H 493.098 0.243417 -0.713627 0
M  V30 5165 H 495.749 -0.101382 -1.8322 0
M  V30 5166 H 494.131 1.98728 -3.42525 0
M  V30 5167 H 495.305 -0.635153 -4.56402 0
M  V30 5168 H 493.62 -0.416855 -4.14308 0
M  V30 5169 H 496.217 2.27616 -4.83834 0
M  V30 5170 H 496.56 2.69054 -3.17672 0
M  V30 5171 H 497.093 1.11739 -3.81784 0
M  V30 5172 H 493.832 -0.106693 -6.55413 0
M  V30 5173 H 493.352 1.4416 -5.82218 0
M  V30 5174 H 495.031 1.18837 -6.35993 0
M  V30 5175 N 495.163 1.55791 0.238111 0
M  V30 5176 C 496.095 1.87513 1.31802 0
M  V30 5177 C 497.108 0.762053 1.43863 0
M  V30 5178 O 498.297 1.04024 1.45056 0
M  V30 5179 C 495.397 2.05402 2.69561 0
M  V30 5180 C 494.57 3.3632 2.79656 0
M  V30 5181 C 493.629 3.43844 3.98319 0
M  V30 5182 O 492.655 4.16994 3.87433 0
M  V30 5183 N 493.857 2.73777 5.11885 0
M  V30 5184 H 496.622 2.80734 1.04922 0
M  V30 5185 H 494.183 1.56135 0.428196 0
M  V30 5186 H 496.175 2.07769 3.47296 0
M  V30 5187 H 494.745 1.18884 2.89111 0
M  V30 5188 H 493.965 3.46195 1.88528 0
M  V30 5189 H 495.253 4.22594 2.83358 0
M  V30 5190 H 494.651 2.14094 5.23622 0
M  V30 5191 H 493.208 2.81825 5.87723 0
M  V30 5192 N 496.642 -0.504142 1.49319 0
M  V30 5193 C 497.552 -1.63248 1.68486 0
M  V30 5194 C 498.568 -1.64488 0.567432 0
M  V30 5195 O 499.744 -1.82966 0.841749 0
M  V30 5196 C 496.809 -2.99627 1.74426 0
M  V30 5197 C 495.87 -3.09039 2.97982 0
M  V30 5198 C 495.103 -4.38913 3.0363 0
M  V30 5199 O 495.326 -5.27528 2.16958 0
M  V30 5200 O 494.26 -4.53231 3.96062 0
M  V30 5201 H 498.086 -1.50008 2.64067 0
M  V30 5202 H 495.671 -0.680086 1.33023 0
M  V30 5203 H 497.553 -3.80689 1.80705 0
M  V30 5204 H 496.228 -3.13136 0.820233 0
M  V30 5205 H 495.135 -2.27177 2.97223 0
M  V30 5206 H 496.468 -3.00456 3.89855 0
M  V30 5207 N 498.12 -1.38341 -0.754957 0
M  V30 5208 C 499.531 -1.30803 -1.3322 0
M  V30 5209 C 499.882 0.0368 -1.96165 0
M  V30 5210 O 499.007 0.938844 -1.94974 0
M  V30 5211 C 499.602 -2.3688 -2.42225 0
M  V30 5212 C 498.161 -2.32925 -2.95674 0
M  V30 5213 C 497.308 -2.19819 -1.69042 0
M  V30 5214 H 500.259 -1.48719 -0.553937 0
M  V30 5215 H 500.28 -2.02517 -3.22129 0
M  V30 5216 H 499.792 -3.34747 -1.96383 0
M  V30 5217 H 497.893 -1.38635 -3.45848 0
M  V30 5218 H 498.006 -3.27008 -3.50146 0
M  V30 5219 H 496.37 -1.66648 -1.92615 0
M  V30 5220 H 497.153 -3.19625 -1.25279 0
M  V30 5221 N 499.598 0.982988 -1.23187 0
M  V30 5222 C 500.528 2.09301 -1.03515 0
M  V30 5223 C 501.509 1.70035 0.0471136 0
M  V30 5224 O 502.694 1.93847 -0.117029 0
M  V30 5225 C 499.824 3.4167 -0.622791 0
M  V30 5226 C 498.778 3.94828 -1.65211 0
M  V30 5227 C 498.104 5.23362 -1.09527 0
M  V30 5228 C 499.404 4.2439 -3.04451 0
M  V30 5229 H 501.098 2.26016 -1.96359 0
M  V30 5230 H 498.644 1.08611 -0.945501 0
M  V30 5231 H 500.597 4.18746 -0.472233 0
M  V30 5232 H 499.321 3.24811 0.341329 0
M  V30 5233 H 497.98 3.19895 -1.79061 0
M  V30 5234 H 497.628 5.02852 -0.122211 0
M  V30 5235 H 497.328 5.59895 -1.783 0
M  V30 5236 H 498.852 6.03062 -0.956511 0
M  V30 5237 H 500.266 4.92225 -2.93917 0
M  V30 5238 H 498.663 4.72118 -3.70438 0
M  V30 5239 H 499.733 3.31765 -3.53638 0
M  V30 5240 N 501.076 1.04316 1.18135 0
M  V30 5241 C 501.986 0.646876 2.25505 0
M  V30 5242 C 503.002 -0.328008 1.7088 0
M  V30 5243 O 504.178 -0.182309 2.00573 0
M  V30 5244 C 501.243 0.0185664 3.46695 0
M  V30 5245 C 500.304 1.04277 4.16443 0
M  V30 5246 C 499.537 0.444352 5.31847 0
M  V30 5247 O 499.76 -0.748735 5.65465 0
M  V30 5248 O 498.694 1.17428 5.90334 0
M  V30 5249 H 502.52 1.54147 2.61672 0
M  V30 5250 H 500.105 0.814188 1.25265 0
M  V30 5251 H 501.987 -0.331068 4.20097 0
M  V30 5252 H 500.662 -0.849814 3.12346 0
M  V30 5253 H 499.569 1.44425 3.45098 0
M  V30 5254 H 500.902 1.882 4.54798 0
M  V30 5255 N 502.554 -1.34406 0.822964 0
M  V30 5256 C 503.517 -2.2783 0.250271 0
M  V30 5257 C 504.517 -1.50288 -0.571854 0
M  V30 5258 O 505.707 -1.69825 -0.387952 0
M  V30 5259 C 502.839 -3.34663 -0.649137 0
M  V30 5260 H 504.032 -2.79992 1.07444 0
M  V30 5261 H 501.585 -1.44539 0.594829 0
M  V30 5262 H 502.32 -2.87714 -1.49637 0
M  V30 5263 H 502.105 -3.92052 -0.0611199 0
M  V30 5264 H 503.595 -4.04349 -1.04363 0
M  V30 5265 N 504.032 -0.577932 -1.46621 0
M  V30 5266 C 505.278 -0.0617793 -2.02706 0
M  V30 5267 C 505.611 1.29294 -1.44903 0
M  V30 5268 O 504.886 1.8461 -0.61232 0
M  V30 5269 C 505.169 0.00911824 -3.60099 0
M  V30 5270 C 505.022 -1.37416 -4.28295 0
M  V30 5271 C 506.341 0.712159 -4.343 0
M  V30 5272 H 503.46 -0.0239246 -0.736612 0
M  V30 5273 H 506.102 -0.744211 -1.74818 0
M  V30 5274 H 504.252 0.590292 -3.83989 0
M  V30 5275 H 505.924 -2.00013 -4.15683 0
M  V30 5276 H 504.167 -1.94319 -3.87843 0
M  V30 5277 H 504.838 -1.27707 -5.37024 0
M  V30 5278 H 507.314 0.218486 -4.15526 0
M  V30 5279 H 506.19 0.730782 -5.44014 0
M  V30 5280 H 506.451 1.77251 -4.05012 0
M  V30 5281 N 505.51 1.54411 -0.315457 0
M  V30 5282 C 506.787 1.92562 0.343398 0
M  V30 5283 C 507.167 1.24423 1.70535 0
M  V30 5284 O 506.515 0.385051 2.25232 0
M  V30 5285 C 506.725 3.46168 0.443687 0
M  V30 5286 C 508.073 4.18659 0.707783 0
M  V30 5287 O 509.097 3.52281 0.52693 0
M  V30 5288 O 507.956 5.36198 1.05612 0
M  V30 5289 H 505.05 0.80379 0.194552 0
M  V30 5290 H 507.596 1.65738 -0.364577 0
M  V30 5291 H 506.368 3.8792 -0.513172 0
M  V30 5292 H 505.991 3.79073 1.19956 0
M  V30 5293 N 506.988 0.0434614 1.5754 0
M  V30 5294 C 508.236 -0.630786 1.92004 0
M  V30 5295 C 508.557 -1.71836 0.921807 0
M  V30 5296 O 507.827 -1.9587 -0.034522 0
M  V30 5297 H 506.407 -0.235988 0.708745 0
M  V30 5298 H 509.069 0.0946462 1.9467 0
M  V30 5299 H 508.165 -1.07434 2.93026 0
M  V30 5300 N 508.466 -1.55915 -0.229846 0
M  V30 5301 C 509.396 -1.94754 -1.28815 0
M  V30 5302 C 510.377 -0.814657 -1.49323 0
M  V30 5303 O 511.562 -1.07631 -1.61645 0
M  V30 5304 C 508.692 -2.25705 -2.63959 0
M  V30 5305 C 507.646 -3.41406 -2.5812 0
M  V30 5306 C 506.972 -3.57941 -3.97218 0
M  V30 5307 C 508.272 -4.76616 -2.13623 0
M  V30 5308 H 509.966 -2.83404 -0.965547 0
M  V30 5309 H 507.512 -1.36353 -0.463028 0
M  V30 5310 H 509.465 -2.51467 -3.38146 0
M  V30 5311 H 508.189 -1.339 -2.9789 0
M  V30 5312 H 506.848 -3.1568 -1.86391 0
M  V30 5313 H 506.496 -2.63526 -4.28443 0
M  V30 5314 H 506.196 -4.35757 -3.94195 0
M  V30 5315 H 507.72 -3.86042 -4.73079 0
M  V30 5316 H 509.134 -5.01637 -2.77549 0
M  V30 5317 H 507.531 -5.57655 -2.21677 0
M  V30 5318 H 508.601 -4.7253 -1.08829 0
M  V30 5319 N 509.944 0.496216 -1.49584 0
M  V30 5320 C 510.877 1.61508 -1.61215 0
M  V30 5321 C 511.855 1.55927 -0.461045 0
M  V30 5322 O 513.039 1.75914 -0.677231 0
M  V30 5323 C 510.166 3.00035 -1.57152 0
M  V30 5324 C 509.212 3.23861 -2.77518 0
M  V30 5325 S 510.045 3.06466 -4.39134 0
M  V30 5326 C 511.201 4.4738 -4.37724 0
M  V30 5327 H 511.434 1.51398 -2.55863 0
M  V30 5328 H 508.967 0.681727 -1.38535 0
M  V30 5329 H 510.925 3.7991 -1.55494 0
M  V30 5330 H 509.586 3.07556 -0.637834 0
M  V30 5331 H 508.779 4.25 -2.70908 0
M  V30 5332 H 508.381 2.51716 -2.76614 0
M  V30 5333 H 510.673 5.39556 -4.09738 0
M  V30 5334 H 511.616 4.59038 -5.39156 0
M  V30 5335 H 512.024 4.28283 -3.67742 0
M  V30 5336 N 511.423 1.38739 0.74761 0
M  V30 5337 C 512.834 1.31507 1.32524 0
M  V30 5338 C 513.185 -0.0263963 1.96182 0
M  V30 5339 O 512.31 -0.92849 1.95469 0
M  V30 5340 C 512.905 2.38162 2.40966 0
M  V30 5341 C 511.464 2.34489 2.94434 0
M  V30 5342 C 510.611 2.20712 1.67873 0
M  V30 5343 H 513.562 1.4901 0.546043 0
M  V30 5344 H 513.583 2.04222 3.21051 0
M  V30 5345 H 513.095 3.35783 1.94605 0
M  V30 5346 H 511.196 1.40467 3.45108 0
M  V30 5347 H 511.309 3.28861 3.48407 0
M  V30 5348 H 509.673 1.67667 1.91729 0
M  V30 5349 H 510.456 3.20285 1.23582 0
M  V30 5350 N 512.901 -0.976442 1.23707 0
M  V30 5351 C 514.147 -1.72081 1.07312 0
M  V30 5352 C 514.48 -1.90275 -0.388476 0
M  V30 5353 O 513.755 -1.4579 -1.28746 0
M  V30 5354 C 514.038 -3.11675 1.80363 0
M  V30 5355 C 513.891 -3.01027 3.3422 0
M  V30 5356 C 515.21 -4.1117 1.5693 0
M  V30 5357 H 512.329 -0.624583 0.391236 0
M  V30 5358 H 514.971 -1.13649 1.52263 0
M  V30 5359 H 513.121 -3.61559 1.42153 0
M  V30 5360 H 514.793 -2.58637 3.81975 0
M  V30 5361 H 513.036 -2.3744 3.63049 0
M  V30 5362 H 513.707 -3.9988 3.80525 0
M  V30 5363 H 516.183 -3.7011 1.90151 0
M  V30 5364 H 515.059 -5.06928 2.10513 0
M  V30 5365 H 515.32 -4.392 0.505548 0
M  V30 5366 N 514.379 -1.04941 -1.1758 0
M  V30 5367 C 515.79 -0.784501 -1.69418 0
M  V30 5368 C 516.141 0.693625 -1.8353 0
M  V30 5369 O 515.266 1.53925 -1.52106 0
M  V30 5370 C 515.861 -1.41746 -3.07723 0
M  V30 5371 C 514.42 -1.20066 -3.56737 0
M  V30 5372 C 513.567 -1.5026 -2.33061 0
M  V30 5373 H 516.518 -1.21469 -1.02133 0
M  V30 5374 H 516.539 -0.825381 -3.7144 0
M  V30 5375 H 516.051 -2.49325 -2.9742 0
M  V30 5376 H 514.152 -0.144006 -3.72322 0
M  V30 5377 H 514.265 -1.90384 -4.39648 0
M  V30 5378 H 512.629 -0.922598 -2.37403 0
M  V30 5379 H 513.412 -2.58967 -2.25368 0
M  V30 5380 N 515.857 1.33968 -0.830081 0
M  V30 5381 C 516.789 2.28194 -0.21448 0
M  V30 5382 C 517.802 1.5135 0.599752 0
M  V30 5383 O 518.991 1.73286 0.42826 0
M  V30 5384 C 516.091 3.31221 0.717356 0
M  V30 5385 C 515.264 4.37365 -0.055613 0
M  V30 5386 C 514.323 5.2011 0.798231 0
M  V30 5387 O 513.349 5.68691 0.240616 0
M  V30 5388 N 514.551 5.40523 2.11695 0
M  V30 5389 H 517.316 2.81662 -1.02405 0
M  V30 5390 H 514.877 1.46568 -0.687713 0
M  V30 5391 H 516.869 3.83477 1.29334 0
M  V30 5392 H 515.439 2.78095 1.42765 0
M  V30 5393 H 514.659 3.85727 -0.812936 0
M  V30 5394 H 515.947 5.05397 -0.587444 0
M  V30 5395 H 515.345 5.0274 2.59363 0
M  V30 5396 H 513.902 5.95871 2.64162 0
M  V30 5397 N 517.335 0.585699 1.46312 0
M  V30 5398 C 518.583 0.072278 2.01971 0
M  V30 5399 C 518.904 -1.29345 1.45928 0
M  V30 5400 O 518.174 -1.84973 0.645109 0
M  V30 5401 H 516.754 0.023729 0.746623 0
M  V30 5402 H 519.416 0.762155 1.7938 0
M  V30 5403 H 518.512 0.00552767 3.121 0
M  V30 5404 N 518.813 -1.54241 0.323641 0
M  V30 5405 C 520.224 -1.85975 -0.164405 0
M  V30 5406 C 520.575 -1.24529 -1.51615 0
M  V30 5407 O 519.7 -0.551351 -2.09258 0
M  V30 5408 C 520.295 -3.37424 -0.305091 0
M  V30 5409 C 518.854 -3.69107 -0.737358 0
M  V30 5410 C 518.001 -2.76942 0.140884 0
M  V30 5411 H 520.952 -1.49088 0.543922 0
M  V30 5412 H 520.973 -3.63147 -1.13598 0
M  V30 5413 H 520.485 -3.82116 0.678876 0
M  V30 5414 H 518.586 -3.29947 -1.73107 0
M  V30 5415 H 518.699 -4.76035 -0.541053 0
M  V30 5416 H 517.063 -2.51795 -0.383572 0
M  V30 5417 H 517.846 -3.24461 1.12162 0
M  V30 5418 N 520.291 -0.0518155 -1.57515 0
M  V30 5419 C 521.539 0.620595 -1.92336 0
M  V30 5420 C 521.86 1.71345 -0.930907 0
M  V30 5421 O 521.13 1.95885 0.0241341 0
M  V30 5422 H 519.71 0.232226 -0.709986 0
M  V30 5423 H 522.372 -0.104969 -1.94617 0
M  V30 5424 H 521.468 1.05879 -2.93592 0
M  V30 5425 N 521.769 1.56035 0.221574 0
M  V30 5426 C 522.997 1.8313 0.962864 0
M  V30 5427 C 523.412 0.630934 1.77946 0
M  V30 5428 O 522.769 -0.400519 1.78051 0
M  V30 5429 C 522.82 3.08742 1.88045 0
M  V30 5430 O 522.541 4.24147 1.09686 0
M  V30 5431 C 524.042 3.48824 2.73563 0
M  V30 5432 H 521.262 0.608775 0.282194 0
M  V30 5433 H 523.806 2.03124 0.23681 0
M  V30 5434 H 521.961 2.90723 2.56045 0
M  V30 5435 H 522.375 4.95505 1.71974 0
M  V30 5436 H 523.849 4.39752 3.3365 0
M  V30 5437 H 524.326 2.70575 3.45956 0
M  V30 5438 H 524.932 3.69282 2.10976 0
M  V30 5439 N 523.247 -0.488276 1.49845 0
M  V30 5440 C 524.495 -1.23911 1.59657 0
M  V30 5441 C 524.816 -1.92816 0.291005 0
M  V30 5442 O 524.086 -1.83328 -0.690485 0
M  V30 5443 H 522.666 -0.460357 0.588286 0
M  V30 5444 H 525.328 -0.564794 1.86537 0
M  V30 5445 H 524.424 -1.99625 2.39909 0
M  V30 5446 N 524.725 -1.39134 -0.740242 0
M  V30 5447 C 525.971 -1.36273 -1.50192 0
M  V30 5448 C 526.304 0.0430136 -1.94152 0
M  V30 5449 O 525.579 1.00691 -1.66408 0
M  V30 5450 C 525.862 -2.33041 -2.74525 0
M  V30 5451 C 525.715 -3.82535 -2.36617 0
M  V30 5452 C 527.034 -2.27723 -3.76604 0
M  V30 5453 H 524.153 -0.496323 -0.544823 0
M  V30 5454 H 526.795 -1.70085 -0.846815 0
M  V30 5455 H 524.945 -2.04337 -3.30422 0
M  V30 5456 H 526.617 -4.21967 -1.86391 0
M  V30 5457 H 524.86 -3.99565 -1.68909 0
M  V30 5458 H 525.531 -4.45723 -3.2563 0
M  V30 5459 H 528.007 -2.53091 -3.30279 0
M  V30 5460 H 526.883 -2.97519 -4.61274 0
M  V30 5461 H 527.144 -1.28049 -4.2315 0
M  V30 5462 N 526.204 0.969867 -1.24223 0
M  V30 5463 C 527.432 1.74756 -1.10761 0
M  V30 5464 C 527.847 1.85713 0.340041 0
M  V30 5465 O 527.204 1.34389 1.23474 0
M  V30 5466 C 527.255 3.16915 -1.73917 0
M  V30 5467 O 526.976 3.06511 -3.13021 0
M  V30 5468 C 528.477 4.11032 -1.66036 0
M  V30 5469 H 525.697 0.548092 -0.387087 0
M  V30 5470 H 528.241 1.2178 -1.64286 0
M  V30 5471 H 526.396 3.66884 -1.244 0
M  V30 5472 H 526.81 3.96079 -3.43834 0
M  V30 5473 H 528.284 5.08446 -2.14911 0
M  V30 5474 H 528.761 4.34785 -0.621159 0
M  V30 5475 H 529.367 3.66972 -2.14969 0
M  V30 5476 N 527.682 1.05563 1.17022 0
M  V30 5477 C 528.612 0.681026 2.23348 0
M  V30 5478 C 529.593 -0.322983 1.67005 0
M  V30 5479 O 530.778 -0.199746 1.9317 0
M  V30 5480 C 527.908 0.0589053 3.4725 0
M  V30 5481 C 526.862 0.988082 4.16438 0
M  V30 5482 C 526.188 0.229646 5.34207 0
M  V30 5483 C 527.488 2.31388 4.68249 0
M  V30 5484 H 529.182 1.56993 2.54938 0
M  V30 5485 H 526.728 0.756302 1.2254 0
M  V30 5486 H 528.681 -0.214982 4.20851 0
M  V30 5487 H 527.405 -0.864968 3.14938 0
M  V30 5488 H 526.064 1.24659 3.44754 0
M  V30 5489 H 525.712 -0.697111 4.98146 0
M  V30 5490 H 525.412 0.848815 5.81437 0
M  V30 5491 H 526.936 -0.0368694 6.10589 0
M  V30 5492 H 528.35 2.09964 5.33468 0
M  V30 5493 H 526.747 2.88736 5.26072 0
M  V30 5494 H 527.817 2.94982 3.84855 0
M  V30 5495 N 529.16 -1.33526 0.837174 0
M  V30 5496 C 530.437 -1.92369 0.354065 0
M  V30 5497 C 530.817 -1.76348 -1.16038 0
M  V30 5498 O 530.165 -1.15083 -1.97403 0
M  V30 5499 C 530.375 -3.39728 0.799101 0
M  V30 5500 C 531.723 -4.16877 0.806139 0
M  V30 5501 O 532.747 -3.48373 0.742597 0
M  V30 5502 O 531.606 -5.39166 0.892345 0
M  V30 5503 H 528.7 -0.820952 0.0998378 0
M  V30 5504 H 531.246 -1.42409 0.922913 0
M  V30 5505 H 530.018 -3.45254 1.84162 0
M  V30 5506 H 529.641 -3.97062 0.206731 0
M  V30 5507 N 530.638 -0.59345 -1.46 0
M  V30 5508 C 532.054 -0.255965 -1.57534 0
M  V30 5509 C 532.254 1.24167 -1.58697 0
M  V30 5510 O 531.31 2.02398 -1.50968 0
M  V30 5511 C 532.623 -0.91466 -2.86451 0
M  V30 5512 C 534.171 -0.889253 -3.00102 0
M  V30 5513 C 534.646 -1.52769 -4.3177 0
M  V30 5514 N 536.137 -1.49253 -4.38495 0
M  V30 5515 C 536.872 -1.9558 -5.39014 0
M  V30 5516 N 536.368 -2.49929 -6.46148 0
M  V30 5517 N 538.161 -1.86432 -5.30282 0
M  V30 5518 H 530.312 -1.56604 -1.43489 0
M  V30 5519 H 532.575 -0.655207 -0.685133 0
M  V30 5520 H 532.281 -1.96861 -2.91442 0
M  V30 5521 H 532.155 -0.429356 -3.74748 0
M  V30 5522 H 534.542 0.156111 -2.94687 0
M  V30 5523 H 534.623 -1.41268 -2.13253 0
M  V30 5524 H 534.267 -2.57231 -4.37944 0
M  V30 5525 H 534.197 -0.979398 -5.17412 0
M  V30 5526 H 536.688 -1.09536 -3.61677 0
M  V30 5527 H 537.001 -2.83109 -7.19075 0
M  V30 5528 H 535.346 -2.53961 -6.46938 0
M  V30 5529 H 538.537 -1.43722 -4.4549 0
M  V30 5530 H 538.71 -2.22852 -6.08474 0
M  V30 5531 N 532.116 1.54067 -0.331816 0
M  V30 5532 C 533.026 2.28322 0.539104 0
M  V30 5533 C 534.042 1.32985 1.1221 0
M  V30 5534 O 535.218 1.6601 1.1403 0
M  V30 5535 C 532.283 3.03277 1.68 0
M  V30 5536 C 531.344 4.14216 1.12798 0
M  V30 5537 C 530.577 4.85588 2.2145 0
M  V30 5538 O 530.8 4.56536 3.41952 0
M  V30 5539 O 529.734 5.72309 1.86404 0
M  V30 5540 H 533.56 3.03632 -0.0641692 0
M  V30 5541 H 531.145 1.49083 -0.0972365 0
M  V30 5542 H 533.027 3.50189 2.34405 0
M  V30 5543 H 531.702 2.30834 2.2693 0
M  V30 5544 H 530.609 3.71635 0.428782 0
M  V30 5545 H 531.942 4.88727 0.583698 0
M  V30 5546 N 533.594 0.0601682 1.57485 0
M  V30 5547 C 534.841 -0.611594 1.93043 0
M  V30 5548 C 535.169 -1.70317 0.939274 0
M  V30 5549 O 534.424 -1.95644 -0.046996 0
M  V30 5550 C 534.723 -1.23831 3.35262 0
M  V30 5551 C 534.389 -0.274037 4.50066 0
M  V30 5552 C 533.051 -0.00872394 4.81199 0
M  V30 5553 C 535.403 0.386308 5.19766 0
M  V30 5554 C 532.731 0.924218 5.79375 0
M  V30 5555 C 535.083 1.3075 6.1894 0
M  V30 5556 C 533.747 1.58139 6.48497 0
M  V30 5557 H 533.017 -0.223798 0.706396 0
M  V30 5558 H 535.664 0.128566 1.91068 0
M  V30 5559 H 533.969 -2.05394 3.33647 0
M  V30 5560 H 535.666 -1.76517 3.60059 0
M  V30 5561 H 532.256 -0.491008 4.25778 0
M  V30 5562 H 536.44 0.194436 4.95919 0
M  V30 5563 H 531.696 1.1438 6.00606 0
M  V30 5564 H 535.87 1.82519 6.72056 0
M  V30 5565 H 533.497 2.30593 7.24383 0
M  V30 5566 N 535.072 -1.5615 -0.213296 0
M  V30 5567 C 536.002 -1.96109 -1.26742 0
M  V30 5568 C 536.983 -0.830448 -1.48451 0
M  V30 5569 O 538.168 -1.09339 -1.60495 0
M  V30 5570 C 535.298 -2.28492 -2.61551 0
M  V30 5571 C 534.252 -3.44124 -2.54485 0
M  V30 5572 C 533.578 -3.62134 -3.93399 0
M  V30 5573 C 534.878 -4.78855 -2.08556 0
M  V30 5574 H 536.572 -2.84412 -0.935434 0
M  V30 5575 H 534.118 -1.36836 -0.44854 0
M  V30 5576 H 536.071 -2.55039 -3.3546 0
M  V30 5577 H 534.795 -1.37052 -2.96453 0
M  V30 5578 H 533.454 -3.17639 -1.83033 0
M  V30 5579 H 533.102 -2.68055 -4.25623 0
M  V30 5580 H 532.802 -4.39913 -3.89551 0
M  V30 5581 H 534.326 -3.91038 -4.68958 0
M  V30 5582 H 535.74 -5.04552 -2.72213 0
M  V30 5583 H 534.137 -5.59975 -2.1575 0
M  V30 5584 H 535.207 -4.73657 -1.03811 0
M  V30 5585 N 536.55 0.480323 -1.50102 0
M  V30 5586 C 537.513 1.56181 -1.6775 0
M  V30 5587 C 538.513 1.51156 -0.548503 0
M  V30 5588 O 539.703 1.5394 -0.815363 0
M  V30 5589 C 536.835 2.95823 -1.69415 0
M  V30 5590 H 538.028 1.41855 -2.6423 0
M  V30 5591 H 535.581 0.70605 -1.39444 0
M  V30 5592 H 536.316 3.15604 -0.745948 0
M  V30 5593 H 536.101 3.00878 -2.51425 0
M  V30 5594 H 537.591 3.74359 -1.85054 0
M  V30 5595 N 538.028 1.39524 0.732853 0
M  V30 5596 C 539.256 1.40143 1.52209 0
M  V30 5597 C 539.671 -0.00348836 1.888 0
M  V30 5598 O 539.028 -0.975357 1.5425 0
M  V30 5599 C 539.079 2.27632 2.8083 0
M  V30 5600 O 538.8 3.62654 2.45792 0
M  V30 5601 C 540.301 2.36658 3.74844 0
M  V30 5602 H 537.521 0.478604 0.470297 0
M  V30 5603 H 540.065 1.83366 0.905388 0
M  V30 5604 H 538.22 1.87818 3.38826 0
M  V30 5605 H 538.634 4.08941 3.28431 0
M  V30 5606 H 540.108 3.02118 4.61984 0
M  V30 5607 H 540.585 1.38638 4.16745 0
M  V30 5608 H 541.191 2.76951 3.22766 0
M  V30 5609 N 539.506 -0.963266 1.24736 0
M  V30 5610 C 540.752 -1.70933 1.09131 0
M  V30 5611 C 541.085 -1.90676 -0.368273 0
M  V30 5612 O 540.36 -1.47147 -1.27193 0
M  V30 5613 C 540.643 -3.09744 1.83658 0
M  V30 5614 C 540.496 -2.97465 3.37394 0
M  V30 5615 C 541.815 -4.09483 1.61282 0
M  V30 5616 H 538.934 -0.620398 0.397838 0
M  V30 5617 H 541.576 -1.12028 1.53459 0
M  V30 5618 H 539.726 -3.60031 1.4598 0
M  V30 5619 H 541.398 -2.54571 3.84696 0
M  V30 5620 H 539.641 -2.33576 3.65547 0
M  V30 5621 H 540.312 -3.95822 3.84745 0
M  V30 5622 H 542.788 -3.68073 1.94066 0
M  V30 5623 H 541.664 -5.04666 2.15878 0
M  V30 5624 H 541.925 -4.38639 0.552102 0
M  V30 5625 N 540.985 -1.06182 -1.16461 0
M  V30 5626 C 542.213 -0.798583 -1.90867 0
M  V30 5627 C 542.628 0.646921 -1.77371 0
M  V30 5628 O 541.985 1.44279 -1.11758 0
M  V30 5629 C 542.036 -1.18258 -3.4161 0
M  V30 5630 O 541.757 -2.57135 -3.54701 0
M  V30 5631 C 543.258 -0.946917 -4.33069 0
M  V30 5632 H 540.478 -0.289603 -0.605286 0
M  V30 5633 H 543.022 -1.41515 -1.47627 0
M  V30 5634 H 541.177 -0.610562 -3.82558 0
M  V30 5635 H 541.591 -2.72477 -4.4817 0
M  V30 5636 H 543.065 -1.26523 -5.37304 0
M  V30 5637 H 543.542 0.117406 -4.39043 0
M  V30 5638 H 544.148 -1.50326 -3.97847 0
M  V30 5639 N 542.463 1.3308 -0.844243 0
M  V30 5640 C 543.373 2.32876 -0.283922 0
M  V30 5641 C 544.389 1.63589 0.592846 0
M  V30 5642 O 545.565 1.95205 0.495693 0
M  V30 5643 C 542.63 3.42667 0.527283 0
M  V30 5644 C 541.691 4.27664 -0.374394 0
M  V30 5645 C 540.924 5.32212 0.39819 0
M  V30 5646 O 541.147 5.46635 1.62932 0
M  V30 5647 O 540.081 6.01458 -0.2306 0
M  V30 5648 H 543.907 2.82671 -1.11045 0
M  V30 5649 H 541.492 1.36518 -0.606903 0
M  V30 5650 H 543.374 4.09652 0.988078 0
M  V30 5651 H 542.049 2.95079 1.33078 0
M  V30 5652 H 540.956 3.63526 -0.883144 0
M  V30 5653 H 542.289 4.78749 -1.1428 0
M  V30 5654 N 543.941 0.601185 1.45683 0
M  V30 5655 C 544.904 -0.111398 2.28929 0
M  V30 5656 C 545.904 -0.801246 1.39416 0
M  V30 5657 O 547.094 -0.650383 1.61603 0
M  V30 5658 C 544.226 -1.16773 3.20276 0
M  V30 5659 H 545.419 0.620412 2.93413 0
M  V30 5660 H 542.972 0.359946 1.52099 0
M  V30 5661 H 543.707 -1.93051 2.60579 0
M  V30 5662 H 543.492 -0.677358 3.86205 0
M  V30 5663 H 544.982 -1.66698 3.82886 0
M  V30 5664 N 545.419 -1.53889 0.339982 0
M  V30 5665 C 546.351 -2.22435 -0.55275 0
M  V30 5666 C 547.364 -1.22975 -1.06681 0
M  V30 5667 O 548.553 -1.49351 -0.977575 0
M  V30 5668 C 545.653 -2.8882 -1.77302 0
M  V30 5669 C 544.826 -4.14563 -1.39486 0
M  V30 5670 C 543.885 -4.64391 -2.47442 0
M  V30 5671 O 542.911 -5.28687 -2.10899 0
M  V30 5672 N 544.113 -4.40015 -3.78639 0
M  V30 5673 H 546.878 -2.9968 0.0342669 0
M  V30 5674 H 544.439 -1.61068 0.16394 0
M  V30 5675 H 546.431 -3.19072 -2.48948 0
M  V30 5676 H 545.001 -2.15182 -2.26749 0
M  V30 5677 H 544.221 -3.90896 -0.509321 0
M  V30 5678 H 545.509 -4.96362 -1.11813 0
M  V30 5679 H 544.907 -3.88586 -4.11118 0
M  V30 5680 H 543.464 -4.74881 -4.46465 0
M  V30 5681 N 546.897 -0.0685191 -1.57451 0
M  V30 5682 C 547.807 0.914677 -2.16034 0
M  V30 5683 C 548.823 1.32938 -1.12265 0
M  V30 5684 O 549.999 1.40275 -1.44516 0
M  V30 5685 C 547.064 2.16519 -2.70777 0
M  V30 5686 C 546.125 1.80721 -3.89408 0
M  V30 5687 C 545.358 2.9981 -4.41531 0
M  V30 5688 O 545.581 4.13727 -3.92666 0
M  V30 5689 O 544.515 2.79817 -5.32903 0
M  V30 5690 H 548.341 0.446364 -3.00402 0
M  V30 5691 H 545.926 0.154367 -1.486 0
M  V30 5692 H 547.808 2.89856 -3.05878 0
M  V30 5693 H 546.483 2.62454 -1.89471 0
M  V30 5694 H 545.39 1.04646 -3.59166 0
M  V30 5695 H 546.723 1.39571 -4.71997 0
M  V30 5696 N 548.375 1.56261 0.205012 0
M  V30 5697 C 549.285 1.96944 1.27476 0
M  V30 5698 C 550.301 0.875636 1.50362 0
M  V30 5699 O 551.477 1.18058 1.6317 0
M  V30 5700 C 548.542 2.29219 2.60115 0
M  V30 5701 C 547.603 3.52255 2.45387 0
M  V30 5702 C 546.836 3.8298 3.71701 0
M  V30 5703 O 547.059 3.15138 4.75441 0
M  V30 5704 O 545.993 4.76435 3.67823 0
M  V30 5705 H 549.819 2.88144 0.959527 0
M  V30 5706 H 547.404 1.43686 0.409217 0
M  V30 5707 H 549.286 2.51098 3.3842 0
M  V30 5708 H 547.961 1.4119 2.91285 0
M  V30 5709 H 546.868 3.35635 1.65227 0
M  V30 5710 H 548.201 4.40719 2.19152 0
M  V30 5711 N 549.853 -0.472356 1.50355 0
M  V30 5712 C 550.803 -1.56809 1.65514 0
M  V30 5713 C 551.787 -1.5261 0.509801 0
M  V30 5714 O 552.979 -1.59655 0.764145 0
M  V30 5715 C 550.108 -2.9526 1.75146 0
M  V30 5716 C 549.194 -3.04348 2.95353 0
M  V30 5717 N 549.585 -2.83253 4.19048 0
M  V30 5718 C 547.883 -3.35482 2.93884 0
M  V30 5719 C 548.584 -2.97273 5.00003 0
M  V30 5720 N 547.56 -3.27418 4.33934 0
M  V30 5721 H 551.362 -1.39197 2.58846 0
M  V30 5722 H 548.876 -0.67906 1.47521 0
M  V30 5723 H 550.873 -3.74044 1.8411 0
M  V30 5724 H 549.533 -3.1392 0.829717 0
M  V30 5725 H 550.544 -2.5886 4.48567 0
M  V30 5726 H 547.221 -3.60138 2.11204 0
M  V30 5727 H 548.611 -2.85214 6.08361 0
M  V30 5728 N 551.331 -1.39911 -0.725443 0
M  V30 5729 C 552.747 -1.21725 -1.03224 0
M  V30 5730 C 552.947 -0.0855224 -2.01318 0
M  V30 5731 O 552.003 0.55976 -2.46217 0
M  V30 5732 C 553.316 -2.55511 -1.58539 0
M  V30 5733 C 554.864 -2.62439 -1.70572 0
M  V30 5734 C 555.339 -3.9647 -2.29294 0
M  V30 5735 N 556.83 -3.98159 -2.36692 0
M  V30 5736 C 557.565 -4.98647 -2.83088 0
M  V30 5737 N 557.061 -6.0953 -3.2931 0
M  V30 5738 N 558.854 -4.8602 -2.82384 0
M  V30 5739 H 551.005 -2.12267 -0.075048 0
M  V30 5740 H 553.268 -0.943136 -0.0959066 0
M  V30 5741 H 552.974 -3.38926 -0.939249 0
M  V30 5742 H 552.848 -2.75905 -2.57208 0
M  V30 5743 H 555.235 -1.79401 -2.34306 0
M  V30 5744 H 555.316 -2.45885 -0.705297 0
M  V30 5745 H 554.96 -4.79942 -1.66186 0
M  V30 5746 H 554.89 -4.10349 -3.30032 0
M  V30 5747 H 557.381 -3.18085 -2.04035 0
M  V30 5748 H 557.694 -6.82106 -3.6325 0
M  V30 5749 H 556.039 -6.1311 -3.27294 0
M  V30 5750 H 559.23 -3.98493 -2.45603 0
M  V30 5751 H 559.403 -5.64478 -3.18226 0
M  V30 5752 N 552.809 0.956637 -1.25245 0
M  V30 5753 C 553.772 2.03457 -1.05537 0
M  V30 5754 C 554.772 1.60798 -0.00886317 0
M  V30 5755 O 555.962 1.72384 -0.250865 0
M  V30 5756 C 553.094 3.35543 -0.601965 0
M  V30 5757 H 554.287 2.22372 -2.01223 0
M  V30 5758 H 551.84 1.13344 -1.07623 0
M  V30 5759 H 552.575 3.22323 0.357584 0
M  V30 5760 H 552.36 3.67854 -1.35743 0
M  V30 5761 H 553.85 4.14769 -0.485454 0
M  V30 5762 O 554.326 1.1921 1.08956 0
M  V30 5763 H 555.017 0.939352 1.69399 0
M  V30 END ATOM
M  V30 BEGIN BOND
M  V30 END BOND
M  V30 END CTAB
M  END
$$$$
