drugbank_target|Q9S427 Protein-tyrosine-phosphatase (DB05260)
 OpenBabel12092120263D

  0  0  0     0  0            999 V3000
M  V30 BEGIN CTAB
M  V30 COUNTS 5736 5793 0 0 0
M  V30 BEGIN ATOM
M  V30 1 H -0.908 1.98254 -0.117106 0
M  V30 2 N 0 1.576 0 0
M  V30 3 C 0.933 2.03868 1.02534 0
M  V30 4 C 1.911 0.928543 1.3348 0
M  V30 5 O 3.095 1.19667 1.45644 0
M  V30 6 C 0.222 2.43627 2.35294 0
M  V30 7 C -0.732 3.65373 2.2001 0
M  V30 8 S 0.101 5.13292 1.52614 0
M  V30 9 C 1.257 5.56322 2.86805 0
M  V30 10 H 1.49 2.90518 0.631377 0
M  V30 11 H -0.977 1.52953 0.210867 0
M  V30 12 H 0.981 2.67203 3.11629 0
M  V30 13 H -0.358 1.57376 2.7183 0
M  V30 14 H -1.165 3.90944 3.18086 0
M  V30 15 H -1.563 3.418 1.51819 0
M  V30 16 H 0.729 5.58782 3.83104 0
M  V30 17 H 1.672 6.56266 2.65933 0
M  V30 18 H 2.08 4.83886 2.90714 0
M  V30 19 N 1.4781 -0.272755 1.55222 0
M  V30 20 C 2.4261 -1.35705 1.88909 0
M  V30 21 C 3.4201 -1.5112 0.765456 0
M  V30 22 O 4.6261 -1.52901 0.949802 0
M  V30 23 H 1.0011 -0.453868 0.59959 0
M  V30 24 H 2.9721 -1.04544 2.79487 0
M  V30 25 C 1.7211 -2.71049 2.17779 0
M  V30 26 H 1.0441 -2.59979 3.03728 0
M  V30 27 H 2.4841 -3.45858 2.45272 0
M  V30 28 C 0.9431 -3.22165 0.985473 0
M  V30 29 O 1.4731 -4.01096 0.220233 0
M  V30 30 N -0.3209 -2.7985 0.783108 0
M  V30 31 H -0.7739 -2.15775 1.40708 0
M  V30 32 H -0.8159 -3.14397 -0.0130392 0
M  V30 33 N 2.9562 -1.48159 -0.537278 0
M  V30 34 C 3.9032 -1.62138 -1.64256 0
M  V30 35 C 4.8732 -0.463668 -1.59497 0
M  V30 36 O 6.0582 -0.686241 -1.78032 0
M  V30 37 C 3.1982 -1.66028 -3.02537 0
M  V30 38 C 2.3112 -2.92855 -3.17585 0
M  V30 39 C 1.4462 -2.87952 -4.46382 0
M  V30 40 C 0.4852 -4.09516 -4.54932 0
M  V30 41 N -0.3778 -4.02733 -5.75109 0
M  V30 42 H 4.4622 -2.56529 -1.51647 0
M  V30 43 H 1.9992 -1.27224 -0.738414 0
M  V30 44 H 3.9572 -1.66265 -3.82638 0
M  V30 45 H 2.5872 -0.751331 -3.13934 0
M  V30 46 H 1.6392 -3.02395 -2.30784 0
M  V30 47 H 2.9512 -3.82822 -3.19764 0
M  V30 48 H 2.1052 -2.8655 -5.34765 0
M  V30 49 H 0.8442 -1.95702 -4.46712 0
M  V30 50 H -0.1508 -4.11201 -3.64957 0
M  V30 51 H 1.0742 -5.02917 -4.56346 0
M  V30 52 H -0.9798 -3.13299 -5.76351 0
M  V30 53 H -1.0628 -4.86397 -5.78752 0
M  V30 54 H 0.2052 -4.05379 -6.65799 0
M  V30 55 N 4.4343 0.785586 -1.36625 0
M  V30 56 C 5.6833 1.53883 -1.30396 0
M  V30 57 C 5.9963 1.95271 0.113452 0
M  V30 58 O 7.2023 2.69858 0.298142 0
M  V30 59 C 5.6583 2.77808 -2.28802 0
M  V30 60 C 5.2663 2.43574 -3.75999 0
M  V30 61 C 7.0103 3.55783 -2.31558 0
M  V30 62 C 4.9173 3.63919 -4.66173 0
M  V30 63 H 3.8473 0.577678 -0.484566 0
M  V30 64 H 6.4983 0.861705 -1.62009 0
M  V30 65 H 4.8803 3.47339 -1.90188 0
M  V30 66 H 6.0543 1.81916 -4.23371 0
M  V30 67 H 4.3693 1.78803 -3.76056 0
M  V30 68 H 6.9663 4.45205 -2.96137 0
M  V30 69 H 7.3093 3.94644 -1.3252 0
M  V30 70 H 7.8423 2.93235 -2.68809 0
M  V30 71 H 4.5813 3.3015 -5.66287 0
M  V30 72 H 4.1013 4.2473 -4.23515 0
M  V30 73 H 5.7803 4.30901 -4.82632 0
M  V30 74 N 5.9124 1.20967 1.01018 0
M  V30 75 C 7.1424 1.04803 1.78044 0
M  V30 76 C 7.5504 -0.405462 1.84804 0
M  V30 77 O 6.8934 -1.2932 1.30468 0
M  V30 78 C 6.9554 1.56377 3.23707 0
M  V30 79 C 6.6194 3.04767 3.40538 0
M  V30 80 C 7.6164 4.02366 3.29239 0
M  V30 81 C 5.3014 3.43862 3.66147 0
M  V30 82 C 7.2954 5.37049 3.43304 0
M  V30 83 C 4.9824 4.78699 3.79855 0
M  V30 84 C 5.9804 5.75101 3.68439 0
M  V30 85 O 5.6684 7.07493 3.81719 0
M  V30 86 H 5.4004 0.368778 0.56655 0
M  V30 87 H 7.9544 1.60642 1.27997 0
M  V30 88 H 6.1844 0.949297 3.74867 0
M  V30 89 H 7.8734 1.36136 3.8239 0
M  V30 90 H 8.6394 3.73506 3.09384 0
M  V30 91 H 4.5184 2.69364 3.74118 0
M  V30 92 H 8.0624 6.12277 3.34309 0
M  V30 93 H 3.9594 5.07247 3.99213 0
M  V30 94 H 4.7274 7.1483 3.98697 0
M  V30 95 N 7.3905 -1.2043 1.01659 0
M  V30 96 C 8.6305 -1.91507 0.714456 0
M  V30 97 C 8.9945 -1.77073 -0.742237 0
M  V30 98 O 10.1955 -2.42631 -1.15688 0
M  V30 99 C 8.4665 -3.38795 1.13809 0
M  V30 100 S 10.0255 -4.28216 0.957925 0
M  V30 101 H 6.8435 -0.661571 0.260471 0
M  V30 102 H 9.4455 -1.45671 1.30384 0
M  V30 103 H 8.1495 -3.46822 2.19415 0
M  V30 104 H 7.6805 -3.89656 0.541474 0
M  V30 105 H 9.6955 -4.96007 -0.138531 0
M  V30 106 N 8.8686 -0.792821 -1.36206 0
M  V30 107 C 9.7986 -0.207853 -2.32573 0
M  V30 108 C 10.7796 0.659055 -1.56813 0
M  V30 109 O 11.9646 0.592176 -1.84951 0
M  V30 110 C 9.0946 0.655449 -3.41059 0
M  V30 111 C 8.0486 -0.111842 -4.27854 0
M  V30 112 C 7.3746 0.872274 -5.27537 0
M  V30 113 C 8.6746 -1.30299 -5.05786 0
M  V30 114 H 10.3686 -1.01294 -2.81744 0
M  V30 115 H 7.9146 -0.48854 -1.3546 0
M  V30 116 H 9.8676 1.07464 -4.07467 0
M  V30 117 H 8.5916 1.49328 -2.90463 0
M  V30 118 H 7.2506 -0.512053 -3.63006 0
M  V30 119 H 6.8986 1.70523 -4.73214 0
M  V30 120 H 6.5986 0.363291 -5.86476 0
M  V30 121 H 8.1226 1.28996 -5.96818 0
M  V30 122 H 9.5366 -0.959379 -5.65216 0
M  V30 123 H 7.9336 -1.7455 -5.74154 0
M  V30 124 H 9.0036 -2.09663 -4.37229 0
M  V30 125 N 10.3467 1.47872 -0.545128 0
M  V30 126 C 11.3097 2.28337 0.198717 0
M  V30 127 C 12.3097 1.36255 0.853888 0
M  V30 128 O 13.4997 1.59003 0.711606 0
M  V30 129 C 10.6317 3.15585 1.28915 0
M  V30 130 H 11.8247 2.95567 -0.507941 0
M  V30 131 H 9.3777 1.53362 -0.301616 0
M  V30 132 H 10.1127 2.53019 2.02859 0
M  V30 133 H 9.8977 3.83337 0.824309 0
M  V30 134 H 11.3877 3.76243 1.81194 0
M  V30 135 N 11.8248 0.280983 1.55075 0
M  V30 136 C 13.0708 -0.33461 2.00021 0
M  V30 137 C 13.4038 -1.55063 1.16915 0
M  V30 138 O 12.6788 -1.93006 0.240646 0
M  V30 139 C 12.9618 -0.711007 3.53011 0
M  V30 140 C 12.8148 0.512766 4.46868 0
M  V30 141 C 14.1338 -1.54522 4.12081 0
M  V30 142 H 11.2528 -0.120147 0.727141 0
M  V30 143 H 13.8948 0.389097 1.85973 0
M  V30 144 H 12.0448 -1.32761 3.65112 0
M  V30 145 H 13.7168 1.15131 4.46702 0
M  V30 146 H 11.9598 1.14975 4.18286 0
M  V30 147 H 12.6308 0.205556 5.51617 0
M  V30 148 H 15.1068 -1.02442 4.03293 0
M  V30 149 H 13.9828 -1.77739 5.19327 0
M  V30 150 H 14.2438 -2.52813 3.62682 0
M  V30 151 N 13.3029 -1.57598 0.00835791 0
M  V30 152 C 14.2329 -2.1198 -0.979113 0
M  V30 153 C 15.2139 -1.03091 -1.35301 0
M  V30 154 O 16.3989 -1.30818 -1.43528 0
M  V30 155 C 13.5289 -2.62995 -2.26828 0
M  V30 156 C 12.4829 -3.76485 -2.03576 0
M  V30 157 C 11.8089 -4.13846 -3.38579 0
M  V30 158 C 13.1089 -5.0342 -1.39161 0
M  V30 159 H 14.8029 -2.94738 -0.526281 0
M  V30 160 H 12.3489 -1.41783 -0.251704 0
M  V30 161 H 14.3019 -2.99669 -2.96271 0
M  V30 162 H 13.0259 -1.7737 -2.7424 0
M  V30 163 H 11.6849 -3.40217 -1.36557 0
M  V30 164 H 11.3329 -3.25232 -3.83709 0
M  V30 165 H 11.0329 -4.90312 -3.23834 0
M  V30 166 H 12.5569 -4.53086 -4.09323 0
M  V30 167 H 13.9709 -5.37812 -1.98573 0
M  V30 168 H 12.3679 -5.84746 -1.34878 0
M  V30 169 H 13.4379 -4.83548 -0.361868 0
M  V30 170 N 14.781 0.264519 -1.55364 0
M  V30 171 C 16.006 1.01726 -1.80739 0
M  V30 172 C 16.431 1.78836 -0.583044 0
M  V30 173 O 15.789 1.75167 0.467566 0
M  V30 174 C 15.837 1.94482 -3.03659 0
M  V30 175 O 14.941 3.03386 -2.7934 0
M  V30 176 H 14.282 0.290395 -0.597132 0
M  V30 177 H 16.812 0.290854 -2.02522 0
M  V30 178 H 16.822 2.36278 -3.32621 0
M  V30 179 H 15.497 1.37772 -3.92418 0
M  V30 180 H 14.074 2.65844 -2.61498 0
M  V30 181 N 16.2591 1.48442 0.529413 0
M  V30 182 C 17.1891 1.65902 1.64313 0
M  V30 183 C 18.1701 0.507897 1.6234 0
M  V30 184 O 19.3551 0.740503 1.79528 0
M  V30 185 C 16.4851 1.69911 3.02898 0
M  V30 186 C 15.4391 2.8453 3.19729 0
M  V30 187 C 14.7651 2.73629 4.59381 0
M  V30 188 C 16.0651 4.25821 3.02447 0
M  V30 189 H 17.7591 2.5914 1.49955 0
M  V30 190 H 15.3051 1.24709 0.719982 0
M  V30 191 H 17.2581 1.80715 3.80684 0
M  V30 192 H 15.9821 0.732524 3.18279 0
M  V30 193 H 14.6411 2.73283 2.44361 0
M  V30 194 H 14.2891 1.74938 4.71599 0
M  V30 195 H 13.9891 3.50541 4.71588 0
M  V30 196 H 15.5131 2.86401 5.39265 0
M  V30 197 H 16.9271 4.37898 3.70024 0
M  V30 198 H 15.3241 5.03735 3.26146 0
M  V30 199 H 16.3941 4.42244 1.98867 0
M  V30 200 N 17.7372 -0.778329 1.37039 0
M  V30 201 C 18.9652 -1.56734 1.35063 0
M  V30 202 C 19.3802 -1.88686 -0.0655597 0
M  V30 203 O 18.7372 -1.5096 -1.02554 0
M  V30 204 C 18.7882 -2.88163 2.18276 0
M  V30 205 O 18.5092 -2.57583 3.54376 0
M  V30 206 C 20.0102 -3.82422 2.24206 0
M  V30 207 H 17.2302 -0.485778 0.462883 0
M  V30 208 H 19.7742 -0.965185 1.8029 0
M  V30 209 H 17.9292 -3.44818 1.76576 0
M  V30 210 H 18.3432 -3.41699 3.97922 0
M  V30 211 H 19.8172 -4.71667 2.86765 0
M  V30 212 H 20.2942 -4.21078 1.24861 0
M  V30 213 H 20.9002 -3.31697 2.6619 0
M  V30 214 N 19.2153 -1.21501 -1.00376 0
M  V30 215 C 20.1453 -0.999478 -2.11028 0
M  V30 216 C 21.1263 0.0759671 -1.6993 0
M  V30 217 O 22.3113 -0.0841106 -1.94018 0
M  V30 218 C 19.4413 -0.564709 -3.42678 0
M  V30 219 C 18.3953 -1.58486 -3.97576 0
M  V30 220 C 17.7213 -1.00628 -5.25146 0
M  V30 221 C 19.0213 -2.97204 -4.29496 0
M  V30 222 H 20.7153 -1.92495 -2.29317 0
M  V30 223 H 18.2613 -0.92693 -1.102 0
M  V30 224 H 20.2143 -0.401091 -4.19487 0
M  V30 225 H 18.9383 0.396411 -3.24185 0
M  V30 226 H 17.5973 -1.73606 -3.22888 0
M  V30 227 H 17.2453 -0.0368439 -5.02987 0
M  V30 228 H 16.9453 -1.68771 -5.62841 0
M  V30 229 H 18.4693 -0.854015 -6.04598 0
M  V30 230 H 19.8833 -2.8552 -4.97143 0
M  V30 231 H 18.2803 -3.62372 -4.78338 0
M  V30 232 H 19.3503 -3.47956 -3.3772 0
M  V30 233 N 20.6934 1.19889 -1.02296 0
M  V30 234 C 21.6234 2.25141 -0.619174 0
M  V30 235 C 22.6044 1.66051 0.368915 0
M  V30 236 O 23.7894 1.92546 0.252941 0
M  V30 237 C 20.9194 3.4728 0.0368783 0
M  V30 238 C 19.8734 4.19005 -0.872865 0
M  V30 239 C 19.1994 5.34637 -0.0822402 0
M  V30 240 C 20.4994 4.74452 -2.18387 0
M  V30 241 H 22.1934 2.59171 -1.49903 0
M  V30 242 H 19.7394 1.24579 -0.722222 0
M  V30 243 H 21.6924 4.20098 0.330958 0
M  V30 244 H 20.4164 3.12433 0.95149 0
M  V30 245 H 19.0754 3.48061 -1.15105 0
M  V30 246 H 18.7234 4.96034 0.83422 0
M  V30 247 H 18.4234 5.83557 -0.688149 0
M  V30 248 H 19.9474 6.10255 0.205238 0
M  V30 249 H 21.3614 5.39055 -1.95172 0
M  V30 250 H 19.7584 5.33834 -2.74119 0
M  V30 251 H 20.8284 3.92844 -2.84257 0
M  V30 252 N 22.1715 0.800033 1.35784 0
M  V30 253 C 23.3965 0.388511 2.03729 0
M  V30 254 C 23.8215 -0.990481 1.5991 0
M  V30 255 O 23.1795 -1.64013 0.772612 0
M  V30 256 C 23.2275 0.4726 3.5749 0
M  V30 257 O 22.3315 -0.51646 4.09153 0
M  V30 258 H 21.6725 0.163271 0.643614 0
M  V30 259 H 24.2025 1.0841 1.73518 0
M  V30 260 H 24.2125 0.34003 4.06581 0
M  V30 261 H 22.8875 1.47848 3.88734 0
M  V30 262 H 21.4645 -0.344673 3.71304 0
M  V30 263 N 23.6496 -1.47581 0.552962 0
M  V30 264 C 25.0606 -1.86324 0.118463 0
M  V30 265 C 25.4116 -1.46006 -1.3106 0
M  V30 266 O 24.5366 -0.861182 -1.98526 0
M  V30 267 C 25.1316 -3.3816 0.20821 0
M  V30 268 C 23.6906 -3.7601 -0.171226 0
M  V30 269 C 22.8376 -2.71634 0.557686 0
M  V30 270 H 25.7886 -1.39159 0.762928 0
M  V30 271 H 25.8096 -3.76141 -0.574278 0
M  V30 272 H 25.3216 -3.67473 1.24841 0
M  V30 273 H 23.4226 -3.52313 -1.21269 0
M  V30 274 H 23.5356 -4.78745 0.184379 0
M  V30 275 H 21.8996 -2.547 0.00125792 0
M  V30 276 H 22.6826 -3.0379 1.59896 0
M  V30 277 N 25.1277 -0.289203 -1.54924 0
M  V30 278 C 26.0577 0.58549 -2.2604 0
M  V30 279 C 27.0387 1.14753 -1.25562 0
M  V30 280 O 28.2237 1.17906 -1.54311 0
M  V30 281 C 25.3537 1.76305 -2.99222 0
M  V30 282 C 24.3077 1.33191 -4.06748 0
M  V30 283 C 23.6337 2.5937 -4.6758 0
M  V30 284 C 24.9337 0.471775 -5.20165 0
M  V30 285 H 26.6277 -0.00763532 -2.99399 0
M  V30 286 H 24.1737 -0.00511229 -1.43999 0
M  V30 287 H 26.1267 2.38097 -3.47689 0
M  V30 288 H 24.8507 2.38223 -2.23422 0
M  V30 289 H 23.5097 0.737121 -3.59113 0
M  V30 290 H 23.1577 3.19576 -3.88433 0
M  V30 291 H 22.8577 2.31228 -5.40192 0
M  V30 292 H 24.3817 3.21985 -5.18804 0
M  V30 293 H 25.7957 0.995056 -5.64599 0
M  V30 294 H 24.1927 0.284639 -5.99425 0
M  V30 295 H 25.2627 -0.506041 -4.82252 0
M  V30 296 N 26.6058 1.57591 -0.0167156 0
M  V30 297 C 27.5688 2.08393 0.954204 0
M  V30 298 C 28.5688 0.996531 1.26198 0
M  V30 299 O 29.7588 1.25858 1.20438 0
M  V30 300 C 26.8908 2.5394 2.27436 0
M  V30 301 H 28.0838 2.95455 0.514451 0
M  V30 302 H 25.6368 1.54582 0.231089 0
M  V30 303 H 26.3718 1.70171 2.76066 0
M  V30 304 H 26.1568 3.33371 2.06412 0
M  V30 305 H 27.6468 2.93512 2.97053 0
M  V30 306 N 28.0839 -0.256276 1.55502 0
M  V30 307 C 29.0139 -1.32102 1.92539 0
M  V30 308 C 29.9949 -1.50684 0.789194 0
M  V30 309 O 31.1799 -1.63449 1.04872 0
M  V30 310 C 28.3099 -2.67752 2.21192 0
M  V30 311 C 27.2639 -2.63878 3.36975 0
M  V30 312 C 26.5899 -4.03236 3.51147 0
M  V30 313 C 27.8899 -2.21682 4.72921 0
M  V30 314 H 29.5839 -1.01351 2.81724 0
M  V30 315 H 27.1299 -0.486105 1.35547 0
M  V30 316 H 29.0829 -3.42365 2.45691 0
M  V30 317 H 27.8069 -3.0012 1.28824 0
M  V30 318 H 26.4659 -1.91722 3.12471 0
M  V30 319 H 26.1139 -4.32854 2.56216 0
M  V30 320 H 25.8139 -4.01535 4.29003 0
M  V30 321 H 27.3379 -4.79563 3.77957 0
M  V30 322 H 28.7519 -2.86023 4.96854 0
M  V30 323 H 27.1489 -2.3111 5.53812 0
M  V30 324 H 28.2189 -1.16833 4.70615 0
M  V30 325 N 29.562 -1.4872 -0.521534 0
M  V30 326 C 30.525 -1.63379 -1.60748 0
M  V30 327 C 31.525 -0.50661 -1.52611 0
M  V30 328 O 32.715 -0.772601 -1.5613 0
M  V30 329 C 29.847 -1.61192 -3.00383 0
M  V30 330 H 31.04 -2.60217 -1.49087 0
M  V30 331 H 28.593 -1.37444 -0.744235 0
M  V30 332 H 29.328 -0.65863 -3.17541 0
M  V30 333 H 29.113 -2.43032 -3.07698 0
M  V30 334 H 30.603 -1.7466 -3.7932 0
M  V30 335 N 31.0401 0.771051 -1.3745 0
M  V30 336 C 31.9881 1.90574 -1.33358 0
M  V30 337 C 32.9821 1.67936 -0.22224 0
M  V30 338 O 34.1881 1.75717 -0.390304 0
M  V30 339 H 30.5631 0.626714 -0.415612 0
M  V30 340 H 32.5341 1.91142 -2.29144 0
M  V30 341 C 31.2831 3.27845 -1.15813 0
M  V30 342 H 30.6061 3.45842 -2.00583 0
M  V30 343 H 32.0461 4.07538 -1.17 0
M  V30 344 C 30.5051 3.36625 0.136165 0
M  V30 345 O 31.0351 3.85785 1.11949 0
M  V30 346 N 29.2411 2.89997 0.187099 0
M  V30 347 H 28.7881 2.50182 -0.613753 0
M  V30 348 H 28.7461 2.96252 1.05272 0
M  V30 349 N 32.5182 1.22032 0.997298 0
M  V30 350 C 33.7462 1.06841 1.7718 0
M  V30 351 C 34.1612 -0.381325 1.84909 0
M  V30 352 O 33.5182 -1.26437 1.31605 0
M  V30 353 C 33.5692 1.66814 3.20711 0
M  V30 354 O 33.2902 3.06116 3.13408 0
M  V30 355 C 34.7912 1.56838 4.14628 0
M  V30 356 H 32.0112 0.374782 0.556578 0
M  V30 357 H 34.5552 1.61532 1.2541 0
M  V30 358 H 32.7102 1.16196 3.69564 0
M  V30 359 H 33.1242 3.34926 4.0364 0
M  V30 360 H 34.5982 2.03532 5.13107 0
M  V30 361 H 35.0752 0.524155 4.36061 0
M  V30 362 H 35.6812 2.06741 3.7167 0
M  V30 363 N 33.9963 -1.19345 1.0293 0
M  V30 364 C 34.9593 -2.20793 0.615069 0
M  V30 365 C 35.9593 -1.57553 -0.321533 0
M  V30 366 O 37.1493 -1.73862 -0.108483 0
M  V30 367 C 34.2813 -3.40754 -0.0999222 0
M  V30 368 H 35.4743 -2.58955 1.51269 0
M  V30 369 H 33.0273 -1.3303 0.820534 0
M  V30 370 H 33.7623 -3.0811 -1.01187 0
M  V30 371 H 33.5473 -3.87889 0.57309 0
M  V30 372 H 35.0373 -4.15898 -0.376645 0
M  V30 373 N 35.4744 -0.807222 -1.35358 0
M  V30 374 C 36.7024 -0.400377 -2.02989 0
M  V30 375 C 37.1174 0.988859 -1.60832 0
M  V30 376 O 36.4744 1.63729 -0.806175 0
M  V30 377 C 36.5254 -0.474867 -3.58368 0
M  V30 378 O 36.2464 -1.80933 -3.98992 0
M  V30 379 C 37.7474 -0.0609112 -4.43258 0
M  V30 380 H 34.9674 -0.162587 -0.651004 0
M  V30 381 H 37.5114 -1.09102 -1.72965 0
M  V30 382 H 35.6664 0.167534 -3.87038 0
M  V30 383 H 36.0804 -1.77256 -4.9364 0
M  V30 384 H 37.5544 -0.164145 -5.51756 0
M  V30 385 H 38.0314 0.993831 -4.27808 0
M  V30 386 H 38.6374 -0.676492 -4.19885 0
M  V30 387 N 36.9525 1.47285 -0.560781 0
M  V30 388 C 37.8625 2.33846 0.187954 0
M  V30 389 C 38.8785 1.48412 0.908293 0
M  V30 390 O 40.0545 1.81332 0.876388 0
M  V30 391 C 37.1195 3.25178 1.2025 0
M  V30 392 C 36.1805 4.26504 0.489208 0
M  V30 393 C 35.4135 5.13472 1.45542 0
M  V30 394 O 35.6365 5.02959 2.6905 0
M  V30 395 O 34.5705 5.93902 0.977963 0
M  V30 396 H 38.3965 2.99177 -0.522177 0
M  V30 397 H 35.9815 1.45903 -0.321364 0
M  V30 398 H 37.8635 3.81584 1.78805 0
M  V30 399 H 36.5385 2.6247 1.89449 0
M  V30 400 H 35.4455 3.73847 -0.137627 0
M  V30 401 H 36.7785 4.91935 -0.161399 0
M  V30 402 N 38.4306 0.297415 1.54768 0
M  V30 403 C 39.6776 -0.312913 2.00068 0
M  V30 404 C 40.0056 -1.54171 1.18582 0
M  V30 405 O 39.2606 -1.94108 0.249133 0
M  V30 406 C 39.5596 -0.717561 3.50123 0
M  V30 407 C 39.2256 0.409095 4.4904 0
M  V30 408 C 37.8876 0.718399 4.75807 0
M  V30 409 C 40.2396 1.16717 5.07963 0
M  V30 410 C 37.5676 1.78896 5.5876 0
M  V30 411 C 39.9196 2.22762 5.92081 0
M  V30 412 C 38.5836 2.54303 6.1716 0
M  V30 413 H 37.8536 -0.114503 0.7321 0
M  V30 414 H 40.5006 0.415767 1.86932 0
M  V30 415 H 38.8056 -1.52627 3.60849 0
M  V30 416 H 40.5026 -1.20091 3.82595 0
M  V30 417 H 37.0926 0.157918 4.28309 0
M  V30 418 H 41.2766 0.941466 4.87289 0
M  V30 419 H 36.5326 2.0381 5.7643 0
M  V30 420 H 40.7066 2.81962 6.36765 0
M  V30 421 H 38.3336 3.3739 6.81229 0
M  V30 422 N 39.9087 -1.5758 0.0250728 0
M  V30 423 C 41.1857 -1.82917 -0.692873 0
M  V30 424 C 41.5657 -0.908137 -1.90568 0
M  V30 425 O 40.9137 0.0372298 -2.2847 0
M  V30 426 C 41.1237 -3.32034 -1.07492 0
M  V30 427 C 42.4717 -3.98406 -1.46826 0
M  V30 428 O 43.4957 -3.36505 -1.16801 0
M  V30 429 O 42.3547 -5.07497 -2.02754 0
M  V30 430 H 39.4487 -0.754079 -0.33955 0
M  V30 431 H 41.9947 -1.69619 0.0524456 0
M  V30 432 H 40.7667 -3.90728 -0.211552 0
M  V30 433 H 40.3897 -3.50424 -1.87854 0
M  V30 434 N 41.3868 0.248026 -1.55636 0
M  V30 435 C 42.6348 0.974295 -1.77065 0
M  V30 436 C 42.9558 1.85897 -0.588849 0
M  V30 437 O 42.2258 1.91868 0.395407 0
M  V30 438 H 40.8058 0.362733 -0.653019 0
M  V30 439 H 43.4678 0.266244 -1.93073 0
M  V30 440 H 42.5638 1.59667 -2.68166 0
M  V30 441 N 42.8649 1.48995 0.513639 0
M  V30 442 C 44.2759 1.5119 1.09537 0
M  V30 443 C 44.6269 0.290906 1.94031 0
M  V30 444 O 43.7519 -0.60049 2.07902 0
M  V30 445 C 44.3469 2.73964 1.99322 0
M  V30 446 C 42.9059 2.78978 2.52682 0
M  V30 447 C 42.0529 2.44934 1.30009 0
M  V30 448 H 45.0039 1.55875 0.298125 0
M  V30 449 H 45.0249 2.53409 2.83838 0
M  V30 450 H 44.5369 3.62813 1.37799 0
M  V30 451 H 42.6379 1.94378 3.1788 0
M  V30 452 H 42.7509 3.8083 2.90698 0
M  V30 453 H 41.1149 1.9644 1.62122 0
M  V30 454 H 41.8979 3.36043 0.702131 0
M  V30 455 N 44.343 -0.763751 1.37857 0
M  V30 456 C 45.573 -1.55067 1.3652 0
M  V30 457 C 45.981 -1.89135 -0.0494227 0
M  V30 458 O 45.324 -1.52529 -1.02375 0
M  V30 459 C 45.386 -2.8838 2.14656 0
M  V30 460 C 45.05 -2.76905 3.63555 0
M  V30 461 C 46.047 -2.4739 4.57268 0
M  V30 462 C 43.732 -2.94676 4.06781 0
M  V30 463 C 45.726 -2.35786 5.92186 0
M  V30 464 C 43.413 -2.82692 5.41782 0
M  V30 465 C 44.411 -2.53289 6.34298 0
M  V30 466 O 44.099 -2.41345 7.66817 0
M  V30 467 H 43.831 -0.486776 0.469069 0
M  V30 468 H 46.385 -0.953812 1.81911 0
M  V30 469 H 44.615 -3.50217 1.63967 0
M  V30 470 H 46.304 -3.49828 2.05852 0
M  V30 471 H 47.07 -2.33339 4.2518 0
M  V30 472 H 42.949 -3.16563 3.35126 0
M  V30 473 H 46.493 -2.12757 6.64365 0
M  V30 474 H 42.39 -2.96314 5.7347 0
M  V30 475 H 43.158 -2.56634 7.77226 0
M  V30 476 N 45.8211 -1.22559 -0.990812 0
M  V30 477 C 47.0671 -1.05297 -1.73322 0
M  V30 478 C 47.4001 0.410655 -1.89808 0
M  V30 479 O 46.6751 1.30439 -1.44277 0
M  V30 480 C 46.9581 -1.76713 -3.13759 0
M  V30 481 C 46.8111 -3.30684 -3.04907 0
M  V30 482 C 48.1301 -1.52121 -4.12974 0
M  V30 483 H 45.2491 -0.38392 -0.629106 0
M  V30 484 H 47.8911 -1.50926 -1.15418 0
M  V30 485 H 46.0411 -1.37924 -3.63193 0
M  V30 486 H 47.7131 -3.7893 -2.63077 0
M  V30 487 H 45.9561 -3.60253 -2.41661 0
M  V30 488 H 46.6271 -3.75833 -4.04294 0
M  V30 489 H 49.1031 -1.85819 -3.72304 0
M  V30 490 H 47.9791 -2.04582 -5.0935 0
M  V30 491 H 48.2401 -0.454257 -4.3976 0
M  V30 492 N 47.2992 1.18797 -1.03562 0
M  V30 493 C 48.5482 1.87978 -0.731235 0
M  V30 494 C 48.8612 1.80911 0.743671 0
M  V30 495 O 50.0672 2.45407 1.16137 0
M  V30 496 C 48.5232 3.3721 -1.25768 0
M  V30 497 C 48.1312 3.52818 -2.76085 0
M  V30 498 C 49.8752 4.11825 -1.0296 0
M  V30 499 C 47.7822 4.9598 -3.22114 0
M  V30 500 H 46.7122 0.704063 -0.269835 0
M  V30 501 H 49.3632 1.34266 -1.25079 0
M  V30 502 H 47.7452 3.90359 -0.666011 0
M  V30 503 H 48.9192 3.09965 -3.40966 0
M  V30 504 H 47.2342 2.91602 -2.97249 0
M  V30 505 H 49.8312 5.17411 -1.34869 0
M  V30 506 H 50.1742 4.16287 0.0333546 0
M  V30 507 H 50.7072 3.64833 -1.58562 0
M  V30 508 H 47.4462 4.96684 -4.27768 0
M  V30 509 H 46.9662 5.39569 -2.61965 0
M  V30 510 H 48.6452 5.6467 -3.15844 0
M  V30 511 N 48.7773 0.814389 1.34928 0
M  V30 512 C 50.0053 0.411136 2.02774 0
M  V30 513 C 50.4203 -0.980316 1.61354 0
M  V30 514 O 49.7773 -1.63299 0.814847 0
M  V30 515 C 49.8283 0.493865 3.58111 0
M  V30 516 O 49.5493 1.83047 3.98027 0
M  V30 517 C 51.0503 0.0844174 4.4322 0
M  V30 518 H 48.2703 0.166037 0.650133 0
M  V30 519 H 50.8143 1.10018 1.72384 0
M  V30 520 H 48.9693 -0.147006 3.87121 0
M  V30 521 H 49.3833 1.79872 4.92693 0
M  V30 522 H 50.8573 0.193404 5.51661 0
M  V30 523 H 51.3343 -0.97113 4.28329 0
M  V30 524 H 51.9403 0.69875 4.19521 0
M  V30 525 N 50.2554 -1.46986 0.568584 0
M  V30 526 C 51.6664 -1.86188 0.138219 0
M  V30 527 C 52.0174 -1.47388 -1.29504 0
M  V30 528 O 51.1424 -0.88219 -1.97602 0
M  V30 529 C 51.7374 -3.3792 0.244065 0
M  V30 530 C 50.2964 -3.76171 -0.131335 0
M  V30 531 C 49.4434 -2.71027 0.586465 0
M  V30 532 H 52.3944 -1.38342 0.777645 0
M  V30 533 H 52.4154 -3.76729 -0.534351 0
M  V30 534 H 51.9274 -3.66128 1.28731 0
M  V30 535 H 50.0284 -3.5358 -1.17526 0
M  V30 536 H 50.1414 -4.78523 0.235146 0
M  V30 537 H 48.5054 -2.54684 0.0282722 0
M  V30 538 H 49.2884 -3.02077 1.63109 0
M  V30 539 N 51.7335 -0.305618 -1.54608 0
M  V30 540 C 52.9825 0.303098 -1.9941 0
M  V30 541 C 53.2955 1.54648 -1.19764 0
M  V30 542 O 54.5015 2.23007 -1.54855 0
M  V30 543 C 52.9575 0.590588 -3.55021 0
M  V30 544 C 52.5655 -0.634719 -4.43481 0
M  V30 545 C 54.3095 1.16025 -4.08336 0
M  V30 546 C 52.2165 -0.320126 -5.90533 0
M  V30 547 H 51.1465 0.117031 -0.744862 0
M  V30 548 H 53.7975 -0.415045 -1.78745 0
M  V30 549 H 52.1795 1.36845 -3.71604 0
M  V30 550 H 53.3535 -1.41079 -4.38672 0
M  V30 551 H 51.6685 -1.12333 -4.00962 0
M  V30 552 H 54.2655 1.40994 -5.15776 0
M  V30 553 H 54.6085 2.10397 -3.5922 0
M  V30 554 H 55.1415 0.443985 -3.95315 0
M  V30 555 H 51.8805 -1.23254 -6.43808 0
M  V30 556 H 51.4005 0.418579 -5.98338 0
M  V30 557 H 53.0795 0.0766241 -6.46955 0
M  V30 558 N 53.2116 1.57565 -0.0334293 0
M  V30 559 C 54.4366 1.96689 0.657895 0
M  V30 560 C 54.8616 0.910057 1.64619 0
M  V30 561 O 54.2196 -0.128598 1.80843 0
M  V30 562 C 54.2676 3.34905 1.33683 0
M  V30 563 O 53.3716 3.31574 2.45219 0
M  V30 564 H 52.7126 0.641205 0.172489 0
M  V30 565 H 55.2426 2.04372 -0.0965621 0
M  V30 566 H 55.2526 3.71234 1.69262 0
M  V30 567 H 53.9276 4.11366 0.612411 0
M  V30 568 H 52.5046 3.06968 2.11719 0
M  V30 569 N 54.6897 -0.239769 1.55765 0
M  V30 570 C 55.9377 -0.964892 1.77579 0
M  V30 571 C 56.2587 -1.85582 0.598699 0
M  V30 572 O 55.5287 -1.92075 -0.385226 0
M  V30 573 H 54.1087 -0.359265 0.654933 0
M  V30 574 H 56.7707 -0.256001 1.93211 0
M  V30 575 H 55.8667 -1.58243 2.69009 0
M  V30 576 N 56.1678 -1.49265 -0.50573 0
M  V30 577 C 57.0998 -1.617 -1.62437 0
M  V30 578 C 58.1128 -0.499924 -1.54934 0
M  V30 579 O 59.3018 -0.771785 -1.60953 0
M  V30 580 C 56.4018 -1.5533 -3.01207 0
M  V30 581 C 55.5748 -2.8249 -3.33943 0
M  V30 582 C 54.6338 -2.69238 -4.52103 0
M  V30 583 O 53.6598 -3.43167 -4.5412 0
M  V30 584 N 54.8618 -1.80468 -5.51735 0
M  V30 585 H 57.6268 -2.58177 -1.52199 0
M  V30 586 H 55.1878 -1.46294 -0.693511 0
M  V30 587 H 57.1798 -1.44125 -3.78167 0
M  V30 588 H 55.7498 -0.667297 -3.05395 0
M  V30 589 H 54.9698 -3.08081 -2.45926 0
M  V30 590 H 56.2578 -3.66802 -3.5261 0
M  V30 591 H 55.6558 -1.19653 -5.52901 0
M  V30 592 H 54.2128 -1.75188 -6.27816 0
M  V30 593 N 57.6459 0.756429 -1.3826 0
M  V30 594 C 58.8709 1.55077 -1.37717 0
M  V30 595 C 59.2959 1.88073 0.03164 0
M  V30 596 O 58.6539 1.50364 1.01293 0
M  V30 597 C 58.7019 2.8283 -2.23695 0
M  V30 598 O 57.8059 3.77862 -1.6521 0
M  V30 599 H 57.1469 0.469152 -0.469885 0
M  V30 600 H 59.6769 0.935019 -1.81985 0
M  V30 601 H 59.6869 3.31783 -2.37453 0
M  V30 602 H 58.3619 2.58144 -3.2609 0
M  V30 603 H 56.9389 3.36555 -1.60578 0
M  V30 604 N 59.124 1.23083 0.984299 0
M  V30 605 C 60.352 1.08714 1.76037 0
M  V30 606 C 60.767 -0.361691 1.85303 0
M  V30 607 O 60.124 -1.25034 1.32939 0
M  V30 608 C 60.175 1.70206 3.18923 0
M  V30 609 O 59.896 3.09423 3.10144 0
M  V30 610 C 61.397 1.61227 4.12941 0
M  V30 611 H 58.617 0.380664 0.552572 0
M  V30 612 H 61.161 1.62853 1.23689 0
M  V30 613 H 59.316 1.20109 3.6831 0
M  V30 614 H 59.73 3.39188 4.00065 0
M  V30 615 H 61.204 2.08962 5.10919 0
M  V30 616 H 61.681 0.570375 4.35481 0
M  V30 617 H 62.287 2.10671 3.69456 0
M  V30 618 N 60.6021 -1.18246 1.0419 0
M  V30 619 C 61.5651 -2.20128 0.638452 0
M  V30 620 C 62.5651 -1.57885 -0.304805 0
M  V30 621 O 63.7551 -1.73967 -0.0900369 0
M  V30 622 C 60.8871 -3.4084 -0.0637751 0
M  V30 623 H 62.0801 -2.57336 1.54007 0
M  V30 624 H 59.6331 -1.32152 0.834598 0
M  V30 625 H 60.3681 -3.09166 -0.979136 0
M  V30 626 H 60.1531 -3.8726 0.614198 0
M  V30 627 H 61.6431 -4.16274 -0.332512 0
M  V30 628 N 62.0802 -0.821533 -1.34494 0
M  V30 629 C 63.3102 -0.421272 -2.02259 0
M  V30 630 C 63.7182 0.977047 -1.6202 0
M  V30 631 O 63.0612 1.64348 -0.820703 0
M  V30 632 C 63.1232 -0.44231 -3.56769 0
M  V30 633 C 62.7872 -1.79372 -4.20327 0
M  V30 634 C 63.7842 -2.75435 -4.40944 0
M  V30 635 C 61.4692 -2.08182 -4.57127 0
M  V30 636 C 63.4632 -3.98482 -4.97484 0
M  V30 637 C 61.1502 -3.31489 -5.13379 0
M  V30 638 C 62.1482 -4.26457 -5.33501 0
M  V30 639 O 61.8362 -5.47585 -5.88562 0
M  V30 640 H 61.5682 -0.167473 -0.654927 0
M  V30 641 H 64.1222 -1.11073 -1.72777 0
M  V30 642 H 62.3522 0.303836 -3.85505 0
M  V30 643 H 64.0412 -0.0622925 -4.05852 0
M  V30 644 H 64.8072 -2.54473 -4.12878 0
M  V30 645 H 60.6862 -1.35066 -4.4077 0
M  V30 646 H 64.2302 -4.72618 -5.13106 0
M  V30 647 H 60.1272 -3.52316 -5.40873 0
M  V30 648 H 60.8952 -5.49086 -6.06998 0
M  V30 649 N 63.5583 1.46682 -0.576371 0
M  V30 650 C 64.8043 2.03287 -0.0679305 0
M  V30 651 C 65.1593 1.44063 1.27529 0
M  V30 652 O 64.4523 0.593973 1.82161 0
M  V30 653 C 64.6463 3.57345 0.062886 0
M  V30 654 C 64.4753 4.31509 -1.26611 0
M  V30 655 C 63.2453 4.70664 -1.83856 0
M  V30 656 C 65.4433 4.65444 -2.18783 0
M  V30 657 N 63.4253 5.29552 -3.10561 0
M  V30 658 C 64.7963 5.24835 -3.30072 0
M  V30 659 C 66.8513 4.47375 -2.18542 0
M  V30 660 C 65.5543 5.68063 -4.41244 0
M  V30 661 C 67.5803 4.91614 -3.28739 0
M  V30 662 C 66.9423 5.51071 -4.38748 0
M  V30 663 H 63.0413 0.779083 -0.0674836 0
M  V30 664 H 65.6253 1.78918 -0.767877 0
M  V30 665 H 63.7963 3.8144 0.731988 0
M  V30 666 H 65.5283 4.00592 0.575134 0
M  V30 667 H 62.2833 4.53224 -1.37424 0
M  V30 668 H 62.7073 5.63523 -3.75195 0
M  V30 669 H 67.3493 4.00747 -1.34765 0
M  V30 670 H 65.0673 6.13672 -5.25768 0
M  V30 671 H 68.6533 4.79389 -3.29662 0
M  V30 672 H 67.5333 5.84678 -5.22611 0
M  V30 673 N 65.0364 0.313813 1.54444 0
M  V30 674 C 66.2854 -0.292519 1.99568 0
M  V30 675 C 66.5984 -1.54011 1.20582 0
M  V30 676 O 67.8044 -2.22183 1.56035 0
M  V30 677 C 66.2604 -0.571752 3.55329 0
M  V30 678 C 65.8684 0.658229 4.43138 0
M  V30 679 C 67.6124 -1.13857 4.08946 0
M  V30 680 C 65.5194 0.351439 5.90355 0
M  V30 681 H 64.4494 -0.113079 0.745472 0
M  V30 682 H 67.1004 0.424518 1.78522 0
M  V30 683 H 65.4824 -1.34872 3.72325 0
M  V30 684 H 66.6564 1.43403 4.37918 0
M  V30 685 H 64.9714 1.14458 4.0036 0
M  V30 686 H 67.5684 -1.38257 5.16516 0
M  V30 687 H 67.9114 -2.08489 3.6033 0
M  V30 688 H 68.4444 -0.423015 3.95544 0
M  V30 689 H 65.1834 1.26667 6.43145 0
M  V30 690 H 64.7034 -0.386842 5.98551 0
M  V30 691 H 66.3824 -0.0423134 6.46986 0
M  V30 692 N 66.5145 -1.57545 0.0417849 0
M  V30 693 C 67.7545 -1.94185 -0.63809 0
M  V30 694 C 68.1185 -0.919339 -1.68559 0
M  V30 695 O 69.3195 -1.17236 -2.41886 0
M  V30 696 C 67.5905 -3.35672 -1.22714 0
M  V30 697 S 69.1495 -3.94256 -1.92633 0
M  V30 698 H 65.9675 -0.679353 -0.209764 0
M  V30 699 H 68.5695 -1.95199 0.108479 0
M  V30 700 H 67.2735 -4.07898 -0.452503 0
M  V30 701 H 66.8045 -3.38132 -2.01073 0
M  V30 702 H 68.8195 -3.7872 -3.20602 0
M  V30 703 N 67.9926 0.231505 -1.5589 0
M  V30 704 C 69.2696 0.981096 -1.69215 0
M  V30 705 C 69.6496 2.02799 -0.586164 0
M  V30 706 O 68.9976 2.24823 0.408253 0
M  V30 707 C 69.2076 1.60054 -3.10135 0
M  V30 708 C 70.5556 2.09658 -3.69227 0
M  V30 709 O 71.5796 1.69967 -3.13033 0
M  V30 710 O 70.4386 2.8258 -4.67772 0
M  V30 711 H 67.5326 0.457653 -0.688827 0
M  V30 712 H 70.0786 0.224073 -1.68214 0
M  V30 713 H 68.8506 0.844105 -3.82087 0
M  V30 714 H 68.4736 2.42336 -3.15212 0
M  V30 715 N 69.4707 1.49531 0.497807 0
M  V30 716 C 70.4187 1.66926 1.61983 0
M  V30 717 C 71.4127 0.535167 1.60724 0
M  V30 718 O 72.6187 0.714896 1.65195 0
M  V30 719 H 68.9937 0.526415 0.537021 0
M  V30 720 H 70.9647 2.61098 1.44465 0
M  V30 721 C 69.7137 1.75602 3.00099 0
M  V30 722 H 69.0367 2.62244 3.01775 0
M  V30 723 H 70.4767 1.91807 3.78135 0
M  V30 724 C 68.9357 0.501543 3.33146 0
M  V30 725 O 69.4657 -0.371342 3.9998 0
M  V30 726 N 67.6717 0.363531 2.88317 0
M  V30 727 H 67.2187 1.07485 2.34104 0
M  V30 728 H 67.1767 -0.474728 3.10795 0
M  V30 729 N 70.9488 -0.749086 1.3866 0
M  V30 730 C 72.3648 -1.05276 1.19955 0
M  V30 731 C 72.5648 -2.01435 0.05134 0
M  V30 732 O 71.6208 -2.45232 -0.60147 0
M  V30 733 C 72.9338 -1.62853 2.52783 0
M  V30 734 C 74.4818 -1.75002 2.59506 0
M  V30 735 C 74.9568 -2.35991 3.92521 0
M  V30 736 N 76.4478 -2.43416 3.94085 0
M  V30 737 C 77.1828 -2.91511 4.9377 0
M  V30 738 N 76.6788 -3.39608 6.03853 0
M  V30 739 N 78.4718 -2.90592 4.81157 0
M  V30 740 H 70.6228 -0.111066 2.12109 0
M  V30 741 H 72.8858 -0.111901 0.941373 0
M  V30 742 H 72.5918 -0.99664 3.37283 0
M  V30 743 H 72.4658 -2.61854 2.715 0
M  V30 744 H 74.8528 -2.37317 1.75398 0
M  V30 745 H 74.9338 -0.74693 2.44652 0
M  V30 746 H 74.5778 -1.74308 4.77053 0
M  V30 747 H 74.5078 -3.3695 4.04688 0
M  V30 748 H 76.9988 -2.09405 3.14576 0
M  V30 749 H 77.3118 -3.74775 6.75843 0
M  V30 750 H 75.6568 -3.37653 6.07466 0
M  V30 751 H 78.8478 -2.52332 3.94267 0
M  V30 752 H 79.0208 -3.27762 5.58996 0
M  V30 753 N 72.4269 -1.23603 -0.977757 0
M  V30 754 C 73.3569 -1.04401 -2.0886 0
M  V30 755 C 74.3379 0.0399052 -1.70053 0
M  V30 756 O 75.5229 -0.125246 -1.93796 0
M  V30 757 C 72.6529 -0.637269 -3.41403 0
M  V30 758 C 71.6069 -1.66883 -3.94124 0
M  V30 759 C 70.9329 -1.11745 -5.22893 0
M  V30 760 C 72.2329 -3.06247 -4.23096 0
M  V30 761 H 73.9269 -1.97316 -2.25182 0
M  V30 762 H 71.4729 -0.950096 -1.08209 0
M  V30 763 H 73.4259 -0.48998 -4.18542 0
M  V30 764 H 72.1499 0.327557 -3.24953 0
M  V30 765 H 70.8089 -1.80416 -3.19133 0
M  V30 766 H 70.4569 -0.143527 -5.02795 0
M  V30 767 H 70.1569 -1.80672 -5.59134 0
M  V30 768 H 71.6809 -0.982067 -6.02651 0
M  V30 769 H 73.0949 -2.96001 -4.90975 0
M  V30 770 H 71.4919 -3.72436 -4.70544 0
M  V30 771 H 72.5619 -3.55041 -3.30263 0
M  V30 772 N 73.905 1.17692 -1.04816 0
M  V30 773 C 74.852 2.21581 -0.645797 0
M  V30 774 C 75.822 1.62367 0.350159 0
M  V30 775 O 77.007 1.89254 0.242433 0
M  V30 776 C 74.147 3.45092 -0.0227568 0
M  V30 777 C 73.26 4.18613 -1.06709 0
M  V30 778 C 72.395 5.29602 -0.411767 0
M  V30 779 C 71.434 5.94904 -1.44067 0
M  V30 780 N 70.571 6.97414 -0.809781 0
M  V30 781 H 75.411 2.55353 -1.5362 0
M  V30 782 H 72.948 1.25438 -0.768364 0
M  V30 783 H 74.906 4.15679 0.35588 0
M  V30 784 H 73.536 3.11917 0.831122 0
M  V30 785 H 72.588 3.46779 -1.5636 0
M  V30 786 H 73.9 4.63293 -1.84827 0
M  V30 787 H 73.054 6.06696 0.0206623 0
M  V30 788 H 71.793 4.86045 0.401438 0
M  V30 789 H 70.798 5.16544 -1.88316 0
M  V30 790 H 72.023 6.40542 -2.25571 0
M  V30 791 H 69.969 6.55998 -0.0170186 0
M  V30 792 H 69.886 7.40386 -1.52856 0
M  V30 793 H 71.154 7.78463 -0.401999 0
M  V30 794 N 75.3831 0.828654 1.34056 0
M  V30 795 C 76.6111 0.43262 2.02326 0
M  V30 796 C 77.0261 -0.963147 1.62385 0
M  V30 797 O 76.3831 -1.62425 0.832121 0
M  V30 798 C 76.4341 0.53182 3.57567 0
M  V30 799 O 76.1551 1.87258 3.96063 0
M  V30 800 C 77.6561 0.131422 4.43105 0
M  V30 801 H 74.8761 0.172923 0.648335 0
M  V30 802 H 77.4201 1.1184 1.71208 0
M  V30 803 H 75.5751 -0.105938 3.87255 0
M  V30 804 H 75.9891 1.85087 4.90758 0
M  V30 805 H 77.4631 0.251904 5.51425 0
M  V30 806 H 77.9401 -0.925645 4.29335 0
M  V30 807 H 78.5461 0.743207 4.18756 0
M  V30 808 N 76.8612 -1.46375 0.584142 0
M  V30 809 C 78.0892 -2.06761 0.0759296 0
M  V30 810 C 78.5042 -1.43266 -1.22965 0
M  V30 811 O 77.8612 -0.538458 -1.74376 0
M  V30 812 C 77.9122 -3.61375 -0.0950384 0
M  V30 813 O 77.6332 -4.22495 1.15887 0
M  V30 814 C 79.1342 -4.38693 -0.637434 0
M  V30 815 H 76.3542 -0.668479 0.0581075 0
M  V30 816 H 78.8982 -1.8798 0.805218 0
M  V30 817 H 77.0532 -3.79578 -0.774554 0
M  V30 818 H 77.4672 -5.15385 0.973598 0
M  V30 819 H 78.9412 -5.47464 -0.706237 0
M  V30 820 H 79.4182 -4.06836 -1.65472 0
M  V30 821 H 80.0242 -4.25299 0.00725967 0
M  V30 822 N 78.3393 -0.321999 -1.54275 0
M  V30 823 C 79.5643 0.285791 -2.05422 0
M  V30 824 C 79.9893 1.45124 -1.19669 0
M  V30 825 O 79.3473 1.80132 -0.205441 0
M  V30 826 C 79.3953 0.69956 -3.53749 0
M  V30 827 O 78.4993 1.8021 -3.70942 0
M  V30 828 H 77.8403 0.0518962 -0.661969 0
M  V30 829 H 80.3703 -0.469954 -1.9913 0
M  V30 830 H 80.3803 0.982649 -3.9599 0
M  V30 831 H 79.0553 -0.152864 -4.15619 0
M  V30 832 H 77.6323 1.51794 -3.40607 0
M  V30 833 N 79.8174 1.5752 -0.0501392 0
M  V30 834 C 81.0664 1.91827 0.623328 0
M  V30 835 C 81.3794 0.930222 1.72065 0
M  V30 836 O 82.5854 1.1653 2.4522 0
M  V30 837 C 81.0414 3.40692 1.16003 0
M  V30 838 C 80.6494 4.479 0.0948811 0
M  V30 839 C 82.3934 3.84034 1.80881 0
M  V30 840 C 80.3004 5.87879 0.644411 0
M  V30 841 H 79.2304 0.715918 0.236596 0
M  V30 842 H 81.8814 1.83115 -0.118861 0
M  V30 843 H 80.2634 3.44405 1.9545 0
M  V30 844 H 81.4374 4.55775 -0.678675 0
M  V30 845 H 79.7524 4.13892 -0.45637 0
M  V30 846 H 82.3494 4.85984 2.22988 0
M  V30 847 H 82.6924 3.20225 2.6601 0
M  V30 848 H 83.2254 3.82833 1.0809 0
M  V30 849 H 79.9644 6.55282 -0.169229 0
M  V30 850 H 79.4844 5.83567 1.38598 0
M  V30 851 H 81.1634 6.37098 1.12763 0
M  V30 852 N 81.2955 -0.223234 1.56011 0
M  V30 853 C 82.2055 -1.29766 1.95443 0
M  V30 854 C 83.2215 -1.51373 0.858028 0
M  V30 855 O 84.3975 -1.64536 1.16146 0
M  V30 856 C 81.4625 -2.62772 2.26167 0
M  V30 857 C 80.5235 -2.49482 3.49367 0
M  V30 858 C 79.7565 -3.76145 3.78616 0
M  V30 859 O 79.9795 -4.79087 3.09568 0
M  V30 860 O 78.9135 -3.73358 4.72109 0
M  V30 861 H 82.7395 -0.99309 2.87004 0
M  V30 862 H 80.3245 -0.425958 1.43199 0
M  V30 863 H 82.2065 -3.41327 2.47131 0
M  V30 864 H 80.8815 -2.92913 1.37781 0
M  V30 865 H 79.7885 -1.69133 3.33684 0
M  V30 866 H 81.1215 -2.2428 4.38131 0
M  V30 867 N 82.7736 -1.49793 -0.48987 0
M  V30 868 C 83.7206 -1.67281 -1.59014 0
M  V30 869 C 84.6906 -0.514177 -1.57941 0
M  V30 870 O 85.8756 -0.742533 -1.75759 0
M  V30 871 C 83.0156 -1.75569 -2.97102 0
M  V30 872 C 82.1286 -3.0281 -3.08107 0
M  V30 873 C 81.2636 -3.02008 -4.36995 0
M  V30 874 C 80.3026 -4.23782 -4.41673 0
M  V30 875 N 79.4396 -4.20826 -5.62005 0
M  V30 876 H 84.2796 -2.61224 -1.43409 0
M  V30 877 H 81.8166 -1.29508 -0.697565 0
M  V30 878 H 83.7746 -1.78354 -3.77155 0
M  V30 879 H 82.4046 -0.850827 -3.11385 0
M  V30 880 H 81.4566 -3.09584 -2.21047 0
M  V30 881 H 82.7686 -3.92801 -3.07423 0
M  V30 882 H 81.9226 -3.03418 -5.25378 0
M  V30 883 H 80.6616 -2.09815 -4.4026 0
M  V30 884 H 79.6666 -4.22604 -3.5169 0
M  V30 885 H 80.8916 -5.17181 -4.40115 0
M  V30 886 H 78.8376 -3.31476 -5.66091 0
M  V30 887 H 78.7546 -5.04564 -5.62984 0
M  V30 888 H 80.0226 -4.26355 -6.52565 0
M  V30 889 N 84.2517 0.741722 -1.39055 0
M  V30 890 C 85.1817 1.869 -1.39966 0
M  V30 891 C 86.1627 1.6804 -0.26392 0
M  V30 892 O 87.3477 1.88458 -0.468755 0
M  V30 893 C 84.4777 3.24572 -1.23574 0
M  V30 894 C 83.4317 3.58056 -2.34477 0
M  V30 895 C 82.7577 4.94593 -2.0318 0
M  V30 896 C 84.0577 3.61716 -3.76774 0
M  V30 897 H 85.7517 1.86395 -2.34302 0
M  V30 898 H 83.2977 0.895361 -1.1278 0
M  V30 899 H 85.2507 4.031 -1.22834 0
M  V30 900 H 83.9747 3.25587 -0.257045 0
M  V30 901 H 82.6337 2.81854 -2.34423 0
M  V30 902 H 82.2817 4.92181 -1.03765 0
M  V30 903 H 81.9817 5.17964 -2.77465 0
M  V30 904 H 83.5057 5.75486 -2.04079 0
M  V30 905 H 84.9197 4.30335 -3.78794 0
M  V30 906 H 83.3167 3.96603 -4.50362 0
M  V30 907 H 84.3867 2.61672 -4.08235 0
M  V30 908 N 85.7298 1.2412 0.971189 0
M  V30 909 C 86.6618 0.988349 2.06795 0
M  V30 910 C 87.6748 -0.0409541 1.62748 0
M  V30 911 O 88.8638 0.195673 1.77424 0
M  V30 912 C 85.9638 0.469023 3.35639 0
M  V30 913 C 85.1368 1.56065 4.08611 0
M  V30 914 C 84.1958 1.04458 5.15728 0
M  V30 915 O 83.2218 1.73553 5.42096 0
M  V30 916 N 84.4238 -0.122817 5.8037 0
M  V30 917 H 87.1888 1.93265 2.29061 0
M  V30 918 H 84.7498 1.15102 1.13856 0
M  V30 919 H 86.7418 0.108613 4.04554 0
M  V30 920 H 85.3118 -0.380919 3.1027 0
M  V30 921 H 84.5318 2.09341 3.34021 0
M  V30 922 H 85.8198 2.29449 4.54126 0
M  V30 923 H 85.2178 -0.700563 5.61345 0
M  V30 924 H 83.7748 -0.424404 6.50417 0
M  V30 925 N 87.2079 -1.17134 1.05439 0
M  V30 926 C 88.4539 -1.87733 0.767077 0
M  V30 927 C 88.7869 -1.8098 -0.704253 0
M  V30 928 O 88.0619 -1.21951 -1.5152 0
M  V30 929 C 88.3449 -3.37659 1.25133 0
M  V30 930 C 88.1979 -3.53149 2.78578 0
M  V30 931 C 89.5169 -4.31768 0.852324 0
M  V30 932 H 86.6359 -0.681687 0.280129 0
M  V30 933 H 89.2779 -1.37732 1.30881 0
M  V30 934 H 87.4279 -3.80373 0.790469 0
M  V30 935 H 89.0999 -3.19434 3.32806 0
M  V30 936 H 87.3429 -2.95345 3.17732 0
M  V30 937 H 88.0139 -4.58403 3.07523 0
M  V30 938 H 90.4899 -3.96909 1.24911 0
M  V30 939 H 89.3659 -5.35199 1.21873 0
M  V30 940 H 89.6269 -4.41429 -0.243485 0
M  V30 941 N 88.686 -0.835752 -1.33615 0
M  V30 942 C 89.634 -0.255238 -2.31195 0
M  V30 943 C 90.628 0.61107 -1.57995 0
M  V30 944 O 91.834 0.500979 -1.72888 0
M  V30 945 H 88.209 -0.0638085 -0.749288 0
M  V30 946 H 90.18 -1.09283 -2.77669 0
M  V30 947 C 88.929 0.55754 -3.43201 0
M  V30 948 H 88.252 -0.0997553 -3.99676 0
M  V30 949 H 89.692 0.929622 -4.13683 0
M  V30 950 C 88.151 1.73515 -2.88781 0
M  V30 951 O 88.681 2.83376 -2.84712 0
M  V30 952 N 86.887 1.55603 -2.4543 0
M  V30 953 H 86.434 0.662354 -2.48939 0
M  V30 954 H 86.392 2.34545 -2.09371 0
M  V30 955 N 90.1641 1.46063 -0.591896 0
M  V30 956 C 91.5801 1.57561 -0.254288 0
M  V30 957 C 91.7801 1.58565 1.24336 0
M  V30 958 O 90.8361 1.50753 2.02558 0
M  V30 959 C 92.1491 2.86549 -0.911611 0
M  V30 960 C 93.6971 3.00197 -0.886059 0
M  V30 961 C 94.1721 4.31933 -1.5231 0
M  V30 962 N 95.6631 4.38654 -1.48786 0
M  V30 963 C 96.3981 5.39222 -1.95006 0
M  V30 964 N 95.8941 6.46414 -2.49241 0
M  V30 965 N 97.6871 5.3048 -1.85868 0
M  V30 966 H 89.8381 1.43655 -1.56451 0
M  V30 967 H 92.1011 0.68583 -0.654478 0
M  V30 968 H 91.8071 2.91651 -1.96551 0
M  V30 969 H 91.6811 3.74794 -0.425368 0
M  V30 970 H 94.0681 2.9467 0.159246 0
M  V30 971 H 94.1491 2.13403 -1.41041 0
M  V30 972 H 93.7931 4.38217 -2.56765 0
M  V30 973 H 93.7231 5.17516 -0.973891 0
M  V30 974 H 96.2141 3.61793 -1.09151 0
M  V30 975 H 96.5271 7.19376 -2.82344 0
M  V30 976 H 94.8721 6.47208 -2.53272 0
M  V30 977 H 98.0631 4.45643 -1.43248 0
M  V30 978 H 98.2361 6.08711 -2.22204 0
M  V30 979 N 91.6422 0.330177 1.54103 0
M  V30 980 C 93.0532 -0.15652 1.86043 0
M  V30 981 C 93.4042 -1.51086 1.2517 0
M  V30 982 O 92.5292 -2.09023 0.560217 0
M  V30 983 C 93.1242 -0.290784 3.3755 0
M  V30 984 C 91.6832 -0.721705 3.69416 0
M  V30 985 C 90.8302 0.152622 2.7688 0
M  V30 986 H 93.7812 0.550237 1.48856 0
M  V30 987 H 93.8022 -1.12058 3.63625 0
M  V30 988 H 93.3142 0.695068 3.81825 0
M  V30 989 H 91.4152 -1.71706 3.30678 0
M  V30 990 H 91.5282 -0.520869 4.7626 0
M  V30 991 H 89.8922 -0.372894 2.51956 0
M  V30 992 H 90.6752 1.13536 3.23982 0
M  V30 993 N 93.1203 -1.57491 0.0584922 0
M  V30 994 C 94.0303 -2.15448 -0.928414 0
M  V30 995 C 95.0463 -1.11416 -1.3365 0
M  V30 996 O 96.2223 -1.4362 -1.41193 0
M  V30 997 C 93.2873 -2.69393 -2.18239 0
M  V30 998 C 92.3483 -3.88249 -1.83196 0
M  V30 999 C 91.5813 -4.39613 -3.02616 0
M  V30 1000 O 91.8043 -3.90023 -4.16219 0
M  V30 1001 O 90.7383 -5.31111 -2.83204 0
M  V30 1002 H 94.5643 -3.00112 -0.465483 0
M  V30 1003 H 92.1493 -1.48499 -0.163826 0
M  V30 1004 H 94.0313 -3.04026 -2.91798 0
M  V30 1005 H 92.7063 -1.87796 -2.63656 0
M  V30 1006 H 91.6133 -3.58492 -1.06931 0
M  V30 1007 H 92.9463 -4.71098 -1.42573 0
M  V30 1008 N 94.5984 0.214957 -1.56127 0
M  V30 1009 C 95.5484 1.27006 -1.8935 0
M  V30 1010 C 96.5324 1.41969 -0.757202 0
M  V30 1011 O 97.7244 1.44673 -1.01973 0
M  V30 1012 C 94.8534 2.61911 -2.2194 0
M  V30 1013 C 93.9394 2.50822 -3.41978 0
M  V30 1014 N 94.3304 2.09391 -4.60423 0
M  V30 1015 C 92.6284 2.81765 -3.45723 0
M  V30 1016 C 93.3294 2.09712 -5.42582 0
M  V30 1017 N 92.3054 2.50454 -4.82466 0
M  V30 1018 H 96.1074 0.940734 -2.78437 0
M  V30 1019 H 93.6214 0.423492 -1.56781 0
M  V30 1020 H 95.6184 3.38096 -2.43919 0
M  V30 1021 H 94.2784 2.95684 -1.34169 0
M  V30 1022 H 95.2894 1.80416 -4.85459 0
M  V30 1023 H 91.9664 3.19865 -2.68314 0
M  V30 1024 H 93.3564 1.79748 -6.4741 0
M  V30 1025 N 96.0765 1.50051 0.48192 0
M  V30 1026 C 97.3165 1.62128 1.24474 0
M  V30 1027 C 97.6805 0.309742 1.89485 0
M  V30 1028 O 98.8815 0.305854 2.67054 0
M  V30 1029 C 97.1525 2.76151 2.26882 0
M  V30 1030 S 98.7115 3.08297 3.12247 0
M  V30 1031 H 95.5295 0.571661 0.422759 0
M  V30 1032 H 98.1315 1.87791 0.54359 0
M  V30 1033 H 96.8355 3.69942 1.77683 0
M  V30 1034 H 96.3665 2.52541 3.0164 0
M  V30 1035 H 98.3815 2.51287 4.27866 0
M  V30 1036 N 97.5546 -0.734337 1.39446 0
M  V30 1037 C 98.8026 -1.49096 1.36436 0
M  V30 1038 C 99.1236 -1.94961 -0.0388255 0
M  V30 1039 O 98.3936 -1.69033 -0.990191 0
M  V30 1040 H 96.9736 -0.5531 0.502085 0
M  V30 1041 H 99.6356 -0.871725 1.74319 0
M  V30 1042 H 98.7316 -2.37276 2.02747 0
M  V30 1043 N 99.0327 -1.24633 -0.964593 0
M  V30 1044 C 100.31 -0.995809 -1.68354 0
M  V30 1045 C 100.69 0.480964 -2.05548 0
M  V30 1046 O 100.038 1.45599 -1.76105 0
M  V30 1047 C 100.248 -1.92177 -2.91323 0
M  V30 1048 C 101.596 -2.19446 -3.63495 0
M  V30 1049 O 102.62 -1.89855 -3.01386 0
M  V30 1050 O 101.479 -2.69714 -4.75307 0
M  V30 1051 H 98.5727 -0.376854 -0.736146 0
M  V30 1052 H 101.119 -1.35745 -1.0184 0
M  V30 1053 H 99.8907 -2.91938 -2.60553 0
M  V30 1054 H 99.5137 -1.56349 -3.65569 0
M  V30 1055 N 100.511 1.16574 -1.06058 0
M  V30 1056 C 101.441 2.23057 -0.690488 0
M  V30 1057 C 102.422 1.67141 0.315901 0
M  V30 1058 O 103.607 1.93253 0.191556 0
M  V30 1059 C 100.737 3.47222 -0.073625 0
M  V30 1060 C 99.6908 4.16016 -1.00573 0
M  V30 1061 C 99.0168 5.34104 -0.252289 0
M  V30 1062 C 100.317 4.67264 -2.33371 0
M  V30 1063 H 102.011 2.54271 -1.58072 0
M  V30 1064 H 99.5568 1.22218 -0.76149 0
M  V30 1065 H 101.51 4.20939 0.19714 0
M  V30 1066 H 100.234 3.15302 0.85161 0
M  V30 1067 H 98.8928 3.44223 -1.2612 0
M  V30 1068 H 98.5408 4.98437 0.675988 0
M  V30 1069 H 98.2408 5.81072 -0.873455 0
M  V30 1070 H 99.7648 6.10599 0.0109857 0
M  V30 1071 H 101.179 5.32573 -2.12223 0
M  V30 1072 H 99.5758 5.24843 -2.90963 0
M  V30 1073 H 100.646 3.83602 -2.96611 0
M  V30 1074 N 101.989 0.842826 1.3317 0
M  V30 1075 C 103.4 0.496651 1.79973 0
M  V30 1076 C 103.751 -0.984641 1.69703 0
M  V30 1077 O 102.876 -1.76743 1.24863 0
M  V30 1078 C 103.471 0.894727 3.26772 0
M  V30 1079 C 102.03 0.600629 3.71577 0
M  V30 1080 C 101.177 1.10091 2.5451 0
M  V30 1081 H 104.128 1.03116 1.20635 0
M  V30 1082 H 104.149 0.206347 3.7994 0
M  V30 1083 H 103.661 1.97287 3.34215 0
M  V30 1084 H 101.762 -0.467284 3.69658 0
M  V30 1085 H 101.875 1.15863 4.64879 0
M  V30 1086 H 100.239 0.52162 2.49301 0
M  V30 1087 H 101.022 2.18591 2.64713 0
M  V30 1088 N 103.467 -1.45747 0.599634 0
M  V30 1089 C 104.377 -2.34262 -0.125888 0
M  V30 1090 C 105.393 -1.50768 -0.868625 0
M  V30 1091 O 106.569 -1.83592 -0.828003 0
M  V30 1092 C 103.634 -3.28252 -1.11587 0
M  V30 1093 C 102.695 -4.27651 -0.375956 0
M  V30 1094 C 101.928 -5.1715 -1.31877 0
M  V30 1095 O 102.151 -5.09916 -2.55621 0
M  V30 1096 O 101.085 -5.96286 -0.820157 0
M  V30 1097 H 104.911 -2.97688 0.601315 0
M  V30 1098 H 102.496 -1.44999 0.359934 0
M  V30 1099 H 104.378 -3.86191 -1.68626 0
M  V30 1100 H 103.053 -2.67401 -1.82424 0
M  V30 1101 H 101.96 -3.7335 0.236698 0
M  V30 1102 H 103.293 -4.91334 0.29177 0
M  V30 1103 N 104.945 -0.338344 -1.53925 0
M  V30 1104 C 106.173 0.261298 -2.05243 0
M  V30 1105 C 106.588 1.44625 -1.21363 0
M  V30 1106 O 105.945 1.80811 -0.247736 0
M  V30 1107 C 105.996 0.681412 -3.5502 0
M  V30 1108 O 105.717 -0.456414 -4.35716 0
M  V30 1109 C 107.218 1.34232 -4.22489 0
M  V30 1110 H 104.438 0.0513685 -0.669031 0
M  V30 1111 H 106.982 -0.488822 -1.98572 0
M  V30 1112 H 105.137 1.38148 -3.61931 0
M  V30 1113 H 105.551 -0.122564 -5.24357 0
M  V30 1114 H 107.025 1.58708 -5.28693 0
M  V30 1115 H 107.502 2.29426 -3.74514 0
M  V30 1116 H 108.108 0.684424 -4.19757 0
M  V30 1117 N 106.423 1.57458 -0.0668435 0
M  V30 1118 C 107.37 2.12439 0.902122 0
M  V30 1119 C 108.34 1.03565 1.2986 0
M  V30 1120 O 109.525 1.312 1.38532 0
M  V30 1121 C 106.665 2.6865 2.16614 0
M  V30 1122 C 105.778 3.91663 1.82274 0
M  V30 1123 C 104.913 4.36134 3.0325 0
M  V30 1124 C 103.952 5.51808 2.64904 0
M  V30 1125 N 103.089 5.9126 3.78624 0
M  V30 1126 H 107.929 2.94934 0.426382 0
M  V30 1127 H 105.466 1.4575 0.198819 0
M  V30 1128 H 107.424 2.99346 2.90599 0
M  V30 1129 H 106.054 1.88928 2.61737 0
M  V30 1130 H 105.106 3.6746 0.983719 0
M  V30 1131 H 106.418 4.75693 1.50059 0
M  V30 1132 H 105.572 4.68465 3.85519 0
M  V30 1133 H 104.311 3.50948 3.38655 0
M  V30 1134 H 103.316 5.19133 1.81055 0
M  V30 1135 H 104.541 6.38722 2.30675 0
M  V30 1136 H 102.487 5.09024 4.138 0
M  V30 1137 H 102.404 6.70018 3.5016 0
M  V30 1138 H 103.672 6.28212 4.61486 0
M  V30 1139 N 107.901 -0.206675 1.56239 0
M  V30 1140 C 108.831 -1.25909 1.96645 0
M  V30 1141 C 109.812 -1.48097 0.836734 0
M  V30 1142 O 110.997 -1.6003 1.10019 0
M  V30 1143 C 108.127 -2.6058 2.29599 0
M  V30 1144 C 107.081 -2.53024 3.452 0
M  V30 1145 C 106.407 -3.91861 3.63798 0
M  V30 1146 C 107.707 -2.06524 4.79734 0
M  V30 1147 H 109.401 -0.923369 2.84806 0
M  V30 1148 H 106.947 -0.442735 1.37025 0
M  V30 1149 H 108.9 -3.34375 2.56459 0
M  V30 1150 H 107.624 -2.95869 1.38307 0
M  V30 1151 H 106.283 -1.81684 3.18412 0
M  V30 1152 H 105.931 -4.24483 2.69857 0
M  V30 1153 H 105.631 -3.87683 4.4156 0
M  V30 1154 H 107.155 -4.67296 3.93022 0
M  V30 1155 H 108.569 -2.70072 5.05702 0
M  V30 1156 H 106.966 -2.13374 5.60885 0
M  V30 1157 H 108.036 -1.01802 4.74093 0
M  V30 1158 N 109.379 -1.50304 -0.473955 0
M  V30 1159 C 110.604 -1.65175 -1.25427 0
M  V30 1160 C 111.029 -0.333673 -1.85117 0
M  V30 1161 O 110.387 0.702114 -1.67153 0
M  V30 1162 C 110.435 -2.74295 -2.34082 0
M  V30 1163 O 109.539 -2.35349 -3.38651 0
M  V30 1164 H 108.88 -0.551944 -0.369126 0
M  V30 1165 H 111.41 -1.96662 -0.564364 0
M  V30 1166 H 111.42 -2.97285 -2.79438 0
M  V30 1167 H 110.095 -3.69959 -1.90008 0
M  V30 1168 H 108.672 -2.22794 -2.99027 0
M  V30 1169 N 110.857 0.726932 -1.39834 0
M  V30 1170 C 112.082 1.52121 -1.40976 0
M  V30 1171 C 112.507 1.88098 -0.00826029 0
M  V30 1172 O 111.865 1.52479 0.980807 0
M  V30 1173 C 111.913 2.78021 -2.29644 0
M  V30 1174 O 111.017 3.74272 -1.73188 0
M  V30 1175 H 110.358 0.45908 -0.479731 0
M  V30 1176 H 112.888 0.896207 -1.83927 0
M  V30 1177 H 112.898 3.26671 -2.44438 0
M  V30 1178 H 111.573 2.51169 -3.31492 0
M  V30 1179 H 110.15 3.33073 -1.6768 0
M  V30 1180 N 112.336 1.25143 0.95797 0
M  V30 1181 C 113.246 1.06968 2.08794 0
M  V30 1182 C 114.262 0.00773911 1.73998 0
M  V30 1183 O 115.438 0.207972 2.00323 0
M  V30 1184 C 112.503 0.68691 3.39827 0
M  V30 1185 C 111.564 1.82641 3.88511 0
M  V30 1186 C 110.797 1.46181 5.1329 0
M  V30 1187 O 111.02 0.355971 5.69288 0
M  V30 1188 O 109.954 2.29085 5.566 0
M  V30 1189 H 113.78 2.01723 2.27027 0
M  V30 1190 H 111.365 1.04051 1.07209 0
M  V30 1191 H 113.247 0.485417 4.18595 0
M  V30 1192 H 111.922 -0.231417 3.22872 0
M  V30 1193 H 110.829 2.08274 3.10762 0
M  V30 1194 H 112.162 2.72386 4.09959 0
M  V30 1195 N 113.814 -1.1601 1.06675 0
M  V30 1196 C 115.063 -1.85973 0.780818 0
M  V30 1197 C 115.376 -1.82819 -0.695444 0
M  V30 1198 O 116.582 -2.484 -1.09589 0
M  V30 1199 C 115.038 -3.33757 1.34665 0
M  V30 1200 C 114.646 -3.45374 2.85343 0
M  V30 1201 C 116.39 -4.0895 1.13843 0
M  V30 1202 C 114.297 -4.87266 3.35151 0
M  V30 1203 H 113.227 -0.696661 0.288407 0
M  V30 1204 H 115.878 -1.30903 1.28595 0
M  V30 1205 H 114.26 -3.88456 0.769274 0
M  V30 1206 H 115.434 -3.00816 3.49065 0
M  V30 1207 H 113.749 -2.83619 3.04876 0
M  V30 1208 H 116.346 -5.13654 1.4854 0
M  V30 1209 H 116.689 -4.16229 0.0770282 0
M  V30 1210 H 117.222 -3.605 1.68179 0
M  V30 1211 H 113.961 -4.85168 4.40786 0
M  V30 1212 H 113.481 -5.32433 2.76179 0
M  V30 1213 H 115.16 -5.56097 3.30704 0
M  V30 1214 N 115.292 -0.849877 -1.32721 0
M  V30 1215 C 116.239 -0.289033 -2.28983 0
M  V30 1216 C 117.209 0.601324 -1.54833 0
M  V30 1217 O 118.394 0.537253 -1.8308 0
M  V30 1218 C 115.534 0.520623 -3.4115 0
M  V30 1219 C 114.647 -0.394989 -4.3019 0
M  V30 1220 C 113.782 0.426834 -5.29482 0
M  V30 1221 C 112.821 -0.486476 -6.10164 0
M  V30 1222 N 111.958 0.297879 -7.01468 0
M  V30 1223 H 116.798 -1.11519 -2.76347 0
M  V30 1224 H 114.335 -0.56138 -1.35967 0
M  V30 1225 H 116.293 1.00563 -4.04899 0
M  V30 1226 H 114.923 1.31165 -2.9495 0
M  V30 1227 H 113.975 -0.99836 -3.67065 0
M  V30 1228 H 115.287 -1.09612 -4.86607 0
M  V30 1229 H 114.441 0.975205 -5.98811 0
M  V30 1230 H 113.18 1.16136 -4.73671 0
M  V30 1231 H 112.185 -1.04677 -5.39743 0
M  V30 1232 H 113.41 -1.21953 -6.6806 0
M  V30 1233 H 111.356 1.01558 -6.48091 0
M  V30 1234 H 111.273 -0.344318 -7.55216 0
M  V30 1235 H 112.541 0.828131 -7.75089 0
M  V30 1236 N 116.77 1.45427 -0.607355 0
M  V30 1237 C 117.702 2.2871 0.149752 0
M  V30 1238 C 118.715 1.39937 0.831958 0
M  V30 1239 O 119.904 1.64313 0.697385 0
M  V30 1240 C 117.004 3.15673 1.23304 0
M  V30 1241 C 116.177 4.32722 0.637996 0
M  V30 1242 C 115.236 5.00895 1.61215 0
M  V30 1243 O 114.262 5.57697 1.13854 0
M  V30 1244 N 115.464 5.00159 2.94655 0
M  V30 1245 H 118.229 2.94328 -0.564882 0
M  V30 1246 H 115.79 1.55612 -0.446823 0
M  V30 1247 H 117.782 3.58144 1.88454 0
M  V30 1248 H 116.352 2.51965 1.8502 0
M  V30 1249 H 115.572 3.93734 -0.191572 0
M  V30 1250 H 116.86 5.08321 0.220665 0
M  V30 1251 H 116.258 4.553 3.35735 0
M  V30 1252 H 114.815 5.46495 3.55228 0
M  V30 1253 N 118.248 0.346503 1.53744 0
M  V30 1254 C 119.497 -0.250122 2.00143 0
M  V30 1255 C 119.81 -1.51418 1.23822 0
M  V30 1256 O 121.016 -2.18823 1.60713 0
M  V30 1257 C 119.472 -0.496252 3.56462 0
M  V30 1258 C 119.08 0.752077 4.41642 0
M  V30 1259 C 120.824 -1.05157 4.11269 0
M  V30 1260 C 118.731 0.476583 5.89477 0
M  V30 1261 H 117.661 -0.0972409 0.747703 0
M  V30 1262 H 120.312 0.46229 1.77581 0
M  V30 1263 H 118.694 -1.26944 3.75102 0
M  V30 1264 H 119.868 1.5266 4.34778 0
M  V30 1265 H 118.183 1.22925 3.97842 0
M  V30 1266 H 120.78 -1.27269 5.19333 0
M  V30 1267 H 121.123 -2.00799 3.64672 0
M  V30 1268 H 121.656 -0.339019 3.96353 0
M  V30 1269 H 118.395 1.4028 6.40314 0
M  V30 1270 H 117.915 -0.259794 5.99237 0
M  V30 1271 H 119.594 0.0949315 6.4693 0
M  V30 1272 N 119.726 -1.57421 0.075193 0
M  V30 1273 C 120.659 -2.08528 -0.926904 0
M  V30 1274 C 121.637 -0.991171 -1.28898 0
M  V30 1275 O 122.821 -1.26479 -1.39769 0
M  V30 1276 C 119.948 -2.54576 -2.23402 0
M  V30 1277 C 118.994 -3.75454 -2.02327 0
M  V30 1278 S 119.827 -5.19989 -1.27951 0
M  V30 1279 C 120.983 -5.69372 -2.59935 0
M  V30 1280 H 121.216 -2.932 -0.492048 0
M  V30 1281 H 118.749 -1.53785 -0.137651 0
M  V30 1282 H 120.707 -2.81767 -2.98526 0
M  V30 1283 H 119.368 -1.70166 -2.64012 0
M  V30 1284 H 118.561 -4.05675 -2.99071 0
M  V30 1285 H 118.163 -3.48654 -1.35339 0
M  V30 1286 H 120.455 -5.76424 -3.56008 0
M  V30 1287 H 121.398 -6.68207 -2.34319 0
M  V30 1288 H 121.806 -4.97205 -2.67296 0
M  V30 1289 N 121.204 0.198386 -1.56346 0
M  V30 1290 C 122.615 0.763358 -1.70381 0
M  V30 1291 C 122.966 1.83995 -0.681203 0
M  V30 1292 O 122.091 2.15785 0.16305 0
M  V30 1293 C 122.686 1.39143 -3.08909 0
M  V30 1294 C 121.245 1.90352 -3.2472 0
M  V30 1295 C 120.392 0.772233 -2.6633 0
M  V30 1296 H 123.343 -0.0266377 -1.58678 0
M  V30 1297 H 123.364 2.26076 -3.06055 0
M  V30 1298 H 122.876 0.607638 -3.83314 0
M  V30 1299 H 120.977 2.71461 -2.55225 0
M  V30 1300 H 121.09 2.06757 -4.3219 0
M  V30 1301 H 119.454 1.18566 -2.2542 0
M  V30 1302 H 120.237 0.00073556 -3.433 0
M  V30 1303 N 122.682 1.50554 0.465978 0
M  V30 1304 C 123.959 1.5232 1.22712 0
M  V30 1305 C 124.339 0.270807 2.09356 0
M  V30 1306 O 123.687 -0.745541 2.15995 0
M  V30 1307 C 123.897 2.82175 2.05374 0
M  V30 1308 C 125.245 3.33033 2.6339 0
M  V30 1309 O 126.269 2.83531 2.15612 0
M  V30 1310 O 125.128 4.19336 3.50456 0
M  V30 1311 H 122.222 0.611183 0.557122 0
M  V30 1312 H 124.768 1.62847 0.477381 0
M  V30 1313 H 123.54 3.64797 1.41558 0
M  V30 1314 H 123.163 2.74675 2.87471 0
M  V30 1315 N 124.16 -0.719506 1.40217 0
M  V30 1316 C 125.388 -1.50864 1.41589 0
M  V30 1317 C 125.803 -1.88794 0.0145275 0
M  V30 1318 O 125.16 -1.55174 -0.960594 0
M  V30 1319 C 125.211 -2.78646 2.30302 0
M  V30 1320 O 124.932 -2.42321 3.64983 0
M  V30 1321 C 126.433 -3.72569 2.40224 0
M  V30 1322 H 123.653 -0.465709 0.48307 0
M  V30 1323 H 126.197 -0.88785 1.84221 0
M  V30 1324 H 124.352 -3.37019 1.91042 0
M  V30 1325 H 124.766 -3.24514 4.12057 0
M  V30 1326 H 126.24 -4.5908 3.06512 0
M  V30 1327 H 126.717 -4.15403 1.42608 0
M  V30 1328 H 127.323 -3.20109 2.80019 0
M  V30 1329 N 125.638 -1.25649 -0.95132 0
M  V30 1330 C 126.868 -1.13179 -1.72841 0
M  V30 1331 C 127.276 0.316827 -1.86528 0
M  V30 1332 O 126.619 1.22948 -1.3649 0
M  V30 1333 C 126.681 -1.71644 -3.15878 0
M  V30 1334 C 126.345 -3.20667 -3.25609 0
M  V30 1335 C 127.342 -4.17616 -3.09666 0
M  V30 1336 C 125.027 -3.6094 -3.49324 0
M  V30 1337 C 127.021 -5.52817 -3.17289 0
M  V30 1338 C 124.708 -4.96278 -3.56584 0
M  V30 1339 C 125.706 -5.92025 -3.40581 0
M  V30 1340 O 125.394 -7.24899 -3.47528 0
M  V30 1341 H 125.126 -0.395389 -0.54831 0
M  V30 1342 H 127.68 -1.66566 -1.20187 0
M  V30 1343 H 125.91 -1.12707 -3.69911 0
M  V30 1344 H 127.599 -1.54225 -3.75459 0
M  V30 1345 H 128.365 -3.87842 -2.91211 0
M  V30 1346 H 124.244 -2.86907 -3.6084 0
M  V30 1347 H 127.788 -6.2753 -3.04716 0
M  V30 1348 H 123.685 -5.25716 -3.74556 0
M  V30 1349 H 124.453 -7.33039 -3.64138 0
M  V30 1350 N 127.117 1.15442 -1.07289 0
M  V30 1351 C 128.047 2.22312 -0.714107 0
M  V30 1352 C 129.028 1.67467 0.298155 0
M  V30 1353 O 130.213 1.93445 0.171048 0
M  V30 1354 C 127.343 3.47124 -0.110448 0
M  V30 1355 C 126.297 4.14926 -1.04979 0
M  V30 1356 C 125.623 5.33807 -0.308924 0
M  V30 1357 C 126.923 4.64762 -2.38314 0
M  V30 1358 H 128.617 2.5258 -1.6076 0
M  V30 1359 H 126.163 1.21404 -0.77441 0
M  V30 1360 H 128.116 4.21124 0.152482 0
M  V30 1361 H 126.84 3.16187 0.81812 0
M  V30 1362 H 125.499 3.42866 -1.29764 0
M  V30 1363 H 125.147 4.99126 0.623084 0
M  V30 1364 H 124.847 5.80113 -0.935036 0
M  V30 1365 H 126.371 6.10576 -0.0537771 0
M  V30 1366 H 127.785 5.30292 -2.1786 0
M  V30 1367 H 126.182 5.21728 -2.96514 0
M  V30 1368 H 127.252 3.80434 -3.00663 0
M  V30 1369 N 128.595 0.856903 1.32268 0
M  V30 1370 C 129.843 0.460474 1.96784 0
M  V30 1371 C 130.164 -0.987701 1.68135 0
M  V30 1372 O 129.434 -1.69058 0.989765 0
M  V30 1373 H 128.014 0.167289 0.728027 0
M  V30 1374 H 130.676 1.09383 1.61312 0
M  V30 1375 H 129.772 0.60739 3.06133 0
M  V30 1376 N 130.073 -1.45103 0.615059 0
M  V30 1377 C 131.322 -2.01396 0.110718 0
M  V30 1378 C 131.635 -1.48834 -1.26916 0
M  V30 1379 O 132.841 -1.97152 -1.86664 0
M  V30 1380 C 131.297 -3.59599 0.14723 0
M  V30 1381 C 130.905 -4.21158 1.52743 0
M  V30 1382 C 132.649 -4.23428 -0.30148 0
M  V30 1383 C 130.556 -5.71535 1.51992 0
M  V30 1384 H 129.486 -0.753061 0.0376241 0
M  V30 1385 H 132.137 -1.66494 0.77149 0
M  V30 1386 H 130.519 -3.91724 -0.580339 0
M  V30 1387 H 131.693 -4.00594 2.2773 0
M  V30 1388 H 130.008 -3.69552 1.91886 0
M  V30 1389 H 132.605 -5.33703 -0.326392 0
M  V30 1390 H 132.948 -3.94629 -1.32565 0
M  V30 1391 H 133.481 -3.96047 0.373065 0
M  V30 1392 H 130.22 -6.05044 2.52193 0
M  V30 1393 H 129.74 -5.94268 0.81274 0
M  V30 1394 H 131.419 -6.34873 1.24681 0
M  V30 1395 N 131.551 -0.354651 -1.53558 0
M  V30 1396 C 132.498 0.496968 -2.25386 0
M  V30 1397 C 133.468 1.0865 -1.25636 0
M  V30 1398 O 134.653 1.12104 -1.54394 0
M  V30 1399 C 131.793 1.63637 -3.03837 0
M  V30 1400 C 130.906 1.07307 -4.18461 0
M  V30 1401 C 130.041 2.18068 -4.84376 0
M  V30 1402 C 129.08 1.59147 -5.91049 0
M  V30 1403 N 128.217 2.63695 -6.50699 0
M  V30 1404 H 133.057 -0.122075 -2.9775 0
M  V30 1405 H 130.594 -0.0720154 -1.46924 0
M  V30 1406 H 132.552 2.30734 -3.47589 0
M  V30 1407 H 131.182 2.22623 -2.33749 0
M  V30 1408 H 130.234 0.292708 -3.79272 0
M  V30 1409 H 131.546 0.602193 -4.95152 0
M  V30 1410 H 130.7 2.93007 -5.31255 0
M  V30 1411 H 129.439 2.68504 -4.07133 0
M  V30 1412 H 128.444 0.827175 -5.43542 0
M  V30 1413 H 129.669 1.09549 -6.70206 0
M  V30 1414 H 127.615 3.13365 -5.76315 0
M  V30 1415 H 127.532 2.21263 -7.22896 0
M  V30 1416 H 128.8 3.3837 -7.02229 0
M  V30 1417 N 133.029 1.57378 -0.0835403 0
M  V30 1418 C 133.976 2.13384 0.879539 0
M  V30 1419 C 134.946 1.04936 1.28754 0
M  V30 1420 O 136.131 1.32662 1.37133 0
M  V30 1421 C 133.271 2.70932 2.13752 0
M  V30 1422 C 132.384 3.93575 1.7811 0
M  V30 1423 C 131.519 4.39326 2.98607 0
M  V30 1424 C 130.558 5.54587 2.59037 0
M  V30 1425 N 129.695 5.95243 3.72331 0
M  V30 1426 H 134.535 2.9537 0.395076 0
M  V30 1427 H 132.072 1.45953 0.183349 0
M  V30 1428 H 134.03 3.02411 2.87408 0
M  V30 1429 H 132.66 1.91693 2.59718 0
M  V30 1430 H 131.712 3.68483 0.94469 0
M  V30 1431 H 133.024 4.77258 1.45005 0
M  V30 1432 H 132.178 4.72528 3.80529 0
M  V30 1433 H 130.917 3.5452 3.34913 0
M  V30 1434 H 129.922 5.21024 1.75539 0
M  V30 1435 H 131.147 6.41133 2.23887 0
M  V30 1436 H 129.093 5.13385 4.08378 0
M  V30 1437 H 129.01 6.73694 3.43034 0
M  V30 1438 H 130.278 6.33072 4.54797 0
M  V30 1439 N 134.507 -0.190092 1.56449 0
M  V30 1440 C 135.753 -0.911052 1.81184 0
M  V30 1441 C 136.086 -1.82699 0.658396 0
M  V30 1442 O 135.361 -1.91491 -0.340775 0
M  V30 1443 C 135.644 -1.72297 3.16205 0
M  V30 1444 C 135.497 -0.831419 4.42049 0
M  V30 1445 C 136.816 -2.69454 3.47969 0
M  V30 1446 H 133.935 -0.32977 0.659106 0
M  V30 1447 H 136.577 -0.178169 1.89163 0
M  V30 1448 H 134.727 -2.34778 3.09534 0
M  V30 1449 H 136.399 -0.220929 4.60771 0
M  V30 1450 H 134.642 -0.138406 4.33579 0
M  V30 1451 H 135.313 -1.43461 5.33032 0
M  V30 1452 H 137.789 -2.17104 3.54972 0
M  V30 1453 H 136.665 -3.23342 4.43555 0
M  V30 1454 H 136.926 -3.48744 2.71717 0
M  V30 1455 N 135.985 -1.50799 -0.457987 0
M  V30 1456 C 137.231 -1.62683 -1.21088 0
M  V30 1457 C 137.564 -0.332268 -1.91336 0
M  V30 1458 O 136.839 0.667043 -1.82704 0
M  V30 1459 C 137.122 -2.81615 -2.24422 0
M  V30 1460 C 136.975 -4.20989 -1.58392 0
M  V30 1461 C 138.294 -2.96085 -3.2561 0
M  V30 1462 H 135.413 -0.592087 -0.438864 0
M  V30 1463 H 138.055 -1.83225 -0.50286 0
M  V30 1464 H 136.205 -2.64231 -2.84806 0
M  V30 1465 H 137.877 -4.49994 -1.01504 0
M  V30 1466 H 136.12 -4.24641 -0.886704 0
M  V30 1467 H 136.791 -5.0016 -2.33547 0
M  V30 1468 H 139.267 -3.12042 -2.75262 0
M  V30 1469 H 138.143 -3.80902 -3.95228 0
M  V30 1470 H 138.404 -2.0726 -3.90507 0
M  V30 1471 N 137.463 0.71206 -1.40597 0
M  V30 1472 C 138.426 1.80785 -1.40888 0
M  V30 1473 C 139.426 1.57937 -0.302103 0
M  V30 1474 O 140.616 1.64913 -0.561182 0
M  V30 1475 C 137.748 3.18927 -1.20409 0
M  V30 1476 H 138.941 1.81924 -2.38419 0
M  V30 1477 H 136.494 0.91805 -1.26497 0
M  V30 1478 H 137.229 3.23436 -0.236522 0
M  V30 1479 H 137.014 3.36911 -2.00582 0
M  V30 1480 H 138.504 3.98949 -1.23408 0
M  V30 1481 N 138.941 1.26152 0.944643 0
M  V30 1482 C 139.871 1.09902 2.06019 0
M  V30 1483 C 140.852 0.00519538 1.70099 0
M  V30 1484 O 142.037 0.176583 1.93396 0
M  V30 1485 C 139.167 0.727562 3.39594 0
M  V30 1486 C 138.121 1.77274 3.89561 0
M  V30 1487 C 137.447 1.25569 5.19747 0
M  V30 1488 C 138.747 3.17357 4.14827 0
M  V30 1489 H 140.441 2.03217 2.19871 0
M  V30 1490 H 137.987 0.978452 1.05652 0
M  V30 1491 H 139.94 0.600777 4.17095 0
M  V30 1492 H 138.664 -0.241287 3.25707 0
M  V30 1493 H 137.323 1.88814 3.14237 0
M  V30 1494 H 136.971 0.276783 5.02238 0
M  V30 1495 H 136.671 1.95433 5.54148 0
M  V30 1496 H 138.195 1.1415 5.99835 0
M  V30 1497 H 139.609 3.08914 4.82954 0
M  V30 1498 H 138.006 3.84781 4.60504 0
M  V30 1499 H 139.076 3.63673 3.20734 0
M  V30 1500 N 140.419 -1.14872 1.07899 0
M  V30 1501 C 141.644 -1.90202 0.826926 0
M  V30 1502 C 142.069 -1.77774 -0.614664 0
M  V30 1503 O 141.427 -1.11431 -1.43013 0
M  V30 1504 C 141.475 -3.38352 1.24702 0
M  V30 1505 O 140.579 -4.10497 0.39575 0
M  V30 1506 H 139.92 -0.591968 0.300782 0
M  V30 1507 H 142.45 -1.45437 1.43907 0
M  V30 1508 H 142.46 -3.89156 1.22563 0
M  V30 1509 H 141.135 -3.46715 2.29698 0
M  V30 1510 H 139.712 -3.69796 0.480117 0
M  V30 1511 N 141.898 -0.863906 -1.31812 0
M  V30 1512 C 143.175 -0.39275 -1.91616 0
M  V30 1513 C 143.555 1.12461 -1.7865 0
M  V30 1514 O 142.903 1.95045 -1.19037 0
M  V30 1515 C 143.113 -0.867385 -3.38049 0
M  V30 1516 C 144.461 -0.889966 -4.15168 0
M  V30 1517 O 145.485 -0.812635 -3.46806 0
M  V30 1518 O 144.344 -1.00079 -5.37258 0
M  V30 1519 H 141.438 -0.116358 -0.818773 0
M  V30 1520 H 143.984 -0.951418 -1.40521 0
M  V30 1521 H 142.756 -1.91081 -3.41473 0
M  V30 1522 H 142.379 -0.286687 -3.96565 0
M  V30 1523 N 143.376 1.44774 -0.622745 0
M  V30 1524 C 144.622 2.0242 -0.124083 0
M  V30 1525 C 144.955 1.4881 1.24777 0
M  V30 1526 O 144.23 0.668799 1.8264 0
M  V30 1527 C 144.513 3.59957 -0.101619 0
M  V30 1528 C 144.366 4.23867 -1.50521 0
M  V30 1529 C 145.685 4.36284 0.578272 0
M  V30 1530 H 142.804 0.735528 -0.0465645 0
M  V30 1531 H 145.446 1.72447 -0.797617 0
M  V30 1532 H 143.596 3.85623 0.471934 0
M  V30 1533 H 145.268 4.09336 -2.12701 0
M  V30 1534 H 143.511 3.81684 -2.06154 0
M  V30 1535 H 144.182 5.32843 -1.4416 0
M  V30 1536 H 146.658 4.16001 0.0906057 0
M  V30 1537 H 145.534 5.46004 0.563149 0
M  V30 1538 H 145.795 4.10271 1.64713 0
M  V30 1539 N 144.854 0.36279 1.53368 0
M  V30 1540 C 145.804 -0.501391 2.22419 0
M  V30 1541 C 146.788 -1.0509 1.2184 0
M  V30 1542 O 147.98 -0.981404 1.47301 0
M  V30 1543 C 145.109 -1.64201 3.01484 0
M  V30 1544 C 144.195 -1.10552 4.09438 0
M  V30 1545 N 144.586 -0.291788 5.04958 0
M  V30 1546 C 142.884 -1.3806 4.24094 0
M  V30 1547 C 143.585 0.00162655 5.817 0
M  V30 1548 N 142.561 -0.595244 5.40331 0
M  V30 1549 H 146.363 0.127159 2.93625 0
M  V30 1550 H 143.877 0.170658 1.61501 0
M  V30 1551 H 145.874 -2.27326 3.49469 0
M  V30 1552 H 144.534 -2.27365 2.31809 0
M  V30 1553 H 145.545 0.0687731 5.17854 0
M  V30 1554 H 142.222 -2.01522 3.65644 0
M  V30 1555 H 143.612 0.659278 6.68658 0
M  V30 1556 N 146.332 -1.57332 0.0918853 0
M  V30 1557 C 147.58 -1.93853 -0.571446 0
M  V30 1558 C 147.901 -0.974212 -1.6892 0
M  V30 1559 O 147.171 -0.0257254 -1.95883 0
M  V30 1560 H 145.751 -0.715666 -0.214082 0
M  V30 1561 H 148.413 -1.94287 0.154464 0
M  V30 1562 H 147.509 -2.96191 -0.983729 0
M  V30 1563 N 147.81 0.181792 -1.56548 0
M  V30 1564 C 148.742 1.24956 -1.92142 0
M  V30 1565 C 149.755 1.41022 -0.813422 0
M  V30 1566 O 150.944 1.41212 -1.09186 0
M  V30 1567 C 148.044 2.61981 -2.14987 0
M  V30 1568 C 147.217 2.6735 -3.46183 0
M  V30 1569 C 146.276 3.85664 -3.5798 0
M  V30 1570 O 145.302 3.72148 -4.30691 0
M  V30 1571 N 146.504 5.01683 -2.92053 0
M  V30 1572 H 149.269 0.947329 -2.84334 0
M  V30 1573 H 146.83 0.371629 -1.57577 0
M  V30 1574 H 148.822 3.3958 -2.20154 0
M  V30 1575 H 147.392 2.84637 -1.2923 0
M  V30 1576 H 146.612 1.75925 -3.52766 0
M  V30 1577 H 147.9 2.67939 -4.32534 0
M  V30 1578 H 147.298 5.15564 -2.32832 0
M  V30 1579 H 145.855 5.77181 -3.0283 0
M  V30 1580 N 149.288 1.51039 0.449983 0
M  V30 1581 C 150.518 1.66627 1.22143 0
M  V30 1582 C 150.926 0.357776 1.85786 0
M  V30 1583 O 150.269 -0.672424 1.70951 0
M  V30 1584 C 150.331 2.71562 2.35573 0
M  V30 1585 C 149.995 4.14526 1.92399 0
M  V30 1586 C 150.992 4.99717 1.43453 0
M  V30 1587 C 148.677 4.60559 2.00475 0
M  V30 1588 C 150.671 6.28998 1.03155 0
M  V30 1589 C 148.358 5.8984 1.59788 0
M  V30 1590 C 149.356 6.73886 1.11208 0
M  V30 1591 O 149.044 8.0075 0.710935 0
M  V30 1592 H 148.776 0.562635 0.374724 0
M  V30 1593 H 151.33 1.98146 0.541036 0
M  V30 1594 H 149.56 2.3533 3.06849 0
M  V30 1595 H 151.249 2.76156 2.97478 0
M  V30 1596 H 152.015 4.65361 1.36618 0
M  V30 1597 H 147.894 3.95273 2.37235 0
M  V30 1598 H 151.438 6.9455 0.651663 0
M  V30 1599 H 147.335 6.23713 1.66289 0
M  V30 1600 H 148.103 8.142 0.837913 0
M  V30 1601 N 150.766 -0.704594 1.40972 0
M  V30 1602 C 152.043 -1.45847 1.30338 0
M  V30 1603 C 152.423 -2.10973 -0.0732344 0
M  V30 1604 O 151.771 -2.00997 -1.08685 0
M  V30 1605 C 151.981 -2.48525 2.45023 0
M  V30 1606 C 153.329 -3.1404 2.8577 0
M  V30 1607 O 154.353 -2.58848 2.44696 0
M  V30 1608 O 153.212 -4.13981 3.56766 0
M  V30 1609 H 150.306 -0.649092 0.512454 0
M  V30 1610 H 152.852 -0.735836 1.52917 0
M  V30 1611 H 151.624 -1.98994 3.36923 0
M  V30 1612 H 151.247 -3.2831 2.24272 0
M  V30 1613 N 152.244 -1.26651 -0.937939 0
M  V30 1614 C 153.49 -1.12553 -1.687 0
M  V30 1615 C 153.823 0.329782 -1.91379 0
M  V30 1616 O 153.098 1.24202 -1.4968 0
M  V30 1617 C 153.381 -1.89862 -3.05981 0
M  V30 1618 C 153.234 -3.43318 -2.90607 0
M  V30 1619 C 154.553 -1.69499 -4.0615 0
M  V30 1620 H 151.672 -0.410257 -0.612257 0
M  V30 1621 H 154.314 -1.55685 -1.08913 0
M  V30 1622 H 152.464 -1.53204 -3.57017 0
M  V30 1623 H 154.136 -3.89747 -2.46769 0
M  V30 1624 H 152.379 -3.70179 -2.26164 0
M  V30 1625 H 153.05 -3.92642 -3.8799 0
M  V30 1626 H 155.526 -2.01442 -3.64088 0
M  V30 1627 H 154.402 -2.26002 -5.00214 0
M  V30 1628 H 154.663 -0.640365 -4.37438 0
M  V30 1629 N 153.722 1.14298 -1.08507 0
M  V30 1630 C 154.652 2.21542 -0.737646 0
M  V30 1631 C 155.633 1.67773 0.280377 0
M  V30 1632 O 156.818 1.93616 0.150521 0
M  V30 1633 C 153.948 3.46988 -0.147259 0
M  V30 1634 C 152.902 4.13789 -1.09374 0
M  V30 1635 C 152.228 5.33449 -0.365524 0
M  V30 1636 C 153.528 4.62208 -2.4323 0
M  V30 1637 H 155.222 2.5086 -1.6343 0
M  V30 1638 H 152.768 1.20576 -0.787243 0
M  V30 1639 H 154.721 4.21262 0.107808 0
M  V30 1640 H 153.445 3.17037 0.784538 0
M  V30 1641 H 152.104 3.4147 -1.33393 0
M  V30 1642 H 151.752 4.99759 0.57011 0
M  V30 1643 H 151.452 5.79088 -0.996512 0
M  V30 1644 H 152.976 6.10485 -0.118534 0
M  V30 1645 H 154.39 5.27952 -2.23472 0
M  V30 1646 H 152.787 5.18553 -3.02031 0
M  V30 1647 H 153.857 3.77224 -3.04681 0
M  V30 1648 N 155.201 0.870884 1.31352 0
M  V30 1649 C 156.131 0.343096 2.30966 0
M  V30 1650 C 157.112 -0.566507 1.60389 0
M  V30 1651 O 158.297 -0.483336 1.88089 0
M  V30 1652 C 155.427 -0.455487 3.443 0
M  V30 1653 C 154.381 0.361103 4.26474 0
M  V30 1654 C 153.707 -0.563221 5.31725 0
M  V30 1655 C 155.007 1.59566 4.97329 0
M  V30 1656 H 156.701 1.17548 2.75359 0
M  V30 1657 H 154.247 0.566686 1.32381 0
M  V30 1658 H 156.2 -0.83525 4.13039 0
M  V30 1659 H 154.924 -1.32139 2.98675 0
M  V30 1660 H 153.583 0.722825 3.59403 0
M  V30 1661 H 153.231 -1.42643 4.82351 0
M  V30 1662 H 152.931 -0.0207409 5.87596 0
M  V30 1663 H 154.455 -0.939808 6.03324 0
M  V30 1664 H 155.869 1.28728 5.58661 0
M  V30 1665 H 154.266 2.07728 5.63 0
M  V30 1666 H 155.336 2.34798 4.24262 0
M  V30 1667 N 156.679 -1.44442 0.630414 0
M  V30 1668 C 157.907 -2.06414 0.141671 0
M  V30 1669 C 158.322 -1.47105 -1.18345 0
M  V30 1670 O 157.679 -0.593662 -1.72574 0
M  V30 1671 C 157.73 -3.61494 0.0199784 0
M  V30 1672 O 157.451 -4.18594 1.29269 0
M  V30 1673 C 158.952 -4.40499 -0.497544 0
M  V30 1674 H 156.172 -0.666292 0.0793452 0
M  V30 1675 H 158.716 -1.85323 0.864614 0
M  V30 1676 H 156.871 -3.8185 -0.653402 0
M  V30 1677 H 157.285 -5.12026 1.13707 0
M  V30 1678 H 158.759 -5.49433 -0.531708 0
M  V30 1679 H 159.236 -4.11895 -1.52445 0
M  V30 1680 H 159.842 -4.25061 0.142562 0
M  V30 1681 N 158.157 -0.370918 -1.53173 0
M  V30 1682 C 159.087 0.464847 -2.28826 0
M  V30 1683 C 160.068 1.07936 -1.31468 0
M  V30 1684 O 161.253 1.0956 -1.60344 0
M  V30 1685 C 158.383 1.60196 -3.08147 0
M  V30 1686 C 157.337 1.11443 -4.13237 0
M  V30 1687 C 156.663 2.3422 -4.80672 0
M  V30 1688 C 157.963 0.195384 -5.21934 0
M  V30 1689 H 159.657 -0.166329 -2.98938 0
M  V30 1690 H 157.203 -0.0814359 -1.4377 0
M  V30 1691 H 159.156 2.19332 -3.59822 0
M  V30 1692 H 157.88 2.26045 -2.35735 0
M  V30 1693 H 156.539 0.545727 -3.62515 0
M  V30 1694 H 156.187 2.98537 -4.04827 0
M  V30 1695 H 155.887 2.02269 -5.51689 0
M  V30 1696 H 157.411 2.94032 -5.35143 0
M  V30 1697 H 158.825 0.694375 -5.69079 0
M  V30 1698 H 157.222 -0.0335027 -6.00091 0
M  V30 1699 H 158.292 -0.760961 -4.78892 0
M  V30 1700 N 159.635 1.57281 -0.100228 0
M  V30 1701 C 160.565 2.17328 0.853857 0
M  V30 1702 C 161.546 1.10804 1.2906 0
M  V30 1703 O 162.731 1.38963 1.35657 0
M  V30 1704 C 159.861 2.75772 2.11109 0
M  V30 1705 C 158.815 3.87713 1.81279 0
M  V30 1706 C 158.141 4.32882 3.13874 0
M  V30 1707 C 159.441 5.10677 1.09574 0
M  V30 1708 H 161.135 2.97305 0.353545 0
M  V30 1709 H 158.681 1.43009 0.168612 0
M  V30 1710 H 160.634 3.16433 2.78296 0
M  V30 1711 H 159.358 1.93057 2.63432 0
M  V30 1712 H 158.017 3.476 1.16489 0
M  V30 1713 H 157.665 3.47051 3.64095 0
M  V30 1714 H 157.365 5.08358 2.94696 0
M  V30 1715 H 158.889 4.7618 3.82211 0
M  V30 1716 H 160.303 5.48474 1.66879 0
M  V30 1717 H 158.7 5.91615 1.00557 0
M  V30 1718 H 159.77 4.84835 0.0793299 0
M  V30 1719 N 161.113 -0.173488 1.56642 0
M  V30 1720 C 162.06 -1.21482 1.96242 0
M  V30 1721 C 163.03 -1.44104 0.826027 0
M  V30 1722 O 164.215 -1.5688 1.08597 0
M  V30 1723 C 161.355 -2.54964 2.32567 0
M  V30 1724 C 160.468 -2.39739 3.59373 0
M  V30 1725 C 159.603 -3.66072 3.84921 0
M  V30 1726 C 158.642 -3.45771 5.05083 0
M  V30 1727 N 157.779 -4.64169 5.26775 0
M  V30 1728 H 162.619 -0.870123 2.85014 0
M  V30 1729 H 160.156 -0.418245 1.41029 0
M  V30 1730 H 162.114 -3.32758 2.5165 0
M  V30 1731 H 160.744 -2.87433 1.46908 0
M  V30 1732 H 159.796 -1.53131 3.48217 0
M  V30 1733 H 161.108 -2.20683 4.47326 0
M  V30 1734 H 160.262 -4.52303 4.0436 0
M  V30 1735 H 159.001 -3.88105 2.9534 0
M  V30 1736 H 158.006 -2.57927 4.85545 0
M  V30 1737 H 159.231 -3.25163 5.96193 0
M  V30 1738 H 157.177 -4.86425 4.40144 0
M  V30 1739 H 157.094 -4.48019 6.08946 0
M  V30 1740 H 158.362 -5.51689 5.5069 0
M  V30 1741 N 162.591 -1.51276 -0.441967 0
M  V30 1742 C 163.538 -1.72256 -1.53612 0
M  V30 1743 C 164.508 -0.564164 -1.56225 0
M  V30 1744 O 165.693 -0.798074 -1.73307 0
M  V30 1745 C 162.833 -1.84932 -2.91366 0
M  V30 1746 C 161.946 -3.12459 -2.98317 0
M  V30 1747 C 161.081 -3.15758 -4.27166 0
M  V30 1748 C 160.12 -4.37619 -4.27967 0
M  V30 1749 N 159.257 -4.38493 -5.48333 0
M  V30 1750 H 164.097 -2.65654 -1.35026 0
M  V30 1751 H 161.634 -1.31662 -0.656009 0
M  V30 1752 H 163.592 -1.90263 -3.7129 0
M  V30 1753 H 162.222 -0.949461 -3.08521 0
M  V30 1754 H 161.274 -3.1646 -2.11086 0
M  V30 1755 H 162.586 -4.02382 -2.94771 0
M  V30 1756 H 161.74 -3.19979 -5.15459 0
M  V30 1757 H 160.479 -2.23715 -4.33362 0
M  V30 1758 H 159.484 -4.33579 -3.38067 0
M  V30 1759 H 160.709 -5.30921 -4.23438 0
M  V30 1760 H 158.655 -3.49318 -5.55259 0
M  V30 1761 H 158.572 -5.22219 -5.46647 0
M  V30 1762 H 159.84 -4.469 -6.38671 0
M  V30 1763 N 164.069 0.697108 -1.41344 0
M  V30 1764 C 165.001 1.8224 -1.39001 0
M  V30 1765 C 166.014 1.60152 -0.292428 0
M  V30 1766 O 167.203 1.69684 -0.554048 0
M  V30 1767 C 164.303 3.18976 -1.14489 0
M  V30 1768 C 163.476 3.68105 -2.36258 0
M  V30 1769 C 162.535 4.83506 -2.07625 0
M  V30 1770 O 161.561 4.95201 -2.8065 0
M  V30 1771 N 162.763 5.70637 -1.06555 0
M  V30 1772 H 165.528 1.84742 -2.35988 0
M  V30 1773 H 163.089 0.87937 -1.35936 0
M  V30 1774 H 165.081 3.93801 -0.932885 0
M  V30 1775 H 163.651 3.11508 -0.261043 0
M  V30 1776 H 162.871 2.84204 -2.7317 0
M  V30 1777 H 164.159 3.97667 -3.17393 0
M  V30 1778 H 163.557 5.63817 -0.461125 0
M  V30 1779 H 162.114 6.45368 -0.913444 0
M  V30 1780 N 165.547 1.27147 0.931209 0
M  V30 1781 C 166.494 1.09568 2.03134 0
M  V30 1782 C 167.464 -0.00222433 1.661 0
M  V30 1783 O 168.649 0.159439 1.90133 0
M  V30 1784 C 165.789 0.745231 3.36957 0
M  V30 1785 C 164.902 1.92041 3.86968 0
M  V30 1786 C 164.037 1.51216 5.09222 0
M  V30 1787 C 163.076 2.65504 5.5152 0
M  V30 1788 N 162.213 2.25291 6.64972 0
M  V30 1789 H 167.053 2.03708 2.17502 0
M  V30 1790 H 164.59 1.01411 1.06556 0
M  V30 1791 H 166.548 0.522878 4.1391 0
M  V30 1792 H 165.178 -0.159202 3.22407 0
M  V30 1793 H 164.23 2.25541 3.06326 0
M  V30 1794 H 165.542 2.77787 4.1429 0
M  V30 1795 H 164.696 1.25084 5.93666 0
M  V30 1796 H 163.435 0.625749 4.83669 0
M  V30 1797 H 162.44 2.92354 4.65628 0
M  V30 1798 H 163.665 3.54761 5.7907 0
M  V30 1799 H 161.611 1.39098 6.41083 0
M  V30 1800 H 161.528 3.04577 6.91931 0
M  V30 1801 H 162.796 2.02398 7.52765 0
M  V30 1802 N 167.025 -1.13721 1.09112 0
M  V30 1803 C 168.274 -1.84275 0.82009 0
M  V30 1804 C 168.587 -1.84253 -0.656509 0
M  V30 1805 O 169.793 -2.50668 -1.04296 0
M  V30 1806 C 168.249 -3.30825 1.41714 0
M  V30 1807 C 167.857 -3.39244 2.92605 0
M  V30 1808 C 169.601 -4.06443 1.22492 0
M  V30 1809 C 167.508 -4.80047 3.45411 0
M  V30 1810 H 166.438 -0.690387 0.30312 0
M  V30 1811 H 169.089 -1.28146 1.31343 0
M  V30 1812 H 167.471 -3.86737 0.851498 0
M  V30 1813 H 168.645 -2.93344 3.55367 0
M  V30 1814 H 166.96 -2.77088 3.10823 0
M  V30 1815 H 169.557 -5.10387 1.59402 0
M  V30 1816 H 169.9 -4.15972 0.165299 0
M  V30 1817 H 170.433 -3.56852 1.75788 0
M  V30 1818 H 167.172 -4.75709 4.50978 0
M  V30 1819 H 166.692 -5.26455 2.87411 0
M  V30 1820 H 168.371 -5.48957 3.42425 0
M  V30 1821 N 168.503 -0.877838 -1.30888 0
M  V30 1822 C 169.752 -0.488793 -1.95688 0
M  V30 1823 C 170.065 0.965485 -1.70111 0
M  V30 1824 O 171.271 1.46104 -2.28836 0
M  V30 1825 C 169.727 -0.823201 -3.50359 0
M  V30 1826 C 169.335 -2.29477 -3.84765 0
M  V30 1827 C 171.079 -0.503009 -4.21509 0
M  V30 1828 C 168.986 -2.57118 -5.32583 0
M  V30 1829 H 167.916 -0.179062 -0.732429 0
M  V30 1830 H 170.567 -1.07183 -1.48943 0
M  V30 1831 H 168.949 -0.169331 -3.95638 0
M  V30 1832 H 170.123 -2.99236 -3.5042 0
M  V30 1833 H 168.438 -2.58178 -3.267 0
M  V30 1834 H 171.035 -0.68665 -5.30273 0
M  V30 1835 H 171.378 0.557109 -4.12555 0
M  V30 1836 H 171.911 -1.11376 -3.8189 0
M  V30 1837 H 168.65 -3.61843 -5.4658 0
M  V30 1838 H 168.17 -1.91961 -5.68253 0
M  V30 1839 H 169.849 -2.42251 -5.99936 0
M  V30 1840 N 169.982 1.44106 -0.638065 0
M  V30 1841 C 171.259 1.95453 -0.0759321 0
M  V30 1842 C 171.639 1.57984 1.40015 0
M  V30 1843 O 170.987 0.857361 2.11806 0
M  V30 1844 C 171.197 3.47655 -0.306132 0
M  V30 1845 C 172.545 4.24114 -0.203008 0
M  V30 1846 O 173.569 3.55405 -0.237871 0
M  V30 1847 O 172.428 5.46381 -0.113827 0
M  V30 1848 H 169.522 0.826797 0.0183332 0
M  V30 1849 H 172.068 1.54122 -0.710251 0
M  V30 1850 H 170.84 3.68 -1.3301 0
M  V30 1851 H 170.463 3.95949 0.361991 0
M  V30 1852 N 171.46 0.379036 1.52974 0
M  V30 1853 C 172.685 -0.209353 2.06341 0
M  V30 1854 C 173.11 -1.40583 1.24972 0
M  V30 1855 O 172.468 -1.79246 0.272155 0
M  V30 1856 C 172.516 -0.567786 3.56102 0
M  V30 1857 O 171.62 -1.66318 3.77375 0
M  V30 1858 H 170.961 -0.0272919 0.663439 0
M  V30 1859 H 173.491 0.543536 1.97248 0
M  V30 1860 H 173.501 -0.835003 3.99364 0
M  V30 1861 H 172.176 0.307013 4.14765 0
M  V30 1862 H 170.753 -1.39048 3.46006 0
M  V30 1863 N 172.938 -1.57226 0.108567 0
M  V30 1864 C 174.215 -1.86333 -0.594939 0
M  V30 1865 C 174.595 -1.00788 -1.85486 0
M  V30 1866 O 173.943 -0.0839293 -2.28346 0
M  V30 1867 C 174.153 -3.37265 -0.897405 0
M  V30 1868 C 175.501 -4.05629 -1.25501 0
M  V30 1869 O 176.525 -3.42224 -0.987998 0
M  V30 1870 O 175.384 -5.17531 -1.75567 0
M  V30 1871 H 172.478 -0.771018 -0.2991 0
M  V30 1872 H 175.024 -1.69102 0.142283 0
M  V30 1873 H 173.796 -3.913 -0.00413806 0
M  V30 1874 H 173.419 -3.59889 -1.69014 0
M  V30 1875 N 174.416 0.165178 -1.56732 0
M  V30 1876 C 175.664 0.879068 -1.8198 0
M  V30 1877 C 175.985 1.82514 -0.686561 0
M  V30 1878 O 175.255 1.93694 0.293146 0
M  V30 1879 H 173.835 0.327608 -0.671329 0
M  V30 1880 H 176.497 0.163526 -1.94213 0
M  V30 1881 H 175.593 1.45228 -2.76252 0
M  V30 1882 N 175.894 1.51508 0.433938 0
M  V30 1883 C 176.842 1.73646 1.54757 0
M  V30 1884 C 177.836 0.602854 1.5831 0
M  V30 1885 O 179.042 0.784318 1.62014 0
M  V30 1886 H 175.417 0.548718 0.51421 0
M  V30 1887 H 177.388 2.66991 1.33261 0
M  V30 1888 C 176.137 1.88172 2.92381 0
M  V30 1889 H 175.46 2.74808 2.90381 0
M  V30 1890 H 176.9 2.07672 3.6966 0
M  V30 1891 C 175.359 0.64239 3.30719 0
M  V30 1892 O 175.889 -0.201362 4.01195 0
M  V30 1893 N 174.095 0.485489 2.86516 0
M  V30 1894 H 173.642 1.17318 2.29334 0
M  V30 1895 H 173.6 -0.342482 3.12529 0
M  V30 1896 N 177.372 -0.689602 1.41712 0
M  V30 1897 C 178.618 -1.45041 1.42599 0
M  V30 1898 C 178.973 -1.92366 0.0363764 0
M  V30 1899 O 178.266 -1.67022 -0.938844 0
M  V30 1900 C 178.46 -2.67298 2.37247 0
M  V30 1901 C 178.289 -2.31935 3.85274 0
M  V30 1902 C 177.059 -2.2201 4.53916 0
M  V30 1903 C 179.257 -1.94526 4.76093 0
M  V30 1904 N 177.239 -1.79594 5.87043 0
M  V30 1905 C 178.61 -1.62915 5.98213 0
M  V30 1906 C 180.665 -1.81388 4.63684 0
M  V30 1907 C 179.368 -1.19486 7.09306 0
M  V30 1908 C 181.394 -1.39364 5.74745 0
M  V30 1909 C 180.756 -1.08668 6.95967 0
M  V30 1910 H 176.855 -0.527806 0.577014 0
M  V30 1911 H 179.439 -0.797266 1.77628 0
M  V30 1912 H 177.61 -3.30325 2.04304 0
M  V30 1913 H 179.342 -3.33806 2.28814 0
M  V30 1914 H 176.097 -2.406 4.07932 0
M  V30 1915 H 176.521 -1.60851 6.57614 0
M  V30 1916 H 181.163 -2.03772 3.70455 0
M  V30 1917 H 178.881 -0.958477 8.02396 0
M  V30 1918 H 182.467 -1.2974 5.6715 0
M  V30 1919 H 181.347 -0.766417 7.80446 0
M  V30 1920 N 178.85 -1.27639 -0.924453 0
M  V30 1921 C 179.813 -1.10681 -2.00705 0
M  V30 1922 C 180.813 -0.0497823 -1.60723 0
M  V30 1923 O 182.003 -0.294654 -1.7169 0
M  V30 1924 C 179.135 -0.687164 -3.33902 0
M  V30 1925 H 180.328 -2.06817 -2.17179 0
M  V30 1926 H 177.881 -1.10473 -1.10569 0
M  V30 1927 H 178.616 0.275439 -3.23128 0
M  V30 1928 H 178.401 -1.45061 -3.6428 0
M  V30 1929 H 179.891 -0.590853 -4.13399 0
M  V30 1930 N 180.328 1.1314 -1.09713 0
M  V30 1931 C 181.575 1.84484 -0.834987 0
M  V30 1932 C 181.903 1.83689 0.639418 0
M  V30 1933 O 181.158 1.2724 1.4869 0
M  V30 1934 C 181.457 3.32167 -1.3191 0
M  V30 1935 C 181.123 3.53139 -2.80363 0
M  V30 1936 C 179.785 3.58571 -3.20905 0
M  V30 1937 C 182.137 3.60866 -3.76065 0
M  V30 1938 C 179.465 3.69267 -4.55916 0
M  V30 1939 C 181.817 3.73089 -5.10869 0
M  V30 1940 C 180.481 3.76775 -5.50996 0
M  V30 1941 H 179.751 0.675073 -0.305544 0
M  V30 1942 H 182.398 1.33554 -1.37243 0
M  V30 1943 H 180.703 3.85469 -0.701517 0
M  V30 1944 H 182.4 3.85821 -1.09284 0
M  V30 1945 H 178.99 3.49569 -2.47991 0
M  V30 1946 H 183.174 3.55946 -3.45855 0
M  V30 1947 H 178.43 3.70388 -4.86438 0
M  V30 1948 H 182.604 3.78011 -5.84877 0
M  V30 1949 H 180.231 3.84815 -6.55608 0
M  V30 1950 N 181.806 0.884767 1.30421 0
M  V30 1951 C 183.054 0.502112 1.95763 0
M  V30 1952 C 183.375 -0.951815 1.70192 0
M  V30 1953 O 182.645 -1.6692 1.0254 0
M  V30 1954 H 181.225 0.182694 0.724315 0
M  V30 1955 H 183.887 1.1278 1.58955 0
M  V30 1956 H 182.983 0.672188 3.04775 0
M  V30 1957 N 183.284 -1.43765 0.645699 0
M  V30 1958 C 184.194 -2.34544 -0.0512957 0
M  V30 1959 C 185.21 -1.53455 -0.82022 0
M  V30 1960 O 186.386 -1.86133 -0.769176 0
M  V30 1961 C 183.451 -3.31636 -1.01087 0
M  V30 1962 C 182.512 -4.2863 -0.239712 0
M  V30 1963 C 181.745 -5.21084 -1.15358 0
M  V30 1964 O 181.968 -5.1779 -2.39269 0
M  V30 1965 O 180.902 -5.98593 -0.630038 0
M  V30 1966 H 184.728 -2.95624 0.695718 0
M  V30 1967 H 182.313 -1.43781 0.405882 0
M  V30 1968 H 184.195 -3.9136 -1.56254 0
M  V30 1969 H 182.87 -2.73069 -1.73824 0
M  V30 1970 H 181.777 -3.72408 0.355356 0
M  V30 1971 H 183.11 -4.90157 0.447936 0
M  V30 1972 N 184.763 -0.387143 -1.52771 0
M  V30 1973 C 186.011 0.195349 -2.01154 0
M  V30 1974 C 186.332 1.475 -1.27549 0
M  V30 1975 O 185.602 1.91878 -0.394924 0
M  V30 1976 H 184.182 0.075178 -0.743207 0
M  V30 1977 H 186.844 -0.518337 -1.87881 0
M  V30 1978 H 185.94 0.407096 -3.09434 0
M  V30 1979 N 186.241 1.57166 -0.116904 0
M  V30 1980 C 187.191 2.11756 0.845178 0
M  V30 1981 C 188.175 1.03783 1.22955 0
M  V30 1982 O 189.367 1.3002 1.20099 0
M  V30 1983 C 186.496 2.71886 2.09602 0
M  V30 1984 C 185.582 3.86937 1.7361 0
M  V30 1985 N 185.973 4.94073 1.08284 0
M  V30 1986 C 184.271 3.97082 2.03082 0
M  V30 1987 C 184.972 5.74477 0.913855 0
M  V30 1988 N 183.948 5.2423 1.43818 0
M  V30 1989 H 187.75 2.91967 0.336523 0
M  V30 1990 H 185.264 1.62174 0.0856332 0
M  V30 1991 H 187.261 3.09338 2.79492 0
M  V30 1992 H 185.921 1.93138 2.61013 0
M  V30 1993 H 186.932 5.12483 0.747067 0
M  V30 1994 H 183.609 3.29372 2.56554 0
M  V30 1995 H 184.999 6.70701 0.40125 0
M  V30 1996 N 187.719 -0.156864 1.56817 0
M  V30 1997 C 188.652 -1.22316 1.9265 0
M  V30 1998 C 189.63 -1.42059 0.791076 0
M  V30 1999 O 190.814 -1.56831 1.04576 0
M  V30 2000 C 187.941 -2.58375 2.18998 0
M  V30 2001 C 186.987 -2.55284 3.41661 0
M  V30 2002 S 187.82 -2.02946 4.95553 0
M  V30 2003 C 188.976 -3.40753 5.25013 0
M  V30 2004 H 189.209 -0.917403 2.82791 0
M  V30 2005 H 186.742 -0.362059 1.50095 0
M  V30 2006 H 188.7 -3.36677 2.34859 0
M  V30 2007 H 187.361 -2.86145 1.29538 0
M  V30 2008 H 186.554 -3.55418 3.57343 0
M  V30 2009 H 186.156 -1.85086 3.24991 0
M  V30 2010 H 188.448 -4.36819 5.17876 0
M  V30 2011 H 189.391 -3.29933 6.26538 0
M  V30 2012 H 189.799 -3.37433 4.52548 0
M  V30 2013 N 189.197 -1.51736 -0.425897 0
M  V30 2014 C 190.443 -1.65214 -1.1761 0
M  V30 2015 C 190.776 -0.372778 -1.90589 0
M  V30 2016 O 190.051 0.628139 -1.84078 0
M  V30 2017 C 190.334 -2.86312 -2.18398 0
M  V30 2018 C 190.187 -4.24254 -1.49426 0
M  V30 2019 C 191.506 -3.02925 -3.19256 0
M  V30 2020 H 188.625 -0.601263 -0.426206 0
M  V30 2021 H 191.267 -1.8425 -0.463882 0
M  V30 2022 H 189.417 -2.70213 -2.79137 0
M  V30 2023 H 191.089 -4.52046 -0.919362 0
M  V30 2024 H 189.332 -4.26426 -0.796432 0
M  V30 2025 H 190.003 -5.05001 -2.22885 0
M  V30 2026 H 192.479 -3.1781 -2.68581 0
M  V30 2027 H 191.355 -3.89199 -3.8706 0
M  V30 2028 H 191.616 -2.15497 -3.86023 0
M  V30 2029 N 190.675 0.682077 -1.42076 0
M  V30 2030 C 191.608 1.80666 -1.3941 0
M  V30 2031 C 192.586 1.60518 -0.25939 0
M  V30 2032 O 193.77 1.83088 -0.448456 0
M  V30 2033 C 190.897 3.17556 -1.17796 0
M  V30 2034 C 189.943 3.56468 -2.34164 0
M  V30 2035 S 190.776 3.59729 -3.96681 0
M  V30 2036 C 191.932 4.99323 -3.77395 0
M  V30 2037 H 192.165 1.82652 -2.34575 0
M  V30 2038 H 189.698 0.852062 -1.2876 0
M  V30 2039 H 191.656 3.96575 -1.06012 0
M  V30 2040 H 190.317 3.13164 -0.242279 0
M  V30 2041 H 189.51 4.5595 -2.1477 0
M  V30 2042 H 189.112 2.84792 -2.42425 0
M  V30 2043 H 191.404 5.87202 -3.37935 0
M  V30 2044 H 192.347 5.23763 -4.76527 0
M  V30 2045 H 192.755 4.71498 -3.10403 0
M  V30 2046 N 192.153 1.28127 0.917671 0
M  V30 2047 C 193.381 1.17892 1.70026 0
M  V30 2048 C 193.796 -0.262958 1.8696 0
M  V30 2049 O 193.153 -1.17811 1.3938 0
M  V30 2050 C 193.204 1.86872 3.09453 0
M  V30 2051 O 192.925 3.25428 2.93306 0
M  V30 2052 C 194.426 1.8289 4.03815 0
M  V30 2053 H 191.646 0.40942 0.531617 0
M  V30 2054 H 194.19 1.69181 1.14883 0
M  V30 2055 H 192.345 1.39464 3.61426 0
M  V30 2056 H 192.759 3.59918 3.81523 0
M  V30 2057 H 194.233 2.35751 4.99125 0
M  V30 2058 H 194.71 0.800412 4.31845 0
M  V30 2059 H 195.316 2.29959 3.57769 0
M  V30 2060 N 193.631 -1.12557 1.10312 0
M  V30 2061 C 194.879 -1.83675 0.843091 0
M  V30 2062 C 195.2 -1.84435 -0.633131 0
M  V30 2063 O 194.47 -1.30657 -1.45964 0
M  V30 2064 H 193.05 -0.680138 0.308904 0
M  V30 2065 H 195.712 -1.36301 1.39313 0
M  V30 2066 H 194.808 -2.87908 1.2048 0
M  V30 2067 N 195.109 -0.891671 -1.2995 0
M  V30 2068 C 196.386 -0.433307 -1.9074 0
M  V30 2069 C 196.766 1.08646 -1.80995 0
M  V30 2070 O 196.114 1.92476 -1.23147 0
M  V30 2071 C 196.324 -0.938895 -3.36134 0
M  V30 2072 C 197.672 -0.977829 -4.13187 0
M  V30 2073 O 198.696 -0.886015 -3.45005 0
M  V30 2074 O 197.555 -1.11453 -5.35015 0
M  V30 2075 H 194.649 -0.133699 -0.816121 0
M  V30 2076 H 197.195 -0.981011 -1.38471 0
M  V30 2077 H 195.967 -1.98281 -3.37343 0
M  V30 2078 H 195.59 -0.37074 -3.95868 0
M  V30 2079 N 196.587 1.43421 -0.653314 0
M  V30 2080 C 197.836 2.01032 -0.164076 0
M  V30 2081 C 198.149 1.52147 1.22926 0
M  V30 2082 O 199.355 2.02031 1.81371 0
M  V30 2083 C 197.811 3.59082 -0.24252 0
M  V30 2084 C 197.419 4.1696 -1.63855 0
M  V30 2085 C 199.163 4.24079 0.18911 0
M  V30 2086 C 197.07 5.67304 -1.67092 0
M  V30 2087 H 196 0.751798 -0.0575769 0
M  V30 2088 H 198.651 1.6439 -0.815362 0
M  V30 2089 H 197.033 3.93125 0.476276 0
M  V30 2090 H 198.207 3.94416 -2.38271 0
M  V30 2091 H 196.522 3.64335 -2.01616 0
M  V30 2092 H 199.119 5.34381 0.184775 0
M  V30 2093 H 199.462 3.98005 1.22056 0
M  V30 2094 H 199.995 3.94918 -0.477938 0
M  V30 2095 H 196.734 5.98145 -2.68146 0
M  V30 2096 H 196.254 5.91904 -0.970014 0
M  V30 2097 H 197.933 6.31344 -1.4147 0
M  V30 2098 N 198.065 0.39524 1.52563 0
M  V30 2099 C 199.312 -0.185044 2.01653 0
M  V30 2100 C 199.64 -1.46317 1.28146 0
M  V30 2101 O 198.895 -1.9213 0.372074 0
M  V30 2102 C 199.194 -0.493444 3.53977 0
M  V30 2103 C 198.86 0.69384 4.4553 0
M  V30 2104 C 197.522 1.01954 4.70275 0
M  V30 2105 C 199.874 1.48785 4.99512 0
M  V30 2106 C 197.202 2.14069 5.46252 0
M  V30 2107 C 199.554 2.59965 5.76716 0
M  V30 2108 C 198.218 2.93037 5.99738 0
M  V30 2109 H 197.488 -0.0677123 0.7379 0
M  V30 2110 H 200.135 0.533807 1.8391 0
M  V30 2111 H 198.44 -1.29369 3.69825 0
M  V30 2112 H 200.137 -0.955163 3.89458 0
M  V30 2113 H 196.727 0.429987 4.26438 0
M  V30 2114 H 200.911 1.24946 4.80315 0
M  V30 2115 H 196.167 2.40056 5.62302 0
M  V30 2116 H 200.341 3.21887 6.17545 0
M  V30 2117 H 197.968 3.8003 6.58393 0
M  V30 2118 N 199.544 -1.57102 0.125237 0
M  V30 2119 C 200.821 -1.86953 -0.575142 0
M  V30 2120 C 201.201 -1.02749 -1.84407 0
M  V30 2121 O 200.549 -0.108144 -2.28244 0
M  V30 2122 C 200.759 -3.38198 -0.861583 0
M  V30 2123 C 202.107 -4.06937 -1.21192 0
M  V30 2124 O 203.131 -3.43252 -0.951645 0
M  V30 2125 O 201.99 -5.19364 -1.70068 0
M  V30 2126 H 199.084 -0.774147 -0.290906 0
M  V30 2127 H 201.63 -1.68942 0.160211 0
M  V30 2128 H 200.402 -3.91282 0.0373647 0
M  V30 2129 H 200.025 -3.61661 -1.65188 0
M  V30 2130 N 201.022 0.148545 -1.56898 0
M  V30 2131 C 202.438 0.501131 -1.51528 0
M  V30 2132 C 202.638 1.83458 -0.833399 0
M  V30 2133 O 201.694 2.49259 -0.40328 0
M  V30 2134 C 203.007 0.512864 -2.96294 0
M  V30 2135 C 204.555 0.598487 -3.07225 0
M  V30 2136 C 205.03 0.640897 -4.53494 0
M  V30 2137 N 206.521 0.703163 -4.57832 0
M  V30 2138 C 207.256 0.756935 -5.68382 0
M  V30 2139 N 206.752 0.770147 -6.88506 0
M  V30 2140 N 208.545 0.797698 -5.56411 0
M  V30 2141 H 200.696 -0.725532 -1.99624 0
M  V30 2142 H 202.959 -0.264358 -0.910395 0
M  V30 2143 H 202.665 -0.398691 -3.49433 0
M  V30 2144 H 202.539 1.35133 -3.52163 0
M  V30 2145 H 204.926 1.50046 -2.54106 0
M  V30 2146 H 205.007 -0.267093 -2.54402 0
M  V30 2147 H 204.651 -0.256915 -5.0725 0
M  V30 2148 H 204.581 1.52295 -5.04097 0
M  V30 2149 H 207.072 0.700314 -3.71354 0
M  V30 2150 H 207.385 0.812983 -7.68512 0
M  V30 2151 H 205.73 0.738049 -6.9107 0
M  V30 2152 H 208.921 0.784535 -4.61479 0
M  V30 2153 H 209.094 0.83614 -6.42583 0
M  V30 2154 N 202.5 1.5196 0.417844 0
M  V30 2155 C 203.748 1.65263 1.16329 0
M  V30 2156 C 204.069 0.380634 1.91249 0
M  V30 2157 O 203.339 -0.604214 1.86349 0
M  V30 2158 H 201.919 0.60912 0.432414 0
M  V30 2159 H 204.581 1.88969 0.477162 0
M  V30 2160 H 203.677 2.4896 1.88217 0
M  V30 2161 N 203.978 -0.674533 1.42435 0
M  V30 2162 C 204.928 -1.7807 1.4239 0
M  V30 2163 C 205.912 -1.58169 0.295202 0
M  V30 2164 O 207.104 -1.68643 0.537449 0
M  V30 2165 C 204.233 -3.16532 1.32901 0
M  V30 2166 C 203.319 -3.42055 2.50717 0
M  V30 2167 N 203.71 -3.38162 3.76139 0
M  V30 2168 C 202.008 -3.72692 2.44983 0
M  V30 2169 C 202.709 -3.63177 4.54398 0
M  V30 2170 N 201.685 -3.83954 3.84812 0
M  V30 2171 H 205.487 -1.73454 2.37257 0
M  V30 2172 H 203.001 -0.875381 1.36788 0
M  V30 2173 H 204.998 -3.958 1.30951 0
M  V30 2174 H 203.658 -3.22345 0.390363 0
M  V30 2175 H 204.669 -3.18057 4.0873 0
M  V30 2176 H 201.346 -3.85749 1.59699 0
M  V30 2177 H 202.736 -3.66125 5.63384 0
M  V30 2178 N 205.456 -1.28612 -0.910864 0
M  V30 2179 C 206.388 -1.08589 -2.01844 0
M  V30 2180 C 207.401 -0.0367419 -1.62759 0
M  V30 2181 O 208.59 -0.280101 -1.76289 0
M  V30 2182 C 205.69 -0.628626 -3.33019 0
M  V30 2183 C 204.863 -1.75382 -4.00699 0
M  V30 2184 C 203.922 -1.28945 -5.10156 0
M  V30 2185 O 202.948 -1.9922 -5.33198 0
M  V30 2186 N 204.15 -0.154224 -5.80295 0
M  V30 2187 H 206.915 -2.03973 -2.19579 0
M  V30 2188 H 204.476 -1.20403 -1.08234 0
M  V30 2189 H 206.468 -0.301508 -4.03575 0
M  V30 2190 H 205.038 0.232451 -3.11735 0
M  V30 2191 H 204.258 -2.25039 -3.23653 0
M  V30 2192 H 205.546 -2.50854 -4.42662 0
M  V30 2193 H 204.944 0.43194 -5.64049 0
M  V30 2194 H 203.501 0.113599 -6.51701 0
M  V30 2195 N 206.934 1.1197 -1.10907 0
M  V30 2196 C 208.18 1.8386 -0.855773 0
M  V30 2197 C 208.513 1.84134 0.617103 0
M  V30 2198 O 207.788 1.29041 1.45529 0
M  V30 2199 C 208.071 3.31305 -1.411 0
M  V30 2200 C 207.924 3.39456 -2.9511 0
M  V30 2201 C 209.243 4.2721 -1.05736 0
M  V30 2202 H 206.362 0.667545 -0.312334 0
M  V30 2203 H 209.004 1.31331 -1.37303 0
M  V30 2204 H 207.154 3.76169 -0.97105 0
M  V30 2205 H 208.826 3.03191 -3.47668 0
M  V30 2206 H 207.069 2.79849 -3.31462 0
M  V30 2207 H 207.74 4.43209 -3.29044 0
M  V30 2208 H 210.216 3.90497 -1.43706 0
M  V30 2209 H 209.092 5.28775 -1.47269 0
M  V30 2210 H 209.353 4.42088 0.0325958 0
M  V30 2211 N 208.412 0.89855 1.29475 0
M  V30 2212 C 209.36 0.365253 2.29714 0
M  V30 2213 C 210.354 -0.534993 1.6073 0
M  V30 2214 O 211.56 -0.417921 1.75081 0
M  V30 2215 H 207.935 0.0994853 0.74539 0
M  V30 2216 H 209.906 1.22406 2.72138 0
M  V30 2217 C 208.655 -0.393159 3.4547 0
M  V30 2218 H 207.978 0.290332 3.98744 0
M  V30 2219 H 209.418 -0.731189 4.17648 0
M  V30 2220 C 207.877 -1.59539 2.9673 0
M  V30 2221 O 208.407 -2.69469 2.97908 0
M  V30 2222 N 206.613 -1.43716 2.52575 0
M  V30 2223 H 206.16 -0.542828 2.51816 0
M  V30 2224 H 206.118 -2.24288 2.20323 0
M  V30 2225 N 209.89 -1.43072 0.660911 0
M  V30 2226 C 210.8 -2.34585 -0.0264163 0
M  V30 2227 C 211.816 -1.54316 -0.803898 0
M  V30 2228 O 212.992 -1.86939 -0.749391 0
M  V30 2229 C 210.057 -3.32689 -0.975639 0
M  V30 2230 C 209.118 -4.2886 -0.194236 0
M  V30 2231 C 208.351 -5.22278 -1.09825 0
M  V30 2232 O 208.574 -5.20299 -2.33763 0
M  V30 2233 O 207.508 -5.99228 -0.566513 0
M  V30 2234 H 211.334 -2.94869 0.727034 0
M  V30 2235 H 208.919 -1.43342 0.42111 0
M  V30 2236 H 210.801 -3.92995 -1.52094 0
M  V30 2237 H 209.476 -2.74898 -1.70918 0
M  V30 2238 H 208.383 -3.72011 0.394835 0
M  V30 2239 H 209.716 -4.89655 0.499899 0
M  V30 2240 N 211.368 -0.403325 -1.52352 0
M  V30 2241 C 212.614 0.174605 -2.02047 0
M  V30 2242 C 212.947 1.45282 -1.28867 0
M  V30 2243 O 212.222 1.90483 -0.393257 0
M  V30 2244 C 212.505 0.428238 -3.57545 0
M  V30 2245 C 212.358 -0.866248 -4.4138 0
M  V30 2246 C 213.677 1.21287 -4.23057 0
M  V30 2247 H 210.796 0.0619851 -0.734389 0
M  V30 2248 H 213.438 -0.53565 -1.82293 0
M  V30 2249 H 211.588 1.03327 -3.74507 0
M  V30 2250 H 213.26 -1.50265 -4.3614 0
M  V30 2251 H 211.503 -1.47851 -4.07827 0
M  V30 2252 H 212.174 -0.643249 -5.48239 0
M  V30 2253 H 214.65 0.700703 -4.10158 0
M  V30 2254 H 213.526 1.35909 -5.31808 0
M  V30 2255 H 213.787 2.23193 -3.81625 0
M  V30 2256 N 212.846 1.57033 -0.133567 0
M  V30 2257 C 213.776 2.1909 0.807567 0
M  V30 2258 C 214.757 1.13517 1.26681 0
M  V30 2259 O 215.942 1.41809 1.32679 0
M  V30 2260 C 213.072 2.80188 2.05212 0
M  V30 2261 C 212.026 3.91471 1.73015 0
M  V30 2262 C 211.352 4.39443 3.04622 0
M  V30 2263 C 212.652 5.12886 0.987168 0
M  V30 2264 H 214.346 2.97988 0.290403 0
M  V30 2265 H 211.892 1.43335 0.138239 0
M  V30 2266 H 213.845 3.22264 2.71521 0
M  V30 2267 H 212.569 1.98601 2.59278 0
M  V30 2268 H 211.228 3.49993 1.0909 0
M  V30 2269 H 210.876 3.54695 3.56651 0
M  V30 2270 H 210.576 5.14495 2.83847 0
M  V30 2271 H 212.1 4.8418 3.72024 0
M  V30 2272 H 213.514 5.51891 1.55208 0
M  V30 2273 H 211.911 5.93615 0.87985 0
M  V30 2274 H 212.981 4.84894 -0.0235286 0
M  V30 2275 N 214.325 -0.140222 1.56975 0
M  V30 2276 C 215.571 -0.848084 1.84876 0
M  V30 2277 C 215.926 -1.78481 0.718481 0
M  V30 2278 O 215.219 -1.89497 -0.283093 0
M  V30 2279 C 215.413 -1.65386 3.16832 0
M  V30 2280 C 215.242 -0.79665 4.42587 0
M  V30 2281 C 214.012 -0.459648 5.03205 0
M  V30 2282 C 216.21 -0.12389 5.14151 0
M  V30 2283 N 214.192 0.410446 6.12526 0
M  V30 2284 C 215.563 0.606064 6.17031 0
M  V30 2285 C 217.618 -0.0452654 4.97879 0
M  V30 2286 C 216.321 1.40723 7.054 0
M  V30 2287 C 218.347 0.742658 5.86718 0
M  V30 2288 C 217.709 1.46087 6.89085 0
M  V30 2289 H 213.808 -0.287946 0.727056 0
M  V30 2290 H 216.392 -0.11304 1.94372 0
M  V30 2291 H 214.563 -2.36009 3.08471 0
M  V30 2292 H 216.295 -2.30541 3.32615 0
M  V30 2293 H 213.05 -0.797006 4.66846 0
M  V30 2294 H 213.474 0.836716 6.7181 0
M  V30 2295 H 218.116 -0.586184 4.18717 0
M  V30 2296 H 215.834 1.95938 7.83986 0
M  V30 2297 H 219.42 0.805574 5.76196 0
M  V30 2298 H 218.3 2.06077 7.56639 0
M  V30 2299 N 215.803 -1.52179 -0.40978 0
M  V30 2300 C 217.05 -1.66206 -1.15679 0
M  V30 2301 C 217.378 -0.391674 -1.90516 0
M  V30 2302 O 216.633 0.62533 -1.8544 0
M  V30 2303 C 216.932 -2.83428 -2.17723 0
M  V30 2304 C 216.598 -4.21672 -1.59699 0
M  V30 2305 C 215.26 -4.59274 -1.43599 0
M  V30 2306 C 217.612 -5.07825 -1.17317 0
M  V30 2307 C 214.94 -5.80709 -0.836328 0
M  V30 2308 C 217.292 -6.29864 -0.587691 0
M  V30 2309 C 215.956 -6.66216 -0.413818 0
M  V30 2310 H 215.226 -0.608192 -0.423301 0
M  V30 2311 H 217.873 -1.86279 -0.444097 0
M  V30 2312 H 216.178 -2.57687 -2.95135 0
M  V30 2313 H 217.875 -2.91477 -2.75394 0
M  V30 2314 H 214.465 -3.9204 -1.73213 0
M  V30 2315 H 218.649 -4.79359 -1.28565 0
M  V30 2316 H 213.905 -6.07498 -0.689626 0
M  V30 2317 H 218.079 -6.95948 -0.250894 0
M  V30 2318 H 215.706 -7.60182 0.0529471 0
M  V30 2319 N 217.281 0.66697 -1.42791 0
M  V30 2320 C 218.214 1.79177 -1.41318 0
M  V30 2321 C 219.192 1.60234 -0.276401 0
M  V30 2322 O 220.376 1.82602 -0.46785 0
M  V30 2323 C 217.503 3.16289 -1.21157 0
M  V30 2324 C 216.549 3.53964 -2.37932 0
M  V30 2325 S 217.382 3.55501 -4.00474 0
M  V30 2326 C 218.538 4.95292 -3.8267 0
M  V30 2327 H 218.771 1.80153 -2.365 0
M  V30 2328 H 216.304 0.838357 -1.29657 0
M  V30 2329 H 218.262 3.95428 -1.10212 0
M  V30 2330 H 216.923 3.1289 -0.275481 0
M  V30 2331 H 216.116 4.53646 -2.19594 0
M  V30 2332 H 215.718 2.82204 -2.45432 0
M  V30 2333 H 218.01 5.83584 -3.44145 0
M  V30 2334 H 218.953 5.18679 -4.82055 0
M  V30 2335 H 219.361 4.68179 -3.15386 0
M  V30 2336 N 218.759 1.29093 0.90403 0
M  V30 2337 C 219.989 1.19516 1.68522 0
M  V30 2338 C 220.397 -0.24738 1.87576 0
M  V30 2339 O 219.74 -1.17798 1.40959 0
M  V30 2340 C 219.802 1.83249 3.0929 0
M  V30 2341 C 219.466 3.32531 3.13484 0
M  V30 2342 C 220.463 4.28821 2.93953 0
M  V30 2343 C 218.148 3.73656 3.35688 0
M  V30 2344 C 220.142 5.64212 2.96553 0
M  V30 2345 C 217.829 5.0917 3.37919 0
M  V30 2346 C 218.827 6.04258 3.18373 0
M  V30 2347 O 218.515 7.37298 3.20385 0
M  V30 2348 H 218.247 0.415467 0.533257 0
M  V30 2349 H 220.801 1.70912 1.13922 0
M  V30 2350 H 219.031 1.26358 3.65473 0
M  V30 2351 H 220.72 1.68054 3.69476 0
M  V30 2352 H 221.486 3.98382 2.76616 0
M  V30 2353 H 217.365 3.00101 3.49943 0
M  V30 2354 H 220.909 6.38407 2.81216 0
M  V30 2355 H 216.806 5.39256 3.54787 0
M  V30 2356 H 217.574 7.46048 3.36681 0
M  V30 2357 N 220.237 -1.11381 1.11499 0
M  V30 2358 C 221.169 -2.17207 0.731704 0
M  V30 2359 C 222.182 -1.61066 -0.236957 0
M  V30 2360 O 223.371 -1.78489 -0.0197591 0
M  V30 2361 C 220.471 -3.38846 0.0607624 0
M  V30 2362 C 219.644 -4.24451 1.0564 0
M  V30 2363 C 218.703 -5.24562 0.4149 0
M  V30 2364 O 217.729 -5.59071 1.069 0
M  V30 2365 N 218.931 -5.74651 -0.821943 0
M  V30 2366 H 221.696 -2.50699 1.64225 0
M  V30 2367 H 219.257 -1.26908 1.00529 0
M  V30 2368 H 221.249 -4.02911 -0.380139 0
M  V30 2369 H 219.819 -3.03411 -0.752376 0
M  V30 2370 H 219.039 -3.56833 1.67524 0
M  V30 2371 H 220.327 -4.78486 1.72998 0
M  V30 2372 H 219.725 -5.48797 -1.37252 0
M  V30 2373 H 218.282 -6.40549 -1.20582 0
M  V30 2374 N 221.715 -0.905404 -1.28997 0
M  V30 2375 C 222.645 -0.404212 -2.29975 0
M  V30 2376 C 223.626 0.523784 -1.61835 0
M  V30 2377 O 224.811 0.433298 -1.89304 0
M  V30 2378 C 221.941 0.364042 -3.45387 0
M  V30 2379 C 220.895 -0.474048 -4.25367 0
M  V30 2380 C 220.221 0.422045 -5.33032 0
M  V30 2381 C 221.521 -1.72696 -4.92923 0
M  V30 2382 H 223.215 -1.24807 -2.72146 0
M  V30 2383 H 220.761 -0.601585 -1.30832 0
M  V30 2384 H 222.714 0.725447 -4.15109 0
M  V30 2385 H 221.438 1.24174 -3.02074 0
M  V30 2386 H 220.097 -0.81786 -3.57361 0
M  V30 2387 H 219.745 1.29804 -4.85963 0
M  V30 2388 H 219.445 -0.135057 -5.87445 0
M  V30 2389 H 220.969 0.779517 -6.05604 0
M  V30 2390 H 222.383 -1.43495 -5.55051 0
M  V30 2391 H 220.78 -2.22582 -5.57295 0
M  V30 2392 H 221.85 -2.45964 -4.17887 0
M  V30 2393 N 223.193 1.4272 -0.668489 0
M  V30 2394 C 224.47 1.95248 -0.117373 0
M  V30 2395 C 224.85 1.60919 1.36632 0
M  V30 2396 O 224.198 0.902095 2.09939 0
M  V30 2397 C 224.408 3.46927 -0.379806 0
M  V30 2398 C 225.756 4.23588 -0.292923 0
M  V30 2399 O 226.78 3.5482 -0.313204 0
M  V30 2400 O 225.639 5.46017 -0.229697 0
M  V30 2401 H 222.733 0.827 0.00079152 0
M  V30 2402 H 225.279 1.52581 -0.742783 0
M  V30 2403 H 224.051 3.65096 -1.40786 0
M  V30 2404 H 223.674 3.96627 0.277923 0
M  V30 2405 N 224.671 0.411399 1.52136 0
M  V30 2406 C 225.603 -0.448386 2.24771 0
M  V30 2407 C 226.616 -1.00828 1.27818 0
M  V30 2408 O 227.805 -0.906841 1.53749 0
M  V30 2409 C 224.905 -1.63636 2.96777 0
M  V30 2410 C 224.078 -1.19995 4.20618 0
M  V30 2411 C 223.137 -2.25509 4.75428 0
M  V30 2412 O 222.163 -1.86007 5.3795 0
M  V30 2413 N 223.365 -3.577 4.57199 0
M  V30 2414 H 226.13 0.174025 2.99194 0
M  V30 2415 H 223.691 0.238897 1.60128 0
M  V30 2416 H 225.683 -2.33793 3.30338 0
M  V30 2417 H 224.253 -2.16465 2.25526 0
M  V30 2418 H 223.473 -0.326421 3.92846 0
M  V30 2419 H 224.761 -0.885365 5.01038 0
M  V30 2420 H 224.159 -3.92543 4.07341 0
M  V30 2421 H 222.716 -4.23827 4.95191 0
M  V30 2422 N 226.149 -1.5696 0.141893 0
M  V30 2423 C 227.081 -2.13619 -0.830627 0
M  V30 2424 C 228.094 -1.08439 -1.21428 0
M  V30 2425 O 229.283 -1.35734 -1.15925 0
M  V30 2426 C 226.383 -2.63978 -2.12529 0
M  V30 2427 C 225.556 -3.93504 -1.9098 0
M  V30 2428 C 224.615 -4.29225 -3.04388 0
M  V30 2429 O 223.641 -4.97641 -2.76302 0
M  V30 2430 N 224.843 -3.88393 -4.31429 0
M  V30 2431 H 227.608 -2.97691 -0.34641 0
M  V30 2432 H 225.169 -1.61846 -0.0418375 0
M  V30 2433 H 227.161 -2.84891 -2.87436 0
M  V30 2434 H 225.731 -1.84659 -2.52229 0
M  V30 2435 H 224.951 -3.81269 -1.00139 0
M  V30 2436 H 226.239 -4.78154 -1.73914 0
M  V30 2437 H 225.637 -3.33257 -4.57117 0
M  V30 2438 H 224.194 -4.14368 -5.03133 0
M  V30 2439 N 227.627 0.131896 -1.57047 0
M  V30 2440 C 228.59 1.14638 -1.98471 0
M  V30 2441 C 229.59 1.35029 -0.873148 0
M  V30 2442 O 230.78 1.31764 -1.13946 0
M  V30 2443 C 227.912 2.50358 -2.31373 0
M  V30 2444 H 229.105 0.79064 -2.8929 0
M  V30 2445 H 226.658 0.375761 -1.51716 0
M  V30 2446 H 227.393 2.90876 -1.43393 0
M  V30 2447 H 227.178 2.36915 -3.12432 0
M  V30 2448 H 228.668 3.23395 -2.64207 0
M  V30 2449 N 229.106 1.52395 0.401703 0
M  V30 2450 C 230.522 1.41363 0.740864 0
M  V30 2451 C 230.722 0.523982 1.94568 0
M  V30 2452 O 229.778 -0.00741204 2.52499 0
M  V30 2453 C 231.091 2.84011 0.987847 0
M  V30 2454 C 232.639 2.93404 1.09011 0
M  V30 2455 C 233.114 4.37036 1.3698 0
M  V30 2456 N 234.605 4.40304 1.43829 0
M  V30 2457 C 235.34 5.48508 1.67112 0
M  V30 2458 N 234.836 6.66819 1.87949 0
M  V30 2459 N 236.629 5.36034 1.69187 0
M  V30 2460 H 228.78 2.08765 -0.391262 0
M  V30 2461 H 231.043 0.941265 -0.112798 0
M  V30 2462 H 230.749 3.51265 0.174835 0
M  V30 2463 H 230.623 3.25502 1.906 0
M  V30 2464 H 233.01 2.26325 1.8937 0
M  V30 2465 H 233.091 2.55359 0.15015 0
M  V30 2466 H 232.735 5.04676 0.571353 0
M  V30 2467 H 232.665 4.72623 2.3224 0
M  V30 2468 H 235.156 3.55024 1.29486 0
M  V30 2469 H 235.469 7.45063 2.05185 0
M  V30 2470 H 233.814 6.6987 1.85199 0
M  V30 2471 H 237.005 4.42579 1.52451 0
M  V30 2472 H 237.178 6.20434 1.86993 0
M  V30 2473 N 230.584 -0.659388 1.43143 0
M  V30 2474 C 231.861 -1.41627 1.34912 0
M  V30 2475 C 232.241 -2.11099 -0.00607785 0
M  V30 2476 O 231.589 -2.04353 -1.02236 0
M  V30 2477 C 231.799 -2.40604 2.52805 0
M  V30 2478 C 233.147 -3.04789 2.95616 0
M  V30 2479 O 234.171 -2.50932 2.52807 0
M  V30 2480 O 233.03 -4.02421 3.69756 0
M  V30 2481 H 230.124 -0.63246 0.532844 0
M  V30 2482 H 232.67 -0.686814 1.5518 0
M  V30 2483 H 231.442 -1.88174 3.43083 0
M  V30 2484 H 231.065 -3.21009 2.34604 0
M  V30 2485 N 232.062 -1.29571 -0.897171 0
M  V30 2486 C 233.025 -1.14913 -1.98312 0
M  V30 2487 C 234.025 -0.0838629 -1.60581 0
M  V30 2488 O 235.215 -0.331006 -1.71026 0
M  V30 2489 C 232.347 -0.757835 -3.3237 0
M  V30 2490 H 233.54 -2.11377 -2.12743 0
M  V30 2491 H 231.093 -1.12793 -1.08201 0
M  V30 2492 H 231.828 0.206837 -3.2364 0
M  V30 2493 H 231.613 -1.52755 -3.61121 0
M  V30 2494 H 233.103 -0.678408 -4.12053 0
M  V30 2495 N 233.54 1.10788 -1.12088 0
M  V30 2496 C 234.788 1.8231 -0.872205 0
M  V30 2497 C 235.109 1.85419 0.603709 0
M  V30 2498 O 234.379 1.32963 1.43867 0
M  V30 2499 H 232.959 0.675137 -0.319686 0
M  V30 2500 H 235.621 1.34068 -1.41463 0
M  V30 2501 H 234.717 2.85955 -1.25045 0
M  V30 2502 N 235.018 0.912232 1.28515 0
M  V30 2503 C 236.266 0.543523 1.94654 0
M  V30 2504 C 236.587 -0.9155 1.72173 0
M  V30 2505 O 235.857 -1.64708 1.06058 0
M  V30 2506 H 234.437 0.198017 0.720277 0
M  V30 2507 H 237.099 1.16126 1.56527 0
M  V30 2508 H 236.195 0.736684 3.03281 0
M  V30 2509 N 236.496 -1.42363 0.676048 0
M  V30 2510 C 237.429 -2.28141 -0.0516916 0
M  V30 2511 C 238.407 -1.41135 -0.807439 0
M  V30 2512 O 239.591 -1.70573 -0.802305 0
M  V30 2513 C 236.718 -3.21007 -1.08039 0
M  V30 2514 C 235.764 -4.24426 -0.420076 0
M  V30 2515 S 236.597 -5.29134 0.823246 0
M  V30 2516 C 237.753 -6.25566 -0.204344 0
M  V30 2517 H 237.986 -2.89515 0.675884 0
M  V30 2518 H 235.519 -1.47211 0.465635 0
M  V30 2519 H 237.477 -3.75048 -1.66881 0
M  V30 2520 H 236.138 -2.58766 -1.78042 0
M  V30 2521 H 235.331 -4.89596 -1.19633 0
M  V30 2522 H 234.933 -3.7388 0.0947845 0
M  V30 2523 H 237.225 -6.69098 -1.06369 0
M  V30 2524 H 238.168 -7.06895 0.412915 0
M  V30 2525 H 238.576 -5.61811 -0.55038 0
M  V30 2526 N 237.974 -0.419461 -1.51915 0
M  V30 2527 C 239.22 0.153166 -2.02221 0
M  V30 2528 C 239.553 1.43907 -1.30401 0
M  V30 2529 O 238.828 1.90055 -0.413438 0
M  V30 2530 C 239.111 0.390291 -3.57979 0
M  V30 2531 C 238.964 -0.913014 -4.40436 0
M  V30 2532 C 240.283 1.16794 -4.2432 0
M  V30 2533 H 237.402 0.0541924 -0.735005 0
M  V30 2534 H 240.044 -0.554955 -1.81715 0
M  V30 2535 H 238.194 0.993491 -3.75582 0
M  V30 2536 H 239.866 -1.54882 -4.34522 0
M  V30 2537 H 238.109 -1.52168 -4.06236 0
M  V30 2538 H 238.78 -0.701361 -5.47526 0
M  V30 2539 H 241.256 0.657161 -4.10878 0
M  V30 2540 H 240.132 1.3026 -5.3322 0
M  V30 2541 H 240.393 2.19132 -3.83971 0
M  V30 2542 N 239.452 1.56882 -0.150215 0
M  V30 2543 C 240.402 2.13501 0.800071 0
M  V30 2544 C 241.386 1.06368 1.20726 0
M  V30 2545 O 242.578 1.32538 1.17314 0
M  V30 2546 C 239.707 2.76271 2.03787 0
M  V30 2547 C 238.793 3.90533 1.65364 0
M  V30 2548 N 239.184 4.96259 0.977794 0
M  V30 2549 C 237.482 4.013 1.94613 0
M  V30 2550 C 238.183 5.76286 0.791794 0
M  V30 2551 N 237.159 5.27163 1.32666 0
M  V30 2552 H 240.961 2.92615 0.274517 0
M  V30 2553 H 238.475 1.62319 0.0512144 0
M  V30 2554 H 240.472 3.15197 2.72867 0
M  V30 2555 H 239.132 1.98631 2.56857 0
M  V30 2556 H 240.143 5.13953 0.638193 0
M  V30 2557 H 236.82 3.3474 2.4951 0
M  V30 2558 H 238.21 6.71401 0.258894 0
M  V30 2559 N 240.93 -0.123565 1.57115 0
M  V30 2560 C 241.86 -1.15309 2.03042 0
M  V30 2561 C 242.841 -1.43454 0.914061 0
M  V30 2562 O 244.026 -1.53973 1.18347 0
M  V30 2563 C 241.156 -2.48043 2.43089 0
M  V30 2564 C 240.11 -2.3437 3.58127 0
M  V30 2565 C 239.436 -3.72026 3.84059 0
M  V30 2566 C 240.736 -1.80804 4.90007 0
M  V30 2567 H 242.43 -0.771102 2.893 0
M  V30 2568 H 239.976 -0.369479 1.39179 0
M  V30 2569 H 241.929 -3.20311 2.73823 0
M  V30 2570 H 240.653 -2.88122 1.53796 0
M  V30 2571 H 239.312 -1.64551 3.27595 0
M  V30 2572 H 238.96 -4.09582 2.91979 0
M  V30 2573 H 238.66 -3.63732 4.6149 0
M  V30 2574 H 240.184 -4.45806 4.1724 0
M  V30 2575 H 241.598 -2.42886 5.19307 0
M  V30 2576 H 239.995 -1.83343 5.71407 0
M  V30 2577 H 241.065 -0.76528 4.78823 0
M  V30 2578 N 242.408 -1.52605 -0.393616 0
M  V30 2579 C 243.338 -1.80022 -1.48709 0
M  V30 2580 C 244.319 -0.651995 -1.57108 0
M  V30 2581 O 245.504 -0.89913 -1.72132 0
M  V30 2582 C 242.634 -1.96492 -2.86371 0
M  V30 2583 C 241.588 -3.12161 -2.92813 0
M  V30 2584 C 240.914 -3.13877 -4.3288 0
M  V30 2585 C 242.214 -4.51322 -2.6288 0
M  V30 2586 H 243.908 -2.71589 -1.26015 0
M  V30 2587 H 241.454 -1.30684 -0.604778 0
M  V30 2588 H 243.407 -2.14255 -3.62867 0
M  V30 2589 H 242.131 -1.01611 -3.10391 0
M  V30 2590 H 240.79 -2.94173 -2.18764 0
M  V30 2591 H 240.438 -2.16687 -4.53933 0
M  V30 2592 H 240.138 -3.91576 -4.38112 0
M  V30 2593 H 241.662 -3.33789 -5.1129 0
M  V30 2594 H 243.076 -4.69435 -3.29096 0
M  V30 2595 H 241.473 -5.31053 -2.79468 0
M  V30 2596 H 242.543 -4.58353 -1.58242 0
M  V30 2597 N 243.887 0.651787 -1.4349 0
M  V30 2598 C 244.82 1.77668 -1.43211 0
M  V30 2599 C 245.798 1.59931 -0.29338 0
M  V30 2600 O 246.982 1.82095 -0.487191 0
M  V30 2601 C 244.109 3.14986 -1.24505 0
M  V30 2602 C 243.155 3.51421 -2.41673 0
M  V30 2603 S 243.988 3.51234 -4.04222 0
M  V30 2604 C 245.144 4.91206 -3.87902 0
M  V30 2605 H 245.377 1.77635 -2.38397 0
M  V30 2606 H 242.91 0.824558 -1.30539 0
M  V30 2607 H 244.868 3.94237 -1.144 0
M  V30 2608 H 243.529 3.1258 -0.308651 0
M  V30 2609 H 242.722 4.51291 -2.24393 0
M  V30 2610 H 242.324 2.79585 -2.48411 0
M  V30 2611 H 244.616 5.79902 -3.50315 0
M  V30 2612 H 245.559 5.13537 -4.8753 0
M  V30 2613 H 245.967 4.64808 -3.20334 0
M  V30 2614 N 245.365 1.30045 0.890287 0
M  V30 2615 C 246.613 1.18327 1.63839 0
M  V30 2616 C 246.934 -0.263455 1.93212 0
M  V30 2617 O 246.204 -1.17856 1.56482 0
M  V30 2618 H 244.784 0.434933 0.607324 0
M  V30 2619 H 247.446 1.631 1.06698 0
M  V30 2620 H 246.542 1.74024 2.59079 0
M  V30 2621 N 246.843 -1.10192 1.12674 0
M  V30 2622 C 247.791 -2.18694 0.792196 0
M  V30 2623 C 248.785 -1.67938 -0.222058 0
M  V30 2624 O 249.991 -1.79822 -0.0800074 0
M  V30 2625 H 246.366 -0.713223 0.238364 0
M  V30 2626 H 248.337 -2.44149 1.71564 0
M  V30 2627 C 247.086 -3.46682 0.265859 0
M  V30 2628 H 246.409 -3.86101 1.03761 0
M  V30 2629 H 247.849 -4.23942 0.0701128 0
M  V30 2630 C 246.308 -3.21506 -1.00675 0
M  V30 2631 O 246.838 -3.43408 -2.08408 0
M  V30 2632 N 245.044 -2.75158 -0.934692 0
M  V30 2633 H 244.591 -2.57535 -0.0578604 0
M  V30 2634 H 244.549 -2.58691 -1.7868 0
M  V30 2635 N 248.321 -0.919034 -1.28029 0
M  V30 2636 C 249.271 -0.382574 -2.24767 0
M  V30 2637 C 250.255 0.508286 -1.52661 0
M  V30 2638 O 251.447 0.347145 -1.73562 0
M  V30 2639 C 248.576 0.371432 -3.41285 0
M  V30 2640 C 247.662 -0.535449 -4.20706 0
M  V30 2641 N 248.053 -1.65141 -4.78082 0
M  V30 2642 C 246.351 -0.336824 -4.44726 0
M  V30 2643 C 247.052 -2.21475 -5.37888 0
M  V30 2644 N 246.028 -1.50537 -5.22341 0
M  V30 2645 H 249.83 -1.23477 -2.66703 0
M  V30 2646 H 247.344 -0.772299 -1.42861 0
M  V30 2647 H 249.341 0.772638 -4.09678 0
M  V30 2648 H 248.001 1.22066 -3.00882 0
M  V30 2649 H 249.012 -2.03392 -4.7629 0
M  V30 2650 H 245.689 0.47246 -4.14818 0
M  V30 2651 H 247.079 -3.15379 -5.93284 0
M  V30 2652 N 249.799 1.42003 -0.683588 0
M  V30 2653 C 250.709 2.34597 -0.0109075 0
M  V30 2654 C 251.725 1.55576 0.779245 0
M  V30 2655 O 252.901 1.88107 0.719555 0
M  V30 2656 C 249.966 3.34199 0.922588 0
M  V30 2657 C 249.027 4.29115 0.125984 0
M  V30 2658 C 248.26 5.23959 1.01502 0
M  V30 2659 O 248.483 5.23952 2.25456 0
M  V30 2660 O 247.417 6.00053 0.47111 0
M  V30 2661 H 251.243 2.93675 -0.773853 0
M  V30 2662 H 248.828 1.42654 -0.443861 0
M  V30 2663 H 250.71 3.95365 1.45823 0
M  V30 2664 H 249.385 2.77582 1.66523 0
M  V30 2665 H 248.292 3.71335 -0.453969 0
M  V30 2666 H 249.625 4.88798 -0.577736 0
M  V30 2667 N 251.277 0.427512 1.51691 0
M  V30 2668 C 252.209 -0.424521 2.25234 0
M  V30 2669 C 253.222 -0.994671 1.2888 0
M  V30 2670 O 254.411 -0.890483 1.54702 0
M  V30 2671 C 251.511 -1.60479 2.98496 0
M  V30 2672 C 250.684 -1.15527 4.21868 0
M  V30 2673 C 249.743 -2.20454 4.77793 0
M  V30 2674 O 248.769 -1.8029 5.39893 0
M  V30 2675 N 249.971 -3.52831 4.60967 0
M  V30 2676 H 252.736 0.205749 2.98993 0
M  V30 2677 H 250.297 0.255867 1.59865 0
M  V30 2678 H 252.289 -2.30276 3.32799 0
M  V30 2679 H 250.859 -2.14061 2.27809 0
M  V30 2680 H 250.079 -0.284736 3.9317 0
M  V30 2681 H 251.367 -0.832173 5.01949 0
M  V30 2682 H 250.765 -3.88201 4.11481 0
M  V30 2683 H 249.322 -4.18551 4.99658 0
M  V30 2684 N 252.755 -1.56801 0.158532 0
M  V30 2685 C 253.688 -2.13148 -0.815065 0
M  V30 2686 C 254.666 -1.0581 -1.23462 0
M  V30 2687 O 255.85 -1.3371 -1.32868 0
M  V30 2688 C 252.977 -2.6606 -2.09594 0
M  V30 2689 C 252.023 -3.85651 -1.82141 0
M  V30 2690 S 252.856 -5.26041 -1.00207 0
M  V30 2691 C 254.012 -5.8235 -2.29389 0
M  V30 2692 H 254.245 -2.95396 -0.335937 0
M  V30 2693 H 251.778 -1.54299 -0.0559391 0
M  V30 2694 H 253.736 -2.97195 -2.8317 0
M  V30 2695 H 252.397 -1.83921 -2.54621 0
M  V30 2696 H 251.59 -4.20958 -2.77147 0
M  V30 2697 H 251.192 -3.55338 -1.16667 0
M  V30 2698 H 253.484 -5.94485 -3.24952 0
M  V30 2699 H 254.427 -6.79688 -1.9857 0
M  V30 2700 H 254.835 -5.10675 -2.40564 0
M  V30 2701 N 254.233 0.115231 -1.57178 0
M  V30 2702 C 255.479 0.82357 -1.85325 0
M  V30 2703 C 255.812 1.79349 -0.744814 0
M  V30 2704 O 255.087 1.92899 0.249024 0
M  V30 2705 C 255.37 1.57014 -3.24066 0
M  V30 2706 C 255.223 0.619565 -4.45513 0
M  V30 2707 C 256.542 2.52545 -3.60429 0
M  V30 2708 H 253.661 0.297948 -0.674089 0
M  V30 2709 H 256.303 0.0877138 -1.89797 0
M  V30 2710 H 254.453 2.19742 -3.20383 0
M  V30 2711 H 256.125 0.000837639 -4.613 0
M  V30 2712 H 254.368 -0.0686174 -4.33746 0
M  V30 2713 H 255.039 1.17866 -5.3927 0
M  V30 2714 H 257.515 1.9992 -3.64926 0
M  V30 2715 H 256.391 3.01811 -4.58477 0
M  V30 2716 H 256.652 3.35383 -2.88047 0
M  V30 2717 N 255.711 1.52812 0.385517 0
M  V30 2718 C 256.641 1.80808 1.47752 0
M  V30 2719 C 257.622 0.660318 1.5676 0
M  V30 2720 O 258.807 0.908246 1.71652 0
M  V30 2721 C 255.937 1.98008 2.85324 0
M  V30 2722 C 254.891 3.13709 2.91154 0
M  V30 2723 C 254.217 3.16169 4.31209 0
M  V30 2724 C 255.517 4.52709 2.60483 0
M  V30 2725 H 257.211 2.72253 1.24573 0
M  V30 2726 H 254.757 1.31003 0.597839 0
M  V30 2727 H 256.71 2.16176 3.61726 0
M  V30 2728 H 255.434 1.03255 3.09848 0
M  V30 2729 H 254.093 2.95329 2.17201 0
M  V30 2730 H 253.741 2.19092 4.52778 0
M  V30 2731 H 253.441 3.93894 4.36029 0
M  V30 2732 H 254.965 3.36496 5.09512 0
M  V30 2733 H 256.379 4.71173 3.26602 0
M  V30 2734 H 254.776 5.32528 2.76648 0
M  V30 2735 H 255.846 4.59186 1.55809 0
M  V30 2736 N 257.189 -0.644168 1.43834 0
M  V30 2737 C 258.437 -1.40117 1.45642 0
M  V30 2738 C 258.758 -1.94814 0.0852413 0
M  V30 2739 O 258.028 -1.74988 -0.880688 0
M  V30 2740 H 256.608 -0.52005 0.536243 0
M  V30 2741 H 259.27 -0.7591 1.7951 0
M  V30 2742 H 258.366 -2.23902 2.17427 0
M  V30 2743 N 258.668 -1.30515 -0.883378 0
M  V30 2744 C 259.916 -1.19194 -1.63209 0
M  V30 2745 C 260.237 0.253205 -1.93349 0
M  V30 2746 O 259.507 1.17025 -1.57105 0
M  V30 2747 H 258.087 -0.438148 -0.605009 0
M  V30 2748 H 260.749 -1.63663 -1.05832 0
M  V30 2749 H 259.845 -1.75396 -2.58153 0
M  V30 2750 N 260.146 1.09593 -1.13257 0
M  V30 2751 C 261.423 1.78293 -0.804432 0
M  V30 2752 C 261.803 1.99004 0.70431 0
M  V30 2753 O 261.151 1.59007 1.641 0
M  V30 2754 C 261.361 3.10707 -1.5894 0
M  V30 2755 C 262.709 3.85443 -1.78099 0
M  V30 2756 O 263.733 3.20454 -1.55525 0
M  V30 2757 O 262.592 5.02108 -2.15753 0
M  V30 2758 H 259.686 0.773156 -0.293528 0
M  V30 2759 H 262.232 1.16164 -1.23709 0
M  V30 2760 H 261.004 2.91106 -2.61482 0
M  V30 2761 H 260.627 3.80558 -1.15157 0
M  V30 2762 N 261.624 0.925811 1.2754 0
M  V30 2763 C 262.554 0.440748 2.29303 0
M  V30 2764 C 263.535 -0.497971 1.62648 0
M  V30 2765 O 264.72 -0.403126 1.8997 0
M  V30 2766 C 261.85 -0.309048 3.45922 0
M  V30 2767 C 260.804 0.54166 4.24559 0
M  V30 2768 C 260.13 -0.337191 5.33636 0
M  V30 2769 C 261.43 1.80516 4.90114 0
M  V30 2770 H 263.124 1.29121 2.70126 0
M  V30 2771 H 260.67 0.622323 1.29858 0
M  V30 2772 H 262.623 -0.659315 4.1621 0
M  V30 2773 H 261.347 -1.19352 3.04011 0
M  V30 2774 H 260.006 0.874609 3.56014 0
M  V30 2775 H 259.654 -1.22056 4.87966 0
M  V30 2776 H 259.354 0.228497 5.87156 0
M  V30 2777 H 260.878 -0.683072 6.06767 0
M  V30 2778 H 262.292 1.52307 5.52698 0
M  V30 2779 H 260.689 2.3142 5.53683 0
M  V30 2780 H 261.759 2.52581 4.13921 0
M  V30 2781 N 263.102 -1.41638 0.69111 0
M  V30 2782 C 264.518 -1.55435 0.362224 0
M  V30 2783 C 264.718 -1.66754 -1.13117 0
M  V30 2784 O 263.774 -1.64348 -1.91692 0
M  V30 2785 C 265.087 -2.79588 1.10684 0
M  V30 2786 C 266.635 -2.9338 1.09075 0
M  V30 2787 C 267.11 -4.20414 1.81703 0
M  V30 2788 N 268.601 -4.27362 1.7865 0
M  V30 2789 C 269.336 -5.24507 2.31689 0
M  V30 2790 N 268.832 -6.27708 2.93179 0
M  V30 2791 N 270.625 -5.16416 2.2197 0
M  V30 2792 H 262.776 -1.32536 1.65976 0
M  V30 2793 H 265.039 -0.639115 0.700168 0
M  V30 2794 H 264.745 -2.77419 2.16175 0
M  V30 2795 H 264.619 -3.70973 0.682545 0
M  V30 2796 H 267.006 -2.95067 0.0441238 0
M  V30 2797 H 267.087 -2.0318 1.55407 0
M  V30 2798 H 266.731 -4.19488 2.86343 0
M  V30 2799 H 266.661 -5.09578 1.32808 0
M  V30 2800 H 269.152 -3.53415 1.33815 0
M  V30 2801 H 269.465 -6.98217 3.31229 0
M  V30 2802 H 267.81 -6.28223 2.97255 0
M  V30 2803 H 271.001 -4.34716 1.73607 0
M  V30 2804 H 271.174 -5.91958 2.63609 0
M  V30 2805 N 264.58 -0.43555 -1.51462 0
M  V30 2806 C 265.81 0.130053 -2.0619 0
M  V30 2807 C 266.218 1.37164 -1.30317 0
M  V30 2808 O 265.561 1.80225 -0.355598 0
M  V30 2809 C 265.623 0.519418 -3.55728 0
M  V30 2810 C 265.287 -0.615119 -4.52841 0
M  V30 2811 C 266.284 -1.48671 -4.9819 0
M  V30 2812 C 263.969 -0.795341 -4.95963 0
M  V30 2813 C 265.963 -2.52324 -5.8533 0
M  V30 2814 C 263.65 -1.83514 -5.82894 0
M  V30 2815 C 264.648 -2.69748 -6.27475 0
M  V30 2816 O 264.336 -3.71944 -7.1268 0
M  V30 2817 H 264.068 0.0121612 -0.675891 0
M  V30 2818 H 266.622 -0.6129 -1.96043 0
M  V30 2819 H 264.852 1.31505 -3.63653 0
M  V30 2820 H 266.541 1.01597 -3.92979 0
M  V30 2821 H 267.307 -1.359 -4.65571 0
M  V30 2822 H 263.186 -0.133713 -4.60806 0
M  V30 2823 H 266.73 -3.19665 -6.20048 0
M  V30 2824 H 262.627 -1.96306 -6.14926 0
M  V30 2825 H 263.395 -3.68503 -7.30854 0
M  V30 2826 N 266.058 1.56714 -0.166846 0
M  V30 2827 C 267.304 1.97039 0.479962 0
M  V30 2828 C 267.637 1.05264 1.63197 0
M  V30 2829 O 266.912 0.0988833 1.94248 0
M  V30 2830 C 267.195 3.46867 0.967212 0
M  V30 2831 C 267.048 4.49421 -0.18466 0
M  V30 2832 C 268.367 3.9968 1.84238 0
M  V30 2833 H 265.486 0.71641 0.172992 0
M  V30 2834 H 268.128 1.8832 -0.252079 0
M  V30 2835 H 266.278 3.54428 1.59101 0
M  V30 2836 H 267.95 4.53924 -0.821621 0
M  V30 2837 H 266.193 4.25573 -0.840837 0
M  V30 2838 H 266.864 5.51644 0.198317 0
M  V30 2839 H 269.34 3.94723 1.31655 0
M  V30 2840 H 268.216 5.04941 2.15234 0
M  V30 2841 H 268.477 3.43226 2.78654 0
M  V30 2842 N 267.536 -0.106894 1.57237 0
M  V30 2843 C 268.486 -1.1366 1.9765 0
M  V30 2844 C 269.47 -1.36416 0.853203 0
M  V30 2845 O 270.662 -1.37305 1.11697 0
M  V30 2846 C 267.791 -2.46 2.39455 0
M  V30 2847 C 266.877 -2.26668 3.58445 0
M  V30 2848 N 267.268 -1.77176 4.73754 0
M  V30 2849 C 265.566 -2.57279 3.64312 0
M  V30 2850 C 266.267 -1.71836 5.5574 0
M  V30 2851 N 265.243 -2.16623 4.98573 0
M  V30 2852 H 269.045 -0.74669 2.84256 0
M  V30 2853 H 266.559 -0.314483 1.59326 0
M  V30 2854 H 268.556 -3.2049 2.6663 0
M  V30 2855 H 267.216 -2.85738 1.54219 0
M  V30 2856 H 268.227 -1.46545 4.96734 0
M  V30 2857 H 264.904 -3.00622 2.89711 0
M  V30 2858 H 266.294 -1.34723 6.58255 0
M  V30 2859 N 269.014 -1.53014 -0.377408 0
M  V30 2860 C 269.946 -1.74884 -1.48149 0
M  V30 2861 C 270.959 -0.629433 -1.5014 0
M  V30 2862 O 272.148 -0.905416 -1.53833 0
M  V30 2863 C 269.248 -1.80299 -2.86959 0
M  V30 2864 C 268.421 -3.09776 -3.08801 0
M  V30 2865 C 267.48 -3.06586 -4.27658 0
M  V30 2866 O 266.506 -3.80419 -4.23403 0
M  V30 2867 N 267.708 -2.26578 -5.34455 0
M  V30 2868 H 270.473 -2.70147 -1.29771 0
M  V30 2869 H 268.034 -1.51646 -0.56703 0
M  V30 2870 H 270.026 -1.75657 -3.64591 0
M  V30 2871 H 268.596 -0.92372 -2.98641 0
M  V30 2872 H 267.816 -3.27815 -2.18931 0
M  V30 2873 H 269.104 -3.95366 -3.20255 0
M  V30 2874 H 268.502 -1.66081 -5.40771 0
M  V30 2875 H 267.059 -2.27766 -6.10709 0
M  V30 2876 N 270.492 0.636531 -1.44174 0
M  V30 2877 C 271.908 0.954104 -1.27941 0
M  V30 2878 C 272.108 2.0039 -0.211248 0
M  V30 2879 O 271.164 2.49236 0.404695 0
M  V30 2880 C 272.477 1.4225 -2.64925 0
M  V30 2881 C 274.025 1.53827 -2.72592 0
M  V30 2882 C 274.5 2.04053 -4.10032 0
M  V30 2883 N 275.991 2.11331 -4.12182 0
M  V30 2884 C 276.726 2.51352 -5.15374 0
M  V30 2885 N 276.222 2.90549 -6.2893 0
M  V30 2886 N 278.015 2.51438 -5.02728 0
M  V30 2887 H 270.166 -0.0578386 -2.12321 0
M  V30 2888 H 272.429 0.0367406 -0.947288 0
M  V30 2889 H 272.135 0.725466 -3.44136 0
M  V30 2890 H 272.009 2.39451 -2.9145 0
M  V30 2891 H 274.396 2.22628 -1.93702 0
M  V30 2892 H 274.477 0.550154 -2.49814 0
M  V30 2893 H 274.121 1.35848 -4.89395 0
M  V30 2894 H 274.051 3.03726 -4.30184 0
M  V30 2895 H 276.542 1.83745 -3.30222 0
M  V30 2896 H 276.855 3.19884 -7.03487 0
M  V30 2897 H 275.2 2.88313 -6.32377 0
M  V30 2898 H 278.391 2.20203 -4.13072 0
M  V30 2899 H 278.564 2.82304 -5.83274 0
M  V30 2900 N 271.97 1.30982 0.876444 0
M  V30 2901 C 273.2 1.23063 1.65949 0
M  V30 2902 C 273.608 -0.207537 1.88058 0
M  V30 2903 O 272.951 -1.14781 1.43426 0
M  V30 2904 C 273.013 1.89768 3.05333 0
M  V30 2905 C 272.677 3.39106 3.0636 0
M  V30 2906 C 273.674 4.3496 2.84791 0
M  V30 2907 C 271.359 3.80693 3.27686 0
M  V30 2908 C 273.353 5.70375 2.84519 0
M  V30 2909 C 271.04 5.16223 3.27043 0
M  V30 2910 C 272.038 6.10875 3.05485 0
M  V30 2911 O 271.726 7.43928 3.04674 0
M  V30 2912 H 271.458 0.426685 0.524324 0
M  V30 2913 H 274.012 1.7329 1.10271 0
M  V30 2914 H 272.242 1.34082 3.6271 0
M  V30 2915 H 273.931 1.75853 3.65829 0
M  V30 2916 H 274.697 4.0416 2.68103 0
M  V30 2917 H 270.576 3.07457 3.43499 0
M  V30 2918 H 274.12 6.44228 2.67611 0
M  V30 2919 H 270.017 5.4666 3.43269 0
M  V30 2920 H 270.785 7.53022 3.2078 0
M  V30 2921 N 273.449 -1.08991 1.13837 0
M  V30 2922 C 274.726 -1.77863 0.813876 0
M  V30 2923 C 275.106 -1.99375 -0.693746 0
M  V30 2924 O 274.454 -1.59875 -1.63255 0
M  V30 2925 C 274.664 -3.0986 1.60586 0
M  V30 2926 C 276.012 -3.84493 1.8014 0
M  V30 2927 O 277.036 -3.19624 1.57222 0
M  V30 2928 O 275.895 -5.00957 2.18413 0
M  V30 2929 H 272.989 -0.771589 0.297624 0
M  V30 2930 H 275.535 -1.15507 1.24323 0
M  V30 2931 H 274.307 -2.89715 2.63022 0
M  V30 2932 H 273.93 -3.79942 1.17173 0
M  V30 2933 N 274.927 -0.932562 -1.27047 0
M  V30 2934 C 276.176 -0.571351 -1.93439 0
M  V30 2935 C 276.489 0.892467 -1.74053 0
M  V30 2936 O 277.695 1.36267 -2.34826 0
M  V30 2937 C 276.151 -0.97106 -3.46552 0
M  V30 2938 C 275.759 -2.4559 -3.74686 0
M  V30 2939 C 277.503 -0.681333 -4.18997 0
M  V30 2940 C 275.41 -2.79475 -5.21198 0
M  V30 2941 H 274.34 -0.209966 -0.724176 0
M  V30 2942 H 276.991 -1.13403 -1.44263 0
M  V30 2943 H 275.373 -0.336983 -3.94564 0
M  V30 2944 H 276.547 -3.13829 -3.37414 0
M  V30 2945 H 274.862 -2.71802 -3.15456 0
M  V30 2946 H 277.459 -0.910939 -5.26883 0
M  V30 2947 H 277.802 0.381628 -4.14547 0
M  V30 2948 H 278.335 -1.27473 -3.76823 0
M  V30 2949 H 275.074 -3.847 -5.30741 0
M  V30 2950 H 274.594 -2.1589 -5.596 0
M  V30 2951 H 276.273 -2.67478 -5.89122 0
M  V30 2952 N 276.405 1.4127 -0.698611 0
M  V30 2953 C 277.368 2.29158 -0.044132 0
M  V30 2954 C 278.368 1.44529 0.704841 0
M  V30 2955 O 279.558 1.65643 0.539276 0
M  V30 2956 C 276.69 3.27459 0.947809 0
M  V30 2957 H 277.883 2.88529 -0.817994 0
M  V30 2958 H 275.436 1.49307 -0.46228 0
M  V30 2959 H 276.171 2.73073 1.74933 0
M  V30 2960 H 275.956 3.8991 0.41385 0
M  V30 2961 H 277.446 3.93311 1.40344 0
M  V30 2962 N 277.883 0.443576 1.51229 0
M  V30 2963 C 279.111 -0.11929 2.06556 0
M  V30 2964 C 279.526 -1.35921 1.31038 0
M  V30 2965 O 278.883 -1.78675 0.371704 0
M  V30 2966 C 278.934 -0.435228 3.5887 0
M  V30 2967 O 278.655 0.755486 4.31537 0
M  V30 2968 C 280.156 -1.04808 4.30732 0
M  V30 2969 H 277.376 -0.0051584 0.67098 0
M  V30 2970 H 279.92 0.624453 1.94733 0
M  V30 2971 H 278.075 -1.12887 3.70588 0
M  V30 2972 H 278.489 0.483491 5.22267 0
M  V30 2973 H 279.963 -1.2191 5.3837 0
M  V30 2974 H 280.44 -2.03081 3.89429 0
M  V30 2975 H 281.046 -0.393637 4.23474 0
M  V30 2976 N 279.361 -1.56624 0.175154 0
M  V30 2977 C 280.589 -2.01374 -0.474971 0
M  V30 2978 C 281.004 -1.05537 -1.56548 0
M  V30 2979 O 280.361 -0.0568668 -1.82411 0
M  V30 2980 C 280.412 -3.45923 -1.04975 0
M  V30 2981 O 280.133 -4.381 -0.00276605 0
M  V30 2982 C 281.634 -4.06093 -1.77773 0
M  V30 2983 H 278.854 -0.659962 -0.121206 0
M  V30 2984 H 281.398 -2.02601 0.27801 0
M  V30 2985 H 279.553 -3.45458 -1.75321 0
M  V30 2986 H 279.967 -5.22753 -0.427681 0
M  V30 2987 H 281.441 -5.09147 -2.13245 0
M  V30 2988 H 281.918 -3.48405 -2.67414 0
M  V30 2989 H 282.524 -4.10272 -1.12059 0
M  V30 2990 N 280.839 0.0985539 -1.57292 0
M  V30 2991 C 281.769 1.12064 -2.04851 0
M  V30 2992 C 282.75 1.41981 -0.936767 0
M  V30 2993 O 283.935 1.52071 -1.20781 0
M  V30 2994 C 281.065 2.44144 -2.47004 0
M  V30 2995 C 280.019 2.28643 -3.6181 0
M  V30 2996 C 279.345 3.65869 -3.89929 0
M  V30 2997 C 280.645 1.72986 -4.92822 0
M  V30 2998 H 282.339 0.724979 -2.9049 0
M  V30 2999 H 279.885 0.34729 -1.39749 0
M  V30 3000 H 281.838 3.15914 -2.78884 0
M  V30 3001 H 280.562 2.85639 -1.5836 0
M  V30 3002 H 279.221 1.59318 -3.30172 0
M  V30 3003 H 278.869 4.04885 -2.98458 0
M  V30 3004 H 278.569 3.56344 -4.67218 0
M  V30 3005 H 280.093 4.39112 -4.2428 0
M  V30 3006 H 281.507 2.34593 -5.23105 0
M  V30 3007 H 279.904 1.74229 -5.74251 0
M  V30 3008 H 280.974 0.689007 -4.7998 0
M  V30 3009 N 282.317 1.53212 0.369288 0
M  V30 3010 C 283.566 1.68436 1.10961 0
M  V30 3011 C 283.879 0.440738 1.9057 0
M  V30 3012 O 285.085 0.473446 2.6734 0
M  V30 3013 C 283.541 2.97744 2.0218 0
M  V30 3014 C 283.149 4.29355 1.279 0
M  V30 3015 C 284.893 3.22334 2.76226 0
M  V30 3016 C 282.8 5.49755 2.17999 0
M  V30 3017 H 281.73 0.627568 0.41794 0
M  V30 3018 H 284.381 1.79713 0.370884 0
M  V30 3019 H 282.763 2.8026 2.79768 0
M  V30 3020 H 283.937 4.57458 0.554007 0
M  V30 3021 H 282.252 4.11179 0.657311 0
M  V30 3022 H 284.849 4.09471 3.43857 0
M  V30 3023 H 285.192 2.38238 3.41392 0
M  V30 3024 H 285.725 3.40475 2.05723 0
M  V30 3025 H 282.464 6.36318 1.57417 0
M  V30 3026 H 281.984 5.25937 2.88359 0
M  V30 3027 H 283.663 5.84401 2.77641 0
M  V30 3028 N 283.795 -0.628877 1.44509 0
M  V30 3029 C 284.743 -1.76193 1.51852 0
M  V30 3030 C 285.737 -1.64849 0.390042 0
M  V30 3031 O 286.943 -1.709 0.565082 0
M  V30 3032 H 283.318 -0.581728 0.476547 0
M  V30 3033 H 285.289 -1.67123 2.47209 0
M  V30 3034 C 284.038 -3.14533 1.48204 0
M  V30 3035 H 283.361 -3.23911 2.34354 0
M  V30 3036 H 284.801 -3.93701 1.57402 0
M  V30 3037 C 283.26 -3.36287 0.203142 0
M  V30 3038 O 283.79 -3.9509 -0.725745 0
M  V30 3039 N 281.996 -2.90408 0.105563 0
M  V30 3040 H 281.543 -2.42739 0.862301 0
M  V30 3041 H 281.501 -3.05339 -0.749371 0
M  V30 3042 N 285.273 -1.31445 -0.869486 0
M  V30 3043 C 286.689 -1.10113 -1.15531 0
M  V30 3044 C 286.889 0.128087 -2.01092 0
M  V30 3045 O 285.945 0.817276 -2.38908 0
M  V30 3046 C 287.258 -2.37291 -1.84698 0
M  V30 3047 C 288.806 -2.42906 -1.97397 0
M  V30 3048 C 289.281 -3.69967 -2.69979 0
M  V30 3049 N 290.772 -3.70864 -2.77514 0
M  V30 3050 C 291.507 -4.65875 -3.34287 0
M  V30 3051 N 291.003 -5.71242 -3.91988 0
M  V30 3052 N 292.796 -4.53394 -3.3225 0
M  V30 3053 H 284.947 -2.1028 -0.299347 0
M  V30 3054 H 287.21 -0.927683 -0.195214 0
M  V30 3055 H 286.916 -3.27078 -1.29278 0
M  V30 3056 H 286.79 -2.47125 -2.84972 0
M  V30 3057 H 289.177 -1.53588 -2.51982 0
M  V30 3058 H 289.258 -2.37036 -0.961643 0
M  V30 3059 H 288.902 -4.59652 -2.16062 0
M  V30 3060 H 288.832 -3.73103 -3.7162 0
M  V30 3061 H 291.323 -2.94697 -2.36563 0
M  V30 3062 H 291.636 -6.39817 -4.33421 0
M  V30 3063 H 289.981 -5.75015 -3.90362 0
M  V30 3064 H 293.172 -3.70252 -2.8641 0
M  V30 3065 H 293.345 -5.27617 -3.76197 0
M  V30 3066 N 286.751 1.08385 -1.14413 0
M  V30 3067 C 288.162 1.62258 -0.923535 0
M  V30 3068 C 288.513 1.88691 0.537595 0
M  V30 3069 O 287.638 1.64454 1.40655 0
M  V30 3070 C 288.233 2.94781 -1.67002 0
M  V30 3071 C 286.792 3.45437 -1.495 0
M  V30 3072 C 285.939 2.19668 -1.69238 0
M  V30 3073 H 288.89 0.916086 -1.2959 0
M  V30 3074 H 288.911 3.63229 -1.13334 0
M  V30 3075 H 288.423 2.7551 -2.73342 0
M  V30 3076 H 286.524 3.6981 -0.455097 0
M  V30 3077 H 286.637 4.22173 -2.2651 0
M  V30 3078 H 285.001 2.28849 -1.11804 0
M  V30 3079 H 285.784 2.02905 -2.7692 0
M  V30 3080 N 288.23 0.939286 1.26551 0
M  V30 3081 C 289.46 0.601663 1.97645 0
M  V30 3082 C 289.868 -0.827206 1.70159 0
M  V30 3083 O 289.211 -1.56291 0.965338 0
M  V30 3084 C 289.273 0.761725 3.51337 0
M  V30 3085 C 288.937 2.16487 4.0247 0
M  V30 3086 C 289.934 3.14016 4.14355 0
M  V30 3087 C 287.619 2.48494 4.36527 0
M  V30 3088 C 289.613 4.41654 4.59587 0
M  V30 3089 C 287.3 3.76364 4.81449 0
M  V30 3090 C 288.298 4.72758 4.92939 0
M  V30 3091 O 287.986 5.98352 5.36871 0
M  V30 3092 H 287.718 0.225758 0.637189 0
M  V30 3093 H 290.272 1.26178 1.62075 0
M  V30 3094 H 288.502 0.0444808 3.86674 0
M  V30 3095 H 290.191 0.427442 4.03643 0
M  V30 3096 H 290.957 2.90613 3.8829 0
M  V30 3097 H 286.836 1.74202 4.26819 0
M  V30 3098 H 290.38 5.16896 4.68471 0
M  V30 3099 H 286.277 3.99582 5.06956 0
M  V30 3100 H 287.045 6.01507 5.55096 0
M  V30 3101 N 289.708 -1.40897 0.706093 0
M  V30 3102 C 290.656 -2.32572 0.0361893 0
M  V30 3103 C 291.65 -1.51532 -0.757266 0
M  V30 3104 O 292.856 -1.67396 -0.661703 0
M  V30 3105 H 289.231 -0.751966 -0.00709935 0
M  V30 3106 H 291.202 -2.86733 0.826249 0
M  V30 3107 C 289.951 -3.36418 -0.87854 0
M  V30 3108 H 289.274 -3.98836 -0.277401 0
M  V30 3109 H 290.714 -4.0308 -1.3154 0
M  V30 3110 C 289.173 -2.71141 -1.99961 0
M  V30 3111 O 289.703 -2.56735 -3.0895 0
M  V30 3112 N 287.909 -2.29671 -1.78043 0
M  V30 3113 H 287.456 -2.41588 -0.894042 0
M  V30 3114 H 287.414 -1.86332 -2.53235 0
M  V30 3115 N 291.186 -0.45159 -1.50991 0
M  V30 3116 C 292.133 0.352625 -2.2809 0
M  V30 3117 C 293.103 1.0044 -1.32291 0
M  V30 3118 O 294.288 1.02058 -1.6121 0
M  V30 3119 C 291.428 1.43983 -3.13629 0
M  V30 3120 C 290.541 0.804772 -4.24438 0
M  V30 3121 C 289.676 1.86822 -4.97263 0
M  V30 3122 C 288.715 1.21236 -5.99973 0
M  V30 3123 N 287.852 2.2178 -6.66152 0
M  V30 3124 H 292.692 -0.311186 -2.96371 0
M  V30 3125 H 290.229 -0.165308 -1.46168 0
M  V30 3126 H 292.187 2.08161 -3.61559 0
M  V30 3127 H 290.817 2.07307 -2.47434 0
M  V30 3128 H 289.869 0.0509129 -3.80366 0
M  V30 3129 H 291.181 0.286076 -4.97979 0
M  V30 3130 H 290.335 2.58628 -5.48813 0
M  V30 3131 H 289.074 2.42068 -4.23385 0
M  V30 3132 H 288.079 0.479828 -5.47702 0
M  V30 3133 H 289.304 0.667051 -6.75816 0
M  V30 3134 H 287.25 2.76079 -5.95077 0
M  V30 3135 H 287.167 1.74841 -7.35504 0
M  V30 3136 H 288.435 2.93026 -7.22327 0
M  V30 3137 N 292.664 1.56529 -0.183458 0
M  V30 3138 C 293.594 2.21549 0.737456 0
M  V30 3139 C 294.575 1.17489 1.23005 0
M  V30 3140 O 295.76 1.45959 1.281 0
M  V30 3141 C 292.89 2.86575 1.96194 0
M  V30 3142 C 291.844 3.96778 1.60473 0
M  V30 3143 C 291.17 4.48911 2.90487 0
M  V30 3144 C 292.47 5.15767 0.823497 0
M  V30 3145 H 294.164 2.98761 0.195453 0
M  V30 3146 H 291.71 1.43702 0.0925686 0
M  V30 3147 H 293.663 3.30739 2.61131 0
M  V30 3148 H 292.387 2.06749 2.52828 0
M  V30 3149 H 291.046 3.53286 0.978997 0
M  V30 3150 H 290.694 3.65862 3.45186 0
M  V30 3151 H 290.394 5.23265 2.67335 0
M  V30 3152 H 291.918 4.95771 3.56432 0
M  V30 3153 H 293.332 5.56549 1.37571 0
M  V30 3154 H 291.729 5.96114 0.690551 0
M  V30 3155 H 292.799 4.84574 -0.177782 0
M  V30 3156 N 294.142 -0.090211 1.57342 0
M  V30 3157 C 295.372 -0.805055 1.90269 0
M  V30 3158 C 295.78 -1.72561 0.775842 0
M  V30 3159 O 295.123 -1.81839 -0.260843 0
M  V30 3160 C 295.185 -1.66734 3.18497 0
M  V30 3161 C 294.849 -0.918092 4.47683 0
M  V30 3162 C 295.846 -0.245674 5.19319 0
M  V30 3163 C 293.531 -0.890724 4.94339 0
M  V30 3164 C 295.525 0.444088 6.35851 0
M  V30 3165 C 293.212 -0.197179 6.10782 0
M  V30 3166 C 294.21 0.469044 6.81388 0
M  V30 3167 O 293.898 1.15146 7.95611 0
M  V30 3168 H 293.63 -0.235143 0.633785 0
M  V30 3169 H 296.184 -0.0703805 2.05279 0
M  V30 3170 H 294.414 -2.44437 2.99646 0
M  V30 3171 H 296.103 -2.25919 3.37217 0
M  V30 3172 H 296.869 -0.258246 4.84312 0
M  V30 3173 H 292.748 -1.39873 4.39268 0
M  V30 3174 H 296.292 0.964667 6.90898 0
M  V30 3175 H 292.189 -0.18247 6.45242 0
M  V30 3176 H 292.957 1.05885 8.11622 0
M  V30 3177 N 295.62 -1.53406 -0.361157 0
M  V30 3178 C 296.868 -1.69467 -1.10115 0
M  V30 3179 C 297.189 -0.451352 -1.89705 0
M  V30 3180 O 296.459 0.534636 -1.88463 0
M  V30 3181 H 295.039 -0.624749 -0.409508 0
M  V30 3182 H 297.701 -1.90609 -0.406699 0
M  V30 3183 H 296.797 -2.55774 -1.78847 0
M  V30 3184 N 297.098 0.621204 -1.44841 0
M  V30 3185 C 298.061 1.71459 -1.521 0
M  V30 3186 C 299.061 1.55696 -0.401933 0
M  V30 3187 O 300.251 1.61011 -0.664925 0
M  V30 3188 C 297.383 3.10624 -1.40447 0
M  V30 3189 H 298.576 1.66394 -2.49506 0
M  V30 3190 H 296.129 0.835745 -1.3208 0
M  V30 3191 H 296.864 3.21277 -0.441737 0
M  V30 3192 H 296.649 3.23473 -2.21602 0
M  V30 3193 H 298.139 3.90293 -1.4853 0
M  V30 3194 N 298.576 1.31904 0.862503 0
M  V30 3195 C 299.853 1.12644 1.59908 0
M  V30 3196 C 300.233 -0.316104 2.0872 0
M  V30 3197 O 299.581 -1.31145 1.87118 0
M  V30 3198 C 299.791 2.1472 2.7513 0
M  V30 3199 C 301.139 2.47637 3.44907 0
M  V30 3200 O 302.163 2.13205 2.85346 0
M  V30 3201 O 301.022 3.06632 4.52371 0
M  V30 3202 H 298.116 0.43416 0.703871 0
M  V30 3203 H 300.662 1.43408 0.907314 0
M  V30 3204 H 299.434 3.1172 2.3653 0
M  V30 3205 H 299.057 1.84905 3.51989 0
M  V30 3206 N 300.054 -1.07777 1.14986 0
M  V30 3207 C 301.282 -1.84018 0.945773 0
M  V30 3208 C 301.697 -1.81897 -0.505863 0
M  V30 3209 O 301.054 -1.22726 -1.35072 0
M  V30 3210 C 301.105 -3.31287 1.44677 0
M  V30 3211 O 300.826 -3.33449 2.84154 0
M  V30 3212 C 302.327 -4.24311 1.28355 0
M  V30 3213 H 299.547 -0.580716 0.336169 0
M  V30 3214 H 302.091 -1.36077 1.52654 0
M  V30 3215 H 300.246 -3.76594 0.908625 0
M  V30 3216 H 300.66 -4.25427 3.06777 0
M  V30 3217 H 302.134 -5.2573 1.68261 0
M  V30 3218 H 302.611 -4.38612 0.227184 0
M  V30 3219 H 303.217 -3.84836 1.81056 0
M  V30 3220 N 301.532 -0.945985 -1.26051 0
M  V30 3221 C 302.442 -0.465633 -2.29933 0
M  V30 3222 C 303.458 0.462761 -1.67733 0
M  V30 3223 O 304.634 0.341118 -1.9849 0
M  V30 3224 C 301.699 0.256994 -3.45746 0
M  V30 3225 C 300.76 -0.708549 -4.23412 0
M  V30 3226 C 299.993 -0.0203135 -5.33696 0
M  V30 3227 O 300.216 1.19571 -5.57726 0
M  V30 3228 O 299.15 -0.701459 -5.97799 0
M  V30 3229 H 302.976 -1.32866 -2.73094 0
M  V30 3230 H 300.561 -0.712071 -1.31339 0
M  V30 3231 H 302.443 0.663852 -4.16138 0
M  V30 3232 H 301.118 1.09533 -3.04605 0
M  V30 3233 H 300.025 -1.16545 -3.55483 0
M  V30 3234 H 301.358 -1.51465 -4.68315 0
M  V30 3235 N 303.011 1.40521 -0.713556 0
M  V30 3236 C 304.26 2.00155 -0.249192 0
M  V30 3237 C 304.573 1.57224 1.16362 0
M  V30 3238 O 305.779 2.09542 1.72639 0
M  V30 3239 C 304.235 3.5773 -0.3946 0
M  V30 3240 C 303.843 4.09635 -1.81392 0
M  V30 3241 C 305.587 4.24499 0.00907364 0
M  V30 3242 C 303.494 5.59707 -1.91003 0
M  V30 3243 H 302.424 0.74868 -0.0894114 0
M  V30 3244 H 305.075 1.60784 -0.884352 0
M  V30 3245 H 303.457 3.94792 0.30911 0
M  V30 3246 H 304.631 3.83955 -2.54785 0
M  V30 3247 H 302.946 3.55456 -2.16888 0
M  V30 3248 H 305.543 5.34683 -0.0420404 0
M  V30 3249 H 305.886 4.02824 1.05065 0
M  V30 3250 H 306.419 3.92536 -0.645007 0
M  V30 3251 H 303.158 5.86234 -2.93275 0
M  V30 3252 H 302.678 5.87258 -1.22019 0
M  V30 3253 H 304.357 6.24776 -1.6812 0
M  V30 3254 N 304.489 0.459591 1.5075 0
M  V30 3255 C 305.737 -0.0991532 2.01857 0
M  V30 3256 C 306.058 -1.41247 1.34441 0
M  V30 3257 O 305.328 -1.89775 0.486022 0
M  V30 3258 H 303.908 -0.039633 0.745948 0
M  V30 3259 H 306.57 0.607387 1.85194 0
M  V30 3260 H 305.666 -0.258998 3.11023 0
M  V30 3261 N 305.967 -1.56429 0.191757 0
M  V30 3262 C 306.899 -2.16154 -0.762245 0
M  V30 3263 C 307.912 -1.12247 -1.17917 0
M  V30 3264 O 309.101 -1.39353 -1.11548 0
M  V30 3265 C 306.201 -2.70606 -2.04024 0
M  V30 3266 C 305.374 -3.99381 -1.78364 0
M  V30 3267 C 304.433 -4.38692 -2.90578 0
M  V30 3268 O 303.459 -5.06179 -2.6033 0
M  V30 3269 N 304.661 -4.01922 -4.18854 0
M  V30 3270 H 307.426 -2.98643 -0.251526 0
M  V30 3271 H 304.987 -1.61897 0.00967373 0
M  V30 3272 H 306.979 -2.93891 -2.78227 0
M  V30 3273 H 305.549 -1.9259 -2.46227 0
M  V30 3274 H 304.769 -3.84262 -0.879581 0
M  V30 3275 H 306.057 -4.83445 -1.58614 0
M  V30 3276 H 305.455 -3.47631 -4.46283 0
M  V30 3277 H 304.012 -4.30165 -4.89695 0
M  V30 3278 N 307.445 0.0818655 -1.57387 0
M  V30 3279 C 308.691 0.778884 -1.87896 0
M  V30 3280 C 309.046 1.75692 -0.784229 0
M  V30 3281 O 308.339 1.90417 0.212567 0
M  V30 3282 C 308.533 1.53513 -3.22752 0
M  V30 3283 C 308.362 0.631838 -4.45239 0
M  V30 3284 C 307.132 0.272571 -5.04564 0
M  V30 3285 C 309.33 -0.0670191 -5.14256 0
M  V30 3286 N 307.312 -0.637498 -6.10581 0
M  V30 3287 C 308.683 -0.834653 -6.14356 0
M  V30 3288 C 310.738 -0.139551 -4.97704 0
M  V30 3289 C 309.441 -1.66806 -6.99691 0
M  V30 3290 C 311.467 -0.959903 -5.83558 0
M  V30 3291 C 310.829 -1.71561 -6.83188 0
M  V30 3292 H 306.928 0.260764 -0.737242 0
M  V30 3293 H 309.512 0.0408227 -1.94657 0
M  V30 3294 H 307.683 2.24398 -3.17018 0
M  V30 3295 H 309.415 2.18038 -3.40942 0
M  V30 3296 H 306.17 0.62319 -4.69482 0
M  V30 3297 H 306.594 -1.08548 -6.68241 0
M  V30 3298 H 311.236 0.430376 -4.20604 0
M  V30 3299 H 308.954 -2.249 -7.76174 0
M  V30 3300 H 312.54 -1.01887 -5.72809 0
M  V30 3301 H 311.42 -2.34017 -7.48469 0
M  V30 3302 N 308.923 1.53595 0.353017 0
M  V30 3303 C 309.853 1.83902 1.43883 0
M  V30 3304 C 310.834 0.693421 1.55324 0
M  V30 3305 O 312.019 0.944452 1.69687 0
M  V30 3306 C 309.149 2.04016 2.8106 0
M  V30 3307 C 308.103 3.19814 2.84434 0
M  V30 3308 C 307.429 3.25244 4.24406 0
M  V30 3309 C 308.729 4.58133 2.50822 0
M  V30 3310 H 310.423 2.74835 1.1877 0
M  V30 3311 H 307.969 1.32242 0.569917 0
M  V30 3312 H 309.922 2.238 3.57059 0
M  V30 3313 H 308.646 1.09804 3.07588 0
M  V30 3314 H 307.305 2.9987 2.10887 0
M  V30 3315 H 306.953 2.28646 4.48029 0
M  V30 3316 H 306.653 4.03054 4.27576 0
M  V30 3317 H 308.177 3.47228 5.0226 0
M  V30 3318 H 309.591 4.77995 3.16534 0
M  V30 3319 H 307.988 5.38276 2.6529 0
M  V30 3320 H 309.058 4.62387 1.46034 0
M  V30 3321 N 310.401 -0.613514 1.45168 0
M  V30 3322 C 311.817 -0.933629 1.29443 0
M  V30 3323 C 312.017 -2.00028 0.243101 0
M  V30 3324 O 311.073 -2.49848 -0.364992 0
M  V30 3325 C 312.386 -1.38018 2.67155 0
M  V30 3326 C 313.934 -1.49471 2.75004 0
M  V30 3327 C 314.409 -1.97503 4.13227 0
M  V30 3328 N 315.9 -2.04746 4.15491 0
M  V30 3329 C 316.635 -2.43121 5.19307 0
M  V30 3330 N 316.131 -2.80506 6.33473 0
M  V30 3331 N 317.924 -2.43408 5.06664 0
M  V30 3332 H 310.075 0.0916097 2.12202 0
M  V30 3333 H 312.338 -0.0216655 0.947752 0
M  V30 3334 H 312.044 -0.670625 3.45247 0
M  V30 3335 H 311.918 -2.34784 2.95222 0
M  V30 3336 H 314.305 -2.19519 1.9722 0
M  V30 3337 H 314.386 -0.510342 2.50657 0
M  V30 3338 H 314.03 -1.28045 4.91495 0
M  V30 3339 H 313.96 -2.96843 4.34962 0
M  V30 3340 H 316.451 -1.78468 3.33103 0
M  V30 3341 H 316.764 -3.08652 7.08487 0
M  V30 3342 H 315.109 -2.78216 6.36884 0
M  V30 3343 H 318.3 -2.13604 4.16523 0
M  V30 3344 H 318.473 -2.72989 5.87691 0
M  V30 3345 N 311.879 -1.3236 -0.855495 0
M  V30 3346 C 313.104 -1.2601 -1.64731 0
M  V30 3347 C 313.529 0.169068 -1.87339 0
M  V30 3348 O 312.887 1.12016 -1.42556 0
M  V30 3349 C 312.935 -2.02417 -2.98429 0
M  V30 3350 O 312.039 -1.3714 -3.8893 0
M  V30 3351 H 311.38 -0.434325 -0.502253 0
M  V30 3352 H 313.91 -1.74661 -1.06558 0
M  V30 3353 H 313.92 -2.12559 -3.48257 0
M  V30 3354 H 312.595 -3.06343 -2.81295 0
M  V30 3355 H 311.172 -1.3554 -3.47395 0
M  V30 3356 N 313.357 1.07166 -1.15556 0
M  V30 3357 C 314.304 2.14417 -0.854055 0
M  V30 3358 C 315.274 1.64965 0.193806 0
M  V30 3359 O 316.459 1.90703 0.0609443 0
M  V30 3360 C 313.599 3.43304 -0.351574 0
M  V30 3361 C 312.712 4.06537 -1.46123 0
M  V30 3362 C 311.847 5.23266 -0.914677 0
M  V30 3363 C 310.886 5.78464 -2.00114 0
M  V30 3364 N 310.023 6.86521 -1.47083 0
M  V30 3365 H 314.863 2.39548 -1.77259 0
M  V30 3366 H 312.4 1.17543 -0.884425 0
M  V30 3367 H 314.358 4.17179 -0.0419409 0
M  V30 3368 H 312.988 3.18419 0.530037 0
M  V30 3369 H 312.04 3.30297 -1.88701 0
M  V30 3370 H 313.352 4.43567 -2.28144 0
M  V30 3371 H 312.506 6.04131 -0.557698 0
M  V30 3372 H 311.245 4.87658 -0.0636583 0
M  V30 3373 H 310.25 4.96243 -2.36692 0
M  V30 3374 H 311.475 6.16126 -2.85597 0
M  V30 3375 H 309.421 6.52849 -0.642198 0
M  V30 3376 H 309.338 7.22446 -2.22729 0
M  V30 3377 H 310.606 7.71087 -1.14215 0
M  V30 3378 N 314.835 0.952656 1.25548 0
M  V30 3379 C 315.783 0.462354 2.27958 0
M  V30 3380 C 316.777 -0.46634 1.62855 0
M  V30 3381 O 317.983 -0.343287 1.76696 0
M  V30 3382 H 314.358 0.13101 0.7405 0
M  V30 3383 H 316.329 1.33839 2.66702 0
M  V30 3384 C 315.078 -0.24628 3.46827 0
M  V30 3385 H 314.401 0.459192 3.97154 0
M  V30 3386 H 315.841 -0.553393 4.20373 0
M  V30 3387 C 314.3 -1.4681 3.0323 0
M  V30 3388 O 314.83 -2.56591 3.09069 0
M  V30 3389 N 313.036 -1.32874 2.58443 0
M  V30 3390 H 312.583 -0.435536 2.53891 0
M  V30 3391 H 312.541 -2.14742 2.29637 0
M  V30 3392 N 316.313 -1.40141 0.720998 0
M  V30 3393 C 317.541 -2.05096 0.272656 0
M  V30 3394 C 317.956 -1.54334 -1.0875 0
M  V30 3395 O 317.313 -0.702211 -1.6845 0
M  V30 3396 C 317.364 -3.60636 0.249835 0
M  V30 3397 O 317.085 -4.09526 1.55629 0
M  V30 3398 C 318.586 -4.42772 -0.216396 0
M  V30 3399 H 315.806 -0.659897 0.121558 0
M  V30 3400 H 318.35 -1.79449 0.980723 0
M  V30 3401 H 316.505 -3.85232 -0.409237 0
M  V30 3402 H 316.919 -5.03758 1.4604 0
M  V30 3403 H 318.393 -5.51702 -0.181212 0
M  V30 3404 H 318.87 -4.20756 -1.25941 0
M  V30 3405 H 319.476 -4.23294 0.412596 0
M  V30 3406 N 317.792 -0.46758 -1.50504 0
M  V30 3407 C 319.041 0.0902868 -2.01498 0
M  V30 3408 C 319.354 1.411 -1.35463 0
M  V30 3409 O 320.56 2.0536 -1.77594 0
M  V30 3410 C 319.016 0.21142 -3.59278 0
M  V30 3411 C 318.624 -1.10065 -4.34269 0
M  V30 3412 C 320.368 0.721433 -4.18325 0
M  V30 3413 C 318.275 -0.943505 -5.83825 0
M  V30 3414 H 317.205 0.037517 -0.753066 0
M  V30 3415 H 319.856 -0.601943 -1.73346 0
M  V30 3416 H 318.238 0.967352 -3.84003 0
M  V30 3417 H 319.412 -1.86726 -4.21272 0
M  V30 3418 H 317.727 -1.5415 -3.86816 0
M  V30 3419 H 320.324 0.85598 -5.27804 0
M  V30 3420 H 320.667 1.71186 -3.79475 0
M  V30 3421 H 321.2 0.0229843 -3.97793 0
M  V30 3422 H 317.939 -1.90719 -6.27141 0
M  V30 3423 H 317.459 -0.217213 -5.99407 0
M  V30 3424 H 319.138 -0.608715 -6.4413 0
M  V30 3425 N 319.27 1.56325 -0.20005 0
M  V30 3426 C 320.519 1.96895 0.437652 0
M  V30 3427 C 320.832 1.08999 1.62415 0
M  V30 3428 O 322.038 1.39372 2.32997 0
M  V30 3429 C 320.494 3.50198 0.830025 0
M  V30 3430 C 320.102 4.46765 -0.332461 0
M  V30 3431 C 321.846 3.99526 1.43453 0
M  V30 3432 C 319.753 5.91344 0.0811468 0
M  V30 3433 H 318.683 0.735209 0.167282 0
M  V30 3434 H 321.334 1.81148 -0.292853 0
M  V30 3435 H 319.716 3.61467 1.61734 0
M  V30 3436 H 320.89 4.47231 -1.11 0
M  V30 3437 H 319.205 4.07657 -0.848789 0
M  V30 3438 H 321.802 5.05025 1.75652 0
M  V30 3439 H 322.145 3.44122 2.34277 0
M  V30 3440 H 322.678 3.91393 0.71109 0
M  V30 3441 H 319.417 6.50685 -0.793033 0
M  V30 3442 H 318.937 5.94121 0.823445 0
M  V30 3443 H 320.616 6.44945 0.515252 0
M  V30 3444 N 320.748 -0.0735177 1.57428 0
M  V30 3445 C 321.695 -1.08756 2.0357 0
M  V30 3446 C 322.665 -1.38559 0.916 0
M  V30 3447 O 323.85 -1.49656 1.18354 0
M  V30 3448 C 320.99 -2.39657 2.48311 0
M  V30 3449 C 320.103 -2.16399 3.73892 0
M  V30 3450 C 319.238 -3.40852 4.07423 0
M  V30 3451 C 318.277 -3.1295 5.2605 0
M  V30 3452 N 317.414 -4.29729 5.55228 0
M  V30 3453 H 322.254 -0.687104 2.8997 0
M  V30 3454 H 319.791 -0.327709 1.43403 0
M  V30 3455 H 321.749 -3.16081 2.72303 0
M  V30 3456 H 320.379 -2.77508 1.64891 0
M  V30 3457 H 319.431 -1.30676 3.57251 0
M  V30 3458 H 320.743 -1.91788 4.60455 0
M  V30 3459 H 319.897 -4.25671 4.32306 0
M  V30 3460 H 318.636 -3.68537 3.19425 0
M  V30 3461 H 317.641 -2.26526 5.00965 0
M  V30 3462 H 318.866 -2.86589 6.15665 0
M  V30 3463 H 316.812 -4.57448 4.70188 0
M  V30 3464 H 316.729 -4.08385 6.36206 0
M  V30 3465 H 317.997 -5.1555 5.84661 0
M  V30 3466 N 322.226 -1.5378 -0.344866 0
M  V30 3467 C 323.475 -1.7018 -1.08267 0
M  V30 3468 C 323.788 -0.471 -1.89845 0
M  V30 3469 O 324.994 -0.515917 -2.66553 0
M  V30 3470 C 323.45 -3.00923 -1.97417 0
M  V30 3471 C 323.058 -4.31335 -1.21053 0
M  V30 3472 C 324.802 -3.26688 -2.71063 0
M  V30 3473 C 322.709 -5.53153 -2.09225 0
M  V30 3474 H 321.639 -0.634138 -0.407903 0
M  V30 3475 H 324.29 -1.8028 -0.342246 0
M  V30 3476 H 322.672 -2.84676 -2.75274 0
M  V30 3477 H 323.846 -4.58281 -0.481159 0
M  V30 3478 H 322.161 -4.12173 -0.591813 0
M  V30 3479 H 324.758 -4.1489 -3.37299 0
M  V30 3480 H 325.101 -2.43639 -3.37558 0
M  V30 3481 H 325.634 -3.43705 -2.0028 0
M  V30 3482 H 322.373 -6.38741 -1.47274 0
M  V30 3483 H 321.893 -5.30458 -2.79955 0
M  V30 3484 H 323.572 -5.88744 -2.68308 0
M  V30 3485 N 323.704 0.605807 -1.45491 0
M  V30 3486 C 324.652 1.73754 -1.54636 0
M  V30 3487 C 325.646 1.64207 -0.416219 0
M  V30 3488 O 326.852 1.69979 -0.592199 0
M  V30 3489 H 323.227 0.574073 -0.485741 0
M  V30 3490 H 325.198 1.63169 -2.49837 0
M  V30 3491 C 323.947 3.12135 -1.53189 0
M  V30 3492 H 323.27 3.20141 -2.39478 0
M  V30 3493 H 324.71 3.91147 -1.63645 0
M  V30 3494 C 323.169 3.35921 -0.256616 0
M  V30 3495 O 323.699 3.96194 0.662798 0
M  V30 3496 N 321.905 2.90204 -0.151751 0
M  V30 3497 H 321.452 2.41336 -0.90081 0
M  V30 3498 H 321.41 3.06492 0.700699 0
M  V30 3499 N 325.182 1.32811 0.848464 0
M  V30 3500 C 326.459 1.14334 1.58704 0
M  V30 3501 C 326.839 -0.293948 2.09043 0
M  V30 3502 O 326.187 -1.29153 1.88499 0
M  V30 3503 C 326.397 2.17626 2.72837 0
M  V30 3504 C 327.745 2.51282 3.42261 0
M  V30 3505 O 328.769 2.16219 2.83068 0
M  V30 3506 O 327.628 3.11413 4.49093 0
M  V30 3507 H 324.722 0.441601 0.699226 0
M  V30 3508 H 327.268 1.44362 0.892053 0
M  V30 3509 H 326.04 3.14211 2.3321 0
M  V30 3510 H 325.663 1.88628 3.50008 0
M  V30 3511 N 326.66 -1.06551 1.16123 0
M  V30 3512 C 327.906 -1.79567 0.94252 0
M  V30 3513 C 328.239 -1.86869 -0.528547 0
M  V30 3514 O 327.514 -1.35838 -1.39206 0
M  V30 3515 C 327.797 -3.24195 1.56747 0
M  V30 3516 C 327.65 -3.24989 3.10969 0
M  V30 3517 C 328.969 -4.21678 1.25998 0
M  V30 3518 H 326.088 -0.651883 0.343828 0
M  V30 3519 H 328.73 -1.2463 1.43413 0
M  V30 3520 H 326.88 -3.71107 1.14942 0
M  V30 3521 H 328.552 -2.86258 3.61737 0
M  V30 3522 H 326.795 -2.63716 3.44436 0
M  V30 3523 H 327.466 -4.27005 3.49815 0
M  V30 3524 H 329.942 -3.83196 1.62174 0
M  V30 3525 H 328.818 -5.21146 1.7233 0
M  V30 3526 H 329.079 -4.4174 0.178367 0
M  V30 3527 N 328.138 -0.959301 -1.25041 0
M  V30 3528 C 329.068 -0.501388 -2.28053 0
M  V30 3529 C 330.049 0.454673 -1.63911 0
M  V30 3530 O 331.234 0.352618 -1.90972 0
M  V30 3531 C 328.364 0.217224 -3.4662 0
M  V30 3532 C 327.318 -0.654034 -4.22973 0
M  V30 3533 C 326.644 0.195589 -5.34342 0
M  V30 3534 C 327.944 -1.93447 -4.85155 0
M  V30 3535 H 329.638 -1.36238 -2.66608 0
M  V30 3536 H 327.184 -0.656534 -1.28163 0
M  V30 3537 H 329.137 0.548732 -4.17812 0
M  V30 3538 H 327.861 1.1125 -3.07068 0
M  V30 3539 H 326.52 -0.968693 -3.5357 0
M  V30 3540 H 326.168 1.09076 -4.91031 0
M  V30 3541 H 325.868 -0.384091 -5.86343 0
M  V30 3542 H 327.392 0.521958 -6.08365 0
M  V30 3543 H 328.806 -1.66908 -5.48466 0
M  V30 3544 H 327.203 -2.46018 -5.47353 0
M  V30 3545 H 328.273 -2.63466 -4.07079 0
M  V30 3546 N 329.616 1.39756 -0.72842 0
M  V30 3547 C 330.846 2.04651 -0.283117 0
M  V30 3548 C 331.254 1.5502 1.08469 0
M  V30 3549 O 330.597 0.707343 1.69536 0
M  V30 3550 C 330.659 3.58947 -0.199309 0
M  V30 3551 C 330.323 4.31525 -1.5045 0
M  V30 3552 C 331.32 4.5861 -2.44894 0
M  V30 3553 C 329.005 4.70195 -1.76698 0
M  V30 3554 C 330.999 5.23366 -3.63822 0
M  V30 3555 C 328.686 5.3468 -2.95906 0
M  V30 3556 C 329.684 5.61198 -3.89289 0
M  V30 3557 O 329.372 6.24347 -5.06404 0
M  V30 3558 H 329.104 0.664777 -0.122666 0
M  V30 3559 H 331.658 1.79913 -0.990987 0
M  V30 3560 H 329.888 3.82556 0.56461 0
M  V30 3561 H 331.577 4.0534 0.213125 0
M  V30 3562 H 332.343 4.29187 -2.25883 0
M  V30 3563 H 328.222 4.48916 -1.04859 0
M  V30 3564 H 331.766 5.4398 -4.36728 0
M  V30 3565 H 327.663 5.63524 -3.14819 0
M  V30 3566 H 328.431 6.42842 -5.06652 0
M  V30 3567 N 331.094 0.475555 1.50254 0
M  V30 3568 C 332.027 -0.362381 2.25304 0
M  V30 3569 C 333.005 -0.992393 1.28803 0
M  V30 3570 O 334.189 -1.02746 1.58036 0
M  V30 3571 C 331.316 -1.50813 3.03271 0
M  V30 3572 C 330.362 -0.995044 4.1473 0
M  V30 3573 S 331.195 0.0938436 5.35418 0
M  V30 3574 C 332.351 -1.05567 6.16933 0
M  V30 3575 H 332.584 0.274686 2.96028 0
M  V30 3576 H 330.117 0.260495 1.52187 0
M  V30 3577 H 332.075 -2.16476 3.48781 0
M  V30 3578 H 330.736 -2.11672 2.32064 0
M  V30 3579 H 329.929 -1.85293 4.68703 0
M  V30 3580 H 329.531 -0.416052 3.71679 0
M  V30 3581 H 331.823 -1.96636 6.48337 0
M  V30 3582 H 332.766 -0.555109 7.05921 0
M  V30 3583 H 333.174 -1.31151 5.49053 0
M  V30 3584 N 332.573 -1.56217 0.208337 0
M  V30 3585 C 333.523 -2.16324 -0.720281 0
M  V30 3586 C 334.507 -1.10775 -1.16695 0
M  V30 3587 O 335.699 -1.36801 -1.12314 0
M  V30 3588 C 332.828 -2.83644 -1.93393 0
M  V30 3589 C 331.914 -3.96401 -1.50755 0
M  V30 3590 N 332.305 -4.99546 -0.792937 0
M  V30 3591 C 330.603 -4.08246 -1.79585 0
M  V30 3592 C 331.304 -5.78828 -0.577364 0
M  V30 3593 N 330.28 -5.31723 -1.1301 0
M  V30 3594 H 334.082 -2.93432 -0.165725 0
M  V30 3595 H 331.596 -1.62397 0.00906463 0
M  V30 3596 H 333.593 -3.25107 -2.60981 0
M  V30 3597 H 332.253 -2.08027 -2.49308 0
M  V30 3598 H 333.264 -5.15967 -0.447004 0
M  V30 3599 H 329.941 -3.4377 -2.36915 0
M  V30 3600 H 331.331 -6.71899 -0.00952956 0
M  V30 3601 N 334.051 0.0651679 -1.57465 0
M  V30 3602 C 335.299 0.761555 -1.87202 0
M  V30 3603 C 335.62 1.77778 -0.801243 0
M  V30 3604 O 334.89 1.95166 0.16937 0
M  V30 3605 H 333.47 0.284251 -0.690804 0
M  V30 3606 H 336.132 0.0396827 -1.9486 0
M  V30 3607 H 335.228 1.27365 -2.84929 0
M  V30 3608 N 335.529 1.53961 0.336706 0
M  V30 3609 C 336.777 1.71197 1.07405 0
M  V30 3610 C 337.098 0.481475 1.88962 0
M  V30 3611 O 336.368 -0.504585 1.8929 0
M  V30 3612 H 334.948 0.631185 0.399517 0
M  V30 3613 H 337.61 1.91232 0.376323 0
M  V30 3614 H 336.706 2.58587 1.74755 0
M  V30 3615 N 337.007 -0.598083 1.45811 0
M  V30 3616 C 338.256 -1.35295 1.49594 0
M  V30 3617 C 338.569 -1.95057 0.145679 0
M  V30 3618 O 339.775 -2.71431 0.0612099 0
M  V30 3619 C 338.231 -2.45124 2.63519 0
M  V30 3620 C 337.839 -1.91732 4.04899 0
M  V30 3621 C 339.583 -3.2205 2.76558 0
M  V30 3622 C 337.49 -2.991 5.1019 0
M  V30 3623 H 336.42 -0.508552 0.556679 0
M  V30 3624 H 339.071 -0.639977 1.71978 0
M  V30 3625 H 337.453 -3.19149 2.34435 0
M  V30 3626 H 338.627 -1.24352 4.43704 0
M  V30 3627 H 336.942 -1.27522 3.96393 0
M  V30 3628 H 339.539 -4.0215 3.52391 0
M  V30 3629 H 339.882 -3.73663 1.83526 0
M  V30 3630 H 340.415 -2.55127 3.05213 0
M  V30 3631 H 337.154 -2.52393 6.04961 0
M  V30 3632 H 336.674 -3.65017 4.75944 0
M  V30 3633 H 338.353 -3.63318 5.35359 0
M  V30 3634 N 338.485 -1.33259 -0.841409 0
M  V30 3635 C 339.71 -1.2775 -1.63385 0
M  V30 3636 C 340.135 0.149188 -1.87507 0
M  V30 3637 O 339.493 1.10498 -1.43736 0
M  V30 3638 C 339.541 -2.05571 -2.96265 0
M  V30 3639 O 338.645 -1.41257 -3.87453 0
M  V30 3640 H 337.986 -0.439627 -0.497618 0
M  V30 3641 H 340.516 -1.75782 -1.04699 0
M  V30 3642 H 340.526 -2.16241 -3.45982 0
M  V30 3643 H 339.201 -3.09309 -2.7803 0
M  V30 3644 H 337.778 -1.39217 -3.45938 0
M  V30 3645 N 339.963 1.05934 -1.16686 0
M  V30 3646 C 341.188 1.83029 -0.975455 0
M  V30 3647 C 341.613 1.82096 0.471452 0
M  V30 3648 O 340.971 1.22443 1.33706 0
M  V30 3649 C 341.019 3.27372 -1.51195 0
M  V30 3650 O 340.123 4.06054 -0.720701 0
M  V30 3651 H 339.464 0.566194 -0.346872 0
M  V30 3652 H 341.994 1.33541 -1.55009 0
M  V30 3653 H 342.004 3.78186 -1.53099 0
M  V30 3654 H 340.679 3.27366 -2.56523 0
M  V30 3655 H 339.256 3.64812 -0.772458 0
M  V30 3656 N 341.441 0.965919 1.2453 0
M  V30 3657 C 342.351 0.502154 2.29163 0
M  V30 3658 C 343.367 -0.436017 1.68448 0
M  V30 3659 O 344.543 -0.309497 1.99008 0
M  V30 3660 C 341.608 -0.201956 3.46111 0
M  V30 3661 C 340.669 0.775821 4.22232 0
M  V30 3662 C 339.902 0.105217 5.33596 0
M  V30 3663 O 340.125 -1.10683 5.59558 0
M  V30 3664 O 339.059 0.796475 5.96607 0
M  V30 3665 H 342.885 1.37194 2.70946 0
M  V30 3666 H 340.47 0.732875 1.30189 0
M  V30 3667 H 342.352 -0.597564 4.17142 0
M  V30 3668 H 341.027 -1.04673 3.06309 0
M  V30 3669 H 339.934 1.22185 3.53584 0
M  V30 3670 H 341.267 1.58896 4.65846 0
M  V30 3671 N 342.919 -1.39368 0.735821 0
M  V30 3672 C 344.165 -2.01272 0.293439 0
M  V30 3673 C 344.52 -1.57344 -1.10728 0
M  V30 3674 O 343.813 -0.792744 -1.74431 0
M  V30 3675 C 344.007 -3.5583 0.334651 0
M  V30 3676 C 343.836 -4.14764 1.73784 0
M  V30 3677 C 342.606 -4.47315 2.35026 0
M  V30 3678 C 344.804 -4.38246 2.69157 0
M  V30 3679 N 342.786 -4.91756 3.6749 0
M  V30 3680 C 344.157 -4.849 3.86357 0
M  V30 3681 C 346.212 -4.20315 2.66908 0
M  V30 3682 C 344.915 -5.15505 5.01645 0
M  V30 3683 C 346.941 -4.52033 3.8134 0
M  V30 3684 C 346.303 -4.98895 4.97276 0
M  V30 3685 H 342.402 -0.766756 0.153652 0
M  V30 3686 H 344.986 -1.69276 0.961967 0
M  V30 3687 H 343.157 -3.87212 -0.303527 0
M  V30 3688 H 344.889 -4.04503 -0.126358 0
M  V30 3689 H 341.644 -4.35143 1.86943 0
M  V30 3690 H 342.068 -5.18333 4.35499 0
M  V30 3691 H 346.71 -3.83287 1.78468 0
M  V30 3692 H 344.428 -5.51437 5.90713 0
M  V30 3693 H 348.014 -4.39781 3.80899 0
M  V30 3694 H 346.894 -5.22973 5.84353 0
M  V30 3695 N 344.397 -0.483516 -1.5 0
M  V30 3696 C 345.646 0.0689102 -2.01582 0
M  V30 3697 C 345.959 1.39655 -1.36952 0
M  V30 3698 O 347.165 2.03465 -1.79762 0
M  V30 3699 C 345.621 0.173302 -3.59483 0
M  V30 3700 C 345.229 -1.14665 -4.33077 0
M  V30 3701 C 346.973 0.677024 -4.19066 0
M  V30 3702 C 344.88 -1.00537 -5.82792 0
M  V30 3703 H 343.81 0.0295277 -0.753422 0
M  V30 3704 H 346.461 -0.620295 -1.72698 0
M  V30 3705 H 344.843 0.926569 -3.85007 0
M  V30 3706 H 346.017 -1.91184 -4.19268 0
M  V30 3707 H 344.332 -1.58244 -3.85159 0
M  V30 3708 H 346.929 0.799952 -5.28682 0
M  V30 3709 H 347.272 1.67151 -3.81269 0
M  V30 3710 H 347.805 -0.0192083 -3.97795 0
M  V30 3711 H 344.544 -1.9736 -6.25083 0
M  V30 3712 H 344.064 -0.280776 -5.99142 0
M  V30 3713 H 345.743 -0.677 -6.43448 0
M  V30 3714 N 345.875 1.56104 -0.216619 0
M  V30 3715 C 347.1 2.0301 0.424462 0
M  V30 3716 C 347.525 1.0955 1.52907 0
M  V30 3717 O 346.883 0.0827914 1.81111 0
M  V30 3718 C 346.931 3.4819 0.937883 0
M  V30 3719 O 346.035 3.57865 2.04955 0
M  V30 3720 H 345.376 0.656925 0.0966755 0
M  V30 3721 H 347.906 2.01859 -0.33381 0
M  V30 3722 H 347.916 3.88413 1.24897 0
M  V30 3723 H 346.591 4.15699 0.129387 0
M  V30 3724 H 345.168 3.29527 1.74546 0
M  V30 3725 N 347.353 -0.0568162 1.57498 0
M  V30 3726 C 348.769 -0.411933 1.54192 0
M  V30 3727 C 348.969 -1.78287 0.938942 0
M  V30 3728 O 348.025 -2.46483 0.547919 0
M  V30 3729 C 349.338 -0.339244 2.9878 0
M  V30 3730 C 350.886 -0.418348 3.10192 0
M  V30 3731 C 351.361 -0.375407 4.56459 0
M  V30 3732 N 352.852 -0.435038 4.61153 0
M  V30 3733 C 353.587 -0.424265 5.71828 0
M  V30 3734 N 353.083 -0.367418 6.91825 0
M  V30 3735 N 354.876 -0.471938 5.60115 0
M  V30 3736 H 347.027 0.840684 1.95055 0
M  V30 3737 H 349.29 0.316987 0.893433 0
M  V30 3738 H 348.996 0.601742 3.46514 0
M  V30 3739 H 348.87 -1.14371 3.59443 0
M  V30 3740 H 351.257 -1.34976 2.62422 0
M  V30 3741 H 351.338 0.414962 2.52412 0
M  V30 3742 H 350.982 0.552219 5.04889 0
M  V30 3743 H 350.912 -1.22645 5.12119 0
M  V30 3744 H 353.403 -0.482612 3.74806 0
M  V30 3745 H 353.716 -0.363535 7.71944 0
M  V30 3746 H 352.061 -0.333879 6.94198 0
M  V30 3747 H 355.252 -0.514145 4.65268 0
M  V30 3748 H 355.425 -0.460073 6.46365 0
M  V30 3749 N 348.832 -1.54138 -0.328536 0
M  V30 3750 C 349.742 -1.86192 -1.42723 0
M  V30 3751 C 350.758 -0.753382 -1.56844 0
M  V30 3752 O 351.934 -1.04718 -1.72035 0
M  V30 3753 C 348.999 -2.07824 -2.77507 0
M  V30 3754 C 348.06 -3.31641 -2.72603 0
M  V30 3755 C 347.293 -3.52232 -4.00959 0
M  V30 3756 O 347.516 -2.7636 -4.9898 0
M  V30 3757 O 346.45 -4.45699 -4.0452 0
M  V30 3758 H 350.276 -2.79608 -1.18547 0
M  V30 3759 H 347.861 -1.3998 -0.522104 0
M  V30 3760 H 349.743 -2.23411 -3.57303 0
M  V30 3761 H 348.418 -1.17596 -3.01584 0
M  V30 3762 H 347.325 -3.21444 -1.91376 0
M  V30 3763 H 348.658 -4.2191 -2.53481 0
M  V30 3764 N 350.31 0.590341 -1.46126 0
M  V30 3765 C 351.24 1.71032 -1.58966 0
M  V30 3766 C 352.221 1.64302 -0.440335 0
M  V30 3767 O 353.406 1.82436 -0.665634 0
M  V30 3768 C 350.536 3.09665 -1.57241 0
M  V30 3769 C 349.49 3.31221 -2.71066 0
M  V30 3770 C 348.816 4.70303 -2.54399 0
M  V30 3771 C 350.116 3.19796 -4.1295 0
M  V30 3772 H 351.81 1.60543 -2.52718 0
M  V30 3773 H 349.356 0.770933 -1.21625 0
M  V30 3774 H 351.309 3.87831 -1.64819 0
M  V30 3775 H 350.033 3.21036 -0.600289 0
M  V30 3776 H 348.692 2.55452 -2.62944 0
M  V30 3777 H 348.34 4.78429 -1.55288 0
M  V30 3778 H 348.04 4.85679 -3.30741 0
M  V30 3779 H 349.564 5.50647 -2.63857 0
M  V30 3780 H 350.978 3.87815 -4.22223 0
M  V30 3781 H 349.375 3.46696 -4.89818 0
M  V30 3782 H 350.445 2.16983 -4.33643 0
M  V30 3783 N 351.788 1.33704 0.83433 0
M  V30 3784 C 353.016 1.28467 1.62185 0
M  V30 3785 C 353.431 -0.143526 1.88254 0
M  V30 3786 O 352.788 -1.08709 1.4659 0
M  V30 3787 C 352.839 2.06174 2.96942 0
M  V30 3788 O 352.56 3.43422 2.72016 0
M  V30 3789 C 354.061 2.08201 3.91366 0
M  V30 3790 H 351.281 0.4424 0.504503 0
M  V30 3791 H 353.825 1.76145 1.03891 0
M  V30 3792 H 351.98 1.62167 3.51825 0
M  V30 3793 H 352.394 3.83453 3.57861 0
M  V30 3794 H 353.868 2.67017 4.83121 0
M  V30 3795 H 354.345 1.07343 4.2588 0
M  V30 3796 H 354.951 2.52246 3.42421 0
M  V30 3797 N 353.266 -1.05314 1.17247 0
M  V30 3798 C 354.196 -2.1498 0.911362 0
M  V30 3799 C 355.177 -1.69471 -0.146169 0
M  V30 3800 O 356.362 -1.942 0.003812 0
M  V30 3801 C 353.492 -3.4472 0.422528 0
M  V30 3802 C 352.446 -4.03789 1.4191 0
M  V30 3803 C 351.772 -5.28858 0.788274 0
M  V30 3804 C 353.072 -4.41418 2.7919 0
M  V30 3805 H 354.766 -2.3708 1.82848 0
M  V30 3806 H 352.312 -1.13938 0.880569 0
M  V30 3807 H 354.265 -4.20787 0.227289 0
M  V30 3808 H 352.989 -3.22269 -0.530123 0
M  V30 3809 H 351.648 -3.2979 1.60106 0
M  V30 3810 H 351.296 -5.02709 -0.171173 0
M  V30 3811 H 350.996 -5.69338 1.45353 0
M  V30 3812 H 352.52 -6.07612 0.603282 0
M  V30 3813 H 353.934 -5.08524 2.64719 0
M  V30 3814 H 352.331 -4.92913 3.42282 0
M  V30 3815 H 353.401 -3.51819 3.33693 0
M  V30 3816 N 354.744 -0.972509 -1.24016 0
M  V30 3817 C 356.021 -0.553733 -1.87598 0
M  V30 3818 C 356.401 0.969158 -1.87538 0
M  V30 3819 O 355.749 1.84255 -1.35139 0
M  V30 3820 C 355.959 -1.15076 -3.29482 0
M  V30 3821 C 357.307 -1.23862 -4.06132 0
M  V30 3822 O 358.331 -1.10363 -3.38672 0
M  V30 3823 O 357.19 -1.45252 -5.26844 0
M  V30 3824 H 354.284 -0.185331 -0.805966 0
M  V30 3825 H 356.83 -1.06709 -1.31952 0
M  V30 3826 H 355.602 -2.19333 -3.2405 0
M  V30 3827 H 355.225 -0.621746 -3.92709 0
M  V30 3828 N 356.222 1.38976 -0.743202 0
M  V30 3829 C 357.169 2.30544 -0.10861 0
M  V30 3830 C 358.139 1.49642 0.720869 0
M  V30 3831 O 359.324 1.78304 0.679142 0
M  V30 3832 C 356.464 3.36018 0.786496 0
M  V30 3833 C 355.577 4.31963 -0.0564849 0
M  V30 3834 C 354.712 5.24506 0.840657 0
M  V30 3835 C 353.751 6.121 -0.00658363 0
M  V30 3836 N 352.888 6.96973 0.846943 0
M  V30 3837 H 357.728 2.8424 -0.895088 0
M  V30 3838 H 355.265 1.3995 -0.453048 0
M  V30 3839 H 357.223 3.95768 1.31999 0
M  V30 3840 H 355.853 2.83758 1.53887 0
M  V30 3841 H 354.905 3.73763 -0.707492 0
M  V30 3842 H 356.217 4.93703 -0.711229 0
M  V30 3843 H 355.371 5.89322 1.4417 0
M  V30 3844 H 354.11 4.63107 1.52916 0
M  V30 3845 H 353.115 5.46289 -0.620366 0
M  V30 3846 H 354.34 6.75565 -0.691992 0
M  V30 3847 H 352.286 6.38133 1.52059 0
M  V30 3848 H 352.203 7.5559 0.248864 0
M  V30 3849 H 353.471 7.6621 1.43328 0
M  V30 3850 N 357.7 0.491464 1.49741 0
M  V30 3851 C 358.663 -0.280906 2.27472 0
M  V30 3852 C 359.663 -0.902454 1.33088 0
M  V30 3853 O 360.853 -0.768465 1.56334 0
M  V30 3854 C 357.985 -1.40209 3.10732 0
M  V30 3855 H 359.178 0.401056 2.97206 0
M  V30 3856 H 356.731 0.246131 1.5435 0
M  V30 3857 H 357.466 -2.11849 2.45541 0
M  V30 3858 H 357.251 -0.961969 3.80117 0
M  V30 3859 H 358.741 -1.9464 3.69466 0
M  V30 3860 N 359.178 -1.55987 0.224894 0
M  V30 3861 C 360.126 -2.21808 -0.700283 0
M  V30 3862 C 361.12 -1.19854 -1.19714 0
M  V30 3863 O 362.326 -1.37925 -1.15658 0
M  V30 3864 H 358.701 -0.711226 -0.244258 0
M  V30 3865 H 360.672 -2.98152 -0.121749 0
M  V30 3866 C 359.421 -2.91444 -1.8962 0
M  V30 3867 H 358.744 -3.69655 -1.52299 0
M  V30 3868 H 360.184 -3.40894 -2.52125 0
M  V30 3869 C 358.643 -1.94098 -2.75368 0
M  V30 3870 O 359.173 -1.46004 -3.74227 0
M  V30 3871 N 357.379 -1.61675 -2.41474 0
M  V30 3872 H 356.926 -2.00979 -1.61137 0
M  V30 3873 H 356.884 -0.968036 -2.99126 0
M  V30 3874 N 360.656 0.0484629 -1.57525 0
M  V30 3875 C 361.619 1.03956 -2.04269 0
M  V30 3876 C 362.619 1.30211 -0.943496 0
M  V30 3877 O 363.809 1.25539 -1.20771 0
M  V30 3878 C 360.941 2.37742 -2.44319 0
M  V30 3879 H 362.134 0.636182 -2.93075 0
M  V30 3880 H 359.687 0.294811 -1.53494 0
M  V30 3881 H 360.422 2.82866 -1.5861 0
M  V30 3882 H 360.207 2.20021 -3.24551 0
M  V30 3883 H 361.697 3.08936 -2.80978 0
M  V30 3884 N 362.134 1.5431 0.320358 0
M  V30 3885 C 363.064 1.86912 1.3995 0
M  V30 3886 C 364.045 0.726211 1.53819 0
M  V30 3887 O 365.23 0.980233 1.67646 0
M  V30 3888 C 362.36 2.09932 2.7667 0
M  V30 3889 C 361.314 3.25776 2.77586 0
M  V30 3890 C 360.64 3.34173 4.17412 0
M  V30 3891 C 361.94 4.6335 2.41048 0
M  V30 3892 H 363.634 2.77292 1.12914 0
M  V30 3893 H 361.18 1.33421 0.541738 0
M  V30 3894 H 363.133 2.31324 3.52232 0
M  V30 3895 H 361.857 1.16304 3.0519 0
M  V30 3896 H 360.516 3.04276 2.04479 0
M  V30 3897 H 360.164 2.38098 4.43078 0
M  V30 3898 H 359.864 4.12033 4.18931 0
M  V30 3899 H 361.388 3.57803 4.94782 0
M  V30 3900 H 362.802 4.84602 3.06324 0
M  V30 3901 H 361.199 5.43782 2.53813 0
M  V30 3902 H 362.269 4.65381 1.36193 0
M  V30 3903 N 363.613 -0.582584 1.46437 0
M  V30 3904 C 364.843 -1.36484 1.55099 0
M  V30 3905 C 365.251 -1.88233 0.191056 0
M  V30 3906 O 364.594 -1.6429 -0.821858 0
M  V30 3907 C 364.656 -2.588 2.49525 0
M  V30 3908 C 364.32 -2.28517 3.95764 0
M  V30 3909 C 365.317 -1.87346 4.84972 0
M  V30 3910 C 363.002 -2.40658 4.40896 0
M  V30 3911 C 364.996 -1.5871 6.17325 0
M  V30 3912 C 362.683 -2.11635 5.73284 0
M  V30 3913 C 363.681 -1.70725 6.61318 0
M  V30 3914 O 363.369 -1.42057 7.91249 0
M  V30 3915 H 363.101 -0.423297 0.527063 0
M  V30 3916 H 365.655 -0.715188 1.92547 0
M  V30 3917 H 363.885 -3.26571 2.07095 0
M  V30 3918 H 365.574 -3.20868 2.48593 0
M  V30 3919 H 366.34 -1.77481 4.5136 0
M  V30 3920 H 362.219 -2.71463 3.72598 0
M  V30 3921 H 365.763 -1.26704 6.85997 0
M  V30 3922 H 361.66 -2.21124 6.06444 0
M  V30 3923 H 362.428 -1.55901 8.03515 0
M  V30 3924 N 365.091 -1.34144 -0.827227 0
M  V30 3925 C 366.507 -1.13732 -1.11969 0
M  V30 3926 C 366.707 0.0640463 -2.01398 0
M  V30 3927 O 365.763 0.740856 -2.41387 0
M  V30 3928 C 367.076 -2.43047 -1.77055 0
M  V30 3929 C 368.624 -2.49063 -1.89569 0
M  V30 3930 C 369.099 -3.78369 -2.58072 0
M  V30 3931 N 370.59 -3.79505 -2.65575 0
M  V30 3932 C 371.325 -4.76274 -3.19297 0
M  V30 3933 N 370.821 -5.83424 -3.73616 0
M  V30 3934 N 372.614 -4.63735 -3.17658 0
M  V30 3935 H 364.765 -2.11126 -0.232296 0
M  V30 3936 H 367.028 -0.933424 -0.165602 0
M  V30 3937 H 366.734 -3.31025 -1.18807 0
M  V30 3938 H 366.608 -2.56066 -2.76966 0
M  V30 3939 H 368.995 -1.61527 -2.46968 0
M  V30 3940 H 369.076 -2.39975 -0.885745 0
M  V30 3941 H 368.72 -4.66293 -2.01329 0
M  V30 3942 H 368.65 -3.84737 -3.59562 0
M  V30 3943 H 371.141 -3.02074 -2.27068 0
M  V30 3944 H 371.454 -6.53282 -4.12846 0
M  V30 3945 H 369.799 -5.87143 -3.71871 0
M  V30 3946 H 372.99 -3.79177 -2.74486 0
M  V30 3947 H 373.163 -5.39318 -3.59221 0
M  V30 3948 N 366.569 1.04691 -1.17803 0
M  V30 3949 C 367.532 2.10724 -0.901545 0
M  V30 3950 C 368.532 1.6042 0.110437 0
M  V30 3951 O 369.722 1.7377 -0.122303 0
M  V30 3952 C 366.854 3.39084 -0.351409 0
M  V30 3953 H 368.047 2.36686 -1.84174 0
M  V30 3954 H 365.6 1.21015 -0.98919 0
M  V30 3955 H 366.335 3.18782 0.59569 0
M  V30 3956 H 366.12 3.76909 -1.08083 0
M  V30 3957 H 367.61 4.17227 -0.176451 0
M  V30 3958 N 368.047 0.979072 1.23499 0
M  V30 3959 C 368.995 0.510604 2.26926 0
M  V30 3960 C 369.989 -0.431691 1.63807 0
M  V30 3961 O 371.195 -0.30573 1.77385 0
M  V30 3962 H 367.57 0.146688 0.737554 0
M  V30 3963 H 369.541 1.39466 2.63803 0
M  V30 3964 C 368.29 -0.172658 3.47271 0
M  V30 3965 H 367.613 0.543331 3.96091 0
M  V30 3966 H 369.053 -0.464101 4.21452 0
M  V30 3967 C 367.512 -1.40345 3.06276 0
M  V30 3968 O 368.042 -2.49978 3.14442 0
M  V30 3969 N 366.248 -1.27362 2.61203 0
M  V30 3970 H 365.795 -0.381584 2.54758 0
M  V30 3971 H 365.753 -2.09822 2.34141 0
M  V30 3972 N 369.525 -1.3858 0.750561 0
M  V30 3973 C 370.771 -2.00481 0.305825 0
M  V30 3974 C 371.104 -1.5944 -1.10872 0
M  V30 3975 O 370.379 -0.83052 -1.75877 0
M  V30 3976 C 370.662 -3.5758 0.425287 0
M  V30 3977 C 370.515 -4.08594 1.88072 0
M  V30 3978 C 371.834 -4.39719 -0.183122 0
M  V30 3979 H 368.953 -0.728348 0.112598 0
M  V30 3980 H 371.595 -1.64566 0.949638 0
M  V30 3981 H 369.745 -3.88306 -0.122828 0
M  V30 3982 H 371.417 -3.88523 2.48691 0
M  V30 3983 H 369.66 -3.61574 2.39681 0
M  V30 3984 H 370.331 -5.177 1.91548 0
M  V30 3985 H 372.807 -4.15128 0.284303 0
M  V30 3986 H 371.683 -5.48856 -0.0692757 0
M  V30 3987 H 371.944 -4.23434 -1.27106 0
M  V30 3988 N 371.003 -0.499398 -1.49478 0
M  V30 3989 C 372.28 0.108629 -1.95298 0
M  V30 3990 C 372.66 1.54282 -1.44084 0
M  V30 3991 O 372.008 2.18944 -0.653908 0
M  V30 3992 C 372.218 0.0229111 -3.48992 0
M  V30 3993 C 373.566 0.197643 -4.2414 0
M  V30 3994 O 374.59 0.0981735 -3.56065 0
M  V30 3995 O 373.449 0.401669 -5.45022 0
M  V30 3996 H 370.543 0.096181 -0.821388 0
M  V30 3997 H 373.089 -0.561822 -1.6013 0
M  V30 3998 H 371.861 -0.977321 -3.78899 0
M  V30 3999 H 371.484 0.733579 -3.90774 0
M  V30 4000 N 372.481 1.55866 -0.233164 0
M  V30 4001 C 373.444 2.1953 0.658715 0
M  V30 4002 C 374.444 1.16053 1.11303 0
M  V30 4003 O 375.634 1.41218 1.01996 0
M  V30 4004 C 372.766 2.82791 1.90373 0
M  V30 4005 H 373.959 2.99721 0.10347 0
M  V30 4006 H 371.512 1.56291 0.0164245 0
M  V30 4007 H 372.247 2.06501 2.50056 0
M  V30 4008 H 372.032 3.58578 1.58632 0
M  V30 4009 H 373.522 3.31556 2.53891 0
M  V30 4010 N 373.959 -0.0401083 1.57549 0
M  V30 4011 C 375.184 -0.748931 1.93406 0
M  V30 4012 C 375.609 -1.68686 0.832274 0
M  V30 4013 O 374.967 -1.80047 -0.212818 0
M  V30 4014 C 375.015 -1.4916 3.28304 0
M  V30 4015 O 374.119 -2.6042 3.19774 0
M  V30 4016 H 373.46 -0.202212 0.63246 0
M  V30 4017 H 375.99 0.00112086 2.046 0
M  V30 4018 H 376 -1.86395 3.62934 0
M  V30 4019 H 374.675 -0.80364 4.08062 0
M  V30 4020 H 373.252 -2.25808 2.96758 0
M  V30 4021 N 375.437 -1.54477 -0.31217 0
M  V30 4022 C 376.384 -1.84655 -1.38461 0
M  V30 4023 C 377.354 -0.694536 -1.50882 0
M  V30 4024 O 378.539 -0.942081 -1.6592 0
M  V30 4025 C 375.679 -2.0896 -2.74645 0
M  V30 4026 C 374.792 -3.36618 -2.70763 0
M  V30 4027 C 373.927 -3.50824 -3.98868 0
M  V30 4028 C 372.966 -4.72315 -3.89339 0
M  V30 4029 N 372.103 -4.83387 -5.09197 0
M  V30 4030 H 376.943 -2.76142 -1.12026 0
M  V30 4031 H 374.48 -1.36748 -0.542065 0
M  V30 4032 H 376.438 -2.21045 -3.53829 0
M  V30 4033 H 375.068 -1.20752 -2.99364 0
M  V30 4034 H 374.12 -3.33211 -1.83506 0
M  V30 4035 H 375.432 -4.25917 -2.59608 0
M  V30 4036 H 374.586 -3.62513 -4.86486 0
M  V30 4037 H 373.325 -2.59638 -4.12843 0
M  V30 4038 H 372.33 -4.6067 -3.00105 0
M  V30 4039 H 373.555 -5.64897 -3.76919 0
M  V30 4040 H 371.501 -3.9512 -5.23657 0
M  V30 4041 H 371.418 -5.66669 -5.00422 0
M  V30 4042 H 372.686 -4.9942 -5.98498 0
M  V30 4043 N 376.915 0.57481 -1.46744 0
M  V30 4044 C 377.862 1.68329 -1.57905 0
M  V30 4045 C 378.832 1.60625 -0.422927 0
M  V30 4046 O 380.017 1.79721 -0.640711 0
M  V30 4047 C 377.157 3.06665 -1.58274 0
M  V30 4048 C 376.27 3.24935 -2.84678 0
M  V30 4049 C 375.405 4.53566 -2.76499 0
M  V30 4050 C 374.444 4.65207 -3.97806 0
M  V30 4051 N 373.581 5.85172 -3.87967 0
M  V30 4052 H 378.421 1.58127 -2.52587 0
M  V30 4053 H 375.958 0.770552 -1.25303 0
M  V30 4054 H 377.916 3.86745 -1.56473 0
M  V30 4055 H 376.546 3.15745 -0.671194 0
M  V30 4056 H 375.598 2.38405 -2.96424 0
M  V30 4057 H 376.91 3.29403 -3.7456 0
M  V30 4058 H 376.064 5.41885 -2.72848 0
M  V30 4059 H 374.803 4.51548 -1.8427 0
M  V30 4060 H 373.808 3.75304 -4.0178 0
M  V30 4061 H 375.033 4.68997 -4.9114 0
M  V30 4062 H 372.979 5.84137 -2.98529 0
M  V30 4063 H 372.896 5.90943 -4.71511 0
M  V30 4064 H 374.164 6.759 -3.88303 0
M  V30 4065 N 378.394 1.34581 0.820102 0
M  V30 4066 C 379.619 1.30333 1.61332 0
M  V30 4067 C 380.044 -0.119339 1.87721 0
M  V30 4068 O 379.402 -1.08197 1.45475 0
M  V30 4069 C 379.45 2.10258 2.92957 0
M  V30 4070 O 378.554 1.47404 3.85157 0
M  V30 4071 H 377.895 0.447488 0.490561 0
M  V30 4072 H 380.425 1.77425 1.01889 0
M  V30 4073 H 380.435 2.21718 3.42498 0
M  V30 4074 H 379.11 3.13693 2.73074 0
M  V30 4075 H 377.687 1.44703 3.43679 0
M  V30 4076 N 379.872 -1.04064 1.18357 0
M  V30 4077 C 380.802 -2.14001 0.934113 0
M  V30 4078 C 381.783 -1.69616 -0.128186 0
M  V30 4079 O 382.968 -1.94185 0.0244093 0
M  V30 4080 C 380.098 -3.44253 0.459066 0
M  V30 4081 C 379.052 -4.02261 1.46185 0
M  V30 4082 C 378.378 -5.27992 0.844322 0
M  V30 4083 C 379.678 -4.38432 2.83856 0
M  V30 4084 H 381.372 -2.35127 1.85352 0
M  V30 4085 H 378.918 -1.12998 0.892604 0
M  V30 4086 H 380.871 -4.20522 0.271907 0
M  V30 4087 H 379.595 -3.22813 -0.495912 0
M  V30 4088 H 378.254 -3.28074 1.63595 0
M  V30 4089 H 377.902 -5.02862 -0.117845 0
M  V30 4090 H 377.602 -5.67765 1.51384 0
M  V30 4091 H 379.126 -6.06938 0.667693 0
M  V30 4092 H 380.54 -5.05688 2.70098 0
M  V30 4093 H 378.937 -4.89254 3.47491 0
M  V30 4094 H 380.007 -3.4826 3.37406 0
M  V30 4095 N 381.35 -0.985608 -1.22978 0
M  V30 4096 C 382.297 -0.529825 -2.24636 0
M  V30 4097 C 383.267 0.434028 -1.60329 0
M  V30 4098 O 384.452 0.340414 -1.87739 0
M  V30 4099 C 381.592 0.156533 -3.44745 0
M  V30 4100 C 380.705 -0.848197 -4.23591 0
M  V30 4101 C 379.84 -0.136109 -5.31026 0
M  V30 4102 C 378.879 -1.1297 -6.01585 0
M  V30 4103 N 378.016 -0.446415 -7.00679 0
M  V30 4104 H 382.856 -1.40148 -2.62988 0
M  V30 4105 H 380.393 -0.702168 -1.29259 0
M  V30 4106 H 382.351 0.571324 -4.1327 0
M  V30 4107 H 380.981 0.992025 -3.07179 0
M  V30 4108 H 380.033 -1.38135 -3.54433 0
M  V30 4109 H 381.345 -1.60512 -4.72268 0
M  V30 4110 H 380.499 0.335784 -6.0577 0
M  V30 4111 H 379.238 0.653373 -4.83304 0
M  V30 4112 H 378.243 -1.6123 -5.25628 0
M  V30 4113 H 379.468 -1.91993 -6.51395 0
M  V30 4114 H 377.414 0.323763 -6.55201 0
M  V30 4115 H 377.331 -1.1419 -7.47326 0
M  V30 4116 H 378.599 0.00291697 -7.795 0
M  V30 4117 N 382.828 1.3818 -0.7579 0
M  V30 4118 C 383.791 2.28764 -0.141286 0
M  V30 4119 C 384.791 1.47388 0.642907 0
M  V30 4120 O 385.981 1.67781 0.468536 0
M  V30 4121 C 383.113 3.31184 0.808069 0
M  V30 4122 H 384.306 2.848 -0.939633 0
M  V30 4123 H 381.859 1.47212 -0.525191 0
M  V30 4124 H 382.594 2.80247 1.63193 0
M  V30 4125 H 382.379 3.91314 0.248104 0
M  V30 4126 H 383.869 3.98909 1.23536 0
M  V30 4127 N 384.306 0.507319 1.49211 0
M  V30 4128 C 385.583 -0.0982702 1.95353 0
M  V30 4129 C 385.963 -1.53516 1.449 0
M  V30 4130 O 385.311 -2.18594 0.66551 0
M  V30 4131 C 385.521 -0.00440283 3.49 0
M  V30 4132 C 386.869 -0.175147 4.24239 0
M  V30 4133 O 387.893 -0.0792891 3.56112 0
M  V30 4134 O 386.752 -0.37276 5.45227 0
M  V30 4135 H 383.846 -0.0918236 0.821887 0
M  V30 4136 H 386.392 0.570307 1.5983 0
M  V30 4137 H 385.164 0.997402 3.78375 0
M  V30 4138 H 384.787 -0.712845 3.91158 0
M  V30 4139 N 385.784 -1.5574 0.241426 0
M  V30 4140 C 387.061 -1.90704 -0.434881 0
M  V30 4141 C 387.441 -1.16145 -1.76277 0
M  V30 4142 O 386.789 -0.277152 -2.26813 0
M  V30 4143 C 386.999 -3.43657 -0.608343 0
M  V30 4144 C 388.347 -4.14806 -0.906725 0
M  V30 4145 O 389.371 -3.49366 -0.694408 0
M  V30 4146 O 388.23 -5.30548 -1.31075 0
M  V30 4147 H 385.324 -0.793592 -0.23268 0
M  V30 4148 H 387.87 -1.67288 0.285086 0
M  V30 4149 H 386.642 -3.89927 0.327505 0
M  V30 4150 H 386.265 -3.72918 -1.37906 0
M  V30 4151 N 387.262 0.0317525 -1.57568 0
M  V30 4152 C 388.192 1.03274 -2.0942 0
M  V30 4153 C 389.173 1.3788 -0.996143 0
M  V30 4154 O 390.358 1.46811 -1.27122 0
M  V30 4155 C 387.488 2.33448 -2.57137 0
M  V30 4156 C 386.442 2.13091 -3.71182 0
M  V30 4157 C 385.768 3.49001 -4.05095 0
M  V30 4158 C 387.068 1.51928 -4.99715 0
M  V30 4159 H 388.762 0.60112 -2.93303 0
M  V30 4160 H 386.308 0.287705 -1.41097 0
M  V30 4161 H 388.261 3.03802 -2.92032 0
M  V30 4162 H 386.985 2.78665 -1.70333 0
M  V30 4163 H 385.644 1.45171 -3.36632 0
M  V30 4164 H 385.292 3.91862 -3.15362 0
M  V30 4165 H 384.992 3.36207 -4.81911 0
M  V30 4166 H 386.516 4.20721 -4.42522 0
M  V30 4167 H 387.93 2.12196 -5.32584 0
M  V30 4168 H 386.327 1.49716 -5.81124 0
M  V30 4169 H 387.397 0.484811 -4.8247 0
M  V30 4170 N 388.74 1.54641 0.303973 0
M  V30 4171 C 389.67 1.88386 1.3796 0
M  V30 4172 C 390.651 0.742485 1.5304 0
M  V30 4173 O 391.836 0.997959 1.66597 0
M  V30 4174 C 388.966 2.12854 2.74427 0
M  V30 4175 C 387.92 3.28702 2.74115 0
M  V30 4176 C 387.246 3.38582 4.13844 0
M  V30 4177 C 388.546 4.65881 2.3612 0
M  V30 4178 H 390.24 2.78474 1.09966 0
M  V30 4179 H 387.786 1.33988 0.527556 0
M  V30 4180 H 389.739 2.35047 3.49758 0
M  V30 4181 H 388.463 1.19535 3.03939 0
M  V30 4182 H 387.122 3.06428 2.0124 0
M  V30 4183 H 386.77 2.42784 4.40528 0
M  V30 4184 H 386.47 4.16453 4.14537 0
M  V30 4185 H 387.994 3.63031 4.90959 0
M  V30 4186 H 389.408 4.87823 3.01167 0
M  V30 4187 H 387.805 5.46444 2.48031 0
M  V30 4188 H 388.875 4.66799 1.3125 0
M  V30 4189 N 390.218 -0.567019 1.47046 0
M  V30 4190 C 391.166 -1.69593 1.59188 0
M  V30 4191 C 392.16 -1.63046 0.459609 0
M  V30 4192 O 393.366 -1.6835 0.637058 0
M  V30 4193 H 389.741 -0.560993 0.500791 0
M  V30 4194 H 391.712 -1.56488 2.54075 0
M  V30 4195 C 390.461 -3.07964 1.61411 0
M  V30 4196 H 389.784 -3.13679 2.47881 0
M  V30 4197 H 391.224 -3.86671 1.73958 0
M  V30 4198 C 389.683 -3.35123 0.34559 0
M  V30 4199 O 390.213 -3.97812 -0.557521 0
M  V30 4200 N 388.419 -2.89699 0.22864 0
M  V30 4201 H 387.966 -2.38863 0.964479 0
M  V30 4202 H 387.924 -3.08242 -0.619192 0
M  V30 4203 N 391.696 -1.35014 -0.812953 0
M  V30 4204 C 392.943 -1.27931 -1.56971 0
M  V30 4205 C 393.271 0.148034 -1.93936 0
M  V30 4206 O 392.526 1.11175 -1.61054 0
M  V30 4207 C 392.825 -2.12524 -2.87347 0
M  V30 4208 C 392.491 -3.61401 -2.6963 0
M  V30 4209 C 391.153 -4.01983 -2.64506 0
M  V30 4210 C 393.505 -4.55894 -2.52607 0
M  V30 4211 C 390.833 -5.35235 -2.40293 0
M  V30 4212 C 393.185 -5.89336 -2.29925 0
M  V30 4213 C 391.849 -6.2907 -2.23219 0
M  V30 4214 H 391.119 -0.468131 -0.574399 0
M  V30 4215 H 393.766 -1.66851 -0.939836 0
M  V30 4216 H 392.071 -1.66463 -3.54679 0
M  V30 4217 H 393.768 -2.04383 -3.45005 0
M  V30 4218 H 390.358 -3.29193 -2.74463 0
M  V30 4219 H 394.542 -4.25431 -2.55583 0
M  V30 4220 H 389.798 -5.65028 -2.33566 0
M  V30 4221 H 393.972 -6.62139 -2.15743 0
M  V30 4222 H 391.599 -7.32256 -2.04219 0
M  V30 4223 N 393.175 1.03435 -1.18907 0
M  V30 4224 C 394.105 2.13503 -0.945448 0
M  V30 4225 C 395.086 1.69682 0.119189 0
M  V30 4226 O 396.271 1.94169 -0.034707 0
M  V30 4227 C 393.401 3.44004 -0.477316 0
M  V30 4228 C 392.355 4.0148 -1.48316 0
M  V30 4229 C 391.681 5.27537 -0.872311 0
M  V30 4230 C 392.981 4.36921 -2.86177 0
M  V30 4231 H 394.675 2.34141 -1.86597 0
M  V30 4232 H 392.221 1.12523 -0.898584 0
M  V30 4233 H 394.174 4.20372 -0.294204 0
M  V30 4234 H 392.898 3.23072 0.478786 0
M  V30 4235 H 391.557 3.27201 -1.65332 0
M  V30 4236 H 391.205 5.02917 0.0911752 0
M  V30 4237 H 390.905 5.66954 -1.54393 0
M  V30 4238 H 392.429 6.06576 -0.699871 0
M  V30 4239 H 393.843 5.04248 -2.72776 0
M  V30 4240 H 392.24 4.87405 -3.50081 0
M  V30 4241 H 393.31 3.46466 -3.39248 0
M  V30 4242 N 394.653 0.992116 1.22453 0
M  V30 4243 C 395.9 0.667534 1.91181 0
M  V30 4244 C 396.228 -0.800317 1.77271 0
M  V30 4245 O 395.483 -1.59421 1.13505 0
M  V30 4246 C 395.782 1.01832 3.42586 0
M  V30 4247 C 395.448 2.47831 3.76684 0
M  V30 4248 C 394.11 2.87729 3.85701 0
M  V30 4249 C 396.462 3.42466 3.92895 0
M  V30 4250 C 393.79 4.21252 4.08367 0
M  V30 4251 C 396.142 4.75648 4.17064 0
M  V30 4252 C 394.806 5.15288 4.24305 0
M  V30 4253 H 394.076 0.244268 0.699581 0
M  V30 4254 H 396.723 1.24816 1.45235 0
M  V30 4255 H 395.028 0.355769 3.90181 0
M  V30 4256 H 396.725 0.745228 3.94014 0
M  V30 4257 H 393.315 2.15905 3.70247 0
M  V30 4258 H 397.499 3.12814 3.85307 0
M  V30 4259 H 392.755 4.51554 4.122 0
M  V30 4260 H 396.929 5.48924 4.2855 0
M  V30 4261 H 394.556 6.18769 4.41621 0
M  V30 4262 N 396.131 -1.37776 0.765217 0
M  V30 4263 C 397.378 -1.99849 0.326588 0
M  V30 4264 C 397.706 -1.60746 -1.09504 0
M  V30 4265 O 396.961 -0.84202 -1.76659 0
M  V30 4266 C 397.26 -3.5504 0.410053 0
M  V30 4267 C 396.926 -4.13891 1.78899 0
M  V30 4268 C 395.588 -4.29678 2.16635 0
M  V30 4269 C 397.94 -4.46236 2.69301 0
M  V30 4270 C 395.268 -4.7511 3.44221 0
M  V30 4271 C 397.62 -4.93089 3.9629 0
M  V30 4272 C 396.284 -5.07082 4.34078 0
M  V30 4273 H 395.554 -0.7313 0.119507 0
M  V30 4274 H 398.201 -1.64645 0.977968 0
M  V30 4275 H 396.506 -3.90451 -0.324878 0
M  V30 4276 H 398.203 -4.00966 0.0520699 0
M  V30 4277 H 394.793 -4.02026 1.48569 0
M  V30 4278 H 398.977 -4.3363 2.41409 0
M  V30 4279 H 394.233 -4.84129 3.73402 0
M  V30 4280 H 398.407 -5.17084 4.66472 0
M  V30 4281 H 396.034 -5.42046 5.33001 0
M  V30 4282 N 397.609 -0.515225 -1.4894 0
M  V30 4283 C 398.857 0.0241671 -2.02086 0
M  V30 4284 C 399.178 1.3616 -1.3959 0
M  V30 4285 O 398.448 1.87841 -0.556121 0
M  V30 4286 H 397.028 0.0119203 -0.746905 0
M  V30 4287 H 399.69 -0.675702 -1.82812 0
M  V30 4288 H 398.786 0.143385 -3.1177 0
M  V30 4289 N 399.087 1.5561 -0.249682 0
M  V30 4290 C 400.035 2.22894 0.664906 0
M  V30 4291 C 401.029 1.21743 1.17792 0
M  V30 4292 O 402.235 1.39748 1.13449 0
M  V30 4293 H 398.61 0.715022 0.232912 0
M  V30 4294 H 400.581 2.98307 0.0742998 0
M  V30 4295 C 399.33 2.94424 1.84959 0
M  V30 4296 H 398.653 3.72031 1.46399 0
M  V30 4297 H 400.093 3.44862 2.4667 0
M  V30 4298 C 398.552 1.98454 2.72245 0
M  V30 4299 O 399.082 1.51939 3.71857 0
M  V30 4300 N 397.288 1.65496 2.38871 0
M  V30 4301 H 396.835 2.03517 1.57919 0
M  V30 4302 H 396.793 1.0155 2.97548 0
M  V30 4303 N 400.565 -0.0233959 1.57583 0
M  V30 4304 C 401.813 -0.711654 1.89156 0
M  V30 4305 C 402.134 -1.75591 0.848096 0
M  V30 4306 O 401.404 -1.95547 -0.117566 0
M  V30 4307 H 399.984 -0.265835 0.698098 0
M  V30 4308 H 402.646 0.0119948 1.94896 0
M  V30 4309 H 401.742 -1.19766 2.88206 0
M  V30 4310 N 402.043 -1.548 -0.295768 0
M  V30 4311 C 403.454 -1.65274 -0.868411 0
M  V30 4312 C 403.805 -0.56481 -1.87894 0
M  V30 4313 O 402.93 0.29767 -2.14343 0
M  V30 4314 C 403.525 -2.99603 -1.58188 0
M  V30 4315 C 402.084 -3.12181 -2.10286 0
M  V30 4316 C 401.231 -2.6098 -0.93727 0
M  V30 4317 H 404.182 -1.58534 -0.0726422 0
M  V30 4318 H 404.203 -2.91319 -2.44772 0
M  V30 4319 H 403.715 -3.78764 -0.846151 0
M  V30 4320 H 401.816 -2.3775 -2.8689 0
M  V30 4321 H 401.929 -4.18415 -2.33379 0
M  V30 4322 H 400.293 -2.17564 -1.32431 0
M  V30 4323 H 401.076 -3.42623 -0.215414 0
M  V30 4324 N 403.521 0.559213 -1.47345 0
M  V30 4325 C 404.749 1.34194 -1.57479 0
M  V30 4326 C 405.164 1.87463 -0.224261 0
M  V30 4327 O 404.521 1.64888 0.782185 0
M  V30 4328 C 404.572 2.51324 -2.59843 0
M  V30 4329 O 404.293 2.00256 -3.89653 0
M  V30 4330 C 405.794 3.43563 -2.80142 0
M  V30 4331 H 403.014 0.409136 -0.531835 0
M  V30 4332 H 405.558 0.677609 -1.92947 0
M  V30 4333 H 403.713 3.13699 -2.27314 0
M  V30 4334 H 404.127 2.76708 -4.4557 0
M  V30 4335 H 405.601 4.2217 -3.55635 0
M  V30 4336 H 406.078 3.9698 -1.87892 0
M  V30 4337 H 406.684 2.87005 -3.1386 0
M  V30 4338 N 404.999 1.35443 0.805782 0
M  V30 4339 C 406.245 1.2996 1.56467 0
M  V30 4340 C 406.6 -0.124742 1.91995 0
M  V30 4341 O 405.893 -1.07533 1.58579 0
M  V30 4342 C 406.087 2.14045 2.86216 0
M  V30 4343 C 405.916 3.64512 2.63365 0
M  V30 4344 C 404.686 4.33744 2.59219 0
M  V30 4345 C 406.884 4.58142 2.33688 0
M  V30 4346 N 404.866 5.69953 2.28094 0
M  V30 4347 C 406.237 5.8248 2.12408 0
M  V30 4348 C 408.292 4.46877 2.19558 0
M  V30 4349 C 406.995 6.96818 1.78429 0
M  V30 4350 C 409.021 5.61065 1.86976 0
M  V30 4351 C 408.383 6.84431 1.66532 0
M  V30 4352 H 404.482 0.530817 0.574245 0
M  V30 4353 H 407.066 1.70333 0.943126 0
M  V30 4354 H 405.237 1.75942 3.46264 0
M  V30 4355 H 406.969 2.00075 3.51784 0
M  V30 4356 H 403.724 3.86365 2.73896 0
M  V30 4357 H 404.148 6.41845 2.15323 0
M  V30 4358 H 408.79 3.52102 2.34061 0
M  V30 4359 H 406.508 7.91559 1.62664 0
M  V30 4360 H 410.094 5.54302 1.7675 0
M  V30 4361 H 408.974 7.71294 1.41688 0
M  V30 4362 N 406.477 -1.02803 1.19454 0
M  V30 4363 C 407.707 -1.79581 1.02149 0
M  V30 4364 C 408.115 -1.84182 -0.432851 0
M  V30 4365 O 407.458 -1.28534 -1.31243 0
M  V30 4366 C 407.52 -3.25993 1.51554 0
M  V30 4367 C 407.184 -3.45025 2.99678 0
M  V30 4368 C 408.181 -3.35175 3.97434 0
M  V30 4369 C 405.866 -3.71212 3.38389 0
M  V30 4370 C 407.86 -3.51238 5.31893 0
M  V30 4371 C 405.547 -3.8692 4.73008 0
M  V30 4372 C 406.545 -3.76936 5.69569 0
M  V30 4373 O 406.233 -3.92179 7.01748 0
M  V30 4374 H 405.965 -0.571962 0.360327 0
M  V30 4375 H 408.519 -1.30367 1.58725 0
M  V30 4376 H 406.749 -3.76235 0.893543 0
M  V30 4377 H 408.438 -3.84368 1.30444 0
M  V30 4378 H 409.204 -3.14895 3.68872 0
M  V30 4379 H 405.083 -3.78075 2.6378 0
M  V30 4380 H 408.627 -3.43362 6.07247 0
M  V30 4381 H 404.524 -4.06699 5.01265 0
M  V30 4382 H 405.292 -4.09265 7.08833 0
M  V30 4383 N 407.956 -0.998596 -1.21925 0
M  V30 4384 C 409.372 -0.710303 -1.42923 0
M  V30 4385 C 409.572 0.716933 -1.88314 0
M  V30 4386 O 408.628 1.48712 -2.04062 0
M  V30 4387 C 409.941 -1.72072 -2.466 0
M  V30 4388 C 411.489 -1.73681 -2.60392 0
M  V30 4389 C 411.964 -2.73601 -3.67296 0
M  V30 4390 N 413.455 -2.7223 -3.7476 0
M  V30 4391 C 414.19 -3.46206 -4.57087 0
M  V30 4392 N 413.686 -4.29802 -5.43362 0
M  V30 4393 N 415.479 -3.34886 -4.51451 0
M  V30 4394 H 407.63 -1.92028 -0.9077 0
M  V30 4395 H 409.893 -0.828487 -0.460775 0
M  V30 4396 H 409.599 -2.74231 -2.20206 0
M  V30 4397 H 409.473 -1.51818 -3.45299 0
M  V30 4398 H 411.86 -0.722173 -2.86127 0
M  V30 4399 H 411.941 -1.98005 -1.61949 0
M  V30 4400 H 411.585 -3.75217 -3.42307 0
M  V30 4401 H 411.515 -2.46545 -4.65321 0
M  V30 4402 H 414.006 -2.11576 -3.1312 0
M  V30 4403 H 414.319 -4.83061 -6.03218 0
M  V30 4404 H 412.664 -4.33887 -5.42925 0
M  V30 4405 H 415.855 -2.69015 -3.83078 0
M  V30 4406 H 416.028 -3.92796 -5.15379 0
M  V30 4407 N 409.434 1.37368 -0.772513 0
M  V30 4408 C 410.682 1.99279 -0.336516 0
M  V30 4409 C 411.003 1.6163 1.09091 0
M  V30 4410 O 410.273 0.882109 1.74916 0
M  V30 4411 H 408.853 0.737063 -0.121435 0
M  V30 4412 H 411.515 1.67836 -0.990809 0
M  V30 4413 H 410.611 3.09332 -0.414763 0
M  V30 4414 N 410.912 0.523116 1.48665 0
M  V30 4415 C 412.142 -0.00961724 2.06598 0
M  V30 4416 C 412.55 -1.29333 1.38093 0
M  V30 4417 O 411.893 -1.77846 0.46007 0
M  V30 4418 C 411.955 -0.311135 3.58151 0
M  V30 4419 C 411.619 0.878092 4.48485 0
M  V30 4420 C 412.616 1.77464 4.88674 0
M  V30 4421 C 410.301 1.08315 4.90483 0
M  V30 4422 C 412.295 2.86021 5.69623 0
M  V30 4423 C 409.982 2.17187 5.71203 0
M  V30 4424 C 410.98 3.05873 6.10681 0
M  V30 4425 O 410.668 4.12862 6.89783 0
M  V30 4426 H 410.4 0.0272658 0.67545 0
M  V30 4427 H 412.954 0.726156 1.92136 0
M  V30 4428 H 411.184 -1.10079 3.70701 0
M  V30 4429 H 412.873 -0.785125 3.98234 0
M  V30 4430 H 413.639 1.62813 4.56855 0
M  V30 4431 H 409.518 0.402149 4.59243 0
M  V30 4432 H 413.062 3.55272 6.00356 0
M  V30 4433 H 408.959 2.31824 6.02435 0
M  V30 4434 H 409.727 4.10487 7.08126 0
M  V30 4435 N 412.39 -1.55475 0.257931 0
M  V30 4436 C 413.637 -1.99207 -0.363728 0
M  V30 4437 C 413.965 -1.1462 -1.57139 0
M  V30 4438 O 413.22 -0.199653 -1.94679 0
M  V30 4439 C 413.519 -3.48183 -0.806433 0
M  V30 4440 C 413.185 -4.49936 0.294684 0
M  V30 4441 C 411.847 -4.77481 0.597076 0
M  V30 4442 C 414.199 -5.10769 1.03751 0
M  V30 4443 C 411.527 -5.63132 1.64618 0
M  V30 4444 C 413.879 -5.97558 2.07622 0
M  V30 4445 C 412.543 -6.23432 2.38514 0
M  V30 4446 H 411.813 -0.728949 -0.133097 0
M  V30 4447 H 414.46 -1.8793 0.368059 0
M  V30 4448 H 412.765 -3.56848 -1.61761 0
M  V30 4449 H 414.462 -3.79415 -1.29789 0
M  V30 4450 H 411.052 -4.28572 0.0488649 0
M  V30 4451 H 415.236 -4.89527 0.817149 0
M  V30 4452 H 410.492 -5.8143 1.89074 0
M  V30 4453 H 414.666 -6.43735 2.65666 0
M  V30 4454 H 412.293 -6.89594 3.19943 0
M  V30 4455 N 413.868 0.0150385 -1.57593 0
M  V30 4456 C 415.093 0.718067 -1.94573 0
M  V30 4457 C 415.518 1.6734 -0.859005 0
M  V30 4458 O 414.876 1.80362 0.184147 0
M  V30 4459 C 414.924 1.43918 -3.30636 0
M  V30 4460 O 414.028 2.55299 -3.23876 0
M  V30 4461 H 413.369 0.192125 -0.635597 0
M  V30 4462 H 415.899 -0.0336708 -2.04572 0
M  V30 4463 H 415.909 1.80598 -3.65853 0
M  V30 4464 H 414.584 0.738619 -4.09289 0
M  V30 4465 H 413.161 2.21058 -3.00312 0
M  V30 4466 N 415.346 1.54954 0.287554 0
M  V30 4467 C 416.256 1.8991 1.37736 0
M  V30 4468 C 417.272 0.794701 1.54792 0
M  V30 4469 O 418.448 1.09243 1.69198 0
M  V30 4470 C 415.513 2.15108 2.71899 0
M  V30 4471 C 414.574 3.38752 2.63715 0
M  V30 4472 C 413.807 3.62739 3.91479 0
M  V30 4473 O 414.03 2.89492 4.91478 0
M  V30 4474 O 412.964 4.56267 3.92561 0
M  V30 4475 H 416.79 2.82652 1.11092 0
M  V30 4476 H 414.375 1.41315 0.484807 0
M  V30 4477 H 416.257 2.32806 3.51254 0
M  V30 4478 H 414.932 1.25551 2.9836 0
M  V30 4479 H 413.839 3.26405 1.82786 0
M  V30 4480 H 415.172 4.28483 2.42205 0
M  V30 4481 N 416.824 -0.551391 1.4764 0
M  V30 4482 C 418.052 -1.33357 1.58189 0
M  V30 4483 C 418.467 -1.87342 0.234199 0
M  V30 4484 O 417.824 -1.65301 -0.77343 0
M  V30 4485 C 417.875 -2.49942 2.61173 0
M  V30 4486 O 417.596 -1.98187 3.90709 0
M  V30 4487 C 419.097 -3.42072 2.8196 0
M  V30 4488 H 416.317 -0.40631 0.533998 0
M  V30 4489 H 418.861 -0.667367 1.93304 0
M  V30 4490 H 417.016 -3.12489 2.28975 0
M  V30 4491 H 417.43 -2.74342 4.47031 0
M  V30 4492 H 418.904 -4.20278 3.57869 0
M  V30 4493 H 419.381 -3.95978 1.89995 0
M  V30 4494 H 419.987 -2.85336 3.15378 0
M  V30 4495 N 418.302 -1.35869 -0.798587 0
M  V30 4496 C 419.549 -1.29588 -1.55606 0
M  V30 4497 C 419.877 0.127456 -1.94082 0
M  V30 4498 O 419.132 1.09461 -1.62225 0
M  V30 4499 C 419.431 -2.1556 -2.85077 0
M  V30 4500 C 419.097 -3.6424 -2.65781 0
M  V30 4501 C 417.759 -4.04766 -2.60227 0
M  V30 4502 C 420.111 -4.58547 -2.47758 0
M  V30 4503 C 417.439 -5.37753 -2.34603 0
M  V30 4504 C 419.791 -5.91742 -2.23662 0
M  V30 4505 C 418.455 -6.31402 -2.16534 0
M  V30 4506 H 417.725 -0.474197 -0.569402 0
M  V30 4507 H 420.372 -1.67839 -0.922086 0
M  V30 4508 H 418.677 -1.70216 -3.52893 0
M  V30 4509 H 420.374 -2.08031 -3.42818 0
M  V30 4510 H 416.964 -3.32086 -2.70956 0
M  V30 4511 H 421.148 -4.28117 -2.51056 0
M  V30 4512 H 416.404 -5.67474 -2.2756 0
M  V30 4513 H 420.578 -6.6439 -2.08708 0
M  V30 4514 H 418.205 -7.34381 -1.96441 0
M  V30 4515 N 419.78 1.02168 -1.19998 0
M  V30 4516 C 421.008 1.79296 -1.03249 0
M  V30 4517 C 421.423 1.84103 0.418502 0
M  V30 4518 O 420.78 1.29031 1.29063 0
M  V30 4519 C 420.831 3.24007 -1.60319 0
M  V30 4520 O 420.552 3.19512 -2.99739 0
M  V30 4521 C 422.053 4.17704 -1.48453 0
M  V30 4522 H 419.273 0.564016 -0.363493 0
M  V30 4523 H 421.817 1.28639 -1.58973 0
M  V30 4524 H 419.972 3.7183 -1.08727 0
M  V30 4525 H 420.386 4.10306 -3.26725 0
M  V30 4526 H 421.86 5.17104 -1.93153 0
M  V30 4527 H 422.337 4.37029 -0.436193 0
M  V30 4528 H 422.943 3.7576 -1.99211 0
M  V30 4529 N 421.258 1.00505 1.21394 0
M  V30 4530 C 422.168 0.574806 2.27449 0
M  V30 4531 C 423.184 -0.382206 1.6975 0
M  V30 4532 O 424.36 -0.246027 1.99892 0
M  V30 4533 C 421.425 -0.0917414 3.46579 0
M  V30 4534 C 420.486 0.909758 4.1955 0
M  V30 4535 C 419.719 0.274924 5.32991 0
M  V30 4536 O 419.942 -0.928254 5.62796 0
M  V30 4537 O 418.876 0.985877 5.93771 0
M  V30 4538 H 422.702 1.45744 2.66444 0
M  V30 4539 H 420.287 0.773923 1.27792 0
M  V30 4540 H 422.169 -0.464551 4.18832 0
M  V30 4541 H 420.844 -0.948755 3.09484 0
M  V30 4542 H 419.751 1.33372 3.49518 0
M  V30 4543 H 421.084 1.73636 4.60555 0
M  V30 4544 N 422.737 -1.36956 0.779787 0
M  V30 4545 C 423.7 -2.2851 0.177662 0
M  V30 4546 C 424.7 -1.48393 -0.619377 0
M  V30 4547 O 425.89 -1.68505 -0.441785 0
M  V30 4548 C 423.022 -3.32428 -0.755279 0
M  V30 4549 H 424.215 -2.83269 0.984823 0
M  V30 4550 H 421.768 -1.46358 0.548544 0
M  V30 4551 H 422.503 -2.82808 -1.58714 0
M  V30 4552 H 422.288 -3.91659 -0.185817 0
M  V30 4553 H 423.778 -4.00824 -1.17174 0
M  V30 4554 N 424.215 -0.530993 -1.48385 0
M  V30 4555 C 425.125 0.23503 -2.3342 0
M  V30 4556 C 426.141 0.93801 -1.46552 0
M  V30 4557 O 427.317 0.912745 -1.7953 0
M  V30 4558 C 424.382 1.26778 -3.22689 0
M  V30 4559 C 423.443 0.575038 -4.25431 0
M  V30 4560 C 422.676 1.55858 -5.10435 0
M  V30 4561 O 422.899 2.79129 -4.97437 0
M  V30 4562 O 421.833 1.09742 -5.91811 0
M  V30 4563 H 425.659 -0.461794 -3.00169 0
M  V30 4564 H 423.244 -0.291903 -1.46521 0
M  V30 4565 H 425.126 1.86457 -3.77904 0
M  V30 4566 H 423.801 1.94699 -2.586 0
M  V30 4567 H 422.708 -0.0622782 -3.74048 0
M  V30 4568 H 424.041 -0.062253 -4.92161 0
M  V30 4569 N 425.693 1.55336 -0.266172 0
M  V30 4570 C 426.623 2.25146 0.618981 0
M  V30 4571 C 427.604 1.23845 1.16604 0
M  V30 4572 O 428.789 1.52544 1.20183 0
M  V30 4573 C 425.919 2.96572 1.80728 0
M  V30 4574 C 424.873 4.04726 1.39215 0
M  V30 4575 C 424.199 4.63678 2.66283 0
M  V30 4576 C 425.499 5.19407 0.548942 0
M  V30 4577 H 427.193 2.99377 0.0368116 0
M  V30 4578 H 424.739 1.43991 0.0162651 0
M  V30 4579 H 426.692 3.44116 2.43232 0
M  V30 4580 H 425.416 2.19861 2.41514 0
M  V30 4581 H 424.075 3.57979 0.790351 0
M  V30 4582 H 423.723 3.83646 3.25308 0
M  V30 4583 H 423.423 5.367 2.39222 0
M  V30 4584 H 424.947 5.13967 3.29651 0
M  V30 4585 H 426.361 5.63059 1.07876 0
M  V30 4586 H 424.758 5.98936 0.373593 0
M  V30 4587 H 425.828 4.8295 -0.434394 0
M  V30 4588 N 427.171 -0.0066808 1.57599 0
M  V30 4589 C 428.448 -0.729586 1.81484 0
M  V30 4590 C 428.828 -1.92359 0.869558 0
M  V30 4591 O 428.176 -2.28348 -0.0832533 0
M  V30 4592 C 428.386 -1.1416 3.29801 0
M  V30 4593 C 429.734 -1.54823 3.95367 0
M  V30 4594 O 430.758 -1.23558 3.34084 0
M  V30 4595 O 429.617 -2.12937 5.03309 0
M  V30 4596 H 426.711 -0.354674 0.747085 0
M  V30 4597 H 429.257 0.0182609 1.6969 0
M  V30 4598 H 428.029 -0.290231 3.90222 0
M  V30 4599 H 427.652 -1.94876 3.46568 0
M  V30 4600 N 428.649 -1.55105 -0.279332 0
M  V30 4601 C 429.877 -1.7943 -1.03017 0
M  V30 4602 C 430.292 -0.564456 -1.80165 0
M  V30 4603 O 429.649 0.466326 -1.76442 0
M  V30 4604 C 429.7 -3.0155 -1.99374 0
M  V30 4605 O 429.421 -4.19784 -1.25352 0
M  V30 4606 C 430.922 -3.3843 -2.86321 0
M  V30 4607 H 428.142 -0.597882 -0.304594 0
M  V30 4608 H 430.686 -2.02105 -0.312035 0
M  V30 4609 H 428.841 -2.81019 -2.66659 0
M  V30 4610 H 429.255 -4.88781 -1.90246 0
M  V30 4611 H 430.729 -4.27066 -3.49741 0
M  V30 4612 H 431.206 -2.57549 -3.5576 0
M  V30 4613 H 431.812 -3.61197 -2.24536 0
M  V30 4614 N 430.127 0.543554 -1.4793 0
M  V30 4615 C 431.376 1.29649 -1.54512 0
M  V30 4616 C 431.689 1.94382 -0.217973 0
M  V30 4617 O 432.895 2.71017 -0.161908 0
M  V30 4618 C 431.351 2.35175 -2.72435 0
M  V30 4619 C 430.959 1.76572 -4.11736 0
M  V30 4620 C 432.703 3.11564 -2.8832 0
M  V30 4621 C 430.61 2.79958 -5.20939 0
M  V30 4622 H 429.54 0.487541 -0.57517 0
M  V30 4623 H 432.191 0.575708 -1.74235 0
M  V30 4624 H 430.573 3.10229 -2.46118 0
M  V30 4625 H 431.747 1.07799 -4.48013 0
M  V30 4626 H 430.062 1.12722 -4.00852 0
M  V30 4627 H 432.659 3.88794 -3.67074 0
M  V30 4628 H 433.002 3.66594 -1.97268 0
M  V30 4629 H 433.535 2.43623 -3.14472 0
M  V30 4630 H 430.274 2.29766 -6.13912 0
M  V30 4631 H 429.794 3.47101 -4.89164 0
M  V30 4632 H 431.473 3.43198 -5.48474 0
M  V30 4633 N 431.605 1.3629 0.791371 0
M  V30 4634 C 432.535 1.33137 1.91825 0
M  V30 4635 C 433.516 0.203168 1.68882 0
M  V30 4636 O 434.701 0.400509 1.90025 0
M  V30 4637 C 431.831 1.11793 3.28816 0
M  V30 4638 C 430.785 2.21417 3.66277 0
M  V30 4639 C 430.111 1.85218 5.01596 0
M  V30 4640 C 431.411 3.63489 3.75064 0
M  V30 4641 H 433.105 2.2743 1.9472 0
M  V30 4642 H 430.651 1.09479 0.935437 0
M  V30 4643 H 432.604 1.08222 4.07266 0
M  V30 4644 H 431.328 0.139501 3.26302 0
M  V30 4645 H 429.987 2.2411 2.90121 0
M  V30 4646 H 429.635 0.859544 4.95602 0
M  V30 4647 H 429.335 2.58611 5.27631 0
M  V30 4648 H 430.859 1.832 5.82469 0
M  V30 4649 H 432.273 3.63034 4.43711 0
M  V30 4650 H 430.67 4.35771 4.12582 0
M  V30 4651 H 431.74 3.98536 2.76219 0
M  V30 4652 N 433.083 -1.0153 1.20538 0
M  V30 4653 C 434.015 -2.10224 0.913155 0
M  V30 4654 C 435.028 -1.62495 -0.0995998 0
M  V30 4655 O 436.217 -1.78014 0.131582 0
M  V30 4656 C 433.317 -3.37111 0.347717 0
M  V30 4657 C 432.49 -4.13971 1.41233 0
M  V30 4658 C 431.549 -5.19158 0.857976 0
M  V30 4659 O 430.575 -5.48 1.53897 0
M  V30 4660 N 431.777 -5.7955 -0.331966 0
M  V30 4661 H 434.542 -2.35879 1.84881 0
M  V30 4662 H 432.103 -1.17931 1.10923 0
M  V30 4663 H 434.095 -4.04683 -0.0373026 0
M  V30 4664 H 432.665 -3.08696 -0.492527 0
M  V30 4665 H 431.885 -3.41351 1.97163 0
M  V30 4666 H 433.173 -4.62103 2.12928 0
M  V30 4667 H 432.571 -5.58455 -0.902478 0
M  V30 4668 H 431.128 -6.48464 -0.65861 0
M  V30 4669 N 434.561 -1.01147 -1.20859 0
M  V30 4670 C 435.511 -0.548247 -2.2131 0
M  V30 4671 C 436.495 0.393646 -1.5601 0
M  V30 4672 O 437.687 0.217445 -1.75659 0
M  V30 4673 C 434.816 0.117252 -3.431 0
M  V30 4674 C 433.902 -0.846043 -4.15575 0
M  V30 4675 N 434.293 -2.00149 -4.64515 0
M  V30 4676 C 432.591 -0.665783 -4.41003 0
M  V30 4677 C 433.292 -2.60764 -5.19978 0
M  V30 4678 N 432.268 -1.88868 -5.09735 0
M  V30 4679 H 436.07 -1.42921 -2.56809 0
M  V30 4680 H 433.584 -0.876142 -1.36739 0
M  V30 4681 H 435.581 0.46662 -4.1428 0
M  V30 4682 H 434.241 0.994115 -3.09107 0
M  V30 4683 H 435.252 -2.38162 -4.5989 0
M  V30 4684 H 431.929 0.163456 -4.1718 0
M  V30 4685 H 433.319 -3.58519 -5.68255 0
M  V30 4686 N 436.039 1.36541 -0.78704 0
M  V30 4687 C 437.286 1.99304 -0.358341 0
M  V30 4688 C 437.614 1.62467 1.06933 0
M  V30 4689 O 436.869 0.870019 1.75297 0
M  V30 4690 C 437.168 3.54343 -0.466485 0
M  V30 4691 C 436.834 4.10993 -1.85461 0
M  V30 4692 C 435.496 4.26177 -2.23443 0
M  V30 4693 C 437.848 4.41895 -2.76366 0
M  V30 4694 C 435.176 4.69573 -3.51736 0
M  V30 4695 C 437.528 4.86722 -4.04084 0
M  V30 4696 C 436.192 5.00112 -4.42091 0
M  V30 4697 H 435.462 0.729306 -0.131126 0
M  V30 4698 H 438.109 1.63068 -1.00404 0
M  V30 4699 H 436.414 3.90918 0.262719 0
M  V30 4700 H 438.111 4.00833 -0.115854 0
M  V30 4701 H 434.701 3.99612 -1.54946 0
M  V30 4702 H 438.885 4.29735 -2.48277 0
M  V30 4703 H 434.141 4.78127 -3.81057 0
M  V30 4704 H 438.315 5.09598 -4.7464 0
M  V30 4705 H 435.942 5.33498 -5.41557 0
M  V30 4706 N 437.518 0.538854 1.48102 0
M  V30 4707 C 438.466 -0.232325 2.31437 0
M  V30 4708 C 439.46 -0.927004 1.41785 0
M  V30 4709 O 440.666 -0.850378 1.58646 0
M  V30 4710 H 437.041 -0.0937916 0.746128 0
M  V30 4711 H 439.012 0.489986 2.9435 0
M  V30 4712 C 437.761 -1.26074 3.24038 0
M  V30 4713 H 437.084 -0.735609 3.92974 0
M  V30 4714 H 438.524 -1.77157 3.85216 0
M  V30 4715 C 436.983 -2.29902 2.46265 0
M  V30 4716 O 437.513 -3.36502 2.19384 0
M  V30 4717 N 435.719 -2.03348 2.07601 0
M  V30 4718 H 435.266 -1.16675 2.29662 0
M  V30 4719 H 435.224 -2.73038 1.55877 0
M  V30 4720 N 438.996 -1.55193 0.274407 0
M  V30 4721 C 440.242 -1.99877 -0.343086 0
M  V30 4722 C 440.575 -1.16256 -1.55558 0
M  V30 4723 O 439.85 -0.232462 -1.93106 0
M  V30 4724 C 440.133 -3.52706 -0.725965 0
M  V30 4725 C 439.986 -4.47081 0.493818 0
M  V30 4726 C 441.305 -4.11422 -1.56268 0
M  V30 4727 H 438.424 -0.726625 -0.123229 0
M  V30 4728 H 441.066 -1.86136 0.38121 0
M  V30 4729 H 439.216 -3.64546 -1.34307 0
M  V30 4730 H 440.888 -4.47186 1.13237 0
M  V30 4731 H 439.131 -4.1877 1.13201 0
M  V30 4732 H 439.802 -5.51699 0.18217 0
M  V30 4733 H 442.278 -4.02855 -1.04151 0
M  V30 4734 H 441.154 -5.18568 -1.79939 0
M  V30 4735 H 441.415 -3.61607 -2.54348 0
M  V30 4736 N 440.474 -0.00167713 -1.576 0
M  V30 4737 C 441.422 1.0074 -2.09652 0
M  V30 4738 C 442.416 1.35483 -1.01689 0
M  V30 4739 O 443.622 1.34028 -1.20152 0
M  V30 4740 H 439.997 0.342537 -0.669457 0
M  V30 4741 H 441.968 0.542841 -2.93421 0
M  V30 4742 C 440.717 2.2899 -2.61647 0
M  V30 4743 H 440.04 2.03124 -3.44355 0
M  V30 4744 H 441.48 2.9787 -3.01744 0
M  V30 4745 C 439.939 3.00085 -1.53136 0
M  V30 4746 O 440.469 3.91135 -0.91524 0
M  V30 4747 N 438.675 2.6194 -1.25841 0
M  V30 4748 H 438.222 1.8798 -1.76129 0
M  V30 4749 H 438.18 3.09822 -0.534576 0
M  V30 4750 N 441.952 1.55251 0.271103 0
M  V30 4751 C 442.902 1.84649 1.33749 0
M  V30 4752 C 443.886 0.705529 1.44607 0
M  V30 4753 O 445.078 0.966916 1.48256 0
M  V30 4754 C 442.207 2.12354 2.69742 0
M  V30 4755 C 441.293 3.32714 2.62988 0
M  V30 4756 N 441.684 4.52575 2.25853 0
M  V30 4757 C 439.982 3.35341 2.94045 0
M  V30 4758 C 440.683 5.34669 2.29136 0
M  V30 4759 N 439.659 4.73123 2.67685 0
M  V30 4760 H 443.461 2.74865 1.0405 0
M  V30 4761 H 440.975 1.55152 0.479738 0
M  V30 4762 H 442.972 2.31572 3.4667 0
M  V30 4763 H 441.632 1.23422 3.00328 0
M  V30 4764 H 442.643 4.78639 1.978 0
M  V30 4765 H 439.32 2.56608 3.2933 0
M  V30 4766 H 440.71 6.40509 2.02971 0
M  V30 4767 N 443.43 -0.535701 1.48216 0
M  V30 4768 C 444.679 -1.28828 1.55197 0
M  V30 4769 C 444.992 -1.94263 0.228278 0
M  V30 4770 O 446.198 -2.70927 0.176278 0
M  V30 4771 C 444.654 -2.33727 2.73678 0
M  V30 4772 C 444.262 -1.74386 4.12666 0
M  V30 4773 C 446.006 -3.1003 2.89968 0
M  V30 4774 C 443.913 -2.77192 5.22416 0
M  V30 4775 H 442.843 -0.484484 0.577747 0
M  V30 4776 H 445.494 -0.56646 1.74538 0
M  V30 4777 H 443.876 -3.08919 2.4776 0
M  V30 4778 H 445.05 -1.05421 4.48579 0
M  V30 4779 H 443.365 -1.10595 4.01445 0
M  V30 4780 H 445.962 -3.86842 3.6913 0
M  V30 4781 H 446.305 -3.65542 1.9921 0
M  V30 4782 H 446.838 -2.41952 3.15759 0
M  V30 4783 H 443.577 -2.26507 6.15122 0
M  V30 4784 H 443.097 -3.44502 4.90998 0
M  V30 4785 H 444.776 -3.40285 5.50286 0
M  V30 4786 N 444.908 -1.36708 -0.784132 0
M  V30 4787 C 446.154 -1.31426 -1.54451 0
M  V30 4788 C 446.487 0.10476 -1.93917 0
M  V30 4789 O 445.762 1.05934 -1.6312 0
M  V30 4790 C 446.045 -2.24189 -2.818 0
M  V30 4791 C 445.898 -3.74813 -2.48667 0
M  V30 4792 C 447.217 -2.15626 -3.83658 0
M  V30 4793 H 444.336 -0.478739 -0.560337 0
M  V30 4794 H 446.978 -1.67305 -0.900498 0
M  V30 4795 H 445.128 -1.93722 -3.36755 0
M  V30 4796 H 446.8 -4.15823 -1.99722 0
M  V30 4797 H 445.043 -3.93989 -1.81535 0
M  V30 4798 H 445.714 -4.35138 -3.39646 0
M  V30 4799 H 448.19 -2.42456 -3.38163 0
M  V30 4800 H 447.066 -2.82694 -4.70506 0
M  V30 4801 H 447.327 -1.14522 -4.27009 0
M  V30 4802 N 446.386 1.0089 -1.21074 0
M  V30 4803 C 447.632 1.74866 -1.02712 0
M  V30 4804 C 447.965 1.89178 0.438787 0
M  V30 4805 O 447.24 1.42325 1.32567 0
M  V30 4806 C 447.523 3.16347 -1.72036 0
M  V30 4807 C 447.376 3.09782 -3.26121 0
M  V30 4808 C 448.695 4.15187 -1.45973 0
M  V30 4809 H 445.814 0.634736 -0.374539 0
M  V30 4810 H 448.456 1.17646 -1.49196 0
M  V30 4811 H 446.606 3.65201 -1.32517 0
M  V30 4812 H 448.278 2.68673 -3.74983 0
M  V30 4813 H 446.521 2.46982 -3.56626 0
M  V30 4814 H 447.192 4.09829 -3.6979 0
M  V30 4815 H 449.668 3.75022 -1.80272 0
M  V30 4816 H 448.544 5.12331 -1.96999 0
M  V30 4817 H 448.805 4.40386 -0.388924 0
M  V30 4818 N 447.864 1.01787 1.20321 0
M  V30 4819 C 449.112 0.706538 1.89347 0
M  V30 4820 C 449.433 -0.766289 1.79313 0
M  V30 4821 O 448.703 -1.55126 1.19635 0
M  V30 4822 H 447.283 0.258348 0.700903 0
M  V30 4823 H 449.945 1.28974 1.46122 0
M  V30 4824 H 449.041 0.991066 2.95946 0
M  V30 4825 N 449.342 -1.36122 0.79427 0
M  V30 4826 C 450.292 -2.27373 0.169017 0
M  V30 4827 C 451.276 -1.4719 -0.649913 0
M  V30 4828 O 452.468 -1.69518 -0.50919 0
M  V30 4829 C 449.597 -3.36264 -0.691455 0
M  V30 4830 C 448.683 -4.2388 0.13653 0
M  V30 4831 N 449.074 -4.91519 1.19345 0
M  V30 4832 C 447.372 -4.45921 -0.0838499 0
M  V30 4833 C 448.073 -5.56369 1.6979 0
M  V30 4834 N 447.049 -5.34204 1.00634 0
M  V30 4835 H 450.851 -2.77154 0.977897 0
M  V30 4836 H 448.365 -1.49504 0.634208 0
M  V30 4837 H 450.362 -4.00572 -1.15534 0
M  V30 4838 H 449.022 -2.88037 -1.49883 0
M  V30 4839 H 450.033 -4.9334 1.57594 0
M  V30 4840 H 446.71 -4.08518 -0.861341 0
M  V30 4841 H 448.1 -6.20368 2.58055 0
M  V30 4842 N 450.82 -0.546701 -1.47814 0
M  V30 4843 C 452.048 -0.0232857 -2.06887 0
M  V30 4844 C 452.463 1.26571 -1.4009 0
M  V30 4845 O 451.82 1.7569 -0.493906 0
M  V30 4846 C 451.871 0.186975 -3.61016 0
M  V30 4847 O 451.592 -1.05097 -4.25307 0
M  V30 4848 C 453.093 0.748872 -4.36929 0
M  V30 4849 H 450.313 -0.0410763 -0.669742 0
M  V30 4850 H 452.857 -0.757117 -1.89968 0
M  V30 4851 H 451.012 0.870903 -3.77484 0
M  V30 4852 H 451.426 -0.842121 -5.17695 0
M  V30 4853 H 452.9 0.845334 -5.45489 0
M  V30 4854 H 453.377 1.75772 -4.02493 0
M  V30 4855 H 453.983 0.100979 -4.2518 0
M  V30 4856 N 452.299 1.55045 -0.282633 0
M  V30 4857 C 453.524 2.04628 0.337977 0
M  V30 4858 C 453.949 1.15937 1.48123 0
M  V30 4859 O 453.307 0.159532 1.80597 0
M  V30 4860 C 453.355 3.51854 0.78936 0
M  V30 4861 O 452.459 3.66236 1.89592 0
M  V30 4862 H 451.8 0.660434 0.0687261 0
M  V30 4863 H 454.33 2.00261 -0.419124 0
M  V30 4864 H 454.34 3.93361 1.08311 0
M  V30 4865 H 453.015 4.15873 -0.0470419 0
M  V30 4866 H 451.592 3.36633 1.60413 0
M  V30 4867 N 453.777 0.010035 1.57597 0
M  V30 4868 C 454.709 -1.00649 2.05918 0
M  V30 4869 C 455.722 -1.30077 0.978964 0
M  V30 4870 O 456.911 -1.26878 1.25556 0
M  V30 4871 C 454.011 -2.33876 2.45265 0
M  V30 4872 C 453.184 -2.23242 3.7614 0
M  V30 4873 C 452.243 -3.39242 4.02245 0
M  V30 4874 O 451.269 -3.1698 4.72771 0
M  V30 4875 N 452.471 -4.6242 3.50924 0
M  V30 4876 H 455.236 -0.594333 2.93748 0
M  V30 4877 H 452.797 -0.17714 1.60928 0
M  V30 4878 H 454.789 -3.1027 2.59836 0
M  V30 4879 H 453.359 -2.66799 1.62902 0
M  V30 4880 H 452.579 -1.31696 3.71551 0
M  V30 4881 H 453.867 -2.13321 4.61922 0
M  V30 4882 H 453.265 -4.83404 2.93832 0
M  V30 4883 H 451.822 -5.36046 3.70807 0
M  V30 4884 N 455.255 -1.55392 -0.262866 0
M  V30 4885 C 456.165 -1.92077 -1.34698 0
M  V30 4886 C 457.181 -0.819227 -1.53508 0
M  V30 4887 O 458.357 -1.11921 -1.67439 0
M  V30 4888 C 455.422 -2.19407 -2.68443 0
M  V30 4889 C 454.483 -3.42905 -2.58292 0
M  V30 4890 C 453.716 -3.68921 -3.85659 0
M  V30 4891 O 453.939 -2.97275 -4.8681 0
M  V30 4892 O 452.873 -4.62455 -3.85252 0
M  V30 4893 H 456.699 -2.84384 -1.06581 0
M  V30 4894 H 454.284 -1.42069 -0.462264 0
M  V30 4895 H 456.166 -2.38365 -3.47506 0
M  V30 4896 H 454.841 -1.30282 -2.96325 0
M  V30 4897 H 453.748 -3.29272 -1.7757 0
M  V30 4898 H 455.081 -4.32282 -2.35358 0
M  V30 4899 N 456.733 0.527833 -1.48498 0
M  V30 4900 C 458.149 0.856571 -1.34666 0
M  V30 4901 C 458.349 1.98271 -0.35931 0
M  V30 4902 O 457.405 2.51551 0.218703 0
M  V30 4903 C 458.718 1.22207 -2.74747 0
M  V30 4904 C 460.266 1.33183 -2.83251 0
M  V30 4905 C 460.741 1.73075 -4.24039 0
M  V30 4906 N 462.232 1.80174 -4.26722 0
M  V30 4907 C 462.967 2.1243 -5.32598 0
M  V30 4908 N 462.463 2.43096 -6.4875 0
M  V30 4909 N 464.256 2.13454 -5.19994 0
M  V30 4910 H 456.407 -0.215174 -2.11307 0
M  V30 4911 H 458.67 -0.0336281 -0.947403 0
M  V30 4912 H 458.376 0.468195 -3.4857 0
M  V30 4913 H 458.25 2.17173 -3.08409 0
M  V30 4914 H 460.637 2.07647 -2.09683 0
M  V30 4915 H 460.718 0.363333 -2.53206 0
M  V30 4916 H 460.362 0.991712 -4.98124 0
M  V30 4917 H 460.292 2.70979 -4.51529 0
M  V30 4918 H 462.783 1.58744 -3.42942 0
M  V30 4919 H 463.096 2.6682 -7.25277 0
M  V30 4920 H 461.441 2.40611 -6.52021 0
M  V30 4921 H 464.632 1.88956 -4.28268 0
M  V30 4922 H 464.805 2.38261 -6.02608 0
M  V30 4923 N 458.211 1.37122 0.776871 0
M  V30 4924 C 459.457 1.32243 1.53752 0
M  V30 4925 C 459.79 -0.0944745 1.9397 0
M  V30 4926 O 459.065 -1.05068 1.6368 0
M  V30 4927 C 459.348 2.25681 2.80607 0
M  V30 4928 C 459.201 3.76127 2.46676 0
M  V30 4929 C 460.52 2.17657 3.82509 0
M  V30 4930 H 457.639 0.481704 0.557791 0
M  V30 4931 H 460.281 1.6778 0.891612 0
M  V30 4932 H 458.431 1.95505 3.35723 0
M  V30 4933 H 460.103 4.16877 1.97513 0
M  V30 4934 H 458.346 3.94946 1.79443 0
M  V30 4935 H 459.017 4.36933 3.37333 0
M  V30 4936 H 461.493 2.44245 3.36873 0
M  V30 4937 H 460.369 2.85185 4.69 0
M  V30 4938 H 460.63 1.16785 4.26396 0
M  V30 4939 N 459.689 -1.00246 1.21608 0
M  V30 4940 C 460.619 -2.10921 1.00172 0
M  V30 4941 C 461.6 -1.69938 -0.0741587 0
M  V30 4942 O 462.785 -1.94009 0.0861753 0
M  V30 4943 C 459.915 -3.42618 0.568355 0
M  V30 4944 C 458.869 -3.97407 1.58909 0
M  V30 4945 C 458.195 -5.25038 1.01187 0
M  V30 4946 C 459.495 -4.2918 2.97661 0
M  V30 4947 H 461.189 -2.29112 1.92739 0
M  V30 4948 H 458.735 -1.10101 0.928102 0
M  V30 4949 H 460.688 -4.19444 0.405555 0
M  V30 4950 H 459.412 -3.24227 -0.392961 0
M  V30 4951 H 458.071 -3.22703 1.73949 0
M  V30 4952 H 457.719 -5.02982 0.0421965 0
M  V30 4953 H 457.419 -5.62661 1.6937 0
M  V30 4954 H 458.943 -6.04507 0.860448 0
M  V30 4955 H 460.357 -4.96839 2.86049 0
M  V30 4956 H 458.754 -4.77952 3.6288 0
M  V30 4957 H 459.824 -3.3735 3.48315 0
M  V30 4958 N 461.167 -1.02423 -1.1978 0
M  V30 4959 C 462.415 -0.716569 -1.8897 0
M  V30 4960 C 462.736 0.756769 -1.79716 0
M  V30 4961 O 462.006 1.5449 -1.20456 0
M  V30 4962 H 460.586 -0.262062 -0.699523 0
M  V30 4963 H 463.248 -1.29747 -1.45436 0
M  V30 4964 H 462.344 -1.00675 -2.95417 0
M  V30 4965 N 462.645 1.35699 -0.801477 0
M  V30 4966 C 463.575 2.32436 -0.222658 0
M  V30 4967 C 464.556 1.5723 0.649057 0
M  V30 4968 O 465.741 1.85324 0.580387 0
M  V30 4969 C 462.871 3.41469 0.633719 0
M  V30 4970 C 461.825 4.27774 -0.139083 0
M  V30 4971 C 461.151 5.28082 0.838666 0
M  V30 4972 C 462.451 5.04946 -1.33517 0
M  V30 4973 H 464.145 2.81094 -1.03086 0
M  V30 4974 H 461.691 1.35146 -0.497155 0
M  V30 4975 H 463.644 4.08143 1.04868 0
M  V30 4976 H 462.368 2.91408 1.47475 0
M  V30 4977 H 461.027 3.62673 -0.535156 0
M  V30 4978 H 460.675 4.7429 1.67506 0
M  V30 4979 H 460.375 5.86695 0.32594 0
M  V30 4980 H 461.899 5.97628 1.25194 0
M  V30 4981 H 463.313 5.64593 -0.995349 0
M  V30 4982 H 461.71 5.7303 -1.78202 0
M  V30 4983 H 462.78 4.35886 -2.12442 0
M  V30 4984 N 464.123 0.554532 1.47522 0
M  V30 4985 C 465.37 0.029479 2.02479 0
M  V30 4986 C 465.698 -1.31929 1.42916 0
M  V30 4987 O 464.953 -1.87112 0.573385 0
M  V30 4988 C 465.252 -0.115927 3.57212 0
M  V30 4989 C 464.918 1.16161 4.3568 0
M  V30 4990 C 463.58 1.51168 4.56839 0
M  V30 4991 C 465.932 2.0083 4.80954 0
M  V30 4992 C 463.26 2.70696 5.2052 0
M  V30 4993 C 465.612 3.19559 5.45953 0
M  V30 4994 C 464.276 3.54882 5.65345 0
M  V30 4995 H 463.546 0.0107871 0.740921 0
M  V30 4996 H 466.193 0.725506 1.77225 0
M  V30 4997 H 464.498 -0.894902 3.81443 0
M  V30 4998 H 466.195 -0.53749 3.97381 0
M  V30 4999 H 462.785 0.879026 4.19489 0
M  V30 5000 H 466.969 1.75093 4.64388 0
M  V30 5001 H 462.225 2.98236 5.33728 0
M  V30 5002 H 466.399 3.85456 5.79997 0
M  V30 5003 H 464.026 4.47596 6.1446 0
M  V30 5004 N 465.601 -1.54893 0.290851 0
M  V30 5005 C 466.551 -2.19838 -0.604599 0
M  V30 5006 C 467.535 -1.16805 -1.10659 0
M  V30 5007 O 468.727 -1.42562 -1.04905 0
M  V30 5008 C 465.856 -2.93497 -1.78086 0
M  V30 5009 C 464.942 -4.03835 -1.29531 0
M  V30 5010 N 465.333 -5.03047 -0.527024 0
M  V30 5011 C 463.631 -4.17192 -1.57693 0
M  V30 5012 C 464.332 -5.81074 -0.269728 0
M  V30 5013 N 463.308 -5.36966 -0.846651 0
M  V30 5014 H 467.11 -2.93898 -0.00995032 0
M  V30 5015 H 464.624 -1.62121 0.0951353 0
M  V30 5016 H 466.621 -3.38484 -2.43381 0
M  V30 5017 H 465.281 -2.2095 -2.37931 0
M  V30 5018 H 466.292 -5.17611 -0.172872 0
M  V30 5019 H 462.969 -3.55845 -2.18359 0
M  V30 5020 H 464.359 -6.71005 0.346643 0
M  V30 5021 N 467.08 -0.0183926 -1.57589 0
M  V30 5022 C 468.028 0.985111 -2.10709 0
M  V30 5023 C 469.022 1.34397 -1.0312 0
M  V30 5024 O 470.228 1.32746 -1.21567 0
M  V30 5025 H 466.603 0.335418 -0.673052 0
M  V30 5026 H 468.574 0.511689 -2.9398 0
M  V30 5027 C 467.323 2.26202 -2.64061 0
M  V30 5028 H 466.646 1.9946 -3.4649 0
M  V30 5029 H 468.086 2.94652 -3.04887 0
M  V30 5030 C 466.545 2.98444 -1.5631 0
M  V30 5031 O 467.075 3.90142 -0.956674 0
M  V30 5032 N 465.281 2.6059 -1.28612 0
M  V30 5033 H 464.828 1.86101 -1.78112 0
M  V30 5034 H 464.786 3.09238 -0.567406 0
M  V30 5035 N 468.558 1.5553 0.254621 0
M  V30 5036 C 469.505 1.89666 1.31512 0
M  V30 5037 C 470.475 0.750057 1.482 0
M  V30 5038 O 471.66 1.00301 1.62309 0
M  V30 5039 C 468.8 2.19009 2.667 0
M  V30 5040 C 467.913 3.46435 2.58083 0
M  V30 5041 C 467.048 3.65386 3.85573 0
M  V30 5042 C 466.087 4.8644 3.71541 0
M  V30 5043 N 465.224 5.01952 4.90906 0
M  V30 5044 H 470.064 2.80109 1.017 0
M  V30 5045 H 467.601 1.38666 0.490938 0
M  V30 5046 H 469.559 2.34025 3.45381 0
M  V30 5047 H 468.189 1.31779 2.94676 0
M  V30 5048 H 467.241 3.39792 1.71013 0
M  V30 5049 H 468.553 4.35258 2.43622 0
M  V30 5050 H 467.707 3.80319 4.72697 0
M  V30 5051 H 466.446 2.74781 4.02922 0
M  V30 5052 H 465.451 4.71491 2.82801 0
M  V30 5053 H 466.676 5.78497 3.55694 0
M  V30 5054 H 464.622 4.14283 5.08631 0
M  V30 5055 H 464.539 5.84851 4.79046 0
M  V30 5056 H 465.807 5.21289 5.7955 0
M  V30 5057 N 470.036 -0.519951 1.48776 0
M  V30 5058 C 471.282 -1.27711 1.57536 0
M  V30 5059 C 471.615 -1.92547 0.252866 0
M  V30 5060 O 470.89 -1.7979 -0.742021 0
M  V30 5061 C 471.173 -2.35875 2.72094 0
M  V30 5062 C 471.026 -1.75664 4.1408 0
M  V30 5063 C 472.345 -3.37575 2.82367 0
M  V30 5064 H 469.464 -0.462971 0.573434 0
M  V30 5065 H 472.106 -0.578194 1.80989 0
M  V30 5066 H 470.256 -2.95488 2.52228 0
M  V30 5067 H 471.928 -1.20025 4.45412 0
M  V30 5068 H 470.171 -1.06154 4.20611 0
M  V30 5069 H 470.842 -2.54029 4.90075 0
M  V30 5070 H 473.318 -2.87929 3.00393 0
M  V30 5071 H 472.194 -4.1064 3.64233 0
M  V30 5072 H 472.455 -3.98743 1.90936 0
M  V30 5073 N 471.514 -1.37532 -0.769588 0
M  V30 5074 C 472.763 -1.32183 -1.5235 0
M  V30 5075 C 473.076 0.0906555 -1.9539 0
M  V30 5076 O 474.282 0.266628 -2.70188 0
M  V30 5077 C 472.738 -2.32029 -2.75119 0
M  V30 5078 C 472.346 -3.78816 -2.3917 0
M  V30 5079 C 474.09 -2.35694 -3.53056 0
M  V30 5080 C 471.997 -4.70388 -3.58453 0
M  V30 5081 H 470.927 -0.491275 -0.571984 0
M  V30 5082 H 473.578 -1.63004 -0.842739 0
M  V30 5083 H 471.96 -1.94229 -3.45096 0
M  V30 5084 H 473.134 -4.25466 -1.76962 0
M  V30 5085 H 471.449 -3.78117 -1.74402 0
M  V30 5086 H 474.046 -3.01312 -4.41718 0
M  V30 5087 H 474.389 -1.37117 -3.93071 0
M  V30 5088 H 474.922 -2.72212 -2.90078 0
M  V30 5089 H 471.661 -5.70102 -3.23518 0
M  V30 5090 H 471.181 -4.28442 -4.19758 0
M  V30 5091 H 472.86 -4.87628 -4.25239 0
M  V30 5092 N 472.992 0.995999 -1.22138 0
M  V30 5093 C 473.955 2.06711 -0.990109 0
M  V30 5094 C 474.955 1.60744 0.0422978 0
M  V30 5095 O 476.145 1.73095 -0.195895 0
M  V30 5096 C 473.277 3.37288 -0.49491 0
M  V30 5097 H 474.47 2.28661 -1.94047 0
M  V30 5098 H 472.023 1.16711 -1.03963 0
M  V30 5099 H 472.758 3.21022 0.459948 0
M  V30 5100 H 472.543 3.71986 -1.23971 0
M  V30 5101 H 474.033 4.16103 -0.353253 0
M  V30 5102 N 474.47 1.03057 1.19235 0
M  V30 5103 C 475.716 0.729098 1.89241 0
M  V30 5104 C 476.049 -0.740573 1.79525 0
M  V30 5105 O 475.324 -1.53946 1.18874 0
M  V30 5106 C 475.607 1.18304 3.40112 0
M  V30 5107 C 475.46 2.71406 3.5869 0
M  V30 5108 C 476.779 0.765161 4.33397 0
M  V30 5109 H 473.898 0.266338 0.687192 0
M  V30 5110 H 476.54 1.28079 1.40341 0
M  V30 5111 H 474.69 0.713672 3.81889 0
M  V30 5112 H 476.362 3.26303 3.26074 0
M  V30 5113 H 474.605 3.11717 3.01687 0
M  V30 5114 H 475.276 2.98225 4.64506 0
M  V30 5115 H 477.752 1.16889 3.99345 0
M  V30 5116 H 476.628 1.11065 5.37546 0
M  V30 5117 H 476.889 -0.332372 4.40849 0
M  V30 5118 N 475.948 -1.35272 0.808662 0
M  V30 5119 C 477.225 -1.93077 0.313181 0
M  V30 5120 C 477.605 -1.73847 -1.19752 0
M  V30 5121 O 476.953 -1.1087 -1.998 0
M  V30 5122 C 477.163 -3.41347 0.726859 0
M  V30 5123 C 478.511 -4.18493 0.717532 0
M  V30 5124 O 479.535 -3.4987 0.668535 0
M  V30 5125 O 478.394 -5.40937 0.777779 0
M  V30 5126 H 475.488 -0.822885 0.0824018 0
M  V30 5127 H 478.034 -1.44335 0.892499 0
M  V30 5128 H 476.806 -3.49082 1.76797 0
M  V30 5129 H 476.429 -3.97411 0.122461 0
M  V30 5130 N 477.426 -0.562348 -1.47226 0
M  V30 5131 C 478.651 -0.0432632 -2.07355 0
M  V30 5132 C 479.076 1.24332 -1.41149 0
M  V30 5133 O 478.434 1.74603 -0.488226 0
M  V30 5134 C 478.482 0.130288 -3.60365 0
M  V30 5135 O 477.586 1.19166 -3.94808 0
M  V30 5136 H 476.927 -0.0536334 -0.66183 0
M  V30 5137 H 479.457 -0.779495 -1.89169 0
M  V30 5138 H 479.467 0.342881 -4.06557 0
M  V30 5139 H 478.142 -0.809389 -4.07948 0
M  V30 5140 H 476.719 0.959153 -3.60354 0
M  V30 5141 N 478.904 1.54736 -0.299062 0
M  V30 5142 C 480.129 2.04975 0.316254 0
M  V30 5143 C 480.554 1.17501 1.46885 0
M  V30 5144 O 479.912 0.178678 1.80417 0
M  V30 5145 C 479.96 3.52672 0.751997 0
M  V30 5146 O 479.064 3.68226 1.85697 0
M  V30 5147 H 478.405 0.661126 0.0617175 0
M  V30 5148 H 480.935 1.99805 -0.440341 0
M  V30 5149 H 480.945 3.94488 1.04133 0
M  V30 5150 H 479.62 4.158 -0.0911482 0
M  V30 5151 H 478.197 3.38316 1.56834 0
M  V30 5152 N 480.382 0.0267497 1.57577 0
M  V30 5153 C 481.631 -0.651736 1.9088 0
M  V30 5154 C 481.944 -1.73427 0.904576 0
M  V30 5155 O 483.15 -2.46923 1.12877 0
M  V30 5156 C 481.606 -1.21048 3.38933 0
M  V30 5157 C 481.214 -0.161362 4.47709 0
M  V30 5158 C 482.958 -1.86562 3.81307 0
M  V30 5159 C 480.865 -0.731611 5.86857 0
M  V30 5160 H 479.795 -0.247198 0.712326 0
M  V30 5161 H 482.446 0.0916641 1.83271 0
M  V30 5162 H 480.828 -2.00542 3.41466 0
M  V30 5163 H 482.002 0.61094 4.56732 0
M  V30 5164 H 480.317 0.394877 4.14523 0
M  V30 5165 H 482.914 -2.30178 4.8262 0
M  V30 5166 H 483.257 -2.70735 3.16241 0
M  V30 5167 H 483.79 -1.13762 3.81186 0
M  V30 5168 H 480.529 0.0719329 6.55461 0
M  V30 5169 H 480.049 -1.47245 5.81445 0
M  V30 5170 H 481.728 -1.22208 6.35354 0
M  V30 5171 N 481.861 -1.55662 -0.24637 0
M  V30 5172 C 482.808 -1.90361 -1.30504 0
M  V30 5173 C 483.778 -0.757905 -1.47801 0
M  V30 5174 O 484.963 -1.01161 -1.61775 0
M  V30 5175 C 482.103 -2.2042 -2.65535 0
M  V30 5176 C 481.216 -3.47799 -2.56242 0
M  V30 5177 C 480.351 -3.67426 -3.8363 0
M  V30 5178 C 479.39 -4.88403 -3.68956 0
M  V30 5179 N 478.527 -5.04548 -4.88237 0
M  V30 5180 H 483.367 -2.80645 -1.00213 0
M  V30 5181 H 480.904 -1.38924 -0.483577 0
M  V30 5182 H 482.862 -2.35853 -3.44135 0
M  V30 5183 H 481.492 -1.3334 -2.93973 0
M  V30 5184 H 480.544 -3.40694 -1.69208 0
M  V30 5185 H 481.856 -4.36544 -2.4131 0
M  V30 5186 H 481.01 -3.82821 -4.70673 0
M  V30 5187 H 479.749 -2.76914 -4.01459 0
M  V30 5188 H 478.754 -4.72984 -2.80296 0
M  V30 5189 H 479.979 -5.80375 -3.52621 0
M  V30 5190 H 477.925 -4.16974 -5.06427 0
M  V30 5191 H 477.842 -5.87384 -4.75937 0
M  V30 5192 H 479.11 -5.24355 -5.76777 0
M  V30 5193 N 483.339 0.512053 -1.4905 0
M  V30 5194 C 484.585 1.26874 -1.58212 0
M  V30 5195 C 484.918 1.9241 -0.263073 0
M  V30 5196 O 484.193 1.80181 0.732476 0
M  V30 5197 C 484.476 2.34428 -2.73341 0
M  V30 5198 C 484.329 1.73466 -4.15006 0
M  V30 5199 C 485.648 3.36073 -2.84154 0
M  V30 5200 H 482.767 0.459924 -0.575881 0
M  V30 5201 H 485.409 0.568587 -1.81293 0
M  V30 5202 H 483.559 2.94146 -2.53792 0
M  V30 5203 H 485.231 1.17661 -4.46042 0
M  V30 5204 H 483.474 1.03921 -4.21168 0
M  V30 5205 H 484.145 2.51426 -4.91415 0
M  V30 5206 H 486.621 2.86332 -3.01916 0
M  V30 5207 H 485.497 4.08703 -3.66406 0
M  V30 5208 H 485.758 3.97725 -1.93048 0
M  V30 5209 N 484.817 1.37938 0.762283 0
M  V30 5210 C 486.065 1.33404 1.51815 0
M  V30 5211 C 486.386 -0.0780975 1.94844 0
M  V30 5212 O 485.656 -1.02405 1.67003 0
M  V30 5213 H 484.236 0.490839 0.563104 0
M  V30 5214 H 486.898 1.72527 0.906669 0
M  V30 5215 H 485.994 1.97926 2.41313 0
M  V30 5216 N 486.295 -0.989507 1.22664 0
M  V30 5217 C 487.242 -2.08024 0.999733 0
M  V30 5218 C 488.212 -1.65909 -0.0797047 0
M  V30 5219 O 489.397 -1.90669 0.0705715 0
M  V30 5220 C 486.537 -3.40067 0.587234 0
M  V30 5221 C 485.65 -3.95505 1.73781 0
M  V30 5222 C 484.785 -5.15722 1.27297 0
M  V30 5223 C 483.824 -5.63305 2.39488 0
M  V30 5224 N 482.961 -6.74758 1.94026 0
M  V30 5225 H 487.801 -2.26768 1.9334 0
M  V30 5226 H 485.338 -1.11171 0.963297 0
M  V30 5227 H 487.296 -4.15899 0.329227 0
M  V30 5228 H 485.926 -3.21314 -0.309426 0
M  V30 5229 H 484.978 -3.16513 2.11006 0
M  V30 5230 H 486.29 -4.26797 2.58158 0
M  V30 5231 H 485.444 -5.98854 0.972546 0
M  V30 5232 H 484.183 -4.86061 0.399445 0
M  V30 5233 H 483.188 -4.78759 2.70315 0
M  V30 5234 H 484.413 -5.94988 3.27362 0
M  V30 5235 H 482.359 -6.46874 1.09041 0
M  V30 5236 H 482.276 -7.05386 2.71968 0
M  V30 5237 H 483.544 -7.61387 1.67062 0
M  V30 5238 N 487.773 -1.03688 -1.18687 0
M  V30 5239 C 488.998 -0.757819 -1.93059 0
M  V30 5240 C 489.423 0.678353 -1.75442 0
M  V30 5241 O 488.781 1.46938 -1.06203 0
M  V30 5242 C 488.829 -1.12423 -3.42627 0
M  V30 5243 O 487.933 -0.247505 -4.11657 0
M  V30 5244 H 487.274 -0.279245 -0.602427 0
M  V30 5245 H 489.804 -1.3857 -1.5053 0
M  V30 5246 H 489.814 -1.08454 -3.93322 0
M  V30 5247 H 488.489 -2.17049 -3.54771 0
M  V30 5248 H 487.066 -0.34649 -3.71287 0
M  V30 5249 N 489.251 1.34841 -0.815825 0
M  V30 5250 C 490.499 1.98107 -0.399744 0
M  V30 5251 C 490.82 1.65019 1.03894 0
M  V30 5252 O 490.09 0.937311 1.72021 0
M  V30 5253 H 488.67 0.732827 -0.144823 0
M  V30 5254 H 491.332 1.64599 -1.0437 0
M  V30 5255 H 490.428 3.07856 -0.512965 0
M  V30 5256 N 490.729 0.570148 1.46925 0
M  V30 5257 C 491.639 -0.173061 2.33961 0
M  V30 5258 C 492.655 -0.898825 1.48987 0
M  V30 5259 O 493.831 -0.864825 1.81887 0
M  V30 5260 C 490.896 -1.18177 3.25937 0
M  V30 5261 C 489.957 -0.462041 4.26806 0
M  V30 5262 C 489.19 -1.4227 5.14388 0
M  V30 5263 O 489.413 -2.65842 5.04662 0
M  V30 5264 O 488.347 -0.940127 5.94513 0
M  V30 5265 H 492.173 0.541216 2.98839 0
M  V30 5266 H 489.758 0.330647 1.45695 0
M  V30 5267 H 491.64 -1.76372 3.82715 0
M  V30 5268 H 490.315 -1.87774 2.63671 0
M  V30 5269 H 489.222 0.161429 3.73752 0
M  V30 5270 H 490.555 0.192719 4.91823 0
M  V30 5271 N 492.207 -1.54576 0.307264 0
M  V30 5272 C 493.137 -2.26708 -0.55907 0
M  V30 5273 C 494.118 -1.26893 -1.1328 0
M  V30 5274 O 495.303 -1.55677 -1.16097 0
M  V30 5275 C 492.433 -3.01259 -1.72801 0
M  V30 5276 C 491.387 -4.08275 -1.28435 0
M  V30 5277 C 490.713 -4.70575 -2.53895 0
M  V30 5278 C 492.013 -5.2068 -0.411038 0
M  V30 5279 H 493.707 -2.9937 0.042576 0
M  V30 5280 H 491.253 -1.43983 0.0219173 0
M  V30 5281 H 493.206 -3.50444 -2.34023 0
M  V30 5282 H 491.93 -2.26187 -2.356 0
M  V30 5283 H 490.589 -3.59949 -0.695161 0
M  V30 5284 H 490.237 -3.92136 -3.15021 0
M  V30 5285 H 489.937 -5.42854 -2.24908 0
M  V30 5286 H 491.461 -5.22527 -3.15908 0
M  V30 5287 H 492.875 -5.65721 -0.929097 0
M  V30 5288 H 491.272 -5.99716 -0.214664 0
M  V30 5289 H 492.342 -4.81629 0.562287 0
M  V30 5290 N 493.685 -0.035106 -1.57561 0
M  V30 5291 C 494.615 0.942993 -2.13612 0
M  V30 5292 C 495.596 1.33531 -1.05373 0
M  V30 5293 O 496.781 1.41287 -1.33235 0
M  V30 5294 C 493.911 2.22332 -2.66807 0
M  V30 5295 C 492.865 1.97156 -3.79886 0
M  V30 5296 C 492.191 3.31506 -4.19533 0
M  V30 5297 C 493.491 1.30596 -5.05709 0
M  V30 5298 H 495.185 0.476179 -2.95589 0
M  V30 5299 H 492.731 0.227602 -1.4219 0
M  V30 5300 H 494.684 2.91142 -3.04654 0
M  V30 5301 H 493.408 2.7119 -1.81999 0
M  V30 5302 H 492.067 1.30763 -3.42486 0
M  V30 5303 H 491.715 3.78134 -3.31698 0
M  V30 5304 H 491.415 3.15465 -4.95738 0
M  V30 5305 H 492.939 4.01574 -4.59968 0
M  V30 5306 H 494.353 1.89416 -5.41105 0
M  V30 5307 H 492.75 1.24934 -5.86951 0
M  V30 5308 H 493.82 0.279742 -4.84092 0
M  V30 5309 N 495.163 1.55791 0.238111 0
M  V30 5310 C 496.093 1.94068 1.29846 0
M  V30 5311 C 497.074 0.806726 1.49753 0
M  V30 5312 O 498.259 1.06772 1.62214 0
M  V30 5313 C 495.389 2.24302 2.65153 0
M  V30 5314 C 494.343 3.40032 2.59927 0
M  V30 5315 C 493.669 3.55829 3.99111 0
M  V30 5316 C 494.969 4.75476 2.16148 0
M  V30 5317 H 496.663 2.82887 0.980563 0
M  V30 5318 H 494.209 1.36105 0.470253 0
M  V30 5319 H 496.162 2.4967 3.39475 0
M  V30 5320 H 494.886 1.32318 2.98596 0
M  V30 5321 H 493.545 3.14687 1.88063 0
M  V30 5322 H 493.193 2.6125 4.29834 0
M  V30 5323 H 492.893 4.3366 3.96501 0
M  V30 5324 H 494.417 3.83528 4.7512 0
M  V30 5325 H 495.831 5.00158 2.80205 0
M  V30 5326 H 494.228 5.56472 2.24631 0
M  V30 5327 H 495.298 4.71946 1.11333 0
M  V30 5328 N 496.642 -0.504142 1.49319 0
M  V30 5329 C 497.572 -1.61473 1.68667 0
M  V30 5330 C 498.553 -1.61455 0.535378 0
M  V30 5331 O 499.738 -1.78245 0.770868 0
M  V30 5332 C 496.868 -2.99971 1.75028 0
M  V30 5333 C 495.822 -3.14854 2.89916 0
M  V30 5334 C 495.148 -4.54671 2.81387 0
M  V30 5335 C 496.448 -2.95176 4.30893 0
M  V30 5336 H 498.142 -1.45535 2.61648 0
M  V30 5337 H 495.688 -0.698711 1.25913 0
M  V30 5338 H 497.641 -3.77562 1.8715 0
M  V30 5339 H 496.365 -3.1699 0.786441 0
M  V30 5340 H 495.024 -2.39687 2.77391 0
M  V30 5341 H 494.672 -4.68562 1.82917 0
M  V30 5342 H 494.372 -4.6557 3.58494 0
M  V30 5343 H 495.896 -5.34327 2.95512 0
M  V30 5344 H 497.31 -3.62538 4.44116 0
M  V30 5345 H 495.707 -3.17549 5.09198 0
M  V30 5346 H 496.777 -1.91332 4.45556 0
M  V30 5347 N 498.12 -1.38341 -0.754957 0
M  V30 5348 C 499.03 -1.3769 -1.89944 0
M  V30 5349 C 500.046 -0.274194 -1.71826 0
M  V30 5350 O 501.222 -0.512391 -1.94773 0
M  V30 5351 C 498.287 -1.19938 -3.25293 0
M  V30 5352 C 497.348 -2.40001 -3.55946 0
M  V30 5353 C 496.581 -2.23087 -4.84838 0
M  V30 5354 O 496.804 -1.22386 -5.57116 0
M  V30 5355 O 495.738 -3.11646 -5.14937 0
M  V30 5356 H 499.564 -2.3412 -1.93446 0
M  V30 5357 H 497.149 -1.19246 -0.900044 0
M  V30 5358 H 499.031 -1.12093 -4.06218 0
M  V30 5359 H 497.706 -0.265919 -3.22606 0
M  V30 5360 H 496.613 -2.53421 -2.75188 0
M  V30 5361 H 497.946 -3.31973 -3.63394 0
M  V30 5362 N 499.598 0.982988 -1.23187 0
M  V30 5363 C 500.546 2.09616 -1.00817 0
M  V30 5364 C 501.54 1.6932 0.0519995 0
M  V30 5365 O 502.746 1.79715 -0.101284 0
M  V30 5366 H 499.121 0.685628 -0.308899 0
M  V30 5367 H 501.092 2.25652 -1.95253 0
M  V30 5368 C 499.841 3.42249 -0.613243 0
M  V30 5369 H 499.164 3.73705 -1.42073 0
M  V30 5370 H 500.604 4.21086 -0.496208 0
M  V30 5371 C 499.063 3.30002 0.678233 0
M  V30 5372 O 499.593 3.6263 1.72807 0
M  V30 5373 N 497.799 2.83164 0.653165 0
M  V30 5374 H 497.346 2.56811 -0.201492 0
M  V30 5375 H 497.304 2.75352 1.51752 0
M  V30 5376 N 501.076 1.04316 1.18135 0
M  V30 5377 C 502.024 0.630175 2.23901 0
M  V30 5378 C 503.018 -0.344254 1.65865 0
M  V30 5379 O 504.224 -0.211273 1.78756 0
M  V30 5380 H 500.599 0.185578 0.728742 0
M  V30 5381 H 502.57 1.53253 2.56039 0
M  V30 5382 C 501.319 0.011666 3.47698 0
M  V30 5383 H 500.642 0.752526 3.92654 0
M  V30 5384 H 502.082 -0.240046 4.2332 0
M  V30 5385 C 500.541 -1.23913 3.13285 0
M  V30 5386 O 501.071 -2.32959 3.27251 0
M  V30 5387 N 499.277 -1.13338 2.67587 0
M  V30 5388 H 498.824 -0.246006 2.56423 0
M  V30 5389 H 498.782 -1.97116 2.44934 0
M  V30 5390 N 502.554 -1.34406 0.822964 0
M  V30 5391 C 503.97 -1.51275 0.508727 0
M  V30 5392 C 504.17 -1.76776 -0.967083 0
M  V30 5393 O 503.226 -1.81871 -1.75155 0
M  V30 5394 C 504.539 -2.67765 1.36829 0
M  V30 5395 C 506.087 -2.81647 1.36542 0
M  V30 5396 C 506.562 -4.01181 2.20947 0
M  V30 5397 N 508.053 -4.08388 2.18571 0
M  V30 5398 C 508.788 -5.00036 2.80627 0
M  V30 5399 N 508.284 -5.96906 3.51674 0
M  V30 5400 N 510.077 -4.92908 2.70181 0
M  V30 5401 H 502.228 -1.16113 1.77852 0
M  V30 5402 H 504.491 -0.56947 0.757897 0
M  V30 5403 H 504.197 -2.55551 2.41633 0
M  V30 5404 H 504.071 -3.62779 1.03303 0
M  V30 5405 H 506.458 -2.93303 0.325163 0
M  V30 5406 H 506.539 -1.87443 1.74066 0
M  V30 5407 H 506.183 -3.90286 3.25022 0
M  V30 5408 H 506.113 -4.94599 1.80774 0
M  V30 5409 H 508.604 -3.39051 1.66891 0
M  V30 5410 H 508.917 -6.63468 3.96271 0
M  V30 5411 H 507.262 -5.9703 3.5578 0
M  V30 5412 H 510.453 -4.1619 2.14251 0
M  V30 5413 H 510.626 -5.64137 3.18831 0
M  V30 5414 N 504.032 -0.577932 -1.46621 0
M  V30 5415 C 504.962 0.145917 -2.33044 0
M  V30 5416 C 505.943 0.888412 -1.45056 0
M  V30 5417 O 507.128 0.864812 -1.73881 0
M  V30 5418 C 504.258 1.16322 -3.27241 0
M  V30 5419 C 503.212 0.535868 -4.24632 0
M  V30 5420 C 502.538 1.65929 -5.08303 0
M  V30 5421 C 503.838 -0.523861 -5.19666 0
M  V30 5422 H 505.532 -0.575636 -2.93814 0
M  V30 5423 H 503.078 -0.278272 -1.41286 0
M  V30 5424 H 505.031 1.67793 -3.86553 0
M  V30 5425 H 503.755 1.91498 -2.64567 0
M  V30 5426 H 502.414 0.0422759 -3.66576 0
M  V30 5427 H 502.062 2.40061 -4.42018 0
M  V30 5428 H 501.762 1.2452 -5.74255 0
M  V30 5429 H 503.286 2.17686 -5.70478 0
M  V30 5430 H 504.7 -0.0944059 -5.73222 0
M  V30 5431 H 503.097 -0.858 -5.93935 0
M  V30 5432 H 504.167 -1.41197 -4.63887 0
M  V30 5433 N 505.51 1.54411 -0.315457 0
M  V30 5434 C 506.759 1.99599 0.290395 0
M  V30 5435 C 507.072 1.20746 1.53882 0
M  V30 5436 O 508.278 1.56272 2.22017 0
M  V30 5437 C 506.734 3.5539 0.56797 0
M  V30 5438 C 506.342 4.43068 -0.662945 0
M  V30 5439 C 508.086 4.09067 1.13422 0
M  V30 5440 C 505.993 5.90317 -0.357722 0
M  V30 5441 H 504.923 0.745592 0.112286 0
M  V30 5442 H 507.574 1.78477 -0.426418 0
M  V30 5443 H 505.956 3.72468 1.34476 0
M  V30 5444 H 507.13 4.37765 -1.43869 0
M  V30 5445 H 505.445 4.00238 -1.14884 0
M  V30 5446 H 508.042 5.16663 1.37707 0
M  V30 5447 H 508.385 3.60552 2.08106 0
M  V30 5448 H 508.918 3.95589 0.418805 0
M  V30 5449 H 505.657 6.4301 -1.27351 0
M  V30 5450 H 505.177 5.98592 0.380472 0
M  V30 5451 H 506.856 6.4699 0.0354284 0
M  V30 5452 N 506.988 0.0434614 1.5754 0
M  V30 5453 C 508.404 -0.313039 1.565 0
M  V30 5454 C 508.604 -1.71954 1.05043 0
M  V30 5455 O 507.66 -2.425 0.703564 0
M  V30 5456 C 508.973 -0.148544 3.00333 0
M  V30 5457 C 510.521 -0.220231 3.12224 0
M  V30 5458 C 510.996 -0.0843565 4.57922 0
M  V30 5459 N 512.487 -0.140881 4.62986 0
M  V30 5460 C 513.222 -0.0597443 5.73369 0
M  V30 5461 N 512.718 0.0733004 6.92761 0
M  V30 5462 N 514.511 -0.11477 5.61983 0
M  V30 5463 H 506.662 0.96303 1.89313 0
M  V30 5464 H 508.925 0.373164 0.871466 0
M  V30 5465 H 508.631 0.820894 3.41986 0
M  V30 5466 H 508.505 -0.912798 3.65989 0
M  V30 5467 H 510.892 -1.18014 2.70475 0
M  V30 5468 H 510.973 0.574646 2.49262 0
M  V30 5469 H 510.617 0.872192 5.00355 0
M  V30 5470 H 510.547 -0.898281 5.18882 0
M  V30 5471 H 513.038 -0.243273 3.77116 0
M  V30 5472 H 513.351 0.128128 7.72694 0
M  V30 5473 H 511.696 0.10828 6.94916 0
M  V30 5474 H 514.887 -0.217212 4.67596 0
M  V30 5475 H 515.06 -0.0480779 6.47982 0
M  V30 5476 N 508.466 -1.55915 -0.229846 0
M  V30 5477 C 509.714 -1.7819 -0.953565 0
M  V30 5478 C 510.035 -0.610504 -1.85197 0
M  V30 5479 O 509.305 0.372988 -1.92316 0
M  V30 5480 H 507.885 -0.657208 -0.355087 0
M  V30 5481 H 510.547 -1.9337 -0.243693 0
M  V30 5482 H 509.643 -2.70011 -1.56527 0
M  V30 5483 N 509.944 0.496216 -1.49584 0
M  V30 5484 C 510.874 1.60576 -1.69521 0
M  V30 5485 C 511.855 1.61169 -0.543933 0
M  V30 5486 O 513.04 1.77834 -0.78031 0
M  V30 5487 C 510.17 2.99038 -1.76616 0
M  V30 5488 C 509.124 3.13312 -2.91581 0
M  V30 5489 C 508.45 4.53172 -2.83794 0
M  V30 5490 C 509.75 2.92886 -4.32452 0
M  V30 5491 H 511.444 1.44146 -2.62416 0
M  V30 5492 H 508.99 0.692024 -1.26282 0
M  V30 5493 H 510.943 3.76564 -1.8915 0
M  V30 5494 H 509.667 3.16568 -0.80324 0
M  V30 5495 H 508.326 2.38213 -2.78658 0
M  V30 5496 H 507.974 4.67585 -1.854 0
M  V30 5497 H 507.674 4.63662 -3.60958 0
M  V30 5498 H 509.198 5.32752 -2.98342 0
M  V30 5499 H 510.612 3.60178 -4.46032 0
M  V30 5500 H 509.009 3.14844 -5.10875 0
M  V30 5501 H 510.079 1.88966 -4.46565 0
M  V30 5502 N 511.423 1.38739 0.74761 0
M  V30 5503 C 512.653 1.3832 1.53464 0
M  V30 5504 C 513.061 -0.0273464 1.8918 0
M  V30 5505 O 512.404 -1.00588 1.53713 0
M  V30 5506 C 512.466 2.18007 2.85855 0
M  V30 5507 C 512.13 3.66762 2.72644 0
M  V30 5508 C 513.127 4.60124 2.42037 0
M  V30 5509 C 510.812 4.10193 2.89909 0
M  V30 5510 C 512.806 5.94897 2.28859 0
M  V30 5511 C 510.493 5.45045 2.7635 0
M  V30 5512 C 511.491 6.37211 2.45869 0
M  V30 5513 O 511.179 7.69581 2.3238 0
M  V30 5514 H 510.911 0.474718 0.481268 0
M  V30 5515 H 513.465 1.83012 0.932518 0
M  V30 5516 H 511.695 1.68043 3.48279 0
M  V30 5517 H 513.384 2.09921 3.47402 0
M  V30 5518 H 514.15 4.27874 2.28361 0
M  V30 5519 H 510.029 3.38797 3.1263 0
M  V30 5520 H 513.573 6.66802 2.04989 0
M  V30 5521 H 509.47 5.76889 2.89601 0
M  V30 5522 H 510.238 7.80169 2.47546 0
M  V30 5523 N 512.901 -0.976442 1.23707 0
M  V30 5524 C 514.178 -1.69296 0.979699 0
M  V30 5525 C 514.558 -2.0508 -0.500555 0
M  V30 5526 O 513.906 -1.74708 -1.47273 0
M  V30 5527 C 514.116 -2.93143 1.89389 0
M  V30 5528 C 515.464 -3.65572 2.15968 0
M  V30 5529 O 516.488 -3.03184 1.86971 0
M  V30 5530 O 515.347 -4.77859 2.65167 0
M  V30 5531 H 512.441 -0.739708 0.369812 0
M  V30 5532 H 514.987 -1.03131 1.34767 0
M  V30 5533 H 513.759 -2.63327 2.89439 0
M  V30 5534 H 513.382 -3.67044 1.52854 0
M  V30 5535 N 514.379 -1.04941 -1.1758 0
M  V30 5536 C 515.627 -0.756492 -1.87408 0
M  V30 5537 C 515.948 0.718478 -1.81281 0
M  V30 5538 O 515.218 1.519 -1.23706 0
M  V30 5539 H 513.798 -0.276841 -0.693807 0
M  V30 5540 H 516.46 -1.32803 -1.42652 0
M  V30 5541 H 515.556 -1.06918 -2.93215 0
M  V30 5542 N 515.857 1.33968 -0.830081 0
M  V30 5543 C 517.085 2.0228 -0.434773 0
M  V30 5544 C 517.5 1.62487 0.961419 0
M  V30 5545 O 516.857 0.833849 1.62337 0
M  V30 5546 C 516.908 3.5751 -0.535625 0
M  V30 5547 O 516.629 3.95864 -1.87679 0
M  V30 5548 C 518.13 4.43091 -0.136137 0
M  V30 5549 H 515.35 0.648151 -0.173613 0
M  V30 5550 H 517.894 1.71089 -1.12022 0
M  V30 5551 H 516.049 3.87266 0.101817 0
M  V30 5552 H 516.463 4.9056 -1.85609 0
M  V30 5553 H 517.937 5.51398 -0.257772 0
M  V30 5554 H 518.414 4.29433 0.921076 0
M  V30 5555 H 519.02 4.18677 -0.747662 0
M  V30 5556 N 517.335 0.585699 1.46312 0
M  V30 5557 C 518.751 0.247607 1.57668 0
M  V30 5558 C 518.951 -1.25007 1.58037 0
M  V30 5559 O 518.007 -2.03196 1.49893 0
M  V30 5560 C 519.32 0.899456 2.86933 0
M  V30 5561 C 520.868 0.873326 3.00569 0
M  V30 5562 C 521.343 1.50477 4.32574 0
M  V30 5563 N 522.834 1.46925 4.3928 0
M  V30 5564 C 523.569 1.92719 5.40044 0
M  V30 5565 N 523.065 2.46499 6.47464 0
M  V30 5566 N 524.858 1.83617 5.31264 0
M  V30 5567 H 517.009 1.55841 1.44317 0
M  V30 5568 H 519.272 0.651564 0.688599 0
M  V30 5569 H 518.978 1.95313 2.92482 0
M  V30 5570 H 518.852 0.409476 3.74971 0
M  V30 5571 H 521.239 -0.171736 2.946 0
M  V30 5572 H 521.32 1.40136 2.13999 0
M  V30 5573 H 520.964 2.54905 4.39302 0
M  V30 5574 H 520.894 0.951944 5.17924 0
M  V30 5575 H 523.385 1.07616 3.62253 0
M  V30 5576 H 523.698 2.79291 7.20567 0
M  V30 5577 H 522.043 2.50526 6.48276 0
M  V30 5578 H 525.234 1.41358 4.46246 0
M  V30 5579 H 525.407 2.19622 6.09648 0
M  V30 5580 N 518.813 -1.54241 0.323641 0
M  V30 5581 C 519.723 -2.28033 -0.551205 0
M  V30 5582 C 520.739 -1.32388 -1.12913 0
M  V30 5583 O 521.915 -1.65403 -1.14908 0
M  V30 5584 C 518.98 -3.02382 -1.69606 0
M  V30 5585 C 518.041 -4.13612 -1.14993 0
M  V30 5586 C 517.274 -4.84407 -2.24022 0
M  V30 5587 O 517.497 -4.54716 -3.44368 0
M  V30 5588 O 516.431 -5.71312 -1.89436 0
M  V30 5589 H 520.257 -3.03662 0.048066 0
M  V30 5590 H 517.842 -1.49133 0.0893289 0
M  V30 5591 H 519.724 -3.48941 -2.36259 0
M  V30 5592 H 518.399 -2.29628 -2.28151 0
M  V30 5593 H 517.306 -3.71402 -0.448484 0
M  V30 5594 H 518.639 -4.8841 -0.609608 0
M  V30 5595 N 520.291 -0.0518155 -1.57515 0
M  V30 5596 C 521.519 0.631395 -1.9703 0
M  V30 5597 C 521.934 1.64341 -0.92938 0
M  V30 5598 O 521.291 1.82296 0.0863266 0
M  V30 5599 C 521.342 1.31774 -3.36627 0
M  V30 5600 O 521.063 0.346247 -4.3673 0
M  V30 5601 C 522.564 2.09065 -3.90905 0
M  V30 5602 H 519.784 0.172576 -0.648428 0
M  V30 5603 H 522.328 -0.118306 -2.04158 0
M  V30 5604 H 520.483 2.01867 -3.30649 0
M  V30 5605 H 520.897 0.836226 -5.17791 0
M  V30 5606 H 522.371 2.52508 -4.9086 0
M  V30 5607 H 522.848 2.93908 -3.26366 0
M  V30 5608 H 523.454 1.43882 -4.00223 0
M  V30 5609 N 521.769 1.56035 0.221574 0
M  V30 5610 C 522.699 1.95434 1.2778 0
M  V30 5611 C 523.68 0.822564 1.48889 0
M  V30 5612 O 524.865 1.08486 1.61072 0
M  V30 5613 C 521.995 2.27102 2.62759 0
M  V30 5614 C 520.949 3.4277 2.56306 0
M  V30 5615 C 520.275 3.60043 3.95314 0
M  V30 5616 C 521.575 4.77742 2.11093 0
M  V30 5617 H 523.269 2.83912 0.950504 0
M  V30 5618 H 520.815 1.36596 0.455791 0
M  V30 5619 H 522.768 2.53256 3.36807 0
M  V30 5620 H 521.492 1.35478 2.97176 0
M  V30 5621 H 520.151 3.16664 1.84715 0
M  V30 5622 H 519.799 2.65794 4.27039 0
M  V30 5623 H 519.499 4.37841 3.91879 0
M  V30 5624 H 521.023 3.88545 4.71025 0
M  V30 5625 H 522.437 5.03102 2.74885 0
M  V30 5626 H 520.834 5.58823 2.18716 0
M  V30 5627 H 521.904 4.731 1.06321 0
M  V30 5628 N 523.247 -0.488276 1.49845 0
M  V30 5629 C 524.179 -1.60539 1.63584 0
M  V30 5630 C 525.192 -1.5434 0.517972 0
M  V30 5631 O 526.381 -1.60041 0.790516 0
M  V30 5632 C 523.481 -2.99374 1.58835 0
M  V30 5633 C 522.654 -3.30624 2.86368 0
M  V30 5634 C 521.713 -4.4893 2.74496 0
M  V30 5635 O 520.739 -4.50085 3.48443 0
M  V30 5636 N 521.941 -5.49591 1.86894 0
M  V30 5637 H 524.706 -1.49176 2.59936 0
M  V30 5638 H 522.267 -0.67639 1.47094 0
M  V30 5639 H 524.259 -3.76459 1.48529 0
M  V30 5640 H 522.829 -3.04595 0.702892 0
M  V30 5641 H 522.049 -2.42314 3.1093 0
M  V30 5642 H 523.337 -3.48305 3.70892 0
M  V30 5643 H 522.735 -5.51467 1.26097 0
M  V30 5644 H 521.292 -6.25728 1.82503 0
M  V30 5645 N 524.725 -1.39134 -0.740242 0
M  V30 5646 C 525.635 -1.39697 -1.88473 0
M  V30 5647 C 526.651 -0.292403 -1.71526 0
M  V30 5648 O 527.827 -0.533021 -1.94219 0
M  V30 5649 C 524.892 -1.23382 -3.24003 0
M  V30 5650 C 523.953 -2.43763 -3.53381 0
M  V30 5651 C 523.186 -2.28216 -4.82445 0
M  V30 5652 O 523.409 -1.28288 -5.55786 0
M  V30 5653 O 522.343 -3.1709 -5.11603 0
M  V30 5654 H 526.169 -2.36159 -1.90952 0
M  V30 5655 H 523.754 -1.20194 -0.887346 0
M  V30 5656 H 525.636 -1.16395 -4.05006 0
M  V30 5657 H 524.311 -0.300121 -3.22306 0
M  V30 5658 H 523.218 -2.56325 -2.72485 0
M  V30 5659 H 524.551 -3.35808 -3.59852 0
M  V30 5660 N 526.204 0.969867 -1.24223 0
M  V30 5661 C 527.152 2.08535 -1.03034 0
M  V30 5662 C 528.146 1.69366 0.0340379 0
M  V30 5663 O 529.352 1.79597 -0.12034 0
M  V30 5664 H 525.727 0.682313 -0.316154 0
M  V30 5665 H 527.698 2.23569 -1.97635 0
M  V30 5666 C 526.447 3.4158 -0.649509 0
M  V30 5667 H 525.77 3.72177 -1.46028 0
M  V30 5668 H 527.21 4.20536 -0.540841 0
M  V30 5669 C 525.669 3.30703 0.643194 0
M  V30 5670 O 526.199 3.64443 1.68951 0
M  V30 5671 N 524.405 2.83841 0.623095 0
M  V30 5672 H 523.952 2.56583 -0.228719 0
M  V30 5673 H 523.91 2.76946 1.48823 0
M  V30 5674 N 527.682 1.05563 1.17022 0
M  V30 5675 C 528.907 0.788437 1.91829 0
M  V30 5676 C 529.332 -0.650356 1.76499 0
M  V30 5677 O 528.69 -1.45229 1.08527 0
M  V30 5678 C 528.738 1.1786 3.40795 0
M  V30 5679 O 527.842 0.312965 4.11211 0
M  V30 5680 H 527.183 0.288794 0.597908 0
M  V30 5681 H 529.713 1.40948 1.48307 0
M  V30 5682 H 529.723 1.14697 3.91546 0
M  V30 5683 H 528.398 2.22666 3.51273 0
M  V30 5684 H 526.975 0.405515 3.70689 0
M  V30 5685 N 529.16 -1.33526 0.837174 0
M  V30 5686 C 530.09 -2.31764 0.284206 0
M  V30 5687 C 531.071 -1.58896 -0.607142 0
M  V30 5688 O 532.256 -1.86798 -0.531047 0
M  V30 5689 C 529.386 -3.43029 -0.542962 0
M  V30 5690 C 528.34 -4.27255 0.252451 0
M  V30 5691 C 527.666 -5.3012 -0.69836 0
M  V30 5692 C 528.966 -5.01229 1.46858 0
M  V30 5693 H 530.66 -2.78262 1.10502 0
M  V30 5694 H 528.206 -1.3378 0.532812 0
M  V30 5695 H 530.159 -4.1078 -0.940096 0
M  V30 5696 H 528.883 -2.95216 -1.39697 0
M  V30 5697 H 527.542 -3.61127 0.631124 0
M  V30 5698 H 527.19 -4.78564 -1.54872 0
M  V30 5699 H 526.89 -5.87353 -0.170274 0
M  V30 5700 H 528.414 -6.00737 -1.09305 0
M  V30 5701 H 529.828 -5.61756 1.14469 0
M  V30 5702 H 528.225 -5.68104 1.93333 0
M  V30 5703 H 529.295 -4.301 2.23924 0
M  V30 5704 N 530.638 -0.59345 -1.46 0
M  V30 5705 C 531.586 0.146268 -2.3214 0
M  V30 5706 C 532.58 0.873743 -1.45128 0
M  V30 5707 O 533.786 0.790912 -1.61693 0
M  V30 5708 H 530.161 0.0660349 -0.749095 0
M  V30 5709 H 532.132 -0.598895 -2.92328 0
M  V30 5710 C 530.881 1.1396 -3.28494 0
M  V30 5711 H 530.204 0.589252 -3.95434 0
M  V30 5712 H 531.644 1.62738 -3.91526 0
M  V30 5713 C 530.103 2.20604 -2.54628 0
M  V30 5714 O 530.633 3.28128 -2.31722 0
M  V30 5715 N 528.839 1.95502 -2.15005 0
M  V30 5716 H 528.386 1.0807 -2.33834 0
M  V30 5717 H 528.344 2.67064 -1.65904 0
M  V30 5718 N 532.116 1.54067 -0.331816 0
M  V30 5719 C 533.048 2.22139 0.564538 0
M  V30 5720 C 534.061 1.22408 1.07332 0
M  V30 5721 O 535.25 1.4883 0.985481 0
M  V30 5722 C 532.35 2.87876 1.78831 0
M  V30 5723 C 531.523 4.13817 1.41682 0
M  V30 5724 C 530.582 4.63072 2.49901 0
M  V30 5725 O 529.608 5.27562 2.13699 0
M  V30 5726 N 530.81 4.38001 3.80967 0
M  V30 5727 H 533.575 2.99694 -0.0183736 0
M  V30 5728 H 531.136 1.61153 -0.155396 0
M  V30 5729 H 533.128 3.17747 2.50637 0
M  V30 5730 H 531.698 2.13977 2.27887 0
M  V30 5731 H 530.918 3.9062 0.530044 0
M  V30 5732 H 532.206 4.95762 1.14443 0
M  V30 5733 H 531.604 3.864 4.13173 0
M  V30 5734 H 530.161 4.72507 4.48977 0
M  V30 5735 O 533.633 0.19963 1.60261 0
M  V30 5736 H 534.324 -0.384961 1.89836 0
M  V30 END ATOM
M  V30 BEGIN BOND
M  V30 END BOND
M  V30 END CTAB
M  END
$$$$
