drugbank_target|Q9U8D3 Adenylosuccinate synthetase (DB02109; DB03510; DB04315)
 OpenBabel12092120243D

  0  0  0     0  0            999 V3000
M  V30 BEGIN CTAB
M  V30 COUNTS 7087 7151 0 0 0
M  V30 BEGIN ATOM
M  V30 1 H -0.908 1.98254 -0.117106 0
M  V30 2 N 0 1.576 0 0
M  V30 3 C 0.933 2.03868 1.02534 0
M  V30 4 C 1.911 0.928543 1.3348 0
M  V30 5 O 3.095 1.19667 1.45644 0
M  V30 6 C 0.222 2.43627 2.35294 0
M  V30 7 C -0.732 3.65373 2.2001 0
M  V30 8 S 0.101 5.13292 1.52614 0
M  V30 9 C 1.257 5.56322 2.86805 0
M  V30 10 H 1.49 2.90518 0.631377 0
M  V30 11 H -0.977 1.52953 0.210867 0
M  V30 12 H 0.981 2.67203 3.11629 0
M  V30 13 H -0.358 1.57376 2.7183 0
M  V30 14 H -1.165 3.90944 3.18086 0
M  V30 15 H -1.563 3.418 1.51819 0
M  V30 16 H 0.729 5.58782 3.83104 0
M  V30 17 H 1.672 6.56266 2.65933 0
M  V30 18 H 2.08 4.83886 2.90714 0
M  V30 19 N 1.4781 -0.272755 1.55222 0
M  V30 20 C 2.4261 -1.35705 1.88909 0
M  V30 21 C 3.4201 -1.5112 0.765456 0
M  V30 22 O 4.6261 -1.52901 0.949802 0
M  V30 23 H 1.0011 -0.453868 0.59959 0
M  V30 24 H 2.9721 -1.04544 2.79487 0
M  V30 25 C 1.7211 -2.71049 2.17779 0
M  V30 26 H 1.0441 -2.59979 3.03728 0
M  V30 27 H 2.4841 -3.45858 2.45272 0
M  V30 28 C 0.9431 -3.22165 0.985473 0
M  V30 29 O 1.4731 -4.01096 0.220233 0
M  V30 30 N -0.3209 -2.7985 0.783108 0
M  V30 31 H -0.7739 -2.15775 1.40708 0
M  V30 32 H -0.8159 -3.14397 -0.0130392 0
M  V30 33 N 2.9562 -1.48159 -0.537278 0
M  V30 34 C 4.2052 -1.5506 -1.28993 0
M  V30 35 C 4.5182 -0.226211 -1.94288 0
M  V30 36 O 5.7242 -0.173395 -2.70946 0
M  V30 37 C 4.1802 -2.73429 -2.34018 0
M  V30 38 C 3.7882 -4.1248 -1.74825 0
M  V30 39 C 5.5322 -2.89638 -3.10339 0
M  V30 40 C 3.4392 -5.22121 -2.77747 0
M  V30 41 H 2.3692 -0.577231 -0.485098 0
M  V30 42 H 5.0202 -1.74478 -0.568317 0
M  V30 43 H 3.4022 -2.47431 -3.09182 0
M  V30 44 H 4.5762 -4.48466 -1.05899 0
M  V30 45 H 2.8912 -4.01327 -1.11022 0
M  V30 46 H 5.4882 -3.68718 -3.87235 0
M  V30 47 H 5.8312 -1.9882 -3.65754 0
M  V30 48 H 6.3642 -3.15502 -2.42288 0
M  V30 49 H 3.1032 -6.1488 -2.27161 0
M  V30 50 H 2.6232 -4.90631 -3.45024 0
M  V30 51 H 4.3022 -5.49924 -3.4087 0
M  V30 52 N 4.4343 0.785586 -1.36625 0
M  V30 53 C 5.6813 1.54362 -1.31067 0
M  V30 54 C 6.0093 1.94195 0.10893 0
M  V30 55 O 5.2643 1.63262 1.07908 0
M  V30 56 C 5.5633 2.83007 -2.1827 0
M  V30 57 C 5.2293 2.62294 -3.6676 0
M  V30 58 C 3.8913 2.56353 -4.0723 0
M  V30 59 C 6.2433 2.43371 -4.6089 0
M  V30 60 C 3.5713 2.29461 -5.39967 0
M  V30 61 C 5.9233 2.18005 -5.93849 0
M  V30 62 C 4.5873 2.105 -6.3344 0
M  V30 63 H 3.8573 0.564851 -0.479609 0
M  V30 64 H 6.5043 0.906028 -1.68711 0
M  V30 65 H 4.8093 3.51253 -1.73576 0
M  V30 66 H 6.5063 3.40817 -2.11292 0
M  V30 67 H 3.0963 2.67774 -3.34656 0
M  V30 68 H 7.2803 2.46959 -4.30494 0
M  V30 69 H 2.5363 2.22135 -5.69619 0
M  V30 70 H 6.7103 2.02359 -6.66351 0
M  V30 71 H 4.3373 1.89425 -7.36222 0
M  V30 72 N 5.9124 1.20967 1.01018 0
M  V30 73 C 7.1894 0.93264 1.71934 0
M  V30 74 C 7.5694 -0.55692 2.03621 0
M  V30 75 O 6.9174 -1.52035 1.7058 0
M  V30 76 C 7.1274 1.81233 2.98254 0
M  V30 77 C 8.4754 2.05804 3.71389 0
M  V30 78 O 9.4994 1.78539 3.08225 0
M  V30 79 O 8.3584 2.51888 4.84989 0
M  V30 80 H 5.4524 0.349272 0.749625 0
M  V30 81 H 7.9984 1.31871 1.06808 0
M  V30 82 H 6.7704 2.82067 2.71208 0
M  V30 83 H 6.3934 1.42674 3.7112 0
M  V30 84 N 7.3905 -1.2043 1.01659 0
M  V30 85 C 8.3405 -2.21076 0.557623 0
M  V30 86 C 9.3245 -1.56176 -0.387029 0
M  V30 87 O 10.5165 -1.7575 -0.209996 0
M  V30 88 C 7.6455 -3.43146 -0.102707 0
M  V30 89 C 6.7315 -4.15213 0.863652 0
M  V30 90 N 7.1225 -4.63662 2.02117 0
M  V30 91 C 5.4205 -4.40716 0.684472 0
M  V30 92 C 6.1215 -5.18868 2.62966 0
M  V30 93 N 5.0975 -5.0893 1.91027 0
M  V30 94 H 8.8995 -2.56201 1.44008 0
M  V30 95 H 6.4135 -1.36366 0.881931 0
M  V30 96 H 8.4105 -4.14475 -0.449054 0
M  V30 97 H 7.0705 -3.09526 -0.981003 0
M  V30 98 H 8.0815 -4.58877 2.40109 0
M  V30 99 H 4.7585 -4.17245 -0.14577 0
M  V30 100 H 6.1485 -5.6673 3.60924 0
M  V30 101 N 8.8686 -0.792821 -1.36206 0
M  V30 102 C 9.8006 -0.151469 -2.28699 0
M  V30 103 C 10.8136 0.641262 -1.49638 0
M  V30 104 O 12.0026 0.475885 -1.72039 0
M  V30 105 C 9.1026 0.808424 -3.29117 0
M  V30 106 C 8.2756 0.0650202 -4.37352 0
M  V30 107 C 7.3346 0.941358 -5.17711 0
M  V30 108 O 6.3606 0.397352 -5.67811 0
M  V30 109 N 7.5626 2.2652 -5.3448 0
M  V30 110 H 10.3276 -0.945982 -2.84379 0
M  V30 111 H 7.8886 -0.647032 -1.48409 0
M  V30 112 H 9.8806 1.3986 -3.79765 0
M  V30 113 H 8.4506 1.5038 -2.74052 0
M  V30 114 H 7.6706 -0.706255 -3.87822 0
M  V30 115 H 8.9586 -0.447847 -5.06825 0
M  V30 116 H 8.3566 2.73128 -4.95396 0
M  V30 117 H 6.9136 2.80493 -5.88359 0
M  V30 118 N 10.3467 1.47872 -0.545128 0
M  V30 119 C 11.5957 2.01695 -0.0145033 0
M  V30 120 C 11.9087 1.42609 1.33873 0
M  V30 121 O 13.1147 1.88021 1.95858 0
M  V30 122 C 11.5707 3.59892 0.0245068 0
M  V30 123 C 11.1787 4.27966 -1.32475 0
M  V30 124 C 12.9227 4.21507 0.50316 0
M  V30 125 C 10.8297 5.78136 -1.2455 0
M  V30 126 H 9.7597 0.753998 -0.00165172 0
M  V30 127 H 12.4107 1.69985 -0.691175 0
M  V30 128 H 10.7927 3.88509 0.766575 0
M  V30 129 H 11.9667 4.11003 -2.08357 0
M  V30 130 H 10.2817 3.78286 -1.74036 0
M  V30 131 H 12.8787 5.31538 0.580656 0
M  V30 132 H 13.2217 3.87855 1.51243 0
M  V30 133 H 13.7547 3.97376 -0.183681 0
M  V30 134 H 10.4937 6.16388 -2.23039 0
M  V30 135 H 10.0137 5.97469 -0.528282 0
M  V30 136 H 11.6927 6.40099 -0.942488 0
M  V30 137 N 11.8248 0.280983 1.55075 0
M  V30 138 C 12.7718 -0.603937 2.22758 0
M  V30 139 C 13.7418 -1.1452 1.20309 0
M  V30 140 O 14.9268 -1.19343 1.48869 0
M  V30 141 C 12.0668 -1.77947 2.95684 0
M  V30 142 C 11.1798 -1.2715 4.12864 0
M  V30 143 C 10.3148 -2.4093 4.7342 0
M  V30 144 C 9.3538 -1.87165 5.82783 0
M  V30 145 N 8.4908 -2.94441 6.37377 0
M  V30 146 H 13.3308 -0.020124 2.97993 0
M  V30 147 H 10.8678 0.00183425 1.471 0
M  V30 148 H 12.8258 -2.47055 3.36184 0
M  V30 149 H 11.4558 -2.33522 2.22861 0
M  V30 150 H 10.5078 -0.473331 3.77444 0
M  V30 151 H 11.8198 -0.837751 4.91715 0
M  V30 152 H 10.9738 -3.18021 5.1667 0
M  V30 153 H 9.7128 -2.87623 3.93859 0
M  V30 154 H 8.7178 -1.08556 5.38976 0
M  V30 155 H 9.9428 -1.41401 6.64216 0
M  V30 156 H 7.8888 -3.40505 5.60707 0
M  V30 157 H 7.8058 -2.55501 7.11516 0
M  V30 158 H 9.0738 -3.71489 6.85285 0
M  V30 159 N 13.3029 -1.57598 0.00835791 0
M  V30 160 C 14.2509 -2.10078 -0.998508 0
M  V30 161 C 15.2449 -1.02262 -1.35051 0
M  V30 162 O 16.4509 -1.20719 -1.33518 0
M  V30 163 H 12.8259 -0.670903 -0.339696 0
M  V30 164 H 14.7969 -2.93648 -0.530398 0
M  V30 165 C 13.5459 -2.62615 -2.27879 0
M  V30 166 H 12.8689 -3.45213 -2.01662 0
M  V30 167 H 14.3089 -3.03004 -2.96588 0
M  V30 168 C 12.7679 -1.54407 -2.99433 0
M  V30 169 O 13.2979 -0.931812 -3.90743 0
M  V30 170 N 11.5039 -1.2695 -2.61404 0
M  V30 171 H 11.0509 -1.76924 -1.87232 0
M  V30 172 H 11.0089 -0.547704 -3.09593 0
M  V30 173 N 14.781 0.264519 -1.55364 0
M  V30 174 C 16.027 0.99646 -1.76631 0
M  V30 175 C 16.36 1.85632 -0.570478 0
M  V30 176 O 15.635 1.89647 0.43175 0
M  V30 177 C 15.918 1.87187 -3.07625 0
M  V30 178 C 15.771 1.04138 -4.37579 0
M  V30 179 C 17.09 2.85749 -3.34717 0
M  V30 180 H 14.209 0.360841 -0.642622 0
M  V30 181 H 16.851 0.268218 -1.88097 0
M  V30 182 H 15.001 2.49279 -2.9798 0
M  V30 183 H 16.673 0.440517 -4.59192 0
M  V30 184 H 14.916 0.345115 -4.32425 0
M  V30 185 H 15.587 1.68729 -5.2558 0
M  V30 186 H 18.063 2.33793 -3.4421 0
M  V30 187 H 16.939 3.44136 -4.27623 0
M  V30 188 H 17.2 3.61311 -2.54768 0
M  V30 189 N 16.2591 1.48442 0.529413 0
M  V30 190 C 17.5361 1.46978 1.29062 0
M  V30 191 C 17.9161 0.181769 2.10316 0
M  V30 192 O 17.2641 -0.836481 2.12639 0
M  V30 193 C 17.4741 2.7321 2.17157 0
M  V30 194 C 18.8221 3.21562 2.77278 0
M  V30 195 O 19.8461 2.74131 2.27444 0
M  V30 196 O 18.7051 4.04094 3.67927 0
M  V30 197 H 15.7991 0.587003 0.582543 0
M  V30 198 H 18.3451 1.60676 0.546021 0
M  V30 199 H 17.1171 3.58465 1.56903 0
M  V30 200 H 16.7401 2.62235 2.98862 0
M  V30 201 N 17.7372 -0.778329 1.37039 0
M  V30 202 C 18.6842 -1.89139 1.32269 0
M  V30 203 C 19.6542 -1.65017 0.189387 0
M  V30 204 O 20.8392 -1.87024 0.377693 0
M  V30 205 C 17.9792 -3.26112 1.12894 0
M  V30 206 C 17.0922 -3.62233 2.35396 0
M  V30 207 C 16.2272 -4.8838 2.08946 0
M  V30 208 C 15.2662 -5.17212 3.2735 0
M  V30 209 N 14.4032 -6.34546 3.00492 0
M  V30 210 H 19.2432 -1.92552 2.27437 0
M  V30 211 H 16.7802 -0.941473 1.13025 0
M  V30 212 H 18.7382 -4.05116 0.996835 0
M  V30 213 H 17.3682 -3.22091 0.213758 0
M  V30 214 H 16.4202 -2.78265 2.5937 0
M  V30 215 H 17.7322 -3.79481 3.23721 0
M  V30 216 H 16.8862 -5.75274 1.92729 0
M  V30 217 H 15.6252 -4.73222 1.17949 0
M  V30 218 H 14.6302 -4.28796 3.44113 0
M  V30 219 H 15.8552 -5.34283 4.19188 0
M  V30 220 H 13.8012 -6.20759 2.12118 0
M  V30 221 H 13.7182 -6.52179 3.82358 0
M  V30 222 H 14.9862 -7.24394 2.87879 0
M  V30 223 N 19.2153 -1.21501 -1.00376 0
M  V30 224 C 20.4633 -1.03095 -1.73827 0
M  V30 225 C 20.7843 0.436341 -1.90055 0
M  V30 226 O 20.0543 1.31466 -1.45236 0
M  V30 227 H 18.6343 -0.378487 -0.644016 0
M  V30 228 H 21.2963 -1.52831 -1.20949 0
M  V30 229 H 20.3923 -1.49991 -2.73695 0
M  V30 230 N 20.6934 1.19889 -1.02296 0
M  V30 231 C 21.6414 2.24938 -0.592081 0
M  V30 232 C 22.6354 1.65257 0.372357 0
M  V30 233 O 23.8414 1.78371 0.241583 0
M  V30 234 H 20.2164 0.731787 -0.173182 0
M  V30 235 H 22.1874 2.58603 -1.48885 0
M  V30 236 C 20.9364 3.47668 0.047351 0
M  V30 237 H 20.2594 3.93875 -0.685772 0
M  V30 238 H 21.6994 4.22852 0.311862 0
M  V30 239 C 20.1584 3.11136 1.29212 0
M  V30 240 O 20.6884 3.2325 2.38479 0
M  V30 241 N 18.8944 2.65625 1.17863 0
M  V30 242 H 18.4414 2.55968 0.289493 0
M  V30 243 H 18.3994 2.41553 2.01245 0
M  V30 244 N 22.1715 0.800033 1.35784 0
M  V30 245 C 23.4175 0.377901 1.99248 0
M  V30 246 C 23.7505 -1.05052 1.63333 0
M  V30 247 O 23.0255 -1.72768 0.893385 0
M  V30 248 C 23.3085 0.553922 3.55814 0
M  V30 249 C 23.1615 2.0268 4.01548 0
M  V30 250 C 24.4805 -0.0244802 4.40093 0
M  V30 251 H 21.5995 0.138782 0.723815 0
M  V30 252 H 24.2415 1.00835 1.61035 0
M  V30 253 H 22.3915 0.0172398 3.88496 0
M  V30 254 H 24.0635 2.62536 3.79305 0
M  V30 255 H 22.3065 2.5256 3.52698 0
M  V30 256 H 22.9775 2.10087 5.10458 0
M  V30 257 H 25.4535 0.433775 4.13833 0
M  V30 258 H 24.3295 0.128637 5.48749 0
M  V30 259 H 24.5905 -1.11758 4.27741 0
M  V30 260 N 23.6496 -1.47581 0.552962 0
M  V30 261 C 24.8956 -2.02782 0.0273648 0
M  V30 262 C 25.2286 -1.42687 -1.31734 0
M  V30 263 O 24.5036 -0.580897 -1.85623 0
M  V30 264 C 24.7866 -3.60031 -0.0702371 0
M  V30 265 C 24.6396 -4.30566 1.30126 0
M  V30 266 C 25.9586 -4.33028 -0.785771 0
M  V30 267 H 23.0776 -0.736912 0.0114185 0
M  V30 268 H 25.7196 -1.76056 0.714432 0
M  V30 269 H 23.8696 -3.82932 -0.655382 0
M  V30 270 H 25.5416 -4.19018 1.92929 0
M  V30 271 H 23.7846 -3.91086 1.87709 0
M  V30 272 H 24.4556 -5.39114 1.18573 0
M  V30 273 H 26.9316 -4.15095 -0.288982 0
M  V30 274 H 25.8076 -5.42695 -0.823013 0
M  V30 275 H 26.0686 -4.01945 -1.841 0
M  V30 276 N 25.1277 -0.289203 -1.54924 0
M  V30 277 C 26.0907 0.579144 -2.21762 0
M  V30 278 C 27.0907 1.07047 -1.1999 0
M  V30 279 O 28.2807 0.968384 -1.44803 0
M  V30 280 C 25.4127 1.80055 -2.8947 0
M  V30 281 H 26.6057 -0.00464908 -2.999 0
M  V30 282 H 24.1587 -0.0399306 -1.56249 0
M  V30 283 H 24.8937 2.42449 -2.15381 0
M  V30 284 H 24.6787 1.45602 -3.64064 0
M  V30 285 H 26.1687 2.41773 -3.40493 0
M  V30 286 N 26.6058 1.57591 -0.0167156 0
M  V30 287 C 27.8548 1.90461 0.663877 0
M  V30 288 C 28.1678 0.893515 1.73999 0
M  V30 289 O 29.3738 1.11302 2.47637 0
M  V30 290 C 27.8298 3.38155 1.23204 0
M  V30 291 C 27.4378 4.47597 0.189866 0
M  V30 292 C 29.1818 3.80111 1.88986 0
M  V30 293 C 27.0888 5.86379 0.768964 0
M  V30 294 H 26.0188 0.710738 0.251729 0
M  V30 295 H 28.6698 1.83326 -0.0799926 0
M  V30 296 H 27.0518 3.40182 2.02712 0
M  V30 297 H 28.2258 4.57112 -0.581846 0
M  V30 298 H 26.5408 4.14766 -0.368475 0
M  V30 299 H 29.1378 4.81145 2.33247 0
M  V30 300 H 29.4808 3.14511 2.72743 0
M  V30 301 H 30.0138 3.80454 1.16187 0
M  V30 302 H 26.7528 6.55493 -0.0301957 0
M  V30 303 H 26.2728 5.80496 1.50945 0
M  V30 304 H 27.9518 6.34563 1.26251 0
M  V30 305 N 28.0839 -0.256276 1.55502 0
M  V30 306 C 29.0139 -1.32102 1.92539 0
M  V30 307 C 29.9949 -1.50684 0.789194 0
M  V30 308 O 31.1799 -1.63449 1.04872 0
M  V30 309 C 28.3099 -2.67752 2.21192 0
M  V30 310 C 27.2639 -2.63878 3.36975 0
M  V30 311 C 26.5899 -4.03236 3.51147 0
M  V30 312 C 27.8899 -2.21682 4.72921 0
M  V30 313 H 29.5839 -1.01351 2.81724 0
M  V30 314 H 27.1299 -0.486105 1.35547 0
M  V30 315 H 29.0829 -3.42365 2.45691 0
M  V30 316 H 27.8069 -3.0012 1.28824 0
M  V30 317 H 26.4659 -1.91722 3.12471 0
M  V30 318 H 26.1139 -4.32854 2.56216 0
M  V30 319 H 25.8139 -4.01535 4.29003 0
M  V30 320 H 27.3379 -4.79563 3.77957 0
M  V30 321 H 28.7519 -2.86023 4.96854 0
M  V30 322 H 27.1489 -2.3111 5.53812 0
M  V30 323 H 28.2189 -1.16833 4.70615 0
M  V30 324 N 29.562 -1.4872 -0.521534 0
M  V30 325 C 30.81 -1.56857 -1.27437 0
M  V30 326 C 31.131 -0.247982 -1.93417 0
M  V30 327 O 30.401 0.731151 -1.81744 0
M  V30 328 H 28.981 -0.577885 -0.473347 0
M  V30 329 H 31.643 -1.85233 -0.606205 0
M  V30 330 H 30.739 -2.35402 -2.0492 0
M  V30 331 N 31.0401 0.771051 -1.3745 0
M  V30 332 C 32.0031 1.86598 -1.33093 0
M  V30 333 C 33.0031 1.59076 -0.234845 0
M  V30 334 O 34.1931 1.67145 -0.490732 0
M  V30 335 C 31.3251 3.23747 -1.06773 0
M  V30 336 H 32.5181 1.91873 -2.30488 0
M  V30 337 H 30.0711 0.970876 -1.2249 0
M  V30 338 H 30.8061 3.24148 -0.099129 0
M  V30 339 H 30.5911 3.45115 -1.86112 0
M  V30 340 H 32.0811 4.03824 -1.06377 0
M  V30 341 N 32.5182 1.22032 0.997298 0
M  V30 342 C 33.4502 0.944263 2.08845 0
M  V30 343 C 34.4632 -0.0754663 1.62625 0
M  V30 344 O 35.6522 0.157994 1.77799 0
M  V30 345 C 32.7522 0.397723 3.36558 0
M  V30 346 C 31.9252 1.47362 4.11829 0
M  V30 347 C 30.9842 0.934951 5.17827 0
M  V30 348 O 30.0102 1.62016 5.45655 0
M  V30 349 N 31.2122 -0.245895 5.79979 0
M  V30 350 H 33.9772 1.88363 2.33109 0
M  V30 351 H 31.5382 1.12661 1.16272 0
M  V30 352 H 33.5302 0.0227771 4.04694 0
M  V30 353 H 32.1002 -0.446646 3.09393 0
M  V30 354 H 31.3202 2.02208 3.38386 0
M  V30 355 H 32.6082 2.19764 4.58891 0
M  V30 356 H 32.0062 -0.819475 5.59733 0
M  V30 357 H 30.5632 -0.562272 6.4937 0
M  V30 358 N 33.9963 -1.19345 1.0293 0
M  V30 359 C 35.2423 -1.89585 0.736824 0
M  V30 360 C 35.5973 -1.78148 -0.726703 0
M  V30 361 O 34.8903 -1.16332 -1.52242 0
M  V30 362 C 35.0843 -3.39292 1.12319 0
M  V30 363 C 34.9133 -3.65298 2.62273 0
M  V30 364 C 33.6833 -3.83304 3.29251 0
M  V30 365 C 35.8813 -3.6682 3.60482 0
M  V30 366 N 33.8633 -3.96944 4.68304 0
M  V30 367 C 35.2343 -3.86037 4.85155 0
M  V30 368 C 37.2893 -3.49848 3.54275 0
M  V30 369 C 35.9923 -3.9004 6.04369 0
M  V30 370 C 38.0183 -3.55129 4.72903 0
M  V30 371 C 37.3803 -3.74831 5.9639 0
M  V30 372 H 33.4793 -0.712856 0.321497 0
M  V30 373 H 36.0633 -1.43427 1.31669 0
M  V30 374 H 34.2343 -3.84172 0.571524 0
M  V30 375 H 35.9663 -3.97055 0.78292 0
M  V30 376 H 32.7213 -3.82211 2.79663 0
M  V30 377 H 33.1453 -4.07613 5.40538 0
M  V30 378 H 37.7873 -3.33572 2.59788 0
M  V30 379 H 35.5053 -4.05108 6.99223 0
M  V30 380 H 39.0913 -3.43287 4.69729 0
M  V30 381 H 37.9713 -3.78792 6.86649 0
M  V30 382 N 35.4744 -0.807222 -1.35358 0
M  V30 383 C 36.7224 -0.387122 -1.98358 0
M  V30 384 C 37.0434 1.04942 -1.64354 0
M  V30 385 O 36.3134 1.72615 -0.926339 0
M  V30 386 H 34.8934 -0.140154 -0.733734 0
M  V30 387 H 37.5554 -1.0332 -1.6526 0
M  V30 388 H 36.6514 -0.493352 -3.08176 0
M  V30 389 N 36.9525 1.47285 -0.560781 0
M  V30 390 C 38.2295 1.9558 0.0277798 0
M  V30 391 C 38.6095 1.5034 1.48192 0
M  V30 392 O 37.9575 0.743882 2.16052 0
M  V30 393 C 38.1675 3.48789 -0.121418 0
M  V30 394 C 39.5155 4.24594 0.0220912 0
M  V30 395 O 40.5395 3.56166 -0.0491439 0
M  V30 396 O 39.3985 5.46217 0.175958 0
M  V30 397 H 36.4925 0.824663 0.0621342 0
M  V30 398 H 39.0385 1.5767 -0.627556 0
M  V30 399 H 37.8105 3.74533 -1.13316 0
M  V30 400 H 37.4335 3.93473 0.571366 0
M  V30 401 N 38.4306 0.297415 1.54768 0
M  V30 402 C 39.3406 -0.58983 2.27064 0
M  V30 403 C 40.3566 -1.15144 1.30453 0
M  V30 404 O 41.5326 -1.17699 1.63428 0
M  V30 405 C 38.5976 -1.74714 2.9946 0
M  V30 406 C 37.6586 -1.21997 4.11601 0
M  V30 407 C 36.8916 -2.32212 4.80535 0
M  V30 408 O 37.1146 -3.52036 4.48806 0
M  V30 409 O 36.0486 -1.99106 5.68014 0
M  V30 410 H 39.8746 -0.00348199 3.037 0
M  V30 411 H 37.4596 0.0640035 1.49263 0
M  V30 412 H 39.3416 -2.42147 3.44881 0
M  V30 413 H 38.0166 -2.32016 2.25722 0
M  V30 414 H 36.9236 -0.511458 3.70587 0
M  V30 415 H 38.2566 -0.692419 4.87305 0
M  V30 416 N 39.9087 -1.5758 0.0250728 0
M  V30 417 C 41.1567 -1.91255 -0.653151 0
M  V30 418 C 41.4777 -0.901691 -1.729 0
M  V30 419 O 40.7477 0.0573785 -1.95816 0
M  V30 420 H 39.3277 -0.705942 -0.244243 0
M  V30 421 H 41.9897 -1.94767 0.0719209 0
M  V30 422 H 41.0857 -2.91752 -1.10847 0
M  V30 423 N 41.3868 0.248026 -1.55636 0
M  V30 424 C 42.3338 1.30707 -1.90222 0
M  V30 425 C 43.3038 1.47881 -0.756332 0
M  V30 426 O 44.4888 1.61883 -1.00988 0
M  V30 427 C 41.6288 2.65769 -2.20138 0
M  V30 428 C 40.7418 2.56612 -3.47526 0
M  V30 429 C 39.8768 3.8402 -3.67017 0
M  V30 430 C 38.9158 3.69476 -4.8801 0
M  V30 431 N 38.0528 4.88774 -5.04029 0
M  V30 432 H 42.8928 1.00512 -2.80538 0
M  V30 433 H 40.4298 0.485055 -1.38873 0
M  V30 434 H 42.3878 3.44386 -2.35487 0
M  V30 435 H 41.0178 2.94115 -1.33027 0
M  V30 436 H 40.0698 1.69571 -3.40514 0
M  V30 437 H 41.3818 2.41774 -4.36287 0
M  V30 438 H 40.5358 4.7108 -3.8232 0
M  V30 439 H 39.2748 4.01754 -2.76487 0
M  V30 440 H 38.2798 2.80799 -4.72686 0
M  V30 441 H 39.5048 3.53238 -5.8 0
M  V30 442 H 37.4508 5.0687 -4.16435 0
M  V30 443 H 37.3678 4.76562 -5.86877 0
M  V30 444 H 38.6358 5.77335 -5.23741 0
M  V30 445 N 42.8649 1.48995 0.513639 0
M  V30 446 C 44.1129 1.57531 1.26604 0
M  V30 447 C 44.4339 0.258236 1.93283 0
M  V30 448 O 43.7039 -0.721502 1.8213 0
M  V30 449 H 42.2839 0.580387 0.470276 0
M  V30 450 H 44.9459 1.85552 0.596373 0
M  V30 451 H 44.0419 2.36486 2.03669 0
M  V30 452 N 44.343 -0.763751 1.37857 0
M  V30 453 C 45.29 -1.87726 1.34267 0
M  V30 454 C 46.26 -1.64807 0.206879 0
M  V30 455 O 47.445 -1.86613 0.397508 0
M  V30 456 C 44.585 -3.24896 1.16346 0
M  V30 457 C 43.698 -3.59716 2.39225 0
M  V30 458 C 42.833 -4.86137 2.14114 0
M  V30 459 C 41.872 -5.13711 3.32817 0
M  V30 460 N 41.009 -6.31323 3.07206 0
M  V30 461 H 45.849 -1.90129 2.29466 0
M  V30 462 H 43.386 -0.929433 1.14017 0
M  V30 463 H 45.344 -4.04036 1.03975 0
M  V30 464 H 43.974 -3.21847 0.247909 0
M  V30 465 H 43.026 -2.75498 2.62307 0
M  V30 466 H 44.338 -3.76027 3.27728 0
M  V30 467 H 43.492 -5.73198 1.9882 0
M  V30 468 H 42.231 -4.71945 1.22961 0
M  V30 469 H 41.236 -4.25123 3.48641 0
M  V30 470 H 42.461 -5.29807 4.24832 0
M  V30 471 H 40.407 -6.18474 2.1869 0
M  V30 472 H 40.324 -6.48087 3.89254 0
M  V30 473 H 41.592 -7.213 2.95546 0
M  V30 474 N 45.8211 -1.22559 -0.990812 0
M  V30 475 C 47.0701 -1.04553 -1.72486 0
M  V30 476 C 47.3831 0.419349 -1.91052 0
M  V30 477 O 48.5891 0.719121 -2.61803 0
M  V30 478 C 47.0451 -1.82231 -3.10355 0
M  V30 479 C 46.6531 -3.32981 -2.99713 0
M  V30 480 C 48.3971 -1.7268 -3.87791 0
M  V30 481 C 46.3041 -4.03091 -4.32748 0
M  V30 482 H 45.2341 -0.387614 -0.646739 0
M  V30 483 H 47.8851 -1.46429 -1.10593 0
M  V30 484 H 46.2671 -1.33155 -3.72942 0
M  V30 485 H 47.4411 -3.89466 -2.46278 0
M  V30 486 H 45.7561 -3.43231 -2.35758 0
M  V30 487 H 48.3531 -2.22381 -4.86262 0
M  V30 488 H 48.6961 -0.687607 -4.10582 0
M  V30 489 H 49.2291 -2.1931 -3.31885 0
M  V30 490 H 45.9681 -5.07273 -4.15156 0
M  V30 491 H 45.4881 -3.51394 -4.86089 0
M  V30 492 H 47.1671 -4.08804 -5.01486 0
M  V30 493 N 47.2992 1.18797 -1.03562 0
M  V30 494 C 48.5482 1.87978 -0.731235 0
M  V30 495 C 48.8612 1.80911 0.743671 0
M  V30 496 O 50.0672 2.45407 1.16137 0
M  V30 497 C 48.5232 3.3721 -1.25768 0
M  V30 498 C 48.1312 3.52818 -2.76085 0
M  V30 499 C 49.8752 4.11825 -1.0296 0
M  V30 500 C 47.7822 4.9598 -3.22114 0
M  V30 501 H 46.7122 0.704063 -0.269835 0
M  V30 502 H 49.3632 1.34266 -1.25079 0
M  V30 503 H 47.7452 3.90359 -0.666011 0
M  V30 504 H 48.9192 3.09965 -3.40966 0
M  V30 505 H 47.2342 2.91602 -2.97249 0
M  V30 506 H 49.8312 5.17411 -1.34869 0
M  V30 507 H 50.1742 4.16287 0.0333546 0
M  V30 508 H 50.7072 3.64833 -1.58562 0
M  V30 509 H 47.4462 4.96684 -4.27768 0
M  V30 510 H 46.9662 5.39569 -2.61965 0
M  V30 511 H 48.6452 5.6467 -3.15844 0
M  V30 512 N 48.7773 0.814389 1.34928 0
M  V30 513 C 50.0543 0.321363 1.92942 0
M  V30 514 C 50.4343 -1.19014 1.74353 0
M  V30 515 O 49.7823 -1.99328 1.11716 0
M  V30 516 C 49.9923 0.741323 3.41036 0
M  V30 517 C 51.3403 0.735266 4.18185 0
M  V30 518 O 52.3643 0.68336 3.49584 0
M  V30 519 O 51.2233 0.800703 5.40602 0
M  V30 520 H 48.3173 0.0858893 0.822528 0
M  V30 521 H 50.8633 0.898609 1.43955 0
M  V30 522 H 49.6353 1.78276 3.4833 0
M  V30 523 H 49.2583 0.139307 3.97356 0
M  V30 524 N 50.2554 -1.46986 0.568584 0
M  V30 525 C 51.1884 -2.27129 -0.220779 0
M  V30 526 C 52.1664 -1.34757 -0.909905 0
M  V30 527 O 53.3504 -1.64152 -0.926622 0
M  V30 528 C 50.4774 -3.12108 -1.31553 0
M  V30 529 C 49.5234 -4.20141 -0.733748 0
M  V30 530 S 50.3564 -5.33783 0.428479 0
M  V30 531 C 51.5124 -6.22327 -0.667811 0
M  V30 532 H 51.7454 -2.93731 0.459267 0
M  V30 533 H 49.2784 -1.5026 0.355154 0
M  V30 534 H 51.2364 -3.61636 -1.94241 0
M  V30 535 H 49.8974 -2.44847 -1.96746 0
M  V30 536 H 49.0904 -4.79373 -1.5562 0
M  V30 537 H 48.6924 -3.73553 -0.182812 0
M  V30 538 H 50.9844 -6.59364 -1.55708 0
M  V30 539 H 51.9274 -7.0801 -0.11258 0
M  V30 540 H 52.3354 -5.5618 -0.965601 0
M  V30 541 N 51.7335 -0.305618 -1.54608 0
M  V30 542 C 52.6635 0.561482 -2.26649 0
M  V30 543 C 53.6445 1.13415 -1.26772 0
M  V30 544 O 54.8295 1.16262 -1.55553 0
M  V30 545 C 51.9595 1.73122 -3.01075 0
M  V30 546 C 50.9135 1.2887 -4.08138 0
M  V30 547 C 50.2395 2.54396 -4.70305 0
M  V30 548 C 51.5395 0.416578 -5.20636 0
M  V30 549 H 53.2335 -0.0393902 -2.99374 0
M  V30 550 H 50.7795 -0.020385 -1.43986 0
M  V30 551 H 52.7325 2.34396 -3.50195 0
M  V30 552 H 51.4565 2.3584 -2.25936 0
M  V30 553 H 50.1155 0.698991 -3.59875 0
M  V30 554 H 49.7635 3.15439 -3.918 0
M  V30 555 H 49.4635 2.25486 -5.42614 0
M  V30 556 H 50.9875 3.16464 -5.2219 0
M  V30 557 H 52.4015 0.935116 -5.65622 0
M  V30 558 H 50.7985 0.221046 -5.99693 0
M  V30 559 H 51.8685 -0.557162 -4.81688 0
M  V30 560 N 53.2116 1.57565 -0.0334293 0
M  V30 561 C 54.4366 1.96689 0.657895 0
M  V30 562 C 54.8616 0.910057 1.64619 0
M  V30 563 O 54.2196 -0.128598 1.80843 0
M  V30 564 C 54.2676 3.34905 1.33683 0
M  V30 565 O 53.3716 3.31574 2.45219 0
M  V30 566 H 52.7126 0.641205 0.172489 0
M  V30 567 H 55.2426 2.04372 -0.0965621 0
M  V30 568 H 55.2526 3.71234 1.69262 0
M  V30 569 H 53.9276 4.11366 0.612411 0
M  V30 570 H 52.5046 3.06968 2.11719 0
M  V30 571 N 54.6897 -0.239769 1.55765 0
M  V30 572 C 55.5997 -1.31831 1.94056 0
M  V30 573 C 56.6157 -1.52275 0.841925 0
M  V30 574 O 57.7917 -1.65759 1.14394 0
M  V30 575 C 54.8567 -2.65156 2.23368 0
M  V30 576 C 53.9177 -2.53173 3.46701 0
M  V30 577 C 53.1507 -3.8014 3.74606 0
M  V30 578 O 53.3737 -4.82343 3.04469 0
M  V30 579 O 52.3077 -3.78344 4.68123 0
M  V30 580 H 56.1337 -1.02347 2.85935 0
M  V30 581 H 53.7187 -0.441123 1.42739 0
M  V30 582 H 55.6007 -3.43929 2.43497 0
M  V30 583 H 54.2757 -2.94358 1.34666 0
M  V30 584 H 53.1827 -1.72662 3.31871 0
M  V30 585 H 54.5157 -2.28915 4.35728 0
M  V30 586 N 56.1678 -1.49265 -0.50573 0
M  V30 587 C 57.3978 -1.61979 -1.28243 0
M  V30 588 C 57.8058 -0.288576 -1.86986 0
M  V30 589 O 57.1488 0.735408 -1.68337 0
M  V30 590 C 57.2108 -2.62632 -2.45489 0
M  V30 591 C 56.8748 -4.071 -2.07651 0
M  V30 592 C 57.8718 -4.94049 -1.61901 0
M  V30 593 C 55.5568 -4.52801 -2.17431 0
M  V30 594 C 57.5508 -6.24736 -1.26428 0
M  V30 595 C 55.2378 -5.83503 -1.8157 0
M  V30 596 C 56.2358 -6.69294 -1.36142 0
M  V30 597 O 55.9238 -7.9756 -1.00764 0
M  V30 598 H 55.6558 -0.54834 -0.395347 0
M  V30 599 H 58.2098 -1.96002 -0.614204 0
M  V30 600 H 56.4398 -2.2378 -3.15372 0
M  V30 601 H 58.1288 -2.64925 -3.07522 0
M  V30 602 H 58.8948 -4.5997 -1.53795 0
M  V30 603 H 54.7738 -3.86196 -2.51742 0
M  V30 604 H 58.3178 -6.91652 -0.908992 0
M  V30 605 H 54.2148 -6.17112 -1.89324 0
M  V30 606 H 54.9828 -8.10529 -1.13952 0
M  V30 607 N 57.6459 0.756429 -1.3826 0
M  V30 608 C 58.8709 1.55077 -1.37717 0
M  V30 609 C 59.2959 1.88073 0.03164 0
M  V30 610 O 58.6539 1.50364 1.01293 0
M  V30 611 C 58.7019 2.8283 -2.23695 0
M  V30 612 O 57.8059 3.77862 -1.6521 0
M  V30 613 H 57.1469 0.469152 -0.469885 0
M  V30 614 H 59.6769 0.935019 -1.81985 0
M  V30 615 H 59.6869 3.31783 -2.37453 0
M  V30 616 H 58.3619 2.58144 -3.2609 0
M  V30 617 H 56.9389 3.36555 -1.60578 0
M  V30 618 N 59.124 1.23083 0.984299 0
M  V30 619 C 60.401 0.9689 1.69917 0
M  V30 620 C 60.781 -0.513604 2.04757 0
M  V30 621 O 60.129 -1.48383 1.73767 0
M  V30 622 C 60.339 1.87518 2.94343 0
M  V30 623 C 61.687 2.13636 3.6694 0
M  V30 624 O 62.711 1.85036 3.04368 0
M  V30 625 O 61.57 2.62119 4.79537 0
M  V30 626 H 58.664 0.365095 0.742048 0
M  V30 627 H 61.21 1.34107 1.03987 0
M  V30 628 H 59.982 2.87756 2.65164 0
M  V30 629 H 59.605 1.50514 3.6801 0
M  V30 630 N 60.6021 -1.18246 1.0419 0
M  V30 631 C 61.8511 -1.87588 0.741194 0
M  V30 632 C 62.1641 -1.81303 -0.734066 0
M  V30 633 O 63.3701 -2.46019 -1.14834 0
M  V30 634 C 61.8261 -3.36538 1.27555 0
M  V30 635 C 61.4341 -3.51349 2.77953 0
M  V30 636 C 63.1781 -4.11273 1.05143 0
M  V30 637 C 61.0851 -4.94265 3.2474 0
M  V30 638 H 60.0151 -0.702622 0.273565 0
M  V30 639 H 62.6661 -1.33601 1.25789 0
M  V30 640 H 61.0481 -3.9 0.686703 0
M  V30 641 H 62.2221 -3.08153 3.42605 0
M  V30 642 H 60.5371 -2.90022 2.98791 0
M  V30 643 H 63.1341 -5.16689 1.37611 0
M  V30 644 H 63.4771 -4.16298 -0.0112774 0
M  V30 645 H 64.0101 -3.63987 1.60495 0
M  V30 646 H 60.7491 -4.94408 4.30396 0
M  V30 647 H 60.2691 -5.38172 2.64823 0
M  V30 648 H 61.9481 -5.62987 3.18834 0
M  V30 649 N 62.0802 -0.821533 -1.34494 0
M  V30 650 C 63.3082 -0.421884 -2.02553 0
M  V30 651 C 63.7232 0.971745 -1.61872 0
M  V30 652 O 63.0802 1.62864 -0.823496 0
M  V30 653 C 63.1312 -0.51285 -3.57844 0
M  V30 654 O 62.8522 -1.85155 -3.97051 0
M  V30 655 C 64.3532 -0.107921 -4.43169 0
M  V30 656 H 61.5732 -0.169482 -0.649243 0
M  V30 657 H 64.1172 -1.1093 -1.71798 0
M  V30 658 H 62.2722 0.126474 -3.87193 0
M  V30 659 H 62.6862 -1.82482 -4.91732 0
M  V30 660 H 64.1602 -0.222657 -5.51551 0
M  V30 661 H 64.6372 0.948401 -4.28838 0
M  V30 662 H 65.2432 -0.720989 -4.19144 0
M  V30 663 N 63.5583 1.46682 -0.576371 0
M  V30 664 C 64.7983 2.04306 -0.0621356 0
M  V30 665 C 65.1623 1.4389 1.2712 0
M  V30 666 O 66.3633 1.92675 1.87429 0
M  V30 667 C 64.6343 3.57399 0.00927922 0
M  V30 668 S 66.1933 4.36309 0.466859 0
M  V30 669 H 63.0113 0.710167 -0.0344016 0
M  V30 670 H 65.6133 1.79807 -0.767437 0
M  V30 671 H 64.3173 3.98889 -0.965178 0
M  V30 672 H 63.8483 3.86424 0.737547 0
M  V30 673 H 65.8633 4.6533 1.72287 0
M  V30 674 N 65.0364 0.313813 1.54444 0
M  V30 675 C 66.4524 -0.0391619 1.59552 0
M  V30 676 C 66.6524 -1.51322 1.33056 0
M  V30 677 O 65.7084 -2.26782 1.11022 0
M  V30 678 C 67.0214 0.370302 2.98411 0
M  V30 679 C 68.5694 0.320139 3.11358 0
M  V30 680 C 69.0444 0.704617 4.52547 0
M  V30 681 N 70.5354 0.657645 4.58508 0
M  V30 682 C 71.2704 0.927453 5.6585 0
M  V30 683 N 70.7664 1.26389 6.81174 0
M  V30 684 N 72.5594 0.853662 5.5558 0
M  V30 685 H 64.7104 1.27433 1.69925 0
M  V30 686 H 66.9734 0.517511 0.794284 0
M  V30 687 H 66.6794 1.39694 3.22767 0
M  V30 688 H 66.5534 -0.269619 3.76235 0
M  V30 689 H 68.9404 -0.697275 2.86744 0
M  V30 690 H 69.0214 0.99486 2.35661 0
M  V30 691 H 68.6654 1.7199 4.77893 0
M  V30 692 H 68.5954 0.00768843 5.26599 0
M  V30 693 H 71.0864 0.409067 3.75679 0
M  V30 694 H 71.3994 1.4554 7.58972 0
M  V30 695 H 69.7444 1.30206 6.82694 0
M  V30 696 H 72.9354 0.590383 4.64362 0
M  V30 697 H 73.1084 1.0673 6.3915 0
M  V30 698 N 66.5145 -1.57545 0.0417849 0
M  V30 699 C 67.7615 -1.92317 -0.634082 0
M  V30 700 C 68.0895 -0.919334 -1.71402 0
M  V30 701 O 67.3445 0.0698253 -1.95575 0
M  V30 702 C 67.6435 -3.33794 -1.27735 0
M  V30 703 C 67.3095 -4.49716 -0.326543 0
M  V30 704 C 65.9715 -4.81156 -0.0648814 0
M  V30 705 C 68.3235 -5.20182 0.325623 0
M  V30 706 C 65.6515 -5.80414 0.856539 0
M  V30 707 C 68.0035 -6.20424 1.23518 0
M  V30 708 C 66.6675 -6.50298 1.5056 0
M  V30 709 H 65.9375 -0.703736 -0.232027 0
M  V30 710 H 68.5845 -1.91205 0.106259 0
M  V30 711 H 66.8895 -3.31228 -2.09274 0
M  V30 712 H 68.5865 -3.57975 -1.80707 0
M  V30 713 H 65.1765 -4.25176 -0.540665 0
M  V30 714 H 69.3605 -4.96112 0.136546 0
M  V30 715 H 64.6165 -6.019 1.07363 0
M  V30 716 H 68.7905 -6.74141 1.74664 0
M  V30 717 H 66.4175 -7.27025 2.22123 0
M  V30 718 N 67.9926 0.231505 -1.5589 0
M  V30 719 C 68.9406 1.30649 -1.92441 0
M  V30 720 C 69.9346 1.49037 -0.805254 0
M  V30 721 O 71.1406 1.50329 -0.990007 0
M  V30 722 H 67.5156 0.437812 -0.611412 0
M  V30 723 H 69.4866 0.970973 -2.82161 0
M  V30 724 C 68.2356 2.65179 -2.24889 0
M  V30 725 H 67.5586 2.51835 -3.10514 0
M  V30 726 H 68.9986 3.39234 -2.54355 0
M  V30 727 C 67.4576 3.19439 -1.07054 0
M  V30 728 O 67.9876 4.00371 -0.326499 0
M  V30 729 N 66.1936 2.77675 -0.85703 0
M  V30 730 H 65.7406 2.11969 -1.46379 0
M  V30 731 H 65.6986 3.14321 -0.0703223 0
M  V30 732 N 69.4707 1.49531 0.497807 0
M  V30 733 C 70.7187 1.58865 1.24926 0
M  V30 734 C 71.0397 0.278721 1.92998 0
M  V30 735 O 70.3097 -0.702144 1.82885 0
M  V30 736 H 68.8897 0.585343 0.464094 0
M  V30 737 H 71.5517 1.86174 0.57666 0
M  V30 738 H 70.6477 2.38633 2.01149 0
M  V30 739 N 70.9488 -0.749086 1.3866 0
M  V30 740 C 72.1968 -1.50535 1.34847 0
M  V30 741 C 72.5178 -1.94909 -0.0595016 0
M  V30 742 O 71.7878 -1.67973 -1.00806 0
M  V30 743 H 70.3678 -0.558395 0.49619 0
M  V30 744 H 73.0298 -0.890165 1.73384 0
M  V30 745 H 72.1258 -2.39413 2.00219 0
M  V30 746 N 72.4269 -1.23603 -0.977757 0
M  V30 747 C 73.3899 -1.02069 -2.05218 0
M  V30 748 C 74.3899 0.0184305 -1.60789 0
M  V30 749 O 75.5799 -0.221569 -1.72785 0
M  V30 750 C 72.7119 -0.544926 -3.36517 0
M  V30 751 H 73.9049 -1.9742 -2.25755 0
M  V30 752 H 71.4579 -1.05684 -1.15155 0
M  V30 753 H 72.1929 0.412241 -3.21669 0
M  V30 754 H 71.9779 -1.2948 -3.70105 0
M  V30 755 H 73.4679 -0.414985 -4.15533 0
M  V30 756 N 73.905 1.17692 -1.04816 0
M  V30 757 C 74.853 2.23632 -0.63966 0
M  V30 758 C 75.847 1.6601 0.337219 0
M  V30 759 O 77.053 1.78844 0.203693 0
M  V30 760 H 73.428 0.727949 -0.188665 0
M  V30 761 H 75.399 2.55387 -1.54337 0
M  V30 762 C 74.148 3.4769 -0.0264051 0
M  V30 763 H 73.471 3.92331 -0.769164 0
M  V30 764 H 74.911 4.23418 0.222098 0
M  V30 765 C 73.37 3.13807 1.22584 0
M  V30 766 O 73.9 3.28236 2.31569 0
M  V30 767 N 72.106 2.68065 1.12202 0
M  V30 768 H 71.653 2.56525 0.235133 0
M  V30 769 H 71.611 2.45767 1.96076 0
M  V30 770 N 75.3831 0.828654 1.34056 0
M  V30 771 C 76.3461 0.259927 2.27721 0
M  V30 772 C 77.3461 -0.565478 1.50529 0
M  V30 773 O 78.5361 -0.38075 1.69988 0
M  V30 774 C 75.6681 -0.634944 3.34935 0
M  V30 775 H 76.8611 1.0863 2.79534 0
M  V30 776 H 74.4141 0.600951 1.44285 0
M  V30 777 H 75.1491 -1.48416 2.88346 0
M  V30 778 H 74.9341 -0.0444999 3.92075 0
M  V30 779 H 76.4241 -1.02648 4.04788 0
M  V30 780 N 76.8612 -1.46375 0.584142 0
M  V30 781 C 78.1092 -2.01978 0.0701287 0
M  V30 782 C 78.4302 -1.4579 -1.295 0
M  V30 783 O 77.7002 -0.64314 -1.85042 0
M  V30 784 H 76.2802 -0.746648 0.0229345 0
M  V30 785 H 78.9422 -1.79461 0.760245 0
M  V30 786 H 78.0382 -3.121 0.0022064 0
M  V30 787 N 78.3393 -0.321999 -1.54275 0
M  V30 788 C 79.2893 0.560185 -2.21011 0
M  V30 789 C 80.2733 1.08283 -1.19011 0
M  V30 790 O 81.4653 1.02011 -1.44647 0
M  V30 791 C 78.5943 1.72137 -2.97025 0
M  V30 792 C 77.6803 1.21369 -4.06363 0
M  V30 793 N 78.0713 0.425566 -5.04007 0
M  V30 794 C 76.3693 1.49255 -4.20284 0
M  V30 795 C 77.0703 0.152601 -5.815 0
M  V30 796 N 76.0463 0.738294 -5.38563 0
M  V30 797 H 79.8483 -0.049265 -2.93859 0
M  V30 798 H 77.3623 -0.127779 -1.61897 0
M  V30 799 H 79.3593 2.36512 -3.43319 0
M  V30 800 H 78.0193 2.33431 -2.25699 0
M  V30 801 H 79.0303 0.068551 -5.17855 0
M  V30 802 H 75.7073 2.11145 -3.60172 0
M  V30 803 H 77.0973 -0.481764 -6.70171 0
M  V30 804 N 79.8174 1.5752 -0.0501392 0
M  V30 805 C 81.0454 1.96963 0.633492 0
M  V30 806 C 81.4604 0.927631 1.6444 0
M  V30 807 O 80.8174 -0.0882665 1.82286 0
M  V30 808 C 80.8684 3.36487 1.32132 0
M  V30 809 O 80.5894 4.36693 0.350894 0
M  V30 810 C 82.0904 3.90682 2.09481 0
M  V30 811 H 79.3104 0.648244 0.173266 0
M  V30 812 H 81.8544 2.0417 -0.116134 0
M  V30 813 H 80.0094 3.30434 2.02218 0
M  V30 814 H 80.4234 5.17702 0.841735 0
M  V30 815 H 81.8974 4.90591 2.5303 0
M  V30 816 H 82.3744 3.26053 2.94255 0
M  V30 817 H 82.9804 4.00069 1.44307 0
M  V30 818 N 81.2955 -0.223234 1.56011 0
M  V30 819 C 82.5445 -0.945912 1.78144 0
M  V30 820 C 82.8575 -1.85567 0.618396 0
M  V30 821 O 84.0635 -2.61688 0.723318 0
M  V30 822 C 82.5195 -1.73216 3.15475 0
M  V30 823 C 82.1275 -0.868619 4.39499 0
M  V30 824 C 83.8715 -2.44615 3.46935 0
M  V30 825 C 81.7785 -1.65212 5.67855 0
M  V30 826 H 80.7085 -0.356929 0.664167 0
M  V30 827 H 83.3595 -0.199845 1.82409 0
M  V30 828 H 81.7415 -2.52107 3.05382 0
M  V30 829 H 82.9155 -0.120366 4.60643 0
M  V30 830 H 81.2305 -0.26683 4.15544 0
M  V30 831 H 83.8275 -3.03732 4.40058 0
M  V30 832 H 84.1705 -3.17417 2.69355 0
M  V30 833 H 84.7035 -1.72715 3.58349 0
M  V30 834 H 81.4425 -0.967407 6.48322 0
M  V30 835 H 80.9625 -2.37503 5.50774 0
M  V30 836 H 82.6415 -2.21322 6.07968 0
M  V30 837 N 82.7736 -1.49793 -0.48987 0
M  V30 838 C 83.9986 -1.63836 -1.27172 0
M  V30 839 C 84.4236 -0.31402 -1.8546 0
M  V30 840 O 83.7816 0.719803 -1.66399 0
M  V30 841 C 83.8296 -2.71797 -2.36978 0
M  V30 842 O 82.9336 -2.31744 -3.41128 0
M  V30 843 H 82.2746 -0.547997 -0.37496 0
M  V30 844 H 84.8046 -1.96053 -0.585191 0
M  V30 845 H 84.8146 -2.94305 -2.82575 0
M  V30 846 H 83.4896 -3.67923 -1.93921 0
M  V30 847 H 82.0666 -2.1961 -3.01373 0
M  V30 848 N 84.2517 0.741722 -1.39055 0
M  V30 849 C 85.4977 1.50336 -1.36113 0
M  V30 850 C 85.8307 1.94148 0.0450796 0
M  V30 851 O 85.1057 1.66301 1.00868 0
M  V30 852 C 85.3887 2.74773 -2.32749 0
M  V30 853 C 85.2417 2.37023 -3.82283 0
M  V30 854 C 86.5607 3.76846 -2.27322 0
M  V30 855 H 83.6797 0.545351 -0.495743 0
M  V30 856 H 86.3217 0.848624 -1.69995 0
M  V30 857 H 84.4717 3.30639 -2.03986 0
M  V30 858 H 86.1437 1.8684 -4.21768 0
M  V30 859 H 84.3867 1.69334 -3.99385 0
M  V30 860 H 85.0577 3.26104 -4.45376 0
M  V30 861 H 87.5337 3.30548 -2.5274 0
M  V30 862 H 86.4097 4.6159 -2.97028 0
M  V30 863 H 86.6707 4.23286 -1.27599 0
M  V30 864 N 85.7298 1.2412 0.971189 0
M  V30 865 C 86.6778 1.02812 2.08644 0
M  V30 866 C 87.6718 -0.0358403 1.69362 0
M  V30 867 O 88.8778 0.118429 1.7961 0
M  V30 868 H 85.2528 0.315428 0.682649 0
M  V30 869 H 87.2238 1.97397 2.23779 0
M  V30 870 C 85.9728 0.645874 3.41649 0
M  V30 871 H 85.2958 1.45632 3.72332 0
M  V30 872 H 86.7358 0.536366 4.20594 0
M  V30 873 C 85.1948 -0.646713 3.30635 0
M  V30 874 O 85.7248 -1.69338 3.64263 0
M  V30 875 N 83.9308 -0.626115 2.83775 0
M  V30 876 H 83.4778 0.225988 2.56607 0
M  V30 877 H 83.4358 -1.49117 2.76788 0
M  V30 878 N 87.2079 -1.17134 1.05439 0
M  V30 879 C 88.4849 -1.83411 0.679699 0
M  V30 880 C 88.8649 -1.9368 -0.839726 0
M  V30 881 O 88.2129 -1.47325 -1.74664 0
M  V30 882 C 88.4229 -3.20918 1.37159 0
M  V30 883 C 89.7709 -3.96796 1.51123 0
M  V30 884 O 90.7949 -3.30406 1.3308 0
M  V30 885 O 89.6539 -5.15778 1.80651 0
M  V30 886 H 86.7479 -0.79154 0.239569 0
M  V30 887 H 89.2939 -1.24411 1.15413 0
M  V30 888 H 88.0659 -3.08428 2.40807 0
M  V30 889 H 87.6889 -3.87587 0.886674 0
M  V30 890 N 88.686 -0.835752 -1.33615 0
M  V30 891 C 89.633 -0.26473 -2.29277 0
M  V30 892 C 90.603 0.617712 -1.54187 0
M  V30 893 O 91.788 0.556641 -1.825 0
M  V30 894 C 88.928 0.556777 -3.40579 0
M  V30 895 C 88.041 -0.349339 -4.30585 0
M  V30 896 C 87.176 0.482969 -5.29 0
M  V30 897 C 86.215 -0.421732 -6.10645 0
M  V30 898 N 85.352 0.372262 -7.01112 0
M  V30 899 H 90.192 -1.08582 -2.77514 0
M  V30 900 H 87.729 -0.546927 -1.36554 0
M  V30 901 H 89.687 1.04852 -4.03809 0
M  V30 902 H 88.317 1.34286 -2.93542 0
M  V30 903 H 87.369 -0.959372 -3.68104 0
M  V30 904 H 88.681 -1.04445 -4.87742 0
M  V30 905 H 87.835 1.03866 -5.97743 0
M  V30 906 H 86.574 1.21153 -4.72412 0
M  V30 907 H 85.579 -0.989464 -5.40823 0
M  V30 908 H 86.804 -1.14861 -6.69316 0
M  V30 909 H 84.75 1.08426 -6.46977 0
M  V30 910 H 84.667 -0.264198 -7.55538 0
M  V30 911 H 85.935 0.910293 -7.74167 0
M  V30 912 N 90.1641 1.46063 -0.591896 0
M  V30 913 C 91.1111 2.30399 0.136069 0
M  V30 914 C 92.0811 1.41169 0.875238 0
M  V30 915 O 93.2661 1.70112 0.86409 0
M  V30 916 C 90.4061 3.25804 1.13781 0
M  V30 917 C 89.5191 4.30134 0.401137 0
M  V30 918 C 88.6541 5.12659 1.39121 0
M  V30 919 C 87.6931 6.0873 0.641462 0
M  V30 920 N 86.8301 6.8409 1.58004 0
M  V30 921 H 91.6701 2.92118 -0.589144 0
M  V30 922 H 89.2071 1.43959 -0.302342 0
M  V30 923 H 91.1651 3.79569 1.73156 0
M  V30 924 H 89.7951 2.65872 1.83062 0
M  V30 925 H 88.8471 3.79152 -0.307826 0
M  V30 926 H 90.1591 4.98458 -0.184565 0
M  V30 927 H 89.3131 5.70747 2.05749 0
M  V30 928 H 88.0521 4.44316 2.01084 0
M  V30 929 H 87.0571 5.49786 -0.0385419 0
M  V30 930 H 88.2821 6.79095 0.0270945 0
M  V30 931 H 86.2281 6.18449 2.18761 0
M  V30 932 H 86.1451 7.48709 1.04738 0
M  V30 933 H 87.4131 7.4673 2.23639 0
M  V30 934 N 91.6422 0.330177 1.54103 0
M  V30 935 C 92.8722 -0.271784 2.04805 0
M  V30 936 C 93.2802 -1.45816 1.20559 0
M  V30 937 O 92.6232 -1.82247 0.2306 0
M  V30 938 C 92.6852 -0.763238 3.51305 0
M  V30 939 C 92.3492 0.301705 4.56003 0
M  V30 940 C 93.3462 1.13999 5.07248 0
M  V30 941 C 91.0312 0.451793 5.00264 0
M  V30 942 C 93.0252 2.11402 6.01322 0
M  V30 943 C 90.7122 1.42924 5.94151 0
M  V30 944 C 91.7102 2.25882 6.44567 0
M  V30 945 O 91.3982 3.21965 7.3661 0
M  V30 946 H 91.1302 -0.058693 0.673447 0
M  V30 947 H 93.6842 0.476395 1.99799 0
M  V30 948 H 91.9142 -1.56244 3.5373 0
M  V30 949 H 93.6032 -1.28427 3.85047 0
M  V30 950 H 94.3692 1.03505 4.73827 0
M  V30 951 H 90.2482 -0.184044 4.60632 0
M  V30 952 H 93.7922 2.76192 6.40596 0
M  V30 953 H 89.6892 1.53479 6.26988 0
M  V30 954 H 90.4572 3.17281 7.54503 0
M  V30 955 N 93.1203 -1.57491 0.0584922 0
M  V30 956 C 94.0833 -2.1085 -0.898617 0
M  V30 957 C 95.0833 -1.02964 -1.23511 0
M  V30 958 O 96.2733 -1.29007 -1.17059 0
M  V30 959 C 93.4053 -2.59881 -2.20623 0
M  V30 960 H 94.5983 -2.96715 -0.435936 0
M  V30 961 H 92.1513 -1.55141 -0.190023 0
M  V30 962 H 92.8863 -1.77431 -2.71457 0
M  V30 963 H 92.6713 -3.38727 -1.97501 0
M  V30 964 H 94.1613 -3.01285 -2.89166 0
M  V30 965 N 94.5984 0.214957 -1.56127 0
M  V30 966 C 95.5284 1.2695 -1.95974 0
M  V30 967 C 96.5094 1.48539 -0.828868 0
M  V30 968 O 97.6944 1.60611 -1.09168 0
M  V30 969 C 94.8244 2.61794 -2.28214 0
M  V30 970 C 93.7784 2.54851 -3.43853 0
M  V30 971 C 93.1044 3.93785 -3.61715 0
M  V30 972 C 94.4044 2.09065 -4.78632 0
M  V30 973 H 96.0984 0.93846 -2.84312 0
M  V30 974 H 93.6444 0.449996 -1.36788 0
M  V30 975 H 95.5974 3.35731 -2.54682 0
M  V30 976 H 94.3214 2.96599 -1.36736 0
M  V30 977 H 92.9804 1.8337 -3.17444 0
M  V30 978 H 92.6284 4.25908 -2.67602 0
M  V30 979 H 92.3284 3.90019 -4.39498 0
M  V30 980 H 93.8524 4.69374 -3.90539 0
M  V30 981 H 95.2664 2.7275 -5.04262 0
M  V30 982 H 93.6634 2.16346 -5.59745 0
M  V30 983 H 94.7334 1.04315 -4.73547 0
M  V30 984 N 96.0765 1.50051 0.48192 0
M  V30 985 C 97.0265 1.64512 1.5786 0
M  V30 986 C 98.0105 0.500073 1.52932 0
M  V30 987 O 99.2025 0.753964 1.60139 0
M  V30 988 C 96.3315 1.73263 2.9637 0
M  V30 989 C 95.4175 2.93409 3.06222 0
M  V30 990 N 95.8085 4.17236 2.85915 0
M  V30 991 C 94.1065 2.91742 3.37346 0
M  V30 992 C 94.8075 4.981 3.00451 0
M  V30 993 N 93.7835 4.3184 3.30174 0
M  V30 994 H 97.5855 2.57955 1.40842 0
M  V30 995 H 95.0995 1.47086 0.688439 0
M  V30 996 H 97.0965 1.81724 3.75209 0
M  V30 997 H 95.7565 0.809711 3.14442 0
M  V30 998 H 96.7675 4.46909 2.6171 0
M  V30 999 H 93.4445 2.08907 3.61475 0
M  V30 1000 H 94.8345 6.06532 2.89082 0
M  V30 1001 N 97.5546 -0.734337 1.39446 0
M  V30 1002 C 98.4846 -1.86155 1.40955 0
M  V30 1003 C 99.4656 -1.67898 0.272827 0
M  V30 1004 O 100.651 -1.88207 0.478743 0
M  V30 1005 C 97.7806 -3.23912 1.25294 0
M  V30 1006 C 96.7346 -3.56808 2.36373 0
M  V30 1007 C 96.0606 -4.93508 2.058 0
M  V30 1008 C 97.3606 -3.59713 3.78687 0
M  V30 1009 H 99.0546 -1.8515 2.35287 0
M  V30 1010 H 96.6006 -0.889367 1.13253 0
M  V30 1011 H 98.5536 -4.02443 1.2497 0
M  V30 1012 H 97.2776 -3.25446 0.274308 0
M  V30 1013 H 95.9366 -2.80606 2.35914 0
M  V30 1014 H 95.5846 -4.91623 1.06374 0
M  V30 1015 H 95.2846 -5.16486 2.80208 0
M  V30 1016 H 96.8086 -5.74396 2.07128 0
M  V30 1017 H 98.2226 -4.2832 3.81071 0
M  V30 1018 H 96.6196 -3.94209 4.52459 0
M  V30 1019 H 97.6896 -2.59504 4.09617 0
M  V30 1020 N 99.0327 -1.24633 -0.964593 0
M  V30 1021 C 99.9627 -1.06611 -2.07741 0
M  V30 1022 C 100.944 0.0218666 -1.70086 0
M  V30 1023 O 102.129 -0.145793 -1.93652 0
M  V30 1024 C 99.2587 -0.673444 -3.40708 0
M  V30 1025 C 98.2127 -1.71054 -3.92332 0
M  V30 1026 C 97.5387 -1.17285 -5.21678 0
M  V30 1027 C 98.8387 -3.10718 -4.19824 0
M  V30 1028 H 100.533 -1.99693 -2.23076 0
M  V30 1029 H 98.0787 -0.96152 -1.07195 0
M  V30 1030 H 100.032 -0.534345 -4.17998 0
M  V30 1031 H 98.7557 0.293073 -3.25282 0
M  V30 1032 H 97.4147 -1.83791 -3.17201 0
M  V30 1033 H 97.0627 -0.196847 -5.02615 0
M  V30 1034 H 96.7627 -1.86592 -5.57187 0
M  V30 1035 H 98.2867 -1.04593 -6.01575 0
M  V30 1036 H 99.7007 -3.01192 -4.87808 0
M  V30 1037 H 98.0977 -3.77406 -4.66567 0
M  V30 1038 H 99.1677 -3.58524 -3.26479 0
M  V30 1039 N 100.511 1.16574 -1.06058 0
M  V30 1040 C 101.922 1.68662 -0.800632 0
M  V30 1041 C 102.273 1.84184 0.67608 0
M  V30 1042 O 101.398 1.53568 1.52466 0
M  V30 1043 C 101.993 3.06356 -1.44676 0
M  V30 1044 C 100.552 3.55575 -1.23465 0
M  V30 1045 C 99.6988 2.31616 -1.52477 0
M  V30 1046 H 102.65 1.00969 -1.22438 0
M  V30 1047 H 102.671 3.70636 -0.860788 0
M  V30 1048 H 102.183 2.95027 -2.52152 0
M  V30 1049 H 100.284 3.72167 -0.179527 0
M  V30 1050 H 100.397 4.37812 -1.94571 0
M  V30 1051 H 98.7608 2.36512 -0.945209 0
M  V30 1052 H 99.5438 2.22887 -2.61106 0
M  V30 1053 N 101.989 0.842826 1.3317 0
M  V30 1054 C 103.229 0.446574 1.99462 0
M  V30 1055 C 103.593 -0.976818 1.65295 0
M  V30 1056 O 104.794 -1.477 2.24584 0
M  V30 1057 C 103.065 0.665353 3.51152 0
M  V30 1058 S 104.624 0.364911 4.3728 0
M  V30 1059 H 101.442 0.167803 0.690915 0
M  V30 1060 H 104.044 1.09297 1.62094 0
M  V30 1061 H 102.748 1.7006 3.73507 0
M  V30 1062 H 102.279 0.00494568 3.934 0
M  V30 1063 H 104.294 -0.813761 4.89482 0
M  V30 1064 N 103.467 -1.45747 0.599634 0
M  V30 1065 C 104.715 -2.01893 0.0915472 0
M  V30 1066 C 105.036 -1.47155 -1.27946 0
M  V30 1067 O 104.306 -0.66273 -1.84349 0
M  V30 1068 H 102.886 -0.746363 0.0308524 0
M  V30 1069 H 105.548 -1.78645 0.779237 0
M  V30 1070 H 104.644 -3.1208 0.0353086 0
M  V30 1071 N 104.945 -0.338344 -1.53925 0
M  V30 1072 C 106.191 0.260143 -2.01125 0
M  V30 1073 C 106.524 1.50617 -1.22589 0
M  V30 1074 O 105.799 1.91979 -0.312113 0
M  V30 1075 C 106.082 0.579499 -3.55407 0
M  V30 1076 C 105.935 -0.678264 -4.44657 0
M  V30 1077 C 107.254 1.39122 -4.17532 0
M  V30 1078 H 104.373 0.0930772 -0.731099 0
M  V30 1079 H 107.015 -0.457852 -1.84401 0
M  V30 1080 H 105.165 1.19118 -3.69788 0
M  V30 1081 H 106.837 -1.31631 -4.42121 0
M  V30 1082 H 105.08 -1.3042 -4.13731 0
M  V30 1083 H 105.751 -0.410143 -5.50474 0
M  V30 1084 H 108.227 0.874035 -4.06817 0
M  V30 1085 H 107.103 1.58342 -5.25565 0
M  V30 1086 H 107.364 2.39178 -3.71815 0
M  V30 1087 N 106.423 1.57458 -0.0668435 0
M  V30 1088 C 107.353 2.15468 0.899764 0
M  V30 1089 C 108.334 1.08042 1.31381 0
M  V30 1090 O 109.519 1.36054 1.38574 0
M  V30 1091 C 106.649 2.71232 2.16911 0
M  V30 1092 C 105.603 3.83781 1.89463 0
M  V30 1093 C 104.929 4.26127 3.22986 0
M  V30 1094 C 106.229 5.08238 1.20381 0
M  V30 1095 H 107.923 2.96488 0.416529 0
M  V30 1096 H 105.469 1.4262 0.198908 0
M  V30 1097 H 107.422 3.10458 2.84945 0
M  V30 1098 H 106.146 1.87426 2.67468 0
M  V30 1099 H 104.805 3.45051 1.23836 0
M  V30 1100 H 104.453 3.39249 3.71374 0
M  V30 1101 H 104.153 5.01993 3.05413 0
M  V30 1102 H 105.677 4.67966 3.92225 0
M  V30 1103 H 107.091 5.44811 1.78475 0
M  V30 1104 H 105.488 5.89349 1.13083 0
M  V30 1105 H 106.558 4.84558 0.182153 0
M  V30 1106 N 107.901 -0.206675 1.56239 0
M  V30 1107 C 109.131 -0.943975 1.83773 0
M  V30 1108 C 109.539 -1.77841 0.645703 0
M  V30 1109 O 108.882 -1.79403 -0.395008 0
M  V30 1110 C 108.944 -1.899 3.05251 0
M  V30 1111 C 108.608 -1.24764 4.39639 0
M  V30 1112 C 109.605 -0.630216 5.16066 0
M  V30 1113 C 107.29 -1.25496 4.8637 0
M  V30 1114 C 109.284 -0.0287946 6.37393 0
M  V30 1115 C 106.971 -0.649698 6.07637 0
M  V30 1116 C 107.969 -0.0376845 6.8299 0
M  V30 1117 O 107.657 0.55812 8.0196 0
M  V30 1118 H 107.389 -0.281508 0.614597 0
M  V30 1119 H 109.943 -0.222458 2.04192 0
M  V30 1120 H 108.173 -2.6599 2.80689 0
M  V30 1121 H 109.862 -2.5031 3.1953 0
M  V30 1122 H 110.628 -0.616785 4.81062 0
M  V30 1123 H 106.507 -1.72072 4.27683 0
M  V30 1124 H 110.051 0.449518 6.9615 0
M  V30 1125 H 105.948 -0.660592 6.42111 0
M  V30 1126 H 106.716 0.453891 8.17241 0
M  V30 1127 N 109.379 -1.50304 -0.473955 0
M  V30 1128 C 110.656 -1.51667 -1.23518 0
M  V30 1129 C 111.036 -0.259701 -2.09496 0
M  V30 1130 O 110.384 0.756986 -2.15597 0
M  V30 1131 C 110.594 -2.81082 -2.06868 0
M  V30 1132 C 111.942 -3.31631 -2.65153 0
M  V30 1133 O 112.966 -2.82384 -2.17113 0
M  V30 1134 O 111.825 -4.17471 -3.52675 0
M  V30 1135 H 108.919 -0.60822 -0.560355 0
M  V30 1136 H 111.465 -1.62592 -0.486011 0
M  V30 1137 H 110.237 -3.64041 -1.4349 0
M  V30 1138 H 109.86 -2.73146 -2.88924 0
M  V30 1139 N 110.857 0.726932 -1.39834 0
M  V30 1140 C 111.805 1.86235 -1.39353 0
M  V30 1141 C 112.799 1.67144 -0.275555 0
M  V30 1142 O 114.005 1.74387 -0.44601 0
M  V30 1143 H 110.38 0.613174 -0.43534 0
M  V30 1144 H 112.351 1.83756 -2.35109 0
M  V30 1145 C 111.1 3.23995 -1.26185 0
M  V30 1146 H 110.423 3.39285 -2.11484 0
M  V30 1147 H 111.863 4.03609 -1.29907 0
M  V30 1148 C 110.322 3.36888 0.0290018 0
M  V30 1149 O 110.852 3.89152 0.99619 0
M  V30 1150 N 109.058 2.90446 0.0947437 0
M  V30 1151 H 108.605 2.48102 -0.693035 0
M  V30 1152 H 108.563 2.99451 0.957932 0
M  V30 1153 N 112.336 1.25143 0.95797 0
M  V30 1154 C 113.284 1.05019 2.07542 0
M  V30 1155 C 114.278 -0.0178751 1.69391 0
M  V30 1156 O 115.484 0.137472 1.79474 0
M  V30 1157 H 111.859 0.32265 0.679265 0
M  V30 1158 H 113.83 1.99759 2.21673 0
M  V30 1159 C 112.579 0.682074 3.40944 0
M  V30 1160 H 111.902 1.49573 3.70767 0
M  V30 1161 H 113.342 0.580945 4.20001 0
M  V30 1162 C 111.801 -0.611608 3.31302 0
M  V30 1163 O 112.331 -1.65465 3.66038 0
M  V30 1164 N 110.537 -0.595982 2.84423 0
M  V30 1165 H 110.084 0.253192 2.56353 0
M  V30 1166 H 110.042 -1.46173 2.78354 0
M  V30 1167 N 113.814 -1.1601 1.06675 0
M  V30 1168 C 115.063 -1.85973 0.780818 0
M  V30 1169 C 115.376 -1.82819 -0.695444 0
M  V30 1170 O 116.582 -2.484 -1.09589 0
M  V30 1171 C 115.038 -3.33757 1.34665 0
M  V30 1172 C 114.646 -3.45374 2.85343 0
M  V30 1173 C 116.39 -4.0895 1.13843 0
M  V30 1174 C 114.297 -4.87266 3.35151 0
M  V30 1175 H 113.227 -0.696661 0.288407 0
M  V30 1176 H 115.878 -1.30903 1.28595 0
M  V30 1177 H 114.26 -3.88456 0.769274 0
M  V30 1178 H 115.434 -3.00816 3.49065 0
M  V30 1179 H 113.749 -2.83619 3.04876 0
M  V30 1180 H 116.346 -5.13654 1.4854 0
M  V30 1181 H 116.689 -4.16229 0.0770282 0
M  V30 1182 H 117.222 -3.605 1.68179 0
M  V30 1183 H 113.961 -4.85168 4.40786 0
M  V30 1184 H 113.481 -5.32433 2.76179 0
M  V30 1185 H 115.16 -5.56097 3.30704 0
M  V30 1186 N 115.292 -0.849877 -1.32721 0
M  V30 1187 C 116.517 -0.463856 -2.02146 0
M  V30 1188 C 116.942 0.930449 -1.63476 0
M  V30 1189 O 116.3 1.61033 -0.832952 0
M  V30 1190 C 116.348 -0.604955 -3.55489 0
M  V30 1191 O 115.452 0.36425 -4.10788 0
M  V30 1192 H 114.793 -0.187046 -0.637111 0
M  V30 1193 H 117.323 -1.14775 -1.69375 0
M  V30 1194 H 117.333 -0.490696 -4.05038 0
M  V30 1195 H 116.008 -1.62174 -3.82978 0
M  V30 1196 H 114.585 0.206628 -3.72327 0
M  V30 1197 N 116.77 1.45427 -0.607355 0
M  V30 1198 C 118.016 2.0254 -0.102607 0
M  V30 1199 C 118.349 1.47478 1.26348 0
M  V30 1200 O 117.624 0.64939 1.83339 0
M  V30 1201 C 117.907 3.60044 -0.0634347 0
M  V30 1202 C 117.76 4.2544 -1.46017 0
M  V30 1203 C 119.079 4.35646 0.624514 0
M  V30 1204 H 116.198 0.73598 -0.0387607 0
M  V30 1205 H 118.84 1.73284 -0.779282 0
M  V30 1206 H 116.99 3.85101 0.512808 0
M  V30 1207 H 118.662 4.11569 -2.08347 0
M  V30 1208 H 116.905 3.83849 -2.02094 0
M  V30 1209 H 117.576 5.34342 -1.385 0
M  V30 1210 H 120.052 4.15882 0.134723 0
M  V30 1211 H 118.928 5.45376 0.621028 0
M  V30 1212 H 119.189 4.08501 1.69055 0
M  V30 1213 N 118.248 0.346503 1.53744 0
M  V30 1214 C 119.178 -0.501193 2.28058 0
M  V30 1215 C 120.159 -1.10014 1.29734 0
M  V30 1216 O 121.344 -1.12097 1.58581 0
M  V30 1217 C 118.474 -1.65078 3.05559 0
M  V30 1218 C 117.428 -1.18003 4.11411 0
M  V30 1219 C 116.754 -2.41837 4.76884 0
M  V30 1220 C 118.054 -0.278394 5.21558 0
M  V30 1221 H 119.748 0.11875 2.99164 0
M  V30 1222 H 117.294 0.0585531 1.43881 0
M  V30 1223 H 119.247 -2.25028 3.56287 0
M  V30 1224 H 117.971 -2.29767 2.32109 0
M  V30 1225 H 116.63 -0.603331 3.61601 0
M  V30 1226 H 116.278 -3.0494 4.00026 0
M  V30 1227 H 115.978 -2.1102 5.48402 0
M  V30 1228 H 117.502 -3.02508 5.30397 0
M  V30 1229 H 118.916 -0.784823 5.67903 0
M  V30 1230 H 117.313 -0.0619707 6.00068 0
M  V30 1231 H 118.383 0.684677 4.80042 0
M  V30 1232 N 119.726 -1.57421 0.075193 0
M  V30 1233 C 120.974 -1.93236 -0.591974 0
M  V30 1234 C 121.295 -0.956241 -1.69944 0
M  V30 1235 O 120.565 -0.00494792 -1.95899 0
M  V30 1236 H 119.145 -0.713355 -0.22166 0
M  V30 1237 H 121.807 -1.9444 0.133848 0
M  V30 1238 H 120.903 -2.95131 -1.01509 0
M  V30 1239 N 121.204 0.198386 -1.56346 0
M  V30 1240 C 122.152 1.26538 -1.95169 0
M  V30 1241 C 123.146 1.47295 -0.836685 0
M  V30 1242 O 124.352 1.48195 -1.02167 0
M  V30 1243 H 120.727 0.424744 -0.620561 0
M  V30 1244 H 122.698 0.910904 -2.84157 0
M  V30 1245 C 121.447 2.6035 -2.30463 0
M  V30 1246 H 120.77 2.45192 -3.15786 0
M  V30 1247 H 122.21 3.33762 -2.61494 0
M  V30 1248 C 120.669 3.17096 -1.13806 0
M  V30 1249 O 121.199 3.99588 -0.41135 0
M  V30 1250 N 119.405 2.75795 -0.915736 0
M  V30 1251 H 118.952 2.08816 -1.50843 0
M  V30 1252 H 118.91 3.14101 -0.136979 0
M  V30 1253 N 122.682 1.50554 0.465978 0
M  V30 1254 C 123.93 1.61479 1.21528 0
M  V30 1255 C 124.251 0.319596 1.92363 0
M  V30 1256 O 123.521 -0.663194 1.84333 0
M  V30 1257 H 122.101 0.595055 0.451573 0
M  V30 1258 H 124.763 1.87355 0.53704 0
M  V30 1259 H 123.859 2.42846 1.96042 0
M  V30 1260 N 124.16 -0.719506 1.40217 0
M  V30 1261 C 125.093 -1.84298 1.34571 0
M  V30 1262 C 126.071 -1.61149 0.216741 0
M  V30 1263 O 127.255 -1.84212 0.399756 0
M  V30 1264 C 124.382 -3.20568 1.09335 0
M  V30 1265 C 123.428 -3.62551 2.24631 0
M  V30 1266 S 124.261 -3.7012 3.87004 0
M  V30 1267 C 125.417 -5.09154 3.64024 0
M  V30 1268 H 125.65 -1.88807 2.2965 0
M  V30 1269 H 123.183 -0.885901 1.26456 0
M  V30 1270 H 125.141 -3.99246 0.954602 0
M  V30 1271 H 123.802 -3.13696 0.159164 0
M  V30 1272 H 122.995 -4.61483 2.02606 0
M  V30 1273 H 122.597 -2.91119 2.34789 0
M  V30 1274 H 124.889 -5.95955 3.22248 0
M  V30 1275 H 125.832 -5.36213 4.62473 0
M  V30 1276 H 126.24 -4.79562 2.97793 0
M  V30 1277 N 125.638 -1.25649 -0.95132 0
M  V30 1278 C 126.884 -1.10757 -1.69884 0
M  V30 1279 C 127.217 0.350061 -1.91019 0
M  V30 1280 O 126.492 1.25783 -1.48354 0
M  V30 1281 C 126.775 -1.86606 -3.07978 0
M  V30 1282 C 126.628 -3.40217 -2.94232 0
M  V30 1283 C 127.947 -1.65182 -4.07925 0
M  V30 1284 H 125.066 -0.40374 -0.616574 0
M  V30 1285 H 127.708 -1.54521 -1.10558 0
M  V30 1286 H 125.858 -1.49409 -3.58621 0
M  V30 1287 H 127.53 -3.87108 -2.50889 0
M  V30 1288 H 125.773 -3.67759 -2.30078 0
M  V30 1289 H 126.444 -3.88505 -3.92133 0
M  V30 1290 H 128.92 -1.9757 -3.66204 0
M  V30 1291 H 127.796 -2.20683 -5.02583 0
M  V30 1292 H 128.057 -0.593933 -4.38092 0
M  V30 1293 N 127.117 1.15442 -1.07289 0
M  V30 1294 C 128.366 1.85557 -0.790669 0
M  V30 1295 C 128.679 1.83186 0.685739 0
M  V30 1296 O 129.885 2.48977 1.0827 0
M  V30 1297 C 128.341 3.33038 -1.36433 0
M  V30 1298 C 127.949 3.43856 -2.8717 0
M  V30 1299 C 129.693 4.0834 -1.1601 0
M  V30 1300 C 127.6 4.85482 -3.3773 0
M  V30 1301 H 126.53 0.695122 -0.292098 0
M  V30 1302 H 129.181 1.30219 -1.29287 0
M  V30 1303 H 127.563 3.88043 -0.789864 0
M  V30 1304 H 128.737 2.98961 -3.50655 0
M  V30 1305 H 127.052 2.81998 -3.06376 0
M  V30 1306 H 129.649 5.12859 -1.51262 0
M  V30 1307 H 129.992 4.16182 -0.0991007 0
M  V30 1308 H 130.525 3.59603 -1.70089 0
M  V30 1309 H 127.264 4.82823 -4.43353 0
M  V30 1310 H 126.784 5.30961 -2.78999 0
M  V30 1311 H 128.463 5.54335 -3.33648 0
M  V30 1312 N 128.595 0.856903 1.32268 0
M  V30 1313 C 129.545 0.274899 2.26337 0
M  V30 1314 C 130.529 -0.580543 1.50062 0
M  V30 1315 O 131.721 -0.429559 1.71708 0
M  V30 1316 C 128.85 -0.533841 3.39124 0
M  V30 1317 C 127.936 0.334114 4.22782 0
M  V30 1318 N 128.327 1.42143 4.85416 0
M  V30 1319 C 126.625 0.124256 4.45827 0
M  V30 1320 C 127.326 1.95559 5.47843 0
M  V30 1321 N 126.302 1.25444 5.28928 0
M  V30 1322 H 130.104 1.10612 2.72291 0
M  V30 1323 H 127.618 0.703258 1.46383 0
M  V30 1324 H 129.615 -0.96722 4.05525 0
M  V30 1325 H 128.275 -1.36283 2.94715 0
M  V30 1326 H 129.286 1.80436 4.85451 0
M  V30 1327 H 125.963 -0.669837 4.12092 0
M  V30 1328 H 127.353 2.86714 6.07655 0
M  V30 1329 N 130.073 -1.45103 0.615059 0
M  V30 1330 C 131.319 -2.02483 0.113347 0
M  V30 1331 C 131.652 -1.48146 -1.25564 0
M  V30 1332 O 130.927 -0.659104 -1.82992 0
M  V30 1333 C 131.21 -3.60005 0.0825278 0
M  V30 1334 C 131.063 -4.2466 1.48271 0
M  V30 1335 C 132.382 -4.35972 -0.601401 0
M  V30 1336 H 129.501 -0.735764 0.0426632 0
M  V30 1337 H 132.143 -1.72868 0.788461 0
M  V30 1338 H 130.293 -3.85367 -0.492378 0
M  V30 1339 H 131.965 -4.10458 2.10527 0
M  V30 1340 H 130.208 -3.82772 2.04127 0
M  V30 1341 H 130.879 -5.336 1.41332 0
M  V30 1342 H 133.355 -4.15947 -0.112666 0
M  V30 1343 H 132.231 -5.45697 -0.592097 0
M  V30 1344 H 132.492 -4.09391 -1.66887 0
M  V30 1345 N 131.551 -0.354651 -1.53558 0
M  V30 1346 C 132.498 0.496968 -2.25386 0
M  V30 1347 C 133.468 1.0865 -1.25636 0
M  V30 1348 O 134.653 1.12104 -1.54394 0
M  V30 1349 C 131.793 1.63637 -3.03837 0
M  V30 1350 C 130.906 1.07307 -4.18461 0
M  V30 1351 C 130.041 2.18068 -4.84376 0
M  V30 1352 C 129.08 1.59147 -5.91049 0
M  V30 1353 N 128.217 2.63695 -6.50699 0
M  V30 1354 H 133.057 -0.122075 -2.9775 0
M  V30 1355 H 130.594 -0.0720154 -1.46924 0
M  V30 1356 H 132.552 2.30734 -3.47589 0
M  V30 1357 H 131.182 2.22623 -2.33749 0
M  V30 1358 H 130.234 0.292708 -3.79272 0
M  V30 1359 H 131.546 0.602193 -4.95152 0
M  V30 1360 H 130.7 2.93007 -5.31255 0
M  V30 1361 H 129.439 2.68504 -4.07133 0
M  V30 1362 H 128.444 0.827175 -5.43542 0
M  V30 1363 H 129.669 1.09549 -6.70206 0
M  V30 1364 H 127.615 3.13365 -5.76315 0
M  V30 1365 H 127.532 2.21263 -7.22896 0
M  V30 1366 H 128.8 3.3837 -7.02229 0
M  V30 1367 N 133.029 1.57378 -0.0835403 0
M  V30 1368 C 134.254 1.98682 0.594987 0
M  V30 1369 C 134.679 0.961969 1.61641 0
M  V30 1370 O 134.037 -0.0709989 1.81161 0
M  V30 1371 C 134.085 3.38988 1.2296 0
M  V30 1372 O 133.189 3.39208 2.34546 0
M  V30 1373 H 132.53 0.646368 0.152002 0
M  V30 1374 H 135.06 2.03961 -0.161533 0
M  V30 1375 H 135.07 3.76431 1.57366 0
M  V30 1376 H 133.745 4.13107 0.481228 0
M  V30 1377 H 132.322 3.13548 2.01846 0
M  V30 1378 N 134.507 -0.190092 1.56449 0
M  V30 1379 C 135.437 -1.23816 1.97969 0
M  V30 1380 C 136.418 -1.47201 0.852395 0
M  V30 1381 O 137.603 -1.58854 1.1171 0
M  V30 1382 C 134.733 -2.5813 2.3235 0
M  V30 1383 C 133.687 -2.49348 3.47864 0
M  V30 1384 C 133.013 -3.8798 3.67934 0
M  V30 1385 C 134.313 -2.01424 4.81898 0
M  V30 1386 H 136.007 -0.89311 2.85769 0
M  V30 1387 H 133.553 -0.428177 1.37487 0
M  V30 1388 H 135.506 -3.31637 2.59991 0
M  V30 1389 H 134.23 -2.94386 1.41438 0
M  V30 1390 H 132.889 -1.78297 3.20321 0
M  V30 1391 H 132.537 -4.21597 2.74344 0
M  V30 1392 H 132.237 -3.82978 4.45648 0
M  V30 1393 H 133.761 -4.63101 3.97957 0
M  V30 1394 H 135.175 -2.64693 5.08538 0
M  V30 1395 H 133.572 -2.07413 5.63116 0
M  V30 1396 H 134.642 -0.967677 4.75146 0
M  V30 1397 N 135.985 -1.50799 -0.457987 0
M  V30 1398 C 136.918 -1.65273 -1.57353 0
M  V30 1399 C 137.896 -0.500578 -1.54703 0
M  V30 1400 O 139.08 -0.721781 -1.74134 0
M  V30 1401 C 136.207 -1.64737 -2.95938 0
M  V30 1402 C 135.253 -2.8567 -3.16693 0
M  V30 1403 S 136.086 -4.46791 -2.95191 0
M  V30 1404 C 137.242 -4.48968 -4.36095 0
M  V30 1405 H 137.475 -2.59633 -1.44838 0
M  V30 1406 H 135.008 -1.40225 -0.64625 0
M  V30 1407 H 136.966 -1.65112 -3.7583 0
M  V30 1408 H 135.627 -0.715899 -3.05833 0
M  V30 1409 H 134.82 -2.81637 -4.17967 0
M  V30 1410 H 134.422 -2.8293 -2.44594 0
M  V30 1411 H 136.714 -4.23337 -5.28954 0
M  V30 1412 H 137.657 -5.50664 -4.45168 0
M  V30 1413 H 138.065 -3.78522 -4.18786 0
M  V30 1414 N 137.463 0.71206 -1.40597 0
M  V30 1415 C 138.373 1.8562 -1.43466 0
M  V30 1416 C 139.389 1.70902 -0.326902 0
M  V30 1417 O 140.565 1.93105 -0.572043 0
M  V30 1418 C 137.63 3.21451 -1.29884 0
M  V30 1419 C 136.691 3.48398 -2.50833 0
M  V30 1420 C 135.924 4.77749 -2.3789 0
M  V30 1421 O 136.147 5.53089 -1.39459 0
M  V30 1422 O 135.081 5.05111 -3.27333 0
M  V30 1423 H 138.907 1.86155 -2.39958 0
M  V30 1424 H 136.492 0.86295 -1.21957 0
M  V30 1425 H 138.374 4.02579 -1.24531 0
M  V30 1426 H 137.049 3.21636 -0.364997 0
M  V30 1427 H 135.956 2.67265 -2.61763 0
M  V30 1428 H 137.289 3.53014 -3.4299 0
M  V30 1429 N 138.941 1.26152 0.944643 0
M  V30 1430 C 139.851 1.09176 2.07648 0
M  V30 1431 C 140.867 0.0261935 1.7398 0
M  V30 1432 O 142.043 0.229208 2.00091 0
M  V30 1433 C 139.108 0.722915 3.39079 0
M  V30 1434 C 138.169 1.86752 3.86552 0
M  V30 1435 C 137.402 1.51617 5.11711 0
M  V30 1436 O 137.625 0.416331 5.68879 0
M  V30 1437 O 136.559 2.34975 5.54139 0
M  V30 1438 H 140.385 2.0412 2.24875 0
M  V30 1439 H 137.97 1.05182 1.061 0
M  V30 1440 H 139.852 0.529787 4.18056 0
M  V30 1441 H 138.527 -0.197159 3.23099 0
M  V30 1442 H 137.434 2.11558 3.08535 0
M  V30 1443 H 138.767 2.76719 4.07047 0
M  V30 1444 N 140.419 -1.14872 1.07899 0
M  V30 1445 C 141.668 -1.85135 0.800499 0
M  V30 1446 C 141.981 -1.83547 -0.676014 0
M  V30 1447 O 143.187 -2.49548 -1.06948 0
M  V30 1448 C 141.643 -3.3231 1.38197 0
M  V30 1449 C 141.251 -3.42329 2.8899 0
M  V30 1450 C 142.995 -4.0772 1.18174 0
M  V30 1451 C 140.902 -4.83684 3.403 0
M  V30 1452 H 139.832 -0.693563 0.29578 0
M  V30 1453 H 142.483 -1.29532 1.29976 0
M  V30 1454 H 140.865 -3.87618 0.810431 0
M  V30 1455 H 142.039 -2.97097 3.52236 0
M  V30 1456 H 140.354 -2.80369 3.07867 0
M  V30 1457 H 142.951 -5.12049 1.5398 0
M  V30 1458 H 143.294 -4.16124 0.12117 0
M  V30 1459 H 143.827 -3.58696 1.71994 0
M  V30 1460 H 140.566 -4.80465 4.45907 0
M  V30 1461 H 140.086 -5.29474 2.81811 0
M  V30 1462 H 141.765 -5.52558 3.36584 0
M  V30 1463 N 141.898 -0.863906 -1.31812 0
M  V30 1464 C 142.808 -0.318461 -2.32428 0
M  V30 1465 C 143.824 0.568496 -1.64451 0
M  V30 1466 O 145 0.46666 -1.95919 0
M  V30 1467 C 142.065 0.476355 -3.43412 0
M  V30 1468 C 141.126 -0.43784 -4.27061 0
M  V30 1469 C 140.359 0.319138 -5.32745 0
M  V30 1470 O 140.582 1.54799 -5.48993 0
M  V30 1471 O 139.516 -0.319861 -6.01049 0
M  V30 1472 H 143.342 -1.15229 -2.80991 0
M  V30 1473 H 140.927 -0.627103 -1.35602 0
M  V30 1474 H 142.809 0.927156 -4.11074 0
M  V30 1475 H 141.484 1.28683 -2.97022 0
M  V30 1476 H 140.391 -0.937013 -3.62175 0
M  V30 1477 H 141.724 -1.21375 -4.77 0
M  V30 1478 N 143.376 1.44774 -0.622745 0
M  V30 1479 C 144.601 2.06999 -0.128968 0
M  V30 1480 C 145.026 1.4617 1.1839 0
M  V30 1481 O 144.384 0.560007 1.72434 0
M  V30 1482 C 144.432 3.60595 -0.0188351 0
M  V30 1483 O 143.536 3.99398 1.02739 0
M  V30 1484 H 142.877 0.659047 -0.0809544 0
M  V30 1485 H 145.407 1.85784 -0.85705 0
M  V30 1486 H 145.417 4.07627 0.174476 0
M  V30 1487 H 144.092 4.04252 -0.977384 0
M  V30 1488 H 142.669 3.64011 0.809326 0
M  V30 1489 N 144.854 0.36279 1.53368 0
M  V30 1490 C 146.1 -0.228113 2.01513 0
M  V30 1491 C 146.433 -1.48648 1.2497 0
M  V30 1492 O 145.708 -1.91459 0.342616 0
M  V30 1493 C 145.991 -0.522884 3.56284 0
M  V30 1494 C 145.844 0.74892 4.43521 0
M  V30 1495 C 147.163 -1.32461 4.19693 0
M  V30 1496 H 144.282 -0.0814343 0.732487 0
M  V30 1497 H 146.924 0.48713 1.83649 0
M  V30 1498 H 145.074 -1.1322 3.71636 0
M  V30 1499 H 146.746 1.38648 4.39971 0
M  V30 1500 H 144.989 1.36986 4.11603 0
M  V30 1501 H 145.66 0.497667 5.49752 0
M  V30 1502 H 148.136 -0.809203 4.08156 0
M  V30 1503 H 147.012 -1.49961 5.28018 0
M  V30 1504 H 147.273 -2.33232 3.75573 0
M  V30 1505 N 146.332 -1.57332 0.0918853 0
M  V30 1506 C 147.58 -1.93853 -0.571446 0
M  V30 1507 C 147.901 -0.974212 -1.6892 0
M  V30 1508 O 147.171 -0.0257254 -1.95883 0
M  V30 1509 H 145.751 -0.715666 -0.214082 0
M  V30 1510 H 148.413 -1.94287 0.154464 0
M  V30 1511 H 147.509 -2.96191 -0.983729 0
M  V30 1512 N 147.81 0.181792 -1.56548 0
M  V30 1513 C 149.058 0.89832 -1.81038 0
M  V30 1514 C 149.379 1.83232 -0.667164 0
M  V30 1515 O 148.649 1.93372 0.313673 0
M  V30 1516 H 147.229 0.33471 -0.667816 0
M  V30 1517 H 149.891 0.184116 -1.94028 0
M  V30 1518 H 148.987 1.4815 -2.74696 0
M  V30 1519 N 149.288 1.51039 0.449983 0
M  V30 1520 C 150.235 1.71439 1.54523 0
M  V30 1521 C 151.205 0.555871 1.56522 0
M  V30 1522 O 152.39 0.788871 1.73728 0
M  V30 1523 C 149.53 1.83384 2.92343 0
M  V30 1524 C 148.643 3.10873 2.9997 0
M  V30 1525 C 147.778 3.13488 4.28834 0
M  V30 1526 C 146.817 4.35343 4.30282 0
M  V30 1527 N 145.954 4.35579 5.5065 0
M  V30 1528 H 150.794 2.64934 1.36433 0
M  V30 1529 H 148.331 1.31312 0.662982 0
M  V30 1530 H 150.289 1.88291 3.72293 0
M  V30 1531 H 148.919 0.933086 3.0902 0
M  V30 1532 H 147.971 3.15336 2.12761 0
M  V30 1533 H 149.283 4.00814 2.96901 0
M  V30 1534 H 148.437 3.17241 5.17149 0
M  V30 1535 H 147.176 2.21414 4.34543 0
M  V30 1536 H 146.181 4.3178 3.40362 0
M  V30 1537 H 147.406 5.28668 4.26248 0
M  V30 1538 H 145.352 3.46369 5.57104 0
M  V30 1539 H 145.269 5.19313 5.49409 0
M  V30 1540 H 146.537 4.43507 6.41032 0
M  V30 1541 N 150.766 -0.704594 1.40972 0
M  V30 1542 C 151.696 -1.83124 1.44872 0
M  V30 1543 C 152.677 -1.67281 0.30838 0
M  V30 1544 O 153.862 -1.87149 0.518556 0
M  V30 1545 C 150.992 -3.21181 1.32136 0
M  V30 1546 C 149.946 -3.51714 2.43888 0
M  V30 1547 C 149.272 -4.89032 2.16222 0
M  V30 1548 C 150.572 -3.516 3.86232 0
M  V30 1549 H 152.266 -1.80117 2.39161 0
M  V30 1550 H 149.812 -0.865145 1.15114 0
M  V30 1551 H 151.765 -3.99702 1.33479 0
M  V30 1552 H 150.489 -3.24791 0.343279 0
M  V30 1553 H 149.148 -2.75539 2.41813 0
M  V30 1554 H 148.796 -4.89256 1.16778 0
M  V30 1555 H 148.496 -5.10426 2.911 0
M  V30 1556 H 150.02 -5.69873 2.19265 0
M  V30 1557 H 151.434 -4.2014 3.9007 0
M  V30 1558 H 149.831 -3.84523 4.60719 0
M  V30 1559 H 150.901 -2.50757 4.15029 0
M  V30 1560 N 152.244 -1.26651 -0.937939 0
M  V30 1561 C 153.174 -1.10993 -2.05433 0
M  V30 1562 C 154.155 -0.0142161 -1.70094 0
M  V30 1563 O 155.34 -0.186837 -1.93299 0
M  V30 1564 C 152.47 -0.745561 -3.39203 0
M  V30 1565 C 151.424 -1.79337 -3.88616 0
M  V30 1566 C 150.75 -1.28324 -5.19073 0
M  V30 1567 C 152.05 -3.19553 -4.13138 0
M  V30 1568 H 153.744 -2.0438 -2.1879 0
M  V30 1569 H 151.29 -0.984041 -1.05131 0
M  V30 1570 H 153.243 -0.622888 -4.16771 0
M  V30 1571 H 151.967 0.22401 -3.25831 0
M  V30 1572 H 150.626 -1.90477 -3.13231 0
M  V30 1573 H 150.274 -0.303414 -5.02084 0
M  V30 1574 H 149.974 -1.98369 -5.53103 0
M  V30 1575 H 151.498 -1.1733 -5.99221 0
M  V30 1576 H 152.912 -3.11471 -4.81309 0
M  V30 1577 H 151.309 -3.87218 -4.58457 0
M  V30 1578 H 152.379 -3.65368 -3.18801 0
M  V30 1579 N 153.722 1.14298 -1.08507 0
M  V30 1580 C 154.999 1.81544 -0.728088 0
M  V30 1581 C 155.379 1.95838 0.78808 0
M  V30 1582 O 154.727 1.51904 1.70697 0
M  V30 1583 C 154.937 3.17169 -1.45619 0
M  V30 1584 C 156.285 3.9265 -1.61591 0
M  V30 1585 O 157.309 3.26762 -1.41793 0
M  V30 1586 O 156.168 5.10807 -1.94263 0
M  V30 1587 H 153.262 0.78491 -0.260471 0
M  V30 1588 H 155.808 1.21307 -1.18671 0
M  V30 1589 H 154.58 3.01934 -2.489 0
M  V30 1590 H 154.203 3.851 -0.989124 0
M  V30 1591 N 155.201 0.870884 1.31352 0
M  V30 1592 C 156.617 0.562932 1.49343 0
M  V30 1593 C 156.817 -0.902725 1.80148 0
M  V30 1594 O 155.873 -1.68484 1.88067 0
M  V30 1595 C 157.186 1.46393 2.62659 0
M  V30 1596 C 158.734 1.46607 2.76542 0
M  V30 1597 C 159.209 2.35266 3.92955 0
M  V30 1598 N 160.7 2.33151 4.00243 0
M  V30 1599 C 161.435 2.98471 4.89594 0
M  V30 1600 N 160.931 3.72964 5.8384 0
M  V30 1601 N 162.724 2.87775 4.82848 0
M  V30 1602 H 154.875 1.81923 1.09626 0
M  V30 1603 H 157.138 0.777934 0.541777 0
M  V30 1604 H 156.844 2.50689 2.46674 0
M  V30 1605 H 156.718 1.16314 3.58819 0
M  V30 1606 H 159.105 0.43069 2.9194 0
M  V30 1607 H 159.186 1.8071 1.81046 0
M  V30 1608 H 158.83 3.38881 3.78315 0
M  V30 1609 H 158.76 1.98487 4.87761 0
M  V30 1610 H 161.251 1.79006 3.32814 0
M  V30 1611 H 161.564 4.19932 6.4875 0
M  V30 1612 H 159.909 3.77073 5.83816 0
M  V30 1613 H 163.1 2.29116 4.08195 0
M  V30 1614 H 163.273 3.38961 5.52277 0
M  V30 1615 N 156.679 -1.44442 0.630414 0
M  V30 1616 C 157.609 -2.33418 -0.0618083 0
M  V30 1617 C 158.59 -1.48165 -0.835541 0
M  V30 1618 O 159.775 -1.76886 -0.801564 0
M  V30 1619 C 156.905 -3.31222 -1.04449 0
M  V30 1620 C 155.859 -4.26288 -0.382436 0
M  V30 1621 C 155.185 -5.13954 -1.47497 0
M  V30 1622 C 156.485 -5.1744 0.710865 0
M  V30 1623 H 158.179 -2.91548 0.681184 0
M  V30 1624 H 155.725 -1.40191 0.329026 0
M  V30 1625 H 157.678 -3.92351 -1.53748 0
M  V30 1626 H 156.402 -2.71299 -1.81836 0
M  V30 1627 H 155.061 -3.6649 0.0899054 0
M  V30 1628 H 154.709 -4.50385 -2.2397 0
M  V30 1629 H 154.409 -5.7837 -1.03737 0
M  V30 1630 H 155.933 -5.77955 -1.96979 0
M  V30 1631 H 157.347 -5.72509 0.300996 0
M  V30 1632 H 155.744 -5.90455 1.07156 0
M  V30 1633 H 156.814 -4.58496 1.57829 0
M  V30 1634 N 158.157 -0.370918 -1.53173 0
M  V30 1635 C 159.387 0.217389 -2.05453 0
M  V30 1636 C 159.795 1.42568 -1.24382 0
M  V30 1637 O 159.138 1.81571 -0.278839 0
M  V30 1638 C 159.2 0.669827 -3.53205 0
M  V30 1639 C 158.864 -0.4225 -4.55043 0
M  V30 1640 C 159.861 -1.27407 -5.04047 0
M  V30 1641 C 157.546 -0.58427 -4.9889 0
M  V30 1642 C 159.54 -2.27271 -5.95505 0
M  V30 1643 C 157.227 -1.58627 -5.90153 0
M  V30 1644 C 158.225 -2.42892 -6.38351 0
M  V30 1645 O 157.913 -3.41382 -7.27814 0
M  V30 1646 H 157.645 0.0408171 -0.674767 0
M  V30 1647 H 160.199 -0.5292 -1.98466 0
M  V30 1648 H 158.429 1.4681 -3.57748 0
M  V30 1649 H 160.118 1.18173 -3.88317 0
M  V30 1650 H 160.884 -1.16031 -4.70916 0
M  V30 1651 H 156.763 0.061851 -4.60959 0
M  V30 1652 H 160.307 -2.93079 -6.33049 0
M  V30 1653 H 156.204 -1.70048 -6.22699 0
M  V30 1654 H 156.972 -3.37173 -7.45826 0
M  V30 1655 N 159.635 1.57281 -0.100228 0
M  V30 1656 C 160.565 2.17328 0.853857 0
M  V30 1657 C 161.546 1.10804 1.2906 0
M  V30 1658 O 162.731 1.38963 1.35657 0
M  V30 1659 C 159.861 2.75772 2.11109 0
M  V30 1660 C 158.815 3.87713 1.81279 0
M  V30 1661 C 158.141 4.32882 3.13874 0
M  V30 1662 C 159.441 5.10677 1.09574 0
M  V30 1663 H 161.135 2.97305 0.353545 0
M  V30 1664 H 158.681 1.43009 0.168612 0
M  V30 1665 H 160.634 3.16433 2.78296 0
M  V30 1666 H 159.358 1.93057 2.63432 0
M  V30 1667 H 158.017 3.476 1.16489 0
M  V30 1668 H 157.665 3.47051 3.64095 0
M  V30 1669 H 157.365 5.08358 2.94696 0
M  V30 1670 H 158.889 4.7618 3.82211 0
M  V30 1671 H 160.303 5.48474 1.66879 0
M  V30 1672 H 158.7 5.91615 1.00557 0
M  V30 1673 H 159.77 4.84835 0.0793299 0
M  V30 1674 N 161.113 -0.173488 1.56642 0
M  V30 1675 C 162.338 -0.910149 1.86363 0
M  V30 1676 C 162.763 -1.75132 0.686318 0
M  V30 1677 O 162.121 -1.77595 -0.364643 0
M  V30 1678 C 162.169 -1.76447 3.14482 0
M  V30 1679 O 161.273 -2.86584 2.96553 0
M  V30 1680 H 160.614 -0.255086 0.613047 0
M  V30 1681 H 163.144 -0.172283 2.03873 0
M  V30 1682 H 163.154 -2.16483 3.45831 0
M  V30 1683 H 161.829 -1.14658 3.99783 0
M  V30 1684 H 160.406 -2.50146 2.76553 0
M  V30 1685 N 162.591 -1.51276 -0.441967 0
M  V30 1686 C 163.539 -1.72823 -1.55676 0
M  V30 1687 C 164.533 -0.59445 -1.58627 0
M  V30 1688 O 165.739 -0.775715 -1.62427 0
M  V30 1689 H 162.114 -0.545983 -0.517113 0
M  V30 1690 H 164.085 -2.6628 -1.34675 0
M  V30 1691 C 162.834 -1.86619 -2.93375 0
M  V30 1692 H 162.157 -2.73264 -2.91834 0
M  V30 1693 H 163.597 -2.05709 -3.70756 0
M  V30 1694 C 162.056 -0.624842 -3.31055 0
M  V30 1695 O 162.586 0.222636 -4.01083 0
M  V30 1696 N 160.792 -0.470288 -2.86769 0
M  V30 1697 H 160.339 -1.161 -2.29953 0
M  V30 1698 H 160.297 0.359051 -3.12343 0
M  V30 1699 N 164.069 0.697108 -1.41344 0
M  V30 1700 C 165.016 1.81106 -1.43071 0
M  V30 1701 C 165.986 1.63632 -0.285275 0
M  V30 1702 O 167.171 1.84504 -0.486091 0
M  V30 1703 C 164.311 3.18975 -1.31715 0
M  V30 1704 C 163.424 3.47892 -2.56115 0
M  V30 1705 C 162.559 4.75367 -2.37064 0
M  V30 1706 C 161.598 4.97247 -3.56948 0
M  V30 1707 N 160.735 6.15947 -3.36977 0
M  V30 1708 H 165.575 1.78965 -2.38276 0
M  V30 1709 H 163.112 0.873975 -1.18322 0
M  V30 1710 H 165.07 3.98615 -1.23133 0
M  V30 1711 H 163.7 3.20297 -0.401183 0
M  V30 1712 H 162.752 2.62669 -2.75153 0
M  V30 1713 H 164.064 3.59962 -3.45295 0
M  V30 1714 H 163.218 5.63059 -2.25941 0
M  V30 1715 H 161.957 4.65541 -1.45338 0
M  V30 1716 H 160.962 4.08004 -3.68527 0
M  V30 1717 H 162.187 5.08934 -4.49626 0
M  V30 1718 H 160.133 6.07336 -2.47949 0
M  V30 1719 H 160.05 6.28777 -4.19732 0
M  V30 1720 H 161.318 7.06377 -3.29623 0
M  V30 1721 N 165.547 1.27147 0.931209 0
M  V30 1722 C 166.51 1.09615 2.01289 0
M  V30 1723 C 167.51 0.0412581 1.60747 0
M  V30 1724 O 168.7 0.285545 1.71844 0
M  V30 1725 C 165.832 0.669447 3.34262 0
M  V30 1726 H 167.025 2.05662 2.18273 0
M  V30 1727 H 164.578 1.09885 1.11153 0
M  V30 1728 H 165.313 -0.292572 3.22978 0
M  V30 1729 H 165.098 1.43127 3.65044 0
M  V30 1730 H 166.588 0.568921 4.13706 0
M  V30 1731 N 167.025 -1.13721 1.09112 0
M  V30 1732 C 167.975 -2.17082 0.697091 0
M  V30 1733 C 168.959 -1.58321 -0.286923 0
M  V30 1734 O 170.151 -1.7673 -0.0978008 0
M  V30 1735 C 167.28 -3.43105 0.115729 0
M  V30 1736 C 166.366 -4.0888 1.12596 0
M  V30 1737 N 166.757 -4.4987 2.31195 0
M  V30 1738 C 165.055 -4.35471 0.963366 0
M  V30 1739 C 165.756 -5.01094 2.95431 0
M  V30 1740 N 164.732 -4.95751 2.23006 0
M  V30 1741 H 168.534 -2.46524 1.6001 0
M  V30 1742 H 166.048 -1.30481 0.966869 0
M  V30 1743 H 168.045 -4.16491 -0.184555 0
M  V30 1744 H 166.705 -3.15138 -0.78217 0
M  V30 1745 H 167.716 -4.42678 2.68806 0
M  V30 1746 H 164.393 -4.17328 0.119878 0
M  V30 1747 H 165.783 -5.4263 3.96236 0
M  V30 1748 N 168.503 -0.877838 -1.30888 0
M  V30 1749 C 169.752 -0.488793 -1.95688 0
M  V30 1750 C 170.065 0.965485 -1.70111 0
M  V30 1751 O 171.271 1.46104 -2.28836 0
M  V30 1752 C 169.727 -0.823201 -3.50359 0
M  V30 1753 C 169.335 -2.29477 -3.84765 0
M  V30 1754 C 171.079 -0.503009 -4.21509 0
M  V30 1755 C 168.986 -2.57118 -5.32583 0
M  V30 1756 H 167.916 -0.179062 -0.732429 0
M  V30 1757 H 170.567 -1.07183 -1.48943 0
M  V30 1758 H 168.949 -0.169331 -3.95638 0
M  V30 1759 H 170.123 -2.99236 -3.5042 0
M  V30 1760 H 168.438 -2.58178 -3.267 0
M  V30 1761 H 171.035 -0.68665 -5.30273 0
M  V30 1762 H 171.378 0.557109 -4.12555 0
M  V30 1763 H 171.911 -1.11376 -3.8189 0
M  V30 1764 H 168.65 -3.61843 -5.4658 0
M  V30 1765 H 168.17 -1.91961 -5.68253 0
M  V30 1766 H 169.849 -2.42251 -5.99936 0
M  V30 1767 N 169.982 1.44106 -0.638065 0
M  V30 1768 C 170.912 2.33448 0.0494287 0
M  V30 1769 C 171.893 1.48606 0.827672 0
M  V30 1770 O 173.078 1.77308 0.792173 0
M  V30 1771 C 170.208 3.31771 1.02691 0
M  V30 1772 C 169.162 4.26485 0.359823 0
M  V30 1773 C 168.488 5.14729 1.44769 0
M  V30 1774 C 169.788 5.17056 -0.738296 0
M  V30 1775 H 171.482 2.91183 -0.696636 0
M  V30 1776 H 169.028 1.40014 -0.336456 0
M  V30 1777 H 170.981 3.93161 1.51666 0
M  V30 1778 H 169.705 2.7226 1.80395 0
M  V30 1779 H 168.364 3.66437 -0.10934 0
M  V30 1780 H 168.012 4.51566 2.21578 0
M  V30 1781 H 167.712 5.78913 1.00668 0
M  V30 1782 H 169.236 5.78991 1.93911 0
M  V30 1783 H 170.65 5.72342 -0.331354 0
M  V30 1784 H 169.047 5.89879 -1.10286 0
M  V30 1785 H 170.117 4.57652 -1.60258 0
M  V30 1786 N 171.46 0.379036 1.52974 0
M  V30 1787 C 172.707 -0.206421 2.01445 0
M  V30 1788 C 173.035 -1.47668 1.26587 0
M  V30 1789 O 172.29 -1.92514 0.351675 0
M  V30 1790 C 172.589 -0.53096 3.53434 0
M  V30 1791 C 172.255 0.646546 4.46241 0
M  V30 1792 C 170.917 0.969604 4.7133 0
M  V30 1793 C 173.269 1.43479 5.01062 0
M  V30 1794 C 170.597 2.08263 5.48492 0
M  V30 1795 C 172.949 2.53834 5.7944 0
M  V30 1796 C 171.613 2.86659 6.02812 0
M  V30 1797 H 170.883 -0.0755349 0.73714 0
M  V30 1798 H 173.53 0.514271 1.84465 0
M  V30 1799 H 171.835 -1.33285 3.68432 0
M  V30 1800 H 173.532 -0.996417 3.88423 0
M  V30 1801 H 170.122 0.384734 4.2687 0
M  V30 1802 H 174.306 1.19844 4.81613 0
M  V30 1803 H 169.562 2.34078 5.64816 0
M  V30 1804 H 173.736 3.15319 6.20924 0
M  V30 1805 H 171.363 3.73026 6.62387 0
M  V30 1806 N 172.938 -1.57226 0.108567 0
M  V30 1807 C 174.215 -1.86333 -0.594939 0
M  V30 1808 C 174.595 -1.00788 -1.85486 0
M  V30 1809 O 173.943 -0.0839293 -2.28346 0
M  V30 1810 C 174.153 -3.37265 -0.897405 0
M  V30 1811 C 175.501 -4.05629 -1.25501 0
M  V30 1812 O 176.525 -3.42224 -0.987998 0
M  V30 1813 O 175.384 -5.17531 -1.75567 0
M  V30 1814 H 172.478 -0.771018 -0.2991 0
M  V30 1815 H 175.024 -1.69102 0.142283 0
M  V30 1816 H 173.796 -3.913 -0.00413806 0
M  V30 1817 H 173.419 -3.59889 -1.69014 0
M  V30 1818 N 174.416 0.165178 -1.56732 0
M  V30 1819 C 175.665 0.879143 -1.81532 0
M  V30 1820 C 175.978 1.83144 -0.686842 0
M  V30 1821 O 177.184 2.58823 -0.819944 0
M  V30 1822 C 175.64 1.61388 -3.21686 0
M  V30 1823 C 175.248 0.704904 -4.4242 0
M  V30 1824 C 176.992 2.3157 -3.55774 0
M  V30 1825 C 174.899 1.44022 -5.73595 0
M  V30 1826 H 173.829 0.332033 -0.676957 0
M  V30 1827 H 176.48 0.132008 -1.83025 0
M  V30 1828 H 174.862 2.40599 -3.14529 0
M  V30 1829 H 176.036 -0.0506815 -4.60772 0
M  V30 1830 H 174.351 0.112419 -4.16248 0
M  V30 1831 H 176.948 2.8719 -4.51028 0
M  V30 1832 H 177.291 3.07201 -2.8095 0
M  V30 1833 H 177.824 1.59297 -3.64513 0
M  V30 1834 H 174.563 0.72612 -6.51466 0
M  V30 1835 H 174.083 2.16898 -5.5921 0
M  V30 1836 H 175.762 1.98606 -6.15764 0
M  V30 1837 N 175.894 1.51508 0.433938 0
M  V30 1838 C 176.844 1.69451 1.52546 0
M  V30 1839 C 177.828 0.548474 1.51263 0
M  V30 1840 O 179.02 0.804529 1.57659 0
M  V30 1841 C 176.149 1.82604 2.90707 0
M  V30 1842 C 175.235 3.03002 2.96733 0
M  V30 1843 N 175.626 4.26121 2.72496 0
M  V30 1844 C 173.924 3.02327 3.27894 0
M  V30 1845 C 174.625 5.07407 2.84452 0
M  V30 1846 N 173.601 4.42126 3.16269 0
M  V30 1847 H 177.403 2.62305 1.32564 0
M  V30 1848 H 174.917 1.49202 0.641297 0
M  V30 1849 H 176.914 1.93569 3.69238 0
M  V30 1850 H 175.574 0.909339 3.11707 0
M  V30 1851 H 176.585 4.55009 2.4736 0
M  V30 1852 H 173.262 2.20301 3.54646 0
M  V30 1853 H 174.652 6.15422 2.69639 0
M  V30 1854 N 177.372 -0.689602 1.41712 0
M  V30 1855 C 178.304 -1.815 1.39966 0
M  V30 1856 C 179.317 -1.59995 0.300917 0
M  V30 1857 O 180.506 -1.69387 0.563039 0
M  V30 1858 C 177.606 -3.18364 1.16179 0
M  V30 1859 C 176.779 -3.66847 2.38206 0
M  V30 1860 C 175.838 -4.82398 2.10186 0
M  V30 1861 O 174.864 -4.93706 2.83272 0
M  V30 1862 N 176.066 -5.70064 1.0958 0
M  V30 1863 H 178.831 -1.83488 2.36965 0
M  V30 1864 H 176.392 -0.872149 1.36401 0
M  V30 1865 H 178.384 -3.93301 0.953756 0
M  V30 1866 H 176.954 -3.11365 0.27756 0
M  V30 1867 H 176.174 -2.82751 2.74673 0
M  V30 1868 H 177.462 -3.95978 3.19498 0
M  V30 1869 H 176.86 -5.63565 0.491019 0
M  V30 1870 H 175.417 -6.44874 0.947656 0
M  V30 1871 N 178.85 -1.27639 -0.924453 0
M  V30 1872 C 180.099 -1.13549 -1.66702 0
M  V30 1873 C 180.412 0.317487 -1.93006 0
M  V30 1874 O 181.618 0.579333 -2.65247 0
M  V30 1875 C 180.074 -1.98426 -3.00259 0
M  V30 1876 C 179.682 -3.484 -2.81641 0
M  V30 1877 C 181.426 -1.92993 -3.78092 0
M  V30 1878 C 179.333 -4.25464 -4.10773 0
M  V30 1879 H 178.263 -0.421351 -0.625283 0
M  V30 1880 H 180.914 -1.52085 -1.02676 0
M  V30 1881 H 179.296 -1.52736 -3.6536 0
M  V30 1882 H 180.47 -4.01973 -2.25287 0
M  V30 1883 H 178.785 -3.55245 -2.17232 0
M  V30 1884 H 181.382 -2.47844 -4.7379 0
M  V30 1885 H 181.725 -0.904281 -4.0636 0
M  V30 1886 H 182.258 -2.36595 -3.19793 0
M  V30 1887 H 178.997 -5.28566 -3.87683 0
M  V30 1888 H 178.517 -3.76667 -4.66779 0
M  V30 1889 H 180.196 -4.34812 -4.79111 0
M  V30 1890 N 180.328 1.1314 -1.09713 0
M  V30 1891 C 181.577 1.83838 -0.829851 0
M  V30 1892 C 181.89 1.84599 0.646728 0
M  V30 1893 O 183.096 2.51218 1.02965 0
M  V30 1894 C 181.552 3.30069 -1.43466 0
M  V30 1895 C 181.16 3.37688 -2.94399 0
M  V30 1896 C 182.904 4.05788 -1.24645 0
M  V30 1897 C 180.811 4.78209 -3.47952 0
M  V30 1898 H 179.741 0.68877 -0.306777 0
M  V30 1899 H 182.392 1.27448 -1.3202 0
M  V30 1900 H 180.774 3.8628 -0.871996 0
M  V30 1901 H 181.948 2.91456 -3.56918 0
M  V30 1902 H 180.263 2.75436 -3.12289 0
M  V30 1903 H 182.86 5.09535 -1.62107 0
M  V30 1904 H 183.203 4.15878 -0.187357 0
M  V30 1905 H 183.736 3.55915 -1.77678 0
M  V30 1906 H 180.475 4.73311 -4.53495 0
M  V30 1907 H 179.995 5.24924 -2.90198 0
M  V30 1908 H 181.674 5.47133 -3.45332 0
M  V30 1909 N 181.806 0.884767 1.30421 0
M  V30 1910 C 183.083 0.423185 1.90967 0
M  V30 1911 C 183.463 -1.09605 1.80416 0
M  V30 1912 O 182.811 -1.93126 1.22125 0
M  V30 1913 C 183.021 0.921056 3.36627 0
M  V30 1914 C 184.369 0.955903 4.137 0
M  V30 1915 O 185.393 0.867706 3.4547 0
M  V30 1916 O 184.252 1.08614 5.35598 0
M  V30 1917 H 181.346 0.129369 0.816819 0
M  V30 1918 H 183.892 0.973653 1.3899 0
M  V30 1919 H 182.664 1.96489 3.3839 0
M  V30 1920 H 182.287 0.349741 3.96059 0
M  V30 1921 N 183.284 -1.43765 0.645699 0
M  V30 1922 C 184.509 -2.06767 0.161883 0
M  V30 1923 C 184.934 -1.48034 -1.16049 0
M  V30 1924 O 184.292 -0.587369 -1.71522 0
M  V30 1925 C 184.34 -3.60519 0.0762003 0
M  V30 1926 O 183.444 -4.00982 -0.963721 0
M  V30 1927 H 182.785 -0.657675 0.091429 0
M  V30 1928 H 185.315 -1.84397 0.886499 0
M  V30 1929 H 185.325 -4.07853 -0.109604 0
M  V30 1930 H 184 -4.02646 1.04157 0
M  V30 1931 H 182.577 -3.65253 -0.751312 0
M  V30 1932 N 184.763 -0.387143 -1.52771 0
M  V30 1933 C 186.012 0.19697 -2.00736 0
M  V30 1934 C 186.325 1.48082 -1.27793 0
M  V30 1935 O 187.531 2.14485 -1.66458 0
M  V30 1936 C 185.987 0.401568 -3.57653 0
M  V30 1937 C 185.595 -0.868907 -4.39493 0
M  V30 1938 C 187.339 0.942164 -4.13912 0
M  V30 1939 C 185.246 -0.632705 -5.88006 0
M  V30 1940 H 184.176 0.0773827 -0.750019 0
M  V30 1941 H 186.827 -0.50921 -1.76293 0
M  V30 1942 H 185.209 1.16954 -3.78335 0
M  V30 1943 H 186.383 -1.64133 -4.30577 0
M  V30 1944 H 184.698 -1.33429 -3.94443 0
M  V30 1945 H 187.295 1.13455 -5.22525 0
M  V30 1946 H 187.638 1.9106 -3.69867 0
M  V30 1947 H 188.171 0.233814 -3.97112 0
M  V30 1948 H 184.91 -1.57208 -6.36369 0
M  V30 1949 H 184.43 0.100825 -5.99715 0
M  V30 1950 H 186.109 -0.26642 -6.46451 0
M  V30 1951 N 186.241 1.57166 -0.116904 0
M  V30 1952 C 187.173 2.12271 0.864507 0
M  V30 1953 C 188.186 1.06494 1.23138 0
M  V30 1954 O 189.375 1.33873 1.18069 0
M  V30 1955 C 186.475 2.60564 2.16702 0
M  V30 1956 C 185.648 3.90416 1.97216 0
M  V30 1957 C 184.707 4.24329 3.11178 0
M  V30 1958 O 183.733 4.93182 2.84184 0
M  V30 1959 N 184.935 3.8148 4.37554 0
M  V30 1960 H 187.7 2.97102 0.393726 0
M  V30 1961 H 185.261 1.61759 0.0675805 0
M  V30 1962 H 187.253 2.80282 2.91932 0
M  V30 1963 H 185.823 1.80623 2.55135 0
M  V30 1964 H 185.043 3.79627 1.06192 0
M  V30 1965 H 186.331 4.75327 1.81499 0
M  V30 1966 H 185.729 3.25943 4.62361 0
M  V30 1967 H 184.286 4.06311 5.09661 0
M  V30 1968 N 187.719 -0.156864 1.56817 0
M  V30 1969 C 188.629 -1.2136 2.00771 0
M  V30 1970 C 189.645 -1.47598 0.921459 0
M  V30 1971 O 190.821 -1.59462 1.2302 0
M  V30 1972 C 187.886 -2.52943 2.37109 0
M  V30 1973 C 186.947 -2.34439 3.59634 0
M  V30 1974 C 186.18 -3.59748 3.94229 0
M  V30 1975 O 186.403 -4.65526 3.29609 0
M  V30 1976 O 185.337 -3.52998 4.8752 0
M  V30 1977 H 189.163 -0.870468 2.90958 0
M  V30 1978 H 186.748 -0.36484 1.44877 0
M  V30 1979 H 188.63 -3.30538 2.61386 0
M  V30 1980 H 187.305 -2.86806 1.5008 0
M  V30 1981 H 186.212 -1.54828 3.40557 0
M  V30 1982 H 187.545 -2.05496 4.4725 0
M  V30 1983 N 189.197 -1.51736 -0.425897 0
M  V30 1984 C 190.425 -1.68794 -1.1965 0
M  V30 1985 C 190.84 -0.390164 -1.84725 0
M  V30 1986 O 190.197 0.632376 -1.71194 0
M  V30 1987 C 190.248 -2.81174 -2.27208 0
M  V30 1988 O 189.969 -4.05925 -1.64793 0
M  V30 1989 C 191.47 -3.09599 -3.17275 0
M  V30 1990 H 188.69 -0.566128 -0.360194 0
M  V30 1991 H 191.234 -1.98211 -0.503249 0
M  V30 1992 H 189.389 -2.54324 -2.9223 0
M  V30 1993 H 189.803 -4.68423 -2.35967 0
M  V30 1994 H 191.277 -3.91786 -3.88854 0
M  V30 1995 H 191.754 -2.22468 -3.78688 0
M  V30 1996 H 192.36 -3.38151 -2.57941 0
M  V30 1997 N 190.675 0.682077 -1.42076 0
M  V30 1998 C 191.622 1.79578 -1.44984 0
M  V30 1999 C 192.592 1.6332 -0.302614 0
M  V30 2000 O 193.777 1.83978 -0.505633 0
M  V30 2001 C 190.917 3.1756 -1.35091 0
M  V30 2002 C 190.03 3.45156 -2.59791 0
M  V30 2003 C 189.165 4.72826 -2.42093 0
M  V30 2004 C 188.204 4.93433 -3.62202 0
M  V30 2005 N 187.341 6.12338 -3.43491 0
M  V30 2006 H 192.181 1.76427 -2.40161 0
M  V30 2007 H 189.718 0.861376 -1.19242 0
M  V30 2008 H 191.676 3.97287 -1.27354 0
M  V30 2009 H 190.306 3.19854 -0.435133 0
M  V30 2010 H 189.358 2.59736 -2.77923 0
M  V30 2011 H 190.67 3.5628 -3.49094 0
M  V30 2012 H 189.824 5.60631 -2.319 0
M  V30 2013 H 188.563 4.63973 -1.50268 0
M  V30 2014 H 187.568 4.04073 -3.72834 0
M  V30 2015 H 188.793 5.04136 -4.54998 0
M  V30 2016 H 186.739 6.04672 -2.54377 0
M  V30 2017 H 186.656 6.2429 -4.26377 0
M  V30 2018 H 187.924 7.02841 -3.37097 0
M  V30 2019 N 192.153 1.28127 0.917671 0
M  V30 2020 C 193.1 1.11717 2.0196 0
M  V30 2021 C 194.07 0.0153929 1.66093 0
M  V30 2022 O 195.255 0.179596 1.89953 0
M  V30 2023 C 192.395 0.780927 3.36148 0
M  V30 2024 C 191.508 1.96135 3.84909 0
M  V30 2025 C 190.643 1.56609 5.0759 0
M  V30 2026 C 189.682 2.71339 5.48673 0
M  V30 2027 N 188.819 2.32332 6.62545 0
M  V30 2028 H 193.659 2.06003 2.15329 0
M  V30 2029 H 191.196 1.02535 1.05475 0
M  V30 2030 H 193.154 0.56675 4.13333 0
M  V30 2031 H 191.784 -0.124998 3.22558 0
M  V30 2032 H 190.836 2.28777 3.03916 0
M  V30 2033 H 192.148 2.82165 4.1132 0
M  V30 2034 H 191.302 1.31374 5.92305 0
M  V30 2035 H 190.041 0.677014 4.82978 0
M  V30 2036 H 189.046 2.97276 4.62501 0
M  V30 2037 H 190.271 3.60882 5.75274 0
M  V30 2038 H 188.217 1.45889 6.39572 0
M  V30 2039 H 188.134 3.11899 6.88662 0
M  V30 2040 H 189.402 2.10371 7.50576 0
M  V30 2041 N 193.631 -1.12557 1.10312 0
M  V30 2042 C 194.561 -2.20341 0.772798 0
M  V30 2043 C 195.542 -1.68198 -0.25365 0
M  V30 2044 O 196.727 -1.93831 -0.119699 0
M  V30 2045 C 193.857 -3.46709 0.202443 0
M  V30 2046 C 192.811 -4.11996 1.15943 0
M  V30 2047 C 192.137 -5.328 0.450345 0
M  V30 2048 C 193.437 -4.5828 2.50552 0
M  V30 2049 H 195.131 -2.48229 1.674 0
M  V30 2050 H 192.677 -1.19308 0.806326 0
M  V30 2051 H 194.63 -4.2138 -0.0407752 0
M  V30 2052 H 193.354 -3.18245 -0.734001 0
M  V30 2053 H 192.013 -3.39305 1.38808 0
M  V30 2054 H 191.661 -5.00602 -0.490531 0
M  V30 2055 H 191.361 -5.7743 1.08851 0
M  V30 2056 H 192.885 -6.10219 0.215642 0
M  V30 2057 H 194.299 -5.2433 2.31843 0
M  V30 2058 H 192.696 -5.13683 3.10242 0
M  V30 2059 H 193.766 -3.72329 3.10643 0
M  V30 2060 N 195.109 -0.891671 -1.2995 0
M  V30 2061 C 196.056 -0.361736 -2.27948 0
M  V30 2062 C 197.026 0.551761 -1.56668 0
M  V30 2063 O 198.211 0.478736 -1.84696 0
M  V30 2064 C 195.351 0.411825 -3.42634 0
M  V30 2065 C 194.464 -0.531651 -4.28716 0
M  V30 2066 C 193.599 0.258167 -5.30572 0
M  V30 2067 C 192.638 -0.680349 -6.08307 0
M  V30 2068 N 191.775 0.0745613 -7.0206 0
M  V30 2069 H 196.615 -1.20254 -2.72659 0
M  V30 2070 H 194.152 -0.604352 -1.34112 0
M  V30 2071 H 196.11 0.876304 -4.07893 0
M  V30 2072 H 194.74 1.21715 -2.98974 0
M  V30 2073 H 193.792 -1.11463 -3.63703 0
M  V30 2074 H 195.104 -1.25038 -4.82874 0
M  V30 2075 H 194.258 0.784204 -6.0161 0
M  V30 2076 H 192.997 1.01008 -4.77126 0
M  V30 2077 H 192.002 -1.21796 -5.3614 0
M  V30 2078 H 193.227 -1.43145 -6.63842 0
M  V30 2079 H 191.173 0.808883 -6.50994 0
M  V30 2080 H 191.09 -0.584409 -7.53738 0
M  V30 2081 H 192.358 0.581123 -7.77331 0
M  V30 2082 N 196.587 1.43421 -0.653314 0
M  V30 2083 C 197.497 2.34568 0.0388565 0
M  V30 2084 C 198.513 1.53888 0.81207 0
M  V30 2085 O 199.689 1.86539 0.759294 0
M  V30 2086 C 196.754 3.32167 0.993269 0
M  V30 2087 C 195.815 4.28751 0.216977 0
M  V30 2088 C 195.048 5.21688 1.12593 0
M  V30 2089 O 195.271 5.19052 2.36519 0
M  V30 2090 O 194.205 5.98919 0.598284 0
M  V30 2091 H 198.031 2.95251 -0.711386 0
M  V30 2092 H 195.616 1.43564 -0.413502 0
M  V30 2093 H 197.498 3.92183 1.54176 0
M  V30 2094 H 196.173 2.73987 1.72374 0
M  V30 2095 H 195.08 3.72215 -0.375101 0
M  V30 2096 H 196.413 4.89913 -0.473924 0
M  V30 2097 N 198.065 0.39524 1.52563 0
M  V30 2098 C 199.313 -0.184678 2.01254 0
M  V30 2099 C 199.634 -1.46822 1.28329 0
M  V30 2100 O 198.904 -1.91666 0.405094 0
M  V30 2101 H 197.484 -0.0712355 0.743596 0
M  V30 2102 H 200.146 0.528293 1.87603 0
M  V30 2103 H 199.242 -0.390681 3.09645 0
M  V30 2104 N 199.544 -1.57102 0.125237 0
M  V30 2105 C 200.491 -2.15641 -0.822655 0
M  V30 2106 C 201.461 -1.08313 -1.25927 0
M  V30 2107 O 202.646 -1.36251 -1.33567 0
M  V30 2108 C 199.786 -2.76504 -2.06494 0
M  V30 2109 C 198.899 -3.98158 -1.67612 0
M  V30 2110 C 198.034 -4.47088 -2.86854 0
M  V30 2111 C 197.073 -5.6126 -2.44242 0
M  V30 2112 N 196.21 -6.04905 -3.56419 0
M  V30 2113 H 201.05 -2.96313 -0.316625 0
M  V30 2114 H 198.587 -1.46388 -0.144588 0
M  V30 2115 H 200.545 -3.09925 -2.79289 0
M  V30 2116 H 199.175 -1.98512 -2.54545 0
M  V30 2117 H 198.227 -3.70858 -0.846661 0
M  V30 2118 H 199.539 -4.80934 -1.32301 0
M  V30 2119 H 198.693 -4.82451 -3.67867 0
M  V30 2120 H 197.432 -3.63275 -3.25396 0
M  V30 2121 H 196.437 -5.25495 -1.61663 0
M  V30 2122 H 197.662 -6.46843 -2.0681 0
M  V30 2123 H 195.608 -5.24032 -3.94623 0
M  V30 2124 H 195.525 -6.82552 -3.25051 0
M  V30 2125 H 196.793 -6.44907 -4.37853 0
M  V30 2126 N 201.022 0.148545 -1.56898 0
M  V30 2127 C 201.954 1.20852 -1.9475 0
M  V30 2128 C 202.967 1.39265 -0.843152 0
M  V30 2129 O 204.156 1.38864 -1.12156 0
M  V30 2130 C 201.256 2.57362 -2.20495 0
M  V30 2131 C 200.429 2.59947 -3.51776 0
M  V30 2132 C 199.488 3.77984 -3.6608 0
M  V30 2133 O 198.514 3.62929 -4.38487 0
M  V30 2134 N 199.716 4.95375 -3.02629 0
M  V30 2135 H 202.481 0.886804 -2.86279 0
M  V30 2136 H 200.042 0.338121 -1.5833 0
M  V30 2137 H 202.034 3.34833 -2.27307 0
M  V30 2138 H 200.604 2.81832 -1.35238 0
M  V30 2139 H 199.824 1.68403 -3.56419 0
M  V30 2140 H 201.112 2.58704 -4.38121 0
M  V30 2141 H 200.51 5.10509 -2.43715 0
M  V30 2142 H 199.067 5.70627 -3.15004 0
M  V30 2143 N 202.5 1.5196 0.417844 0
M  V30 2144 C 203.749 1.6482 1.16264 0
M  V30 2145 C 204.062 0.379886 1.91876 0
M  V30 2146 O 205.268 0.388154 2.68711 0
M  V30 2147 C 203.724 2.91161 2.1155 0
M  V30 2148 C 203.332 4.25068 1.41495 0
M  V30 2149 C 205.076 3.13383 2.86341 0
M  V30 2150 C 202.983 5.42541 2.35379 0
M  V30 2151 H 201.913 0.613954 0.437694 0
M  V30 2152 H 204.564 1.78442 0.427871 0
M  V30 2153 H 202.946 2.71218 2.88543 0
M  V30 2154 H 204.12 4.55463 0.699263 0
M  V30 2155 H 202.435 4.0888 0.787792 0
M  V30 2156 H 205.032 3.98324 3.5671 0
M  V30 2157 H 205.375 2.27256 3.48798 0
M  V30 2158 H 205.908 3.33757 2.1645 0
M  V30 2159 H 202.647 6.30987 1.77582 0
M  V30 2160 H 202.167 5.16497 3.04945 0
M  V30 2161 H 203.846 5.75272 2.96093 0
M  V30 2162 N 203.978 -0.674533 1.42435 0
M  V30 2163 C 205.226 -1.43175 1.42637 0
M  V30 2164 C 205.547 -1.94951 0.0438992 0
M  V30 2165 O 204.817 -1.7308 -0.917607 0
M  V30 2166 H 203.397 -0.531307 0.525092 0
M  V30 2167 H 206.059 -0.797006 1.77859 0
M  V30 2168 H 205.155 -2.28463 2.12629 0
M  V30 2169 N 205.456 -1.28612 -0.910864 0
M  V30 2170 C 206.684 -1.18792 -1.69399 0
M  V30 2171 C 207.099 0.253039 -1.87097 0
M  V30 2172 O 206.456 1.17071 -1.40003 0
M  V30 2173 C 206.507 -1.88511 -3.08457 0
M  V30 2174 O 206.228 -3.26979 -2.91576 0
M  V30 2175 C 207.729 -1.85029 -4.02839 0
M  V30 2176 H 204.949 -0.412233 -0.529438 0
M  V30 2177 H 207.493 -1.69788 -1.13984 0
M  V30 2178 H 205.648 -1.41379 -3.60681 0
M  V30 2179 H 206.062 -3.61936 -3.79608 0
M  V30 2180 H 207.536 -2.38395 -4.97867 0
M  V30 2181 H 208.013 -0.823303 -4.31414 0
M  V30 2182 H 208.619 -2.31853 -3.56545 0
M  V30 2183 N 206.934 1.1197 -1.10907 0
M  V30 2184 C 208.162 1.87402 -0.876824 0
M  V30 2185 C 208.577 1.79894 0.573025 0
M  V30 2186 O 207.934 1.17629 1.39534 0
M  V30 2187 C 207.985 3.36428 -1.32282 0
M  V30 2188 O 207.706 3.43765 -2.71582 0
M  V30 2189 C 209.207 4.28783 -1.12518 0
M  V30 2190 H 206.427 0.592793 -0.314384 0
M  V30 2191 H 208.971 1.41649 -1.47499 0
M  V30 2192 H 207.126 3.79706 -0.768229 0
M  V30 2193 H 207.54 4.3652 -2.90776 0
M  V30 2194 H 209.014 5.31613 -1.48633 0
M  V30 2195 H 209.491 4.39153 -0.0642394 0
M  V30 2196 H 210.097 3.91291 -1.66648 0
M  V30 2197 N 208.412 0.89855 1.29475 0
M  V30 2198 C 209.359 0.373819 2.27753 0
M  V30 2199 C 210.329 -0.543444 1.56958 0
M  V30 2200 O 211.514 -0.468934 1.84948 0
M  V30 2201 C 208.654 -0.393648 3.42848 0
M  V30 2202 C 207.767 0.554379 4.28428 0
M  V30 2203 C 206.902 -0.230026 5.30702 0
M  V30 2204 C 205.941 0.712599 6.07938 0
M  V30 2205 N 205.078 -0.0373283 7.0209 0
M  V30 2206 H 209.918 1.21699 2.72017 0
M  V30 2207 H 207.455 0.611456 1.33789 0
M  V30 2208 H 209.413 -0.85466 4.08352 0
M  V30 2209 H 208.043 -1.20128 2.99615 0
M  V30 2210 H 207.095 1.13391 3.63107 0
M  V30 2211 H 208.407 1.27597 4.82204 0
M  V30 2212 H 207.561 -0.752288 6.02018 0
M  V30 2213 H 206.3 -0.984758 4.77654 0
M  V30 2214 H 205.305 1.24637 5.35486 0
M  V30 2215 H 206.53 1.46664 6.63074 0
M  V30 2216 H 204.476 -0.774348 6.51414 0
M  V30 2217 H 204.393 0.624374 7.53417 0
M  V30 2218 H 205.661 -0.539891 7.77628 0
M  V30 2219 N 209.89 -1.43072 0.660911 0
M  V30 2220 C 211.306 -1.56169 0.329173 0
M  V30 2221 C 211.506 -1.64317 -1.16629 0
M  V30 2222 O 210.562 -1.60245 -1.95135 0
M  V30 2223 C 211.875 -2.81873 1.04729 0
M  V30 2224 C 213.423 -2.95627 1.02828 0
M  V30 2225 C 213.898 -4.24174 1.72744 0
M  V30 2226 N 215.389 -4.31055 1.69545 0
M  V30 2227 C 216.124 -5.29304 2.20511 0
M  V30 2228 N 215.62 -6.33786 2.79799 0
M  V30 2229 N 217.413 -5.21008 2.10966 0
M  V30 2230 H 209.564 -1.36027 1.63127 0
M  V30 2231 H 211.827 -0.653823 0.686454 0
M  V30 2232 H 211.533 -2.81942 2.10242 0
M  V30 2233 H 211.407 -3.72338 0.603702 0
M  V30 2234 H 213.794 -2.95094 -0.0184742 0
M  V30 2235 H 213.875 -2.06431 1.51063 0
M  V30 2236 H 213.519 -4.25467 2.7738 0
M  V30 2237 H 213.449 -5.1228 1.2197 0
M  V30 2238 H 215.94 -3.56174 1.26288 0
M  V30 2239 H 216.253 -7.05086 3.16344 0
M  V30 2240 H 214.598 -6.34387 2.83863 0
M  V30 2241 H 217.789 -4.38301 1.64347 0
M  V30 2242 H 217.962 -5.97416 2.50993 0
M  V30 2243 N 211.368 -0.403325 -1.52352 0
M  V30 2244 C 212.616 0.174003 -2.0135 0
M  V30 2245 C 212.937 1.46139 -1.29106 0
M  V30 2246 O 212.207 1.91448 -0.415253 0
M  V30 2247 H 210.787 0.0672911 -0.743963 0
M  V30 2248 H 213.449 -0.538235 -1.87321 0
M  V30 2249 H 212.545 0.374254 -3.09848 0
M  V30 2250 N 212.846 1.57033 -0.133567 0
M  V30 2251 C 214.095 1.94861 0.520768 0
M  V30 2252 C 214.408 1.02012 1.66892 0
M  V30 2253 O 215.614 1.29365 2.38699 0
M  V30 2254 C 214.07 3.46362 0.977809 0
M  V30 2255 C 213.678 4.47773 -0.142674 0
M  V30 2256 C 215.422 3.93083 1.60269 0
M  V30 2257 C 213.329 5.90468 0.331883 0
M  V30 2258 H 212.259 0.727453 0.198315 0
M  V30 2259 H 214.91 1.82227 -0.215759 0
M  V30 2260 H 213.292 3.54282 1.7692 0
M  V30 2261 H 214.466 4.51536 -0.919317 0
M  V30 2262 H 212.781 4.10891 -0.675124 0
M  V30 2263 H 215.378 4.97121 1.96914 0
M  V30 2264 H 215.721 3.33876 2.48662 0
M  V30 2265 H 216.254 3.88025 0.876453 0
M  V30 2266 H 212.993 6.53463 -0.516341 0
M  V30 2267 H 212.513 5.90094 1.07469 0
M  V30 2268 H 214.192 6.42179 0.788332 0
M  V30 2269 N 214.325 -0.140222 1.56975 0
M  V30 2270 C 215.573 -0.850005 1.83356 0
M  V30 2271 C 215.894 -1.81399 0.71551 0
M  V30 2272 O 215.164 -1.94136 -0.262294 0
M  V30 2273 H 213.744 -0.316886 0.676456 0
M  V30 2274 H 216.406 -0.132608 1.94448 0
M  V30 2275 H 215.502 -1.40814 2.78528 0
M  V30 2276 N 215.803 -1.52179 -0.40978 0
M  V30 2277 C 217.214 -1.58377 -0.988615 0
M  V30 2278 C 217.565 -0.423879 -1.91566 0
M  V30 2279 O 216.69 0.455844 -2.11544 0
M  V30 2280 C 217.285 -2.87044 -1.79976 0
M  V30 2281 C 215.844 -2.95722 -2.32863 0
M  V30 2282 C 214.991 -2.53309 -1.12828 0
M  V30 2283 H 217.942 -1.57558 -0.190039 0
M  V30 2284 H 217.963 -2.7236 -2.65707 0
M  V30 2285 H 217.475 -3.71444 -1.12478 0
M  V30 2286 H 215.576 -2.15814 -3.03735 0
M  V30 2287 H 215.689 -3.99951 -2.63773 0
M  V30 2288 H 214.053 -2.07142 -1.48204 0
M  V30 2289 H 214.836 -3.40082 -0.46897 0
M  V30 2290 N 217.281 0.66697 -1.42791 0
M  V30 2291 C 218.521 1.43892 -1.4517 0
M  V30 2292 C 218.885 1.91877 -0.0687551 0
M  V30 2293 O 220.086 2.6878 0.0327455 0
M  V30 2294 C 218.357 2.59839 -2.45395 0
M  V30 2295 S 219.916 3.48572 -2.66539 0
M  V30 2296 H 216.734 0.491356 -0.513897 0
M  V30 2297 H 219.336 0.775656 -1.79454 0
M  V30 2298 H 218.04 2.22838 -3.44632 0
M  V30 2299 H 217.571 3.3103 -2.12562 0
M  V30 2300 H 219.586 4.56094 -1.95429 0
M  V30 2301 N 218.759 1.29093 0.90403 0
M  V30 2302 C 219.989 1.19516 1.68522 0
M  V30 2303 C 220.397 -0.24738 1.87576 0
M  V30 2304 O 219.74 -1.17798 1.40959 0
M  V30 2305 C 219.802 1.83249 3.0929 0
M  V30 2306 C 219.466 3.32531 3.13484 0
M  V30 2307 C 220.463 4.28821 2.93953 0
M  V30 2308 C 218.148 3.73656 3.35688 0
M  V30 2309 C 220.142 5.64212 2.96553 0
M  V30 2310 C 217.829 5.0917 3.37919 0
M  V30 2311 C 218.827 6.04258 3.18373 0
M  V30 2312 O 218.515 7.37298 3.20385 0
M  V30 2313 H 218.247 0.415467 0.533257 0
M  V30 2314 H 220.801 1.70912 1.13922 0
M  V30 2315 H 219.031 1.26358 3.65473 0
M  V30 2316 H 220.72 1.68054 3.69476 0
M  V30 2317 H 221.486 3.98382 2.76616 0
M  V30 2318 H 217.365 3.00101 3.49943 0
M  V30 2319 H 220.909 6.38407 2.81216 0
M  V30 2320 H 216.806 5.39256 3.54787 0
M  V30 2321 H 217.574 7.46048 3.36681 0
M  V30 2322 N 220.237 -1.11381 1.11499 0
M  V30 2323 C 221.462 -1.87475 0.887019 0
M  V30 2324 C 221.887 -1.79639 -0.557796 0
M  V30 2325 O 221.245 -1.15924 -1.39396 0
M  V30 2326 C 221.293 -3.34213 1.35403 0
M  V30 2327 O 220.397 -4.0903 0.526146 0
M  V30 2328 H 219.738 -0.582099 0.319463 0
M  V30 2329 H 222.268 -1.40785 1.48461 0
M  V30 2330 H 222.278 -3.8506 1.34881 0
M  V30 2331 H 220.953 -3.39232 2.40612 0
M  V30 2332 H 219.53 -3.68082 0.597522 0
M  V30 2333 N 221.715 -0.905404 -1.28997 0
M  V30 2334 C 222.943 -0.549846 -1.9946 0
M  V30 2335 C 223.358 0.866834 -1.67724 0
M  V30 2336 O 222.715 1.57298 -0.925404 0
M  V30 2337 C 222.766 -0.739387 -3.53858 0
M  V30 2338 O 222.487 -2.10031 -3.84472 0
M  V30 2339 C 223.988 -0.389541 -4.41585 0
M  V30 2340 H 221.208 -0.210429 -0.637151 0
M  V30 2341 H 223.752 -1.21632 -1.64396 0
M  V30 2342 H 221.907 -0.120023 -3.87214 0
M  V30 2343 H 222.321 -2.13385 -4.79132 0
M  V30 2344 H 223.795 -0.572972 -5.49018 0
M  V30 2345 H 224.272 0.673756 -4.34001 0
M  V30 2346 H 224.878 -0.986089 -4.1371 0
M  V30 2347 N 223.193 1.4272 -0.668489 0
M  V30 2348 C 224.14 2.30796 0.0137489 0
M  V30 2349 C 225.11 1.4561 0.799177 0
M  V30 2350 O 226.295 1.74453 0.772702 0
M  V30 2351 C 223.435 3.31377 0.963507 0
M  V30 2352 C 222.548 4.31655 0.172569 0
M  V30 2353 C 221.683 5.19312 1.1175 0
M  V30 2354 C 220.722 6.11274 0.317886 0
M  V30 2355 N 219.859 6.91504 1.2152 0
M  V30 2356 H 224.699 2.88585 -0.743161 0
M  V30 2357 H 222.236 1.42154 -0.378226 0
M  V30 2358 H 224.194 3.88214 1.52792 0
M  V30 2359 H 222.824 2.75202 1.68712 0
M  V30 2360 H 221.876 3.76988 -0.508374 0
M  V30 2361 H 223.188 4.96779 -0.448527 0
M  V30 2362 H 222.342 5.80851 1.75206 0
M  V30 2363 H 221.081 4.5435 1.77249 0
M  V30 2364 H 220.086 5.48809 -0.329918 0
M  V30 2365 H 221.311 6.78283 -0.332917 0
M  V30 2366 H 219.257 6.29176 1.85671 0
M  V30 2367 H 219.174 7.53209 0.649036 0
M  V30 2368 H 220.442 7.57535 1.83742 0
M  V30 2369 N 224.671 0.411399 1.52136 0
M  V30 2370 C 225.634 -0.401089 2.25663 0
M  V30 2371 C 226.634 -0.971732 1.28117 0
M  V30 2372 O 227.824 -0.850254 1.52041 0
M  V30 2373 C 224.956 -1.56483 3.02863 0
M  V30 2374 H 226.149 0.24295 2.98914 0
M  V30 2375 H 223.702 0.163968 1.55438 0
M  V30 2376 H 224.437 -2.24567 2.33967 0
M  V30 2377 H 224.222 -1.16211 3.74483 0
M  V30 2378 H 225.712 -2.13951 3.58629 0
M  V30 2379 N 226.149 -1.5696 0.141893 0
M  V30 2380 C 227.374 -2.00754 -0.520838 0
M  V30 2381 C 227.799 -1.0213 -1.57959 0
M  V30 2382 O 227.157 0.00371324 -1.813 0
M  V30 2383 C 227.205 -3.43318 -1.10294 0
M  V30 2384 O 226.309 -3.47679 -2.21795 0
M  V30 2385 H 225.65 -0.651564 -0.127908 0
M  V30 2386 H 228.18 -2.03221 0.23712 0
M  V30 2387 H 228.19 -3.82012 -1.43287 0
M  V30 2388 H 226.865 -4.14608 -0.327574 0
M  V30 2389 H 225.442 -3.20824 -1.9007 0
M  V30 2390 N 227.627 0.131896 -1.57047 0
M  V30 2391 C 229.043 0.485031 -1.52051 0
M  V30 2392 C 229.243 1.82563 -0.85281 0
M  V30 2393 O 228.299 2.48817 -0.429694 0
M  V30 2394 C 229.612 0.481409 -2.96821 0
M  V30 2395 C 231.16 0.565868 -3.07842 0
M  V30 2396 C 231.635 0.592762 -4.54148 0
M  V30 2397 N 233.126 0.654564 -4.58552 0
M  V30 2398 C 233.861 0.696608 -5.69153 0
M  V30 2399 N 233.357 0.697078 -6.89284 0
M  V30 2400 N 235.15 0.738639 -5.57226 0
M  V30 2401 H 227.301 -0.746664 -1.98843 0
M  V30 2402 H 229.564 -0.273999 -0.90754 0
M  V30 2403 H 229.27 -0.435731 -3.4899 0
M  V30 2404 H 229.144 1.3139 -3.53577 0
M  V30 2405 H 231.531 1.47343 -2.55684 0
M  V30 2406 H 231.612 -0.29406 -2.54104 0
M  V30 2407 H 231.256 -0.310701 -5.06949 0
M  V30 2408 H 231.186 1.46939 -5.05684 0
M  V30 2409 H 233.677 0.660887 -3.72076 0
M  V30 2410 H 233.99 0.731426 -7.69331 0
M  V30 2411 H 232.335 0.66471 -6.91814 0
M  V30 2412 H 235.526 0.735545 -4.62285 0
M  V30 2413 H 235.699 0.767938 -6.43434 0
M  V30 2414 N 229.106 1.52395 0.401703 0
M  V30 2415 C 230.355 1.66044 1.14509 0
M  V30 2416 C 230.668 0.400216 1.91462 0
M  V30 2417 O 231.874 0.416632 2.68284 0
M  V30 2418 C 230.33 2.93388 2.0845 0
M  V30 2419 C 229.938 4.26545 1.36978 0
M  V30 2420 C 231.682 3.16402 2.83001 0
M  V30 2421 C 229.589 5.45007 2.29611 0
M  V30 2422 H 228.519 0.618562 0.431158 0
M  V30 2423 H 231.17 1.78886 0.40892 0
M  V30 2424 H 229.552 2.74263 2.8565 0
M  V30 2425 H 230.726 4.56179 0.650916 0
M  V30 2426 H 229.041 4.09692 0.74438 0
M  V30 2427 H 231.638 4.02085 3.52465 0
M  V30 2428 H 231.981 2.30943 3.46368 0
M  V30 2429 H 232.514 3.36034 2.12898 0
M  V30 2430 H 229.253 6.32835 1.70879 0
M  V30 2431 H 228.773 5.19702 2.9945 0
M  V30 2432 H 230.452 5.7838 2.89974 0
M  V30 2433 N 230.584 -0.659388 1.43143 0
M  V30 2434 C 231.832 -1.41654 1.44147 0
M  V30 2435 C 232.153 -1.94893 0.0645739 0
M  V30 2436 O 231.423 -1.74044 -0.899198 0
M  V30 2437 H 230.003 -0.525708 0.530697 0
M  V30 2438 H 232.665 -0.778097 1.78694 0
M  V30 2439 H 231.761 -2.26195 2.1504 0
M  V30 2440 N 232.062 -1.29571 -0.897171 0
M  V30 2441 C 233.311 -1.1706 -1.64256 0
M  V30 2442 C 233.624 0.276476 -1.93636 0
M  V30 2443 O 234.83 0.52294 -2.66416 0
M  V30 2444 C 233.286 -2.0475 -2.95982 0
M  V30 2445 C 232.894 -3.54295 -2.74187 0
M  V30 2446 C 234.638 -2.0097 -3.73914 0
M  V30 2447 C 232.545 -4.34081 -4.01656 0
M  V30 2448 H 231.475 -0.43452 -0.616205 0
M  V30 2449 H 234.126 -1.54229 -0.994268 0
M  V30 2450 H 232.508 -1.60452 -3.62038 0
M  V30 2451 H 233.682 -4.06662 -2.1671 0
M  V30 2452 H 231.997 -3.59773 -2.09648 0
M  V30 2453 H 234.594 -2.57838 -4.68427 0
M  V30 2454 H 234.937 -0.990273 -4.0435 0
M  V30 2455 H 235.47 -2.43325 -3.14703 0
M  V30 2456 H 232.209 -5.36671 -3.76384 0
M  V30 2457 H 231.729 -3.86483 -4.58684 0
M  V30 2458 H 233.408 -4.44877 -4.69781 0
M  V30 2459 N 233.54 1.10788 -1.12088 0
M  V30 2460 C 234.956 1.34691 -0.856186 0
M  V30 2461 C 235.156 1.94791 0.515615 0
M  V30 2462 O 234.212 2.18524 1.26505 0
M  V30 2463 C 235.525 2.27208 -1.9697 0
M  V30 2464 C 237.073 2.40755 -2.00016 0
M  V30 2465 C 237.548 3.36598 -3.1059 0
M  V30 2466 N 239.039 3.44164 -3.10008 0
M  V30 2467 C 239.774 4.18284 -3.92206 0
M  V30 2468 N 239.27 4.95322 -4.84384 0
M  V30 2469 N 241.063 4.13865 -3.80357 0
M  V30 2470 H 233.214 0.70144 -2.00483 0
M  V30 2471 H 235.477 0.371405 -0.872217 0
M  V30 2472 H 235.183 1.90251 -2.958 0
M  V30 2473 H 235.057 3.27485 -1.87172 0
M  V30 2474 H 237.444 2.76982 -1.01808 0
M  V30 2475 H 237.525 1.40305 -2.13888 0
M  V30 2476 H 237.169 3.01096 -4.09028 0
M  V30 2477 H 237.099 4.36918 -2.93956 0
M  V30 2478 H 239.59 2.8922 -2.43228 0
M  V30 2479 H 239.903 5.49267 -5.43623 0
M  V30 2480 H 238.248 4.94459 -4.884 0
M  V30 2481 H 241.439 3.52773 -3.07683 0
M  V30 2482 H 241.612 4.71372 -4.44649 0
M  V30 2483 N 235.018 0.912232 1.28515 0
M  V30 2484 C 235.948 0.416403 2.29757 0
M  V30 2485 C 236.929 -0.515194 1.6211 0
M  V30 2486 O 238.114 -0.423253 1.89532 0
M  V30 2487 C 235.244 -0.34572 3.45575 0
M  V30 2488 C 234.198 0.496599 4.25109 0
M  V30 2489 C 233.524 -0.393771 5.33248 0
M  V30 2490 C 234.824 1.75307 4.92001 0
M  V30 2491 H 236.518 1.26249 2.7148 0
M  V30 2492 H 234.064 0.608515 1.30511 0
M  V30 2493 H 236.017 -0.703422 4.15488 0
M  V30 2494 H 234.741 -1.2257 3.02728 0
M  V30 2495 H 233.4 0.8368 3.56922 0
M  V30 2496 H 233.048 -1.27225 4.86644 0
M  V30 2497 H 232.748 0.166209 5.87365 0
M  V30 2498 H 234.272 -0.747389 6.06009 0
M  V30 2499 H 235.686 1.46437 5.54283 0
M  V30 2500 H 234.083 2.25534 5.56106 0
M  V30 2501 H 235.153 2.48176 4.16577 0
M  V30 2502 N 236.496 -1.42363 0.676048 0
M  V30 2503 C 237.744 -2.01123 0.198437 0
M  V30 2504 C 238.065 -1.53731 -1.19966 0
M  V30 2505 O 237.335 -0.759518 -1.80577 0
M  V30 2506 H 235.915 -0.743678 0.0703721 0
M  V30 2507 H 238.577 -1.74263 0.872837 0
M  V30 2508 H 237.673 -3.11454 0.200686 0
M  V30 2509 N 237.974 -0.419461 -1.51915 0
M  V30 2510 C 239.202 0.152136 -2.0634 0
M  V30 2511 C 239.617 1.37988 -1.28859 0
M  V30 2512 O 238.974 1.79243 -0.343232 0
M  V30 2513 C 239.025 0.492266 -3.58133 0
M  V30 2514 O 238.746 -0.686736 -4.32684 0
M  V30 2515 C 240.247 1.11648 -4.2901 0
M  V30 2516 H 237.467 0.0158325 -0.670813 0
M  V30 2517 H 240.011 -0.593394 -1.95702 0
M  V30 2518 H 238.166 1.18769 -3.68745 0
M  V30 2519 H 238.58 -0.400341 -5.2297 0
M  V30 2520 H 240.054 1.3046 -5.36362 0
M  V30 2521 H 240.531 2.09251 -3.86148 0
M  V30 2522 H 241.137 0.460958 -4.22795 0
M  V30 2523 N 239.452 1.56882 -0.150215 0
M  V30 2524 C 240.382 2.19935 0.784284 0
M  V30 2525 C 241.363 1.14854 1.25469 0
M  V30 2526 O 242.548 1.43209 1.31168 0
M  V30 2527 C 239.678 2.82349 2.02229 0
M  V30 2528 C 238.632 3.93285 1.68853 0
M  V30 2529 C 237.958 4.42649 2.99944 0
M  V30 2530 C 239.258 5.13904 0.932714 0
M  V30 2531 H 240.952 2.9828 0.258781 0
M  V30 2532 H 238.498 1.43473 0.123029 0
M  V30 2533 H 240.451 3.25126 2.68088 0
M  V30 2534 H 239.175 2.0134 2.57157 0
M  V30 2535 H 237.834 3.5113 1.05371 0
M  V30 2536 H 237.482 3.58458 3.52869 0
M  V30 2537 H 237.182 5.17476 2.78374 0
M  V30 2538 H 238.706 4.88099 3.66868 0
M  V30 2539 H 240.12 5.53506 1.49345 0
M  V30 2540 H 238.517 5.94515 0.81684 0
M  V30 2541 H 239.587 4.84842 -0.0749568 0
M  V30 2542 N 240.93 -0.123565 1.57115 0
M  V30 2543 C 241.877 -1.15177 2.00007 0
M  V30 2544 C 242.847 -1.41403 0.871454 0
M  V30 2545 O 244.032 -1.53346 1.13533 0
M  V30 2546 C 241.172 -2.47436 2.40561 0
M  V30 2547 C 240.285 -2.28184 3.66819 0
M  V30 2548 C 239.42 -3.53641 3.96373 0
M  V30 2549 C 238.459 -3.29528 5.15827 0
M  V30 2550 N 237.596 -4.47175 5.41275 0
M  V30 2551 H 242.436 -0.779008 2.87638 0
M  V30 2552 H 239.973 -0.373166 1.42288 0
M  V30 2553 H 241.931 -3.24584 2.62109 0
M  V30 2554 H 240.561 -2.82614 1.55978 0
M  V30 2555 H 239.613 -1.41976 3.52912 0
M  V30 2556 H 240.925 -2.0634 4.5412 0
M  V30 2557 H 240.079 -4.39209 4.18545 0
M  V30 2558 H 238.818 -3.78512 3.07538 0
M  V30 2559 H 237.823 -2.42349 4.93505 0
M  V30 2560 H 239.048 -3.06031 6.06236 0
M  V30 2561 H 236.994 -4.72175 4.55397 0
M  V30 2562 H 236.911 -4.28419 6.22891 0
M  V30 2563 H 238.179 -5.3389 5.67963 0
M  V30 2564 N 242.408 -1.52605 -0.393616 0
M  V30 2565 C 243.356 -1.77688 -1.50099 0
M  V30 2566 C 244.35 -0.644615 -1.56656 0
M  V30 2567 O 245.556 -0.826997 -1.59877 0
M  V30 2568 H 241.931 -0.562159 -0.499481 0
M  V30 2569 H 243.902 -2.7043 -1.26135 0
M  V30 2570 C 242.651 -1.95858 -2.87289 0
M  V30 2571 H 241.974 -2.8241 -2.82992 0
M  V30 2572 H 243.414 -2.174 -3.64024 0
M  V30 2573 C 241.873 -0.729848 -3.28899 0
M  V30 2574 O 242.403 0.0949217 -4.01588 0
M  V30 2575 N 240.609 -0.561283 -2.85128 0
M  V30 2576 H 240.156 -1.23357 -2.26143 0
M  V30 2577 H 240.114 0.2595 -3.13327 0
M  V30 2578 N 243.887 0.651787 -1.4349 0
M  V30 2579 C 245.134 1.41167 -1.45183 0
M  V30 2580 C 245.462 1.94349 -0.0766601 0
M  V30 2581 O 244.717 1.72804 0.918555 0
M  V30 2582 C 245.016 2.60914 -2.44251 0
M  V30 2583 C 244.682 2.26142 -3.9009 0
M  V30 2584 C 243.344 2.16371 -4.2981 0
M  V30 2585 C 245.696 1.98334 -4.81989 0
M  V30 2586 C 243.024 1.7695 -5.5938 0
M  V30 2587 C 245.376 1.6041 -6.11924 0
M  V30 2588 C 244.04 1.49166 -6.5062 0
M  V30 2589 H 243.31 0.516566 -0.531263 0
M  V30 2590 H 245.957 0.741099 -1.76579 0
M  V30 2591 H 244.262 3.3311 -2.06265 0
M  V30 2592 H 245.959 3.19127 -2.42815 0
M  V30 2593 H 242.549 2.34658 -3.58655 0
M  V30 2594 H 246.733 2.04803 -4.52072 0
M  V30 2595 H 241.989 1.66831 -5.88198 0
M  V30 2596 H 246.163 1.37925 -6.82605 0
M  V30 2597 H 243.79 1.1839 -7.50925 0
M  V30 2598 N 245.365 1.30045 0.890287 0
M  V30 2599 C 246.275 1.17885 2.02831 0
M  V30 2600 C 247.291 0.0999609 1.73713 0
M  V30 2601 O 248.467 0.313867 1.98939 0
M  V30 2602 C 245.532 0.866079 3.35708 0
M  V30 2603 C 244.593 2.02979 3.78283 0
M  V30 2604 C 243.826 1.73184 5.0482 0
M  V30 2605 O 244.049 0.657237 5.66601 0
M  V30 2606 O 242.983 2.58267 5.43674 0
M  V30 2607 H 246.809 2.13474 2.16015 0
M  V30 2608 H 244.394 1.09587 1.01543 0
M  V30 2609 H 246.276 0.706623 4.15433 0
M  V30 2610 H 244.951 -0.0599443 3.23644 0
M  V30 2611 H 243.858 2.24454 2.99285 0
M  V30 2612 H 245.191 2.93734 3.94944 0
M  V30 2613 N 246.843 -1.10192 1.12674 0
M  V30 2614 C 247.791 -2.18694 0.792196 0
M  V30 2615 C 248.785 -1.67938 -0.222058 0
M  V30 2616 O 249.991 -1.79822 -0.0800074 0
M  V30 2617 H 246.366 -0.713223 0.238364 0
M  V30 2618 H 248.337 -2.44149 1.71564 0
M  V30 2619 C 247.086 -3.46682 0.265859 0
M  V30 2620 H 246.409 -3.86101 1.03761 0
M  V30 2621 H 247.849 -4.23942 0.0701128 0
M  V30 2622 C 246.308 -3.21506 -1.00675 0
M  V30 2623 O 246.838 -3.43408 -2.08408 0
M  V30 2624 N 245.044 -2.75158 -0.934692 0
M  V30 2625 H 244.591 -2.57535 -0.0578604 0
M  V30 2626 H 244.549 -2.58691 -1.7868 0
M  V30 2627 N 248.321 -0.919034 -1.28029 0
M  V30 2628 C 249.568 -0.554934 -1.94748 0
M  V30 2629 C 249.896 0.90231 -1.72304 0
M  V30 2630 O 249.151 1.65767 -1.04018 0
M  V30 2631 C 249.45 -0.816855 -3.4794 0
M  V30 2632 C 249.116 -2.25448 -3.90492 0
M  V30 2633 C 247.778 -2.64752 -4.01821 0
M  V30 2634 C 250.13 -3.18977 -4.12193 0
M  V30 2635 C 247.458 -3.96727 -4.32232 0
M  V30 2636 C 249.81 -4.50523 -4.44086 0
M  V30 2637 C 248.474 -4.89673 -4.53626 0
M  V30 2638 H 247.744 -0.203065 -0.712633 0
M  V30 2639 H 250.391 -1.16136 -1.52265 0
M  V30 2640 H 248.696 -0.127677 -3.91592 0
M  V30 2641 H 250.393 -0.514238 -3.97689 0
M  V30 2642 H 246.983 -1.93952 -3.82205 0
M  V30 2643 H 251.167 -2.89817 -4.02889 0
M  V30 2644 H 246.423 -4.26754 -4.37825 0
M  V30 2645 H 250.597 -5.23005 -4.59825 0
M  V30 2646 H 248.224 -5.91969 -4.76946 0
M  V30 2647 N 249.799 1.42003 -0.683588 0
M  V30 2648 C 250.746 2.30798 -0.0107309 0
M  V30 2649 C 251.716 1.4645 0.783688 0
M  V30 2650 O 252.901 1.75263 0.754156 0
M  V30 2651 C 250.041 3.3238 0.928306 0
M  V30 2652 C 249.154 4.31814 0.126776 0
M  V30 2653 C 248.289 5.20468 1.06236 0
M  V30 2654 C 247.328 6.11577 0.253035 0
M  V30 2655 N 246.465 6.92754 1.14179 0
M  V30 2656 H 251.305 2.8778 -0.773727 0
M  V30 2657 H 248.842 1.41745 -0.393283 0
M  V30 2658 H 250.8 3.89813 1.48666 0
M  V30 2659 H 249.43 2.76976 1.65783 0
M  V30 2660 H 248.482 3.76427 -0.54833 0
M  V30 2661 H 249.794 4.96276 -0.501192 0
M  V30 2662 H 248.948 5.82677 1.69035 0
M  V30 2663 H 247.687 4.56204 1.7242 0
M  V30 2664 H 246.692 5.48428 -0.388108 0
M  V30 2665 H 247.917 6.77892 -0.404839 0
M  V30 2666 H 245.863 6.3111 1.78987 0
M  V30 2667 H 245.78 7.53855 0.569111 0
M  V30 2668 H 247.048 7.59441 1.75697 0
M  V30 2669 N 251.277 0.427512 1.51691 0
M  V30 2670 C 252.225 -0.403359 2.29076 0
M  V30 2671 C 253.219 -1.02962 1.34518 0
M  V30 2672 O 254.425 -0.965715 1.51901 0
M  V30 2673 H 250.8 -0.148879 0.737115 0
M  V30 2674 H 252.771 0.270295 2.97173 0
M  V30 2675 C 251.52 -1.49763 3.13794 0
M  V30 2676 H 250.843 -1.02508 3.86435 0
M  V30 2677 H 252.283 -2.05244 3.71014 0
M  V30 2678 C 250.742 -2.47536 2.28533 0
M  V30 2679 O 251.272 -3.51848 1.93819 0
M  V30 2680 N 249.478 -2.18187 1.91945 0
M  V30 2681 H 249.025 -1.33389 2.20375 0
M  V30 2682 H 248.983 -2.83848 1.35195 0
M  V30 2683 N 252.755 -1.56801 0.158532 0
M  V30 2684 C 253.688 -2.13148 -0.815065 0
M  V30 2685 C 254.666 -1.0581 -1.23462 0
M  V30 2686 O 255.85 -1.3371 -1.32868 0
M  V30 2687 C 252.977 -2.6606 -2.09594 0
M  V30 2688 C 252.023 -3.85651 -1.82141 0
M  V30 2689 S 252.856 -5.26041 -1.00207 0
M  V30 2690 C 254.012 -5.8235 -2.29389 0
M  V30 2691 H 254.245 -2.95396 -0.335937 0
M  V30 2692 H 251.778 -1.54299 -0.0559391 0
M  V30 2693 H 253.736 -2.97195 -2.8317 0
M  V30 2694 H 252.397 -1.83921 -2.54621 0
M  V30 2695 H 251.59 -4.20958 -2.77147 0
M  V30 2696 H 251.192 -3.55338 -1.16667 0
M  V30 2697 H 253.484 -5.94485 -3.24952 0
M  V30 2698 H 254.427 -6.79688 -1.9857 0
M  V30 2699 H 254.835 -5.10675 -2.40564 0
M  V30 2700 N 254.233 0.115231 -1.57178 0
M  V30 2701 C 255.463 0.835224 -1.88964 0
M  V30 2702 C 255.871 1.73774 -0.74829 0
M  V30 2703 O 255.214 1.81401 0.289739 0
M  V30 2704 C 255.276 1.7178 -3.15804 0
M  V30 2705 C 254.94 0.989198 -4.46166 0
M  V30 2706 C 255.937 0.328263 -5.18863 0
M  V30 2707 C 253.622 0.969256 -4.9286 0
M  V30 2708 C 255.616 -0.342873 -6.36477 0
M  V30 2709 C 253.303 0.294324 -6.10391 0
M  V30 2710 C 254.301 -0.360582 -6.82048 0
M  V30 2711 O 253.989 -1.02474 -7.97342 0
M  V30 2712 H 253.721 0.245197 -0.629964 0
M  V30 2713 H 256.275 0.10303 -2.05141 0
M  V30 2714 H 254.505 2.49173 -2.95719 0
M  V30 2715 H 256.194 2.31255 -3.33581 0
M  V30 2716 H 256.96 0.335263 -4.8384 0
M  V30 2717 H 252.839 1.46844 -4.36987 0
M  V30 2718 H 256.383 -0.854629 -6.92345 0
M  V30 2719 H 252.28 0.285099 -6.4487 0
M  V30 2720 H 253.048 -0.929594 -8.13204 0
M  V30 2721 N 255.711 1.52812 0.385517 0
M  V30 2722 C 256.936 1.72207 1.15583 0
M  V30 2723 C 257.361 0.441034 1.82857 0
M  V30 2724 O 256.719 -0.603465 1.70962 0
M  V30 2725 C 256.767 2.87476 2.17692 0
M  V30 2726 O 255.871 2.54693 3.24354 0
M  V30 2727 H 255.212 0.572526 0.336319 0
M  V30 2728 H 257.742 1.99618 0.448744 0
M  V30 2729 H 257.752 3.13072 2.6163 0
M  V30 2730 H 256.427 3.80408 1.68115 0
M  V30 2731 H 255.004 2.3985 2.85529 0
M  V30 2732 N 257.189 -0.644168 1.43834 0
M  V30 2733 C 258.136 -1.75671 1.49694 0
M  V30 2734 C 259.106 -1.6246 0.345809 0
M  V30 2735 O 260.291 -1.82573 0.554234 0
M  V30 2736 C 257.431 -3.13867 1.43463 0
M  V30 2737 C 256.544 -3.38147 2.6885 0
M  V30 2738 C 255.679 -4.66241 2.54544 0
M  V30 2739 C 254.718 -4.83657 3.75157 0
M  V30 2740 N 253.855 -6.03016 3.59605 0
M  V30 2741 H 258.695 -1.69998 2.44754 0
M  V30 2742 H 256.232 -0.829458 1.21484 0
M  V30 2743 H 258.19 -3.9377 1.37843 0
M  V30 2744 H 256.82 -3.18588 0.519783 0
M  V30 2745 H 255.872 -2.52276 2.84712 0
M  V30 2746 H 257.184 -3.46899 3.58417 0
M  V30 2747 H 256.338 -5.54285 2.46683 0
M  V30 2748 H 255.077 -4.59826 1.62516 0
M  V30 2749 H 254.082 -3.94046 3.83416 0
M  V30 2750 H 255.307 -4.91896 4.68204 0
M  V30 2751 H 253.253 -5.97715 2.7032 0
M  V30 2752 H 253.17 -6.12766 4.42779 0
M  V30 2753 H 254.438 -6.93657 3.55613 0
M  V30 2754 N 258.668 -1.30515 -0.883378 0
M  V30 2755 C 259.598 -1.19607 -2.00541 0
M  V30 2756 C 260.579 -0.086346 -1.69881 0
M  V30 2757 O 261.764 -0.268654 -1.92333 0
M  V30 2758 C 258.894 -0.888758 -3.35736 0
M  V30 2759 C 257.848 -1.95659 -3.8066 0
M  V30 2760 C 257.174 -1.50224 -5.13164 0
M  V30 2761 C 258.474 -3.36788 -3.99213 0
M  V30 2762 H 260.168 -2.13476 -2.09925 0
M  V30 2763 H 257.714 -1.02775 -1.00863 0
M  V30 2764 H 259.667 -0.799094 -4.13754 0
M  V30 2765 H 258.391 0.0856125 -3.26488 0
M  V30 2766 H 257.05 -2.03591 -3.04871 0
M  V30 2767 H 256.698 -0.516092 -5.00345 0
M  V30 2768 H 256.398 -2.2165 -5.44192 0
M  V30 2769 H 257.922 -1.42639 -5.93706 0
M  V30 2770 H 259.336 -3.31605 -4.67665 0
M  V30 2771 H 257.733 -4.06314 -4.41621 0
M  V30 2772 H 258.803 -3.78561 -3.03017 0
M  V30 2773 N 260.146 1.09593 -1.13257 0
M  V30 2774 C 261.395 1.81105 -0.887917 0
M  V30 2775 C 261.708 1.86563 0.587672 0
M  V30 2776 O 262.914 2.54367 0.949204 0
M  V30 2777 C 261.37 3.25338 -1.53895 0
M  V30 2778 C 260.978 3.28151 -3.04994 0
M  V30 2779 C 262.722 4.01617 -1.37492 0
M  V30 2780 C 260.629 4.66897 -3.6299 0
M  V30 2781 H 259.559 0.678661 -0.328534 0
M  V30 2782 H 262.21 1.23183 -1.36008 0
M  V30 2783 H 260.592 3.8331 -0.994446 0
M  V30 2784 H 261.766 2.79953 -3.66009 0
M  V30 2785 H 260.081 2.65361 -3.20893 0
M  V30 2786 H 262.678 5.04119 -1.78235 0
M  V30 2787 H 263.021 4.15072 -0.31957 0
M  V30 2788 H 263.554 3.50082 -1.88912 0
M  V30 2789 H 260.293 4.58643 -4.68323 0
M  V30 2790 H 259.813 5.15426 -3.06752 0
M  V30 2791 H 261.492 5.3587 -3.62563 0
M  V30 2792 N 261.624 0.925811 1.2754 0
M  V30 2793 C 262.901 0.483726 1.89524 0
M  V30 2794 C 263.281 -1.03809 1.83812 0
M  V30 2795 O 262.629 -1.89143 1.28207 0
M  V30 2796 C 262.839 1.02769 3.33526 0
M  V30 2797 C 264.187 1.08703 4.10449 0
M  V30 2798 O 265.211 0.977175 3.42534 0
M  V30 2799 O 264.07 1.25599 5.31871 0
M  V30 2800 H 261.164 0.15529 0.812289 0
M  V30 2801 H 263.71 1.01738 1.35822 0
M  V30 2802 H 262.482 2.07155 3.31967 0
M  V30 2803 H 262.105 0.475567 3.94746 0
M  V30 2804 N 263.102 -1.41638 0.69111 0
M  V30 2805 C 264.052 -2.28 -0.000107832 0
M  V30 2806 C 265.036 -1.41964 -0.757304 0
M  V30 2807 O 266.228 -1.65274 -0.633532 0
M  V30 2808 C 263.357 -3.30209 -0.938983 0
M  V30 2809 C 262.443 -4.23725 -0.17827 0
M  V30 2810 N 262.834 -4.99017 0.825563 0
M  V30 2811 C 261.132 -4.44071 -0.414392 0
M  V30 2812 C 261.833 -5.67431 1.28052 0
M  V30 2813 N 260.809 -5.40197 0.607304 0
M  V30 2814 H 264.611 -2.83644 0.769617 0
M  V30 2815 H 262.125 -1.53797 0.521562 0
M  V30 2816 H 264.122 -3.90898 -1.44929 0
M  V30 2817 H 262.782 -2.76126 -1.70836 0
M  V30 2818 H 263.793 -5.03671 1.20566 0
M  V30 2819 H 260.47 -4.01004 -1.162 0
M  V30 2820 H 261.86 -6.37801 2.11327 0
M  V30 2821 N 264.58 -0.43555 -1.51462 0
M  V30 2822 C 265.51 0.367376 -2.30592 0
M  V30 2823 C 266.491 1.02263 -1.35928 0
M  V30 2824 O 267.676 1.02661 -1.64847 0
M  V30 2825 C 264.806 1.46983 -3.14664 0
M  V30 2826 C 263.76 0.938161 -4.17591 0
M  V30 2827 C 263.086 2.13622 -4.90173 0
M  V30 2828 C 264.386 -0.0261621 -5.22293 0
M  V30 2829 H 266.08 -0.292969 -2.97963 0
M  V30 2830 H 263.626 -0.14234 -1.43295 0
M  V30 2831 H 265.579 2.03873 -3.688 0
M  V30 2832 H 264.303 2.15843 -2.4511 0
M  V30 2833 H 262.962 0.391481 -3.64504 0
M  V30 2834 H 262.61 2.81098 -4.17124 0
M  V30 2835 H 262.31 1.78688 -5.59772 0
M  V30 2836 H 263.834 2.7107 -5.47132 0
M  V30 2837 H 265.248 0.452384 -5.71512 0
M  V30 2838 H 263.645 -0.287992 -5.99409 0
M  V30 2839 H 264.715 -0.963391 -4.75233 0
M  V30 2840 N 266.058 1.56714 -0.166846 0
M  V30 2841 C 266.991 2.13577 0.80375 0
M  V30 2842 C 267.969 1.06464 1.22899 0
M  V30 2843 O 269.153 1.34413 1.32157 0
M  V30 2844 C 266.28 2.67168 2.0818 0
M  V30 2845 C 265.326 3.86612 1.80093 0
M  V30 2846 S 266.159 5.26565 0.97416 0
M  V30 2847 C 267.315 5.83558 2.26297 0
M  V30 2848 H 267.548 2.9557 0.320267 0
M  V30 2849 H 265.081 1.54326 0.0477555 0
M  V30 2850 H 267.039 2.98692 2.8159 0
M  V30 2851 H 265.7 1.85269 2.53642 0
M  V30 2852 H 264.893 4.22422 2.7491 0
M  V30 2853 H 264.495 3.55951 1.14781 0
M  V30 2854 H 266.787 5.962 3.21795 0
M  V30 2855 H 267.73 6.80731 1.94962 0
M  V30 2856 H 268.138 5.11944 2.37853 0
M  V30 2857 N 267.536 -0.106894 1.57237 0
M  V30 2858 C 268.813 -0.843526 1.76477 0
M  V30 2859 C 269.193 -1.97499 0.745464 0
M  V30 2860 O 268.541 -2.27357 -0.228306 0
M  V30 2861 C 268.751 -1.34903 3.21873 0
M  V30 2862 C 270.099 -1.79654 3.8472 0
M  V30 2863 O 271.123 -1.44554 3.2555 0
M  V30 2864 O 269.982 -2.44515 4.88748 0
M  V30 2865 H 267.076 -0.401468 0.723016 0
M  V30 2866 H 269.622 -0.0896927 1.69463 0
M  V30 2867 H 268.394 -0.53781 3.87586 0
M  V30 2868 H 268.017 -2.16522 3.33473 0
M  V30 2869 N 269.014 -1.53014 -0.377408 0
M  V30 2870 C 269.944 -1.81589 -1.46791 0
M  V30 2871 C 270.925 -0.668622 -1.56408 0
M  V30 2872 O 272.11 -0.917337 -1.71168 0
M  V30 2873 C 269.24 -1.99519 -2.8427 0
M  V30 2874 C 268.194 -3.15249 -2.89486 0
M  V30 2875 C 267.52 -3.18451 -4.29527 0
M  V30 2876 C 268.82 -4.54084 -2.58079 0
M  V30 2877 H 270.514 -2.7291 -1.23127 0
M  V30 2878 H 268.06 -1.31319 -0.590883 0
M  V30 2879 H 270.013 -2.18092 -3.60575 0
M  V30 2880 H 268.737 -1.04897 -3.09296 0
M  V30 2881 H 267.396 -2.96477 -2.15631 0
M  V30 2882 H 267.044 -2.2149 -4.5161 0
M  V30 2883 H 266.744 -3.962 -4.33934 0
M  V30 2884 H 268.268 -3.39193 -5.07721 0
M  V30 2885 H 269.682 -4.72899 -3.24098 0
M  V30 2886 H 268.079 -5.33987 -2.7382 0
M  V30 2887 H 269.149 -4.60006 -1.53372 0
M  V30 2888 N 270.492 0.636531 -1.44174 0
M  V30 2889 C 271.722 1.42146 -1.49927 0
M  V30 2890 C 272.13 1.88812 -0.121063 0
M  V30 2891 O 271.473 1.61126 0.882267 0
M  V30 2892 C 271.535 2.67883 -2.39748 0
M  V30 2893 C 271.199 2.43048 -3.8701 0
M  V30 2894 C 272.196 2.05216 -4.77684 0
M  V30 2895 C 269.881 2.56856 -4.3166 0
M  V30 2896 C 271.875 1.81512 -6.11009 0
M  V30 2897 C 269.562 2.32766 -5.65034 0
M  V30 2898 C 270.56 1.95152 -6.54526 0
M  V30 2899 O 270.248 1.71326 -7.85431 0
M  V30 2900 H 269.98 0.442567 -0.51099 0
M  V30 2901 H 272.534 0.786158 -1.8976 0
M  V30 2902 H 270.764 3.34032 -1.94832 0
M  V30 2903 H 272.453 3.29874 -2.36513 0
M  V30 2904 H 273.219 1.94111 -4.44462 0
M  V30 2905 H 269.098 2.85104 -3.62266 0
M  V30 2906 H 272.642 1.52077 -6.80822 0
M  V30 2907 H 268.539 2.43479 -5.97819 0
M  V30 2908 H 269.307 1.85616 -7.97176 0
M  V30 2909 N 271.97 1.30982 0.876444 0
M  V30 2910 C 272.918 1.18006 2.00443 0
M  V30 2911 C 273.912 0.0898871 1.69161 0
M  V30 2912 O 275.118 0.251333 1.78237 0
M  V30 2913 H 271.493 0.365196 0.65737 0
M  V30 2914 H 273.464 2.13453 2.0852 0
M  V30 2915 C 272.213 0.897521 3.35916 0
M  V30 2916 H 271.536 1.7285 3.60504 0
M  V30 2917 H 272.976 0.846874 4.15456 0
M  V30 2918 C 271.435 -0.399674 3.34521 0
M  V30 2919 O 271.965 -1.41852 3.7582 0
M  V30 2920 N 270.171 -0.413893 2.87637 0
M  V30 2921 H 269.718 0.41571 2.54224 0
M  V30 2922 H 269.676 -1.28175 2.87086 0
M  V30 2923 N 273.449 -1.08991 1.13837 0
M  V30 2924 C 274.698 -1.80631 0.897509 0
M  V30 2925 C 275.011 -1.86872 -0.57777 0
M  V30 2926 O 276.217 -2.54866 -0.935701 0
M  V30 2927 C 274.673 -3.24517 1.55618 0
M  V30 2928 C 274.281 -3.26529 3.0673 0
M  V30 2929 C 276.025 -4.00882 1.3962 0
M  V30 2930 C 273.932 -4.64965 3.65461 0
M  V30 2931 H 272.862 -0.67691 0.332129 0
M  V30 2932 H 275.513 -1.2246 1.3666 0
M  V30 2933 H 273.895 -3.82778 1.01476 0
M  V30 2934 H 275.069 -2.78008 3.67489 0
M  V30 2935 H 273.384 -2.63656 3.22296 0
M  V30 2936 H 275.981 -5.03167 1.80906 0
M  V30 2937 H 276.324 -4.14896 0.341578 0
M  V30 2938 H 276.857 -3.49075 1.90766 0
M  V30 2939 H 273.596 -4.56153 4.70749 0
M  V30 2940 H 273.116 -5.13792 3.09481 0
M  V30 2941 H 274.795 -5.3394 3.654 0
M  V30 2942 N 274.927 -0.932562 -1.27047 0
M  V30 2943 C 276.155 -0.592031 -1.98249 0
M  V30 2944 C 276.57 0.831062 -1.69525 0
M  V30 2945 O 275.927 1.55299 -0.958561 0
M  V30 2946 C 275.978 -0.814279 -3.5221 0
M  V30 2947 O 275.699 -2.18139 -3.7993 0
M  V30 2948 C 277.2 -0.483121 -4.4066 0
M  V30 2949 H 274.42 -0.223896 -0.632544 0
M  V30 2950 H 276.964 -1.25091 -1.61779 0
M  V30 2951 H 275.119 -0.20213 -3.86872 0
M  V30 2952 H 275.533 -2.235 -4.74498 0
M  V30 2953 H 277.007 -0.689298 -5.47679 0
M  V30 2954 H 277.484 0.581546 -4.35333 0
M  V30 2955 H 278.09 -1.07362 -4.11526 0
M  V30 2956 N 276.405 1.4127 -0.698611 0
M  V30 2957 C 277.315 2.34573 -0.0357891 0
M  V30 2958 C 278.331 1.56393 0.762701 0
M  V30 2959 O 279.507 1.8886 0.699564 0
M  V30 2960 C 276.572 3.35159 0.887089 0
M  V30 2961 C 275.633 4.29225 0.0804634 0
M  V30 2962 C 274.866 5.25006 0.959387 0
M  V30 2963 O 275.089 5.26314 2.19886 0
M  V30 2964 O 274.023 6.00519 0.407439 0
M  V30 2965 H 277.849 2.92838 -0.804957 0
M  V30 2966 H 275.434 1.42175 -0.458966 0
M  V30 2967 H 277.316 3.9689 1.41621 0
M  V30 2968 H 275.991 2.79333 1.6357 0
M  V30 2969 H 274.898 3.70833 -0.493328 0
M  V30 2970 H 276.231 4.88157 -0.629547 0
M  V30 2971 N 277.883 0.443576 1.51229 0
M  V30 2972 C 279.113 -0.119117 2.06256 0
M  V30 2973 C 279.521 -1.36471 1.31043 0
M  V30 2974 O 278.864 -1.80034 0.365151 0
M  V30 2975 C 278.926 -0.500546 3.55998 0
M  V30 2976 C 278.59 0.639125 4.52509 0
M  V30 2977 C 279.587 1.51311 4.97394 0
M  V30 2978 C 277.272 0.821632 4.95535 0
M  V30 2979 C 279.266 2.55425 5.83984 0
M  V30 2980 C 276.953 1.86603 5.81913 0
M  V30 2981 C 277.951 2.73072 6.26036 0
M  V30 2982 O 277.639 3.75718 7.10698 0
M  V30 2983 H 277.371 -0.00857665 0.675946 0
M  V30 2984 H 279.925 0.623288 1.95715 0
M  V30 2985 H 278.155 -1.29575 3.64345 0
M  V30 2986 H 279.844 -0.995116 3.93513 0
M  V30 2987 H 280.61 1.38367 4.64844 0
M  V30 2988 H 276.489 0.158149 4.60729 0
M  V30 2989 H 280.033 3.22949 6.18344 0
M  V30 2990 H 275.93 1.99564 6.13876 0
M  V30 2991 H 276.698 3.72374 7.2889 0
M  V30 2992 N 279.361 -1.56624 0.175154 0
M  V30 2993 C 280.638 -1.88688 -0.515373 0
M  V30 2994 C 281.018 -1.08564 -1.81044 0
M  V30 2995 O 280.366 -0.180703 -2.27784 0
M  V30 2996 C 280.576 -3.40768 -0.753552 0
M  V30 2997 C 281.924 -4.10587 -1.08184 0
M  V30 2998 O 282.948 -3.46106 -0.841961 0
M  V30 2999 O 281.807 -5.24512 -1.53459 0
M  V30 3000 H 278.901 -0.78301 -0.26613 0
M  V30 3001 H 281.447 -1.68347 0.213877 0
M  V30 3002 H 280.219 -3.90965 0.161829 0
M  V30 3003 H 279.842 -3.66733 -1.53598 0
M  V30 3004 N 280.839 0.0985539 -1.57292 0
M  V30 3005 C 281.786 1.11981 -2.01814 0
M  V30 3006 C 282.756 1.39999 -0.89384 0
M  V30 3007 O 283.941 1.5152 -1.15958 0
M  V30 3008 C 281.081 2.43577 -2.44467 0
M  V30 3009 C 280.194 2.2232 -3.70402 0
M  V30 3010 C 279.329 3.4729 -4.01949 0
M  V30 3011 C 278.368 3.2128 -5.21005 0
M  V30 3012 N 277.505 4.38507 -5.48321 0
M  V30 3013 H 282.345 0.733149 -2.88841 0
M  V30 3014 H 279.882 0.350482 -1.42864 0
M  V30 3015 H 281.84 3.20373 -2.6724 0
M  V30 3016 H 280.47 2.80097 -1.60455 0
M  V30 3017 H 279.522 1.36343 -3.55126 0
M  V30 3018 H 280.834 1.99089 -4.57345 0
M  V30 3019 H 279.988 4.32495 -4.25479 0
M  V30 3020 H 278.727 3.73572 -3.13521 0
M  V30 3021 H 277.732 2.34468 -4.97298 0
M  V30 3022 H 278.957 2.96348 -6.11028 0
M  V30 3023 H 276.903 4.64871 -4.62851 0
M  V30 3024 H 276.82 4.18455 -6.29628 0
M  V30 3025 H 278.088 5.24787 -5.76385 0
M  V30 3026 N 282.317 1.53212 0.369288 0
M  V30 3027 C 283.227 1.82342 1.47609 0
M  V30 3028 C 284.243 0.711532 1.58787 0
M  V30 3029 O 285.419 1.0012 1.74751 0
M  V30 3030 C 282.484 2.00393 2.8292 0
M  V30 3031 C 281.545 3.24297 2.81301 0
M  V30 3032 C 280.778 3.41478 4.10157 0
M  V30 3033 O 281.001 2.63033 5.06132 0
M  V30 3034 O 279.935 4.34817 4.16194 0
M  V30 3035 H 283.761 2.76366 1.25918 0
M  V30 3036 H 281.346 1.38547 0.559034 0
M  V30 3037 H 283.228 2.13859 3.63101 0
M  V30 3038 H 281.903 1.09559 3.04596 0
M  V30 3039 H 280.81 3.16257 1.99831 0
M  V30 3040 H 282.143 4.15041 2.64578 0
M  V30 3041 N 283.795 -0.628877 1.44509 0
M  V30 3042 C 284.742 -1.74074 1.51549 0
M  V30 3043 C 285.712 -1.62084 0.363021 0
M  V30 3044 O 286.897 -1.81975 0.573567 0
M  V30 3045 C 284.037 -3.12328 1.46784 0
M  V30 3046 C 283.15 -3.35277 2.72422 0
M  V30 3047 C 282.285 -4.63515 2.59475 0
M  V30 3048 C 281.324 -4.7965 3.80266 0
M  V30 3049 N 280.461 -5.99168 3.65981 0
M  V30 3050 H 285.301 -1.67392 2.46544 0
M  V30 3051 H 282.838 -0.816527 1.22357 0
M  V30 3052 H 284.796 -3.92286 1.42012 0
M  V30 3053 H 283.426 -3.18018 0.553544 0
M  V30 3054 H 282.478 -2.49242 2.87372 0
M  V30 3055 H 283.79 -3.43078 3.62076 0
M  V30 3056 H 282.944 -5.51638 2.52548 0
M  V30 3057 H 281.683 -4.58076 1.67384 0
M  V30 3058 H 280.688 -3.89957 3.87574 0
M  V30 3059 H 281.913 -4.86902 4.73395 0
M  V30 3060 H 279.859 -5.94814 2.76644 0
M  V30 3061 H 279.776 -6.08035 4.49254 0
M  V30 3062 H 281.044 -6.89846 3.6295 0
M  V30 3063 N 285.273 -1.31445 -0.869486 0
M  V30 3064 C 286.183 -1.21097 -2.0093 0
M  V30 3065 C 287.199 -0.127584 -1.73532 0
M  V30 3066 O 288.375 -0.345477 -1.98415 0
M  V30 3067 C 285.44 -0.919378 -3.34288 0
M  V30 3068 C 284.501 -2.08971 -3.75006 0
M  V30 3069 C 283.734 -1.81194 -5.02001 0
M  V30 3070 O 283.957 -0.747296 -5.65484 0
M  V30 3071 O 282.891 -2.66883 -5.39497 0
M  V30 3072 H 286.717 -2.16883 -2.12592 0
M  V30 3073 H 284.302 -1.11189 -0.997868 0
M  V30 3074 H 286.184 -0.772625 -4.14257 0
M  V30 3075 H 284.859 0.00844772 -3.23699 0
M  V30 3076 H 283.766 -2.29187 -2.95676 0
M  V30 3077 H 285.099 -2.9998 -3.90221 0
M  V30 3078 N 286.751 1.08385 -1.14413 0
M  V30 3079 C 287.681 2.17321 -0.854044 0
M  V30 3080 C 288.662 1.69024 0.191049 0
M  V30 3081 O 289.847 1.94141 0.0476779 0
M  V30 3082 C 286.977 3.45719 -0.330983 0
M  V30 3083 C 285.931 4.07409 -1.31155 0
M  V30 3084 C 285.257 5.30762 -0.64778 0
M  V30 3085 C 286.557 4.48665 -2.67388 0
M  V30 3086 H 288.251 2.41845 -1.76498 0
M  V30 3087 H 285.797 1.16233 -0.850051 0
M  V30 3088 H 287.75 4.21241 -0.115645 0
M  V30 3089 H 286.474 3.2075 0.615381 0
M  V30 3090 H 285.133 3.33919 -1.51306 0
M  V30 3091 H 284.781 5.02078 0.304398 0
M  V30 3092 H 284.481 5.72992 -1.30207 0
M  V30 3093 H 286.005 6.08998 -0.441972 0
M  V30 3094 H 287.419 5.15364 -2.51143 0
M  V30 3095 H 285.816 5.01814 -3.29093 0
M  V30 3096 H 286.886 3.60543 -3.24248 0
M  V30 3097 N 288.23 0.939286 1.26551 0
M  V30 3098 C 289.178 0.43815 2.28436 0
M  V30 3099 C 290.172 -0.483587 1.62351 0
M  V30 3100 O 291.378 -0.362009 1.76322 0
M  V30 3101 H 287.753 0.123149 0.741848 0
M  V30 3102 H 289.724 1.31002 2.68106 0
M  V30 3103 C 288.473 -0.283052 3.46546 0
M  V30 3104 H 287.796 0.417043 3.97619 0
M  V30 3105 H 289.236 -0.597948 4.19763 0
M  V30 3106 C 287.695 -1.50018 3.01656 0
M  V30 3107 O 288.225 -2.59855 3.0633 0
M  V30 3108 N 286.431 -1.35608 2.57019 0
M  V30 3109 H 285.978 -0.46244 2.53415 0
M  V30 3110 H 285.936 -2.17165 2.27347 0
M  V30 3111 N 289.708 -1.40897 0.706093 0
M  V30 3112 C 290.638 -2.33418 0.0620085 0
M  V30 3113 C 291.619 -1.52385 -0.755827 0
M  V30 3114 O 292.804 -1.80886 -0.706674 0
M  V30 3115 C 289.934 -3.36293 -0.867445 0
M  V30 3116 C 288.888 -4.27716 -0.155932 0
M  V30 3117 C 288.214 -5.2105 -1.20046 0
M  V30 3118 C 289.514 -5.12944 0.984149 0
M  V30 3119 H 291.208 -2.87527 0.83477 0
M  V30 3120 H 288.754 -1.38249 0.402875 0
M  V30 3121 H 290.707 -3.99949 -1.32735 0
M  V30 3122 H 289.431 -2.80556 -1.67199 0
M  V30 3123 H 288.09 -3.65498 0.284047 0
M  V30 3124 H 287.738 -4.61624 -1.99781 0
M  V30 3125 H 287.438 -5.83056 -0.729328 0
M  V30 3126 H 288.962 -5.87584 -1.66066 0
M  V30 3127 H 290.376 -5.70109 0.604048 0
M  V30 3128 H 288.773 -5.83945 1.38304 0
M  V30 3129 H 289.843 -4.49485 1.81911 0
M  V30 3130 N 291.186 -0.45159 -1.50991 0
M  V30 3131 C 292.433 0.110074 -2.02201 0
M  V30 3132 C 292.761 1.4146 -1.33489 0
M  V30 3133 O 292.016 1.90617 -0.443125 0
M  V30 3134 C 292.315 0.361728 -3.55565 0
M  V30 3135 C 291.981 -0.858717 -4.42648 0
M  V30 3136 C 290.643 -1.19338 -4.66167 0
M  V30 3137 C 292.995 -1.67221 -4.93646 0
M  V30 3138 C 290.323 -2.34195 -5.37931 0
M  V30 3139 C 292.675 -2.8119 -5.6667 0
M  V30 3140 C 291.339 -3.15094 -5.88449 0
M  V30 3141 H 290.609 0.040279 -0.739904 0
M  V30 3142 H 293.256 -0.601696 -1.81802 0
M  V30 3143 H 291.561 1.15554 -3.74372 0
M  V30 3144 H 293.258 0.80996 -3.92735 0
M  V30 3145 H 289.848 -0.58796 -4.24548 0
M  V30 3146 H 294.032 -1.42686 -4.75347 0
M  V30 3147 H 289.288 -2.6076 -5.53005 0
M  V30 3148 H 293.462 -3.44585 -6.05173 0
M  V30 3149 H 291.089 -4.04204 -6.43835 0
M  V30 3150 N 292.664 1.56529 -0.183458 0
M  V30 3151 C 293.894 2.01331 0.463612 0
M  V30 3152 C 294.302 1.06278 1.5653 0
M  V30 3153 O 293.645 0.0577976 1.83609 0
M  V30 3154 C 293.707 3.42547 1.09096 0
M  V30 3155 C 293.371 4.56817 0.129442 0
M  V30 3156 C 294.368 5.15734 -0.656807 0
M  V30 3157 C 292.053 5.02295 0.02174 0
M  V30 3158 C 294.047 6.1857 -1.53784 0
M  V30 3159 C 291.734 6.04978 -0.862864 0
M  V30 3160 C 292.732 6.62988 -1.64123 0
M  V30 3161 O 292.42 7.63677 -2.51103 0
M  V30 3162 H 292.152 0.664917 0.121907 0
M  V30 3163 H 294.706 2.034 -0.285954 0
M  V30 3164 H 292.936 3.37428 1.88889 0
M  V30 3165 H 294.625 3.71228 1.64148 0
M  V30 3166 H 295.391 4.81473 -0.583839 0
M  V30 3167 H 291.27 4.56847 0.617392 0
M  V30 3168 H 294.814 6.63777 -2.14583 0
M  V30 3169 H 290.711 6.38663 -0.93699 0
M  V30 3170 H 291.479 7.81049 -2.44753 0
M  V30 3171 N 294.142 -0.090211 1.57342 0
M  V30 3172 C 295.09 -1.12792 2.03422 0
M  V30 3173 C 296.084 -1.41182 0.936166 0
M  V30 3174 O 297.29 -1.40805 1.12133 0
M  V30 3175 H 293.665 -0.380986 0.648347 0
M  V30 3176 H 295.636 -0.71299 2.89757 0
M  V30 3177 C 294.385 -2.43855 2.47851 0
M  V30 3178 H 293.708 -2.22855 3.31927 0
M  V30 3179 H 295.148 -3.14955 2.83865 0
M  V30 3180 C 293.607 -3.08503 1.3538 0
M  V30 3181 O 294.137 -3.95805 0.685641 0
M  V30 3182 N 292.343 -2.68831 1.10355 0
M  V30 3183 H 291.89 -1.97929 1.64869 0
M  V30 3184 H 291.848 -3.12412 0.353031 0
M  V30 3185 N 295.62 -1.53406 -0.361157 0
M  V30 3186 C 296.85 -1.73465 -1.1222 0
M  V30 3187 C 297.258 -0.465486 -1.83384 0
M  V30 3188 O 296.601 0.571611 -1.7458 0
M  V30 3189 C 296.663 -2.84834 -2.19339 0
M  V30 3190 C 296.327 -4.25038 -1.67903 0
M  V30 3191 C 297.324 -5.07231 -1.14074 0
M  V30 3192 C 295.009 -4.71464 -1.73282 0
M  V30 3193 C 297.003 -6.33942 -0.663068 0
M  V30 3194 C 294.69 -5.98153 -1.25127 0
M  V30 3195 C 295.688 -6.79223 -0.717296 0
M  V30 3196 O 295.376 -8.03533 -0.242865 0
M  V30 3197 H 295.108 -0.583526 -0.341283 0
M  V30 3198 H 297.662 -2.00964 -0.424591 0
M  V30 3199 H 295.892 -2.5282 -2.92607 0
M  V30 3200 H 297.581 -2.9303 -2.80871 0
M  V30 3201 H 298.347 -4.72534 -1.09254 0
M  V30 3202 H 294.226 -4.08432 -2.13786 0
M  V30 3203 H 297.77 -6.97167 -0.245612 0
M  V30 3204 H 293.667 -6.32347 -1.29642 0
M  V30 3205 H 294.435 -8.177 -0.361786 0
M  V30 3206 N 297.098 0.621204 -1.44841 0
M  V30 3207 C 298.048 1.72663 -1.48901 0
M  V30 3208 C 299.032 1.56964 -0.353702 0
M  V30 3209 O 300.224 1.66532 -0.599669 0
M  V30 3210 C 297.353 3.11381 -1.44557 0
M  V30 3211 C 296.439 3.32514 -2.6324 0
M  V30 3212 N 296.83 3.23969 -3.8843 0
M  V30 3213 C 295.128 3.63343 -2.58647 0
M  V30 3214 C 295.829 3.46062 -4.67564 0
M  V30 3215 N 294.805 3.69407 -3.98797 0
M  V30 3216 H 298.607 1.64529 -2.43531 0
M  V30 3217 H 296.121 0.82401 -1.39942 0
M  V30 3218 H 298.118 3.90667 -1.4555 0
M  V30 3219 H 296.778 3.20674 -0.509731 0
M  V30 3220 H 297.789 3.02669 -4.20252 0
M  V30 3221 H 294.466 3.79556 -1.73906 0
M  V30 3222 H 295.856 3.44963 -5.76585 0
M  V30 3223 N 298.576 1.31904 0.862503 0
M  V30 3224 C 299.825 1.21373 1.61094 0
M  V30 3225 C 300.138 -0.22504 1.94301 0
M  V30 3226 O 301.344 -0.452121 2.67709 0
M  V30 3227 C 299.8 2.12525 2.9045 0
M  V30 3228 C 299.408 3.61441 2.64697 0
M  V30 3229 C 301.152 2.10813 3.68454 0
M  V30 3230 C 299.059 4.44578 3.90006 0
M  V30 3231 H 297.989 0.450705 0.604468 0
M  V30 3232 H 300.64 1.56811 0.953027 0
M  V30 3233 H 299.022 1.69994 3.57656 0
M  V30 3234 H 300.196 4.12264 2.05851 0
M  V30 3235 H 298.511 3.65205 2.00036 0
M  V30 3236 H 301.108 2.70167 4.61426 0
M  V30 3237 H 301.451 1.09713 4.01583 0
M  V30 3238 H 301.984 2.51583 3.08141 0
M  V30 3239 H 298.723 5.46461 3.62023 0
M  V30 3240 H 298.243 3.98508 4.48276 0
M  V30 3241 H 299.922 4.57176 4.5782 0
M  V30 3242 N 300.054 -1.07777 1.14986 0
M  V30 3243 C 301.001 -2.14867 0.842672 0
M  V30 3244 C 301.971 -1.6486 -0.202552 0
M  V30 3245 O 303.156 -1.90668 -0.0710568 0
M  V30 3246 C 300.296 -3.43486 0.333363 0
M  V30 3247 C 299.409 -4.07306 1.43965 0
M  V30 3248 C 298.544 -5.23744 0.886914 0
M  V30 3249 C 297.583 -5.79517 1.97043 0
M  V30 3250 N 296.72 -6.87291 1.4344 0
M  V30 3251 H 301.56 -2.40485 1.75986 0
M  V30 3252 H 299.097 -1.1801 0.878179 0
M  V30 3253 H 301.055 -4.17195 0.0198163 0
M  V30 3254 H 299.685 -3.18133 -0.546916 0
M  V30 3255 H 298.737 -3.31293 1.86946 0
M  V30 3256 H 300.049 -4.44771 2.25788 0
M  V30 3257 H 299.203 -6.04419 0.525651 0
M  V30 3258 H 297.942 -4.87685 0.0377957 0
M  V30 3259 H 296.947 -4.97491 2.34057 0
M  V30 3260 H 298.172 -6.17632 2.82325 0
M  V30 3261 H 296.118 -6.5318 0.607567 0
M  V30 3262 H 296.035 -7.23617 2.18895 0
M  V30 3263 H 297.303 -7.71682 1.10124 0
M  V30 3264 N 301.532 -0.945985 -1.26051 0
M  V30 3265 C 302.462 -0.477172 -2.28572 0
M  V30 3266 C 303.443 0.472032 -1.63419 0
M  V30 3267 O 304.628 0.372853 -1.90587 0
M  V30 3268 C 301.758 0.253975 -3.4637 0
M  V30 3269 C 300.712 -0.609135 -4.23643 0
M  V30 3270 C 300.038 0.252252 -5.34105 0
M  V30 3271 C 301.338 -1.8829 -4.8718 0
M  V30 3272 H 303.032 -1.33402 -2.68038 0
M  V30 3273 H 300.578 -0.642904 -1.28852 0
M  V30 3274 H 302.531 0.593016 -4.17207 0
M  V30 3275 H 301.255 1.145 -3.05871 0
M  V30 3276 H 299.914 -0.931138 -3.54578 0
M  V30 3277 H 299.562 1.14278 -4.89846 0
M  V30 3278 H 299.262 -0.32188 -5.86718 0
M  V30 3279 H 300.786 0.586454 -6.07777 0
M  V30 3280 H 302.2 -1.61081 -5.50205 0
M  V30 3281 H 300.597 -2.40199 -5.49931 0
M  V30 3282 H 301.667 -2.59134 -4.09851 0
M  V30 3283 N 303.011 1.40521 -0.713556 0
M  V30 3284 C 304.427 1.54839 -0.386907 0
M  V30 3285 C 304.627 1.68532 1.1045 0
M  V30 3286 O 303.683 1.67377 1.89053 0
M  V30 3287 C 304.996 2.77792 -1.15118 0
M  V30 3288 C 306.544 2.91607 -1.13729 0
M  V30 3289 C 307.019 4.1747 -1.88368 0
M  V30 3290 N 308.51 4.24466 -1.85427 0
M  V30 3291 C 309.245 5.20755 -2.40004 0
M  V30 3292 N 308.741 6.22965 -3.03129 0
M  V30 3293 N 310.534 5.1282 -2.30158 0
M  V30 3294 H 302.685 1.29879 -1.68063 0
M  V30 3295 H 304.948 0.627896 -0.710247 0
M  V30 3296 H 304.654 2.73944 -2.20561 0
M  V30 3297 H 304.528 3.6984 -0.741477 0
M  V30 3298 H 306.915 2.94959 -0.0910608 0
M  V30 3299 H 306.996 2.00682 -1.5862 0
M  V30 3300 H 306.64 4.1488 -2.9298 0
M  V30 3301 H 306.57 5.074 -1.40898 0
M  V30 3302 H 309.061 3.51241 -1.3942 0
M  V30 3303 H 309.374 6.92859 -3.42295 0
M  V30 3304 H 307.719 6.23415 -3.07212 0
M  V30 3305 H 310.91 4.31899 -1.80501 0
M  V30 3306 H 311.083 5.87689 -2.72993 0
M  V30 3307 N 304.489 0.459591 1.5075 0
M  V30 3308 C 305.766 -0.160371 1.94941 0
M  V30 3309 C 306.146 -1.58048 1.39943 0
M  V30 3310 O 305.494 -2.206 0.595629 0
M  V30 3311 C 305.704 -0.115432 3.48809 0
M  V30 3312 C 307.052 -0.310026 4.23467 0
M  V30 3313 O 308.076 -0.192543 3.55679 0
M  V30 3314 O 306.935 -0.546031 5.43765 0
M  V30 3315 H 304.029 -0.117925 0.818549 0
M  V30 3316 H 306.575 0.519169 1.61563 0
M  V30 3317 H 305.347 0.87652 3.81357 0
M  V30 3318 H 304.97 -0.836928 3.88692 0
M  V30 3319 N 305.967 -1.56429 0.191757 0
M  V30 3320 C 307.383 -1.58754 -0.164137 0
M  V30 3321 C 307.583 -1.20782 -1.61288 0
M  V30 3322 O 306.639 -0.928999 -2.34789 0
M  V30 3323 C 307.952 -3.00396 0.135195 0
M  V30 3324 C 309.5 -3.1291 0.0750351 0
M  V30 3325 C 309.975 -4.56679 0.347632 0
M  V30 3326 N 311.466 -4.62252 0.296131 0
M  V30 3327 C 312.201 -5.71379 0.480948 0
M  V30 3328 N 311.697 -6.88986 0.725933 0
M  V30 3329 N 313.49 -5.60563 0.415435 0
M  V30 3330 H 305.641 -1.79393 1.13718 0
M  V30 3331 H 307.904 -0.832414 0.453643 0
M  V30 3332 H 307.61 -3.32726 1.13958 0
M  V30 3333 H 307.484 -3.72963 -0.563773 0
M  V30 3334 H 309.871 -2.80394 -0.919948 0
M  V30 3335 H 309.952 -2.42736 0.807029 0
M  V30 3336 H 309.596 -4.89907 1.33992 0
M  V30 3337 H 309.526 -5.25039 -0.405212 0
M  V30 3338 H 312.017 -3.7773 0.113259 0
M  V30 3339 H 312.33 -7.68046 0.855857 0
M  V30 3340 H 310.675 -6.90801 0.762788 0
M  V30 3341 H 313.866 -4.67561 0.224486 0
M  V30 3342 H 314.039 -6.45551 0.562889 0
M  V30 3343 N 307.445 0.0818655 -1.57387 0
M  V30 3344 C 308.694 0.781681 -1.85937 0
M  V30 3345 C 309.007 1.79246 -0.782957 0
M  V30 3346 O 310.213 2.54112 -0.955987 0
M  V30 3347 C 308.669 1.44109 -3.29789 0
M  V30 3348 C 308.277 0.469396 -4.45534 0
M  V30 3349 C 310.021 2.12386 -3.67549 0
M  V30 3350 C 307.928 1.13415 -5.80423 0
M  V30 3351 H 306.858 0.295682 -0.693605 0
M  V30 3352 H 309.509 0.0348051 -1.83467 0
M  V30 3353 H 307.891 2.23588 -3.2684 0
M  V30 3354 H 309.065 -0.294856 -4.59856 0
M  V30 3355 H 307.38 -0.108383 -4.16259 0
M  V30 3356 H 309.977 2.62878 -4.65617 0
M  V30 3357 H 310.32 2.91877 -2.96839 0
M  V30 3358 H 310.853 1.39751 -3.72444 0
M  V30 3359 H 307.592 0.379771 -6.54399 0
M  V30 3360 H 307.112 1.8695 -5.69921 0
M  V30 3361 H 308.791 1.65686 -6.25426 0
M  V30 3362 N 308.923 1.53595 0.353017 0
M  V30 3363 C 310.169 1.70638 1.09593 0
M  V30 3364 C 310.502 0.463286 1.88593 0
M  V30 3365 O 309.777 -0.539597 1.86865 0
M  V30 3366 C 310.06 2.96406 2.04489 0
M  V30 3367 C 309.913 4.30901 1.29014 0
M  V30 3368 C 311.232 3.17812 3.0444 0
M  V30 3369 H 308.351 0.620913 0.397034 0
M  V30 3370 H 310.993 1.86254 0.375446 0
M  V30 3371 H 309.143 2.83223 2.65927 0
M  V30 3372 H 310.815 4.55917 0.702638 0
M  V30 3373 H 309.058 4.29741 0.592071 0
M  V30 3374 H 309.729 5.1506 1.98537 0
M  V30 3375 H 312.205 3.30263 2.53112 0
M  V30 3376 H 311.081 4.07223 3.6805 0
M  V30 3377 H 311.342 2.33669 3.75301 0
M  V30 3378 N 310.401 -0.613514 1.45168 0
M  V30 3379 C 311.678 -1.37263 1.39349 0
M  V30 3380 C 312.058 -2.11012 0.0610848 0
M  V30 3381 O 311.406 -2.07502 -0.956825 0
M  V30 3382 C 311.616 -2.3244 2.60332 0
M  V30 3383 C 312.964 -2.9523 3.05163 0
M  V30 3384 O 313.988 -2.42762 2.60663 0
M  V30 3385 O 312.847 -3.90454 3.82372 0
M  V30 3386 H 309.941 -0.615188 0.552696 0
M  V30 3387 H 312.487 -0.637097 1.57287 0
M  V30 3388 H 311.259 -1.77164 3.48896 0
M  V30 3389 H 310.882 -3.13383 2.44698 0
M  V30 3390 N 311.879 -1.3236 -0.855495 0
M  V30 3391 C 313.125 -1.23054 -1.612 0
M  V30 3392 C 313.458 0.207404 -1.93089 0
M  V30 3393 O 312.733 1.14432 -1.57275 0
M  V30 3394 C 313.016 -2.08937 -2.93287 0
M  V30 3395 C 312.869 -3.61105 -2.68185 0
M  V30 3396 C 314.188 -1.94986 -3.94549 0
M  V30 3397 H 311.307 -0.448364 -0.584926 0
M  V30 3398 H 313.949 -1.62297 -0.987917 0
M  V30 3399 H 312.099 -1.75599 -3.46551 0
M  V30 3400 H 313.771 -4.04652 -2.21483 0
M  V30 3401 H 312.014 -3.83813 -2.02164 0
M  V30 3402 H 312.685 -4.16522 -3.62234 0
M  V30 3403 H 315.161 -2.24189 -3.5054 0
M  V30 3404 H 314.037 -2.57356 -4.84829 0
M  V30 3405 H 314.298 -0.917263 -4.3248 0
M  V30 3406 N 313.357 1.07166 -1.15556 0
M  V30 3407 C 314.606 1.79181 -0.926132 0
M  V30 3408 C 314.919 1.87768 0.547967 0
M  V30 3409 O 316.125 2.56323 0.895036 0
M  V30 3410 C 314.581 3.22 -1.60761 0
M  V30 3411 C 314.189 3.21607 -3.11886 0
M  V30 3412 C 315.933 3.9861 -1.4598 0
M  V30 3413 C 313.84 4.59092 -3.72812 0
M  V30 3414 H 312.77 0.67154 -0.342856 0
M  V30 3415 H 315.421 1.2027 -1.3859 0
M  V30 3416 H 313.803 3.81115 -1.07553 0
M  V30 3417 H 314.977 2.72127 -3.71865 0
M  V30 3418 H 313.292 2.58495 -3.2645 0
M  V30 3419 H 315.889 5.00225 -1.88888 0
M  V30 3420 H 316.232 4.143 -0.407541 0
M  V30 3421 H 316.765 3.45996 -1.96295 0
M  V30 3422 H 313.504 4.48606 -4.77946 0
M  V30 3423 H 313.024 5.08803 -3.17616 0
M  V30 3424 H 314.703 5.28059 -3.73848 0
M  V30 3425 N 314.835 0.952656 1.25548 0
M  V30 3426 C 316.06 0.623025 1.97821 0
M  V30 3427 C 316.485 -0.7976 1.70352 0
M  V30 3428 O 315.843 -1.53905 0.958283 0
M  V30 3429 C 315.891 0.885532 3.49558 0
M  V30 3430 O 314.995 -0.0366641 4.12384 0
M  V30 3431 H 314.336 0.237082 0.620232 0
M  V30 3432 H 316.866 1.27871 1.59719 0
M  V30 3433 H 316.876 0.811009 3.99858 0
M  V30 3434 H 315.551 1.92094 3.6888 0
M  V30 3435 H 314.128 0.0898954 3.72792 0
M  V30 3436 N 316.313 -1.40141 0.720998 0
M  V30 3437 C 317.56 -2.00787 0.262842 0
M  V30 3438 C 317.888 -1.5718 -1.14563 0
M  V30 3439 O 317.143 -0.785391 -1.79249 0
M  V30 3440 C 317.442 -3.56165 0.296892 0
M  V30 3441 C 317.108 -4.19373 1.65641 0
M  V30 3442 C 315.77 -4.36352 2.02855 0
M  V30 3443 C 318.122 -4.54578 2.54968 0
M  V30 3444 C 315.45 -4.8582 3.28931 0
M  V30 3445 C 317.802 -5.05447 3.80402 0
M  V30 3446 C 316.466 -5.20635 4.17726 0
M  V30 3447 H 315.736 -0.734731 0.0961807 0
M  V30 3448 H 318.383 -1.67673 0.925093 0
M  V30 3449 H 316.688 -3.8922 -0.448932 0
M  V30 3450 H 318.385 -4.00929 -0.0755208 0
M  V30 3451 H 314.975 -4.06549 1.35704 0
M  V30 3452 H 319.159 -4.41091 2.27491 0
M  V30 3453 H 314.415 -4.95764 3.57811 0
M  V30 3454 H 318.589 -5.31663 4.49786 0
M  V30 3455 H 316.216 -5.58728 5.15487 0
M  V30 3456 N 317.792 -0.46758 -1.50504 0
M  V30 3457 C 318.725 0.374324 -2.25109 0
M  V30 3458 C 319.703 0.99921 -1.28275 0
M  V30 3459 O 320.887 1.03583 -1.57489 0
M  V30 3460 C 318.014 1.52419 -3.02467 0
M  V30 3461 C 317.06 1.01702 -4.14197 0
M  V30 3462 S 317.893 -0.0654477 -5.3546 0
M  V30 3463 C 319.049 1.08837 -6.16365 0
M  V30 3464 H 319.282 -0.258983 -2.9617 0
M  V30 3465 H 316.815 -0.252421 -1.52323 0
M  V30 3466 H 318.773 2.18322 -3.47628 0
M  V30 3467 H 317.434 2.129 -2.30938 0
M  V30 3468 H 316.627 1.87776 -4.67714 0
M  V30 3469 H 316.229 0.435757 -3.71453 0
M  V30 3470 H 318.521 2.00071 -6.47285 0
M  V30 3471 H 319.464 0.592538 -7.05616 0
M  V30 3472 H 319.872 1.34061 -5.4835 0
M  V30 3473 N 319.27 1.56325 -0.20005 0
M  V30 3474 C 320.218 2.20666 0.735482 0
M  V30 3475 C 321.212 1.17934 1.21605 0
M  V30 3476 O 322.418 1.36068 1.17837 0
M  V30 3477 H 318.793 0.70725 0.255542 0
M  V30 3478 H 320.764 2.9792 0.169166 0
M  V30 3479 C 319.513 2.88391 1.94232 0
M  V30 3480 H 318.836 3.67185 1.58161 0
M  V30 3481 H 320.276 3.3684 2.57517 0
M  V30 3482 C 318.735 1.89692 2.78421 0
M  V30 3483 O 319.265 1.40032 3.76502 0
M  V30 3484 N 317.471 1.57813 2.44015 0
M  V30 3485 H 317.018 1.9839 1.64314 0
M  V30 3486 H 316.976 0.920325 3.00628 0
M  V30 3487 N 320.748 -0.0735177 1.57428 0
M  V30 3488 C 321.976 -0.785969 1.9139 0
M  V30 3489 C 322.391 -1.71207 0.795847 0
M  V30 3490 O 321.748 -1.81033 -0.230915 0
M  V30 3491 C 321.799 -1.58107 3.25091 0
M  V30 3492 O 321.52 -0.6922 4.32597 0
M  V30 3493 C 323.021 -2.39467 3.73055 0
M  V30 3494 H 320.241 -0.223558 0.632663 0
M  V30 3495 H 322.785 -0.044302 2.04452 0
M  V30 3496 H 320.94 -2.27503 3.13562 0
M  V30 3497 H 321.354 -1.24504 5.09508 0
M  V30 3498 H 322.828 -2.90716 4.69242 0
M  V30 3499 H 323.305 -3.18913 3.01979 0
M  V30 3500 H 323.911 -1.7523 3.87523 0
M  V30 3501 N 322.226 -1.5378 -0.344866 0
M  V30 3502 C 323.174 -1.82373 -1.4437 0
M  V30 3503 C 324.168 -0.694128 -1.54526 0
M  V30 3504 O 325.374 -0.877442 -1.57165 0
M  V30 3505 H 321.749 -0.577765 -0.481344 0
M  V30 3506 H 323.72 -2.74306 -1.17468 0
M  V30 3507 C 322.469 -2.04898 -2.80913 0
M  V30 3508 H 321.792 -2.9127 -2.73865 0
M  V30 3509 H 323.232 -2.28871 -3.56923 0
M  V30 3510 C 321.691 -0.834116 -3.26411 0
M  V30 3511 O 322.221 -0.0328885 -4.01687 0
M  V30 3512 N 320.427 -0.65171 -2.83198 0
M  V30 3513 H 319.974 -1.30489 -2.22104 0
M  V30 3514 H 319.932 0.159686 -3.13994 0
M  V30 3515 N 323.704 0.605807 -1.45491 0
M  V30 3516 C 324.634 1.72709 -1.57143 0
M  V30 3517 C 325.615 1.6476 -0.422884 0
M  V30 3518 O 326.8 1.83132 -0.646247 0
M  V30 3519 C 323.93 3.11316 -1.53948 0
M  V30 3520 C 322.884 3.34077 -2.67537 0
M  V30 3521 C 322.21 4.72975 -2.49397 0
M  V30 3522 C 323.51 3.24158 -4.09535 0
M  V30 3523 H 325.204 1.63214 -2.51001 0
M  V30 3524 H 322.75 0.78379 -1.208 0
M  V30 3525 H 324.703 3.89557 -1.60696 0
M  V30 3526 H 323.427 3.21655 -0.566205 0
M  V30 3527 H 322.086 2.58227 -2.6022 0
M  V30 3528 H 321.734 4.8005 -1.50205 0
M  V30 3529 H 321.434 4.8916 -3.25571 0
M  V30 3530 H 322.958 5.53414 -2.58002 0
M  V30 3531 H 324.372 3.92271 -4.18086 0
M  V30 3532 H 322.769 3.51872 -4.86113 0
M  V30 3533 H 323.839 2.2157 -4.31317 0
M  V30 3534 N 325.182 1.32811 0.848464 0
M  V30 3535 C 326.092 1.24278 1.98978 0
M  V30 3536 C 327.108 0.155176 1.73307 0
M  V30 3537 O 328.284 0.376999 1.9784 0
M  V30 3538 C 325.349 0.972444 3.32783 0
M  V30 3539 C 324.41 2.14911 3.71634 0
M  V30 3540 C 323.643 1.89157 4.99054 0
M  V30 3541 O 323.866 0.837165 5.64223 0
M  V30 3542 O 322.8 2.75433 5.35183 0
M  V30 3543 H 326.626 2.20238 2.09115 0
M  V30 3544 H 324.211 1.12762 0.980052 0
M  V30 3545 H 326.093 0.838432 4.12975 0
M  V30 3546 H 324.768 0.043051 3.23671 0
M  V30 3547 H 323.675 2.33862 2.91992 0
M  V30 3548 H 325.008 3.06151 3.85399 0
M  V30 3549 N 326.66 -1.06551 1.16123 0
M  V30 3550 C 327.608 -2.16063 0.861371 0
M  V30 3551 C 328.602 -1.6856 -0.168517 0
M  V30 3552 O 329.808 -1.79986 -0.0227579 0
M  V30 3553 H 326.183 -0.705278 0.260934 0
M  V30 3554 H 328.154 -2.38567 1.79244 0
M  V30 3555 C 326.903 -3.45661 0.376018 0
M  V30 3556 H 326.226 -3.82604 1.15992 0
M  V30 3557 H 327.666 -4.23504 0.204951 0
M  V30 3558 C 326.125 -3.24546 -0.903954 0
M  V30 3559 O 326.655 -3.49865 -1.97377 0
M  V30 3560 N 324.861 -2.77992 -0.846679 0
M  V30 3561 H 324.408 -2.57589 0.0241017 0
M  V30 3562 H 324.366 -2.64244 -1.70359 0
M  V30 3563 N 328.138 -0.959301 -1.25041 0
M  V30 3564 C 329.086 -0.474437 -2.2771 0
M  V30 3565 C 330.08 0.457697 -1.631 0
M  V30 3566 O 331.286 0.333912 -1.76876 0
M  V30 3567 H 327.661 -0.134936 -0.739795 0
M  V30 3568 H 329.632 -1.35251 -2.65988 0
M  V30 3569 C 328.381 0.227884 -3.46952 0
M  V30 3570 H 327.704 -0.480248 -3.96905 0
M  V30 3571 H 329.144 0.531091 -4.20661 0
M  V30 3572 C 327.603 1.452 -3.04004 0
M  V30 3573 O 328.133 2.54949 -3.10426 0
M  V30 3574 N 326.339 1.31502 -2.59144 0
M  V30 3575 H 325.886 0.422065 -2.54119 0
M  V30 3576 H 325.844 2.13521 -2.30773 0
M  V30 3577 N 329.616 1.39756 -0.72842 0
M  V30 3578 C 330.563 2.30647 -0.0841519 0
M  V30 3579 C 331.533 1.48869 0.7367 0
M  V30 3580 O 332.718 1.77574 0.698015 0
M  V30 3581 C 329.858 3.35165 0.822091 0
M  V30 3582 C 328.971 4.31999 -0.0106663 0
M  V30 3583 C 328.106 5.23585 0.896241 0
M  V30 3584 C 327.145 6.12072 0.0583381 0
M  V30 3585 N 326.282 6.96035 0.920818 0
M  V30 3586 H 331.122 2.85173 -0.864891 0
M  V30 3587 H 328.659 1.40422 -0.438179 0
M  V30 3588 H 330.617 3.94345 1.36189 0
M  V30 3589 H 329.247 2.8211 1.56888 0
M  V30 3590 H 328.299 3.74492 -0.66781 0
M  V30 3591 H 329.611 4.9443 -0.658825 0
M  V30 3592 H 328.765 5.87759 1.50412 0
M  V30 3593 H 327.504 4.61459 1.57819 0
M  V30 3594 H 326.509 5.46916 -0.562389 0
M  V30 3595 H 327.734 6.76261 -0.6203 0
M  V30 3596 H 325.68 6.36485 1.58818 0
M  V30 3597 H 325.597 7.55284 0.32899 0
M  V30 3598 H 326.865 7.64646 1.51447 0
M  V30 3599 N 331.094 0.475555 1.50254 0
M  V30 3600 C 332.041 -0.316293 2.28622 0
M  V30 3601 C 333.011 -0.983227 1.33873 0
M  V30 3602 O 334.196 -0.994805 1.62814 0
M  V30 3603 C 331.336 -1.38975 3.1588 0
M  V30 3604 C 330.449 -0.737146 4.25664 0
M  V30 3605 C 329.584 -1.78887 5.00173 0
M  V30 3606 C 328.623 -1.11676 6.01826 0
M  V30 3607 N 327.76 -2.11154 6.69596 0
M  V30 3608 H 332.6 0.358297 2.95838 0
M  V30 3609 H 330.137 0.188541 1.45887 0
M  V30 3610 H 332.095 -2.02383 3.64825 0
M  V30 3611 H 330.725 -2.03344 2.50701 0
M  V30 3612 H 329.777 0.0096065 3.80399 0
M  V30 3613 H 331.089 -0.206816 4.98371 0
M  V30 3614 H 330.243 -2.49865 5.52859 0
M  V30 3615 H 328.982 -2.35302 4.27182 0
M  V30 3616 H 327.987 -0.392633 5.48396 0
M  V30 3617 H 329.212 -0.55945 6.76792 0
M  V30 3618 H 327.158 -2.66577 5.99394 0
M  V30 3619 H 327.075 -1.63118 7.38193 0
M  V30 3620 H 328.343 -2.81497 7.26897 0
M  V30 3621 N 332.573 -1.56217 0.208337 0
M  V30 3622 C 333.819 -1.98242 -0.427552 0
M  V30 3623 C 334.152 -1.09554 -1.60348 0
M  V30 3624 O 333.427 -0.15035 -1.93918 0
M  V30 3625 C 333.71 -3.4931 -0.874907 0
M  V30 3626 C 333.563 -4.48773 0.303751 0
M  V30 3627 C 334.882 -4.04424 -1.73577 0
M  V30 3628 H 332.001 -0.720744 -0.153936 0
M  V30 3629 H 334.643 -1.87586 0.30192 0
M  V30 3630 H 332.793 -3.58522 -1.49648 0
M  V30 3631 H 334.465 -4.51586 0.941682 0
M  V30 3632 H 332.708 -4.23194 0.953375 0
M  V30 3633 H 333.379 -5.51976 -0.0519883 0
M  V30 3634 H 335.855 -3.98075 -1.21143 0
M  V30 3635 H 334.731 -5.1047 -2.01771 0
M  V30 3636 H 334.992 -3.50494 -2.69456 0
M  V30 3637 N 334.051 0.0651679 -1.57465 0
M  V30 3638 C 334.981 1.07693 -2.07182 0
M  V30 3639 C 335.962 1.39962 -0.966673 0
M  V30 3640 O 337.147 1.49475 -1.2398 0
M  V30 3641 C 334.277 2.3885 -2.52127 0
M  V30 3642 C 333.231 2.20917 -3.66579 0
M  V30 3643 C 332.557 3.57515 -3.97601 0
M  V30 3644 C 333.857 1.62493 -4.9638 0
M  V30 3645 H 335.551 0.663199 -2.91962 0
M  V30 3646 H 333.097 0.317569 -1.40455 0
M  V30 3647 H 335.05 3.09928 -2.85522 0
M  V30 3648 H 333.774 2.82215 -1.64384 0
M  V30 3649 H 332.433 1.52279 -3.33477 0
M  V30 3650 H 332.081 3.98463 -3.06979 0
M  V30 3651 H 331.781 3.46353 -4.74672 0
M  V30 3652 H 333.305 4.30013 -4.33499 0
M  V30 3653 H 334.719 2.23445 -5.27963 0
M  V30 3654 H 333.116 1.62009 -5.77818 0
M  V30 3655 H 334.186 0.587041 -4.81333 0
M  V30 3656 N 335.529 1.53961 0.336706 0
M  V30 3657 C 336.778 1.70751 1.07363 0
M  V30 3658 C 337.091 0.481061 1.89592 0
M  V30 3659 O 338.297 0.530046 2.66276 0
M  V30 3660 C 336.753 3.01965 1.95818 0
M  V30 3661 C 336.361 4.31971 1.18764 0
M  V30 3662 C 338.105 3.28121 2.69327 0
M  V30 3663 C 336.012 5.54255 2.06289 0
M  V30 3664 H 334.942 0.636292 0.404535 0
M  V30 3665 H 337.593 1.80459 0.332681 0
M  V30 3666 H 335.975 2.86132 2.7376 0
M  V30 3667 H 337.149 4.5853 0.456849 0
M  V30 3668 H 335.464 4.12481 0.569946 0
M  V30 3669 H 338.061 4.16673 3.35094 0
M  V30 3670 H 338.404 2.45426 3.36261 0
M  V30 3671 H 338.937 3.44762 1.98454 0
M  V30 3672 H 335.676 6.39513 1.43885 0
M  V30 3673 H 335.196 5.31935 2.77138 0
M  V30 3674 H 336.875 5.90159 2.65182 0
M  V30 3675 N 337.007 -0.598083 1.45811 0
M  V30 3676 C 337.917 -1.73632 1.57763 0
M  V30 3677 C 338.933 -1.67763 0.461676 0
M  V30 3678 O 340.109 -1.87949 0.723685 0
M  V30 3679 C 337.174 -3.10114 1.55018 0
M  V30 3680 C 336.235 -3.27364 2.77726 0
M  V30 3681 C 335.468 -4.57334 2.75102 0
M  V30 3682 O 335.691 -5.40258 1.8297 0
M  V30 3683 O 334.625 -4.77502 3.66437 0
M  V30 3684 H 338.451 -1.66498 2.53992 0
M  V30 3685 H 336.036 -0.763308 1.28429 0
M  V30 3686 H 337.918 -3.9141 1.56129 0
M  V30 3687 H 336.593 -3.17718 0.619431 0
M  V30 3688 H 335.5 -2.45619 2.82174 0
M  V30 3689 H 336.833 -3.24641 3.69958 0
M  V30 3690 N 338.485 -1.33259 -0.841409 0
M  V30 3691 C 339.733 -1.24326 -1.59334 0
M  V30 3692 C 340.054 0.191564 -1.94057 0
M  V30 3693 O 339.324 1.11967 -1.60749 0
M  V30 3694 H 337.904 -0.457174 -0.590763 0
M  V30 3695 H 340.566 -1.66947 -1.00571 0
M  V30 3696 H 339.662 -1.8352 -2.52442 0
M  V30 3697 N 339.963 1.05934 -1.16686 0
M  V30 3698 C 340.926 2.11669 -0.879144 0
M  V30 3699 C 341.926 1.60294 0.127445 0
M  V30 3700 O 343.116 1.7389 -0.103865 0
M  V30 3701 C 340.248 3.39438 -0.315425 0
M  V30 3702 H 341.441 2.38626 -1.81653 0
M  V30 3703 H 338.994 1.22058 -0.976299 0
M  V30 3704 H 339.729 3.18132 0.629468 0
M  V30 3705 H 339.514 3.78034 -1.04079 0
M  V30 3706 H 341.004 4.17391 -0.132189 0
M  V30 3707 N 341.441 0.965919 1.2453 0
M  V30 3708 C 342.389 0.486506 2.27455 0
M  V30 3709 C 343.383 -0.449041 1.6334 0
M  V30 3710 O 344.589 -0.324527 1.7705 0
M  V30 3711 H 340.964 0.138857 0.739069 0
M  V30 3712 H 342.935 1.3666 2.65267 0
M  V30 3713 C 341.684 -0.209481 3.47068 0
M  V30 3714 H 341.007 0.50129 3.96645 0
M  V30 3715 H 342.447 -0.508775 4.20936 0
M  V30 3716 C 340.906 -1.43586 3.0477 0
M  V30 3717 O 341.436 -2.53299 3.11773 0
M  V30 3718 N 339.642 -1.30126 2.59838 0
M  V30 3719 H 339.189 -0.408583 2.54339 0
M  V30 3720 H 339.147 -2.12294 2.31902 0
M  V30 3721 N 342.919 -1.39368 0.735821 0
M  V30 3722 C 343.882 -2.2896 0.104874 0
M  V30 3723 C 344.882 -1.46347 -0.666274 0
M  V30 3724 O 346.072 -1.67014 -0.49517 0
M  V30 3725 C 343.204 -3.29857 -0.860656 0
M  V30 3726 H 344.397 -2.86259 0.894205 0
M  V30 3727 H 341.95 -1.48029 0.501704 0
M  V30 3728 H 342.685 -2.77615 -1.67631 0
M  V30 3729 H 342.47 -3.9087 -0.310327 0
M  V30 3730 H 343.96 -3.96893 -1.29867 0
M  V30 3731 N 344.397 -0.483516 -1.5 0
M  V30 3732 C 345.36 0.292965 -2.2732 0
M  V30 3733 C 346.36 0.909499 -1.32608 0
M  V30 3734 O 347.55 0.776745 -1.55924 0
M  V30 3735 C 344.682 1.41854 -3.09984 0
M  V30 3736 H 345.875 -0.385289 -2.97415 0
M  V30 3737 H 343.428 -0.237942 -1.54478 0
M  V30 3738 H 344.163 2.13148 -2.44414 0
M  V30 3739 H 343.948 0.982114 -3.79601 0
M  V30 3740 H 345.438 1.96597 -3.68429 0
M  V30 3741 N 345.875 1.56104 -0.216619 0
M  V30 3742 C 346.808 2.16026 0.735395 0
M  V30 3743 C 347.786 1.1032 1.1945 0
M  V30 3744 O 348.97 1.38549 1.27814 0
M  V30 3745 C 346.097 2.73656 1.99575 0
M  V30 3746 C 345.143 3.92146 1.67702 0
M  V30 3747 S 345.976 5.29397 0.806145 0
M  V30 3748 C 347.132 5.90463 2.07617 0
M  V30 3749 H 347.365 2.96439 0.226072 0
M  V30 3750 H 344.898 1.544 -0.00136639 0
M  V30 3751 H 346.856 3.075 2.71945 0
M  V30 3752 H 345.517 1.93245 2.47619 0
M  V30 3753 H 344.71 4.30954 2.61332 0
M  V30 3754 H 344.312 3.59423 1.03398 0
M  V30 3755 H 346.604 6.06136 3.02664 0
M  V30 3756 H 347.547 6.86589 1.73207 0
M  V30 3757 H 347.955 5.19252 2.21445 0
M  V30 3758 N 347.353 -0.0568162 1.57498 0
M  V30 3759 C 348.283 -1.06593 2.0775 0
M  V30 3760 C 349.264 -1.39448 0.974082 0
M  V30 3761 O 350.449 -1.48815 1.24771 0
M  V30 3762 C 347.579 -2.37509 2.5339 0
M  V30 3763 C 346.533 -2.1897 3.67745 0
M  V30 3764 C 345.859 -3.55402 3.99492 0
M  V30 3765 C 347.159 -1.59859 4.97235 0
M  V30 3766 H 348.853 -0.647706 2.9231 0
M  V30 3767 H 346.399 -0.310116 1.40621 0
M  V30 3768 H 348.352 -3.08409 2.87162 0
M  V30 3769 H 347.076 -2.8134 1.65878 0
M  V30 3770 H 345.735 -1.50508 3.3428 0
M  V30 3771 H 345.383 -3.9683 3.09088 0
M  V30 3772 H 345.083 -3.43831 4.76502 0
M  V30 3773 H 346.607 -4.27708 4.35773 0
M  V30 3774 H 348.021 -2.20642 5.29141 0
M  V30 3775 H 346.418 -1.58942 5.78669 0
M  V30 3776 H 347.488 -0.561506 4.81638 0
M  V30 3777 N 348.832 -1.54138 -0.328536 0
M  V30 3778 C 350.109 -1.62749 -1.08499 0
M  V30 3779 C 350.489 -0.458198 -2.06067 0
M  V30 3780 O 349.837 0.548046 -2.2183 0
M  V30 3781 C 350.047 -2.99519 -1.79135 0
M  V30 3782 C 351.395 -3.55394 -2.32337 0
M  V30 3783 O 352.419 -3.01792 -1.89209 0
M  V30 3784 O 351.278 -4.49186 -3.11279 0
M  V30 3785 H 348.372 -0.65886 -0.499832 0
M  V30 3786 H 350.918 -1.66484 -0.328826 0
M  V30 3787 H 349.69 -3.76061 -1.08139 0
M  V30 3788 H 349.313 -2.99441 -2.61574 0
M  V30 3789 N 350.31 0.590341 -1.46126 0
M  V30 3790 C 351.559 1.34499 -1.50309 0
M  V30 3791 C 351.872 1.94977 -0.156021 0
M  V30 3792 O 353.078 2.71395 -0.0756037 0
M  V30 3793 C 351.534 2.43723 -2.64815 0
M  V30 3794 C 351.142 1.89582 -4.0591 0
M  V30 3795 C 352.886 3.20579 -2.78262 0
M  V30 3796 C 350.793 2.9639 -5.11769 0
M  V30 3797 H 349.723 0.505593 -0.559368 0
M  V30 3798 H 352.374 0.630848 -1.72315 0
M  V30 3799 H 350.756 3.17902 -2.36124 0
M  V30 3800 H 351.93 1.21997 -4.44357 0
M  V30 3801 H 350.245 1.25418 -3.97063 0
M  V30 3802 H 352.842 4.00276 -3.54519 0
M  V30 3803 H 353.185 3.72684 -1.85505 0
M  V30 3804 H 353.718 2.53505 -3.06562 0
M  V30 3805 H 350.457 2.49181 -6.06291 0
M  V30 3806 H 349.977 3.62487 -4.77873 0
M  V30 3807 H 351.656 3.60474 -5.37278 0
M  V30 3808 N 351.788 1.33704 0.83433 0
M  V30 3809 C 353.065 1.16011 1.57483 0
M  V30 3810 C 353.445 -0.27176 2.09343 0
M  V30 3811 O 352.793 -1.27146 1.89858 0
M  V30 3812 C 353.003 2.20507 2.70514 0
M  V30 3813 C 354.351 2.54898 3.39577 0
M  V30 3814 O 355.375 2.19209 2.80759 0
M  V30 3815 O 354.234 3.16158 4.45765 0
M  V30 3816 H 351.328 0.448992 0.694503 0
M  V30 3817 H 353.874 1.453 0.876691 0
M  V30 3818 H 352.646 3.16667 2.29865 0
M  V30 3819 H 352.269 1.92329 3.47987 0
M  V30 3820 N 353.266 -1.05314 1.17247 0
M  V30 3821 C 354.513 -1.78293 0.960091 0
M  V30 3822 C 354.841 -1.87658 -0.51136 0
M  V30 3823 O 354.096 -1.3718 -1.39571 0
M  V30 3824 C 354.395 -3.2229 1.54479 0
M  V30 3825 C 354.061 -3.32987 3.04024 0
M  V30 3826 C 352.723 -3.35613 3.44844 0
M  V30 3827 C 355.075 -3.34102 4.00031 0
M  V30 3828 C 352.403 -3.36982 4.8027 0
M  V30 3829 C 354.755 -3.3701 5.35357 0
M  V30 3830 C 353.419 -3.37923 5.75642 0
M  V30 3831 H 352.689 -0.652422 0.351322 0
M  V30 3832 H 355.336 -1.23782 1.46117 0
M  V30 3833 H 353.641 -3.7972 0.965391 0
M  V30 3834 H 355.338 -3.77376 1.35603 0
M  V30 3835 H 351.928 -3.31655 2.71483 0
M  V30 3836 H 356.112 -3.31276 3.69554 0
M  V30 3837 H 351.368 -3.35999 5.10798 0
M  V30 3838 H 355.542 -3.36822 6.09528 0
M  V30 3839 H 353.169 -3.38738 6.80559 0
M  V30 3840 N 354.744 -0.972509 -1.24016 0
M  V30 3841 C 355.992 -0.635776 -1.91839 0
M  V30 3842 C 356.313 0.832312 -1.76345 0
M  V30 3843 O 355.583 1.5946 -1.13795 0
M  V30 3844 H 354.163 -0.232157 -0.710009 0
M  V30 3845 H 356.825 -1.23462 -1.50809 0
M  V30 3846 H 355.921 -0.880545 -2.99421 0
M  V30 3847 N 356.222 1.38976 -0.743202 0
M  V30 3848 C 357.45 2.04636 -0.30525 0
M  V30 3849 C 357.865 1.56044 1.06281 0
M  V30 3850 O 357.222 0.728921 1.67311 0
M  V30 3851 C 357.273 3.60193 -0.307177 0
M  V30 3852 O 356.994 4.06998 -1.62124 0
M  V30 3853 C 358.495 4.4306 0.145928 0
M  V30 3854 H 355.715 0.65788 -0.132041 0
M  V30 3855 H 358.259 1.77866 -1.00915 0
M  V30 3856 H 356.414 3.85835 0.347898 0
M  V30 3857 H 356.828 5.01371 -1.54036 0
M  V30 3858 H 358.302 5.51921 0.0934183 0
M  V30 3859 H 358.779 4.22706 1.19231 0
M  V30 3860 H 359.385 4.22584 -0.479886 0
M  V30 3861 N 357.7 0.491464 1.49741 0
M  V30 3862 C 358.93 -0.0534375 2.06531 0
M  V30 3863 C 359.338 -1.32233 1.35318 0
M  V30 3864 O 358.681 -1.78781 0.422243 0
M  V30 3865 C 358.743 -0.387034 3.57411 0
M  V30 3866 C 358.407 0.782764 4.50246 0
M  V30 3867 C 359.404 1.67059 4.92329 0
M  V30 3868 C 357.089 0.978866 4.9267 0
M  V30 3869 C 359.083 2.73874 5.75562 0
M  V30 3870 C 356.77 2.05022 5.75682 0
M  V30 3871 C 357.768 2.92851 6.17031 0
M  V30 3872 O 357.456 3.98138 6.98385 0
M  V30 3873 H 357.188 0.0129324 0.675876 0
M  V30 3874 H 359.742 0.685238 1.93633 0
M  V30 3875 H 357.972 -1.17918 3.68283 0
M  V30 3876 H 359.661 -0.869419 3.96479 0
M  V30 3877 H 360.427 1.53086 4.60206 0
M  V30 3878 H 356.306 0.304646 4.59992 0
M  V30 3879 H 359.85 3.42458 6.07757 0
M  V30 3880 H 355.747 2.18993 6.07217 0
M  V30 3881 H 356.515 3.95374 7.16674 0
M  V30 3882 N 359.178 -1.55987 0.224894 0
M  V30 3883 C 360.589 -1.84553 -0.282345 0
M  V30 3884 C 360.94 -1.14634 -1.59227 0
M  V30 3885 O 360.065 -0.417155 -2.12341 0
M  V30 3886 C 360.66 -3.348 -0.519062 0
M  V30 3887 C 359.219 -3.63671 -0.970604 0
M  V30 3888 C 358.366 -2.77277 -0.0355261 0
M  V30 3889 H 361.317 -1.52245 0.448006 0
M  V30 3890 H 361.338 -3.55187 -1.36463 0
M  V30 3891 H 360.85 -3.8566 0.43449 0
M  V30 3892 H 358.951 -3.1827 -1.9374 0
M  V30 3893 H 359.064 -4.71631 -0.842698 0
M  V30 3894 H 357.428 -2.48846 -0.542927 0
M  V30 3895 H 358.211 -3.30937 0.913003 0
M  V30 3896 N 360.656 0.0484629 -1.57525 0
M  V30 3897 C 361.886 0.754326 -1.92337 0
M  V30 3898 C 362.294 1.70443 -0.82132 0
M  V30 3899 O 361.637 1.82466 0.21254 0
M  V30 3900 C 361.699 1.58231 -3.22805 0
M  V30 3901 C 361.363 0.799074 -4.4996 0
M  V30 3902 C 362.36 0.1079 -5.19788 0
M  V30 3903 C 360.045 0.759345 -4.96527 0
M  V30 3904 C 362.039 -0.612516 -6.3445 0
M  V30 3905 C 359.726 0.0351713 -6.1109 0
M  V30 3906 C 360.724 -0.649537 -6.79904 0
M  V30 3907 O 360.412 -1.36199 -7.92278 0
M  V30 3908 H 360.144 0.218257 -0.639797 0
M  V30 3909 H 362.698 0.0159295 -2.05394 0
M  V30 3910 H 360.928 2.36406 -3.06021 0
M  V30 3911 H 362.617 2.16898 -3.43089 0
M  V30 3912 H 363.383 0.129748 -4.84826 0
M  V30 3913 H 359.262 1.28177 -4.42822 0
M  V30 3914 H 362.806 -1.14751 -6.88097 0
M  V30 3915 H 358.703 0.0113314 -6.45499 0
M  V30 3916 H 359.471 -1.27366 -8.0853 0
M  V30 3917 N 362.134 1.5431 0.320358 0
M  V30 3918 C 363.38 1.72924 1.05949 0
M  V30 3919 C 363.713 0.503185 1.87568 0
M  V30 3920 O 362.988 -0.499839 1.87968 0
M  V30 3921 C 363.271 3.00676 1.98156 0
M  V30 3922 C 363.124 4.3354 1.19845 0
M  V30 3923 C 364.443 3.24198 2.9763 0
M  V30 3924 H 361.562 0.629195 0.383774 0
M  V30 3925 H 364.204 1.87008 0.335854 0
M  V30 3926 H 362.354 2.888 2.59859 0
M  V30 3927 H 364.026 4.57305 0.605773 0
M  V30 3928 H 362.269 4.309 0.500784 0
M  V30 3929 H 362.94 5.19156 1.87567 0
M  V30 3930 H 365.416 3.35557 2.4605 0
M  V30 3931 H 364.292 4.14938 3.59329 0
M  V30 3932 H 364.553 2.41577 3.7026 0
M  V30 3933 N 363.613 -0.582584 1.46437 0
M  V30 3934 C 364.841 -1.36682 1.55324 0
M  V30 3935 C 365.256 -1.87796 0.194409 0
M  V30 3936 O 364.613 -1.63623 -0.808318 0
M  V30 3937 C 364.664 -2.55426 2.55812 0
M  V30 3938 O 364.385 -2.0643 3.86417 0
M  V30 3939 C 365.886 -3.47976 2.74641 0
M  V30 3940 H 363.106 -0.417545 0.525259 0
M  V30 3941 H 365.65 -0.708219 1.91845 0
M  V30 3942 H 363.805 -3.17275 2.22295 0
M  V30 3943 H 364.219 -2.83762 4.41111 0
M  V30 3944 H 365.693 -4.27775 3.48874 0
M  V30 3945 H 366.17 -3.99919 1.81553 0
M  V30 3946 H 366.776 -2.91962 3.09255 0
M  V30 3947 N 365.091 -1.34144 -0.827227 0
M  V30 3948 C 366.316 -1.29476 -1.62021 0
M  V30 3949 C 366.741 0.129292 -1.87655 0
M  V30 3950 O 366.099 1.08967 -1.449 0
M  V30 3951 C 366.147 -2.08702 -2.94068 0
M  V30 3952 O 365.251 -1.45359 -3.85933 0
M  V30 3953 H 364.592 -0.444881 -0.492927 0
M  V30 3954 H 367.122 -1.76882 -1.02829 0
M  V30 3955 H 367.132 -2.19898 -3.43669 0
M  V30 3956 H 365.807 -3.12241 -2.74734 0
M  V30 3957 H 364.384 -1.42879 -3.44442 0
M  V30 3958 N 366.569 1.04691 -1.17803 0
M  V30 3959 C 367.794 1.81984 -0.994813 0
M  V30 3960 C 368.219 1.82586 0.452112 0
M  V30 3961 O 367.577 1.23854 1.324 0
M  V30 3962 C 367.625 3.2575 -1.54659 0
M  V30 3963 O 366.729 4.05267 -0.763728 0
M  V30 3964 H 366.07 0.562483 -0.352857 0
M  V30 3965 H 368.6 1.3189 -1.56417 0
M  V30 3966 H 368.61 3.76541 -1.57102 0
M  V30 3967 H 367.285 3.24627 -2.59981 0
M  V30 3968 H 365.862 3.63972 -0.811108 0
M  V30 3969 N 368.047 0.979072 1.23499 0
M  V30 3970 C 369.287 0.655228 1.93613 0
M  V30 3971 C 369.651 -0.796336 1.74707 0
M  V30 3972 O 370.852 -1.23094 2.38959 0
M  V30 3973 C 369.123 1.03337 3.42135 0
M  V30 3974 S 370.682 0.825793 4.3096 0
M  V30 3975 H 367.5 0.240004 0.669267 0
M  V30 3976 H 370.102 1.25843 1.49612 0
M  V30 3977 H 368.806 2.08646 3.53405 0
M  V30 3978 H 368.337 0.421397 3.91137 0
M  V30 3979 H 370.352 -0.290991 4.95346 0
M  V30 3980 N 369.525 -1.3858 0.750561 0
M  V30 3981 C 370.753 -2.04471 0.316098 0
M  V30 3982 C 371.168 -1.56606 -1.05452 0
M  V30 3983 O 370.525 -0.737784 -1.66922 0
M  V30 3984 C 370.576 -3.60025 0.326275 0
M  V30 3985 O 370.297 -4.06133 1.6428 0
M  V30 3986 C 371.798 -4.43131 -0.122429 0
M  V30 3987 H 369.018 -0.65717 0.135528 0
M  V30 3988 H 371.562 -1.77329 1.01857 0
M  V30 3989 H 369.717 -3.86014 -0.327431 0
M  V30 3990 H 370.131 -5.00547 1.56693 0
M  V30 3991 H 371.605 -5.51963 -0.0641473 0
M  V30 3992 H 372.082 -4.23333 -1.16988 0
M  V30 3993 H 372.688 -4.22323 0.50229 0
M  V30 3994 N 371.003 -0.499398 -1.49478 0
M  V30 3995 C 372.231 0.0425456 -2.06856 0
M  V30 3996 C 372.646 1.30964 -1.35992 0
M  V30 3997 O 372.003 1.77172 -0.437762 0
M  V30 3998 C 372.054 0.301735 -3.60239 0
M  V30 3999 O 371.775 -0.915127 -4.28436 0
M  V30 4000 C 373.276 0.887499 -4.34325 0
M  V30 4001 H 370.496 -0.0197482 -0.670709 0
M  V30 4002 H 373.04 -0.696297 -1.92281 0
M  V30 4003 H 371.195 0.990556 -3.74522 0
M  V30 4004 H 371.609 -0.676993 -5.20113 0
M  V30 4005 H 373.083 1.01845 -5.42523 0
M  V30 4006 H 373.56 1.88488 -3.96698 0
M  V30 4007 H 374.166 0.236196 -4.24644 0
M  V30 4008 N 372.481 1.55866 -0.233164 0
M  V30 4009 C 373.727 1.98897 0.395959 0
M  V30 4010 C 374.06 1.12091 1.58585 0
M  V30 4011 O 373.335 0.181182 1.93654 0
M  V30 4012 C 373.618 3.50658 0.819224 0
M  V30 4013 C 373.471 4.48233 -0.375109 0
M  V30 4014 C 374.79 4.07135 1.67121 0
M  V30 4015 H 371.909 0.723102 0.142451 0
M  V30 4016 H 374.551 1.87082 -0.331725 0
M  V30 4017 H 372.701 3.60857 1.43925 0
M  V30 4018 H 374.373 4.50031 -1.01341 0
M  V30 4019 H 372.616 4.21624 -1.02058 0
M  V30 4020 H 373.287 5.51988 -0.0358328 0
M  V30 4021 H 375.763 3.99952 1.14795 0
M  V30 4022 H 374.639 5.13615 1.93625 0
M  V30 4023 H 374.9 3.54736 2.63846 0
M  V30 4024 N 373.959 -0.0401083 1.57549 0
M  V30 4025 C 375.207 -0.731677 1.8839 0
M  V30 4026 C 375.528 -1.76481 0.829425 0
M  V30 4027 O 374.798 -1.95411 -0.1383 0
M  V30 4028 H 373.378 -0.273225 0.695239 0
M  V30 4029 H 376.04 -0.00867725 1.94898 0
M  V30 4030 H 375.136 -1.22816 2.86919 0
M  V30 4031 N 375.437 -1.54477 -0.31217 0
M  V30 4032 C 376.685 -1.72884 -1.04668 0
M  V30 4033 C 377.006 -0.511477 -1.88173 0
M  V30 4034 O 376.276 0.474407 -1.90069 0
M  V30 4035 H 374.856 -0.637461 -0.389425 0
M  V30 4036 H 377.518 -1.91807 -0.345852 0
M  V30 4037 H 376.614 -2.61334 -1.70619 0
M  V30 4038 N 376.915 0.57481 -1.46744 0
M  V30 4039 C 378.161 1.3347 -1.52688 0
M  V30 4040 C 378.494 1.93353 -0.181229 0
M  V30 4041 O 377.769 1.76912 0.808237 0
M  V30 4042 C 378.052 2.45811 -2.63152 0
M  V30 4043 C 377.905 1.90912 -4.07275 0
M  V30 4044 C 379.224 3.47822 -2.69644 0
M  V30 4045 H 376.343 0.483935 -0.555856 0
M  V30 4046 H 378.985 0.644968 -1.78718 0
M  V30 4047 H 377.135 3.04646 -2.41088 0
M  V30 4048 H 378.807 1.36473 -4.4065 0
M  V30 4049 H 377.05 1.21691 -4.16382 0
M  V30 4050 H 377.721 2.72042 -4.80309 0
M  V30 4051 H 380.197 2.9888 -2.895 0
M  V30 4052 H 379.073 4.23876 -3.48742 0
M  V30 4053 H 379.334 4.05555 -1.76005 0
M  V30 4054 N 378.394 1.34581 0.820102 0
M  V30 4055 C 379.641 1.27096 1.57648 0
M  V30 4056 C 379.969 -0.158317 1.93855 0
M  V30 4057 O 379.224 -1.12028 1.60463 0
M  V30 4058 C 379.523 2.10997 2.8847 0
M  V30 4059 C 379.189 3.59966 2.71543 0
M  V30 4060 C 377.851 4.00575 2.66634 0
M  V30 4061 C 380.203 4.54548 2.55021 0
M  V30 4062 C 377.531 5.33953 2.43128 0
M  V30 4063 C 379.883 5.88109 2.33047 0
M  V30 4064 C 378.547 6.27878 2.26552 0
M  V30 4065 H 377.817 0.465078 0.576874 0
M  V30 4066 H 380.464 1.6635 0.948671 0
M  V30 4067 H 378.769 1.6458 3.55557 0
M  V30 4068 H 380.466 2.0255 3.46084 0
M  V30 4069 H 377.056 3.27733 2.76205 0
M  V30 4070 H 381.24 4.24069 2.57835 0
M  V30 4071 H 376.496 5.63781 2.3656 0
M  V30 4072 H 380.67 6.60985 2.19251 0
M  V30 4073 H 378.297 7.31162 2.081 0
M  V30 4074 N 379.872 -1.04064 1.18357 0
M  V30 4075 C 381.097 -1.81454 1.00445 0
M  V30 4076 C 381.522 -1.82823 -0.442423 0
M  V30 4077 O 380.88 -1.24555 -1.31741 0
M  V30 4078 C 380.928 -3.24925 1.56384 0
M  V30 4079 O 380.032 -4.04856 0.785209 0
M  V30 4080 H 379.373 -0.560604 0.355835 0
M  V30 4081 H 381.903 -1.31059 1.57114 0
M  V30 4082 H 381.913 -3.75702 1.59097 0
M  V30 4083 H 380.588 -3.23244 2.61699 0
M  V30 4084 H 379.165 -3.63537 0.830399 0
M  V30 4085 N 381.35 -0.985608 -1.22978 0
M  V30 4086 C 382.598 -0.656087 -1.91154 0
M  V30 4087 C 382.919 0.813561 -1.77218 0
M  V30 4088 O 382.189 1.58244 -1.1548 0
M  V30 4089 H 380.769 -0.239674 -0.707506 0
M  V30 4090 H 383.431 -1.25054 -1.49491 0
M  V30 4091 H 382.527 -0.912253 -2.9847 0
M  V30 4092 N 382.828 1.3818 -0.7579 0
M  V30 4093 C 383.758 2.33027 -0.148597 0
M  V30 4094 C 384.739 1.55085 0.69875 0
M  V30 4095 O 385.924 1.83384 0.639053 0
M  V30 4096 C 383.054 3.3928 0.742034 0
M  V30 4097 C 382.008 4.28 -0.00291946 0
M  V30 4098 C 381.334 5.25146 1.00625 0
M  V30 4099 C 382.634 5.08938 -1.17385 0
M  V30 4100 H 384.328 2.84231 -0.940909 0
M  V30 4101 H 381.874 1.36659 -0.453908 0
M  V30 4102 H 383.827 4.046 1.17799 0
M  V30 4103 H 382.551 2.86569 1.56671 0
M  V30 4104 H 381.21 3.64192 -0.419504 0
M  V30 4105 H 380.858 4.68721 1.8251 0
M  V30 4106 H 380.558 5.85361 0.512428 0
M  V30 4107 H 382.082 5.93342 1.44143 0
M  V30 4108 H 383.496 5.67474 -0.815224 0
M  V30 4109 H 381.893 5.7841 -1.59882 0
M  V30 4110 H 382.963 4.42424 -1.98468 0
M  V30 4111 N 384.306 0.507319 1.49211 0
M  V30 4112 C 385.554 -0.0348839 2.0207 0
M  V30 4113 C 385.875 -1.36898 1.38866 0
M  V30 4114 O 385.145 -1.88133 0.546151 0
M  V30 4115 H 383.725 -0.0158812 0.746831 0
M  V30 4116 H 386.387 0.665998 1.83168 0
M  V30 4117 H 385.483 -0.159917 3.1169 0
M  V30 4118 N 385.784 -1.5574 0.241426 0
M  V30 4119 C 387.033 -1.97986 -0.385295 0
M  V30 4120 C 387.346 -1.13267 -1.59468 0
M  V30 4121 O 388.552 -1.45501 -2.2922 0
M  V30 4122 C 387.008 -3.52275 -0.736884 0
M  V30 4123 C 386.616 -4.45726 0.450796 0
M  V30 4124 C 388.36 -4.03189 -1.3281 0
M  V30 4125 C 386.267 -5.91352 0.0756662 0
M  V30 4126 H 385.197 -0.739386 -0.147731 0
M  V30 4127 H 387.848 -1.80308 0.340779 0
M  V30 4128 H 386.23 -3.65628 -1.52094 0
M  V30 4129 H 387.404 -4.44131 1.22819 0
M  V30 4130 H 385.719 -4.05264 0.956573 0
M  V30 4131 H 388.316 -5.09505 -1.62201 0
M  V30 4132 H 388.659 -3.50212 -2.25071 0
M  V30 4133 H 389.192 -3.93141 -0.607069 0
M  V30 4134 H 385.931 -6.48354 0.965272 0
M  V30 4135 H 385.451 -5.96095 -0.665635 0
M  V30 4136 H 387.13 -6.46084 -0.344075 0
M  V30 4137 N 387.262 0.0317525 -1.57568 0
M  V30 4138 C 388.212 1.04101 -2.02847 0
M  V30 4139 C 389.196 1.3219 -0.917317 0
M  V30 4140 O 390.388 1.31819 -1.18121 0
M  V30 4141 C 387.517 2.34295 -2.5092 0
M  V30 4142 C 386.603 2.09308 -3.68851 0
M  V30 4143 N 386.994 1.5437 -4.81667 0
M  V30 4144 C 385.292 2.39604 -3.76172 0
M  V30 4145 C 385.993 1.45126 -5.63306 0
M  V30 4146 N 384.969 1.92589 -5.08341 0
M  V30 4147 H 388.771 0.610217 -2.87495 0
M  V30 4148 H 386.285 0.238108 -1.60645 0
M  V30 4149 H 388.282 3.07404 -2.81617 0
M  V30 4150 H 386.942 2.78055 -1.67677 0
M  V30 4151 H 387.953 1.22678 -5.03161 0
M  V30 4152 H 384.63 2.86457 -3.03724 0
M  V30 4153 H 386.02 1.03163 -6.63933 0
M  V30 4154 N 388.74 1.54641 0.303973 0
M  V30 4155 C 389.69 1.8177 1.37636 0
M  V30 4156 C 390.674 0.674697 1.46071 0
M  V30 4157 O 391.866 0.935251 1.50273 0
M  V30 4158 C 388.995 2.06584 2.74186 0
M  V30 4159 C 388.081 3.2706 2.69986 0
M  V30 4160 N 388.472 4.47682 2.35402 0
M  V30 4161 C 386.77 3.29028 3.01092 0
M  V30 4162 C 387.471 5.29689 2.40426 0
M  V30 4163 N 386.447 4.67339 2.7766 0
M  V30 4164 H 390.249 2.72596 1.09857 0
M  V30 4165 H 387.763 1.541 0.51254 0
M  V30 4166 H 389.76 2.24166 3.51504 0
M  V30 4167 H 388.42 1.17024 3.02879 0
M  V30 4168 H 389.431 4.74336 2.07908 0
M  V30 4169 H 386.108 2.49565 3.34699 0
M  V30 4170 H 387.498 6.3606 2.16512 0
M  V30 4171 N 390.218 -0.567019 1.47046 0
M  V30 4172 C 391.165 -1.67489 1.58796 0
M  V30 4173 C 392.135 -1.60399 0.43144 0
M  V30 4174 O 393.32 -1.79378 0.650233 0
M  V30 4175 C 390.46 -3.05821 1.59899 0
M  V30 4176 C 389.573 -3.2342 2.86397 0
M  V30 4177 C 388.708 -4.52093 2.789 0
M  V30 4178 C 387.747 -4.6309 4.00267 0
M  V30 4179 N 386.884 -5.83106 3.91064 0
M  V30 4180 H 391.724 -1.56785 2.53422 0
M  V30 4181 H 389.261 -0.763896 1.2571 0
M  V30 4182 H 391.219 -3.8591 1.58522 0
M  V30 4183 H 389.849 -3.15384 0.687929 0
M  V30 4184 H 388.901 -2.3683 2.97684 0
M  V30 4185 H 390.213 -3.27412 3.76301 0
M  V30 4186 H 389.367 -5.4043 2.75718 0
M  V30 4187 H 388.106 -4.50565 1.86662 0
M  V30 4188 H 387.111 -3.73168 4.03765 0
M  V30 4189 H 388.336 -4.66386 4.93621 0
M  V30 4190 H 386.282 -5.82546 3.01623 0
M  V30 4191 H 386.199 -5.88434 4.74638 0
M  V30 4192 H 387.467 -6.73831 3.91882 0
M  V30 4193 N 391.696 -1.35014 -0.812953 0
M  V30 4194 C 392.643 -1.27412 -1.92444 0
M  V30 4195 C 393.613 -0.14733 -1.65445 0
M  V30 4196 O 394.798 -0.329974 -1.87925 0
M  V30 4197 C 391.938 -1.04558 -3.28879 0
M  V30 4198 C 391.051 -2.26101 -3.68106 0
M  V30 4199 C 390.186 -1.96449 -4.9354 0
M  V30 4200 C 389.225 -3.14081 -5.25376 0
M  V30 4201 N 388.362 -2.84246 -6.41988 0
M  V30 4202 H 393.202 -2.22463 -1.98278 0
M  V30 4203 H 390.739 -1.10593 -0.969933 0
M  V30 4204 H 392.697 -0.893413 -4.07522 0
M  V30 4205 H 391.327 -0.131719 -3.22531 0
M  V30 4206 H 390.379 -2.52204 -2.84775 0
M  V30 4207 H 391.691 -3.13959 -3.87597 0
M  V30 4208 H 390.845 -1.78026 -5.79993 0
M  V30 4209 H 389.584 -1.05867 -4.76071 0
M  V30 4210 H 388.589 -3.33089 -4.37415 0
M  V30 4211 H 389.814 -4.05455 -5.44778 0
M  V30 4212 H 387.76 -1.96252 -6.25956 0
M  V30 4213 H 387.677 -3.65637 -6.61699 0
M  V30 4214 H 388.945 -2.6935 -7.31485 0
M  V30 4215 N 393.175 1.03435 -1.18907 0
M  V30 4216 C 394.105 2.13503 -0.945448 0
M  V30 4217 C 395.086 1.69682 0.119189 0
M  V30 4218 O 396.271 1.94169 -0.034707 0
M  V30 4219 C 393.401 3.44004 -0.477316 0
M  V30 4220 C 392.355 4.0148 -1.48316 0
M  V30 4221 C 391.681 5.27537 -0.872311 0
M  V30 4222 C 392.981 4.36921 -2.86177 0
M  V30 4223 H 394.675 2.34141 -1.86597 0
M  V30 4224 H 392.221 1.12523 -0.898584 0
M  V30 4225 H 394.174 4.20372 -0.294204 0
M  V30 4226 H 392.898 3.23072 0.478786 0
M  V30 4227 H 391.557 3.27201 -1.65332 0
M  V30 4228 H 391.205 5.02917 0.0911752 0
M  V30 4229 H 390.905 5.66954 -1.54393 0
M  V30 4230 H 392.429 6.06576 -0.699871 0
M  V30 4231 H 393.843 5.04248 -2.72776 0
M  V30 4232 H 392.24 4.87405 -3.50081 0
M  V30 4233 H 393.31 3.46466 -3.39248 0
M  V30 4234 N 394.653 0.992116 1.22453 0
M  V30 4235 C 395.601 0.534644 2.26372 0
M  V30 4236 C 396.595 -0.414293 1.64256 0
M  V30 4237 O 397.801 -0.286899 1.77699 0
M  V30 4238 H 394.176 0.154502 0.735957 0
M  V30 4239 H 396.147 1.42256 2.62309 0
M  V30 4240 C 394.896 -0.135815 3.47435 0
M  V30 4241 H 394.219 0.585311 3.95492 0
M  V30 4242 H 395.659 -0.419374 4.21921 0
M  V30 4243 C 394.118 -1.37089 3.07747 0
M  V30 4244 O 394.648 -2.46629 3.17076 0
M  V30 4245 N 392.854 -1.24585 2.62539 0
M  V30 4246 H 392.401 -0.354542 2.55149 0
M  V30 4247 H 392.359 -2.07327 2.36353 0
M  V30 4248 N 396.131 -1.37776 0.765217 0
M  V30 4249 C 397.061 -2.32945 0.160953 0
M  V30 4250 C 398.042 -1.55454 -0.690516 0
M  V30 4251 O 399.227 -1.83721 -0.629318 0
M  V30 4252 C 396.357 -3.39669 -0.724031 0
M  V30 4253 C 395.311 -4.27992 0.0256173 0
M  V30 4254 C 394.637 -5.25673 -0.978383 0
M  V30 4255 C 395.937 -5.08309 1.20082 0
M  V30 4256 H 397.631 -2.83728 0.955969 0
M  V30 4257 H 395.177 -1.36416 0.461149 0
M  V30 4258 H 397.13 -4.05219 -1.15652 0
M  V30 4259 H 395.854 -2.87396 -1.5515 0
M  V30 4260 H 394.513 -3.63964 0.438812 0
M  V30 4261 H 394.161 -4.69682 -1.80022 0
M  V30 4262 H 393.861 -5.85625 -0.481378 0
M  V30 4263 H 395.385 -5.94098 -1.40995 0
M  V30 4264 H 396.799 -5.67034 0.845307 0
M  V30 4265 H 395.196 -5.77554 1.62947 0
M  V30 4266 H 396.266 -4.41365 2.00811 0
M  V30 4267 N 397.609 -0.515225 -1.4894 0
M  V30 4268 C 398.855 0.0242508 -2.02785 0
M  V30 4269 C 399.188 1.35323 -1.39289 0
M  V30 4270 O 398.463 1.87041 -0.533469 0
M  V30 4271 C 398.746 0.16184 -3.59736 0
M  V30 4272 C 398.599 -1.19127 -4.33738 0
M  V30 4273 C 399.918 0.895719 -4.30888 0
M  V30 4274 H 397.037 0.00733914 -0.736963 0
M  V30 4275 H 399.679 -0.669395 -1.77818 0
M  V30 4276 H 397.829 0.752624 -3.8114 0
M  V30 4277 H 399.501 -1.82202 -4.23792 0
M  V30 4278 H 397.744 -1.77695 -3.95736 0
M  V30 4279 H 398.415 -1.04815 -5.41957 0
M  V30 4280 H 400.891 0.394528 -4.14225 0
M  V30 4281 H 399.767 0.960859 -5.40425 0
M  V30 4282 H 400.028 1.9427 -3.97129 0
M  V30 4283 N 399.087 1.5561 -0.249682 0
M  V30 4284 C 400.333 1.99306 0.374841 0
M  V30 4285 C 400.666 1.13767 1.57387 0
M  V30 4286 O 399.941 0.201711 1.93451 0
M  V30 4287 C 400.224 3.51507 0.781986 0
M  V30 4288 C 400.077 4.4781 -0.422629 0
M  V30 4289 C 401.396 4.08884 1.62793 0
M  V30 4290 H 398.515 0.724572 0.134773 0
M  V30 4291 H 401.157 1.86719 -0.351549 0
M  V30 4292 H 399.307 3.62363 1.4009 0
M  V30 4293 H 400.979 4.48931 -1.06108 0
M  V30 4294 H 399.222 4.20518 -1.06524 0
M  V30 4295 H 399.893 5.51919 -0.0943766 0
M  V30 4296 H 402.369 4.01147 1.10547 0
M  V30 4297 H 401.245 5.1564 1.88166 0
M  V30 4298 H 401.506 3.57515 2.60068 0
M  V30 4299 N 400.565 -0.0233959 1.57583 0
M  V30 4300 C 401.813 -0.711654 1.89156 0
M  V30 4301 C 402.134 -1.75591 0.848096 0
M  V30 4302 O 401.404 -1.95547 -0.117566 0
M  V30 4303 H 399.984 -0.265835 0.698098 0
M  V30 4304 H 402.646 0.0119948 1.94896 0
M  V30 4305 H 401.742 -1.19766 2.88206 0
M  V30 4306 N 402.043 -1.548 -0.295768 0
M  V30 4307 C 403.289 -1.74588 -1.03184 0
M  V30 4308 C 403.622 -0.532962 -1.86744 0
M  V30 4309 O 402.897 0.469872 -1.88739 0
M  V30 4310 C 403.18 -3.03791 -1.93347 0
M  V30 4311 C 403.033 -4.35392 -1.12933 0
M  V30 4312 C 404.352 -3.28892 -2.92435 0
M  V30 4313 H 401.471 -0.635221 -0.373715 0
M  V30 4314 H 404.113 -1.87519 -0.30606 0
M  V30 4315 H 402.263 -2.92898 -2.55232 0
M  V30 4316 H 403.935 -4.58211 -0.532943 0
M  V30 4317 H 402.178 -4.31642 -0.432168 0
M  V30 4318 H 402.849 -5.22074 -1.79284 0
M  V30 4319 H 405.325 -3.39429 -2.4068 0
M  V30 4320 H 404.201 -4.20603 -3.52682 0
M  V30 4321 H 404.462 -2.47437 -3.6637 0
M  V30 4322 N 403.521 0.559213 -1.47345 0
M  V30 4323 C 404.767 1.31843 -1.54095 0
M  V30 4324 C 405.1 1.93149 -0.201726 0
M  V30 4325 O 404.375 1.77759 0.789428 0
M  V30 4326 C 404.658 2.43006 -2.65744 0
M  V30 4327 C 404.511 1.86581 -4.09277 0
M  V30 4328 C 405.83 3.44943 -2.73318 0
M  V30 4329 H 402.949 0.478012 -0.560957 0
M  V30 4330 H 405.591 0.625977 -1.79392 0
M  V30 4331 H 403.741 3.02072 -2.44305 0
M  V30 4332 H 405.413 1.31792 -4.42073 0
M  V30 4333 H 403.656 1.17268 -4.17649 0
M  V30 4334 H 404.327 2.66933 -4.83168 0
M  V30 4335 H 406.803 2.95793 -2.92653 0
M  V30 4336 H 405.679 4.20153 -3.53218 0
M  V30 4337 H 405.94 4.03665 -1.80296 0
M  V30 4338 N 404.999 1.35443 0.805782 0
M  V30 4339 C 405.946 1.28431 1.91766 0
M  V30 4340 C 406.916 0.156102 1.65365 0
M  V30 4341 O 408.101 0.339936 1.87747 0
M  V30 4342 C 405.241 1.06301 3.2832 0
M  V30 4343 C 404.354 2.2805 3.66902 0
M  V30 4344 C 403.489 1.99064 4.92491 0
M  V30 4345 C 402.528 3.16863 5.23703 0
M  V30 4346 N 401.665 2.87647 6.40471 0
M  V30 4347 H 406.505 2.23511 1.97096 0
M  V30 4348 H 404.042 1.11105 0.964054 0
M  V30 4349 H 406 0.915012 4.07042 0
M  V30 4350 H 404.63 0.148822 3.22457 0
M  V30 4351 H 403.682 2.53711 2.83434 0
M  V30 4352 H 404.994 3.1601 3.85927 0
M  V30 4353 H 404.148 1.81099 5.7904 0
M  V30 4354 H 402.887 1.0839 4.75503 0
M  V30 4355 H 401.892 3.35404 4.35642 0
M  V30 4356 H 403.117 4.08339 5.4262 0
M  V30 4357 H 401.063 1.99568 6.24907 0
M  V30 4358 H 400.98 3.69141 6.59751 0
M  V30 4359 H 402.248 2.73226 7.30047 0
M  V30 4360 N 406.477 -1.02803 1.19454 0
M  V30 4361 C 407.702 -1.80378 1.02364 0
M  V30 4362 C 408.127 -1.83282 -0.423007 0
M  V30 4363 O 407.485 -1.25945 -1.30413 0
M  V30 4364 C 407.533 -3.23248 1.59821 0
M  V30 4365 O 406.637 -4.04 0.828105 0
M  V30 4366 H 405.978 -0.556799 0.361761 0
M  V30 4367 H 408.508 -1.29385 1.58495 0
M  V30 4368 H 408.518 -3.73994 1.63073 0
M  V30 4369 H 407.193 -3.2045 2.65113 0
M  V30 4370 H 405.77 -3.62635 0.86891 0
M  V30 4371 N 407.956 -0.998596 -1.21925 0
M  V30 4372 C 409.186 -0.695276 -1.94549 0
M  V30 4373 C 409.594 0.745079 -1.73911 0
M  V30 4374 O 408.937 1.51507 -1.03881 0
M  V30 4375 C 408.999 -0.928485 -3.47303 0
M  V30 4376 C 408.663 -2.35443 -3.91683 0
M  V30 4377 C 409.66 -3.33428 -3.98901 0
M  V30 4378 C 407.345 -2.69038 -4.24174 0
M  V30 4379 C 409.339 -4.63079 -4.37992 0
M  V30 4380 C 407.026 -3.98906 -4.62944 0
M  V30 4381 C 408.024 -4.95738 -4.69822 0
M  V30 4382 O 407.712 -6.23285 -5.07711 0
M  V30 4383 H 407.444 -0.255902 -0.625692 0
M  V30 4384 H 409.998 -1.33767 -1.5587 0
M  V30 4385 H 408.228 -0.228917 -3.86022 0
M  V30 4386 H 409.917 -0.619539 -4.01144 0
M  V30 4387 H 410.683 -3.08807 -3.73983 0
M  V30 4388 H 406.562 -1.94367 -4.18022 0
M  V30 4389 H 410.106 -5.38658 -4.43275 0
M  V30 4390 H 406.003 -4.23314 -4.87314 0
M  V30 4391 H 406.771 -6.27306 -5.25766 0
M  V30 4392 N 409.434 1.37368 -0.772513 0
M  V30 4393 C 410.364 2.32856 -0.173304 0
M  V30 4394 C 411.345 1.55818 0.682262 0
M  V30 4395 O 412.53 1.84052 0.619566 0
M  V30 4396 C 409.66 3.40048 0.706007 0
M  V30 4397 C 408.614 4.27973 -0.0483144 0
M  V30 4398 C 407.94 5.26184 0.950491 0
M  V30 4399 C 409.24 5.07665 -1.22776 0
M  V30 4400 H 410.934 2.83217 -0.971002 0
M  V30 4401 H 408.48 1.3617 -0.468377 0
M  V30 4402 H 410.433 4.05827 1.13501 0
M  V30 4403 H 409.157 2.88214 1.53623 0
M  V30 4404 H 407.816 3.63726 -0.458107 0
M  V30 4405 H 407.464 4.7063 1.77529 0
M  V30 4406 H 407.164 5.85872 0.450314 0
M  V30 4407 H 408.688 5.94838 1.37842 0
M  V30 4408 H 410.102 5.66578 -0.875366 0
M  V30 4409 H 408.499 5.76681 -1.66007 0
M  V30 4410 H 409.569 4.40294 -2.03149 0
M  V30 4411 N 410.912 0.523116 1.48665 0
M  V30 4412 C 412.14 -0.0096312 2.06898 0
M  V30 4413 C 412.555 -1.28784 1.38059 0
M  V30 4414 O 411.912 -1.76453 0.465893 0
M  V30 4415 C 411.963 -0.244386 3.60673 0
M  V30 4416 O 411.684 0.983172 4.26925 0
M  V30 4417 C 413.185 -0.818289 4.35682 0
M  V30 4418 H 410.405 0.0304161 0.67031 0
M  V30 4419 H 412.949 0.726799 1.91149 0
M  V30 4420 H 411.104 -0.930847 3.76051 0
M  V30 4421 H 411.518 0.759653 5.1897 0
M  V30 4422 H 412.992 -0.93201 5.44075 0
M  V30 4423 H 413.469 -1.82153 3.99646 0
M  V30 4424 H 414.075 -0.168609 4.24966 0
M  V30 4425 N 412.39 -1.55475 0.257931 0
M  V30 4426 C 413.806 -1.59307 -0.0966563 0
M  V30 4427 C 414.006 -1.27514 -1.5602 0
M  V30 4428 O 413.062 -1.02774 -2.30637 0
M  V30 4429 C 414.375 -2.99552 0.262481 0
M  V30 4430 C 415.923 -3.1231 0.207683 0
M  V30 4431 C 416.398 -4.54793 0.541012 0
M  V30 4432 N 417.889 -4.6058 0.491921 0
M  V30 4433 C 418.624 -5.68825 0.722857 0
M  V30 4434 N 418.12 -6.85287 1.0175 0
M  V30 4435 N 419.913 -5.58296 0.652815 0
M  V30 4436 H 412.064 -1.74409 1.21224 0
M  V30 4437 H 414.327 -0.812424 0.48854 0
M  V30 4438 H 414.033 -3.27593 1.27967 0
M  V30 4439 H 413.907 -3.75019 -0.40508 0
M  V30 4440 H 416.294 -2.84044 -0.800195 0
M  V30 4441 H 416.375 -2.39095 0.909255 0
M  V30 4442 H 416.019 -4.83783 1.5465 0
M  V30 4443 H 415.949 -5.26285 -0.18216 0
M  V30 4444 H 418.44 -3.7691 0.273366 0
M  V30 4445 H 418.753 -7.63725 1.18084 0
M  V30 4446 H 417.098 -6.86945 1.05509 0
M  V30 4447 H 420.289 -4.66189 0.422592 0
M  V30 4448 H 420.462 -6.42582 0.836182 0
M  V30 4449 N 413.868 0.0150385 -1.57593 0
M  V30 4450 C 415.114 0.704043 -1.90187 0
M  V30 4451 C 415.447 1.74249 -0.857366 0
M  V30 4452 O 414.722 1.94092 0.125843 0
M  V30 4453 C 415.005 1.36087 -3.33395 0
M  V30 4454 C 414.858 0.334981 -4.48551 0
M  V30 4455 C 416.177 2.29112 -3.7576 0
M  V30 4456 H 413.296 0.254475 -0.691673 0
M  V30 4457 H 415.938 -0.0331678 -1.89971 0
M  V30 4458 H 414.088 1.98922 -3.3371 0
M  V30 4459 H 415.76 -0.292534 -4.60372 0
M  V30 4460 H 414.003 -0.344325 -4.32431 0
M  V30 4461 H 414.674 0.833316 -5.45674 0
M  V30 4462 H 417.15 1.76308 -3.76902 0
M  V30 4463 H 416.026 2.72043 -4.76743 0
M  V30 4464 H 416.287 3.16385 -3.08793 0
M  V30 4465 N 415.346 1.54954 0.287554 0
M  V30 4466 C 416.594 1.74528 1.01904 0
M  V30 4467 C 416.915 0.541349 1.87335 0
M  V30 4468 O 416.185 -0.444108 1.908 0
M  V30 4469 H 414.765 0.643576 0.379235 0
M  V30 4470 H 417.427 1.92333 0.315294 0
M  V30 4471 H 416.523 2.64015 1.6644 0
M  V30 4472 N 416.824 -0.551391 1.4764 0
M  V30 4473 C 418.064 -1.31901 1.56145 0
M  V30 4474 C 418.428 -1.90724 0.221013 0
M  V30 4475 O 419.629 -2.6819 0.180945 0
M  V30 4476 C 417.9 -2.39517 2.65267 0
M  V30 4477 S 419.459 -3.26289 2.93395 0
M  V30 4478 H 416.277 -0.448965 0.551318 0
M  V30 4479 H 418.879 -0.630599 1.85051 0
M  V30 4480 H 417.583 -1.94747 3.6125 0
M  V30 4481 H 417.114 -3.13092 2.38195 0
M  V30 4482 H 419.129 -4.39122 2.31055 0
M  V30 4483 N 418.302 -1.35869 -0.798587 0
M  V30 4484 C 419.55 -1.29332 -1.55298 0
M  V30 4485 C 419.871 0.129729 -1.94568 0
M  V30 4486 O 419.141 1.06796 -1.6423 0
M  V30 4487 H 417.721 -0.475737 -0.57592 0
M  V30 4488 H 420.383 -1.70062 -0.952093 0
M  V30 4489 H 419.479 -1.91458 -2.46476 0
M  V30 4490 N 419.78 1.02168 -1.19998 0
M  V30 4491 C 421.191 1.57135 -1.00825 0
M  V30 4492 C 421.542 1.91276 0.436818 0
M  V30 4493 O 420.667 1.71679 1.3174 0
M  V30 4494 C 421.262 2.85514 -1.82393 0
M  V30 4495 C 419.821 3.37027 -1.67601 0
M  V30 4496 C 418.968 2.10388 -1.80644 0
M  V30 4497 H 421.919 0.846106 -1.34264 0
M  V30 4498 H 421.94 3.56711 -1.32429 0
M  V30 4499 H 421.452 2.60634 -2.87561 0
M  V30 4500 H 419.553 3.66878 -0.650485 0
M  V30 4501 H 419.666 4.09572 -2.4857 0
M  V30 4502 H 418.03 2.22601 -1.23778 0
M  V30 4503 H 418.813 1.8794 -2.87286 0
M  V30 4504 N 421.258 1.00505 1.21394 0
M  V30 4505 C 422.505 0.687774 1.90462 0
M  V30 4506 C 422.833 -0.78147 1.7811 0
M  V30 4507 O 422.088 -1.58208 1.1519 0
M  V30 4508 C 422.387 1.0546 3.41486 0
M  V30 4509 C 422.053 2.51812 3.74034 0
M  V30 4510 C 420.715 2.91804 3.82628 0
M  V30 4511 C 423.067 3.46614 3.8924 0
M  V30 4512 C 420.395 4.2556 4.03876 0
M  V30 4513 C 422.747 4.80044 4.11995 0
M  V30 4514 C 421.411 5.19759 4.18816 0
M  V30 4515 H 420.681 0.251674 0.696951 0
M  V30 4516 H 423.328 1.26349 1.43903 0
M  V30 4517 H 421.633 0.397133 3.89782 0
M  V30 4518 H 423.33 0.786976 3.93202 0
M  V30 4519 H 419.92 2.1982 3.67936 0
M  V30 4520 H 424.104 3.16883 3.81967 0
M  V30 4521 H 419.36 4.55901 4.07387 0
M  V30 4522 H 423.534 5.53439 4.22704 0
M  V30 4523 H 421.161 6.23418 4.35033 0
M  V30 4524 N 422.737 -1.36956 0.779787 0
M  V30 4525 C 423.667 -2.32761 0.185651 0
M  V30 4526 C 424.648 -1.56177 -0.673989 0
M  V30 4527 O 425.833 -1.84378 -0.609797 0
M  V30 4528 C 422.963 -3.40418 -0.687964 0
M  V30 4529 C 421.917 -4.27941 0.0710102 0
M  V30 4530 C 421.243 -5.26681 -0.922573 0
M  V30 4531 C 422.543 -5.07006 1.25467 0
M  V30 4532 H 424.237 -2.82698 0.986008 0
M  V30 4533 H 421.783 -1.3592 0.475592 0
M  V30 4534 H 423.736 -4.06423 -1.11348 0
M  V30 4535 H 422.46 -2.89025 -1.52093 0
M  V30 4536 H 421.119 -3.63478 0.47739 0
M  V30 4537 H 420.767 -4.71565 -1.7503 0
M  V30 4538 H 420.467 -5.86103 -0.419237 0
M  V30 4539 H 421.991 -5.9556 -1.34686 0
M  V30 4540 H 423.405 -5.66105 0.905401 0
M  V30 4541 H 421.802 -5.75793 1.69063 0
M  V30 4542 H 422.872 -4.3921 2.05481 0
M  V30 4543 N 424.215 -0.530993 -1.48385 0
M  V30 4544 C 425.443 -0.00134122 -2.069 0
M  V30 4545 C 425.858 1.2805 -1.3874 0
M  V30 4546 O 425.215 1.76204 -0.475244 0
M  V30 4547 C 425.266 0.225256 -3.60798 0
M  V30 4548 O 424.987 -1.0058 -4.26398 0
M  V30 4549 C 426.488 0.795172 -4.3611 0
M  V30 4550 H 423.708 -0.0339704 -0.67014 0
M  V30 4551 H 426.252 -0.736926 -1.90761 0
M  V30 4552 H 424.407 0.910891 -3.76539 0
M  V30 4553 H 424.821 -0.787165 -5.1856 0
M  V30 4554 H 426.295 0.903143 -5.44562 0
M  V30 4555 H 426.772 1.80031 -4.00606 0
M  V30 4556 H 427.378 0.146069 -4.25049 0
M  V30 4557 N 425.693 1.55336 -0.266172 0
M  V30 4558 C 426.603 2.2583 0.635458 0
M  V30 4559 C 427.619 1.28106 1.17749 0
M  V30 4560 O 428.795 1.61024 1.20968 0
M  V30 4561 C 425.86 2.95879 1.80712 0
M  V30 4562 C 424.921 4.09059 1.30265 0
M  V30 4563 C 424.154 4.75759 2.41846 0
M  V30 4564 O 424.377 4.41622 3.61007 0
M  V30 4565 O 423.311 5.63888 2.1051 0
M  V30 4566 H 427.137 3.03631 0.0646693 0
M  V30 4567 H 424.722 1.49361 -0.0339177 0
M  V30 4568 H 426.604 3.39932 2.49047 0
M  V30 4569 H 425.279 2.21002 2.36516 0
M  V30 4570 H 424.186 3.69482 0.586019 0
M  V30 4571 H 425.519 4.85811 0.790458 0
M  V30 4572 N 427.171 -0.0066808 1.57599 0
M  V30 4573 C 428.101 -0.999296 2.11036 0
M  V30 4574 C 429.082 -1.36278 1.01795 0
M  V30 4575 O 430.267 -1.4477 1.29442 0
M  V30 4576 C 427.397 -2.29328 2.60818 0
M  V30 4577 C 426.351 -2.07159 3.74525 0
M  V30 4578 C 425.677 -3.42512 4.10596 0
M  V30 4579 C 426.977 -1.43959 5.02069 0
M  V30 4580 H 428.671 -0.554382 2.94223 0
M  V30 4581 H 426.217 -0.265221 1.41536 0
M  V30 4582 H 428.17 -2.99117 2.96828 0
M  V30 4583 H 426.894 -2.7592 1.74745 0
M  V30 4584 H 425.553 -1.39797 3.38899 0
M  V30 4585 H 425.201 -3.86795 3.21556 0
M  V30 4586 H 424.901 -3.28498 4.87199 0
M  V30 4587 H 426.425 -4.13628 4.4916 0
M  V30 4588 H 427.839 -2.03696 5.35893 0
M  V30 4589 H 426.236 -1.40452 5.83432 0
M  V30 4590 H 427.306 -0.407992 4.83181 0
M  V30 4591 N 428.649 -1.55105 -0.279332 0
M  V30 4592 C 429.597 -1.88333 -1.36505 0
M  V30 4593 C 430.591 -0.759043 -1.51443 0
M  V30 4594 O 431.797 -0.943312 -1.53302 0
M  V30 4595 H 428.172 -0.59766 -0.456406 0
M  V30 4596 H 430.143 -2.79041 -1.05728 0
M  V30 4597 C 428.892 -2.16628 -2.7197 0
M  V30 4598 H 428.215 -3.02624 -2.61264 0
M  V30 4599 H 429.655 -2.43803 -3.46895 0
M  V30 4600 C 428.114 -0.971807 -3.22579 0
M  V30 4601 O 428.644 -0.203228 -4.01186 0
M  V30 4602 N 426.85 -0.771238 -2.80179 0
M  V30 4603 H 426.397 -1.39792 -2.1637 0
M  V30 4604 H 426.355 0.0263667 -3.14389 0
M  V30 4605 N 430.127 0.543554 -1.4793 0
M  V30 4606 C 431.075 1.67039 -1.61866 0
M  V30 4607 C 432.069 1.62294 -0.48549 0
M  V30 4608 O 433.275 1.67315 -0.66376 0
M  V30 4609 H 429.65 0.552954 -0.509652 0
M  V30 4610 H 431.621 1.52426 -2.56533 0
M  V30 4611 C 430.37 3.05357 -1.6629 0
M  V30 4612 H 429.693 3.09696 -2.5284 0
M  V30 4613 H 431.133 3.83855 -1.80088 0
M  V30 4614 C 429.592 3.34531 -0.398861 0
M  V30 4615 O 430.122 3.98649 0.494162 0
M  V30 4616 N 428.328 2.89299 -0.2747 0
M  V30 4617 H 427.875 2.37298 -1.00236 0
M  V30 4618 H 427.833 3.09188 0.570075 0
M  V30 4619 N 431.605 1.3629 0.791371 0
M  V30 4620 C 432.882 1.20962 1.53712 0
M  V30 4621 C 433.262 -0.205021 2.10102 0
M  V30 4622 O 432.61 -1.21042 1.93807 0
M  V30 4623 C 432.82 2.29002 2.63361 0
M  V30 4624 C 434.168 2.65572 3.31295 0
M  V30 4625 O 435.192 2.2803 2.73643 0
M  V30 4626 O 434.051 3.3018 4.35481 0
M  V30 4627 H 431.145 0.47086 0.679867 0
M  V30 4628 H 433.691 1.48016 0.830021 0
M  V30 4629 H 432.463 3.2382 2.19674 0
M  V30 4630 H 432.086 2.03303 3.41692 0
M  V30 4631 N 433.083 -1.0153 1.20538 0
M  V30 4632 C 434.329 -1.75408 1.01783 0
M  V30 4633 C 434.662 -1.88943 -0.448814 0
M  V30 4634 O 433.937 -1.4162 -1.33319 0
M  V30 4635 C 434.22 -3.17255 1.70356 0
M  V30 4636 C 434.073 -3.11508 3.24473 0
M  V30 4637 C 435.392 -4.15955 1.43769 0
M  V30 4638 H 432.511 -0.636713 0.371167 0
M  V30 4639 H 435.153 -1.18436 1.4857 0
M  V30 4640 H 433.303 -3.65898 1.30578 0
M  V30 4641 H 434.975 -2.70658 3.73553 0
M  V30 4642 H 433.218 -2.4887 3.55311 0
M  V30 4643 H 433.889 -4.11784 3.67611 0
M  V30 4644 H 436.365 -3.75973 1.7828 0
M  V30 4645 H 435.241 -5.13368 1.94279 0
M  V30 4646 H 435.502 -4.40586 0.365564 0
M  V30 4647 N 434.561 -1.01147 -1.20859 0
M  V30 4648 C 435.809 -0.696486 -1.89719 0
M  V30 4649 C 436.13 0.775788 -1.78904 0
M  V30 4650 O 435.4 1.55759 -1.18811 0
M  V30 4651 H 433.98 -0.254628 -0.702263 0
M  V30 4652 H 436.642 -1.28197 -1.46804 0
M  V30 4653 H 435.738 -0.975357 -2.96468 0
M  V30 4654 N 436.039 1.36541 -0.78704 0
M  V30 4655 C 436.971 2.28761 -0.141773 0
M  V30 4656 C 437.984 1.49365 0.647599 0
M  V30 4657 O 439.173 1.71836 0.483173 0
M  V30 4658 C 436.273 3.28771 0.822368 0
M  V30 4659 C 435.446 4.3732 0.0835594 0
M  V30 4660 C 434.505 5.17307 0.963296 0
M  V30 4661 O 433.531 5.67638 0.421419 0
M  V30 4662 N 434.733 5.33515 2.28784 0
M  V30 4663 H 437.498 2.84777 -0.933919 0
M  V30 4664 H 435.059 1.48682 -0.640735 0
M  V30 4665 H 437.051 3.79169 1.41468 0
M  V30 4666 H 435.621 2.73412 1.5154 0
M  V30 4667 H 434.841 3.88118 -0.689809 0
M  V30 4668 H 436.129 5.0701 -0.426358 0
M  V30 4669 H 435.527 4.94234 2.75226 0
M  V30 4670 H 434.084 5.87165 2.82985 0
M  V30 4671 N 437.518 0.538854 1.48102 0
M  V30 4672 C 438.748 0.0122958 2.06596 0
M  V30 4673 C 439.156 -1.27861 1.39457 0
M  V30 4674 O 438.499 -1.77348 0.478907 0
M  V30 4675 C 438.561 -0.273131 3.58461 0
M  V30 4676 C 438.225 0.92561 4.47528 0
M  V30 4677 C 439.222 1.82637 4.86765 0
M  V30 4678 C 436.907 1.13511 4.89306 0
M  V30 4679 C 438.901 2.92047 5.66558 0
M  V30 4680 C 436.588 2.23233 5.68868 0
M  V30 4681 C 437.586 3.12333 6.07402 0
M  V30 4682 O 437.274 4.20155 6.85365 0
M  V30 4683 H 437.006 0.0344283 0.675123 0
M  V30 4684 H 439.56 0.746494 1.91355 0
M  V30 4685 H 437.79 -1.06141 3.71848 0
M  V30 4686 H 439.479 -0.742842 3.99045 0
M  V30 4687 H 440.245 1.67649 4.55103 0
M  V30 4688 H 436.124 0.450835 4.5879 0
M  V30 4689 H 439.668 3.6162 5.96554 0
M  V30 4690 H 435.565 2.38201 5.99942 0
M  V30 4691 H 436.333 4.17975 7.03732 0
M  V30 4692 N 438.996 -1.55193 0.274407 0
M  V30 4693 C 439.926 -2.25471 -0.607032 0
M  V30 4694 C 440.907 -1.24461 -1.15946 0
M  V30 4695 O 442.092 -1.53179 -1.19373 0
M  V30 4696 C 439.222 -2.97526 -1.79153 0
M  V30 4697 C 438.176 -4.05459 -1.37067 0
M  V30 4698 C 437.502 -4.65084 -2.6382 0
M  V30 4699 C 438.802 -5.19691 -0.521389 0
M  V30 4700 H 440.496 -2.99393 -0.0209343 0
M  V30 4701 H 438.042 -1.43997 -0.00862866 0
M  V30 4702 H 439.995 -3.45402 -2.41404 0
M  V30 4703 H 438.719 -2.21138 -2.40344 0
M  V30 4704 H 437.378 -3.58393 -0.771355 0
M  V30 4705 H 437.026 -3.85365 -3.23268 0
M  V30 4706 H 436.726 -5.37961 -2.36372 0
M  V30 4707 H 438.25 -5.15708 -3.26921 0
M  V30 4708 H 439.664 -5.63623 -1.04889 0
M  V30 4709 H 438.061 -5.99126 -0.341825 0
M  V30 4710 H 439.131 -4.82713 0.46 0
M  V30 4711 N 440.474 -0.00167713 -1.576 0
M  V30 4712 C 441.89 0.354422 -1.55615 0
M  V30 4713 C 442.09 1.74679 -1.00447 0
M  V30 4714 O 441.146 2.4428 -0.639022 0
M  V30 4715 C 442.459 0.22812 -2.99833 0
M  V30 4716 C 444.007 0.302934 -3.11531 0
M  V30 4717 C 444.482 0.205737 -4.57538 0
M  V30 4718 N 445.973 0.263584 -4.62449 0
M  V30 4719 C 446.708 0.211742 -5.73009 0
M  V30 4720 N 446.204 0.110399 -6.92712 0
M  V30 4721 N 447.997 0.263729 -5.61481 0
M  V30 4722 H 440.148 -0.912498 -1.918 0
M  V30 4723 H 442.411 -0.349928 -0.881053 0
M  V30 4724 H 442.117 -0.729934 -3.44042 0
M  V30 4725 H 441.991 1.00951 -3.6344 0
M  V30 4726 H 444.378 1.25143 -2.67251 0
M  V30 4727 H 444.459 -0.508357 -2.50698 0
M  V30 4728 H 444.103 -0.739225 -5.02492 0
M  V30 4729 H 444.033 1.03554 -5.16318 0
M  V30 4730 H 446.524 0.343173 -3.76339 0
M  V30 4731 H 446.837 0.0767828 -7.72762 0
M  V30 4732 H 445.182 0.0760025 -6.94958 0
M  V30 4733 H 448.373 0.34111 -4.66855 0
M  V30 4734 H 448.546 0.219862 -6.47627 0
M  V30 4735 N 441.952 1.55251 0.271103 0
M  V30 4736 C 442.862 1.9136 1.35714 0
M  V30 4737 C 443.878 0.811075 1.5394 0
M  V30 4738 O 445.054 1.11031 1.6803 0
M  V30 4739 C 442.119 2.1798 2.69603 0
M  V30 4740 C 441.18 3.4153 2.60107 0
M  V30 4741 C 440.413 3.66871 3.8761 0
M  V30 4742 O 440.636 2.94689 4.8838 0
M  V30 4743 O 439.57 4.60405 3.87699 0
M  V30 4744 H 443.396 2.83815 1.08088 0
M  V30 4745 H 440.981 1.41821 0.469792 0
M  V30 4746 H 442.863 2.36518 3.48765 0
M  V30 4747 H 441.538 1.28708 2.97012 0
M  V30 4748 H 440.445 3.28325 1.79314 0
M  V30 4749 H 441.778 4.31027 2.37647 0
M  V30 4750 N 443.43 -0.535701 1.48216 0
M  V30 4751 C 444.377 -1.64083 1.62312 0
M  V30 4752 C 445.347 -1.59448 0.465365 0
M  V30 4753 O 446.532 -1.77959 0.688135 0
M  V30 4754 C 443.672 -3.0236 1.66349 0
M  V30 4755 C 442.785 -3.17273 2.93193 0
M  V30 4756 C 441.92 -4.46075 2.88427 0
M  V30 4757 C 440.959 -4.54496 4.1 0
M  V30 4758 N 440.096 -5.7468 4.03345 0
M  V30 4759 H 444.936 -1.51374 2.5669 0
M  V30 4760 H 442.473 -0.737059 1.27302 0
M  V30 4761 H 444.431 -3.82461 1.66672 0
M  V30 4762 H 443.061 -3.13854 0.754672 0
M  V30 4763 H 442.113 -2.30462 3.02641 0
M  V30 4764 H 443.425 -3.19357 3.83162 0
M  V30 4765 H 442.579 -5.3446 2.87119 0
M  V30 4766 H 441.318 -4.46504 1.96177 0
M  V30 4767 H 440.323 -3.64519 4.11589 0
M  V30 4768 H 441.548 -4.5581 5.03402 0
M  V30 4769 H 439.494 -5.76017 3.13912 0
M  V30 4770 H 439.411 -5.78234 4.87013 0
M  V30 4771 H 440.679 -6.65367 4.06087 0
M  V30 4772 N 444.908 -1.36708 -0.784132 0
M  V30 4773 C 446.156 -1.30972 -1.53918 0
M  V30 4774 C 446.477 0.109086 -1.94695 0
M  V30 4775 O 445.747 1.05048 -1.65353 0
M  V30 4776 H 444.327 -0.481819 -0.570841 0
M  V30 4777 H 446.989 -1.71063 -0.934002 0
M  V30 4778 H 446.085 -1.94061 -2.44431 0
M  V30 4779 N 446.386 1.0089 -1.21074 0
M  V30 4780 C 447.336 2.0799 -0.934034 0
M  V30 4781 C 448.32 1.60529 0.10919 0
M  V30 4782 O 449.512 1.76722 -0.0992198 0
M  V30 4783 C 446.641 3.39693 -0.496334 0
M  V30 4784 C 445.727 3.93833 -1.57341 0
M  V30 4785 N 446.118 4.21388 -2.7976 0
M  V30 4786 C 444.416 4.22067 -1.44137 0
M  V30 4787 C 445.117 4.65156 -3.49292 0
M  V30 4788 N 444.093 4.67895 -2.76722 0
M  V30 4789 H 447.895 2.27213 -1.86417 0
M  V30 4790 H 445.409 1.18927 -1.10589 0
M  V30 4791 H 447.406 4.15962 -0.279471 0
M  V30 4792 H 446.066 3.21879 0.427084 0
M  V30 4793 H 447.077 4.10061 -3.1634 0
M  V30 4794 H 443.754 4.1341 -0.582947 0
M  V30 4795 H 445.144 4.95231 -4.54088 0
M  V30 4796 N 447.864 1.01787 1.20321 0
M  V30 4797 C 448.774 0.598898 2.26827 0
M  V30 4798 C 449.79 -0.36418 1.70146 0
M  V30 4799 O 450.966 -0.224812 2.00141 0
M  V30 4800 C 448.031 -0.0549769 3.46656 0
M  V30 4801 C 447.092 0.954205 4.18561 0
M  V30 4802 C 446.325 0.331439 5.3267 0
M  V30 4803 O 446.548 -0.86851 5.63749 0
M  V30 4804 O 445.482 1.0488 5.92692 0
M  V30 4805 H 449.308 1.48562 2.64883 0
M  V30 4806 H 446.893 0.787434 1.26964 0
M  V30 4807 H 448.775 -0.420102 4.19301 0
M  V30 4808 H 447.45 -0.915876 3.10473 0
M  V30 4809 H 446.357 1.37072 3.48083 0
M  V30 4810 H 447.69 1.78511 4.58688 0
M  V30 4811 N 449.342 -1.36122 0.79427 0
M  V30 4812 C 450.572 -2.03067 0.380437 0
M  V30 4813 C 450.98 -1.60018 -1.00949 0
M  V30 4814 O 450.323 -0.787425 -1.65968 0
M  V30 4815 C 450.385 -3.57587 0.37034 0
M  V30 4816 C 450.049 -4.23855 1.70867 0
M  V30 4817 C 451.046 -4.46404 2.66496 0
M  V30 4818 C 448.731 -4.61229 1.9893 0
M  V30 4819 C 450.725 -5.05412 3.88378 0
M  V30 4820 C 448.412 -5.19953 3.21079 0
M  V30 4821 C 449.41 -5.41985 4.15621 0
M  V30 4822 O 449.098 -5.99475 5.35616 0
M  V30 4823 H 448.83 -0.658168 0.154243 0
M  V30 4824 H 451.384 -1.7498 1.0757 0
M  V30 4825 H 449.614 -3.84814 -0.381444 0
M  V30 4826 H 451.303 -4.05895 -0.0194894 0
M  V30 4827 H 452.069 -4.17921 2.46103 0
M  V30 4828 H 447.948 -4.43402 1.26158 0
M  V30 4829 H 451.492 -5.22524 4.62185 0
M  V30 4830 H 447.389 -5.47862 3.41347 0
M  V30 4831 H 448.157 -6.17937 5.36745 0
M  V30 4832 N 450.82 -0.546701 -1.47814 0
M  V30 4833 C 452.068 -0.0187037 -2.02091 0
M  V30 4834 C 452.389 1.33168 -1.42447 0
M  V30 4835 O 451.659 1.86619 -0.595839 0
M  V30 4836 H 450.239 -0.00392531 -0.74699 0
M  V30 4837 H 452.901 -0.714327 -1.81338 0
M  V30 4838 H 451.997 0.0772219 -3.12004 0
M  V30 4839 N 452.299 1.55045 -0.282633 0
M  V30 4840 C 453.527 2.04168 0.33512 0
M  V30 4841 C 453.942 1.16071 1.48906 0
M  V30 4842 O 453.299 0.182391 1.81586 0
M  V30 4843 C 453.35 3.52332 0.808957 0
M  V30 4844 O 453.071 4.37078 -0.299038 0
M  V30 4845 C 454.572 4.17375 1.49375 0
M  V30 4846 H 451.792 0.666744 0.0754543 0
M  V30 4847 H 454.336 2.00205 -0.416918 0
M  V30 4848 H 452.491 3.56715 1.51106 0
M  V30 4849 H 452.905 5.24458 0.0665514 0
M  V30 4850 H 454.379 5.22627 1.77664 0
M  V30 4851 H 454.856 3.65999 2.42778 0
M  V30 4852 H 455.462 4.17016 0.835305 0
M  V30 4853 N 453.777 0.010035 1.57597 0
M  V30 4854 C 455.005 -0.683413 1.95287 0
M  V30 4855 C 455.42 -1.66747 0.885481 0
M  V30 4856 O 454.777 -1.82003 -0.134629 0
M  V30 4857 C 454.828 -1.40652 3.33015 0
M  V30 4858 O 454.549 -0.461916 4.35658 0
M  V30 4859 C 456.05 -2.19356 3.85225 0
M  V30 4860 H 453.27 -0.189708 0.643624 0
M  V30 4861 H 455.814 0.0641359 2.04399 0
M  V30 4862 H 453.969 -2.10562 3.2518 0
M  V30 4863 H 454.383 -0.973215 5.15392 0
M  V30 4864 H 455.857 -2.65433 4.83993 0
M  V30 4865 H 456.334 -3.02457 3.18459 0
M  V30 4866 H 456.94 -1.54442 3.96267 0
M  V30 4867 N 455.255 -1.55392 -0.262866 0
M  V30 4868 C 456.483 -1.80513 -1.01108 0
M  V30 4869 C 456.898 -0.583533 -1.79556 0
M  V30 4870 O 456.255 0.447585 -1.76926 0
M  V30 4871 C 456.306 -3.03648 -1.96164 0
M  V30 4872 O 456.027 -4.2109 -1.20893 0
M  V30 4873 C 457.528 -3.41448 -2.82715 0
M  V30 4874 H 454.748 -0.601079 -0.298236 0
M  V30 4875 H 457.292 -2.02425 -0.290582 0
M  V30 4876 H 455.447 -2.83832 -2.63663 0
M  V30 4877 H 455.861 -4.90771 -1.85051 0
M  V30 4878 H 457.335 -4.30751 -3.45192 0
M  V30 4879 H 457.812 -2.61308 -3.53008 0
M  V30 4880 H 458.418 -3.63559 -2.20693 0
M  V30 4881 N 456.733 0.527833 -1.48498 0
M  V30 4882 C 457.68 1.6322 -1.6318 0
M  V30 4883 C 458.65 1.59199 -0.473815 0
M  V30 4884 O 459.835 1.77591 -0.697563 0
M  V30 4885 C 456.975 3.01474 -1.67951 0
M  V30 4886 C 456.088 3.15713 -2.94871 0
M  V30 4887 C 455.223 4.44539 -2.90789 0
M  V30 4888 C 454.262 4.52315 -4.12404 0
M  V30 4889 N 453.399 5.72533 -4.06387 0
M  V30 4890 H 458.239 1.50011 -2.57489 0
M  V30 4891 H 455.776 0.730298 -1.27691 0
M  V30 4892 H 457.734 3.81572 -1.68698 0
M  V30 4893 H 456.364 3.1345 -0.771306 0
M  V30 4894 H 455.416 2.28854 -3.03859 0
M  V30 4895 H 456.728 3.1732 -3.8485 0
M  V30 4896 H 455.882 5.3293 -2.89949 0
M  V30 4897 H 454.621 4.45457 -1.98542 0
M  V30 4898 H 453.626 3.62331 -4.13517 0
M  V30 4899 H 454.851 4.53134 -5.05812 0
M  V30 4900 H 452.797 5.74344 -3.16962 0
M  V30 4901 H 452.714 5.75643 -4.90073 0
M  V30 4902 H 453.982 6.63204 -4.0961 0
M  V30 4903 N 458.211 1.37122 0.776871 0
M  V30 4904 C 459.627 1.1781 1.07671 0
M  V30 4905 C 459.827 0.0107454 2.01497 0
M  V30 4906 O 458.883 -0.650756 2.4397 0
M  V30 4907 C 460.196 2.49451 1.67913 0
M  V30 4908 C 461.744 2.55927 1.80195 0
M  V30 4909 C 462.219 3.87686 2.43851 0
M  V30 4910 N 463.71 3.891 2.51307 0
M  V30 4911 C 464.445 4.87797 3.014 0
M  V30 4912 N 463.941 5.96888 3.51705 0
M  V30 4913 N 465.734 4.75205 3.00227 0
M  V30 4914 H 457.885 2.11843 0.153778 0
M  V30 4915 H 460.148 0.938927 0.130844 0
M  V30 4916 H 459.854 3.35207 1.06439 0
M  V30 4917 H 459.728 2.66169 2.67271 0
M  V30 4918 H 462.115 1.70582 2.40803 0
M  V30 4919 H 462.196 2.43097 0.796069 0
M  V30 4920 H 461.84 4.73444 1.83884 0
M  V30 4921 H 461.77 3.97817 3.45035 0
M  V30 4922 H 464.261 3.10293 2.157 0
M  V30 4923 H 464.574 6.68155 3.88316 0
M  V30 4924 H 462.919 6.0054 3.49824 0
M  V30 4925 H 466.11 3.89103 2.60224 0
M  V30 4926 H 466.283 5.52279 3.38957 0
M  V30 4927 N 459.689 -1.00246 1.21608 0
M  V30 4928 C 461.1 -1.55511 1.03312 0
M  V30 4929 C 461.451 -1.91946 -0.406332 0
M  V30 4930 O 460.576 -1.73753 -1.28992 0
M  V30 4931 C 461.171 -2.82576 1.86913 0
M  V30 4932 C 459.73 -3.34318 1.72941 0
M  V30 4933 C 458.877 -2.07487 1.83968 0
M  V30 4934 H 461.828 -0.824638 1.35593 0
M  V30 4935 H 461.849 -3.54559 1.38087 0
M  V30 4936 H 461.361 -2.56026 2.91672 0
M  V30 4937 H 459.462 -3.65797 0.70877 0
M  V30 4938 H 459.575 -4.05566 2.55055 0
M  V30 4939 H 457.939 -2.20603 1.27304 0
M  V30 4940 H 458.722 -1.83346 2.9024 0
M  V30 4941 N 461.167 -1.02423 -1.1978 0
M  V30 4942 C 462.583 -0.740459 -1.41384 0
M  V30 4943 C 462.783 0.676827 -1.89793 0
M  V30 4944 O 461.839 1.4435 -2.0717 0
M  V30 4945 C 463.152 -1.77264 -2.42895 0
M  V30 4946 C 464.7 -1.79165 -2.56649 0
M  V30 4947 C 465.175 -2.8133 -3.6141 0
M  V30 4948 N 466.666 -2.80118 -3.68901 0
M  V30 4949 C 467.401 -3.55824 -4.49641 0
M  V30 4950 N 466.897 -4.41231 -5.34123 0
M  V30 4951 N 468.69 -3.44387 -4.44246 0
M  V30 4952 H 460.841 -1.9391 -0.866764 0
M  V30 4953 H 463.104 -0.838074 -0.443098 0
M  V30 4954 H 462.81 -2.7884 -2.14339 0
M  V30 4955 H 462.684 -1.59108 -3.42001 0
M  V30 4956 H 465.071 -0.782702 -2.84531 0
M  V30 4957 H 465.152 -2.01396 -1.57713 0
M  V30 4958 H 464.796 -3.82394 -3.34271 0
M  V30 4959 H 464.726 -2.56359 -4.59986 0
M  V30 4960 H 467.217 -2.1817 -3.08562 0
M  V30 4961 H 467.53 -4.95747 -5.92836 0
M  V30 4962 H 465.875 -4.45306 -5.33599 0
M  V30 4963 H 469.066 -2.7708 -3.77285 0
M  V30 4964 H 469.239 -4.0364 -5.06931 0
M  V30 4965 N 462.645 1.35699 -0.801477 0
M  V30 4966 C 464.061 1.52065 -0.484596 0
M  V30 4967 C 464.261 1.75215 0.995084 0
M  V30 4968 O 463.317 1.79061 1.78026 0
M  V30 4969 C 464.63 2.69908 -1.32552 0
M  V30 4970 C 466.178 2.83784 -1.32044 0
M  V30 4971 C 466.653 4.04646 -2.14536 0
M  V30 4972 N 468.144 4.11814 -2.12046 0
M  V30 4973 C 468.879 5.04437 -2.72636 0
M  V30 4974 N 468.375 6.02426 -3.42133 0
M  V30 4975 N 470.168 4.97144 -2.62305 0
M  V30 4976 H 462.319 1.18928 -1.75983 0
M  V30 4977 H 464.582 0.581455 -0.748741 0
M  V30 4978 H 464.288 2.59363 -2.37537 0
M  V30 4979 H 464.162 3.64376 -0.975181 0
M  V30 4980 H 466.549 2.93783 -0.27846 0
M  V30 4981 H 466.63 1.90188 -1.71062 0
M  V30 4982 H 466.274 3.95407 -3.18772 0
M  V30 4983 H 466.204 4.97413 -1.72882 0
M  V30 4984 H 468.695 3.41664 -1.61476 0
M  V30 4985 H 469.008 6.69688 -3.85666 0
M  V30 4986 H 467.353 6.02615 -3.46237 0
M  V30 4987 H 470.544 4.19546 -2.07603 0
M  V30 4988 H 470.717 5.69138 -3.09815 0
M  V30 4989 N 464.123 0.554532 1.47522 0
M  V30 4990 C 465.363 0.0317994 2.04375 0
M  V30 4991 C 465.727 -1.29242 1.41988 0
M  V30 4992 O 466.928 -1.90269 1.89872 0
M  V30 4993 C 465.199 -0.0623344 3.57346 0
M  V30 4994 S 466.758 -0.531578 4.35568 0
M  V30 4995 H 463.576 0.0238553 0.7106 0
M  V30 4996 H 466.178 0.74066 1.80927 0
M  V30 4997 H 464.882 0.905857 4.00278 0
M  V30 4998 H 464.413 -0.794831 3.85287 0
M  V30 4999 H 466.428 -1.79175 4.62721 0
M  V30 5000 N 465.601 -1.54893 0.290851 0
M  V30 5001 C 466.849 -1.99538 -0.320756 0
M  V30 5002 C 467.17 -1.18075 -1.55188 0
M  V30 5003 O 466.44 -0.274162 -1.93972 0
M  V30 5004 H 465.02 -0.737052 -0.121507 0
M  V30 5005 H 467.682 -1.90755 0.399832 0
M  V30 5006 H 466.778 -3.06282 -0.599802 0
M  V30 5007 N 467.08 -0.0183926 -1.57589 0
M  V30 5008 C 468.326 0.657813 -1.92469 0
M  V30 5009 C 468.681 1.70349 -0.894375 0
M  V30 5010 O 467.974 1.91384 0.0910389 0
M  V30 5011 C 468.168 1.32676 -3.31861 0
M  V30 5012 C 467.997 0.347403 -4.48356 0
M  V30 5013 C 466.767 -0.0488653 -5.05276 0
M  V30 5014 C 468.965 -0.393931 -5.12789 0
M  V30 5015 N 466.947 -1.02451 -6.05291 0
M  V30 5016 C 468.318 -1.22367 -6.07804 0
M  V30 5017 C 470.373 -0.455789 -4.95809 0
M  V30 5018 C 469.076 -2.10966 -6.87667 0
M  V30 5019 C 471.102 -1.32908 -5.76272 0
M  V30 5020 C 470.464 -2.14662 -6.70894 0
M  V30 5021 H 466.563 0.21335 -0.752334 0
M  V30 5022 H 469.147 -0.0830547 -1.94523 0
M  V30 5023 H 467.318 2.03782 -3.30647 0
M  V30 5024 H 469.05 1.95913 -3.54119 0
M  V30 5025 H 465.805 0.323356 -4.72495 0
M  V30 5026 H 466.229 -1.50826 -6.59985 0
M  V30 5027 H 470.871 0.162017 -4.22489 0
M  V30 5028 H 468.589 -2.73807 -7.603 0
M  V30 5029 H 472.175 -1.38109 -5.6517 0
M  V30 5030 H 471.055 -2.81143 -7.32071 0
M  V30 5031 N 468.558 1.5553 0.254621 0
M  V30 5032 C 469.488 1.9268 1.31897 0
M  V30 5033 C 470.469 0.790797 1.506 0
M  V30 5034 O 471.654 1.05045 1.63337 0
M  V30 5035 C 468.784 2.21477 2.67517 0
M  V30 5036 C 467.738 3.37256 2.63519 0
M  V30 5037 C 467.064 3.51576 4.02862 0
M  V30 5038 C 468.364 4.73157 2.21179 0
M  V30 5039 H 470.058 2.81832 1.01051 0
M  V30 5040 H 467.604 1.35599 0.484662 0
M  V30 5041 H 469.557 2.46055 3.42104 0
M  V30 5042 H 468.281 1.29144 2.99982 0
M  V30 5043 H 466.94 3.12675 1.9139 0
M  V30 5044 H 466.588 2.56676 4.32581 0
M  V30 5045 H 466.288 4.2943 4.01078 0
M  V30 5046 H 467.812 3.78467 4.79161 0
M  V30 5047 H 469.226 4.97158 2.85494 0
M  V30 5048 H 467.623 5.54058 2.30521 0
M  V30 5049 H 468.693 4.70739 1.16332 0
M  V30 5050 N 470.036 -0.519951 1.48776 0
M  V30 5051 C 471.313 -1.28123 1.47797 0
M  V30 5052 C 471.693 -2.10196 0.195157 0
M  V30 5053 O 471.041 -2.13167 -0.822925 0
M  V30 5054 C 471.251 -2.15413 2.74587 0
M  V30 5055 C 472.599 -2.75225 3.23321 0
M  V30 5056 O 473.623 -2.25694 2.75574 0
M  V30 5057 O 472.482 -3.65346 4.06429 0
M  V30 5058 H 469.576 -0.578793 0.590701 0
M  V30 5059 H 472.122 -0.535779 1.6102 0
M  V30 5060 H 470.894 -1.54617 3.59457 0
M  V30 5061 H 470.517 -2.97186 2.64132 0
M  V30 5062 N 471.514 -1.37532 -0.769588 0
M  V30 5063 C 472.763 -1.32183 -1.5235 0
M  V30 5064 C 473.076 0.0906555 -1.9539 0
M  V30 5065 O 474.282 0.266628 -2.70188 0
M  V30 5066 C 472.738 -2.32029 -2.75119 0
M  V30 5067 C 472.346 -3.78816 -2.3917 0
M  V30 5068 C 474.09 -2.35694 -3.53056 0
M  V30 5069 C 471.997 -4.70388 -3.58453 0
M  V30 5070 H 470.927 -0.491275 -0.571984 0
M  V30 5071 H 473.578 -1.63004 -0.842739 0
M  V30 5072 H 471.96 -1.94229 -3.45096 0
M  V30 5073 H 473.134 -4.25466 -1.76962 0
M  V30 5074 H 471.449 -3.78117 -1.74402 0
M  V30 5075 H 474.046 -3.01312 -4.41718 0
M  V30 5076 H 474.389 -1.37117 -3.93071 0
M  V30 5077 H 474.922 -2.72212 -2.90078 0
M  V30 5078 H 471.661 -5.70102 -3.23518 0
M  V30 5079 H 471.181 -4.28442 -4.19758 0
M  V30 5080 H 472.86 -4.87628 -4.25239 0
M  V30 5081 N 472.992 0.995999 -1.22138 0
M  V30 5082 C 474.403 1.54961 -1.04135 0
M  V30 5083 C 474.754 1.92159 0.396147 0
M  V30 5084 O 473.879 1.74435 1.28069 0
M  V30 5085 C 474.474 2.81581 -1.88408 0
M  V30 5086 C 473.033 3.33396 -1.74712 0
M  V30 5087 C 472.18 2.06509 -1.85066 0
M  V30 5088 H 475.131 0.817436 -1.36028 0
M  V30 5089 H 475.152 3.53822 -1.39966 0
M  V30 5090 H 474.664 2.54476 -2.93025 0
M  V30 5091 H 472.765 3.65416 -0.728159 0
M  V30 5092 H 472.878 4.04208 -2.57202 0
M  V30 5093 H 471.242 2.19925 -1.28472 0
M  V30 5094 H 472.025 1.81804 -2.91208 0
M  V30 5095 N 474.47 1.03057 1.19235 0
M  V30 5096 C 475.403 0.557384 2.21288 0
M  V30 5097 C 476.381 -0.402675 1.57535 0
M  V30 5098 O 477.565 -0.319376 1.85775 0
M  V30 5099 C 474.692 -0.187041 3.38183 0
M  V30 5100 C 473.738 0.72471 4.20298 0
M  V30 5101 S 474.571 2.20187 4.88137 0
M  V30 5102 C 475.727 1.46801 6.08441 0
M  V30 5103 H 475.96 1.42207 2.61083 0
M  V30 5104 H 473.493 0.840651 1.29508 0
M  V30 5105 H 475.451 -0.610405 4.05936 0
M  V30 5106 H 474.112 -1.02748 2.96819 0
M  V30 5107 H 473.305 0.149911 5.03777 0
M  V30 5108 H 472.907 1.08647 3.57871 0
M  V30 5109 H 475.199 0.755522 6.73274 0
M  V30 5110 H 476.142 2.27946 6.70407 0
M  V30 5111 H 476.55 0.964762 5.56195 0
M  V30 5112 N 475.948 -1.35272 0.808662 0
M  V30 5113 C 476.878 -2.32315 0.234981 0
M  V30 5114 C 477.859 -1.57572 -0.64071 0
M  V30 5115 O 479.044 -1.8563 -0.570551 0
M  V30 5116 C 476.174 -3.41801 -0.615601 0
M  V30 5117 C 475.128 -4.27694 0.161767 0
M  V30 5118 C 474.454 -5.28519 -0.810649 0
M  V30 5119 C 475.754 -5.04231 1.36193 0
M  V30 5120 H 477.448 -2.80543 1.04575 0
M  V30 5121 H 474.994 -1.3488 0.504315 0
M  V30 5122 H 476.947 -4.08693 -1.02702 0
M  V30 5123 H 475.671 -2.92186 -1.45928 0
M  V30 5124 H 474.33 -3.62384 0.554382 0
M  V30 5125 H 473.978 -4.75171 -1.64988 0
M  V30 5126 H 473.678 -5.8686 -0.294822 0
M  V30 5127 H 475.202 -5.98283 -1.22023 0
M  V30 5128 H 476.616 -5.64058 1.02528 0
M  V30 5129 H 475.013 -5.72077 1.81239 0
M  V30 5130 H 476.083 -4.34753 2.14751 0
M  V30 5131 N 477.426 -0.562348 -1.47226 0
M  V30 5132 C 478.356 0.170627 -2.32876 0
M  V30 5133 C 479.337 0.903748 -1.44106 0
M  V30 5134 O 480.522 0.883206 -1.72954 0
M  V30 5135 C 477.652 1.19786 -3.25989 0
M  V30 5136 C 476.606 0.580875 -4.2404 0
M  V30 5137 C 475.932 1.71311 -5.06514 0
M  V30 5138 C 477.232 -0.468714 -5.20193 0
M  V30 5139 H 478.926 -0.544441 -2.94408 0
M  V30 5140 H 476.472 -0.263271 -1.41573 0
M  V30 5141 H 478.425 1.71884 -3.84752 0
M  V30 5142 H 477.149 1.94294 -2.62521 0
M  V30 5143 H 475.808 0.0811538 -3.6651 0
M  V30 5144 H 475.456 2.44736 -4.39447 0
M  V30 5145 H 475.156 1.30604 -5.72902 0
M  V30 5146 H 476.68 2.23725 -5.68137 0
M  V30 5147 H 478.094 -0.0336028 -5.7329 0
M  V30 5148 H 476.491 -0.794957 -5.94811 0
M  V30 5149 H 477.561 -1.36269 -4.65359 0
M  V30 5150 N 478.904 1.54736 -0.299062 0
M  V30 5151 C 480.134 2.04215 0.312992 0
M  V30 5152 C 480.542 1.17596 1.48215 0
M  V30 5153 O 479.885 0.193835 1.82674 0
M  V30 5154 C 479.947 3.49696 0.833862 0
M  V30 5155 C 479.611 4.56518 -0.20977 0
M  V30 5156 C 480.608 5.09442 -1.03756 0
M  V30 5157 C 478.293 5.01073 -0.35091 0
M  V30 5158 C 480.287 6.05459 -1.99244 0
M  V30 5159 C 477.974 5.9691 -1.30924 0
M  V30 5160 C 478.972 6.48987 -2.1285 0
M  V30 5161 O 478.66 7.42947 -3.07059 0
M  V30 5162 H 478.392 0.672128 0.0722494 0
M  V30 5163 H 480.946 2.00718 -0.436043 0
M  V30 5164 H 479.176 3.5051 1.63339 0
M  V30 5165 H 480.865 3.82381 1.36159 0
M  V30 5166 H 481.631 4.75816 -0.939376 0
M  V30 5167 H 477.51 4.60168 0.276813 0
M  V30 5168 H 481.054 6.46031 -2.63229 0
M  V30 5169 H 476.951 6.29953 -1.40815 0
M  V30 5170 H 477.719 7.60743 -3.02015 0
M  V30 5171 N 480.382 0.0267497 1.57577 0
M  V30 5172 C 481.628 -0.653371 1.91987 0
M  V30 5173 C 481.961 -1.71915 0.903263 0
M  V30 5174 O 481.236 -1.94358 -0.0743387 0
M  V30 5175 C 481.519 -1.272 3.36886 0
M  V30 5176 C 481.372 -0.215938 4.49281 0
M  V30 5177 C 482.691 -2.19069 3.81703 0
M  V30 5178 H 479.81 -0.236047 0.698177 0
M  V30 5179 H 482.452 0.0835236 1.89816 0
M  V30 5180 H 480.602 -1.90005 3.38866 0
M  V30 5181 H 482.274 0.41449 4.59434 0
M  V30 5182 H 480.517 0.458855 4.31366 0
M  V30 5183 H 481.188 -0.688347 5.47691 0
M  V30 5184 H 483.664 -1.66253 3.81444 0
M  V30 5185 H 482.54 -2.59307 4.83788 0
M  V30 5186 H 482.801 -3.08087 3.17072 0
M  V30 5187 N 481.861 -1.55662 -0.24637 0
M  V30 5188 C 482.808 -1.90361 -1.30504 0
M  V30 5189 C 483.778 -0.757905 -1.47801 0
M  V30 5190 O 484.963 -1.01161 -1.61775 0
M  V30 5191 C 482.103 -2.2042 -2.65535 0
M  V30 5192 C 481.216 -3.47799 -2.56242 0
M  V30 5193 C 480.351 -3.67426 -3.8363 0
M  V30 5194 C 479.39 -4.88403 -3.68956 0
M  V30 5195 N 478.527 -5.04548 -4.88237 0
M  V30 5196 H 483.367 -2.80645 -1.00213 0
M  V30 5197 H 480.904 -1.38924 -0.483577 0
M  V30 5198 H 482.862 -2.35853 -3.44135 0
M  V30 5199 H 481.492 -1.3334 -2.93973 0
M  V30 5200 H 480.544 -3.40694 -1.69208 0
M  V30 5201 H 481.856 -4.36544 -2.4131 0
M  V30 5202 H 481.01 -3.82821 -4.70673 0
M  V30 5203 H 479.749 -2.76914 -4.01459 0
M  V30 5204 H 478.754 -4.72984 -2.80296 0
M  V30 5205 H 479.979 -5.80375 -3.52621 0
M  V30 5206 H 477.925 -4.16974 -5.06427 0
M  V30 5207 H 477.842 -5.87384 -4.75937 0
M  V30 5208 H 479.11 -5.24355 -5.76777 0
M  V30 5209 N 483.339 0.512053 -1.4905 0
M  V30 5210 C 484.579 1.27715 -1.59588 0
M  V30 5211 C 484.943 1.90071 -0.271502 0
M  V30 5212 O 486.144 2.67616 -0.251987 0
M  V30 5213 C 484.415 2.32399 -2.71524 0
M  V30 5214 S 485.974 3.18396 -3.01943 0
M  V30 5215 H 482.792 0.43419 -0.563027 0
M  V30 5216 H 485.394 0.581315 -1.86657 0
M  V30 5217 H 484.098 1.85101 -3.66287 0
M  V30 5218 H 483.629 3.06667 -2.46412 0
M  V30 5219 H 485.644 4.32842 -2.42616 0
M  V30 5220 N 484.817 1.37938 0.762283 0
M  V30 5221 C 486.066 1.32989 1.51647 0
M  V30 5222 C 486.379 -0.0802922 1.95435 0
M  V30 5223 O 487.585 -0.252295 2.70325 0
M  V30 5224 C 486.041 2.33485 2.73885 0
M  V30 5225 C 485.649 3.80079 2.37157 0
M  V30 5226 C 487.393 2.37563 3.51801 0
M  V30 5227 C 485.3 4.72283 3.55954 0
M  V30 5228 H 484.23 0.494301 0.56937 0
M  V30 5229 H 486.881 1.63448 0.834083 0
M  V30 5230 H 485.263 1.96056 3.44061 0
M  V30 5231 H 486.437 4.26398 1.74704 0
M  V30 5232 H 484.752 3.79037 1.72395 0
M  V30 5233 H 487.349 3.0365 4.40114 0
M  V30 5234 H 487.692 1.39199 3.92338 0
M  V30 5235 H 488.225 2.73747 2.8863 0
M  V30 5236 H 484.964 5.7181 3.2049 0
M  V30 5237 H 484.484 4.30663 4.1748 0
M  V30 5238 H 486.163 4.89876 4.22647 0
M  V30 5239 N 486.295 -0.989507 1.22664 0
M  V30 5240 C 487.243 -2.10148 0.997035 0
M  V30 5241 C 488.237 -1.6929 -0.0609783 0
M  V30 5242 O 489.443 -1.79766 0.0917523 0
M  V30 5243 H 485.818 -0.687256 0.305259 0
M  V30 5244 H 487.789 -2.26685 1.94053 0
M  V30 5245 C 486.538 -3.4257 0.595085 0
M  V30 5246 H 485.861 -3.74453 1.40089 0
M  V30 5247 H 487.301 -4.21344 0.473869 0
M  V30 5248 C 485.76 -3.29638 -0.695725 0
M  V30 5249 O 486.29 -3.61709 -1.74727 0
M  V30 5250 N 484.496 -2.82814 -0.668173 0
M  V30 5251 H 484.043 -2.56914 0.18787 0
M  V30 5252 H 484.001 -2.74544 -1.5321 0
M  V30 5253 N 487.773 -1.03688 -1.18687 0
M  V30 5254 C 488.998 -0.757819 -1.93059 0
M  V30 5255 C 489.423 0.678353 -1.75442 0
M  V30 5256 O 488.781 1.46938 -1.06203 0
M  V30 5257 C 488.829 -1.12423 -3.42627 0
M  V30 5258 O 487.933 -0.247505 -4.11657 0
M  V30 5259 H 487.274 -0.279245 -0.602427 0
M  V30 5260 H 489.804 -1.3857 -1.5053 0
M  V30 5261 H 489.814 -1.08454 -3.93322 0
M  V30 5262 H 488.489 -2.17049 -3.54771 0
M  V30 5263 H 487.066 -0.34649 -3.71287 0
M  V30 5264 N 489.251 1.34841 -0.815825 0
M  V30 5265 C 490.5 1.97755 -0.396976 0
M  V30 5266 C 490.813 1.65422 1.04379 0
M  V30 5267 O 492.019 2.21771 1.5662 0
M  V30 5268 C 490.475 3.53818 -0.658869 0
M  V30 5269 C 490.083 3.95051 -2.11278 0
M  V30 5270 C 491.827 4.23397 -0.305834 0
M  V30 5271 C 489.734 5.43997 -2.31994 0
M  V30 5272 H 488.664 0.739985 -0.1447 0
M  V30 5273 H 491.315 1.53781 -1.00118 0
M  V30 5274 H 489.697 3.95997 0.0154112 0
M  V30 5275 H 490.871 3.63998 -2.82564 0
M  V30 5276 H 489.186 3.38388 -2.42657 0
M  V30 5277 H 491.783 5.32899 -0.43854 0
M  V30 5278 H 492.126 4.09508 0.748952 0
M  V30 5279 H 492.659 3.8667 -0.934403 0
M  V30 5280 H 489.398 5.62865 -3.35952 0
M  V30 5281 H 488.918 5.76589 -1.65244 0
M  V30 5282 H 490.597 6.10584 -2.14001 0
M  V30 5283 N 490.729 0.570148 1.46925 0
M  V30 5284 C 492.006 -0.0153259 1.95594 0
M  V30 5285 C 492.386 -1.47232 1.51281 0
M  V30 5286 O 491.734 -2.15574 0.757624 0
M  V30 5287 C 491.944 0.143624 3.48704 0
M  V30 5288 C 493.292 0.00494484 4.246 0
M  V30 5289 O 494.316 0.0718214 3.56128 0
M  V30 5290 O 493.175 -0.141175 5.46318 0
M  V30 5291 H 490.269 -0.0568819 0.825041 0
M  V30 5292 H 492.815 0.637583 1.57267 0
M  V30 5293 H 491.587 1.15699 3.73804 0
M  V30 5294 H 491.21 -0.5463 3.93829 0
M  V30 5295 N 492.207 -1.54576 0.307264 0
M  V30 5296 C 493.14 -2.19946 -0.608195 0
M  V30 5297 C 494.118 -1.17096 -1.12815 0
M  V30 5298 O 495.302 -1.45766 -1.19518 0
M  V30 5299 C 492.429 -2.84826 -1.8328 0
M  V30 5300 C 491.475 -4.01256 -1.44554 0
M  V30 5301 S 492.308 -5.33197 -0.49612 0
M  V30 5302 C 493.464 -6.01563 -1.72838 0
M  V30 5303 H 493.697 -2.97253 -0.0528544 0
M  V30 5304 H 491.23 -1.54129 0.0913837 0
M  V30 5305 H 493.188 -3.22832 -2.53554 0
M  V30 5306 H 491.849 -2.07353 -2.35931 0
M  V30 5307 H 491.042 -4.45457 -2.35762 0
M  V30 5308 H 490.644 -3.6484 -0.822671 0
M  V30 5309 H 492.936 -6.22751 -2.6681 0
M  V30 5310 H 493.879 -6.9552 -1.32882 0
M  V30 5311 H 494.287 -5.31279 -1.90795 0
M  V30 5312 N 493.685 -0.035106 -1.57561 0
M  V30 5313 C 494.934 0.641604 -1.91223 0
M  V30 5314 C 495.247 1.72944 -0.913761 0
M  V30 5315 O 496.453 2.46321 -1.14185 0
M  V30 5316 C 494.909 1.19249 -3.3957 0
M  V30 5317 C 494.517 0.137616 -4.47789 0
M  V30 5318 C 496.261 1.84537 -3.82291 0
M  V30 5319 C 494.168 0.700478 -5.87237 0
M  V30 5320 H 493.098 0.243417 -0.713627 0
M  V30 5321 H 495.749 -0.101382 -1.8322 0
M  V30 5322 H 494.131 1.98728 -3.42525 0
M  V30 5323 H 495.305 -0.635153 -4.56402 0
M  V30 5324 H 493.62 -0.416855 -4.14308 0
M  V30 5325 H 496.217 2.27616 -4.83834 0
M  V30 5326 H 496.56 2.69054 -3.17672 0
M  V30 5327 H 497.093 1.11739 -3.81784 0
M  V30 5328 H 493.832 -0.106693 -6.55413 0
M  V30 5329 H 493.352 1.4416 -5.82218 0
M  V30 5330 H 495.031 1.18837 -6.35993 0
M  V30 5331 N 495.163 1.55791 0.238111 0
M  V30 5332 C 496.111 1.91885 1.31464 0
M  V30 5333 C 497.105 0.798929 1.49377 0
M  V30 5334 O 498.311 0.983626 1.50747 0
M  V30 5335 H 494.686 0.609551 0.440399 0
M  V30 5336 H 496.657 2.81747 0.982925 0
M  V30 5337 C 495.406 2.23763 2.6613 0
M  V30 5338 H 494.729 3.09444 2.53149 0
M  V30 5339 H 496.169 2.52915 3.40309 0
M  V30 5340 C 494.628 1.05699 3.1989 0
M  V30 5341 O 495.158 0.309524 4.00506 0
M  V30 5342 N 493.364 0.845251 2.78036 0
M  V30 5343 H 492.911 1.4548 2.12588 0
M  V30 5344 H 492.869 0.0569973 3.14348 0
M  V30 5345 N 496.642 -0.504142 1.49319 0
M  V30 5346 C 497.572 -1.61473 1.68667 0
M  V30 5347 C 498.553 -1.61455 0.535378 0
M  V30 5348 O 499.738 -1.78245 0.770868 0
M  V30 5349 C 496.868 -2.99971 1.75028 0
M  V30 5350 C 495.822 -3.14854 2.89916 0
M  V30 5351 C 495.148 -4.54671 2.81387 0
M  V30 5352 C 496.448 -2.95176 4.30893 0
M  V30 5353 H 498.142 -1.45535 2.61648 0
M  V30 5354 H 495.688 -0.698711 1.25913 0
M  V30 5355 H 497.641 -3.77562 1.8715 0
M  V30 5356 H 496.365 -3.1699 0.786441 0
M  V30 5357 H 495.024 -2.39687 2.77391 0
M  V30 5358 H 494.672 -4.68562 1.82917 0
M  V30 5359 H 494.372 -4.6557 3.58494 0
M  V30 5360 H 495.896 -5.34327 2.95512 0
M  V30 5361 H 497.31 -3.62538 4.44116 0
M  V30 5362 H 495.707 -3.17549 5.09198 0
M  V30 5363 H 496.777 -1.91332 4.45556 0
M  V30 5364 N 498.12 -1.38341 -0.754957 0
M  V30 5365 C 499.348 -1.37704 -1.54419 0
M  V30 5366 C 499.763 0.0335243 -1.8877 0
M  V30 5367 O 499.12 0.999773 -1.52679 0
M  V30 5368 C 499.171 -2.23136 -2.84416 0
M  V30 5369 O 498.892 -3.58697 -2.51531 0
M  V30 5370 C 500.393 -2.30664 -3.78562 0
M  V30 5371 H 497.613 -0.471061 -0.477852 0
M  V30 5372 H 500.157 -1.81902 -0.934446 0
M  V30 5373 H 498.312 -1.82403 -3.41772 0
M  V30 5374 H 498.726 -4.03665 -3.34896 0
M  V30 5375 H 500.2 -2.9473 -4.66732 0
M  V30 5376 H 500.677 -1.3199 -4.18898 0
M  V30 5377 H 501.283 -2.71781 -3.27131 0
M  V30 5378 N 499.598 0.982988 -1.23187 0
M  V30 5379 C 500.545 2.07491 -1.01075 0
M  V30 5380 C 501.515 1.65949 0.070905 0
M  V30 5381 O 502.7 1.90629 -0.0806822 0
M  V30 5382 C 499.84 3.39751 -0.605261 0
M  V30 5383 C 498.953 3.94578 -1.75876 0
M  V30 5384 C 498.088 5.15039 -1.3003 0
M  V30 5385 C 497.127 5.62027 -2.42472 0
M  V30 5386 N 496.264 6.73719 -1.97602 0
M  V30 5387 H 501.104 2.25739 -1.9454 0
M  V30 5388 H 498.641 1.10659 -0.969179 0
M  V30 5389 H 500.599 4.15719 -0.351279 0
M  V30 5390 H 499.229 3.21473 0.292382 0
M  V30 5391 H 498.281 3.1539 -2.12681 0
M  V30 5392 H 499.593 4.25422 -2.60418 0
M  V30 5393 H 498.747 5.9833 -1.00429 0
M  V30 5394 H 497.486 4.85843 -0.425216 0
M  V30 5395 H 496.491 4.77318 -2.7285 0
M  V30 5396 H 497.716 5.93244 -3.30512 0
M  V30 5397 H 495.662 6.46287 -1.1247 0
M  V30 5398 H 495.579 7.03934 -2.75705 0
M  V30 5399 H 496.847 7.6049 -1.71098 0
M  V30 5400 N 501.076 1.04316 1.18135 0
M  V30 5401 C 502.006 0.657299 2.24058 0
M  V30 5402 C 502.987 -0.340678 1.66654 0
M  V30 5403 O 504.172 -0.220223 1.92947 0
M  V30 5404 C 501.302 0.0220715 3.47293 0
M  V30 5405 C 500.256 0.943857 4.17463 0
M  V30 5406 C 499.582 0.172973 5.3442 0
M  V30 5407 C 500.882 2.26409 4.70677 0
M  V30 5408 H 502.576 1.5428 2.56589 0
M  V30 5409 H 500.122 0.743263 1.23335 0
M  V30 5410 H 502.075 -0.259607 4.206 0
M  V30 5411 H 500.799 -0.898323 3.14003 0
M  V30 5412 H 499.458 1.20996 3.46057 0
M  V30 5413 H 499.106 -0.749907 4.97379 0
M  V30 5414 H 498.806 0.787098 5.82304 0
M  V30 5415 H 500.33 -0.101628 6.10515 0
M  V30 5416 H 501.744 2.04294 5.35665 0
M  V30 5417 H 500.141 2.8314 5.29105 0
M  V30 5418 H 501.211 2.90883 3.87962 0
M  V30 5419 N 502.554 -1.34406 0.822964 0
M  V30 5420 C 503.831 -1.92733 0.333641 0
M  V30 5421 C 504.211 -1.75107 -1.17901 0
M  V30 5422 O 503.559 -1.12983 -1.98613 0
M  V30 5423 C 503.769 -3.40557 0.763023 0
M  V30 5424 C 505.117 -4.17709 0.761879 0
M  V30 5425 O 506.141 -3.49141 0.705606 0
M  V30 5426 O 505 -5.40082 0.835109 0
M  V30 5427 H 502.094 -0.821964 0.0911249 0
M  V30 5428 H 504.64 -1.4338 0.907757 0
M  V30 5429 H 503.412 -3.47187 1.8049 0
M  V30 5430 H 503.035 -3.97259 0.164605 0
M  V30 5431 N 504.032 -0.577932 -1.46621 0
M  V30 5432 C 505.278 -0.0617793 -2.02706 0
M  V30 5433 C 505.611 1.29294 -1.44903 0
M  V30 5434 O 504.886 1.8461 -0.61232 0
M  V30 5435 C 505.169 0.00911824 -3.60099 0
M  V30 5436 C 505.022 -1.37416 -4.28295 0
M  V30 5437 C 506.341 0.712159 -4.343 0
M  V30 5438 H 503.46 -0.0239246 -0.736612 0
M  V30 5439 H 506.102 -0.744211 -1.74818 0
M  V30 5440 H 504.252 0.590292 -3.83989 0
M  V30 5441 H 505.924 -2.00013 -4.15683 0
M  V30 5442 H 504.167 -1.94319 -3.87843 0
M  V30 5443 H 504.838 -1.27707 -5.37024 0
M  V30 5444 H 507.314 0.218486 -4.15526 0
M  V30 5445 H 506.19 0.730782 -5.44014 0
M  V30 5446 H 506.451 1.77251 -4.05012 0
M  V30 5447 N 505.51 1.54411 -0.315457 0
M  V30 5448 C 506.44 2.27002 0.547039 0
M  V30 5449 C 507.421 1.27492 1.12605 0
M  V30 5450 O 508.606 1.5629 1.15269 0
M  V30 5451 C 505.736 3.02171 1.71201 0
M  V30 5452 C 504.69 4.0895 1.26268 0
M  V30 5453 C 504.016 4.71915 2.51396 0
M  V30 5454 C 505.316 5.20891 0.383419 0
M  V30 5455 H 507.01 2.99343 -0.0584517 0
M  V30 5456 H 504.556 1.4397 -0.0295527 0
M  V30 5457 H 506.509 3.51681 2.32161 0
M  V30 5458 H 505.233 2.27433 2.34397 0
M  V30 5459 H 503.892 3.60312 0.676062 0
M  V30 5460 H 503.54 3.93801 3.12937 0
M  V30 5461 H 503.24 5.44039 2.22026 0
M  V30 5462 H 504.764 5.24195 3.13133 0
M  V30 5463 H 506.178 5.66206 0.899082 0
M  V30 5464 H 504.575 5.99821 0.182857 0
M  V30 5465 H 505.645 4.81324 -0.587821 0
M  V30 5466 N 506.988 0.0434614 1.5754 0
M  V30 5467 C 508.213 -0.645358 1.97104 0
M  V30 5468 C 508.638 -1.64037 0.920521 0
M  V30 5469 O 507.996 -1.80922 -0.11708 0
M  V30 5470 C 508.044 -1.31547 3.35749 0
M  V30 5471 O 507.148 -2.43103 3.33129 0
M  V30 5472 H 506.489 -0.168403 0.64229 0
M  V30 5473 H 509.019 0.109573 2.04306 0
M  V30 5474 H 509.029 -1.66895 3.72304 0
M  V30 5475 H 507.704 -0.586205 4.11748 0
M  V30 5476 H 506.281 -2.0976 3.0831 0
M  V30 5477 N 508.466 -1.55915 -0.229846 0
M  V30 5478 C 509.714 -1.7819 -0.953565 0
M  V30 5479 C 510.035 -0.610504 -1.85197 0
M  V30 5480 O 509.305 0.372988 -1.92316 0
M  V30 5481 H 507.885 -0.657208 -0.355087 0
M  V30 5482 H 510.547 -1.9337 -0.243693 0
M  V30 5483 H 509.643 -2.70011 -1.56527 0
M  V30 5484 N 509.944 0.496216 -1.49584 0
M  V30 5485 C 510.874 1.60576 -1.69521 0
M  V30 5486 C 511.855 1.61169 -0.543933 0
M  V30 5487 O 513.04 1.77834 -0.78031 0
M  V30 5488 C 510.17 2.99038 -1.76616 0
M  V30 5489 C 509.124 3.13312 -2.91581 0
M  V30 5490 C 508.45 4.53172 -2.83794 0
M  V30 5491 C 509.75 2.92886 -4.32452 0
M  V30 5492 H 511.444 1.44146 -2.62416 0
M  V30 5493 H 508.99 0.692024 -1.26282 0
M  V30 5494 H 510.943 3.76564 -1.8915 0
M  V30 5495 H 509.667 3.16568 -0.80324 0
M  V30 5496 H 508.326 2.38213 -2.78658 0
M  V30 5497 H 507.974 4.67585 -1.854 0
M  V30 5498 H 507.674 4.63662 -3.60958 0
M  V30 5499 H 509.198 5.32752 -2.98342 0
M  V30 5500 H 510.612 3.60178 -4.46032 0
M  V30 5501 H 509.009 3.14844 -5.10875 0
M  V30 5502 H 510.079 1.88966 -4.46565 0
M  V30 5503 N 511.423 1.38739 0.74761 0
M  V30 5504 C 512.333 1.38696 1.89211 0
M  V30 5505 C 513.349 0.283303 1.71678 0
M  V30 5506 O 514.525 0.522713 1.94498 0
M  V30 5507 C 511.59 1.21662 3.24653 0
M  V30 5508 C 510.651 2.41886 3.54669 0
M  V30 5509 C 509.884 2.25655 4.83648 0
M  V30 5510 O 510.107 1.25339 5.56459 0
M  V30 5511 O 509.041 3.14372 5.13277 0
M  V30 5512 H 512.867 2.35143 1.92202 0
M  V30 5513 H 510.452 1.19721 0.893708 0
M  V30 5514 H 512.334 1.14246 4.05618 0
M  V30 5515 H 511.009 0.283024 3.2246 0
M  V30 5516 H 509.916 2.54877 2.73841 0
M  V30 5517 H 511.249 3.33895 3.61628 0
M  V30 5518 N 512.901 -0.976442 1.23707 0
M  V30 5519 C 513.811 -2.10359 1.03856 0
M  V30 5520 C 514.827 -1.73991 -0.0180919 0
M  V30 5521 O 516.003 -2.0061 0.178211 0
M  V30 5522 C 513.068 -3.40809 0.636387 0
M  V30 5523 C 512.129 -3.91179 1.76854 0
M  V30 5524 C 511.362 -5.15404 1.38546 0
M  V30 5525 O 511.585 -5.69754 0.27142 0
M  V30 5526 O 510.519 -5.5994 2.20797 0
M  V30 5527 H 514.345 -2.29997 1.98331 0
M  V30 5528 H 511.93 -1.08742 1.02448 0
M  V30 5529 H 513.812 -4.19269 0.423223 0
M  V30 5530 H 512.487 -3.22493 -0.279322 0
M  V30 5531 H 511.394 -3.13819 2.03638 0
M  V30 5532 H 512.727 -4.13958 2.6627 0
M  V30 5533 N 514.379 -1.04941 -1.1758 0
M  V30 5534 C 515.628 -0.753124 -1.87112 0
M  V30 5535 C 515.941 0.722507 -1.81767 0
M  V30 5536 O 517.147 1.13265 -2.46746 0
M  V30 5537 C 515.603 -1.29695 -3.35719 0
M  V30 5538 C 515.211 -2.80184 -3.49572 0
M  V30 5539 C 516.955 -1.07759 -4.10595 0
M  V30 5540 C 514.862 -3.2788 -4.92187 0
M  V30 5541 H 513.792 -0.278034 -0.700866 0
M  V30 5542 H 516.443 -1.26637 -1.32798 0
M  V30 5543 H 514.825 -0.711522 -3.89555 0
M  V30 5544 H 515.999 -3.44561 -3.05965 0
M  V30 5545 H 514.314 -3.00632 -2.88113 0
M  V30 5546 H 516.911 -1.40899 -5.15802 0
M  V30 5547 H 517.254 -0.0152302 -4.16297 0
M  V30 5548 H 517.787 -1.62809 -3.62957 0
M  V30 5549 H 514.526 -4.33535 -4.91658 0
M  V30 5550 H 514.046 -2.68245 -5.36475 0
M  V30 5551 H 515.725 -3.22412 -5.60945 0
M  V30 5552 N 515.857 1.33968 -0.830081 0
M  V30 5553 C 516.787 2.31911 -0.271911 0
M  V30 5554 C 517.768 1.58571 0.61556 0
M  V30 5555 O 518.953 1.86514 0.540946 0
M  V30 5556 C 516.083 3.42737 0.561146 0
M  V30 5557 C 515.037 4.27383 -0.229789 0
M  V30 5558 C 514.363 5.29742 0.726463 0
M  V30 5559 C 515.663 5.02 -1.44197 0
M  V30 5560 H 517.357 2.78844 -1.09025 0
M  V30 5561 H 514.903 1.34061 -0.52571 0
M  V30 5562 H 516.856 4.10276 0.961867 0
M  V30 5563 H 515.58 2.94471 1.41261 0
M  V30 5564 H 514.239 3.61456 -0.611964 0
M  V30 5565 H 513.887 4.77736 1.57408 0
M  V30 5566 H 513.587 5.87255 0.20142 0
M  V30 5567 H 515.111 6.00149 1.12489 0
M  V30 5568 H 516.525 5.62355 -1.11488 0
M  V30 5569 H 514.922 5.69122 -1.90317 0
M  V30 5570 H 515.992 4.31281 -2.2164 0
M  V30 5571 N 517.335 0.585699 1.46312 0
M  V30 5572 C 518.265 -0.133556 2.33118 0
M  V30 5573 C 519.246 -0.880707 1.45525 0
M  V30 5574 O 520.431 -0.855579 1.74337 0
M  V30 5575 C 517.561 -1.14585 3.27853 0
M  V30 5576 C 516.515 -0.513341 4.2491 0
M  V30 5577 C 515.841 -1.63231 5.09175 0
M  V30 5578 C 517.141 0.551413 5.19381 0
M  V30 5579 H 518.835 0.59121 2.93505 0
M  V30 5580 H 516.381 0.285761 1.41136 0
M  V30 5581 H 518.334 -1.65741 3.87438 0
M  V30 5582 H 517.058 -1.90093 2.65579 0
M  V30 5583 H 515.717 -0.0228349 3.66593 0
M  V30 5584 H 515.365 -2.37713 4.43285 0
M  V30 5585 H 515.065 -1.21473 5.74907 0
M  V30 5586 H 516.589 -2.14658 5.71624 0
M  V30 5587 H 518.003 0.124804 5.73164 0
M  V30 5588 H 516.4 0.889486 5.93471 0
M  V30 5589 H 517.47 1.43655 4.63132 0
M  V30 5590 N 518.813 -1.54241 0.323641 0
M  V30 5591 C 520.053 -2.0248 -0.279502 0
M  V30 5592 C 520.417 -1.20672 -1.49339 0
M  V30 5593 O 521.618 -1.58715 -2.1694 0
M  V30 5594 C 519.889 -3.52238 -0.605266 0
M  V30 5595 S 521.448 -4.22411 -1.18805 0
M  V30 5596 H 518.266 -0.705957 -0.0845313 0
M  V30 5597 H 520.868 -1.90089 0.456781 0
M  V30 5598 H 519.572 -4.094 0.286339 0
M  V30 5599 H 519.103 -3.6871 -1.37174 0
M  V30 5600 H 521.118 -4.30075 -2.47487 0
M  V30 5601 N 520.291 -0.0518155 -1.57515 0
M  V30 5602 C 521.537 0.622745 -1.93002 0
M  V30 5603 C 521.87 1.70456 -0.930499 0
M  V30 5604 O 521.145 1.94452 0.0434086 0
M  V30 5605 C 521.428 1.21824 -3.38867 0
M  V30 5606 C 521.281 0.144434 -4.49568 0
M  V30 5607 C 522.6 2.12968 -3.8514 0
M  V30 5608 H 519.719 0.22491 -0.701844 0
M  V30 5609 H 522.361 -0.113711 -1.89659 0
M  V30 5610 H 520.511 1.8459 -3.41846 0
M  V30 5611 H 522.183 -0.48753 -4.58717 0
M  V30 5612 H 520.426 -0.527424 -4.30582 0
M  V30 5613 H 521.097 0.601127 -5.48717 0
M  V30 5614 H 523.573 1.60163 -3.8404 0
M  V30 5615 H 522.449 2.51578 -4.87852 0
M  V30 5616 H 522.71 3.03004 -3.21934 0
M  V30 5617 N 521.769 1.56035 0.221574 0
M  V30 5618 C 522.717 1.93269 1.29421 0
M  V30 5619 C 523.711 0.814727 1.48521 0
M  V30 5620 O 524.917 0.999559 1.49696 0
M  V30 5621 H 521.292 0.614188 0.43391 0
M  V30 5622 H 523.263 2.82773 0.952987 0
M  V30 5623 C 522.012 2.26573 2.63742 0
M  V30 5624 H 521.335 3.12112 2.49853 0
M  V30 5625 H 522.775 2.5651 3.37607 0
M  V30 5626 C 521.234 1.09086 3.1875 0
M  V30 5627 O 521.764 0.351985 4.00155 0
M  V30 5628 N 519.97 0.874693 2.77124 0
M  V30 5629 H 519.517 1.47726 2.11033 0
M  V30 5630 H 519.475 0.0903349 3.1427 0
M  V30 5631 N 523.247 -0.488276 1.49845 0
M  V30 5632 C 524.494 -1.24157 1.59973 0
M  V30 5633 C 524.822 -1.92293 0.292182 0
M  V30 5634 O 524.077 -1.81942 -0.720813 0
M  V30 5635 C 524.376 -2.32152 2.71735 0
M  V30 5636 C 524.042 -1.81387 4.12807 0
M  V30 5637 C 522.704 -1.67262 4.51195 0
M  V30 5638 C 525.056 -1.43537 5.01045 0
M  V30 5639 C 522.384 -1.13685 5.7558 0
M  V30 5640 C 524.736 -0.914081 6.25961 0
M  V30 5641 C 523.4 -0.759327 6.63167 0
M  V30 5642 H 522.67 -0.454322 0.585383 0
M  V30 5643 H 525.317 -0.540261 1.83721 0
M  V30 5644 H 523.622 -3.08122 2.42008 0
M  V30 5645 H 525.319 -2.90164 2.76778 0
M  V30 5646 H 521.909 -1.93344 3.82513 0
M  V30 5647 H 526.093 -1.53292 4.72033 0
M  V30 5648 H 521.349 -1.00426 6.03096 0
M  V30 5649 H 525.523 -0.612066 6.93705 0
M  V30 5650 H 523.15 -0.342002 7.5943 0
M  V30 5651 N 524.725 -1.39134 -0.740242 0
M  V30 5652 C 525.672 -1.37434 -1.8542 0
M  V30 5653 C 526.642 -0.234822 -1.64432 0
M  V30 5654 O 527.827 -0.429125 -1.85912 0
M  V30 5655 C 524.967 -1.21844 -3.22875 0
M  V30 5656 C 524.08 -2.45296 -3.55603 0
M  V30 5657 C 523.215 -2.22334 -4.82432 0
M  V30 5658 C 522.254 -3.41488 -5.07988 0
M  V30 5659 N 521.391 -3.17877 -6.26018 0
M  V30 5660 H 526.231 -2.3266 -1.86207 0
M  V30 5661 H 523.768 -1.15578 -0.909946 0
M  V30 5662 H 525.726 -1.10818 -4.02213 0
M  V30 5663 H 524.356 -0.3025 -3.21379 0
M  V30 5664 H 523.408 -2.66945 -2.71006 0
M  V30 5665 H 524.72 -3.34063 -3.7041 0
M  V30 5666 H 523.874 -2.0852 -5.69741 0
M  V30 5667 H 522.613 -1.30954 -4.6979 0
M  V30 5668 H 521.618 -3.55807 -4.19144 0
M  V30 5669 H 522.843 -4.33763 -5.22519 0
M  V30 5670 H 520.789 -2.29156 -6.14673 0
M  V30 5671 H 520.706 -4.00198 -6.41387 0
M  V30 5672 H 521.974 -3.07746 -7.16179 0
M  V30 5673 N 526.204 0.969867 -1.24223 0
M  V30 5674 C 527.152 2.08535 -1.03034 0
M  V30 5675 C 528.146 1.69366 0.0340379 0
M  V30 5676 O 529.352 1.79597 -0.12034 0
M  V30 5677 H 525.727 0.682313 -0.316154 0
M  V30 5678 H 527.698 2.23569 -1.97635 0
M  V30 5679 C 526.447 3.4158 -0.649509 0
M  V30 5680 H 525.77 3.72177 -1.46028 0
M  V30 5681 H 527.21 4.20536 -0.540841 0
M  V30 5682 C 525.669 3.30703 0.643194 0
M  V30 5683 O 526.199 3.64443 1.68951 0
M  V30 5684 N 524.405 2.83841 0.623095 0
M  V30 5685 H 523.952 2.56583 -0.228719 0
M  V30 5686 H 523.91 2.76946 1.48823 0
M  V30 5687 N 527.682 1.05563 1.17022 0
M  V30 5688 C 528.629 0.659893 2.21165 0
M  V30 5689 C 529.599 -0.339813 1.62587 0
M  V30 5690 O 530.784 -0.230378 1.89404 0
M  V30 5691 C 527.924 0.0447297 3.45071 0
M  V30 5692 C 527.037 1.09372 4.17926 0
M  V30 5693 C 526.172 0.445481 5.29329 0
M  V30 5694 C 525.211 1.47852 5.93975 0
M  V30 5695 N 524.348 0.854172 6.96885 0
M  V30 5696 H 529.188 1.55243 2.54369 0
M  V30 5697 H 526.725 0.776336 1.24946 0
M  V30 5698 H 528.683 -0.329404 4.15898 0
M  V30 5699 H 527.313 -0.811244 3.1244 0
M  V30 5700 H 526.365 1.58564 3.45777 0
M  V30 5701 H 527.677 1.87773 4.62107 0
M  V30 5702 H 526.831 0.0179688 6.06697 0
M  V30 5703 H 525.57 -0.370481 4.86291 0
M  V30 5704 H 524.575 1.91601 5.15334 0
M  V30 5705 H 525.8 2.29645 6.39093 0
M  V30 5706 H 523.746 0.0587882 6.55974 0
M  V30 5707 H 523.663 1.57567 7.39397 0
M  V30 5708 H 524.931 0.451559 7.78191 0
M  V30 5709 N 529.16 -1.33526 0.837174 0
M  V30 5710 C 530.107 -2.29248 0.267169 0
M  V30 5711 C 531.077 -1.54252 -0.616071 0
M  V30 5712 O 532.262 -1.82559 -0.554699 0
M  V30 5713 C 529.402 -3.40638 -0.553152 0
M  V30 5714 C 528.515 -4.30548 0.353921 0
M  V30 5715 C 527.65 -5.29051 -0.477339 0
M  V30 5716 C 526.689 -6.106 0.42823 0
M  V30 5717 N 525.826 -7.01152 -0.364801 0
M  V30 5718 H 530.666 -2.77398 1.08877 0
M  V30 5719 H 528.203 -1.36496 0.54838 0
M  V30 5720 H 530.161 -4.03921 -1.04422 0
M  V30 5721 H 528.791 -2.93685 -1.33973 0
M  V30 5722 H 527.843 -3.68001 0.963289 0
M  V30 5723 H 529.155 -4.87631 1.04964 0
M  V30 5724 H 528.309 -5.97853 -1.0323 0
M  V30 5725 H 527.048 -4.72541 -1.2065 0
M  V30 5726 H 526.053 -5.40718 0.995219 0
M  V30 5727 H 527.278 -6.69193 1.15573 0
M  V30 5728 H 525.224 -6.47092 -1.07738 0
M  V30 5729 H 525.141 -7.5551 0.272238 0
M  V30 5730 H 526.409 -7.74263 -0.902054 0
M  V30 5731 N 530.638 -0.59345 -1.46 0
M  V30 5732 C 531.866 -0.0890934 -2.06708 0
M  V30 5733 C 532.281 1.2205 -1.44046 0
M  V30 5734 O 531.638 1.74029 -0.549551 0
M  V30 5735 C 531.689 0.0720263 -3.61428 0
M  V30 5736 O 531.41 -1.18574 -4.21748 0
M  V30 5737 C 532.911 0.609487 -4.3909 0
M  V30 5738 H 530.131 -0.0623628 -0.668096 0
M  V30 5739 H 532.675 -0.817171 -1.87464 0
M  V30 5740 H 530.83 0.750369 -3.80063 0
M  V30 5741 H 531.244 -1.0064 -5.14754 0
M  V30 5742 H 532.718 0.671363 -5.47902 0
M  V30 5743 H 533.195 1.62878 -4.07882 0
M  V30 5744 H 533.801 -0.03434 -4.25286 0
M  V30 5745 N 532.116 1.54067 -0.331816 0
M  V30 5746 C 533.364 2.00319 0.267739 0
M  V30 5747 C 533.685 1.22148 1.52003 0
M  V30 5748 O 532.955 0.325494 1.93177 0
M  V30 5749 H 531.535 0.740014 0.101922 0
M  V30 5750 H 534.197 1.89628 -0.450267 0
M  V30 5751 H 533.293 3.07765 0.518385 0
M  V30 5752 N 533.594 0.0601682 1.57485 0
M  V30 5753 C 534.504 -0.926121 2.15546 0
M  V30 5754 C 535.52 -1.33532 1.11558 0
M  V30 5755 O 536.696 -1.4104 1.4377 0
M  V30 5756 C 533.761 -2.17952 2.69625 0
M  V30 5757 C 532.822 -1.82783 3.88444 0
M  V30 5758 C 532.055 -3.02148 4.39935 0
M  V30 5759 O 532.278 -4.15803 3.90466 0
M  V30 5760 O 531.212 -2.82639 5.31412 0
M  V30 5761 H 535.038 -0.462289 3.00161 0
M  V30 5762 H 532.623 -0.162246 1.48516 0
M  V30 5763 H 534.505 -2.91474 3.04337 0
M  V30 5764 H 533.18 -2.63456 1.88077 0
M  V30 5765 H 532.087 -1.06549 3.58606 0
M  V30 5766 H 533.42 -1.42072 4.7125 0
M  V30 5767 N 535.072 -1.5615 -0.213296 0
M  V30 5768 C 536.002 -1.96109 -1.26742 0
M  V30 5769 C 536.983 -0.830448 -1.48451 0
M  V30 5770 O 538.168 -1.09339 -1.60495 0
M  V30 5771 C 535.298 -2.28492 -2.61551 0
M  V30 5772 C 534.252 -3.44124 -2.54485 0
M  V30 5773 C 533.578 -3.62134 -3.93399 0
M  V30 5774 C 534.878 -4.78855 -2.08556 0
M  V30 5775 H 536.572 -2.84412 -0.935434 0
M  V30 5776 H 534.118 -1.36836 -0.44854 0
M  V30 5777 H 536.071 -2.55039 -3.3546 0
M  V30 5778 H 534.795 -1.37052 -2.96453 0
M  V30 5779 H 533.454 -3.17639 -1.83033 0
M  V30 5780 H 533.102 -2.68055 -4.25623 0
M  V30 5781 H 532.802 -4.39913 -3.89551 0
M  V30 5782 H 534.326 -3.91038 -4.68958 0
M  V30 5783 H 535.74 -5.04552 -2.72213 0
M  V30 5784 H 534.137 -5.59975 -2.1575 0
M  V30 5785 H 535.207 -4.73657 -1.03811 0
M  V30 5786 N 536.55 0.480323 -1.50102 0
M  V30 5787 C 537.48 1.58769 -1.71215 0
M  V30 5788 C 538.461 1.60583 -0.560997 0
M  V30 5789 O 539.646 1.76996 -0.799127 0
M  V30 5790 C 536.776 2.97148 -1.79778 0
M  V30 5791 C 535.73 3.10201 -2.94888 0
M  V30 5792 C 535.056 4.50137 -2.88584 0
M  V30 5793 C 536.356 2.88283 -4.35534 0
M  V30 5794 H 538.05 1.41354 -2.6393 0
M  V30 5795 H 535.596 0.678591 -1.27008 0
M  V30 5796 H 537.549 3.74536 -1.93133 0
M  V30 5797 H 536.273 3.15699 -0.836772 0
M  V30 5798 H 534.932 2.35244 -2.81169 0
M  V30 5799 H 534.58 4.65593 -1.90349 0
M  V30 5800 H 534.28 4.59808 -3.65856 0
M  V30 5801 H 535.804 5.29558 -3.03976 0
M  V30 5802 H 537.218 3.55427 -4.49827 0
M  V30 5803 H 535.615 3.09408 -5.14186 0
M  V30 5804 H 536.685 1.84219 -4.48544 0
M  V30 5805 N 538.028 1.39524 0.732853 0
M  V30 5806 C 538.938 1.40695 1.87729 0
M  V30 5807 C 539.954 0.301496 1.71368 0
M  V30 5808 O 541.13 0.543313 1.93933 0
M  V30 5809 C 538.195 1.25098 3.23344 0
M  V30 5810 C 537.256 2.45634 3.52083 0
M  V30 5811 C 536.489 2.30772 4.81228 0
M  V30 5812 O 536.712 1.31233 5.55098 0
M  V30 5813 O 535.646 3.19799 5.09914 0
M  V30 5814 H 539.472 2.37168 1.89697 0
M  V30 5815 H 537.057 1.20663 0.880959 0
M  V30 5816 H 538.939 1.18541 4.04383 0
M  V30 5817 H 537.614 0.317209 3.22142 0
M  V30 5818 H 536.521 2.57767 2.71122 0
M  V30 5819 H 537.854 3.37712 3.58066 0
M  V30 5820 N 539.506 -0.963266 1.24736 0
M  V30 5821 C 540.453 -2.05857 1.04363 0
M  V30 5822 C 541.423 -1.6604 -0.0444951 0
M  V30 5823 O 542.608 -1.90477 0.110999 0
M  V30 5824 C 539.748 -3.38745 0.659235 0
M  V30 5825 C 538.861 -3.9173 1.82131 0
M  V30 5826 C 537.996 -5.12906 1.38208 0
M  V30 5827 C 537.035 -5.58098 2.51382 0
M  V30 5828 N 536.172 -6.7049 2.08295 0
M  V30 5829 H 541.012 -2.22616 1.98107 0
M  V30 5830 H 538.549 -1.09103 0.986661 0
M  V30 5831 H 540.507 -4.15107 0.417371 0
M  V30 5832 H 539.137 -3.21898 -0.241201 0
M  V30 5833 H 538.189 -3.11966 2.17672 0
M  V30 5834 H 539.501 -4.21225 2.67153 0
M  V30 5835 H 538.655 -5.96657 1.09935 0
M  V30 5836 H 537.394 -4.85105 0.502456 0
M  V30 5837 H 536.399 -4.72917 2.80409 0
M  V30 5838 H 537.624 -5.87911 3.39909 0
M  V30 5839 H 535.57 -6.44416 1.22737 0
M  V30 5840 H 535.487 -6.99458 2.86869 0
M  V30 5841 H 536.755 -7.57672 1.83175 0
M  V30 5842 N 540.985 -1.06182 -1.16461 0
M  V30 5843 C 542.233 -0.776326 -1.86595 0
M  V30 5844 C 542.554 0.69921 -1.82033 0
M  V30 5845 O 541.824 1.50579 -1.2531 0
M  V30 5846 H 540.404 -0.284184 -0.690832 0
M  V30 5847 H 543.066 -1.34308 -1.41235 0
M  V30 5848 H 542.162 -1.10022 -2.92064 0
M  V30 5849 N 542.463 1.3308 -0.844243 0
M  V30 5850 C 543.703 1.99414 -0.448697 0
M  V30 5851 C 544.067 1.65398 0.975058 0
M  V30 5852 O 545.268 2.24741 1.47461 0
M  V30 5853 C 543.539 3.51081 -0.669089 0
M  V30 5854 S 545.098 4.37241 -0.369564 0
M  V30 5855 H 541.916 0.690736 -0.168538 0
M  V30 5856 H 544.518 1.61977 -1.0947 0
M  V30 5857 H 543.222 3.73326 -1.70457 0
M  V30 5858 H 542.753 3.93399 -0.00913211 0
M  V30 5859 H 544.768 4.89568 0.808552 0
M  V30 5860 N 543.941 0.601185 1.45683 0
M  V30 5861 C 545.171 0.0999093 2.06358 0
M  V30 5862 C 545.579 -1.21831 1.44754 0
M  V30 5863 O 544.922 -1.75157 0.553695 0
M  V30 5864 C 544.984 -0.12085 3.59297 0
M  V30 5865 C 544.648 1.11459 4.432 0
M  V30 5866 C 545.645 2.03118 4.7858 0
M  V30 5867 C 543.33 1.34162 4.84051 0
M  V30 5868 C 545.324 3.15814 5.53661 0
M  V30 5869 C 543.011 2.4716 5.58888 0
M  V30 5870 C 544.009 3.37814 5.93608 0
M  V30 5871 O 543.697 4.48846 6.66928 0
M  V30 5872 H 543.429 0.0630316 0.673055 0
M  V30 5873 H 545.983 0.826982 1.88016 0
M  V30 5874 H 544.213 -0.902744 3.76015 0
M  V30 5875 H 545.902 -0.572925 4.01836 0
M  V30 5876 H 546.668 1.86801 4.47583 0
M  V30 5877 H 542.547 0.645018 4.56465 0
M  V30 5878 H 546.091 3.86596 5.8068 0
M  V30 5879 H 541.988 2.63432 5.89299 0
M  V30 5880 H 542.756 4.47446 6.85371 0
M  V30 5881 N 545.419 -1.53889 0.339982 0
M  V30 5882 C 546.83 -1.86139 -0.144671 0
M  V30 5883 C 547.181 -1.2613 -1.50285 0
M  V30 5884 O 546.306 -0.573515 -2.08662 0
M  V30 5885 C 546.901 -3.37728 -0.269285 0
M  V30 5886 C 545.46 -3.69868 -0.698168 0
M  V30 5887 C 544.607 -2.76777 0.170249 0
M  V30 5888 H 547.558 -1.48503 0.559704 0
M  V30 5889 H 547.579 -3.64331 -1.0974 0
M  V30 5890 H 547.091 -3.81375 0.719366 0
M  V30 5891 H 545.192 -3.31764 -1.69597 0
M  V30 5892 H 545.305 -4.76582 -0.490533 0
M  V30 5893 H 543.669 -2.52188 -0.356844 0
M  V30 5894 H 544.452 -3.23253 1.15597 0
M  V30 5895 N 546.897 -0.0685191 -1.57451 0
M  V30 5896 C 548.143 0.602239 -1.93652 0
M  V30 5897 C 548.476 1.6946 -0.948526 0
M  V30 5898 O 547.751 1.94487 0.022782 0
M  V30 5899 C 548.034 1.18223 -3.4014 0
M  V30 5900 C 547.887 0.0967431 -4.49696 0
M  V30 5901 C 549.206 2.08872 -3.87377 0
M  V30 5902 H 546.325 0.217453 -0.70419 0
M  V30 5903 H 548.967 -0.133821 -1.89528 0
M  V30 5904 H 547.117 1.80953 -3.43785 0
M  V30 5905 H 548.789 -0.536155 -4.58174 0
M  V30 5906 H 547.032 -0.573063 -4.29998 0
M  V30 5907 H 547.703 0.542894 -5.49324 0
M  V30 5908 H 550.179 1.56081 -3.85717 0
M  V30 5909 H 549.055 2.46389 -4.90493 0
M  V30 5910 H 549.316 2.99572 -3.25129 0
M  V30 5911 N 548.375 1.56261 0.205012 0
M  V30 5912 C 549.285 1.96944 1.27476 0
M  V30 5913 C 550.301 0.875636 1.50362 0
M  V30 5914 O 551.477 1.18058 1.6317 0
M  V30 5915 C 548.542 2.29219 2.60115 0
M  V30 5916 C 547.603 3.52255 2.45387 0
M  V30 5917 C 546.836 3.8298 3.71701 0
M  V30 5918 O 547.059 3.15138 4.75441 0
M  V30 5919 O 545.993 4.76435 3.67823 0
M  V30 5920 H 549.819 2.88144 0.959527 0
M  V30 5921 H 547.404 1.43686 0.409217 0
M  V30 5922 H 549.286 2.51098 3.3842 0
M  V30 5923 H 547.961 1.4119 2.91285 0
M  V30 5924 H 546.868 3.35635 1.65227 0
M  V30 5925 H 548.201 4.40719 2.19152 0
M  V30 5926 N 549.853 -0.472356 1.50355 0
M  V30 5927 C 550.763 -1.59637 1.7191 0
M  V30 5928 C 551.779 -1.63247 0.602195 0
M  V30 5929 O 552.955 -1.81139 0.880369 0
M  V30 5930 C 550.02 -2.9586 1.80742 0
M  V30 5931 C 549.081 -3.02649 3.04471 0
M  V30 5932 C 548.314 -4.32374 3.12872 0
M  V30 5933 O 548.537 -5.22807 2.28099 0
M  V30 5934 O 547.471 -4.44728 4.05587 0
M  V30 5935 H 551.297 -1.44373 2.67189 0
M  V30 5936 H 548.882 -0.651717 1.34436 0
M  V30 5937 H 550.764 -3.7677 1.88739 0
M  V30 5938 H 549.439 -3.11325 0.88647 0
M  V30 5939 H 548.346 -2.20821 3.01975 0
M  V30 5940 H 549.679 -2.92119 3.9614 0
M  V30 5941 N 551.331 -1.39911 -0.725443 0
M  V30 5942 C 552.241 -1.41688 -1.8698 0
M  V30 5943 C 553.257 -0.310579 -1.71206 0
M  V30 5944 O 554.433 -0.55359 -1.93642 0
M  V30 5945 C 551.498 -1.26811 -3.22676 0
M  V30 5946 C 550.559 -2.47497 -3.50776 0
M  V30 5947 C 549.792 -2.3332 -4.79997 0
M  V30 5948 O 550.015 -1.34175 -5.54394 0
M  V30 5949 O 548.949 -3.22498 -5.08211 0
M  V30 5950 H 552.775 -2.38171 -1.88436 0
M  V30 5951 H 550.36 -1.21128 -0.874548 0
M  V30 5952 H 552.242 -1.20684 -4.03749 0
M  V30 5953 H 550.917 -0.334289 -3.21969 0
M  V30 5954 H 549.824 -2.59201 -2.69751 0
M  V30 5955 H 551.157 -3.39606 -3.5627 0
M  V30 5956 N 552.809 0.956637 -1.25245 0
M  V30 5957 C 554.058 1.69537 -1.0927 0
M  V30 5958 C 554.371 1.92136 0.366503 0
M  V30 5959 O 555.577 2.63687 0.64665 0
M  V30 5960 C 554.033 3.05211 -1.9072 0
M  V30 5961 C 553.641 2.90416 -3.41119 0
M  V30 5962 C 555.385 3.82882 -1.83308 0
M  V30 5963 C 553.292 4.21468 -4.14872 0
M  V30 5964 H 552.222 0.635804 -0.405302 0
M  V30 5965 H 554.873 1.06513 -1.49423 0
M  V30 5966 H 553.255 3.69128 -1.43389 0
M  V30 5967 H 554.429 2.35444 -3.9611 0
M  V30 5968 H 552.744 2.26203 -3.49602 0
M  V30 5969 H 555.341 4.79944 -2.35706 0
M  V30 5970 H 555.684 4.0853 -0.800572 0
M  V30 5971 H 556.217 3.25711 -2.28379 0
M  V30 5972 H 552.956 4.01009 -5.18529 0
M  V30 5973 H 552.476 4.76213 -3.64665 0
M  V30 5974 H 554.155 4.90022 -4.22478 0
M  V30 5975 N 554.287 1.06798 1.15896 0
M  V30 5976 C 555.512 0.808739 1.90982 0
M  V30 5977 C 555.937 -0.6316 1.77179 0
M  V30 5978 O 555.295 -1.4407 1.10061 0
M  V30 5979 C 555.343 1.21468 3.39526 0
M  V30 5980 O 554.447 0.356562 4.10856 0
M  V30 5981 H 553.788 0.29512 0.594811 0
M  V30 5982 H 556.318 1.42513 1.46804 0
M  V30 5983 H 556.328 1.18844 3.90308 0
M  V30 5984 H 555.003 2.26379 3.48891 0
M  V30 5985 H 553.58 0.444808 3.70238 0
M  V30 5986 N 555.766 -1.3263 0.851289 0
M  V30 5987 C 556.676 -2.32722 0.296268 0
M  V30 5988 C 557.692 -1.63901 -0.584162 0
M  V30 5989 O 558.868 -1.95465 -0.485334 0
M  V30 5990 C 555.933 -3.42942 -0.509103 0
M  V30 5991 C 554.994 -4.2746 0.397069 0
M  V30 5992 C 554.227 -5.32416 -0.36996 0
M  V30 5993 O 554.45 -5.47491 -1.6003 0
M  V30 5994 O 553.384 -6.01327 0.262493 0
M  V30 5995 H 557.21 -2.82078 1.12543 0
M  V30 5996 H 554.795 -1.36194 0.614135 0
M  V30 5997 H 556.677 -4.1017 -0.96634 0
M  V30 5998 H 555.352 -2.95781 -1.31512 0
M  V30 5999 H 554.259 -3.63053 0.902411 0
M  V30 6000 H 555.592 -4.78136 1.16818 0
M  V30 6001 N 557.244 -0.608902 -1.45362 0
M  V30 6002 C 558.154 0.110969 -2.34337 0
M  V30 6003 C 559.17 0.859007 -1.51318 0
M  V30 6004 O 560.346 0.816296 -1.84116 0
M  V30 6005 C 557.411 1.09494 -3.28956 0
M  V30 6006 C 556.472 0.348718 -4.27881 0
M  V30 6007 C 555.705 1.28582 -5.17979 0
M  V30 6008 O 555.928 2.52369 -5.11533 0
M  V30 6009 O 554.862 0.782172 -5.96796 0
M  V30 6010 H 558.688 -0.620258 -2.97299 0
M  V30 6011 H 556.273 -0.36916 -1.44767 0
M  V30 6012 H 558.155 1.66163 -3.87257 0
M  V30 6013 H 556.83 1.80717 -2.68557 0
M  V30 6014 H 555.737 -0.260465 -3.73192 0
M  V30 6015 H 557.07 -0.323049 -4.91139 0
M  V30 6016 N 558.722 1.53707 -0.348139 0
M  V30 6017 C 559.952 2.05108 0.247864 0
M  V30 6018 C 560.36 1.22252 1.44399 0
M  V30 6019 O 559.703 0.251853 1.81965 0
M  V30 6020 C 559.765 3.52171 0.722187 0
M  V30 6021 C 559.429 4.5562 -0.354902 0
M  V30 6022 C 560.426 5.05883 -1.19911 0
M  V30 6023 C 558.111 4.99703 -0.510145 0
M  V30 6024 C 560.105 5.98814 -2.18406 0
M  V30 6025 C 557.792 5.92443 -1.49848 0
M  V30 6026 C 558.79 6.41887 -2.33389 0
M  V30 6027 O 558.478 7.32802 -3.3054 0
M  V30 6028 H 558.21 0.674086 0.0508296 0
M  V30 6029 H 560.764 1.99229 -0.49968 0
M  V30 6030 H 558.994 3.55529 1.52105 0
M  V30 6031 H 560.683 3.8652 1.23925 0
M  V30 6032 H 561.449 4.72586 -1.09028 0
M  V30 6033 H 557.328 4.60816 0.130274 0
M  V30 6034 H 560.872 6.3733 -2.83649 0
M  V30 6035 H 556.769 6.25155 -1.60786 0
M  V30 6036 H 557.537 7.50749 -3.26064 0
M  V30 6037 N 560.2 0.0768682 1.57412 0
M  V30 6038 C 561.11 -0.903207 2.16516 0
M  V30 6039 C 562.126 -1.32341 1.12968 0
M  V30 6040 O 563.302 -1.39507 1.45258 0
M  V30 6041 C 560.367 -2.1508 2.71922 0
M  V30 6042 C 559.428 -1.78653 3.90361 0
M  V30 6043 C 558.661 -2.97465 4.43114 0
M  V30 6044 O 558.884 -4.11638 3.94854 0
M  V30 6045 O 557.818 -2.76987 5.3438 0
M  V30 6046 H 561.644 -0.430427 3.00634 0
M  V30 6047 H 559.229 -0.146485 1.4868 0
M  V30 6048 H 561.111 -2.8823 3.07411 0
M  V30 6049 H 559.786 -2.61446 1.9086 0
M  V30 6050 H 558.693 -1.0274 3.59716 0
M  V30 6051 H 560.026 -1.37066 4.7273 0
M  V30 6052 N 561.678 -1.56367 -0.196722 0
M  V30 6053 C 563.089 -1.70462 -0.761545 0
M  V30 6054 C 563.44 -0.683161 -1.83922 0
M  V30 6055 O 562.565 0.160753 -2.15802 0
M  V30 6056 C 563.16 -3.09057 -1.38814 0
M  V30 6057 C 561.719 -3.24922 -1.90007 0
M  V30 6058 C 560.866 -2.66412 -0.769399 0
M  V30 6059 H 563.817 -1.58675 0.0283263 0
M  V30 6060 H 563.838 -3.06296 -2.2575 0
M  V30 6061 H 563.35 -3.83378 -0.603559 0
M  V30 6062 H 561.451 -2.55514 -2.71189 0
M  V30 6063 H 561.564 -4.3241 -2.06297 0
M  V30 6064 H 559.928 -2.25546 -1.18326 0
M  V30 6065 H 560.711 -3.433 0.00291773 0
M  V30 6066 N 563.156 0.464375 -1.50603 0
M  V30 6067 C 564.402 1.21776 -1.62168 0
M  V30 6068 C 564.735 1.91476 -0.324154 0
M  V30 6069 O 564.01 1.8242 0.674782 0
M  V30 6070 C 564.293 2.25614 -2.80661 0
M  V30 6071 C 564.146 1.60175 -4.20314 0
M  V30 6072 C 565.465 3.26862 -2.94702 0
M  V30 6073 H 562.584 0.44137 -0.590222 0
M  V30 6074 H 565.226 0.510623 -1.8301 0
M  V30 6075 H 563.376 2.85923 -2.63021 0
M  V30 6076 H 565.048 1.03411 -4.4956 0
M  V30 6077 H 563.291 0.904697 -4.24261 0
M  V30 6078 H 563.962 2.35665 -4.99165 0
M  V30 6079 H 566.438 2.76582 -3.10872 0
M  V30 6080 H 565.314 3.96839 -3.79223 0
M  V30 6081 H 565.575 3.91382 -2.05603 0
M  V30 6082 N 564.634 1.40294 0.718013 0
M  V30 6083 C 565.864 1.41544 1.50495 0
M  V30 6084 C 566.272 0.0127877 1.89196 0
M  V30 6085 O 565.615 -0.97305 1.55812 0
M  V30 6086 C 565.677 2.24021 2.81167 0
M  V30 6087 C 565.341 3.72463 2.64803 0
M  V30 6088 C 566.338 4.65154 2.32223 0
M  V30 6089 C 564.023 4.1625 2.81143 0
M  V30 6090 C 566.017 5.99618 2.16189 0
M  V30 6091 C 563.704 5.50784 2.64727 0
M  V30 6092 C 564.702 6.42283 2.32297 0
M  V30 6093 O 564.39 7.74337 2.16004 0
M  V30 6094 H 564.122 0.484819 0.471091 0
M  V30 6095 H 566.676 1.84948 0.893488 0
M  V30 6096 H 564.906 1.75393 3.44636 0
M  V30 6097 H 566.595 2.17243 3.42871 0
M  V30 6098 H 567.361 4.32622 2.19234 0
M  V30 6099 H 563.24 3.45352 3.05373 0
M  V30 6100 H 566.784 6.71 1.90799 0
M  V30 6101 H 562.681 5.82902 2.773 0
M  V30 6102 H 563.449 7.85244 2.30942 0
M  V30 6103 N 566.112 -0.949982 1.2575 0
M  V30 6104 C 567.022 -2.08109 1.08295 0
M  V30 6105 C 568.038 -1.7399 0.0188181 0
M  V30 6106 O 569.214 -2.00187 0.220724 0
M  V30 6107 C 566.279 -3.39383 0.708534 0
M  V30 6108 C 565.34 -3.8734 1.85111 0
M  V30 6109 C 564.573 -5.12349 1.49447 0
M  V30 6110 O 564.796 -5.6905 0.392212 0
M  V30 6111 O 563.73 -5.5513 2.32624 0
M  V30 6112 H 567.556 -2.25738 2.03165 0
M  V30 6113 H 565.141 -1.06545 1.04731 0
M  V30 6114 H 567.023 -4.18277 0.512061 0
M  V30 6115 H 565.698 -3.23013 -0.210854 0
M  V30 6116 H 564.605 -3.09429 2.10248 0
M  V30 6117 H 565.938 -4.08216 2.74991 0
M  V30 6118 N 567.59 -1.07411 -1.15328 0
M  V30 6119 C 568.537 -0.694995 -2.20087 0
M  V30 6120 C 569.507 0.313904 -1.63107 0
M  V30 6121 O 570.692 0.200216 -1.89747 0
M  V30 6122 C 567.832 -0.0996218 -3.44956 0
M  V30 6123 C 566.945 -1.16007 -4.16133 0
M  V30 6124 C 566.08 -0.529636 -5.28553 0
M  V30 6125 C 565.119 -1.57283 -5.91548 0
M  V30 6126 N 564.256 -0.964932 -6.95438 0
M  V30 6127 H 569.096 -1.5927 -2.51867 0
M  V30 6128 H 566.633 -0.796115 -1.23695 0
M  V30 6129 H 568.591 0.263197 -4.16369 0
M  V30 6130 H 567.221 0.761435 -3.13691 0
M  V30 6131 H 566.273 -1.64045 -3.4321 0
M  V30 6132 H 567.585 -1.95101 -4.59061 0
M  V30 6133 H 566.739 -0.114487 -6.06592 0
M  V30 6134 H 565.478 0.29307 -4.86819 0
M  V30 6135 H 564.483 -1.99775 -5.12221 0
M  V30 6136 H 565.708 -2.39783 -6.35359 0
M  V30 6137 H 563.654 -0.16314 -6.55797 0
M  V30 6138 H 563.571 -1.69311 -7.36797 0
M  V30 6139 H 564.839 -0.575305 -7.77374 0
M  V30 6140 N 569.068 1.32177 -0.85831 0
M  V30 6141 C 570.315 1.97125 -0.463484 0
M  V30 6142 C 570.643 1.67907 0.981705 0
M  V30 6143 O 569.898 0.961717 1.70439 0
M  V30 6144 C 570.197 3.51372 -0.653658 0
M  V30 6145 C 569.863 4.00584 -2.06987 0
M  V30 6146 C 568.525 4.13733 -2.4572 0
M  V30 6147 C 570.877 4.26624 -2.99402 0
M  V30 6148 C 568.205 4.50268 -3.76132 0
M  V30 6149 C 570.557 4.64618 -4.29316 0
M  V30 6150 C 569.221 4.75975 -4.67979 0
M  V30 6151 H 568.491 0.72133 -0.169601 0
M  V30 6152 H 571.138 1.57517 -1.08907 0
M  V30 6153 H 569.443 3.91761 0.0551328 0
M  V30 6154 H 571.14 3.99655 -0.328163 0
M  V30 6155 H 567.73 3.90837 -1.75911 0
M  V30 6156 H 571.914 4.1597 -2.70708 0
M  V30 6157 H 567.17 4.57256 -4.05865 0
M  V30 6158 H 571.344 4.83722 -5.00985 0
M  V30 6159 H 568.971 5.04041 -5.69076 0
M  V30 6160 N 570.547 0.616602 1.45037 0
M  V30 6161 C 571.772 0.120192 2.07051 0
M  V30 6162 C 572.197 -1.19008 1.45666 0
M  V30 6163 O 571.555 -1.7267 0.552692 0
M  V30 6164 C 571.603 0.00354901 3.606 0
M  V30 6165 O 570.707 -1.04431 3.98958 0
M  V30 6166 H 570.048 0.0781599 0.659384 0
M  V30 6167 H 572.578 0.849167 1.86146 0
M  V30 6168 H 572.588 -0.191754 4.07549 0
M  V30 6169 H 571.263 0.960239 4.04663 0
M  V30 6170 H 569.84 -0.824749 3.63665 0
M  V30 6171 N 572.025 -1.5352 0.356285 0
M  V30 6172 C 573.273 -2.00719 -0.235837 0
M  V30 6173 C 573.594 -1.24551 -1.5004 0
M  V30 6174 O 572.864 -0.356185 -1.92635 0
M  V30 6175 H 571.444 -0.741542 -0.0901366 0
M  V30 6176 H 574.106 -1.88887 0.480378 0
M  V30 6177 H 573.202 -3.08551 -0.469357 0
M  V30 6178 N 573.503 -0.0852151 -1.57369 0
M  V30 6179 C 574.749 0.575588 -1.95086 0
M  V30 6180 C 575.104 1.66402 -0.96582 0
M  V30 6181 O 574.397 1.91598 0.00978463 0
M  V30 6182 C 574.591 1.18482 -3.3719 0
M  V30 6183 C 574.42 0.156928 -4.49426 0
M  V30 6184 C 573.19 -0.263126 -5.04614 0
M  V30 6185 C 575.388 -0.611068 -5.10657 0
M  V30 6186 N 573.37 -1.28032 -6.00401 0
M  V30 6187 C 574.741 -1.48036 -6.02068 0
M  V30 6188 C 576.796 -0.665669 -4.9343 0
M  V30 6189 C 575.499 -2.39943 -6.781 0
M  V30 6190 C 577.525 -1.5723 -5.70116 0
M  V30 6191 C 576.887 -2.42924 -6.61186 0
M  V30 6192 H 572.986 0.181249 -0.760705 0
M  V30 6193 H 575.57 -0.165484 -1.93995 0
M  V30 6194 H 573.741 1.89575 -3.38992 0
M  V30 6195 H 575.473 1.80718 -3.62109 0
M  V30 6196 H 572.228 0.122664 -4.73441 0
M  V30 6197 H 572.652 -1.78682 -6.52994 0
M  V30 6198 H 577.294 -0.0173214 -4.22796 0
M  V30 6199 H 575.012 -3.05807 -7.48002 0
M  V30 6200 H 578.598 -1.61956 -5.58804 0
M  V30 6201 H 577.478 -3.1194 -7.19488 0
M  V30 6202 N 574.981 1.5647 0.188427 0
M  V30 6203 C 575.928 1.95073 1.23349 0
M  V30 6204 C 576.898 0.812238 1.44886 0
M  V30 6205 O 578.083 1.07095 1.57909 0
M  V30 6206 C 575.223 2.30124 2.57171 0
M  V30 6207 C 574.336 3.57069 2.43157 0
M  V30 6208 C 573.471 3.81411 3.69729 0
M  V30 6209 C 572.51 5.0176 3.50575 0
M  V30 6210 N 571.647 5.22321 4.69175 0
M  V30 6211 H 576.487 2.84171 0.89728 0
M  V30 6212 H 574.024 1.40623 0.431683 0
M  V30 6213 H 575.982 2.48463 3.35145 0
M  V30 6214 H 574.612 1.44159 2.88822 0
M  V30 6215 H 573.664 3.4674 1.56447 0
M  V30 6216 H 574.976 4.452 2.24942 0
M  V30 6217 H 574.13 4.00026 4.56141 0
M  V30 6218 H 572.869 2.91624 3.90905 0
M  V30 6219 H 571.874 4.83061 2.62549 0
M  V30 6220 H 573.099 5.93063 3.30837 0
M  V30 6221 H 571.045 4.35483 4.90602 0
M  V30 6222 H 570.962 6.04643 4.53809 0
M  V30 6223 H 572.23 5.45401 5.56919 0
M  V30 6224 N 576.459 -0.456382 1.50847 0
M  V30 6225 C 577.369 -1.57805 1.73594 0
M  V30 6226 C 578.385 -1.62599 0.619476 0
M  V30 6227 O 579.561 -1.80195 0.899532 0
M  V30 6228 C 576.626 -2.93926 1.8387 0
M  V30 6229 C 575.687 -2.99402 3.07663 0
M  V30 6230 C 574.92 -4.29031 3.1744 0
M  V30 6231 O 575.143 -5.20358 2.33631 0
M  V30 6232 O 574.077 -4.40401 4.10281 0
M  V30 6233 H 577.903 -1.41531 2.68705 0
M  V30 6234 H 575.488 -0.637422 1.3512 0
M  V30 6235 H 577.37 -3.74747 1.92725 0
M  V30 6236 H 576.045 -3.10368 0.91944 0
M  V30 6237 H 574.952 -2.17606 3.043 0
M  V30 6238 H 576.285 -2.87901 3.99216 0
M  V30 6239 N 577.937 -1.40673 -0.710563 0
M  V30 6240 C 579.214 -1.29718 -1.46398 0
M  V30 6241 C 579.594 0.082177 -2.1094 0
M  V30 6242 O 578.942 1.09536 -2.00534 0
M  V30 6243 C 579.152 -2.43967 -2.49562 0
M  V30 6244 C 580.5 -2.84436 -3.15248 0
M  V30 6245 O 581.524 -2.43597 -2.59883 0
M  V30 6246 O 580.383 -3.55008 -4.1549 0
M  V30 6247 H 577.477 -0.509697 -0.651258 0
M  V30 6248 H 580.023 -1.52603 -0.742312 0
M  V30 6249 H 578.795 -3.36076 -2.0042 0
M  V30 6250 H 578.418 -2.22879 -3.29258 0
M  V30 6251 N 579.415 0.9433 -1.26252 0
M  V30 6252 C 580.664 1.68369 -1.11062 0
M  V30 6253 C 580.977 1.92514 0.346104 0
M  V30 6254 O 582.183 2.64358 0.618646 0
M  V30 6255 C 580.639 3.03171 -1.93946 0
M  V30 6256 C 580.247 2.86782 -3.4418 0
M  V30 6257 C 581.991 3.80916 -1.87359 0
M  V30 6258 C 579.898 4.17044 -4.19319 0
M  V30 6259 H 578.828 0.631469 -0.412023 0
M  V30 6260 H 581.479 1.04922 -1.50544 0
M  V30 6261 H 579.861 3.67587 -1.47296 0
M  V30 6262 H 581.035 2.31229 -3.98585 0
M  V30 6263 H 579.35 2.22482 -3.51981 0
M  V30 6264 H 581.947 4.77417 -2.40784 0
M  V30 6265 H 582.29 4.07658 -0.843857 0
M  V30 6266 H 582.823 3.2327 -2.31821 0
M  V30 6267 H 579.562 3.95487 -5.22753 0
M  V30 6268 H 579.082 4.72319 -3.69696 0
M  V30 6269 H 580.761 4.85513 -4.27651 0
M  V30 6270 N 580.893 1.08022 1.14757 0
M  V30 6271 C 582.118 0.82895 1.90114 0
M  V30 6272 C 582.543 -0.612772 1.77839 0
M  V30 6273 O 581.901 -1.42895 1.11583 0
M  V30 6274 C 581.949 1.25062 3.38219 0
M  V30 6275 O 581.053 0.400119 4.10454 0
M  V30 6276 H 580.394 0.301412 0.591648 0
M  V30 6277 H 582.924 1.44062 1.45284 0
M  V30 6278 H 582.934 1.22977 3.89025 0
M  V30 6279 H 581.609 2.30067 3.46471 0
M  V30 6280 H 580.186 0.484052 3.69745 0
M  V30 6281 N 582.371 -1.3172 0.865308 0
M  V30 6282 C 583.599 -2.01057 0.488251 0
M  V30 6283 C 584.014 -1.64979 -0.918 0
M  V30 6284 O 583.371 -0.876597 -1.60069 0
M  V30 6285 C 583.422 -3.55964 0.630224 0
M  V30 6286 O 583.143 -3.90749 1.98109 0
M  V30 6287 C 584.644 -4.42574 0.253567 0
M  V30 6288 H 581.864 -0.64332 0.190736 0
M  V30 6289 H 584.408 -1.68058 1.16519 0
M  V30 6290 H 582.563 -3.874 0.000895422 0
M  V30 6291 H 582.977 -4.85467 1.9855 0
M  V30 6292 H 584.451 -5.50521 0.403875 0
M  V30 6293 H 584.928 -4.31724 -0.806895 0
M  V30 6294 H 585.534 -4.16547 0.858404 0
M  V30 6295 N 583.85 -0.624285 -1.44708 0
M  V30 6296 C 585.09 -0.129273 -2.03991 0
M  V30 6297 C 585.454 1.22321 -1.47992 0
M  V30 6298 O 586.654 1.80993 -1.98734 0
M  V30 6299 C 584.926 -0.108231 -3.57236 0
M  V30 6300 S 586.485 0.323158 -4.37608 0
M  V30 6301 H 583.303 -0.0577318 -0.708652 0
M  V30 6302 H 585.904 -0.826139 -1.77187 0
M  V30 6303 H 584.609 -1.0958 -3.955 0
M  V30 6304 H 584.139 0.610101 -3.8864 0
M  V30 6305 H 586.154 1.56894 -4.70743 0
M  V30 6306 N 585.328 1.53329 -0.364422 0
M  V30 6307 C 586.276 2.27212 0.497737 0
M  V30 6308 C 587.27 1.30146 1.08437 0
M  V30 6309 O 588.476 1.47778 1.0277 0
M  V30 6310 H 584.851 0.730329 0.179232 0
M  V30 6311 H 586.822 2.98037 -0.147182 0
M  V30 6312 C 585.571 3.07333 1.6261 0
M  V30 6313 H 584.894 3.81866 1.184 0
M  V30 6314 H 586.334 3.62209 2.20409 0
M  V30 6315 C 584.793 2.18102 2.56775 0
M  V30 6316 O 585.323 1.79104 3.59562 0
M  V30 6317 N 583.529 1.82759 2.25937 0
M  V30 6318 H 583.076 2.14671 1.42387 0
M  V30 6319 H 583.034 1.23342 2.89196 0
M  V30 6320 N 586.806 0.0935595 1.57322 0
M  V30 6321 C 587.716 -0.880192 2.17462 0
M  V30 6322 C 588.732 -1.31135 1.14366 0
M  V30 6323 O 589.908 -1.37958 1.46729 0
M  V30 6324 C 586.973 -2.12184 2.74188 0
M  V30 6325 C 586.034 -1.74503 3.92234 0
M  V30 6326 C 585.267 -2.92748 4.46245 0
M  V30 6327 O 585.49 -4.07427 3.99198 0
M  V30 6328 O 584.424 -2.71303 5.37288 0
M  V30 6329 H 588.25 -0.398516 3.01074 0
M  V30 6330 H 585.835 -0.130707 1.48827 0
M  V30 6331 H 587.717 -2.84953 3.10451 0
M  V30 6332 H 586.392 -2.59407 1.93623 0
M  V30 6333 H 585.299 -0.989186 3.60785 0
M  V30 6334 H 586.632 -1.32044 4.74157 0
M  V30 6335 N 588.284 -1.56567 -0.180126 0
M  V30 6336 C 589.531 -1.81492 -0.898167 0
M  V30 6337 C 589.859 -0.669225 -1.82624 0
M  V30 6338 O 589.114 0.344096 -1.92651 0
M  V30 6339 C 589.413 -3.1252 -1.73395 0
M  V30 6340 C 589.079 -4.40658 -0.955567 0
M  V30 6341 C 587.741 -4.75465 -0.740707 0
M  V30 6342 C 590.093 -5.19593 -0.408948 0
M  V30 6343 C 587.421 -5.86691 0.0320128 0
M  V30 6344 C 589.773 -6.31627 0.350638 0
M  V30 6345 C 588.437 -6.65007 0.576378 0
M  V30 6346 H 587.707 -0.664125 -0.328662 0
M  V30 6347 H 590.354 -1.908 -0.163616 0
M  V30 6348 H 588.659 -2.98515 -2.53763 0
M  V30 6349 H 590.356 -3.29013 -2.29241 0
M  V30 6350 H 586.946 -4.13352 -1.13306 0
M  V30 6351 H 591.13 -4.93104 -0.562307 0
M  V30 6352 H 586.386 -6.11016 0.216735 0
M  V30 6353 H 590.56 -6.92001 0.781497 0
M  V30 6354 H 588.187 -7.51033 1.17703 0
M  V30 6355 N 589.762 0.448376 -1.51087 0
M  V30 6356 C 591.039 1.20926 -1.53741 0
M  V30 6357 C 591.419 2.09025 -0.295222 0
M  V30 6358 O 590.767 2.16851 0.720283 0
M  V30 6359 C 590.977 2.02067 -2.84552 0
M  V30 6360 C 592.325 2.59486 -3.36084 0
M  V30 6361 O 593.349 2.12289 -2.86028 0
M  V30 6362 O 592.208 3.45539 -4.23397 0
M  V30 6363 H 589.302 0.549951 -0.617643 0
M  V30 6364 H 591.848 0.458344 -1.63393 0
M  V30 6365 H 590.62 1.37291 -3.66425 0
M  V30 6366 H 590.243 2.84246 -2.78011 0
M  V30 6367 N 591.24 1.41047 0.703093 0
M  V30 6368 C 592.15 1.44645 1.84703 0
M  V30 6369 C 593.166 0.337778 1.7069 0
M  V30 6370 O 594.342 0.584327 1.92737 0
M  V30 6371 C 591.407 1.31928 3.20618 0
M  V30 6372 C 590.468 2.53047 3.46794 0
M  V30 6373 C 589.701 2.40927 4.76224 0
M  V30 6374 O 589.924 1.42978 5.5219 0
M  V30 6375 O 588.858 3.30543 5.03016 0
M  V30 6376 H 592.684 2.41139 1.84624 0
M  V30 6377 H 590.269 1.22504 0.855167 0
M  V30 6378 H 592.151 1.27092 4.01778 0
M  V30 6379 H 590.826 0.385469 3.21397 0
M  V30 6380 H 589.733 2.6346 2.65593 0
M  V30 6381 H 591.066 3.45231 3.50822 0
M  V30 6382 N 592.718 -0.936591 1.26751 0
M  V30 6383 C 593.648 -2.05315 1.11212 0
M  V30 6384 C 594.629 -1.70092 0.0160262 0
M  V30 6385 O 595.814 -1.93279 0.188894 0
M  V30 6386 C 592.944 -3.39123 0.749171 0
M  V30 6387 C 591.898 -3.88425 1.79751 0
M  V30 6388 C 591.224 -5.18936 1.28876 0
M  V30 6389 C 592.524 -4.12798 3.19992 0
M  V30 6390 H 594.218 -2.18573 2.04613 0
M  V30 6391 H 591.764 -1.05027 0.985159 0
M  V30 6392 H 593.717 -4.16704 0.627323 0
M  V30 6393 H 592.441 -3.25855 -0.220543 0
M  V30 6394 H 591.1 -3.13028 1.90811 0
M  V30 6395 H 590.748 -5.02051 0.308757 0
M  V30 6396 H 590.448 -5.52892 1.98958 0
M  V30 6397 H 591.972 -5.99096 1.17967 0
M  V30 6398 H 593.386 -4.80977 3.11983 0
M  V30 6399 H 591.783 -4.58044 3.87705 0
M  V30 6400 H 592.853 -3.18412 3.65707 0
M  V30 6401 N 594.196 -1.08629 -1.14182 0
M  V30 6402 C 595.607 -0.838003 -1.66836 0
M  V30 6403 C 595.958 0.634885 -1.85644 0
M  V30 6404 O 595.083 1.49008 -1.56926 0
M  V30 6405 C 595.678 -1.51465 -3.03058 0
M  V30 6406 C 594.237 -1.31355 -3.52736 0
M  V30 6407 C 593.384 -1.57599 -2.28162 0
M  V30 6408 H 596.335 -1.24656 -0.982165 0
M  V30 6409 H 596.356 -0.943134 -3.68626 0
M  V30 6410 H 595.868 -2.58661 -2.89337 0
M  V30 6411 H 593.969 -0.262384 -3.71675 0
M  V30 6412 H 594.082 -2.04275 -4.33369 0
M  V30 6413 H 592.446 -0.997659 -2.34348 0
M  V30 6414 H 593.229 -2.66006 -2.17015 0
M  V30 6415 N 595.674 1.31259 -0.872281 0
M  V30 6416 C 596.584 2.32221 -0.333255 0
M  V30 6417 C 597.6 1.6481 0.558013 0
M  V30 6418 O 598.776 1.96212 0.454175 0
M  V30 6419 C 595.841 3.43708 0.454479 0
M  V30 6420 C 594.902 4.26774 -0.465024 0
M  V30 6421 C 594.135 5.32937 0.28521 0
M  V30 6422 O 594.358 5.49968 1.513 0
M  V30 6423 O 593.292 6.00834 -0.358126 0
M  V30 6424 H 597.118 2.80252 -1.17016 0
M  V30 6425 H 594.703 1.352 -0.635724 0
M  V30 6426 H 596.585 4.11656 0.900963 0
M  V30 6427 H 595.26 2.97836 1.26789 0
M  V30 6428 H 594.167 3.61571 -0.960055 0
M  V30 6429 H 595.5 4.76217 -1.2441 0
M  V30 6430 N 597.152 0.631951 1.44375 0
M  V30 6431 C 598.1 -0.0846693 2.32446 0
M  V30 6432 C 599.094 -0.834957 1.47393 0
M  V30 6433 O 600.3 -0.747764 1.63733 0
M  V30 6434 H 596.675 -0.0461508 0.750583 0
M  V30 6435 H 598.646 0.67619 2.90638 0
M  V30 6436 C 597.395 -1.05211 3.314 0
M  V30 6437 H 596.718 -0.484203 3.96857 0
M  V30 6438 H 598.158 -1.523 3.95703 0
M  V30 6439 C 596.617 -2.13776 2.60387 0
M  V30 6440 O 597.147 -3.21869 2.4034 0
M  V30 6441 N 595.353 -1.89733 2.20113 0
M  V30 6442 H 594.9 -1.01833 2.36618 0
M  V30 6443 H 594.858 -2.62572 1.72926 0
M  V30 6444 N 598.631 -1.53133 0.372548 0
M  V30 6445 C 599.594 -2.24569 -0.458389 0
M  V30 6446 C 600.594 -1.25603 -1.00402 0
M  V30 6447 O 601.784 -1.49827 -0.888672 0
M  V30 6448 C 598.916 -2.98783 -1.6414 0
M  V30 6449 H 600.109 -2.99436 0.166799 0
M  V30 6450 H 597.662 -1.55805 0.124357 0
M  V30 6451 H 598.397 -2.28176 -2.30448 0
M  V30 6452 H 598.182 -3.71404 -1.25704 0
M  V30 6453 H 599.672 -3.53068 -2.23008 0
M  V30 6454 N 600.109 -0.101901 -1.5727 0
M  V30 6455 C 601.056 0.854577 -2.14396 0
M  V30 6456 C 602.026 1.27521 -1.06432 0
M  V30 6457 O 603.211 1.35575 -1.34253 0
M  V30 6458 C 600.351 2.10576 -2.73408 0
M  V30 6459 C 599.464 1.73504 -3.95626 0
M  V30 6460 C 598.599 2.9346 -4.42781 0
M  V30 6461 C 597.638 2.52547 -5.57572 0
M  V30 6462 N 596.775 3.65359 -5.99547 0
M  V30 6463 H 601.615 0.360578 -2.9581 0
M  V30 6464 H 599.152 0.166303 -1.46157 0
M  V30 6465 H 601.11 2.83859 -3.05745 0
M  V30 6466 H 599.74 2.57463 -1.94711 0
M  V30 6467 H 598.792 0.901622 -3.6956 0
M  V30 6468 H 600.104 1.39426 -4.78917 0
M  V30 6469 H 599.258 3.74988 -4.76937 0
M  V30 6470 H 597.997 3.30753 -3.58404 0
M  V30 6471 H 597.002 1.69446 -5.23037 0
M  V30 6472 H 598.227 2.1639 -6.43702 0
M  V30 6473 H 596.173 4.02358 -5.18116 0
M  V30 6474 H 596.09 3.35148 -6.77652 0
M  V30 6475 H 597.358 4.47378 -6.38336 0
M  V30 6476 N 601.587 1.56661 0.17182 0
M  V30 6477 C 602.534 1.96371 1.21273 0
M  V30 6478 C 603.504 0.82756 1.44016 0
M  V30 6479 O 604.689 1.08764 1.56764 0
M  V30 6480 C 601.829 2.32838 2.54716 0
M  V30 6481 C 600.942 3.59628 2.39356 0
M  V30 6482 C 600.077 3.85311 3.65662 0
M  V30 6483 C 599.116 5.0545 3.45234 0
M  V30 6484 N 598.253 5.27268 4.63608 0
M  V30 6485 H 603.093 2.85106 0.86709 0
M  V30 6486 H 600.63 1.41073 0.416744 0
M  V30 6487 H 602.588 2.52004 3.3249 0
M  V30 6488 H 601.218 1.47214 2.87277 0
M  V30 6489 H 600.27 3.4838 1.52761 0
M  V30 6490 H 601.582 4.4756 2.20207 0
M  V30 6491 H 600.736 4.04841 4.51872 0
M  V30 6492 H 599.475 2.95753 3.8779 0
M  V30 6493 H 598.48 4.85819 2.5741 0
M  V30 6494 H 599.705 5.96538 3.24529 0
M  V30 6495 H 597.651 4.40662 4.85956 0
M  V30 6496 H 597.568 6.09422 4.4737 0
M  V30 6497 H 598.836 5.51277 5.51103 0
M  V30 6498 N 603.065 -0.440357 1.51323 0
M  V30 6499 C 604.295 -1.21079 1.67402 0
M  V30 6500 C 604.703 -1.85555 0.369599 0
M  V30 6501 O 604.046 -1.71375 -0.661525 0
M  V30 6502 C 604.108 -2.33839 2.73056 0
M  V30 6503 C 603.772 -1.89755 4.15743 0
M  V30 6504 C 604.769 -1.40268 5.0062 0
M  V30 6505 C 602.454 -1.97539 4.61826 0
M  V30 6506 C 604.448 -0.991474 6.29642 0
M  V30 6507 C 602.135 -1.56029 5.90845 0
M  V30 6508 C 603.133 -1.06915 6.7458 0
M  V30 6509 O 602.821 -0.659933 8.01187 0
M  V30 6510 H 602.553 -0.371133 0.56501 0
M  V30 6511 H 605.107 -0.528409 1.98487 0
M  V30 6512 H 603.337 -3.05345 2.37279 0
M  V30 6513 H 605.026 -2.95713 2.78044 0
M  V30 6514 H 605.792 -1.33652 4.66221 0
M  V30 6515 H 601.671 -2.34713 3.96776 0
M  V30 6516 H 605.215 -0.607425 6.9495 0
M  V30 6517 H 601.112 -1.62315 6.24759 0
M  V30 6518 H 601.88 -0.786052 8.14717 0
M  V30 6519 N 604.543 -1.41418 -0.695603 0
M  V30 6520 C 605.792 -1.40073 -1.4513 0
M  V30 6521 C 606.105 -0.0130439 -1.95596 0
M  V30 6522 O 607.311 0.123032 -2.71221 0
M  V30 6523 C 605.767 -2.46286 -2.62433 0
M  V30 6524 C 605.375 -3.90962 -2.18753 0
M  V30 6525 C 607.119 -2.54077 -3.40066 0
M  V30 6526 C 605.026 -4.88728 -3.33015 0
M  V30 6527 H 603.956 -0.520903 -0.545138 0
M  V30 6528 H 606.607 -1.67242 -0.75515 0
M  V30 6529 H 604.989 -2.12248 -3.34315 0
M  V30 6530 H 606.163 -4.34248 -1.54161 0
M  V30 6531 H 604.478 -3.86831 -1.54114 0
M  V30 6532 H 607.075 -3.24303 -4.25125 0
M  V30 6533 H 607.418 -1.5776 -3.8525 0
M  V30 6534 H 607.951 -2.87206 -2.75241 0
M  V30 6535 H 604.69 -5.86449 -2.92844 0
M  V30 6536 H 604.21 -4.50091 -3.96457 0
M  V30 6537 H 605.889 -5.09483 -3.98793 0
M  V30 6538 N 606.021 0.929856 -1.27246 0
M  V30 6539 C 606.951 2.04722 -1.12299 0
M  V30 6540 C 607.932 1.70082 -0.0250464 0
M  V30 6541 O 609.117 1.93176 -0.199141 0
M  V30 6542 C 606.247 3.38721 -0.767145 0
M  V30 6543 C 605.201 3.87466 -1.81808 0
M  V30 6544 C 604.527 5.18246 -1.31626 0
M  V30 6545 C 605.827 4.11095 -3.22177 0
M  V30 6546 H 607.521 2.17485 -2.05769 0
M  V30 6547 H 605.067 1.04503 -0.990715 0
M  V30 6548 H 607.02 4.16366 -0.649413 0
M  V30 6549 H 605.744 3.25967 0.203259 0
M  V30 6550 H 604.403 3.12012 -1.92468 0
M  V30 6551 H 604.051 5.01881 -0.335378 0
M  V30 6552 H 603.751 5.51829 -2.01887 0
M  V30 6553 H 605.275 5.98462 -1.21143 0
M  V30 6554 H 606.689 4.79316 -3.1453 0
M  V30 6555 H 605.086 4.55982 -3.90129 0
M  V30 6556 H 606.156 3.16468 -3.67391 0
M  V30 6557 N 607.499 1.09233 1.13605 0
M  V30 6558 C 608.462 0.733553 2.17144 0
M  V30 6559 C 609.462 -0.235873 1.59061 0
M  V30 6560 O 610.652 -0.0143167 1.74194 0
M  V30 6561 C 607.784 0.084471 3.40795 0
M  V30 6562 H 608.977 1.65049 2.50397 0
M  V30 6563 H 606.53 0.891264 1.28399 0
M  V30 6564 H 607.265 -0.843795 3.1313 0
M  V30 6565 H 607.05 0.781985 3.84223 0
M  V30 6566 H 608.54 -0.151216 4.17326 0
M  V30 6567 N 608.977 -1.30795 0.87923 0
M  V30 6568 C 610.226 -1.95636 0.490875 0
M  V30 6569 C 610.539 -1.70214 -0.963674 0
M  V30 6570 O 611.745 -2.28991 -1.45861 0
M  V30 6571 C 610.201 -3.50271 0.826929 0
M  V30 6572 C 609.809 -3.84521 2.29886 0
M  V30 6573 C 611.553 -4.21456 0.507494 0
M  V30 6574 C 609.46 -5.32309 2.57685 0
M  V30 6575 H 608.39 -0.732238 0.179841 0
M  V30 6576 H 611.041 -1.48829 1.07341 0
M  V30 6577 H 609.423 -3.9562 0.173542 0
M  V30 6578 H 610.597 -3.50102 2.99609 0
M  V30 6579 H 608.912 -3.26425 2.58526 0
M  V30 6580 H 611.509 -5.30199 0.692293 0
M  V30 6581 H 611.852 -4.12614 -0.552718 0
M  V30 6582 H 612.385 -3.81772 1.11782 0
M  V30 6583 H 609.124 -5.46195 3.62424 0
M  V30 6584 H 608.644 -5.68048 1.92566 0
M  V30 6585 H 610.323 -5.99678 2.42889 0
M  V30 6586 N 610.455 -0.639598 -1.44038 0
M  V30 6587 C 611.365 0.0612377 -2.3452 0
M  V30 6588 C 612.381 0.826717 -1.53106 0
M  V30 6589 O 613.557 0.777059 -1.85806 0
M  V30 6590 C 610.622 1.02492 -3.31204 0
M  V30 6591 C 609.683 0.25788 -4.28525 0
M  V30 6592 C 608.916 1.17566 -5.2059 0
M  V30 6593 O 609.139 2.41461 -5.16771 0
M  V30 6594 O 608.073 0.655407 -5.98321 0
M  V30 6595 H 611.899 -0.68318 -2.95916 0
M  V30 6596 H 609.484 -0.399784 -1.43952 0
M  V30 6597 H 611.366 1.57911 -3.90694 0
M  V30 6598 H 610.041 1.7498 -2.7233 0
M  V30 6599 H 608.948 -0.339566 -3.72556 0
M  V30 6600 H 610.281 -0.427154 -4.90343 0
M  V30 6601 N 611.933 1.52934 -0.380664 0
M  V30 6602 C 612.88 2.26197 0.458641 0
M  V30 6603 C 613.85 1.27462 1.06502 0
M  V30 6604 O 615.035 1.56274 1.09467 0
M  V30 6605 C 612.175 3.06571 1.58456 0
M  V30 6606 C 611.288 4.20222 1.00189 0
M  V30 6607 C 610.423 4.88007 2.09815 0
M  V30 6608 C 609.462 5.93665 1.49092 0
M  V30 6609 N 608.599 6.55081 2.52613 0
M  V30 6610 H 613.439 2.975 -0.172595 0
M  V30 6611 H 610.976 1.4678 -0.0969426 0
M  V30 6612 H 612.934 3.51455 2.24801 0
M  V30 6613 H 611.564 2.37494 2.18624 0
M  V30 6614 H 610.616 3.79714 0.228292 0
M  V30 6615 H 611.928 4.96102 0.518064 0
M  V30 6616 H 611.082 5.36151 2.83948 0
M  V30 6617 H 609.821 4.11632 2.61555 0
M  V30 6618 H 608.826 5.44868 0.7348 0
M  V30 6619 H 610.051 6.71969 0.981582 0
M  V30 6620 H 607.997 5.8155 3.03538 0
M  V30 6621 H 607.914 7.26548 2.08961 0
M  V30 6622 H 609.182 7.07871 3.26402 0
M  V30 6623 N 613.412 0.11024 1.57214 0
M  V30 6624 C 614.642 -0.557025 1.98949 0
M  V30 6625 C 615.05 -1.61317 0.988606 0
M  V30 6626 O 614.393 -1.83679 -0.0279159 0
M  V30 6627 C 614.455 -1.24956 3.37085 0
M  V30 6628 C 614.119 -0.342398 4.55716 0
M  V30 6629 C 615.116 0.415511 5.18237 0
M  V30 6630 C 612.801 -0.256029 5.01647 0
M  V30 6631 C 614.795 1.24761 6.25071 0
M  V30 6632 C 612.482 0.579713 6.08344 0
M  V30 6633 C 613.48 1.33017 6.69922 0
M  V30 6634 O 613.168 2.15205 7.74559 0
M  V30 6635 H 612.9 -0.152792 0.658506 0
M  V30 6636 H 615.454 0.19076 2.04512 0
M  V30 6637 H 613.684 -2.04424 3.2825 0
M  V30 6638 H 615.373 -1.81286 3.63167 0
M  V30 6639 H 616.139 0.358605 4.83672 0
M  V30 6640 H 612.018 -0.829831 4.5347 0
M  V30 6641 H 615.562 1.83386 6.73064 0
M  V30 6642 H 611.459 0.638044 6.42339 0
M  V30 6643 H 612.227 2.08052 7.91617 0
M  V30 6644 N 614.89 -1.56749 -0.16351 0
M  V30 6645 C 615.82 -2.00042 -1.20438 0
M  V30 6646 C 616.801 -0.877256 -1.45733 0
M  V30 6647 O 617.986 -1.1439 -1.56935 0
M  V30 6648 C 615.116 -2.36697 -2.54149 0
M  V30 6649 C 614.07 -3.52046 -2.43408 0
M  V30 6650 C 613.396 -3.74466 -3.81679 0
M  V30 6651 C 614.696 -4.85247 -1.93216 0
M  V30 6652 H 616.39 -2.87244 -0.844477 0
M  V30 6653 H 613.936 -1.38194 -0.40478 0
M  V30 6654 H 615.889 -2.65582 -3.27176 0
M  V30 6655 H 614.613 -1.46414 -2.91943 0
M  V30 6656 H 613.272 -3.23301 -1.72834 0
M  V30 6657 H 612.92 -2.81461 -4.1688 0
M  V30 6658 H 612.62 -4.52084 -3.75359 0
M  V30 6659 H 614.144 -4.0576 -4.5628 0
M  V30 6660 H 615.558 -5.12957 -2.56023 0
M  V30 6661 H 613.955 -5.66556 -1.97825 0
M  V30 6662 H 615.025 -4.7672 -0.88689 0
M  V30 6663 N 616.368 0.432326 -1.51554 0
M  V30 6664 C 617.315 1.52512 -1.7323 0
M  V30 6665 C 618.285 1.55863 -0.5741 0
M  V30 6666 O 619.47 1.72796 -0.809093 0
M  V30 6667 C 616.61 2.90183 -1.86783 0
M  V30 6668 C 615.723 2.96322 -3.14352 0
M  V30 6669 C 614.858 4.25147 -3.18471 0
M  V30 6670 C 613.897 4.25172 -4.40335 0
M  V30 6671 N 613.034 5.45529 -4.41975 0
M  V30 6672 H 617.874 1.33332 -2.66508 0
M  V30 6673 H 615.411 0.647613 -1.32077 0
M  V30 6674 H 617.369 3.70071 -1.92623 0
M  V30 6675 H 615.999 3.0791 -0.969087 0
M  V30 6676 H 615.051 2.09066 -3.17798 0
M  V30 6677 H 616.363 2.92203 -4.04251 0
M  V30 6678 H 615.517 5.13411 -3.23255 0
M  V30 6679 H 614.256 4.31929 -2.2647 0
M  V30 6680 H 613.261 3.353 -4.35723 0
M  V30 6681 H 614.486 4.20049 -5.33606 0
M  V30 6682 H 612.432 5.53024 -3.52847 0
M  V30 6683 H 612.349 5.43311 -5.25689 0
M  V30 6684 H 613.617 6.35812 -4.50958 0
M  V30 6685 N 617.846 1.41785 0.688094 0
M  V30 6686 C 619.074 1.44915 1.47673 0
M  V30 6687 C 619.489 0.0565786 1.88715 0
M  V30 6688 O 618.846 -0.92579 1.57275 0
M  V30 6689 C 618.897 2.36452 2.73446 0
M  V30 6690 O 618.618 3.7029 2.34131 0
M  V30 6691 C 620.119 2.48463 3.67125 0
M  V30 6692 H 617.339 0.493324 0.454832 0
M  V30 6693 H 619.883 1.86153 0.846594 0
M  V30 6694 H 618.038 1.98502 3.3268 0
M  V30 6695 H 618.452 4.19183 3.15255 0
M  V30 6696 H 619.926 3.16662 4.52138 0
M  V30 6697 H 620.403 1.51826 4.12123 0
M  V30 6698 H 621.009 2.8708 3.13792 0
M  V30 6699 N 619.324 -0.923095 1.27737 0
M  V30 6700 C 620.735 -1.48626 1.12993 0
M  V30 6701 C 621.086 -1.94142 -0.283439 0
M  V30 6702 O 620.211 -1.81605 -1.17681 0
M  V30 6703 C 620.806 -2.70117 2.04505 0
M  V30 6704 C 619.365 -3.22642 1.93853 0
M  V30 6705 C 618.512 -1.95368 1.96791 0
M  V30 6706 H 621.463 -0.736737 1.40563 0
M  V30 6707 H 621.484 -3.4506 1.60356 0
M  V30 6708 H 620.996 -2.36959 3.07363 0
M  V30 6709 H 619.097 -3.60549 0.939968 0
M  V30 6710 H 619.21 -3.88525 2.80331 0
M  V30 6711 H 617.574 -2.12061 1.41076 0
M  V30 6712 H 618.357 -1.64517 3.01312 0
M  V30 6713 N 620.802 -1.09834 -1.13024 0
M  V30 6714 C 622.051 -0.831806 -1.83749 0
M  V30 6715 C 622.364 0.644763 -1.84668 0
M  V30 6716 O 623.57 1.02697 -2.51327 0
M  V30 6717 C 622.026 -1.43817 -3.29916 0
M  V30 6718 C 621.634 -2.94759 -3.37374 0
M  V30 6719 C 623.378 -1.25077 -4.05655 0
M  V30 6720 C 621.285 -3.48461 -4.77838 0
M  V30 6721 H 620.215 -0.30751 -0.688443 0
M  V30 6722 H 622.866 -1.32156 -1.27307 0
M  V30 6723 H 621.248 -0.876106 -3.86187 0
M  V30 6724 H 622.422 -3.57228 -2.91076 0
M  V30 6725 H 620.737 -3.12581 -2.75103 0
M  V30 6726 H 623.334 -1.62649 -5.09362 0
M  V30 6727 H 623.677 -0.191782 -4.15858 0
M  V30 6728 H 624.21 -1.78057 -3.55725 0
M  V30 6729 H 620.949 -4.53998 -4.72828 0
M  V30 6730 H 620.469 -2.90757 -5.24615 0
M  V30 6731 H 622.148 -3.45914 -5.46766 0
M  V30 6732 N 622.28 1.30327 -0.886154 0
M  V30 6733 C 623.526 1.96388 -0.505941 0
M  V30 6734 C 623.859 1.69784 0.942712 0
M  V30 6735 O 623.134 1.00322 1.6663 0
M  V30 6736 C 623.417 3.51488 -0.782826 0
M  V30 6737 C 623.27 3.87603 -2.28219 0
M  V30 6738 C 624.589 4.39331 -0.260128 0
M  V30 6739 H 621.708 0.713327 -0.185292 0
M  V30 6740 H 624.35 1.54178 -1.11036 0
M  V30 6741 H 622.5 3.87572 -0.268399 0
M  V30 6742 H 624.172 3.61537 -2.86512 0
M  V30 6743 H 622.415 3.3563 -2.74837 0
M  V30 6744 H 623.086 4.95806 -2.42653 0
M  V30 6745 H 625.562 4.10162 -0.700444 0
M  V30 6746 H 624.438 5.46769 -0.483179 0
M  V30 6747 H 624.699 4.34072 0.838674 0
M  V30 6748 N 623.758 0.647228 1.43697 0
M  V30 6749 C 625.004 0.167001 2.02713 0
M  V30 6750 C 625.359 -1.20351 1.50111 0
M  V30 6751 O 624.652 -1.79047 0.682113 0
M  V30 6752 C 624.846 0.111481 3.57226 0
M  V30 6753 C 624.675 1.47507 4.2482 0
M  V30 6754 C 623.445 2.06594 4.61137 0
M  V30 6755 C 625.643 2.41224 4.54219 0
M  V30 6756 N 623.625 3.3602 5.13774 0
M  V30 6757 C 624.996 3.55278 5.08112 0
M  V30 6758 C 627.051 2.40102 4.36183 0
M  V30 6759 C 625.754 4.68426 5.45866 0
M  V30 6760 C 627.78 3.52326 4.74995 0
M  V30 6761 C 627.142 4.65104 5.29015 0
M  V30 6762 H 623.241 0.105402 0.774864 0
M  V30 6763 H 625.825 0.854229 1.7496 0
M  V30 6764 H 623.996 -0.545073 3.84556 0
M  V30 6765 H 625.728 -0.379063 4.02921 0
M  V30 6766 H 622.483 1.59366 4.45981 0
M  V30 6767 H 622.907 4.02233 5.44552 0
M  V30 6768 H 627.549 1.54151 3.93697 0
M  V30 6769 H 625.267 5.55074 5.87298 0
M  V30 6770 H 628.853 3.52652 4.6274 0
M  V30 6771 H 627.733 5.50506 5.58492 0
M  V30 6772 N 625.236 -1.5273 0.388769 0
M  V30 6773 C 626.485 -2.00757 -0.194833 0
M  V30 6774 C 626.798 -1.27951 -1.47946 0
M  V30 6775 O 628.004 -1.66686 -2.14308 0
M  V30 6776 C 626.46 -3.57695 -0.397762 0
M  V30 6777 C 626.068 -4.394 0.873583 0
M  V30 6778 C 627.812 -4.14012 -0.937759 0
M  V30 6779 C 625.719 -5.87938 0.638962 0
M  V30 6780 H 624.649 -0.750101 -0.0765845 0
M  V30 6781 H 627.3 -1.76239 0.511086 0
M  V30 6782 H 625.682 -3.7846 -1.16552 0
M  V30 6783 H 626.856 -4.30403 1.64591 0
M  V30 6784 H 625.171 -3.94301 1.33849 0
M  V30 6785 H 627.768 -5.22645 -1.12899 0
M  V30 6786 H 628.111 -3.7007 -1.90666 0
M  V30 6787 H 628.644 -3.97137 -0.229588 0
M  V30 6788 H 625.383 -6.36202 1.57885 0
M  V30 6789 H 624.903 -5.99726 -0.094443 0
M  V30 6790 H 626.582 -6.46423 0.273299 0
M  V30 6791 N 626.714 -0.118576 -1.57153 0
M  V30 6792 C 627.962 0.538461 -1.94795 0
M  V30 6793 C 628.283 1.67243 -1.00274 0
M  V30 6794 O 627.553 1.95811 -0.0589692 0
M  V30 6795 H 626.133 0.201904 -0.719197 0
M  V30 6796 H 628.795 -0.187418 -1.93997 0
M  V30 6797 H 627.891 0.933315 -2.97818 0
M  V30 6798 N 628.193 1.56834 0.155195 0
M  V30 6799 C 629.439 1.83169 0.870467 0
M  V30 6800 C 629.772 0.698929 1.81187 0
M  V30 6801 O 629.047 -0.298035 1.92203 0
M  V30 6802 C 629.33 3.19965 1.65211 0
M  V30 6803 C 629.183 4.43792 0.732744 0
M  V30 6804 C 630.502 3.53885 2.61636 0
M  V30 6805 H 627.621 0.666288 0.315006 0
M  V30 6806 H 630.263 1.89513 0.135988 0
M  V30 6807 H 628.413 3.14687 2.27825 0
M  V30 6808 H 630.085 4.61148 0.118236 0
M  V30 6809 H 628.328 4.3378 0.0417906 0
M  V30 6810 H 628.999 5.36095 1.31552 0
M  V30 6811 H 631.475 3.5972 2.09143 0
M  V30 6812 H 630.351 4.50648 3.13381 0
M  V30 6813 H 630.612 2.79418 3.42605 0
M  V30 6814 N 629.671 -0.424282 1.51781 0
M  V30 6815 C 630.919 -1.17028 1.64769 0
M  V30 6816 C 631.24 -1.91409 0.372523 0
M  V30 6817 O 630.51 -1.86091 -0.612108 0
M  V30 6818 H 629.09 -0.434992 0.607282 0
M  V30 6819 H 631.752 -0.485169 1.88765 0
M  V30 6820 H 630.848 -1.8927 2.4816 0
M  V30 6821 N 631.149 -1.42148 -0.680565 0
M  V30 6822 C 632.56 -1.3768 -1.26099 0
M  V30 6823 C 632.911 -0.0672348 -1.96085 0
M  V30 6824 O 632.036 0.834172 -1.99676 0
M  V30 6825 C 632.631 -2.49387 -2.29328 0
M  V30 6826 C 631.19 -2.4827 -2.82911 0
M  V30 6827 C 630.337 -2.2847 -1.57152 0
M  V30 6828 H 633.288 -1.51446 -0.474326 0
M  V30 6829 H 633.309 -2.19307 -3.10941 0
M  V30 6830 H 632.821 -3.44686 -1.78363 0
M  V30 6831 H 630.922 -1.56773 -3.38013 0
M  V30 6832 H 631.035 -3.45109 -3.3232 0
M  V30 6833 H 629.399 -1.76623 -1.83511 0
M  V30 6834 H 630.182 -3.25816 -1.0816 0
M  V30 6835 N 632.627 0.916307 -1.28225 0
M  V30 6836 C 633.575 2.03977 -1.11786 0
M  V30 6837 C 634.569 1.69358 -0.0378265 0
M  V30 6838 O 635.775 1.78925 -0.196405 0
M  V30 6839 H 632.15 0.66829 -0.344809 0
M  V30 6840 H 634.121 2.14985 -2.06939 0
M  V30 6841 C 632.87 3.38518 -0.7938 0
M  V30 6842 H 632.193 3.65649 -1.61682 0
M  V30 6843 H 633.633 4.17864 -0.718719 0
M  V30 6844 C 632.092 3.33134 0.502353 0
M  V30 6845 O 632.622 3.71281 1.53341 0
M  V30 6846 N 630.828 2.86229 0.502147 0
M  V30 6847 H 630.375 2.55382 -0.337338 0
M  V30 6848 H 630.333 2.83009 1.36942 0
M  V30 6849 N 634.105 1.10431 1.1244 0
M  V30 6850 C 635.521 0.836096 1.35947 0
M  V30 6851 C 635.721 -0.544475 1.94004 0
M  V30 6852 O 634.777 -1.29735 2.16622 0
M  V30 6853 C 636.09 1.93575 2.30107 0
M  V30 6854 C 637.638 1.9642 2.43697 0
M  V30 6855 C 638.113 3.05559 3.41171 0
M  V30 6856 N 639.604 3.04865 3.48728 0
M  V30 6857 C 640.339 3.85954 4.24061 0
M  V30 6858 N 639.835 4.76977 5.02458 0
M  V30 6859 N 641.628 3.74172 4.19466 0
M  V30 6860 H 633.779 1.9942 0.731124 0
M  V30 6861 H 636.042 0.866607 0.384312 0
M  V30 6862 H 635.748 2.92943 1.94621 0
M  V30 6863 H 635.622 1.8229 3.30227 0
M  V30 6864 H 638.009 0.97685 2.78463 0
M  V30 6865 H 638.09 2.11782 1.43465 0
M  V30 6866 H 637.734 4.04513 3.07135 0
M  V30 6867 H 637.664 2.87438 4.41234 0
M  V30 6868 H 640.155 2.38908 2.92799 0
M  V30 6869 H 640.468 5.35409 5.57277 0
M  V30 6870 H 638.813 4.81006 5.01655 0
M  V30 6871 H 642.004 3.02412 3.57302 0
M  V30 6872 H 642.177 4.37602 4.77921 0
M  V30 6873 N 635.583 -1.29855 0.893053 0
M  V30 6874 C 636.53 -2.27909 0.364161 0
M  V30 6875 C 637.5 -1.56726 -0.550093 0
M  V30 6876 O 638.685 -1.84747 -0.47677 0
M  V30 6877 C 635.825 -3.42678 -0.408178 0
M  V30 6878 C 634.938 -4.28659 0.536212 0
M  V30 6879 C 634.073 -5.30599 -0.252521 0
M  V30 6880 C 633.112 -6.08234 0.686822 0
M  V30 6881 N 632.249 -7.02068 -0.0670902 0
M  V30 6882 H 637.089 -2.72531 1.20544 0
M  V30 6883 H 634.626 -1.34047 0.605779 0
M  V30 6884 H 636.584 -4.07986 -0.871962 0
M  V30 6885 H 635.214 -2.99103 -1.21397 0
M  V30 6886 H 634.266 -3.63584 1.1185 0
M  V30 6887 H 635.578 -4.8274 1.25552 0
M  V30 6888 H 634.732 -6.01694 -0.777801 0
M  V30 6889 H 633.471 -4.77233 -1.005 0
M  V30 6890 H 632.476 -5.3601 1.22366 0
M  V30 6891 H 633.701 -6.63689 1.43852 0
M  V30 6892 H 631.647 -6.5108 -0.801955 0
M  V30 6893 H 631.564 -7.53675 0.59243 0
M  V30 6894 H 632.832 -7.77392 -0.572851 0
M  V30 6895 N 637.061 -0.65484 -1.43351 0
M  V30 6896 C 638.009 0.0476784 -2.32551 0
M  V30 6897 C 639.003 0.811403 -1.48703 0
M  V30 6898 O 640.209 0.721621 -1.64902 0
M  V30 6899 H 636.584 0.0342038 -0.751222 0
M  V30 6900 H 638.555 -0.722342 -2.89525 0
M  V30 6901 C 637.304 0.999251 -3.33032 0
M  V30 6902 H 636.627 0.421005 -3.97577 0
M  V30 6903 H 638.067 1.45986 -3.98076 0
M  V30 6904 C 636.526 2.09606 -2.63756 0
M  V30 6905 O 637.056 3.18004 -2.4543 0
M  V30 6906 N 635.262 1.86207 -2.23103 0
M  V30 6907 H 634.809 0.980555 -2.38208 0
M  V30 6908 H 634.767 2.59787 -1.77081 0
M  V30 6909 N 638.539 1.52521 -0.396863 0
M  V30 6910 C 639.472 2.23118 0.478926 0
M  V30 6911 C 640.45 1.23475 1.05796 0
M  V30 6912 O 641.634 1.52486 1.10817 0
M  V30 6913 C 638.761 2.95028 1.66362 0
M  V30 6914 C 637.807 4.09002 1.20913 0
M  V30 6915 S 638.64 5.35182 0.184407 0
M  V30 6916 C 639.796 6.10616 1.37471 0
M  V30 6917 H 640.029 2.97056 -0.120542 0
M  V30 6918 H 637.562 1.53334 -0.18109 0
M  V30 6919 H 639.52 3.37066 2.34301 0
M  V30 6920 H 638.181 2.20756 2.23441 0
M  V30 6921 H 637.374 4.58445 2.09389 0
M  V30 6922 H 636.976 3.69016 0.608559 0
M  V30 6923 H 639.268 6.37247 2.30048 0
M  V30 6924 H 640.211 7.02084 0.921051 0
M  V30 6925 H 640.619 5.41499 1.59495 0
M  V30 6926 N 640.017 0.126909 1.57088 0
M  V30 6927 C 641.266 -0.529024 1.94639 0
M  V30 6928 C 641.579 -1.67323 1.01304 0
M  V30 6929 O 642.785 -2.39245 1.28352 0
M  V30 6930 C 641.241 -0.992483 3.45945 0
M  V30 6931 C 640.849 0.123691 4.47829 0
M  V30 6932 C 642.593 -1.61934 3.924 0
M  V30 6933 C 640.5 -0.356911 5.90322 0
M  V30 6934 H 639.43 -0.201397 0.726605 0
M  V30 6935 H 642.081 0.208032 1.82317 0
M  V30 6936 H 640.463 -1.7842 3.53528 0
M  V30 6937 H 641.637 0.900168 4.51922 0
M  V30 6938 H 639.952 0.657699 4.11173 0
M  V30 6939 H 642.549 -1.9902 4.96281 0
M  V30 6940 H 642.892 -2.50075 3.32819 0
M  V30 6941 H 643.425 -0.892894 3.8765 0
M  V30 6942 H 640.164 0.488636 6.53676 0
M  V30 6943 H 639.684 -1.0997 5.89633 0
M  V30 6944 H 641.363 -0.815547 6.41839 0
M  V30 6945 N 641.495 -1.56914 -0.146875 0
M  V30 6946 C 642.741 -1.83628 -0.860741 0
M  V30 6947 C 643.074 -0.708528 -1.80813 0
M  V30 6948 O 642.349 0.287838 -1.92358 0
M  V30 6949 C 642.632 -3.20836 -1.63511 0
M  V30 6950 C 642.485 -4.44174 -0.709199 0
M  V30 6951 C 643.804 -3.55268 -2.59756 0
M  V30 6952 H 640.923 -0.667949 -0.311468 0
M  V30 6953 H 643.565 -1.89582 -0.125936 0
M  V30 6954 H 641.715 -3.15891 -2.26153 0
M  V30 6955 H 643.387 -4.61205 -0.0937781 0
M  V30 6956 H 641.63 -4.33796 -0.0187856 0
M  V30 6957 H 642.301 -5.36785 -1.28707 0
M  V30 6958 H 644.777 -3.60824 -2.07232 0
M  V30 6959 H 643.653 -4.52303 -3.10987 0
M  V30 6960 H 643.914 -2.81231 -3.41118 0
M  V30 6961 N 642.974 0.416227 -1.52004 0
M  V30 6962 C 643.921 1.50666 -1.74838 0
M  V30 6963 C 644.891 1.55245 -0.590599 0
M  V30 6964 O 646.076 1.71928 -0.827374 0
M  V30 6965 C 643.216 2.88185 -1.89851 0
M  V30 6966 C 642.329 2.92971 -3.17478 0
M  V30 6967 C 641.464 4.21745 -3.22962 0
M  V30 6968 C 640.503 4.20478 -4.4482 0
M  V30 6969 N 639.64 5.40811 -4.47736 0
M  V30 6970 H 644.48 1.30498 -2.67907 0
M  V30 6971 H 642.017 0.633568 -1.32757 0
M  V30 6972 H 643.975 3.68007 -1.96537 0
M  V30 6973 H 642.605 3.06865 -1.00169 0
M  V30 6974 H 641.657 2.05684 -3.19997 0
M  V30 6975 H 642.969 2.87899 -4.07328 0
M  V30 6976 H 642.123 5.09954 -3.28682 0
M  V30 6977 H 640.862 4.29503 -2.31038 0
M  V30 6978 H 639.867 3.30659 -4.39254 0
M  V30 6979 H 641.092 4.14366 -5.38031 0
M  V30 6980 H 639.038 5.4925 -3.58692 0
M  V30 6981 H 638.955 5.37705 -5.31422 0
M  V30 6982 H 640.223 6.30993 -4.57676 0
M  V30 6983 N 644.452 1.42507 0.673017 0
M  V30 6984 C 645.399 1.46124 1.78651 0
M  V30 6985 C 646.369 0.313007 1.63124 0
M  V30 6986 O 647.554 0.517337 1.83653 0
M  V30 6987 C 644.694 1.3711 3.16694 0
M  V30 6988 C 643.807 2.61983 3.43495 0
M  V30 6989 C 642.942 2.45098 4.71275 0
M  V30 6990 C 641.981 3.65336 4.91117 0
M  V30 6991 N 641.118 3.47383 6.10139 0
M  V30 6992 H 645.958 2.4128 1.74895 0
M  V30 6993 H 643.495 1.19788 0.853766 0
M  V30 6994 H 645.453 1.29881 3.96468 0
M  V30 6995 H 644.083 0.45549 3.1957 0
M  V30 6996 H 643.135 2.79571 2.57961 0
M  V30 6997 H 644.447 3.51355 3.5405 0
M  V30 6998 H 643.601 2.35466 5.59143 0
M  V30 6999 H 642.34 1.53219 4.63007 0
M  V30 7000 H 641.345 3.754 4.0169 0
M  V30 7001 H 642.57 4.58199 5.01229 0
M  V30 7002 H 640.516 2.58222 6.0304 0
M  V30 7003 H 640.433 4.30344 6.21563 0
M  V30 7004 H 641.701 3.41565 7.00681 0
M  V30 7005 N 645.93 -0.909495 1.28709 0
M  V30 7006 C 646.878 -2.03381 1.12866 0
M  V30 7007 C 647.872 -1.69335 0.0468074 0
M  V30 7008 O 649.078 -1.78819 0.205891 0
M  V30 7009 H 645.453 -0.666452 0.348348 0
M  V30 7010 H 647.424 -2.13885 2.08077 0
M  V30 7011 C 646.173 -3.38092 0.811742 0
M  V30 7012 H 645.496 -3.64786 1.63619 0
M  V30 7013 H 646.936 -4.17477 0.740869 0
M  V30 7014 C 645.395 -3.33395 -0.484679 0
M  V30 7015 O 645.925 -3.72089 -1.5137 0
M  V30 7016 N 644.131 -2.86491 -0.486961 0
M  V30 7017 H 643.678 -2.55199 0.350877 0
M  V30 7018 H 643.636 -2.83731 -1.3544 0
M  V30 7019 N 647.408 -1.11026 -1.11852 0
M  V30 7020 C 648.655 -0.85646 -1.83497 0
M  V30 7021 C 648.983 0.617938 -1.84423 0
M  V30 7022 O 648.238 1.47194 -1.28966 0
M  V30 7023 C 648.537 -1.35777 -3.30604 0
M  V30 7024 C 648.203 -2.84465 -3.49843 0
M  V30 7025 C 646.865 -3.25068 -3.54802 0
M  V30 7026 C 649.217 -3.80251 -3.56453 0
M  V30 7027 C 646.545 -4.60194 -3.63921 0
M  V30 7028 C 648.897 -5.15188 -3.67102 0
M  V30 7029 C 647.561 -5.55356 -3.70319 0
M  V30 7030 H 646.831 -0.313401 -0.671462 0
M  V30 7031 H 649.478 -1.38792 -1.31943 0
M  V30 7032 H 647.783 -0.746455 -3.84624 0
M  V30 7033 H 649.48 -1.13779 -3.8452 0
M  V30 7034 H 646.07 -2.52054 -3.46651 0
M  V30 7035 H 650.254 -3.49986 -3.51886 0
M  V30 7036 H 645.51 -4.90728 -3.64686 0
M  V30 7037 H 649.684 -5.89248 -3.71159 0
M  V30 7038 H 647.311 -6.60054 -3.77138 0
M  V30 7039 N 648.886 1.2938 -0.899927 0
M  V30 7040 C 649.834 2.29675 -0.367698 0
M  V30 7041 C 650.828 1.60787 0.533282 0
M  V30 7042 O 652.034 1.75126 0.416058 0
M  V30 7043 H 648.409 0.745284 -0.100279 0
M  V30 7044 H 650.38 2.72008 -1.22696 0
M  V30 7045 C 649.129 3.45512 0.389483 0
M  V30 7046 H 648.452 3.98713 -0.294575 0
M  V30 7047 H 649.892 4.17725 0.726744 0
M  V30 7048 C 648.351 2.969 1.59223 0
M  V30 7049 O 648.881 2.98195 2.69152 0
M  V30 7050 N 647.087 2.52728 1.43447 0
M  V30 7051 H 646.634 2.51873 0.540148 0
M  V30 7052 H 646.592 2.20561 2.24054 0
M  V30 7053 N 650.364 0.662433 1.43002 0
M  V30 7054 C 651.294 -0.00979809 2.33498 0
M  V30 7055 C 652.275 -0.802329 1.49989 0
M  V30 7056 O 653.46 -0.761964 1.78627 0
M  V30 7057 C 650.59 -0.970446 3.33466 0
M  V30 7058 C 649.544 -0.287383 4.27034 0
M  V30 7059 C 648.87 -1.36012 5.17112 0
M  V30 7060 C 650.17 0.82595 5.15728 0
M  V30 7061 H 651.864 0.745959 2.89958 0
M  V30 7062 H 649.41 0.360172 1.39423 0
M  V30 7063 H 651.363 -1.44971 3.95679 0
M  V30 7064 H 650.087 -1.75748 2.75282 0
M  V30 7065 H 648.746 0.17152 3.66199 0
M  V30 7066 H 648.394 -2.13882 4.55262 0
M  V30 7067 H 648.094 -0.908276 5.80538 0
M  V30 7068 H 649.618 -1.84056 5.82199 0
M  V30 7069 H 651.032 0.42845 5.71697 0
M  V30 7070 H 649.429 1.20282 5.87922 0
M  V30 7071 H 650.499 1.68003 4.54866 0
M  V30 7072 N 651.842 -1.52309 0.404946 0
M  V30 7073 C 652.79 -2.28452 -0.437321 0
M  V30 7074 C 653.784 -1.32975 -1.04948 0
M  V30 7075 O 654.99 -1.50451 -0.988159 0
M  V30 7076 H 651.365 -0.734824 -0.159805 0
M  V30 7077 H 653.336 -2.97542 0.22615 0
M  V30 7078 C 652.085 -3.11536 -1.54404 0
M  V30 7079 H 651.408 -3.84871 -1.08233 0
M  V30 7080 H 652.848 -3.67926 -2.10729 0
M  V30 7081 C 651.307 -2.24833 -2.50902 0
M  V30 7082 O 651.837 -1.88574 -3.54687 0
M  V30 7083 N 650.043 -1.88685 -2.21012 0
M  V30 7084 H 649.59 -2.18371 -1.36646 0
M  V30 7085 H 649.548 -1.30966 -2.85824 0
M  V30 7086 O 653.359 -0.275866 -1.59126 0
M  V30 7087 H 654.05 0.293949 -1.91457 0
M  V30 END ATOM
M  V30 BEGIN BOND
M  V30 END BOND
M  V30 END CTAB
M  END
$$$$
