drugbank_target|Q9UBL9 P2X purinoceptor 2 (DB01069)
 OpenBabel12092121213D

  0  0  0     0  0            999 V3000
M  V30 BEGIN CTAB
M  V30 COUNTS 7252 7355 0 0 0
M  V30 BEGIN ATOM
M  V30 1 H -0.908 1.98254 -0.117106 0
M  V30 2 N 0 1.576 0 0
M  V30 3 C 0.933 2.03868 1.02534 0
M  V30 4 C 1.911 0.928543 1.3348 0
M  V30 5 O 3.095 1.19667 1.45644 0
M  V30 6 C 0.222 2.43627 2.35294 0
M  V30 7 C -0.732 3.65373 2.2001 0
M  V30 8 S 0.101 5.13292 1.52614 0
M  V30 9 C 1.257 5.56322 2.86805 0
M  V30 10 H 1.49 2.90518 0.631377 0
M  V30 11 H -0.977 1.52953 0.210867 0
M  V30 12 H 0.981 2.67203 3.11629 0
M  V30 13 H -0.358 1.57376 2.7183 0
M  V30 14 H -1.165 3.90944 3.18086 0
M  V30 15 H -1.563 3.418 1.51819 0
M  V30 16 H 0.729 5.58782 3.83104 0
M  V30 17 H 1.672 6.56266 2.65933 0
M  V30 18 H 2.08 4.83886 2.90714 0
M  V30 19 N 1.4781 -0.272755 1.55222 0
M  V30 20 C 2.4411 -1.32041 1.87344 0
M  V30 21 C 3.4411 -1.42342 0.74803 0
M  V30 22 O 4.6311 -1.41488 1.0162 0
M  V30 23 C 1.7631 -2.70173 2.07893 0
M  V30 24 H 2.9561 -1.04789 2.80997 0
M  V30 25 H 0.5091 -0.51083 1.47717 0
M  V30 26 H 1.2441 -3.02605 1.16622 0
M  V30 27 H 1.0291 -2.64082 2.89833 0
M  V30 28 H 2.5191 -3.45869 2.34017 0
M  V30 29 N 2.9562 -1.48159 -0.537278 0
M  V30 30 C 3.9192 -1.61665 -1.62472 0
M  V30 31 C 4.9192 -0.490395 -1.5314 0
M  V30 32 O 6.1092 -0.755998 -1.5694 0
M  V30 33 C 3.2412 -1.57997 -3.02076 0
M  V30 34 H 4.4342 -2.58621 -1.51839 0
M  V30 35 H 1.9872 -1.36647 -0.758771 0
M  V30 36 H 2.7222 -0.624913 -3.18222 0
M  V30 37 H 2.5072 -2.39755 -3.10258 0
M  V30 38 H 3.9972 -1.70627 -3.81151 0
M  V30 39 N 4.4343 0.785586 -1.36625 0
M  V30 40 C 5.3973 1.87999 -1.31107 0
M  V30 41 C 6.3973 1.59316 -0.217959 0
M  V30 42 O 7.5873 1.67656 -0.472977 0
M  V30 43 C 4.7193 3.24861 -1.03334 0
M  V30 44 H 5.9123 1.94307 -2.2844 0
M  V30 45 H 3.4653 0.983813 -1.21453 0
M  V30 46 H 4.2003 3.24235 -0.0647432 0
M  V30 47 H 3.9853 3.4707 -1.82441 0
M  V30 48 H 5.4753 4.04929 -1.02088 0
M  V30 49 N 5.9124 1.20967 1.01018 0
M  V30 50 C 6.8444 0.922059 2.09835 0
M  V30 51 C 7.8574 -0.0927106 1.62536 0
M  V30 52 O 9.0464 0.139127 1.77957 0
M  V30 53 C 6.1464 0.362004 3.36961 0
M  V30 54 C 5.3194 1.42986 4.13369 0
M  V30 55 C 4.3784 0.879976 5.1879 0
M  V30 56 O 3.4044 1.56219 5.47343 0
M  V30 57 N 4.6064 -0.307396 5.79686 0
M  V30 58 H 7.3714 1.8588 2.35093 0
M  V30 59 H 4.9324 1.11422 1.1746 0
M  V30 60 H 6.9244 -0.0201474 4.04695 0
M  V30 61 H 5.4944 -0.479437 3.08902 0
M  V30 62 H 4.7144 1.98608 3.40512 0
M  V30 63 H 6.0024 2.14885 4.61196 0
M  V30 64 H 5.4004 -0.878796 5.58832 0
M  V30 65 H 3.9574 -0.631115 6.48737 0
M  V30 66 N 7.3905 -1.2043 1.01659 0
M  V30 67 C 8.8015 -1.71517 0.737482 0
M  V30 68 C 9.1525 -1.81547 -0.743973 0
M  V30 69 O 8.2775 -1.47803 -1.58061 0
M  V30 70 C 8.8725 -3.11515 1.33206 0
M  V30 71 C 7.4315 -3.59912 1.10183 0
M  V30 72 C 6.5785 -2.37116 1.43776 0
M  V30 73 H 9.5295 -1.05444 1.18606 0
M  V30 74 H 9.5505 -3.73575 0.722636 0
M  V30 75 H 9.0625 -3.04182 2.41028 0
M  V30 76 H 7.1635 -3.72577 0.0412756 0
M  V30 77 H 7.2765 -4.44731 1.78188 0
M  V30 78 H 5.6405 -2.39857 0.856778 0
M  V30 79 H 6.4235 -2.32424 2.52654 0
M  V30 80 N 8.8686 -0.792821 -1.36206 0
M  V30 81 C 9.8156 -0.191653 -2.30003 0
M  V30 82 C 10.7856 0.666453 -1.52143 0
M  V30 83 O 11.9706 0.61442 -1.80636 0
M  V30 84 C 9.1106 0.664848 -3.38635 0
M  V30 85 C 8.2236 -0.212175 -4.31479 0
M  V30 86 C 7.3586 0.651022 -5.27196 0
M  V30 87 C 6.3976 -0.227247 -6.11678 0
M  V30 88 N 5.5346 0.595127 -6.99573 0
M  V30 89 H 10.3746 -0.996978 -2.80828 0
M  V30 90 H 7.9116 -0.503206 -1.38225 0
M  V30 91 H 9.8696 1.17645 -4.00269 0
M  V30 92 H 8.4996 1.43557 -2.89122 0
M  V30 93 H 7.5516 -0.841777 -3.70969 0
M  V30 94 H 8.8636 -0.888751 -4.90818 0
M  V30 95 H 8.0176 1.2283 -5.94136 0
M  V30 96 H 6.7566 1.36121 -4.68319 0
M  V30 97 H 5.7616 -0.816904 -5.43697 0
M  V30 98 H 6.9866 -0.93509 -6.72631 0
M  V30 99 H 4.9326 1.28955 -6.432 0
M  V30 100 H 4.8496 -0.0236952 -7.55996 0
M  V30 101 H 6.1176 1.15613 -7.70879 0
M  V30 102 N 10.3467 1.47872 -0.545128 0
M  V30 103 C 11.5767 2.06589 -0.0210534 0
M  V30 104 C 11.9847 1.39997 1.27269 0
M  V30 105 O 11.3277 0.486421 1.77143 0
M  V30 106 C 11.3897 3.58574 0.257933 0
M  V30 107 C 11.0537 4.47132 -0.944573 0
M  V30 108 C 12.0507 4.85986 -1.84699 0
M  V30 109 C 9.7357 4.88821 -1.15584 0
M  V30 110 C 11.7297 5.65314 -2.94446 0
M  V30 111 C 9.4167 5.67916 -2.25642 0
M  V30 112 C 10.4147 6.06073 -3.14905 0
M  V30 113 O 10.1027 6.83578 -4.23057 0
M  V30 114 H 9.8347 0.674971 -0.0372899 0
M  V30 115 H 12.3887 1.91037 -0.754599 0
M  V30 116 H 10.6187 3.72295 1.04564 0
M  V30 117 H 12.3077 3.99356 0.72592 0
M  V30 118 H 13.0737 4.54388 -1.69577 0
M  V30 119 H 8.9527 4.58595 -0.470279 0
M  V30 120 H 12.4967 5.95016 -3.64145 0
M  V30 121 H 8.3937 5.98927 -2.40742 0
M  V30 122 H 9.1617 7.01954 -4.20954 0
M  V30 123 N 11.8248 0.280983 1.55075 0
M  V30 124 C 13.2358 -0.215629 1.85451 0
M  V30 125 C 13.5868 -1.54991 1.203 0
M  V30 126 O 12.7118 -2.10699 0.493435 0
M  V30 127 C 13.3068 -0.398026 3.36454 0
M  V30 128 C 11.8658 -0.838866 3.66933 0
M  V30 129 C 11.0128 0.064458 2.77225 0
M  V30 130 H 13.9638 0.502601 1.50531 0
M  V30 131 H 13.9848 -1.23569 3.59876 0
M  V30 132 H 13.4968 0.573241 3.83843 0
M  V30 133 H 11.5978 -1.8214 3.25048 0
M  V30 134 H 11.7108 -0.672123 4.74362 0
M  V30 135 H 10.0748 -0.452863 2.50642 0
M  V30 136 H 10.8578 1.03172 3.2743 0
M  V30 137 N 13.3029 -1.57598 0.00835791 0
M  V30 138 C 14.2659 -2.07884 -0.965242 0
M  V30 139 C 15.2659 -0.989825 -1.26725 0
M  V30 140 O 16.4559 -1.25218 -1.21104 0
M  V30 141 C 13.5879 -2.52731 -2.28779 0
M  V30 142 H 14.7809 -2.95178 -0.530112 0
M  V30 143 H 12.3339 -1.54458 -0.239283 0
M  V30 144 H 13.0689 -1.68705 -2.76964 0
M  V30 145 H 12.8539 -3.32272 -2.08177 0
M  V30 146 H 14.3439 -2.91933 -2.98605 0
M  V30 147 N 14.781 0.264519 -1.55364 0
M  V30 148 C 16.029 0.993021 -1.76021 0
M  V30 149 C 16.35 1.86511 -0.569099 0
M  V30 150 O 15.62 1.91438 0.415735 0
M  V30 151 H 14.2 0.369639 -0.649135 0
M  V30 152 H 16.862 0.286707 -1.9278 0
M  V30 153 H 15.958 1.62502 -2.66457 0
M  V30 154 N 16.2591 1.48442 0.529413 0
M  V30 155 C 17.2221 1.62524 1.61612 0
M  V30 156 C 18.2221 0.498509 1.52877 0
M  V30 157 O 19.4121 0.76431 1.56537 0
M  V30 158 C 16.5441 1.59597 3.01233 0
M  V30 159 H 17.7371 2.59423 1.50465 0
M  V30 160 H 15.2901 1.37047 0.751514 0
M  V30 161 H 16.0251 0.641781 3.17886 0
M  V30 162 H 15.8101 2.41397 3.08982 0
M  V30 163 H 17.3001 1.72646 3.80241 0
M  V30 164 N 17.7372 -0.778329 1.37039 0
M  V30 165 C 18.9652 -1.56734 1.35063 0
M  V30 166 C 19.3802 -1.88686 -0.0655597 0
M  V30 167 O 18.7372 -1.5096 -1.02554 0
M  V30 168 C 18.7882 -2.88163 2.18276 0
M  V30 169 O 18.5092 -2.57583 3.54376 0
M  V30 170 C 20.0102 -3.82422 2.24206 0
M  V30 171 H 17.2302 -0.485778 0.462883 0
M  V30 172 H 19.7742 -0.965185 1.8029 0
M  V30 173 H 17.9292 -3.44818 1.76576 0
M  V30 174 H 18.3432 -3.41699 3.97922 0
M  V30 175 H 19.8172 -4.71667 2.86765 0
M  V30 176 H 20.2942 -4.21078 1.24861 0
M  V30 177 H 20.9002 -3.31697 2.6619 0
M  V30 178 N 19.2153 -1.21501 -1.00376 0
M  V30 179 C 20.1783 -0.976927 -2.07337 0
M  V30 180 C 21.1783 0.0525322 -1.60714 0
M  V30 181 O 22.3683 -0.184869 -1.73216 0
M  V30 182 C 19.5003 -0.473423 -3.37597 0
M  V30 183 H 20.6933 -1.92587 -2.29892 0
M  V30 184 H 18.2463 -1.03217 -1.17371 0
M  V30 185 H 18.9813 0.480379 -3.20722 0
M  V30 186 H 18.7663 -1.216 -3.72768 0
M  V30 187 H 20.2563 -0.32675 -4.1632 0
M  V30 188 N 20.6934 1.19889 -1.02296 0
M  V30 189 C 22.1094 1.41462 -0.738954 0
M  V30 190 C 22.3094 1.89721 0.678846 0
M  V30 191 O 21.3654 2.07016 1.4457 0
M  V30 192 C 22.6784 2.43083 -1.77005 0
M  V30 193 C 24.2264 2.5684 -1.78892 0
M  V30 194 C 24.7014 3.61709 -2.80945 0
M  V30 195 N 26.1924 3.69199 -2.79725 0
M  V30 196 C 26.9274 4.50019 -3.55345 0
M  V30 197 N 26.4234 5.34592 -4.40662 0
M  V30 198 N 28.2164 4.44612 -3.43914 0
M  V30 199 H 20.3674 0.868827 -1.93817 0
M  V30 200 H 22.6304 0.44399 -0.837602 0
M  V30 201 H 22.3364 2.14636 -2.78612 0
M  V30 202 H 22.2104 3.4217 -1.58744 0
M  V30 203 H 24.5974 2.84614 -0.779674 0
M  V30 204 H 24.6784 1.57927 -2.01228 0
M  V30 205 H 24.3224 3.34678 -3.82038 0
M  V30 206 H 24.2524 4.60259 -2.5587 0
M  V30 207 H 26.7434 3.08794 -2.17842 0
M  V30 208 H 27.0564 5.93363 -4.95116 0
M  V30 209 H 25.4014 5.34073 -4.44737 0
M  V30 210 H 28.5924 3.7758 -2.76679 0
M  V30 211 H 28.7654 5.0736 -4.031 0
M  V30 212 N 22.1715 0.800033 1.35784 0
M  V30 213 C 23.5875 0.482977 1.52117 0
M  V30 214 C 23.7875 -0.996948 1.75109 0
M  V30 215 O 22.8435 -1.78216 1.78872 0
M  V30 216 C 24.1565 1.32264 2.70049 0
M  V30 217 C 25.7045 1.31742 2.83924 0
M  V30 218 C 26.1795 2.14106 4.04874 0
M  V30 219 N 27.6705 2.11607 4.12039 0
M  V30 220 C 28.4055 2.72099 5.04727 0
M  V30 221 N 27.9015 3.41492 6.02789 0
M  V30 222 N 29.6945 2.61776 4.97423 0
M  V30 223 H 21.8455 1.75856 1.19115 0
M  V30 224 H 24.1085 0.748122 0.582252 0
M  V30 225 H 23.8145 2.37261 2.59616 0
M  V30 226 H 23.6885 0.971303 3.6448 0
M  V30 227 H 26.0755 0.275333 2.93813 0
M  V30 228 H 26.1565 1.70859 1.9037 0
M  V30 229 H 25.8005 3.18351 3.95746 0
M  V30 230 H 25.7305 1.72353 4.97596 0
M  V30 231 H 28.2215 1.61112 3.41835 0
M  V30 232 H 28.5345 3.84953 6.70098 0
M  V30 233 H 26.8795 3.45596 6.02983 0
M  V30 234 H 30.0705 2.07157 4.19766 0
M  V30 235 H 30.2435 3.0921 5.69468 0
M  V30 236 N 23.6496 -1.47581 0.552962 0
M  V30 237 C 24.5796 -2.32762 -0.185451 0
M  V30 238 C 25.5606 -1.43527 -0.912905 0
M  V30 239 O 26.7456 -1.72388 -0.894201 0
M  V30 240 C 23.8756 -3.25219 -1.21859 0
M  V30 241 C 22.8296 -4.23661 -0.607864 0
M  V30 242 C 22.1556 -5.05413 -1.74533 0
M  V30 243 C 23.4556 -5.20481 0.435582 0
M  V30 244 H 25.1496 -2.94749 0.525684 0
M  V30 245 H 22.6956 -1.41738 0.254251 0
M  V30 246 H 24.6486 -3.8365 -1.7433 0
M  V30 247 H 23.3726 -2.61279 -1.95961 0
M  V30 248 H 22.0316 -3.66451 -0.104489 0
M  V30 249 H 21.6796 -4.3788 -2.47529 0
M  V30 250 H 21.3796 -5.72059 -1.34249 0
M  V30 251 H 22.9036 -5.66701 -2.27338 0
M  V30 252 H 24.3176 -5.733 -0.00290157 0
M  V30 253 H 22.7146 -5.95305 0.757067 0
M  V30 254 H 23.7846 -4.66217 1.33303 0
M  V30 255 N 25.1277 -0.289203 -1.54924 0
M  V30 256 C 26.0907 0.579144 -2.21762 0
M  V30 257 C 27.0907 1.07047 -1.1999 0
M  V30 258 O 28.2807 0.968384 -1.44803 0
M  V30 259 C 25.4127 1.80055 -2.8947 0
M  V30 260 H 26.6057 -0.00464908 -2.999 0
M  V30 261 H 24.1587 -0.0399306 -1.56249 0
M  V30 262 H 24.8937 2.42449 -2.15381 0
M  V30 263 H 24.6787 1.45602 -3.64064 0
M  V30 264 H 26.1687 2.41773 -3.40493 0
M  V30 265 N 26.6058 1.57591 -0.0167156 0
M  V30 266 C 28.0218 1.55946 0.339557 0
M  V30 267 C 28.2218 1.02109 1.73713 0
M  V30 268 O 27.2778 0.662303 2.43659 0
M  V30 269 C 28.5908 3.00037 0.199499 0
M  V30 270 C 30.1388 3.11805 0.273193 0
M  V30 271 C 30.6138 4.57713 0.162068 0
M  V30 272 N 32.1048 4.6268 0.219444 0
M  V30 273 C 32.8398 5.73185 0.157054 0
M  V30 274 N 32.3358 6.92786 0.0442936 0
M  V30 275 N 34.1288 5.61707 0.21014 0
M  V30 276 H 26.2798 1.90921 -0.930758 0
M  V30 277 H 28.5428 0.877674 -0.358319 0
M  V30 278 H 28.2488 3.4333 -0.76273 0
M  V30 279 H 28.1228 3.64387 0.974786 0
M  V30 280 H 30.5098 2.68433 1.22587 0
M  V30 281 H 30.5908 2.50201 -0.532256 0
M  V30 282 H 30.2348 5.01763 -0.78714 0
M  V30 283 H 30.1648 5.17283 0.986222 0
M  V30 284 H 32.6558 3.76649 0.307246 0
M  V30 285 H 32.9688 7.728 0.00304069 0
M  V30 286 H 31.3138 6.94999 0.00968457 0
M  V30 287 H 34.5048 4.6716 0.296546 0
M  V30 288 H 34.6778 6.47807 0.158054 0
M  V30 289 N 28.0839 -0.256276 1.55502 0
M  V30 290 C 29.3319 -0.983672 1.76545 0
M  V30 291 C 29.6529 -1.86206 0.578982 0
M  V30 292 O 28.9229 -1.91656 -0.405577 0
M  V30 293 H 27.5029 -0.366191 0.651086 0
M  V30 294 H 30.1649 -0.276479 1.92929 0
M  V30 295 H 29.2609 -1.61087 2.67315 0
M  V30 296 N 29.562 -1.4872 -0.521534 0
M  V30 297 C 30.802 -1.58771 -1.28729 0
M  V30 298 C 31.166 -0.259394 -1.9024 0
M  V30 299 O 32.367 -0.234942 -2.67771 0
M  V30 300 C 30.638 -2.70039 -2.34124 0
M  V30 301 S 32.197 -2.9991 -3.20312 0
M  V30 302 H 29.015 -0.560251 -0.437767 0
M  V30 303 H 31.617 -1.86283 -0.593188 0
M  V30 304 H 30.321 -3.65101 -1.87429 0
M  V30 305 H 29.852 -2.44455 -3.08229 0
M  V30 306 H 31.867 -2.39855 -4.34378 0
M  V30 307 N 31.0401 0.771051 -1.3745 0
M  V30 308 C 32.2861 1.53109 -1.339 0
M  V30 309 C 32.6411 1.9225 0.0758401 0
M  V30 310 O 31.9341 1.61264 1.03463 0
M  V30 311 C 32.1281 2.80676 -2.2126 0
M  V30 312 C 31.9571 2.54003 -3.71096 0
M  V30 313 C 30.7271 2.48097 -4.402 0
M  V30 314 C 32.9251 2.21953 -4.63941 0
M  V30 315 N 30.9071 2.13515 -5.75573 0
M  V30 316 C 32.2781 1.97516 -5.87697 0
M  V30 317 C 34.3331 2.08114 -4.5232 0
M  V30 318 C 33.0361 1.60638 -7.01133 0
M  V30 319 C 35.0621 1.72636 -5.65642 0
M  V30 320 C 34.4241 1.4906 -6.88448 0
M  V30 321 H 30.5231 0.56055 -0.54526 0
M  V30 322 H 33.1071 0.899472 -1.72678 0
M  V30 323 H 31.2781 3.41674 -1.84698 0
M  V30 324 H 33.0101 3.46578 -2.08963 0
M  V30 325 H 29.7651 2.63974 -3.93211 0
M  V30 326 H 30.1891 1.98919 -6.47117 0
M  V30 327 H 34.8311 2.25024 -3.57944 0
M  V30 328 H 32.5491 1.42467 -7.95443 0
M  V30 329 H 36.1351 1.62586 -5.58621 0
M  V30 330 H 35.0151 1.22014 -7.7465 0
M  V30 331 N 32.5182 1.22032 0.997298 0
M  V30 332 C 33.7432 1.06921 1.77715 0
M  V30 333 C 34.1682 -0.376226 1.84299 0
M  V30 334 O 33.5262 -1.27165 1.29223 0
M  V30 335 C 33.5742 1.67996 3.19076 0
M  V30 336 O 32.6782 0.930653 4.01762 0
M  V30 337 H 32.0192 0.375814 0.547412 0
M  V30 338 H 34.5492 1.61737 1.25309 0
M  V30 339 H 34.5592 1.72538 3.69723 0
M  V30 340 H 33.2342 2.73182 3.13599 0
M  V30 341 H 31.8112 0.960917 3.60307 0
M  V30 342 N 33.9963 -1.19345 1.0293 0
M  V30 343 C 34.9593 -2.20793 0.615069 0
M  V30 344 C 35.9593 -1.57553 -0.321533 0
M  V30 345 O 37.1493 -1.73862 -0.108483 0
M  V30 346 C 34.2813 -3.40754 -0.0999222 0
M  V30 347 H 35.4743 -2.58955 1.51269 0
M  V30 348 H 33.0273 -1.3303 0.820534 0
M  V30 349 H 33.7623 -3.0811 -1.01187 0
M  V30 350 H 33.5473 -3.87889 0.57309 0
M  V30 351 H 35.0373 -4.15898 -0.376645 0
M  V30 352 N 35.4744 -0.807222 -1.35358 0
M  V30 353 C 36.4044 -0.232509 -2.3234 0
M  V30 354 C 37.3854 0.642386 -1.57504 0
M  V30 355 O 38.5704 0.572526 -1.85569 0
M  V30 356 C 35.7004 0.619238 -3.41735 0
M  V30 357 C 34.6544 -0.157215 -4.27711 0
M  V30 358 C 33.9804 0.816273 -5.28433 0
M  V30 359 C 35.2804 -1.35656 -5.04376 0
M  V30 360 H 36.9744 -1.04276 -2.80654 0
M  V30 361 H 34.5204 -0.50288 -1.34934 0
M  V30 362 H 36.4734 1.03137 -4.08584 0
M  V30 363 H 35.1974 1.46239 -2.92031 0
M  V30 364 H 33.8564 -0.550525 -3.62443 0
M  V30 365 H 33.5044 1.65494 -4.74996 0
M  V30 366 H 33.2044 0.301067 -5.86828 0
M  V30 367 H 34.7284 1.22659 -5.98153 0
M  V30 368 H 36.1424 -1.01927 -5.64166 0
M  V30 369 H 34.5394 -1.8063 -5.7227 0
M  V30 370 H 35.6094 -2.14288 -4.34981 0
M  V30 371 N 36.9525 1.47285 -0.560781 0
M  V30 372 C 38.1985 2.03347 -0.0463654 0
M  V30 373 C 38.5535 1.42702 1.2905 0
M  V30 374 O 37.8465 0.574619 1.8278 0
M  V30 375 C 38.0405 3.57258 0.100784 0
M  V30 376 C 37.8695 4.32827 -1.22027 0
M  V30 377 C 36.6395 4.72588 -1.78854 0
M  V30 378 C 38.8375 4.67739 -2.13834 0
M  V30 379 N 36.8195 5.32816 -3.04927 0
M  V30 380 C 38.1905 5.28307 -3.24487 0
M  V30 381 C 40.2455 4.49667 -2.13784 0
M  V30 382 C 38.9485 5.72711 -4.35194 0
M  V30 383 C 40.9745 4.95073 -3.23506 0
M  V30 384 C 40.3365 5.55693 -4.32879 0
M  V30 385 H 36.4355 0.779755 -0.0592166 0
M  V30 386 H 39.0195 1.79723 -0.748857 0
M  V30 387 H 37.1905 3.80642 0.772404 0
M  V30 388 H 38.9225 3.9996 0.617589 0
M  V30 389 H 35.6775 4.54656 -1.32609 0
M  V30 390 H 36.1015 5.67471 -3.69197 0
M  V30 391 H 40.7435 4.02154 -1.30507 0
M  V30 392 H 38.4615 6.19214 -5.1923 0
M  V30 393 H 42.0475 4.82859 -3.24559 0
M  V30 394 H 40.9275 5.90188 -5.1638 0
M  V30 395 N 38.4306 0.297415 1.54768 0
M  V30 396 C 39.7076 -0.365847 1.92148 0
M  V30 397 C 40.0876 -1.71975 1.22424 0
M  V30 398 O 39.4356 -2.25666 0.358739 0
M  V30 399 C 39.6456 -0.484056 3.45627 0
M  V30 400 C 40.9936 -0.756594 4.17805 0
M  V30 401 O 42.0176 -0.568007 3.51642 0
M  V30 402 O 40.8766 -1.11863 5.34929 0
M  V30 403 H 37.9706 -0.203919 0.801465 0
M  V30 404 H 40.5166 0.34521 1.66152 0
M  V30 405 H 39.2886 0.467865 3.88493 0
M  V30 406 H 38.9116 -1.24372 3.77647 0
M  V30 407 N 39.9087 -1.5758 0.0250728 0
M  V30 408 C 41.1387 -1.95646 -0.663783 0
M  V30 409 C 41.5467 -0.899935 -1.66427 0
M  V30 410 O 40.8897 0.127191 -1.83259 0
M  V30 411 C 40.9517 -3.29835 -1.43 0
M  V30 412 C 40.6157 -4.53197 -0.588305 0
M  V30 413 C 41.6127 -5.19726 0.13469 0
M  V30 414 C 39.2977 -4.99529 -0.526897 0
M  V30 415 C 41.2917 -6.30902 0.90781 0
M  V30 416 C 38.9787 -6.10589 0.24993 0
M  V30 417 C 39.9767 -6.76134 0.965994 0
M  V30 418 O 39.6647 -7.85062 1.7301 0
M  V30 419 H 39.3967 -0.649282 -0.188174 0
M  V30 420 H 41.9507 -2.05245 0.0799006 0
M  V30 421 H 40.1807 -3.16716 -2.21873 0
M  V30 422 H 41.8697 -3.52833 -2.00658 0
M  V30 423 H 42.6357 -4.84904 0.0965562 0
M  V30 424 H 38.5147 -4.48319 -1.07381 0
M  V30 425 H 42.0587 -6.81995 1.46724 0
M  V30 426 H 37.9557 -6.44849 0.289795 0
M  V30 427 H 38.7237 -8.01708 1.64944 0
M  V30 428 N 41.3868 0.248026 -1.55636 0
M  V30 429 C 42.2968 1.32859 -1.93354 0
M  V30 430 C 43.3128 1.52719 -0.833838 0
M  V30 431 O 44.4888 1.66363 -1.13513 0
M  V30 432 C 41.5538 2.66337 -2.21958 0
M  V30 433 C 40.6148 2.55008 -3.45354 0
M  V30 434 C 39.8478 3.82121 -3.72584 0
M  V30 435 O 40.0708 4.83951 -3.01907 0
M  V30 436 O 39.0048 3.80822 -4.6611 0
M  V30 437 H 42.8308 1.03862 -2.85388 0
M  V30 438 H 40.4158 0.448686 -1.42503 0
M  V30 439 H 42.2978 3.45216 -2.4167 0
M  V30 440 H 40.9728 2.95068 -1.33103 0
M  V30 441 H 39.8798 1.7442 -3.30951 0
M  V30 442 H 41.2128 2.31222 -4.34508 0
M  V30 443 N 42.8649 1.48995 0.513639 0
M  V30 444 C 44.0929 1.61531 1.29288 0
M  V30 445 C 44.5079 0.281801 1.86685 0
M  V30 446 O 43.8649 -0.731111 1.67215 0
M  V30 447 C 43.9159 2.67449 2.43215 0
M  V30 448 O 43.6369 3.95626 1.88179 0
M  V30 449 C 45.1379 2.90575 3.34785 0
M  V30 450 H 42.3579 0.544165 0.392588 0
M  V30 451 H 44.9019 1.9494 0.617956 0
M  V30 452 H 43.0569 2.36853 3.0656 0
M  V30 453 H 43.4709 4.53868 2.62876 0
M  V30 454 H 44.9449 3.68449 4.11035 0
M  V30 455 H 45.4219 2.00011 3.91015 0
M  V30 456 H 46.0279 3.22538 2.77218 0
M  V30 457 N 44.343 -0.763751 1.37857 0
M  V30 458 C 45.754 -1.3405 1.29952 0
M  V30 459 C 46.105 -1.96138 -0.0492898 0
M  V30 460 O 45.23 -1.94372 -0.951239 0
M  V30 461 C 45.825 -2.43729 2.35333 0
M  V30 462 C 44.384 -2.97151 2.31037 0
M  V30 463 C 43.531 -1.70438 2.18738 0
M  V30 464 H 46.482 -0.563396 1.48363 0
M  V30 465 H 46.503 -3.23412 2.00462 0
M  V30 466 H 46.015 -1.9851 3.33489 0
M  V30 467 H 44.116 -3.46724 1.3643 0
M  V30 468 H 44.229 -3.52221 3.24772 0
M  V30 469 H 42.593 -1.93673 1.65418 0
M  V30 470 H 43.376 -1.27312 3.18821 0
M  V30 471 N 45.8211 -1.22559 -0.990812 0
M  V30 472 C 46.7681 -0.997519 -2.0813 0
M  V30 473 C 47.7381 0.0814702 -1.659 0
M  V30 474 O 48.9231 -0.0685424 -1.90677 0
M  V30 475 C 46.0631 -0.583615 -3.40129 0
M  V30 476 C 45.1761 -1.7336 -3.9569 0
M  V30 477 C 44.3111 -1.26748 -5.15857 0
M  V30 478 C 43.3501 -2.38888 -5.63559 0
M  V30 479 N 42.4871 -1.93308 -6.74964 0
M  V30 480 H 47.3271 -1.93099 -2.26973 0
M  V30 481 H 44.8641 -0.962114 -1.11273 0
M  V30 482 H 46.8221 -0.324801 -4.15934 0
M  V30 483 H 45.4521 0.312845 -3.2128 0
M  V30 484 H 44.5041 -2.10669 -3.16738 0
M  V30 485 H 45.8161 -2.57704 -4.27071 0
M  V30 486 H 44.9701 -0.966173 -5.98957 0
M  V30 487 H 43.7091 -0.394272 -4.86104 0
M  V30 488 H 42.7141 -2.69805 -4.79046 0
M  V30 489 H 43.9391 -3.26728 -5.95336 0
M  V30 490 H 41.8851 -1.08352 -6.4699 0
M  V30 491 H 41.8021 -2.71217 -7.05675 0
M  V30 492 H 43.0701 -1.66252 -7.61564 0
M  V30 493 N 47.2992 1.18797 -1.03562 0
M  V30 494 C 48.5452 1.8893 -0.737113 0
M  V30 495 C 48.8782 1.79837 0.732956 0
M  V30 496 O 48.1532 1.19525 1.5344 0
M  V30 497 C 48.4362 3.39607 -1.19745 0
M  V30 498 C 48.2892 3.57537 -2.72924 0
M  V30 499 C 49.6082 4.33069 -0.783526 0
M  V30 500 H 46.7272 0.686057 -0.269249 0
M  V30 501 H 49.3692 1.39797 -1.28673 0
M  V30 502 H 47.5192 3.81583 -0.729855 0
M  V30 503 H 49.1912 3.24688 -3.27682 0
M  V30 504 H 47.4342 3.00363 -3.12993 0
M  V30 505 H 48.1052 4.63238 -3.00191 0
M  V30 506 H 50.5812 3.98846 -1.18581 0
M  V30 507 H 49.4572 5.3707 -1.13343 0
M  V30 508 H 49.7182 4.40986 0.313681 0
M  V30 509 N 48.7773 0.814389 1.34928 0
M  V30 510 C 50.0263 0.394871 1.97797 0
M  V30 511 C 50.3393 -1.04555 1.65311 0
M  V30 512 O 51.5453 -1.56856 2.21604 0
M  V30 513 C 50.0013 0.655103 3.53888 0
M  V30 514 C 49.6093 2.10858 3.95276 0
M  V30 515 C 51.3533 0.301329 4.23429 0
M  V30 516 C 49.2603 2.31415 5.44244 0
M  V30 517 H 48.1903 0.143913 0.740139 0
M  V30 518 H 50.8413 0.999544 1.53888 0
M  V30 519 H 49.2233 -0.0196253 3.95995 0
M  V30 520 H 50.3973 2.82176 3.64298 0
M  V30 521 H 48.7123 2.42297 3.38646 0
M  V30 522 H 51.3093 0.432869 5.32945 0
M  V30 523 H 51.6523 -0.75331 4.09428 0
M  V30 524 H 52.1853 0.930288 3.86769 0
M  V30 525 H 48.9243 3.35353 5.63222 0
M  V30 526 H 48.4443 1.6463 5.76764 0
M  V30 527 H 50.1233 2.13352 6.10811 0
M  V30 528 N 50.2554 -1.46986 0.568584 0
M  V30 529 C 51.5014 -2.02741 0.0488709 0
M  V30 530 C 51.8344 -1.44077 -1.30214 0
M  V30 531 O 51.1094 -0.600552 -1.84996 0
M  V30 532 C 51.3924 -3.60086 -0.032047 0
M  V30 533 C 51.2454 -4.29162 1.34686 0
M  V30 534 C 52.5644 -4.33838 -0.739798 0
M  V30 535 H 49.6834 -0.736749 0.0192338 0
M  V30 536 H 52.3254 -1.75289 0.733065 0
M  V30 537 H 50.4754 -3.83606 -0.61473 0
M  V30 538 H 52.1474 -4.16948 1.97362 0
M  V30 539 H 50.3904 -3.89073 1.91846 0
M  V30 540 H 51.0614 -5.37826 1.24285 0
M  V30 541 H 53.5374 -4.15378 -0.244939 0
M  V30 542 H 52.4134 -5.43537 -0.765406 0
M  V30 543 H 52.6744 -4.03875 -1.79827 0
M  V30 544 N 51.7335 -0.305618 -1.54608 0
M  V30 545 C 52.9795 0.302746 -2.00528 0
M  V30 546 C 53.3125 1.53184 -1.19367 0
M  V30 547 O 52.5875 1.92598 -0.271321 0
M  V30 548 C 52.8705 0.654756 -3.54097 0
M  V30 549 C 52.7235 -0.583793 -4.45995 0
M  V30 550 C 54.0425 1.47947 -4.14487 0
M  V30 551 H 51.1615 0.108564 -0.72896 0
M  V30 552 H 53.8035 -0.418634 -1.85331 0
M  V30 553 H 51.9535 1.26935 -3.67178 0
M  V30 554 H 53.6255 -1.22224 -4.44814 0
M  V30 555 H 51.8685 -1.21615 -4.16404 0
M  V30 556 H 52.5395 -0.293287 -5.5122 0
M  V30 557 H 55.0155 0.96013 -4.04871 0
M  V30 558 H 53.8915 1.69454 -5.22088 0
M  V30 559 H 54.1525 2.47011 -3.66658 0
M  V30 560 N 53.2116 1.57565 -0.0334293 0
M  V30 561 C 54.6276 1.56297 0.322997 0
M  V30 562 C 54.8276 1.03945 1.7262 0
M  V30 563 O 53.8836 0.688109 2.42943 0
M  V30 564 C 55.1966 3.00232 0.167664 0
M  V30 565 C 56.7446 3.12078 0.240107 0
M  V30 566 C 57.2196 4.57859 0.113513 0
M  V30 567 N 58.7106 4.62887 0.170359 0
M  V30 568 C 59.4456 5.73319 0.0962517 0
M  V30 569 N 58.9416 6.92794 -0.0291881 0
M  V30 570 N 60.7346 5.61898 0.150551 0
M  V30 571 H 52.8856 1.89923 -0.950956 0
M  V30 572 H 55.1486 0.873824 -0.367608 0
M  V30 573 H 54.8546 3.42501 -0.799102 0
M  V30 574 H 54.7286 3.654 0.936083 0
M  V30 575 H 57.1156 2.69718 1.19733 0
M  V30 576 H 57.1966 2.49623 -0.558763 0
M  V30 577 H 56.8406 5.009 -0.840314 0
M  V30 578 H 56.7706 5.18299 0.931302 0
M  V30 579 H 59.2616 3.76954 0.26728 0
M  V30 580 H 59.5746 7.7276 -0.0789252 0
M  V30 581 H 57.9196 6.94971 -0.0640299 0
M  V30 582 H 61.1106 4.67448 0.246981 0
M  V30 583 H 61.2836 6.47938 0.0893365 0
M  V30 584 N 54.6897 -0.239769 1.55765 0
M  V30 585 C 55.6377 -1.31668 1.91745 0
M  V30 586 C 56.6317 -1.49462 0.797338 0
M  V30 587 O 57.8377 -1.50852 0.982021 0
M  V30 588 H 54.2127 -0.441048 0.609082 0
M  V30 589 H 56.1837 -0.985923 2.81642 0
M  V30 590 C 54.9327 -2.66368 2.2348 0
M  V30 591 H 54.2557 -2.53478 3.09175 0
M  V30 592 H 55.6957 -3.40578 2.52553 0
M  V30 593 C 54.1547 -3.20002 1.05359 0
M  V30 594 O 54.6847 -4.00538 0.305261 0
M  V30 595 N 52.8907 -2.78126 0.842292 0
M  V30 596 H 52.4377 -2.12742 1.45253 0
M  V30 597 H 52.3957 -3.14354 0.053652 0
M  V30 598 N 56.1678 -1.49265 -0.50573 0
M  V30 599 C 57.5838 -1.35923 -0.836486 0
M  V30 600 C 57.7838 -0.388704 -1.97715 0
M  V30 601 O 56.8398 0.181336 -2.51848 0
M  V30 602 C 58.1528 -2.76531 -1.18115 0
M  V30 603 C 59.7008 -2.85197 -1.28964 0
M  V30 604 C 60.1758 -4.26561 -1.66761 0
M  V30 605 N 61.6668 -4.2935 -1.73819 0
M  V30 606 C 62.4018 -5.35693 -2.045 0
M  V30 607 N 61.8978 -6.52287 -2.33438 0
M  V30 608 N 63.6908 -5.23105 -2.05711 0
M  V30 609 H 55.8418 -2.10965 0.246519 0
M  V30 610 H 58.1048 -0.9468 0.0476887 0
M  V30 611 H 57.8108 -3.49226 -0.416398 0
M  V30 612 H 57.6848 -3.11599 -2.1257 0
M  V30 613 H 60.0718 -2.12742 -2.04511 0
M  V30 614 H 60.1528 -2.53718 -0.325704 0
M  V30 615 H 59.7968 -4.99541 -0.917656 0
M  V30 616 H 59.7268 -4.55502 -2.64246 0
M  V30 617 H 62.2178 -3.4526 -1.53635 0
M  V30 618 H 62.5308 -7.29158 -2.56024 0
M  V30 619 H 60.8758 -6.55521 -2.30905 0
M  V30 620 H 64.0668 -4.31026 -1.82577 0
M  V30 621 H 64.2398 -6.06078 -2.29289 0
M  V30 622 N 57.6459 0.756429 -1.3826 0
M  V30 623 C 59.0619 1.0591 -1.19395 0
M  V30 624 C 59.2619 2.01459 -0.0406567 0
M  V30 625 O 58.3179 2.44909 0.614467 0
M  V30 626 C 59.6309 1.64191 -2.51916 0
M  V30 627 C 61.1789 1.76376 -2.58574 0
M  V30 628 C 61.6539 2.38069 -3.91264 0
M  V30 629 N 63.1449 2.45503 -3.92788 0
M  V30 630 C 63.8799 2.94126 -4.92217 0
M  V30 631 N 63.3759 3.42805 -6.02043 0
M  V30 632 N 65.1689 2.9314 -4.7961 0
M  V30 633 H 57.3199 0.122313 -2.12048 0
M  V30 634 H 59.5829 0.116892 -0.940766 0
M  V30 635 H 59.2889 1.01451 -3.3675 0
M  V30 636 H 59.1629 2.6329 -2.70108 0
M  V30 637 H 61.5499 2.38244 -1.74137 0
M  V30 638 H 61.6309 0.759894 -2.44252 0
M  V30 639 H 61.2749 1.76835 -4.76121 0
M  V30 640 H 61.2049 3.39091 -4.02895 0
M  V30 641 H 63.6959 2.1107 -3.13461 0
M  V30 642 H 64.0089 3.78354 -6.73846 0
M  V30 643 H 62.3539 3.4087 -6.05667 0
M  V30 644 H 65.5449 2.54419 -3.92923 0
M  V30 645 H 65.7179 3.30721 -5.5725 0
M  V30 646 N 59.124 1.23083 0.984299 0
M  V30 647 C 60.054 1.03292 2.09411 0
M  V30 648 C 61.035 -0.048923 1.7003 0
M  V30 649 O 62.22 0.114967 1.93859 0
M  V30 650 C 59.35 0.619155 3.41736 0
M  V30 651 C 58.304 1.64791 3.95004 0
M  V30 652 C 57.63 1.0897 5.23478 0
M  V30 653 C 58.93 3.03999 4.24714 0
M  V30 654 H 60.624 1.96119 2.26225 0
M  V30 655 H 58.17 0.944344 1.08711 0
M  V30 656 H 60.123 0.467777 4.18796 0
M  V30 657 H 58.847 -0.344786 3.24775 0
M  V30 658 H 57.506 1.78721 3.20085 0
M  V30 659 H 57.154 0.11686 5.02864 0
M  V30 660 H 56.854 1.77704 5.60085 0
M  V30 661 H 58.378 0.950093 6.03163 0
M  V30 662 H 59.792 2.93393 4.92538 0
M  V30 663 H 58.189 3.69936 4.72512 0
M  V30 664 H 59.259 3.53285 3.32142 0
M  V30 665 N 60.6021 -1.18246 1.0419 0
M  V30 666 C 61.8501 -1.87886 0.744543 0
M  V30 667 C 62.1711 -1.8082 -0.730006 0
M  V30 668 O 61.4411 -1.22736 -1.52685 0
M  V30 669 H 60.0211 -0.695556 0.272417 0
M  V30 670 H 62.6831 -1.43494 1.31892 0
M  V30 671 H 61.7791 -2.9389 1.05049 0
M  V30 672 N 62.0802 -0.821533 -1.34494 0
M  V30 673 C 63.3262 -0.409552 -1.98622 0
M  V30 674 C 63.6592 1.0244 -1.64984 0
M  V30 675 O 62.9342 1.71325 -0.920758 0
M  V30 676 C 63.2172 -0.610458 -3.54888 0
M  V30 677 C 63.0702 -2.09043 -3.98273 0
M  V30 678 C 64.3892 -0.0455379 -4.40076 0
M  V30 679 H 61.5082 -0.15028 -0.721516 0
M  V30 680 H 64.1502 -1.03384 -1.59411 0
M  V30 681 H 62.3002 -0.079044 -3.8842 0
M  V30 682 H 63.9722 -2.68537 -3.75081 0
M  V30 683 H 62.2152 -2.58139 -3.48635 0
M  V30 684 H 62.8862 -2.18182 -5.07051 0
M  V30 685 H 65.3622 -0.499557 -4.1309 0
M  V30 686 H 64.2382 -0.215922 -5.48475 0
M  V30 687 H 64.4992 1.04939 -4.29465 0
M  V30 688 N 63.5583 1.46682 -0.576371 0
M  V30 689 C 64.4883 2.33028 0.148397 0
M  V30 690 C 65.4693 1.44961 0.889956 0
M  V30 691 O 66.6543 1.73789 0.866662 0
M  V30 692 C 63.7843 3.27117 1.1667 0
M  V30 693 C 62.7383 4.24575 0.540386 0
M  V30 694 C 62.0643 5.08126 1.6647 0
M  V30 695 C 63.3643 5.19722 -0.518331 0
M  V30 696 H 65.0583 2.93875 -0.572509 0
M  V30 697 H 62.6043 1.41315 -0.276768 0
M  V30 698 H 64.5573 3.86374 1.68204 0
M  V30 699 H 63.2813 2.64364 1.9178 0
M  V30 700 H 61.9403 3.66571 0.0461769 0
M  V30 701 H 61.5883 4.41762 2.40531 0
M  V30 702 H 61.2883 5.74122 1.25131 0
M  V30 703 H 62.8123 5.70246 2.18293 0
M  V30 704 H 64.2263 5.73232 -0.0883058 0
M  V30 705 H 62.6233 5.94026 -0.851679 0
M  V30 706 H 63.6933 4.64037 -1.40703 0
M  V30 707 N 65.0364 0.313813 1.54444 0
M  V30 708 C 66.2664 -0.293491 2.04505 0
M  V30 709 C 66.6744 -1.47086 1.19005 0
M  V30 710 O 66.0174 -1.82481 0.211257 0
M  V30 711 C 66.0794 -0.800455 3.50475 0
M  V30 712 C 65.7434 0.253322 4.56297 0
M  V30 713 C 66.7404 1.08612 5.08428 0
M  V30 714 C 64.4254 0.398708 5.00715 0
M  V30 715 C 66.4194 2.05013 6.0353 0
M  V30 716 C 64.1064 1.36614 5.95634 0
M  V30 717 C 65.1044 2.19033 6.46926 0
M  V30 718 O 64.7924 3.14134 7.39983 0
M  V30 719 H 64.5244 -0.0658325 0.672787 0
M  V30 720 H 67.0784 0.455177 2.00293 0
M  V30 721 H 65.3084 -1.59987 3.52053 0
M  V30 722 H 66.9974 -1.32504 3.83663 0
M  V30 723 H 67.7634 0.984736 4.74898 0
M  V30 724 H 63.6424 -0.23289 4.60411 0
M  V30 725 H 67.1864 2.69382 6.4349 0
M  V30 726 H 63.0834 1.4682 6.28581 0
M  V30 727 H 63.8514 3.0926 7.57826 0
M  V30 728 N 66.5145 -1.57545 0.0417849 0
M  V30 729 C 67.9305 -1.56467 -0.314704 0
M  V30 730 C 68.1305 -1.04859 -1.72066 0
M  V30 731 O 67.1865 -0.700983 -2.42575 0
M  V30 732 C 68.4995 -3.00317 -0.15174 0
M  V30 733 C 70.0475 -3.12201 -0.223553 0
M  V30 734 C 70.5225 -4.57913 -0.0892295 0
M  V30 735 N 72.0135 -4.6297 -0.145808 0
M  V30 736 C 72.7485 -5.73362 -0.0658459 0
M  V30 737 N 72.2445 -6.92769 0.0659282 0
M  V30 738 N 74.0375 -5.6197 -0.12075 0
M  V30 739 H 66.1885 -1.89416 0.961014 0
M  V30 740 H 68.4515 -0.871862 0.372237 0
M  V30 741 H 68.1575 -3.42073 0.817254 0
M  V30 742 H 68.0315 -3.65892 -0.916692 0
M  V30 743 H 70.4185 -2.70349 -1.18301 0
M  V30 744 H 70.4995 -2.49323 0.571994 0
M  V30 745 H 70.1435 -5.00448 0.866867 0
M  V30 746 H 70.0735 -5.18786 -0.903802 0
M  V30 747 H 72.5645 -3.7709 -0.247286 0
M  V30 748 H 72.8775 -7.72707 0.119905 0
M  V30 749 H 71.2225 -6.94927 0.100885 0
M  V30 750 H 74.4135 -4.67572 -0.222187 0
M  V30 751 H 74.5865 -6.47977 -0.0549735 0
M  V30 752 N 67.9926 0.231505 -1.5589 0
M  V30 753 C 68.9556 1.27028 -1.90779 0
M  V30 754 C 69.9556 1.40308 -0.785507 0
M  V30 755 O 71.1456 1.38744 -1.05336 0
M  V30 756 C 68.2776 2.64566 -2.14983 0
M  V30 757 H 69.4706 0.973017 -2.83677 0
M  V30 758 H 67.0236 0.471486 -1.49019 0
M  V30 759 H 67.7586 2.99406 -1.24604 0
M  V30 760 H 67.5436 2.56305 -2.96732 0
M  V30 761 H 69.0336 3.39543 -2.43105 0
M  V30 762 N 69.4707 1.49531 0.497807 0
M  V30 763 C 70.7167 1.59415 1.25358 0
M  V30 764 C 71.0497 0.281422 1.9215 0
M  V30 765 O 70.3247 -0.715249 1.80871 0
M  V30 766 C 70.6077 2.75566 2.3181 0
M  V30 767 C 70.4607 4.16642 1.69498 0
M  V30 768 C 71.7797 2.87347 3.33346 0
M  V30 769 H 68.8987 0.580244 0.454408 0
M  V30 770 H 71.5407 1.81827 0.551262 0
M  V30 771 H 69.6907 2.56587 2.91711 0
M  V30 772 H 71.3627 4.47145 1.13399 0
M  V30 773 H 69.6057 4.22141 0.998978 0
M  V30 774 H 70.2767 4.93792 2.46725 0
M  V30 775 H 72.7527 3.04634 2.83438 0
M  V30 776 H 71.6287 3.70289 4.05188 0
M  V30 777 H 71.8897 1.96834 3.95865 0
M  V30 778 N 70.9488 -0.749086 1.3866 0
M  V30 779 C 71.8808 -1.87273 1.32142 0
M  V30 780 C 72.8938 -1.61127 0.232787 0
M  V30 781 O 74.0828 -1.71623 0.49069 0
M  V30 782 C 71.1828 -3.23005 1.02571 0
M  V30 783 C 70.3558 -3.7662 2.22433 0
M  V30 784 C 69.4148 -4.90879 1.89537 0
M  V30 785 O 68.4408 -5.05276 2.62078 0
M  V30 786 N 69.6428 -5.74198 0.853031 0
M  V30 787 H 72.4078 -1.93373 2.28969 0
M  V30 788 H 69.9688 -0.929216 1.32579 0
M  V30 789 H 71.9608 -3.96992 0.786085 0
M  V30 790 H 70.5308 -3.12262 0.145249 0
M  V30 791 H 69.7508 -2.94147 2.62434 0
M  V30 792 H 71.0388 -4.09173 3.02415 0
M  V30 793 H 70.4368 -5.6514 0.25155 0
M  V30 794 H 68.9938 -6.48313 0.67329 0
M  V30 795 N 72.4269 -1.23603 -0.977757 0
M  V30 796 C 73.3569 -1.04401 -2.0886 0
M  V30 797 C 74.3379 0.0399052 -1.70053 0
M  V30 798 O 75.5229 -0.125246 -1.93796 0
M  V30 799 C 72.6529 -0.637269 -3.41403 0
M  V30 800 C 71.6069 -1.66883 -3.94124 0
M  V30 801 C 70.9329 -1.11745 -5.22893 0
M  V30 802 C 72.2329 -3.06247 -4.23096 0
M  V30 803 H 73.9269 -1.97316 -2.25182 0
M  V30 804 H 71.4729 -0.950096 -1.08209 0
M  V30 805 H 73.4259 -0.48998 -4.18542 0
M  V30 806 H 72.1499 0.327557 -3.24953 0
M  V30 807 H 70.8089 -1.80416 -3.19133 0
M  V30 808 H 70.4569 -0.143527 -5.02795 0
M  V30 809 H 70.1569 -1.80672 -5.59134 0
M  V30 810 H 71.6809 -0.982067 -6.02651 0
M  V30 811 H 73.0949 -2.96001 -4.90975 0
M  V30 812 H 71.4919 -3.72436 -4.70544 0
M  V30 813 H 72.5619 -3.55041 -3.30263 0
M  V30 814 N 73.905 1.17692 -1.04816 0
M  V30 815 C 74.835 2.23777 -0.666791 0
M  V30 816 C 75.816 1.66796 0.33361 0
M  V30 817 O 77.001 1.93039 0.212042 0
M  V30 818 C 74.131 3.47281 -0.0367933 0
M  V30 819 C 73.085 4.17059 -0.961546 0
M  V30 820 C 72.411 5.34342 -0.195626 0
M  V30 821 C 73.711 4.69713 -2.28402 0
M  V30 822 H 75.405 2.55933 -1.55367 0
M  V30 823 H 72.951 1.23019 -0.748484 0
M  V30 824 H 74.904 4.20706 0.241775 0
M  V30 825 H 73.628 3.14381 0.885004 0
M  V30 826 H 72.287 3.45541 -1.22462 0
M  V30 827 H 71.935 4.97692 0.728816 0
M  V30 828 H 71.635 5.81966 -0.811775 0
M  V30 829 H 73.159 6.10553 0.0757473 0
M  V30 830 H 74.573 5.34794 -2.06563 0
M  V30 831 H 72.97 5.279 -2.8538 0
M  V30 832 H 74.04 3.86726 -2.92525 0
M  V30 833 N 75.3831 0.828654 1.34056 0
M  V30 834 C 76.6321 0.415828 1.97367 0
M  V30 835 C 76.9451 -1.02796 1.6641 0
M  V30 836 O 78.1511 -1.54497 2.23255 0
M  V30 837 C 76.6071 0.692601 3.53173 0
M  V30 838 C 76.2151 2.15038 3.93017 0
M  V30 839 C 77.9591 0.346222 4.23086 0
M  V30 840 C 75.8661 2.37174 5.41758 0
M  V30 841 H 74.7961 0.151755 0.738571 0
M  V30 842 H 77.4471 1.01581 1.52819 0
M  V30 843 H 75.8291 0.0223764 3.95994 0
M  V30 844 H 77.0031 2.86024 3.61285 0
M  V30 845 H 75.3181 2.45875 3.36057 0
M  V30 846 H 77.9151 0.48937 5.32456 0
M  V30 847 H 78.2581 -0.709842 4.10204 0
M  V30 848 H 78.7911 0.971258 3.85761 0
M  V30 849 H 75.5301 3.41308 5.59633 0
M  V30 850 H 75.0501 1.70738 5.74986 0
M  V30 851 H 76.7291 2.19818 6.08514 0
M  V30 852 N 76.8612 -1.46375 0.584142 0
M  V30 853 C 77.7912 -2.33103 -0.136037 0
M  V30 854 C 78.7722 -1.45431 -0.882255 0
M  V30 855 O 79.9572 -1.74246 -0.857434 0
M  V30 856 C 77.0872 -3.27731 -1.14933 0
M  V30 857 C 76.0412 -4.24855 -0.517862 0
M  V30 858 C 75.3672 -5.09001 -1.63773 0
M  V30 859 C 76.6672 -5.19439 0.545886 0
M  V30 860 H 78.3612 -2.93568 0.588086 0
M  V30 861 H 75.9072 -1.41166 0.284259 0
M  V30 862 H 77.8602 -3.87261 -1.66153 0
M  V30 863 H 76.5842 -2.65377 -1.90375 0
M  V30 864 H 75.2432 -3.6659 -0.0267361 0
M  V30 865 H 74.8912 -4.43031 -2.38185 0
M  V30 866 H 74.5912 -5.74777 -1.22085 0
M  V30 867 H 76.1152 -5.71396 -2.15266 0
M  V30 868 H 77.5292 -5.73177 0.118704 0
M  V30 869 H 75.9262 -5.93566 0.88317 0
M  V30 870 H 76.9962 -4.63285 1.43162 0
M  V30 871 N 78.3393 -0.321999 -1.54275 0
M  V30 872 C 79.2693 0.537411 -2.27231 0
M  V30 873 C 80.2503 1.12064 -1.27968 0
M  V30 874 O 81.4353 1.14606 -1.56777 0
M  V30 875 C 78.5653 1.69919 -3.02894 0
M  V30 876 C 77.5193 1.24534 -4.09482 0
M  V30 877 C 76.8453 2.49394 -4.72977 0
M  V30 878 C 78.1453 0.361335 -5.21049 0
M  V30 879 H 79.8393 -0.0711406 -2.99315 0
M  V30 880 H 77.3853 -0.0356555 -1.43956 0
M  V30 881 H 79.3383 2.30668 -3.52662 0
M  V30 882 H 78.0623 2.33431 -2.28424 0
M  V30 883 H 76.7213 0.660782 -3.60596 0
M  V30 884 H 76.3693 3.11265 -3.95124 0
M  V30 885 H 76.0693 2.19718 -5.44975 0
M  V30 886 H 77.5933 3.10908 -5.25517 0
M  V30 887 H 79.0073 0.875072 -5.66582 0
M  V30 888 H 77.4043 0.157428 -5.99893 0
M  V30 889 H 78.4743 -0.60822 -4.8107 0
M  V30 890 N 79.8174 1.5752 -0.0501392 0
M  V30 891 C 81.0474 1.96678 0.632573 0
M  V30 892 C 81.4554 0.926298 1.64974 0
M  V30 893 O 80.7984 -0.09802 1.83438 0
M  V30 894 C 80.8604 3.32068 1.37735 0
M  V30 895 C 80.5244 4.54076 0.516131 0
M  V30 896 C 81.5214 5.19445 -0.217357 0
M  V30 897 C 79.2064 5.00304 0.44736 0
M  V30 898 C 81.2004 6.29378 -1.00807 0
M  V30 899 C 78.8874 6.10114 -0.347038 0
M  V30 900 C 79.8854 6.74512 -1.07344 0
M  V30 901 O 79.5734 7.82211 -1.85477 0
M  V30 902 H 79.3054 0.652193 0.177821 0
M  V30 903 H 81.8594 2.05091 -0.112543 0
M  V30 904 H 80.0894 3.20206 2.16807 0
M  V30 905 H 81.7784 3.55981 1.95019 0
M  V30 906 H 82.5444 4.84689 -0.173688 0
M  V30 907 H 78.4234 4.49971 1.00235 0
M  V30 908 H 81.9674 6.79575 -1.57556 0
M  V30 909 H 77.8644 6.44307 -0.392349 0
M  V30 910 H 78.6324 7.98982 -1.77678 0
M  V30 911 N 81.2955 -0.223234 1.56011 0
M  V30 912 C 82.5425 -0.947875 1.78946 0
M  V30 913 C 82.8705 -1.844 0.618608 0
M  V30 914 O 82.1255 -1.91629 -0.397093 0
M  V30 915 C 82.4245 -1.81948 3.0762 0
M  V30 916 C 82.0905 -1.07672 4.37856 0
M  V30 917 C 80.7525 -0.871544 4.73242 0
M  V30 918 C 83.1045 -0.552081 5.18268 0
M  V30 919 C 80.4325 -0.129791 5.86556 0
M  V30 920 C 82.7845 0.17632 6.32354 0
M  V30 921 C 81.4485 0.39277 6.66343 0
M  V30 922 H 80.7185 -0.346852 0.654809 0
M  V30 923 H 83.3655 -0.216171 1.90276 0
M  V30 924 H 81.6705 -2.61899 2.91404 0
M  V30 925 H 83.3675 -2.38227 3.22566 0
M  V30 926 H 79.9575 -1.24662 4.1007 0
M  V30 927 H 84.1415 -0.698076 4.91366 0
M  V30 928 H 79.3975 0.048153 6.11381 0
M  V30 929 H 83.5715 0.590367 6.93893 0
M  V30 930 H 81.1985 0.969466 7.53993 0
M  V30 931 N 82.7736 -1.49793 -0.48987 0
M  V30 932 C 84.0196 -1.60078 -1.24511 0
M  V30 933 C 84.3526 -0.291608 -1.91998 0
M  V30 934 O 83.6276 0.705647 -1.81248 0
M  V30 935 C 83.9106 -2.76791 -2.30345 0
M  V30 936 C 83.7636 -4.17535 -1.67286 0
M  V30 937 C 85.0826 -2.89111 -3.31817 0
M  V30 938 H 82.2016 -0.582645 -0.451324 0
M  V30 939 H 84.8436 -1.82117 -0.541612 0
M  V30 940 H 82.9936 -2.5813 -2.90346 0
M  V30 941 H 84.6656 -4.4774 -1.11026 0
M  V30 942 H 82.9086 -4.22665 -0.976577 0
M  V30 943 H 83.5796 -4.95094 -2.44103 0
M  V30 944 H 86.0556 -3.06133 -2.81819 0
M  V30 945 H 84.9316 -3.72433 -4.03219 0
M  V30 946 H 85.1926 -1.9893 -3.94815 0
M  V30 947 N 84.2517 0.741722 -1.39055 0
M  V30 948 C 85.4977 1.50234 -1.37118 0
M  V30 949 C 85.8527 1.92368 0.0350439 0
M  V30 950 O 85.1457 1.63422 1.00019 0
M  V30 951 C 85.3397 2.7592 -2.27163 0
M  V30 952 C 85.1687 2.46074 -3.76401 0
M  V30 953 C 83.9387 2.38704 -4.45364 0
M  V30 954 C 86.1367 2.12062 -4.68545 0
M  V30 955 N 84.1187 2.01258 -5.79973 0
M  V30 956 C 85.4897 1.85005 -5.91754 0
M  V30 957 C 87.5447 1.98473 -4.56632 0
M  V30 958 C 86.2477 1.4573 -7.04383 0
M  V30 959 C 88.2737 1.60599 -5.69176 0
M  V30 960 C 87.6357 1.34423 -6.91455 0
M  V30 961 H 83.7347 0.548858 -0.557027 0
M  V30 962 H 86.3187 0.862642 -1.74547 0
M  V30 963 H 84.4897 3.3768 -1.91904 0
M  V30 964 H 86.2217 3.42068 -2.16267 0
M  V30 965 H 82.9767 2.55574 -3.98721 0
M  V30 966 H 83.4007 1.85147 -6.51191 0
M  V30 967 H 88.0427 2.17381 -3.62637 0
M  V30 968 H 85.7607 1.25562 -7.98286 0
M  V30 969 H 89.3467 1.507 -5.61944 0
M  V30 970 H 88.2267 1.05555 -7.77064 0
M  V30 971 N 85.7298 1.2412 0.971189 0
M  V30 972 C 86.9598 1.10415 1.7462 0
M  V30 973 C 87.3678 -0.346462 1.86001 0
M  V30 974 O 86.7108 -1.25104 1.34517 0
M  V30 975 C 86.7728 1.66596 3.18568 0
M  V30 976 C 86.4368 3.15446 3.3067 0
M  V30 977 C 87.4338 4.12636 3.16271 0
M  V30 978 C 85.1188 3.55337 3.55022 0
M  V30 979 C 87.1128 5.47699 3.26044 0
M  V30 980 C 84.7998 4.90542 3.64434 0
M  V30 981 C 85.7978 5.86532 3.49956 0
M  V30 982 O 85.4858 7.19279 3.59017 0
M  V30 983 H 85.2178 0.386616 0.55453 0
M  V30 984 H 87.7718 1.64633 1.22821 0
M  V30 985 H 86.0018 1.06808 3.71657 0
M  V30 986 H 87.6908 1.48232 3.77865 0
M  V30 987 H 88.4568 3.8316 2.97344 0
M  V30 988 H 84.3358 2.8113 3.65359 0
M  V30 989 H 87.8798 6.22603 3.14661 0
M  V30 990 H 83.7768 5.19691 3.82873 0
M  V30 991 H 84.5448 7.27153 3.75754 0
M  V30 992 N 87.2079 -1.17134 1.05439 0
M  V30 993 C 88.4539 -1.87733 0.767077 0
M  V30 994 C 88.7869 -1.8098 -0.704253 0
M  V30 995 O 88.0619 -1.21951 -1.5152 0
M  V30 996 C 88.3449 -3.37659 1.25133 0
M  V30 997 C 88.1979 -3.53149 2.78578 0
M  V30 998 C 89.5169 -4.31768 0.852324 0
M  V30 999 H 86.6359 -0.681687 0.280129 0
M  V30 1000 H 89.2779 -1.37732 1.30881 0
M  V30 1001 H 87.4279 -3.80373 0.790469 0
M  V30 1002 H 89.0999 -3.19434 3.32806 0
M  V30 1003 H 87.3429 -2.95345 3.17732 0
M  V30 1004 H 88.0139 -4.58403 3.07523 0
M  V30 1005 H 90.4899 -3.96909 1.24911 0
M  V30 1006 H 89.3659 -5.35199 1.21873 0
M  V30 1007 H 89.6269 -4.41429 -0.243485 0
M  V30 1008 N 88.686 -0.835752 -1.33615 0
M  V30 1009 C 89.933 -0.429959 -1.97883 0
M  V30 1010 C 90.261 1.01006 -1.66217 0
M  V30 1011 O 89.516 1.72047 -0.93265 0
M  V30 1012 C 89.815 -0.593925 -3.52431 0
M  V30 1013 C 89.481 -2.00158 -4.04039 0
M  V30 1014 C 88.143 -2.38662 -4.17844 0
M  V30 1015 C 90.495 -2.92117 -4.31644 0
M  V30 1016 C 87.823 -3.68435 -4.56588 0
M  V30 1017 C 90.175 -4.21368 -4.71838 0
M  V30 1018 C 88.839 -4.59833 -4.83849 0
M  V30 1019 H 88.109 -0.157333 -0.724104 0
M  V30 1020 H 90.756 -1.06217 -1.59343 0
M  V30 1021 H 89.061 0.121619 -3.91611 0
M  V30 1022 H 90.758 -0.260282 -4.00154 0
M  V30 1023 H 87.348 -1.69252 -3.93766 0
M  V30 1024 H 91.532 -2.63608 -4.20505 0
M  V30 1025 H 86.788 -3.98046 -4.64079 0
M  V30 1026 H 90.962 -4.92703 -4.92155 0
M  V30 1027 H 88.589 -5.60438 -5.13627 0
M  V30 1028 N 90.1641 1.46063 -0.591896 0
M  V30 1029 C 91.4131 2.01547 -0.0786637 0
M  V30 1030 C 91.7261 1.46796 1.29268 0
M  V30 1031 O 92.9321 1.94157 1.89777 0
M  V30 1032 C 91.3881 3.59787 -0.0900024 0
M  V30 1033 C 90.9961 4.23534 -1.46023 0
M  V30 1034 C 92.7401 4.22895 0.368806 0
M  V30 1035 C 90.6471 5.73881 -1.4288 0
M  V30 1036 H 89.5771 0.753564 -0.0256388 0
M  V30 1037 H 92.2281 1.677 -0.744905 0
M  V30 1038 H 90.6101 3.90752 0.642586 0
M  V30 1039 H 91.7841 4.04167 -2.21328 0
M  V30 1040 H 90.0991 3.72558 -1.85982 0
M  V30 1041 H 92.6961 5.33116 0.411258 0
M  V30 1042 H 93.0391 3.9247 1.38827 0
M  V30 1043 H 93.5721 3.9659 -0.31001 0
M  V30 1044 H 90.3111 6.0898 -2.42536 0
M  V30 1045 H 89.8311 5.95486 -0.718095 0
M  V30 1046 H 91.5101 6.36776 -1.14565 0
M  V30 1047 N 91.6422 0.330177 1.54103 0
M  V30 1048 C 92.8882 -0.270806 2.00984 0
M  V30 1049 C 93.2212 -1.51265 1.21789 0
M  V30 1050 O 92.4962 -1.92142 0.301927 0
M  V30 1051 C 92.7792 -0.598339 3.55094 0
M  V30 1052 C 92.6322 0.654674 4.4501 0
M  V30 1053 C 93.9512 -1.41334 4.16789 0
M  V30 1054 H 91.0702 -0.0969531 0.730595 0
M  V30 1055 H 93.7122 0.448066 1.84641 0
M  V30 1056 H 91.8622 -1.21078 3.69151 0
M  V30 1057 H 93.5342 1.29285 4.42813 0
M  V30 1058 H 91.7772 1.28224 4.14416 0
M  V30 1059 H 92.4482 0.380944 5.50684 0
M  V30 1060 H 94.9242 -0.895597 4.06347 0
M  V30 1061 H 93.8002 -1.61127 5.24718 0
M  V30 1062 H 94.0612 -2.41146 3.70541 0
M  V30 1063 N 93.1203 -1.57491 0.0584922 0
M  V30 1064 C 94.0523 -2.08916 -0.942694 0
M  V30 1065 C 95.0653 -1.0185 -1.27006 0
M  V30 1066 O 96.2543 -1.29398 -1.22957 0
M  V30 1067 C 93.3543 -2.52341 -2.26224 0
M  V30 1068 C 92.5273 -3.82827 -2.1157 0
M  V30 1069 C 91.5863 -4.12487 -3.26712 0
M  V30 1070 O 90.6123 -4.82295 -3.02292 0
M  V30 1071 N 91.8143 -3.64978 -4.5141 0
M  V30 1072 H 94.5793 -2.95437 -0.503722 0
M  V30 1073 H 92.1403 -1.61397 -0.12757 0
M  V30 1074 H 94.1323 -2.69254 -3.02133 0
M  V30 1075 H 92.7023 -1.7103 -2.61663 0
M  V30 1076 H 91.9223 -3.75425 -1.20208 0
M  V30 1077 H 93.2103 -4.68263 -1.99015 0
M  V30 1078 H 92.6083 -3.08558 -4.7414 0
M  V30 1079 H 91.1653 -3.87115 -5.2439 0
M  V30 1080 N 94.5984 0.214957 -1.56127 0
M  V30 1081 C 95.5454 1.26642 -1.92952 0
M  V30 1082 C 96.5154 1.46244 -0.78753 0
M  V30 1083 O 97.7004 1.59704 -1.04399 0
M  V30 1084 C 94.8404 2.6104 -2.25726 0
M  V30 1085 C 93.9534 2.49183 -3.52891 0
M  V30 1086 C 93.0884 3.76149 -3.7508 0
M  V30 1087 C 92.1274 3.59041 -4.95738 0
M  V30 1088 N 91.2644 4.77972 -5.14283 0
M  V30 1089 H 96.1044 0.945384 -2.82607 0
M  V30 1090 H 93.6414 0.455489 -1.3987 0
M  V30 1091 H 95.5994 3.39313 -2.42739 0
M  V30 1092 H 94.2294 2.91227 -1.39236 0
M  V30 1093 H 93.2814 1.6231 -3.44034 0
M  V30 1094 H 94.5934 2.32466 -4.41318 0
M  V30 1095 H 93.7474 4.62865 -3.92226 0
M  V30 1096 H 92.4864 3.95799 -2.84947 0
M  V30 1097 H 91.4914 2.7071 -4.78535 0
M  V30 1098 H 92.7164 3.40856 -5.87362 0
M  V30 1099 H 90.6624 4.97923 -4.27093 0
M  V30 1100 H 90.5794 4.64006 -5.96853 0
M  V30 1101 H 91.8474 5.66096 -5.35869 0
M  V30 1102 N 96.0765 1.50051 0.48192 0
M  V30 1103 C 97.3015 1.64508 1.26301 0
M  V30 1104 C 97.7265 0.323851 1.85291 0
M  V30 1105 O 97.0845 -0.710969 1.66778 0
M  V30 1106 C 97.1325 2.7305 2.35533 0
M  V30 1107 O 96.2365 2.3355 3.39895 0
M  V30 1108 H 95.5775 0.549978 0.372048 0
M  V30 1109 H 98.1075 1.9636 0.574786 0
M  V30 1110 H 98.1175 2.95799 2.8101 0
M  V30 1111 H 96.7925 3.68946 1.91967 0
M  V30 1112 H 95.3695 2.21205 3.00204 0
M  V30 1113 N 97.5546 -0.734337 1.39446 0
M  V30 1114 C 98.7846 -1.52137 1.39778 0
M  V30 1115 C 99.1926 -1.89198 -0.00929312 0
M  V30 1116 O 98.5356 -1.54666 -0.991168 0
M  V30 1117 C 98.5976 -2.83762 2.20724 0
M  V30 1118 C 98.2616 -2.69131 3.69347 0
M  V30 1119 C 99.2586 -2.37635 4.62413 0
M  V30 1120 C 96.9436 -2.85982 4.1294 0
M  V30 1121 C 98.9376 -2.23172 5.97054 0
M  V30 1122 C 96.6246 -2.71137 5.47657 0
M  V30 1123 C 97.6226 -2.39777 6.39528 0
M  V30 1124 O 97.3106 -2.25026 7.71763 0
M  V30 1125 H 97.0426 -0.476717 0.479288 0
M  V30 1126 H 99.5966 -0.915012 1.83893 0
M  V30 1127 H 97.8266 -3.4666 1.71359 0
M  V30 1128 H 99.5156 -3.45383 2.13226 0
M  V30 1129 H 100.282 -2.24267 4.30034 0
M  V30 1130 H 96.1606 -3.09383 3.41765 0
M  V30 1131 H 99.7046 -1.98617 6.68728 0
M  V30 1132 H 95.6016 -2.84083 5.79626 0
M  V30 1133 H 96.3696 -2.40091 7.82495 0
M  V30 1134 N 99.0327 -1.24633 -0.964593 0
M  V30 1135 C 99.9647 -0.999302 -2.06268 0
M  V30 1136 C 100.978 0.0323226 -1.62768 0
M  V30 1137 O 102.167 -0.205079 -1.77318 0
M  V30 1138 C 99.2667 -0.486816 -3.35385 0
M  V30 1139 C 98.4397 -1.5823 -4.07777 0
M  V30 1140 C 97.4987 -1.07191 -5.15166 0
M  V30 1141 O 96.5247 -1.76426 -5.41168 0
M  V30 1142 N 97.7267 0.0920373 -5.80427 0
M  V30 1143 H 100.492 -1.94477 -2.28033 0
M  V30 1144 H 98.0527 -1.15704 -1.13244 0
M  V30 1145 H 100.045 -0.130066 -4.04491 0
M  V30 1146 H 98.6147 0.364459 -3.10468 0
M  V30 1147 H 97.8347 -2.11109 -3.32906 0
M  V30 1148 H 99.1227 -2.31854 -4.52903 0
M  V30 1149 H 98.5207 0.670784 -5.61709 0
M  V30 1150 H 97.0777 0.389905 -6.50633 0
M  V30 1151 N 100.511 1.16574 -1.06058 0
M  V30 1152 C 101.421 2.2452 -0.680282 0
M  V30 1153 C 102.437 1.71348 0.302604 0
M  V30 1154 O 103.613 2.00822 0.152513 0
M  V30 1155 C 100.678 3.46629 -0.0700315 0
M  V30 1156 C 99.7388 4.14849 -1.10448 0
M  V30 1157 C 98.9718 5.31129 -0.523256 0
M  V30 1158 O 99.1948 5.66514 0.664709 0
M  V30 1159 O 98.1288 5.88526 -1.26179 0
M  V30 1160 H 101.955 2.59355 -1.58015 0
M  V30 1161 H 99.5398 1.24043 -0.832694 0
M  V30 1162 H 101.422 4.20543 0.268667 0
M  V30 1163 H 100.097 3.13573 0.803353 0
M  V30 1164 H 99.0038 3.42916 -1.49532 0
M  V30 1165 H 100.337 4.51954 -1.94931 0
M  V30 1166 N 101.989 0.842826 1.3317 0
M  V30 1167 C 103.214 0.453129 2.02389 0
M  V30 1168 C 103.639 -0.939105 1.6298 0
M  V30 1169 O 102.997 -1.61472 0.8244 0
M  V30 1170 C 103.045 0.586094 3.55805 0
M  V30 1171 O 102.149 -0.386029 4.10589 0
M  V30 1172 H 101.49 0.183664 0.638094 0
M  V30 1173 H 104.02 1.13875 1.69981 0
M  V30 1174 H 104.03 0.469209 4.05293 0
M  V30 1175 H 102.705 1.6014 3.83833 0
M  V30 1176 H 101.282 -0.226371 3.72212 0
M  V30 1177 N 103.467 -1.45747 0.599634 0
M  V30 1178 C 104.377 -2.34262 -0.125888 0
M  V30 1179 C 105.393 -1.50768 -0.868625 0
M  V30 1180 O 106.569 -1.83592 -0.828003 0
M  V30 1181 C 103.634 -3.28252 -1.11587 0
M  V30 1182 C 102.695 -4.27651 -0.375956 0
M  V30 1183 C 101.928 -5.1715 -1.31877 0
M  V30 1184 O 102.151 -5.09916 -2.55621 0
M  V30 1185 O 101.085 -5.96286 -0.820157 0
M  V30 1186 H 104.911 -2.97688 0.601315 0
M  V30 1187 H 102.496 -1.44999 0.359934 0
M  V30 1188 H 104.378 -3.86191 -1.68626 0
M  V30 1189 H 103.053 -2.67401 -1.82424 0
M  V30 1190 H 101.96 -3.7335 0.236698 0
M  V30 1191 H 103.293 -4.91334 0.29177 0
M  V30 1192 N 104.945 -0.338344 -1.53925 0
M  V30 1193 C 106.173 0.261298 -2.05243 0
M  V30 1194 C 106.588 1.44625 -1.21363 0
M  V30 1195 O 105.945 1.80811 -0.247736 0
M  V30 1196 C 105.996 0.681412 -3.5502 0
M  V30 1197 O 105.717 -0.456414 -4.35716 0
M  V30 1198 C 107.218 1.34232 -4.22489 0
M  V30 1199 H 104.438 0.0513685 -0.669031 0
M  V30 1200 H 106.982 -0.488822 -1.98572 0
M  V30 1201 H 105.137 1.38148 -3.61931 0
M  V30 1202 H 105.551 -0.122564 -5.24357 0
M  V30 1203 H 107.025 1.58708 -5.28693 0
M  V30 1204 H 107.502 2.29426 -3.74514 0
M  V30 1205 H 108.108 0.684424 -4.19757 0
M  V30 1206 N 106.423 1.57458 -0.0668435 0
M  V30 1207 C 107.671 1.92919 0.602214 0
M  V30 1208 C 107.992 0.947215 1.70449 0
M  V30 1209 O 107.262 -0.00544117 1.95899 0
M  V30 1210 H 105.842 0.71217 0.22544 0
M  V30 1211 H 108.504 1.94508 -0.123535 0
M  V30 1212 H 107.6 2.94589 1.03073 0
M  V30 1213 N 107.901 -0.206675 1.56239 0
M  V30 1214 C 109.312 -0.772383 1.69974 0
M  V30 1215 C 109.663 -1.84353 0.671436 0
M  V30 1216 O 108.788 -2.15695 -0.174491 0
M  V30 1217 C 109.383 -1.40779 3.08167 0
M  V30 1218 C 107.942 -1.92072 3.23706 0
M  V30 1219 C 107.089 -0.786347 2.65917 0
M  V30 1220 H 110.04 0.0182223 1.5869 0
M  V30 1221 H 110.061 -2.27696 3.04852 0
M  V30 1222 H 109.573 -0.627958 3.82986 0
M  V30 1223 H 107.674 -2.7281 2.53782 0
M  V30 1224 H 107.787 -2.09046 4.31087 0
M  V30 1225 H 106.151 -1.1976 2.24788 0
M  V30 1226 H 106.934 -0.0189416 3.43295 0
M  V30 1227 N 109.379 -1.50304 -0.473955 0
M  V30 1228 C 110.289 -1.7174 -1.5982 0
M  V30 1229 C 111.305 -0.600457 -1.63311 0
M  V30 1230 O 112.481 -0.878441 -1.81233 0
M  V30 1231 C 109.546 -1.80427 -2.96052 0
M  V30 1232 C 108.607 -3.04148 -3.02972 0
M  V30 1233 C 107.84 -3.12411 -4.32706 0
M  V30 1234 O 108.063 -2.27542 -5.23049 0
M  V30 1235 O 106.997 -4.05113 -4.45159 0
M  V30 1236 H 110.823 -2.67035 -1.44657 0
M  V30 1237 H 108.408 -1.34366 -0.653148 0
M  V30 1238 H 110.29 -1.88338 -3.7697 0
M  V30 1239 H 108.965 -0.883156 -3.11419 0
M  V30 1240 H 107.872 -3.0174 -2.21142 0
M  V30 1241 H 109.205 -3.95829 -2.92541 0
M  V30 1242 N 110.857 0.726932 -1.39834 0
M  V30 1243 C 112.082 1.52121 -1.40976 0
M  V30 1244 C 112.507 1.88098 -0.00826029 0
M  V30 1245 O 111.865 1.52479 0.980807 0
M  V30 1246 C 111.913 2.78021 -2.29644 0
M  V30 1247 O 111.017 3.74272 -1.73188 0
M  V30 1248 H 110.358 0.45908 -0.479731 0
M  V30 1249 H 112.888 0.896207 -1.83927 0
M  V30 1250 H 112.898 3.26671 -2.44438 0
M  V30 1251 H 111.573 2.51169 -3.31492 0
M  V30 1252 H 110.15 3.33073 -1.6768 0
M  V30 1253 N 112.336 1.25143 0.95797 0
M  V30 1254 C 113.561 1.12521 1.74223 0
M  V30 1255 C 113.986 -0.317402 1.85403 0
M  V30 1256 O 113.344 -1.2299 1.33204 0
M  V30 1257 C 113.392 1.78062 3.1357 0
M  V30 1258 O 112.496 1.058 3.98598 0
M  V30 1259 H 111.837 0.39304 0.535178 0
M  V30 1260 H 114.367 1.65641 1.201 0
M  V30 1261 H 114.377 1.84213 3.64046 0
M  V30 1262 H 113.052 2.83021 3.04749 0
M  V30 1263 H 111.629 1.07506 3.57067 0
M  V30 1264 N 113.814 -1.1601 1.06675 0
M  V30 1265 C 115.063 -1.85973 0.780818 0
M  V30 1266 C 115.376 -1.82819 -0.695444 0
M  V30 1267 O 116.582 -2.484 -1.09589 0
M  V30 1268 C 115.038 -3.33757 1.34665 0
M  V30 1269 C 114.646 -3.45374 2.85343 0
M  V30 1270 C 116.39 -4.0895 1.13843 0
M  V30 1271 C 114.297 -4.87266 3.35151 0
M  V30 1272 H 113.227 -0.696661 0.288407 0
M  V30 1273 H 115.878 -1.30903 1.28595 0
M  V30 1274 H 114.26 -3.88456 0.769274 0
M  V30 1275 H 115.434 -3.00816 3.49065 0
M  V30 1276 H 113.749 -2.83619 3.04876 0
M  V30 1277 H 116.346 -5.13654 1.4854 0
M  V30 1278 H 116.689 -4.16229 0.0770282 0
M  V30 1279 H 117.222 -3.605 1.68179 0
M  V30 1280 H 113.961 -4.85168 4.40786 0
M  V30 1281 H 113.481 -5.32433 2.76179 0
M  V30 1282 H 115.16 -5.56097 3.30704 0
M  V30 1283 N 115.292 -0.849877 -1.32721 0
M  V30 1284 C 116.541 -0.447175 -1.96681 0
M  V30 1285 C 116.854 1.00135 -1.68025 0
M  V30 1286 O 118.06 1.50926 -2.25685 0
M  V30 1287 C 116.516 -0.7487 -3.52026 0
M  V30 1288 C 116.124 -2.21264 -3.89546 0
M  V30 1289 C 117.868 -0.413487 -4.22481 0
M  V30 1290 C 115.775 -2.45763 -5.37917 0
M  V30 1291 H 114.705 -0.163486 -0.736063 0
M  V30 1292 H 117.356 -1.03999 -1.51183 0
M  V30 1293 H 115.738 -0.0853727 -3.95908 0
M  V30 1294 H 116.912 -2.91736 -3.56689 0
M  V30 1295 H 115.227 -2.5119 -3.32103 0
M  V30 1296 H 117.824 -0.574017 -5.3161 0
M  V30 1297 H 118.167 0.644492 -4.11281 0
M  V30 1298 H 118.7 -1.03251 -3.84167 0
M  V30 1299 H 115.439 -3.50168 -5.54132 0
M  V30 1300 H 114.959 -1.79864 -5.72197 0
M  V30 1301 H 116.638 -2.29471 -6.0494 0
M  V30 1302 N 116.77 1.45427 -0.607355 0
M  V30 1303 C 117.998 2.06614 -0.108814 0
M  V30 1304 C 118.413 1.45204 1.2067 0
M  V30 1305 O 117.77 0.566132 1.73497 0
M  V30 1306 C 117.821 3.61481 0.0375347 0
M  V30 1307 O 117.542 4.20598 -1.22593 0
M  V30 1308 C 119.043 4.39652 0.567561 0
M  V30 1309 H 116.263 0.66747 -0.0687351 0
M  V30 1310 H 118.807 1.86675 -0.835022 0
M  V30 1311 H 116.962 3.80762 0.714068 0
M  V30 1312 H 117.376 5.1377 -1.05547 0
M  V30 1313 H 118.85 5.48518 0.61905 0
M  V30 1314 H 119.327 4.09417 1.58978 0
M  V30 1315 H 119.933 4.25234 -0.0749202 0
M  V30 1316 N 118.248 0.346503 1.53744 0
M  V30 1317 C 119.195 -0.508914 2.25119 0
M  V30 1318 C 120.165 -1.09315 1.25058 0
M  V30 1319 O 121.35 -1.12921 1.53797 0
M  V30 1320 C 118.49 -1.65246 3.02965 0
M  V30 1321 C 117.603 -1.09525 4.17886 0
M  V30 1322 C 116.738 -2.20634 4.83212 0
M  V30 1323 C 115.777 -1.62279 5.90196 0
M  V30 1324 N 114.914 -2.67143 6.49291 0
M  V30 1325 H 119.754 0.106283 2.9781 0
M  V30 1326 H 117.291 0.0642227 1.4696 0
M  V30 1327 H 119.249 -2.32574 3.4636 0
M  V30 1328 H 117.879 -2.2386 2.32565 0
M  V30 1329 H 116.931 -0.312818 3.79112 0
M  V30 1330 H 118.243 -0.628444 4.94825 0
M  V30 1331 H 117.397 -2.95821 5.29693 0
M  V30 1332 H 116.136 -2.70659 4.05703 0
M  V30 1333 H 115.141 -0.855989 5.43096 0
M  V30 1334 H 116.366 -1.13102 6.69615 0
M  V30 1335 H 114.312 -3.16417 5.74645 0
M  V30 1336 H 114.229 -2.25093 7.21713 0
M  V30 1337 H 115.497 -3.4209 7.00425 0
M  V30 1338 N 119.726 -1.57421 0.075193 0
M  V30 1339 C 120.972 -1.93905 -0.594025 0
M  V30 1340 C 121.305 -0.955701 -1.69056 0
M  V30 1341 O 120.58 0.0145373 -1.94495 0
M  V30 1342 C 120.863 -3.40638 -1.1678 0
M  V30 1343 C 120.716 -4.49733 -0.0776792 0
M  V30 1344 C 122.035 -3.88259 -2.07228 0
M  V30 1345 H 119.154 -0.705105 -0.214466 0
M  V30 1346 H 121.796 -1.8947 0.141854 0
M  V30 1347 H 119.946 -3.44549 -1.79494 0
M  V30 1348 H 121.618 -4.57942 0.555573 0
M  V30 1349 H 119.861 -4.29751 0.591286 0
M  V30 1350 H 120.532 -5.49549 -0.519603 0
M  V30 1351 H 123.008 -3.86376 -1.54445 0
M  V30 1352 H 121.884 -4.91533 -2.44308 0
M  V30 1353 H 122.145 -3.26396 -2.98191 0
M  V30 1354 N 121.204 0.198386 -1.56346 0
M  V30 1355 C 122.151 1.24589 -1.94284 0
M  V30 1356 C 123.121 1.454 -0.802997 0
M  V30 1357 O 124.306 1.58588 -1.06087 0
M  V30 1358 C 121.446 2.58631 -2.28482 0
M  V30 1359 C 120.559 2.45426 -3.55514 0
M  V30 1360 C 119.694 3.7215 -3.79049 0
M  V30 1361 C 118.733 3.53763 -4.99518 0
M  V30 1362 N 117.87 4.72491 -5.19323 0
M  V30 1363 H 122.71 0.915356 -2.83593 0
M  V30 1364 H 120.247 0.440629 -1.40346 0
M  V30 1365 H 122.205 3.3672 -2.46324 0
M  V30 1366 H 120.835 2.89734 -1.42317 0
M  V30 1367 H 119.887 1.58652 -3.45737 0
M  V30 1368 H 121.199 2.27772 -4.43758 0
M  V30 1369 H 120.353 4.58679 -3.97113 0
M  V30 1370 H 119.092 3.92754 -2.89129 0
M  V30 1371 H 118.097 2.65619 -4.8138 0
M  V30 1372 H 119.322 3.34607 -5.90944 0
M  V30 1373 H 117.268 4.93365 -4.3235 0
M  V30 1374 H 117.185 4.5765 -6.01741 0
M  V30 1375 H 118.453 5.6038 -5.41843 0
M  V30 1376 N 122.682 1.50554 0.465978 0
M  V30 1377 C 123.93 1.61479 1.21528 0
M  V30 1378 C 124.251 0.319596 1.92363 0
M  V30 1379 O 123.521 -0.663194 1.84333 0
M  V30 1380 H 122.101 0.595055 0.451573 0
M  V30 1381 H 124.763 1.87355 0.53704 0
M  V30 1382 H 123.859 2.42846 1.96042 0
M  V30 1383 N 124.16 -0.719506 1.40217 0
M  V30 1384 C 125.409 -1.47486 1.37589 0
M  V30 1385 C 125.722 -1.9559 -0.0201568 0
M  V30 1386 O 126.928 -2.70973 -0.169049 0
M  V30 1387 C 125.384 -2.66575 2.41796 0
M  V30 1388 C 124.992 -2.25358 3.87192 0
M  V30 1389 C 126.736 -3.4433 2.48269 0
M  V30 1390 C 124.643 -3.41262 4.83005 0
M  V30 1391 H 123.573 -0.553901 0.511576 0
M  V30 1392 H 126.224 -0.783427 1.65936 0
M  V30 1393 H 124.606 -3.3787 2.06543 0
M  V30 1394 H 125.78 -1.61509 4.31569 0
M  V30 1395 H 124.095 -1.60657 3.84159 0
M  V30 1396 H 126.692 -4.30569 3.17041 0
M  V30 1397 H 127.035 -3.87872 1.51198 0
M  V30 1398 H 127.568 -2.80076 2.82493 0
M  V30 1399 H 124.307 -3.02755 5.81394 0
M  V30 1400 H 123.827 -4.0404 4.43297 0
M  V30 1401 H 125.506 -4.07383 5.02641 0
M  V30 1402 N 125.638 -1.25649 -0.95132 0
M  V30 1403 C 126.866 -1.13343 -1.73092 0
M  V30 1404 C 127.281 0.312434 -1.86197 0
M  V30 1405 O 126.638 1.21465 -1.36207 0
M  V30 1406 C 126.689 -1.78602 -3.14299 0
M  V30 1407 O 126.41 -3.17537 -3.01831 0
M  V30 1408 C 127.911 -1.72119 -4.08522 0
M  V30 1409 H 125.131 -0.395181 -0.542285 0
M  V30 1410 H 127.675 -1.66076 -1.19328 0
M  V30 1411 H 125.83 -1.29832 -3.64996 0
M  V30 1412 H 126.244 -3.49676 -3.90931 0
M  V30 1413 H 127.718 -2.22435 -5.052 0
M  V30 1414 H 128.195 -0.685635 -4.33815 0
M  V30 1415 H 128.801 -2.20393 -3.63741 0
M  V30 1416 N 127.117 1.15442 -1.07289 0
M  V30 1417 C 128.345 1.90096 -0.81676 0
M  V30 1418 C 128.76 1.7798 0.629966 0
M  V30 1419 O 128.117 1.1313 1.43206 0
M  V30 1420 C 128.168 3.40466 -1.21512 0
M  V30 1421 O 127.889 3.52232 -2.60508 0
M  V30 1422 C 129.39 4.32145 -0.988198 0
M  V30 1423 H 126.61 0.602495 -0.295366 0
M  V30 1424 H 129.154 1.4627 -1.42918 0
M  V30 1425 H 127.309 3.81958 -0.647039 0
M  V30 1426 H 127.723 4.45549 -2.76742 0
M  V30 1427 H 129.197 5.36072 -1.31645 0
M  V30 1428 H 129.674 4.39135 0.0755063 0
M  V30 1429 H 130.28 3.96395 -1.54115 0
M  V30 1430 N 128.595 0.856903 1.32268 0
M  V30 1431 C 129.82 0.474569 2.01897 0
M  V30 1432 C 130.245 -0.921766 1.63967 0
M  V30 1433 O 129.603 -1.60589 0.84148 0
M  V30 1434 C 129.651 0.623799 3.55164 0
M  V30 1435 O 128.755 -0.342459 4.10976 0
M  V30 1436 H 128.096 0.190422 0.63611 0
M  V30 1437 H 130.626 1.15672 1.68764 0
M  V30 1438 H 130.636 0.512169 4.04773 0
M  V30 1439 H 129.311 1.64202 3.82113 0
M  V30 1440 H 127.888 -0.18688 3.72431 0
M  V30 1441 N 130.073 -1.45103 0.615059 0
M  V30 1442 C 130.983 -2.34382 -0.101034 0
M  V30 1443 C 131.999 -1.51681 -0.852585 0
M  V30 1444 O 133.175 -1.8446 -0.808484 0
M  V30 1445 C 130.24 -3.29417 -1.08099 0
M  V30 1446 C 129.301 -4.28025 -0.330577 0
M  V30 1447 C 128.534 -5.1852 -1.26385 0
M  V30 1448 O 128.757 -5.12598 -2.50198 0
M  V30 1449 O 127.691 -5.97122 -0.756866 0
M  V30 1450 H 131.517 -2.97033 0.632855 0
M  V30 1451 H 129.102 -1.4461 0.375293 0
M  V30 1452 H 130.984 -3.87958 -1.6452 0
M  V30 1453 H 129.659 -2.69321 -1.79577 0
M  V30 1454 H 128.566 -3.73078 0.276283 0
M  V30 1455 H 129.899 -4.90997 0.343866 0
M  V30 1456 N 131.551 -0.354651 -1.53558 0
M  V30 1457 C 132.501 0.513179 -2.2215 0
M  V30 1458 C 133.485 1.05734 -1.21281 0
M  V30 1459 O 134.677 0.989202 -1.46778 0
M  V30 1460 C 131.806 1.65798 -3.00609 0
M  V30 1461 C 130.892 1.12722 -4.08845 0
M  V30 1462 N 131.283 0.318563 -5.04796 0
M  V30 1463 C 129.581 1.40307 -4.23356 0
M  V30 1464 C 130.282 0.0292224 -5.81693 0
M  V30 1465 N 129.258 0.623891 -5.40008 0
M  V30 1466 H 133.06 -0.111586 -2.93688 0
M  V30 1467 H 130.574 -0.162091 -1.61589 0
M  V30 1468 H 132.571 2.29176 -3.48258 0
M  V30 1469 H 131.231 2.28591 -2.306 0
M  V30 1470 H 132.242 -0.0413091 -5.17884 0
M  V30 1471 H 128.919 2.03458 -3.6457 0
M  V30 1472 H 130.309 -0.623808 -6.68998 0
M  V30 1473 N 133.029 1.57378 -0.0835403 0
M  V30 1474 C 133.976 2.13384 0.879539 0
M  V30 1475 C 134.946 1.04936 1.28754 0
M  V30 1476 O 136.131 1.32662 1.37133 0
M  V30 1477 C 133.271 2.70932 2.13752 0
M  V30 1478 C 132.384 3.93575 1.7811 0
M  V30 1479 C 131.519 4.39326 2.98607 0
M  V30 1480 C 130.558 5.54587 2.59037 0
M  V30 1481 N 129.695 5.95243 3.72331 0
M  V30 1482 H 134.535 2.9537 0.395076 0
M  V30 1483 H 132.072 1.45953 0.183349 0
M  V30 1484 H 134.03 3.02411 2.87408 0
M  V30 1485 H 132.66 1.91693 2.59718 0
M  V30 1486 H 131.712 3.68483 0.94469 0
M  V30 1487 H 133.024 4.77258 1.45005 0
M  V30 1488 H 132.178 4.72528 3.80529 0
M  V30 1489 H 130.917 3.5452 3.34913 0
M  V30 1490 H 129.922 5.21024 1.75539 0
M  V30 1491 H 131.147 6.41133 2.23887 0
M  V30 1492 H 129.093 5.13385 4.08378 0
M  V30 1493 H 129.01 6.73694 3.43034 0
M  V30 1494 H 130.278 6.33072 4.54797 0
M  V30 1495 N 134.507 -0.190092 1.56449 0
M  V30 1496 C 135.753 -0.911052 1.81184 0
M  V30 1497 C 136.086 -1.82699 0.658396 0
M  V30 1498 O 135.361 -1.91491 -0.340775 0
M  V30 1499 C 135.644 -1.72297 3.16205 0
M  V30 1500 C 135.497 -0.831419 4.42049 0
M  V30 1501 C 136.816 -2.69454 3.47969 0
M  V30 1502 H 133.935 -0.32977 0.659106 0
M  V30 1503 H 136.577 -0.178169 1.89163 0
M  V30 1504 H 134.727 -2.34778 3.09534 0
M  V30 1505 H 136.399 -0.220929 4.60771 0
M  V30 1506 H 134.642 -0.138406 4.33579 0
M  V30 1507 H 135.313 -1.43461 5.33032 0
M  V30 1508 H 137.789 -2.17104 3.54972 0
M  V30 1509 H 136.665 -3.23342 4.43555 0
M  V30 1510 H 136.926 -3.48744 2.71717 0
M  V30 1511 N 135.985 -1.50799 -0.457987 0
M  V30 1512 C 137.231 -1.63648 -1.20792 0
M  V30 1513 C 137.586 -0.338662 -1.89396 0
M  V30 1514 O 136.879 0.664291 -1.79716 0
M  V30 1515 C 137.073 -2.76358 -2.2663 0
M  V30 1516 C 136.902 -4.16974 -1.68411 0
M  V30 1517 C 135.672 -4.83199 -1.47807 0
M  V30 1518 C 137.87 -5.00774 -1.17176 0
M  V30 1519 N 135.852 -6.07991 -0.849692 0
M  V30 1520 C 137.223 -6.16397 -0.667403 0
M  V30 1521 C 139.278 -4.86452 -1.06155 0
M  V30 1522 C 137.981 -7.19272 -0.0636908 0
M  V30 1523 C 140.007 -5.89515 -0.471759 0
M  V30 1524 C 139.369 -7.04397 0.0221557 0
M  V30 1525 H 135.468 -0.652888 -0.43042 0
M  V30 1526 H 138.052 -1.87962 -0.507785 0
M  V30 1527 H 136.223 -2.53744 -2.94056 0
M  V30 1528 H 137.955 -2.78496 -2.93636 0
M  V30 1529 H 134.71 -4.40714 -1.73403 0
M  V30 1530 H 135.134 -6.74733 -0.553537 0
M  V30 1531 H 139.776 -3.97907 -1.42932 0
M  V30 1532 H 137.494 -8.07481 0.316253 0
M  V30 1533 H 141.08 -5.805 -0.388671 0
M  V30 1534 H 139.96 -7.82782 0.471375 0
M  V30 1535 N 137.463 0.71206 -1.40597 0
M  V30 1536 C 138.74 1.46536 -1.29563 0
M  V30 1537 C 139.12 2.10931 0.0844217 0
M  V30 1538 O 138.468 2.00418 1.0975 0
M  V30 1539 C 138.678 2.49821 -2.43701 0
M  V30 1540 C 140.026 3.15551 -2.841 0
M  V30 1541 O 141.05 2.60142 -2.4332 0
M  V30 1542 O 139.909 4.15867 -3.54566 0
M  V30 1543 H 137.003 0.651801 -0.509004 0
M  V30 1544 H 139.549 0.743935 -1.52524 0
M  V30 1545 H 138.321 2.00778 -3.35863 0
M  V30 1546 H 137.944 3.29495 -2.22528 0
M  V30 1547 N 138.941 1.26152 0.944643 0
M  V30 1548 C 140.187 1.11657 1.69294 0
M  V30 1549 C 140.52 -0.339926 1.91202 0
M  V30 1550 O 139.795 -1.24994 1.49019 0
M  V30 1551 C 140.078 1.88236 3.06984 0
M  V30 1552 C 139.931 3.41772 2.92424 0
M  V30 1553 C 141.25 1.67343 4.07043 0
M  V30 1554 H 138.369 0.407004 0.614424 0
M  V30 1555 H 141.011 1.55106 1.09737 0
M  V30 1556 H 139.161 1.51308 3.57824 0
M  V30 1557 H 140.833 3.88433 2.48832 0
M  V30 1558 H 139.076 3.68974 2.28124 0
M  V30 1559 H 139.747 3.90579 3.90067 0
M  V30 1560 H 142.223 1.99509 3.65151 0
M  V30 1561 H 141.099 2.23346 5.01406 0
M  V30 1562 H 141.36 0.617158 4.37771 0
M  V30 1563 N 140.419 -1.14872 1.07899 0
M  V30 1564 C 141.329 -2.2341 0.715915 0
M  V30 1565 C 142.345 -1.71808 -0.275306 0
M  V30 1566 O 143.521 -2.01039 -0.120545 0
M  V30 1567 C 140.586 -3.46474 0.125168 0
M  V30 1568 C 139.647 -4.13039 1.17034 0
M  V30 1569 C 138.88 -5.30229 0.607688 0
M  V30 1570 O 139.103 -5.675 -0.574497 0
M  V30 1571 O 138.037 -5.86444 1.35526 0
M  V30 1572 H 141.863 -2.56808 1.62121 0
M  V30 1573 H 139.448 -1.22702 0.852322 0
M  V30 1574 H 141.33 -4.20917 -0.201729 0
M  V30 1575 H 140.005 -3.14811 -0.753364 0
M  V30 1576 H 138.912 -3.40493 1.54968 0
M  V30 1577 H 140.245 -4.48796 2.02097 0
M  V30 1578 N 141.898 -0.863906 -1.31812 0
M  V30 1579 C 142.808 -0.318461 -2.32428 0
M  V30 1580 C 143.824 0.568496 -1.64451 0
M  V30 1581 O 145 0.46666 -1.95919 0
M  V30 1582 C 142.065 0.476355 -3.43412 0
M  V30 1583 C 141.126 -0.43784 -4.27061 0
M  V30 1584 C 140.359 0.319138 -5.32745 0
M  V30 1585 O 140.582 1.54799 -5.48993 0
M  V30 1586 O 139.516 -0.319861 -6.01049 0
M  V30 1587 H 143.342 -1.15229 -2.80991 0
M  V30 1588 H 140.927 -0.627103 -1.35602 0
M  V30 1589 H 142.809 0.927156 -4.11074 0
M  V30 1590 H 141.484 1.28683 -2.97022 0
M  V30 1591 H 140.391 -0.937013 -3.62175 0
M  V30 1592 H 141.724 -1.21375 -4.77 0
M  V30 1593 N 143.376 1.44774 -0.622745 0
M  V30 1594 C 144.606 2.06187 -0.130532 0
M  V30 1595 C 145.014 1.46547 1.19669 0
M  V30 1596 O 144.357 0.579636 1.74316 0
M  V30 1597 C 144.419 3.59437 0.0674983 0
M  V30 1598 C 144.083 4.41496 -1.18026 0
M  V30 1599 C 145.08 4.75512 -2.102 0
M  V30 1600 C 142.765 4.82007 -1.41333 0
M  V30 1601 C 144.759 5.48912 -3.23998 0
M  V30 1602 C 142.446 5.55157 -2.55429 0
M  V30 1603 C 143.444 5.88528 -3.46589 0
M  V30 1604 O 143.132 6.60191 -4.58697 0
M  V30 1605 H 142.864 0.672045 -0.0730162 0
M  V30 1606 H 145.418 1.86768 -0.854802 0
M  V30 1607 H 143.648 3.77314 0.846825 0
M  V30 1608 H 145.337 4.02642 0.513209 0
M  V30 1609 H 146.103 4.4476 -1.93425 0
M  V30 1610 H 141.982 4.55457 -0.712709 0
M  V30 1611 H 145.526 5.74877 -3.95174 0
M  V30 1612 H 141.423 5.85324 -2.72151 0
M  V30 1613 H 142.191 6.78654 -4.57571 0
M  V30 1614 N 144.854 0.36279 1.53368 0
M  V30 1615 C 146.1 -0.228113 2.01513 0
M  V30 1616 C 146.433 -1.48648 1.2497 0
M  V30 1617 O 145.708 -1.91459 0.342616 0
M  V30 1618 C 145.991 -0.522884 3.56284 0
M  V30 1619 C 145.844 0.74892 4.43521 0
M  V30 1620 C 147.163 -1.32461 4.19693 0
M  V30 1621 H 144.282 -0.0814343 0.732487 0
M  V30 1622 H 146.924 0.48713 1.83649 0
M  V30 1623 H 145.074 -1.1322 3.71636 0
M  V30 1624 H 146.746 1.38648 4.39971 0
M  V30 1625 H 144.989 1.36986 4.11603 0
M  V30 1626 H 145.66 0.497667 5.49752 0
M  V30 1627 H 148.136 -0.809203 4.08156 0
M  V30 1628 H 147.012 -1.49961 5.28018 0
M  V30 1629 H 147.273 -2.33232 3.75573 0
M  V30 1630 N 146.332 -1.57332 0.0918853 0
M  V30 1631 C 147.279 -2.13847 -0.868211 0
M  V30 1632 C 148.249 -1.05618 -1.28196 0
M  V30 1633 O 149.434 -1.33387 -1.36427 0
M  V30 1634 C 146.574 -2.72062 -2.12312 0
M  V30 1635 C 145.687 -3.94514 -1.7602 0
M  V30 1636 C 144.822 -4.40903 -2.96273 0
M  V30 1637 C 143.861 -5.55953 -2.56092 0
M  V30 1638 N 142.998 -5.97209 -3.69169 0
M  V30 1639 H 147.838 -2.95575 -0.379406 0
M  V30 1640 H 145.375 -1.46048 -0.175606 0
M  V30 1641 H 147.333 -3.03931 -2.858 0
M  V30 1642 H 145.963 -1.93068 -2.58698 0
M  V30 1643 H 145.015 -3.68979 -0.925135 0
M  V30 1644 H 146.327 -4.7802 -1.42472 0
M  V30 1645 H 145.481 -4.74539 -3.78018 0
M  V30 1646 H 144.22 -3.56291 -3.33029 0
M  V30 1647 H 143.225 -5.21948 -1.72773 0
M  V30 1648 H 144.45 -6.42311 -2.20484 0
M  V30 1649 H 142.396 -5.15543 -4.05649 0
M  V30 1650 H 142.313 -6.75504 -3.39456 0
M  V30 1651 H 143.581 -6.35475 -4.51434 0
M  V30 1652 N 147.81 0.181792 -1.56548 0
M  V30 1653 C 149.221 0.745244 -1.71181 0
M  V30 1654 C 149.572 1.83262 -0.70068 0
M  V30 1655 O 148.697 2.15946 0.140154 0
M  V30 1656 C 149.292 1.35859 -3.10367 0
M  V30 1657 C 147.851 1.86898 -3.2672 0
M  V30 1658 C 146.998 0.743942 -2.67134 0
M  V30 1659 H 149.949 -0.0434661 -1.5864 0
M  V30 1660 H 149.97 2.22817 -3.08436 0
M  V30 1661 H 149.482 0.566948 -3.83937 0
M  V30 1662 H 147.583 2.68738 -2.5809 0
M  V30 1663 H 147.696 2.02162 -4.34359 0
M  V30 1664 H 146.06 1.16169 -2.26665 0
M  V30 1665 H 146.843 -0.035676 -3.43281 0
M  V30 1666 N 149.288 1.51039 0.449983 0
M  V30 1667 C 150.699 1.557 1.03026 0
M  V30 1668 C 151.05 0.372939 1.92623 0
M  V30 1669 O 150.175 -0.511771 2.10261 0
M  V30 1670 C 150.77 2.82171 1.87523 0
M  V30 1671 C 149.329 2.89444 2.40622 0
M  V30 1672 C 148.476 2.50228 1.19504 0
M  V30 1673 H 151.427 1.56999 0.231745 0
M  V30 1674 H 151.448 2.65219 2.72835 0
M  V30 1675 H 150.96 3.68331 1.22286 0
M  V30 1676 H 149.061 2.07685 3.0935 0
M  V30 1677 H 149.174 3.92816 2.74285 0
M  V30 1678 H 147.538 2.03139 1.53644 0
M  V30 1679 H 148.321 3.38719 0.558972 0
M  V30 1680 N 150.766 -0.704594 1.40972 0
M  V30 1681 C 151.676 -1.84856 1.44448 0
M  V30 1682 C 152.692 -1.70726 0.335961 0
M  V30 1683 O 153.868 -1.92799 0.582276 0
M  V30 1684 C 150.933 -3.20758 1.31587 0
M  V30 1685 C 149.994 -3.47063 2.52677 0
M  V30 1686 C 149.227 -4.76481 2.4042 0
M  V30 1687 O 149.45 -5.52341 1.42391 0
M  V30 1688 O 148.384 -5.03367 3.30007 0
M  V30 1689 H 152.21 -1.8488 2.40942 0
M  V30 1690 H 149.795 -0.85647 1.22413 0
M  V30 1691 H 151.677 -4.01913 1.26665 0
M  V30 1692 H 150.352 -3.21438 0.382049 0
M  V30 1693 H 149.259 -2.65873 2.63177 0
M  V30 1694 H 150.592 -3.5119 3.44858 0
M  V30 1695 N 152.244 -1.26651 -0.937939 0
M  V30 1696 C 153.492 -1.12165 -1.68118 0
M  V30 1697 C 153.813 0.334983 -1.92101 0
M  V30 1698 O 153.083 1.23583 -1.52 0
M  V30 1699 H 151.663 -0.412093 -0.623048 0
M  V30 1700 H 154.325 -1.59027 -1.12678 0
M  V30 1701 H 153.421 -1.64289 -2.6536 0
M  V30 1702 N 153.722 1.14298 -1.08507 0
M  V30 1703 C 154.97 1.84993 -0.813763 0
M  V30 1704 C 155.291 1.83405 0.662393 0
M  V30 1705 O 154.561 1.28319 1.48024 0
M  V30 1706 H 153.141 0.684966 -0.298045 0
M  V30 1707 H 155.803 1.385 -1.37126 0
M  V30 1708 H 154.899 2.89788 -1.15884 0
M  V30 1709 N 155.201 0.870884 1.31352 0
M  V30 1710 C 156.426 0.495957 2.01383 0
M  V30 1711 C 156.851 -0.904324 1.64935 0
M  V30 1712 O 156.209 -1.59687 0.858466 0
M  V30 1713 C 156.257 0.661433 3.54482 0
M  V30 1714 O 155.361 -0.298851 4.11316 0
M  V30 1715 H 154.702 0.197158 0.634054 0
M  V30 1716 H 157.232 1.17455 1.67527 0
M  V30 1717 H 157.242 0.555072 4.04207 0
M  V30 1718 H 155.917 1.68246 3.8035 0
M  V30 1719 H 154.494 -0.147368 3.72609 0
M  V30 1720 N 156.679 -1.44442 0.630414 0
M  V30 1721 C 157.925 -2.02351 0.134816 0
M  V30 1722 C 158.258 -1.4947 -1.23986 0
M  V30 1723 O 157.533 -0.678475 -1.82283 0
M  V30 1724 C 157.816 -3.59898 0.120707 0
M  V30 1725 C 157.669 -4.23063 1.52767 0
M  V30 1726 C 158.988 -4.36585 -0.555127 0
M  V30 1727 H 156.107 -0.73527 0.0504646 0
M  V30 1728 H 158.749 -1.72022 0.806751 0
M  V30 1729 H 156.899 -3.85868 -0.451477 0
M  V30 1730 H 158.571 -4.08202 2.14869 0
M  V30 1731 H 156.814 -3.80586 2.08175 0
M  V30 1732 H 157.485 -5.32071 1.46984 0
M  V30 1733 H 159.961 -4.16044 -0.0685429 0
M  V30 1734 H 158.837 -5.46294 -0.534185 0
M  V30 1735 H 159.098 -4.11138 -1.62535 0
M  V30 1736 N 158.157 -0.370918 -1.53173 0
M  V30 1737 C 159.404 0.217102 -2.01333 0
M  V30 1738 C 159.732 1.48338 -1.25802 0
M  V30 1739 O 158.987 1.92698 -0.34146 0
M  V30 1740 C 159.286 0.549696 -3.53147 0
M  V30 1741 C 158.952 -0.622872 -4.46577 0
M  V30 1742 C 157.614 -0.944595 -4.71838 0
M  V30 1743 C 159.966 -1.40819 -5.01816 0
M  V30 1744 C 157.294 -2.05351 -5.49589 0
M  V30 1745 C 159.646 -2.50757 -5.80778 0
M  V30 1746 C 158.31 -2.83458 -6.04324 0
M  V30 1747 H 157.58 0.0794431 -0.736729 0
M  V30 1748 H 160.227 -0.504481 -1.84736 0
M  V30 1749 H 158.532 1.35237 -3.6772 0
M  V30 1750 H 160.229 1.017 -3.87889 0
M  V30 1751 H 156.819 -0.36209 -4.27068 0
M  V30 1752 H 161.003 -1.17289 -4.82242 0
M  V30 1753 H 156.259 -2.3108 -5.6605 0
M  V30 1754 H 160.433 -3.12022 -6.22588 0
M  V30 1755 H 158.06 -3.69508 -6.64355 0
M  V30 1756 N 159.635 1.57281 -0.100228 0
M  V30 1757 C 160.86 1.99302 0.573881 0
M  V30 1758 C 161.285 0.979059 1.60611 0
M  V30 1759 O 160.643 -0.0517803 1.81226 0
M  V30 1760 C 160.691 3.40274 1.19358 0
M  V30 1761 O 159.795 3.41676 2.30935 0
M  V30 1762 H 159.136 0.647944 0.145138 0
M  V30 1763 H 161.666 2.03779 -0.183156 0
M  V30 1764 H 161.676 3.78078 1.53365 0
M  V30 1765 H 160.351 4.13594 0.437385 0
M  V30 1766 H 158.928 3.15672 1.98509 0
M  V30 1767 N 161.113 -0.173488 1.56642 0
M  V30 1768 C 162.362 -0.888758 1.81063 0
M  V30 1769 C 162.675 -1.83506 0.67712 0
M  V30 1770 O 163.881 -2.59254 0.806206 0
M  V30 1771 C 162.337 -1.63091 3.20826 0
M  V30 1772 C 161.945 -0.728357 4.4204 0
M  V30 1773 C 163.689 -2.33454 3.54541 0
M  V30 1774 C 161.596 -1.47062 5.72823 0
M  V30 1775 H 160.526 -0.335618 0.675186 0
M  V30 1776 H 163.177 -0.141712 1.82952 0
M  V30 1777 H 161.559 -2.42263 3.13248 0
M  V30 1778 H 162.733 0.0262449 4.60793 0
M  V30 1779 H 161.048 -0.134492 4.16183 0
M  V30 1780 H 163.645 -2.89578 4.49498 0
M  V30 1781 H 163.988 -3.08687 2.79317 0
M  V30 1782 H 164.521 -1.61227 3.63663 0
M  V30 1783 H 161.26 -0.760658 6.51072 0
M  V30 1784 H 160.78 -2.1986 5.58052 0
M  V30 1785 H 162.459 -2.01868 6.14702 0
M  V30 1786 N 162.591 -1.51276 -0.441967 0
M  V30 1787 C 163.84 -1.6295 -1.18871 0
M  V30 1788 C 164.153 -0.349312 -1.92456 0
M  V30 1789 O 165.359 -0.345355 -2.69295 0
M  V30 1790 C 163.815 -2.87759 -2.16155 0
M  V30 1791 C 163.423 -4.22764 -1.48239 0
M  V30 1792 C 165.167 -3.08788 -2.91291 0
M  V30 1793 C 163.074 -5.38728 -2.4398 0
M  V30 1794 H 162.004 -0.606913 -0.447406 0
M  V30 1795 H 164.655 -1.77739 -0.456205 0
M  V30 1796 H 163.037 -2.66593 -2.92821 0
M  V30 1797 H 164.211 -4.54293 -0.771635 0
M  V30 1798 H 162.526 -4.07575 -0.852741 0
M  V30 1799 H 165.123 -3.92599 -3.63002 0
M  V30 1800 H 165.466 -2.21679 -3.5237 0
M  V30 1801 H 165.999 -3.30272 -2.21733 0
M  V30 1802 H 162.738 -6.28082 -1.87598 0
M  V30 1803 H 162.258 -5.1158 -3.13123 0
M  V30 1804 H 163.937 -5.70489 -3.05207 0
M  V30 1805 N 164.069 0.697108 -1.41344 0
M  V30 1806 C 165.297 1.48593 -1.43972 0
M  V30 1807 C 165.712 1.88747 -0.0445612 0
M  V30 1808 O 165.069 1.56682 0.935785 0
M  V30 1809 C 165.12 2.74946 -2.34706 0
M  V30 1810 O 164.841 2.36484 -3.68791 0
M  V30 1811 C 166.342 3.687 -2.46121 0
M  V30 1812 H 163.562 0.457964 -0.490418 0
M  V30 1813 H 166.106 0.858429 -1.8561 0
M  V30 1814 H 164.261 3.33937 -1.9638 0
M  V30 1815 H 164.675 3.17918 -4.17167 0
M  V30 1816 H 166.149 4.54145 -3.13777 0
M  V30 1817 H 166.626 4.13081 -1.49199 0
M  V30 1818 H 167.232 3.15613 -2.85076 0
M  V30 1819 N 165.547 1.27147 0.931209 0
M  V30 1820 C 166.963 1.04475 1.20653 0
M  V30 1821 C 167.163 -0.223885 2.00252 0
M  V30 1822 O 166.219 -0.930332 2.34736 0
M  V30 1823 C 167.532 2.28209 1.95809 0
M  V30 1824 C 169.08 2.33211 2.08762 0
M  V30 1825 C 169.555 3.56665 2.87323 0
M  V30 1826 N 171.046 3.57201 2.94892 0
M  V30 1827 C 171.781 4.49395 3.56134 0
M  V30 1828 N 171.277 5.51889 4.18796 0
M  V30 1829 N 173.07 4.37026 3.53504 0
M  V30 1830 H 165.221 2.08612 0.399333 0
M  V30 1831 H 167.484 0.917312 0.239253 0
M  V30 1832 H 167.19 3.20538 1.44736 0
M  V30 1833 H 167.064 2.33247 2.96438 0
M  V30 1834 H 169.451 1.41391 2.59023 0
M  V30 1835 H 169.532 2.32178 1.07364 0
M  V30 1836 H 169.176 4.4882 2.37746 0
M  V30 1837 H 169.106 3.54948 3.88998 0
M  V30 1838 H 171.597 2.83074 2.50354 0
M  V30 1839 H 171.91 6.18409 4.63454 0
M  V30 1840 H 170.255 5.55735 4.17353 0
M  V30 1841 H 173.446 3.56166 3.03749 0
M  V30 1842 H 173.619 5.09067 4.00942 0
M  V30 1843 N 167.025 -1.13721 1.09112 0
M  V30 1844 C 168.271 -1.85198 0.826414 0
M  V30 1845 C 168.604 -1.83129 -0.646319 0
M  V30 1846 O 167.879 -1.2671 -1.47563 0
M  V30 1847 C 168.162 -3.33507 1.35812 0
M  V30 1848 C 168.015 -3.44108 2.89672 0
M  V30 1849 C 169.334 -4.28838 0.989256 0
M  V30 1850 H 166.453 -0.67243 0.301675 0
M  V30 1851 H 169.095 -1.33499 1.35197 0
M  V30 1852 H 167.245 -3.77666 0.911082 0
M  V30 1853 H 168.917 -3.08684 3.428 0
M  V30 1854 H 167.16 -2.85087 3.26967 0
M  V30 1855 H 167.831 -4.48388 3.21951 0
M  V30 1856 H 170.307 -3.92734 1.37475 0
M  V30 1857 H 169.183 -5.31051 1.38838 0
M  V30 1858 H 169.444 -4.4198 -0.102924 0
M  V30 1859 N 168.503 -0.877838 -1.30888 0
M  V30 1860 C 169.413 -0.343096 -2.32078 0
M  V30 1861 C 170.429 0.551022 -1.65045 0
M  V30 1862 O 171.605 0.445854 -1.96403 0
M  V30 1863 C 168.67 0.439905 -3.43898 0
M  V30 1864 C 167.731 -0.483111 -4.26573 0
M  V30 1865 C 166.964 0.262616 -5.33053 0
M  V30 1866 O 167.187 1.48967 -5.50604 0
M  V30 1867 O 166.121 -0.383593 -6.00676 0
M  V30 1868 H 169.947 -1.18203 -2.79753 0
M  V30 1869 H 167.532 -0.64145 -1.34929 0
M  V30 1870 H 169.414 0.883504 -4.12034 0
M  V30 1871 H 168.089 1.25526 -2.98371 0
M  V30 1872 H 166.996 -0.975374 -3.61161 0
M  V30 1873 H 168.329 -1.26427 -4.75686 0
M  V30 1874 N 169.982 1.44106 -0.638065 0
M  V30 1875 C 170.945 2.29138 0.0531013 0
M  V30 1876 C 171.945 1.41409 0.765506 0
M  V30 1877 O 173.135 1.63206 0.609046 0
M  V30 1878 C 170.267 3.23144 1.08584 0
M  V30 1879 H 171.46 2.91739 -0.694883 0
M  V30 1880 H 169.013 1.51134 -0.398538 0
M  V30 1881 H 169.748 2.65408 1.86357 0
M  V30 1882 H 169.533 3.87804 0.578852 0
M  V30 1883 H 171.023 3.87004 1.56899 0
M  V30 1884 N 171.46 0.379036 1.52974 0
M  V30 1885 C 172.688 -0.20679 2.05864 0
M  V30 1886 C 173.103 -1.41356 1.25155 0
M  V30 1887 O 172.46 -1.8009 0.295588 0
M  V30 1888 C 172.511 -0.587045 3.56702 0
M  V30 1889 O 172.232 0.571776 4.34353 0
M  V30 1890 C 173.733 -1.22983 4.25899 0
M  V30 1891 H 170.953 -0.0336123 0.670158 0
M  V30 1892 H 173.497 0.541298 1.97206 0
M  V30 1893 H 171.652 -1.28504 3.65466 0
M  V30 1894 H 172.066 0.261544 5.23847 0
M  V30 1895 H 173.54 -1.44635 5.32715 0
M  V30 1896 H 174.017 -2.19416 3.80465 0
M  V30 1897 H 174.623 -0.572892 4.21424 0
M  V30 1898 N 172.938 -1.57226 0.108567 0
M  V30 1899 C 173.888 -2.11305 -0.856396 0
M  V30 1900 C 174.872 -1.03129 -1.23504 0
M  V30 1901 O 176.064 -1.29381 -1.20787 0
M  V30 1902 C 173.193 -2.70771 -2.11041 0
M  V30 1903 C 172.279 -3.86011 -1.7566 0
M  V30 1904 N 172.67 -4.93492 -1.10902 0
M  V30 1905 C 170.968 -3.95999 -2.05185 0
M  V30 1906 C 171.669 -5.73984 -0.944308 0
M  V30 1907 N 170.645 -5.2346 -1.46596 0
M  V30 1908 H 174.447 -2.91784 -0.352002 0
M  V30 1909 H 171.961 -1.62126 -0.0942324 0
M  V30 1910 H 173.958 -3.07851 -2.81128 0
M  V30 1911 H 172.618 -1.91751 -2.62034 0
M  V30 1912 H 173.629 -5.1208 -0.774235 0
M  V30 1913 H 170.306 -3.28007 -2.58298 0
M  V30 1914 H 171.696 -6.70479 -0.436813 0
M  V30 1915 N 174.416 0.165178 -1.56732 0
M  V30 1916 C 175.641 0.900253 -1.86843 0
M  V30 1917 C 176.066 1.74766 -0.695596 0
M  V30 1918 O 175.424 1.77786 0.35522 0
M  V30 1919 C 175.472 1.74777 -3.15413 0
M  V30 1920 O 174.576 2.85007 -2.98068 0
M  V30 1921 H 173.917 0.251832 -0.614391 0
M  V30 1922 H 176.447 0.161468 -2.03962 0
M  V30 1923 H 176.457 2.14646 -3.46974 0
M  V30 1924 H 175.132 1.12537 -4.00385 0
M  V30 1925 H 173.709 2.48676 -2.77875 0
M  V30 1926 N 175.894 1.51508 0.433938 0
M  V30 1927 C 176.826 1.69266 1.54537 0
M  V30 1928 C 177.839 0.573276 1.52373 0
M  V30 1929 O 179.028 0.847698 1.57087 0
M  V30 1930 C 176.128 1.69524 2.93453 0
M  V30 1931 C 175.301 2.98101 3.20085 0
M  V30 1932 C 174.36 2.90502 4.38742 0
M  V30 1933 O 173.386 3.64442 4.3723 0
M  V30 1934 N 174.588 2.06586 5.42496 0
M  V30 1935 H 177.353 2.65145 1.39708 0
M  V30 1936 H 174.914 1.49437 0.622922 0
M  V30 1937 H 176.906 1.62004 3.70859 0
M  V30 1938 H 175.476 0.812245 3.01863 0
M  V30 1939 H 174.696 3.19464 2.30947 0
M  V30 1940 H 175.984 3.83207 3.34708 0
M  V30 1941 H 175.382 1.45896 5.46563 0
M  V30 1942 H 173.939 2.04943 6.18742 0
M  V30 1943 N 177.372 -0.689602 1.41712 0
M  V30 1944 C 178.6 -1.47827 1.44758 0
M  V30 1945 C 179.015 -1.88721 0.0545703 0
M  V30 1946 O 178.372 -1.57176 -0.927463 0
M  V30 1947 C 178.423 -2.73698 2.3616 0
M  V30 1948 O 178.144 -2.34524 3.7004 0
M  V30 1949 C 179.645 -3.67389 2.48072 0
M  V30 1950 H 176.865 -0.455357 0.49284 0
M  V30 1951 H 179.409 -0.848574 1.86063 0
M  V30 1952 H 177.564 -3.32891 1.98148 0
M  V30 1953 H 177.978 -3.15701 4.18847 0
M  V30 1954 H 179.452 -4.52475 3.16181 0
M  V30 1955 H 179.929 -4.12284 1.51388 0
M  V30 1956 H 180.535 -3.14097 2.86746 0
M  V30 1957 N 178.85 -1.27639 -0.924453 0
M  V30 1958 C 179.782 -1.06442 -2.02985 0
M  V30 1959 C 180.795 -0.0194771 -1.62788 0
M  V30 1960 O 181.984 -0.261388 -1.76576 0
M  V30 1961 C 179.084 -0.59327 -3.33667 0
M  V30 1962 C 178.257 -1.71123 -4.02537 0
M  V30 1963 C 177.316 -1.23527 -5.11495 0
M  V30 1964 O 176.342 -1.93553 -5.35281 0
M  V30 1965 N 177.544 -0.0926678 -5.80426 0
M  V30 1966 H 180.309 -2.01633 -2.2173 0
M  V30 1967 H 177.87 -1.19248 -1.09505 0
M  V30 1968 H 179.862 -0.258686 -4.03872 0
M  V30 1969 H 178.432 0.265502 -3.1147 0
M  V30 1970 H 177.652 -2.21593 -3.26022 0
M  V30 1971 H 178.94 -2.46145 -4.45298 0
M  V30 1972 H 178.338 0.491741 -5.63559 0
M  V30 1973 H 176.895 0.182714 -6.51544 0
M  V30 1974 N 180.328 1.1314 -1.09713 0
M  V30 1975 C 181.576 1.84119 -0.833338 0
M  V30 1976 C 181.897 1.84097 0.642904 0
M  V30 1977 O 181.167 1.29881 1.46655 0
M  V30 1978 H 179.747 0.681766 -0.305293 0
M  V30 1979 H 182.409 1.37038 -1.38588 0
M  V30 1980 H 181.505 2.88543 -1.18951 0
M  V30 1981 N 181.806 0.884767 1.30421 0
M  V30 1982 C 183.034 0.518044 2.0031 0
M  V30 1983 C 183.449 -0.893408 1.66324 0
M  V30 1984 O 182.806 -1.5875 0.900262 0
M  V30 1985 C 182.857 0.682997 3.54989 0
M  V30 1986 O 182.578 2.03888 3.87764 0
M  V30 1987 C 184.079 0.31924 4.42149 0
M  V30 1988 H 181.299 0.200265 0.640418 0
M  V30 1989 H 183.843 1.19001 1.6631 0
M  V30 1990 H 181.998 0.0584052 3.87356 0
M  V30 1991 H 182.412 2.05735 4.82466 0
M  V30 1992 H 183.886 0.485555 5.4986 0
M  V30 1993 H 184.363 -0.742717 4.32875 0
M  V30 1994 H 184.969 0.920147 4.15227 0
M  V30 1995 N 183.284 -1.43765 0.645699 0
M  V30 1996 C 184.524 -2.03776 0.159542 0
M  V30 1997 C 184.888 -1.49792 -1.2011 0
M  V30 1998 O 186.089 -2.01398 -1.78023 0
M  V30 1999 C 184.36 -3.57036 0.161251 0
M  V30 2000 S 185.919 -4.3804 -0.258159 0
M  V30 2001 H 182.737 -0.707717 0.0682454 0
M  V30 2002 H 185.339 -1.75941 0.852352 0
M  V30 2003 H 184.043 -3.9383 1.15439 0
M  V30 2004 H 183.574 -3.89503 -0.552339 0
M  V30 2005 H 185.589 -4.7302 -1.49889 0
M  V30 2006 N 184.763 -0.387143 -1.52771 0
M  V30 2007 C 186.174 0.0873634 -1.86495 0
M  V30 2008 C 186.525 1.46336 -1.30691 0
M  V30 2009 O 185.65 2.068 -0.637409 0
M  V30 2010 C 186.245 0.165305 -3.38396 0
M  V30 2011 C 184.804 0.584101 -3.7184 0
M  V30 2012 C 183.951 -0.255279 -2.76122 0
M  V30 2013 H 186.902 -0.605104 -1.46711 0
M  V30 2014 H 186.923 0.984848 -3.67534 0
M  V30 2015 H 186.435 -0.836301 -3.78982 0
M  V30 2016 H 184.536 1.59315 -3.36823 0
M  V30 2017 H 184.649 0.343749 -4.77865 0
M  V30 2018 H 183.013 0.279126 -2.53166 0
M  V30 2019 H 183.796 -1.25482 -3.19545 0
M  V30 2020 N 186.241 1.57166 -0.116904 0
M  V30 2021 C 187.151 2.18745 0.847812 0
M  V30 2022 C 188.167 1.163 1.29423 0
M  V30 2023 O 189.343 1.48761 1.35765 0
M  V30 2024 C 186.408 2.77307 2.0809 0
M  V30 2025 C 185.469 3.94781 1.68661 0
M  V30 2026 C 184.702 4.50541 2.86091 0
M  V30 2027 O 184.925 4.05202 4.01456 0
M  V30 2028 O 183.859 5.41256 2.63298 0
M  V30 2029 H 187.685 3.01632 0.353778 0
M  V30 2030 H 185.27 1.49005 0.108599 0
M  V30 2031 H 187.152 3.14647 2.80313 0
M  V30 2032 H 185.827 1.97452 2.56504 0
M  V30 2033 H 184.734 3.62214 0.935518 0
M  V30 2034 H 186.067 4.76065 1.24991 0
M  V30 2035 N 187.719 -0.156864 1.56817 0
M  V30 2036 C 188.944 -0.890331 1.87318 0
M  V30 2037 C 189.369 -1.74394 0.704855 0
M  V30 2038 O 188.727 -1.77972 -0.345786 0
M  V30 2039 C 188.775 -1.73102 3.16336 0
M  V30 2040 O 187.879 -2.83422 2.99576 0
M  V30 2041 H 187.22 -0.24857 0.615718 0
M  V30 2042 H 189.75 -0.150649 2.04045 0
M  V30 2043 H 189.76 -2.12803 3.48107 0
M  V30 2044 H 188.435 -1.10412 4.00976 0
M  V30 2045 H 187.012 -2.47199 2.7919 0
M  V30 2046 N 189.197 -1.51736 -0.425897 0
M  V30 2047 C 190.446 -1.64201 -1.17136 0
M  V30 2048 C 190.759 -0.369705 -1.92074 0
M  V30 2049 O 191.965 -0.373898 -2.68913 0
M  V30 2050 C 190.421 -2.90035 -2.13091 0
M  V30 2051 C 190.029 -4.24312 -1.43747 0
M  V30 2052 C 191.773 -3.1186 -2.87999 0
M  V30 2053 C 189.68 -5.41285 -2.38253 0
M  V30 2054 H 188.61 -0.611624 -0.440944 0
M  V30 2055 H 191.261 -1.78212 -0.437328 0
M  V30 2056 H 189.643 -2.69684 -2.89977 0
M  V30 2057 H 190.817 -4.55086 -0.723408 0
M  V30 2058 H 189.132 -4.08456 -0.809465 0
M  V30 2059 H 191.729 -3.96427 -3.58817 0
M  V30 2060 H 192.072 -2.25403 -3.49999 0
M  V30 2061 H 192.605 -3.32605 -2.18217 0
M  V30 2062 H 189.344 -6.30037 -1.80925 0
M  V30 2063 H 188.864 -5.14872 -3.0768 0
M  V30 2064 H 190.543 -5.73694 -2.99139 0
M  V30 2065 N 190.675 0.682077 -1.42076 0
M  V30 2066 C 192.091 0.994324 -1.24841 0
M  V30 2067 C 192.291 2.0096 -0.147389 0
M  V30 2068 O 191.347 2.47822 0.483782 0
M  V30 2069 C 192.66 1.50607 -2.60265 0
M  V30 2070 C 194.208 1.62421 -2.6756 0
M  V30 2071 C 194.683 2.16994 -4.03333 0
M  V30 2072 N 196.174 2.24337 -4.0525 0
M  V30 2073 C 196.909 2.67621 -5.07116 0
M  V30 2074 N 196.405 3.1041 -6.19368 0
M  V30 2075 N 198.198 2.67305 -4.94474 0
M  V30 2076 H 190.349 0.00973908 -2.12398 0
M  V30 2077 H 192.612 0.0668593 -0.945639 0
M  V30 2078 H 192.318 0.834583 -3.41654 0
M  V30 2079 H 192.192 2.48602 -2.83684 0
M  V30 2080 H 194.579 2.28678 -1.86521 0
M  V30 2081 H 194.66 0.629352 -2.47937 0
M  V30 2082 H 194.304 1.51349 -4.84826 0
M  V30 2083 H 194.234 3.17258 -4.20304 0
M  V30 2084 H 196.725 1.94158 -3.24209 0
M  V30 2085 H 197.038 3.42103 -6.92954 0
M  V30 2086 H 195.383 3.08286 -6.22884 0
M  V30 2087 H 198.574 2.33233 -4.05857 0
M  V30 2088 H 198.747 3.00718 -5.73997 0
M  V30 2089 N 192.153 1.28127 0.917671 0
M  V30 2090 C 193.399 1.15223 1.66888 0
M  V30 2091 C 193.732 -0.299293 1.9188 0
M  V30 2092 O 193.007 -1.21805 1.51637 0
M  V30 2093 C 193.29 1.94706 3.02922 0
M  V30 2094 C 193.143 3.47898 2.85109 0
M  V30 2095 C 194.462 1.75939 4.03402 0
M  V30 2096 H 191.581 0.419946 0.605652 0
M  V30 2097 H 194.223 1.57398 1.06423 0
M  V30 2098 H 192.373 1.58864 3.54534 0
M  V30 2099 H 194.045 3.93624 2.40537 0
M  V30 2100 H 192.288 3.7373 2.20246 0
M  V30 2101 H 192.959 3.98765 3.81694 0
M  V30 2102 H 195.435 2.07209 3.60837 0
M  V30 2103 H 194.311 2.33931 4.96556 0
M  V30 2104 H 194.572 0.709877 4.36364 0
M  V30 2105 N 193.631 -1.12557 1.10312 0
M  V30 2106 C 194.581 -2.16331 0.720076 0
M  V30 2107 C 195.565 -1.58616 -0.270115 0
M  V30 2108 O 196.757 -1.76823 -0.0790507 0
M  V30 2109 C 193.886 -3.42963 0.152113 0
M  V30 2110 C 192.972 -4.07663 1.16927 0
M  V30 2111 N 193.363 -4.47392 2.35953 0
M  V30 2112 C 191.661 -4.34425 1.0095 0
M  V30 2113 C 192.362 -4.97932 3.0073 0
M  V30 2114 N 191.338 -4.93358 2.28252 0
M  V30 2115 H 195.14 -2.44813 1.62616 0
M  V30 2116 H 192.654 -1.29449 0.980654 0
M  V30 2117 H 194.651 -4.16664 -0.14037 0
M  V30 2118 H 193.311 -3.1595 -0.748701 0
M  V30 2119 H 194.322 -4.39802 2.73486 0
M  V30 2120 H 190.999 -4.17177 0.164134 0
M  V30 2121 H 192.389 -5.38397 4.01969 0
M  V30 2122 N 195.109 -0.891671 -1.2995 0
M  V30 2123 C 196.057 -0.353066 -2.29905 0
M  V30 2124 C 197.051 0.543509 -1.60444 0
M  V30 2125 O 198.257 0.4272 -1.74857 0
M  V30 2126 H 194.632 -0.095531 -0.745907 0
M  V30 2127 H 196.603 -1.20961 -2.72784 0
M  V30 2128 C 195.352 0.411475 -3.45257 0
M  V30 2129 H 194.675 -0.269182 -3.98893 0
M  V30 2130 H 196.115 0.753328 -4.17254 0
M  V30 2131 C 194.574 1.6111 -2.9588 0
M  V30 2132 O 195.104 2.71045 -2.96475 0
M  V30 2133 N 193.31 1.45054 -2.51809 0
M  V30 2134 H 192.857 0.556175 -2.51524 0
M  V30 2135 H 192.815 2.25453 -2.1913 0
M  V30 2136 N 196.587 1.43421 -0.653314 0
M  V30 2137 C 197.55 2.29182 0.0287951 0
M  V30 2138 C 198.55 1.42213 0.750465 0
M  V30 2139 O 199.74 1.63843 0.591701 0
M  V30 2140 C 196.872 3.24278 1.05151 0
M  V30 2141 H 198.065 2.90985 -0.725786 0
M  V30 2142 H 195.618 1.50702 -0.414545 0
M  V30 2143 H 196.353 2.6737 1.83532 0
M  V30 2144 H 196.138 3.88396 0.537687 0
M  V30 2145 H 197.628 3.88647 1.52786 0
M  V30 2146 N 198.065 0.39524 1.52563 0
M  V30 2147 C 199.293 -0.184943 2.06072 0
M  V30 2148 C 199.708 -1.40021 1.26647 0
M  V30 2149 O 199.065 -1.79767 0.314672 0
M  V30 2150 C 199.116 -0.549179 3.57304 0
M  V30 2151 O 198.837 0.617813 4.33722 0
M  V30 2152 C 200.338 -1.18459 4.2718 0
M  V30 2153 H 197.558 -0.0265025 0.670476 0
M  V30 2154 H 200.102 0.562184 1.96621 0
M  V30 2155 H 198.257 -1.2462 3.66809 0
M  V30 2156 H 198.671 0.317091 5.23541 0
M  V30 2157 H 200.145 -1.38976 5.34219 0
M  V30 2158 H 200.622 -2.15368 3.82771 0
M  V30 2159 H 201.228 -0.528163 4.22008 0
M  V30 2160 N 199.544 -1.57102 0.125237 0
M  V30 2161 C 200.784 -1.97294 -0.534259 0
M  V30 2162 C 201.148 -1.0074 -1.63449 0
M  V30 2163 O 202.349 -1.29893 -2.35332 0
M  V30 2164 C 200.62 -3.41705 -1.04748 0
M  V30 2165 S 202.179 -4.03913 -1.71463 0
M  V30 2166 H 198.997 -0.689517 -0.173458 0
M  V30 2167 H 201.599 -1.94349 0.211797 0
M  V30 2168 H 200.303 -4.09723 -0.235649 0
M  V30 2169 H 199.834 -3.48315 -1.82867 0
M  V30 2170 H 201.849 -3.95182 -3.00077 0
M  V30 2171 N 201.022 0.148545 -1.56898 0
M  V30 2172 C 201.952 1.18524 -2.01182 0
M  V30 2173 C 202.933 1.4489 -0.891123 0
M  V30 2174 O 204.118 1.55836 -1.15882 0
M  V30 2175 C 201.248 2.51879 -2.39112 0
M  V30 2176 C 200.202 2.40038 -3.54353 0
M  V30 2177 C 199.528 3.78089 -3.78091 0
M  V30 2178 C 200.828 1.88577 -4.87069 0
M  V30 2179 H 202.522 0.817029 -2.88036 0
M  V30 2180 H 200.068 0.391575 -1.38574 0
M  V30 2181 H 202.021 3.24627 -2.68692 0
M  V30 2182 H 200.745 2.90532 -1.49193 0
M  V30 2183 H 199.404 1.69742 -3.24936 0
M  V30 2184 H 199.052 4.14175 -2.85426 0
M  V30 2185 H 198.752 3.71028 -4.55645 0
M  V30 2186 H 200.276 4.52387 -4.10095 0
M  V30 2187 H 201.69 2.51117 -5.15377 0
M  V30 2188 H 200.087 1.9241 -5.68417 0
M  V30 2189 H 201.157 0.84136 -4.77545 0
M  V30 2190 N 202.5 1.5196 0.417844 0
M  V30 2191 C 203.725 1.69717 1.1921 0
M  V30 2192 C 204.15 0.402148 1.83751 0
M  V30 2193 O 203.508 -0.639593 1.69643 0
M  V30 2194 C 203.556 2.82794 2.2374 0
M  V30 2195 O 202.66 2.47756 3.29683 0
M  V30 2196 H 202.001 0.565263 0.348387 0
M  V30 2197 H 204.531 1.98621 0.490985 0
M  V30 2198 H 204.541 3.07452 2.68212 0
M  V30 2199 H 203.216 3.76756 1.76146 0
M  V30 2200 H 201.793 2.33739 2.90552 0
M  V30 2201 N 203.978 -0.674533 1.42435 0
M  V30 2202 C 205.255 -1.4305 1.33402 0
M  V30 2203 C 205.635 -2.11081 -0.0284674 0
M  V30 2204 O 204.983 -2.03257 -1.04397 0
M  V30 2205 C 205.193 -2.43272 2.50239 0
M  V30 2206 C 206.541 -3.07907 2.92367 0
M  V30 2207 O 207.565 -2.53599 2.50132 0
M  V30 2208 O 206.424 -4.0632 3.65467 0
M  V30 2209 H 203.518 -0.638076 0.526106 0
M  V30 2210 H 206.064 -0.703235 1.54443 0
M  V30 2211 H 204.836 -1.91803 3.41068 0
M  V30 2212 H 204.459 -3.23479 2.31186 0
M  V30 2213 N 205.456 -1.28612 -0.910864 0
M  V30 2214 C 206.419 -1.12803 -1.9952 0
M  V30 2215 C 207.419 -0.0668264 -1.60661 0
M  V30 2216 O 208.609 -0.312847 -1.71368 0
M  V30 2217 C 205.741 -0.72254 -3.33155 0
M  V30 2218 H 206.934 -2.09109 -2.14973 0
M  V30 2219 H 204.487 -1.11639 -1.09391 0
M  V30 2220 H 205.222 0.241152 -3.23402 0
M  V30 2221 H 205.007 -1.48916 -3.62721 0
M  V30 2222 H 206.497 -0.634666 -4.12749 0
M  V30 2223 N 206.934 1.1197 -1.10907 0
M  V30 2224 C 208.211 1.79959 -0.766432 0
M  V30 2225 C 208.591 1.97466 0.746363 0
M  V30 2226 O 207.939 1.55491 1.67436 0
M  V30 2227 C 208.149 3.14009 -1.52314 0
M  V30 2228 C 209.497 3.89134 -1.69883 0
M  V30 2229 O 210.521 3.2368 -1.48692 0
M  V30 2230 O 209.38 5.06572 -2.05054 0
M  V30 2231 H 206.474 0.779208 -0.277062 0
M  V30 2232 H 209.02 1.18762 -1.21217 0
M  V30 2233 H 207.792 2.96587 -2.55249 0
M  V30 2234 H 207.415 3.82915 -1.07059 0
M  V30 2235 N 208.412 0.89855 1.29475 0
M  V30 2236 C 209.652 0.530771 1.97388 0
M  V30 2237 C 210.016 -0.905832 1.69289 0
M  V30 2238 O 211.217 -1.38042 2.30646 0
M  V30 2239 C 209.488 0.81369 3.48014 0
M  V30 2240 S 211.047 0.550048 4.35339 0
M  V30 2241 H 207.865 0.196956 0.683176 0
M  V30 2242 H 210.467 1.16074 1.57312 0
M  V30 2243 H 209.171 1.85749 3.65958 0
M  V30 2244 H 208.702 0.171795 3.93025 0
M  V30 2245 H 210.717 -0.605423 4.92493 0
M  V30 2246 N 209.89 -1.43072 0.660911 0
M  V30 2247 C 211.136 -2.0202 0.177708 0
M  V30 2248 C 211.469 -1.52066 -1.20787 0
M  V30 2249 O 210.744 -0.716987 -1.80802 0
M  V30 2250 C 211.027 -3.59561 0.197019 0
M  V30 2251 C 210.88 -4.19727 1.61706 0
M  V30 2252 C 212.199 -4.37664 -0.462396 0
M  V30 2253 H 209.318 -0.734034 0.0660494 0
M  V30 2254 H 211.96 -1.70272 0.843058 0
M  V30 2255 H 210.11 -3.86739 -0.369527 0
M  V30 2256 H 211.782 -4.03553 2.23479 0
M  V30 2257 H 210.025 -3.76084 2.16201 0
M  V30 2258 H 210.696 -5.28834 1.58237 0
M  V30 2259 H 213.172 -4.16095 0.0197215 0
M  V30 2260 H 212.048 -5.47305 -0.418188 0
M  V30 2261 H 212.309 -4.14493 -1.53778 0
M  V30 2262 N 211.368 -0.403325 -1.52352 0
M  V30 2263 C 212.331 0.413051 -2.25447 0
M  V30 2264 C 213.331 0.978513 -1.276 0
M  V30 2265 O 214.521 0.858305 -1.51587 0
M  V30 2266 C 211.653 1.58087 -3.02029 0
M  V30 2267 H 212.846 -0.227094 -2.99039 0
M  V30 2268 H 210.399 -0.155722 -1.55522 0
M  V30 2269 H 211.134 2.25804 -2.32772 0
M  V30 2270 H 210.919 1.18195 -3.73861 0
M  V30 2271 H 212.409 2.1585 -3.57489 0
M  V30 2272 N 212.846 1.57033 -0.133567 0
M  V30 2273 C 214.094 1.953 0.519848 0
M  V30 2274 C 214.415 1.01866 1.66278 0
M  V30 2275 O 213.685 0.0776513 1.95746 0
M  V30 2276 H 212.265 0.721091 0.195032 0
M  V30 2277 H 214.927 1.93809 -0.205921 0
M  V30 2278 H 214.023 2.98695 0.904854 0
M  V30 2279 N 214.325 -0.140222 1.56975 0
M  V30 2280 C 215.235 -1.19223 2.02047 0
M  V30 2281 C 216.251 -1.46612 0.937062 0
M  V30 2282 O 217.427 -1.58148 1.24704 0
M  V30 2283 C 214.492 -2.50414 2.39778 0
M  V30 2284 C 213.553 -2.30612 3.621 0
M  V30 2285 C 212.786 -3.55547 3.98023 0
M  V30 2286 O 213.009 -4.62004 3.34528 0
M  V30 2287 O 211.943 -3.47808 4.91237 0
M  V30 2288 H 215.769 -0.839559 2.91865 0
M  V30 2289 H 213.354 -0.349453 1.45256 0
M  V30 2290 H 215.236 -3.27747 2.64877 0
M  V30 2291 H 213.911 -2.85198 1.53114 0
M  V30 2292 H 212.818 -1.51207 3.4218 0
M  V30 2293 H 214.151 -2.00741 4.49404 0
M  V30 2294 N 215.803 -1.52179 -0.40978 0
M  V30 2295 C 216.733 -1.78435 -1.5061 0
M  V30 2296 C 217.714 -0.635295 -1.57791 0
M  V30 2297 O 218.899 -0.880823 -1.73076 0
M  V30 2298 C 216.029 -1.93444 -2.88439 0
M  V30 2299 C 214.983 -3.09038 -2.96108 0
M  V30 2300 C 214.309 -3.09268 -4.36185 0
M  V30 2301 C 215.609 -4.48508 -2.67652 0
M  V30 2302 H 217.303 -2.70237 -1.28889 0
M  V30 2303 H 214.849 -1.30036 -0.618605 0
M  V30 2304 H 216.802 -2.10394 -3.65119 0
M  V30 2305 H 215.526 -0.983129 -3.11452 0
M  V30 2306 H 214.185 -2.91837 -2.21872 0
M  V30 2307 H 213.833 -2.11861 -4.56206 0
M  V30 2308 H 213.533 -3.86907 -4.42241 0
M  V30 2309 H 215.057 -3.28348 -5.14801 0
M  V30 2310 H 216.471 -4.65918 -3.34056 0
M  V30 2311 H 214.868 -5.28059 -2.85085 0
M  V30 2312 H 215.938 -4.56649 -1.63095 0
M  V30 2313 N 217.281 0.66697 -1.42791 0
M  V30 2314 C 218.558 1.4234 -1.34159 0
M  V30 2315 C 218.938 2.11093 0.0172729 0
M  V30 2316 O 218.286 2.03808 1.03318 0
M  V30 2317 C 218.496 2.41942 -2.51526 0
M  V30 2318 C 219.844 3.06353 -2.93995 0
M  V30 2319 O 220.868 2.52269 -2.51473 0
M  V30 2320 O 219.727 4.04376 -3.67617 0
M  V30 2321 H 216.821 0.635277 -0.529483 0
M  V30 2322 H 219.367 0.695034 -1.54814 0
M  V30 2323 H 218.139 1.89991 -3.42081 0
M  V30 2324 H 217.762 3.22249 -2.32898 0
M  V30 2325 N 218.759 1.29093 0.90403 0
M  V30 2326 C 219.692 1.08176 2.00931 0
M  V30 2327 C 220.67 -0.005083 1.62599 0
M  V30 2328 O 221.854 0.144765 1.87943 0
M  V30 2329 C 218.981 0.645897 3.32484 0
M  V30 2330 C 218.027 1.73081 3.89801 0
M  V30 2331 S 218.86 3.32905 4.19446 0
M  V30 2332 C 220.016 2.91176 5.54046 0
M  V30 2333 H 220.249 2.01752 2.18365 0
M  V30 2334 H 217.782 1.13191 1.0501 0
M  V30 2335 H 219.74 0.401131 4.08535 0
M  V30 2336 H 218.401 -0.270188 3.12936 0
M  V30 2337 H 217.594 1.37768 4.84805 0
M  V30 2338 H 217.196 1.92888 3.20422 0
M  V30 2339 H 219.488 2.37952 6.34338 0
M  V30 2340 H 220.431 3.85014 5.94281 0
M  V30 2341 H 220.839 2.296 5.15698 0
M  V30 2342 N 220.237 -1.11381 1.11499 0
M  V30 2343 C 221.167 -2.19509 0.796125 0
M  V30 2344 C 222.148 -1.68458 -0.235796 0
M  V30 2345 O 223.333 -1.93947 -0.0991344 0
M  V30 2346 C 220.463 -3.46475 0.239205 0
M  V30 2347 C 219.417 -4.10744 1.20307 0
M  V30 2348 C 218.743 -5.32293 0.50683 0
M  V30 2349 C 220.043 -4.55597 2.55399 0
M  V30 2350 H 221.737 -2.46439 1.70024 0
M  V30 2351 H 219.283 -1.18446 0.818935 0
M  V30 2352 H 221.236 -4.214 0.00392006 0
M  V30 2353 H 219.96 -3.19006 -0.700206 0
M  V30 2354 H 218.619 -3.37813 1.42399 0
M  V30 2355 H 218.267 -5.01095 -0.437408 0
M  V30 2356 H 217.967 -5.76243 1.1497 0
M  V30 2357 H 219.491 -6.09956 0.280351 0
M  V30 2358 H 220.905 -5.21841 2.37391 0
M  V30 2359 H 219.302 -5.10363 3.15673 0
M  V30 2360 H 220.372 -3.69013 3.14575 0
M  V30 2361 N 221.715 -0.905404 -1.28997 0
M  V30 2362 C 222.963 -0.533192 -1.9494 0
M  V30 2363 C 223.284 0.924618 -1.71685 0
M  V30 2364 O 222.554 1.65268 -1.05183 0
M  V30 2365 H 221.134 -0.194194 -0.721317 0
M  V30 2366 H 223.796 -1.15294 -1.57141 0
M  V30 2367 H 222.892 -0.72059 -3.03667 0
M  V30 2368 N 223.193 1.4272 -0.668489 0
M  V30 2369 C 224.141 2.32586 0.0254857 0
M  V30 2370 C 225.135 1.49471 0.797176 0
M  V30 2371 O 226.341 1.65583 0.705853 0
M  V30 2372 H 222.716 0.751514 0.0270339 0
M  V30 2373 H 224.687 2.88823 -0.749936 0
M  V30 2374 C 223.436 3.3397 0.967427 0
M  V30 2375 H 222.759 3.97961 0.383048 0
M  V30 2376 H 224.199 3.9945 1.42181 0
M  V30 2377 C 222.658 2.65744 2.0708 0
M  V30 2378 O 223.188 2.48454 3.15648 0
M  V30 2379 N 221.394 2.2487 1.8407 0
M  V30 2380 H 220.941 2.39132 0.95778 0
M  V30 2381 H 220.899 1.79552 2.58086 0
M  V30 2382 N 224.671 0.411399 1.52136 0
M  V30 2383 C 225.919 -0.163322 2.01439 0
M  V30 2384 C 226.24 -1.45453 1.29879 0
M  V30 2385 O 225.51 -1.91225 0.4254 0
M  V30 2386 H 224.09 -0.0633447 0.744309 0
M  V30 2387 H 226.752 0.548161 1.87033 0
M  V30 2388 H 225.848 -0.357817 3.10042 0
M  V30 2389 N 226.149 -1.5696 0.141893 0
M  V30 2390 C 227.079 -2.19516 -0.795936 0
M  V30 2391 C 228.06 -1.14187 -1.26077 0
M  V30 2392 O 229.245 -1.42511 -1.31925 0
M  V30 2393 C 226.375 -2.81272 -2.03723 0
M  V30 2394 C 225.329 -3.92384 -1.70936 0
M  V30 2395 C 224.655 -4.41052 -3.02287 0
M  V30 2396 C 225.955 -5.13403 -0.959954 0
M  V30 2397 H 227.649 -2.98138 -0.274596 0
M  V30 2398 H 225.195 -1.43406 -0.130636 0
M  V30 2399 H 227.148 -3.237 -2.69808 0
M  V30 2400 H 225.872 -1.99973 -2.58221 0
M  V30 2401 H 224.531 -3.50566 -1.07232 0
M  V30 2402 H 224.179 -3.56582 -3.54765 0
M  V30 2403 H 223.879 -5.15993 -2.81114 0
M  V30 2404 H 225.403 -4.86146 -3.69451 0
M  V30 2405 H 226.817 -5.52706 -1.52279 0
M  V30 2406 H 225.214 -5.94073 -0.848357 0
M  V30 2407 H 226.284 -4.84875 0.0492434 0
M  V30 2408 N 227.627 0.131896 -1.57047 0
M  V30 2409 C 229.043 0.485031 -1.52051 0
M  V30 2410 C 229.243 1.82563 -0.85281 0
M  V30 2411 O 228.299 2.48817 -0.429694 0
M  V30 2412 C 229.612 0.481409 -2.96821 0
M  V30 2413 C 231.16 0.565868 -3.07842 0
M  V30 2414 C 231.635 0.592762 -4.54148 0
M  V30 2415 N 233.126 0.654564 -4.58552 0
M  V30 2416 C 233.861 0.696608 -5.69153 0
M  V30 2417 N 233.357 0.697078 -6.89284 0
M  V30 2418 N 235.15 0.738639 -5.57226 0
M  V30 2419 H 227.301 -0.746664 -1.98843 0
M  V30 2420 H 229.564 -0.273999 -0.90754 0
M  V30 2421 H 229.27 -0.435731 -3.4899 0
M  V30 2422 H 229.144 1.3139 -3.53577 0
M  V30 2423 H 231.531 1.47343 -2.55684 0
M  V30 2424 H 231.612 -0.29406 -2.54104 0
M  V30 2425 H 231.256 -0.310701 -5.06949 0
M  V30 2426 H 231.186 1.46939 -5.05684 0
M  V30 2427 H 233.677 0.660887 -3.72076 0
M  V30 2428 H 233.99 0.731426 -7.69331 0
M  V30 2429 H 232.335 0.66471 -6.91814 0
M  V30 2430 H 235.526 0.735545 -4.62285 0
M  V30 2431 H 235.699 0.767938 -6.43434 0
M  V30 2432 N 229.106 1.52395 0.401703 0
M  V30 2433 C 230.334 1.70676 1.16949 0
M  V30 2434 C 230.749 0.419503 1.8408 0
M  V30 2435 O 230.106 -0.605061 1.72178 0
M  V30 2436 C 230.157 2.84753 2.22706 0
M  V30 2437 O 229.878 4.08495 1.58314 0
M  V30 2438 C 231.379 3.14608 3.12309 0
M  V30 2439 H 228.599 0.571787 0.351142 0
M  V30 2440 H 231.143 1.98987 0.471652 0
M  V30 2441 H 229.298 2.58941 2.88147 0
M  V30 2442 H 229.712 4.72117 2.28485 0
M  V30 2443 H 231.186 3.97923 3.82572 0
M  V30 2444 H 231.663 2.28464 3.75101 0
M  V30 2445 H 232.269 3.42212 2.52529 0
M  V30 2446 N 230.584 -0.659388 1.43143 0
M  V30 2447 C 231.832 -1.41654 1.44147 0
M  V30 2448 C 232.153 -1.94893 0.0645739 0
M  V30 2449 O 231.423 -1.74044 -0.899198 0
M  V30 2450 H 230.003 -0.525708 0.530697 0
M  V30 2451 H 232.665 -0.778097 1.78694 0
M  V30 2452 H 231.761 -2.26195 2.1504 0
M  V30 2453 N 232.062 -1.29571 -0.897171 0
M  V30 2454 C 233.478 -1.07637 -1.17841 0
M  V30 2455 C 233.678 0.170713 -2.00776 0
M  V30 2456 O 232.734 0.867768 -2.3712 0
M  V30 2457 C 234.047 -2.3332 -1.8969 0
M  V30 2458 C 235.595 -2.38664 -2.02505 0
M  V30 2459 C 236.07 -3.64157 -2.77765 0
M  V30 2460 N 237.561 -3.64894 -2.85318 0
M  V30 2461 C 238.296 -4.58679 -3.44094 0
M  V30 2462 N 237.792 -5.62799 -4.04017 0
M  V30 2463 N 239.585 -4.46245 -3.41793 0
M  V30 2464 H 231.736 -2.09598 -0.343883 0
M  V30 2465 H 233.999 -0.923333 -0.214848 0
M  V30 2466 H 233.705 -3.24262 -1.36187 0
M  V30 2467 H 233.579 -2.41025 -2.9015 0
M  V30 2468 H 235.966 -1.48208 -2.55183 0
M  V30 2469 H 236.047 -2.34943 -1.01171 0
M  V30 2470 H 235.691 -4.54965 -2.25763 0
M  V30 2471 H 235.621 -3.65137 -3.7945 0
M  V30 2472 H 238.112 -2.89613 -2.42761 0
M  V30 2473 H 238.425 -6.3048 -4.46895 0
M  V30 2474 H 236.77 -5.66605 -4.02472 0
M  V30 2475 H 239.961 -3.64094 -2.94199 0
M  V30 2476 H 240.134 -5.19518 -3.87304 0
M  V30 2477 N 233.54 1.10788 -1.12088 0
M  V30 2478 C 234.78 1.84297 -0.883974 0
M  V30 2479 C 235.144 1.83036 0.579797 0
M  V30 2480 O 236.345 2.52061 0.933734 0
M  V30 2481 C 234.616 3.27173 -1.43849 0
M  V30 2482 S 236.175 4.17853 -1.33957 0
M  V30 2483 H 232.993 0.635433 -0.318977 0
M  V30 2484 H 235.595 1.33341 -1.4297 0
M  V30 2485 H 234.299 3.25658 -2.49749 0
M  V30 2486 H 233.83 3.83198 -0.890096 0
M  V30 2487 H 235.845 4.95239 -0.308603 0
M  V30 2488 N 235.018 0.912232 1.28515 0
M  V30 2489 C 236.264 0.545405 1.95328 0
M  V30 2490 C 236.597 -0.908313 1.71649 0
M  V30 2491 O 235.872 -1.64575 1.03659 0
M  V30 2492 C 236.155 0.853483 3.4984 0
M  V30 2493 C 236.008 2.35982 3.82926 0
M  V30 2494 C 237.327 0.348589 4.38717 0
M  V30 2495 H 234.446 0.199626 0.709449 0
M  V30 2496 H 237.088 1.1412 1.5191 0
M  V30 2497 H 235.238 0.34643 3.86952 0
M  V30 2498 H 236.91 2.93738 3.55691 0
M  V30 2499 H 235.153 2.81543 3.30024 0
M  V30 2500 H 235.824 2.52593 4.90816 0
M  V30 2501 H 238.3 0.78294 4.08668 0
M  V30 2502 H 237.176 0.593242 5.45685 0
M  V30 2503 H 237.437 -0.751049 4.35674 0
M  V30 2504 N 236.496 -1.42363 0.676048 0
M  V30 2505 C 237.907 -1.84649 0.275948 0
M  V30 2506 C 238.258 -1.56588 -1.18214 0
M  V30 2507 O 237.383 -1.02634 -1.90513 0
M  V30 2508 C 237.978 -3.35178 0.494053 0
M  V30 2509 C 236.537 -3.76109 0.148061 0
M  V30 2510 C 235.684 -2.65931 0.785891 0
M  V30 2511 H 238.635 -1.32192 0.878121 0
M  V30 2512 H 238.656 -3.79655 -0.25343 0
M  V30 2513 H 238.168 -3.55571 1.55535 0
M  V30 2514 H 236.269 -3.61323 -0.909742 0
M  V30 2515 H 236.382 -4.7546 0.589454 0
M  V30 2516 H 234.746 -2.53773 0.217113 0
M  V30 2517 H 235.529 -2.89146 1.85067 0
M  V30 2518 N 237.974 -0.419461 -1.51915 0
M  V30 2519 C 239.204 0.151915 -2.06041 0
M  V30 2520 C 239.612 1.38539 -1.28855 0
M  V30 2521 O 238.955 1.80592 -0.336463 0
M  V30 2522 C 239.017 0.557119 -3.55157 0
M  V30 2523 C 238.681 -0.567054 -4.53468 0
M  V30 2524 C 239.678 -1.43379 -4.99738 0
M  V30 2525 C 237.363 -0.742693 -4.96779 0
M  V30 2526 C 239.357 -2.46102 -5.87973 0
M  V30 2527 C 237.044 -1.77322 -5.84808 0
M  V30 2528 C 238.042 -2.63078 -6.30301 0
M  V30 2529 O 237.73 -3.64364 -7.16585 0
M  V30 2530 H 237.462 0.0193293 -0.675724 0
M  V30 2531 H 240.016 -0.592073 -1.96682 0
M  V30 2532 H 238.246 1.35355 -3.62238 0
M  V30 2533 H 239.935 1.05759 -3.9188 0
M  V30 2534 H 240.701 -1.30954 -4.66986 0
M  V30 2535 H 236.58 -0.0848307 -4.60922 0
M  V30 2536 H 240.124 -3.13071 -6.23404 0
M  V30 2537 H 236.021 -1.89773 -6.16974 0
M  V30 2538 H 236.789 -3.60731 -7.34721 0
M  V30 2539 N 239.452 1.56882 -0.150215 0
M  V30 2540 C 240.682 2.00302 0.506213 0
M  V30 2541 C 241.09 1.02934 1.58749 0
M  V30 2542 O 240.433 0.0188384 1.8369 0
M  V30 2543 C 240.495 3.40156 1.16337 0
M  V30 2544 C 240.159 4.56439 0.226311 0
M  V30 2545 C 241.156 5.17012 -0.547265 0
M  V30 2546 C 238.841 5.02136 0.128279 0
M  V30 2547 C 240.835 6.21693 -1.40629 0
M  V30 2548 C 238.522 6.06672 -0.734345 0
M  V30 2549 C 239.52 6.6632 -1.50023 0
M  V30 2550 O 239.208 7.68831 -2.34848 0
M  V30 2551 H 238.94 0.662182 0.135984 0
M  V30 2552 H 241.494 2.03961 -0.242746 0
M  V30 2553 H 239.724 3.33346 1.96004 0
M  V30 2554 H 241.413 3.67663 1.71985 0
M  V30 2555 H 242.179 4.82603 -0.48158 0
M  V30 2556 H 238.058 4.55435 0.714157 0
M  V30 2557 H 241.602 6.68179 -2.00455 0
M  V30 2558 H 237.499 6.40507 -0.801309 0
M  V30 2559 H 238.267 7.86065 -2.28131 0
M  V30 2560 N 240.93 -0.123565 1.57115 0
M  V30 2561 C 241.862 -1.17739 1.96648 0
M  V30 2562 C 242.875 -1.37906 0.865201 0
M  V30 2563 O 244.064 -1.37062 1.14351 0
M  V30 2564 C 241.164 -2.53821 2.24562 0
M  V30 2565 C 240.337 -2.54317 3.55867 0
M  V30 2566 C 239.396 -3.72112 3.72047 0
M  V30 2567 O 238.422 -3.55907 4.44206 0
M  V30 2568 N 239.624 -4.90498 3.10471 0
M  V30 2569 H 242.389 -0.841147 2.87654 0
M  V30 2570 H 239.95 -0.31289 1.58848 0
M  V30 2571 H 241.942 -3.31175 2.32606 0
M  V30 2572 H 240.512 -2.79645 1.39705 0
M  V30 2573 H 239.732 -1.62711 3.59053 0
M  V30 2574 H 241.02 -2.51701 4.42181 0
M  V30 2575 H 240.418 -5.06567 2.51806 0
M  V30 2576 H 238.975 -5.65544 3.24043 0
M  V30 2577 N 242.408 -1.52605 -0.393616 0
M  V30 2578 C 243.656 -1.67093 -1.13685 0
M  V30 2579 C 243.977 -0.411011 -1.90619 0
M  V30 2580 O 243.247 0.574491 -1.87287 0
M  V30 2581 H 241.827 -0.615923 -0.422668 0
M  V30 2582 H 244.489 -1.89704 -0.447039 0
M  V30 2583 H 243.585 -2.51922 -1.84232 0
M  V30 2584 N 243.887 0.651787 -1.4349 0
M  V30 2585 C 245.298 1.233 -1.40193 0
M  V30 2586 C 245.649 1.9591 -0.106727 0
M  V30 2587 O 244.774 2.01316 0.793773 0
M  V30 2588 C 245.369 2.24257 -2.53957 0
M  V30 2589 C 243.928 2.77852 -2.5392 0
M  V30 2590 C 243.075 1.52517 -2.3159 0
M  V30 2591 H 246.026 0.443717 -1.52371 0
M  V30 2592 H 246.047 3.0646 -2.25528 0
M  V30 2593 H 245.559 1.71382 -3.4821 0
M  V30 2594 H 243.66 3.34786 -1.63551 0
M  V30 2595 H 243.773 3.25299 -3.51735 0
M  V30 2596 H 242.137 1.79915 -1.80285 0
M  V30 2597 H 242.92 1.01574 -3.27929 0
M  V30 2598 N 245.365 1.30045 0.890287 0
M  V30 2599 C 246.59 1.21598 1.68014 0
M  V30 2600 C 247.015 -0.218678 1.86825 0
M  V30 2601 O 246.373 -1.15756 1.39536 0
M  V30 2602 C 246.421 1.94434 3.03691 0
M  V30 2603 O 245.525 1.2678 3.92429 0
M  V30 2604 H 244.866 0.420856 0.513592 0
M  V30 2605 H 247.396 1.71775 1.11151 0
M  V30 2606 H 247.406 2.03251 3.5377 0
M  V30 2607 H 246.081 2.98777 2.89318 0
M  V30 2608 H 244.658 1.26282 3.50866 0
M  V30 2609 N 246.843 -1.10192 1.12674 0
M  V30 2610 C 247.79 -2.16606 0.796906 0
M  V30 2611 C 248.76 -1.64394 -0.237476 0
M  V30 2612 O 249.945 -1.90474 -0.111484 0
M  V30 2613 C 247.085 -3.44116 0.26043 0
M  V30 2614 C 246.198 -4.10268 1.35293 0
M  V30 2615 C 245.333 -5.25507 0.775621 0
M  V30 2616 C 244.372 -5.83567 1.84706 0
M  V30 2617 N 243.509 -6.90179 1.28829 0
M  V30 2618 H 248.349 -2.44163 1.70846 0
M  V30 2619 H 245.886 -1.19846 0.85295 0
M  V30 2620 H 247.844 -4.17143 -0.0686814 0
M  V30 2621 H 246.474 -3.16901 -0.614274 0
M  V30 2622 H 245.526 -3.35184 1.79877 0
M  V30 2623 H 246.838 -4.4946 2.16303 0
M  V30 2624 H 245.992 -6.05398 0.397327 0
M  V30 2625 H 244.731 -4.87656 -0.0656581 0
M  V30 2626 H 243.736 -5.02344 2.23452 0
M  V30 2627 H 244.961 -6.23482 2.69161 0
M  V30 2628 H 242.907 -6.54322 0.468881 0
M  V30 2629 H 242.824 -7.28097 2.03497 0
M  V30 2630 H 244.092 -7.73844 0.937311 0
M  V30 2631 N 248.321 -0.919034 -1.28029 0
M  V30 2632 C 249.549 -0.570971 -1.98866 0
M  V30 2633 C 249.964 0.848996 -1.68634 0
M  V30 2634 O 249.321 1.56307 -0.942036 0
M  V30 2635 C 249.372 -0.776876 -3.53054 0
M  V30 2636 O 249.093 -2.14097 -3.82222 0
M  V30 2637 C 250.594 -0.436356 -4.41147 0
M  V30 2638 H 247.814 -0.217175 -0.634883 0
M  V30 2639 H 250.358 -1.23368 -1.63097 0
M  V30 2640 H 248.513 -0.161085 -3.87065 0
M  V30 2641 H 248.927 -2.18455 -4.76841 0
M  V30 2642 H 250.401 -0.63117 -5.4838 0
M  V30 2643 H 250.878 0.627686 -4.34692 0
M  V30 2644 H 251.484 -1.02991 -4.12641 0
M  V30 2645 N 249.799 1.42003 -0.683588 0
M  V30 2646 C 251.039 2.03282 -0.213513 0
M  V30 2647 C 251.403 1.52924 1.16097 0
M  V30 2648 O 252.604 2.06048 1.7262 0
M  V30 2649 C 250.875 3.56483 -0.255856 0
M  V30 2650 S 252.434 4.3857 0.14193 0
M  V30 2651 H 249.252 0.705659 -0.0869853 0
M  V30 2652 H 251.854 1.73619 -0.8987 0
M  V30 2653 H 250.558 3.90631 -1.25841 0
M  V30 2654 H 250.089 3.90831 0.448875 0
M  V30 2655 H 252.104 4.76828 1.37295 0
M  V30 2656 N 251.277 0.427512 1.51691 0
M  V30 2657 C 252.187 -0.39527 2.31246 0
M  V30 2658 C 253.203 -1.03674 1.39742 0
M  V30 2659 O 254.379 -1.03425 1.72816 0
M  V30 2660 C 251.444 -1.48706 3.13189 0
M  V30 2661 C 250.505 -0.866743 4.20459 0
M  V30 2662 C 249.738 -1.90651 4.98486 0
M  V30 2663 O 249.961 -3.12733 4.77026 0
M  V30 2664 O 248.895 -1.5025 5.82845 0
M  V30 2665 H 252.721 0.253918 3.02637 0
M  V30 2666 H 250.306 0.190274 1.48183 0
M  V30 2667 H 252.188 -2.12047 3.64162 0
M  V30 2668 H 250.863 -2.12051 2.44573 0
M  V30 2669 H 249.77 -0.195544 3.73589 0
M  V30 2670 H 251.103 -0.276934 4.9142 0
M  V30 2671 N 252.755 -1.56801 0.158532 0
M  V30 2672 C 254.001 -1.96781 -0.490405 0
M  V30 2673 C 254.334 -1.04397 -1.63753 0
M  V30 2674 O 253.609 -0.0885805 -1.94298 0
M  V30 2675 C 253.892 -3.4635 -0.985594 0
M  V30 2676 C 253.745 -4.49512 0.160824 0
M  V30 2677 C 255.064 -3.98697 -1.86355 0
M  V30 2678 H 252.183 -0.715482 -0.176788 0
M  V30 2679 H 254.825 -1.88451 0.242088 0
M  V30 2680 H 252.975 -3.53579 -1.60978 0
M  V30 2681 H 254.647 -4.54353 0.797537 0
M  V30 2682 H 252.89 -4.26013 0.818256 0
M  V30 2683 H 253.561 -5.51531 -0.227569 0
M  V30 2684 H 256.037 -3.94019 -1.33746 0
M  V30 2685 H 254.913 -5.03792 -2.17909 0
M  V30 2686 H 255.174 -3.41744 -2.8047 0
M  V30 2687 N 254.233 0.115231 -1.57178 0
M  V30 2688 C 255.48 0.822351 -1.8505 0
M  V30 2689 C 255.808 1.79701 -0.744168 0
M  V30 2690 O 255.063 1.93909 0.26414 0
M  V30 2691 C 255.362 1.60324 -3.19423 0
M  V30 2692 C 255.028 0.772536 -4.44233 0
M  V30 2693 C 253.69 0.543468 -4.78121 0
M  V30 2694 C 256.042 0.193746 -5.2084 0
M  V30 2695 C 253.37 -0.274583 -5.86057 0
M  V30 2696 C 255.722 -0.611517 -6.29637 0
M  V30 2697 C 254.386 -0.850867 -6.62055 0
M  V30 2698 H 253.656 0.30092 -0.677147 0
M  V30 2699 H 256.303 0.0845802 -1.91313 0
M  V30 2700 H 254.608 2.41203 -3.08753 0
M  V30 2701 H 256.305 2.1544 -3.38211 0
M  V30 2702 H 252.895 0.96117 -4.17683 0
M  V30 2703 H 257.079 0.357926 -4.95008 0
M  V30 2704 H 252.335 -0.469206 -6.09597 0
M  V30 2705 H 256.509 -1.06697 -6.88178 0
M  V30 2706 H 254.136 -1.48657 -7.45523 0
M  V30 2707 N 255.711 1.52812 0.385517 0
M  V30 2708 C 256.959 1.67694 1.12797 0
M  V30 2709 C 257.28 0.421115 1.90399 0
M  V30 2710 O 256.55 -0.564551 1.87589 0
M  V30 2711 H 255.13 0.618155 0.419396 0
M  V30 2712 H 257.792 1.89938 0.436972 0
M  V30 2713 H 256.888 2.52896 1.82894 0
M  V30 2714 N 257.189 -0.644168 1.43834 0
M  V30 2715 C 258.435 -1.40431 1.47141 0
M  V30 2716 C 258.79 -1.92153 0.0975577 0
M  V30 2717 O 258.083 -1.69924 -0.885232 0
M  V30 2718 C 258.277 -2.59615 2.45631 0
M  V30 2719 C 258.106 -2.1956 3.92458 0
M  V30 2720 C 256.876 -2.07456 4.60749 0
M  V30 2721 C 259.074 -1.79281 4.8204 0
M  V30 2722 N 257.056 -1.60827 5.92459 0
M  V30 2723 C 258.427 -1.43801 6.03093 0
M  V30 2724 C 260.482 -1.66545 4.6922 0
M  V30 2725 C 259.185 -0.968599 7.12749 0
M  V30 2726 C 261.211 -1.21008 5.78888 0
M  V30 2727 C 260.573 -0.864711 6.99072 0
M  V30 2728 H 256.672 -0.509182 0.593513 0
M  V30 2729 H 259.256 -0.740351 1.80075 0
M  V30 2730 H 257.427 -3.23658 2.1471 0
M  V30 2731 H 259.159 -3.26357 2.39318 0
M  V30 2732 H 255.914 -2.275 4.1538 0
M  V30 2733 H 256.338 -1.39848 6.62398 0
M  V30 2734 H 260.98 -1.91883 3.7675 0
M  V30 2735 H 258.698 -0.702715 8.05039 0
M  V30 2736 H 262.284 -1.11631 5.7099 0
M  V30 2737 H 261.164 -0.517736 7.82489 0
M  V30 2738 N 258.668 -1.30515 -0.883378 0
M  V30 2739 C 259.908 -1.20716 -1.64946 0
M  V30 2740 C 260.272 0.234072 -1.90568 0
M  V30 2741 O 261.473 0.455335 -2.64915 0
M  V30 2742 C 259.744 -2.01444 -2.9522 0
M  V30 2743 S 261.303 -2.0836 -3.86175 0
M  V30 2744 H 258.121 -0.430165 -0.566109 0
M  V30 2745 H 260.723 -1.65011 -1.04841 0
M  V30 2746 H 259.427 -3.05268 -2.74298 0
M  V30 2747 H 258.958 -1.57817 -3.60357 0
M  V30 2748 H 260.973 -1.21215 -4.81167 0
M  V30 2749 N 260.146 1.09593 -1.13257 0
M  V30 2750 C 261.557 1.63229 -0.906274 0
M  V30 2751 C 261.908 1.8811 0.557578 0
M  V30 2752 O 261.033 1.62953 1.42391 0
M  V30 2753 C 261.628 2.96535 -1.63867 0
M  V30 2754 C 260.187 3.47003 -1.45828 0
M  V30 2755 C 259.334 2.2145 -1.66898 0
M  V30 2756 H 262.285 0.92978 -1.28611 0
M  V30 2757 H 262.306 3.64411 -1.09476 0
M  V30 2758 H 261.818 2.78394 -2.70404 0
M  V30 2759 H 259.919 3.70272 -0.415848 0
M  V30 2760 H 260.032 4.24551 -2.2202 0
M  V30 2761 H 258.396 2.30022 -1.09371 0
M  V30 2762 H 259.179 2.0583 -2.74752 0
M  V30 2763 N 261.624 0.925811 1.2754 0
M  V30 2764 C 262.87 0.566092 1.94739 0
M  V30 2765 C 263.203 -0.890057 1.72603 0
M  V30 2766 O 262.478 -1.63467 1.05399 0
M  V30 2767 C 262.761 0.89054 3.48915 0
M  V30 2768 C 262.614 2.4003 3.80402 0
M  V30 2769 C 263.933 0.395101 4.38323 0
M  V30 2770 H 261.052 0.20714 0.707292 0
M  V30 2771 H 263.694 1.15725 1.50691 0
M  V30 2772 H 261.844 0.387452 3.86563 0
M  V30 2773 H 263.516 2.97494 3.52555 0
M  V30 2774 H 261.759 2.85028 3.2702 0
M  V30 2775 H 262.43 2.57785 4.8811 0
M  V30 2776 H 264.906 0.826241 4.07814 0
M  V30 2777 H 263.782 0.651086 5.45025 0
M  V30 2778 H 264.043 -0.704798 4.36446 0
M  V30 2779 N 263.102 -1.41638 0.69111 0
M  V30 2780 C 264.012 -2.34588 0.0233487 0
M  V30 2781 C 265.028 -1.55987 -0.770984 0
M  V30 2782 O 266.204 -1.88486 -0.709569 0
M  V30 2783 C 263.269 -3.34684 -0.904851 0
M  V30 2784 C 262.33 -4.29176 -0.103225 0
M  V30 2785 C 261.563 -5.2449 -0.987216 0
M  V30 2786 O 261.786 -5.2514 -2.22674 0
M  V30 2787 O 260.72 -6.00295 -0.439281 0
M  V30 2788 H 264.546 -2.93261 0.789416 0
M  V30 2789 H 262.131 -1.42417 0.45142 0
M  V30 2790 H 264.013 -3.96133 -1.43724 0
M  V30 2791 H 262.688 -2.78461 -1.65049 0
M  V30 2792 H 261.595 -3.71089 0.473655 0
M  V30 2793 H 262.928 -4.88484 0.60365 0
M  V30 2794 N 264.58 -0.43555 -1.51462 0
M  V30 2795 C 265.857 0.191364 -1.94662 0
M  V30 2796 C 266.237 1.60254 -1.37411 0
M  V30 2797 O 265.585 2.2152 -0.560458 0
M  V30 2798 C 265.795 0.17091 -3.48581 0
M  V30 2799 C 267.143 0.377357 -4.2292 0
M  V30 2800 O 268.167 0.249104 -3.55328 0
M  V30 2801 O 267.026 0.63247 -5.42828 0
M  V30 2802 H 264.12 0.130932 -0.816569 0
M  V30 2803 H 266.666 -0.4934 -1.62369 0
M  V30 2804 H 265.438 -0.815738 -3.82703 0
M  V30 2805 H 265.061 0.898659 -3.87311 0
M  V30 2806 N 266.058 1.56714 -0.166846 0
M  V30 2807 C 267.306 1.96358 0.478305 0
M  V30 2808 C 267.627 1.0537 1.6408 0
M  V30 2809 O 266.897 0.119154 1.95537 0
M  V30 2810 H 265.477 0.725065 0.179692 0
M  V30 2811 H 268.139 1.93329 -0.246985 0
M  V30 2812 H 267.235 3.00547 0.841292 0
M  V30 2813 N 267.536 -0.106894 1.57237 0
M  V30 2814 C 268.499 -1.11466 2.0027 0
M  V30 2815 C 269.499 -1.33623 0.894519 0
M  V30 2816 O 270.689 -1.29935 1.16028 0
M  V30 2817 C 267.821 -2.46646 2.35327 0
M  V30 2818 H 269.014 -0.744516 2.90512 0
M  V30 2819 H 266.567 -0.351576 1.52295 0
M  V30 2820 H 267.302 -2.88558 1.48003 0
M  V30 2821 H 267.087 -2.31915 3.16161 0
M  V30 2822 H 268.577 -3.19151 2.69318 0
M  V30 2823 N 269.014 -1.53014 -0.377408 0
M  V30 2824 C 270.239 -1.72818 -1.14668 0
M  V30 2825 C 270.664 -0.450725 -1.8262 0
M  V30 2826 O 270.022 0.59439 -1.7128 0
M  V30 2827 C 270.07 -2.88627 -2.16164 0
M  V30 2828 O 269.174 -2.56409 -3.22998 0
M  V30 2829 H 268.515 -0.574301 -0.333278 0
M  V30 2830 H 271.045 -1.99853 -0.438152 0
M  V30 2831 H 271.055 -3.14455 -2.59966 0
M  V30 2832 H 269.73 -3.81294 -1.66095 0
M  V30 2833 H 268.307 -2.4136 -2.84253 0
M  V30 2834 N 270.492 0.636531 -1.44174 0
M  V30 2835 C 271.738 1.39826 -1.4689 0
M  V30 2836 C 272.071 1.93947 -0.0990585 0
M  V30 2837 O 271.346 1.73325 0.882544 0
M  V30 2838 C 271.629 2.56751 -2.5249 0
M  V30 2839 C 271.482 2.08014 -3.98811 0
M  V30 2840 C 272.801 3.58946 -2.54649 0
M  V30 2841 H 269.92 0.507075 -0.53483 0
M  V30 2842 H 272.562 0.720188 -1.75822 0
M  V30 2843 H 270.712 3.14597 -2.2795 0
M  V30 2844 H 272.384 1.5504 -4.34466 0
M  V30 2845 H 270.627 1.39242 -4.10846 0
M  V30 2846 H 271.298 2.92169 -4.68339 0
M  V30 2847 H 273.774 3.1089 -2.76563 0
M  V30 2848 H 272.65 4.38286 -3.3045 0
M  V30 2849 H 272.911 4.12655 -1.58646 0
M  V30 2850 N 271.97 1.30982 0.876444 0
M  V30 2851 C 273.195 1.23373 1.66715 0
M  V30 2852 C 273.62 -0.19885 1.87046 0
M  V30 2853 O 272.978 -1.1427 1.40756 0
M  V30 2854 C 273.026 1.97644 3.01611 0
M  V30 2855 O 272.13 1.30935 3.91062 0
M  V30 2856 H 271.471 0.426279 0.509099 0
M  V30 2857 H 274.001 1.72944 1.09323 0
M  V30 2858 H 274.011 2.06992 3.51594 0
M  V30 2859 H 272.686 3.01829 2.86133 0
M  V30 2860 H 271.263 1.29996 3.49507 0
M  V30 2861 N 273.449 -1.08991 1.13837 0
M  V30 2862 C 274.381 -2.15606 0.777612 0
M  V30 2863 C 275.394 -1.61533 -0.202739 0
M  V30 2864 O 276.583 -1.78491 0.0181055 0
M  V30 2865 C 273.683 -3.3864 0.132623 0
M  V30 2866 C 272.856 -4.22115 1.1462 0
M  V30 2867 C 271.915 -5.23564 0.526074 0
M  V30 2868 O 270.941 -5.56678 1.18735 0
M  V30 2869 N 272.143 -5.76266 -0.699866 0
M  V30 2870 H 274.908 -2.47159 1.69506 0
M  V30 2871 H 272.469 -1.24747 1.03198 0
M  V30 2872 H 274.461 -4.03626 -0.29459 0
M  V30 2873 H 273.031 -3.04938 -0.687849 0
M  V30 2874 H 272.251 -3.53199 1.75055 0
M  V30 2875 H 273.539 -4.74709 1.83109 0
M  V30 2876 H 272.937 -5.51585 -1.25581 0
M  V30 2877 H 271.494 -6.42963 -1.06968 0
M  V30 2878 N 274.927 -0.932562 -1.27047 0
M  V30 2879 C 276.174 -0.575559 -1.94148 0
M  V30 2880 C 276.502 0.883984 -1.73251 0
M  V30 2881 O 275.757 1.64655 -1.0577 0
M  V30 2882 C 276.056 -0.853713 -3.47054 0
M  V30 2883 C 275.722 -2.29577 -3.88079 0
M  V30 2884 C 274.384 -2.68999 -3.9899 0
M  V30 2885 C 276.736 -3.23331 -4.08787 0
M  V30 2886 C 274.064 -4.01289 -4.28 0
M  V30 2887 C 276.416 -4.55207 -4.39282 0
M  V30 2888 C 275.08 -4.94457 -4.48407 0
M  V30 2889 H 274.35 -0.210612 -0.710439 0
M  V30 2890 H 276.997 -1.17744 -1.51025 0
M  V30 2891 H 275.302 -0.169204 -3.91434 0
M  V30 2892 H 276.999 -0.55639 -3.97121 0
M  V30 2893 H 273.589 -1.97994 -3.80127 0
M  V30 2894 H 277.773 -2.94074 -3.99793 0
M  V30 2895 H 273.029 -4.31374 -4.33275 0
M  V30 2896 H 277.203 -5.27852 -4.54252 0
M  V30 2897 H 274.83 -5.96994 -4.7064 0
M  V30 2898 N 276.405 1.4127 -0.698611 0
M  V30 2899 C 277.335 2.33447 -0.049629 0
M  V30 2900 C 278.316 1.51982 0.763898 0
M  V30 2901 O 279.501 1.80509 0.716257 0
M  V30 2902 C 276.631 3.35828 0.885267 0
M  V30 2903 C 275.585 4.27627 0.178613 0
M  V30 2904 C 274.911 5.20406 1.22807 0
M  V30 2905 C 276.211 5.13459 -0.956933 0
M  V30 2906 H 277.905 2.87966 -0.81951 0
M  V30 2907 H 275.451 1.38461 -0.395538 0
M  V30 2908 H 277.404 3.9924 1.34854 0
M  V30 2909 H 276.128 2.79666 1.68685 0
M  V30 2910 H 274.787 3.65643 -0.26466 0
M  V30 2911 H 274.435 4.60558 2.02226 0
M  V30 2912 H 274.135 5.82661 0.760239 0
M  V30 2913 H 275.659 5.86695 1.69179 0
M  V30 2914 H 277.073 5.70421 -0.573805 0
M  V30 2915 H 275.47 5.8467 -1.35205 0
M  V30 2916 H 276.54 4.50443 -1.79524 0
M  V30 2917 N 277.883 0.443576 1.51229 0
M  V30 2918 C 279.131 -0.120557 2.0174 0
M  V30 2919 C 279.452 -1.42665 1.32935 0
M  V30 2920 O 278.722 -1.9028 0.465866 0
M  V30 2921 H 277.302 -0.0475426 0.745486 0
M  V30 2922 H 279.964 0.587711 1.85828 0
M  V30 2923 H 279.06 -0.291972 3.10731 0
M  V30 2924 N 279.361 -1.56624 0.175154 0
M  V30 2925 C 280.589 -2.01374 -0.474971 0
M  V30 2926 C 281.004 -1.05537 -1.56548 0
M  V30 2927 O 280.361 -0.0568668 -1.82411 0
M  V30 2928 C 280.412 -3.45923 -1.04975 0
M  V30 2929 O 280.133 -4.381 -0.00276605 0
M  V30 2930 C 281.634 -4.06093 -1.77773 0
M  V30 2931 H 278.854 -0.659962 -0.121206 0
M  V30 2932 H 281.398 -2.02601 0.27801 0
M  V30 2933 H 279.553 -3.45458 -1.75321 0
M  V30 2934 H 279.967 -5.22753 -0.427681 0
M  V30 2935 H 281.441 -5.09147 -2.13245 0
M  V30 2936 H 281.918 -3.48405 -2.67414 0
M  V30 2937 H 282.524 -4.10272 -1.12059 0
M  V30 2938 N 280.839 0.0985539 -1.57292 0
M  V30 2939 C 281.772 1.15082 -1.97057 0
M  V30 2940 C 282.75 1.39025 -0.843255 0
M  V30 2941 O 283.934 1.52842 -1.10325 0
M  V30 2942 C 281.061 2.50069 -2.28437 0
M  V30 2943 C 280.107 2.42428 -3.509 0
M  V30 2944 S 280.94 1.84414 -5.02744 0
M  V30 2945 C 282.096 3.21032 -5.37298 0
M  V30 2946 H 282.329 0.811815 -2.86002 0
M  V30 2947 H 279.862 0.306102 -1.51335 0
M  V30 2948 H 281.82 3.27729 -2.47192 0
M  V30 2949 H 280.481 2.8114 -1.40069 0
M  V30 2950 H 279.674 3.41911 -3.70288 0
M  V30 2951 H 279.276 1.72896 -3.31637 0
M  V30 2952 H 281.568 4.17297 -5.33731 0
M  V30 2953 H 282.511 3.06452 -6.38352 0
M  V30 2954 H 282.919 3.20404 -4.64759 0
M  V30 2955 N 282.317 1.53212 0.369288 0
M  V30 2956 C 283.28 1.7872 1.43498 0
M  V30 2957 C 284.28 0.657554 1.46741 0
M  V30 2958 O 285.47 0.925736 1.47566 0
M  V30 2959 C 282.602 1.90591 2.82645 0
M  V30 2960 H 283.795 2.73894 1.22156 0
M  V30 2961 H 281.348 1.44233 0.602203 0
M  V30 2962 H 282.083 0.974709 3.09306 0
M  V30 2963 H 281.868 2.72751 2.8169 0
M  V30 2964 H 283.358 2.11931 3.59826 0
M  V30 2965 N 283.795 -0.628877 1.44509 0
M  V30 2966 C 285.206 -1.21054 1.42137 0
M  V30 2967 C 285.557 -1.95715 0.137881 0
M  V30 2968 O 284.682 -2.02554 -0.761645 0
M  V30 2969 C 285.277 -2.20189 2.57493 0
M  V30 2970 C 283.836 -2.73777 2.58308 0
M  V30 2971 C 282.983 -1.48813 2.33987 0
M  V30 2972 H 285.934 -0.41942 1.53057 0
M  V30 2973 H 285.955 -3.02833 2.30375 0
M  V30 2974 H 285.467 -1.6582 3.50892 0
M  V30 2975 H 283.568 -3.32142 1.68856 0
M  V30 2976 H 283.681 -3.19662 3.56865 0
M  V30 2977 H 282.045 -1.77024 1.83124 0
M  V30 2978 H 282.828 -0.963442 3.29504 0
M  V30 2979 N 285.273 -1.31445 -0.869486 0
M  V30 2980 C 286.221 -1.19067 -1.99814 0
M  V30 2981 C 287.215 -0.0988569 -1.69111 0
M  V30 2982 O 288.421 -0.260781 -1.78101 0
M  V30 2983 H 284.796 -0.368677 -0.655425 0
M  V30 2984 H 286.767 -2.14555 -2.07385 0
M  V30 2985 C 285.516 -0.915323 -3.35436 0
M  V30 2986 H 284.839 -1.74759 -3.59582 0
M  V30 2987 H 286.279 -0.868895 -4.15001 0
M  V30 2988 C 284.738 0.381928 -3.34728 0
M  V30 2989 O 285.268 1.39857 -3.76567 0
M  V30 2990 N 283.474 0.398633 -2.87853 0
M  V30 2991 H 283.021 -0.429186 -2.54 0
M  V30 2992 H 282.979 1.26651 -2.87762 0
M  V30 2993 N 286.751 1.08385 -1.14413 0
M  V30 2994 C 287.998 1.80776 -0.912482 0
M  V30 2995 C 288.326 1.86236 0.560934 0
M  V30 2996 O 287.581 1.33431 1.43159 0
M  V30 2997 C 287.88 3.26273 -1.45879 0
M  V30 2998 C 287.546 3.4093 -2.95089 0
M  V30 2999 C 286.208 3.44638 -3.35824 0
M  V30 3000 C 288.56 3.44591 -3.91033 0
M  V30 3001 C 285.888 3.49597 -4.71167 0
M  V30 3002 C 288.24 3.51086 -5.26233 0
M  V30 3003 C 286.904 3.53067 -5.6648 0
M  V30 3004 H 286.174 0.661507 -0.333901 0
M  V30 3005 H 288.821 1.27613 -1.42784 0
M  V30 3006 H 287.126 3.82146 -0.864376 0
M  V30 3007 H 288.823 3.80839 -1.2555 0
M  V30 3008 H 285.413 3.38736 -2.62594 0
M  V30 3009 H 289.597 3.40957 -3.60641 0
M  V30 3010 H 284.853 3.49424 -5.0171 0
M  V30 3011 H 289.027 3.52864 -6.00383 0
M  V30 3012 H 286.654 3.56662 -6.71339 0
M  V30 3013 N 288.23 0.939286 1.26551 0
M  V30 3014 C 289.458 0.602536 1.97932 0
M  V30 3015 C 289.873 -0.82206 1.69964 0
M  V30 3016 O 289.23 -1.54789 0.966784 0
M  V30 3017 C 289.281 0.832946 3.51773 0
M  V30 3018 O 289.002 2.20151 3.78768 0
M  V30 3019 C 290.503 0.506483 4.40397 0
M  V30 3020 H 287.723 0.227248 0.631347 0
M  V30 3021 H 290.267 1.25948 1.61113 0
M  V30 3022 H 288.422 0.222644 3.8676 0
M  V30 3023 H 288.836 2.26013 4.73306 0
M  V30 3024 H 290.31 0.718333 5.47306 0
M  V30 3025 H 290.787 -0.558451 4.35635 0
M  V30 3026 H 291.393 1.09543 4.10951 0
M  V30 3027 N 289.708 -1.40897 0.706093 0
M  V30 3028 C 290.957 -2.00284 0.238574 0
M  V30 3029 C 291.27 -1.56604 -1.17194 0
M  V30 3030 O 292.476 -2.08624 -1.73748 0
M  V30 3031 C 290.932 -3.57934 0.375623 0
M  V30 3032 C 290.54 -4.10591 1.79217 0
M  V30 3033 C 292.284 -4.24488 -0.0315857 0
M  V30 3034 C 290.191 -5.60712 1.88032 0
M  V30 3035 H 289.121 -0.749144 0.0854398 0
M  V30 3036 H 291.772 -1.61251 0.875813 0
M  V30 3037 H 290.154 -3.94622 -0.330042 0
M  V30 3038 H 291.328 -3.85301 2.52745 0
M  V30 3039 H 289.643 -3.56601 2.15 0
M  V30 3040 H 292.24 -5.34698 0.0136842 0
M  V30 3041 H 292.583 -4.02261 -1.072 0
M  V30 3042 H 293.116 -3.92873 0.624181 0
M  V30 3043 H 289.855 -5.87781 2.90161 0
M  V30 3044 H 289.375 -5.87896 1.18903 0
M  V30 3045 H 291.054 -6.25658 1.64805 0
M  V30 3046 N 291.186 -0.45159 -1.50991 0
M  V30 3047 C 292.116 0.342898 -2.30969 0
M  V30 3048 C 293.097 1.00815 -1.37005 0
M  V30 3049 O 294.282 1.00907 -1.65926 0
M  V30 3050 C 291.412 1.43637 -3.16205 0
M  V30 3051 C 290.366 0.893818 -4.18563 0
M  V30 3052 C 289.692 2.08411 -4.92411 0
M  V30 3053 C 290.992 -0.0815568 -5.22236 0
M  V30 3054 H 292.686 -0.324556 -2.97636 0
M  V30 3055 H 290.232 -0.157531 -1.43136 0
M  V30 3056 H 292.185 1.9995 -3.70942 0
M  V30 3057 H 290.909 2.13232 -2.47386 0
M  V30 3058 H 289.568 0.352798 -3.64898 0
M  V30 3059 H 289.216 2.76658 -4.20082 0
M  V30 3060 H 288.916 1.72741 -5.61636 0
M  V30 3061 H 290.44 2.65251 -5.49976 0
M  V30 3062 H 291.854 0.391742 -5.7196 0
M  V30 3063 H 290.251 -0.351551 -5.99069 0
M  V30 3064 H 291.321 -1.01374 -4.74185 0
M  V30 3065 N 292.664 1.56529 -0.183458 0
M  V30 3066 C 293.913 1.96419 0.458511 0
M  V30 3067 C 294.226 1.0727 1.63562 0
M  V30 3068 O 295.432 1.36893 2.34462 0
M  V30 3069 C 293.888 3.49298 0.867122 0
M  V30 3070 C 293.496 4.47092 -0.285057 0
M  V30 3071 C 295.24 3.97983 1.47683 0
M  V30 3072 C 293.147 5.91225 0.143862 0
M  V30 3073 H 292.077 0.733394 0.175071 0
M  V30 3074 H 294.728 1.81448 -0.273624 0
M  V30 3075 H 293.11 3.59731 1.65559 0
M  V30 3076 H 294.284 4.48383 -1.0625 0
M  V30 3077 H 292.599 4.08535 -0.805503 0
M  V30 3078 H 295.196 5.03134 1.80999 0
M  V30 3079 H 295.539 3.41618 2.37914 0
M  V30 3080 H 296.072 3.90617 0.752562 0
M  V30 3081 H 292.811 6.5149 -0.723974 0
M  V30 3082 H 292.331 5.93214 0.886413 0
M  V30 3083 H 294.01 6.44362 0.583628 0
M  V30 3084 N 294.142 -0.090211 1.57342 0
M  V30 3085 C 295.089 -1.10909 2.02405 0
M  V30 3086 C 296.059 -1.39523 0.901252 0
M  V30 3087 O 297.244 -1.50903 1.1676 0
M  V30 3088 C 294.384 -2.42277 2.45755 0
M  V30 3089 C 293.497 -2.20352 3.71576 0
M  V30 3090 C 292.632 -3.45154 4.03785 0
M  V30 3091 C 291.671 -3.18512 5.22701 0
M  V30 3092 N 290.808 -4.35593 5.50639 0
M  V30 3093 H 295.648 -0.71782 2.89225 0
M  V30 3094 H 293.185 -0.342901 1.43048 0
M  V30 3095 H 295.143 -3.18951 2.68935 0
M  V30 3096 H 293.773 -2.79242 1.61938 0
M  V30 3097 H 292.825 -1.34458 3.55844 0
M  V30 3098 H 294.137 -1.96661 4.58395 0
M  V30 3099 H 293.291 -4.30233 4.27767 0
M  V30 3100 H 292.03 -3.71904 3.15498 0
M  V30 3101 H 291.035 -2.31827 4.98534 0
M  V30 3102 H 292.26 -2.93103 6.12591 0
M  V30 3103 H 290.206 -4.6241 4.6531 0
M  V30 3104 H 290.123 -4.1511 6.31838 0
M  V30 3105 H 291.391 -5.21723 5.7916 0
M  V30 3106 N 295.62 -1.53406 -0.361157 0
M  V30 3107 C 296.568 -1.80832 -1.46296 0
M  V30 3108 C 297.562 -0.677699 -1.55253 0
M  V30 3109 O 298.768 -0.860723 -1.58087 0
M  V30 3110 H 295.143 -0.572627 -0.487445 0
M  V30 3111 H 297.114 -2.73045 -1.20371 0
M  V30 3112 C 295.863 -2.01907 -2.8307 0
M  V30 3113 H 295.186 -2.88349 -2.76938 0
M  V30 3114 H 296.626 -2.25072 -3.59331 0
M  V30 3115 C 295.085 -0.799449 -3.27277 0
M  V30 3116 O 295.615 0.00971761 -4.01699 0
M  V30 3117 N 293.821 -0.621637 -2.83873 0
M  V30 3118 H 293.368 -1.28126 -2.23476 0
M  V30 3119 H 293.326 0.19298 -3.13807 0
M  V30 3120 N 297.098 0.621204 -1.44841 0
M  V30 3121 C 298.323 1.41244 -1.51871 0
M  V30 3122 C 298.748 1.87519 -0.147764 0
M  V30 3123 O 298.106 1.59334 0.865 0
M  V30 3124 C 298.154 2.60221 -2.49634 0
M  V30 3125 O 297.258 3.60395 -2.00473 0
M  V30 3126 H 296.599 0.42223 -0.512463 0
M  V30 3127 H 299.129 0.757305 -1.90069 0
M  V30 3128 H 299.139 3.0764 -2.67996 0
M  V30 3129 H 297.814 2.25887 -3.4921 0
M  V30 3130 H 296.391 3.19717 -1.91925 0
M  V30 3131 N 298.576 1.31904 0.862503 0
M  V30 3132 C 299.825 1.21373 1.61094 0
M  V30 3133 C 300.138 -0.22504 1.94301 0
M  V30 3134 O 301.344 -0.452121 2.67709 0
M  V30 3135 C 299.8 2.12525 2.9045 0
M  V30 3136 C 299.408 3.61441 2.64697 0
M  V30 3137 C 301.152 2.10813 3.68454 0
M  V30 3138 C 299.059 4.44578 3.90006 0
M  V30 3139 H 297.989 0.450705 0.604468 0
M  V30 3140 H 300.64 1.56811 0.953027 0
M  V30 3141 H 299.022 1.69994 3.57656 0
M  V30 3142 H 300.196 4.12264 2.05851 0
M  V30 3143 H 298.511 3.65205 2.00036 0
M  V30 3144 H 301.108 2.70167 4.61426 0
M  V30 3145 H 301.451 1.09713 4.01583 0
M  V30 3146 H 301.984 2.51583 3.08141 0
M  V30 3147 H 298.723 5.46461 3.62023 0
M  V30 3148 H 298.243 3.98508 4.48276 0
M  V30 3149 H 299.922 4.57176 4.5782 0
M  V30 3150 N 300.054 -1.07777 1.14986 0
M  V30 3151 C 301.004 -2.13082 0.811181 0
M  V30 3152 C 301.988 -1.59619 -0.202597 0
M  V30 3153 O 303.18 -1.77 -0.00398275 0
M  V30 3154 C 300.309 -3.42009 0.297439 0
M  V30 3155 C 299.395 -4.02337 1.34112 0
M  V30 3156 N 299.786 -4.36982 2.54716 0
M  V30 3157 C 298.084 -4.29752 1.19285 0
M  V30 3158 C 298.785 -4.84729 3.21578 0
M  V30 3159 N 297.761 -4.83233 2.48972 0
M  V30 3160 H 301.563 -2.37696 1.72853 0
M  V30 3161 H 299.077 -1.25173 1.03468 0
M  V30 3162 H 301.074 -4.16884 0.0364777 0
M  V30 3163 H 299.734 -3.18841 -0.614022 0
M  V30 3164 H 300.745 -4.27807 2.91894 0
M  V30 3165 H 297.422 -4.16106 0.340926 0
M  V30 3166 H 298.812 -5.20863 4.24442 0
M  V30 3167 N 301.532 -0.945985 -1.26051 0
M  V30 3168 C 302.762 -0.612136 -1.97323 0
M  V30 3169 C 303.17 0.818171 -1.70595 0
M  V30 3170 O 302.513 1.55777 -0.973613 0
M  V30 3171 C 302.575 -0.780347 -3.50929 0
M  V30 3172 C 302.239 -2.18619 -4.01317 0
M  V30 3173 C 303.236 -3.16209 -4.12683 0
M  V30 3174 C 300.921 -2.50805 -4.35203 0
M  V30 3175 C 302.915 -4.44085 -4.57238 0
M  V30 3176 C 300.602 -3.78912 -4.79446 0
M  V30 3177 C 301.6 -4.75365 -4.90425 0
M  V30 3178 O 301.288 -6.01191 -5.3369 0
M  V30 3179 H 301.02 -0.229134 -0.635982 0
M  V30 3180 H 303.574 -1.27036 -1.61404 0
M  V30 3181 H 301.804 -0.0649864 -3.86645 0
M  V30 3182 H 303.493 -0.448842 -4.03411 0
M  V30 3183 H 304.259 -2.92668 -3.86744 0
M  V30 3184 H 300.138 -1.76463 -4.2589 0
M  V30 3185 H 303.682 -5.19373 -4.65723 0
M  V30 3186 H 299.579 -4.02265 -5.0483 0
M  V30 3187 H 300.347 -6.04442 -5.51899 0
M  V30 3188 N 303.011 1.40521 -0.713556 0
M  V30 3189 C 304.422 1.83853 -0.324807 0
M  V30 3190 C 304.773 1.59667 1.14021 0
M  V30 3191 O 303.898 1.07649 1.87725 0
M  V30 3192 C 304.493 3.33751 -0.582746 0
M  V30 3193 C 303.052 3.75584 -0.247727 0
M  V30 3194 C 302.199 2.63753 -0.856121 0
M  V30 3195 H 305.15 1.29817 -0.91286 0
M  V30 3196 H 305.171 3.80194 0.152682 0
M  V30 3197 H 304.683 3.51322 -1.64908 0
M  V30 3198 H 302.784 3.63608 0.813624 0
M  V30 3199 H 302.897 4.7373 -0.715307 0
M  V30 3200 H 301.261 2.53108 -0.28432 0
M  V30 3201 H 302.044 2.84137 -1.92668 0
M  V30 3202 N 304.489 0.459591 1.5075 0
M  V30 3203 C 305.436 -0.340524 2.28274 0
M  V30 3204 C 306.406 -0.997371 1.32822 0
M  V30 3205 O 307.591 -1.01202 1.61749 0
M  V30 3206 C 304.731 -1.42317 3.14388 0
M  V30 3207 C 303.844 -0.782251 4.24859 0
M  V30 3208 C 302.979 -1.84182 4.98247 0
M  V30 3209 C 302.018 -1.18053 6.00608 0
M  V30 3210 N 301.155 -2.18244 6.67319 0
M  V30 3211 H 305.995 0.326899 2.96202 0
M  V30 3212 H 303.532 0.173057 1.46078 0
M  V30 3213 H 305.49 -2.06241 3.62658 0
M  V30 3214 H 304.12 -2.05992 2.4853 0
M  V30 3215 H 303.172 -0.0307404 3.80388 0
M  V30 3216 H 304.484 -0.259663 4.98124 0
M  V30 3217 H 303.638 -2.55714 5.50177 0
M  V30 3218 H 302.377 -2.39819 4.24662 0
M  V30 3219 H 301.382 -0.450776 5.47949 0
M  V30 3220 H 302.607 -0.631202 6.7616 0
M  V30 3221 H 300.553 -2.72919 5.96533 0
M  V30 3222 H 300.47 -1.70938 7.36421 0
M  V30 3223 H 301.738 -2.89191 7.23871 0
M  V30 3224 N 305.967 -1.56429 0.191757 0
M  V30 3225 C 307.214 -1.97485 -0.447891 0
M  V30 3226 C 307.542 -1.07852 -1.61859 0
M  V30 3227 O 306.797 -0.116903 -1.95351 0
M  V30 3228 C 307.096 -3.44449 -0.953384 0
M  V30 3229 C 306.762 -4.50781 0.103586 0
M  V30 3230 C 305.424 -4.79584 0.394023 0
M  V30 3231 C 307.776 -5.1471 0.819946 0
M  V30 3232 C 305.104 -5.69607 1.40585 0
M  V30 3233 C 307.456 -6.05827 1.8209 0
M  V30 3234 C 306.12 -6.32987 2.11857 0
M  V30 3235 H 305.39 -0.722648 -0.163895 0
M  V30 3236 H 308.037 -1.89322 0.28802 0
M  V30 3237 H 306.342 -3.49666 -1.76751 0
M  V30 3238 H 308.039 -3.73569 -1.45765 0
M  V30 3239 H 304.629 -4.28394 -0.132951 0
M  V30 3240 H 308.813 -4.92552 0.608789 0
M  V30 3241 H 304.069 -5.88926 1.64243 0
M  V30 3242 H 308.243 -6.54424 2.38123 0
M  V30 3243 H 305.87 -7.02544 2.90407 0
M  V30 3244 N 307.445 0.0818655 -1.57387 0
M  V30 3245 C 308.395 1.10501 -1.99433 0
M  V30 3246 C 309.379 1.35041 -0.874798 0
M  V30 3247 O 310.571 1.35511 -1.13868 0
M  V30 3248 C 307.7 2.42159 -2.43339 0
M  V30 3249 C 306.786 2.20937 -3.62005 0
M  V30 3250 N 307.177 1.69616 -4.76512 0
M  V30 3251 C 305.475 2.51451 -3.68359 0
M  V30 3252 C 306.176 1.62973 -5.58404 0
M  V30 3253 N 305.152 2.08664 -5.01956 0
M  V30 3254 H 308.954 0.701373 -2.85408 0
M  V30 3255 H 306.468 0.289096 -1.59806 0
M  V30 3256 H 308.465 3.16208 -2.71695 0
M  V30 3257 H 307.125 2.83249 -1.58746 0
M  V30 3258 H 308.136 1.38624 -4.99003 0
M  V30 3259 H 304.813 2.95975 -2.94457 0
M  V30 3260 H 306.203 1.24233 -6.60315 0
M  V30 3261 N 308.923 1.53595 0.353017 0
M  V30 3262 C 310.17 1.70385 1.09431 0
M  V30 3263 C 310.498 0.462113 1.88931 0
M  V30 3264 O 309.753 -0.556074 1.87633 0
M  V30 3265 C 310.052 2.91313 2.07054 0
M  V30 3266 C 309.718 4.27308 1.43939 0
M  V30 3267 C 308.38 4.64287 1.26454 0
M  V30 3268 C 310.732 5.11829 0.983883 0
M  V30 3269 C 308.06 5.83412 0.620226 0
M  V30 3270 C 310.412 6.31611 0.353516 0
M  V30 3271 C 309.076 6.67293 0.166272 0
M  V30 3272 H 308.346 0.623484 0.400436 0
M  V30 3273 H 310.993 1.87799 0.374655 0
M  V30 3274 H 309.298 2.68463 2.85368 0
M  V30 3275 H 310.995 3.01497 2.64387 0
M  V30 3276 H 307.585 3.98198 1.58543 0
M  V30 3277 H 311.769 4.838 1.10685 0
M  V30 3278 H 307.025 6.09639 0.463681 0
M  V30 3279 H 311.199 6.964 -0.00757555 0
M  V30 3280 H 308.826 7.59461 -0.335047 0
M  V30 3281 N 310.401 -0.613514 1.45168 0
M  V30 3282 C 311.626 -1.40437 1.52618 0
M  V30 3283 C 312.051 -1.87438 0.157707 0
M  V30 3284 O 311.409 -1.59791 -0.856537 0
M  V30 3285 C 311.457 -2.58894 2.51011 0
M  V30 3286 O 310.561 -3.59326 2.02382 0
M  V30 3287 H 309.902 -0.419506 0.514695 0
M  V30 3288 H 312.432 -0.747215 1.90467 0
M  V30 3289 H 312.442 -3.06214 2.69624 0
M  V30 3290 H 311.117 -2.24032 3.50403 0
M  V30 3291 H 309.694 -3.18695 1.93618 0
M  V30 3292 N 311.879 -1.3236 -0.855495 0
M  V30 3293 C 312.826 -1.21225 -1.964 0
M  V30 3294 C 313.796 -0.0946204 -1.6583 0
M  V30 3295 O 314.981 -0.27002 -1.8888 0
M  V30 3296 C 312.121 -0.940419 -3.32039 0
M  V30 3297 C 311.234 -2.14276 -3.75113 0
M  V30 3298 C 310.369 -1.80648 -4.9954 0
M  V30 3299 C 309.408 -2.97208 -5.35102 0
M  V30 3300 N 308.545 -2.63678 -6.50706 0
M  V30 3301 H 313.385 -2.16042 -2.05255 0
M  V30 3302 H 310.922 -1.07451 -1.00463 0
M  V30 3303 H 312.88 -0.763311 -4.10158 0
M  V30 3304 H 311.51 -0.0290413 -3.22787 0
M  V30 3305 H 310.562 -2.43017 -2.92655 0
M  V30 3306 H 311.874 -3.01468 -3.97389 0
M  V30 3307 H 311.028 -1.59484 -5.85363 0
M  V30 3308 H 309.767 -0.906678 -4.79198 0
M  V30 3309 H 308.772 -3.19004 -4.47791 0
M  V30 3310 H 309.997 -3.87918 -5.57401 0
M  V30 3311 H 307.943 -1.76238 -6.31883 0
M  V30 3312 H 307.86 -3.444 -6.72997 0
M  V30 3313 H 309.128 -2.45942 -7.39684 0
M  V30 3314 N 313.357 1.07166 -1.15556 0
M  V30 3315 C 314.605 1.79443 -0.929764 0
M  V30 3316 C 314.926 1.87246 0.544414 0
M  V30 3317 O 314.196 1.37473 1.39564 0
M  V30 3318 H 312.776 0.664625 -0.341003 0
M  V30 3319 H 315.438 1.29499 -1.45657 0
M  V30 3320 H 314.534 2.81832 -1.34079 0
M  V30 3321 N 314.835 0.952656 1.25548 0
M  V30 3322 C 315.783 0.462354 2.27958 0
M  V30 3323 C 316.777 -0.46634 1.62855 0
M  V30 3324 O 317.983 -0.343287 1.76696 0
M  V30 3325 H 314.358 0.13101 0.7405 0
M  V30 3326 H 316.329 1.33839 2.66702 0
M  V30 3327 C 315.078 -0.24628 3.46827 0
M  V30 3328 H 314.401 0.459192 3.97154 0
M  V30 3329 H 315.841 -0.553393 4.20373 0
M  V30 3330 C 314.3 -1.4681 3.0323 0
M  V30 3331 O 314.83 -2.56591 3.09069 0
M  V30 3332 N 313.036 -1.32874 2.58443 0
M  V30 3333 H 312.583 -0.435536 2.53891 0
M  V30 3334 H 312.541 -2.14742 2.29637 0
M  V30 3335 N 316.313 -1.40141 0.720998 0
M  V30 3336 C 317.562 -2.0002 0.259804 0
M  V30 3337 C 317.875 -1.57839 -1.15526 0
M  V30 3338 O 319.081 -2.10455 -1.71525 0
M  V30 3339 C 317.537 -3.57516 0.413566 0
M  V30 3340 C 317.145 -4.08667 1.83562 0
M  V30 3341 C 318.889 -4.24498 0.0134387 0
M  V30 3342 C 316.796 -5.58686 1.93968 0
M  V30 3343 H 315.726 -0.748195 0.0933806 0
M  V30 3344 H 318.377 -1.60313 0.892866 0
M  V30 3345 H 316.759 -3.9495 -0.288169 0
M  V30 3346 H 317.933 -3.82598 2.56817 0
M  V30 3347 H 316.248 -3.543 2.1877 0
M  V30 3348 H 318.845 -5.34654 0.0703954 0
M  V30 3349 H 319.188 -4.03375 -1.02927 0
M  V30 3350 H 319.721 -3.92188 0.665815 0
M  V30 3351 H 316.46 -5.8467 2.96379 0
M  V30 3352 H 315.98 -5.86602 1.25131 0
M  V30 3353 H 317.659 -6.23875 1.71431 0
M  V30 3354 N 317.792 -0.46758 -1.50504 0
M  V30 3355 C 318.755 0.317059 -2.26996 0
M  V30 3356 C 319.755 0.923513 -1.31635 0
M  V30 3357 O 320.945 0.793239 -1.55091 0
M  V30 3358 C 318.077 1.45134 -3.08462 0
M  V30 3359 H 319.27 -0.353723 -2.97807 0
M  V30 3360 H 316.823 -0.221545 -1.54722 0
M  V30 3361 H 317.558 2.15728 -2.4214 0
M  V30 3362 H 317.343 1.02232 -3.78538 0
M  V30 3363 H 318.833 2.00493 -3.66323 0
M  V30 3364 N 319.27 1.56325 -0.20005 0
M  V30 3365 C 320.547 1.89484 0.48529 0
M  V30 3366 C 320.927 1.1143 1.79294 0
M  V30 3367 O 320.275 0.216919 2.27468 0
M  V30 3368 C 320.485 3.41923 0.699243 0
M  V30 3369 C 321.833 4.12256 1.01638 0
M  V30 3370 O 322.857 3.47402 0.786792 0
M  V30 3371 O 321.716 5.26887 1.45095 0
M  V30 3372 H 318.81 0.787144 0.253639 0
M  V30 3373 H 321.356 1.67985 -0.240633 0
M  V30 3374 H 320.128 3.90658 -0.224008 0
M  V30 3375 H 319.751 3.69131 1.47744 0
M  V30 3376 N 320.748 -0.0735177 1.57428 0
M  V30 3377 C 322.164 -0.428264 1.53747 0
M  V30 3378 C 322.364 -1.79272 0.91998 0
M  V30 3379 O 321.42 -2.47051 0.521745 0
M  V30 3380 C 322.733 -0.370914 2.98404 0
M  V30 3381 C 324.281 -0.451224 3.0973 0
M  V30 3382 C 324.756 -0.4238 4.56035 0
M  V30 3383 N 326.247 -0.483925 4.60665 0
M  V30 3384 C 326.982 -0.484891 5.71346 0
M  V30 3385 N 326.478 -0.440775 6.91396 0
M  V30 3386 N 328.271 -0.531319 5.59583 0
M  V30 3387 H 320.422 0.819949 1.95935 0
M  V30 3388 H 322.685 0.307493 0.896745 0
M  V30 3389 H 322.391 0.564956 3.47133 0
M  V30 3390 H 322.265 -1.18176 3.5821 0
M  V30 3391 H 324.652 -1.37752 2.60976 0
M  V30 3392 H 324.733 0.388167 2.52838 0
M  V30 3393 H 324.377 0.498638 5.05446 0
M  V30 3394 H 324.307 -1.2807 5.10789 0
M  V30 3395 H 326.798 -0.522338 3.74273 0
M  V30 3396 H 327.111 -0.44539 7.71515 0
M  V30 3397 H 325.456 -0.40749 6.93804 0
M  V30 3398 H 328.647 -0.563464 4.64696 0
M  V30 3399 H 328.82 -0.528603 6.4584 0
M  V30 3400 N 322.226 -1.5378 -0.344866 0
M  V30 3401 C 323.454 -1.74899 -1.10534 0
M  V30 3402 C 323.869 -0.487534 -1.82397 0
M  V30 3403 O 323.226 0.540741 -1.74305 0
M  V30 3404 C 323.277 -2.92822 -2.11984 0
M  V30 3405 O 322.998 -4.14089 -1.43044 0
M  V30 3406 C 324.499 -3.25982 -3.00417 0
M  V30 3407 H 321.719 -0.584426 -0.329678 0
M  V30 3408 H 324.263 -2.006 -0.397474 0
M  V30 3409 H 322.418 -2.69457 -2.78338 0
M  V30 3410 H 322.832 -4.80272 -2.10805 0
M  V30 3411 H 324.306 -4.11848 -3.67539 0
M  V30 3412 H 324.783 -2.42228 -3.66363 0
M  V30 3413 H 325.389 -3.51349 -2.39654 0
M  V30 3414 N 323.704 0.605807 -1.45491 0
M  V30 3415 C 324.981 1.36522 -1.40075 0
M  V30 3416 C 325.361 2.10976 -0.0722744 0
M  V30 3417 O 324.709 2.08007 0.945808 0
M  V30 3418 C 324.919 2.31056 -2.61561 0
M  V30 3419 C 326.267 2.93608 -3.06724 0
M  V30 3420 O 327.291 2.41376 -2.61946 0
M  V30 3421 O 326.15 3.88421 -3.84437 0
M  V30 3422 H 323.244 0.612248 -0.555951 0
M  V30 3423 H 325.79 0.628747 -1.57623 0
M  V30 3424 H 324.562 1.75311 -3.49831 0
M  V30 3425 H 324.185 3.12081 -2.46356 0
M  V30 3426 N 325.182 1.32811 0.848464 0
M  V30 3427 C 326.43 1.23479 1.59991 0
M  V30 3428 C 326.751 -0.201853 1.93952 0
M  V30 3429 O 326.021 -1.12818 1.60153 0
M  V30 3430 H 324.601 0.454034 0.593179 0
M  V30 3431 H 327.263 1.66412 1.01455 0
M  V30 3432 H 326.359 1.82178 2.53412 0
M  V30 3433 N 326.66 -1.06551 1.16123 0
M  V30 3434 C 327.89 -1.8274 0.963838 0
M  V30 3435 C 328.298 -1.82712 -0.491228 0
M  V30 3436 O 327.641 -1.24294 -1.35265 0
M  V30 3437 C 327.703 -3.3065 1.41106 0
M  V30 3438 C 327.367 -3.54384 2.88549 0
M  V30 3439 C 328.364 -3.4765 3.86569 0
M  V30 3440 C 326.049 -3.81789 3.26408 0
M  V30 3441 C 328.043 -3.67982 5.2045 0
M  V30 3442 C 325.73 -4.01772 4.60459 0
M  V30 3443 C 326.728 -3.94866 5.57288 0
M  V30 3444 O 326.416 -4.14306 6.88916 0
M  V30 3445 H 326.148 -0.583136 0.341948 0
M  V30 3446 H 328.702 -1.35351 1.54497 0
M  V30 3447 H 326.932 -3.78887 0.773394 0
M  V30 3448 H 328.621 -3.88324 1.1815 0
M  V30 3449 H 329.387 -3.2647 3.58667 0
M  V30 3450 H 325.266 -3.86276 2.51619 0
M  V30 3451 H 328.81 -3.62507 5.96015 0
M  V30 3452 H 324.707 -4.2244 4.88072 0
M  V30 3453 H 325.475 -4.31609 6.95454 0
M  V30 3454 N 328.138 -0.959301 -1.25041 0
M  V30 3455 C 329.068 -0.501388 -2.28053 0
M  V30 3456 C 330.049 0.454673 -1.63911 0
M  V30 3457 O 331.234 0.352618 -1.90972 0
M  V30 3458 C 328.364 0.217224 -3.4662 0
M  V30 3459 C 327.318 -0.654034 -4.22973 0
M  V30 3460 C 326.644 0.195589 -5.34342 0
M  V30 3461 C 327.944 -1.93447 -4.85155 0
M  V30 3462 H 329.638 -1.36238 -2.66608 0
M  V30 3463 H 327.184 -0.656534 -1.28163 0
M  V30 3464 H 329.137 0.548732 -4.17812 0
M  V30 3465 H 327.861 1.1125 -3.07068 0
M  V30 3466 H 326.52 -0.968693 -3.5357 0
M  V30 3467 H 326.168 1.09076 -4.91031 0
M  V30 3468 H 325.868 -0.384091 -5.86343 0
M  V30 3469 H 327.392 0.521958 -6.08365 0
M  V30 3470 H 328.806 -1.66908 -5.48466 0
M  V30 3471 H 327.203 -2.46018 -5.47353 0
M  V30 3472 H 328.273 -2.63466 -4.07079 0
M  V30 3473 N 329.616 1.39756 -0.72842 0
M  V30 3474 C 330.563 2.30647 -0.0841519 0
M  V30 3475 C 331.533 1.48869 0.7367 0
M  V30 3476 O 332.718 1.77574 0.698015 0
M  V30 3477 C 329.858 3.35165 0.822091 0
M  V30 3478 C 328.971 4.31999 -0.0106663 0
M  V30 3479 C 328.106 5.23585 0.896241 0
M  V30 3480 C 327.145 6.12072 0.0583381 0
M  V30 3481 N 326.282 6.96035 0.920818 0
M  V30 3482 H 331.122 2.85173 -0.864891 0
M  V30 3483 H 328.659 1.40422 -0.438179 0
M  V30 3484 H 330.617 3.94345 1.36189 0
M  V30 3485 H 329.247 2.8211 1.56888 0
M  V30 3486 H 328.299 3.74492 -0.66781 0
M  V30 3487 H 329.611 4.9443 -0.658825 0
M  V30 3488 H 328.765 5.87759 1.50412 0
M  V30 3489 H 327.504 4.61459 1.57819 0
M  V30 3490 H 326.509 5.46916 -0.562389 0
M  V30 3491 H 327.734 6.76261 -0.6203 0
M  V30 3492 H 325.68 6.36485 1.58818 0
M  V30 3493 H 325.597 7.55284 0.32899 0
M  V30 3494 H 326.865 7.64646 1.51447 0
M  V30 3495 N 331.094 0.475555 1.50254 0
M  V30 3496 C 332.51 0.12997 1.5907 0
M  V30 3497 C 332.71 -1.36385 1.48328 0
M  V30 3498 O 331.766 -2.13754 1.34407 0
M  V30 3499 C 333.079 0.684139 2.92814 0
M  V30 3500 C 334.627 0.647965 3.0622 0
M  V30 3501 C 335.102 1.17975 4.42545 0
M  V30 3502 N 336.593 1.13936 4.48969 0
M  V30 3503 C 337.328 1.52129 5.52851 0
M  V30 3504 N 336.824 1.97793 6.63965 0
M  V30 3505 N 338.617 1.43704 5.4342 0
M  V30 3506 H 330.768 1.44706 1.55479 0
M  V30 3507 H 333.031 0.598691 0.735033 0
M  V30 3508 H 332.737 1.73079 3.06164 0
M  V30 3509 H 332.611 0.130204 3.76975 0
M  V30 3510 H 334.998 -0.38979 2.92514 0
M  V30 3511 H 335.079 1.23876 2.23805 0
M  V30 3512 H 334.723 2.21616 4.57 0
M  V30 3513 H 334.653 0.565138 5.23559 0
M  V30 3514 H 337.144 0.804488 3.69238 0
M  V30 3515 H 337.457 2.25072 7.39299 0
M  V30 3516 H 335.802 2.01749 6.65073 0
M  V30 3517 H 338.993 1.07867 4.55502 0
M  V30 3518 H 339.166 1.73794 6.24259 0
M  V30 3519 N 332.573 -1.56217 0.208337 0
M  V30 3520 C 333.813 -1.99849 -0.428927 0
M  V30 3521 C 334.177 -1.09262 -1.57879 0
M  V30 3522 O 335.378 -1.42185 -2.28116 0
M  V30 3523 C 333.649 -3.46777 -0.864879 0
M  V30 3524 S 335.208 -4.12434 -1.49811 0
M  V30 3525 H 332.026 -0.697742 -0.136665 0
M  V30 3526 H 334.628 -1.92953 0.314519 0
M  V30 3527 H 333.332 -4.10396 -0.0181326 0
M  V30 3528 H 332.863 -3.57518 -1.64147 0
M  V30 3529 H 334.878 -4.10532 -2.78707 0
M  V30 3530 N 334.051 0.0651679 -1.57465 0
M  V30 3531 C 335.279 0.775808 -1.91804 0
M  V30 3532 C 335.694 1.70782 -0.804916 0
M  V30 3533 O 335.051 1.81153 0.221311 0
M  V30 3534 C 335.102 1.56381 -3.25925 0
M  V30 3535 O 334.823 0.669248 -4.32958 0
M  V30 3536 C 336.324 2.37485 -3.7432 0
M  V30 3537 H 333.544 0.2202 -0.63384 0
M  V30 3538 H 336.088 0.0334587 -2.04473 0
M  V30 3539 H 334.243 2.25837 -3.14764 0
M  V30 3540 H 334.657 1.21801 -5.10162 0
M  V30 3541 H 336.131 2.88223 -4.70778 0
M  V30 3542 H 336.608 3.17307 -3.03666 0
M  V30 3543 H 337.214 1.73173 -3.88447 0
M  V30 3544 N 335.529 1.53961 0.336706 0
M  V30 3545 C 336.776 1.71536 1.07618 0
M  V30 3546 C 337.104 0.482125 1.8843 0
M  V30 3547 O 336.359 -0.536142 1.88213 0
M  V30 3548 C 336.658 2.93493 2.03953 0
M  V30 3549 C 336.324 4.28811 1.39399 0
M  V30 3550 C 334.986 4.65602 1.21523 0
M  V30 3551 C 337.338 5.12844 0.929541 0
M  V30 3552 C 334.666 5.84037 0.558312 0
M  V30 3553 C 337.018 6.31951 0.286505 0
M  V30 3554 C 335.682 6.67432 0.0954869 0
M  V30 3555 H 334.952 0.627696 0.393801 0
M  V30 3556 H 337.599 1.88186 0.354715 0
M  V30 3557 H 335.904 2.71475 2.82504 0
M  V30 3558 H 337.601 3.04285 2.61174 0
M  V30 3559 H 334.191 3.99858 1.54311 0
M  V30 3560 H 338.375 4.84947 1.05548 0
M  V30 3561 H 333.631 6.10097 0.398995 0
M  V30 3562 H 337.805 6.96352 -0.0814376 0
M  V30 3563 H 335.432 7.59063 -0.415579 0
M  V30 3564 N 337.007 -0.598083 1.45811 0
M  V30 3565 C 337.957 -1.70272 1.51629 0
M  V30 3566 C 338.941 -1.56382 0.378629 0
M  V30 3567 O 340.133 -1.65557 0.626087 0
M  V30 3568 C 337.262 -3.09042 1.49493 0
M  V30 3569 C 336.348 -3.28284 2.68496 0
M  V30 3570 N 336.739 -3.17748 3.93535 0
M  V30 3571 C 335.037 -3.59182 2.64394 0
M  V30 3572 C 335.738 -3.38579 4.7301 0
M  V30 3573 N 334.714 -3.63016 4.04624 0
M  V30 3574 H 338.516 -1.60634 2.46118 0
M  V30 3575 H 336.03 -0.801642 1.41235 0
M  V30 3576 H 338.027 -3.88302 1.51747 0
M  V30 3577 H 336.687 -3.19823 0.560683 0
M  V30 3578 H 337.698 -2.95944 4.25014 0
M  V30 3579 H 334.375 -3.76742 1.79922 0
M  V30 3580 H 335.765 -3.35747 5.82 0
M  V30 3581 N 338.485 -1.33259 -0.841409 0
M  V30 3582 C 339.395 -1.25332 -1.98316 0
M  V30 3583 C 340.411 -0.164364 -1.73222 0
M  V30 3584 O 341.587 -0.387486 -1.97637 0
M  V30 3585 C 338.652 -0.990078 -3.32262 0
M  V30 3586 C 337.713 -2.16879 -3.70489 0
M  V30 3587 C 336.946 -1.91801 -4.98044 0
M  V30 3588 O 337.169 -0.867075 -5.63771 0
M  V30 3589 O 336.103 -2.78267 -5.33714 0
M  V30 3590 H 339.929 -2.21344 -2.07944 0
M  V30 3591 H 337.514 -1.1328 -0.974058 0
M  V30 3592 H 339.396 -0.860321 -4.12524 0
M  V30 3593 H 338.071 -0.0602155 -3.23644 0
M  V30 3594 H 336.978 -2.35407 -2.90748 0
M  V30 3595 H 338.311 -3.0819 -3.8377 0
M  V30 3596 N 339.963 1.05934 -1.16686 0
M  V30 3597 C 340.926 2.11669 -0.879144 0
M  V30 3598 C 341.926 1.60294 0.127445 0
M  V30 3599 O 343.116 1.7389 -0.103865 0
M  V30 3600 C 340.248 3.39438 -0.315425 0
M  V30 3601 H 341.441 2.38626 -1.81653 0
M  V30 3602 H 338.994 1.22058 -0.976299 0
M  V30 3603 H 339.729 3.18132 0.629468 0
M  V30 3604 H 339.514 3.78034 -1.04079 0
M  V30 3605 H 341.004 4.17391 -0.132189 0
M  V30 3606 N 341.441 0.965919 1.2453 0
M  V30 3607 C 342.666 0.643971 1.97149 0
M  V30 3608 C 343.091 -0.779487 1.71189 0
M  V30 3609 O 342.449 -1.5288 0.974553 0
M  V30 3610 C 342.497 0.922557 3.48599 0
M  V30 3611 O 341.601 0.00707672 4.12399 0
M  V30 3612 H 340.942 0.243647 0.617683 0
M  V30 3613 H 343.472 1.29558 1.58353 0
M  V30 3614 H 343.482 0.853373 3.98976 0
M  V30 3615 H 342.157 1.95996 3.66822 0
M  V30 3616 H 340.734 0.12943 3.72675 0
M  V30 3617 N 342.919 -1.39368 0.735821 0
M  V30 3618 C 344.196 -1.94465 0.210395 0
M  V30 3619 C 344.576 -1.67254 -1.28799 0
M  V30 3620 O 343.924 -1.00123 -2.05396 0
M  V30 3621 C 344.134 -3.4472 0.544897 0
M  V30 3622 C 345.482 -4.21708 0.494689 0
M  V30 3623 O 346.506 -3.52922 0.482136 0
M  V30 3624 O 345.365 -5.44299 0.489947 0
M  V30 3625 H 342.459 -0.826096 0.0386666 0
M  V30 3626 H 345.005 -1.48863 0.814735 0
M  V30 3627 H 343.777 -3.57963 1.58045 0
M  V30 3628 H 343.4 -3.97502 -0.08837 0
M  V30 3629 N 344.397 -0.483516 -1.5 0
M  V30 3630 C 345.327 0.293829 -2.31644 0
M  V30 3631 C 346.308 0.978864 -1.39112 0
M  V30 3632 O 347.493 0.973644 -1.68029 0
M  V30 3633 C 344.623 1.36897 -3.19181 0
M  V30 3634 C 343.577 0.804833 -4.20365 0
M  V30 3635 C 342.903 1.9792 -4.96721 0
M  V30 3636 C 344.203 -0.192313 -5.21946 0
M  V30 3637 H 345.897 -0.387616 -2.9688 0
M  V30 3638 H 343.443 -0.187856 -1.42769 0
M  V30 3639 H 345.396 1.92037 -3.751 0
M  V30 3640 H 344.12 2.07936 -2.51853 0
M  V30 3641 H 342.779 0.275319 -3.65565 0
M  V30 3642 H 342.427 2.67686 -4.25856 0
M  V30 3643 H 342.127 1.60789 -5.65173 0
M  V30 3644 H 343.651 2.53526 -5.55479 0
M  V30 3645 H 345.065 0.270333 -5.72662 0
M  V30 3646 H 343.462 -0.478543 -5.98189 0
M  V30 3647 H 344.532 -1.11409 -4.71928 0
M  V30 3648 N 345.875 1.56104 -0.216619 0
M  V30 3649 C 347.105 2.02269 0.420802 0
M  V30 3650 C 347.513 1.09575 1.5424 0
M  V30 3651 O 346.856 0.0967308 1.83445 0
M  V30 3652 C 346.918 3.44784 1.01806 0
M  V30 3653 C 346.582 4.56988 0.0325154 0
M  V30 3654 C 347.579 5.14225 -0.766055 0
M  V30 3655 C 345.264 5.02228 -0.0848092 0
M  V30 3656 C 347.258 6.15169 -1.6687 0
M  V30 3657 C 344.945 6.03011 -0.990994 0
M  V30 3658 C 345.943 6.59357 -1.78149 0
M  V30 3659 O 345.631 7.58179 -2.67245 0
M  V30 3660 H 345.363 0.667353 0.107776 0
M  V30 3661 H 347.917 2.02747 -0.329034 0
M  V30 3662 H 346.147 3.41359 1.81689 0
M  V30 3663 H 347.836 3.74626 1.56237 0
M  V30 3664 H 348.602 4.80126 -0.685836 0
M  V30 3665 H 344.481 4.58054 0.520349 0
M  V30 3666 H 348.025 6.59076 -2.28615 0
M  V30 3667 H 343.922 6.36532 -1.07225 0
M  V30 3668 H 344.69 7.75682 -2.61265 0
M  V30 3669 N 347.353 -0.0568162 1.57498 0
M  V30 3670 C 348.593 -0.758273 1.89815 0
M  V30 3671 C 348.957 -1.73978 0.812132 0
M  V30 3672 O 350.158 -2.48744 1.01881 0
M  V30 3673 C 348.429 -1.43465 3.27342 0
M  V30 3674 S 349.988 -2.1691 3.81439 0
M  V30 3675 H 346.806 -0.251836 0.664906 0
M  V30 3676 H 349.408 -0.0137997 1.95495 0
M  V30 3677 H 348.112 -0.706693 4.0427 0
M  V30 3678 H 347.643 -2.21825 3.24896 0
M  V30 3679 H 349.658 -3.43658 3.5793 0
M  V30 3680 N 348.832 -1.54138 -0.328536 0
M  V30 3681 C 350.243 -1.63395 -0.903272 0
M  V30 3682 C 350.594 -0.524828 -1.8905 0
M  V30 3683 O 349.719 0.343068 -2.13663 0
M  V30 3684 C 350.314 -2.9618 -1.64507 0
M  V30 3685 C 348.873 -3.0765 -2.1686 0
M  V30 3686 C 348.02 -2.58933 -0.992416 0
M  V30 3687 H 350.971 -1.58344 -0.106253 0
M  V30 3688 H 350.992 -2.86061 -2.50897 0
M  V30 3689 H 350.504 -3.76884 -0.926302 0
M  V30 3690 H 348.605 -2.31611 -2.91868 0
M  V30 3691 H 348.718 -4.1337 -2.42202 0
M  V30 3692 H 347.082 -2.14706 -1.37016 0
M  V30 3693 H 347.865 -3.42089 -0.288041 0
M  V30 3694 N 350.31 0.590341 -1.46126 0
M  V30 3695 C 351.559 1.34499 -1.50309 0
M  V30 3696 C 351.872 1.94977 -0.156021 0
M  V30 3697 O 353.078 2.71395 -0.0756037 0
M  V30 3698 C 351.534 2.43723 -2.64815 0
M  V30 3699 C 351.142 1.89582 -4.0591 0
M  V30 3700 C 352.886 3.20579 -2.78262 0
M  V30 3701 C 350.793 2.9639 -5.11769 0
M  V30 3702 H 349.723 0.505593 -0.559368 0
M  V30 3703 H 352.374 0.630848 -1.72315 0
M  V30 3704 H 350.756 3.17902 -2.36124 0
M  V30 3705 H 351.93 1.21997 -4.44357 0
M  V30 3706 H 350.245 1.25418 -3.97063 0
M  V30 3707 H 352.842 4.00276 -3.54519 0
M  V30 3708 H 353.185 3.72684 -1.85505 0
M  V30 3709 H 353.718 2.53505 -3.06562 0
M  V30 3710 H 350.457 2.49181 -6.06291 0
M  V30 3711 H 349.977 3.62487 -4.77873 0
M  V30 3712 H 351.656 3.60474 -5.37278 0
M  V30 3713 N 351.788 1.33704 0.83433 0
M  V30 3714 C 353.035 1.25417 1.58987 0
M  V30 3715 C 353.363 -0.178869 1.93676 0
M  V30 3716 O 352.618 -1.13723 1.59265 0
M  V30 3717 C 352.917 2.07926 2.90692 0
M  V30 3718 C 352.583 3.57066 2.75345 0
M  V30 3719 C 351.245 3.97724 2.70867 0
M  V30 3720 C 353.597 4.51817 2.59828 0
M  V30 3721 C 350.925 5.31344 2.48778 0
M  V30 3722 C 353.277 5.85604 2.39272 0
M  V30 3723 C 351.941 6.25439 2.33199 0
M  V30 3724 H 351.211 0.458934 0.581774 0
M  V30 3725 H 353.858 1.65335 0.966261 0
M  V30 3726 H 352.163 1.608 3.57282 0
M  V30 3727 H 353.86 1.98868 3.48213 0
M  V30 3728 H 350.45 3.24785 2.79665 0
M  V30 3729 H 354.634 4.21311 2.62319 0
M  V30 3730 H 349.89 5.61241 2.42526 0
M  V30 3731 H 354.064 6.58623 2.2625 0
M  V30 3732 H 351.691 7.28914 2.15843 0
M  V30 3733 N 353.266 -1.05314 1.17247 0
M  V30 3734 C 354.213 -2.13031 0.888058 0
M  V30 3735 C 355.183 -1.65253 -0.167537 0
M  V30 3736 O 356.368 -1.90775 -0.0305974 0
M  V30 3737 C 353.508 -3.42702 0.406147 0
M  V30 3738 C 352.621 -4.04161 1.52572 0
M  V30 3739 C 351.756 -5.21744 0.997808 0
M  V30 3740 C 350.795 -5.75207 2.09291 0
M  V30 3741 N 349.932 -6.84094 1.57986 0
M  V30 3742 H 354.772 -2.36698 1.81048 0
M  V30 3743 H 352.309 -1.16121 0.903013 0
M  V30 3744 H 354.267 -4.17059 0.108305 0
M  V30 3745 H 352.897 -3.19222 -0.479313 0
M  V30 3746 H 351.949 -3.27253 1.93931 0
M  V30 3747 H 353.261 -4.39881 2.35172 0
M  V30 3748 H 352.415 -6.03168 0.653739 0
M  V30 3749 H 351.154 -4.87495 0.141232 0
M  V30 3750 H 350.159 -4.92414 2.44557 0
M  V30 3751 H 351.384 -6.11505 2.95362 0
M  V30 3752 H 349.33 -6.51745 0.74598 0
M  V30 3753 H 349.247 -7.18811 2.34195 0
M  V30 3754 H 350.515 -7.69172 1.26468 0
M  V30 3755 N 354.744 -0.972509 -1.24016 0
M  V30 3756 C 355.674 -0.525548 -2.27509 0
M  V30 3757 C 356.655 0.437262 -1.64384 0
M  V30 3758 O 357.84 0.332343 -1.91335 0
M  V30 3759 C 354.97 0.180448 -3.46831 0
M  V30 3760 C 353.924 -0.698859 -4.22256 0
M  V30 3761 C 353.25 0.138903 -5.3452 0
M  V30 3762 C 354.55 -1.98582 -4.83076 0
M  V30 3763 H 356.244 -1.39058 -2.65148 0
M  V30 3764 H 353.79 -0.67009 -1.27459 0
M  V30 3765 H 355.743 0.504387 -4.18371 0
M  V30 3766 H 354.467 1.07987 -3.08231 0
M  V30 3767 H 353.126 -1.00614 -3.52523 0
M  V30 3768 H 352.774 1.03862 -4.9216 0
M  V30 3769 H 352.474 -0.446259 -5.85903 0
M  V30 3770 H 353.998 0.457404 -6.08884 0
M  V30 3771 H 355.412 -1.72715 -5.46665 0
M  V30 3772 H 353.809 -2.5181 -5.44713 0
M  V30 3773 H 354.879 -2.67769 -4.04262 0
M  V30 3774 N 356.222 1.38976 -0.743202 0
M  V30 3775 C 357.47 1.99948 -0.29417 0
M  V30 3776 C 357.791 1.59279 1.12495 0
M  V30 3777 O 357.061 0.844808 1.76748 0
M  V30 3778 H 355.641 0.739473 -0.105774 0
M  V30 3779 H 358.303 1.699 -0.954986 0
M  V30 3780 H 357.399 3.10142 -0.349056 0
M  V30 3781 N 357.7 0.491464 1.49741 0
M  V30 3782 C 358.947 -0.0564256 2.02421 0
M  V30 3783 C 359.275 -1.37872 1.37192 0
M  V30 3784 O 358.53 -1.89375 0.493508 0
M  V30 3785 C 358.829 -0.267329 3.56399 0
M  V30 3786 C 358.495 0.975775 4.40215 0
M  V30 3787 C 357.157 1.31655 4.62839 0
M  V30 3788 C 359.509 1.80251 4.89039 0
M  V30 3789 C 356.837 2.48375 5.31532 0
M  V30 3790 C 359.189 2.96116 5.59015 0
M  V30 3791 C 357.853 3.30585 5.79888 0
M  V30 3792 H 357.123 -0.0206476 0.740712 0
M  V30 3793 H 359.77 0.649686 1.80143 0
M  V30 3794 H 358.075 -1.05588 3.77304 0
M  V30 3795 H 359.772 -0.705549 3.94744 0
M  V30 3796 H 356.362 0.700315 4.2284 0
M  V30 3797 H 360.546 1.55239 4.71396 0
M  V30 3798 H 355.802 2.7533 5.45897 0
M  V30 3799 H 359.976 3.60509 5.95824 0
M  V30 3800 H 357.603 4.21132 6.32892 0
M  V30 3801 N 359.178 -1.55987 0.224894 0
M  V30 3802 C 360.427 -1.97566 -0.406273 0
M  V30 3803 C 360.74 -1.11569 -1.6066 0
M  V30 3804 O 361.946 -1.43062 -2.3075 0
M  V30 3805 C 360.402 -3.51474 -0.774207 0
M  V30 3806 C 360.01 -4.46179 0.403496 0
M  V30 3807 C 361.754 -4.01758 -1.37079 0
M  V30 3808 C 359.661 -5.91399 0.0129412 0
M  V30 3809 H 358.591 -0.737777 -0.155565 0
M  V30 3810 H 361.242 -1.80659 0.321635 0
M  V30 3811 H 359.624 -3.63994 -1.55963 0
M  V30 3812 H 360.798 -4.45409 1.18101 0
M  V30 3813 H 359.113 -4.06255 0.913536 0
M  V30 3814 H 361.71 -5.07756 -1.67596 0
M  V30 3815 H 362.053 -3.47805 -2.28773 0
M  V30 3816 H 362.586 -3.92475 -0.648733 0
M  V30 3817 H 359.325 -6.49341 0.896451 0
M  V30 3818 H 358.845 -5.95356 -0.728821 0
M  V30 3819 H 360.524 -6.45683 -0.412582 0
M  V30 3820 N 360.656 0.0484629 -1.57525 0
M  V30 3821 C 361.902 0.744226 -1.88651 0
M  V30 3822 C 362.235 1.76029 -0.820212 0
M  V30 3823 O 361.51 1.93782 0.166985 0
M  V30 3824 C 361.793 1.43128 -3.30434 0
M  V30 3825 C 361.646 0.43005 -4.47739 0
M  V30 3826 C 362.965 2.37031 -3.70816 0
M  V30 3827 H 360.084 0.269089 -0.68612 0
M  V30 3828 H 362.726 0.00713532 -1.89999 0
M  V30 3829 H 360.876 2.05956 -3.29415 0
M  V30 3830 H 362.548 -0.194816 -4.60888 0
M  V30 3831 H 360.791 -0.252522 -4.33064 0
M  V30 3832 H 361.462 0.948874 -5.43783 0
M  V30 3833 H 363.938 1.84263 -3.73077 0
M  V30 3834 H 362.814 2.82094 -4.70865 0
M  V30 3835 H 363.075 3.22864 -3.02012 0
M  V30 3836 N 362.134 1.5431 0.320358 0
M  V30 3837 C 363.044 1.86946 1.41734 0
M  V30 3838 C 364.06 0.761689 1.56443 0
M  V30 3839 O 365.236 1.05629 1.71477 0
M  V30 3840 C 362.301 2.09293 2.76401 0
M  V30 3841 C 361.362 3.33082 2.70841 0
M  V30 3842 C 360.595 3.54353 3.99086 0
M  V30 3843 O 360.818 2.79002 4.97508 0
M  V30 3844 O 359.752 4.47838 4.0215 0
M  V30 3845 H 363.578 2.80232 1.17062 0
M  V30 3846 H 361.163 1.40255 0.514673 0
M  V30 3847 H 363.045 2.25303 3.56113 0
M  V30 3848 H 361.72 1.19194 3.00956 0
M  V30 3849 H 360.627 3.22454 1.89668 0
M  V30 3850 H 361.96 4.23249 2.5124 0
M  V30 3851 N 363.613 -0.582584 1.46437 0
M  V30 3852 C 364.56 -1.69164 1.5701 0
M  V30 3853 C 365.53 -1.60847 0.414403 0
M  V30 3854 O 366.715 -1.80058 0.631171 0
M  V30 3855 C 363.855 -3.075 1.56646 0
M  V30 3856 C 362.968 -3.2644 2.82951 0
M  V30 3857 C 362.103 -4.55026 2.7409 0
M  V30 3858 C 361.142 -4.6731 3.95333 0
M  V30 3859 N 360.279 -5.87221 3.84858 0
M  V30 3860 H 365.119 -1.59464 2.51744 0
M  V30 3861 H 362.656 -0.777186 1.24893 0
M  V30 3862 H 364.614 -3.8757 1.5442 0
M  V30 3863 H 363.244 -3.16096 0.654439 0
M  V30 3864 H 362.296 -2.39974 2.95155 0
M  V30 3865 H 363.608 -3.31385 3.72808 0
M  V30 3866 H 362.762 -5.43324 2.6997 0
M  V30 3867 H 361.501 -4.52519 1.81873 0
M  V30 3868 H 360.506 -3.77429 3.99784 0
M  V30 3869 H 361.731 -4.71595 4.88646 0
M  V30 3870 H 359.677 -5.85712 2.95427 0
M  V30 3871 H 359.594 -5.93435 4.6837 0
M  V30 3872 H 360.862 -6.7795 3.84713 0
M  V30 3873 N 365.091 -1.34144 -0.827227 0
M  V30 3874 C 366.054 -1.25264 -1.91942 0
M  V30 3875 C 367.054 -0.168866 -1.59911 0
M  V30 3876 O 368.244 -0.421198 -1.69031 0
M  V30 3877 C 365.376 -0.932952 -3.27885 0
M  V30 3878 H 366.569 -2.22357 -2.0124 0
M  V30 3879 H 364.122 -1.1837 -1.0207 0
M  V30 3880 H 364.857 0.0349917 -3.24281 0
M  V30 3881 H 364.642 -1.71682 -3.52516 0
M  V30 3882 H 366.132 -0.895874 -4.07877 0
M  V30 3883 N 366.569 1.04691 -1.17803 0
M  V30 3884 C 367.817 1.7743 -0.967617 0
M  V30 3885 C 368.138 1.88359 0.504574 0
M  V30 3886 O 367.408 1.40402 1.36617 0
M  V30 3887 H 365.988 0.657242 -0.355024 0
M  V30 3888 H 368.65 1.2638 -1.48371 0
M  V30 3889 H 367.746 2.78924 -1.40027 0
M  V30 3890 N 368.047 0.979072 1.23499 0
M  V30 3891 C 368.957 0.526431 2.28617 0
M  V30 3892 C 369.973 -0.418126 1.68901 0
M  V30 3893 O 371.149 -0.288372 1.99325 0
M  V30 3894 C 368.214 -0.165235 3.46306 0
M  V30 3895 C 367.275 0.82056 4.21385 0
M  V30 3896 C 366.508 0.161807 5.33455 0
M  V30 3897 O 366.731 -1.04742 5.60701 0
M  V30 3898 O 365.665 0.859708 5.95729 0
M  V30 3899 H 369.491 1.4006 2.69475 0
M  V30 3900 H 367.076 0.746643 1.29405 0
M  V30 3901 H 368.958 -0.553287 4.17752 0
M  V30 3902 H 367.633 -1.01419 3.07402 0
M  V30 3903 H 366.54 1.25929 3.52268 0
M  V30 3904 H 367.873 1.63828 4.64135 0
M  V30 3905 N 369.525 -1.3858 0.750561 0
M  V30 3906 C 370.75 -2.04997 0.314812 0
M  V30 3907 C 371.175 -1.56235 -1.04749 0
M  V30 3908 O 370.533 -0.712981 -1.66692 0
M  V30 3909 C 370.581 -3.58961 0.343415 0
M  V30 3910 O 369.685 -4.07025 -0.663628 0
M  V30 3911 H 369.026 -0.649081 0.139962 0
M  V30 3912 H 371.556 -1.77313 1.02084 0
M  V30 3913 H 371.566 -4.07542 0.193233 0
M  V30 3914 H 370.241 -3.93811 1.33738 0
M  V30 3915 H 368.818 -3.6982 -0.478307 0
M  V30 3916 N 371.003 -0.499398 -1.49478 0
M  V30 3917 C 372.25 0.0456899 -2.02448 0
M  V30 3918 C 372.578 1.37142 -1.37921 0
M  V30 3919 O 371.833 1.89111 -0.503544 0
M  V30 3920 C 372.132 0.248424 -3.56536 0
M  V30 3921 C 371.798 -0.999107 -4.39692 0
M  V30 3922 C 370.46 -1.34108 -4.62135 0
M  V30 3923 C 372.812 -1.82842 -4.88076 0
M  V30 3924 C 370.14 -2.51191 -5.30208 0
M  V30 3925 C 372.492 -2.99076 -5.57437 0
M  V30 3926 C 371.156 -3.33655 -5.78127 0
M  V30 3927 H 370.426 0.0167191 -0.740811 0
M  V30 3928 H 373.073 -0.65923 -1.79795 0
M  V30 3929 H 371.378 1.03586 -3.77859 0
M  V30 3930 H 373.075 0.684605 -3.95113 0
M  V30 3931 H 369.665 -0.722729 -4.22463 0
M  V30 3932 H 373.849 -1.57737 -4.70566 0
M  V30 3933 H 369.105 -2.78221 -5.44429 0
M  V30 3934 H 373.279 -3.63664 -5.93904 0
M  V30 3935 H 370.906 -4.24483 -6.30649 0
M  V30 3936 N 372.481 1.55866 -0.233164 0
M  V30 3937 C 373.709 2.02998 0.399905 0
M  V30 3938 C 374.124 1.11274 1.52524 0
M  V30 3939 O 373.481 0.124528 1.82075 0
M  V30 3940 C 373.532 3.4958 0.920639 0
M  V30 3941 O 373.253 4.37808 -0.159834 0
M  V30 3942 C 374.754 4.12411 1.62578 0
M  V30 3943 H 371.974 0.664006 0.0966281 0
M  V30 3944 H 374.518 2.0143 -0.353013 0
M  V30 3945 H 372.673 3.51727 1.62379 0
M  V30 3946 H 373.087 5.23981 0.23337 0
M  V30 3947 H 374.561 5.16711 1.94201 0
M  V30 3948 H 375.038 3.5809 2.54299 0
M  V30 3949 H 375.644 4.14148 0.967553 0
M  V30 3950 N 373.959 -0.0401083 1.57549 0
M  V30 3951 C 374.869 -1.06133 2.0922 0
M  V30 3952 C 375.885 -1.40356 1.0284 0
M  V30 3953 O 377.061 -1.49897 1.34509 0
M  V30 3954 C 374.126 -2.34658 2.55218 0
M  V30 3955 C 373.187 -2.07117 3.76033 0
M  V30 3956 C 372.42 -3.29514 4.19829 0
M  V30 3957 O 372.643 -4.39794 3.63232 0
M  V30 3958 O 371.577 -3.15863 5.12362 0
M  V30 3959 H 375.403 -0.652244 2.96613 0
M  V30 3960 H 372.988 -0.256368 1.47184 0
M  V30 3961 H 374.87 -3.10239 2.85184 0
M  V30 3962 H 373.545 -2.74883 1.70941 0
M  V30 3963 H 372.452 -1.29139 3.51104 0
M  V30 3964 H 373.785 -1.71754 4.61261 0
M  V30 3965 N 375.437 -1.54477 -0.31217 0
M  V30 3966 C 376.367 -1.87652 -1.38957 0
M  V30 3967 C 377.348 -0.734358 -1.53431 0
M  V30 3968 O 378.533 -0.98911 -1.67123 0
M  V30 3969 C 375.663 -2.11396 -2.75552 0
M  V30 3970 C 374.617 -3.27243 -2.75855 0
M  V30 3971 C 373.943 -3.36382 -4.15633 0
M  V30 3972 C 375.243 -4.64622 -2.38587 0
M  V30 3973 H 376.937 -2.77887 -1.11442 0
M  V30 3974 H 374.483 -1.33707 -0.534655 0
M  V30 3975 H 376.436 -2.33189 -3.51 0
M  V30 3976 H 375.16 -1.17921 -3.04569 0
M  V30 3977 H 373.819 -3.05356 -2.02863 0
M  V30 3978 H 373.467 -2.40445 -4.41809 0
M  V30 3979 H 373.167 -4.14249 -4.1674 0
M  V30 3980 H 374.691 -3.60422 -4.92877 0
M  V30 3981 H 376.105 -4.86219 -3.03749 0
M  V30 3982 H 374.502 -5.45121 -2.50925 0
M  V30 3983 H 375.572 -4.66097 -1.33723 0
M  V30 3984 N 376.915 0.57481 -1.46744 0
M  V30 3985 C 377.878 1.66533 -1.57478 0
M  V30 3986 C 378.878 1.54338 -0.451263 0
M  V30 3987 O 380.068 1.58814 -0.715813 0
M  V30 3988 C 377.2 3.05999 -1.50259 0
M  V30 3989 H 378.393 1.58372 -2.54673 0
M  V30 3990 H 375.946 0.793301 -1.34672 0
M  V30 3991 H 376.681 3.19709 -0.543725 0
M  V30 3992 H 376.466 3.16259 -2.31781 0
M  V30 3993 H 377.956 3.8537 -1.60872 0
M  V30 3994 N 378.394 1.34581 0.820102 0
M  V30 3995 C 379.344 1.22943 1.92013 0
M  V30 3996 C 380.328 0.127802 1.60392 0
M  V30 3997 O 381.52 0.357737 1.73347 0
M  V30 3998 C 378.649 0.989938 3.28717 0
M  V30 3999 C 377.735 2.13486 3.66449 0
M  V30 4000 N 378.126 3.38625 3.75722 0
M  V30 4001 C 376.424 2.04573 3.96315 0
M  V30 4002 C 377.125 4.13832 4.08801 0
M  V30 4003 N 376.101 3.42451 4.22171 0
M  V30 4004 H 379.903 2.17771 1.97365 0
M  V30 4005 H 377.417 1.2686 1.01392 0
M  V30 4006 H 379.414 0.887462 4.07345 0
M  V30 4007 H 378.074 0.0503691 3.24661 0
M  V30 4008 H 379.085 3.73143 3.59144 0
M  V30 4009 H 375.762 1.1839 4.00362 0
M  V30 4010 H 377.152 5.21909 4.23156 0
M  V30 4011 N 379.872 -1.04064 1.18357 0
M  V30 4012 C 380.819 -2.12077 0.910603 0
M  V30 4013 C 381.789 -1.65421 -0.15 0
M  V30 4014 O 382.974 -1.90797 -0.0103614 0
M  V30 4015 C 380.114 -3.42252 0.442472 0
M  V30 4016 C 379.227 -4.0252 1.5685 0
M  V30 4017 C 378.362 -5.20657 1.05309 0
M  V30 4018 C 377.401 -5.72955 2.1538 0
M  V30 4019 N 376.538 -6.8238 1.65233 0
M  V30 4020 H 381.378 -2.34764 1.83548 0
M  V30 4021 H 378.915 -1.15157 0.915279 0
M  V30 4022 H 380.873 -4.16921 0.152534 0
M  V30 4023 H 379.503 -3.19712 -0.445428 0
M  V30 4024 H 378.555 -3.25178 1.97391 0
M  V30 4025 H 379.867 -4.37362 2.39824 0
M  V30 4026 H 379.021 -6.0244 0.717677 0
M  V30 4027 H 377.76 -4.87318 0.19293 0
M  V30 4028 H 376.765 -4.89793 2.49766 0
M  V30 4029 H 377.99 -6.08337 3.01832 0
M  V30 4030 H 375.936 -6.50917 0.815064 0
M  V30 4031 H 375.853 -7.16286 2.41805 0
M  V30 4032 H 377.121 -7.67788 1.34619 0
M  V30 4033 N 381.35 -0.985608 -1.22978 0
M  V30 4034 C 382.598 -0.656087 -1.91154 0
M  V30 4035 C 382.919 0.813561 -1.77218 0
M  V30 4036 O 382.189 1.58244 -1.1548 0
M  V30 4037 H 380.769 -0.239674 -0.707506 0
M  V30 4038 H 383.431 -1.25054 -1.49491 0
M  V30 4039 H 382.527 -0.912253 -2.9847 0
M  V30 4040 N 382.828 1.3818 -0.7579 0
M  V30 4041 C 384.076 1.99624 -0.315361 0
M  V30 4042 C 384.397 1.60464 1.10799 0
M  V30 4043 O 383.667 0.863507 1.75842 0
M  V30 4044 H 382.247 0.73831 -0.113611 0
M  V30 4045 H 384.909 1.68878 -0.972952 0
M  V30 4046 H 384.005 3.09754 -0.381931 0
M  V30 4047 N 384.306 0.507319 1.49211 0
M  V30 4048 C 385.552 -0.0350047 2.0277 0
M  V30 4049 C 385.885 -1.3606 1.38569 0
M  V30 4050 O 385.16 -1.87321 0.523542 0
M  V30 4051 C 385.443 -0.180916 3.59645 0
M  V30 4052 C 385.296 1.16825 4.34364 0
M  V30 4053 C 386.615 -0.918558 4.30407 0
M  V30 4054 H 383.734 -0.0112473 0.736914 0
M  V30 4055 H 386.376 0.659956 1.7817 0
M  V30 4056 H 384.526 -0.772826 3.80736 0
M  V30 4057 H 386.198 1.79952 4.24753 0
M  V30 4058 H 384.441 1.75594 3.96673 0
M  V30 4059 H 385.112 1.01939 5.42506 0
M  V30 4060 H 387.588 -0.41649 4.1401 0
M  V30 4061 H 386.464 -0.989505 5.39907 0
M  V30 4062 H 386.725 -1.96373 3.96093 0
M  V30 4063 N 385.784 -1.5574 0.241426 0
M  V30 4064 C 387.033 -1.97986 -0.385295 0
M  V30 4065 C 387.346 -1.13267 -1.59468 0
M  V30 4066 O 388.552 -1.45501 -2.2922 0
M  V30 4067 C 387.008 -3.52275 -0.736884 0
M  V30 4068 C 386.616 -4.45726 0.450796 0
M  V30 4069 C 388.36 -4.03189 -1.3281 0
M  V30 4070 C 386.267 -5.91352 0.0756662 0
M  V30 4071 H 385.197 -0.739386 -0.147731 0
M  V30 4072 H 387.848 -1.80308 0.340779 0
M  V30 4073 H 386.23 -3.65628 -1.52094 0
M  V30 4074 H 387.404 -4.44131 1.22819 0
M  V30 4075 H 385.719 -4.05264 0.956573 0
M  V30 4076 H 388.316 -5.09505 -1.62201 0
M  V30 4077 H 388.659 -3.50212 -2.25071 0
M  V30 4078 H 389.192 -3.93141 -0.607069 0
M  V30 4079 H 385.931 -6.48354 0.965272 0
M  V30 4080 H 385.451 -5.96095 -0.665635 0
M  V30 4081 H 387.13 -6.46084 -0.344075 0
M  V30 4082 N 387.262 0.0317525 -1.57568 0
M  V30 4083 C 388.51 0.721676 -1.88776 0
M  V30 4084 C 388.831 1.76039 -0.838772 0
M  V30 4085 O 388.101 1.95482 0.127935 0
M  V30 4086 H 386.681 0.269534 -0.696678 0
M  V30 4087 H 389.343 -0.00165879 -1.949 0
M  V30 4088 H 388.439 1.21293 -2.87566 0
M  V30 4089 N 388.74 1.54641 0.303973 0
M  V30 4090 C 389.986 1.74038 1.04109 0
M  V30 4091 C 390.319 0.523051 1.87024 0
M  V30 4092 O 389.594 -0.479874 1.88487 0
M  V30 4093 C 389.877 3.02761 1.94955 0
M  V30 4094 C 389.73 4.34787 1.1524 0
M  V30 4095 C 391.049 3.27336 2.94175 0
M  V30 4096 H 388.168 0.63323 0.377079 0
M  V30 4097 H 390.81 1.87354 0.316001 0
M  V30 4098 H 388.96 2.9154 2.56782 0
M  V30 4099 H 390.632 4.57922 0.557236 0
M  V30 4100 H 388.875 4.31407 0.455053 0
M  V30 4101 H 389.546 5.21116 1.8205 0
M  V30 4102 H 392.022 3.38148 2.42477 0
M  V30 4103 H 390.898 4.18726 3.54908 0
M  V30 4104 H 391.159 2.45491 3.67677 0
M  V30 4105 N 390.218 -0.567019 1.47046 0
M  V30 4106 C 391.467 -1.32091 1.5243 0
M  V30 4107 C 391.78 -1.94704 0.187021 0
M  V30 4108 O 392.986 -2.7124 0.118771 0
M  V30 4109 C 391.442 -2.39479 2.68659 0
M  V30 4110 C 391.05 -1.831 4.08874 0
M  V30 4111 C 392.794 -3.16111 2.83327 0
M  V30 4112 C 390.701 -2.8821 5.16419 0
M  V30 4113 H 389.631 -0.496629 0.56734 0
M  V30 4114 H 392.282 -0.603354 1.73297 0
M  V30 4115 H 390.664 -3.14105 2.41152 0
M  V30 4116 H 391.838 -1.14913 4.46242 0
M  V30 4117 H 390.153 -1.19085 3.99008 0
M  V30 4118 H 392.75 -3.94585 3.60842 0
M  V30 4119 H 393.093 -3.69686 1.91411 0
M  V30 4120 H 393.626 -2.48595 3.10556 0
M  V30 4121 H 390.365 -2.39504 6.10179 0
M  V30 4122 H 389.885 -3.54839 4.8358 0
M  V30 4123 H 391.564 -3.51881 5.42945 0
M  V30 4124 N 391.696 -1.35014 -0.812953 0
M  V30 4125 C 392.945 -1.27269 -1.56479 0
M  V30 4126 C 393.258 0.152771 -1.95002 0
M  V30 4127 O 394.464 0.352451 -2.69203 0
M  V30 4128 C 392.92 -2.23159 -2.82362 0
M  V30 4129 C 392.528 -3.71016 -2.511 0
M  V30 4130 C 394.272 -2.24342 -3.60376 0
M  V30 4131 C 392.179 -4.58746 -3.73237 0
M  V30 4132 H 391.109 -0.472829 -0.587324 0
M  V30 4133 H 393.76 -1.6024 -0.894171 0
M  V30 4134 H 392.142 -1.83151 -3.51101 0
M  V30 4135 H 393.316 -4.1962 -1.90409 0
M  V30 4136 H 391.631 -3.72378 -1.86343 0
M  V30 4137 H 394.228 -2.87107 -4.51081 0
M  V30 4138 H 394.571 -1.24542 -3.97234 0
M  V30 4139 H 395.104 -2.62846 -2.98591 0
M  V30 4140 H 391.843 -5.59521 -3.41492 0
M  V30 4141 H 391.363 -4.14871 -4.33176 0
M  V30 4142 H 393.042 -4.73852 -4.40537 0
M  V30 4143 N 393.175 1.03435 -1.18907 0
M  V30 4144 C 394.123 2.13703 -0.918353 0
M  V30 4145 C 395.117 1.68947 0.123767 0
M  V30 4146 O 396.323 1.79983 -0.0249701 0
M  V30 4147 H 392.698 0.698112 -0.279542 0
M  V30 4148 H 394.669 2.33731 -1.85506 0
M  V30 4149 C 393.418 3.44542 -0.467532 0
M  V30 4150 H 392.741 3.79394 -1.26095 0
M  V30 4151 H 394.181 4.22812 -0.317164 0
M  V30 4152 C 392.64 3.26829 0.817588 0
M  V30 4153 O 393.17 3.54975 1.88031 0
M  V30 4154 N 391.376 2.80139 0.772677 0
M  V30 4155 H 390.923 2.57434 -0.0923883 0
M  V30 4156 H 390.881 2.68668 1.63294 0
M  V30 4157 N 394.653 0.992116 1.22453 0
M  V30 4158 C 395.899 0.678177 1.91761 0
M  V30 4159 C 396.254 -0.781141 1.75829 0
M  V30 4160 O 395.547 -1.55747 1.11595 0
M  V30 4161 C 395.741 1.01832 3.42586 0
M  V30 4162 C 395.57 2.50916 3.73191 0
M  V30 4163 C 394.34 3.17308 3.93248 0
M  V30 4164 C 396.538 3.49032 3.77732 0
M  V30 4165 N 394.52 4.55876 4.11157 0
M  V30 4166 C 395.891 4.73055 4.00773 0
M  V30 4167 C 397.946 3.43349 3.60577 0
M  V30 4168 C 396.649 5.92089 4.0844 0
M  V30 4169 C 398.675 4.61759 3.69503 0
M  V30 4170 C 398.037 5.84582 3.92993 0
M  V30 4171 H 394.136 0.299425 0.722405 0
M  V30 4172 H 396.72 1.27197 1.47408 0
M  V30 4173 H 394.891 0.453118 3.85748 0
M  V30 4174 H 396.623 0.660454 3.99274 0
M  V30 4175 H 393.378 2.67778 3.9063 0
M  V30 4176 H 393.802 5.27748 4.24042 0
M  V30 4177 H 398.444 2.49408 3.41402 0
M  V30 4178 H 396.162 6.86435 4.26418 0
M  V30 4179 H 399.748 4.58951 3.57569 0
M  V30 4180 H 398.628 6.74676 3.99728 0
M  V30 4181 N 396.131 -1.37776 0.765217 0
M  V30 4182 C 397.408 -1.93975 0.251596 0
M  V30 4183 C 397.788 -1.69949 -1.25222 0
M  V30 4184 O 397.136 -1.04457 -2.03226 0
M  V30 4185 C 397.346 -3.43487 0.617895 0
M  V30 4186 C 398.694 -4.20564 0.584029 0
M  V30 4187 O 399.718 -3.5182 0.556888 0
M  V30 4188 O 398.577 -5.43138 0.605291 0
M  V30 4189 H 395.671 -0.82509 0.0561806 0
M  V30 4190 H 398.217 -1.47101 0.846128 0
M  V30 4191 H 396.989 -3.5453 1.65602 0
M  V30 4192 H 396.612 -3.976 -0.00403411 0
M  V30 4193 N 397.609 -0.515225 -1.4894 0
M  V30 4194 C 398.849 0.0223983 -2.04388 0
M  V30 4195 C 399.213 1.32961 -1.38511 0
M  V30 4196 O 400.414 1.95236 -1.8476 0
M  V30 4197 C 398.685 0.157056 -3.57055 0
M  V30 4198 S 400.244 0.646875 -4.34006 0
M  V30 4199 H 397.062 -0.00500662 -0.710982 0
M  V30 4200 H 399.664 -0.69243 -1.82827 0
M  V30 4201 H 398.368 -0.799412 -4.02539 0
M  V30 4202 H 397.899 0.896704 -3.83044 0
M  V30 4203 H 399.914 1.91381 -4.57808 0
M  V30 4204 N 399.087 1.5561 -0.249682 0
M  V30 4205 C 400.364 1.90932 0.424761 0
M  V30 4206 C 400.744 1.17078 1.75658 0
M  V30 4207 O 400.092 0.289176 2.26663 0
M  V30 4208 C 400.302 3.43975 0.590109 0
M  V30 4209 C 401.65 4.15281 0.884714 0
M  V30 4210 O 402.674 3.49729 0.67587 0
M  V30 4211 O 401.533 5.31236 1.28259 0
M  V30 4212 H 398.627 0.794815 0.228468 0
M  V30 4213 H 401.173 1.67135 -0.293954 0
M  V30 4214 H 399.945 3.89748 -0.34818 0
M  V30 4215 H 399.568 3.73644 1.35926 0
M  V30 4216 N 400.565 -0.0233959 1.57583 0
M  V30 4217 C 401.495 -1.02162 2.09965 0
M  V30 4218 C 402.476 -1.3735 1.00344 0
M  V30 4219 O 403.661 -1.46135 1.27899 0
M  V30 4220 C 400.791 -2.32081 2.58371 0
M  V30 4221 C 399.745 -2.1112 3.72307 0
M  V30 4222 C 399.071 -3.46848 4.06941 0
M  V30 4223 C 400.371 -1.49276 5.00514 0
M  V30 4224 H 402.065 -0.585557 2.93618 0
M  V30 4225 H 399.611 -0.280218 1.41247 0
M  V30 4226 H 401.564 -3.02249 2.93639 0
M  V30 4227 H 400.288 -2.77758 1.71808 0
M  V30 4228 H 398.947 -1.43384 3.37397 0
M  V30 4229 H 398.595 -3.90184 3.17436 0
M  V30 4230 H 398.295 -3.33646 4.83688 0
M  V30 4231 H 399.819 -4.18369 4.44747 0
M  V30 4232 H 401.233 -2.09368 5.33702 0
M  V30 4233 H 399.63 -1.46632 5.8191 0
M  V30 4234 H 400.7 -0.459217 4.82721 0
M  V30 4235 N 402.043 -1.548 -0.295768 0
M  V30 4236 C 403.32 -1.65014 -1.05023 0
M  V30 4237 C 403.7 -0.501805 -2.05049 0
M  V30 4238 O 403.048 0.500869 -2.22943 0
M  V30 4239 C 403.258 -3.03252 -1.72741 0
M  V30 4240 C 404.606 -3.60242 -2.24746 0
M  V30 4241 O 405.63 -3.05737 -1.82765 0
M  V30 4242 O 404.489 -4.55687 -3.01681 0
M  V30 4243 H 401.583 -0.669314 -0.485744 0
M  V30 4244 H 404.129 -1.67144 -0.293438 0
M  V30 4245 H 402.901 -3.7827 -1.00138 0
M  V30 4246 H 402.524 -3.04922 -2.55163 0
M  V30 4247 N 403.521 0.559213 -1.47345 0
M  V30 4248 C 404.451 1.67622 -1.62558 0
M  V30 4249 C 405.432 1.63331 -0.475087 0
M  V30 4250 O 406.617 1.80983 -0.704182 0
M  V30 4251 C 403.747 3.0626 -1.63774 0
M  V30 4252 C 402.701 3.25397 -2.7803 0
M  V30 4253 C 402.027 4.64801 -2.64318 0
M  V30 4254 C 403.327 3.10965 -4.19641 0
M  V30 4255 H 405.021 1.55146 -2.56067 0
M  V30 4256 H 402.567 0.744961 -1.23233 0
M  V30 4257 H 404.52 3.84247 -1.73008 0
M  V30 4258 H 403.244 3.1969 -0.66825 0
M  V30 4259 H 401.903 2.49817 -2.68304 0
M  V30 4260 H 401.551 4.75028 -1.65401 0
M  V30 4261 H 401.251 4.78555 -3.40968 0
M  V30 4262 H 402.775 5.44926 -2.75478 0
M  V30 4263 H 404.189 3.78772 -4.30354 0
M  V30 4264 H 402.586 3.36229 -4.97062 0
M  V30 4265 H 403.656 2.07736 -4.38148 0
M  V30 4266 N 404.999 1.35443 0.805782 0
M  V30 4267 C 406.41 1.25768 1.37983 0
M  V30 4268 C 406.761 -0.10958 1.95894 0
M  V30 4269 O 405.886 -1.01056 1.91355 0
M  V30 4270 C 406.481 2.27727 2.5085 0
M  V30 4271 C 405.04 2.2179 3.04115 0
M  V30 4272 C 404.187 2.13393 1.77084 0
M  V30 4273 H 407.138 1.4656 0.608752 0
M  V30 4274 H 407.159 1.90422 3.29424 0
M  V30 4275 H 406.671 3.27227 2.08671 0
M  V30 4276 H 404.772 1.25703 3.50756 0
M  V30 4277 H 404.885 3.13788 3.62042 0
M  V30 4278 H 403.249 1.59384 1.98668 0
M  V30 4279 H 404.032 3.14755 1.37056 0
M  V30 4280 N 406.477 -1.02803 1.19454 0
M  V30 4281 C 407.44 -2.09264 0.934955 0
M  V30 4282 C 408.44 -1.60576 -0.0849015 0
M  V30 4283 O 409.63 -1.73554 0.149933 0
M  V30 4284 C 406.762 -3.38482 0.40531 0
M  V30 4285 H 407.955 -2.33726 1.87916 0
M  V30 4286 H 405.508 -1.19426 1.00832 0
M  V30 4287 H 406.243 -3.19689 -0.544899 0
M  V30 4288 H 406.028 -3.75142 1.14065 0
M  V30 4289 H 407.518 -4.16894 0.242806 0
M  V30 4290 N 407.956 -0.998596 -1.21925 0
M  V30 4291 C 409.181 -0.696015 -1.95372 0
M  V30 4292 C 409.606 0.733826 -1.73195 0
M  V30 4293 O 408.964 1.50242 -1.01474 0
M  V30 4294 C 409.012 -1.01466 -3.4603 0
M  V30 4295 O 408.116 -0.116415 -4.12236 0
M  V30 4296 H 407.457 -0.259938 -0.611006 0
M  V30 4297 H 409.987 -1.33711 -1.54863 0
M  V30 4298 H 409.997 -0.958855 -3.96573 0
M  V30 4299 H 408.672 -2.05653 -3.61497 0
M  V30 4300 H 407.249 -0.228193 -3.72201 0
M  V30 4301 N 409.434 1.37368 -0.772513 0
M  V30 4302 C 410.344 2.34053 -0.160081 0
M  V30 4303 C 411.36 1.60216 0.678728 0
M  V30 4304 O 412.536 1.92303 0.59847 0
M  V30 4305 C 409.601 3.3939 0.708182 0
M  V30 4306 C 408.662 4.29048 -0.147172 0
M  V30 4307 C 407.895 5.29354 0.679744 0
M  V30 4308 O 408.118 5.3723 1.91678 0
M  V30 4309 O 407.052 6.01835 0.0885444 0
M  V30 4310 H 410.878 2.88159 -0.959053 0
M  V30 4311 H 408.463 1.39543 -0.533685 0
M  V30 4312 H 410.345 4.03839 1.20384 0
M  V30 4313 H 409.02 2.8761 1.48533 0
M  V30 4314 H 407.927 3.67697 -0.689205 0
M  V30 4315 H 409.26 4.84134 -0.887423 0
M  V30 4316 N 410.912 0.523116 1.48665 0
M  V30 4317 C 412.152 -0.0115588 2.04397 0
M  V30 4318 C 412.516 -1.32225 1.39214 0
M  V30 4319 O 413.717 -1.94253 1.85793 0
M  V30 4320 C 411.988 -0.138119 3.57133 0
M  V30 4321 S 413.547 -0.623849 4.34343 0
M  V30 4322 H 410.365 0.00877706 0.710946 0
M  V30 4323 H 412.967 0.702116 1.82457 0
M  V30 4324 H 411.671 0.820748 4.02109 0
M  V30 4325 H 411.202 -0.876377 3.83514 0
M  V30 4326 H 413.217 -1.8895 4.58816 0
M  V30 4327 N 412.39 -1.55475 0.257931 0
M  V30 4328 C 413.338 -2.23244 -0.653076 0
M  V30 4329 C 414.332 -1.22366 -1.17144 0
M  V30 4330 O 415.538 -1.40347 -1.12706 0
M  V30 4331 H 411.913 -0.716247 -0.229117 0
M  V30 4332 H 413.884 -2.98343 -0.0584788 0
M  V30 4333 C 412.633 -2.95401 -1.83395 0
M  V30 4334 H 411.956 -3.72802 -1.44424 0
M  V30 4335 H 413.396 -3.46165 -2.44838 0
M  V30 4336 C 411.855 -1.99895 -2.71189 0
M  V30 4337 O 412.385 -1.53909 -3.71046 0
M  V30 4338 N 410.591 -1.6676 -2.3799 0
M  V30 4339 H 410.138 -2.04352 -1.56837 0
M  V30 4340 H 410.096 -1.03127 -2.97005 0
M  V30 4341 N 413.868 0.0150385 -1.57593 0
M  V30 4342 C 415.279 0.559832 -1.78109 0
M  V30 4343 C 415.63 1.74814 -0.890756 0
M  V30 4344 O 414.755 2.16216 -0.0892482 0
M  V30 4345 C 415.35 1.02238 -3.23006 0
M  V30 4346 C 413.909 1.51258 -3.44671 0
M  V30 4347 C 413.056 0.456955 -2.73509 0
M  V30 4348 H 416.007 -0.211169 -1.57289 0
M  V30 4349 H 416.028 1.88912 -3.30292 0
M  V30 4350 H 415.54 0.157302 -3.87781 0
M  V30 4351 H 413.641 2.39905 -2.8509 0
M  V30 4352 H 413.754 1.55042 -4.5332 0
M  V30 4353 H 412.118 0.915196 -2.37689 0
M  V30 4354 H 412.901 -0.398896 -3.40975 0
M  V30 4355 N 415.346 1.54954 0.287554 0
M  V30 4356 C 416.293 1.86834 1.35505 0
M  V30 4357 C 417.263 0.718452 1.49758 0
M  V30 4358 O 418.448 0.968358 1.644 0
M  V30 4359 C 415.588 2.13303 2.71286 0
M  V30 4360 C 414.701 3.40883 2.65373 0
M  V30 4361 C 413.836 3.57125 3.93236 0
M  V30 4362 C 412.875 4.78449 3.81776 0
M  V30 4363 N 412.012 4.91426 5.01443 0
M  V30 4364 H 416.852 2.77889 1.07619 0
M  V30 4365 H 414.389 1.37593 0.520241 0
M  V30 4366 H 416.347 2.26646 3.50267 0
M  V30 4367 H 414.977 1.25499 2.97405 0
M  V30 4368 H 414.029 3.36088 1.78182 0
M  V30 4369 H 415.341 4.29993 2.52799 0
M  V30 4370 H 414.495 3.70207 4.80658 0
M  V30 4371 H 413.234 2.66173 4.0866 0
M  V30 4372 H 412.239 4.65386 2.92738 0
M  V30 4373 H 413.464 5.70822 3.67884 0
M  V30 4374 H 411.41 4.03401 5.17304 0
M  V30 4375 H 411.327 5.74559 4.91343 0
M  V30 4376 H 412.595 5.08879 5.90477 0
M  V30 4377 N 416.824 -0.551391 1.4764 0
M  V30 4378 C 418.054 -1.33163 1.57959 0
M  V30 4379 C 418.462 -1.87785 0.23094 0
M  V30 4380 O 417.805 -1.65996 -0.786825 0
M  V30 4381 C 417.867 -2.53449 2.54958 0
M  V30 4382 C 417.531 -2.20071 4.00522 0
M  V30 4383 C 418.528 -1.77017 4.88836 0
M  V30 4384 C 416.213 -2.31252 4.45901 0
M  V30 4385 C 418.207 -1.4558 6.20552 0
M  V30 4386 C 415.894 -1.99427 5.77644 0
M  V30 4387 C 416.892 -1.56659 6.64791 0
M  V30 4388 O 416.58 -1.25242 7.94084 0
M  V30 4389 H 416.312 -0.412022 0.535923 0
M  V30 4390 H 418.866 -0.674186 1.9402 0
M  V30 4391 H 417.096 -3.22104 2.13976 0
M  V30 4392 H 418.785 -3.15523 2.55343 0
M  V30 4393 H 419.551 -1.67867 4.55023 0
M  V30 4394 H 415.43 -2.63498 3.78272 0
M  V30 4395 H 418.974 -1.12125 6.8853 0
M  V30 4396 H 414.871 -2.08211 6.10998 0
M  V30 4397 H 415.639 -1.38822 8.06642 0
M  V30 4398 N 418.302 -1.35869 -0.798587 0
M  V30 4399 C 419.527 -1.32883 -1.59238 0
M  V30 4400 C 419.952 0.0894587 -1.87887 0
M  V30 4401 O 419.31 1.05869 -1.47178 0
M  V30 4402 C 419.358 -2.14892 -2.89575 0
M  V30 4403 O 418.462 -1.53512 -3.82763 0
M  V30 4404 H 417.803 -0.455236 -0.48338 0
M  V30 4405 H 420.333 -1.79024 -0.990539 0
M  V30 4406 H 420.343 -2.27139 -3.38928 0
M  V30 4407 H 419.018 -3.17998 -2.68049 0
M  V30 4408 H 417.595 -1.50153 -3.41334 0
M  V30 4409 N 419.78 1.02168 -1.19998 0
M  V30 4410 C 421.027 1.75685 -1.00702 0
M  V30 4411 C 421.355 1.88947 0.461426 0
M  V30 4412 O 420.61 1.40832 1.35885 0
M  V30 4413 C 420.909 3.18081 -1.62969 0
M  V30 4414 C 420.575 3.24809 -3.12746 0
M  V30 4415 C 419.237 3.26352 -3.53621 0
M  V30 4416 C 421.589 3.23379 -4.08749 0
M  V30 4417 C 418.917 3.2413 -4.89036 0
M  V30 4418 C 421.269 3.22698 -5.44104 0
M  V30 4419 C 419.933 3.22542 -5.84399 0
M  V30 4420 H 419.203 0.642877 -0.368496 0
M  V30 4421 H 421.85 1.19865 -1.49348 0
M  V30 4422 H 420.155 3.77027 -1.06573 0
M  V30 4423 H 421.852 3.73648 -1.45561 0
M  V30 4424 H 418.442 3.2434 -2.80181 0
M  V30 4425 H 422.626 3.21361 -3.78207 0
M  V30 4426 H 417.882 3.22338 -5.19527 0
M  V30 4427 H 422.056 3.20543 -6.18244 0
M  V30 4428 H 419.683 3.20575 -6.89301 0
M  V30 4429 N 421.258 1.00505 1.21394 0
M  V30 4430 C 422.674 0.717873 1.42544 0
M  V30 4431 C 422.874 -0.706936 1.88692 0
M  V30 4432 O 421.93 -1.47627 2.04847 0
M  V30 4433 C 423.243 1.73377 2.45684 0
M  V30 4434 C 424.791 1.75059 2.59467 0
M  V30 4435 C 425.266 2.75545 3.6584 0
M  V30 4436 N 426.757 2.74213 3.73311 0
M  V30 4437 C 427.492 3.48626 4.55245 0
M  V30 4438 N 426.988 4.32678 5.41075 0
M  V30 4439 N 428.781 3.37276 4.49668 0
M  V30 4440 H 420.932 1.92506 0.897503 0
M  V30 4441 H 423.195 0.830919 0.456375 0
M  V30 4442 H 422.901 2.75395 2.18748 0
M  V30 4443 H 422.775 1.53647 3.44489 0
M  V30 4444 H 425.162 0.737337 2.8574 0
M  V30 4445 H 425.243 1.98861 1.60897 0
M  V30 4446 H 424.887 3.77028 3.40313 0
M  V30 4447 H 424.817 2.49009 4.64007 0
M  V30 4448 H 427.308 2.13234 3.11993 0
M  V30 4449 H 427.621 4.86253 6.00648 0
M  V30 4450 H 425.966 4.3676 5.40616 0
M  V30 4451 H 429.157 2.71043 3.81646 0
M  V30 4452 H 429.33 3.95524 5.13288 0
M  V30 4453 N 422.737 -1.36956 0.779787 0
M  V30 4454 C 424.153 -1.52817 0.460342 0
M  V30 4455 C 424.353 -1.7361 -1.02283 0
M  V30 4456 O 423.409 -1.76207 -1.80852 0
M  V30 4457 C 424.722 -2.71983 1.28241 0
M  V30 4458 C 426.27 -2.85849 1.27512 0
M  V30 4459 C 426.745 -4.08008 2.08072 0
M  V30 4460 N 428.236 -4.15135 2.05467 0
M  V30 4461 C 428.971 -5.08711 2.64577 0
M  V30 4462 N 428.467 -6.07792 3.32506 0
M  V30 4463 N 430.26 -5.01254 2.54363 0
M  V30 4464 H 422.411 -1.21713 1.74068 0
M  V30 4465 H 424.674 -0.593294 0.739396 0
M  V30 4466 H 424.38 -2.63109 2.33381 0
M  V30 4467 H 424.254 -3.65882 0.917088 0
M  V30 4468 H 426.641 -2.94189 0.231686 0
M  V30 4469 H 426.722 -1.92886 1.68014 0
M  V30 4470 H 426.366 -4.00429 3.12441 0
M  V30 4471 H 426.296 -5.001 1.64947 0
M  V30 4472 H 428.787 -3.44189 1.5602 0
M  V30 4473 H 429.1 -6.75739 3.74963 0
M  V30 4474 H 427.445 -6.08047 3.36606 0
M  V30 4475 H 430.636 -4.22795 2.00902 0
M  V30 4476 H 430.809 -5.73995 3.00722 0
M  V30 4477 N 424.215 -0.530993 -1.48385 0
M  V30 4478 C 425.145 0.219985 -2.32461 0
M  V30 4479 C 426.126 0.934111 -1.42156 0
M  V30 4480 O 427.311 0.919694 -1.71042 0
M  V30 4481 C 424.441 1.26674 -3.23375 0
M  V30 4482 C 423.395 0.67069 -4.22712 0
M  V30 4483 C 422.721 1.82017 -5.02766 0
M  V30 4484 C 424.021 -0.358268 -5.2107 0
M  V30 4485 H 425.715 -0.48187 -2.95497 0
M  V30 4486 H 423.261 -0.233182 -1.42099 0
M  V30 4487 H 425.214 1.80006 -3.81019 0
M  V30 4488 H 423.938 1.99818 -2.58341 0
M  V30 4489 H 422.597 0.158878 -3.66256 0
M  V30 4490 H 422.245 2.54002 -4.34157 0
M  V30 4491 H 421.945 1.42727 -5.70003 0
M  V30 4492 H 423.469 2.35725 -5.63264 0
M  V30 4493 H 424.883 0.0880081 -5.73232 0
M  V30 4494 H 423.28 -0.66861 -5.96364 0
M  V30 4495 H 424.35 -1.26367 -4.68145 0
M  V30 4496 N 425.693 1.55336 -0.266172 0
M  V30 4497 C 426.97 1.91372 0.404486 0
M  V30 4498 C 427.35 1.18935 1.74407 0
M  V30 4499 O 426.698 0.3132 2.26343 0
M  V30 4500 C 426.908 3.44581 0.553593 0
M  V30 4501 C 428.256 4.16196 0.840618 0
M  V30 4502 O 429.28 3.50426 0.638739 0
M  V30 4503 O 428.139 5.32567 1.22618 0
M  V30 4504 H 425.233 0.797194 0.220025 0
M  V30 4505 H 427.779 1.66813 -0.311664 0
M  V30 4506 H 426.551 3.89357 -0.389498 0
M  V30 4507 H 426.174 3.75065 1.31955 0
M  V30 4508 N 427.171 -0.0066808 1.57599 0
M  V30 4509 C 428.582 -0.550379 1.78403 0
M  V30 4510 C 428.933 -1.74339 0.900014 0
M  V30 4511 O 428.058 -2.16166 0.100713 0
M  V30 4512 C 428.653 -1.00523 3.23544 0
M  V30 4513 C 427.212 -1.49428 3.45468 0
M  V30 4514 C 426.359 -0.442444 2.73748 0
M  V30 4515 H 429.31 0.219508 1.57175 0
M  V30 4516 H 429.331 -1.87157 3.31289 0
M  V30 4517 H 428.843 -0.136735 3.87859 0
M  V30 4518 H 426.944 -2.3839 2.86358 0
M  V30 4519 H 427.057 -1.52635 4.54136 0
M  V30 4520 H 425.421 -0.902578 2.38171 0
M  V30 4521 H 426.204 0.416973 3.40758 0
M  V30 4522 N 428.649 -1.55105 -0.279332 0
M  V30 4523 C 429.596 -1.8755 -1.34513 0
M  V30 4524 C 430.566 -0.726384 -1.49375 0
M  V30 4525 O 431.751 -0.977063 -1.63884 0
M  V30 4526 C 428.891 -2.14738 -2.70151 0
M  V30 4527 C 428.004 -3.42285 -2.63562 0
M  V30 4528 C 427.139 -3.59206 -3.91337 0
M  V30 4529 C 426.178 -4.80467 -3.79233 0
M  V30 4530 N 425.315 -4.94079 -4.98829 0
M  V30 4531 H 430.155 -2.78456 -1.06143 0
M  V30 4532 H 427.692 -1.37867 -0.512936 0
M  V30 4533 H 429.65 -2.28501 -3.49061 0
M  V30 4534 H 428.28 -1.27075 -2.96735 0
M  V30 4535 H 427.332 -3.37029 -1.76397 0
M  V30 4536 H 428.644 -4.31328 -2.50515 0
M  V30 4537 H 427.798 -3.72751 -4.78687 0
M  V30 4538 H 426.537 -2.68337 -4.07243 0
M  V30 4539 H 425.542 -4.66932 -2.90266 0
M  V30 4540 H 426.767 -5.72765 -3.64852 0
M  V30 4541 H 424.713 -4.06139 -5.15158 0
M  V30 4542 H 424.63 -5.77156 -4.8829 0
M  V30 4543 H 425.898 -5.12003 -5.8777 0
M  V30 4544 N 430.127 0.543554 -1.4793 0
M  V30 4545 C 431.077 1.64527 -1.57844 0
M  V30 4546 C 432.061 1.54869 -0.436408 0
M  V30 4547 O 433.253 1.63119 -0.687101 0
M  V30 4548 C 430.382 3.03281 -1.6086 0
M  V30 4549 C 429.468 3.18093 -2.80495 0
M  V30 4550 N 429.859 3.02923 -4.05057 0
M  V30 4551 C 428.157 3.49121 -2.77543 0
M  V30 4552 C 428.858 3.20791 -4.85251 0
M  V30 4553 N 427.834 3.47749 -4.17818 0
M  V30 4554 H 431.636 1.51388 -2.5191 0
M  V30 4555 H 429.15 0.748671 -1.44113 0
M  V30 4556 H 431.147 3.82403 -1.66054 0
M  V30 4557 H 429.807 3.17521 -0.678996 0
M  V30 4558 H 430.818 2.79966 -4.35705 0
M  V30 4559 H 427.495 3.69804 -1.93781 0
M  V30 4560 H 428.885 3.13915 -5.9406 0
M  V30 4561 N 431.605 1.3629 0.791371 0
M  V30 4562 C 432.851 1.30605 1.55146 0
M  V30 4563 C 433.184 -0.115042 1.93859 0
M  V30 4564 O 432.459 -1.06798 1.62556 0
M  V30 4565 C 432.742 2.22692 2.82985 0
M  V30 4566 C 432.595 3.73489 2.50651 0
M  V30 4567 C 433.914 2.13588 3.84796 0
M  V30 4568 H 431.033 0.475761 0.562868 0
M  V30 4569 H 433.675 1.66825 0.909358 0
M  V30 4570 H 431.825 1.91933 3.37778 0
M  V30 4571 H 433.497 4.14758 2.01924 0
M  V30 4572 H 431.74 3.93021 1.83622 0
M  V30 4573 H 432.411 4.3333 3.41949 0
M  V30 4574 H 434.887 2.40659 3.39445 0
M  V30 4575 H 433.763 2.80195 4.71998 0
M  V30 4576 H 434.024 1.12256 4.27611 0
M  V30 4577 N 433.083 -1.0153 1.20538 0
M  V30 4578 C 434.494 -1.56598 1.01657 0
M  V30 4579 C 434.845 -1.91505 -0.426668 0
M  V30 4580 O 433.97 -1.72375 -1.30827 0
M  V30 4581 C 434.565 -2.84542 1.83905 0
M  V30 4582 C 433.124 -3.36133 1.69386 0
M  V30 4583 C 432.271 -2.09427 1.81757 0
M  V30 4584 H 435.222 -0.838974 1.34711 0
M  V30 4585 H 435.243 -3.56004 1.34319 0
M  V30 4586 H 434.755 -2.59105 2.8894 0
M  V30 4587 H 432.856 -3.66528 0.669933 0
M  V30 4588 H 432.969 -4.08248 2.50739 0
M  V30 4589 H 431.333 -2.21941 1.24957 0
M  V30 4590 H 432.116 -1.86414 2.88279 0
M  V30 4591 N 434.561 -1.01147 -1.20859 0
M  V30 4592 C 435.524 -0.582224 -2.21682 0
M  V30 4593 C 436.524 0.344887 -1.57058 0
M  V30 4594 O 437.714 0.134281 -1.73682 0
M  V30 4595 C 434.846 0.150496 -3.40568 0
M  V30 4596 H 436.039 -1.47408 -2.61172 0
M  V30 4597 H 433.592 -0.800695 -1.34233 0
M  V30 4598 H 434.327 1.0575 -3.06574 0
M  V30 4599 H 434.112 -0.515444 -3.88697 0
M  V30 4600 H 435.602 0.438344 -4.15293 0
M  V30 4601 N 436.039 1.36541 -0.78704 0
M  V30 4602 C 437.264 2.0409 -0.369053 0
M  V30 4603 C 437.689 1.58957 1.00569 0
M  V30 4604 O 437.047 0.756926 1.64743 0
M  V30 4605 C 437.095 3.57924 -0.438466 0
M  V30 4606 O 436.199 4.08642 0.555479 0
M  V30 4607 H 435.54 0.645142 -0.157122 0
M  V30 4608 H 438.07 1.74545 -1.06749 0
M  V30 4609 H 438.08 4.06887 -0.301218 0
M  V30 4610 H 436.755 3.90127 -1.44132 0
M  V30 4611 H 435.332 3.70958 0.380088 0
M  V30 4612 N 437.518 0.538854 1.48102 0
M  V30 4613 C 438.743 0.0102694 2.07397 0
M  V30 4614 C 439.168 -1.26562 1.39153 0
M  V30 4615 O 438.526 -1.75357 0.460387 0
M  V30 4616 C 438.574 -0.187602 3.60112 0
M  V30 4617 O 437.678 -1.25432 3.92862 0
M  V30 4618 H 437.019 0.0430975 0.6626 0
M  V30 4619 H 439.549 0.749301 1.90385 0
M  V30 4620 H 439.559 -0.407517 4.0596 0
M  V30 4621 H 438.234 0.744386 4.09184 0
M  V30 4622 H 436.811 -1.01636 3.58782 0
M  V30 4623 N 438.996 -1.55193 0.274407 0
M  V30 4624 C 440.244 -1.99187 -0.341902 0
M  V30 4625 C 440.565 -1.16422 -1.56431 0
M  V30 4626 O 439.835 -0.253573 -1.94252 0
M  V30 4627 H 438.415 -0.735721 -0.129317 0
M  V30 4628 H 441.077 -1.91168 0.379578 0
M  V30 4629 H 440.173 -3.05629 -0.632253 0
M  V30 4630 N 440.474 -0.00167713 -1.576 0
M  V30 4631 C 441.704 0.692754 -1.94639 0
M  V30 4632 C 442.112 1.67744 -0.87513 0
M  V30 4633 O 441.455 1.8305 0.154382 0
M  V30 4634 C 441.517 1.47881 -3.27676 0
M  V30 4635 C 441.181 0.655518 -4.52274 0
M  V30 4636 C 442.178 -0.0575214 -5.19868 0
M  V30 4637 C 439.863 0.600994 -4.98692 0
M  V30 4638 C 441.857 -0.814052 -6.3218 0
M  V30 4639 C 439.544 -0.15926 -6.10892 0
M  V30 4640 C 440.542 -0.865515 -6.77494 0
M  V30 4641 O 440.23 -1.61336 -7.87544 0
M  V30 4642 H 439.962 0.197792 -0.646417 0
M  V30 4643 H 442.516 -0.049423 -2.05341 0
M  V30 4644 H 440.746 2.2655 -3.13388 0
M  V30 4645 H 442.435 2.05874 -3.49816 0
M  V30 4646 H 443.201 -0.0245611 -4.84994 0
M  V30 4647 H 439.08 1.14025 -4.46676 0
M  V30 4648 H 442.624 -1.36584 -6.84098 0
M  V30 4649 H 438.521 -0.194035 -6.45208 0
M  V30 4650 H 439.289 -1.53025 -8.04068 0
M  V30 4651 N 441.952 1.55251 0.271103 0
M  V30 4652 C 442.9 1.89054 1.35504 0
M  V30 4653 C 443.894 0.767064 1.51038 0
M  V30 4654 O 445.1 0.951429 1.528 0
M  V30 4655 H 441.475 0.600072 0.45323 0
M  V30 4656 H 443.446 2.79598 1.04247 0
M  V30 4657 C 442.195 2.18068 2.70817 0
M  V30 4658 H 441.518 3.04005 2.59656 0
M  V30 4659 H 442.958 2.4564 3.45597 0
M  V30 4660 C 441.417 0.988901 3.2206 0
M  V30 4661 O 441.947 0.224501 4.01072 0
M  V30 4662 N 440.153 0.786085 2.79766 0
M  V30 4663 H 439.7 1.40937 2.15626 0
M  V30 4664 H 439.658 -0.00969349 3.14399 0
M  V30 4665 N 443.43 -0.535701 1.48216 0
M  V30 4666 C 444.677 -1.29183 1.55942 0
M  V30 4667 C 445.005 -1.93125 0.230857 0
M  V30 4668 O 444.26 -1.79556 -0.778331 0
M  V30 4669 C 444.559 -2.4068 2.64212 0
M  V30 4670 C 444.225 -1.94428 4.06827 0
M  V30 4671 C 442.887 -1.81532 4.45645 0
M  V30 4672 C 445.239 -1.59405 4.96225 0
M  V30 4673 C 442.567 -1.31939 5.71672 0
M  V30 4674 C 444.919 -1.11276 6.22736 0
M  V30 4675 C 443.583 -0.969924 6.60416 0
M  V30 4676 H 442.853 -0.472715 0.570632 0
M  V30 4677 H 445.5 -0.598437 1.81909 0
M  V30 4678 H 443.805 -3.15666 2.32083 0
M  V30 4679 H 445.502 -2.98822 2.67407 0
M  V30 4680 H 442.092 -2.05415 3.76168 0
M  V30 4681 H 446.276 -1.68231 4.66917 0
M  V30 4682 H 441.532 -1.19562 5.99596 0
M  V30 4683 H 445.706 -0.832453 6.91407 0
M  V30 4684 H 443.333 -0.583436 7.57958 0
M  V30 4685 N 444.908 -1.36708 -0.784132 0
M  V30 4686 C 446.324 -1.17237 -1.08294 0
M  V30 4687 C 446.524 -5.93947e-05 -2.015 0
M  V30 4688 O 445.58 0.663686 -2.43622 0
M  V30 4689 C 446.893 -2.48557 -1.69233 0
M  V30 4690 C 448.441 -2.54968 -1.8155 0
M  V30 4691 C 448.916 -3.86388 -2.45904 0
M  V30 4692 N 450.407 -3.87762 -2.53367 0
M  V30 4693 C 451.142 -4.86191 -3.03983 0
M  V30 4694 N 450.638 -5.95015 -3.54866 0
M  V30 4695 N 452.431 -4.73606 -3.02743 0
M  V30 4696 H 444.582 -2.11758 -0.16501 0
M  V30 4697 H 446.845 -0.93822 -0.135822 0
M  V30 4698 H 446.551 -3.34638 -1.08215 0
M  V30 4699 H 446.425 -2.64748 -2.68679 0
M  V30 4700 H 448.812 -1.69302 -2.41704 0
M  V30 4701 H 448.893 -2.42672 -0.80895 0
M  V30 4702 H 448.537 -4.72462 -1.86392 0
M  V30 4703 H 448.467 -3.95982 -3.4714 0
M  V30 4704 H 450.958 -3.09145 -2.17343 0
M  V30 4705 H 451.271 -6.66086 -3.91854 0
M  V30 4706 H 449.616 -5.98676 -3.53003 0
M  V30 4707 H 452.807 -3.87717 -2.62284 0
M  V30 4708 H 452.98 -5.50473 -3.41881 0
M  V30 4709 N 446.386 1.0089 -1.21074 0
M  V30 4710 C 447.633 1.74607 -1.0256 0
M  V30 4711 C 447.961 1.89426 0.44136 0
M  V30 4712 O 447.216 1.42266 1.34384 0
M  V30 4713 C 447.515 3.16335 -1.66334 0
M  V30 4714 C 447.181 3.21474 -3.16173 0
M  V30 4715 C 445.843 3.22583 -3.57062 0
M  V30 4716 C 448.195 3.19025 -4.12156 0
M  V30 4717 C 445.523 3.18925 -4.92446 0
M  V30 4718 C 447.875 3.16909 -5.47496 0
M  V30 4719 C 446.539 3.16326 -5.87787 0
M  V30 4720 H 445.809 0.638933 -0.375294 0
M  V30 4721 H 448.456 1.18274 -1.50611 0
M  V30 4722 H 446.761 3.75876 -1.10566 0
M  V30 4723 H 448.458 3.72083 -1.49516 0
M  V30 4724 H 445.048 3.2135 -2.83605 0
M  V30 4725 H 449.232 3.17332 -3.81595 0
M  V30 4726 H 444.488 3.16809 -5.22917 0
M  V30 4727 H 448.662 3.13968 -6.21609 0
M  V30 4728 H 446.289 3.13246 -6.92662 0
M  V30 4729 N 447.864 1.01787 1.20321 0
M  V30 4730 C 448.827 0.593972 2.2137 0
M  V30 4731 C 449.827 -0.336553 1.57239 0
M  V30 4732 O 451.017 -0.125069 1.7375 0
M  V30 4733 C 448.149 -0.132433 3.40643 0
M  V30 4734 H 449.342 1.48791 2.60387 0
M  V30 4735 H 446.895 0.807803 1.33807 0
M  V30 4736 H 447.63 -1.04123 3.0713 0
M  V30 4737 H 447.415 0.53605 3.88418 0
M  V30 4738 H 448.905 -0.416314 4.1552 0
M  V30 4739 N 449.342 -1.36122 0.79427 0
M  V30 4740 C 450.289 -2.29982 0.194101 0
M  V30 4741 C 451.259 -1.52214 -0.664833 0
M  V30 4742 O 452.444 -1.80702 -0.612498 0
M  V30 4743 C 449.584 -3.38706 -0.661244 0
M  V30 4744 C 448.697 -4.31456 0.216766 0
M  V30 4745 C 447.832 -5.27265 -0.645411 0
M  V30 4746 C 446.871 -6.11653 0.233756 0
M  V30 4747 N 446.008 -6.99636 -0.587682 0
M  V30 4748 H 450.848 -2.80722 0.999965 0
M  V30 4749 H 448.385 -1.38172 0.504677 0
M  V30 4750 H 450.343 -4.00394 -1.17219 0
M  V30 4751 H 448.973 -2.89274 -1.43249 0
M  V30 4752 H 448.025 -3.7088 0.845724 0
M  V30 4753 H 449.337 -4.90724 0.893973 0
M  V30 4754 H 448.491 -5.94266 -1.22198 0
M  V30 4755 H 447.23 -4.68463 -1.35623 0
M  V30 4756 H 446.235 -5.4361 0.82269 0
M  V30 4757 H 447.46 -6.72531 0.942247 0
M  V30 4758 H 445.406 -6.43337 -1.2827 0
M  V30 4759 H 445.323 -7.55993 0.0317402 0
M  V30 4760 H 446.591 -7.71001 -1.14792 0
M  V30 4761 N 450.82 -0.546701 -1.47814 0
M  V30 4762 C 452.05 -0.0232519 -2.06587 0
M  V30 4763 C 452.458 1.2712 -1.40133 0
M  V30 4764 O 451.801 1.77091 -0.488305 0
M  V30 4765 C 451.863 0.254117 -3.58601 0
M  V30 4766 C 451.527 -0.949331 -4.47031 0
M  V30 4767 C 452.524 -1.85216 -4.85789 0
M  V30 4768 C 450.209 -1.16104 -4.88697 0
M  V30 4769 C 452.203 -2.95047 -5.65001 0
M  V30 4770 C 449.89 -2.26247 -5.67676 0
M  V30 4771 C 450.888 -3.1555 -6.05737 0
M  V30 4772 O 450.576 -4.23784 -6.83127 0
M  V30 4773 H 450.308 -0.0380082 -0.674931 0
M  V30 4774 H 452.862 -0.756631 -1.90956 0
M  V30 4775 H 451.092 1.04168 -3.72406 0
M  V30 4776 H 452.781 0.72167 -3.99433 0
M  V30 4777 H 453.547 -1.70061 -4.54207 0
M  V30 4778 H 449.426 -0.475159 -4.58545 0
M  V30 4779 H 452.97 -3.64778 -5.94628 0
M  V30 4780 H 448.867 -2.41379 -5.98671 0
M  V30 4781 H 449.635 -4.21701 -7.01506 0
M  V30 4782 N 452.299 1.55045 -0.282633 0
M  V30 4783 C 453.529 2.03872 0.334635 0
M  V30 4784 C 453.937 1.16018 1.49454 0
M  V30 4785 O 453.28 0.174449 1.8287 0
M  V30 4786 C 453.342 3.48791 0.870905 0
M  V30 4787 C 453.006 4.56715 -0.161338 0
M  V30 4788 C 454.003 5.10513 -0.983466 0
M  V30 4789 C 451.688 5.01417 -0.297745 0
M  V30 4790 C 453.682 6.07538 -1.92811 0
M  V30 4791 C 451.369 5.98265 -1.24586 0
M  V30 4792 C 452.367 6.51208 -2.05954 0
M  V30 4793 O 452.055 7.46162 -2.99162 0
M  V30 4794 H 451.787 0.671324 0.0793742 0
M  V30 4795 H 454.341 2.01169 -0.41473 0
M  V30 4796 H 452.571 3.48758 1.67047 0
M  V30 4797 H 454.26 3.80916 1.40207 0
M  V30 4798 H 455.026 4.76785 -0.888856 0
M  V30 4799 H 450.905 4.59849 0.325604 0
M  V30 4800 H 454.449 6.48787 -2.56363 0
M  V30 4801 H 450.346 6.31412 -1.34126 0
M  V30 4802 H 451.114 7.63903 -2.93929 0
M  V30 4803 N 453.777 0.010035 1.57597 0
M  V30 4804 C 454.724 -0.978122 2.09049 0
M  V30 4805 C 455.694 -1.33509 0.988159 0
M  V30 4806 O 456.879 -1.43172 1.26121 0
M  V30 4807 C 454.019 -2.26158 2.60666 0
M  V30 4808 C 453.132 -1.96275 3.84838 0
M  V30 4809 C 452.267 -3.18776 4.24918 0
M  V30 4810 C 451.306 -2.84625 5.41899 0
M  V30 4811 N 450.443 -3.99693 5.77226 0
M  V30 4812 H 455.283 -0.532431 2.93205 0
M  V30 4813 H 452.82 -0.251234 1.44939 0
M  V30 4814 H 454.778 -3.01202 2.88675 0
M  V30 4815 H 453.408 -2.68378 1.79369 0
M  V30 4816 H 452.46 -1.11555 3.63675 0
M  V30 4817 H 453.772 -1.67111 4.69974 0
M  V30 4818 H 452.926 -4.02157 4.54262 0
M  V30 4819 H 451.665 -3.51087 3.38511 0
M  V30 4820 H 450.67 -1.99653 5.12268 0
M  V30 4821 H 451.895 -2.53551 6.29991 0
M  V30 4822 H 449.841 -4.31882 4.93776 0
M  V30 4823 H 449.758 -3.74087 6.56959 0
M  V30 4824 H 451.026 -4.83834 6.11167 0
M  V30 4825 N 455.255 -1.55392 -0.262866 0
M  V30 4826 C 456.504 -1.75679 -0.990943 0
M  V30 4827 C 456.817 -0.57097 -1.87081 0
M  V30 4828 O 458.023 -0.656486 -2.63444 0
M  V30 4829 C 456.479 -3.10964 -1.81188 0
M  V30 4830 C 456.087 -4.37146 -0.980188 0
M  V30 4831 C 457.831 -3.40597 -2.53365 0
M  V30 4832 C 455.738 -5.63466 -1.7961 0
M  V30 4833 H 454.668 -0.654868 -0.373716 0
M  V30 4834 H 457.319 -1.81841 -0.246203 0
M  V30 4835 H 455.701 -2.98867 -2.59797 0
M  V30 4836 H 456.875 -4.60187 -0.237558 0
M  V30 4837 H 455.19 -4.14731 -0.372497 0
M  V30 4838 H 457.787 -4.32186 -3.14833 0
M  V30 4839 H 458.13 -2.6119 -3.24169 0
M  V30 4840 H 458.663 -3.53838 -1.81779 0
M  V30 4841 H 455.402 -6.4565 -1.13209 0
M  V30 4842 H 454.922 -5.44552 -2.51443 0
M  V30 4843 H 456.601 -6.02139 -2.36723 0
M  V30 4844 N 456.733 0.527833 -1.48498 0
M  V30 4845 C 457.681 1.65313 -1.63628 0
M  V30 4846 C 458.675 1.6177 -0.502676 0
M  V30 4847 O 459.881 1.66601 -0.681469 0
M  V30 4848 H 456.256 0.547518 -0.515488 0
M  V30 4849 H 458.227 1.49696 -2.58135 0
M  V30 4850 C 456.976 3.03576 -1.6952 0
M  V30 4851 H 456.299 3.06997 -2.56111 0
M  V30 4852 H 457.739 3.81923 -1.84149 0
M  V30 4853 C 456.198 3.34089 -0.43432 0
M  V30 4854 O 456.728 3.99151 0.451852 0
M  V30 4855 N 454.934 2.88991 -0.305368 0
M  V30 4856 H 454.481 2.36222 -1.02747 0
M  V30 4857 H 454.439 3.09776 0.537249 0
M  V30 4858 N 458.211 1.37122 0.776871 0
M  V30 4859 C 459.459 1.31787 1.53221 0
M  V30 4860 C 459.78 -0.0987589 1.9475 0
M  V30 4861 O 459.05 -1.0417 1.65908 0
M  V30 4862 H 457.63 0.484839 0.568278 0
M  V30 4863 H 460.292 1.71556 0.924917 0
M  V30 4864 H 459.388 1.95355 2.43398 0
M  V30 4865 N 459.689 -1.00246 1.21608 0
M  V30 4866 C 460.917 -1.77631 1.06089 0
M  V30 4867 C 461.332 -1.84746 -0.38916 0
M  V30 4868 O 460.689 -1.31068 -1.26994 0
M  V30 4869 C 460.74 -3.21415 1.65453 0
M  V30 4870 O 460.461 -3.14703 3.04785 0
M  V30 4871 C 461.962 -4.15289 1.55079 0
M  V30 4872 H 459.182 -0.558162 0.37242 0
M  V30 4873 H 461.726 -1.26093 1.60999 0
M  V30 4874 H 459.881 -3.70053 1.14629 0
M  V30 4875 H 460.295 -4.05056 3.33212 0
M  V30 4876 H 461.769 -5.13965 2.01355 0
M  V30 4877 H 462.246 -4.36279 0.505665 0
M  V30 4878 H 462.852 -3.72543 2.05163 0
M  V30 4879 N 461.167 -1.02423 -1.1978 0
M  V30 4880 C 462.395 -0.737456 -1.93311 0
M  V30 4881 C 462.81 0.703023 -1.75223 0
M  V30 4882 O 462.167 1.47761 -1.07112 0
M  V30 4883 C 462.218 -1.0733 -3.45199 0
M  V30 4884 O 461.939 -2.4572 -3.62702 0
M  V30 4885 C 463.44 -0.80866 -4.35862 0
M  V30 4886 H 460.66 -0.2702 -0.614193 0
M  V30 4887 H 463.204 -1.36747 -1.52054 0
M  V30 4888 H 461.359 -0.488545 -3.84307 0
M  V30 4889 H 461.773 -2.58081 -4.56612 0
M  V30 4890 H 463.247 -1.09365 -5.41057 0
M  V30 4891 H 463.724 0.257025 -4.38447 0
M  V30 4892 H 464.33 -1.37592 -4.02428 0
M  V30 4893 N 462.645 1.35699 -0.801477 0
M  V30 4894 C 463.873 2.03157 -0.391768 0
M  V30 4895 C 464.288 1.60412 0.995668 0
M  V30 4896 O 463.645 0.799228 1.64069 0
M  V30 4897 C 463.696 3.58566 -0.459671 0
M  V30 4898 O 463.417 3.99756 -1.7924 0
M  V30 4899 C 464.918 4.4328 -0.0421205 0
M  V30 4900 H 462.138 0.651688 -0.159825 0
M  V30 4901 H 464.682 1.73426 -1.08368 0
M  V30 4902 H 462.837 3.86963 0.183939 0
M  V30 4903 H 463.251 4.94387 -1.75162 0
M  V30 4904 H 464.725 5.51821 -0.140754 0
M  V30 4905 H 465.202 4.27383 1.01196 0
M  V30 4906 H 465.808 4.20168 -0.658687 0
M  V30 4907 N 464.123 0.554532 1.47522 0
M  V30 4908 C 465.539 0.214107 1.58157 0
M  V30 4909 C 465.739 -1.28331 1.55349 0
M  V30 4910 O 464.795 -2.06329 1.45549 0
M  V30 4911 C 466.108 0.838391 2.88776 0
M  V30 4912 C 467.656 0.809374 3.02354 0
M  V30 4913 C 468.131 1.41268 4.35669 0
M  V30 4914 N 469.622 1.37574 4.42298 0
M  V30 4915 C 470.357 1.8122 5.4401 0
M  V30 4916 N 469.853 2.3271 6.52547 0
M  V30 4917 N 471.646 1.72307 5.35039 0
M  V30 4918 H 463.797 1.52744 1.4759 0
M  V30 4919 H 466.06 0.636812 0.702264 0
M  V30 4920 H 465.766 1.89065 2.96559 0
M  V30 4921 H 465.64 0.329847 3.75755 0
M  V30 4922 H 468.027 -0.234187 2.94169 0
M  V30 4923 H 468.108 1.35565 2.16924 0
M  V30 4924 H 467.752 2.45529 4.4461 0
M  V30 4925 H 467.682 0.841871 5.19827 0
M  V30 4926 H 470.173 0.999081 3.64454 0
M  V30 4927 H 470.486 2.63944 7.26329 0
M  V30 4928 H 468.831 2.36719 6.53444 0
M  V30 4929 H 472.022 1.3186 4.49144 0
M  V30 4930 H 472.195 2.06641 6.14169 0
M  V30 4931 N 465.601 -1.54893 0.290851 0
M  V30 4932 C 466.829 -2.04343 -0.324288 0
M  V30 4933 C 467.244 -1.16859 -1.48289 0
M  V30 4934 O 466.601 -0.192018 -1.81487 0
M  V30 4935 C 466.652 -3.52756 -0.79026 0
M  V30 4936 O 466.373 -4.36913 0.322213 0
M  V30 4937 C 467.874 -4.18161 -1.4716 0
M  V30 4938 H 465.094 -0.667135 -0.0719173 0
M  V30 4939 H 467.638 -1.99981 0.427529 0
M  V30 4940 H 465.793 -3.57511 -1.49213 0
M  V30 4941 H 466.207 -5.24486 -0.0387372 0
M  V30 4942 H 467.681 -5.23562 -1.7489 0
M  V30 4943 H 468.158 -3.67282 -2.40834 0
M  V30 4944 H 468.764 -4.17454 -0.813178 0
M  V30 4945 N 467.08 -0.0183926 -1.57589 0
M  V30 4946 C 468.01 0.965596 -2.12599 0
M  V30 4947 C 468.991 1.34641 -1.0395 0
M  V30 4948 O 470.176 1.42693 -1.31729 0
M  V30 4949 C 467.306 2.25149 -2.64434 0
M  V30 4950 C 466.26 2.01175 -3.77773 0
M  V30 4951 C 465.586 3.35937 -4.15994 0
M  V30 4952 C 466.886 1.35953 -5.04296 0
M  V30 4953 H 468.58 0.507504 -2.95067 0
M  V30 4954 H 466.126 0.242671 -1.41941 0
M  V30 4955 H 468.079 2.94357 -3.01549 0
M  V30 4956 H 466.803 2.73105 -1.79112 0
M  V30 4957 H 465.462 1.34388 -3.4108 0
M  V30 4958 H 465.11 3.81631 -3.27669 0
M  V30 4959 H 464.81 3.20705 -4.92364 0
M  V30 4960 H 466.334 4.0643 -4.55683 0
M  V30 4961 H 467.748 1.95144 -5.39065 0
M  V30 4962 H 466.145 1.31152 -5.85593 0
M  V30 4963 H 467.215 0.331071 -4.83768 0
M  V30 4964 N 468.558 1.5553 0.254621 0
M  V30 4965 C 469.807 1.76202 0.981612 0
M  V30 4966 C 470.12 0.580883 1.86776 0
M  V30 4967 O 471.326 0.670448 2.63092 0
M  V30 4968 C 469.782 3.11921 1.79537 0
M  V30 4969 C 469.39 4.37659 0.956991 0
M  V30 4970 C 471.134 3.41936 2.51555 0
M  V30 4971 C 469.041 5.64411 1.76619 0
M  V30 4972 H 467.971 0.656841 0.370237 0
M  V30 4973 H 470.622 1.81969 0.236556 0
M  V30 4974 H 469.004 3.00241 2.58208 0
M  V30 4975 H 470.178 4.60307 0.21315 0
M  V30 4976 H 468.493 4.14922 0.350497 0
M  V30 4977 H 471.09 4.33849 3.12536 0
M  V30 4978 H 471.433 2.62905 3.22779 0
M  V30 4979 H 471.966 3.54797 1.799 0
M  V30 4980 H 468.705 6.46241 1.09783 0
M  V30 4981 H 468.225 5.45877 2.48551 0
M  V30 4982 H 469.904 6.03386 2.33527 0
M  V30 4983 N 470.036 -0.519951 1.48776 0
M  V30 4984 C 470.983 -1.62352 1.64044 0
M  V30 4985 C 471.953 -1.58945 0.482251 0
M  V30 4986 O 473.138 -1.77219 0.706971 0
M  V30 4987 C 470.278 -3.00579 1.69547 0
M  V30 4988 C 469.391 -3.14145 2.96541 0
M  V30 4989 C 468.526 -4.42991 2.93142 0
M  V30 4990 C 467.565 -4.50122 4.14797 0
M  V30 4991 N 466.702 -5.7037 4.09418 0
M  V30 4992 H 471.542 -1.48643 2.58281 0
M  V30 4993 H 469.079 -0.723516 1.28077 0
M  V30 4994 H 471.037 -3.80671 1.70719 0
M  V30 4995 H 469.667 -3.13036 0.787918 0
M  V30 4996 H 468.719 -2.27239 3.05068 0
M  V30 4997 H 470.031 -3.15275 3.86527 0
M  V30 4998 H 469.185 -5.31385 2.92772 0
M  V30 4999 H 467.924 -4.44398 2.00902 0
M  V30 5000 H 466.929 -3.60133 4.15433 0
M  V30 5001 H 468.154 -4.50445 5.08208 0
M  V30 5002 H 466.1 -5.72655 3.20004 0
M  V30 5003 H 466.017 -5.73036 4.93119 0
M  V30 5004 H 467.285 -6.61023 4.13121 0
M  V30 5005 N 471.514 -1.37532 -0.769588 0
M  V30 5006 C 472.477 -1.33292 -1.86456 0
M  V30 5007 C 473.477 -0.236537 -1.59051 0
M  V30 5008 O 474.667 -0.492511 -1.67093 0
M  V30 5009 C 471.799 -1.07118 -3.23633 0
M  V30 5010 H 472.992 -2.30692 -1.91628 0
M  V30 5011 H 470.545 -1.22593 -0.969572 0
M  V30 5012 H 471.28 -0.102578 -3.24138 0
M  V30 5013 H 471.065 -1.86479 -3.44917 0
M  V30 5014 H 472.555 -1.06806 -4.03711 0
M  V30 5015 N 472.992 0.995999 -1.22138 0
M  V30 5016 C 474.222 1.76809 -1.06874 0
M  V30 5017 C 474.63 1.85265 0.383866 0
M  V30 5018 O 473.973 1.31969 1.27789 0
M  V30 5019 C 474.035 3.2186 -1.60144 0
M  V30 5020 C 473.699 3.36958 -3.0872 0
M  V30 5021 C 474.696 3.2452 -4.0618 0
M  V30 5022 C 472.381 3.62109 -3.48112 0
M  V30 5023 C 474.375 3.37013 -5.41019 0
M  V30 5024 C 472.062 3.74243 -4.831 0
M  V30 5025 C 473.06 3.61702 -5.79362 0
M  V30 5026 O 472.748 3.73436 -7.119 0
M  V30 5027 H 472.48 0.562207 -0.375365 0
M  V30 5028 H 475.034 1.26113 -1.62125 0
M  V30 5029 H 473.264 3.73734 -0.992981 0
M  V30 5030 H 474.953 3.80775 -1.40589 0
M  V30 5031 H 475.719 3.05004 -3.77091 0
M  V30 5032 H 471.598 3.70949 -2.73712 0
M  V30 5033 H 475.142 3.27141 -6.16137 0
M  V30 5034 H 471.039 3.93266 -5.11872 0
M  V30 5035 H 471.807 3.90328 -7.19435 0
M  V30 5036 N 474.47 1.03057 1.19235 0
M  V30 5037 C 475.718 0.726581 1.88587 0
M  V30 5038 C 476.039 -0.747227 1.80115 0
M  V30 5039 O 475.309 -1.53849 1.21274 0
M  V30 5040 H 473.889 0.265768 0.698124 0
M  V30 5041 H 476.551 1.30516 1.44746 0
M  V30 5042 H 475.647 1.0224 2.94879 0
M  V30 5043 N 475.948 -1.35272 0.808662 0
M  V30 5044 C 477.197 -1.97963 0.386483 0
M  V30 5045 C 477.51 -1.64866 -1.05255 0
M  V30 5046 O 478.716 -2.20937 -1.57794 0
M  V30 5047 C 477.172 -3.54162 0.640096 0
M  V30 5048 C 476.78 -3.96166 2.0918 0
M  V30 5049 C 478.524 -4.23553 0.283376 0
M  V30 5050 C 476.431 -5.4522 2.29106 0
M  V30 5051 H 475.361 -0.740742 0.140774 0
M  V30 5052 H 478.012 -1.5431 0.993012 0
M  V30 5053 H 476.394 -3.95983 -0.0364117 0
M  V30 5054 H 477.568 -3.65491 2.80629 0
M  V30 5055 H 475.883 -3.3967 2.40859 0
M  V30 5056 H 478.48 -5.33124 0.410273 0
M  V30 5057 H 478.823 -4.09105 -0.770659 0
M  V30 5058 H 479.356 -3.8716 0.913884 0
M  V30 5059 H 476.095 -5.64638 3.32962 0
M  V30 5060 H 475.615 -5.77457 1.62184 0
M  V30 5061 H 477.294 -6.1171 2.1076 0
M  V30 5062 N 477.426 -0.562348 -1.47226 0
M  V30 5063 C 478.842 -0.222492 -1.58042 0
M  V30 5064 C 479.042 1.27505 -1.56028 0
M  V30 5065 O 478.098 2.05555 -1.46641 0
M  V30 5066 C 479.411 -0.853694 -2.88327 0
M  V30 5067 C 480.959 -0.825397 -3.01921 0
M  V30 5068 C 481.434 -1.43576 -4.34914 0
M  V30 5069 N 482.925 -1.39918 -4.41562 0
M  V30 5070 C 483.66 -1.84103 -5.43041 0
M  V30 5071 N 483.156 -2.36167 -6.51304 0
M  V30 5072 N 484.949 -1.75142 -5.34118 0
M  V30 5073 H 477.1 -1.53525 -1.46778 0
M  V30 5074 H 479.363 -0.640527 -0.698877 0
M  V30 5075 H 479.069 -1.90635 -2.95552 0
M  V30 5076 H 478.943 -0.34977 -3.75575 0
M  V30 5077 H 481.33 0.218583 -2.94289 0
M  V30 5078 H 481.411 -1.36713 -2.16202 0
M  V30 5079 H 481.055 -2.47884 -4.43301 0
M  V30 5080 H 480.985 -0.869427 -5.19373 0
M  V30 5081 H 483.476 -1.0184 -3.63919 0
M  V30 5082 H 483.789 -2.67793 -7.24919 0
M  V30 5083 H 482.134 -2.40181 -6.52179 0
M  V30 5084 H 485.325 -1.34241 -4.48439 0
M  V30 5085 H 485.498 -2.09895 -6.13065 0
M  V30 5086 N 478.904 1.54736 -0.299062 0
M  V30 5087 C 480.153 1.99279 0.311549 0
M  V30 5088 C 480.466 1.19107 1.55154 0
M  V30 5089 O 481.672 1.53908 2.23662 0
M  V30 5090 C 480.128 3.54768 0.605632 0
M  V30 5091 C 479.736 4.43746 -0.615914 0
M  V30 5092 C 481.48 4.07841 1.17754 0
M  V30 5093 C 479.387 5.90663 -0.29509 0
M  V30 5094 H 478.317 0.744359 0.120187 0
M  V30 5095 H 480.968 1.78919 -0.407464 0
M  V30 5096 H 479.35 3.71021 1.38419 0
M  V30 5097 H 480.524 4.39267 -1.39218 0
M  V30 5098 H 478.839 4.01434 -1.10633 0
M  V30 5099 H 481.436 5.15174 1.43179 0
M  V30 5100 H 481.779 3.58324 2.11918 0
M  V30 5101 H 482.312 3.95123 0.460739 0
M  V30 5102 H 479.051 6.44325 -1.20524 0
M  V30 5103 H 478.571 5.98155 0.44394 0
M  V30 5104 H 480.25 6.46916 0.104048 0
M  V30 5105 N 480.382 0.0267497 1.57577 0
M  V30 5106 C 481.659 -0.690926 1.82991 0
M  V30 5107 C 482.039 -1.90471 0.910164 0
M  V30 5108 O 481.387 -2.28474 -0.0347985 0
M  V30 5109 C 481.597 -1.07139 3.32148 0
M  V30 5110 C 482.945 -1.46402 3.98562 0
M  V30 5111 O 483.969 -1.16443 3.36629 0
M  V30 5112 O 482.828 -2.02214 5.07712 0
M  V30 5113 H 479.922 -0.338747 0.75444 0
M  V30 5114 H 482.468 0.0542506 1.69613 0
M  V30 5115 H 481.24 -0.207394 3.9075 0
M  V30 5116 H 480.863 -1.87481 3.50623 0
M  V30 5117 N 481.861 -1.55662 -0.24637 0
M  V30 5118 C 483.107 -1.77782 -0.975779 0
M  V30 5119 C 483.44 -0.592103 -1.84953 0
M  V30 5120 O 482.715 0.409588 -1.90138 0
M  V30 5121 C 482.998 -3.09788 -1.83584 0
M  V30 5122 C 482.851 -4.38764 -0.990241 0
M  V30 5123 C 484.17 -3.38029 -2.81823 0
M  V30 5124 H 481.289 -0.646789 -0.353317 0
M  V30 5125 H 483.931 -1.88398 -0.246248 0
M  V30 5126 H 482.081 -3.00869 -2.45784 0
M  V30 5127 H 483.753 -4.59675 -0.386897 0
M  V30 5128 H 481.996 -4.32798 -0.294626 0
M  V30 5129 H 482.667 -5.27514 -1.62584 0
M  V30 5130 H 485.143 -3.46915 -2.2976 0
M  V30 5131 H 484.019 -4.3161 -3.39122 0
M  V30 5132 H 484.28 -2.58968 -3.58313 0
M  V30 5133 N 483.339 0.512053 -1.4905 0
M  V30 5134 C 484.588 1.26343 -1.57227 0
M  V30 5135 C 484.901 1.93876 -0.259155 0
M  V30 5136 O 486.107 2.70612 -0.219358 0
M  V30 5137 C 484.563 2.29343 -2.77362 0
M  V30 5138 C 484.171 1.67799 -4.15388 0
M  V30 5139 C 485.915 3.05378 -2.94864 0
M  V30 5140 C 483.822 2.68845 -5.2676 0
M  V30 5141 H 482.752 0.475231 -0.585382 0
M  V30 5142 H 485.403 0.53862 -1.75417 0
M  V30 5143 H 483.785 3.04938 -2.52643 0
M  V30 5144 H 484.959 0.982715 -4.50199 0
M  V30 5145 H 483.274 1.04194 -4.03153 0
M  V30 5146 H 485.871 3.80921 -3.75238 0
M  V30 5147 H 486.214 3.62327 -2.05 0
M  V30 5148 H 486.747 2.36898 -3.19569 0
M  V30 5149 H 483.486 2.16692 -6.18647 0
M  V30 5150 H 483.006 3.36647 -4.96416 0
M  V30 5151 H 484.685 3.31487 -5.5563 0
M  V30 5152 N 484.817 1.37938 0.762283 0
M  V30 5153 C 486.063 1.33866 1.52341 0
M  V30 5154 C 486.396 -0.0738961 1.94059 0
M  V30 5155 O 485.671 -1.03326 1.64785 0
M  V30 5156 C 485.954 2.28644 2.78197 0
M  V30 5157 C 485.807 3.78722 2.42672 0
M  V30 5158 C 487.126 2.21702 3.80179 0
M  V30 5159 H 484.245 0.487593 0.55265 0
M  V30 5160 H 486.887 1.68717 0.873767 0
M  V30 5161 H 485.037 1.99055 3.33631 0
M  V30 5162 H 486.709 4.18948 1.93081 0
M  V30 5163 H 484.952 3.96827 1.75244 0
M  V30 5164 H 485.623 4.40486 3.3268 0
M  V30 5165 H 488.099 2.47805 3.34263 0
M  V30 5166 H 486.975 2.90143 4.65949 0
M  V30 5167 H 487.236 1.21301 4.25133 0
M  V30 5168 N 486.295 -0.989507 1.22664 0
M  V30 5169 C 487.245 -2.06478 0.967005 0
M  V30 5170 C 488.229 -1.60682 -0.0836374 0
M  V30 5171 O 489.421 -1.76541 0.127322 0
M  V30 5172 C 486.55 -3.38861 0.550313 0
M  V30 5173 C 485.636 -3.9128 1.63587 0
M  V30 5174 N 486.027 -4.16884 2.86429 0
M  V30 5175 C 484.325 -4.1972 1.50834 0
M  V30 5176 C 485.026 -4.5954 3.56648 0
M  V30 5177 N 484.002 -4.63434 2.84131 0
M  V30 5178 H 487.804 -2.24219 1.90008 0
M  V30 5179 H 485.318 -1.17153 1.12467 0
M  V30 5180 H 487.315 -4.15465 0.345612 0
M  V30 5181 H 485.975 -3.22518 -0.375822 0
M  V30 5182 H 486.986 -4.04976 3.22823 0
M  V30 5183 H 483.663 -4.1243 0.648643 0
M  V30 5184 H 485.053 -4.87944 4.61909 0
M  V30 5185 N 487.773 -1.03688 -1.18687 0
M  V30 5186 C 489.021 -0.736572 -1.88199 0
M  V30 5187 C 489.342 0.737665 -1.80509 0
M  V30 5188 O 488.612 1.53204 -1.22088 0
M  V30 5189 H 487.192 -0.269466 -0.696704 0
M  V30 5190 H 489.854 -1.31282 -1.44052 0
M  V30 5191 H 488.95 -1.03802 -2.94332 0
M  V30 5192 N 489.251 1.34841 -0.815825 0
M  V30 5193 C 490.183 2.28409 -0.190265 0
M  V30 5194 C 491.196 1.50705 0.615771 0
M  V30 5195 O 492.385 1.72822 0.446616 0
M  V30 5196 C 489.485 3.30441 0.752446 0
M  V30 5197 C 488.658 4.37399 -0.00922152 0
M  V30 5198 C 487.717 5.19234 0.853351 0
M  V30 5199 O 486.743 5.68404 0.300919 0
M  V30 5200 N 487.945 5.38248 2.17416 0
M  V30 5201 H 490.71 2.82732 -0.994114 0
M  V30 5202 H 488.271 1.47289 -0.672129 0
M  V30 5203 H 490.263 3.82084 1.33394 0
M  V30 5204 H 488.833 2.76565 1.45707 0
M  V30 5205 H 488.053 3.86567 -0.771979 0
M  V30 5206 H 489.341 5.05992 -0.533807 0
M  V30 5207 H 488.739 4.99961 2.6468 0
M  V30 5208 H 487.296 5.93035 2.70467 0
M  V30 5209 N 490.729 0.570148 1.46925 0
M  V30 5210 C 491.692 -0.159933 2.28641 0
M  V30 5211 C 492.692 -0.830638 1.37685 0
M  V30 5212 O 493.882 -0.684516 1.60187 0
M  V30 5213 C 491.014 -1.2354 3.17727 0
M  V30 5214 H 492.207 0.558035 2.94662 0
M  V30 5215 H 489.76 0.327603 1.52828 0
M  V30 5216 H 490.495 -1.98535 2.56426 0
M  V30 5217 H 490.28 -0.759125 3.84681 0
M  V30 5218 H 491.77 -1.74782 3.79264 0
M  V30 5219 N 492.207 -1.54576 0.307264 0
M  V30 5220 C 493.455 -1.99867 -0.299574 0
M  V30 5221 C 493.776 -1.19714 -1.53927 0
M  V30 5222 O 493.046 -0.29472 -1.9367 0
M  V30 5223 H 491.626 -0.738299 -0.113683 0
M  V30 5224 H 494.288 -1.9032 0.420042 0
M  V30 5225 H 493.384 -3.06901 -0.567283 0
M  V30 5226 N 493.685 -0.035106 -1.57561 0
M  V30 5227 C 494.632 0.94474 -2.10578 0
M  V30 5228 C 495.602 1.3192 -1.00927 0
M  V30 5229 O 496.787 1.41147 -1.28382 0
M  V30 5230 C 493.927 2.21982 -2.64231 0
M  V30 5231 C 493.04 1.90128 -3.87911 0
M  V30 5232 C 492.175 3.11975 -4.29936 0
M  V30 5233 C 491.214 2.75968 -5.46359 0
M  V30 5234 N 490.351 3.90459 -5.83512 0
M  V30 5235 H 495.191 0.485717 -2.94015 0
M  V30 5236 H 492.728 0.228143 -1.4532 0
M  V30 5237 H 494.686 2.96572 -2.9343 0
M  V30 5238 H 493.316 2.6549 -1.83616 0
M  V30 5239 H 492.368 1.05755 -3.65404 0
M  V30 5240 H 493.68 1.59613 -4.72573 0
M  V30 5241 H 492.834 3.9488 -4.60603 0
M  V30 5242 H 491.573 3.45657 -3.44053 0
M  V30 5243 H 490.578 1.91478 -5.1538 0
M  V30 5244 H 491.803 2.43497 -6.33945 0
M  V30 5245 H 489.749 4.23971 -5.00584 0
M  V30 5246 H 489.666 3.63588 -6.62827 0
M  V30 5247 H 490.934 4.7405 -6.18787 0
M  V30 5248 N 495.163 1.55791 0.238111 0
M  V30 5249 C 496.41 1.78033 0.964907 0
M  V30 5250 C 496.738 0.600984 1.84982 0
M  V30 5251 O 495.993 -0.41536 1.91241 0
M  V30 5252 C 496.292 3.05869 1.84875 0
M  V30 5253 C 495.958 4.36808 1.11846 0
M  V30 5254 C 494.62 4.72388 0.916662 0
M  V30 5255 C 496.972 5.17717 0.60151 0
M  V30 5256 C 494.3 5.86406 0.185756 0
M  V30 5257 C 496.652 6.32494 -0.115972 0
M  V30 5258 C 495.316 6.66688 -0.329168 0
M  V30 5259 H 494.586 0.651469 0.353085 0
M  V30 5260 H 497.233 1.90061 0.234318 0
M  V30 5261 H 495.538 2.88891 2.64668 0
M  V30 5262 H 497.235 3.20278 2.41294 0
M  V30 5263 H 493.825 4.08862 1.28569 0
M  V30 5264 H 498.009 4.90678 0.744932 0
M  V30 5265 H 493.265 6.11399 0.0101886 0
M  V30 5266 H 497.439 6.94425 -0.524127 0
M  V30 5267 H 495.066 7.54884 -0.897474 0
M  V30 5268 N 496.642 -0.504142 1.49319 0
M  V30 5269 C 497.867 -1.28729 1.62615 0
M  V30 5270 C 498.292 -1.85752 0.296309 0
M  V30 5271 O 497.65 -1.65704 -0.735649 0
M  V30 5272 C 497.698 -2.39561 2.69524 0
M  V30 5273 O 496.802 -3.43324 2.28478 0
M  V30 5274 H 496.143 -0.380172 0.544395 0
M  V30 5275 H 498.673 -0.603872 1.95485 0
M  V30 5276 H 498.683 -2.8537 2.91595 0
M  V30 5277 H 497.358 -1.97423 3.66056 0
M  V30 5278 H 495.935 -3.03455 2.16725 0
M  V30 5279 N 498.12 -1.38341 -0.754957 0
M  V30 5280 C 499.05 -1.38176 -1.88227 0
M  V30 5281 C 500.031 -0.247873 -1.68284 0
M  V30 5282 O 501.216 -0.45075 -1.88896 0
M  V30 5283 C 498.346 -1.20471 -3.25736 0
M  V30 5284 C 497.3 -2.3105 -3.60278 0
M  V30 5285 C 496.626 -1.98452 -4.96509 0
M  V30 5286 C 497.926 -3.73305 -3.65295 0
M  V30 5287 H 499.62 -2.32512 -1.88622 0
M  V30 5288 H 497.166 -1.1192 -0.906082 0
M  V30 5289 H 499.119 -1.18982 -4.04254 0
M  V30 5290 H 497.843 -0.225965 -3.25817 0
M  V30 5291 H 496.502 -2.31723 -2.84078 0
M  V30 5292 H 496.15 -0.990641 -4.93148 0
M  V30 5293 H 495.85 -2.7251 -5.20588 0
M  V30 5294 H 497.374 -1.98578 -5.77407 0
M  V30 5295 H 498.788 -3.7467 -4.3393 0
M  V30 5296 H 497.185 -4.46557 -4.00883 0
M  V30 5297 H 498.255 -4.05719 -2.65556 0
M  V30 5298 N 499.598 0.982988 -1.23187 0
M  V30 5299 C 500.847 1.71817 -1.05649 0
M  V30 5300 C 501.16 1.91315 0.407176 0
M  V30 5301 O 502.366 2.62256 0.702436 0
M  V30 5302 C 500.822 3.09188 -1.84203 0
M  V30 5303 C 500.43 2.97586 -3.34882 0
M  V30 5304 C 502.174 3.86684 -1.75146 0
M  V30 5305 C 500.081 4.30173 -4.05839 0
M  V30 5306 H 499.011 0.644258 -0.391724 0
M  V30 5307 H 501.662 1.09659 -1.4713 0
M  V30 5308 H 500.044 3.72087 -1.35527 0
M  V30 5309 H 501.218 2.43793 -3.91026 0
M  V30 5310 H 499.533 2.33567 -3.44725 0
M  V30 5311 H 502.13 4.84836 -2.25473 0
M  V30 5312 H 502.473 4.10136 -0.713737 0
M  V30 5313 H 503.006 3.30482 -2.21419 0
M  V30 5314 H 499.745 4.11918 -5.09906 0
M  V30 5315 H 499.265 4.83841 -3.54482 0
M  V30 5316 H 500.944 4.98873 -4.11989 0
M  V30 5317 N 501.076 1.04316 1.18135 0
M  V30 5318 C 502.487 0.775505 1.69832 0
M  V30 5319 C 502.838 -0.703348 1.8316 0
M  V30 5320 O 501.963 -1.54729 1.51287 0
M  V30 5321 C 502.558 1.40112 3.0847 0
M  V30 5322 C 501.117 1.18172 3.57368 0
M  V30 5323 C 500.264 1.49022 2.33854 0
M  V30 5324 H 503.215 1.20925 1.02775 0
M  V30 5325 H 503.236 0.805672 3.71873 0
M  V30 5326 H 502.748 2.47744 2.98738 0
M  V30 5327 H 500.849 0.124258 3.72393 0
M  V30 5328 H 500.962 1.8805 4.40652 0
M  V30 5329 H 499.326 0.909995 2.37889 0
M  V30 5330 H 500.109 2.57768 2.26738 0
M  V30 5331 N 502.554 -1.34406 0.822964 0
M  V30 5332 C 503.782 -2.02508 0.424039 0
M  V30 5333 C 504.197 -1.61975 -0.970022 0
M  V30 5334 O 503.554 -0.825228 -1.62777 0
M  V30 5335 C 503.605 -3.57789 0.516657 0
M  V30 5336 O 503.326 -3.96853 1.85577 0
M  V30 5337 C 504.827 -4.43157 0.112637 0
M  V30 5338 H 502.047 -0.649063 0.170173 0
M  V30 5339 H 504.591 -1.7168 1.11113 0
M  V30 5340 H 502.746 -3.87207 -0.122353 0
M  V30 5341 H 503.16 -4.91538 1.83005 0
M  V30 5342 H 504.634 -5.51527 0.228526 0
M  V30 5343 H 505.111 -4.28939 -0.943837 0
M  V30 5344 H 505.717 -4.19067 0.725449 0
M  V30 5345 N 504.032 -0.577932 -1.46621 0
M  V30 5346 C 505.281 -0.0594281 -2.01612 0
M  V30 5347 C 505.594 1.30663 -1.45556 0
M  V30 5348 O 506.8 1.91621 -1.92337 0
M  V30 5349 C 505.256 -0.0556666 -3.59857 0
M  V30 5350 C 504.864 -1.41975 -4.24908 0
M  V30 5351 C 506.608 0.409143 -4.22524 0
M  V30 5352 C 504.515 -1.37397 -5.75218 0
M  V30 5353 H 503.445 -0.0184469 -0.753774 0
M  V30 5354 H 506.096 -0.728869 -1.68404 0
M  V30 5355 H 504.478 0.679843 -3.90121 0
M  V30 5356 H 505.652 -2.17461 -4.0626 0
M  V30 5357 H 503.967 -1.82419 -3.74316 0
M  V30 5358 H 506.564 0.46211 -5.32699 0
M  V30 5359 H 506.907 1.42565 -3.91128 0
M  V30 5360 H 507.44 -0.272152 -3.96868 0
M  V30 5361 H 504.179 -2.36714 -6.11267 0
M  V30 5362 H 503.699 -0.661239 -5.96144 0
M  V30 5363 H 505.378 -1.08484 -6.3784 0
M  V30 5364 N 505.51 1.54411 -0.315457 0
M  V30 5365 C 506.759 1.99599 0.290395 0
M  V30 5366 C 507.072 1.20746 1.53882 0
M  V30 5367 O 508.278 1.56272 2.22017 0
M  V30 5368 C 506.734 3.5539 0.56797 0
M  V30 5369 C 506.342 4.43068 -0.662945 0
M  V30 5370 C 508.086 4.09067 1.13422 0
M  V30 5371 C 505.993 5.90317 -0.357722 0
M  V30 5372 H 504.923 0.745592 0.112286 0
M  V30 5373 H 507.574 1.78477 -0.426418 0
M  V30 5374 H 505.956 3.72468 1.34476 0
M  V30 5375 H 507.13 4.37765 -1.43869 0
M  V30 5376 H 505.445 4.00238 -1.14884 0
M  V30 5377 H 508.042 5.16663 1.37707 0
M  V30 5378 H 508.385 3.60552 2.08106 0
M  V30 5379 H 508.918 3.95589 0.418805 0
M  V30 5380 H 505.657 6.4301 -1.27351 0
M  V30 5381 H 505.177 5.98592 0.380472 0
M  V30 5382 H 506.856 6.4699 0.0354284 0
M  V30 5383 N 506.988 0.0434614 1.5754 0
M  V30 5384 C 507.936 -0.951465 2.1225 0
M  V30 5385 C 508.93 -1.3274 1.05245 0
M  V30 5386 O 510.136 -1.30795 1.23663 0
M  V30 5387 H 506.511 -0.324667 0.678303 0
M  V30 5388 H 508.482 -0.464855 2.94757 0
M  V30 5389 C 507.231 -2.21972 2.67626 0
M  V30 5390 H 506.554 -1.93923 3.4962 0
M  V30 5391 H 507.994 -2.89765 3.09536 0
M  V30 5392 C 506.453 -2.95919 1.61038 0
M  V30 5393 O 506.983 -3.8857 1.01862 0
M  V30 5394 N 505.189 -2.58511 1.32741 0
M  V30 5395 H 504.736 -1.83244 1.81051 0
M  V30 5396 H 504.694 -3.08296 0.616531 0
M  V30 5397 N 508.466 -1.55915 -0.229846 0
M  V30 5398 C 509.396 -1.94754 -1.28815 0
M  V30 5399 C 510.377 -0.814657 -1.49323 0
M  V30 5400 O 511.562 -1.07631 -1.61645 0
M  V30 5401 C 508.692 -2.25705 -2.63959 0
M  V30 5402 C 507.646 -3.41406 -2.5812 0
M  V30 5403 C 506.972 -3.57941 -3.97218 0
M  V30 5404 C 508.272 -4.76616 -2.13623 0
M  V30 5405 H 509.966 -2.83404 -0.965547 0
M  V30 5406 H 507.512 -1.36353 -0.463028 0
M  V30 5407 H 509.465 -2.51467 -3.38146 0
M  V30 5408 H 508.189 -1.339 -2.9789 0
M  V30 5409 H 506.848 -3.1568 -1.86391 0
M  V30 5410 H 506.496 -2.63526 -4.28443 0
M  V30 5411 H 506.196 -4.35757 -3.94195 0
M  V30 5412 H 507.72 -3.86042 -4.73079 0
M  V30 5413 H 509.134 -5.01637 -2.77549 0
M  V30 5414 H 507.531 -5.57655 -2.21677 0
M  V30 5415 H 508.601 -4.7253 -1.08829 0
M  V30 5416 N 509.944 0.496216 -1.49584 0
M  V30 5417 C 510.907 1.57952 -1.66084 0
M  V30 5418 C 511.907 1.51729 -0.53244 0
M  V30 5419 O 513.097 1.54796 -0.79899 0
M  V30 5420 C 510.229 2.97604 -1.66268 0
M  V30 5421 H 511.422 1.44649 -2.6271 0
M  V30 5422 H 508.975 0.7208 -1.38687 0
M  V30 5423 H 509.71 3.16378 -0.712432 0
M  V30 5424 H 509.495 3.03528 -2.4822 0
M  V30 5425 H 510.985 3.76301 -1.81073 0
M  V30 5426 N 511.423 1.38739 0.74761 0
M  V30 5427 C 512.651 1.38521 1.53686 0
M  V30 5428 C 513.066 -0.0235129 1.88785 0
M  V30 5429 O 512.423 -0.991662 1.53207 0
M  V30 5430 C 512.474 2.24641 2.83229 0
M  V30 5431 O 512.195 3.60026 2.49625 0
M  V30 5432 C 513.696 2.32669 3.77333 0
M  V30 5433 H 510.916 0.473589 0.475347 0
M  V30 5434 H 513.46 1.82395 0.924786 0
M  V30 5435 H 511.615 1.84213 3.40799 0
M  V30 5436 H 512.029 4.05435 3.3275 0
M  V30 5437 H 513.503 2.97201 4.65162 0
M  V30 5438 H 513.98 1.3421 4.18192 0
M  V30 5439 H 514.586 2.73512 3.25685 0
M  V30 5440 N 512.901 -0.976442 1.23707 0
M  V30 5441 C 513.864 -2.0511 1.02287 0
M  V30 5442 C 514.864 -1.60791 -0.0167195 0
M  V30 5443 O 516.054 -1.72761 0.223408 0
M  V30 5444 C 513.186 -3.36458 0.548507 0
M  V30 5445 H 514.379 -2.25545 1.9766 0
M  V30 5446 H 511.932 -1.15042 1.05806 0
M  V30 5447 H 512.667 -3.21713 -0.408818 0
M  V30 5448 H 512.452 -3.69967 1.29874 0
M  V30 5449 H 513.942 -4.15489 0.419406 0
M  V30 5450 N 514.379 -1.04941 -1.1758 0
M  V30 5451 C 515.309 -0.669172 -2.23706 0
M  V30 5452 C 516.29 0.331835 -1.66832 0
M  V30 5453 O 517.475 0.209988 -1.93061 0
M  V30 5454 C 514.605 -0.0404889 -3.47276 0
M  V30 5455 C 513.559 -0.965983 -4.16957 0
M  V30 5456 C 512.885 -0.201312 -5.34321 0
M  V30 5457 C 514.185 -2.28902 -4.69469 0
M  V30 5458 H 515.879 -1.55639 -2.55767 0
M  V30 5459 H 513.425 -0.749793 -1.22939 0
M  V30 5460 H 515.378 0.237298 -4.20731 0
M  V30 5461 H 514.102 0.881658 -3.14475 0
M  V30 5462 H 512.761 -1.22829 -3.45411 0
M  V30 5463 H 512.409 0.723519 -4.97769 0
M  V30 5464 H 512.109 -0.817968 -5.81879 0
M  V30 5465 H 513.633 0.0692499 -6.10561 0
M  V30 5466 H 515.047 -2.07132 -5.34574 0
M  V30 5467 H 513.444 -2.85942 -5.27596 0
M  V30 5468 H 514.514 -2.92937 -3.86414 0
M  V30 5469 N 515.857 1.33968 -0.830081 0
M  V30 5470 C 517.085 2.0228 -0.434773 0
M  V30 5471 C 517.5 1.62487 0.961419 0
M  V30 5472 O 516.857 0.833849 1.62337 0
M  V30 5473 C 516.908 3.5751 -0.535625 0
M  V30 5474 O 516.629 3.95864 -1.87679 0
M  V30 5475 C 518.13 4.43091 -0.136137 0
M  V30 5476 H 515.35 0.648151 -0.173613 0
M  V30 5477 H 517.894 1.71089 -1.12022 0
M  V30 5478 H 516.049 3.87266 0.101817 0
M  V30 5479 H 516.463 4.9056 -1.85609 0
M  V30 5480 H 517.937 5.51398 -0.257772 0
M  V30 5481 H 518.414 4.29433 0.921076 0
M  V30 5482 H 519.02 4.18677 -0.747662 0
M  V30 5483 N 517.335 0.585699 1.46312 0
M  V30 5484 C 518.56 0.0762461 2.0726 0
M  V30 5485 C 518.985 -1.22071 1.43109 0
M  V30 5486 O 518.343 -1.73804 0.515942 0
M  V30 5487 C 518.391 -0.0729404 3.60526 0
M  V30 5488 O 517.495 -1.1287 3.96654 0
M  V30 5489 H 516.836 0.0641558 0.660893 0
M  V30 5490 H 519.366 0.809492 1.87905 0
M  V30 5491 H 519.376 -0.278158 4.07051 0
M  V30 5492 H 518.051 0.874188 4.06609 0
M  V30 5493 H 516.628 -0.901703 3.61834 0
M  V30 5494 N 518.813 -1.54241 0.323641 0
M  V30 5495 C 520.059 -2.00867 -0.279323 0
M  V30 5496 C 520.392 -1.21146 -1.5178 0
M  V30 5497 O 519.667 -0.29378 -1.92269 0
M  V30 5498 C 519.95 -3.54837 -0.613387 0
M  V30 5499 C 519.803 -4.45284 0.635803 0
M  V30 5500 C 521.122 -4.16186 -1.43099 0
M  V30 5501 H 518.241 -0.730177 -0.100049 0
M  V30 5502 H 520.883 -1.84829 0.440235 0
M  V30 5503 H 519.033 -3.68634 -1.22641 0
M  V30 5504 H 520.705 -4.43357 1.27406 0
M  V30 5505 H 518.948 -4.14956 1.26466 0
M  V30 5506 H 519.619 -5.5084 0.357597 0
M  V30 5507 H 522.095 -4.05964 -0.912814 0
M  V30 5508 H 520.971 -5.24031 -1.6335 0
M  V30 5509 H 521.232 -3.69516 -2.42715 0
M  V30 5510 N 520.291 -0.0518155 -1.57515 0
M  V30 5511 C 521.539 0.620595 -1.92336 0
M  V30 5512 C 521.86 1.71345 -0.930907 0
M  V30 5513 O 521.13 1.95885 0.0241341 0
M  V30 5514 H 519.71 0.232226 -0.709986 0
M  V30 5515 H 522.372 -0.104969 -1.94617 0
M  V30 5516 H 521.468 1.05879 -2.93592 0
M  V30 5517 N 521.769 1.56035 0.221574 0
M  V30 5518 C 523.015 1.79312 0.947372 0
M  V30 5519 C 523.348 0.621453 1.83988 0
M  V30 5520 O 522.623 -0.379287 1.90766 0
M  V30 5521 C 522.906 3.1267 1.78633 0
M  V30 5522 C 522.759 4.40284 0.920312 0
M  V30 5523 C 524.078 3.4247 2.7641 0
M  V30 5524 H 521.197 0.652328 0.342982 0
M  V30 5525 H 523.839 1.88765 0.216244 0
M  V30 5526 H 521.989 3.04741 2.40967 0
M  V30 5527 H 523.661 4.60232 0.313718 0
M  V30 5528 H 521.904 4.33212 0.225734 0
M  V30 5529 H 522.575 5.30033 1.54171 0
M  V30 5530 H 525.051 3.50526 2.24211 0
M  V30 5531 H 523.927 4.3695 3.32213 0
M  V30 5532 H 524.188 2.64635 3.54148 0
M  V30 5533 N 523.247 -0.488276 1.49845 0
M  V30 5534 C 524.495 -1.23911 1.59657 0
M  V30 5535 C 524.816 -1.92816 0.291005 0
M  V30 5536 O 524.086 -1.83328 -0.690485 0
M  V30 5537 H 522.666 -0.460357 0.588286 0
M  V30 5538 H 525.328 -0.564794 1.86537 0
M  V30 5539 H 524.424 -1.99625 2.39909 0
M  V30 5540 N 524.725 -1.39134 -0.740242 0
M  V30 5541 C 525.95 -1.39518 -1.53459 0
M  V30 5542 C 526.375 0.00968883 -1.88098 0
M  V30 5543 O 525.733 0.995312 -1.51536 0
M  V30 5544 C 525.781 -2.26981 -2.802 0
M  V30 5545 O 524.885 -1.69609 -3.75908 0
M  V30 5546 H 524.226 -0.475328 -0.463637 0
M  V30 5547 H 526.756 -1.83064 -0.913717 0
M  V30 5548 H 526.766 -2.41309 -3.28989 0
M  V30 5549 H 525.441 -3.29081 -2.5432 0
M  V30 5550 H 524.018 -1.64495 -3.34658 0
M  V30 5551 N 526.204 0.969867 -1.24223 0
M  V30 5552 C 527.451 1.71256 -1.08063 0
M  V30 5553 C 527.779 1.90734 0.380872 0
M  V30 5554 O 527.034 1.46469 1.29789 0
M  V30 5555 C 527.333 3.10883 -1.76314 0
M  V30 5556 C 526.999 3.11252 -3.26241 0
M  V30 5557 C 525.661 3.1106 -3.67144 0
M  V30 5558 C 528.013 3.05751 -4.22097 0
M  V30 5559 C 525.341 3.03097 -5.02344 0
M  V30 5560 C 527.693 2.9933 -5.57301 0
M  V30 5561 C 526.357 2.97466 -5.97554 0
M  V30 5562 H 525.627 0.62667 -0.395431 0
M  V30 5563 H 528.274 1.13422 -1.54297 0
M  V30 5564 H 526.579 3.72168 -1.22468 0
M  V30 5565 H 528.276 3.67138 -1.61277 0
M  V30 5566 H 524.866 3.12165 -2.93685 0
M  V30 5567 H 529.05 3.05031 -3.91497 0
M  V30 5568 H 524.306 3.00013 -5.32731 0
M  V30 5569 H 528.48 2.94033 -6.31283 0
M  V30 5570 H 526.107 2.91051 -7.02277 0
M  V30 5571 N 527.682 1.05563 1.17022 0
M  V30 5572 C 528.612 0.681026 2.23348 0
M  V30 5573 C 529.593 -0.322983 1.67005 0
M  V30 5574 O 530.778 -0.199746 1.9317 0
M  V30 5575 C 527.908 0.0589053 3.4725 0
M  V30 5576 C 526.862 0.988082 4.16438 0
M  V30 5577 C 526.188 0.229646 5.34207 0
M  V30 5578 C 527.488 2.31388 4.68249 0
M  V30 5579 H 529.182 1.56993 2.54938 0
M  V30 5580 H 526.728 0.756302 1.2254 0
M  V30 5581 H 528.681 -0.214982 4.20851 0
M  V30 5582 H 527.405 -0.864968 3.14938 0
M  V30 5583 H 526.064 1.24659 3.44754 0
M  V30 5584 H 525.712 -0.697111 4.98146 0
M  V30 5585 H 525.412 0.848815 5.81437 0
M  V30 5586 H 526.936 -0.0368694 6.10589 0
M  V30 5587 H 528.35 2.09964 5.33468 0
M  V30 5588 H 526.747 2.88736 5.26072 0
M  V30 5589 H 527.817 2.94982 3.84855 0
M  V30 5590 N 529.16 -1.33526 0.837174 0
M  V30 5591 C 530.4 -1.99649 0.438115 0
M  V30 5592 C 530.764 -1.64879 -0.983816 0
M  V30 5593 O 531.965 -2.23956 -1.48651 0
M  V30 5594 C 530.236 -3.51431 0.650461 0
M  V30 5595 S 531.795 -4.37431 0.346371 0
M  V30 5596 H 528.613 -0.69162 0.164872 0
M  V30 5597 H 531.215 -1.62556 1.08609 0
M  V30 5598 H 529.919 -3.74225 1.68475 0
M  V30 5599 H 529.45 -3.93398 -0.0117309 0
M  V30 5600 H 531.465 -4.89132 -0.834504 0
M  V30 5601 N 530.638 -0.59345 -1.46 0
M  V30 5602 C 531.915 -0.0157933 -1.95594 0
M  V30 5603 C 532.295 1.44807 -1.53604 0
M  V30 5604 O 531.643 2.14342 -0.791824 0
M  V30 5605 C 531.853 -0.199081 -3.48432 0
M  V30 5606 C 533.201 -0.0724943 -4.24538 0
M  V30 5607 O 534.225 -0.128469 -3.55968 0
M  V30 5608 O 533.084 0.0542426 -5.46473 0
M  V30 5609 H 530.178 0.043749 -0.825842 0
M  V30 5610 H 532.724 -0.662522 -1.56233 0
M  V30 5611 H 531.496 -1.21631 -3.71916 0
M  V30 5612 H 531.119 0.483576 -3.94648 0
M  V30 5613 N 532.116 1.54067 -0.331816 0
M  V30 5614 C 533.362 2.01713 0.261395 0
M  V30 5615 C 533.717 1.21566 1.49129 0
M  V30 5616 O 533.01 0.291867 1.89364 0
M  V30 5617 C 533.204 3.51634 0.639392 0
M  V30 5618 C 533.033 4.46295 -0.552321 0
M  V30 5619 C 531.803 4.94185 -1.05399 0
M  V30 5620 C 534.001 4.94677 -1.40711 0
M  V30 5621 N 531.983 5.7277 -2.20925 0
M  V30 5622 C 533.354 5.71267 -2.40943 0
M  V30 5623 C 535.409 4.76805 -1.43392 0
M  V30 5624 C 534.112 6.31889 -3.4367 0
M  V30 5625 C 536.138 5.38268 -2.44994 0
M  V30 5626 C 535.5 6.14716 -3.43952 0
M  V30 5627 H 531.599 0.77975 0.0592729 0
M  V30 5628 H 534.183 1.88974 -0.468726 0
M  V30 5629 H 532.354 3.64603 1.33863 0
M  V30 5630 H 534.086 3.86038 1.21478 0
M  V30 5631 H 530.841 4.69472 -0.623952 0
M  V30 5632 H 531.265 6.16737 -2.79222 0
M  V30 5633 H 535.907 4.17255 -0.682489 0
M  V30 5634 H 533.625 6.90554 -4.19715 0
M  V30 5635 H 537.211 5.26352 -2.4788 0
M  V30 5636 H 536.091 6.6143 -4.21283 0
M  V30 5637 N 533.594 0.0601682 1.57485 0
M  V30 5638 C 534.843 -0.611101 1.9222 0
M  V30 5639 C 535.156 -1.71469 0.941159 0
M  V30 5640 O 536.362 -2.44473 1.18089 0
M  V30 5641 C 534.818 -1.13832 3.41424 0
M  V30 5642 C 534.426 -0.0663596 4.47951 0
M  V30 5643 C 536.17 -1.78432 3.85178 0
M  V30 5644 C 534.077 -0.606965 5.88277 0
M  V30 5645 H 533.007 -0.232033 0.71741 0
M  V30 5646 H 535.658 0.130518 1.83035 0
M  V30 5647 H 534.04 -1.93254 3.45643 0
M  V30 5648 H 535.214 0.707682 4.55333 0
M  V30 5649 H 533.529 0.482715 4.13593 0
M  V30 5650 H 536.126 -2.1989 4.87394 0
M  V30 5651 H 536.469 -2.63966 3.21913 0
M  V30 5652 H 537.002 -1.05651 3.83514 0
M  V30 5653 H 533.741 0.21095 6.5516 0
M  V30 5654 H 533.261 -1.34879 5.84438 0
M  V30 5655 H 534.94 -1.08704 6.37803 0
M  V30 5656 N 535.072 -1.5615 -0.213296 0
M  V30 5657 C 536.002 -1.96109 -1.26742 0
M  V30 5658 C 536.983 -0.830448 -1.48451 0
M  V30 5659 O 538.168 -1.09339 -1.60495 0
M  V30 5660 C 535.298 -2.28492 -2.61551 0
M  V30 5661 C 534.252 -3.44124 -2.54485 0
M  V30 5662 C 533.578 -3.62134 -3.93399 0
M  V30 5663 C 534.878 -4.78855 -2.08556 0
M  V30 5664 H 536.572 -2.84412 -0.935434 0
M  V30 5665 H 534.118 -1.36836 -0.44854 0
M  V30 5666 H 536.071 -2.55039 -3.3546 0
M  V30 5667 H 534.795 -1.37052 -2.96453 0
M  V30 5668 H 533.454 -3.17639 -1.83033 0
M  V30 5669 H 533.102 -2.68055 -4.25623 0
M  V30 5670 H 532.802 -4.39913 -3.89551 0
M  V30 5671 H 534.326 -3.91038 -4.68958 0
M  V30 5672 H 535.74 -5.04552 -2.72213 0
M  V30 5673 H 534.137 -5.59975 -2.1575 0
M  V30 5674 H 535.207 -4.73657 -1.03811 0
M  V30 5675 N 536.55 0.480323 -1.50102 0
M  V30 5676 C 537.48 1.58769 -1.71215 0
M  V30 5677 C 538.461 1.60583 -0.560997 0
M  V30 5678 O 539.646 1.76996 -0.799127 0
M  V30 5679 C 536.776 2.97148 -1.79778 0
M  V30 5680 C 535.73 3.10201 -2.94888 0
M  V30 5681 C 535.056 4.50137 -2.88584 0
M  V30 5682 C 536.356 2.88283 -4.35534 0
M  V30 5683 H 538.05 1.41354 -2.6393 0
M  V30 5684 H 535.596 0.678591 -1.27008 0
M  V30 5685 H 537.549 3.74536 -1.93133 0
M  V30 5686 H 536.273 3.15699 -0.836772 0
M  V30 5687 H 534.932 2.35244 -2.81169 0
M  V30 5688 H 534.58 4.65593 -1.90349 0
M  V30 5689 H 534.28 4.59808 -3.65856 0
M  V30 5690 H 535.804 5.29558 -3.03976 0
M  V30 5691 H 537.218 3.55427 -4.49827 0
M  V30 5692 H 535.615 3.09408 -5.14186 0
M  V30 5693 H 536.685 1.84219 -4.48544 0
M  V30 5694 N 538.028 1.39524 0.732853 0
M  V30 5695 C 539.256 1.40143 1.52209 0
M  V30 5696 C 539.671 -0.00348836 1.888 0
M  V30 5697 O 539.028 -0.975357 1.5425 0
M  V30 5698 C 539.079 2.27632 2.8083 0
M  V30 5699 O 538.8 3.62654 2.45792 0
M  V30 5700 C 540.301 2.36658 3.74844 0
M  V30 5701 H 537.521 0.478604 0.470297 0
M  V30 5702 H 540.065 1.83366 0.905388 0
M  V30 5703 H 538.22 1.87818 3.38826 0
M  V30 5704 H 538.634 4.08941 3.28431 0
M  V30 5705 H 540.108 3.02118 4.61984 0
M  V30 5706 H 540.585 1.38638 4.16745 0
M  V30 5707 H 541.191 2.76951 3.22766 0
M  V30 5708 N 539.506 -0.963266 1.24736 0
M  V30 5709 C 540.753 -1.7068 1.0897 0
M  V30 5710 C 541.081 -1.90934 -0.370751 0
M  V30 5711 O 540.336 -1.47155 -1.29011 0
M  V30 5712 C 540.635 -3.09944 1.7796 0
M  V30 5713 C 540.301 -3.09518 3.27887 0
M  V30 5714 C 538.963 -3.09109 3.68789 0
M  V30 5715 C 541.315 -3.03509 4.23712 0
M  V30 5716 C 538.643 -3.00429 5.03944 0
M  V30 5717 C 540.995 -2.96371 5.5888 0
M  V30 5718 C 539.659 -2.94293 5.99123 0
M  V30 5719 H 538.929 -0.624564 0.398749 0
M  V30 5720 H 541.576 -1.12603 1.54896 0
M  V30 5721 H 539.881 -3.71513 1.2444 0
M  V30 5722 H 541.578 -3.66278 1.63222 0
M  V30 5723 H 538.168 -3.10603 2.95337 0
M  V30 5724 H 542.352 -3.0295 3.93109 0
M  V30 5725 H 537.608 -2.97183 5.34314 0
M  V30 5726 H 541.782 -2.90681 6.32833 0
M  V30 5727 H 539.409 -2.87322 7.03811 0
M  V30 5728 N 540.985 -1.06182 -1.16461 0
M  V30 5729 C 541.918 -0.615859 -2.19733 0
M  V30 5730 C 542.896 0.360766 -1.58547 0
M  V30 5731 O 544.08 0.270009 -1.86556 0
M  V30 5732 C 541.207 0.097312 -3.3856 0
M  V30 5733 C 540.253 -0.835889 -4.18229 0
M  V30 5734 S 541.086 -2.33052 -4.82128 0
M  V30 5735 C 542.242 -1.62881 -6.04335 0
M  V30 5736 H 542.475 -1.49079 -2.57221 0
M  V30 5737 H 540.008 -0.874692 -1.27234 0
M  V30 5738 H 541.966 0.502563 -4.07412 0
M  V30 5739 H 540.627 0.948418 -2.99439 0
M  V30 5740 H 539.82 -0.283426 -5.03202 0
M  V30 5741 H 539.422 -1.18097 -3.54865 0
M  V30 5742 H 541.714 -0.933764 -6.71034 0
M  V30 5743 H 542.657 -2.45641 -6.64128 0
M  V30 5744 H 543.065 -1.11189 -5.53441 0
M  V30 5745 N 542.463 1.3308 -0.844243 0
M  V30 5746 C 543.411 2.31028 -0.269954 0
M  V30 5747 C 544.405 1.58381 0.600997 0
M  V30 5748 O 545.611 1.73203 0.48996 0
M  V30 5749 H 541.986 0.748866 -0.0685782 0
M  V30 5750 H 543.957 2.76967 -1.11049 0
M  V30 5751 C 542.706 3.43549 0.535676 0
M  V30 5752 H 542.029 3.99604 -0.125202 0
M  V30 5753 H 543.469 4.14267 0.903262 0
M  V30 5754 C 541.928 2.8988 1.71672 0
M  V30 5755 O 542.458 2.86511 2.81557 0
M  V30 5756 N 540.664 2.46416 1.54037 0
M  V30 5757 H 540.211 2.49356 0.64649 0
M  V30 5758 H 540.169 2.1086 2.33207 0
M  V30 5759 N 543.941 0.601185 1.45683 0
M  V30 5760 C 544.888 -0.121396 2.30481 0
M  V30 5761 C 545.858 -0.866232 1.41724 0
M  V30 5762 O 547.043 -0.85324 1.70659 0
M  V30 5763 C 544.183 -1.11704 3.26521 0
M  V30 5764 C 543.296 -0.373741 4.3038 0
M  V30 5765 C 542.431 -1.35854 5.13534 0
M  V30 5766 C 541.47 -0.602689 6.09126 0
M  V30 5767 N 540.607 -1.53645 6.85082 0
M  V30 5768 H 545.447 0.607732 2.91737 0
M  V30 5769 H 542.984 0.311502 1.43764 0
M  V30 5770 H 544.942 -1.70735 3.80664 0
M  V30 5771 H 543.572 -1.81366 2.67032 0
M  V30 5772 H 542.624 0.331962 3.78949 0
M  V30 5773 H 543.936 0.2163 4.98331 0
M  V30 5774 H 543.09 -2.02111 5.72046 0
M  V30 5775 H 541.829 -1.98251 4.45587 0
M  V30 5776 H 540.834 0.0735482 5.49751 0
M  V30 5777 H 542.059 0.0161467 6.79098 0
M  V30 5778 H 540.005 -2.14819 6.1983 0
M  V30 5779 H 539.922 -0.999688 7.49361 0
M  V30 5780 H 541.19 -2.1888 7.48139 0
M  V30 5781 N 545.419 -1.53889 0.339982 0
M  V30 5782 C 546.367 -2.26391 -0.533822 0
M  V30 5783 C 547.361 -1.28404 -1.10493 0
M  V30 5784 O 548.567 -1.46124 -1.05108 0
M  V30 5785 H 544.942 -0.727385 -0.190828 0
M  V30 5786 H 546.913 -2.98233 0.0997484 0
M  V30 5787 C 545.662 -3.04707 -1.67479 0
M  V30 5788 H 544.985 -3.79934 -1.2446 0
M  V30 5789 H 546.425 -3.58657 -2.26144 0
M  V30 5790 C 544.884 -2.13989 -2.60212 0
M  V30 5791 O 545.414 -1.73361 -3.62366 0
M  V30 5792 N 543.62 -1.79141 -2.28816 0
M  V30 5793 H 543.167 -2.12378 -1.45785 0
M  V30 5794 H 543.125 -1.18725 -2.91121 0
M  V30 5795 N 546.897 -0.0685191 -1.57451 0
M  V30 5796 C 547.844 0.899861 -2.12535 0
M  V30 5797 C 548.814 1.29749 -1.03703 0
M  V30 5798 O 549.999 1.38392 -1.31348 0
M  V30 5799 C 547.139 2.16328 -2.6888 0
M  V30 5800 C 546.252 1.81857 -3.91857 0
M  V30 5801 C 545.387 3.02786 -4.36457 0
M  V30 5802 C 544.426 2.64317 -5.5209 0
M  V30 5803 N 543.563 3.77994 -5.91663 0
M  V30 5804 H 548.403 0.423243 -2.94979 0
M  V30 5805 H 545.94 0.197268 -1.45771 0
M  V30 5806 H 547.898 2.90281 -2.99655 0
M  V30 5807 H 546.528 2.61536 -1.89206 0
M  V30 5808 H 545.58 0.979808 -3.67565 0
M  V30 5809 H 546.892 1.49553 -4.75852 0
M  V30 5810 H 546.046 3.85021 -4.68875 0
M  V30 5811 H 544.785 3.38281 -3.51308 0
M  V30 5812 H 543.79 1.80503 -5.19325 0
M  V30 5813 H 545.015 2.29995 -6.38967 0
M  V30 5814 H 542.961 4.13258 -5.09464 0
M  V30 5815 H 542.878 3.49447 -6.7039 0
M  V30 5816 H 544.146 4.60818 -6.28703 0
M  V30 5817 N 548.375 1.56261 0.205012 0
M  V30 5818 C 549.621 1.80306 0.9283 0
M  V30 5819 C 549.954 0.640932 1.83319 0
M  V30 5820 O 549.229 -0.359032 1.91158 0
M  V30 5821 C 549.512 3.14547 1.75306 0
M  V30 5822 C 549.365 4.41236 0.873562 0
M  V30 5823 C 550.684 3.45382 2.72762 0
M  V30 5824 H 547.803 0.655929 0.336044 0
M  V30 5825 H 550.445 1.88984 0.196211 0
M  V30 5826 H 548.595 3.0728 2.37721 0
M  V30 5827 H 550.267 4.60539 0.264887 0
M  V30 5828 H 548.51 4.33427 0.179773 0
M  V30 5829 H 549.181 5.31639 1.48541 0
M  V30 5830 H 551.657 3.52884 2.20481 0
M  V30 5831 H 550.533 4.40449 3.2756 0
M  V30 5832 H 550.794 2.68377 3.51321 0
M  V30 5833 N 549.853 -0.472356 1.50355 0
M  V30 5834 C 551.083 -1.24603 1.64796 0
M  V30 5835 C 551.491 -1.86297 0.330156 0
M  V30 5836 O 550.834 -1.69934 -0.697728 0
M  V30 5837 C 550.896 -2.39578 2.68035 0
M  V30 5838 C 550.56 -1.98531 4.11624 0
M  V30 5839 C 551.557 -1.50856 4.97532 0
M  V30 5840 C 549.242 -2.0729 4.57532 0
M  V30 5841 C 551.236 -1.12481 6.27397 0
M  V30 5842 C 548.923 -1.68527 5.87403 0
M  V30 5843 C 549.921 -1.212 6.7216 0
M  V30 5844 O 549.609 -0.829728 7.99607 0
M  V30 5845 H 549.341 -0.383035 0.55701 0
M  V30 5846 H 551.895 -0.570392 1.97321 0
M  V30 5847 H 550.125 -3.10309 2.30749 0
M  V30 5848 H 551.814 -3.01544 2.71709 0
M  V30 5849 H 552.58 -1.43511 4.63281 0
M  V30 5850 H 548.459 -2.43076 3.91708 0
M  V30 5851 H 552.003 -0.754698 6.93506 0
M  V30 5852 H 547.9 -1.7553 6.21176 0
M  V30 5853 H 548.668 -0.958689 8.12866 0
M  V30 5854 N 551.331 -1.39911 -0.725443 0
M  V30 5855 C 552.556 -1.41137 -1.5197 0
M  V30 5856 C 552.981 -0.010262 -1.88097 0
M  V30 5857 O 552.339 0.979184 -1.52583 0
M  V30 5858 C 552.387 -2.2994 -2.77777 0
M  V30 5859 O 551.491 -1.73586 -3.74088 0
M  V30 5860 H 550.832 -0.480219 -0.458569 0
M  V30 5861 H 553.362 -1.84023 -0.894249 0
M  V30 5862 H 553.372 -2.44785 -3.26411 0
M  V30 5863 H 552.047 -3.31759 -2.50816 0
M  V30 5864 H 550.624 -1.68035 -3.32894 0
M  V30 5865 N 552.809 0.956637 -1.25245 0
M  V30 5866 C 553.759 2.03841 -1.02141 0
M  V30 5867 C 554.743 1.60848 0.0410058 0
M  V30 5868 O 555.935 1.76142 -0.174084 0
M  V30 5869 C 553.064 3.37282 -0.639963 0
M  V30 5870 C 552.15 3.86805 -1.73903 0
M  V30 5871 N 552.541 4.09143 -2.97381 0
M  V30 5872 C 550.839 4.15574 -1.61909 0
M  V30 5873 C 551.54 4.49923 -3.68707 0
M  V30 5874 N 550.516 4.55737 -2.96318 0
M  V30 5875 H 554.318 2.19102 -1.95886 0
M  V30 5876 H 551.832 1.1413 -1.15534 0
M  V30 5877 H 553.829 4.14403 -0.455643 0
M  V30 5878 H 552.489 3.23401 0.29018 0
M  V30 5879 H 553.5 3.96275 -3.33447 0
M  V30 5880 H 550.177 4.10566 -0.757764 0
M  V30 5881 H 551.567 4.75526 -4.74684 0
M  V30 5882 N 554.287 1.06798 1.15896 0
M  V30 5883 C 555.234 0.683314 2.20453 0
M  V30 5884 C 556.204 -0.32255 1.62938 0
M  V30 5885 O 557.389 -0.210276 1.89638 0
M  V30 5886 C 554.529 0.0813266 3.45004 0
M  V30 5887 C 553.642 1.13799 4.16742 0
M  V30 5888 C 552.777 0.501598 5.28826 0
M  V30 5889 C 551.816 1.54144 5.92373 0
M  V30 5890 N 550.953 0.928038 6.9594 0
M  V30 5891 H 555.793 1.57932 2.52708 0
M  V30 5892 H 553.33 0.789544 1.24115 0
M  V30 5893 H 555.288 -0.285274 4.16224 0
M  V30 5894 H 553.918 -0.77806 3.13283 0
M  V30 5895 H 552.97 1.62223 3.44075 0
M  V30 5896 H 554.282 1.92664 4.60089 0
M  V30 5897 H 553.436 0.0823162 6.06644 0
M  V30 5898 H 552.175 -0.318883 4.86656 0
M  V30 5899 H 551.18 1.97056 5.13273 0
M  V30 5900 H 552.405 2.3641 6.36621 0
M  V30 5901 H 550.351 0.12836 6.55874 0
M  V30 5902 H 550.268 1.65401 7.37685 0
M  V30 5903 H 551.536 0.534071 7.77668 0
M  V30 5904 N 555.766 -1.3263 0.851289 0
M  V30 5905 C 556.713 -2.28952 0.291469 0
M  V30 5906 C 557.683 -1.54897 -0.599676 0
M  V30 5907 O 558.868 -1.83137 -0.535305 0
M  V30 5908 C 556.008 -3.41206 -0.516992 0
M  V30 5909 C 555.121 -4.30148 0.399566 0
M  V30 5910 C 554.256 -5.29527 -0.4212 0
M  V30 5911 C 553.295 -6.10112 0.492969 0
M  V30 5912 N 552.432 -7.01499 -0.290414 0
M  V30 5913 H 557.272 -2.76228 1.11813 0
M  V30 5914 H 554.809 -1.35907 0.562826 0
M  V30 5915 H 556.767 -4.05005 -1.00132 0
M  V30 5916 H 555.397 -2.9509 -1.30851 0
M  V30 5917 H 554.449 -3.66959 1.00227 0
M  V30 5918 H 555.761 -4.8649 1.1013 0
M  V30 5919 H 554.915 -5.98914 -0.968832 0
M  V30 5920 H 553.654 -4.73794 -1.15632 0
M  V30 5921 H 552.659 -5.39632 1.05251 0
M  V30 5922 H 553.884 -6.6793 1.22664 0
M  V30 5923 H 551.83 -6.48199 -1.00868 0
M  V30 5924 H 551.747 -7.55178 0.352354 0
M  V30 5925 H 553.015 -7.75176 -0.819882 0
M  V30 5926 N 557.244 -0.608902 -1.45362 0
M  V30 5927 C 558.491 -0.104607 -2.0223 0
M  V30 5928 C 558.819 1.26534 -1.47714 0
M  V30 5929 O 558.074 1.84855 -0.642435 0
M  V30 5930 C 558.373 -0.0167296 -3.57396 0
M  V30 5931 C 558.039 -1.32251 -4.31069 0
M  V30 5932 C 556.701 -1.68019 -4.50914 0
M  V30 5933 C 559.053 -2.18542 -4.73169 0
M  V30 5934 C 556.381 -2.89828 -5.10114 0
M  V30 5935 C 558.733 -3.39602 -5.33717 0
M  V30 5936 C 557.397 -3.7562 -5.51784 0
M  V30 5937 H 556.667 -0.0382785 -0.740011 0
M  V30 5938 H 559.314 -0.790782 -1.7441 0
M  V30 5939 H 557.619 0.752715 -3.84502 0
M  V30 5940 H 559.316 0.389634 -3.99103 0
M  V30 5941 H 555.906 -1.03411 -4.15938 0
M  V30 5942 H 560.09 -1.92208 -4.5757 0
M  V30 5943 H 555.346 -3.17839 -5.22291 0
M  V30 5944 H 559.52 -4.06716 -5.65292 0
M  V30 5945 H 557.147 -4.70093 -5.97425 0
M  V30 5946 N 558.722 1.53707 -0.348139 0
M  V30 5947 C 559.999 1.93247 0.302475 0
M  V30 5948 C 560.379 1.28012 1.67857 0
M  V30 5949 O 559.727 0.43274 2.24365 0
M  V30 5950 C 559.937 3.47031 0.370159 0
M  V30 5951 C 561.285 4.20066 0.61882 0
M  V30 5952 O 562.309 3.53319 0.452087 0
M  V30 5953 O 561.168 5.38318 0.94215 0
M  V30 5954 H 558.262 0.807736 0.177458 0
M  V30 5955 H 560.808 1.64927 -0.399651 0
M  V30 5956 H 559.58 3.86745 -0.59534 0
M  V30 5957 H 559.203 3.81532 1.11888 0
M  V30 5958 N 560.2 0.0768682 1.57412 0
M  V30 5959 C 561.147 -0.888577 2.13009 0
M  V30 5960 C 562.117 -1.29198 1.0439 0
M  V30 5961 O 563.302 -1.37694 1.3208 0
M  V30 5962 C 560.442 -2.14899 2.70023 0
M  V30 5963 C 559.555 -1.79777 3.92816 0
M  V30 5964 C 558.69 -3.00467 4.38056 0
M  V30 5965 C 557.729 -2.61385 5.53484 0
M  V30 5966 N 556.866 -3.74851 5.93659 0
M  V30 5967 H 561.706 -0.407593 2.95199 0
M  V30 5968 H 559.243 -0.189534 1.45874 0
M  V30 5969 H 561.201 -2.88688 3.0119 0
M  V30 5970 H 559.831 -2.60529 1.9059 0
M  V30 5971 H 558.883 -0.960301 3.68079 0
M  V30 5972 H 560.195 -1.47027 4.76639 0
M  V30 5973 H 559.349 -3.82529 4.7091 0
M  V30 5974 H 558.088 -3.36413 3.53097 0
M  V30 5975 H 557.093 -1.77746 5.20275 0
M  V30 5976 H 558.318 -2.26603 6.40178 0
M  V30 5977 H 556.264 -4.1055 5.11649 0
M  V30 5978 H 556.181 -3.45887 6.72234 0
M  V30 5979 H 557.449 -4.57477 6.31138 0
M  V30 5980 N 561.678 -1.56367 -0.196722 0
M  V30 5981 C 562.924 -1.80796 -0.918725 0
M  V30 5982 C 563.257 -0.650645 -1.82976 0
M  V30 5983 O 562.532 0.348889 -1.91345 0
M  V30 5984 C 562.815 -3.15472 -1.73636 0
M  V30 5985 C 562.668 -4.41693 -0.85015 0
M  V30 5986 C 563.987 -3.46824 -2.70927 0
M  V30 5987 H 561.106 -0.657702 -0.332561 0
M  V30 5988 H 563.748 -1.89086 -0.186186 0
M  V30 5989 H 561.898 -3.08536 -2.36088 0
M  V30 5990 H 563.57 -4.60673 -0.240459 0
M  V30 5991 H 561.813 -4.33517 -0.156785 0
M  V30 5992 H 562.484 -5.32419 -1.45719 0
M  V30 5993 H 564.96 -3.54049 -2.18607 0
M  V30 5994 H 563.836 -4.4218 -3.25219 0
M  V30 5995 H 564.097 -2.70236 -3.49893 0
M  V30 5996 N 563.156 0.464375 -1.50603 0
M  V30 5997 C 564.396 1.22573 -1.6357 0
M  V30 5998 C 564.76 1.89111 -0.331834 0
M  V30 5999 O 565.961 2.66679 -0.336999 0
M  V30 6000 C 564.232 2.23643 -2.7878 0
M  V30 6001 S 565.791 3.08628 -3.1192 0
M  V30 6002 H 562.609 0.416058 -0.576556 0
M  V30 6003 H 565.211 0.521637 -1.88412 0
M  V30 6004 H 563.915 1.73354 -3.7199 0
M  V30 6005 H 563.446 2.98672 -2.56044 0
M  V30 6006 H 565.461 4.24904 -2.56264 0
M  V30 6007 N 564.634 1.40294 0.718013 0
M  V30 6008 C 565.862 1.4175 1.50714 0
M  V30 6009 C 566.277 0.0165366 1.88793 0
M  V30 6010 O 565.634 -0.958942 1.55276 0
M  V30 6011 C 565.685 2.30598 2.784 0
M  V30 6012 O 565.406 3.6524 2.41932 0
M  V30 6013 C 566.907 2.4062 3.72313 0
M  V30 6014 H 564.127 0.483565 0.465194 0
M  V30 6015 H 566.671 1.84316 0.885889 0
M  V30 6016 H 564.826 1.91401 3.36815 0
M  V30 6017 H 565.24 4.12402 3.24076 0
M  V30 6018 H 566.714 3.07001 4.58753 0
M  V30 6019 H 567.191 1.4305 4.15251 0
M  V30 6020 H 567.797 2.80359 3.19811 0
M  V30 6021 N 566.112 -0.949982 1.2575 0
M  V30 6022 C 567.523 -1.50989 1.09815 0
M  V30 6023 C 567.874 -1.93497 -0.324556 0
M  V30 6024 O 566.999 -1.79068 -1.21506 0
M  V30 6025 C 567.594 -2.74394 1.98729 0
M  V30 6026 C 566.153 -3.26682 1.86965 0
M  V30 6027 C 565.3 -1.99498 1.92603 0
M  V30 6028 H 568.251 -0.766387 1.38968 0
M  V30 6029 H 568.272 -3.48383 1.53001 0
M  V30 6030 H 567.784 -2.43425 3.02268 0
M  V30 6031 H 565.885 -3.62461 0.863279 0
M  V30 6032 H 565.998 -3.94383 2.72027 0
M  V30 6033 H 564.362 -2.15005 1.36546 0
M  V30 6034 H 565.145 -1.70871 2.97755 0
M  V30 6035 N 567.59 -1.07411 -1.15328 0
M  V30 6036 C 568.815 -0.818856 -1.90551 0
M  V30 6037 C 569.24 0.622194 -1.77512 0
M  V30 6038 O 568.598 1.43484 -1.10824 0
M  V30 6039 C 568.646 -1.23267 -3.38877 0
M  V30 6040 O 567.75 -0.378345 -4.10661 0
M  V30 6041 H 567.091 -0.29827 -0.593238 0
M  V30 6042 H 569.621 -1.43289 -1.46046 0
M  V30 6043 H 569.631 -1.20912 -3.89672 0
M  V30 6044 H 568.306 -2.28226 -3.47686 0
M  V30 6045 H 566.883 -0.464437 -3.69996 0
M  V30 6046 N 569.068 1.32177 -0.85831 0
M  V30 6047 C 570.018 2.26307 -0.277307 0
M  V30 6048 C 571.002 1.50123 0.578946 0
M  V30 6049 O 572.194 1.71754 0.427731 0
M  V30 6050 C 569.323 3.39181 0.530232 0
M  V30 6051 C 568.409 4.22746 -0.338613 0
M  V30 6052 N 568.8 4.85265 -1.4266 0
M  V30 6053 C 567.098 4.45813 -0.129 0
M  V30 6054 C 567.799 5.47634 -1.96142 0
M  V30 6055 N 566.775 5.28794 -1.26007 0
M  V30 6056 H 570.577 2.72173 -1.10902 0
M  V30 6057 H 568.091 1.46308 -0.704816 0
M  V30 6058 H 570.088 4.05628 0.962904 0
M  V30 6059 H 568.748 2.9486 1.35969 0
M  V30 6060 H 569.759 4.85259 -1.80953 0
M  V30 6061 H 566.436 4.12163 0.665451 0
M  V30 6062 H 567.826 6.0735 -2.8736 0
M  V30 6063 N 570.547 0.616602 1.45037 0
M  V30 6064 C 571.958 0.199359 1.85633 0
M  V30 6065 C 572.309 -1.24588 1.51566 0
M  V30 6066 O 571.434 -1.94594 0.94668 0
M  V30 6067 C 572.029 0.355033 3.36935 0
M  V30 6068 C 570.588 -0.00758748 3.76399 0
M  V30 6069 C 569.735 0.675256 2.68953 0
M  V30 6070 H 572.686 0.822708 1.3571 0
M  V30 6071 H 572.707 -0.410201 3.78282 0
M  V30 6072 H 572.219 1.40699 3.61698 0
M  V30 6073 H 570.32 -1.05837 3.57252 0
M  V30 6074 H 570.433 0.392346 4.77491 0
M  V30 6075 H 568.797 0.111992 2.54454 0
M  V30 6076 H 569.58 1.72952 2.96551 0
M  V30 6077 N 572.025 -1.5352 0.356285 0
M  V30 6078 C 573.25 -2.06007 -0.239961 0
M  V30 6079 C 573.675 -1.22872 -1.42422 0
M  V30 6080 O 573.033 -0.245516 -1.7963 0
M  V30 6081 C 573.081 -3.5522 -0.620587 0
M  V30 6082 O 572.185 -3.74864 -1.71902 0
M  V30 6083 H 571.526 -0.662961 -0.0371377 0
M  V30 6084 H 574.056 -1.98033 0.514194 0
M  V30 6085 H 574.066 -3.98081 -0.894197 0
M  V30 6086 H 572.741 -4.15175 0.245407 0
M  V30 6087 H 571.318 -3.43904 -1.44169 0
M  V30 6088 N 573.503 -0.0852151 -1.57369 0
M  V30 6089 C 574.751 0.579658 -1.93609 0
M  V30 6090 C 575.072 1.69332 -0.967043 0
M  V30 6091 O 574.342 1.95892 -0.0174215 0
M  V30 6092 H 572.922 0.217113 -0.714752 0
M  V30 6093 H 575.584 -0.146226 -1.94351 0
M  V30 6094 H 574.68 0.996276 -2.95771 0
M  V30 6095 N 574.981 1.5647 0.188427 0
M  V30 6096 C 576.206 1.85486 0.927891 0
M  V30 6097 C 576.631 0.669575 1.75779 0
M  V30 6098 O 575.989 -0.381573 1.77239 0
M  V30 6099 C 576.037 3.12784 1.7944 0
M  V30 6100 O 575.141 2.93805 2.894 0
M  V30 6101 H 574.482 0.610585 0.260925 0
M  V30 6102 H 577.012 2.037 0.191729 0
M  V30 6103 H 577.022 3.43749 2.19774 0
M  V30 6104 H 575.697 3.98671 1.18468 0
M  V30 6105 H 574.274 2.74153 2.52774 0
M  V30 6106 N 576.459 -0.456382 1.50847 0
M  V30 6107 C 577.705 -1.20618 1.63777 0
M  V30 6108 C 578.06 -1.8936 0.340677 0
M  V30 6109 O 577.353 -1.79786 -0.662378 0
M  V30 6110 C 577.547 -2.26336 2.76599 0
M  V30 6111 C 577.376 -1.67968 4.17153 0
M  V30 6112 C 576.146 -1.47293 4.83356 0
M  V30 6113 C 578.344 -1.16643 5.00898 0
M  V30 6114 N 576.326 -0.843222 6.08081 0
M  V30 6115 C 577.697 -0.660843 6.16468 0
M  V30 6116 C 579.752 -1.05637 4.86565 0
M  V30 6117 C 578.455 -0.0560365 7.19278 0
M  V30 6118 C 580.481 -0.465485 5.89565 0
M  V30 6119 C 579.843 0.0296516 7.04394 0
M  V30 6120 H 575.942 -0.429725 0.653345 0
M  V30 6121 H 578.526 -0.505784 1.88016 0
M  V30 6122 H 576.697 -2.93785 2.54056 0
M  V30 6123 H 578.429 -2.9334 2.78808 0
M  V30 6124 H 575.184 -1.72934 4.40898 0
M  V30 6125 H 575.608 -0.546357 6.74792 0
M  V30 6126 H 580.25 -1.42508 3.98059 0
M  V30 6127 H 577.968 0.324845 8.07447 0
M  V30 6128 H 581.554 -0.382493 5.80541 0
M  V30 6129 H 580.434 0.479705 7.82731 0
M  V30 6130 N 577.937 -1.40673 -0.710563 0
M  V30 6131 C 579.348 -1.34975 -1.28991 0
M  V30 6132 C 579.699 -0.0256272 -1.96183 0
M  V30 6133 O 578.824 0.876339 -1.97862 0
M  V30 6134 C 579.419 -2.44467 -2.34567 0
M  V30 6135 C 577.978 -2.42213 -2.88114 0
M  V30 6136 C 577.125 -2.25085 -1.61963 0
M  V30 6137 H 580.076 -1.50406 -0.506343 0
M  V30 6138 H 580.097 -2.12663 -3.15523 0
M  V30 6139 H 579.609 -3.40825 -1.85634 0
M  V30 6140 H 577.71 -1.49568 -3.41263 0
M  V30 6141 H 577.823 -3.37983 -3.39565 0
M  V30 6142 H 576.187 -1.72691 -1.87216 0
M  V30 6143 H 576.97 -3.23449 -1.15047 0
M  V30 6144 N 579.415 0.9433 -1.26252 0
M  V30 6145 C 580.661 1.69175 -1.11837 0
M  V30 6146 C 580.994 1.91238 0.337891 0
M  V30 6147 O 580.269 1.49152 1.24836 0
M  V30 6148 C 580.552 3.06783 -1.88563 0
M  V30 6149 C 580.405 2.9206 -3.42083 0
M  V30 6150 C 581.724 4.06865 -1.67776 0
M  V30 6151 H 578.843 0.61399 -0.407658 0
M  V30 6152 H 581.485 1.09572 -1.55222 0
M  V30 6153 H 579.635 3.57663 -1.51689 0
M  V30 6154 H 581.307 2.48419 -3.88698 0
M  V30 6155 H 579.55 2.27731 -3.69217 0
M  V30 6156 H 580.221 3.89651 -3.90994 0
M  V30 6157 H 582.697 3.64939 -1.99897 0
M  V30 6158 H 581.573 5.01168 -2.23879 0
M  V30 6159 H 581.834 4.37705 -0.621816 0
M  V30 6160 N 580.893 1.08022 1.14757 0
M  V30 6161 C 582.121 0.828847 1.89572 0
M  V30 6162 C 582.536 -0.618621 1.78377 0
M  V30 6163 O 581.893 -1.42482 1.1404 0
M  V30 6164 C 581.944 1.23677 3.39685 0
M  V30 6165 O 581.665 2.62746 3.50566 0
M  V30 6166 C 583.166 1.01569 4.31507 0
M  V30 6167 H 580.386 0.299196 0.600602 0
M  V30 6168 H 582.93 1.43846 1.45357 0
M  V30 6169 H 581.085 0.671347 3.81539 0
M  V30 6170 H 581.499 2.79573 4.43778 0
M  V30 6171 H 582.973 1.35055 5.35223 0
M  V30 6172 H 583.45 -0.0475433 4.39174 0
M  V30 6173 H 584.056 1.56636 3.95405 0
M  V30 6174 N 582.371 -1.3172 0.865308 0
M  V30 6175 C 583.301 -2.31109 0.333302 0
M  V30 6176 C 584.282 -1.60148 -0.573301 0
M  V30 6177 O 585.467 -1.87882 -0.491305 0
M  V30 6178 C 582.597 -3.44104 -0.470078 0
M  V30 6179 C 581.551 -4.26623 0.343021 0
M  V30 6180 C 580.877 -5.31482 -0.585756 0
M  V30 6181 C 582.177 -4.98001 1.57456 0
M  V30 6182 H 583.871 -2.75855 1.1638 0
M  V30 6183 H 581.417 -1.3262 0.561069 0
M  V30 6184 H 583.37 -4.12682 -0.852752 0
M  V30 6185 H 582.094 -2.98112 -1.33404 0
M  V30 6186 H 580.753 -3.59707 0.707583 0
M  V30 6187 H 580.401 -4.81741 -1.44686 0
M  V30 6188 H 580.101 -5.87582 -0.0456494 0
M  V30 6189 H 581.625 -6.0292 -0.965375 0
M  V30 6190 H 583.039 -5.59201 1.26359 0
M  V30 6191 H 581.436 -5.63876 2.05339 0
M  V30 6192 H 582.506 -4.25253 2.32997 0
M  V30 6193 N 583.85 -0.624285 -1.44708 0
M  V30 6194 C 584.812 0.0749638 -2.29077 0
M  V30 6195 C 585.812 0.778965 -1.40673 0
M  V30 6196 O 587.003 0.624591 -1.62618 0
M  V30 6197 C 584.135 1.11663 -3.22094 0
M  V30 6198 H 585.327 -0.667013 -2.92388 0
M  V30 6199 H 582.88 -0.384098 -1.51507 0
M  V30 6200 H 583.615 1.88881 -2.63618 0
M  V30 6201 H 583.401 0.61583 -3.87234 0
M  V30 6202 H 584.891 1.60585 -3.8549 0
M  V30 6203 N 585.328 1.53329 -0.364422 0
M  V30 6204 C 586.744 1.59594 -0.0133165 0
M  V30 6205 C 586.944 1.37959 1.46865 0
M  V30 6206 O 586 1.18418 2.2301 0
M  V30 6207 C 587.313 2.97032 -0.468213 0
M  V30 6208 C 588.861 3.10138 -0.422334 0
M  V30 6209 C 589.336 4.49986 -0.853024 0
M  V30 6210 N 590.827 4.56098 -0.808037 0
M  V30 6211 C 591.562 5.62495 -1.11299 0
M  V30 6212 N 591.058 6.7665 -1.48717 0
M  V30 6213 N 592.851 5.52473 -1.03586 0
M  V30 6214 H 585.002 1.65644 -1.32951 0
M  V30 6215 H 587.265 0.77684 -0.543345 0
M  V30 6216 H 586.971 3.18 -1.5023 0
M  V30 6217 H 586.845 3.76918 0.145775 0
M  V30 6218 H 589.232 2.88881 0.602622 0
M  V30 6219 H 589.313 2.32263 -1.0718 0
M  V30 6220 H 588.957 4.7198 -1.87609 0
M  V30 6221 H 588.887 5.26289 -0.180819 0
M  V30 6222 H 591.378 3.74131 -0.532361 0
M  V30 6223 H 591.691 7.53776 -1.70415 0
M  V30 6224 H 590.036 6.78044 -1.52581 0
M  V30 6225 H 593.227 4.6217 -0.742736 0
M  V30 6226 H 593.4 6.35295 -1.27686 0
M  V30 6227 N 586.806 0.0935595 1.57322 0
M  V30 6228 C 588.052 -0.571355 1.94585 0
M  V30 6229 C 588.385 -1.67929 0.975366 0
M  V30 6230 O 587.66 -1.94498 0.00816206 0
M  V30 6231 C 587.943 -1.12797 3.41978 0
M  V30 6232 C 587.796 -0.0251881 4.49793 0
M  V30 6233 C 589.115 -2.02682 3.90651 0
M  V30 6234 H 586.234 -0.206223 0.70756 0
M  V30 6235 H 588.876 0.163956 1.89291 0
M  V30 6236 H 587.026 -1.75461 3.4662 0
M  V30 6237 H 588.698 0.608979 4.57263 0
M  V30 6238 H 586.941 0.641399 4.29032 0
M  V30 6239 H 587.612 -0.455433 5.50118 0
M  V30 6240 H 590.088 -1.49925 3.88152 0
M  V30 6241 H 588.964 -2.38555 4.94351 0
M  V30 6242 H 589.225 -2.94362 3.29854 0
M  V30 6243 N 588.284 -1.56567 -0.180126 0
M  V30 6244 C 589.214 -1.98753 -1.22553 0
M  V30 6245 C 590.195 -0.86175 -1.46656 0
M  V30 6246 O 591.38 -1.12719 -1.58139 0
M  V30 6247 C 588.51 -2.33988 -2.56645 0
M  V30 6248 C 587.464 -3.49445 -2.47128 0
M  V30 6249 C 586.79 -3.70397 -3.8563 0
M  V30 6250 C 588.09 -4.83171 -1.98352 0
M  V30 6251 H 589.784 -2.86332 -0.874896 0
M  V30 6252 H 587.33 -1.37757 -0.419414 0
M  V30 6253 H 589.283 -2.62097 -3.29974 0
M  V30 6254 H 588.007 -1.43309 -2.93479 0
M  V30 6255 H 586.666 -3.2145 -1.76254 0
M  V30 6256 H 586.314 -2.77023 -4.19842 0
M  V30 6257 H 586.014 -4.48077 -3.80132 0
M  V30 6258 H 587.538 -4.00897 -4.60558 0
M  V30 6259 H 588.952 -5.10213 -2.61449 0
M  V30 6260 H 587.349 -5.64425 -2.03823 0
M  V30 6261 H 588.419 -4.75753 -0.937402 0
M  V30 6262 N 589.762 0.448376 -1.51087 0
M  V30 6263 C 591.01 1.19635 -1.62886 0
M  V30 6264 C 591.331 1.91977 -0.342024 0
M  V30 6265 O 590.601 1.85094 0.641636 0
M  V30 6266 H 589.181 0.444598 -0.600285 0
M  V30 6267 H 591.843 0.515138 -1.87969 0
M  V30 6268 H 590.939 1.93194 -2.45117 0
M  V30 6269 N 591.24 1.41047 0.703093 0
M  V30 6270 C 592.172 1.38228 1.82827 0
M  V30 6271 C 593.185 0.285637 1.60275 0
M  V30 6272 O 594.374 0.54685 1.69917 0
M  V30 6273 C 591.474 1.13136 3.19458 0
M  V30 6274 C 590.647 2.34695 3.69103 0
M  V30 6275 C 589.706 2.05574 4.84382 0
M  V30 6276 O 588.732 2.78549 4.96386 0
M  V30 6277 N 589.934 1.04135 5.71083 0
M  V30 6278 H 592.699 2.35203 1.85741 0
M  V30 6279 H 590.26 1.35562 0.885125 0
M  V30 6280 H 592.252 0.916183 3.94193 0
M  V30 6281 H 590.822 0.247836 3.11616 0
M  V30 6282 H 590.042 2.71963 2.85359 0
M  V30 6283 H 591.33 3.15705 3.99009 0
M  V30 6284 H 590.728 0.43722 5.64008 0
M  V30 6285 H 589.285 0.886078 6.45749 0
M  V30 6286 N 592.718 -0.936591 1.26751 0
M  V30 6287 C 593.681 -2.01752 1.08761 0
M  V30 6288 C 594.681 -1.60763 0.0344435 0
M  V30 6289 O 595.871 -1.71963 0.278258 0
M  V30 6290 C 593.003 -3.34543 0.655271 0
M  V30 6291 H 594.196 -2.19143 2.04735 0
M  V30 6292 H 591.749 -1.11618 1.09413 0
M  V30 6293 H 592.484 -3.22851 -0.30626 0
M  V30 6294 H 592.269 -3.65647 1.41578 0
M  V30 6295 H 593.759 -4.13944 0.551378 0
M  V30 6296 N 594.196 -1.08629 -1.14182 0
M  V30 6297 C 595.607 -0.838003 -1.66836 0
M  V30 6298 C 595.958 0.634885 -1.85644 0
M  V30 6299 O 595.083 1.49008 -1.56926 0
M  V30 6300 C 595.678 -1.51465 -3.03058 0
M  V30 6301 C 594.237 -1.31355 -3.52736 0
M  V30 6302 C 593.384 -1.57599 -2.28162 0
M  V30 6303 H 596.335 -1.24656 -0.982165 0
M  V30 6304 H 596.356 -0.943134 -3.68626 0
M  V30 6305 H 595.868 -2.58661 -2.89337 0
M  V30 6306 H 593.969 -0.262384 -3.71675 0
M  V30 6307 H 594.082 -2.04275 -4.33369 0
M  V30 6308 H 592.446 -0.997659 -2.34348 0
M  V30 6309 H 593.229 -2.66006 -2.17015 0
M  V30 6310 N 595.674 1.31259 -0.872281 0
M  V30 6311 C 597.085 1.78822 -0.536617 0
M  V30 6312 C 597.436 1.71855 0.946594 0
M  V30 6313 O 596.561 1.28769 1.73918 0
M  V30 6314 C 597.156 3.24698 -0.967294 0
M  V30 6315 C 595.715 3.70147 -0.683251 0
M  V30 6316 C 594.862 2.51994 -1.15733 0
M  V30 6317 H 597.813 1.18308 -1.05777 0
M  V30 6318 H 597.834 3.79386 -0.290929 0
M  V30 6319 H 597.346 3.29737 -2.04683 0
M  V30 6320 H 595.447 3.70607 0.384825 0
M  V30 6321 H 595.56 4.62183 -1.2619 0
M  V30 6322 H 593.924 2.48078 -0.577024 0
M  V30 6323 H 594.707 2.59778 -2.24434 0
M  V30 6324 N 597.152 0.631951 1.44375 0
M  V30 6325 C 598.062 -0.073674 2.34484 0
M  V30 6326 C 599.078 -0.834825 1.52665 0
M  V30 6327 O 600.254 -0.786902 1.85391 0
M  V30 6328 C 597.319 -1.04247 3.30656 0
M  V30 6329 C 596.38 -0.280602 4.28382 0
M  V30 6330 C 595.613 -1.20325 5.19959 0
M  V30 6331 O 595.836 -2.44199 5.15484 0
M  V30 6332 O 594.77 -0.687128 5.97965 0
M  V30 6333 H 598.596 0.667477 2.96274 0
M  V30 6334 H 596.181 0.392144 1.44162 0
M  V30 6335 H 598.063 -1.59981 3.89851 0
M  V30 6336 H 596.738 -1.76422 2.71398 0
M  V30 6337 H 595.645 0.319804 3.72731 0
M  V30 6338 H 596.978 0.401144 4.90563 0
M  V30 6339 N 598.631 -1.53133 0.372548 0
M  V30 6340 C 600.042 -1.86404 -0.105155 0
M  V30 6341 C 600.393 -1.29289 -1.47576 0
M  V30 6342 O 599.518 -0.617646 -2.07398 0
M  V30 6343 C 600.113 -3.38223 -0.197588 0
M  V30 6344 C 598.672 -3.71266 -0.619556 0
M  V30 6345 C 597.819 -2.76353 0.228919 0
M  V30 6346 H 600.77 -1.47282 0.591077 0
M  V30 6347 H 600.791 -3.66577 -1.01987 0
M  V30 6348 H 600.303 -3.79763 0.800099 0
M  V30 6349 H 598.404 -3.35287 -1.62522 0
M  V30 6350 H 598.517 -4.77515 -0.389332 0
M  V30 6351 H 596.881 -2.52888 -0.303271 0
M  V30 6352 H 597.664 -3.20728 1.22428 0
M  V30 6353 N 600.109 -0.101901 -1.5727 0
M  V30 6354 C 601.357 0.559091 -1.94213 0
M  V30 6355 C 601.678 1.68297 -0.984948 0
M  V30 6356 O 600.948 1.95863 -0.0381975 0
M  V30 6357 H 599.528 0.20952 -0.717015 0
M  V30 6358 H 602.19 -0.166831 -1.94185 0
M  V30 6359 H 601.286 0.96485 -2.96811 0
M  V30 6360 N 601.587 1.56661 0.17182 0
M  V30 6361 C 602.537 1.92781 1.21736 0
M  V30 6362 C 603.521 0.796065 1.39827 0
M  V30 6363 O 604.713 1.05924 1.41806 0
M  V30 6364 C 601.842 2.29079 2.55691 0
M  V30 6365 C 600.928 3.48765 2.41296 0
M  V30 6366 N 601.319 4.66022 1.96614 0
M  V30 6367 C 599.617 3.53362 2.72124 0
M  V30 6368 C 600.318 5.48159 1.94669 0
M  V30 6369 N 599.294 4.89189 2.37054 0
M  V30 6370 H 603.096 2.80926 0.863592 0
M  V30 6371 H 600.61 1.57889 0.380096 0
M  V30 6372 H 602.607 2.5315 3.31241 0
M  V30 6373 H 601.267 1.42272 2.91871 0
M  V30 6374 H 602.278 4.9025 1.66959 0
M  V30 6375 H 598.955 2.77033 3.12345 0
M  V30 6376 H 600.345 6.52121 1.61826 0
M  V30 6377 N 603.065 -0.440357 1.51323 0
M  V30 6378 C 604.481 -0.7766 1.39431 0
M  V30 6379 C 604.681 -1.95838 0.474296 0
M  V30 6380 O 603.737 -2.52398 -0.0716692 0
M  V30 6381 C 605.05 -1.05981 2.81405 0
M  V30 6382 C 606.598 -1.16442 2.90534 0
M  V30 6383 C 607.073 -1.48058 4.33408 0
M  V30 6384 N 608.564 -1.54988 4.36501 0
M  V30 6385 C 609.299 -1.81017 5.44078 0
M  V30 6386 N 608.795 -2.04858 6.61819 0
M  V30 6387 N 610.588 -1.82774 5.31554 0
M  V30 6388 H 602.739 0.338006 2.09693 0
M  V30 6389 H 605.002 0.0888072 0.943831 0
M  V30 6390 H 604.708 -0.264173 3.50706 0
M  V30 6391 H 604.582 -1.98822 3.20546 0
M  V30 6392 H 606.969 -1.95068 2.21432 0
M  V30 6393 H 607.05 -0.215088 2.54894 0
M  V30 6394 H 606.694 -0.699605 5.03059 0
M  V30 6395 H 606.624 -2.44192 4.66559 0
M  V30 6396 H 609.115 -1.38479 3.51613 0
M  V30 6397 H 609.428 -2.2408 7.396 0
M  V30 6398 H 607.773 -2.02187 6.6494 0
M  V30 6399 H 610.964 -1.63665 4.38556 0
M  V30 6400 H 611.137 -2.02722 6.15474 0
M  V30 6401 N 604.543 -1.41418 -0.695603 0
M  V30 6402 C 605.768 -1.44329 -1.48942 0
M  V30 6403 C 606.193 -0.0501579 -1.88033 0
M  V30 6404 O 605.551 0.946598 -1.54626 0
M  V30 6405 C 605.599 -2.3578 -2.72837 0
M  V30 6406 O 604.703 -1.81482 -3.70322 0
M  V30 6407 H 604.044 -0.489838 -0.44828 0
M  V30 6408 H 606.574 -1.85878 -0.855014 0
M  V30 6409 H 606.584 -2.51654 -3.21145 0
M  V30 6410 H 605.259 -3.37005 -2.43722 0
M  V30 6411 H 603.836 -1.75058 -3.29255 0
M  V30 6412 N 606.021 0.929856 -1.27246 0
M  V30 6413 C 606.931 2.0636 -1.11592 0
M  V30 6414 C 607.947 1.73938 -0.046496 0
M  V30 6415 O 609.123 1.9981 -0.252544 0
M  V30 6416 C 606.188 3.38213 -0.762437 0
M  V30 6417 C 605.249 3.84346 -1.9125 0
M  V30 6418 C 604.482 5.09906 -1.57579 0
M  V30 6419 O 604.705 5.68354 -0.482694 0
M  V30 6420 O 603.639 5.51359 -2.41426 0
M  V30 6421 H 607.465 2.22478 -2.0673 0
M  V30 6422 H 605.05 1.04865 -1.06413 0
M  V30 6423 H 606.932 4.1741 -0.57854 0
M  V30 6424 H 605.607 3.23307 0.159439 0
M  V30 6425 H 604.514 3.06045 -2.15144 0
M  V30 6426 H 605.847 4.0379 -2.81451 0
M  V30 6427 N 607.499 1.09233 1.13605 0
M  V30 6428 C 608.776 0.739633 1.81077 0
M  V30 6429 C 609.156 -0.775595 1.96336 0
M  V30 6430 O 608.504 -1.69726 1.52988 0
M  V30 6431 C 608.714 1.47636 3.16235 0
M  V30 6432 C 610.062 1.64087 3.91613 0
M  V30 6433 O 611.086 1.43871 3.25852 0
M  V30 6434 O 609.945 1.97511 5.0956 0
M  V30 6435 H 607.039 0.265464 0.783236 0
M  V30 6436 H 609.585 1.19441 1.20549 0
M  V30 6437 H 608.357 2.50818 3.00344 0
M  V30 6438 H 607.98 1.01362 3.84462 0
M  V30 6439 N 608.977 -1.30795 0.87923 0
M  V30 6440 C 609.909 -2.27241 0.299025 0
M  V30 6441 C 610.922 -1.53472 -0.543166 0
M  V30 6442 O 612.111 -1.74756 -0.363651 0
M  V30 6443 C 609.211 -3.33655 -0.593931 0
M  V30 6444 C 608.384 -4.36857 0.2179 0
M  V30 6445 C 607.443 -5.22715 -0.604646 0
M  V30 6446 O 606.469 -5.69192 -0.0293838 0
M  V30 6447 N 607.671 -5.48008 -1.91488 0
M  V30 6448 H 610.436 -2.77667 1.12788 0
M  V30 6449 H 607.997 -1.43914 0.741637 0
M  V30 6450 H 609.989 -3.88013 -1.15012 0
M  V30 6451 H 608.559 -2.83202 -1.32346 0
M  V30 6452 H 607.779 -3.82444 0.955536 0
M  V30 6453 H 609.067 -5.02869 0.774614 0
M  V30 6454 H 608.465 -5.1202 -2.40525 0
M  V30 6455 H 607.022 -6.05264 -2.41864 0
M  V30 6456 N 610.455 -0.639598 -1.44038 0
M  V30 6457 C 611.405 0.0823038 -2.27851 0
M  V30 6458 C 612.389 0.807991 -1.39141 0
M  V30 6459 O 613.581 0.692702 -1.62882 0
M  V30 6460 C 610.71 1.05742 -3.26609 0
M  V30 6461 C 609.796 0.330911 -4.22807 0
M  V30 6462 N 610.187 -0.645126 -5.01669 0
M  V30 6463 C 608.485 0.574214 -4.42288 0
M  V30 6464 C 609.186 -1.07513 -5.71678 0
M  V30 6465 N 608.162 -0.412164 -5.42035 0
M  V30 6466 H 611.964 -0.666861 -2.86234 0
M  V30 6467 H 609.478 -0.465777 -1.55577 0
M  V30 6468 H 611.475 1.58927 -3.85419 0
M  V30 6469 H 610.135 1.80679 -2.69787 0
M  V30 6470 H 611.146 -1.02329 -5.0769 0
M  V30 6471 H 607.823 1.30581 -3.96554 0
M  V30 6472 H 609.213 -1.88196 -6.45005 0
M  V30 6473 N 611.933 1.52934 -0.380664 0
M  V30 6474 C 613.344 1.86457 0.0952684 0
M  V30 6475 C 613.695 1.3007 1.46889 0
M  V30 6476 O 612.82 0.628636 2.07068 0
M  V30 6477 C 613.415 3.38323 0.179648 0
M  V30 6478 C 611.974 3.71589 0.599858 0
M  V30 6479 C 611.121 2.76228 -0.243572 0
M  V30 6480 H 614.072 1.46966 -0.59888 0
M  V30 6481 H 614.093 3.67113 1.00042 0
M  V30 6482 H 613.605 3.79333 -0.820228 0
M  V30 6483 H 611.706 3.36144 1.60742 0
M  V30 6484 H 611.819 4.77715 0.364003 0
M  V30 6485 H 610.183 2.53045 0.289855 0
M  V30 6486 H 610.966 3.20074 -1.24127 0
M  V30 6487 N 613.412 0.11024 1.57214 0
M  V30 6488 C 614.637 -0.561179 1.99664 0
M  V30 6489 C 615.062 -1.59985 0.989266 0
M  V30 6490 O 614.42 -1.81255 -0.0402399 0
M  V30 6491 C 614.468 -1.17189 3.41027 0
M  V30 6492 O 613.572 -2.28755 3.4314 0
M  V30 6493 H 612.913 -0.14101 0.648855 0
M  V30 6494 H 615.443 0.196128 2.03658 0
M  V30 6495 H 615.453 -1.50954 3.79047 0
M  V30 6496 H 614.128 -0.411041 4.13864 0
M  V30 6497 H 612.705 -1.96495 3.16929 0
M  V30 6498 N 614.89 -1.56749 -0.16351 0
M  V30 6499 C 616.301 -1.72039 -0.725216 0
M  V30 6500 C 616.652 -0.72202 -1.82432 0
M  V30 6501 O 615.777 0.114942 -2.16095 0
M  V30 6502 C 616.372 -3.11932 -1.32227 0
M  V30 6503 C 614.931 -3.28879 -1.83072 0
M  V30 6504 C 614.078 -2.67984 -0.712716 0
M  V30 6505 H 617.029 -1.58579 0.0619772 0
M  V30 6506 H 617.05 -3.11015 -2.19202 0
M  V30 6507 H 616.562 -3.84572 -0.522103 0
M  V30 6508 H 614.663 -2.61209 -2.65708 0
M  V30 6509 H 614.776 -4.36688 -1.97079 0
M  V30 6510 H 613.14 -2.28005 -1.13515 0
M  V30 6511 H 613.923 -3.43216 0.0757361 0
M  V30 6512 N 616.368 0.432326 -1.51554 0
M  V30 6513 C 617.779 1.01202 -1.56892 0
M  V30 6514 C 618.13 1.92175 -0.395394 0
M  V30 6515 O 617.255 2.10844 0.487198 0
M  V30 6516 C 617.85 1.84217 -2.8434 0
M  V30 6517 C 616.409 2.37228 -2.92233 0
M  V30 6518 C 615.556 1.16576 -2.51606 0
M  V30 6519 H 618.507 0.213407 -1.57259 0
M  V30 6520 H 618.528 2.69721 -2.68385 0
M  V30 6521 H 618.04 1.17979 -3.69733 0
M  V30 6522 H 616.141 3.06905 -2.11282 0
M  V30 6523 H 616.254 2.69682 -3.95991 0
M  V30 6524 H 614.618 1.51263 -2.04919 0
M  V30 6525 H 615.401 0.519404 -3.39348 0
M  V30 6526 N 617.846 1.41785 0.688094 0
M  V30 6527 C 619.071 1.45117 1.48175 0
M  V30 6528 C 619.496 0.060129 1.88004 0
M  V30 6529 O 618.854 -0.938385 1.55126 0
M  V30 6530 C 618.902 2.37224 2.71583 0
M  V30 6531 O 618.006 1.83443 3.69354 0
M  V30 6532 H 617.347 0.492208 0.445676 0
M  V30 6533 H 619.877 1.86329 0.845145 0
M  V30 6534 H 619.887 2.53353 3.19806 0
M  V30 6535 H 618.562 3.38293 2.41931 0
M  V30 6536 H 617.139 1.76802 3.28322 0
M  V30 6537 N 619.324 -0.923095 1.27737 0
M  V30 6538 C 620.572 -1.66797 1.14119 0
M  V30 6539 C 620.893 -1.92479 -0.312541 0
M  V30 6540 O 620.163 -1.53432 -1.218 0
M  V30 6541 H 618.743 -0.618196 0.419336 0
M  V30 6542 H 621.405 -1.10815 1.60331 0
M  V30 6543 H 620.501 -2.63424 1.67374 0
M  V30 6544 N 620.802 -1.09834 -1.13024 0
M  V30 6545 C 621.734 -0.699379 -2.18269 0
M  V30 6546 C 622.747 0.260841 -1.60697 0
M  V30 6547 O 623.936 0.0462538 -1.7844 0
M  V30 6548 C 621.036 -0.0104537 -3.38898 0
M  V30 6549 C 620.209 -0.993275 -4.25973 0
M  V30 6550 C 619.268 -0.336982 -5.2512 0
M  V30 6551 O 618.294 -0.985892 -5.60597 0
M  V30 6552 N 619.496 0.90716 -5.73368 0
M  V30 6553 H 622.261 -1.60486 -2.5311 0
M  V30 6554 H 619.822 -0.986337 -1.28386 0
M  V30 6555 H 621.814 0.43991 -4.02302 0
M  V30 6556 H 620.384 0.797335 -3.0226 0
M  V30 6557 H 619.604 -1.62208 -3.5928 0
M  V30 6558 H 620.892 -1.65876 -4.81002 0
M  V30 6559 H 620.29 1.45384 -5.46699 0
M  V30 6560 H 618.847 1.30077 -6.38689 0
M  V30 6561 N 622.28 1.30327 -0.886154 0
M  V30 6562 C 623.19 2.31854 -0.357866 0
M  V30 6563 C 624.206 1.65392 0.540502 0
M  V30 6564 O 625.382 1.96683 0.433339 0
M  V30 6565 C 622.447 3.44171 0.417999 0
M  V30 6566 C 621.508 4.26257 -0.510263 0
M  V30 6567 C 620.741 5.3321 0.228669 0
M  V30 6568 O 620.964 5.51542 1.45458 0
M  V30 6569 O 619.898 6.0042 -0.421832 0
M  V30 6570 H 623.724 2.78995 -1.19982 0
M  V30 6571 H 621.309 1.34518 -0.650028 0
M  V30 6572 H 623.191 4.12588 0.857251 0
M  V30 6573 H 621.866 2.99164 1.23623 0
M  V30 6574 H 620.773 3.60533 -0.99835 0
M  V30 6575 H 622.106 4.74871 -1.29454 0
M  V30 6576 N 623.758 0.647228 1.43697 0
M  V30 6577 C 625.006 0.157876 2.01482 0
M  V30 6578 C 625.327 -1.23039 1.51282 0
M  V30 6579 O 624.597 -1.82071 0.722982 0
M  V30 6580 H 623.177 0.0553745 0.744945 0
M  V30 6581 H 625.839 0.83755 1.75986 0
M  V30 6582 H 624.935 0.137895 3.11795 0
M  V30 6583 N 625.236 -1.5273 0.388769 0
M  V30 6584 C 626.168 -2.24081 -0.481704 0
M  V30 6585 C 627.181 -1.26307 -1.02715 0
M  V30 6586 O 628.37 -1.52386 -0.929565 0
M  V30 6587 C 625.47 -2.94315 -1.68024 0
M  V30 6588 C 624.643 -4.18791 -1.26226 0
M  V30 6589 C 623.702 -4.72028 -2.32542 0
M  V30 6590 O 622.728 -5.35129 -1.93972 0
M  V30 6591 N 623.93 -4.51838 -3.64448 0
M  V30 6592 H 626.695 -2.9942 0.129591 0
M  V30 6593 H 624.256 -1.60465 0.2151 0
M  V30 6594 H 626.248 -3.26831 -2.38671 0
M  V30 6595 H 624.818 -2.22287 -2.19789 0
M  V30 6596 H 624.038 -3.92318 -0.384703 0
M  V30 6597 H 625.326 -4.99668 -0.959647 0
M  V30 6598 H 624.724 -4.01468 -3.98547 0
M  V30 6599 H 623.281 -4.88845 -4.31131 0
M  V30 6600 N 626.714 -0.118576 -1.57153 0
M  V30 6601 C 627.646 0.862247 -2.12363 0
M  V30 6602 C 628.659 1.23025 -1.06625 0
M  V30 6603 O 629.848 1.17927 -1.33998 0
M  V30 6604 C 626.948 2.16425 -2.60794 0
M  V30 6605 C 626.121 1.96801 -3.90626 0
M  V30 6606 C 625.18 3.10726 -4.2466 0
M  V30 6607 O 624.206 2.83659 -4.93484 0
M  V30 6608 N 625.408 4.37147 -3.81946 0
M  V30 6609 H 628.173 0.390564 -2.97144 0
M  V30 6610 H 625.734 0.0658591 -1.61766 0
M  V30 6611 H 627.726 2.91633 -2.80593 0
M  V30 6612 H 626.296 2.54943 -1.80895 0
M  V30 6613 H 625.516 1.05787 -3.7974 0
M  V30 6614 H 626.804 1.80993 -4.7552 0
M  V30 6615 H 626.202 4.62014 -3.26435 0
M  V30 6616 H 624.759 5.09229 -4.06853 0
M  V30 6617 N 628.193 1.56834 0.155195 0
M  V30 6618 C 629.441 1.82536 0.867462 0
M  V30 6619 C 629.762 0.698168 1.82073 0
M  V30 6620 O 629.032 -0.280807 1.93877 0
M  V30 6621 H 627.612 0.673401 0.323327 0
M  V30 6622 H 630.274 1.94313 0.151156 0
M  V30 6623 H 629.37 2.77171 1.43466 0
M  V30 6624 N 629.671 -0.424282 1.51781 0
M  V30 6625 C 630.634 -1.49848 1.73431 0
M  V30 6626 C 631.634 -1.49016 0.604225 0
M  V30 6627 O 632.824 -1.50808 0.871935 0
M  V30 6628 C 629.956 -2.89332 1.80277 0
M  V30 6629 H 631.149 -1.3195 2.69312 0
M  V30 6630 H 628.702 -0.653809 1.41968 0
M  V30 6631 H 629.437 -3.12618 0.862568 0
M  V30 6632 H 629.222 -2.9134 2.62419 0
M  V30 6633 H 630.712 -3.67233 1.98821 0
M  V30 6634 N 631.149 -1.42148 -0.680565 0
M  V30 6635 C 632.059 -1.47565 -1.82378 0
M  V30 6636 C 633.075 -0.36489 -1.70131 0
M  V30 6637 O 634.251 -0.614916 -1.91783 0
M  V30 6638 C 631.316 -1.37013 -3.18478 0
M  V30 6639 C 630.377 -2.58532 -3.42724 0
M  V30 6640 C 629.61 -2.48473 -4.72331 0
M  V30 6641 O 629.833 -1.51745 -5.49845 0
M  V30 6642 O 628.767 -3.38503 -4.97694 0
M  V30 6643 H 632.593 -2.44045 -1.80764 0
M  V30 6644 H 630.178 -1.23849 -0.835569 0
M  V30 6645 H 632.06 -1.33468 -3.99705 0
M  V30 6646 H 630.735 -0.436552 -3.20743 0
M  V30 6647 H 629.642 -2.67652 -2.61368 0
M  V30 6648 H 630.975 -3.50769 -3.45286 0
M  V30 6649 N 632.627 0.916307 -1.28225 0
M  V30 6650 C 633.867 1.67964 -1.16479 0
M  V30 6651 C 634.231 1.8991 0.282494 0
M  V30 6652 O 635.432 2.63671 0.522607 0
M  V30 6653 C 633.703 3.00251 -1.93866 0
M  V30 6654 S 635.262 3.91353 -1.98465 0
M  V30 6655 H 632.08 0.576873 -0.415619 0
M  V30 6656 H 634.682 1.09006 -1.62289 0
M  V30 6657 H 633.386 2.81978 -2.98189 0
M  V30 6658 H 632.917 3.64257 -1.48595 0
M  V30 6659 H 634.932 4.84096 -1.0893 0
M  V30 6660 N 634.105 1.10431 1.1244 0
M  V30 6661 C 635.353 0.845045 1.83585 0
M  V30 6662 C 635.674 -0.631168 1.84503 0
M  V30 6663 O 634.944 -1.45825 1.30813 0
M  V30 6664 H 633.524 0.309628 0.679809 0
M  V30 6665 H 636.186 1.39458 1.36153 0
M  V30 6666 H 635.282 1.20786 2.8778 0
M  V30 6667 N 635.583 -1.29855 0.893053 0
M  V30 6668 C 636.994 -1.77946 0.564998 0
M  V30 6669 C 637.345 -1.73339 -0.919134 0
M  V30 6670 O 636.47 -1.3152 -1.71847 0
M  V30 6671 C 637.065 -3.23118 1.01883 0
M  V30 6672 C 635.624 -3.69013 0.742051 0
M  V30 6673 C 634.771 -2.50121 1.19727 0
M  V30 6674 H 637.722 -1.16611 1.07646 0
M  V30 6675 H 637.743 -3.78875 0.351249 0
M  V30 6676 H 637.255 -3.26439 2.09903 0
M  V30 6677 H 635.356 -3.71173 -0.325816 0
M  V30 6678 H 635.469 -4.60117 1.33527 0
M  V30 6679 H 633.833 -2.47128 0.616418 0
M  V30 6680 H 634.616 -2.56174 2.28538 0
M  V30 6681 N 637.061 -0.65484 -1.43351 0
M  V30 6682 C 638.024 0.0263562 -2.29185 0
M  V30 6683 C 639.024 0.748951 -1.42293 0
M  V30 6684 O 640.214 0.589957 -1.63906 0
M  V30 6685 C 637.346 1.04806 -3.2439 0
M  V30 6686 H 638.539 -0.728883 -2.90908 0
M  V30 6687 H 636.092 -0.416149 -1.50658 0
M  V30 6688 H 636.827 1.83247 -2.67565 0
M  V30 6689 H 636.612 0.533554 -3.88453 0
M  V30 6690 H 638.102 1.52372 -3.88809 0
M  V30 6691 N 638.539 1.52521 -0.396863 0
M  V30 6692 C 639.786 2.01672 0.182898 0
M  V30 6693 C 640.114 1.28302 1.46181 0
M  V30 6694 O 639.369 0.374118 1.92091 0
M  V30 6695 C 639.668 3.5403 0.489677 0
M  V30 6696 C 639.334 4.45456 -0.698581 0
M  V30 6697 C 637.996 4.70166 -1.02454 0
M  V30 6698 C 640.348 4.99354 -1.49316 0
M  V30 6699 C 637.676 5.46024 -2.1465 0
M  V30 6700 C 640.028 5.76439 -2.60579 0
M  V30 6701 C 638.692 5.99426 -2.93675 0
M  V30 6702 H 637.962 0.737971 0.066927 0
M  V30 6703 H 640.609 1.83853 -0.535764 0
M  V30 6704 H 638.914 3.69963 1.28976 0
M  V30 6705 H 640.611 3.8956 0.951018 0
M  V30 6706 H 637.201 4.26392 -0.434525 0
M  V30 6707 H 641.385 4.80182 -1.25457 0
M  V30 6708 H 636.641 5.62046 -2.40654 0
M  V30 6709 H 640.815 6.17202 -3.22544 0
M  V30 6710 H 638.442 6.57988 -3.80731 0
M  V30 6711 N 640.017 0.126909 1.57088 0
M  V30 6712 C 641.428 -0.397201 1.82426 0
M  V30 6713 C 641.779 -1.66084 1.04453 0
M  V30 6714 O 640.904 -2.14534 0.283552 0
M  V30 6715 C 641.499 -0.727411 3.30899 0
M  V30 6716 C 640.058 -1.19612 3.56889 0
M  V30 6717 C 639.205 -0.20885 2.76512 0
M  V30 6718 H 642.156 0.351924 1.54749 0
M  V30 6719 H 642.177 -1.58407 3.45959 0
M  V30 6720 H 641.689 0.19247 3.87622 0
M  V30 6721 H 639.79 -2.13263 3.05532 0
M  V30 6722 H 639.903 -1.13598 4.65438 0
M  V30 6723 H 638.267 -0.697479 2.44964 0
M  V30 6724 H 639.05 0.704267 3.35998 0
M  V30 6725 N 641.495 -1.56914 -0.146875 0
M  V30 6726 C 642.906 -1.72799 -0.706928 0
M  V30 6727 C 643.257 -0.741329 -1.81656 0
M  V30 6728 O 642.382 0.0920162 -2.16204 0
M  V30 6729 C 642.977 -3.13317 -1.28911 0
M  V30 6730 C 641.536 -3.30803 -1.79573 0
M  V30 6731 C 640.683 -2.68725 -0.684252 0
M  V30 6732 H 643.634 -1.58504 0.0787931 0
M  V30 6733 H 643.655 -3.13323 -2.15891 0
M  V30 6734 H 643.167 -3.85104 -0.481284 0
M  V30 6735 H 641.268 -2.64012 -2.62923 0
M  V30 6736 H 641.381 -4.38754 -1.92436 0
M  V30 6737 H 639.745 -2.29196 -1.11091 0
M  V30 6738 H 640.528 -3.43117 0.112134 0
M  V30 6739 N 642.974 0.416227 -1.52004 0
M  V30 6740 C 643.904 1.51365 -1.77795 0
M  V30 6741 C 644.885 1.58059 -0.628601 0
M  V30 6742 O 646.07 1.73447 -0.873478 0
M  V30 6743 C 643.2 2.89256 -1.92219 0
M  V30 6744 C 642.154 2.97415 -3.0778 0
M  V30 6745 C 641.48 4.37492 -3.07417 0
M  V30 6746 C 642.78 2.69551 -4.47369 0
M  V30 6747 H 644.474 1.30033 -2.69688 0
M  V30 6748 H 642.02 0.624112 -1.29772 0
M  V30 6749 H 643.973 3.66008 -2.08845 0
M  V30 6750 H 642.697 3.11866 -0.969917 0
M  V30 6751 H 641.356 2.23107 -2.90893 0
M  V30 6752 H 641.004 4.571 -2.09925 0
M  V30 6753 H 640.704 4.43877 -3.85029 0
M  V30 6754 H 642.228 5.16188 -3.26162 0
M  V30 6755 H 643.642 3.36028 -4.64497 0
M  V30 6756 H 642.039 2.87321 -5.26846 0
M  V30 6757 H 643.109 1.65029 -4.55953 0
M  V30 6758 N 644.452 1.42507 0.673017 0
M  V30 6759 C 645.868 1.25472 0.986355 0
M  V30 6760 C 646.068 0.160181 2.00862 0
M  V30 6761 O 645.124 -0.467993 2.48125 0
M  V30 6762 C 646.437 2.61219 1.48947 0
M  V30 6763 C 647.985 2.68589 1.60715 0
M  V30 6764 C 648.46 4.04707 2.14422 0
M  V30 6765 N 649.951 4.0667 2.21752 0
M  V30 6766 C 650.686 5.0881 2.64386 0
M  V30 6767 N 650.182 6.21332 3.0646 0
M  V30 6768 N 651.975 4.96166 2.64151 0
M  V30 6769 H 644.126 2.124 -0.00378532 0
M  V30 6770 H 646.389 0.946046 0.0608367 0
M  V30 6771 H 646.095 3.42179 0.812812 0
M  V30 6772 H 645.969 2.85261 2.46791 0
M  V30 6773 H 648.356 1.87974 2.27486 0
M  V30 6774 H 648.437 2.48333 0.613552 0
M  V30 6775 H 648.081 4.8578 1.48258 0
M  V30 6776 H 648.011 4.22315 3.14575 0
M  V30 6777 H 650.502 3.25438 1.92089 0
M  V30 6778 H 650.815 6.95118 3.37684 0
M  V30 6779 H 649.16 6.24835 3.04313 0
M  V30 6780 H 652.351 4.07334 2.30644 0
M  V30 6781 H 652.524 5.759 2.97057 0
M  V30 6782 N 645.93 -0.909495 1.28709 0
M  V30 6783 C 647.341 -1.47419 1.14563 0
M  V30 6784 C 647.692 -1.94432 -0.262832 0
M  V30 6785 O 646.817 -1.82842 -1.15748 0
M  V30 6786 C 647.412 -2.67933 2.07358 0
M  V30 6787 C 645.971 -3.20568 1.97264 0
M  V30 6788 C 645.118 -1.93269 1.98852 0
M  V30 6789 H 648.069 -0.721787 1.41336 0
M  V30 6790 H 648.09 -3.43339 1.64007 0
M  V30 6791 H 647.602 -2.33685 3.09859 0
M  V30 6792 H 645.703 -3.59531 0.978157 0
M  V30 6793 H 645.816 -3.85529 2.84436 0
M  V30 6794 H 644.18 -2.10553 1.43317 0
M  V30 6795 H 644.963 -1.61312 3.0304 0
M  V30 6796 N 647.408 -1.11026 -1.11852 0
M  V30 6797 C 648.648 -0.866348 -1.85132 0
M  V30 6798 C 649.012 0.597236 -1.82475 0
M  V30 6799 O 650.213 0.957744 -2.51159 0
M  V30 6800 C 648.484 -1.40721 -3.28531 0
M  V30 6801 S 650.043 -1.29964 -4.19112 0
M  V30 6802 H 646.861 -0.312899 -0.638447 0
M  V30 6803 H 649.463 -1.41691 -1.34699 0
M  V30 6804 H 648.167 -2.46631 -3.28027 0
M  V30 6805 H 647.698 -0.85349 -3.8403 0
M  V30 6806 H 649.713 -0.261333 -4.95511 0
M  V30 6807 N 648.886 1.2938 -0.899927 0
M  V30 6808 C 650.297 1.77644 -0.574427 0
M  V30 6809 C 650.648 1.73824 0.909928 0
M  V30 6810 O 649.773 1.32429 1.71147 0
M  V30 6811 C 650.368 3.22573 -1.03595 0
M  V30 6812 C 648.927 3.68614 -0.76161 0
M  V30 6813 C 648.074 2.49483 -1.21052 0
M  V30 6814 H 651.025 1.16038 -1.08263 0
M  V30 6815 H 651.046 3.78684 -0.371337 0
M  V30 6816 H 650.558 3.25321 -2.11631 0
M  V30 6817 H 648.659 3.7134 0.306127 0
M  V30 6818 H 648.772 4.59402 -1.35965 0
M  V30 6819 H 647.136 2.46798 -0.629515 0
M  V30 6820 H 647.919 2.54959 -2.29893 0
M  V30 6821 N 650.364 0.662433 1.43002 0
M  V30 6822 C 651.613 0.176873 2.00923 0
M  V30 6823 C 651.926 -1.21954 1.52927 0
M  V30 6824 O 653.132 -1.80081 2.03182 0
M  V30 6825 C 651.588 0.265379 3.5892 0
M  V30 6826 C 651.196 1.66507 4.15908 0
M  V30 6827 C 652.94 -0.162103 4.2419 0
M  V30 6828 C 650.847 1.707 5.66229 0
M  V30 6829 H 649.777 0.0623627 0.751417 0
M  V30 6830 H 652.428 0.825813 1.63868 0
M  V30 6831 H 650.81 -0.451235 3.93421 0
M  V30 6832 H 651.984 2.40777 3.92891 0
M  V30 6833 H 650.299 2.03932 3.63044 0
M  V30 6834 H 652.896 -0.150745 5.34487 0
M  V30 6835 H 653.239 -1.19519 3.98774 0
M  V30 6836 H 653.772 0.503075 3.94606 0
M  V30 6837 H 650.511 2.7195 5.96426 0
M  V30 6838 H 650.031 1.00768 5.91275 0
M  V30 6839 H 651.71 1.45487 6.3043 0
M  V30 6840 N 651.842 -1.52309 0.404946 0
M  V30 6841 C 653.067 -2.06666 -0.1743 0
M  V30 6842 C 653.492 -1.27341 -1.38441 0
M  V30 6843 O 652.85 -0.302539 -1.78758 0
M  V30 6844 C 652.898 -3.57014 -0.507262 0
M  V30 6845 O 652.002 -3.80144 -1.59889 0
M  V30 6846 H 651.343 -0.663807 -0.0160273 0
M  V30 6847 H 653.873 -1.96297 0.576937 0
M  V30 6848 H 653.883 -4.00724 -0.767098 0
M  V30 6849 H 652.558 -4.14184 0.377368 0
M  V30 6850 H 651.135 -3.48316 -1.33155 0
M  V30 6851 N 653.32 -0.135238 -1.57019 0
M  V30 6852 C 654.283 0.794707 -2.14981 0
M  V30 6853 C 655.283 1.18342 -1.08866 0
M  V30 6854 O 656.473 1.10627 -1.34563 0
M  V30 6855 C 653.605 2.07685 -2.70333 0
M  V30 6856 H 654.798 0.290696 -2.98488 0
M  V30 6857 H 652.351 0.114128 -1.55883 0
M  V30 6858 H 653.086 2.6248 -1.9046 0
M  V30 6859 H 652.871 1.80745 -3.47957 0
M  V30 6860 H 654.361 2.74127 -3.1503 0
M  V30 6861 N 654.798 1.5699 0.138552 0
M  V30 6862 C 656.209 1.73171 0.697754 0
M  V30 6863 C 656.56 0.750952 1.8126 0
M  V30 6864 O 655.685 -0.080549 2.1625 0
M  V30 6865 C 656.28 3.13996 1.27248 0
M  V30 6866 C 654.839 3.3175 1.77816 0
M  V30 6867 C 653.986 2.69084 0.669991 0
M  V30 6868 H 656.937 1.5846 -0.0871979 0
M  V30 6869 H 656.958 3.14463 2.14227 0
M  V30 6870 H 656.47 3.85354 0.460855 0
M  V30 6871 H 654.571 2.65403 2.61519 0
M  V30 6872 H 654.684 4.39768 1.90107 0
M  V30 6873 H 653.048 2.29782 1.09874 0
M  V30 6874 H 653.831 3.43053 -0.130329 0
M  V30 6875 N 656.276 -0.40816 1.52223 0
M  V30 6876 C 657.501 -1.18127 1.70472 0
M  V30 6877 C 657.926 -1.83491 0.41384 0
M  V30 6878 O 657.284 -1.70047 -0.628778 0
M  V30 6879 C 657.332 -2.21935 2.84213 0
M  V30 6880 O 656.436 -3.28099 2.4985 0
M  V30 6881 H 655.777 -0.344781 0.56747 0
M  V30 6882 H 658.307 -0.478328 1.9893 0
M  V30 6883 H 658.317 -2.66248 3.09153 0
M  V30 6884 H 656.992 -1.73744 3.7787 0
M  V30 6885 H 655.569 -2.89058 2.35584 0
M  V30 6886 N 657.755 -1.42862 -0.66545 0
M  V30 6887 C 658.665 -1.49491 -1.80803 0
M  V30 6888 C 659.681 -0.382914 -1.69734 0
M  V30 6889 O 660.857 -0.635223 -1.9112 0
M  V30 6890 C 657.922 -1.40383 -3.17007 0
M  V30 6891 C 656.983 -2.62152 -3.39963 0
M  V30 6892 C 656.216 -2.53469 -4.69669 0
M  V30 6893 O 656.439 -1.57568 -5.48205 0
M  V30 6894 O 655.373 -3.43763 -4.94075 0
M  V30 6895 H 659.199 -2.45949 -1.78165 0
M  V30 6896 H 656.784 -1.24728 -0.822387 0
M  V30 6897 H 658.666 -1.377 -3.98267 0
M  V30 6898 H 657.341 -0.470546 -3.20262 0
M  V30 6899 H 656.248 -2.70409 -2.58515 0
M  V30 6900 H 657.581 -3.54411 -3.41546 0
M  V30 6901 N 659.233 0.902656 -1.29189 0
M  V30 6902 C 660.165 2.01149 -1.09872 0
M  V30 6903 C 661.178 1.62732 -0.0471046 0
M  V30 6904 O 662.367 1.76107 -0.29132 0
M  V30 6905 C 659.467 3.32612 -0.649818 0
M  V30 6906 C 658.64 3.99574 -1.7793 0
M  V30 6907 C 657.699 5.09325 -1.32191 0
M  V30 6908 O 656.725 5.31919 -2.02611 0
M  V30 6909 N 657.927 5.80185 -0.191171 0
M  V30 6910 H 660.692 2.18276 -2.05368 0
M  V30 6911 H 658.253 1.07466 -1.2109 0
M  V30 6912 H 660.245 4.03375 -0.327199 0
M  V30 6913 H 658.815 3.11876 0.212597 0
M  V30 6914 H 658.035 3.22213 -2.27095 0
M  V30 6915 H 659.323 4.41056 -2.53668 0
M  V30 6916 H 658.721 5.64312 0.396016 0
M  V30 6917 H 657.278 6.5176 0.0721001 0
M  V30 6918 N 660.711 1.11618 1.11262 0
M  V30 6919 C 661.644 0.719995 2.16544 0
M  V30 6920 C 662.622 -0.28471 1.60088 0
M  V30 6921 O 663.806 -0.180693 1.87632 0
M  V30 6922 C 660.933 0.0643302 3.38639 0
M  V30 6923 C 659.979 1.03448 4.13764 0
M  V30 6924 S 660.812 2.55789 4.70459 0
M  V30 6925 C 661.968 1.91529 5.95875 0
M  V30 6926 H 662.201 1.61181 2.49816 0
M  V30 6927 H 659.734 0.934401 1.22916 0
M  V30 6928 H 661.692 -0.307609 4.09346 0
M  V30 6929 H 660.353 -0.804471 3.03623 0
M  V30 6930 H 659.546 0.523188 5.01277 0
M  V30 6931 H 659.148 1.34893 3.48826 0
M  V30 6932 H 661.44 1.25286 6.65815 0
M  V30 6933 H 662.383 2.77047 6.51652 0
M  V30 6934 H 662.791 1.37468 5.47506 0
M  V30 6935 N 662.189 -1.289 0.906776 0
M  V30 6936 C 663.435 -1.95558 0.53712 0
M  V30 6937 C 663.768 -1.71262 -0.915582 0
M  V30 6938 O 663.043 -1.02961 -1.65013 0
M  V30 6939 C 663.326 -3.50198 0.838645 0
M  V30 6940 C 663.179 -3.83923 2.34357 0
M  V30 6941 C 664.498 -4.38861 0.329988 0
M  V30 6942 H 661.617 -0.710289 0.196617 0
M  V30 6943 H 664.259 -1.52392 1.13475 0
M  V30 6944 H 662.409 -3.87096 0.330024 0
M  V30 6945 H 664.081 -3.56933 2.92227 0
M  V30 6946 H 662.324 -3.31215 2.80141 0
M  V30 6947 H 662.995 -4.91883 2.5051 0
M  V30 6948 H 665.471 -4.08996 0.765609 0
M  V30 6949 H 664.347 -5.45931 0.570105 0
M  V30 6950 H 664.608 -4.35352 -0.769511 0
M  V30 6951 N 663.667 -0.670007 -1.42649 0
M  V30 6952 C 664.944 -0.119451 -1.95235 0
M  V30 6953 C 665.324 1.36461 -1.61064 0
M  V30 6954 O 664.672 2.09843 -0.904329 0
M  V30 6955 C 664.882 -0.383498 -3.46887 0
M  V30 6956 C 666.23 -0.297431 -4.23557 0
M  V30 6957 O 667.254 -0.31698 -3.54787 0
M  V30 6958 O 666.113 -0.235507 -5.45992 0
M  V30 6959 H 663.207 -8.85474e-05 -0.827 0
M  V30 6960 H 665.753 -0.744406 -1.52501 0
M  V30 6961 H 664.525 -1.41174 -3.64946 0
M  V30 6962 H 664.148 0.273702 -3.96657 0
M  V30 6963 N 665.145 1.52092 -0.413018 0
M  V30 6964 C 666.373 2.06274 0.160881 0
M  V30 6965 C 666.788 1.28273 1.38533 0
M  V30 6966 O 666.145 0.33563 1.79387 0
M  V30 6967 C 666.196 3.57921 0.507443 0
M  V30 6968 O 665.917 4.32971 -0.668388 0
M  V30 6969 C 667.418 4.28533 1.13465 0
M  V30 6970 H 664.638 0.67074 0.0186759 0
M  V30 6971 H 667.182 1.95951 -0.585092 0
M  V30 6972 H 665.337 3.68238 1.20331 0
M  V30 6973 H 665.751 5.23135 -0.378169 0
M  V30 6974 H 667.225 5.35804 1.32732 0
M  V30 6975 H 667.702 3.85258 2.10886 0
M  V30 6976 H 668.308 4.22595 0.478876 0
M  V30 6977 N 666.623 0.143563 1.56945 0
M  V30 6978 C 668.034 -0.37783 1.82837 0
M  V30 6979 C 668.385 -1.64967 1.06209 0
M  V30 6980 O 667.51 -2.14221 0.306291 0
M  V30 6981 C 668.105 -0.692274 3.31652 0
M  V30 6982 C 666.664 -1.1582 3.58138 0
M  V30 6983 C 665.811 -0.17951 2.76718 0
M  V30 6984 H 668.762 0.368317 1.54367 0
M  V30 6985 H 668.783 -1.54729 3.47619 0
M  V30 6986 H 668.295 0.233572 3.87397 0
M  V30 6987 H 666.396 -2.10011 3.07776 0
M  V30 6988 H 666.509 -1.08655 4.66616 0
M  V30 6989 H 664.873 -0.671458 2.4569 0
M  V30 6990 H 665.656 0.739865 3.35233 0
M  V30 6991 N 668.101 -1.57061 -0.130224 0
M  V30 6992 C 669.064 -1.98593 -1.14426 0
M  V30 6993 C 670.064 -0.874584 -1.34936 0
M  V30 6994 O 671.254 -1.14086 -1.31643 0
M  V30 6995 C 668.386 -2.31639 -2.50112 0
M  V30 6996 H 669.579 -2.89374 -0.787561 0
M  V30 6997 H 667.132 -1.51756 -0.374146 0
M  V30 6998 H 667.867 -1.43703 -2.90723 0
M  V30 6999 H 667.652 -3.12684 -2.36583 0
M  V30 7000 H 669.142 -2.64551 -3.23114 0
M  V30 7001 N 669.579 0.400081 -1.52437 0
M  V30 7002 C 670.804 1.17221 -1.71096 0
M  V30 7003 C 671.229 1.83269 -0.423565 0
M  V30 7004 O 670.587 1.70378 0.619751 0
M  V30 7005 C 670.635 2.20425 -2.85386 0
M  V30 7006 O 669.739 3.26769 -2.51586 0
M  V30 7007 H 669.08 0.341766 -0.569291 0
M  V30 7008 H 671.61 0.467772 -1.99181 0
M  V30 7009 H 671.62 2.64605 -3.10561 0
M  V30 7010 H 670.295 1.71737 -3.78786 0
M  V30 7011 H 668.872 2.87804 -2.37114 0
M  V30 7012 N 671.057 1.43213 0.657864 0
M  V30 7013 C 671.967 1.50448 1.80007 0
M  V30 7014 C 672.983 0.39191 1.69529 0
M  V30 7015 O 674.159 0.645349 1.90781 0
M  V30 7016 C 671.224 1.42062 3.16258 0
M  V30 7017 C 670.285 2.63951 3.38568 0
M  V30 7018 C 669.518 2.55956 4.68318 0
M  V30 7019 O 669.741 1.60473 5.47361 0
M  V30 7020 O 668.675 3.46378 4.92245 0
M  V30 7021 H 672.501 2.4689 1.76858 0
M  V30 7022 H 670.086 1.25163 0.81576 0
M  V30 7023 H 671.968 1.3981 3.97531 0
M  V30 7024 H 670.643 0.487524 3.20008 0
M  V30 7025 H 669.55 2.71776 2.57077 0
M  V30 7026 H 670.883 3.56217 3.39662 0
M  V30 7027 N 672.536 -0.895792 1.29666 0
M  V30 7028 C 673.947 -1.46195 1.1612 0
M  V30 7029 C 674.298 -1.94699 -0.242195 0
M  V30 7030 O 673.423 -1.8406 -1.13802 0
M  V30 7031 C 674.018 -2.65718 2.10189 0
M  V30 7032 C 672.577 -3.18458 2.00653 0
M  V30 7033 C 671.724 -1.91149 2.00891 0
M  V30 7034 H 674.675 -0.706756 1.42094 0
M  V30 7035 H 674.696 -3.4158 1.6764 0
M  V30 7036 H 674.208 -2.30386 3.12321 0
M  V30 7037 H 672.309 -3.58474 1.01623 0
M  V30 7038 H 672.422 -3.82491 2.88509 0
M  V30 7039 H 670.786 -2.09021 1.45542 0
M  V30 7040 H 671.569 -1.58089 3.04734 0
M  V30 7041 N 674.014 -1.12206 -1.10668 0
M  V30 7042 C 674.977 -0.790867 -2.15123 0
M  V30 7043 C 675.977 0.193618 -1.5963 0
M  V30 7044 O 677.167 -0.0318728 -1.74171 0
M  V30 7045 C 674.299 -0.174797 -3.40452 0
M  V30 7046 H 675.492 -1.7163 -2.45933 0
M  V30 7047 H 673.045 -0.924993 -1.2599 0
M  V30 7048 H 673.78 0.760478 -3.15257 0
M  V30 7049 H 673.565 -0.88358 -3.82015 0
M  V30 7050 H 675.055 0.0405162 -4.1758 0
M  V30 7051 N 675.492 1.28418 -0.913599 0
M  V30 7052 C 676.424 2.26368 -0.359169 0
M  V30 7053 C 677.437 1.54858 0.502285 0
M  V30 7054 O 678.626 1.75659 0.31719 0
M  V30 7055 C 675.726 3.35112 0.50526 0
M  V30 7056 C 674.899 4.36126 -0.333648 0
M  V30 7057 C 673.958 5.24134 0.465845 0
M  V30 7058 O 672.984 5.6907 -0.121538 0
M  V30 7059 N 674.186 5.52892 1.76891 0
M  V30 7060 H 676.951 2.74579 -1.2011 0
M  V30 7061 H 674.512 1.41898 -0.779532 0
M  V30 7062 H 676.504 3.90926 1.04684 0
M  V30 7063 H 675.074 2.86611 1.2479 0
M  V30 7064 H 674.294 3.79776 -1.0566 0
M  V30 7065 H 675.582 5.00638 -0.907669 0
M  V30 7066 H 674.98 5.18217 2.26865 0
M  V30 7067 H 673.537 6.11464 2.25732 0
M  V30 7068 N 676.97 0.677563 1.42291 0
M  V30 7069 C 677.933 0.0101085 2.29198 0
M  V30 7070 C 678.933 -0.726219 1.43467 0
M  V30 7071 O 680.123 -0.563807 1.64824 0
M  V30 7072 C 677.255 -0.996316 3.26016 0
M  V30 7073 H 678.448 0.775071 2.89711 0
M  V30 7074 H 676.001 0.440065 1.49977 0
M  V30 7075 H 676.736 -1.78967 2.70446 0
M  V30 7076 H 676.521 -0.471687 3.89253 0
M  V30 7077 H 678.011 -1.46167 3.91184 0
M  V30 7078 N 678.448 -1.51871 0.421078 0
M  V30 7079 C 679.673 -2.0684 -0.152371 0
M  V30 7080 C 680.098 -1.28802 -1.37083 0
M  V30 7081 O 679.456 -0.321482 -1.78427 0
M  V30 7082 C 679.504 -3.57532 -0.469368 0
M  V30 7083 O 678.608 -3.81818 -1.55848 0
M  V30 7084 H 677.949 -0.663939 -0.00898586 0
M  V30 7085 H 680.479 -1.95674 0.597724 0
M  V30 7086 H 680.489 -4.01515 -0.724553 0
M  V30 7087 H 679.164 -4.13761 0.421276 0
M  V30 7088 H 677.741 -3.49709 -1.29453 0
M  V30 7089 N 679.926 -0.151884 -1.56866 0
M  V30 7090 C 681.154 0.504813 -2.00647 0
M  V30 7091 C 681.569 1.58098 -1.03201 0
M  V30 7092 O 680.926 1.82476 -0.0297814 0
M  V30 7093 C 680.977 1.10099 -3.44326 0
M  V30 7094 O 680.698 0.0678021 -4.38048 0
M  V30 7095 C 682.199 1.83782 -4.03409 0
M  V30 7096 H 679.419 0.130989 -0.65809 0
M  V30 7097 H 681.963 -0.247903 -2.02992 0
M  V30 7098 H 680.118 1.8043 -3.42817 0
M  V30 7099 H 680.532 0.505237 -5.22061 0
M  V30 7100 H 682.006 2.2078 -5.05925 0
M  V30 7101 H 682.483 2.72557 -3.44397 0
M  V30 7102 H 683.089 1.18138 -4.08563 0
M  V30 7103 N 681.404 1.57128 0.121893 0
M  V30 7104 C 682.815 1.73902 0.679348 0
M  V30 7105 C 683.166 0.770135 1.80453 0
M  V30 7106 O 682.291 -0.0576083 2.16323 0
M  V30 7107 C 682.886 3.15328 1.2391 0
M  V30 7108 C 681.445 3.33618 1.74288 0
M  V30 7109 C 680.592 2.6978 0.641414 0
M  V30 7110 H 683.543 1.58359 -0.104 0
M  V30 7111 H 683.564 3.16718 2.10879 0
M  V30 7112 H 683.076 3.85821 0.419957 0
M  V30 7113 H 681.177 2.68162 2.58689 0
M  V30 7114 H 681.29 4.4176 1.85432 0
M  V30 7115 H 679.654 2.30935 1.0743 0
M  V30 7116 H 680.437 3.42895 -0.166707 0
M  V30 7117 N 682.882 -0.391992 1.52647 0
M  V30 7118 C 684.11 -1.1586 1.71418 0
M  V30 7119 C 684.525 -1.8381 0.431216 0
M  V30 7120 O 683.882 -1.7256 -0.594085 0
M  V30 7121 C 683.933 -2.20888 2.86165 0
M  V30 7122 O 683.654 -1.5571 4.09495 0
M  V30 7123 C 685.155 -3.103 3.1659 0
M  V30 7124 H 682.375 -0.347494 0.574011 0
M  V30 7125 H 684.919 -0.458972 1.99283 0
M  V30 7126 H 683.074 -2.86492 2.6077 0
M  V30 7127 H 683.488 -2.25474 4.73563 0
M  V30 7128 H 684.962 -3.8003 4.00351 0
M  V30 7129 H 685.439 -3.73639 2.30848 0
M  V30 7130 H 686.045 -2.50345 3.43813 0
M  V30 7131 N 684.36 -1.4356 -0.65026 0
M  V30 7132 C 685.637 -1.35811 -1.40765 0
M  V30 7133 C 686.017 -0.00736379 -2.11099 0
M  V30 7134 O 685.365 1.00932 -2.05 0
M  V30 7135 C 685.575 -2.54332 -2.3899 0
M  V30 7136 C 686.923 -2.97551 -3.02901 0
M  V30 7137 O 687.947 -2.544 -2.49317 0
M  V30 7138 O 686.806 -3.72311 -4.00059 0
M  V30 7139 H 683.9 -0.536861 -0.629054 0
M  V30 7140 H 686.446 -1.55615 -0.676919 0
M  V30 7141 H 685.218 -3.44274 -1.85986 0
M  V30 7142 H 684.841 -2.36643 -3.19509 0
M  V30 7143 N 685.838 0.888903 -1.30139 0
M  V30 7144 C 687.249 1.45578 -1.16893 0
M  V30 7145 C 687.6 1.94825 0.231866 0
M  V30 7146 O 686.725 1.84661 1.12824 0
M  V30 7147 C 687.32 2.646 -2.11595 0
M  V30 7148 C 685.879 3.17389 -2.02339 0
M  V30 7149 C 685.026 1.90081 -2.01902 0
M  V30 7150 H 687.977 0.69921 -1.42467 0
M  V30 7151 H 687.998 3.40687 -1.69449 0
M  V30 7152 H 687.51 2.28726 -3.13538 0
M  V30 7153 H 685.611 3.5793 -1.03523 0
M  V30 7154 H 685.724 3.80955 -2.90534 0
M  V30 7155 H 684.088 2.08246 -1.46648 0
M  V30 7156 H 684.871 1.5647 -3.05568 0
M  V30 7157 N 687.317 1.12792 1.10072 0
M  V30 7158 C 688.264 0.79921 2.16521 0
M  V30 7159 C 689.234 -0.235726 1.64419 0
M  V30 7160 O 690.419 -0.109457 1.90486 0
M  V30 7161 C 687.559 0.264091 3.44088 0
M  V30 7162 C 686.672 1.35729 4.10124 0
M  V30 7163 C 685.807 0.781212 5.25424 0
M  V30 7164 C 684.846 1.85327 5.8337 0
M  V30 7165 N 683.983 1.29564 6.90042 0
M  V30 7166 H 688.823 1.71105 2.43981 0
M  V30 7167 H 686.36 0.854225 1.19756 0
M  V30 7168 H 688.318 -0.0642423 4.17151 0
M  V30 7169 H 686.948 -0.610901 3.16967 0
M  V30 7170 H 686 1.80234 3.34993 0
M  V30 7171 H 687.312 2.16782 4.4923 0
M  V30 7172 H 686.466 0.403769 6.05355 0
M  V30 7173 H 685.205 -0.0604686 4.87663 0
M  V30 7174 H 684.21 2.23986 5.02106 0
M  V30 7175 H 685.435 2.69824 6.23195 0
M  V30 7176 H 683.381 0.475844 6.54272 0
M  V30 7177 H 683.298 2.04271 7.2788 0
M  V30 7178 H 684.566 0.945545 7.73744 0
M  V30 7179 N 688.795 -1.27931 0.920396 0
M  V30 7180 C 690.043 -1.94304 0.555906 0
M  V30 7181 C 690.364 -1.72753 -0.904519 0
M  V30 7182 O 689.634 -1.07104 -1.64029 0
M  V30 7183 H 688.214 -0.719001 0.202599 0
M  V30 7184 H 690.876 -1.55785 1.1712 0
M  V30 7185 H 689.972 -3.02806 0.755981 0
M  V30 7186 N 690.273 -0.685099 -1.4193 0
M  V30 7187 C 691.203 -0.0273506 -2.33484 0
M  V30 7188 C 692.184 0.778366 -1.51246 0
M  V30 7189 O 693.369 0.733449 -1.79817 0
M  V30 7190 C 690.499 0.917272 -3.34968 0
M  V30 7191 C 689.453 0.21941 -4.27437 0
M  V30 7192 C 688.779 1.27768 -5.1921 0
M  V30 7193 C 690.079 -0.907894 -5.14349 0
M  V30 7194 H 691.773 -0.791994 -2.88735 0
M  V30 7195 H 689.319 -0.382308 -1.38832 0
M  V30 7196 H 691.272 1.38657 -3.97935 0
M  V30 7197 H 689.996 1.71346 -2.78043 0
M  V30 7198 H 688.655 -0.229757 -3.65879 0
M  V30 7199 H 688.303 2.06612 -4.58607 0
M  V30 7200 H 688.003 0.815803 -5.81909 0
M  V30 7201 H 689.527 1.7477 -5.85054 0
M  V30 7202 H 690.941 -0.519348 -5.70943 0
M  V30 7203 H 689.338 -1.2962 -5.85934 0
M  V30 7204 H 690.408 -1.75218 -4.52136 0
M  V30 7205 N 691.751 1.51645 -0.429126 0
M  V30 7206 C 692.714 2.26116 0.374726 0
M  V30 7207 C 693.714 1.29242 0.956714 0
M  V30 7208 O 694.904 1.53022 0.832452 0
M  V30 7209 C 692.036 3.04669 1.52937 0
M  V30 7210 H 693.229 2.9861 -0.277818 0
M  V30 7211 H 690.782 1.55236 -0.182097 0
M  V30 7212 H 691.517 2.36571 2.21821 0
M  V30 7213 H 691.302 3.75814 1.11833 0
M  V30 7214 H 692.792 3.61102 2.09751 0
M  V30 7215 N 693.229 0.160201 1.56784 0
M  V30 7216 C 694.161 -0.80564 2.14574 0
M  V30 7217 C 695.174 -1.20154 1.09849 0
M  V30 7218 O 696.363 -1.14333 1.37078 0
M  V30 7219 C 693.463 -2.09434 2.6644 0
M  V30 7220 C 692.636 -1.86375 3.95706 0
M  V30 7221 C 691.695 -2.99358 4.32749 0
M  V30 7222 O 690.721 -2.70475 5.00831 0
M  V30 7223 N 691.923 -4.26867 3.93402 0
M  V30 7224 H 694.688 -0.311644 2.98075 0
M  V30 7225 H 692.249 -0.0229465 1.61884 0
M  V30 7226 H 694.241 -2.84091 2.88226 0
M  V30 7227 H 692.811 -2.50057 1.8759 0
M  V30 7228 H 692.031 -0.956821 3.82412 0
M  V30 7229 H 693.319 -1.68322 4.80151 0
M  V30 7230 H 692.717 -4.53197 3.38569 0
M  V30 7231 H 691.274 -4.98263 4.20211 0
M  V30 7232 N 694.707 -1.5719 -0.113559 0
M  V30 7233 C 695.637 -2.03772 -1.14013 0
M  V30 7234 C 696.618 -0.923176 -1.42869 0
M  V30 7235 O 697.803 -1.19325 -1.53216 0
M  V30 7236 C 694.933 -2.44663 -2.4649 0
M  V30 7237 C 693.887 -3.59612 -2.32085 0
M  V30 7238 C 693.213 -3.8642 -3.69573 0
M  V30 7239 C 694.513 -4.91149 -1.7768 0
M  V30 7240 H 696.207 -2.89785 -0.752665 0
M  V30 7241 H 693.753 -1.39412 -0.360609 0
M  V30 7242 H 695.706 -2.75857 -3.18561 0
M  V30 7243 H 694.43 -1.55628 -2.87137 0
M  V30 7244 H 693.089 -3.28636 -1.62461 0
M  V30 7245 H 692.737 -2.94581 -4.07715 0
M  V30 7246 H 692.437 -4.63797 -3.60786 0
M  V30 7247 H 693.961 -4.2007 -4.4314 0
M  V30 7248 H 695.375 -5.20843 -2.39574 0
M  V30 7249 H 693.772 -5.72562 -1.79701 0
M  V30 7250 H 694.842 -4.79301 -0.734776 0
M  V30 7251 O 696.224 0.257811 -1.59429 0
M  V30 7252 H 696.915 0.901882 -1.71423 0
M  V30 END ATOM
M  V30 BEGIN BOND
M  V30 END BOND
M  V30 END CTAB
M  END
$$$$
