drugbank_target|Q9UBF8 Phosphatidylinositol 4-kinase beta (DB12010)
 OpenBabel12092121183D

  0  0  0     0  0            999 V3000
M  V30 BEGIN CTAB
M  V30 COUNTS 12812 12938 0 0 0
M  V30 BEGIN ATOM
M  V30 1 H -0.908 1.98254 -0.117106 0
M  V30 2 N 0 1.576 0 0
M  V30 3 C 0.933 2.03868 1.02534 0
M  V30 4 C 1.911 0.928543 1.3348 0
M  V30 5 O 3.095 1.19667 1.45644 0
M  V30 6 C 0.222 2.43627 2.35294 0
M  V30 7 C -0.732 3.65373 2.2001 0
M  V30 8 S 0.101 5.13292 1.52614 0
M  V30 9 C 1.257 5.56322 2.86805 0
M  V30 10 H 1.49 2.90518 0.631377 0
M  V30 11 H -0.977 1.52953 0.210867 0
M  V30 12 H 0.981 2.67203 3.11629 0
M  V30 13 H -0.358 1.57376 2.7183 0
M  V30 14 H -1.165 3.90944 3.18086 0
M  V30 15 H -1.563 3.418 1.51819 0
M  V30 16 H 0.729 5.58782 3.83104 0
M  V30 17 H 1.672 6.56266 2.65933 0
M  V30 18 H 2.08 4.83886 2.90714 0
M  V30 19 N 1.4781 -0.272755 1.55222 0
M  V30 20 C 2.7261 -1.00234 1.75492 0
M  V30 21 C 3.0471 -1.8681 0.5592 0
M  V30 22 O 2.3171 -1.91215 -0.425882 0
M  V30 23 H 0.8971 -0.373076 0.647166 0
M  V30 24 H 3.5591 -0.296926 1.92625 0
M  V30 25 H 2.6551 -1.63913 2.65592 0
M  V30 26 N 2.9562 -1.48159 -0.537278 0
M  V30 27 C 4.2332 -1.46291 -1.29839 0
M  V30 28 C 4.6132 -0.170613 -2.10409 0
M  V30 29 O 3.9612 0.847746 -2.12192 0
M  V30 30 C 4.1712 -2.72055 -2.18603 0
M  V30 31 C 5.5192 -3.20087 -2.7898 0
M  V30 32 O 6.5432 -2.72921 -2.28894 0
M  V30 33 O 5.4022 -4.02138 -3.70064 0
M  V30 34 H 2.4962 -0.583906 -0.585647 0
M  V30 35 H 5.0422 -1.60384 -0.554534 0
M  V30 36 H 3.8142 -3.57628 -1.58801 0
M  V30 37 H 3.4372 -2.60646 -3.00249 0
M  V30 38 N 4.4343 0.785586 -1.36625 0
M  V30 39 C 5.6623 1.57448 -1.3423 0
M  V30 40 C 6.0773 1.88649 0.0755653 0
M  V30 41 O 5.4343 1.50414 1.03354 0
M  V30 42 C 5.4853 2.89316 -2.16745 0
M  V30 43 O 5.2063 2.59459 -3.53005 0
M  V30 44 C 6.7073 3.83606 -2.22174 0
M  V30 45 H 3.9273 0.488226 -0.4603 0
M  V30 46 H 6.4713 0.974733 -1.79775 0
M  V30 47 H 4.6263 3.4575 -1.74745 0
M  V30 48 H 5.0403 3.43804 -3.96105 0
M  V30 49 H 6.5143 4.73181 -2.8426 0
M  V30 50 H 6.9913 4.21734 -1.22627 0
M  V30 51 H 7.5973 3.33104 -2.64427 0
M  V30 52 N 5.9124 1.20967 1.01018 0
M  V30 53 C 7.1584 1.02526 1.74975 0
M  V30 54 C 7.4914 -0.4408 1.89131 0
M  V30 55 O 6.7664 -1.32718 1.42184 0
M  V30 56 C 7.0494 1.71699 3.1653 0
M  V30 57 C 6.9024 3.25791 3.10129 0
M  V30 58 C 8.2214 1.45531 4.15342 0
M  V30 59 H 5.3404 0.373863 0.635134 0
M  V30 60 H 7.9824 1.49071 1.17805 0
M  V30 61 H 6.1324 1.32128 3.65341 0
M  V30 62 H 7.8044 3.74697 2.69072 0
M  V30 63 H 6.0474 3.56363 2.47362 0
M  V30 64 H 6.7184 3.69353 4.10222 0
M  V30 65 H 9.1944 1.79872 3.75213 0
M  V30 66 H 8.0704 1.96453 5.1254 0
M  V30 67 H 8.3314 0.384237 4.40427 0
M  V30 68 N 7.3905 -1.2043 1.01659 0
M  V30 69 C 8.6365 -1.90079 0.706963 0
M  V30 70 C 8.9695 -1.78648 -0.761474 0
M  V30 71 O 8.2445 -1.17069 -1.55323 0
M  V30 72 C 8.5275 -3.41469 1.14327 0
M  V30 73 C 8.3805 -3.61833 2.67201 0
M  V30 74 C 9.6995 -4.34261 0.714529 0
M  V30 75 H 6.8185 -0.690254 0.2583 0
M  V30 76 H 9.4605 -1.41826 1.26433 0
M  V30 77 H 7.6105 -3.82696 0.669056 0
M  V30 78 H 9.2825 -3.2986 3.22475 0
M  V30 79 H 7.5255 -3.05304 3.08175 0
M  V30 80 H 8.1965 -4.67955 2.92783 0
M  V30 81 H 10.6725 -4.00682 1.12221 0
M  V30 82 H 9.5485 -5.38806 1.04784 0
M  V30 83 H 9.8095 -4.40431 -0.383799 0
M  V30 84 N 8.8686 -0.792821 -1.36206 0
M  V30 85 C 9.7786 -0.194808 -2.3379 0
M  V30 86 C 10.7946 0.654869 -1.61206 0
M  V30 87 O 11.9706 0.569856 -1.9317 0
M  V30 88 C 9.0356 0.657721 -3.40404 0
M  V30 89 C 8.0966 -0.210849 -4.28782 0
M  V30 90 C 7.3296 0.601086 -5.30304 0
M  V30 91 O 7.5526 1.83682 -5.40016 0
M  V30 92 O 6.4866 -0.000808277 -6.019 0
M  V30 93 H 10.3126 -1.00172 -2.86704 0
M  V30 94 H 7.8976 -0.554341 -1.38735 0
M  V30 95 H 9.7796 1.14375 -4.05581 0
M  V30 96 H 8.4546 1.44247 -2.89784 0
M  V30 97 H 7.3616 -0.743714 -3.66633 0
M  V30 98 H 8.6946 -0.959195 -4.82763 0
M  V30 99 N 10.3467 1.47872 -0.545128 0
M  V30 100 C 11.7577 1.86384 -0.108581 0
M  V30 101 C 12.1087 1.45309 1.31832 0
M  V30 102 O 11.2337 0.850641 1.9898 0
M  V30 103 C 11.8287 3.38265 -0.190274 0
M  V30 104 C 10.3877 3.75914 0.191164 0
M  V30 105 C 9.5347 2.71926 -0.543273 0
M  V30 106 H 12.4857 1.39561 -0.755537 0
M  V30 107 H 12.5067 3.75831 0.594217 0
M  V30 108 H 12.0187 3.6813 -1.2289 0
M  V30 109 H 10.1197 3.51665 1.23136 0
M  V30 110 H 10.2327 4.78836 -0.158987 0
M  V30 111 H 8.5967 2.54697 0.0122495 0
M  V30 112 H 9.3797 3.04634 -1.58282 0
M  V30 113 N 11.8248 0.280983 1.55075 0
M  V30 114 C 12.7878 -0.590896 2.21452 0
M  V30 115 C 13.7878 -1.07682 1.19421 0
M  V30 116 O 14.9778 -0.97605 1.44288 0
M  V30 117 C 12.1098 -1.81587 2.88511 0
M  V30 118 H 13.3028 -0.0112554 2.99898 0
M  V30 119 H 10.8558 0.0316438 1.56268 0
M  V30 120 H 11.5908 -2.43587 2.14093 0
M  V30 121 H 11.3758 -1.4753 3.63287 0
M  V30 122 H 12.8658 -2.43575 3.39206 0
M  V30 123 N 13.3029 -1.57598 0.00835791 0
M  V30 124 C 14.7139 -1.7892 -0.53333 0
M  V30 125 C 15.0649 -0.916609 -1.73473 0
M  V30 126 O 14.1899 -0.121336 -2.1606 0
M  V30 127 C 14.7849 -3.24488 -0.974313 0
M  V30 128 C 13.3439 -3.46878 -1.46125 0
M  V30 129 C 12.4909 -2.74157 -0.416302 0
M  V30 130 H 15.4419 -1.56958 0.234495 0
M  V30 131 H 15.4629 -3.3306 -1.83988 0
M  V30 132 H 14.9749 -3.87972 -0.099718 0
M  V30 133 H 13.0759 -2.8862 -2.35646 0
M  V30 134 H 13.1889 -4.55572 -1.48295 0
M  V30 135 H 11.5529 -2.39022 -0.87981 0
M  V30 136 H 12.3359 -3.40345 0.44947 0
M  V30 137 N 14.781 0.264519 -1.55364 0
M  V30 138 C 15.711 1.33121 -1.91836 0
M  V30 139 C 16.692 1.51101 -0.781192 0
M  V30 140 O 17.877 1.64003 -1.04003 0
M  V30 141 C 15.007 2.68921 -2.19769 0
M  V30 142 C 13.961 2.65661 -3.35571 0
M  V30 143 C 13.287 4.05093 -3.49004 0
M  V30 144 C 14.587 2.24187 -4.71739 0
M  V30 145 H 16.281 1.02844 -2.81182 0
M  V30 146 H 13.827 0.493286 -1.35287 0
M  V30 147 H 15.78 3.43663 -2.43872 0
M  V30 148 H 14.504 3.00799 -1.27231 0
M  V30 149 H 13.163 1.93377 -3.1145 0
M  V30 150 H 12.811 4.34206 -2.53917 0
M  V30 151 H 12.511 4.03804 -4.26868 0
M  V30 152 H 14.035 4.81561 -3.75408 0
M  V30 153 H 15.449 2.88654 -4.9533 0
M  V30 154 H 13.846 2.34044 -5.52579 0
M  V30 155 H 14.916 1.19327 -4.69988 0
M  V30 156 N 16.2591 1.48442 0.529413 0
M  V30 157 C 17.2061 1.63007 1.63394 0
M  V30 158 C 18.1761 0.47212 1.59249 0
M  V30 159 O 19.3611 0.695673 1.77666 0
M  V30 160 C 16.5011 1.6763 3.01653 0
M  V30 161 C 15.6141 2.94535 3.16027 0
M  V30 162 C 14.7491 2.90316 4.44849 0
M  V30 163 C 13.7881 4.11923 4.52754 0
M  V30 164 N 12.9251 4.05777 5.72965 0
M  V30 165 H 17.7651 2.5733 1.50285 0
M  V30 166 H 15.3021 1.27613 0.731656 0
M  V30 167 H 17.2601 1.68292 3.81751 0
M  V30 168 H 15.8901 0.76797 3.13532 0
M  V30 169 H 14.9421 3.03615 2.29177 0
M  V30 170 H 16.2541 3.84512 3.17729 0
M  V30 171 H 15.4081 2.89382 5.33238 0
M  V30 172 H 14.1471 1.98068 4.45668 0
M  V30 173 H 13.1521 4.13131 3.62771 0
M  V30 174 H 14.3771 5.0533 4.53672 0
M  V30 175 H 12.3231 3.16351 5.74681 0
M  V30 176 H 12.2401 4.8946 5.76164 0
M  V30 177 H 13.5081 4.08904 6.6364 0
M  V30 178 N 17.7372 -0.778329 1.37039 0
M  V30 179 C 19.1482 -1.35421 1.28523 0
M  V30 180 C 19.4992 -1.96075 -0.0700901 0
M  V30 181 O 18.6242 -1.93352 -0.971801 0
M  V30 182 C 19.2192 -2.46211 2.32735 0
M  V30 183 C 17.7782 -2.99585 2.27873 0
M  V30 184 C 16.9252 -1.72748 2.16918 0
M  V30 185 H 19.8762 -0.5791 1.47757 0
M  V30 186 H 19.8972 -3.2552 1.9702 0
M  V30 187 H 19.4092 -2.02036 3.31365 0
M  V30 188 H 17.5102 -3.48152 1.32745 0
M  V30 189 H 17.6232 -3.55646 3.21018 0
M  V30 190 H 15.9872 -1.95416 1.63354 0
M  V30 191 H 16.7702 -1.30686 3.17452 0
M  V30 192 N 19.2153 -1.21501 -1.00376 0
M  V30 193 C 20.4433 -1.059 -1.77744 0
M  V30 194 C 20.8583 0.391125 -1.84704 0
M  V30 195 O 20.2153 1.27133 -1.30933 0
M  V30 196 C 20.2663 -1.65111 -3.21591 0
M  V30 197 O 19.9873 -3.0445 -3.15027 0
M  V30 198 C 21.4883 -1.54637 -4.15454 0
M  V30 199 H 18.7083 -0.371825 -0.558558 0
M  V30 200 H 21.2523 -1.60865 -1.26264 0
M  V30 201 H 19.4073 -1.14235 -3.70175 0
M  V30 202 H 19.8213 -3.3278 -4.0541 0
M  V30 203 H 21.2953 -2.00808 -5.14179 0
M  V30 204 H 21.7723 -0.501022 -4.36333 0
M  V30 205 H 22.3783 -2.04767 -3.72761 0
M  V30 206 N 20.6934 1.19889 -1.02296 0
M  V30 207 C 21.9184 1.9393 -0.735237 0
M  V30 208 C 22.3434 1.74639 0.698782 0
M  V30 209 O 21.7014 1.04481 1.48167 0
M  V30 210 C 21.7494 3.43916 -1.08417 0
M  V30 211 O 20.8534 4.11917 -0.199446 0
M  V30 212 H 20.1944 0.605645 -0.272196 0
M  V30 213 H 22.7244 1.52137 -1.36804 0
M  V30 214 H 22.7344 3.9456 -1.03856 0
M  V30 215 H 21.4094 3.5728 -2.12894 0
M  V30 216 H 19.9864 3.71666 -0.303136 0
M  V30 217 N 22.1715 0.800033 1.35784 0
M  V30 218 C 23.0815 0.207204 2.33683 0
M  V30 219 C 24.0975 -0.64631 1.61551 0
M  V30 220 O 25.2735 -0.559604 1.93469 0
M  V30 221 C 22.3385 -0.639659 3.40748 0
M  V30 222 C 21.3995 0.233585 4.28664 0
M  V30 223 C 20.6325 -0.572954 5.30616 0
M  V30 224 O 20.8555 -1.80816 5.40982 0
M  V30 225 O 19.7895 0.0327285 6.01891 0
M  V30 226 H 23.6155 1.01692 2.86169 0
M  V30 227 H 21.2005 0.561691 1.38439 0
M  V30 228 H 23.0825 -1.12223 4.06182 0
M  V30 229 H 21.7575 -1.42708 2.90544 0
M  V30 230 H 20.6645 0.763147 3.66233 0
M  V30 231 H 21.9975 0.984784 4.82248 0
M  V30 232 N 23.6496 -1.47581 0.552962 0
M  V30 233 C 25.0606 -1.86324 0.118463 0
M  V30 234 C 25.4116 -1.46006 -1.3106 0
M  V30 235 O 24.5366 -0.861182 -1.98526 0
M  V30 236 C 25.1316 -3.3816 0.20821 0
M  V30 237 C 23.6906 -3.7601 -0.171226 0
M  V30 238 C 22.8376 -2.71634 0.557686 0
M  V30 239 H 25.7886 -1.39159 0.762928 0
M  V30 240 H 25.8096 -3.76141 -0.574278 0
M  V30 241 H 25.3216 -3.67473 1.24841 0
M  V30 242 H 23.4226 -3.52313 -1.21269 0
M  V30 243 H 23.5356 -4.78745 0.184379 0
M  V30 244 H 21.8996 -2.547 0.00125792 0
M  V30 245 H 22.6826 -3.0379 1.59896 0
M  V30 246 N 25.1277 -0.289203 -1.54924 0
M  V30 247 C 26.3557 0.326463 -2.04308 0
M  V30 248 C 26.7707 1.48413 -1.16701 0
M  V30 249 O 26.1277 1.81507 -0.190087 0
M  V30 250 C 26.1787 0.794014 -3.52672 0
M  V30 251 O 25.8997 -0.317564 -4.36948 0
M  V30 252 C 27.4007 1.47605 -4.18004 0
M  V30 253 H 24.6207 0.0726272 -0.667058 0
M  V30 254 H 27.1647 -0.425401 -2.00026 0
M  V30 255 H 25.3197 1.49593 -3.57352 0
M  V30 256 H 25.7337 0.0443186 -5.24481 0
M  V30 257 H 27.2077 1.75447 -5.23376 0
M  V30 258 H 27.6847 2.41224 -3.67025 0
M  V30 259 H 28.2907 0.81762 -4.17367 0
M  V30 260 N 26.6058 1.57591 -0.0167156 0
M  V30 261 C 27.8308 1.9598 0.67872 0
M  V30 262 C 28.2558 0.892546 1.65575 0
M  V30 263 O 27.6138 -0.147772 1.80697 0
M  V30 264 C 27.6618 3.33468 1.37227 0
M  V30 265 O 26.7658 3.28954 2.48722 0
M  V30 266 H 26.1068 0.639339 0.17928 0
M  V30 267 H 28.6368 2.04463 -0.0748802 0
M  V30 268 H 28.6468 3.69417 1.7319 0
M  V30 269 H 27.3218 4.10694 0.656007 0
M  V30 270 H 25.8988 3.04705 2.14963 0
M  V30 271 N 28.0839 -0.256276 1.55502 0
M  V30 272 C 29.3319 -0.983672 1.76545 0
M  V30 273 C 29.6529 -1.86206 0.578982 0
M  V30 274 O 28.9229 -1.91656 -0.405577 0
M  V30 275 H 27.5029 -0.366191 0.651086 0
M  V30 276 H 30.1649 -0.276479 1.92929 0
M  V30 277 H 29.2609 -1.61087 2.67315 0
M  V30 278 N 29.562 -1.4872 -0.521534 0
M  V30 279 C 30.973 -1.50607 -1.10337 0
M  V30 280 C 31.324 -0.280612 -1.94183 0
M  V30 281 O 30.449 0.611507 -2.0758 0
M  V30 282 C 31.044 -2.72903 -2.00772 0
M  V30 283 C 29.603 -2.77634 -2.54158 0
M  V30 284 C 28.75 -2.44241 -1.31307 0
M  V30 285 H 31.701 -1.55714 -0.306388 0
M  V30 286 H 31.722 -2.519 -2.85178 0
M  V30 287 H 31.234 -3.62077 -1.39721 0
M  V30 288 H 29.335 -1.92689 -3.18907 0
M  V30 289 H 29.448 -3.79283 -2.92714 0
M  V30 290 H 27.812 -1.95577 -1.63161 0
M  V30 291 H 28.595 -3.35666 -0.719943 0
M  V30 292 N 31.0401 0.771051 -1.3745 0
M  V30 293 C 32.4511 1.34737 -1.29239 0
M  V30 294 C 32.8021 1.96109 0.0596908 0
M  V30 295 O 31.9271 1.93865 0.961534 0
M  V30 296 C 32.5221 2.44973 -2.34037 0
M  V30 297 C 31.0811 2.98372 -2.29458 0
M  V30 298 C 30.2281 1.71595 -2.17831 0
M  V30 299 H 33.1791 0.571256 -1.48062 0
M  V30 300 H 33.2001 3.24471 -1.98744 0
M  V30 301 H 32.7121 2.00276 -3.32432 0
M  V30 302 H 30.8131 3.47443 -1.34589 0
M  V30 303 H 30.9261 3.53939 -3.229 0
M  V30 304 H 29.2901 1.94547 -1.64388 0
M  V30 305 H 30.0731 1.29001 -3.18141 0
M  V30 306 N 32.5182 1.22032 0.997298 0
M  V30 307 C 33.7662 1.04016 1.73278 0
M  V30 308 C 34.0872 -0.426255 1.90284 0
M  V30 309 O 33.3572 -1.30694 1.45931 0
M  V30 310 H 31.9372 0.381897 0.642 0
M  V30 311 H 34.5992 1.5347 1.20137 0
M  V30 312 H 33.6952 1.51441 2.72896 0
M  V30 313 N 33.9963 -1.19345 1.0293 0
M  V30 314 C 34.9443 -2.24621 0.604001 0
M  V30 315 C 35.9383 -1.65452 -0.363587 0
M  V30 316 O 37.1443 -1.78497 -0.23212 0
M  V30 317 H 33.5193 -0.730858 0.177061 0
M  V30 318 H 35.4903 -2.5781 1.50255 0
M  V30 319 C 34.2393 -3.47688 -0.0289127 0
M  V30 320 H 33.5623 -3.93505 0.706651 0
M  V30 321 H 35.0023 -4.23011 -0.289432 0
M  V30 322 C 33.4613 -3.11817 -1.2756 0
M  V30 323 O 33.9913 -3.2451 -2.36762 0
M  V30 324 N 32.1973 -2.66246 -1.16453 0
M  V30 325 H 31.7443 -2.56118 -0.275914 0
M  V30 326 H 31.7023 -2.42617 -1.99961 0
M  V30 327 N 35.4744 -0.807222 -1.35358 0
M  V30 328 C 36.4224 -0.20614 -2.31685 0
M  V30 329 C 37.4164 0.644445 -1.56663 0
M  V30 330 O 38.6224 0.537538 -1.71786 0
M  V30 331 H 34.9974 -0.0479006 -0.750473 0
M  V30 332 H 36.9684 -1.03369 -2.79924 0
M  V30 333 C 35.7174 0.630212 -3.41941 0
M  V30 334 H 35.0404 -0.0149558 -3.99797 0
M  V30 335 H 36.4804 1.01716 -4.11619 0
M  V30 336 C 34.9394 1.79601 -2.85035 0
M  V30 337 O 35.4694 2.89351 -2.78637 0
M  V30 338 N 33.6754 1.60774 -2.42074 0
M  V30 339 H 33.2224 0.715009 -2.47478 0
M  V30 340 H 33.1804 2.38933 -2.04349 0
M  V30 341 N 36.9525 1.47285 -0.560781 0
M  V30 342 C 38.2005 2.02064 -0.0379868 0
M  V30 343 C 38.5215 1.43711 1.31803 0
M  V30 344 O 37.7915 0.61362 1.86042 0
M  V30 345 H 36.3715 0.746918 -0.0110531 0
M  V30 346 H 39.0335 1.80648 -0.731598 0
M  V30 347 H 38.1295 3.12064 0.0474463 0
M  V30 348 N 38.4306 0.297415 1.54768 0
M  V30 349 C 39.6786 -0.312295 1.99673 0
M  V30 350 C 39.9996 -1.54686 1.18732 0
M  V30 351 O 39.2696 -1.93854 0.282382 0
M  V30 352 H 37.8496 -0.118381 0.73756 0
M  V30 353 H 40.5116 0.407915 1.90583 0
M  V30 354 H 39.6076 -0.586813 3.06534 0
M  V30 355 N 39.9087 -1.5758 0.0250728 0
M  V30 356 C 41.1337 -1.96337 -0.668317 0
M  V30 357 C 41.5587 -0.901314 -1.651 0
M  V30 358 O 40.9167 0.138187 -1.80773 0
M  V30 359 C 40.9647 -3.34191 -1.35457 0
M  V30 360 O 40.0687 -3.30269 -2.46974 0
M  V30 361 H 39.4097 -0.640281 -0.175887 0
M  V30 362 H 41.9397 -2.0442 0.0857224 0
M  V30 363 H 41.9497 -3.70331 -1.71228 0
M  V30 364 H 40.6247 -4.11036 -0.634218 0
M  V30 365 H 39.2017 -3.05841 -2.13344 0
M  V30 366 N 41.3868 0.248026 -1.55636 0
M  V30 367 C 42.3168 1.31079 -1.93237 0
M  V30 368 C 43.2978 1.50264 -0.797174 0
M  V30 369 O 44.4828 1.62891 -1.05737 0
M  V30 370 C 41.6128 2.66575 -2.22609 0
M  V30 371 C 40.5668 2.62087 -3.3837 0
M  V30 372 C 39.8928 4.01369 -3.53281 0
M  V30 373 C 41.1928 2.19171 -4.7409 0
M  V30 374 H 42.8868 0.998556 -2.82257 0
M  V30 375 H 40.4328 0.47891 -1.35803 0
M  V30 376 H 42.3858 3.41057 -2.47503 0
M  V30 377 H 41.1098 2.99432 -1.30414 0
M  V30 378 H 39.7688 1.90063 -3.13483 0
M  V30 379 H 39.4168 4.31489 -2.58508 0
M  V30 380 H 39.1168 3.99254 -4.31127 0
M  V30 381 H 40.6408 4.77552 -3.80495 0
M  V30 382 H 42.0548 2.83384 -4.98363 0
M  V30 383 H 40.4518 2.2817 -5.5503 0
M  V30 384 H 41.5218 1.14336 -4.71227 0
M  V30 385 N 42.8649 1.48995 0.513639 0
M  V30 386 C 43.7949 1.67636 1.62544 0
M  V30 387 C 44.7759 0.525087 1.61793 0
M  V30 388 O 45.9609 0.759502 1.78732 0
M  V30 389 C 43.0909 1.73114 3.01079 0
M  V30 390 C 42.0449 2.87905 3.16693 0
M  V30 391 C 41.3709 2.78486 4.56453 0
M  V30 392 C 42.6709 4.29005 2.97913 0
M  V30 393 H 44.3649 2.60716 1.47198 0
M  V30 394 H 41.9109 1.25465 0.706714 0
M  V30 395 H 43.8639 1.84742 3.78746 0
M  V30 396 H 42.5879 0.766241 3.17484 0
M  V30 397 H 41.2469 2.75859 2.41448 0
M  V30 398 H 40.8949 1.7993 4.69717 0
M  V30 399 H 40.5949 3.55523 4.67843 0
M  V30 400 H 42.1189 2.92104 5.36197 0
M  V30 401 H 43.5329 4.41798 3.65359 0
M  V30 402 H 41.9299 5.07166 3.20785 0
M  V30 403 H 42.9999 4.44329 1.94165 0
M  V30 404 N 44.343 -0.763751 1.37857 0
M  V30 405 C 45.568 -1.55805 1.36893 0
M  V30 406 C 45.993 -1.88054 -0.0416135 0
M  V30 407 O 45.351 -1.49825 -1.02089 0
M  V30 408 C 45.399 -2.84012 2.22192 0
M  V30 409 O 44.503 -3.78732 1.63204 0
M  V30 410 H 43.844 -0.471638 0.46739 0
M  V30 411 H 46.374 -0.944657 1.81487 0
M  V30 412 H 46.384 -3.33037 2.35691 0
M  V30 413 H 45.059 -2.59869 3.24716 0
M  V30 414 H 43.636 -3.37402 1.58791 0
M  V30 415 N 45.8211 -1.22559 -0.990812 0
M  V30 416 C 47.0671 -1.05297 -1.73322 0
M  V30 417 C 47.4001 0.410655 -1.89808 0
M  V30 418 O 46.6751 1.30439 -1.44277 0
M  V30 419 C 46.9581 -1.76713 -3.13759 0
M  V30 420 C 46.8111 -3.30684 -3.04907 0
M  V30 421 C 48.1301 -1.52121 -4.12974 0
M  V30 422 H 45.2491 -0.38392 -0.629106 0
M  V30 423 H 47.8911 -1.50926 -1.15418 0
M  V30 424 H 46.0411 -1.37924 -3.63193 0
M  V30 425 H 47.7131 -3.7893 -2.63077 0
M  V30 426 H 45.9561 -3.60253 -2.41661 0
M  V30 427 H 46.6271 -3.75833 -4.04294 0
M  V30 428 H 49.1031 -1.85819 -3.72304 0
M  V30 429 H 47.9791 -2.04582 -5.0935 0
M  V30 430 H 48.2401 -0.454257 -4.3976 0
M  V30 431 N 47.2992 1.18797 -1.03562 0
M  V30 432 C 48.5482 1.87978 -0.731235 0
M  V30 433 C 48.8612 1.80911 0.743671 0
M  V30 434 O 50.0672 2.45407 1.16137 0
M  V30 435 C 48.5232 3.3721 -1.25768 0
M  V30 436 C 48.1312 3.52818 -2.76085 0
M  V30 437 C 49.8752 4.11825 -1.0296 0
M  V30 438 C 47.7822 4.9598 -3.22114 0
M  V30 439 H 46.7122 0.704063 -0.269835 0
M  V30 440 H 49.3632 1.34266 -1.25079 0
M  V30 441 H 47.7452 3.90359 -0.666011 0
M  V30 442 H 48.9192 3.09965 -3.40966 0
M  V30 443 H 47.2342 2.91602 -2.97249 0
M  V30 444 H 49.8312 5.17411 -1.34869 0
M  V30 445 H 50.1742 4.16287 0.0333546 0
M  V30 446 H 50.7072 3.64833 -1.58562 0
M  V30 447 H 47.4462 4.96684 -4.27768 0
M  V30 448 H 46.9662 5.39569 -2.61965 0
M  V30 449 H 48.6452 5.6467 -3.15844 0
M  V30 450 N 48.7773 0.814389 1.34928 0
M  V30 451 C 50.0053 0.411136 2.02774 0
M  V30 452 C 50.4203 -0.980316 1.61354 0
M  V30 453 O 49.7773 -1.63299 0.814847 0
M  V30 454 C 49.8283 0.493865 3.58111 0
M  V30 455 O 49.5493 1.83047 3.98027 0
M  V30 456 C 51.0503 0.0844174 4.4322 0
M  V30 457 H 48.2703 0.166037 0.650133 0
M  V30 458 H 50.8143 1.10018 1.72384 0
M  V30 459 H 48.9693 -0.147006 3.87121 0
M  V30 460 H 49.3833 1.79872 4.92693 0
M  V30 461 H 50.8573 0.193404 5.51661 0
M  V30 462 H 51.3343 -0.97113 4.28329 0
M  V30 463 H 51.9403 0.69875 4.19521 0
M  V30 464 N 50.2554 -1.46986 0.568584 0
M  V30 465 C 51.1654 -2.33942 -0.17555 0
M  V30 466 C 52.1814 -1.48891 -0.90041 0
M  V30 467 O 53.3574 -1.81794 -0.86676 0
M  V30 468 C 50.4224 -3.25811 -1.18524 0
M  V30 469 C 49.4834 -4.26757 -0.466582 0
M  V30 470 C 48.7164 -5.14236 -1.42817 0
M  V30 471 O 48.9394 -5.04379 -2.66379 0
M  V30 472 O 47.8734 -5.94412 -0.946453 0
M  V30 473 H 51.6994 -2.98896 0.538036 0
M  V30 474 H 49.2844 -1.4573 0.329097 0
M  V30 475 H 51.1664 -3.82527 -1.76779 0
M  V30 476 H 49.8414 -2.63471 -1.88055 0
M  V30 477 H 48.7484 -3.73769 0.157451 0
M  V30 478 H 50.0814 -4.91843 0.187485 0
M  V30 479 N 51.7335 -0.305618 -1.54608 0
M  V30 480 C 52.9815 0.301701 -1.99835 0
M  V30 481 C 53.3025 1.54054 -1.19551 0
M  V30 482 O 52.5725 1.93702 -0.292658 0
M  V30 483 H 51.1525 0.114468 -0.738178 0
M  V30 484 H 53.8145 -0.418016 -1.90364 0
M  V30 485 H 52.9105 0.570548 -3.06841 0
M  V30 486 N 53.2116 1.57565 -0.0334293 0
M  V30 487 C 54.4576 1.92262 0.645226 0
M  V30 488 C 54.7906 0.910543 1.71531 0
M  V30 489 O 54.0656 -0.066099 1.94388 0
M  V30 490 C 54.3486 3.37422 1.2577 0
M  V30 491 C 54.2016 4.49369 0.196891 0
M  V30 492 C 55.5206 3.82628 2.17449 0
M  V30 493 H 52.6396 0.699171 0.233085 0
M  V30 494 H 55.2816 1.89779 -0.0915694 0
M  V30 495 H 53.4316 3.39669 1.88566 0
M  V30 496 H 55.1036 4.59254 -0.433962 0
M  V30 497 H 53.3466 4.31168 -0.477137 0
M  V30 498 H 54.0176 5.47978 0.665124 0
M  V30 499 H 56.4936 3.82145 1.64634 0
M  V30 500 H 55.3696 4.84883 2.57254 0
M  V30 501 H 55.6306 3.18376 3.0674 0
M  V30 502 N 54.6897 -0.239769 1.55765 0
M  V30 503 C 55.9377 -0.964892 1.77579 0
M  V30 504 C 56.2587 -1.85582 0.598699 0
M  V30 505 O 55.5287 -1.92075 -0.385226 0
M  V30 506 H 54.1087 -0.359265 0.654933 0
M  V30 507 H 56.7707 -0.256001 1.93211 0
M  V30 508 H 55.8667 -1.58243 2.69009 0
M  V30 509 N 56.1678 -1.49265 -0.50573 0
M  V30 510 C 57.0778 -1.68312 -1.63427 0
M  V30 511 C 58.0938 -0.565682 -1.64548 0
M  V30 512 O 59.2698 -0.839801 -1.83055 0
M  V30 513 C 56.3348 -1.74107 -2.99813 0
M  V30 514 C 55.3958 -2.97653 -3.09356 0
M  V30 515 C 54.6288 -3.03163 -4.39236 0
M  V30 516 O 54.8518 -2.16396 -5.27758 0
M  V30 517 O 53.7858 -3.9558 -4.53652 0
M  V30 518 H 57.6118 -2.63907 -1.50289 0
M  V30 519 H 55.1968 -1.32951 -0.681502 0
M  V30 520 H 57.0788 -1.803 -3.80881 0
M  V30 521 H 55.7538 -0.816901 -3.13223 0
M  V30 522 H 54.6608 -2.96981 -2.27493 0
M  V30 523 H 55.9938 -3.89535 -3.00871 0
M  V30 524 N 57.6459 0.756429 -1.3826 0
M  V30 525 C 58.5759 1.88374 -1.37976 0
M  V30 526 C 59.5569 1.68311 -0.246082 0
M  V30 527 O 60.7419 1.88944 -0.44874 0
M  V30 528 C 57.8719 3.25864 -1.20125 0
M  V30 529 C 56.8259 3.60523 -2.30666 0
M  V30 530 C 56.1519 4.9672 -1.97923 0
M  V30 531 C 57.4519 3.65692 -3.72916 0
M  V30 532 H 59.1459 1.88869 -2.32312 0
M  V30 533 H 56.6919 0.907272 -1.11824 0
M  V30 534 H 58.6449 4.0438 -1.18552 0
M  V30 535 H 57.3689 3.25841 -0.222498 0
M  V30 536 H 56.0279 2.84324 -2.3142 0
M  V30 537 H 55.6759 4.93253 -0.985393 0
M  V30 538 H 55.3759 5.20878 -2.71955 0
M  V30 539 H 56.8999 5.77618 -1.97964 0
M  V30 540 H 58.3139 4.34328 -3.74208 0
M  V30 541 H 56.7109 4.01358 -4.4613 0
M  V30 542 H 57.7809 2.65987 -4.05436 0
M  V30 543 N 59.124 1.23083 0.984299 0
M  V30 544 C 60.349 1.088 1.76571 0
M  V30 545 C 60.774 -0.356657 1.84688 0
M  V30 546 O 60.132 -1.25788 1.30565 0
M  V30 547 C 60.18 1.71371 3.17277 0
M  V30 548 O 59.284 0.973213 4.00752 0
M  V30 549 H 58.625 0.381599 0.543395 0
M  V30 550 H 61.155 1.63057 1.23587 0
M  V30 551 H 61.165 1.76449 3.67872 0
M  V30 552 H 59.84 2.76493 3.10684 0
M  V30 553 H 58.417 0.999078 3.59267 0
M  V30 554 N 60.6021 -1.18246 1.0419 0
M  V30 555 C 61.8481 -1.88536 0.747122 0
M  V30 556 C 62.1811 -1.80223 -0.723409 0
M  V30 557 O 61.4561 -1.20337 -1.52804 0
M  V30 558 C 61.7391 -3.38968 1.21544 0
M  V30 559 C 61.5921 -3.56084 2.74816 0
M  V30 560 C 62.9111 -4.32648 0.806482 0
M  V30 561 H 60.0301 -0.684619 0.272883 0
M  V30 562 H 62.6721 -1.39113 1.29413 0
M  V30 563 H 60.8221 -3.8119 0.750081 0
M  V30 564 H 62.4941 -3.22946 3.29399 0
M  V30 565 H 60.7371 -2.98699 3.14582 0
M  V30 566 H 61.4081 -4.61639 3.02644 0
M  V30 567 H 63.8841 -3.98211 1.20695 0
M  V30 568 H 62.7601 -5.36462 1.1619 0
M  V30 569 H 63.0211 -4.41146 -0.29029 0
M  V30 570 N 62.0802 -0.821533 -1.34494 0
M  V30 571 C 63.3292 -0.405355 -1.97585 0
M  V30 572 C 63.6422 1.03677 -1.65863 0
M  V30 573 O 64.8482 1.55679 -2.22433 0
M  V30 574 C 63.3042 -0.673861 -3.53535 0
M  V30 575 C 62.9122 -2.12951 -3.94152 0
M  V30 576 C 64.6562 -0.32378 -4.23263 0
M  V30 577 C 62.5632 -2.34298 -5.43009 0
M  V30 578 H 61.4932 -0.147836 -0.739365 0
M  V30 579 H 64.1442 -1.00769 -1.53355 0
M  V30 580 H 62.5262 -0.00137554 -3.96 0
M  V30 581 H 63.7002 -2.84104 -3.62797 0
M  V30 582 H 62.0152 -2.44089 -3.37356 0
M  V30 583 H 64.6122 -0.461126 -5.32708 0
M  V30 584 H 64.9552 0.731586 -4.09821 0
M  V30 585 H 65.4882 -0.950786 -3.8627 0
M  V30 586 H 62.2272 -3.38335 -5.61435 0
M  V30 587 H 61.7472 -1.67687 -5.75883 0
M  V30 588 H 63.4262 -2.16588 -6.09671 0
M  V30 589 N 63.5583 1.46682 -0.576371 0
M  V30 590 C 64.8353 1.95599 0.00703437 0
M  V30 591 C 65.2153 1.51904 1.46589 0
M  V30 592 O 64.5633 0.766755 2.15251 0
M  V30 593 C 64.7733 3.4864 -0.158404 0
M  V30 594 C 66.1213 4.24594 -0.0229439 0
M  V30 595 O 67.1453 3.56094 -0.0869173 0
M  V30 596 O 66.0043 5.46373 0.118015 0
M  V30 597 H 63.0983 0.825275 0.053384 0
M  V30 598 H 65.6443 1.56996 -0.644244 0
M  V30 599 H 64.4163 3.7331 -1.17282 0
M  V30 600 H 64.0393 3.94057 0.5296 0
M  V30 601 N 65.0364 0.313813 1.54444 0
M  V30 602 C 66.4474 -0.176243 1.85866 0
M  V30 603 C 66.7984 -1.52405 1.23561 0
M  V30 604 O 65.9234 -2.09605 0.538016 0
M  V30 605 C 66.5184 -0.32657 3.37222 0
M  V30 606 C 65.0774 -0.760846 3.6863 0
M  V30 607 C 64.2244 0.123247 2.77026 0
M  V30 608 H 67.1754 0.534418 1.49431 0
M  V30 609 H 67.1964 -1.15908 3.62416 0
M  V30 610 H 66.7084 0.654531 3.82541 0
M  V30 611 H 64.8094 -1.75204 3.28838 0
M  V30 612 H 64.9224 -0.571353 4.75681 0
M  V30 613 H 63.2864 -0.399597 2.51546 0
M  V30 614 H 64.0694 1.10094 3.25168 0
M  V30 615 N 66.5145 -1.57545 0.0417849 0
M  V30 616 C 67.4245 -2.14451 -0.951213 0
M  V30 617 C 68.4405 -1.09992 -1.34825 0
M  V30 618 O 69.6165 -1.42114 -1.42708 0
M  V30 619 C 66.6815 -2.67063 -2.21084 0
M  V30 620 C 65.7425 -3.86284 -1.87304 0
M  V30 621 C 64.9755 -4.36378 -3.07261 0
M  V30 622 O 65.1985 -3.85587 -4.20332 0
M  V30 623 O 64.1325 -5.28077 -2.88822 0
M  V30 624 H 67.9585 -2.99601 -0.497287 0
M  V30 625 H 65.5435 -1.48317 -0.179567 0
M  V30 626 H 67.4255 -3.00914 -2.95006 0
M  V30 627 H 66.1005 -1.84989 -2.65633 0
M  V30 628 H 65.0075 -3.57338 -1.10727 0
M  V30 629 H 66.3405 -4.6956 -1.47562 0
M  V30 630 N 67.9926 0.231505 -1.5589 0
M  V30 631 C 69.2386 0.95877 -1.78705 0
M  V30 632 C 69.5716 1.8438 -0.609725 0
M  V30 633 O 68.8466 1.90521 0.391426 0
M  V30 634 C 69.1296 1.8062 -3.11526 0
M  V30 635 C 68.9826 0.948328 -4.39689 0
M  V30 636 C 70.3016 2.78585 -3.40703 0
M  V30 637 H 67.4206 0.347129 -0.650131 0
M  V30 638 H 70.0626 0.228259 -1.88624 0
M  V30 639 H 68.2126 2.42902 -3.03201 0
M  V30 640 H 69.8846 0.343016 -4.60023 0
M  V30 641 H 68.1276 0.253314 -4.3306 0
M  V30 642 H 68.7986 1.57543 -5.29041 0
M  V30 643 H 71.2746 2.26439 -3.49091 0
M  V30 644 H 70.1506 3.34988 -4.34826 0
M  V30 645 H 70.4116 3.55825 -2.62375 0
M  V30 646 N 69.4707 1.49531 0.497807 0
M  V30 647 C 70.4337 1.65916 1.58128 0
M  V30 648 C 71.4337 0.530825 1.51786 0
M  V30 649 O 72.6237 0.797342 1.54881 0
M  V30 650 C 69.7557 1.65951 2.9778 0
M  V30 651 H 70.9487 2.62556 1.44929 0
M  V30 652 H 68.5017 1.38611 0.722275 0
M  V30 653 H 69.2367 0.709065 3.16453 0
M  V30 654 H 69.0217 2.47897 3.03792 0
M  V30 655 H 70.5117 1.80673 3.76493 0
M  V30 656 N 70.9488 -0.749086 1.3866 0
M  V30 657 C 71.8808 -1.87273 1.32142 0
M  V30 658 C 72.8938 -1.61127 0.232787 0
M  V30 659 O 74.0828 -1.71623 0.49069 0
M  V30 660 C 71.1828 -3.23005 1.02571 0
M  V30 661 C 70.3558 -3.7662 2.22433 0
M  V30 662 C 69.4148 -4.90879 1.89537 0
M  V30 663 O 68.4408 -5.05276 2.62078 0
M  V30 664 N 69.6428 -5.74198 0.853031 0
M  V30 665 H 72.4078 -1.93373 2.28969 0
M  V30 666 H 69.9688 -0.929216 1.32579 0
M  V30 667 H 71.9608 -3.96992 0.786085 0
M  V30 668 H 70.5308 -3.12262 0.145249 0
M  V30 669 H 69.7508 -2.94147 2.62434 0
M  V30 670 H 71.0388 -4.09173 3.02415 0
M  V30 671 H 70.4368 -5.6514 0.25155 0
M  V30 672 H 68.9938 -6.48313 0.67329 0
M  V30 673 N 72.4269 -1.23603 -0.977757 0
M  V30 674 C 73.3739 -1.01954 -2.07061 0
M  V30 675 C 74.3439 0.0638697 -1.65977 0
M  V30 676 O 75.5289 -0.0887624 -1.90593 0
M  V30 677 C 72.6689 -0.619658 -3.39491 0
M  V30 678 C 71.7819 -1.77547 -3.93829 0
M  V30 679 C 70.9169 -1.32212 -5.14484 0
M  V30 680 C 69.9559 -2.44852 -5.60994 0
M  V30 681 N 69.0929 -2.00456 -6.72876 0
M  V30 682 H 73.9329 -1.95495 -2.24913 0
M  V30 683 H 71.4699 -0.973861 -1.10247 0
M  V30 684 H 73.4279 -0.368898 -4.15566 0
M  V30 685 H 72.0579 0.278752 -3.21594 0
M  V30 686 H 71.1099 -2.14016 -3.14486 0
M  V30 687 H 72.4219 -2.62219 -4.24314 0
M  V30 688 H 71.5759 -1.02965 -5.97899 0
M  V30 689 H 70.3149 -0.445808 -4.85658 0
M  V30 690 H 69.3199 -2.74871 -4.76157 0
M  V30 691 H 70.5449 -3.33024 -5.91837 0
M  V30 692 H 68.4909 -1.15208 -6.45804 0
M  V30 693 H 68.4079 -2.78687 -7.02759 0
M  V30 694 H 69.6759 -1.7432 -7.59758 0
M  V30 695 N 73.905 1.17692 -1.04816 0
M  V30 696 C 74.868 2.19787 -0.650117 0
M  V30 697 C 75.868 1.58044 0.296427 0
M  V30 698 O 77.058 1.74012 0.0808097 0
M  V30 699 C 74.19 3.40869 0.0456987 0
M  V30 700 H 75.383 2.56516 -1.5537 0
M  V30 701 H 72.936 1.31708 -0.841594 0
M  V30 702 H 73.671 3.09681 0.962726 0
M  V30 703 H 73.456 3.86928 -0.634727 0
M  V30 704 H 74.946 4.16445 0.310432 0
M  V30 705 N 75.3831 0.828654 1.34056 0
M  V30 706 C 76.6231 0.425394 1.99924 0
M  V30 707 C 76.9871 -0.994294 1.64249 0
M  V30 708 O 78.1881 -1.50074 2.23005 0
M  V30 709 C 76.4591 0.628071 3.51838 0
M  V30 710 S 78.0181 0.318511 4.37642 0
M  V30 711 H 74.8361 0.160465 0.692656 0
M  V30 712 H 77.4381 1.07572 1.63244 0
M  V30 713 H 76.1421 1.66089 3.7529 0
M  V30 714 H 75.6731 -0.0367799 3.93383 0
M  V30 715 H 77.6881 -0.865632 4.88591 0
M  V30 716 N 76.8612 -1.46375 0.584142 0
M  V30 717 C 77.7932 -2.28443 -0.186119 0
M  V30 718 C 78.8062 -1.38596 -0.854115 0
M  V30 719 O 79.9952 -1.63183 -0.723438 0
M  V30 720 C 77.0952 -3.13671 -1.28311 0
M  V30 721 C 76.2682 -4.31652 -0.706758 0
M  V30 722 C 75.3272 -4.98267 -1.69163 0
M  V30 723 O 74.3532 -5.55815 -1.22712 0
M  V30 724 N 75.5552 -4.95408 -3.02575 0
M  V30 725 H 78.3202 -2.9519 0.517986 0
M  V30 726 H 75.8812 -1.56303 0.42201 0
M  V30 727 H 77.8732 -3.55101 -1.94128 0
M  V30 728 H 76.4432 -2.48989 -1.89005 0
M  V30 729 H 75.6632 -3.93989 0.128908 0
M  V30 730 H 76.9512 -5.07906 -0.301506 0
M  V30 731 H 76.3492 -4.49902 -3.42936 0
M  V30 732 H 74.9062 -5.40774 -3.63877 0
M  V30 733 N 78.3393 -0.321999 -1.54275 0
M  V30 734 C 79.2493 0.553631 -2.27974 0
M  V30 735 C 80.2653 1.13054 -1.32268 0
M  V30 736 O 81.4413 1.15084 -1.6528 0
M  V30 737 C 78.5063 1.69927 -3.02201 0
M  V30 738 C 77.5673 1.15433 -4.1349 0
M  V30 739 C 76.8003 2.24537 -4.84168 0
M  V30 740 O 77.0233 3.44852 -4.5435 0
M  V30 741 O 75.9573 1.90044 -5.7111 0
M  V30 742 H 79.7833 -0.0448345 -3.03667 0
M  V30 743 H 77.3683 -0.0877418 -1.49142 0
M  V30 744 H 79.2503 2.3663 -3.48689 0
M  V30 745 H 77.9253 2.28395 -2.29385 0
M  V30 746 H 76.8323 0.452436 -3.71354 0
M  V30 747 H 78.1653 0.614805 -4.88345 0
M  V30 748 N 79.8174 1.5752 -0.0501392 0
M  V30 749 C 81.0634 1.92936 0.624798 0
M  V30 750 C 81.3964 0.928685 1.70555 0
M  V30 751 O 80.6714 -0.0454779 1.94447 0
M  V30 752 C 80.9544 3.38737 1.22185 0
M  V30 753 C 80.8074 4.49552 0.149218 0
M  V30 754 C 82.1264 3.84913 2.13378 0
M  V30 755 H 79.2454 0.701604 0.225657 0
M  V30 756 H 81.8874 1.89671 -0.111693 0
M  V30 757 H 80.0374 3.4165 1.84953 0
M  V30 758 H 81.7094 4.58768 -0.482648 0
M  V30 759 H 79.9524 4.30638 -0.522841 0
M  V30 760 H 80.6234 5.48653 0.606966 0
M  V30 761 H 83.0994 3.8387 1.60572 0
M  V30 762 H 81.9754 4.87584 2.52097 0
M  V30 763 H 82.2364 3.21611 3.03346 0
M  V30 764 N 81.2955 -0.223234 1.56011 0
M  V30 765 C 82.2255 -1.27988 1.95298 0
M  V30 766 C 83.2065 -1.48976 0.820979 0
M  V30 767 O 84.3915 -1.61188 1.08315 0
M  V30 768 C 81.5215 -2.63 2.26822 0
M  V30 769 C 80.4755 -2.56671 3.42497 0
M  V30 770 C 79.8015 -3.95697 3.59622 0
M  V30 771 C 81.1015 -2.11601 4.77517 0
M  V30 772 H 82.7955 -0.953525 2.8381 0
M  V30 773 H 80.3415 -0.457244 1.36548 0
M  V30 774 H 82.2945 -3.37077 2.52898 0
M  V30 775 H 81.0185 -2.9732 1.35161 0
M  V30 776 H 79.6775 -1.85051 3.16467 0
M  V30 777 H 79.3255 -4.27322 2.6534 0
M  V30 778 H 79.0255 -3.92345 4.37424 0
M  V30 779 H 80.5495 -4.71438 3.88044 0
M  V30 780 H 81.9635 -2.7542 5.02809 0
M  V30 781 H 80.3605 -2.19311 5.5859 0
M  V30 782 H 81.4305 -1.06824 4.72987 0
M  V30 783 N 82.7736 -1.49793 -0.48987 0
M  V30 784 C 83.6836 -1.70036 -1.61632 0
M  V30 785 C 84.6996 -0.583102 -1.63939 0
M  V30 786 O 85.8756 -0.859169 -1.82154 0
M  V30 787 C 82.9406 -1.77277 -2.97949 0
M  V30 788 C 82.0016 -3.00918 -3.06181 0
M  V30 789 C 81.2346 -3.07804 -4.35996 0
M  V30 790 O 81.4576 -2.21982 -5.25433 0
M  V30 791 O 80.3916 -4.00369 -4.49431 0
M  V30 792 H 84.2176 -2.65486 -1.47482 0
M  V30 793 H 81.8026 -1.33666 -0.667362 0
M  V30 794 H 83.6846 -1.84329 -3.78947 0
M  V30 795 H 82.3596 -0.850076 -3.12339 0
M  V30 796 H 81.2666 -2.99377 -2.2433 0
M  V30 797 H 82.5996 -3.92704 -2.96723 0
M  V30 798 N 84.2517 0.741722 -1.39055 0
M  V30 799 C 85.1987 1.85566 -1.37237 0
M  V30 800 C 86.1687 1.64457 -0.233072 0
M  V30 801 O 87.3537 1.85957 -0.427147 0
M  V30 802 C 84.4937 3.23004 -1.215 0
M  V30 803 C 83.6067 3.55864 -2.44918 0
M  V30 804 C 82.7417 4.82669 -2.21821 0
M  V30 805 C 81.7807 5.08351 -3.40948 0
M  V30 806 N 80.9177 6.26356 -3.17211 0
M  V30 807 H 85.7577 1.86455 -2.32462 0
M  V30 808 H 83.2947 0.911176 -1.15482 0
M  V30 809 H 85.2527 4.02331 -1.10389 0
M  V30 810 H 83.8827 3.21411 -0.29908 0
M  V30 811 H 82.9347 2.7129 -2.66657 0
M  V30 812 H 84.2467 3.70765 -3.33668 0
M  V30 813 H 83.4007 5.69962 -2.07914 0
M  V30 814 H 82.1397 4.69929 -1.30454 0
M  V30 815 H 81.1447 4.19522 -3.55361 0
M  V30 816 H 82.3697 5.22981 -4.33207 0
M  V30 817 H 80.3157 6.14917 -2.28502 0
M  V30 818 H 80.2327 6.41813 -3.99515 0
M  V30 819 H 81.5007 7.16506 -3.06984 0
M  V30 820 N 85.7298 1.2412 0.971189 0
M  V30 821 C 86.9758 1.08041 1.71625 0
M  V30 822 C 87.3088 -0.380407 1.90438 0
M  V30 823 O 86.5838 -1.28127 1.46334 0
M  V30 824 C 86.8668 1.81682 3.10908 0
M  V30 825 C 86.7198 3.35493 2.99608 0
M  V30 826 C 88.0388 1.58671 4.10501 0
M  V30 827 H 85.1578 0.39388 0.622919 0
M  V30 828 H 87.7998 1.52743 1.13003 0
M  V30 829 H 85.9498 1.43684 3.60953 0
M  V30 830 H 87.6218 3.83068 2.57015 0
M  V30 831 H 85.8648 3.64052 2.35899 0
M  V30 832 H 86.5358 3.82217 3.98264 0
M  V30 833 H 89.0118 1.91719 3.69301 0
M  V30 834 H 87.8878 2.1266 5.06031 0
M  V30 835 H 88.1488 0.524161 4.38982 0
M  V30 836 N 87.2079 -1.17134 1.05439 0
M  V30 837 C 88.1549 -2.21235 0.657539 0
M  V30 838 C 89.1249 -1.62551 -0.341543 0
M  V30 839 O 90.3099 -1.89379 -0.232393 0
M  V30 840 C 87.4499 -3.45076 0.0410575 0
M  V30 841 C 86.5629 -4.18042 1.08927 0
M  V30 842 C 85.6979 -5.29376 0.439848 0
M  V30 843 C 84.7369 -5.94132 1.4722 0
M  V30 844 N 83.8739 -6.96975 0.846756 0
M  V30 845 H 88.7139 -2.54534 1.54972 0
M  V30 846 H 86.2509 -1.25028 0.775006 0
M  V30 847 H 88.2089 -4.15862 -0.33383 0
M  V30 848 H 86.8389 -3.12353 -0.814568 0
M  V30 849 H 85.8909 -3.45945 1.58196 0
M  V30 850 H 87.2029 -4.62306 1.87282 0
M  V30 851 H 86.3569 -6.06699 0.0115125 0
M  V30 852 H 85.0959 -4.86251 -0.375656 0
M  V30 853 H 84.1009 -5.15538 1.91052 0
M  V30 854 H 85.3259 -6.39337 2.28965 0
M  V30 855 H 83.2719 -6.5598 0.0518075 0
M  V30 856 H 83.1889 -7.39565 1.5678 0
M  V30 857 H 84.4569 -7.78239 0.443277 0
M  V30 858 N 88.686 -0.835752 -1.33615 0
M  V30 859 C 89.616 -0.281739 -2.31794 0
M  V30 860 C 90.597 0.608833 -1.58831 0
M  V30 861 O 91.782 0.533035 -1.86741 0
M  V30 862 C 88.912 0.546612 -3.42971 0
M  V30 863 C 87.866 -0.247904 -4.27281 0
M  V30 864 C 87.192 0.704001 -5.30045 0
M  V30 865 C 88.492 -1.46324 -5.01385 0
M  V30 866 H 90.186 -1.10206 -2.78379 0
M  V30 867 H 87.732 -0.531388 -1.33837 0
M  V30 868 H 89.685 0.944467 -4.1068 0
M  V30 869 H 88.409 1.40011 -2.95067 0
M  V30 870 H 87.068 -0.627281 -3.61194 0
M  V30 871 H 86.716 1.55381 -4.78399 0
M  V30 872 H 86.416 0.176524 -5.87335 0
M  V30 873 H 87.94 1.09944 -6.0062 0
M  V30 874 H 89.354 -1.13871 -5.61877 0
M  V30 875 H 87.751 -1.92728 -5.6831 0
M  V30 876 H 88.821 -2.23467 -4.30338 0
M  V30 877 N 90.1641 1.46063 -0.591896 0
M  V30 878 C 91.0941 2.33172 0.123673 0
M  V30 879 C 92.0751 1.45897 0.87453 0
M  V30 880 O 93.2601 1.74698 0.848181 0
M  V30 881 C 90.3901 3.28336 1.13194 0
M  V30 882 C 89.3441 4.25124 0.495324 0
M  V30 883 C 88.6701 5.09863 1.61071 0
M  V30 884 C 89.9701 5.19143 -0.573425 0
M  V30 885 H 91.6641 2.93252 -0.603646 0
M  V30 886 H 89.2101 1.41014 -0.291741 0
M  V30 887 H 91.1631 3.88137 1.64097 0
M  V30 888 H 89.8871 2.66383 1.88965 0
M  V30 889 H 88.5461 3.66599 0.00729452 0
M  V30 890 H 88.1941 4.44288 2.35832 0
M  V30 891 H 87.8941 5.75417 1.19035 0
M  V30 892 H 89.4181 5.72529 2.12233 0
M  V30 893 H 90.8321 5.73106 -0.1491 0
M  V30 894 H 89.2291 5.93089 -0.914636 0
M  V30 895 H 90.2991 4.62519 -1.45617 0
M  V30 896 N 91.6422 0.330177 1.54103 0
M  V30 897 C 92.5922 -0.548456 2.21305 0
M  V30 898 C 93.5762 -1.07651 1.19583 0
M  V30 899 O 94.7682 -1.01243 1.45186 0
M  V30 900 C 91.8972 -1.70559 2.97934 0
M  V30 901 C 90.9832 -1.19212 4.07 0
M  V30 902 N 91.3742 -0.398831 5.04225 0
M  V30 903 C 89.6722 -1.47024 4.2107 0
M  V30 904 C 90.3732 -0.121761 5.81573 0
M  V30 905 N 89.3492 -0.709722 5.38947 0
M  V30 906 H 93.1512 0.0648483 2.93828 0
M  V30 907 H 90.6652 0.136363 1.61826 0
M  V30 908 H 92.6622 -2.34688 3.44568 0
M  V30 909 H 91.3222 -2.32231 2.26934 0
M  V30 910 H 92.3332 -0.0410869 5.17884 0
M  V30 911 H 89.0102 -2.09232 3.61287 0
M  V30 912 H 90.4002 0.517298 6.69906 0
M  V30 913 N 93.1203 -1.57491 0.0584922 0
M  V30 914 C 94.3683 -1.92597 -0.612436 0
M  V30 915 C 94.6893 -0.938162 -1.70949 0
M  V30 916 O 93.9593 0.0158301 -1.95894 0
M  V30 917 H 92.5393 -0.710964 -0.229214 0
M  V30 918 H 95.2013 -1.94571 0.113218 0
M  V30 919 H 94.2973 -2.94038 -1.04633 0
M  V30 920 N 94.5984 0.214957 -1.56127 0
M  V30 921 C 95.8464 0.936518 -1.79091 0
M  V30 922 C 96.1674 1.84606 -0.628148 0
M  V30 923 O 95.4374 1.92664 0.35462 0
M  V30 924 H 94.0174 0.3488 -0.660566 0
M  V30 925 H 96.6794 0.22523 -1.93594 0
M  V30 926 H 95.7754 1.53943 -2.71492 0
M  V30 927 N 96.0765 1.50051 0.48192 0
M  V30 928 C 97.3225 1.60736 1.2366 0
M  V30 929 C 97.6555 0.301786 1.91841 0
M  V30 930 O 96.9305 -0.696025 1.8162 0
M  V30 931 C 97.2135 2.78009 2.28874 0
M  V30 932 C 97.0665 4.18416 1.65069 0
M  V30 933 C 98.3855 2.90867 3.30279 0
M  V30 934 H 95.5045 0.585031 0.448228 0
M  V30 935 H 98.1465 1.82402 0.531946 0
M  V30 936 H 96.2965 2.59667 2.88973 0
M  V30 937 H 97.9685 4.48322 1.0865 0
M  V30 938 H 96.2115 4.23177 0.954148 0
M  V30 939 H 96.8825 4.96381 2.41474 0
M  V30 940 H 99.3585 3.07623 2.80191 0
M  V30 941 H 98.2345 3.74566 4.01238 0
M  V30 942 H 98.4955 2.01021 3.93755 0
M  V30 943 N 97.5546 -0.734337 1.39446 0
M  V30 944 C 98.5176 -1.83004 1.37994 0
M  V30 945 C 99.5176 -1.58397 0.276938 0
M  V30 946 O 100.708 -1.65785 0.534875 0
M  V30 947 C 97.8396 -3.20802 1.1532 0
M  V30 948 H 99.0326 -1.85694 2.35494 0
M  V30 949 H 96.5856 -0.938059 1.25021 0
M  V30 950 H 97.3206 -3.23772 0.185036 0
M  V30 951 H 97.1056 -3.4006 1.95197 0
M  V30 952 H 98.5956 -4.00862 1.17046 0
M  V30 953 N 99.0327 -1.24633 -0.964593 0
M  V30 954 C 100.279 -1.08949 -1.71049 0
M  V30 955 C 100.612 0.370302 -1.90637 0
M  V30 956 O 99.8867 1.27349 -1.47011 0
M  V30 957 C 100.17 -1.83329 -3.0994 0
M  V30 958 C 100.023 -3.37077 -2.97824 0
M  V30 959 C 101.342 -1.60846 -4.09654 0
M  V30 960 H 98.4607 -0.397178 -0.620821 0
M  V30 961 H 101.103 -1.5334 -1.12191 0
M  V30 962 H 99.2527 -1.45597 -3.60186 0
M  V30 963 H 100.925 -3.84425 -2.5498 0
M  V30 964 H 99.1677 -3.65298 -2.33965 0
M  V30 965 H 99.8387 -3.84324 -3.96231 0
M  V30 966 H 102.315 -1.93674 -3.68279 0
M  V30 967 H 101.191 -2.1534 -5.04896 0
M  V30 968 H 101.452 -0.547434 -4.38698 0
M  V30 969 N 100.511 1.16574 -1.06058 0
M  V30 970 C 101.736 1.91493 -0.796562 0
M  V30 971 C 102.161 1.76773 0.642868 0
M  V30 972 O 101.519 1.09142 1.44768 0
M  V30 973 C 101.567 3.40293 -1.19303 0
M  V30 974 O 100.671 4.11074 -0.330394 0
M  V30 975 H 100.012 0.596678 -0.291326 0
M  V30 976 H 102.542 1.47708 -1.41575 0
M  V30 977 H 102.552 3.91057 -1.16356 0
M  V30 978 H 101.227 3.50326 -2.24153 0
M  V30 979 H 99.8038 3.70513 -0.421225 0
M  V30 980 N 101.989 0.842826 1.3317 0
M  V30 981 C 103.214 0.453129 2.02389 0
M  V30 982 C 103.639 -0.939105 1.6298 0
M  V30 983 O 102.997 -1.61472 0.8244 0
M  V30 984 C 103.045 0.586094 3.55805 0
M  V30 985 O 102.149 -0.386029 4.10589 0
M  V30 986 H 101.49 0.183664 0.638094 0
M  V30 987 H 104.02 1.13875 1.69981 0
M  V30 988 H 104.03 0.469209 4.05293 0
M  V30 989 H 102.705 1.6014 3.83833 0
M  V30 990 H 101.282 -0.226371 3.72212 0
M  V30 991 N 103.467 -1.45747 0.599634 0
M  V30 992 C 104.883 -1.57424 0.26264 0
M  V30 993 C 105.083 -1.59222 -1.23493 0
M  V30 994 O 104.139 -1.51825 -2.01756 0
M  V30 995 C 105.452 -2.86061 0.926795 0
M  V30 996 C 107 -2.99722 0.901967 0
M  V30 997 C 107.475 -4.31119 1.54598 0
M  V30 998 N 108.966 -4.37858 1.5111 0
M  V30 999 C 109.701 -5.3818 1.97863 0
M  V30 1000 N 109.197 -6.45083 2.52666 0
M  V30 1001 N 110.99 -5.29487 1.88679 0
M  V30 1002 H 103.141 -1.42823 1.57211 0
M  V30 1003 H 105.404 -0.68235 0.658105 0
M  V30 1004 H 105.11 -2.90605 1.98095 0
M  V30 1005 H 104.984 -3.74563 0.445238 0
M  V30 1006 H 107.371 -2.9475 -0.143617 0
M  V30 1007 H 107.452 -2.12652 1.42171 0
M  V30 1008 H 107.096 -4.36849 2.59085 0
M  V30 1009 H 107.026 -5.16992 1.00132 0
M  V30 1010 H 109.517 -3.61209 1.11068 0
M  V30 1011 H 109.83 -7.17869 2.86155 0
M  V30 1012 H 108.175 -6.45856 2.56701 0
M  V30 1013 H 111.366 -4.44877 1.4561 0
M  V30 1014 H 111.539 -6.07524 2.25429 0
M  V30 1015 N 104.945 -0.338344 -1.53925 0
M  V30 1016 C 106.193 0.259245 -2.0043 0
M  V30 1017 C 106.514 1.51484 -1.22791 0
M  V30 1018 O 105.784 1.93037 -0.33368 0
M  V30 1019 H 104.364 0.0987845 -0.740439 0
M  V30 1020 H 107.026 -0.458302 -1.89435 0
M  V30 1021 H 106.122 0.505334 -3.07982 0
M  V30 1022 N 106.423 1.57458 -0.0668435 0
M  V30 1023 C 107.651 1.97624 0.612565 0
M  V30 1024 C 108.066 0.94502 1.63447 0
M  V30 1025 O 107.423 -0.0689276 1.8237 0
M  V30 1026 C 107.474 3.37869 1.28555 0
M  V30 1027 O 107.195 4.3704 0.304557 0
M  V30 1028 C 108.696 3.92882 2.05325 0
M  V30 1029 H 105.916 0.650045 0.166381 0
M  V30 1030 H 108.46 2.04035 -0.137782 0
M  V30 1031 H 106.615 3.3256 1.98702 0
M  V30 1032 H 107.029 5.18565 0.786779 0
M  V30 1033 H 108.503 4.93247 2.47812 0
M  V30 1034 H 108.98 3.29156 2.9078 0
M  V30 1035 H 109.586 4.01577 1.40056 0
M  V30 1036 N 107.901 -0.206675 1.56239 0
M  V30 1037 C 109.312 -0.772383 1.69974 0
M  V30 1038 C 109.663 -1.84353 0.671436 0
M  V30 1039 O 108.788 -2.15695 -0.174491 0
M  V30 1040 C 109.383 -1.40779 3.08167 0
M  V30 1041 C 107.942 -1.92072 3.23706 0
M  V30 1042 C 107.089 -0.786347 2.65917 0
M  V30 1043 H 110.04 0.0182223 1.5869 0
M  V30 1044 H 110.061 -2.27696 3.04852 0
M  V30 1045 H 109.573 -0.627958 3.82986 0
M  V30 1046 H 107.674 -2.7281 2.53782 0
M  V30 1047 H 107.787 -2.09046 4.31087 0
M  V30 1048 H 106.151 -1.1976 2.24788 0
M  V30 1049 H 106.934 -0.0189416 3.43295 0
M  V30 1050 N 109.379 -1.50304 -0.473955 0
M  V30 1051 C 110.309 -1.71886 -1.58042 0
M  V30 1052 C 111.29 -0.567799 -1.60344 0
M  V30 1053 O 112.475 -0.806623 -1.76656 0
M  V30 1054 C 109.605 -1.81036 -2.96384 0
M  V30 1055 C 108.559 -2.962 -3.08949 0
M  V30 1056 C 107.885 -2.9049 -4.48909 0
M  V30 1057 C 109.185 -4.36752 -2.86434 0
M  V30 1058 H 110.879 -2.64527 -1.40234 0
M  V30 1059 H 108.425 -1.27295 -0.673201 0
M  V30 1060 H 110.378 -1.94719 -3.73714 0
M  V30 1061 H 109.102 -0.850147 -3.15341 0
M  V30 1062 H 107.761 -2.82164 -2.3405 0
M  V30 1063 H 107.409 -1.92321 -4.64781 0
M  V30 1064 H 107.109 -3.67802 -4.58253 0
M  V30 1065 H 108.633 -3.06218 -5.28264 0
M  V30 1066 H 110.047 -4.5133 -3.53517 0
M  V30 1067 H 108.444 -5.15493 -3.07225 0
M  V30 1068 H 109.514 -4.49321 -1.82316 0
M  V30 1069 N 110.857 0.726932 -1.39834 0
M  V30 1070 C 111.767 1.87131 -1.41489 0
M  V30 1071 C 112.783 1.71239 -0.308757 0
M  V30 1072 O 113.959 1.93701 -0.551529 0
M  V30 1073 C 111.024 3.22811 -1.26468 0
M  V30 1074 C 110.085 3.51039 -2.47124 0
M  V30 1075 C 109.318 4.80245 -2.3281 0
M  V30 1076 O 109.541 5.54537 -1.33585 0
M  V30 1077 O 108.475 5.08554 -3.21957 0
M  V30 1078 H 112.301 1.8869 -2.3797 0
M  V30 1079 H 109.886 0.875837 -1.21035 0
M  V30 1080 H 111.768 4.03877 -1.20255 0
M  V30 1081 H 110.443 3.22005 -0.330862 0
M  V30 1082 H 109.35 2.70027 -2.58914 0
M  V30 1083 H 110.683 3.56632 -3.39227 0
M  V30 1084 N 112.336 1.25143 0.95797 0
M  V30 1085 C 113.266 1.07711 2.07173 0
M  V30 1086 C 114.247 -0.0128462 1.70095 0
M  V30 1087 O 115.432 0.156061 1.93572 0
M  V30 1088 C 112.562 0.691503 3.40346 0
M  V30 1089 C 111.516 1.73132 3.9142 0
M  V30 1090 C 110.842 1.20049 5.21049 0
M  V30 1091 C 112.142 3.1294 4.1817 0
M  V30 1092 H 113.836 2.00873 2.22014 0
M  V30 1093 H 111.382 0.967191 1.06684 0
M  V30 1094 H 113.335 0.556505 4.17709 0
M  V30 1095 H 112.059 -0.275819 3.25433 0
M  V30 1096 H 110.718 1.8547 3.16222 0
M  V30 1097 H 110.366 0.223499 5.02503 0
M  V30 1098 H 110.066 1.89545 5.56189 0
M  V30 1099 H 111.59 1.07782 6.01012 0
M  V30 1100 H 113.004 3.03775 4.86203 0
M  V30 1101 H 111.401 3.79875 4.64559 0
M  V30 1102 H 112.471 3.6025 3.24573 0
M  V30 1103 N 113.814 -1.1601 1.06675 0
M  V30 1104 C 115.06 -1.86909 0.786945 0
M  V30 1105 C 115.393 -1.81717 -0.685018 0
M  V30 1106 O 114.668 -1.23551 -1.50218 0
M  V30 1107 C 114.951 -3.36313 1.28707 0
M  V30 1108 C 114.804 -3.50175 2.82308 0
M  V30 1109 C 116.123 -4.3084 0.898071 0
M  V30 1110 H 113.242 -0.678677 0.287343 0
M  V30 1111 H 115.884 -1.36336 1.32334 0
M  V30 1112 H 114.034 -3.79513 0.830768 0
M  V30 1113 H 115.706 -3.15886 3.36175 0
M  V30 1114 H 113.949 -2.91959 3.20847 0
M  V30 1115 H 114.62 -4.55116 3.12368 0
M  V30 1116 H 117.096 -3.95561 1.29114 0
M  V30 1117 H 115.972 -5.33876 1.27543 0
M  V30 1118 H 116.233 -4.41662 -0.196651 0
M  V30 1119 N 115.292 -0.849877 -1.32721 0
M  V30 1120 C 116.24 -0.279745 -2.30912 0
M  V30 1121 C 117.234 0.594278 -1.58634 0
M  V30 1122 O 118.44 0.482613 -1.73409 0
M  V30 1123 H 114.815 -0.0717521 -0.748569 0
M  V30 1124 H 116.786 -1.12222 -2.76494 0
M  V30 1125 C 115.535 0.521108 -3.43773 0
M  V30 1126 H 114.858 -0.142141 -3.99547 0
M  V30 1127 H 116.298 0.885693 -4.14646 0
M  V30 1128 C 114.757 1.70442 -2.90605 0
M  V30 1129 O 115.287 2.8034 -2.87702 0
M  V30 1130 N 113.493 1.52991 -2.47067 0
M  V30 1131 H 113.04 0.635914 -2.49628 0
M  V30 1132 H 112.998 2.32311 -2.11847 0
M  V30 1133 N 116.77 1.45427 -0.607355 0
M  V30 1134 C 118.018 2.01841 -0.102253 0
M  V30 1135 C 118.339 1.47832 1.27164 0
M  V30 1136 O 117.609 0.672497 1.83995 0
M  V30 1137 H 116.189 0.746188 -0.0348101 0
M  V30 1138 H 118.851 1.78229 -0.7887 0
M  V30 1139 H 117.947 3.12057 -0.0518585 0
M  V30 1140 N 118.248 0.346503 1.53744 0
M  V30 1141 C 119.525 -0.304532 1.93215 0
M  V30 1142 C 119.905 -1.67993 1.27834 0
M  V30 1143 O 119.253 -2.24411 0.430352 0
M  V30 1144 C 119.463 -0.373852 3.46992 0
M  V30 1145 C 120.811 -0.62329 4.2 0
M  V30 1146 O 121.835 -0.455847 3.53271 0
M  V30 1147 O 120.694 -0.947879 5.38217 0
M  V30 1148 H 117.788 -0.178318 0.807547 0
M  V30 1149 H 120.334 0.397895 1.64969 0
M  V30 1150 H 119.106 0.591224 3.86808 0
M  V30 1151 H 118.729 -1.12294 3.81413 0
M  V30 1152 N 119.726 -1.57421 0.075193 0
M  V30 1153 C 120.974 -1.93236 -0.591974 0
M  V30 1154 C 121.295 -0.956241 -1.69944 0
M  V30 1155 O 120.565 -0.00494792 -1.95899 0
M  V30 1156 H 119.145 -0.713355 -0.22166 0
M  V30 1157 H 121.807 -1.9444 0.133848 0
M  V30 1158 H 120.903 -2.95131 -1.01509 0
M  V30 1159 N 121.204 0.198386 -1.56346 0
M  V30 1160 C 122.45 0.920648 -1.80698 0
M  V30 1161 C 122.783 1.83045 -0.648697 0
M  V30 1162 O 122.058 1.91308 0.350925 0
M  V30 1163 C 122.341 1.73971 -3.15287 0
M  V30 1164 C 122.194 0.85485 -4.41602 0
M  V30 1165 C 123.513 2.71296 -3.46535 0
M  V30 1166 H 120.632 0.333261 -0.657348 0
M  V30 1167 H 123.274 0.188198 -1.89066 0
M  V30 1168 H 121.424 2.36416 -3.08285 0
M  V30 1169 H 123.096 0.245362 -4.60647 0
M  V30 1170 H 121.339 0.161398 -4.335 0
M  V30 1171 H 122.01 1.46286 -5.32264 0
M  V30 1172 H 124.486 2.18983 -3.53816 0
M  V30 1173 H 123.362 3.2569 -4.41834 0
M  V30 1174 H 123.623 3.5018 -2.69864 0
M  V30 1175 N 122.682 1.50554 0.465978 0
M  V30 1176 C 123.959 1.5232 1.22712 0
M  V30 1177 C 124.339 0.270807 2.09356 0
M  V30 1178 O 123.687 -0.745541 2.15995 0
M  V30 1179 C 123.897 2.82175 2.05374 0
M  V30 1180 C 125.245 3.33033 2.6339 0
M  V30 1181 O 126.269 2.83531 2.15612 0
M  V30 1182 O 125.128 4.19336 3.50456 0
M  V30 1183 H 122.222 0.611183 0.557122 0
M  V30 1184 H 124.768 1.62847 0.477381 0
M  V30 1185 H 123.54 3.64797 1.41558 0
M  V30 1186 H 123.163 2.74675 2.87471 0
M  V30 1187 N 124.16 -0.719506 1.40217 0
M  V30 1188 C 125.385 -1.51371 1.4178 0
M  V30 1189 C 125.81 -1.88091 0.0182355 0
M  V30 1190 O 125.168 -1.52997 -0.972707 0
M  V30 1191 C 125.216 -2.768 2.31115 0
M  V30 1192 O 124.32 -3.73349 1.7517 0
M  V30 1193 H 123.661 -0.456529 0.482159 0
M  V30 1194 H 126.191 -0.88644 1.844 0
M  V30 1195 H 126.201 -3.25371 2.46167 0
M  V30 1196 H 124.876 -2.49407 3.3282 0
M  V30 1197 H 123.453 -3.32179 1.69444 0
M  V30 1198 N 125.638 -1.25649 -0.95132 0
M  V30 1199 C 126.548 -1.08073 -2.08224 0
M  V30 1200 C 127.564 -0.0169666 -1.73992 0
M  V30 1201 O 128.74 -0.218593 -2.0021 0
M  V30 1202 C 125.805 -0.704922 -3.39458 0
M  V30 1203 C 124.866 -1.84699 -3.87537 0
M  V30 1204 C 124.099 -1.48902 -5.12508 0
M  V30 1205 O 124.322 -0.386156 -5.69091 0
M  V30 1206 O 123.256 -2.32033 -5.55378 0
M  V30 1207 H 127.082 -2.02924 -2.25954 0
M  V30 1208 H 124.667 -1.04618 -1.06656 0
M  V30 1209 H 126.549 -0.507609 -4.18332 0
M  V30 1210 H 125.224 0.214291 -3.2299 0
M  V30 1211 H 124.131 -2.09919 -3.09653 0
M  V30 1212 H 125.464 -2.74557 -4.08509 0
M  V30 1213 N 127.117 1.15442 -1.07289 0
M  V30 1214 C 128.366 1.85557 -0.790669 0
M  V30 1215 C 128.679 1.83186 0.685739 0
M  V30 1216 O 129.885 2.48977 1.0827 0
M  V30 1217 C 128.341 3.33038 -1.36433 0
M  V30 1218 C 127.949 3.43856 -2.8717 0
M  V30 1219 C 129.693 4.0834 -1.1601 0
M  V30 1220 C 127.6 4.85482 -3.3773 0
M  V30 1221 H 126.53 0.695122 -0.292098 0
M  V30 1222 H 129.181 1.30219 -1.29287 0
M  V30 1223 H 127.563 3.88043 -0.789864 0
M  V30 1224 H 128.737 2.98961 -3.50655 0
M  V30 1225 H 127.052 2.81998 -3.06376 0
M  V30 1226 H 129.649 5.12859 -1.51262 0
M  V30 1227 H 129.992 4.16182 -0.0991007 0
M  V30 1228 H 130.525 3.59603 -1.70089 0
M  V30 1229 H 127.264 4.82823 -4.43353 0
M  V30 1230 H 126.784 5.30961 -2.78999 0
M  V30 1231 H 128.463 5.54335 -3.33648 0
M  V30 1232 N 128.595 0.856903 1.32268 0
M  V30 1233 C 130.011 0.547061 1.49931 0
M  V30 1234 C 130.211 -0.921781 1.7918 0
M  V30 1235 O 129.267 -1.70469 1.8627 0
M  V30 1236 C 130.58 1.43599 2.64196 0
M  V30 1237 C 132.128 1.43665 2.78081 0
M  V30 1238 C 132.603 2.31085 3.95428 0
M  V30 1239 N 134.094 2.28893 4.02694 0
M  V30 1240 C 134.829 2.93262 4.92732 0
M  V30 1241 N 134.325 3.66751 5.87763 0
M  V30 1242 N 136.118 2.82638 4.85873 0
M  V30 1243 H 128.269 1.8075 1.11549 0
M  V30 1244 H 130.532 0.772144 0.549997 0
M  V30 1245 H 130.238 2.48058 2.49319 0
M  V30 1246 H 130.112 1.12502 3.60032 0
M  V30 1247 H 132.499 0.399701 2.92381 0
M  V30 1248 H 132.58 1.7878 1.82952 0
M  V30 1249 H 132.224 3.34849 3.81888 0
M  V30 1250 H 132.154 1.93302 4.89839 0
M  V30 1251 H 134.645 1.75466 3.34694 0
M  V30 1252 H 134.958 4.13027 6.53168 0
M  V30 1253 H 133.303 3.70859 5.87783 0
M  V30 1254 H 136.494 2.24774 4.10602 0
M  V30 1255 H 136.667 3.33084 5.55841 0
M  V30 1256 N 130.073 -1.45103 0.615059 0
M  V30 1257 C 131.313 -2.04069 0.116282 0
M  V30 1258 C 131.677 -1.4721 -1.2326 0
M  V30 1259 O 132.878 -1.97577 -1.82255 0
M  V30 1260 C 131.149 -3.57298 0.085482 0
M  V30 1261 S 132.708 -4.37394 -0.351015 0
M  V30 1262 H 129.526 -0.709006 0.0532183 0
M  V30 1263 H 132.128 -1.77709 0.81484 0
M  V30 1264 H 130.832 -3.9619 1.0706 0
M  V30 1265 H 130.363 -3.88244 -0.634835 0
M  V30 1266 H 132.378 -4.69734 -1.59889 0
M  V30 1267 N 131.551 -0.354651 -1.53558 0
M  V30 1268 C 132.481 0.489091 -2.2832 0
M  V30 1269 C 133.462 1.09324 -1.30316 0
M  V30 1270 O 134.647 1.11255 -1.59173 0
M  V30 1271 C 131.777 1.63456 -3.0643 0
M  V30 1272 C 130.731 1.1582 -4.12031 0
M  V30 1273 C 130.057 2.39305 -4.7816 0
M  V30 1274 C 131.357 0.250731 -5.21698 0
M  V30 1275 H 133.051 -0.134614 -2.99097 0
M  V30 1276 H 130.597 -0.0661826 -1.43848 0
M  V30 1277 H 132.55 2.23136 -3.57475 0
M  V30 1278 H 131.274 2.28533 -2.33325 0
M  V30 1279 H 129.933 0.584146 -3.61916 0
M  V30 1280 H 129.581 3.02814 -4.01637 0
M  V30 1281 H 129.281 2.08109 -5.49513 0
M  V30 1282 H 130.805 2.99691 -5.31994 0
M  V30 1283 H 132.219 0.754695 -5.68311 0
M  V30 1284 H 130.616 0.0301468 -6.00092 0
M  V30 1285 H 131.686 -0.710125 -4.79672 0
M  V30 1286 N 133.029 1.57378 -0.0835403 0
M  V30 1287 C 134.306 1.85363 0.624507 0
M  V30 1288 C 134.686 0.978239 1.87066 0
M  V30 1289 O 134.034 0.0475908 2.2845 0
M  V30 1290 C 134.244 3.35795 0.950947 0
M  V30 1291 C 135.592 4.03581 1.31939 0
M  V30 1292 O 136.616 3.40609 1.04232 0
M  V30 1293 O 135.475 5.14672 1.83779 0
M  V30 1294 H 132.569 0.766162 0.311329 0
M  V30 1295 H 135.115 1.69307 -0.115362 0
M  V30 1296 H 133.887 3.91244 0.0663899 0
M  V30 1297 H 133.51 3.57154 1.74719 0
M  V30 1298 N 134.507 -0.190092 1.56449 0
M  V30 1299 C 135.784 -0.935886 1.71757 0
M  V30 1300 C 136.164 -2.01173 0.639726 0
M  V30 1301 O 135.512 -2.25827 -0.348502 0
M  V30 1302 C 135.722 -1.51775 3.1427 0
M  V30 1303 C 137.07 -1.99794 3.74656 0
M  V30 1304 O 138.094 -1.61607 3.1743 0
M  V30 1305 O 136.953 -2.70079 4.751 0
M  V30 1306 H 134.047 -0.439229 0.700719 0
M  V30 1307 H 136.593 -0.179395 1.68749 0
M  V30 1308 H 135.365 -0.742505 3.84191 0
M  V30 1309 H 134.988 -2.33894 3.21527 0
M  V30 1310 N 135.985 -1.50799 -0.457987 0
M  V30 1311 C 137.396 -1.55152 -1.0385 0
M  V30 1312 C 137.747 -0.362719 -1.92818 0
M  V30 1313 O 136.872 0.522915 -2.09987 0
M  V30 1314 C 137.467 -2.81173 -1.89017 0
M  V30 1315 C 136.026 -2.88164 -2.42154 0
M  V30 1316 C 135.173 -2.49591 -1.20829 0
M  V30 1317 H 138.124 -1.56874 -0.240068 0
M  V30 1318 H 138.145 -2.63769 -2.74238 0
M  V30 1319 H 137.657 -3.67677 -1.24238 0
M  V30 1320 H 135.758 -2.06042 -3.10447 0
M  V30 1321 H 135.871 -3.91356 -2.76364 0
M  V30 1322 H 134.235 -2.02322 -1.54719 0
M  V30 1323 H 135.018 -3.38418 -0.576927 0
M  V30 1324 N 137.463 0.71206 -1.40597 0
M  V30 1325 C 138.874 1.29135 -1.34837 0
M  V30 1326 C 139.225 1.96186 -0.0235395 0
M  V30 1327 O 138.35 1.97768 0.878444 0
M  V30 1328 C 138.945 2.34827 -2.44217 0
M  V30 1329 C 137.504 2.88371 -2.41907 0
M  V30 1330 C 136.651 1.62202 -2.24913 0
M  V30 1331 H 139.602 0.507944 -1.50352 0
M  V30 1332 H 139.623 3.15749 -2.12327 0
M  V30 1333 H 139.135 1.85996 -3.40627 0
M  V30 1334 H 137.236 3.41422 -1.49204 0
M  V30 1335 H 137.349 3.39925 -3.37621 0
M  V30 1336 H 135.713 1.874 -1.72492 0
M  V30 1337 H 136.496 1.15391 -3.23326 0
M  V30 1338 N 138.941 1.26152 0.944643 0
M  V30 1339 C 139.904 1.07474 2.0244 0
M  V30 1340 C 140.904 0.0242064 1.60782 0
M  V30 1341 O 142.094 0.267302 1.72137 0
M  V30 1342 C 139.226 0.633956 3.34953 0
M  V30 1343 H 140.419 2.03336 2.20442 0
M  V30 1344 H 137.972 1.087 1.12312 0
M  V30 1345 H 138.707 -0.326811 3.22649 0
M  V30 1346 H 138.492 1.39247 3.66542 0
M  V30 1347 H 139.982 0.52501 4.14287 0
M  V30 1348 N 140.419 -1.14872 1.07899 0
M  V30 1349 C 141.351 -2.19425 0.662231 0
M  V30 1350 C 142.364 -1.60231 -0.288079 0
M  V30 1351 O 143.553 -1.78336 -0.076534 0
M  V30 1352 C 140.653 -3.38867 -0.0470695 0
M  V30 1353 C 139.826 -4.27597 0.920831 0
M  V30 1354 C 138.885 -5.25616 0.247805 0
M  V30 1355 O 137.911 -5.62189 0.890599 0
M  V30 1356 N 139.113 -5.71746 -1.00435 0
M  V30 1357 H 141.878 -2.55797 1.56166 0
M  V30 1358 H 139.439 -1.30042 0.964404 0
M  V30 1359 H 141.431 -4.01497 -0.50813 0
M  V30 1360 H 140.001 -3.00864 -0.848523 0
M  V30 1361 H 139.221 -3.61982 1.56087 0
M  V30 1362 H 140.509 -4.83748 1.57688 0
M  V30 1363 H 139.907 -5.44153 -1.54642 0
M  V30 1364 H 138.464 -6.36389 -1.40899 0
M  V30 1365 N 141.898 -0.863906 -1.31812 0
M  V30 1366 C 143.147 -0.46801 -1.96195 0
M  V30 1367 C 143.46 0.983474 -1.69077 0
M  V30 1368 O 144.666 1.48523 -2.27273 0
M  V30 1369 C 143.122 -0.785995 -3.51212 0
M  V30 1370 C 142.73 -2.25383 -3.87178 0
M  V30 1371 C 144.474 -0.458274 -4.22019 0
M  V30 1372 C 142.381 -2.51455 -5.3528 0
M  V30 1373 H 141.311 -0.171283 -0.734287 0
M  V30 1374 H 143.962 -1.05597 -1.50072 0
M  V30 1375 H 142.344 -0.127359 -3.95795 0
M  V30 1376 H 143.518 -2.95502 -3.53575 0
M  V30 1377 H 141.833 -2.54698 -3.2942 0
M  V30 1378 H 144.43 -0.630369 -5.30971 0
M  V30 1379 H 144.773 0.600834 -4.11941 0
M  V30 1380 H 145.306 -1.07319 -3.8305 0
M  V30 1381 H 142.045 -3.56025 -5.50387 0
M  V30 1382 H 141.565 -1.85923 -5.70257 0
M  V30 1383 H 143.244 -2.35874 -6.02472 0
M  V30 1384 N 143.376 1.44774 -0.622745 0
M  V30 1385 C 144.792 1.56986 -0.287652 0
M  V30 1386 C 144.992 1.61167 1.20944 0
M  V30 1387 O 144.048 1.55015 1.99315 0
M  V30 1388 C 145.361 2.84551 -0.972188 0
M  V30 1389 C 146.909 2.9825 -0.949536 0
M  V30 1390 C 147.384 4.28605 -1.61437 0
M  V30 1391 N 148.875 4.35399 -1.58057 0
M  V30 1392 C 149.61 5.34964 -2.064 0
M  V30 1393 N 149.106 6.40981 -2.62897 0
M  V30 1394 N 150.899 5.26419 -1.97078 0
M  V30 1395 H 143.05 1.40304 -1.59463 0
M  V30 1396 H 145.313 0.671794 -0.668878 0
M  V30 1397 H 145.019 2.87417 -2.02693 0
M  V30 1398 H 144.893 3.73807 -0.504771 0
M  V30 1399 H 147.28 2.94941 0.0967067 0
M  V30 1400 H 147.361 2.10364 -1.45536 0
M  V30 1401 H 147.005 4.32672 -2.66002 0
M  V30 1402 H 146.935 5.15334 -1.08344 0
M  V30 1403 H 149.426 3.59397 -1.16801 0
M  V30 1404 H 149.739 7.13225 -2.97539 0
M  V30 1405 H 148.084 6.4169 -2.66943 0
M  V30 1406 H 151.275 4.42504 -1.52669 0
M  V30 1407 H 151.448 6.03861 -2.35066 0
M  V30 1408 N 144.854 0.36279 1.53368 0
M  V30 1409 C 145.764 -0.492994 2.29362 0
M  V30 1410 C 146.78 -1.09507 1.35219 0
M  V30 1411 O 147.956 -1.10662 1.68273 0
M  V30 1412 C 145.021 -1.61855 3.066 0
M  V30 1413 C 144.082 -1.04429 4.16405 0
M  V30 1414 C 143.315 -2.11621 4.89951 0
M  V30 1415 O 143.538 -3.32684 4.63333 0
M  V30 1416 O 142.472 -1.74835 5.75948 0
M  V30 1417 H 146.298 0.125331 3.03441 0
M  V30 1418 H 143.883 0.127253 1.48857 0
M  V30 1419 H 145.765 -2.27302 3.54841 0
M  V30 1420 H 144.44 -2.22233 2.3536 0
M  V30 1421 H 143.347 -0.353819 3.72423 0
M  V30 1422 H 144.68 -0.485113 4.89804 0
M  V30 1423 N 146.332 -1.57332 0.0918853 0
M  V30 1424 C 147.242 -2.17368 -0.882505 0
M  V30 1425 C 148.258 -1.14226 -1.31257 0
M  V30 1426 O 149.434 -1.46582 -1.38115 0
M  V30 1427 C 146.499 -2.73962 -2.12476 0
M  V30 1428 C 145.56 -3.92048 -1.7492 0
M  V30 1429 C 144.793 -4.45933 -2.93223 0
M  V30 1430 O 145.016 -3.98764 -4.07852 0
M  V30 1431 O 143.95 -5.36999 -2.71875 0
M  V30 1432 H 147.776 -3.01031 -0.40172 0
M  V30 1433 H 145.361 -1.48813 -0.132291 0
M  V30 1434 H 147.243 -3.10147 -2.85283 0
M  V30 1435 H 145.918 -1.93347 -2.59613 0
M  V30 1436 H 144.825 -3.6068 -0.993025 0
M  V30 1437 H 146.158 -4.74017 -1.32548 0
M  V30 1438 N 147.81 0.181792 -1.56548 0
M  V30 1439 C 148.72 1.24538 -1.98815 0
M  V30 1440 C 149.736 1.49045 -0.897861 0
M  V30 1441 O 150.912 1.61399 -1.20467 0
M  V30 1442 C 147.977 2.56683 -2.33055 0
M  V30 1443 C 147.038 2.40131 -3.55859 0
M  V30 1444 C 146.271 3.65975 -3.88456 0
M  V30 1445 O 146.494 4.70711 -3.22161 0
M  V30 1446 O 145.428 3.6071 -4.81842 0
M  V30 1447 H 149.254 0.916647 -2.89536 0
M  V30 1448 H 146.839 0.387842 -1.44278 0
M  V30 1449 H 148.721 3.34655 -2.56094 0
M  V30 1450 H 147.396 2.89157 -1.45498 0
M  V30 1451 H 146.303 1.60226 -3.38051 0
M  V30 1452 H 147.636 2.12585 -4.43924 0
M  V30 1453 N 149.288 1.51039 0.449983 0
M  V30 1454 C 150.565 1.53612 1.21089 0
M  V30 1455 C 150.945 0.292997 2.09057 0
M  V30 1456 O 150.293 -0.72259 2.16774 0
M  V30 1457 C 150.503 2.84337 2.0237 0
M  V30 1458 C 151.851 3.35807 2.59843 0
M  V30 1459 O 152.875 2.85802 2.12593 0
M  V30 1460 O 151.734 4.23029 3.45989 0
M  V30 1461 H 148.828 0.617057 0.550608 0
M  V30 1462 H 151.374 1.63344 0.460082 0
M  V30 1463 H 150.146 3.66278 1.37681 0
M  V30 1464 H 149.769 2.77708 2.84542 0
M  V30 1465 N 150.766 -0.704594 1.40972 0
M  V30 1466 C 151.676 -1.84856 1.44448 0
M  V30 1467 C 152.692 -1.70726 0.335961 0
M  V30 1468 O 153.868 -1.92799 0.582276 0
M  V30 1469 C 150.933 -3.20758 1.31587 0
M  V30 1470 C 149.994 -3.47063 2.52677 0
M  V30 1471 C 149.227 -4.76481 2.4042 0
M  V30 1472 O 149.45 -5.52341 1.42391 0
M  V30 1473 O 148.384 -5.03367 3.30007 0
M  V30 1474 H 152.21 -1.8488 2.40942 0
M  V30 1475 H 149.795 -0.85647 1.22413 0
M  V30 1476 H 151.677 -4.01913 1.26665 0
M  V30 1477 H 150.352 -3.21438 0.382049 0
M  V30 1478 H 149.259 -2.65873 2.63177 0
M  V30 1479 H 150.592 -3.5119 3.44858 0
M  V30 1480 N 152.244 -1.26651 -0.937939 0
M  V30 1481 C 153.177 -1.02811 -2.03728 0
M  V30 1482 C 154.155 0.0481915 -1.62529 0
M  V30 1483 O 155.339 -0.0948839 -1.88261 0
M  V30 1484 C 152.466 -0.557517 -3.3408 0
M  V30 1485 C 151.512 -1.62686 -3.94253 0
M  V30 1486 S 152.345 -3.21667 -4.28125 0
M  V30 1487 C 153.501 -2.76384 -5.61572 0
M  V30 1488 H 153.734 -1.95891 -2.23638 0
M  V30 1489 H 151.267 -1.10367 -1.07974 0
M  V30 1490 H 153.225 -0.292674 -4.09455 0
M  V30 1491 H 151.886 0.353062 -3.12109 0
M  V30 1492 H 151.079 -1.24866 -4.88287 0
M  V30 1493 H 150.681 -1.84324 -3.25424 0
M  V30 1494 H 152.973 -2.2105 -6.40424 0
M  V30 1495 H 153.916 -3.69123 -6.0428 0
M  V30 1496 H 154.324 -2.15847 -5.21604 0
M  V30 1497 N 153.722 1.14298 -1.08507 0
M  V30 1498 C 154.97 1.84993 -0.813763 0
M  V30 1499 C 155.291 1.83405 0.662393 0
M  V30 1500 O 154.561 1.28319 1.48024 0
M  V30 1501 H 153.141 0.684966 -0.298045 0
M  V30 1502 H 155.803 1.385 -1.37126 0
M  V30 1503 H 154.899 2.89788 -1.15884 0
M  V30 1504 N 155.201 0.870884 1.31352 0
M  V30 1505 C 156.164 0.332243 2.26779 0
M  V30 1506 C 157.164 -0.517302 1.52252 0
M  V30 1507 O 158.354 -0.326477 1.71113 0
M  V30 1508 C 155.486 -0.528066 3.36785 0
M  V30 1509 H 156.679 1.17469 2.75937 0
M  V30 1510 H 154.232 0.64655 1.423 0
M  V30 1511 H 154.967 -1.39167 2.92922 0
M  V30 1512 H 154.752 0.0802582 3.92018 0
M  V30 1513 H 156.242 -0.897179 4.07849 0
M  V30 1514 N 156.679 -1.44442 0.630414 0
M  V30 1515 C 157.642 -2.29107 -0.0652523 0
M  V30 1516 C 158.642 -1.41002 -0.772995 0
M  V30 1517 O 159.832 -1.62881 -0.617692 0
M  V30 1518 C 156.964 -3.22564 -1.10296 0
M  V30 1519 H 158.157 -2.92103 0.679401 0
M  V30 1520 H 155.71 -1.51343 0.390517 0
M  V30 1521 H 156.445 -2.64416 -1.87762 0
M  V30 1522 H 156.23 -3.87491 -0.59941 0
M  V30 1523 H 157.72 -3.86167 -1.5895 0
M  V30 1524 N 158.157 -0.370918 -1.53173 0
M  V30 1525 C 159.403 0.217423 -2.01631 0
M  V30 1526 C 159.736 1.47983 -1.25756 0
M  V30 1527 O 159.011 1.91274 -0.352764 0
M  V30 1528 C 159.294 0.503982 -3.56556 0
M  V30 1529 C 159.147 -0.77243 -4.43118 0
M  V30 1530 C 160.466 1.30234 -4.20389 0
M  V30 1531 H 157.585 0.0775486 -0.732909 0
M  V30 1532 H 160.227 -0.496863 -1.83388 0
M  V30 1533 H 158.377 1.11248 -3.72231 0
M  V30 1534 H 160.049 -1.4098 -4.39229 0
M  V30 1535 H 158.292 -1.39167 -4.10871 0
M  V30 1536 H 158.963 -0.526815 -5.4948 0
M  V30 1537 H 161.439 0.787546 -4.08579 0
M  V30 1538 H 160.315 1.47158 -5.28806 0
M  V30 1539 H 160.576 2.31237 -3.76805 0
M  V30 1540 N 159.635 1.57281 -0.100228 0
M  V30 1541 C 160.598 2.13158 0.842398 0
M  V30 1542 C 161.598 1.06202 1.20738 0
M  V30 1543 O 162.788 1.32066 1.13597 0
M  V30 1544 C 159.92 2.65639 2.13655 0
M  V30 1545 H 161.113 2.97766 0.357114 0
M  V30 1546 H 158.666 1.5559 0.148823 0
M  V30 1547 H 159.401 1.84566 2.66657 0
M  V30 1548 H 159.186 3.43844 1.88451 0
M  V30 1549 H 160.676 3.08846 2.81077 0
M  V30 1550 N 161.113 -0.173488 1.56642 0
M  V30 1551 C 162.338 -0.910149 1.86363 0
M  V30 1552 C 162.763 -1.75132 0.686318 0
M  V30 1553 O 162.121 -1.77595 -0.364643 0
M  V30 1554 C 162.169 -1.76447 3.14482 0
M  V30 1555 O 161.273 -2.86584 2.96553 0
M  V30 1556 H 160.614 -0.255086 0.613047 0
M  V30 1557 H 163.144 -0.172283 2.03873 0
M  V30 1558 H 163.154 -2.16483 3.45831 0
M  V30 1559 H 161.829 -1.14658 3.99783 0
M  V30 1560 H 160.406 -2.50146 2.76553 0
M  V30 1561 N 162.591 -1.51276 -0.441967 0
M  V30 1562 C 163.839 -1.63392 -1.18943 0
M  V30 1563 C 164.16 -0.350159 -1.9183 0
M  V30 1564 O 163.43 0.633784 -1.85364 0
M  V30 1565 H 162.01 -0.602164 -0.442049 0
M  V30 1566 H 164.672 -1.88186 -0.507165 0
M  V30 1567 H 163.768 -2.45934 -1.92154 0
M  V30 1568 N 164.069 0.697108 -1.41344 0
M  V30 1569 C 165.297 1.48593 -1.43972 0
M  V30 1570 C 165.712 1.88747 -0.0445612 0
M  V30 1571 O 165.069 1.56682 0.935785 0
M  V30 1572 C 165.12 2.74946 -2.34706 0
M  V30 1573 O 164.841 2.36484 -3.68791 0
M  V30 1574 C 166.342 3.687 -2.46121 0
M  V30 1575 H 163.562 0.457964 -0.490418 0
M  V30 1576 H 166.106 0.858429 -1.8561 0
M  V30 1577 H 164.261 3.33937 -1.9638 0
M  V30 1578 H 164.675 3.17918 -4.17167 0
M  V30 1579 H 166.149 4.54145 -3.13777 0
M  V30 1580 H 166.626 4.13081 -1.49199 0
M  V30 1581 H 167.232 3.15613 -2.85076 0
M  V30 1582 N 165.547 1.27147 0.931209 0
M  V30 1583 C 166.51 1.09615 2.01289 0
M  V30 1584 C 167.51 0.0412581 1.60747 0
M  V30 1585 O 168.7 0.285545 1.71844 0
M  V30 1586 C 165.832 0.669447 3.34262 0
M  V30 1587 H 167.025 2.05662 2.18273 0
M  V30 1588 H 164.578 1.09885 1.11153 0
M  V30 1589 H 165.313 -0.292572 3.22978 0
M  V30 1590 H 165.098 1.43127 3.65044 0
M  V30 1591 H 166.588 0.568921 4.13706 0
M  V30 1592 N 167.025 -1.13721 1.09112 0
M  V30 1593 C 167.972 -2.19031 0.727591 0
M  V30 1594 C 168.942 -1.63555 -0.289656 0
M  V30 1595 O 170.127 -1.90023 -0.172026 0
M  V30 1596 C 167.267 -3.4477 0.15082 0
M  V30 1597 C 166.38 -4.14365 1.22172 0
M  V30 1598 C 165.515 -5.27709 0.608042 0
M  V30 1599 C 164.554 -5.89147 1.66047 0
M  V30 1600 N 163.691 -6.93929 1.06806 0
M  V30 1601 H 168.531 -2.49475 1.62991 0
M  V30 1602 H 166.068 -1.22499 0.81439 0
M  V30 1603 H 168.026 -4.16714 -0.201358 0
M  V30 1604 H 166.656 -3.14787 -0.714783 0
M  V30 1605 H 165.708 -3.40737 1.69122 0
M  V30 1606 H 167.02 -4.56114 2.01895 0
M  V30 1607 H 166.174 -6.06355 0.204523 0
M  V30 1608 H 164.913 -4.872 -0.220769 0
M  V30 1609 H 163.918 -5.09198 2.07357 0
M  V30 1610 H 165.143 -6.31729 2.49189 0
M  V30 1611 H 163.089 -6.55483 0.260476 0
M  V30 1612 H 163.006 -7.34202 1.8023 0
M  V30 1613 H 164.274 -7.76434 0.690644 0
M  V30 1614 N 168.503 -0.877838 -1.30888 0
M  V30 1615 C 169.751 -0.491723 -1.96027 0
M  V30 1616 C 170.072 0.960827 -1.69685 0
M  V30 1617 O 169.342 1.67462 -1.01654 0
M  V30 1618 H 167.922 -0.17885 -0.725273 0
M  V30 1619 H 170.584 -1.11935 -1.59551 0
M  V30 1620 H 169.68 -0.656016 -3.05128 0
M  V30 1621 N 169.982 1.44106 -0.638065 0
M  V30 1622 C 170.945 2.29138 0.0531013 0
M  V30 1623 C 171.945 1.41409 0.765506 0
M  V30 1624 O 173.135 1.63206 0.609046 0
M  V30 1625 C 170.267 3.23144 1.08584 0
M  V30 1626 H 171.46 2.91739 -0.694883 0
M  V30 1627 H 169.013 1.51134 -0.398538 0
M  V30 1628 H 169.748 2.65408 1.86357 0
M  V30 1629 H 169.533 3.87804 0.578852 0
M  V30 1630 H 171.023 3.87004 1.56899 0
M  V30 1631 N 171.46 0.379036 1.52974 0
M  V30 1632 C 172.876 0.0285448 1.59574 0
M  V30 1633 C 173.076 -1.45542 1.39355 0
M  V30 1634 O 172.132 -2.2187 1.20541 0
M  V30 1635 C 173.445 0.496535 2.96572 0
M  V30 1636 C 174.993 0.451909 3.0972 0
M  V30 1637 C 175.468 0.895924 4.49152 0
M  V30 1638 N 176.959 0.851522 4.55306 0
M  V30 1639 C 177.694 1.16661 5.61407 0
M  V30 1640 N 177.19 1.55166 6.752 0
M  V30 1641 N 178.983 1.08853 5.51459 0
M  V30 1642 H 171.134 1.34525 1.64367 0
M  V30 1643 H 173.397 0.550733 0.771619 0
M  V30 1644 H 173.103 1.53258 3.16552 0
M  V30 1645 H 172.977 -0.109802 3.7704 0
M  V30 1646 H 175.364 -0.575029 2.89443 0
M  V30 1647 H 175.445 1.09392 2.3123 0
M  V30 1648 H 175.089 1.92104 4.70168 0
M  V30 1649 H 175.019 0.23103 5.26093 0
M  V30 1650 H 177.51 0.568038 3.73606 0
M  V30 1651 H 177.823 1.776 7.52116 0
M  V30 1652 H 176.168 1.59044 6.76557 0
M  V30 1653 H 179.359 0.786803 4.6144 0
M  V30 1654 H 179.532 1.33742 6.34048 0
M  V30 1655 N 172.938 -1.57226 0.108567 0
M  V30 1656 C 174.354 -1.5766 -0.248058 0
M  V30 1657 C 174.554 -1.12063 -1.67464 0
M  V30 1658 O 173.61 -0.803236 -2.39383 0
M  V30 1659 C 174.923 -3.0069 -0.0242287 0
M  V30 1660 C 176.471 -3.12868 -0.0909372 0
M  V30 1661 C 176.946 -4.57879 0.105067 0
M  V30 1662 N 178.437 -4.63172 0.0506846 0
M  V30 1663 C 179.172 -5.73126 0.177396 0
M  V30 1664 N 178.668 -6.91866 0.359696 0
M  V30 1665 N 180.461 -5.61977 0.117709 0
M  V30 1666 H 172.612 -1.85169 1.04049 0
M  V30 1667 H 174.875 -0.85529 0.40888 0
M  V30 1668 H 174.581 -3.38299 0.961604 0
M  V30 1669 H 174.455 -3.6945 -0.76068 0
M  V30 1670 H 176.842 -2.75124 -1.06729 0
M  V30 1671 H 176.923 -2.46672 0.677225 0
M  V30 1672 H 176.567 -4.96321 1.07834 0
M  V30 1673 H 176.497 -5.22153 -0.682954 0
M  V30 1674 H 178.988 -3.778 -0.0871266 0
M  V30 1675 H 179.301 -7.71503 0.447529 0
M  V30 1676 H 177.646 -6.93874 0.395536 0
M  V30 1677 H 180.837 -4.68094 -0.0236741 0
M  V30 1678 H 181.01 -6.47627 0.219905 0
M  V30 1679 N 174.416 0.165178 -1.56732 0
M  V30 1680 C 175.832 0.517174 -1.50988 0
M  V30 1681 C 176.032 1.84331 -0.813894 0
M  V30 1682 O 175.088 2.49672 -0.37682 0
M  V30 1683 C 176.401 0.544261 -2.95733 0
M  V30 1684 C 177.949 0.631039 -3.06573 0
M  V30 1685 C 178.424 0.68896 -4.52788 0
M  V30 1686 N 179.915 0.751683 -4.5706 0
M  V30 1687 C 180.65 0.817177 -5.67547 0
M  V30 1688 N 180.146 0.843129 -6.8765 0
M  V30 1689 N 181.939 0.856668 -5.55534 0
M  V30 1690 H 174.09 -0.704318 -2.00382 0
M  V30 1691 H 176.353 -0.254687 -0.913148 0
M  V30 1692 H 176.059 -0.361607 -3.49836 0
M  V30 1693 H 175.933 1.3886 -3.5071 0
M  V30 1694 H 178.32 1.52733 -2.52501 0
M  V30 1695 H 178.401 -0.240095 -2.54671 0
M  V30 1696 H 178.045 -0.2031 -5.07494 0
M  V30 1697 H 177.975 1.57633 -5.02454 0
M  V30 1698 H 180.466 0.739661 -3.70591 0
M  V30 1699 H 180.779 0.894448 -7.67606 0
M  V30 1700 H 179.124 0.811304 -6.90248 0
M  V30 1701 H 182.315 0.833437 -4.60621 0
M  V30 1702 H 182.488 0.904247 -6.4166 0
M  V30 1703 N 175.894 1.51508 0.433938 0
M  V30 1704 C 177.31 1.39759 0.770682 0
M  V30 1705 C 177.51 0.482594 1.95636 0
M  V30 1706 O 176.566 -0.0609691 2.52426 0
M  V30 1707 C 177.879 2.81851 1.04787 0
M  V30 1708 C 179.427 2.91025 1.1521 0
M  V30 1709 C 179.902 4.34032 1.46219 0
M  V30 1710 N 181.393 4.37154 1.53136 0
M  V30 1711 C 182.128 5.4484 1.78709 0
M  V30 1712 N 181.624 6.62682 2.02051 0
M  V30 1713 N 183.417 5.32324 1.80519 0
M  V30 1714 H 175.568 2.09548 -0.346892 0
M  V30 1715 H 177.831 0.943446 -0.0928074 0
M  V30 1716 H 177.537 3.50815 0.249304 0
M  V30 1717 H 177.411 3.21386 1.97461 0
M  V30 1718 H 179.798 2.22257 1.94128 0
M  V30 1719 H 179.879 2.54983 0.204281 0
M  V30 1720 H 179.523 5.03351 0.678274 0
M  V30 1721 H 179.453 4.6759 2.42212 0
M  V30 1722 H 181.944 3.52197 1.36987 0
M  V30 1723 H 182.257 7.40543 2.20943 0
M  V30 1724 H 180.602 6.65791 1.99366 0
M  V30 1725 H 183.793 4.39246 1.61805 0
M  V30 1726 H 183.966 6.16328 2.00111 0
M  V30 1727 N 177.372 -0.689602 1.41712 0
M  V30 1728 C 178.304 -1.815 1.39966 0
M  V30 1729 C 179.317 -1.59995 0.300917 0
M  V30 1730 O 180.506 -1.69387 0.563039 0
M  V30 1731 C 177.606 -3.18364 1.16179 0
M  V30 1732 C 176.779 -3.66847 2.38206 0
M  V30 1733 C 175.838 -4.82398 2.10186 0
M  V30 1734 O 174.864 -4.93706 2.83272 0
M  V30 1735 N 176.066 -5.70064 1.0958 0
M  V30 1736 H 178.831 -1.83488 2.36965 0
M  V30 1737 H 176.392 -0.872149 1.36401 0
M  V30 1738 H 178.384 -3.93301 0.953756 0
M  V30 1739 H 176.954 -3.11365 0.27756 0
M  V30 1740 H 176.174 -2.82751 2.74673 0
M  V30 1741 H 177.462 -3.95978 3.19498 0
M  V30 1742 H 176.86 -5.63565 0.491019 0
M  V30 1743 H 175.417 -6.44874 0.947656 0
M  V30 1744 N 178.85 -1.27639 -0.924453 0
M  V30 1745 C 179.798 -1.10485 -2.04685 0
M  V30 1746 C 180.792 -0.0270421 -1.69378 0
M  V30 1747 O 181.998 -0.185008 -1.79047 0
M  V30 1748 H 178.373 -0.340546 -0.670472 0
M  V30 1749 H 180.344 -2.05566 -2.16298 0
M  V30 1750 C 179.093 -0.772229 -3.39016 0
M  V30 1751 H 178.416 -1.59351 -3.66671 0
M  V30 1752 H 179.856 -0.692097 -4.18313 0
M  V30 1753 C 178.315 0.523554 -3.32807 0
M  V30 1754 O 178.845 1.55702 -3.70297 0
M  V30 1755 N 177.051 0.520363 -2.85903 0
M  V30 1756 H 176.598 -0.32107 -2.55591 0
M  V30 1757 H 176.556 1.38742 -2.82131 0
M  V30 1758 N 180.328 1.1314 -1.09713 0
M  V30 1759 C 181.276 2.20717 -0.733934 0
M  V30 1760 C 182.27 1.6729 0.266506 0
M  V30 1761 O 183.476 1.79547 0.127656 0
M  V30 1762 H 179.851 0.719292 -0.21937 0
M  V30 1763 H 181.822 2.48611 -1.6503 0
M  V30 1764 C 180.571 3.47265 -0.173849 0
M  V30 1765 H 179.894 3.88716 -0.934873 0
M  V30 1766 H 181.334 4.23979 0.0423126 0
M  V30 1767 C 179.793 3.18724 1.09164 0
M  V30 1768 O 180.323 3.37762 2.17439 0
M  V30 1769 N 178.529 2.72583 1.00732 0
M  V30 1770 H 178.076 2.57291 0.126121 0
M  V30 1771 H 178.034 2.53862 1.85476 0
M  V30 1772 N 181.806 0.884767 1.30421 0
M  V30 1773 C 183.031 0.517288 2.00845 0
M  V30 1774 C 183.456 -0.886779 1.65885 0
M  V30 1775 O 182.814 -1.58768 0.875354 0
M  V30 1776 C 182.862 0.698994 3.5376 0
M  V30 1777 O 181.966 -0.255208 4.1161 0
M  V30 1778 H 181.307 0.203872 0.631927 0
M  V30 1779 H 183.837 1.19225 1.66272 0
M  V30 1780 H 183.847 0.597912 4.03595 0
M  V30 1781 H 182.522 1.72271 3.78544 0
M  V30 1782 H 181.099 -0.10784 3.72744 0
M  V30 1783 N 183.284 -1.43765 0.645699 0
M  V30 1784 C 184.247 -2.29163 -0.0409488 0
M  V30 1785 C 185.247 -1.41813 -0.757996 0
M  V30 1786 O 186.437 -1.63527 -0.600382 0
M  V30 1787 C 183.569 -3.23716 -1.06869 0
M  V30 1788 H 184.762 -2.91366 0.710345 0
M  V30 1789 H 182.315 -1.5092 0.406547 0
M  V30 1790 H 183.05 -2.66393 -1.84947 0
M  V30 1791 H 182.835 -3.88105 -0.558277 0
M  V30 1792 H 184.325 -3.87831 -1.54845 0
M  V30 1793 N 184.763 -0.387143 -1.52771 0
M  V30 1794 C 185.71 0.449048 -2.26389 0
M  V30 1795 C 186.68 1.05961 -1.27912 0
M  V30 1796 O 187.865 1.08804 -1.56737 0
M  V30 1797 C 185.005 1.57155 -3.0724 0
M  V30 1798 C 184.118 0.984066 -4.20643 0
M  V30 1799 C 183.253 2.07745 -4.88892 0
M  V30 1800 C 182.292 1.46574 -5.94292 0
M  V30 1801 N 181.429 2.49834 -6.56146 0
M  V30 1802 H 186.269 -0.185205 -2.97424 0
M  V30 1803 H 183.806 -0.103164 -1.46738 0
M  V30 1804 H 185.764 2.23309 -3.52405 0
M  V30 1805 H 184.394 2.17615 -2.38419 0
M  V30 1806 H 183.446 0.212193 -3.79808 0
M  V30 1807 H 184.758 0.497029 -4.96318 0
M  V30 1808 H 183.912 2.81673 -5.3735 0
M  V30 1809 H 182.651 2.59807 -4.12737 0
M  V30 1810 H 181.656 0.711696 -5.45174 0
M  V30 1811 H 182.881 0.953088 -6.72379 0
M  V30 1812 H 180.827 3.0107 -5.82832 0
M  V30 1813 H 180.744 2.05879 -7.27427 0
M  V30 1814 H 182.012 3.23399 -7.09249 0
M  V30 1815 N 186.241 1.57166 -0.116904 0
M  V30 1816 C 187.173 2.12271 0.864507 0
M  V30 1817 C 188.186 1.06494 1.23138 0
M  V30 1818 O 189.375 1.33873 1.18069 0
M  V30 1819 C 186.475 2.60564 2.16702 0
M  V30 1820 C 185.648 3.90416 1.97216 0
M  V30 1821 C 184.707 4.24329 3.11178 0
M  V30 1822 O 183.733 4.93182 2.84184 0
M  V30 1823 N 184.935 3.8148 4.37554 0
M  V30 1824 H 187.7 2.97102 0.393726 0
M  V30 1825 H 185.261 1.61759 0.0675805 0
M  V30 1826 H 187.253 2.80282 2.91932 0
M  V30 1827 H 185.823 1.80623 2.55135 0
M  V30 1828 H 185.043 3.79627 1.06192 0
M  V30 1829 H 186.331 4.75327 1.81499 0
M  V30 1830 H 185.729 3.25943 4.62361 0
M  V30 1831 H 184.286 4.06311 5.09661 0
M  V30 1832 N 187.719 -0.156864 1.56817 0
M  V30 1833 C 188.944 -0.890331 1.87318 0
M  V30 1834 C 189.369 -1.74394 0.704855 0
M  V30 1835 O 188.727 -1.77972 -0.345786 0
M  V30 1836 C 188.775 -1.73102 3.16336 0
M  V30 1837 O 187.879 -2.83422 2.99576 0
M  V30 1838 H 187.22 -0.24857 0.615718 0
M  V30 1839 H 189.75 -0.150649 2.04045 0
M  V30 1840 H 189.76 -2.12803 3.48107 0
M  V30 1841 H 188.435 -1.10412 4.00976 0
M  V30 1842 H 187.012 -2.47199 2.7919 0
M  V30 1843 N 189.197 -1.51736 -0.425897 0
M  V30 1844 C 190.443 -1.66174 -1.17294 0
M  V30 1845 C 190.798 -0.37876 -1.88635 0
M  V30 1846 O 190.091 0.626021 -1.81084 0
M  V30 1847 C 190.285 -2.81103 -2.20717 0
M  V30 1848 C 190.114 -4.20453 -1.59529 0
M  V30 1849 C 188.884 -4.86225 -1.37525 0
M  V30 1850 C 191.082 -5.03146 -1.06528 0
M  V30 1851 N 189.064 -6.09657 -0.720537 0
M  V30 1852 C 190.435 -6.17674 -0.536506 0
M  V30 1853 C 192.49 -4.88594 -0.958127 0
M  V30 1854 C 191.193 -7.19245 0.0888917 0
M  V30 1855 C 193.219 -5.90383 -0.346608 0
M  V30 1856 C 192.581 -7.04191 0.171564 0
M  V30 1857 H 188.68 -0.661871 -0.416475 0
M  V30 1858 H 191.264 -1.88997 -0.467801 0
M  V30 1859 H 189.435 -2.59924 -2.88607 0
M  V30 1860 H 191.167 -2.84662 -2.87663 0
M  V30 1861 H 187.922 -4.44293 -1.64015 0
M  V30 1862 H 188.346 -6.75756 -0.410292 0
M  V30 1863 H 192.988 -4.0085 -1.34459 0
M  V30 1864 H 190.706 -8.06628 0.48746 0
M  V30 1865 H 194.292 -5.81194 -0.265451 0
M  V30 1866 H 193.172 -7.81606 0.637309 0
M  V30 1867 N 190.675 0.682077 -1.42076 0
M  V30 1868 C 191.605 1.80796 -1.47767 0
M  V30 1869 C 192.586 1.6677 -0.334954 0
M  V30 1870 O 193.771 1.863 -0.548264 0
M  V30 1871 C 190.901 3.19038 -1.37229 0
M  V30 1872 C 189.855 3.47789 -2.49453 0
M  V30 1873 C 189.181 4.8553 -2.23975 0
M  V30 1874 C 190.481 3.45411 -3.91776 0
M  V30 1875 H 192.175 1.7629 -2.41997 0
M  V30 1876 H 189.721 0.846721 -1.16476 0
M  V30 1877 H 191.674 3.97528 -1.39821 0
M  V30 1878 H 190.398 3.24204 -0.394907 0
M  V30 1879 H 189.057 2.71657 -2.46166 0
M  V30 1880 H 188.705 4.87337 -1.24547 0
M  V30 1881 H 188.405 5.0573 -2.99184 0
M  V30 1882 H 189.929 5.66312 -2.28304 0
M  V30 1883 H 191.343 4.13882 -3.96705 0
M  V30 1884 H 189.74 3.77145 -4.66778 0
M  V30 1885 H 190.81 2.44122 -4.18966 0
M  V30 1886 N 192.153 1.28127 0.917671 0
M  V30 1887 C 193.083 1.14248 2.03641 0
M  V30 1888 C 194.064 0.0412748 1.7005 0
M  V30 1889 O 195.249 0.217566 1.92977 0
M  V30 1890 C 192.379 0.799431 3.37974 0
M  V30 1891 C 191.333 1.85497 3.85713 0
M  V30 1892 C 190.659 1.36565 5.16966 0
M  V30 1893 C 191.959 3.26085 4.08002 0
M  V30 1894 H 193.653 2.07835 2.15511 0
M  V30 1895 H 191.199 1.00064 1.03553 0
M  V30 1896 H 193.152 0.689114 4.15727 0
M  V30 1897 H 191.876 -0.172145 3.26146 0
M  V30 1898 H 190.535 1.95437 3.10161 0
M  V30 1899 H 190.183 0.383253 5.01538 0
M  V30 1900 H 189.883 2.07143 5.49878 0
M  V30 1901 H 191.407 1.26848 5.97279 0
M  V30 1902 H 192.821 3.19089 4.76293 0
M  V30 1903 H 191.218 3.94462 4.52238 0
M  V30 1904 H 192.288 3.70394 3.12948 0
M  V30 1905 N 193.631 -1.12557 1.10312 0
M  V30 1906 C 195.047 -1.36036 0.834649 0
M  V30 1907 C 195.247 -1.93946 -0.546539 0
M  V30 1908 O 194.303 -2.16484 -1.29966 0
M  V30 1909 C 195.616 -2.30312 1.9333 0
M  V30 1910 C 197.164 -2.43906 1.9616 0
M  V30 1911 C 197.639 -3.41496 3.05195 0
M  V30 1912 N 199.13 -3.49053 3.04494 0
M  V30 1913 C 199.865 -4.24471 3.85502 0
M  V30 1914 N 199.361 -5.02966 4.76442 0
M  V30 1915 N 201.154 -4.19864 3.73725 0
M  V30 1916 H 193.305 -0.733246 1.99342 0
M  V30 1917 H 195.568 -0.385234 0.866198 0
M  V30 1918 H 195.274 -1.94933 2.92735 0
M  V30 1919 H 195.148 -3.30421 1.81939 0
M  V30 1920 H 197.535 -2.78567 0.973886 0
M  V30 1921 H 197.616 -1.4369 2.11629 0
M  V30 1922 H 197.26 -3.07565 4.04186 0
M  V30 1923 H 197.19 -4.41539 2.86968 0
M  V30 1924 H 199.681 -2.93053 2.38596 0
M  V30 1925 H 199.994 -5.57846 5.34815 0
M  V30 1926 H 198.339 -5.02167 4.80472 0
M  V30 1927 H 201.53 -3.57623 3.02032 0
M  V30 1928 H 201.703 -4.78386 4.37093 0
M  V30 1929 N 195.109 -0.891671 -1.2995 0
M  V30 1930 C 196.039 -0.379797 -2.30391 0
M  V30 1931 C 197.02 0.540919 -1.6127 0
M  V30 1932 O 198.205 0.453352 -1.88834 0
M  V30 1933 C 195.335 0.400654 -3.44981 0
M  V30 1934 C 194.289 -0.428905 -4.25846 0
M  V30 1935 C 193.615 0.478557 -5.32554 0
M  V30 1936 C 194.915 -1.67458 -4.94727 0
M  V30 1937 H 196.609 -1.21914 -2.73454 0
M  V30 1938 H 194.155 -0.587675 -1.31462 0
M  V30 1939 H 196.108 0.769434 -4.14316 0
M  V30 1940 H 194.832 1.27371 -3.0074 0
M  V30 1941 H 193.491 -0.779911 -3.58208 0
M  V30 1942 H 193.139 1.34951 -4.84559 0
M  V30 1943 H 192.839 -0.0727433 -5.87555 0
M  V30 1944 H 194.363 0.843705 -6.04743 0
M  V30 1945 H 195.777 -1.376 -5.56542 0
M  V30 1946 H 194.174 -2.16659 -5.59624 0
M  V30 1947 H 195.244 -2.41518 -4.20473 0
M  V30 1948 N 196.587 1.43421 -0.653314 0
M  V30 1949 C 197.834 2.01812 -0.166745 0
M  V30 1950 C 198.162 1.51535 1.21931 0
M  V30 1951 O 197.417 0.698975 1.82792 0
M  V30 1952 C 197.716 3.57176 -0.126623 0
M  V30 1953 C 197.382 4.26798 -1.45444 0
M  V30 1954 C 196.044 4.45534 -1.81805 0
M  V30 1955 C 198.396 4.66225 -2.32989 0
M  V30 1956 C 195.724 5.00961 -3.05377 0
M  V30 1957 C 198.076 5.23021 -3.55853 0
M  V30 1958 C 196.74 5.39973 -3.9241 0
M  V30 1959 H 196.01 0.738484 -0.0610162 0
M  V30 1960 H 198.657 1.71896 -0.84404 0
M  V30 1961 H 196.962 3.86634 0.634123 0
M  V30 1962 H 198.659 4.00112 0.266723 0
M  V30 1963 H 195.249 4.12561 -1.16153 0
M  V30 1964 H 199.433 4.51443 -2.06187 0
M  V30 1965 H 194.689 5.12271 -3.3375 0
M  V30 1966 H 198.863 5.52518 -4.23907 0
M  V30 1967 H 196.49 5.82687 -4.88242 0
M  V30 1968 N 198.065 0.39524 1.52563 0
M  V30 1969 C 198.975 -0.444232 2.30356 0
M  V30 1970 C 199.991 -1.06615 1.37511 0
M  V30 1971 O 201.167 -1.07067 1.70583 0
M  V30 1972 C 198.232 -1.55315 3.09964 0
M  V30 1973 C 197.293 -0.955734 4.18526 0
M  V30 1974 C 196.526 -2.01181 4.9433 0
M  V30 1975 O 196.749 -3.22781 4.70285 0
M  V30 1976 O 195.683 -1.62579 5.79527 0
M  V30 1977 H 199.509 0.189667 3.03107 0
M  V30 1978 H 197.094 0.1588 1.48554 0
M  V30 1979 H 198.976 -2.19724 3.59582 0
M  V30 1980 H 197.651 -2.17191 2.4002 0
M  V30 1981 H 196.558 -0.274743 3.7309 0
M  V30 1982 H 197.891 -0.381109 4.90722 0
M  V30 1983 N 199.544 -1.57102 0.125237 0
M  V30 1984 C 200.769 -2.0019 -0.542101 0
M  V30 1985 C 201.194 -1.00449 -1.59034 0
M  V30 1986 O 200.552 0.0229423 -1.81285 0
M  V30 1987 C 200.6 -3.42129 -1.13929 0
M  V30 1988 O 199.704 -3.45307 -2.2547 0
M  V30 1989 H 199.045 -0.650171 -0.134812 0
M  V30 1990 H 201.575 -2.03461 0.215553 0
M  V30 1991 H 201.585 -3.80471 -1.4733 0
M  V30 1992 H 200.26 -4.14237 -0.371531 0
M  V30 1993 H 198.837 -3.1879 -1.93462 0
M  V30 1994 N 201.022 0.148545 -1.56898 0
M  V30 1995 C 201.969 1.18345 -1.98149 0
M  V30 1996 C 202.939 1.42772 -0.848848 0
M  V30 1997 O 204.124 1.55132 -1.11079 0
M  V30 1998 C 201.264 2.51231 -2.36594 0
M  V30 1999 C 200.377 2.33991 -3.63142 0
M  V30 2000 C 199.512 3.59902 -3.90697 0
M  V30 2001 C 198.551 3.37692 -5.1052 0
M  V30 2002 N 197.688 4.5573 -5.34092 0
M  V30 2003 H 202.528 0.82467 -2.86362 0
M  V30 2004 H 200.065 0.395756 -1.41676 0
M  V30 2005 H 202.023 3.28713 -2.56912 0
M  V30 2006 H 200.653 2.85059 -1.51463 0
M  V30 2007 H 199.705 1.47572 -3.50609 0
M  V30 2008 H 201.017 2.13539 -4.5078 0
M  V30 2009 H 200.171 4.45813 -4.11505 0
M  V30 2010 H 198.91 3.83357 -3.01477 0
M  V30 2011 H 197.915 2.5017 -4.89587 0
M  V30 2012 H 199.14 3.15637 -6.0129 0
M  V30 2013 H 197.086 4.79361 -4.47827 0
M  V30 2014 H 197.003 4.38274 -6.15996 0
M  V30 2015 H 198.271 5.42858 -5.59397 0
M  V30 2016 N 202.5 1.5196 0.417844 0
M  V30 2017 C 203.43 1.77634 1.51554 0
M  V30 2018 C 204.411 0.626918 1.58126 0
M  V30 2019 O 205.596 0.871632 1.7354 0
M  V30 2020 C 202.726 1.91911 2.8946 0
M  V30 2021 C 201.68 3.07463 2.97743 0
M  V30 2022 C 201.006 3.06951 4.37819 0
M  V30 2023 C 202.306 4.47082 2.70027 0
M  V30 2024 H 204 2.6955 1.3032 0
M  V30 2025 H 201.546 1.29706 0.625492 0
M  V30 2026 H 203.499 2.08455 3.6623 0
M  V30 2027 H 202.223 0.966598 3.11969 0
M  V30 2028 H 200.882 2.90656 2.23416 0
M  V30 2029 H 200.53 2.09438 4.57323 0
M  V30 2030 H 200.23 3.84556 4.44286 0
M  V30 2031 H 201.754 3.25613 5.16535 0
M  V30 2032 H 203.168 4.6414 3.36522 0
M  V30 2033 H 201.565 5.2654 2.87881 0
M  V30 2034 H 202.635 4.55777 1.65514 0
M  V30 2035 N 203.978 -0.674533 1.42435 0
M  V30 2036 C 205.225 -1.43459 1.42919 0
M  V30 2037 C 205.553 -1.94446 0.0457312 0
M  V30 2038 O 204.808 -1.7132 -0.94593 0
M  V30 2039 C 205.107 -2.64767 2.40069 0
M  V30 2040 C 204.773 -2.3232 3.86443 0
M  V30 2041 C 203.435 -2.23182 4.26314 0
M  V30 2042 C 205.787 -2.05977 4.78773 0
M  V30 2043 C 203.115 -1.85827 5.56494 0
M  V30 2044 C 205.467 -1.70125 6.09295 0
M  V30 2045 C 204.131 -1.59498 6.48164 0
M  V30 2046 H 203.401 -0.524952 0.522978 0
M  V30 2047 H 206.048 -0.769097 1.75377 0
M  V30 2048 H 204.353 -3.36349 2.00939 0
M  V30 2049 H 206.05 -3.22949 2.37707 0
M  V30 2050 H 202.64 -2.40334 3.54877 0
M  V30 2051 H 206.824 -2.11969 4.48757 0
M  V30 2052 H 202.08 -1.76168 5.8547 0
M  V30 2053 H 206.254 -1.48767 6.80324 0
M  V30 2054 H 203.881 -1.30322 7.48946 0
M  V30 2055 N 205.456 -1.28612 -0.910864 0
M  V30 2056 C 206.733 -1.06632 -1.63979 0
M  V30 2057 C 207.113 0.393351 -2.07403 0
M  V30 2058 O 206.461 1.37999 -1.82122 0
M  V30 2059 C 206.671 -2.0436 -2.8291 0
M  V30 2060 C 208.019 -2.34666 -3.5386 0
M  V30 2061 O 209.043 -2.02467 -2.93062 0
M  V30 2062 O 207.902 -2.89631 -4.63439 0
M  V30 2063 H 204.996 -0.407737 -0.7195 0
M  V30 2064 H 207.542 -1.39942 -0.959914 0
M  V30 2065 H 206.314 -3.02727 -2.47936 0
M  V30 2066 H 205.937 -1.71714 -3.58609 0
M  V30 2067 N 206.934 1.1197 -1.10907 0
M  V30 2068 C 208.183 1.82947 -0.849302 0
M  V30 2069 C 208.496 1.85275 0.627112 0
M  V30 2070 O 209.702 2.52296 1.00295 0
M  V30 2071 C 208.158 3.28529 -1.46959 0
M  V30 2072 C 207.766 3.34546 -2.97965 0
M  V30 2073 C 209.51 4.04443 -1.28942 0
M  V30 2074 C 207.417 4.74491 -3.53004 0
M  V30 2075 H 206.347 0.685477 -0.314065 0
M  V30 2076 H 208.998 1.2604 -1.33365 0
M  V30 2077 H 207.38 3.85333 -0.912917 0
M  V30 2078 H 208.554 2.87654 -3.59989 0
M  V30 2079 H 206.869 2.72108 -3.15192 0
M  V30 2080 H 209.466 5.07787 -1.67502 0
M  V30 2081 H 209.809 4.15656 -0.231456 0
M  V30 2082 H 210.342 3.5401 -1.81443 0
M  V30 2083 H 207.081 4.68474 -4.58489 0
M  V30 2084 H 206.601 5.21816 -2.9575 0
M  V30 2085 H 208.28 5.4344 -3.51115 0
M  V30 2086 N 208.412 0.89855 1.29475 0
M  V30 2087 C 209.637 0.538561 2.00285 0
M  V30 2088 C 210.062 -0.869135 1.66816 0
M  V30 2089 O 209.42 -1.57831 0.892145 0
M  V30 2090 C 209.468 0.736475 3.52999 0
M  V30 2091 O 208.572 -0.211537 4.11857 0
M  V30 2092 H 207.913 0.210563 0.62973 0
M  V30 2093 H 210.443 1.20982 1.64998 0
M  V30 2094 H 210.453 0.640685 4.02938 0
M  V30 2095 H 209.128 1.76276 3.76696 0
M  V30 2096 H 207.705 -0.0682991 3.72837 0
M  V30 2097 N 209.89 -1.43072 0.660911 0
M  V30 2098 C 210.823 -2.28074 -0.0758862 0
M  V30 2099 C 211.801 -1.40271 -0.822362 0
M  V30 2100 O 212.985 -1.69713 -0.820352 0
M  V30 2101 C 210.112 -3.19843 -1.11437 0
M  V30 2102 C 209.158 -4.23957 -0.465069 0
M  V30 2103 S 209.991 -5.29978 0.767078 0
M  V30 2104 C 211.147 -6.25314 -0.270682 0
M  V30 2105 H 211.38 -2.90216 0.645139 0
M  V30 2106 H 208.913 -1.47697 0.449995 0
M  V30 2107 H 210.871 -3.73257 -1.70849 0
M  V30 2108 H 209.532 -2.56863 -1.80776 0
M  V30 2109 H 208.725 -4.88299 -1.24819 0
M  V30 2110 H 208.327 -3.73959 0.0551242 0
M  V30 2111 H 210.619 -6.67932 -1.13459 0
M  V30 2112 H 211.562 -7.07293 0.337916 0
M  V30 2113 H 211.97 -5.61195 -0.609937 0
M  V30 2114 N 211.368 -0.403325 -1.52352 0
M  V30 2115 C 212.331 0.413051 -2.25447 0
M  V30 2116 C 213.331 0.978513 -1.276 0
M  V30 2117 O 214.521 0.858305 -1.51587 0
M  V30 2118 C 211.653 1.58087 -3.02029 0
M  V30 2119 H 212.846 -0.227094 -2.99039 0
M  V30 2120 H 210.399 -0.155722 -1.55522 0
M  V30 2121 H 211.134 2.25804 -2.32772 0
M  V30 2122 H 210.919 1.18195 -3.73861 0
M  V30 2123 H 212.409 2.1585 -3.57489 0
M  V30 2124 N 212.846 1.57033 -0.133567 0
M  V30 2125 C 214.095 1.94861 0.520768 0
M  V30 2126 C 214.408 1.02012 1.66892 0
M  V30 2127 O 215.614 1.29365 2.38699 0
M  V30 2128 C 214.07 3.46362 0.977809 0
M  V30 2129 C 213.678 4.47773 -0.142674 0
M  V30 2130 C 215.422 3.93083 1.60269 0
M  V30 2131 C 213.329 5.90468 0.331883 0
M  V30 2132 H 212.259 0.727453 0.198315 0
M  V30 2133 H 214.91 1.82227 -0.215759 0
M  V30 2134 H 213.292 3.54282 1.7692 0
M  V30 2135 H 214.466 4.51536 -0.919317 0
M  V30 2136 H 212.781 4.10891 -0.675124 0
M  V30 2137 H 215.378 4.97121 1.96914 0
M  V30 2138 H 215.721 3.33876 2.48662 0
M  V30 2139 H 216.254 3.88025 0.876453 0
M  V30 2140 H 212.993 6.53463 -0.516341 0
M  V30 2141 H 212.513 5.90094 1.07469 0
M  V30 2142 H 214.192 6.42179 0.788332 0
M  V30 2143 N 214.325 -0.140222 1.56975 0
M  V30 2144 C 215.55 -0.870414 1.88251 0
M  V30 2145 C 215.975 -1.73637 0.723312 0
M  V30 2146 O 215.333 -1.78329 -0.32689 0
M  V30 2147 C 215.381 -1.69737 3.18154 0
M  V30 2148 O 214.485 -2.80229 3.02565 0
M  V30 2149 H 213.826 -0.242025 0.61832 0
M  V30 2150 H 216.356 -0.128999 2.04193 0
M  V30 2151 H 216.366 -2.09099 3.50345 0
M  V30 2152 H 215.041 -1.06152 4.02125 0
M  V30 2153 H 213.618 -2.44224 2.81796 0
M  V30 2154 N 215.803 -1.52179 -0.40978 0
M  V30 2155 C 217.033 -1.69807 -1.17682 0
M  V30 2156 C 217.441 -0.406908 -1.84773 0
M  V30 2157 O 216.784 0.626863 -1.72673 0
M  V30 2158 C 216.846 -2.77712 -2.2829 0
M  V30 2159 C 216.51 -4.19481 -1.81341 0
M  V30 2160 C 217.507 -5.03345 -1.30154 0
M  V30 2161 C 215.192 -4.65713 -1.88194 0
M  V30 2162 C 217.186 -6.31511 -0.864416 0
M  V30 2163 C 214.873 -5.93869 -1.44093 0
M  V30 2164 C 215.871 -6.76597 -0.933023 0
M  V30 2165 O 215.559 -8.02354 -0.49838 0
M  V30 2166 H 215.291 -0.572372 -0.359675 0
M  V30 2167 H 217.845 -1.99511 -0.488311 0
M  V30 2168 H 216.075 -2.43383 -3.00502 0
M  V30 2169 H 217.764 -2.83946 -2.90051 0
M  V30 2170 H 218.53 -4.68819 -1.24232 0
M  V30 2171 H 214.409 -4.01424 -2.26671 0
M  V30 2172 H 217.953 -6.96033 -0.467286 0
M  V30 2173 H 213.85 -6.27903 -1.49694 0
M  V30 2174 H 214.618 -8.16135 -0.621747 0
M  V30 2175 N 217.281 0.66697 -1.42791 0
M  V30 2176 C 218.211 1.79218 -1.49677 0
M  V30 2177 C 219.192 1.66405 -0.352623 0
M  V30 2178 O 220.377 1.85708 -0.567993 0
M  V30 2179 C 217.507 3.17565 -1.40605 0
M  V30 2180 C 216.461 3.45124 -2.53127 0
M  V30 2181 C 215.787 4.83127 -2.29112 0
M  V30 2182 C 217.087 3.41236 -3.95418 0
M  V30 2183 H 218.781 1.73713 -2.43853 0
M  V30 2184 H 216.327 0.83432 -1.17367 0
M  V30 2185 H 218.28 3.96022 -1.44029 0
M  V30 2186 H 217.004 3.23767 -0.429271 0
M  V30 2187 H 215.663 2.69031 -2.49034 0
M  V30 2188 H 215.311 4.85988 -1.29709 0
M  V30 2189 H 215.011 5.02528 -3.04531 0
M  V30 2190 H 216.535 5.63859 -2.34297 0
M  V30 2191 H 217.949 4.09651 -4.01073 0
M  V30 2192 H 216.346 3.72173 -4.70752 0
M  V30 2193 H 217.416 2.39665 -4.21532 0
M  V30 2194 N 218.759 1.29093 0.90403 0
M  V30 2195 C 219.989 1.19516 1.68522 0
M  V30 2196 C 220.397 -0.24738 1.87576 0
M  V30 2197 O 219.74 -1.17798 1.40959 0
M  V30 2198 C 219.802 1.83249 3.0929 0
M  V30 2199 C 219.466 3.32531 3.13484 0
M  V30 2200 C 220.463 4.28821 2.93953 0
M  V30 2201 C 218.148 3.73656 3.35688 0
M  V30 2202 C 220.142 5.64212 2.96553 0
M  V30 2203 C 217.829 5.0917 3.37919 0
M  V30 2204 C 218.827 6.04258 3.18373 0
M  V30 2205 O 218.515 7.37298 3.20385 0
M  V30 2206 H 218.247 0.415467 0.533257 0
M  V30 2207 H 220.801 1.70912 1.13922 0
M  V30 2208 H 219.031 1.26358 3.65473 0
M  V30 2209 H 220.72 1.68054 3.69476 0
M  V30 2210 H 221.486 3.98382 2.76616 0
M  V30 2211 H 217.365 3.00101 3.49943 0
M  V30 2212 H 220.909 6.38407 2.81216 0
M  V30 2213 H 216.806 5.39256 3.54787 0
M  V30 2214 H 217.574 7.46048 3.36681 0
M  V30 2215 N 220.237 -1.11381 1.11499 0
M  V30 2216 C 221.185 -2.19522 0.768956 0
M  V30 2217 C 222.179 -1.67693 -0.239857 0
M  V30 2218 O 223.385 -1.79727 -0.0990755 0
M  V30 2219 H 219.76 -0.715711 0.230786 0
M  V30 2220 H 221.731 -2.45954 1.68964 0
M  V30 2221 C 220.48 -3.46945 0.229073 0
M  V30 2222 H 219.803 -3.8718 0.996596 0
M  V30 2223 H 221.243 -4.23993 0.0251441 0
M  V30 2224 C 219.702 -3.2042 -1.04079 0
M  V30 2225 O 220.232 -3.41178 -2.12038 0
M  V30 2226 N 218.438 -2.74151 -0.963823 0
M  V30 2227 H 217.985 -2.57459 -0.0851722 0
M  V30 2228 H 217.943 -2.56781 -1.81414 0
M  V30 2229 N 221.715 -0.905404 -1.28997 0
M  V30 2230 C 222.94 -0.549175 -1.99997 0
M  V30 2231 C 223.365 0.860276 -1.67275 0
M  V30 2232 O 222.723 1.57355 -0.900502 0
M  V30 2233 C 222.771 -0.755185 -3.52604 0
M  V30 2234 O 221.875 0.189692 -4.11964 0
M  V30 2235 H 221.216 -0.213899 -0.628604 0
M  V30 2236 H 223.746 -1.21856 -1.64354 0
M  V30 2237 H 223.756 -0.662045 -4.02593 0
M  V30 2238 H 222.431 -1.78271 -3.75755 0
M  V30 2239 H 221.008 0.0485257 -3.72868 0
M  V30 2240 N 223.193 1.4272 -0.668489 0
M  V30 2241 C 224.14 2.30796 0.0137489 0
M  V30 2242 C 225.11 1.4561 0.799177 0
M  V30 2243 O 226.295 1.74453 0.772702 0
M  V30 2244 C 223.435 3.31377 0.963507 0
M  V30 2245 C 222.548 4.31655 0.172569 0
M  V30 2246 C 221.683 5.19312 1.1175 0
M  V30 2247 C 220.722 6.11274 0.317886 0
M  V30 2248 N 219.859 6.91504 1.2152 0
M  V30 2249 H 224.699 2.88585 -0.743161 0
M  V30 2250 H 222.236 1.42154 -0.378226 0
M  V30 2251 H 224.194 3.88214 1.52792 0
M  V30 2252 H 222.824 2.75202 1.68712 0
M  V30 2253 H 221.876 3.76988 -0.508374 0
M  V30 2254 H 223.188 4.96779 -0.448527 0
M  V30 2255 H 222.342 5.80851 1.75206 0
M  V30 2256 H 221.081 4.5435 1.77249 0
M  V30 2257 H 220.086 5.48809 -0.329918 0
M  V30 2258 H 221.311 6.78283 -0.332917 0
M  V30 2259 H 219.257 6.29176 1.85671 0
M  V30 2260 H 219.174 7.53209 0.649036 0
M  V30 2261 H 220.442 7.57535 1.83742 0
M  V30 2262 N 224.671 0.411399 1.52136 0
M  V30 2263 C 225.581 -0.419774 2.30814 0
M  V30 2264 C 226.597 -1.0515 1.38634 0
M  V30 2265 O 227.773 -1.05252 1.71709 0
M  V30 2266 C 224.838 -1.52019 3.11594 0
M  V30 2267 C 223.899 -0.91129 4.19516 0
M  V30 2268 C 223.132 -1.95927 4.96436 0
M  V30 2269 O 223.355 -3.17775 4.73683 0
M  V30 2270 O 222.289 -1.56423 5.81219 0
M  V30 2271 H 226.115 0.221805 3.02889 0
M  V30 2272 H 223.7 0.174547 1.48377 0
M  V30 2273 H 225.582 -2.15898 3.61892 0
M  V30 2274 H 224.257 -2.14633 2.42311 0
M  V30 2275 H 223.164 -0.235157 3.7336 0
M  V30 2276 H 224.497 -0.32904 4.91099 0
M  V30 2277 N 226.149 -1.5696 0.141893 0
M  V30 2278 C 227.56 -1.82797 -0.379776 0
M  V30 2279 C 227.911 -1.06033 -1.6508 0
M  V30 2280 O 227.036 -0.304011 -2.14254 0
M  V30 2281 C 227.631 -3.31578 -0.695802 0
M  V30 2282 C 226.19 -3.58014 -1.16201 0
M  V30 2283 C 225.337 -2.76699 -0.182455 0
M  V30 2284 H 228.288 -1.54406 0.366675 0
M  V30 2285 H 228.309 -3.47454 -1.55099 0
M  V30 2286 H 227.821 -3.87421 0.229449 0
M  V30 2287 H 225.922 -3.07553 -2.10338 0
M  V30 2288 H 226.035 -4.66501 -1.09151 0
M  V30 2289 H 224.399 -2.45618 -0.674072 0
M  V30 2290 H 225.182 -3.35311 0.736297 0
M  V30 2291 N 227.627 0.131896 -1.57047 0
M  V30 2292 C 228.875 0.840269 -1.83804 0
M  V30 2293 C 229.196 1.81017 -0.72512 0
M  V30 2294 O 228.466 1.94272 0.251995 0
M  V30 2295 H 227.046 0.313294 -0.678127 0
M  V30 2296 H 229.708 0.122294 -1.94516 0
M  V30 2297 H 228.804 1.39335 -2.79271 0
M  V30 2298 N 229.106 1.52395 0.401703 0
M  V30 2299 C 230.352 1.67065 1.14966 0
M  V30 2300 C 230.685 0.403052 1.89971 0
M  V30 2301 O 229.96 -0.598774 1.85054 0
M  V30 2302 C 230.243 2.8975 2.13815 0
M  V30 2303 C 230.096 4.26578 1.42658 0
M  V30 2304 C 231.415 3.07965 3.14397 0
M  V30 2305 H 228.534 0.607968 0.416587 0
M  V30 2306 H 231.176 1.84965 0.434511 0
M  V30 2307 H 229.326 2.74619 2.74803 0
M  V30 2308 H 230.998 4.53451 0.847329 0
M  V30 2309 H 229.241 4.27639 0.72849 0
M  V30 2310 H 229.912 5.08483 2.14823 0
M  V30 2311 H 232.388 3.22043 2.63491 0
M  V30 2312 H 231.264 3.95308 3.80819 0
M  V30 2313 H 231.525 2.21611 3.82545 0
M  V30 2314 N 230.584 -0.659388 1.43143 0
M  V30 2315 C 231.516 -1.7849 1.43784 0
M  V30 2316 C 232.529 -1.5932 0.334787 0
M  V30 2317 O 233.718 -1.68155 0.598842 0
M  V30 2318 C 230.818 -3.15828 1.22906 0
M  V30 2319 C 229.991 -3.61711 2.45934 0
M  V30 2320 C 229.05 -4.77831 2.20371 0
M  V30 2321 O 228.076 -4.87586 2.93681 0
M  V30 2322 N 229.278 -5.67611 1.21647 0
M  V30 2323 H 232.043 -1.7842 2.40803 0
M  V30 2324 H 229.604 -0.84302 1.3822 0
M  V30 2325 H 231.596 -3.91189 1.03697 0
M  V30 2326 H 230.166 -3.10707 0.343542 0
M  V30 2327 H 229.386 -2.76861 2.80609 0
M  V30 2328 H 230.674 -3.89112 3.27825 0
M  V30 2329 H 230.072 -5.62397 0.610449 0
M  V30 2330 H 228.629 -6.42719 1.08423 0
M  V30 2331 N 232.062 -1.29571 -0.897171 0
M  V30 2332 C 233.025 -1.14913 -1.98312 0
M  V30 2333 C 234.025 -0.0838629 -1.60581 0
M  V30 2334 O 235.215 -0.331006 -1.71026 0
M  V30 2335 C 232.347 -0.757835 -3.3237 0
M  V30 2336 H 233.54 -2.11377 -2.12743 0
M  V30 2337 H 231.093 -1.12793 -1.08201 0
M  V30 2338 H 231.828 0.206837 -3.2364 0
M  V30 2339 H 231.613 -1.52755 -3.61121 0
M  V30 2340 H 233.103 -0.678408 -4.12053 0
M  V30 2341 N 233.54 1.10788 -1.12088 0
M  V30 2342 C 234.77 1.86191 -0.895351 0
M  V30 2343 C 235.178 1.80763 0.558702 0
M  V30 2344 O 234.521 1.19188 1.39785 0
M  V30 2345 C 234.583 3.35659 -1.28737 0
M  V30 2346 C 234.247 3.64849 -2.75198 0
M  V30 2347 C 235.244 3.61757 -3.734 0
M  V30 2348 C 232.929 3.93641 -3.12013 0
M  V30 2349 C 234.923 3.87045 -5.06434 0
M  V30 2350 C 232.61 4.18585 -4.4523 0
M  V30 2351 C 233.608 4.15277 -5.42249 0
M  V30 2352 O 233.296 4.3959 -6.73065 0
M  V30 2353 H 233.028 0.595425 -0.32007 0
M  V30 2354 H 235.582 1.40992 -1.49367 0
M  V30 2355 H 233.812 3.81497 -0.63224 0
M  V30 2356 H 235.501 3.92441 -1.03656 0
M  V30 2357 H 236.267 3.39557 -3.46303 0
M  V30 2358 H 232.146 3.95348 -2.37109 0
M  V30 2359 H 235.69 3.84378 -5.82151 0
M  V30 2360 H 231.587 4.40264 -4.72057 0
M  V30 2361 H 232.355 4.57123 -6.78956 0
M  V30 2362 N 235.018 0.912232 1.28515 0
M  V30 2363 C 236.267 0.540504 1.94323 0
M  V30 2364 C 236.58 -0.920044 1.72611 0
M  V30 2365 O 237.786 -1.39986 2.32629 0
M  V30 2366 C 236.242 0.915803 3.48053 0
M  V30 2367 C 235.85 2.39598 3.78546 0
M  V30 2368 C 237.594 0.614588 4.20027 0
M  V30 2369 C 235.501 2.71148 5.25578 0
M  V30 2370 H 234.431 0.198418 0.727424 0
M  V30 2371 H 237.082 1.11094 1.46049 0
M  V30 2372 H 235.464 0.274168 3.9505 0
M  V30 2373 H 236.638 3.08422 3.42364 0
M  V30 2374 H 234.953 2.66749 3.1974 0
M  V30 2375 H 237.55 0.827002 5.28266 0
M  V30 2376 H 237.893 -0.447531 4.13887 0
M  V30 2377 H 238.426 1.21462 3.78803 0
M  V30 2378 H 235.165 3.76207 5.36794 0
M  V30 2379 H 234.685 2.0696 5.62963 0
M  V30 2380 H 236.364 2.58072 5.93302 0
M  V30 2381 N 236.496 -1.42363 0.676048 0
M  V30 2382 C 237.744 -2.01123 0.198437 0
M  V30 2383 C 238.065 -1.53731 -1.19966 0
M  V30 2384 O 237.335 -0.759518 -1.80577 0
M  V30 2385 H 235.915 -0.743678 0.0703721 0
M  V30 2386 H 238.577 -1.74263 0.872837 0
M  V30 2387 H 237.673 -3.11454 0.200686 0
M  V30 2388 N 237.974 -0.419461 -1.51915 0
M  V30 2389 C 238.922 0.415502 -2.28859 0
M  V30 2390 C 239.916 1.03674 -1.3397 0
M  V30 2391 O 241.122 0.973757 -1.51387 0
M  V30 2392 H 237.497 0.152786 -0.736315 0
M  V30 2393 H 239.468 -0.254531 -2.97312 0
M  V30 2394 C 238.217 1.51425 -3.12995 0
M  V30 2395 H 237.54 1.04556 -3.85886 0
M  V30 2396 H 238.98 2.07208 -3.6992 0
M  V30 2397 C 237.439 2.48745 -2.27217 0
M  V30 2398 O 237.969 3.52871 -1.9195 0
M  V30 2399 N 236.175 2.19202 -1.90785 0
M  V30 2400 H 235.722 1.34556 -2.19664 0
M  V30 2401 H 235.68 2.84561 -1.33687 0
M  V30 2402 N 239.452 1.56882 -0.150215 0
M  V30 2403 C 240.868 1.58263 0.20617 0
M  V30 2404 C 241.068 1.16464 1.64434 0
M  V30 2405 O 240.124 0.866422 2.3717 0
M  V30 2406 C 241.437 3.00649 -0.0555025 0
M  V30 2407 C 242.985 3.12999 0.00795388 0
M  V30 2408 C 243.46 4.5744 -0.226429 0
M  V30 2409 N 244.951 4.62875 -0.173469 0
M  V30 2410 C 245.686 5.72454 -0.329288 0
M  V30 2411 N 245.182 6.90669 -0.543005 0
M  V30 2412 N 246.975 5.61467 -0.266666 0
M  V30 2413 H 239.126 1.82345 -1.08922 0
M  V30 2414 H 241.389 0.844149 -0.431413 0
M  V30 2415 H 241.095 3.3563 -1.05096 0
M  V30 2416 H 240.969 3.71337 0.66246 0
M  V30 2417 H 243.356 2.77857 0.993966 0
M  V30 2418 H 243.437 2.4479 -0.742388 0
M  V30 2419 H 243.081 4.93287 -1.20956 0
M  V30 2420 H 243.011 5.2378 0.544274 0
M  V30 2421 H 245.502 3.77898 -0.0130709 0
M  V30 2422 H 245.815 7.70045 -0.651922 0
M  V30 2423 H 244.16 6.92581 -0.579366 0
M  V30 2424 H 247.351 4.67992 -0.100441 0
M  V30 2425 H 247.524 6.46816 -0.391535 0
M  V30 2426 N 240.93 -0.123565 1.57115 0
M  V30 2427 C 241.86 -1.15309 2.03042 0
M  V30 2428 C 242.841 -1.43454 0.914061 0
M  V30 2429 O 244.026 -1.53973 1.18347 0
M  V30 2430 C 241.156 -2.48043 2.43089 0
M  V30 2431 C 240.11 -2.3437 3.58127 0
M  V30 2432 C 239.436 -3.72026 3.84059 0
M  V30 2433 C 240.736 -1.80804 4.90007 0
M  V30 2434 H 242.43 -0.771102 2.893 0
M  V30 2435 H 239.976 -0.369479 1.39179 0
M  V30 2436 H 241.929 -3.20311 2.73823 0
M  V30 2437 H 240.653 -2.88122 1.53796 0
M  V30 2438 H 239.312 -1.64551 3.27595 0
M  V30 2439 H 238.96 -4.09582 2.91979 0
M  V30 2440 H 238.66 -3.63732 4.6149 0
M  V30 2441 H 240.184 -4.45806 4.1724 0
M  V30 2442 H 241.598 -2.42886 5.19307 0
M  V30 2443 H 239.995 -1.83343 5.71407 0
M  V30 2444 H 241.065 -0.76528 4.78823 0
M  V30 2445 N 242.408 -1.52605 -0.393616 0
M  V30 2446 C 243.655 -1.67424 -1.1391 0
M  V30 2447 C 243.983 -0.411859 -1.90089 0
M  V30 2448 O 243.238 0.605626 -1.86093 0
M  V30 2449 C 243.537 -2.85721 -2.14705 0
M  V30 2450 C 243.203 -4.23342 -1.55218 0
M  V30 2451 C 241.865 -4.60771 -1.3872 0
M  V30 2452 C 244.217 -5.09041 -1.11924 0
M  V30 2453 C 241.545 -5.81563 -0.774689 0
M  V30 2454 C 243.897 -6.30452 -0.520853 0
M  V30 2455 C 242.561 -6.66617 -0.343134 0
M  V30 2456 H 241.831 -0.612648 -0.416826 0
M  V30 2457 H 244.478 -1.8674 -0.424315 0
M  V30 2458 H 242.783 -2.60803 -2.92385 0
M  V30 2459 H 244.48 -2.94382 -2.72288 0
M  V30 2460 H 241.07 -3.93855 -1.69045 0
M  V30 2461 H 245.254 -4.80695 -1.23473 0
M  V30 2462 H 240.51 -6.08196 -0.625154 0
M  V30 2463 H 244.684 -6.96175 -0.177065 0
M  V30 2464 H 242.311 -7.60083 0.133571 0
M  V30 2465 N 243.887 0.651787 -1.4349 0
M  V30 2466 C 245.127 1.42345 -1.46688 0
M  V30 2467 C 245.491 1.91793 -0.0891023 0
M  V30 2468 O 246.692 2.688 0.00423594 0
M  V30 2469 C 244.963 2.57221 -2.48137 0
M  V30 2470 S 246.522 3.45725 -2.70221 0
M  V30 2471 H 243.34 0.485878 -0.51908 0
M  V30 2472 H 245.942 0.756578 -1.80267 0
M  V30 2473 H 244.646 2.1917 -3.46976 0
M  V30 2474 H 244.177 3.28757 -2.16061 0
M  V30 2475 H 246.192 4.53996 -2.00255 0
M  V30 2476 N 245.365 1.30045 0.890287 0
M  V30 2477 C 246.612 1.18561 1.64163 0
M  V30 2478 C 246.94 -0.260852 1.92743 0
M  V30 2479 O 246.195 -1.20376 1.54299 0
M  V30 2480 C 246.494 1.95409 2.99249 0
M  V30 2481 C 246.16 3.45066 2.90242 0
M  V30 2482 C 244.822 3.85878 2.87492 0
M  V30 2483 C 247.174 4.4039 2.78758 0
M  V30 2484 C 244.502 5.20314 2.7109 0
M  V30 2485 C 246.854 5.74928 2.63894 0
M  V30 2486 C 245.518 6.14986 2.59516 0
M  V30 2487 H 244.788 0.433846 0.600715 0
M  V30 2488 H 247.435 1.61088 1.03552 0
M  V30 2489 H 245.74 1.45501 3.63781 0
M  V30 2490 H 247.437 1.8392 3.56334 0
M  V30 2491 H 244.027 3.12631 2.93189 0
M  V30 2492 H 248.211 4.09806 2.79952 0
M  V30 2493 H 243.467 5.50449 2.66112 0
M  V30 2494 H 247.641 6.48434 2.53981 0
M  V30 2495 H 245.268 7.19104 2.46565 0
M  V30 2496 N 246.843 -1.10192 1.12674 0
M  V30 2497 C 248.259 -1.34235 0.863317 0
M  V30 2498 C 248.459 -1.95062 -0.505277 0
M  V30 2499 O 247.515 -2.19192 -1.25345 0
M  V30 2500 C 248.828 -2.2616 1.98172 0
M  V30 2501 C 250.376 -2.3969 2.0129 0
M  V30 2502 C 250.851 -3.34946 3.1237 0
M  V30 2503 N 252.342 -3.42515 3.11829 0
M  V30 2504 C 253.077 -4.16199 3.94419 0
M  V30 2505 N 252.573 -4.92747 4.87004 0
M  V30 2506 N 254.366 -4.11843 3.82547 0
M  V30 2507 H 246.517 -0.690798 2.00853 0
M  V30 2508 H 248.78 -0.366774 0.874174 0
M  V30 2509 H 248.486 -1.8868 2.96804 0
M  V30 2510 H 248.36 -3.26488 1.88906 0
M  V30 2511 H 250.747 -2.76438 1.03276 0
M  V30 2512 H 250.828 -1.39169 2.14629 0
M  V30 2513 H 250.472 -2.98923 4.10619 0
M  V30 2514 H 250.402 -4.35353 2.96269 0
M  V30 2515 H 252.893 -2.87926 2.44759 0
M  V30 2516 H 253.206 -5.46376 5.46528 0
M  V30 2517 H 251.551 -4.91862 4.91016 0
M  V30 2518 H 254.742 -3.51136 3.0955 0
M  V30 2519 H 254.915 -4.69007 4.47142 0
M  V30 2520 N 248.321 -0.919034 -1.28029 0
M  V30 2521 C 249.269 -0.401753 -2.29104 0
M  V30 2522 C 250.263 0.509354 -1.61561 0
M  V30 2523 O 251.469 0.390014 -1.75724 0
M  V30 2524 H 247.844 -0.111331 -0.743713 0
M  V30 2525 H 249.815 -1.2672 -2.70156 0
M  V30 2526 C 248.564 0.338148 -3.46052 0
M  V30 2527 H 247.887 -0.353732 -3.98232 0
M  V30 2528 H 249.327 0.664653 -4.18758 0
M  V30 2529 C 247.786 1.54798 -2.99231 0
M  V30 2530 O 248.316 2.64696 -3.02157 0
M  V30 2531 N 246.522 1.3968 -2.54829 0
M  V30 2532 H 246.069 0.502698 -2.52647 0
M  V30 2533 H 246.027 2.20755 -2.23863 0
M  V30 2534 N 249.799 1.42003 -0.683588 0
M  V30 2535 C 250.709 2.34597 -0.0109075 0
M  V30 2536 C 251.725 1.55576 0.779245 0
M  V30 2537 O 252.901 1.88107 0.719555 0
M  V30 2538 C 249.966 3.34199 0.922588 0
M  V30 2539 C 249.027 4.29115 0.125984 0
M  V30 2540 C 248.26 5.23959 1.01502 0
M  V30 2541 O 248.483 5.23952 2.25456 0
M  V30 2542 O 247.417 6.00053 0.47111 0
M  V30 2543 H 251.243 2.93675 -0.773853 0
M  V30 2544 H 248.828 1.42654 -0.443861 0
M  V30 2545 H 250.71 3.95365 1.45823 0
M  V30 2546 H 249.385 2.77582 1.66523 0
M  V30 2547 H 248.292 3.71335 -0.453969 0
M  V30 2548 H 249.625 4.88798 -0.577736 0
M  V30 2549 N 251.277 0.427512 1.51691 0
M  V30 2550 C 252.554 -0.201684 1.94557 0
M  V30 2551 C 252.934 -1.60981 1.36559 0
M  V30 2552 O 252.282 -2.21814 0.548702 0
M  V30 2553 C 252.492 -0.189394 3.48486 0
M  V30 2554 C 253.84 -0.39978 4.22714 0
M  V30 2555 O 254.864 -0.267945 3.55191 0
M  V30 2556 O 253.723 -0.661249 5.42485 0
M  V30 2557 H 250.817 -0.135261 0.815864 0
M  V30 2558 H 253.363 0.484782 1.62628 0
M  V30 2559 H 252.135 0.795431 3.8313 0
M  V30 2560 H 251.758 -0.919187 3.86829 0
M  V30 2561 N 252.755 -1.56801 0.158532 0
M  V30 2562 C 254.001 -1.96781 -0.490405 0
M  V30 2563 C 254.334 -1.04397 -1.63753 0
M  V30 2564 O 253.609 -0.0885805 -1.94298 0
M  V30 2565 C 253.892 -3.4635 -0.985594 0
M  V30 2566 C 253.745 -4.49512 0.160824 0
M  V30 2567 C 255.064 -3.98697 -1.86355 0
M  V30 2568 H 252.183 -0.715482 -0.176788 0
M  V30 2569 H 254.825 -1.88451 0.242088 0
M  V30 2570 H 252.975 -3.53579 -1.60978 0
M  V30 2571 H 254.647 -4.54353 0.797537 0
M  V30 2572 H 252.89 -4.26013 0.818256 0
M  V30 2573 H 253.561 -5.51531 -0.227569 0
M  V30 2574 H 256.037 -3.94019 -1.33746 0
M  V30 2575 H 254.913 -5.03792 -2.17909 0
M  V30 2576 H 255.174 -3.41744 -2.8047 0
M  V30 2577 N 254.233 0.115231 -1.57178 0
M  V30 2578 C 255.51 0.852873 -1.76027 0
M  V30 2579 C 255.89 1.97892 -0.73498 0
M  V30 2580 O 255.238 2.27232 0.24036 0
M  V30 2581 C 255.448 1.36608 -3.21153 0
M  V30 2582 C 256.796 1.81692 -3.83762 0
M  V30 2583 O 257.82 1.46278 -3.24779 0
M  V30 2584 O 256.679 2.47104 -4.87444 0
M  V30 2585 H 253.773 0.405296 -0.720877 0
M  V30 2586 H 256.319 0.0986785 -1.69413 0
M  V30 2587 H 255.091 0.558357 -3.87296 0
M  V30 2588 H 254.714 2.18287 -3.3232 0
M  V30 2589 N 255.711 1.52812 0.385517 0
M  V30 2590 C 256.958 1.68026 1.1302 0
M  V30 2591 C 257.286 0.421934 1.89868 0
M  V30 2592 O 256.541 -0.595749 1.86412 0
M  V30 2593 C 256.84 2.86856 2.13187 0
M  V30 2594 C 256.506 4.24159 1.5297 0
M  V30 2595 C 255.168 4.61501 1.36274 0
M  V30 2596 C 257.52 5.09627 1.09223 0
M  V30 2597 C 254.848 5.81966 0.743837 0
M  V30 2598 C 257.2 6.30719 0.487411 0
M  V30 2599 C 255.864 6.6679 0.307777 0
M  V30 2600 H 255.134 0.614849 0.413571 0
M  V30 2601 H 257.781 1.86962 0.414405 0
M  V30 2602 H 256.086 2.6235 2.90998 0
M  V30 2603 H 257.783 2.95821 2.70722 0
M  V30 2604 H 254.373 3.94746 1.66954 0
M  V30 2605 H 258.557 4.81343 1.20922 0
M  V30 2606 H 253.813 6.08519 0.592891 0
M  V30 2607 H 257.987 6.96259 0.140143 0
M  V30 2608 H 255.614 7.60001 -0.173879 0
M  V30 2609 N 257.189 -0.644168 1.43834 0
M  V30 2610 C 258.419 -1.42939 1.49171 0
M  V30 2611 C 258.827 -1.88874 0.111048 0
M  V30 2612 O 258.17 -1.60656 -0.8908 0
M  V30 2613 C 258.232 -2.69151 2.38324 0
M  V30 2614 C 257.896 -2.45097 3.85715 0
M  V30 2615 C 258.893 -2.07747 4.76589 0
M  V30 2616 C 256.578 -2.59141 4.30292 0
M  V30 2617 C 258.572 -1.8475 6.10038 0
M  V30 2618 C 256.259 -2.35759 5.63792 0
M  V30 2619 C 257.257 -1.9862 6.53482 0
M  V30 2620 O 256.945 -1.75489 7.84512 0
M  V30 2621 H 256.677 -0.445271 0.508635 0
M  V30 2622 H 259.231 -0.79621 1.8934 0
M  V30 2623 H 257.461 -3.3506 1.93058 0
M  V30 2624 H 259.15 -3.31123 2.3476 0
M  V30 2625 H 259.916 -1.96465 4.43426 0
M  V30 2626 H 255.795 -2.87022 3.60749 0
M  V30 2627 H 259.339 -1.55686 6.80006 0
M  V30 2628 H 255.236 -2.46646 5.9652 0
M  V30 2629 H 256.004 -1.89841 7.9618 0
M  V30 2630 N 258.668 -1.30515 -0.883378 0
M  V30 2631 C 259.598 -1.19607 -2.00541 0
M  V30 2632 C 260.579 -0.086346 -1.69881 0
M  V30 2633 O 261.764 -0.268654 -1.92333 0
M  V30 2634 C 258.894 -0.888758 -3.35736 0
M  V30 2635 C 257.848 -1.95659 -3.8066 0
M  V30 2636 C 257.174 -1.50224 -5.13164 0
M  V30 2637 C 258.474 -3.36788 -3.99213 0
M  V30 2638 H 260.168 -2.13476 -2.09925 0
M  V30 2639 H 257.714 -1.02775 -1.00863 0
M  V30 2640 H 259.667 -0.799094 -4.13754 0
M  V30 2641 H 258.391 0.0856125 -3.26488 0
M  V30 2642 H 257.05 -2.03591 -3.04871 0
M  V30 2643 H 256.698 -0.516092 -5.00345 0
M  V30 2644 H 256.398 -2.2165 -5.44192 0
M  V30 2645 H 257.922 -1.42639 -5.93706 0
M  V30 2646 H 259.336 -3.31605 -4.67665 0
M  V30 2647 H 257.733 -4.06314 -4.41621 0
M  V30 2648 H 258.803 -3.78561 -3.03017 0
M  V30 2649 N 260.146 1.09593 -1.13257 0
M  V30 2650 C 261.557 1.63229 -0.906274 0
M  V30 2651 C 261.908 1.8811 0.557578 0
M  V30 2652 O 261.033 1.62953 1.42391 0
M  V30 2653 C 261.628 2.96535 -1.63867 0
M  V30 2654 C 260.187 3.47003 -1.45828 0
M  V30 2655 C 259.334 2.2145 -1.66898 0
M  V30 2656 H 262.285 0.92978 -1.28611 0
M  V30 2657 H 262.306 3.64411 -1.09476 0
M  V30 2658 H 261.818 2.78394 -2.70404 0
M  V30 2659 H 259.919 3.70272 -0.415848 0
M  V30 2660 H 260.032 4.24551 -2.2202 0
M  V30 2661 H 258.396 2.30022 -1.09371 0
M  V30 2662 H 259.179 2.0583 -2.74752 0
M  V30 2663 N 261.624 0.925811 1.2754 0
M  V30 2664 C 262.556 0.380753 2.26015 0
M  V30 2665 C 263.569 -0.487485 1.5533 0
M  V30 2666 O 264.758 -0.300413 1.75954 0
M  V30 2667 C 261.858 -0.473259 3.35579 0
M  V30 2668 C 261.031 0.375249 4.35787 0
M  V30 2669 C 260.09 -0.415809 5.24555 0
M  V30 2670 O 259.116 0.175834 5.68928 0
M  V30 2671 N 260.318 -1.71607 5.54555 0
M  V30 2672 H 263.083 1.22725 2.73421 0
M  V30 2673 H 260.644 0.793037 1.41147 0
M  V30 2674 H 262.636 -1.00949 3.91907 0
M  V30 2675 H 261.206 -1.2205 2.87789 0
M  V30 2676 H 260.426 1.09279 3.7875 0
M  V30 2677 H 261.714 0.955399 4.99749 0
M  V30 2678 H 261.112 -2.2191 5.20358 0
M  V30 2679 H 259.669 -2.19887 6.1359 0
M  V30 2680 N 263.102 -1.41638 0.69111 0
M  V30 2681 C 264.032 -2.3347 0.037248 0
M  V30 2682 C 265.013 -1.51575 -0.771947 0
M  V30 2683 O 266.198 -1.80126 -0.72582 0
M  V30 2684 C 263.328 -3.35354 -0.903064 0
M  V30 2685 C 262.282 -4.27526 -0.201288 0
M  V30 2686 C 261.608 -5.19747 -1.25565 0
M  V30 2687 C 262.908 -5.13959 0.929689 0
M  V30 2688 H 264.602 -2.88397 0.804227 0
M  V30 2689 H 262.148 -1.38669 0.388189 0
M  V30 2690 H 264.101 -3.98519 -1.36969 0
M  V30 2691 H 262.825 -2.78767 -1.70166 0
M  V30 2692 H 261.484 -3.65779 0.245265 0
M  V30 2693 H 261.132 -4.59479 -2.04666 0
M  V30 2694 H 260.832 -5.8225 -0.791128 0
M  V30 2695 H 262.356 -5.85789 -1.72288 0
M  V30 2696 H 263.77 -5.70718 0.543546 0
M  V30 2697 H 262.167 -5.85379 1.32103 0
M  V30 2698 H 263.237 -4.51389 1.77133 0
M  V30 2699 N 264.58 -0.43555 -1.51462 0
M  V30 2700 C 265.51 0.367376 -2.30592 0
M  V30 2701 C 266.491 1.02263 -1.35928 0
M  V30 2702 O 267.676 1.02661 -1.64847 0
M  V30 2703 C 264.806 1.46983 -3.14664 0
M  V30 2704 C 263.76 0.938161 -4.17591 0
M  V30 2705 C 263.086 2.13622 -4.90173 0
M  V30 2706 C 264.386 -0.0261621 -5.22293 0
M  V30 2707 H 266.08 -0.292969 -2.97963 0
M  V30 2708 H 263.626 -0.14234 -1.43295 0
M  V30 2709 H 265.579 2.03873 -3.688 0
M  V30 2710 H 264.303 2.15843 -2.4511 0
M  V30 2711 H 262.962 0.391481 -3.64504 0
M  V30 2712 H 262.61 2.81098 -4.17124 0
M  V30 2713 H 262.31 1.78688 -5.59772 0
M  V30 2714 H 263.834 2.7107 -5.47132 0
M  V30 2715 H 265.248 0.452384 -5.71512 0
M  V30 2716 H 263.645 -0.287992 -5.99409 0
M  V30 2717 H 264.715 -0.963391 -4.75233 0
M  V30 2718 N 266.058 1.56714 -0.166846 0
M  V30 2719 C 267.006 2.19056 0.782123 0
M  V30 2720 C 268 1.15328 1.24079 0
M  V30 2721 O 269.206 1.33537 1.20697 0
M  V30 2722 H 265.581 0.70167 0.270486 0
M  V30 2723 H 267.552 2.97494 0.232322 0
M  V30 2724 C 266.301 2.84206 2.00306 0
M  V30 2725 H 265.624 3.63748 1.65914 0
M  V30 2726 H 267.064 3.31302 2.64604 0
M  V30 2727 C 265.523 1.83744 2.82382 0
M  V30 2728 O 266.053 1.32014 3.79388 0
M  V30 2729 N 264.259 1.52601 2.47308 0
M  V30 2730 H 263.806 1.9486 1.68485 0
M  V30 2731 H 263.764 0.856351 3.02513 0
M  V30 2732 N 267.536 -0.106894 1.57237 0
M  V30 2733 C 268.469 -1.16125 1.96444 0
M  V30 2734 C 269.447 -1.3947 0.835871 0
M  V30 2735 O 270.631 -1.53425 1.09513 0
M  V30 2736 C 267.758 -2.51277 2.27107 0
M  V30 2737 C 266.804 -2.44285 3.4961 0
M  V30 2738 S 267.637 -1.87077 5.01759 0
M  V30 2739 C 268.793 -3.23877 5.35588 0
M  V30 2740 H 269.026 -0.826971 2.85567 0
M  V30 2741 H 266.559 -0.314124 1.51171 0
M  V30 2742 H 268.517 -3.29035 2.45451 0
M  V30 2743 H 267.178 -2.81879 1.38576 0
M  V30 2744 H 266.371 -3.4387 3.68469 0
M  V30 2745 H 265.973 -1.74652 3.30715 0
M  V30 2746 H 268.265 -4.20122 5.31511 0
M  V30 2747 H 269.208 -3.09833 6.36717 0
M  V30 2748 H 269.616 -3.22864 4.63054 0
M  V30 2749 N 269.014 -1.53014 -0.377408 0
M  V30 2750 C 270.244 -1.72265 -1.14054 0
M  V30 2751 C 270.652 -0.44601 -1.83868 0
M  V30 2752 O 269.995 0.590095 -1.73964 0
M  V30 2753 C 270.057 -2.82492 -2.22348 0
M  V30 2754 C 269.721 -4.23233 -1.72402 0
M  V30 2755 C 270.718 -5.05992 -1.19448 0
M  V30 2756 C 268.403 -4.696 -1.78273 0
M  V30 2757 C 270.397 -6.33203 -0.730268 0
M  V30 2758 C 268.084 -5.96792 -1.31464 0
M  V30 2759 C 269.082 -6.78424 -0.789297 0
M  V30 2760 O 268.77 -8.0323 -0.328077 0
M  V30 2761 H 268.502 -0.579873 -0.347453 0
M  V30 2762 H 271.056 -2.00502 -0.445882 0
M  V30 2763 H 269.286 -2.49702 -2.95272 0
M  V30 2764 H 270.975 -2.90034 -2.83963 0
M  V30 2765 H 271.741 -4.71349 -1.14259 0
M  V30 2766 H 267.62 -4.06142 -2.18106 0
M  V30 2767 H 271.164 -6.96868 -0.319542 0
M  V30 2768 H 267.061 -6.30937 -1.36342 0
M  V30 2769 H 267.829 -8.1727 -0.448493 0
M  V30 2770 N 270.492 0.636531 -1.44174 0
M  V30 2771 C 271.741 1.39213 -1.45954 0
M  V30 2772 C 272.054 1.95374 -0.0939119 0
M  V30 2773 O 273.26 2.71498 0.0107767 0
M  V30 2774 C 271.716 2.52025 -2.56927 0
M  V30 2775 C 271.324 2.024 -3.99673 0
M  V30 2776 C 273.068 3.29269 -2.67922 0
M  V30 2777 C 270.975 3.12521 -5.0208 0
M  V30 2778 H 269.905 0.523132 -0.542999 0
M  V30 2779 H 272.556 0.685349 -1.70221 0
M  V30 2780 H 270.938 3.25253 -2.25891 0
M  V30 2781 H 272.112 1.36073 -4.40251 0
M  V30 2782 H 270.427 1.37987 -3.92872 0
M  V30 2783 H 273.024 4.11352 -3.41605 0
M  V30 2784 H 273.367 3.78397 -1.73555 0
M  V30 2785 H 273.9 2.63129 -2.98342 0
M  V30 2786 H 270.639 2.68343 -5.98057 0
M  V30 2787 H 270.159 3.77507 -4.66099 0
M  V30 2788 H 271.838 3.77385 -5.25538 0
M  V30 2789 N 271.97 1.30982 0.876444 0
M  V30 2790 C 272.92 1.14688 1.97055 0
M  V30 2791 C 273.904 0.0596593 1.60789 0
M  V30 2792 O 275.096 0.283892 1.74708 0
M  V30 2793 C 272.225 0.849627 3.3262 0
M  V30 2794 C 271.311 1.97752 3.75173 0
M  V30 2795 N 271.702 3.22384 3.89746 0
M  V30 2796 C 270 1.8758 4.04635 0
M  V30 2797 C 270.701 3.96121 4.25985 0
M  V30 2798 N 269.677 3.24237 4.36315 0
M  V30 2799 H 273.479 2.09204 2.06424 0
M  V30 2800 H 270.993 1.22445 1.06682 0
M  V30 2801 H 272.99 0.713895 4.10742 0
M  V30 2802 H 271.65 -0.087376 3.24582 0
M  V30 2803 H 272.661 3.57575 3.74647 0
M  V30 2804 H 269.338 1.01303 4.05024 0
M  V30 2805 H 270.728 5.03491 4.44911 0
M  V30 2806 N 273.449 -1.08991 1.13837 0
M  V30 2807 C 274.382 -2.15049 0.763477 0
M  V30 2808 C 275.36 -1.60629 -0.252398 0
M  V30 2809 O 276.544 -1.87958 -0.142853 0
M  V30 2810 C 273.671 -3.38441 0.132545 0
M  V30 2811 C 272.717 -4.11596 1.11763 0
M  V30 2812 S 273.55 -4.6521 2.65216 0
M  V30 2813 C 274.706 -5.91896 2.03495 0
M  V30 2814 H 274.939 -2.46518 1.66182 0
M  V30 2815 H 272.472 -1.21008 0.958976 0
M  V30 2816 H 274.43 -4.09883 -0.225074 0
M  V30 2817 H 273.091 -3.05182 -0.743135 0
M  V30 2818 H 272.284 -5.00121 0.624076 0
M  V30 2819 H 271.886 -3.46038 1.41894 0
M  V30 2820 H 274.178 -6.63156 1.38675 0
M  V30 2821 H 275.121 -6.45938 2.9012 0
M  V30 2822 H 275.529 -5.44625 1.48471 0
M  V30 2823 N 274.927 -0.932562 -1.27047 0
M  V30 2824 C 276.204 -0.49377 -1.89265 0
M  V30 2825 C 276.584 1.02833 -1.8436 0
M  V30 2826 O 275.932 1.88461 -1.29209 0
M  V30 2827 C 276.142 -1.04536 -3.32976 0
M  V30 2828 C 277.49 -1.10879 -4.09867 0
M  V30 2829 O 278.514 -0.995327 -3.42011 0
M  V30 2830 O 277.373 -1.28417 -5.31198 0
M  V30 2831 H 274.467 -0.159596 -0.811454 0
M  V30 2832 H 277.013 -1.02457 -1.3528 0
M  V30 2833 H 275.785 -2.08913 -3.30864 0
M  V30 2834 H 275.408 -0.496494 -3.94488 0
M  V30 2835 N 276.405 1.4127 -0.698611 0
M  V30 2836 C 277.315 2.34573 -0.0357891 0
M  V30 2837 C 278.331 1.56393 0.762701 0
M  V30 2838 O 279.507 1.8886 0.699564 0
M  V30 2839 C 276.572 3.35159 0.887089 0
M  V30 2840 C 275.633 4.29225 0.0804634 0
M  V30 2841 C 274.866 5.25006 0.959387 0
M  V30 2842 O 275.089 5.26314 2.19886 0
M  V30 2843 O 274.023 6.00519 0.407439 0
M  V30 2844 H 277.849 2.92838 -0.804957 0
M  V30 2845 H 275.434 1.42175 -0.458966 0
M  V30 2846 H 277.316 3.9689 1.41621 0
M  V30 2847 H 275.991 2.79333 1.6357 0
M  V30 2848 H 274.898 3.70833 -0.493328 0
M  V30 2849 H 276.231 4.88157 -0.629547 0
M  V30 2850 N 277.883 0.443576 1.51229 0
M  V30 2851 C 279.16 -0.181038 1.9476 0
M  V30 2852 C 279.54 -1.59523 1.38259 0
M  V30 2853 O 278.888 -2.2122 0.572198 0
M  V30 2854 C 279.098 -0.152422 3.48667 0
M  V30 2855 C 280.446 -0.354923 4.23114 0
M  V30 2856 O 281.47 -0.230257 3.55455 0
M  V30 2857 O 280.329 -0.603674 5.43156 0
M  V30 2858 H 277.423 -0.1266 0.817252 0
M  V30 2859 H 279.969 0.502004 1.62105 0
M  V30 2860 H 278.741 0.836022 3.82265 0
M  V30 2861 H 278.364 -0.878107 3.87782 0
M  V30 2862 N 279.361 -1.56624 0.175154 0
M  V30 2863 C 280.607 -1.9729 -0.469506 0
M  V30 2864 C 280.94 -1.06128 -1.62636 0
M  V30 2865 O 280.215 -0.109183 -1.94193 0
M  V30 2866 C 280.498 -3.47375 -0.948804 0
M  V30 2867 C 280.351 -4.49317 0.208491 0
M  V30 2868 C 281.67 -4.00652 -1.82116 0
M  V30 2869 H 278.789 -0.717317 -0.16919 0
M  V30 2870 H 281.431 -1.88184 0.262062 0
M  V30 2871 H 279.581 -3.55267 -1.57219 0
M  V30 2872 H 281.253 -4.53482 0.845682 0
M  V30 2873 H 279.496 -4.25121 0.863395 0
M  V30 2874 H 280.167 -5.51741 -0.169059 0
M  V30 2875 H 282.643 -3.95416 -1.2956 0
M  V30 2876 H 281.519 -5.06075 -2.12554 0
M  V30 2877 H 281.78 -3.44699 -2.7683 0
M  V30 2878 N 280.839 0.0985539 -1.57292 0
M  V30 2879 C 282.087 0.801092 -1.85545 0
M  V30 2880 C 282.408 1.79438 -0.763353 0
M  V30 2881 O 281.678 1.94763 0.21073 0
M  V30 2882 H 280.258 0.29884 -0.684619 0
M  V30 2883 H 282.92 0.0810064 -1.94732 0
M  V30 2884 H 282.016 1.3338 -2.82163 0
M  V30 2885 N 282.317 1.53212 0.369288 0
M  V30 2886 C 283.594 1.59815 1.12776 0
M  V30 2887 C 283.974 0.403402 2.0721 0
M  V30 2888 O 283.322 -0.606667 2.20299 0
M  V30 2889 C 283.532 2.94664 1.87013 0
M  V30 2890 C 284.88 3.49109 2.41677 0
M  V30 2891 O 285.904 2.96669 1.97144 0
M  V30 2892 O 284.763 4.40775 3.23079 0
M  V30 2893 H 281.857 0.645376 0.517125 0
M  V30 2894 H 284.403 1.65553 0.37285 0
M  V30 2895 H 283.175 3.73061 1.18071 0
M  V30 2896 H 282.798 2.92401 2.69421 0
M  V30 2897 N 283.795 -0.628877 1.44509 0
M  V30 2898 C 284.758 -1.72263 1.51188 0
M  V30 2899 C 285.758 -1.55907 0.39367 0
M  V30 2900 O 286.948 -1.61361 0.656377 0
M  V30 2901 C 284.08 -3.11365 1.38798 0
M  V30 2902 H 285.273 -1.67714 2.4862 0
M  V30 2903 H 282.826 -0.842737 1.31634 0
M  V30 2904 H 283.561 -3.21507 0.424693 0
M  V30 2905 H 283.346 -3.24644 2.19884 0
M  V30 2906 H 284.836 -3.91075 1.46458 0
M  V30 2907 N 285.273 -1.31445 -0.869486 0
M  V30 2908 C 286.522 -1.20517 -1.61736 0
M  V30 2909 C 286.835 0.235341 -1.94179 0
M  V30 2910 O 288.041 0.466312 -2.67465 0
M  V30 2911 C 286.497 -2.10982 -2.91573 0
M  V30 2912 C 286.105 -3.60032 -2.66611 0
M  V30 2913 C 287.849 -2.08856 -3.69567 0
M  V30 2914 C 285.756 -4.42503 -3.92358 0
M  V30 2915 H 284.686 -0.447493 -0.606849 0
M  V30 2916 H 287.337 -1.56303 -0.96133 0
M  V30 2917 H 285.719 -1.68095 -3.58553 0
M  V30 2918 H 286.893 -4.11167 -2.08035 0
M  V30 2919 H 285.208 -3.64139 -2.0197 0
M  V30 2920 H 287.805 -2.67716 -4.62852 0
M  V30 2921 H 288.148 -1.07582 -4.02159 0
M  V30 2922 H 288.681 -2.49945 -3.09471 0
M  V30 2923 H 285.42 -5.44533 -3.64916 0
M  V30 2924 H 284.94 -3.96125 -4.50383 0
M  V30 2925 H 286.619 -4.54741 -4.60238 0
M  V30 2926 N 286.751 1.08385 -1.14413 0
M  V30 2927 C 287.698 2.15311 -0.831265 0
M  V30 2928 C 288.668 1.64751 0.211292 0
M  V30 2929 O 289.853 1.90627 0.0811674 0
M  V30 2930 C 286.993 3.43658 -0.315143 0
M  V30 2931 C 286.106 4.08064 -1.41802 0
M  V30 2932 C 285.241 5.24207 -0.859126 0
M  V30 2933 C 284.28 5.80554 -1.93967 0
M  V30 2934 N 283.417 6.88042 -1.39793 0
M  V30 2935 H 288.257 2.41415 -1.74708 0
M  V30 2936 H 285.794 1.18474 -0.871909 0
M  V30 2937 H 287.752 4.172 0.00230884 0
M  V30 2938 H 286.382 3.17839 0.56378 0
M  V30 2939 H 285.434 3.3228 -1.85187 0
M  V30 2940 H 286.746 4.45962 -2.23427 0
M  V30 2941 H 285.9 6.04689 -0.49359 0
M  V30 2942 H 284.639 4.87699 -0.011932 0
M  V30 2943 H 283.644 4.98725 -2.31415 0
M  V30 2944 H 284.869 6.19121 -2.79046 0
M  V30 2945 H 282.815 6.53493 -0.572919 0
M  V30 2946 H 282.732 7.24767 -2.15054 0
M  V30 2947 H 284 7.72255 -1.0603 0
M  V30 2948 N 288.23 0.939286 1.26551 0
M  V30 2949 C 289.641 0.628782 1.75793 0
M  V30 2950 C 289.992 -0.856046 1.7654 0
M  V30 2951 O 289.117 -1.66994 1.3763 0
M  V30 2952 C 289.712 1.13465 3.19235 0
M  V30 2953 C 288.271 0.874601 3.66098 0
M  V30 2954 C 287.418 1.28667 2.45642 0
M  V30 2955 H 290.369 1.1178 1.12654 0
M  V30 2956 H 290.39 0.487609 3.77363 0
M  V30 2957 H 289.902 2.21535 3.1866 0
M  V30 2958 H 288.003 -0.191793 3.72106 0
M  V30 2959 H 288.116 1.50028 4.55004 0
M  V30 2960 H 286.48 0.705109 2.44745 0
M  V30 2961 H 287.263 2.37625 2.47769 0
M  V30 2962 N 289.708 -1.40897 0.706093 0
M  V30 2963 C 290.938 -2.05075 0.250523 0
M  V30 2964 C 291.346 -1.53275 -1.10921 0
M  V30 2965 O 290.689 -0.680281 -1.7064 0
M  V30 2966 C 290.751 -3.59219 0.142178 0
M  V30 2967 C 290.415 -4.33864 1.43566 0
M  V30 2968 C 291.412 -4.62448 2.37566 0
M  V30 2969 C 289.097 -4.72946 1.69195 0
M  V30 2970 C 291.091 -5.29088 3.5545 0
M  V30 2971 C 288.778 -5.3932 2.87362 0
M  V30 2972 C 289.776 -5.6732 3.80312 0
M  V30 2973 O 289.464 -6.32325 4.96408 0
M  V30 2974 H 289.196 -0.666645 0.112074 0
M  V30 2975 H 291.75 -1.81467 0.962239 0
M  V30 2976 H 289.98 -3.81609 -0.6254 0
M  V30 2977 H 291.669 -4.0495 -0.277584 0
M  V30 2978 H 292.435 -4.32727 2.19027 0
M  V30 2979 H 288.314 -4.50527 0.977042 0
M  V30 2980 H 291.858 -5.50859 4.28018 0
M  V30 2981 H 287.755 -5.68461 3.05814 0
M  V30 2982 H 288.523 -6.50821 4.9636 0
M  V30 2983 N 291.186 -0.45159 -1.50991 0
M  V30 2984 C 292.435 0.111653 -2.01391 0
M  V30 2985 C 292.748 1.42529 -1.33959 0
M  V30 2986 O 293.954 2.07232 -1.75405 0
M  V30 2987 C 292.41 0.249514 -3.59034 0
M  V30 2988 C 292.018 -1.05453 -4.35412 0
M  V30 2989 C 293.762 0.765762 -4.17536 0
M  V30 2990 C 291.669 -0.881529 -5.84793 0
M  V30 2991 H 290.599 0.0455022 -0.752626 0
M  V30 2992 H 293.25 -0.583524 -1.73975 0
M  V30 2993 H 291.632 1.00803 -3.82955 0
M  V30 2994 H 292.806 -1.82248 -4.23229 0
M  V30 2995 H 291.121 -1.50039 -3.88429 0
M  V30 2996 H 293.718 0.911913 -5.26866 0
M  V30 2997 H 294.061 1.75201 -3.77638 0
M  V30 2998 H 294.594 0.0651744 -3.97747 0
M  V30 2999 H 291.333 -1.84057 -6.29129 0
M  V30 3000 H 290.853 -0.153625 -5.99603 0
M  V30 3001 H 292.532 -0.540363 -6.4474 0
M  V30 3002 N 292.664 1.56529 -0.183458 0
M  V30 3003 C 293.91 1.97537 0.459036 0
M  V30 3004 C 294.243 1.06989 1.62071 0
M  V30 3005 O 293.518 0.11948 1.94133 0
M  V30 3006 C 293.801 3.47874 0.930368 0
M  V30 3007 C 293.654 4.492 -0.232317 0
M  V30 3008 C 294.973 4.01612 1.79989 0
M  V30 3009 H 292.092 0.718204 0.165383 0
M  V30 3010 H 294.734 1.88042 -0.272038 0
M  V30 3011 H 292.884 3.56095 1.55333 0
M  V30 3012 H 294.556 4.53027 -0.86972 0
M  V30 3013 H 292.799 4.24657 -0.885928 0
M  V30 3014 H 293.47 5.51823 0.139796 0
M  V30 3015 H 295.946 3.96097 1.27461 0
M  V30 3016 H 294.822 5.07195 2.09867 0
M  V30 3017 H 295.083 3.46163 2.74998 0
M  V30 3018 N 294.142 -0.090211 1.57342 0
M  V30 3019 C 295.092 -1.11557 1.98844 0
M  V30 3020 C 296.076 -1.35503 0.867624 0
M  V30 3021 O 297.268 -1.36113 1.13148 0
M  V30 3022 C 294.397 -2.43446 2.42051 0
M  V30 3023 C 293.483 -2.22853 3.60828 0
M  V30 3024 N 293.874 -1.72141 4.75606 0
M  V30 3025 C 292.172 -2.53401 3.67021 0
M  V30 3026 C 292.873 -1.65932 5.57531 0
M  V30 3027 N 291.849 -2.11323 5.00843 0
M  V30 3028 H 295.651 -0.716499 2.85032 0
M  V30 3029 H 293.165 -0.297567 1.59651 0
M  V30 3030 H 295.162 -3.17644 2.70014 0
M  V30 3031 H 293.822 -2.84087 1.57241 0
M  V30 3032 H 294.833 -1.41268 4.98261 0
M  V30 3033 H 291.51 -2.97532 2.92884 0
M  V30 3034 H 292.9 -1.27733 6.59647 0
M  V30 3035 N 295.62 -1.53406 -0.361157 0
M  V30 3036 C 297.036 -1.43277 -0.703124 0
M  V30 3037 C 297.236 -0.575384 -1.9311 0
M  V30 3038 O 296.292 -0.0595362 -2.5243 0
M  V30 3039 C 297.605 -2.8653 -0.9122 0
M  V30 3040 C 299.153 -2.96191 -1.01193 0
M  V30 3041 C 299.628 -4.40514 -1.25345 0
M  V30 3042 N 301.119 -4.43962 -1.32105 0
M  V30 3043 C 301.854 -5.52746 -1.5251 0
M  V30 3044 N 301.35 -6.71567 -1.70203 0
M  V30 3045 N 303.143 -5.40331 -1.54916 0
M  V30 3046 H 295.294 -2.07654 0.446475 0
M  V30 3047 H 297.557 -0.937944 0.137715 0
M  V30 3048 H 297.263 -3.51605 -0.0816414 0
M  V30 3049 H 297.137 -3.30441 -1.81903 0
M  V30 3050 H 299.524 -2.31266 -1.83303 0
M  V30 3051 H 299.605 -2.55667 -0.0823929 0
M  V30 3052 H 299.249 -5.06014 -0.437346 0
M  V30 3053 H 299.179 -4.78614 -2.19627 0
M  V30 3054 H 301.67 -3.58332 -1.20028 0
M  V30 3055 H 301.983 -7.50241 -1.85359 0
M  V30 3056 H 300.328 -6.74545 -1.67373 0
M  V30 3057 H 303.519 -4.46465 -1.40663 0
M  V30 3058 H 303.692 -6.25173 -1.70477 0
M  V30 3059 N 297.098 0.621204 -1.44841 0
M  V30 3060 C 298.338 1.39201 -1.49674 0
M  V30 3061 C 298.702 1.91561 -0.129764 0
M  V30 3062 O 299.903 2.68748 -0.0527814 0
M  V30 3063 C 298.174 2.519 -2.53537 0
M  V30 3064 S 299.733 3.39916 -2.77494 0
M  V30 3065 H 296.551 0.474758 -0.529269 0
M  V30 3066 H 299.153 0.718171 -1.81831 0
M  V30 3067 H 297.857 2.11761 -3.51547 0
M  V30 3068 H 297.388 3.241 -2.22986 0
M  V30 3069 H 299.403 4.49646 -2.0984 0
M  V30 3070 N 298.576 1.31904 0.862503 0
M  V30 3071 C 299.992 1.10724 1.14945 0
M  V30 3072 C 300.192 -0.117421 2.01158 0
M  V30 3073 O 299.248 -0.804595 2.39338 0
M  V30 3074 C 300.561 2.38267 1.83437 0
M  V30 3075 C 302.109 2.43949 1.96106 0
M  V30 3076 C 302.584 3.71394 2.68013 0
M  V30 3077 N 304.075 3.72331 2.75543 0
M  V30 3078 C 304.81 4.67641 3.31812 0
M  V30 3079 N 304.306 5.73313 3.88953 0
M  V30 3080 N 306.099 4.5515 3.29841 0
M  V30 3081 H 298.25 2.10436 0.288191 0
M  V30 3082 H 300.513 0.928705 0.190292 0
M  V30 3083 H 300.219 3.27759 1.27542 0
M  V30 3084 H 300.093 2.48633 2.83657 0
M  V30 3085 H 302.48 1.54922 2.51164 0
M  V30 3086 H 302.561 2.37543 0.949059 0
M  V30 3087 H 302.205 4.60791 2.13621 0
M  V30 3088 H 302.135 3.75069 3.69636 0
M  V30 3089 H 304.626 2.95947 2.34997 0
M  V30 3090 H 304.939 6.42107 4.30022 0
M  V30 3091 H 303.284 5.77077 3.87308 0
M  V30 3092 H 306.475 3.71766 2.84443 0
M  V30 3093 H 306.648 5.29604 3.73394 0
M  V30 3094 N 300.054 -1.07777 1.14986 0
M  V30 3095 C 300.986 -2.14769 0.800436 0
M  V30 3096 C 301.999 -1.61739 -0.185595 0
M  V30 3097 O 303.188 -1.78462 0.0370358 0
M  V30 3098 C 300.288 -3.38481 0.168533 0
M  V30 3099 C 299.461 -4.20876 1.1909 0
M  V30 3100 C 298.52 -5.22976 0.581575 0
M  V30 3101 O 297.546 -5.55388 1.24633 0
M  V30 3102 N 298.748 -5.76976 -0.638706 0
M  V30 3103 H 301.513 -2.45348 1.72118 0
M  V30 3104 H 299.074 -1.23645 1.04515 0
M  V30 3105 H 301.066 -4.03916 -0.251764 0
M  V30 3106 H 299.636 -3.05651 -0.655467 0
M  V30 3107 H 298.856 -3.51322 1.78791 0
M  V30 3108 H 300.144 -4.7274 1.88133 0
M  V30 3109 H 299.542 -5.52886 -1.19723 0
M  V30 3110 H 298.099 -6.44061 -1.00142 0
M  V30 3111 N 301.532 -0.945985 -1.26051 0
M  V30 3112 C 302.757 -0.612525 -1.98149 0
M  V30 3113 C 303.182 0.806623 -1.69927 0
M  V30 3114 O 302.54 1.54411 -0.950108 0
M  V30 3115 C 302.588 -0.866981 -3.50023 0
M  V30 3116 O 301.692 0.0585333 -4.12358 0
M  V30 3117 H 301.033 -0.23379 -0.621481 0
M  V30 3118 H 303.563 -1.27023 -1.60395 0
M  V30 3119 H 303.573 -0.789792 -4.00283 0
M  V30 3120 H 302.248 -1.90135 -3.69894 0
M  V30 3121 H 300.825 -0.0701241 -3.72834 0
M  V30 3122 N 303.011 1.40521 -0.713556 0
M  V30 3123 C 304.26 2.00155 -0.249192 0
M  V30 3124 C 304.573 1.57224 1.16362 0
M  V30 3125 O 305.779 2.09542 1.72639 0
M  V30 3126 C 304.235 3.5773 -0.3946 0
M  V30 3127 C 303.843 4.09635 -1.81392 0
M  V30 3128 C 305.587 4.24499 0.00907364 0
M  V30 3129 C 303.494 5.59707 -1.91003 0
M  V30 3130 H 302.424 0.74868 -0.0894114 0
M  V30 3131 H 305.075 1.60784 -0.884352 0
M  V30 3132 H 303.457 3.94792 0.30911 0
M  V30 3133 H 304.631 3.83955 -2.54785 0
M  V30 3134 H 302.946 3.55456 -2.16888 0
M  V30 3135 H 305.543 5.34683 -0.0420404 0
M  V30 3136 H 305.886 4.02824 1.05065 0
M  V30 3137 H 306.419 3.92536 -0.645007 0
M  V30 3138 H 303.158 5.86234 -2.93275 0
M  V30 3139 H 302.678 5.87258 -1.22019 0
M  V30 3140 H 304.357 6.24776 -1.6812 0
M  V30 3141 N 304.489 0.459591 1.5075 0
M  V30 3142 C 305.437 -0.354678 2.2988 0
M  V30 3143 C 306.431 -1.00086 1.36672 0
M  V30 3144 O 307.637 -0.933277 1.53915 0
M  V30 3145 H 304.012 -0.13321 0.740107 0
M  V30 3146 H 305.983 0.333269 2.96533 0
M  V30 3147 C 304.732 -1.43073 3.169 0
M  V30 3148 H 304.055 -0.942882 3.88523 0
M  V30 3149 H 305.495 -1.97328 3.75284 0
M  V30 3150 C 303.954 -2.42633 2.33732 0
M  V30 3151 O 304.484 -3.47658 2.01238 0
M  V30 3152 N 302.69 -2.14066 1.9653 0
M  V30 3153 H 302.237 -1.28685 2.23155 0
M  V30 3154 H 302.195 -2.80917 1.41185 0
M  V30 3155 N 305.967 -1.56429 0.191757 0
M  V30 3156 C 307.214 -1.97485 -0.447891 0
M  V30 3157 C 307.542 -1.07852 -1.61859 0
M  V30 3158 O 306.797 -0.116903 -1.95351 0
M  V30 3159 C 307.096 -3.44449 -0.953384 0
M  V30 3160 C 306.762 -4.50781 0.103586 0
M  V30 3161 C 305.424 -4.79584 0.394023 0
M  V30 3162 C 307.776 -5.1471 0.819946 0
M  V30 3163 C 305.104 -5.69607 1.40585 0
M  V30 3164 C 307.456 -6.05827 1.8209 0
M  V30 3165 C 306.12 -6.32987 2.11857 0
M  V30 3166 H 305.39 -0.722648 -0.163895 0
M  V30 3167 H 308.037 -1.89322 0.28802 0
M  V30 3168 H 306.342 -3.49666 -1.76751 0
M  V30 3169 H 308.039 -3.73569 -1.45765 0
M  V30 3170 H 304.629 -4.28394 -0.132951 0
M  V30 3171 H 308.813 -4.92552 0.608789 0
M  V30 3172 H 304.069 -5.88926 1.64243 0
M  V30 3173 H 308.243 -6.54424 2.38123 0
M  V30 3174 H 305.87 -7.02544 2.90407 0
M  V30 3175 N 307.445 0.0818655 -1.57387 0
M  V30 3176 C 308.67 0.799946 -1.91352 0
M  V30 3177 C 309.095 1.70833 -0.787258 0
M  V30 3178 O 308.453 1.79419 0.26048 0
M  V30 3179 C 308.501 1.57812 -3.24234 0
M  V30 3180 O 307.605 2.68806 -3.12757 0
M  V30 3181 H 306.946 0.21891 -0.626877 0
M  V30 3182 H 309.476 0.0531256 -2.04531 0
M  V30 3183 H 309.486 1.95952 -3.57864 0
M  V30 3184 H 308.161 0.911548 -4.05788 0
M  V30 3185 H 306.738 2.33597 -2.90666 0
M  V30 3186 N 308.923 1.53595 0.353017 0
M  V30 3187 C 309.853 1.83902 1.43883 0
M  V30 3188 C 310.834 0.693421 1.55324 0
M  V30 3189 O 312.019 0.944452 1.69687 0
M  V30 3190 C 309.149 2.04016 2.8106 0
M  V30 3191 C 308.103 3.19814 2.84434 0
M  V30 3192 C 307.429 3.25244 4.24406 0
M  V30 3193 C 308.729 4.58133 2.50822 0
M  V30 3194 H 310.423 2.74835 1.1877 0
M  V30 3195 H 307.969 1.32242 0.569917 0
M  V30 3196 H 309.922 2.238 3.57059 0
M  V30 3197 H 308.646 1.09804 3.07588 0
M  V30 3198 H 307.305 2.9987 2.10887 0
M  V30 3199 H 306.953 2.28646 4.48029 0
M  V30 3200 H 306.653 4.03054 4.27576 0
M  V30 3201 H 308.177 3.47228 5.0226 0
M  V30 3202 H 309.591 4.77995 3.16534 0
M  V30 3203 H 307.988 5.38276 2.6529 0
M  V30 3204 H 309.058 4.62387 1.46034 0
M  V30 3205 N 310.401 -0.613514 1.45168 0
M  V30 3206 C 311.333 -1.73825 1.4939 0
M  V30 3207 C 312.346 -1.58175 0.385304 0
M  V30 3208 O 313.535 -1.66165 0.652036 0
M  V30 3209 C 310.635 -3.11758 1.32891 0
M  V30 3210 C 309.808 -3.53704 2.57317 0
M  V30 3211 C 308.867 -4.70579 2.35462 0
M  V30 3212 O 307.893 -4.77996 3.09044 0
M  V30 3213 N 309.095 -5.63454 1.39644 0
M  V30 3214 H 311.86 -1.70669 2.46358 0
M  V30 3215 H 309.421 -0.79862 1.40832 0
M  V30 3216 H 311.413 -3.87692 1.1609 0
M  V30 3217 H 309.983 -3.09456 0.442218 0
M  V30 3218 H 309.203 -2.67794 2.89275 0
M  V30 3219 H 310.491 -3.78486 3.40038 0
M  V30 3220 H 309.889 -5.6017 0.789062 0
M  V30 3221 H 308.446 -6.38944 1.28816 0
M  V30 3222 N 311.879 -1.3236 -0.855495 0
M  V30 3223 C 313.119 -1.24187 -1.62348 0
M  V30 3224 C 313.483 0.193597 -1.91021 0
M  V30 3225 O 314.684 0.39904 -2.65822 0
M  V30 3226 C 312.955 -2.07661 -2.90881 0
M  V30 3227 S 314.514 -2.16505 -3.81669 0
M  V30 3228 H 311.332 -0.442076 -0.556857 0
M  V30 3229 H 313.934 -1.67198 -1.01317 0
M  V30 3230 H 312.638 -3.11018 -2.67761 0
M  V30 3231 H 312.169 -1.65425 -3.56929 0
M  V30 3232 H 314.184 -1.31394 -4.78487 0
M  V30 3233 N 313.357 1.07166 -1.15556 0
M  V30 3234 C 314.32 2.12589 -0.856644 0
M  V30 3235 C 315.32 1.6015 0.14444 0
M  V30 3236 O 316.51 1.7399 -0.0854163 0
M  V30 3237 C 313.642 3.39753 -0.279405 0
M  V30 3238 H 314.835 2.40539 -1.79112 0
M  V30 3239 H 312.388 1.23086 -0.963298 0
M  V30 3240 H 313.123 3.17447 0.663174 0
M  V30 3241 H 312.908 3.79117 -1.00063 0
M  V30 3242 H 314.398 4.17507 -0.0879113 0
M  V30 3243 N 314.835 0.952656 1.25548 0
M  V30 3244 C 315.765 0.489287 2.28316 0
M  V30 3245 C 316.746 -0.463359 1.63667 0
M  V30 3246 O 317.931 -0.36274 1.90782 0
M  V30 3247 C 315.061 -0.235603 3.465 0
M  V30 3248 C 314.015 0.631593 4.23314 0
M  V30 3249 C 313.341 -0.223923 5.34231 0
M  V30 3250 C 314.641 1.90871 4.86174 0
M  V30 3251 H 316.335 1.34822 2.67326 0
M  V30 3252 H 313.881 0.649728 1.28509 0
M  V30 3253 H 315.834 -0.570882 4.17515 0
M  V30 3254 H 314.558 -1.12877 3.06474 0
M  V30 3255 H 313.217 0.949929 3.54079 0
M  V30 3256 H 312.865 -1.11678 4.90446 0
M  V30 3257 H 312.565 0.35299 5.86539 0
M  V30 3258 H 314.089 -0.554214 6.0808 0
M  V30 3259 H 315.503 1.63997 5.49343 0
M  V30 3260 H 313.9 2.43112 5.4865 0
M  V30 3261 H 314.97 2.61304 4.08471 0
M  V30 3262 N 316.313 -1.40141 0.720998 0
M  V30 3263 C 317.243 -2.33339 0.0867621 0
M  V30 3264 C 318.224 -1.53178 -0.739622 0
M  V30 3265 O 319.409 -1.81625 -0.687449 0
M  V30 3266 C 316.539 -3.37194 -0.831728 0
M  V30 3267 C 315.493 -4.27857 -0.110558 0
M  V30 3268 C 314.819 -5.22294 -1.14513 0
M  V30 3269 C 316.119 -5.11872 1.0385 0
M  V30 3270 H 317.813 -2.86626 0.865219 0
M  V30 3271 H 315.359 -1.37814 0.417516 0
M  V30 3272 H 317.312 -4.01335 -1.28485 0
M  V30 3273 H 316.036 -2.82314 -1.64214 0
M  V30 3274 H 314.695 -3.65176 0.322797 0
M  V30 3275 H 314.343 -4.63717 -1.94874 0
M  V30 3276 H 314.043 -5.83797 -0.667446 0
M  V30 3277 H 315.567 -5.89312 -1.59824 0
M  V30 3278 H 316.981 -5.69436 0.664482 0
M  V30 3279 H 315.378 -5.82445 1.4449 0
M  V30 3280 H 316.448 -4.4753 1.86668 0
M  V30 3281 N 317.792 -0.46758 -1.50504 0
M  V30 3282 C 318.722 0.318381 -2.31319 0
M  V30 3283 C 319.703 0.993564 -1.38066 0
M  V30 3284 O 320.888 0.991411 -1.66987 0
M  V30 3285 C 318.018 1.40275 -3.17711 0
M  V30 3286 C 316.972 0.849373 -4.19487 0
M  V30 3287 C 316.298 2.03177 -4.94594 0
M  V30 3288 C 317.598 -0.136942 -5.2212 0
M  V30 3289 H 319.292 -0.356106 -2.97275 0
M  V30 3290 H 316.838 -0.172703 -1.42961 0
M  V30 3291 H 318.791 1.96004 -3.73042 0
M  V30 3292 H 317.515 2.10596 -2.49634 0
M  V30 3293 H 316.174 0.314076 -3.65252 0
M  V30 3294 H 315.822 2.72187 -4.22993 0
M  V30 3295 H 315.522 1.66774 -5.63436 0
M  V30 3296 H 317.046 2.59403 -5.52759 0
M  V30 3297 H 318.46 0.331056 -5.72343 0
M  V30 3298 H 316.857 -0.41507 -5.98663 0
M  V30 3299 H 317.927 -1.06398 -4.73083 0
M  V30 3300 N 319.27 1.56325 -0.20005 0
M  V30 3301 C 320.518 1.97329 0.436547 0
M  V30 3302 C 320.839 1.08826 1.61808 0
M  V30 3303 O 320.109 0.160604 1.95241 0
M  V30 3304 H 318.689 0.728714 0.164272 0
M  V30 3305 H 321.351 1.92761 -0.287937 0
M  V30 3306 H 320.447 3.02264 0.777353 0
M  V30 3307 N 320.748 -0.0735177 1.57428 0
M  V30 3308 C 321.711 -1.07192 2.02589 0
M  V30 3309 C 322.711 -1.31695 0.922661 0
M  V30 3310 O 323.901 -1.27445 1.18758 0
M  V30 3311 C 321.033 -2.41599 2.40506 0
M  V30 3312 H 322.226 -0.682727 2.92025 0
M  V30 3313 H 319.779 -0.319193 1.53006 0
M  V30 3314 H 320.514 -2.85354 1.5409 0
M  V30 3315 H 320.299 -2.25156 3.21009 0
M  V30 3316 H 321.789 -3.13367 2.76027 0
M  V30 3317 N 322.226 -1.5378 -0.344866 0
M  V30 3318 C 323.456 -1.74646 -1.10374 0
M  V30 3319 C 323.864 -0.48491 -1.8288 0
M  V30 3320 O 323.207 0.553062 -1.75177 0
M  V30 3321 C 323.269 -2.87145 -2.16306 0
M  V30 3322 C 322.933 -4.26795 -1.63386 0
M  V30 3323 C 323.93 -5.08412 -1.08688 0
M  V30 3324 C 321.615 -4.73276 -1.68272 0
M  V30 3325 C 323.609 -6.34609 -0.595792 0
M  V30 3326 C 321.296 -5.99446 -1.18776 0
M  V30 3327 C 322.294 -6.79946 -0.645215 0
M  V30 3328 O 321.982 -8.03745 -0.157626 0
M  V30 3329 H 321.714 -0.587112 -0.335075 0
M  V30 3330 H 324.268 -2.01403 -0.403252 0
M  V30 3331 H 322.498 -2.55909 -2.89909 0
M  V30 3332 H 324.187 -2.95992 -2.77747 0
M  V30 3333 H 324.953 -4.73666 -1.04236 0
M  V30 3334 H 320.832 -4.10677 -2.09442 0
M  V30 3335 H 324.376 -6.97389 -0.171654 0
M  V30 3336 H 320.273 -6.33687 -1.22928 0
M  V30 3337 H 321.041 -8.18038 -0.275037 0
M  V30 3338 N 323.704 0.605807 -1.45491 0
M  V30 3339 C 324.929 1.39625 -1.53361 0
M  V30 3340 C 325.354 1.87351 -0.167645 0
M  V30 3341 O 324.712 1.60243 0.848051 0
M  V30 3342 C 324.76 2.57559 -2.5238 0
M  V30 3343 O 323.864 3.58248 -2.04285 0
M  V30 3344 H 323.205 0.416771 -0.516912 0
M  V30 3345 H 325.735 0.737103 -1.90861 0
M  V30 3346 H 325.745 3.0478 -2.71244 0
M  V30 3347 H 324.42 2.22171 -3.51586 0
M  V30 3348 H 322.997 3.17664 -1.95305 0
M  V30 3349 N 325.182 1.32811 0.848464 0
M  V30 3350 C 326.407 1.26882 1.6406 0
M  V30 3351 C 326.832 -0.15913 1.87426 0
M  V30 3352 O 326.19 -1.11258 1.43148 0
M  V30 3353 C 326.238 2.03997 2.97351 0
M  V30 3354 O 325.342 1.39201 3.88197 0
M  V30 3355 H 324.683 0.436982 0.499943 0
M  V30 3356 H 327.213 1.75224 1.0563 0
M  V30 3357 H 327.223 2.14403 3.47124 0
M  V30 3358 H 325.898 3.0783 2.79666 0
M  V30 3359 H 324.475 1.37381 3.46671 0
M  V30 3360 N 326.66 -1.06551 1.16123 0
M  V30 3361 C 327.937 -1.76097 0.85142 0
M  V30 3362 C 328.317 -2.00802 -0.6513 0
M  V30 3363 O 327.665 -1.63302 -1.59827 0
M  V30 3364 C 327.875 -3.06384 1.67122 0
M  V30 3365 C 329.223 -3.80585 1.88255 0
M  V30 3366 O 330.247 -3.16218 1.63966 0
M  V30 3367 O 329.106 -4.96212 2.2899 0
M  V30 3368 H 326.2 -0.765102 0.313923 0
M  V30 3369 H 328.746 -1.12844 1.26745 0
M  V30 3370 H 327.518 -2.84071 2.69108 0
M  V30 3371 H 327.141 -3.77371 1.25206 0
M  V30 3372 N 328.138 -0.959301 -1.25041 0
M  V30 3373 C 329.071 -0.427418 -2.24161 0
M  V30 3374 C 330.049 0.493837 -1.54919 0
M  V30 3375 O 331.233 0.427144 -1.83597 0
M  V30 3376 C 328.36 0.383893 -3.36517 0
M  V30 3377 C 327.406 -0.478431 -4.23808 0
M  V30 3378 S 328.239 -1.91353 -5.00144 0
M  V30 3379 C 329.395 -1.11077 -6.15965 0
M  V30 3380 H 329.628 -1.26743 -2.6893 0
M  V30 3381 H 327.161 -0.763714 -1.34189 0
M  V30 3382 H 329.119 0.846039 -4.01687 0
M  V30 3383 H 327.78 1.19878 -2.90324 0
M  V30 3384 H 326.973 0.14406 -5.03794 0
M  V30 3385 H 326.575 -0.87597 -3.63597 0
M  V30 3386 H 328.867 -0.361699 -6.76534 0
M  V30 3387 H 329.81 -1.88472 -6.82557 0
M  V30 3388 H 330.218 -0.638843 -5.60873 0
M  V30 3389 N 329.616 1.39756 -0.72842 0
M  V30 3390 C 330.566 2.2792 -0.0603424 0
M  V30 3391 C 331.55 1.43922 0.719399 0
M  V30 3392 O 332.742 1.66895 0.589489 0
M  V30 3393 C 329.871 3.32582 0.851104 0
M  V30 3394 C 328.957 4.24049 0.0658641 0
M  V30 3395 N 329.348 4.96653 -0.957578 0
M  V30 3396 C 327.646 4.45013 0.296509 0
M  V30 3397 C 328.347 5.63836 -1.43052 0
M  V30 3398 N 327.323 5.38397 -0.750315 0
M  V30 3399 H 331.125 2.81504 -0.84455 0
M  V30 3400 H 328.639 1.5236 -0.562155 0
M  V30 3401 H 330.636 3.94603 1.34514 0
M  V30 3402 H 329.296 2.80558 1.63454 0
M  V30 3403 H 330.307 5.00297 -1.33877 0
M  V30 3404 H 326.984 4.03943 1.05527 0
M  V30 3405 H 328.374 6.31974 -2.28163 0
M  V30 3406 N 331.094 0.475555 1.50254 0
M  V30 3407 C 332.343 -0.0795996 2.01543 0
M  V30 3408 C 332.656 -1.4038 1.36209 0
M  V30 3409 O 333.862 -2.04415 1.7868 0
M  V30 3410 C 332.318 -0.192363 3.59386 0
M  V30 3411 C 331.926 1.12367 4.33679 0
M  V30 3412 C 333.67 -0.699238 4.18701 0
M  V30 3413 C 331.577 0.974453 5.83317 0
M  V30 3414 H 330.507 -0.0335228 0.753254 0
M  V30 3415 H 333.158 0.611128 1.73025 0
M  V30 3416 H 331.54 -0.946974 3.84511 0
M  V30 3417 H 332.714 1.88958 4.20276 0
M  V30 3418 H 331.029 1.562 3.85993 0
M  V30 3419 H 333.626 -0.827978 5.28251 0
M  V30 3420 H 333.969 -1.69171 3.80377 0
M  V30 3421 H 334.502 -0.00188807 3.978 0
M  V30 3422 H 331.241 1.94042 6.26121 0
M  V30 3423 H 330.761 0.248998 5.99283 0
M  V30 3424 H 332.44 0.642867 6.43798 0
M  V30 3425 N 332.573 -1.56217 0.208337 0
M  V30 3426 C 333.798 -2.02782 -0.435222 0
M  V30 3427 C 334.223 -1.08738 -1.53485 0
M  V30 3428 O 333.581 -0.0731855 -1.81152 0
M  V30 3429 C 333.629 -3.47687 -0.956335 0
M  V30 3430 O 332.733 -3.56773 -2.06849 0
M  V30 3431 H 332.074 -0.656403 -0.100158 0
M  V30 3432 H 334.604 -2.02033 0.3231 0
M  V30 3433 H 334.614 -3.87745 -1.26955 0
M  V30 3434 H 333.289 -4.15624 -0.15143 0
M  V30 3435 H 331.866 -3.28597 -1.76292 0
M  V30 3436 N 334.051 0.0651679 -1.57465 0
M  V30 3437 C 335.279 0.775808 -1.91804 0
M  V30 3438 C 335.694 1.70782 -0.804916 0
M  V30 3439 O 335.051 1.81153 0.221311 0
M  V30 3440 C 335.102 1.56381 -3.25925 0
M  V30 3441 O 334.823 0.669248 -4.32958 0
M  V30 3442 C 336.324 2.37485 -3.7432 0
M  V30 3443 H 333.544 0.2202 -0.63384 0
M  V30 3444 H 336.088 0.0334587 -2.04473 0
M  V30 3445 H 334.243 2.25837 -3.14764 0
M  V30 3446 H 334.657 1.21801 -5.10162 0
M  V30 3447 H 336.131 2.88223 -4.70778 0
M  V30 3448 H 336.608 3.17307 -3.03666 0
M  V30 3449 H 337.214 1.73173 -3.88447 0
M  V30 3450 N 335.529 1.53961 0.336706 0
M  V30 3451 C 336.461 1.78751 1.4346 0
M  V30 3452 C 337.474 0.669019 1.48418 0
M  V30 3453 O 338.663 0.945884 1.51378 0
M  V30 3454 C 335.763 1.87844 2.82078 0
M  V30 3455 C 334.936 3.17854 3.00479 0
M  V30 3456 C 333.995 3.17816 4.19379 0
M  V30 3457 O 333.021 3.91511 4.13168 0
M  V30 3458 N 334.223 2.40669 5.2826 0
M  V30 3459 H 336.988 2.73493 1.22563 0
M  V30 3460 H 334.549 1.53096 0.526625 0
M  V30 3461 H 336.541 1.85261 3.59806 0
M  V30 3462 H 335.111 1.00257 2.96086 0
M  V30 3463 H 334.331 3.33504 2.10163 0
M  V30 3464 H 335.619 4.03718 3.0966 0
M  V30 3465 H 335.017 1.8036 5.36178 0
M  V30 3466 H 333.574 2.43877 6.04456 0
M  V30 3467 N 337.007 -0.598083 1.45811 0
M  V30 3468 C 338.423 -0.919847 1.30426 0
M  V30 3469 C 338.623 -1.99759 0.264303 0
M  V30 3470 O 337.679 -2.50221 -0.338472 0
M  V30 3471 C 338.992 -1.35176 2.68603 0
M  V30 3472 C 340.54 -1.46546 2.76574 0
M  V30 3473 C 341.015 -1.9311 4.15298 0
M  V30 3474 N 342.506 -2.00328 4.1764 0
M  V30 3475 C 343.241 -2.37599 5.21856 0
M  V30 3476 N 342.737 -2.73771 6.36413 0
M  V30 3477 N 344.53 -2.38021 5.09218 0
M  V30 3478 H 336.681 0.114111 2.12093 0
M  V30 3479 H 338.944 -0.0116121 0.947929 0
M  V30 3480 H 338.65 -0.633969 3.45939 0
M  V30 3481 H 338.524 -2.3164 2.97696 0
M  V30 3482 H 340.911 -2.17415 1.99537 0
M  V30 3483 H 340.992 -0.483727 2.51185 0
M  V30 3484 H 340.636 -1.22824 4.92825 0
M  V30 3485 H 340.566 -2.92213 4.38086 0
M  V30 3486 H 343.057 -1.74925 3.34977 0
M  V30 3487 H 343.37 -3.0112 7.11721 0
M  V30 3488 H 341.715 -2.71445 6.39799 0
M  V30 3489 H 344.906 -2.09174 4.18765 0
M  V30 3490 H 345.079 -2.66741 5.90554 0
M  V30 3491 N 338.485 -1.33259 -0.841409 0
M  V30 3492 C 339.435 -1.19872 -1.93945 0
M  V30 3493 C 340.419 -0.102269 -1.60575 0
M  V30 3494 O 341.611 -0.330114 -1.73894 0
M  V30 3495 C 338.74 -0.937517 -3.30251 0
M  V30 3496 C 337.826 -2.07629 -3.69799 0
M  V30 3497 N 338.217 -3.32604 -3.81062 0
M  V30 3498 C 336.515 -1.98242 -3.9952 0
M  V30 3499 C 337.216 -4.07275 -4.15333 0
M  V30 3500 N 336.192 -3.35691 -4.27566 0
M  V30 3501 H 339.994 -2.14604 -2.00805 0
M  V30 3502 H 337.508 -1.2523 -1.03398 0
M  V30 3503 H 339.505 -0.822545 -4.08705 0
M  V30 3504 H 338.165 0.00128798 -3.247 0
M  V30 3505 H 339.176 -3.67382 -3.65035 0
M  V30 3506 H 335.853 -1.12005 -4.02195 0
M  V30 3507 H 337.243 -5.1511 -4.31406 0
M  V30 3508 N 339.963 1.05934 -1.16686 0
M  V30 3509 C 341.188 1.83029 -0.975455 0
M  V30 3510 C 341.613 1.82096 0.471452 0
M  V30 3511 O 340.971 1.22443 1.33706 0
M  V30 3512 C 341.019 3.27372 -1.51195 0
M  V30 3513 O 340.123 4.06054 -0.720701 0
M  V30 3514 H 339.464 0.566194 -0.346872 0
M  V30 3515 H 341.994 1.33541 -1.55009 0
M  V30 3516 H 342.004 3.78186 -1.53099 0
M  V30 3517 H 340.679 3.27366 -2.56523 0
M  V30 3518 H 339.256 3.64812 -0.772458 0
M  V30 3519 N 341.441 0.965919 1.2453 0
M  V30 3520 C 342.857 0.67216 1.44756 0
M  V30 3521 C 343.057 -0.766609 1.86347 0
M  V30 3522 O 342.113 -1.5407 2.00047 0
M  V30 3523 C 343.426 1.65473 2.51076 0
M  V30 3524 C 344.974 1.66716 2.64905 0
M  V30 3525 C 345.449 2.63766 3.74421 0
M  V30 3526 N 346.94 2.62198 3.81846 0
M  V30 3527 C 347.675 3.33966 4.66106 0
M  V30 3528 N 347.171 4.15245 5.54566 0
M  V30 3529 N 348.964 3.22799 4.60171 0
M  V30 3530 H 341.115 1.89553 0.958293 0
M  V30 3531 H 343.378 0.815979 0.482579 0
M  V30 3532 H 343.084 2.68296 2.27399 0
M  V30 3533 H 342.958 1.4261 3.49202 0
M  V30 3534 H 345.345 0.646057 2.87941 0
M  V30 3535 H 345.426 1.93642 1.67142 0
M  V30 3536 H 345.07 3.6601 3.52135 0
M  V30 3537 H 345 2.34121 4.71694 0
M  V30 3538 H 347.491 2.032 3.18619 0
M  V30 3539 H 347.804 4.66898 6.15814 0
M  V30 3540 H 346.149 4.1934 5.54237 0
M  V30 3541 H 349.34 2.58764 3.90075 0
M  V30 3542 H 349.513 3.78994 5.25612 0
M  V30 3543 N 342.919 -1.39368 0.735821 0
M  V30 3544 C 344.167 -2.00101 0.283562 0
M  V30 3545 C 344.488 -1.5868 -1.13338 0
M  V30 3546 O 343.758 -0.835423 -1.77193 0
M  V30 3547 H 342.338 -0.740024 0.101851 0
M  V30 3548 H 345 -1.70404 0.945962 0
M  V30 3549 H 344.096 -3.10323 0.332604 0
M  V30 3550 N 344.397 -0.483516 -1.5 0
M  V30 3551 C 345.625 0.0644831 -2.06799 0
M  V30 3552 C 346.04 1.32399 -1.34596 0
M  V30 3553 O 345.397 1.77626 -0.418946 0
M  V30 3554 C 345.448 0.339927 -3.59898 0
M  V30 3555 O 345.169 -0.869635 -4.29382 0
M  V30 3556 C 346.67 0.933515 -4.33359 0
M  V30 3557 H 343.89 -0.0126333 -0.670881 0
M  V30 3558 H 346.434 -0.675864 -1.93009 0
M  V30 3559 H 344.589 1.03022 -3.7345 0
M  V30 3560 H 345.003 -0.62179 -5.20801 0
M  V30 3561 H 346.477 1.07593 -5.41413 0
M  V30 3562 H 346.954 1.92685 -3.94676 0
M  V30 3563 H 347.56 0.281221 -4.24369 0
M  V30 3564 N 345.875 1.56104 -0.216619 0
M  V30 3565 C 346.822 2.2007 0.695531 0
M  V30 3566 C 347.792 1.15471 1.19397 0
M  V30 3567 O 348.977 1.43807 1.25396 0
M  V30 3568 C 346.117 2.88073 1.90021 0
M  V30 3569 C 345.23 4.07253 1.44113 0
M  V30 3570 C 344.365 4.63052 2.603 0
M  V30 3571 C 343.404 5.74545 2.11103 0
M  V30 3572 N 342.541 6.24656 3.20545 0
M  V30 3573 H 347.381 2.97655 0.143327 0
M  V30 3574 H 344.918 1.46982 0.0589934 0
M  V30 3575 H 346.876 3.25681 2.60745 0
M  V30 3576 H 345.506 2.13015 2.42538 0
M  V30 3577 H 344.558 3.75164 0.628999 0
M  V30 3578 H 345.87 4.8783 1.04036 0
M  V30 3579 H 345.024 5.03078 3.39113 0
M  V30 3580 H 343.763 3.81628 3.03663 0
M  V30 3581 H 342.768 5.34027 1.3075 0
M  V30 3582 H 343.993 6.57801 1.68746 0
M  V30 3583 H 341.939 5.46148 3.63399 0
M  V30 3584 H 341.856 7.00343 2.84704 0
M  V30 3585 H 343.124 6.69338 3.99508 0
M  V30 3586 N 347.353 -0.0568162 1.57498 0
M  V30 3587 C 348.283 -1.06593 2.0775 0
M  V30 3588 C 349.264 -1.39448 0.974082 0
M  V30 3589 O 350.449 -1.48815 1.24771 0
M  V30 3590 C 347.579 -2.37509 2.5339 0
M  V30 3591 C 346.533 -2.1897 3.67745 0
M  V30 3592 C 345.859 -3.55402 3.99492 0
M  V30 3593 C 347.159 -1.59859 4.97235 0
M  V30 3594 H 348.853 -0.647706 2.9231 0
M  V30 3595 H 346.399 -0.310116 1.40621 0
M  V30 3596 H 348.352 -3.08409 2.87162 0
M  V30 3597 H 347.076 -2.8134 1.65878 0
M  V30 3598 H 345.735 -1.50508 3.3428 0
M  V30 3599 H 345.383 -3.9683 3.09088 0
M  V30 3600 H 345.083 -3.43831 4.76502 0
M  V30 3601 H 346.607 -4.27708 4.35773 0
M  V30 3602 H 348.021 -2.20642 5.29141 0
M  V30 3603 H 346.418 -1.58942 5.78669 0
M  V30 3604 H 347.488 -0.561506 4.81638 0
M  V30 3605 N 348.832 -1.54138 -0.328536 0
M  V30 3606 C 350.248 -1.44736 -0.672574 0
M  V30 3607 C 350.448 -0.616217 -1.91846 0
M  V30 3608 O 349.504 -0.113067 -2.52247 0
M  V30 3609 C 350.817 -2.884 -0.851217 0
M  V30 3610 C 352.365 -2.98271 -0.948877 0
M  V30 3611 C 352.84 -4.43074 -1.15973 0
M  V30 3612 N 354.331 -4.46665 -1.22658 0
M  V30 3613 C 355.066 -5.55857 -1.40751 0
M  V30 3614 N 354.562 -6.75026 -1.5592 0
M  V30 3615 N 356.355 -5.43495 -1.4342 0
M  V30 3616 H 348.506 -2.06661 0.490421 0
M  V30 3617 H 350.769 -0.934812 0.157579 0
M  V30 3618 H 350.475 -3.51699 -0.00704236 0
M  V30 3619 H 350.349 -3.34225 -1.74853 0
M  V30 3620 H 352.736 -2.35102 -1.78356 0
M  V30 3621 H 352.817 -2.55785 -0.0281435 0
M  V30 3622 H 352.461 -5.06827 -0.329915 0
M  V30 3623 H 352.391 -4.83165 -2.09426 0
M  V30 3624 H 354.882 -3.60797 -1.124 0
M  V30 3625 H 355.195 -7.54004 -1.69404 0
M  V30 3626 H 353.54 -6.77944 -1.53027 0
M  V30 3627 H 356.731 -4.49349 -1.31162 0
M  V30 3628 H 356.904 -6.28649 -1.57178 0
M  V30 3629 N 350.31 0.590341 -1.46126 0
M  V30 3630 C 351.257 1.69994 -1.56111 0
M  V30 3631 C 352.227 1.61065 -0.405867 0
M  V30 3632 O 353.412 1.8039 -0.621613 0
M  V30 3633 C 350.552 3.08326 -1.55013 0
M  V30 3634 C 349.665 3.27936 -2.81215 0
M  V30 3635 C 348.8 4.56473 -2.71673 0
M  V30 3636 C 347.839 4.694 -3.92849 0
M  V30 3637 N 346.976 5.89254 -3.81738 0
M  V30 3638 H 351.816 1.60797 -2.50895 0
M  V30 3639 H 349.353 0.783799 -1.24479 0
M  V30 3640 H 351.311 3.88383 -1.52362 0
M  V30 3641 H 349.941 3.16439 -0.637667 0
M  V30 3642 H 348.993 2.41536 -2.93879 0
M  V30 3643 H 350.305 3.33357 -3.71045 0
M  V30 3644 H 349.459 5.44748 -2.67085 0
M  V30 3645 H 348.198 4.53477 -1.7947 0
M  V30 3646 H 347.203 3.79544 -3.97777 0
M  V30 3647 H 348.428 4.7418 -4.86138 0
M  V30 3648 H 346.374 5.87271 -2.92317 0
M  V30 3649 H 346.291 5.95911 -4.65217 0
M  V30 3650 H 347.559 6.79981 -3.81112 0
M  V30 3651 N 351.788 1.33704 0.83433 0
M  V30 3652 C 352.718 1.26967 1.95963 0
M  V30 3653 C 353.699 0.149337 1.69443 0
M  V30 3654 O 354.884 0.339852 1.91203 0
M  V30 3655 C 352.014 1.01275 3.32206 0
M  V30 3656 C 350.968 2.09652 3.73136 0
M  V30 3657 C 350.294 1.69166 5.07235 0
M  V30 3658 C 351.594 3.51372 3.86439 0
M  V30 3659 H 353.288 2.2112 2.01857 0
M  V30 3660 H 350.834 1.06447 0.969793 0
M  V30 3661 H 352.787 0.952106 4.10503 0
M  V30 3662 H 351.511 0.0356203 3.26581 0
M  V30 3663 H 350.17 2.14766 2.97104 0
M  V30 3664 H 349.818 0.701437 4.98085 0
M  V30 3665 H 349.518 2.41694 5.35591 0
M  V30 3666 H 351.042 1.64576 5.88003 0
M  V30 3667 H 352.456 3.48734 4.55036 0
M  V30 3668 H 350.853 4.22425 4.26236 0
M  V30 3669 H 351.923 3.89546 2.88759 0
M  V30 3670 N 353.266 -1.05314 1.17247 0
M  V30 3671 C 354.515 -1.77685 0.954521 0
M  V30 3672 C 354.828 -1.88616 -0.518025 0
M  V30 3673 O 356.034 -2.57714 -0.854144 0
M  V30 3674 C 354.49 -3.19402 1.65863 0
M  V30 3675 C 354.098 -3.16605 3.16963 0
M  V30 3676 C 355.842 -3.96237 1.52303 0
M  V30 3677 C 353.749 -4.53103 3.80068 0
M  V30 3678 H 352.679 -0.666 0.353496 0
M  V30 3679 H 355.33 -1.1805 1.40486 0
M  V30 3680 H 353.712 -3.79355 1.13602 0
M  V30 3681 H 354.886 -2.66176 3.76148 0
M  V30 3682 H 353.201 -2.53268 3.30521 0
M  V30 3683 H 355.798 -4.97157 1.96822 0
M  V30 3684 H 356.141 -4.136 0.473401 0
M  V30 3685 H 356.674 -3.42829 2.01775 0
M  V30 3686 H 353.413 -4.40946 4.85023 0
M  V30 3687 H 352.933 -5.03686 3.2567 0
M  V30 3688 H 354.612 -5.22045 3.82202 0
M  V30 3689 N 354.744 -0.972509 -1.24016 0
M  V30 3690 C 355.674 -0.525548 -2.27509 0
M  V30 3691 C 356.655 0.437262 -1.64384 0
M  V30 3692 O 357.84 0.332343 -1.91335 0
M  V30 3693 C 354.97 0.180448 -3.46831 0
M  V30 3694 C 353.924 -0.698859 -4.22256 0
M  V30 3695 C 353.25 0.138903 -5.3452 0
M  V30 3696 C 354.55 -1.98582 -4.83076 0
M  V30 3697 H 356.244 -1.39058 -2.65148 0
M  V30 3698 H 353.79 -0.67009 -1.27459 0
M  V30 3699 H 355.743 0.504387 -4.18371 0
M  V30 3700 H 354.467 1.07987 -3.08231 0
M  V30 3701 H 353.126 -1.00614 -3.52523 0
M  V30 3702 H 352.774 1.03862 -4.9216 0
M  V30 3703 H 352.474 -0.446259 -5.85903 0
M  V30 3704 H 353.998 0.457404 -6.08884 0
M  V30 3705 H 355.412 -1.72715 -5.46665 0
M  V30 3706 H 353.809 -2.5181 -5.44713 0
M  V30 3707 H 354.879 -2.67769 -4.04262 0
M  V30 3708 N 356.222 1.38976 -0.743202 0
M  V30 3709 C 357.447 2.05161 -0.303936 0
M  V30 3710 C 357.872 1.55677 1.05576 0
M  V30 3711 O 357.23 0.704131 1.67068 0
M  V30 3712 C 357.278 3.59138 -0.324373 0
M  V30 3713 O 356.382 4.06668 0.685204 0
M  V30 3714 H 355.723 0.649815 -0.136518 0
M  V30 3715 H 358.253 1.77852 -1.01142 0
M  V30 3716 H 358.263 4.07639 -0.171618 0
M  V30 3717 H 356.938 3.94515 -1.31647 0
M  V30 3718 H 355.515 3.69561 0.497913 0
M  V30 3719 N 357.7 0.491464 1.49741 0
M  V30 3720 C 358.977 -0.118984 1.95238 0
M  V30 3721 C 359.357 -1.55044 1.43264 0
M  V30 3722 O 358.705 -2.19287 0.642287 0
M  V30 3723 C 358.915 -0.0414187 3.48975 0
M  V30 3724 C 360.263 -0.220133 4.24029 0
M  V30 3725 O 361.287 -0.117055 3.56008 0
M  V30 3726 O 360.146 -0.430567 5.44801 0
M  V30 3727 H 357.24 -0.100536 0.820866 0
M  V30 3728 H 359.786 0.553322 1.60426 0
M  V30 3729 H 358.558 0.957214 3.79412 0
M  V30 3730 H 358.181 -0.754292 3.9038 0
M  V30 3731 N 359.178 -1.55987 0.224894 0
M  V30 3732 C 360.088 -2.24066 -0.69511 0
M  V30 3733 C 361.104 -1.24939 -1.21104 0
M  V30 3734 O 362.28 -1.5776 -1.25195 0
M  V30 3735 C 359.345 -2.90983 -1.88493 0
M  V30 3736 C 358.406 -4.05462 -1.41064 0
M  V30 3737 C 357.639 -4.69179 -2.54375 0
M  V30 3738 O 357.862 -4.31895 -3.72589 0
M  V30 3739 O 356.796 -5.58108 -2.25386 0
M  V30 3740 H 360.622 -3.03353 -0.145149 0
M  V30 3741 H 358.207 -1.49399 -0.00569476 0
M  V30 3742 H 360.089 -3.33209 -2.57972 0
M  V30 3743 H 358.764 -2.14653 -2.42293 0
M  V30 3744 H 357.671 -3.67798 -0.683774 0
M  V30 3745 H 359.004 -4.83545 -0.918985 0
M  V30 3746 N 360.656 0.0484629 -1.57525 0
M  V30 3747 C 361.586 1.0549 -2.08313 0
M  V30 3748 C 362.567 1.38929 -0.981463 0
M  V30 3749 O 363.752 1.48151 -1.25558 0
M  V30 3750 C 360.882 2.36162 -2.54646 0
M  V30 3751 C 359.836 2.17016 -3.68901 0
M  V30 3752 C 359.162 3.53278 -4.01371 0
M  V30 3753 C 360.462 1.57219 -4.98076 0
M  V30 3754 H 362.156 0.632195 -2.92649 0
M  V30 3755 H 359.702 0.302654 -1.40784 0
M  V30 3756 H 361.655 3.06882 -2.88793 0
M  V30 3757 H 360.379 2.80456 -1.67368 0
M  V30 3758 H 359.038 1.48733 -3.35073 0
M  V30 3759 H 358.686 3.95185 -3.11188 0
M  V30 3760 H 358.386 3.41299 -4.78318 0
M  V30 3761 H 359.91 4.25391 -4.38035 0
M  V30 3762 H 361.324 2.17832 -5.30304 0
M  V30 3763 H 359.721 1.55871 -5.79503 0
M  V30 3764 H 360.791 0.535956 -4.81929 0
M  V30 3765 N 362.134 1.5431 0.320358 0
M  V30 3766 C 363.081 1.83918 1.39438 0
M  V30 3767 C 364.051 0.686525 1.51248 0
M  V30 3768 O 365.236 0.933269 1.66417 0
M  V30 3769 C 362.376 2.075 2.75749 0
M  V30 3770 C 361.489 3.35177 2.72544 0
M  V30 3771 C 360.624 3.48704 4.00723 0
M  V30 3772 C 359.663 4.70244 3.91838 0
M  V30 3773 N 358.8 4.80679 5.11754 0
M  V30 3774 H 363.64 2.75544 1.13489 0
M  V30 3775 H 361.177 1.36459 0.549309 0
M  V30 3776 H 363.135 2.19166 3.54996 0
M  V30 3777 H 361.765 1.19163 3 0
M  V30 3778 H 360.817 3.32233 1.85271 0
M  V30 3779 H 362.129 4.24534 2.61863 0
M  V30 3780 H 361.283 3.59928 4.88402 0
M  V30 3781 H 360.022 2.57445 4.14214 0
M  V30 3782 H 359.027 4.59072 3.02544 0
M  V30 3783 H 360.252 5.6289 3.7991 0
M  V30 3784 H 358.198 3.92337 5.25745 0
M  V30 3785 H 358.115 5.64007 5.0342 0
M  V30 3786 H 359.383 4.96239 6.01138 0
M  V30 3787 N 363.613 -0.582584 1.46437 0
M  V30 3788 C 365.024 -1.1647 1.45916 0
M  V30 3789 C 365.375 -1.95177 0.200077 0
M  V30 3790 O 364.5 -2.04874 -0.696819 0
M  V30 3791 C 365.095 -2.11885 2.64367 0
M  V30 3792 C 363.654 -2.65421 2.66887 0
M  V30 3793 C 362.801 -1.41294 2.38603 0
M  V30 3794 H 365.752 -0.370514 1.54314 0
M  V30 3795 H 365.773 -2.9535 2.39892 0
M  V30 3796 H 365.285 -1.54573 3.5599 0
M  V30 3797 H 363.386 -3.26602 1.79338 0
M  V30 3798 H 363.499 -3.08147 3.66854 0
M  V30 3799 H 361.863 -1.71109 1.88663 0
M  V30 3800 H 362.646 -0.858125 3.32402 0
M  V30 3801 N 365.091 -1.34144 -0.827227 0
M  V30 3802 C 366.054 -1.25264 -1.91942 0
M  V30 3803 C 367.054 -0.168866 -1.59911 0
M  V30 3804 O 368.244 -0.421198 -1.69031 0
M  V30 3805 C 365.376 -0.932952 -3.27885 0
M  V30 3806 H 366.569 -2.22357 -2.0124 0
M  V30 3807 H 364.122 -1.1837 -1.0207 0
M  V30 3808 H 364.857 0.0349917 -3.24281 0
M  V30 3809 H 364.642 -1.71682 -3.52516 0
M  V30 3810 H 366.132 -0.895874 -4.07877 0
M  V30 3811 N 366.569 1.04691 -1.17803 0
M  V30 3812 C 367.519 2.10856 -0.867391 0
M  V30 3813 C 368.503 1.601 0.160206 0
M  V30 3814 O 369.695 1.76948 -0.042947 0
M  V30 3815 C 366.824 3.411 -0.388012 0
M  V30 3816 C 365.91 3.9864 -1.44732 0
M  V30 3817 N 366.301 4.30075 -2.66212 0
M  V30 3818 C 364.599 4.26439 -1.30637 0
M  V30 3819 C 365.3 4.76033 -3.34317 0
M  V30 3820 N 364.276 4.76462 -2.61696 0
M  V30 3821 H 368.078 2.33029 -1.79094 0
M  V30 3822 H 365.592 1.22386 -1.0675 0
M  V30 3823 H 367.589 4.16641 -0.146994 0
M  V30 3824 H 366.249 3.20357 0.529271 0
M  V30 3825 H 367.26 4.19917 -3.03134 0
M  V30 3826 H 363.937 4.15056 -0.451129 0
M  V30 3827 H 365.327 5.09427 -4.38103 0
M  V30 3828 N 368.047 0.979072 1.23499 0
M  V30 3829 C 369.463 0.687475 1.44034 0
M  V30 3830 C 369.663 -0.746801 1.8715 0
M  V30 3831 O 368.719 -1.51939 2.0167 0
M  V30 3832 C 370.032 1.68127 2.49307 0
M  V30 3833 C 371.58 1.69516 2.63122 0
M  V30 3834 C 372.055 2.67723 3.71603 0
M  V30 3835 N 373.546 2.66233 3.79044 0
M  V30 3836 C 374.281 3.38891 4.62537 0
M  V30 3837 N 373.777 4.21103 5.50131 0
M  V30 3838 N 375.57 3.27661 4.56721 0
M  V30 3839 H 367.721 1.90559 0.938135 0
M  V30 3840 H 369.984 0.821051 0.473897 0
M  V30 3841 H 369.69 2.70693 2.2454 0
M  V30 3842 H 369.564 1.46306 3.4767 0
M  V30 3843 H 371.951 0.676561 2.8724 0
M  V30 3844 H 372.032 1.95404 1.65079 0
M  V30 3845 H 371.676 3.69724 3.48233 0
M  V30 3846 H 371.606 2.39111 4.69184 0
M  V30 3847 H 374.097 2.06568 3.16446 0
M  V30 3848 H 374.41 4.73403 6.10827 0
M  V30 3849 H 372.755 4.25195 5.49759 0
M  V30 3850 H 375.946 2.62887 3.87309 0
M  V30 3851 H 376.119 3.84547 5.21562 0
M  V30 3852 N 369.525 -1.3858 0.750561 0
M  V30 3853 C 370.472 -2.30483 0.120835 0
M  V30 3854 C 371.442 -1.50022 -0.712923 0
M  V30 3855 O 372.627 -1.78662 -0.669676 0
M  V30 3856 C 369.767 -3.36431 -0.768666 0
M  V30 3857 C 368.88 -4.31927 0.0793922 0
M  V30 3858 C 368.015 -5.24944 -0.81283 0
M  V30 3859 C 367.054 -6.12088 0.0390447 0
M  V30 3860 N 366.191 -6.97412 -0.809969 0
M  V30 3861 H 371.031 -2.83761 0.91015 0
M  V30 3862 H 368.568 -1.39707 0.460463 0
M  V30 3863 H 370.526 -3.96462 -1.29898 0
M  V30 3864 H 369.156 -2.8457 -1.5238 0
M  V30 3865 H 368.208 -3.73382 0.727303 0
M  V30 3866 H 369.52 -4.93319 0.737401 0
M  V30 3867 H 368.674 -5.90078 -1.41042 0
M  V30 3868 H 367.413 -4.63911 -1.50458 0
M  V30 3869 H 366.418 -5.45952 0.649328 0
M  V30 3870 H 367.643 -6.75189 0.727809 0
M  V30 3871 H 365.589 -6.38931 -1.48672 0
M  V30 3872 H 365.506 -7.55712 -0.208789 0
M  V30 3873 H 366.774 -7.66959 -1.39263 0
M  V30 3874 N 371.003 -0.499398 -1.49478 0
M  V30 3875 C 372.419 -0.155261 -1.58843 0
M  V30 3876 C 372.619 1.34008 -1.50479 0
M  V30 3877 O 371.675 2.11589 -1.37791 0
M  V30 3878 C 372.988 -0.730636 -2.91689 0
M  V30 3879 C 374.536 -0.696599 -3.0515 0
M  V30 3880 C 375.011 -1.25001 -4.40612 0
M  V30 3881 N 376.502 -1.21064 -4.47099 0
M  V30 3882 C 377.237 -1.60905 -5.50361 0
M  V30 3883 N 376.733 -2.08331 -6.60735 0
M  V30 3884 N 378.526 -1.52331 -5.41065 0
M  V30 3885 H 370.677 -1.47162 -1.53158 0
M  V30 3886 H 372.94 -0.610309 -0.725415 0
M  V30 3887 H 372.646 -1.77928 -3.03372 0
M  V30 3888 H 372.52 -0.190161 -3.7672 0
M  V30 3889 H 374.907 0.343204 -2.93097 0
M  V30 3890 H 374.988 -1.2742 -2.21806 0
M  V30 3891 H 374.632 -2.28859 -4.53416 0
M  V30 3892 H 374.562 -0.64836 -5.22593 0
M  V30 3893 H 377.053 -0.863128 -3.67911 0
M  V30 3894 H 377.366 -2.36805 -7.35624 0
M  V30 3895 H 375.711 -2.12304 -6.6178 0
M  V30 3896 H 378.902 -1.151 -4.53729 0
M  V30 3897 H 379.075 -1.83704 -6.21415 0
M  V30 3898 N 372.481 1.55866 -0.233164 0
M  V30 3899 C 373.391 2.24431 0.683217 0
M  V30 3900 C 374.407 1.2558 1.2044 0
M  V30 3901 O 375.583 1.58422 1.24356 0
M  V30 3902 C 372.648 2.91979 1.86947 0
M  V30 3903 C 371.709 4.06204 1.38912 0
M  V30 3904 C 370.942 4.70522 2.51883 0
M  V30 3905 O 371.165 4.33865 3.70293 0
M  V30 3906 O 370.099 5.59296 2.22423 0
M  V30 3907 H 373.925 3.03426 0.129059 0
M  V30 3908 H 371.51 1.494 -0.0022283 0
M  V30 3909 H 373.392 3.34573 2.56201 0
M  V30 3910 H 372.067 2.15935 2.41151 0
M  V30 3911 H 370.974 3.68155 0.664259 0
M  V30 3912 H 372.307 4.84025 0.893328 0
M  V30 3913 N 373.959 -0.0401083 1.57549 0
M  V30 3914 C 374.889 -1.04384 2.08869 0
M  V30 3915 C 375.87 -1.38407 0.988817 0
M  V30 3916 O 377.055 -1.47483 1.26342 0
M  V30 3917 C 374.185 -2.34808 2.55895 0
M  V30 3918 C 373.139 -2.15057 3.70047 0
M  V30 3919 C 372.465 -3.51145 4.03239 0
M  V30 3920 C 373.765 -1.54576 4.98902 0
M  V30 3921 H 375.459 -0.616666 2.92981 0
M  V30 3922 H 373.005 -0.295184 1.40942 0
M  V30 3923 H 374.958 -3.05346 2.90417 0
M  V30 3924 H 373.682 -2.79565 1.68853 0
M  V30 3925 H 372.341 -1.46954 3.35857 0
M  V30 3926 H 371.989 -3.93529 3.13279 0
M  V30 3927 H 371.689 -3.38758 4.80122 0
M  V30 3928 H 373.213 -4.23062 4.40285 0
M  V30 3929 H 374.627 -2.15017 5.31451 0
M  V30 3930 H 373.024 -1.52796 5.80322 0
M  V30 3931 H 374.094 -0.51039 4.82206 0
M  V30 3932 N 375.437 -1.54477 -0.31217 0
M  V30 3933 C 376.848 -1.64344 -0.885891 0
M  V30 3934 C 377.199 -0.54485 -1.88483 0
M  V30 3935 O 376.324 0.320387 -2.14015 0
M  V30 3936 C 376.919 -2.97908 -1.61357 0
M  V30 3937 C 375.478 -3.09933 -2.13585 0
M  V30 3938 C 374.625 -2.59971 -0.964897 0
M  V30 3939 H 377.576 -1.58448 -0.0894528 0
M  V30 3940 H 377.597 -2.88706 -2.47848 0
M  V30 3941 H 377.109 -3.77845 -0.886277 0
M  V30 3942 H 375.21 -2.34694 -2.89395 0
M  V30 3943 H 375.323 -4.15916 -2.37804 0
M  V30 3944 H 373.687 -2.16147 -1.34731 0
M  V30 3945 H 374.47 -3.42376 -0.251742 0
M  V30 3946 N 376.915 0.57481 -1.46744 0
M  V30 3947 C 378.14 1.36341 -1.56288 0
M  V30 3948 C 378.565 1.86954 -0.207347 0
M  V30 3949 O 377.923 1.62006 0.813871 0
M  V30 3950 C 377.971 2.52147 -2.57787 0
M  V30 3951 O 377.075 3.53834 -2.11838 0
M  V30 3952 H 376.416 0.405713 -0.525636 0
M  V30 3953 H 378.946 0.696453 -1.92382 0
M  V30 3954 H 378.956 2.98958 -2.77648 0
M  V30 3955 H 377.631 2.14663 -3.5622 0
M  V30 3956 H 376.208 3.1345 -2.01999 0
M  V30 3957 N 378.394 1.34581 0.820102 0
M  V30 3958 C 379.324 1.29038 1.94606 0
M  V30 3959 C 380.305 0.1673 1.69275 0
M  V30 3960 O 381.49 0.360112 1.90832 0
M  V30 3961 C 378.62 1.04793 3.31113 0
M  V30 3962 C 377.574 2.13597 3.70891 0
M  V30 3963 C 376.9 1.74537 5.05412 0
M  V30 3964 C 378.2 3.55451 3.8269 0
M  V30 3965 H 379.894 2.23248 1.99501 0
M  V30 3966 H 377.44 1.0747 0.958449 0
M  V30 3967 H 379.393 0.995592 4.0947 0
M  V30 3968 H 378.117 0.0702565 3.26524 0
M  V30 3969 H 376.776 2.17905 2.9481 0
M  V30 3970 H 376.424 0.754226 4.97313 0
M  V30 3971 H 376.124 2.47361 5.32997 0
M  V30 3972 H 377.648 1.70803 5.86224 0
M  V30 3973 H 379.062 3.5354 4.51312 0
M  V30 3974 H 377.459 4.26922 4.21732 0
M  V30 3975 H 378.529 3.92587 2.84611 0
M  V30 3976 N 379.872 -1.04064 1.18357 0
M  V30 3977 C 381.097 -1.81454 1.00445 0
M  V30 3978 C 381.522 -1.82823 -0.442423 0
M  V30 3979 O 380.88 -1.24555 -1.31741 0
M  V30 3980 C 380.928 -3.24925 1.56384 0
M  V30 3981 O 380.032 -4.04856 0.785209 0
M  V30 3982 H 379.373 -0.560604 0.355835 0
M  V30 3983 H 381.903 -1.31059 1.57114 0
M  V30 3984 H 381.913 -3.75702 1.59097 0
M  V30 3985 H 380.588 -3.23244 2.61699 0
M  V30 3986 H 379.165 -3.63537 0.830399 0
M  V30 3987 N 381.35 -0.985608 -1.22978 0
M  V30 3988 C 382.761 -0.693593 -1.73338 0
M  V30 3989 C 383.112 0.789935 -1.79595 0
M  V30 3990 O 382.237 1.61771 -1.43733 0
M  V30 3991 C 382.832 -1.25235 -3.14804 0
M  V30 3992 C 381.391 -1.00987 -3.626 0
M  V30 3993 C 380.538 -1.37695 -2.40698 0
M  V30 3994 H 383.489 -1.15884 -1.08428 0
M  V30 3995 H 383.51 -0.627329 -3.75293 0
M  V30 3996 H 383.022 -2.33209 -3.10218 0
M  V30 3997 H 381.123 0.0535565 -3.72562 0
M  V30 3998 H 381.236 -1.66812 -4.49122 0
M  V30 3999 H 379.6 -0.795459 -2.4196 0
M  V30 4000 H 380.383 -2.46657 -2.38779 0
M  V30 4001 N 382.828 1.3818 -0.7579 0
M  V30 4002 C 383.791 2.28764 -0.141286 0
M  V30 4003 C 384.791 1.47388 0.642907 0
M  V30 4004 O 385.981 1.67781 0.468536 0
M  V30 4005 C 383.113 3.31184 0.808069 0
M  V30 4006 H 384.306 2.848 -0.939633 0
M  V30 4007 H 381.859 1.47212 -0.525191 0
M  V30 4008 H 382.594 2.80247 1.63193 0
M  V30 4009 H 382.379 3.91314 0.248104 0
M  V30 4010 H 383.869 3.98909 1.23536 0
M  V30 4011 N 384.306 0.507319 1.49211 0
M  V30 4012 C 385.717 0.0611118 1.866 0
M  V30 4013 C 386.068 -1.35488 1.41907 0
M  V30 4014 O 385.193 -2.0108 0.799726 0
M  V30 4015 C 385.788 0.104125 3.3864 0
M  V30 4016 C 384.347 -0.28677 3.75306 0
M  V30 4017 C 383.494 0.473893 2.73221 0
M  V30 4018 H 386.445 0.719775 1.41439 0
M  V30 4019 H 386.466 -0.689672 3.74198 0
M  V30 4020 H 385.978 1.13482 3.71138 0
M  V30 4021 H 384.079 -1.32046 3.48417 0
M  V30 4022 H 384.192 0.0370745 4.79086 0
M  V30 4023 H 382.556 -0.0770644 2.54583 0
M  V30 4024 H 383.339 1.50478 3.08563 0
M  V30 4025 N 385.784 -1.5574 0.241426 0
M  V30 4026 C 387.061 -1.90704 -0.434881 0
M  V30 4027 C 387.441 -1.16145 -1.76277 0
M  V30 4028 O 386.789 -0.277152 -2.26813 0
M  V30 4029 C 386.999 -3.43657 -0.608343 0
M  V30 4030 C 388.347 -4.14806 -0.906725 0
M  V30 4031 O 389.371 -3.49366 -0.694408 0
M  V30 4032 O 388.23 -5.30548 -1.31075 0
M  V30 4033 H 385.324 -0.793592 -0.23268 0
M  V30 4034 H 387.87 -1.67288 0.285086 0
M  V30 4035 H 386.642 -3.89927 0.327505 0
M  V30 4036 H 386.265 -3.72918 -1.37906 0
M  V30 4037 N 387.262 0.0317525 -1.57568 0
M  V30 4038 C 388.49 0.734949 -1.93407 0
M  V30 4039 C 388.905 1.69036 -0.84096 0
M  V30 4040 O 388.262 1.81582 0.182836 0
M  V30 4041 C 388.313 1.49432 -3.29169 0
M  V30 4042 O 388.034 0.577261 -4.3428 0
M  V30 4043 C 389.535 2.29492 -3.79273 0
M  V30 4044 H 386.755 0.206706 -0.638368 0
M  V30 4045 H 389.299 -0.00992046 -2.04498 0
M  V30 4046 H 387.454 2.1911 -3.19483 0
M  V30 4047 H 387.868 1.10952 -5.1263 0
M  V30 4048 H 389.342 2.78172 -4.76785 0
M  V30 4049 H 389.819 3.10794 -3.10328 0
M  V30 4050 H 390.425 1.64894 -3.92033 0
M  V30 4051 N 388.74 1.54641 0.303973 0
M  V30 4052 C 389.988 1.73437 1.0375 0
M  V30 4053 C 390.309 0.521449 1.87899 0
M  V30 4054 O 389.579 -0.46432 1.90318 0
M  V30 4055 H 388.159 0.639518 0.386039 0
M  V30 4056 H 390.821 1.91988 0.335675 0
M  V30 4057 H 389.917 2.62235 1.69231 0
M  V30 4058 N 390.218 -0.567019 1.47046 0
M  V30 4059 C 391.148 -1.68482 1.61667 0
M  V30 4060 C 392.129 -1.6358 0.466418 0
M  V30 4061 O 393.314 -1.81354 0.694574 0
M  V30 4062 C 390.444 -3.07124 1.62148 0
M  V30 4063 C 389.398 -3.26867 2.76301 0
M  V30 4064 C 388.724 -4.66196 2.61849 0
M  V30 4065 C 390.024 -3.13186 4.17986 0
M  V30 4066 H 391.718 -1.56502 2.5524 0
M  V30 4067 H 389.264 -0.751486 1.22836 0
M  V30 4068 H 391.217 -3.8516 1.70968 0
M  V30 4069 H 389.941 -3.2004 0.651287 0
M  V30 4070 H 388.6 -2.51237 2.66975 0
M  V30 4071 H 388.248 -4.75898 1.62879 0
M  V30 4072 H 387.948 -4.80356 3.38425 0
M  V30 4073 H 389.472 -5.46379 2.72584 0
M  V30 4074 H 390.886 -3.81049 4.2834 0
M  V30 4075 H 389.283 -3.3886 4.95272 0
M  V30 4076 H 390.353 -2.10057 4.3704 0
M  V30 4077 N 391.696 -1.35014 -0.812953 0
M  V30 4078 C 392.921 -1.31187 -1.60639 0
M  V30 4079 C 393.346 0.109382 -1.87782 0
M  V30 4080 O 392.704 1.07424 -1.46047 0
M  V30 4081 C 392.752 -2.11809 -2.91838 0
M  V30 4082 O 391.856 -1.49444 -3.8437 0
M  V30 4083 H 391.197 -0.450084 -0.488181 0
M  V30 4084 H 393.727 -1.77963 -1.00947 0
M  V30 4085 H 393.737 -2.23531 -3.41318 0
M  V30 4086 H 392.412 -3.15137 -2.71407 0
M  V30 4087 H 390.989 -1.46524 -3.42907 0
M  V30 4088 N 393.175 1.03435 -1.18907 0
M  V30 4089 C 394.586 1.58195 -0.991523 0
M  V30 4090 C 394.937 1.90801 0.457081 0
M  V30 4091 O 394.062 1.70272 1.33553 0
M  V30 4092 C 394.657 2.87432 -1.79355 0
M  V30 4093 C 393.216 3.38785 -1.64017 0
M  V30 4094 C 392.363 2.12292 -1.78402 0
M  V30 4095 H 395.314 0.860299 -1.33359 0
M  V30 4096 H 395.335 3.58096 -1.28638 0
M  V30 4097 H 394.847 2.63669 -2.84781 0
M  V30 4098 H 392.948 3.67547 -0.611536 0
M  V30 4099 H 393.061 4.12186 -2.44212 0
M  V30 4100 H 391.425 2.23901 -1.2141 0
M  V30 4101 H 392.208 1.90977 -2.85277 0
M  V30 4102 N 394.653 0.992116 1.22453 0
M  V30 4103 C 395.878 0.685644 1.95739 0
M  V30 4104 C 396.303 -0.743 1.72804 0
M  V30 4105 O 395.661 -1.50778 1.00676 0
M  V30 4106 C 395.709 0.996293 3.46564 0
M  V30 4107 O 394.813 0.0945512 4.12292 0
M  V30 4108 H 394.154 0.256694 0.612376 0
M  V30 4109 H 396.684 1.32888 1.5557 0
M  V30 4110 H 396.694 0.93781 3.97076 0
M  V30 4111 H 395.369 2.03733 3.62582 0
M  V30 4112 H 393.946 0.208451 3.72317 0
M  V30 4113 N 396.131 -1.37776 0.765217 0
M  V30 4114 C 397.078 -2.30342 0.145274 0
M  V30 4115 C 398.048 -1.5077 -0.696971 0
M  V30 4116 O 399.233 -1.79362 -0.650689 0
M  V30 4117 C 396.373 -3.37227 -0.732939 0
M  V30 4118 C 395.486 -4.31819 0.125199 0
M  V30 4119 C 394.621 -5.25777 -0.757107 0
M  V30 4120 C 393.66 -6.12012 0.103963 0
M  V30 4121 N 392.797 -6.98232 -0.735953 0
M  V30 4122 H 397.637 -2.8278 0.940195 0
M  V30 4123 H 395.174 -1.39211 0.475255 0
M  V30 4124 H 397.132 -3.97818 -1.25686 0
M  V30 4125 H 395.762 -2.86171 -1.49353 0
M  V30 4126 H 394.814 -3.7259 0.766865 0
M  V30 4127 H 396.126 -4.92509 0.789683 0
M  V30 4128 H 395.28 -5.91541 -1.34776 0
M  V30 4129 H 394.019 -4.65481 -1.45529 0
M  V30 4130 H 393.024 -5.45233 0.707197 0
M  V30 4131 H 394.249 -6.74379 0.799381 0
M  V30 4132 H 392.195 -6.40472 -1.41887 0
M  V30 4133 H 392.112 -7.55891 -0.128624 0
M  V30 4134 H 393.38 -7.68393 -1.31121 0
M  V30 4135 N 397.609 -0.515225 -1.4894 0
M  V30 4136 C 399.025 -0.172099 -1.58669 0
M  V30 4137 C 399.225 1.32405 -1.51892 0
M  V30 4138 O 398.281 2.10116 -1.40027 0
M  V30 4139 C 399.594 -0.761533 -2.90897 0
M  V30 4140 C 401.142 -0.728926 -3.04394 0
M  V30 4141 C 401.617 -1.29667 -4.39261 0
M  V30 4142 N 403.108 -1.25799 -4.4579 0
M  V30 4143 C 403.843 -1.66733 -5.48623 0
M  V30 4144 N 403.339 -2.15327 -6.58488 0
M  V30 4145 N 405.132 -1.58061 -5.39419 0
M  V30 4146 H 397.283 -1.48778 -1.51588 0
M  V30 4147 H 399.546 -0.617968 -0.718901 0
M  V30 4148 H 399.252 -1.81136 -3.01468 0
M  V30 4149 H 399.126 -0.230106 -3.76497 0
M  V30 4150 H 401.513 0.312098 -2.93445 0
M  V30 4151 H 401.594 -1.29766 -2.20442 0
M  V30 4152 H 401.238 -2.33655 -4.50963 0
M  V30 4153 H 401.168 -0.703752 -5.21876 0
M  V30 4154 H 403.659 -0.902102 -3.66975 0
M  V30 4155 H 403.972 -2.44594 -7.33071 0
M  V30 4156 H 402.317 -2.19311 -6.59491 0
M  V30 4157 H 405.508 -1.19906 -4.52482 0
M  V30 4158 H 405.681 -1.90284 -6.19432 0
M  V30 4159 N 399.087 1.5561 -0.249682 0
M  V30 4160 C 400.315 2.03411 0.378352 0
M  V30 4161 C 400.73 1.12886 1.51335 0
M  V30 4162 O 400.087 0.143833 1.81932 0
M  V30 4163 C 400.138 3.50537 0.88351 0
M  V30 4164 O 399.859 4.37614 -0.20626 0
M  V30 4165 C 401.36 4.14113 1.58195 0
M  V30 4166 H 398.58 0.664994 0.08958 0
M  V30 4167 H 401.124 2.01044 -0.374357 0
M  V30 4168 H 399.279 3.5343 1.58639 0
M  V30 4169 H 399.693 5.24199 0.177782 0
M  V30 4170 H 401.167 5.18741 1.8871 0
M  V30 4171 H 401.644 3.60767 2.50487 0
M  V30 4172 H 402.25 4.15151 0.923573 0
M  V30 4173 N 400.565 -0.0233959 1.57583 0
M  V30 4174 C 401.515 -1.03023 2.03397 0
M  V30 4175 C 402.499 -1.31701 0.924315 0
M  V30 4176 O 403.691 -1.31191 1.18819 0
M  V30 4177 C 400.82 -2.32961 2.52159 0
M  V30 4178 C 399.906 -2.07349 3.69956 0
M  V30 4179 N 400.297 -1.51814 4.82479 0
M  V30 4180 C 398.595 -2.37606 3.77438 0
M  V30 4181 C 399.296 -1.42136 5.64068 0
M  V30 4182 N 398.272 -1.89891 5.09355 0
M  V30 4183 H 402.074 -0.594962 2.87815 0
M  V30 4184 H 399.588 -0.229586 1.60769 0
M  V30 4185 H 401.585 -3.05906 2.83244 0
M  V30 4186 H 400.245 -2.77162 1.69149 0
M  V30 4187 H 401.256 -1.20008 5.03804 0
M  V30 4188 H 397.933 -2.84842 3.05239 0
M  V30 4189 H 399.323 -0.996405 6.64471 0
M  V30 4190 N 402.043 -1.548 -0.295768 0
M  V30 4191 C 402.975 -1.82492 -1.3867 0
M  V30 4192 C 403.988 -0.708134 -1.46592 0
M  V30 4193 O 405.177 -0.985686 -1.48817 0
M  V30 4194 C 402.277 -1.95256 -2.76999 0
M  V30 4195 C 401.45 -3.25709 -2.91946 0
M  V30 4196 C 400.509 -3.28824 -4.10806 0
M  V30 4197 O 399.535 -4.02328 -4.02643 0
M  V30 4198 N 400.737 -2.5459 -5.21694 0
M  V30 4199 H 403.502 -2.76646 -1.15269 0
M  V30 4200 H 401.063 -1.54438 -0.485849 0
M  V30 4201 H 403.055 -1.94736 -3.54768 0
M  V30 4202 H 401.625 -1.08072 -2.93324 0
M  V30 4203 H 400.845 -3.38959 -2.01247 0
M  V30 4204 H 402.133 -4.11786 -2.98847 0
M  V30 4205 H 401.531 -1.94512 -5.31208 0
M  V30 4206 H 400.088 -2.59818 -5.97778 0
M  V30 4207 N 403.521 0.559213 -1.47345 0
M  V30 4208 C 404.937 0.884943 -1.32819 0
M  V30 4209 C 405.137 1.98988 -0.317173 0
M  V30 4210 O 404.193 2.51031 0.272011 0
M  V30 4211 C 405.506 1.28007 -2.72093 0
M  V30 4212 C 407.054 1.39161 -2.80363 0
M  V30 4213 C 407.529 1.82031 -4.20272 0
M  V30 4214 N 409.02 1.89185 -4.22804 0
M  V30 4215 C 409.755 2.2368 -5.27973 0
M  V30 4216 N 409.251 2.56802 -6.43447 0
M  V30 4217 N 411.044 2.24436 -5.15349 0
M  V30 4218 H 403.195 -0.170304 -2.11716 0
M  V30 4219 H 405.458 -0.0135247 -0.947904 0
M  V30 4220 H 405.164 0.542027 -3.47498 0
M  V30 4221 H 405.038 2.23665 -3.03733 0
M  V30 4222 H 407.425 2.12048 -2.05231 0
M  V30 4223 H 407.506 0.41696 -2.52379 0
M  V30 4224 H 407.15 1.09715 -4.95908 0
M  V30 4225 H 407.08 2.80495 -4.45679 0
M  V30 4226 H 409.571 1.65982 -3.39497 0
M  V30 4227 H 409.884 2.82144 -7.19454 0
M  V30 4228 H 408.229 2.54387 -6.46771 0
M  V30 4229 H 411.42 1.97998 -4.24163 0
M  V30 4230 H 411.593 2.50989 -5.97418 0
M  V30 4231 N 404.999 1.35443 0.805782 0
M  V30 4232 C 406.224 1.32037 1.59941 0
M  V30 4233 C 406.649 -0.0994215 1.87837 0
M  V30 4234 O 406.007 -1.06648 1.46615 0
M  V30 4235 C 406.055 2.13354 2.90711 0
M  V30 4236 O 405.159 1.5148 3.83572 0
M  V30 4237 H 404.5 0.452666 0.485787 0
M  V30 4238 H 407.03 1.78496 1.00002 0
M  V30 4239 H 407.04 2.25338 3.40128 0
M  V30 4240 H 405.715 3.16572 2.69732 0
M  V30 4241 H 404.292 1.4834 3.42125 0
M  V30 4242 N 406.477 -1.02803 1.19454 0
M  V30 4243 C 407.424 -2.11099 0.933046 0
M  V30 4244 C 408.394 -1.65571 -0.132447 0
M  V30 4245 O 409.579 -1.90797 0.00987576 0
M  V30 4246 C 406.719 -3.41763 0.478747 0
M  V30 4247 C 405.832 -4.00833 1.6111 0
M  V30 4248 C 404.967 -5.19511 1.10825 0
M  V30 4249 C 404.006 -5.70639 2.21445 0
M  V30 4250 N 403.143 -6.80589 1.72461 0
M  V30 4251 H 407.983 -2.32804 1.86028 0
M  V30 4252 H 405.52 -1.14179 0.927441 0
M  V30 4253 H 407.478 -4.16736 0.196745 0
M  V30 4254 H 406.108 -3.20166 -0.411493 0
M  V30 4255 H 405.16 -3.23066 2.00829 0
M  V30 4256 H 406.472 -4.34794 2.4445 0
M  V30 4257 H 405.626 -6.01645 0.781533 0
M  V30 4258 H 404.365 -4.87086 0.244606 0
M  V30 4259 H 403.37 -4.87116 2.54947 0
M  V30 4260 H 404.595 -6.05102 3.08267 0
M  V30 4261 H 402.541 -6.50016 0.884056 0
M  V30 4262 H 402.458 -7.13681 2.49389 0
M  V30 4263 H 403.726 -7.66317 1.42755 0
M  V30 4264 N 407.956 -0.998596 -1.21925 0
M  V30 4265 C 409.181 -0.696015 -1.95372 0
M  V30 4266 C 409.606 0.733826 -1.73195 0
M  V30 4267 O 408.964 1.50242 -1.01474 0
M  V30 4268 C 409.012 -1.01466 -3.4603 0
M  V30 4269 O 408.116 -0.116415 -4.12236 0
M  V30 4270 H 407.457 -0.259938 -0.611006 0
M  V30 4271 H 409.987 -1.33711 -1.54863 0
M  V30 4272 H 409.997 -0.958855 -3.96573 0
M  V30 4273 H 408.672 -2.05653 -3.61497 0
M  V30 4274 H 407.249 -0.228193 -3.72201 0
M  V30 4275 N 409.434 1.37368 -0.772513 0
M  V30 4276 C 410.711 1.93839 -0.26188 0
M  V30 4277 C 411.091 1.7061 1.24319 0
M  V30 4278 O 410.439 1.05534 2.02669 0
M  V30 4279 C 410.649 3.43154 -0.636102 0
M  V30 4280 C 411.997 4.20249 -0.606324 0
M  V30 4281 O 413.021 3.5152 -0.575538 0
M  V30 4282 O 411.88 5.42809 -0.634086 0
M  V30 4283 H 408.974 0.82478 -0.0605555 0
M  V30 4284 H 411.52 1.4665 -0.853917 0
M  V30 4285 H 410.292 3.53647 -1.6748 0
M  V30 4286 H 409.915 3.97596 -0.0170516 0
M  V30 4287 N 410.912 0.523116 1.48665 0
M  V30 4288 C 411.875 -0.232592 2.28017 0
M  V30 4289 C 412.875 -0.874021 1.34972 0
M  V30 4290 O 414.065 -0.735132 1.57929 0
M  V30 4291 C 411.197 -1.33586 3.13636 0
M  V30 4292 H 412.39 0.464008 2.96289 0
M  V30 4293 H 409.943 0.278816 1.53793 0
M  V30 4294 H 410.678 -2.06593 2.4998 0
M  V30 4295 H 410.463 -0.881125 3.82071 0
M  V30 4296 H 411.953 -1.86759 3.73511 0
M  V30 4297 N 412.39 -1.55475 0.257931 0
M  V30 4298 C 413.618 -2.03609 -0.367559 0
M  V30 4299 C 414.033 -1.13687 -1.50734 0
M  V30 4300 O 413.39 -0.153479 -1.81853 0
M  V30 4301 C 413.441 -3.51001 -0.864908 0
M  V30 4302 O 413.162 -4.37499 0.229465 0
M  V30 4303 C 414.663 -4.14946 -1.55997 0
M  V30 4304 H 411.883 -0.665459 -0.0860521 0
M  V30 4305 H 414.427 -2.00843 0.385014 0
M  V30 4306 H 412.582 -3.54266 -1.56762 0
M  V30 4307 H 412.996 -5.24286 -0.14998 0
M  V30 4308 H 414.47 -5.19735 -1.85956 0
M  V30 4309 H 414.947 -3.6209 -2.4857 0
M  V30 4310 H 415.553 -4.15635 -0.901543 0
M  V30 4311 N 413.868 0.0150385 -1.57593 0
M  V30 4312 C 414.831 0.995996 -2.06428 0
M  V30 4313 C 415.831 1.2818 -0.970903 0
M  V30 4314 O 417.021 1.22949 -1.23406 0
M  V30 4315 C 414.153 2.32506 -2.49307 0
M  V30 4316 H 415.346 0.573873 -2.94358 0
M  V30 4317 H 412.899 0.262186 -1.54085 0
M  V30 4318 H 413.634 2.79438 -1.64575 0
M  V30 4319 H 413.419 2.13087 -3.29145 0
M  V30 4320 H 414.909 3.02906 -2.87468 0
M  V30 4321 N 415.346 1.54954 0.287554 0
M  V30 4322 C 416.571 1.79209 1.04397 0
M  V30 4323 C 416.996 0.556431 1.79682 0
M  V30 4324 O 416.354 -0.493518 1.74454 0
M  V30 4325 C 416.402 3.00739 1.98969 0
M  V30 4326 O 415.506 2.74805 3.075 0
M  V30 4327 H 414.847 0.592755 0.299227 0
M  V30 4328 H 417.377 2.02068 0.320886 0
M  V30 4329 H 417.387 3.29077 2.4119 0
M  V30 4330 H 416.062 3.90329 1.43582 0
M  V30 4331 H 414.639 2.57523 2.69697 0
M  V30 4332 N 416.824 -0.551391 1.4764 0
M  V30 4333 C 418.073 -1.30467 1.53822 0
M  V30 4334 C 418.386 -1.94495 0.207661 0
M  V30 4335 O 419.592 -2.71099 0.147533 0
M  V30 4336 C 418.048 -2.36616 2.71184 0
M  V30 4337 C 417.656 -1.78754 4.10793 0
M  V30 4338 C 419.4 -3.13088 2.86663 0
M  V30 4339 C 417.307 -2.82717 5.19447 0
M  V30 4340 H 416.237 -0.490584 0.572576 0
M  V30 4341 H 418.888 -0.58494 1.73927 0
M  V30 4342 H 417.27 -3.11529 2.4447 0
M  V30 4343 H 418.444 -1.10173 4.47435 0
M  V30 4344 H 416.759 -1.14846 4.00249 0
M  V30 4345 H 419.356 -3.90736 3.65007 0
M  V30 4346 H 419.699 -3.67635 1.95321 0
M  V30 4347 H 420.232 -2.45288 3.13175 0
M  V30 4348 H 416.971 -2.33018 6.12685 0
M  V30 4349 H 416.491 -3.4969 4.87316 0
M  V30 4350 H 418.17 -3.46102 5.46646 0
M  V30 4351 N 418.302 -1.35869 -0.798587 0
M  V30 4352 C 419.527 -1.32883 -1.59238 0
M  V30 4353 C 419.952 0.0894587 -1.87887 0
M  V30 4354 O 419.31 1.05869 -1.47178 0
M  V30 4355 C 419.358 -2.14892 -2.89575 0
M  V30 4356 O 418.462 -1.53512 -3.82763 0
M  V30 4357 H 417.803 -0.455236 -0.48338 0
M  V30 4358 H 420.333 -1.79024 -0.990539 0
M  V30 4359 H 420.343 -2.27139 -3.38928 0
M  V30 4360 H 419.018 -3.17998 -2.68049 0
M  V30 4361 H 417.595 -1.50153 -3.41334 0
M  V30 4362 N 419.78 1.02168 -1.19998 0
M  V30 4363 C 420.71 2.12488 -0.96804 0
M  V30 4364 C 421.691 1.69799 0.101185 0
M  V30 4365 O 422.876 1.94121 -0.0552993 0
M  V30 4366 C 420.006 3.43479 -0.513776 0
M  V30 4367 C 418.96 3.99884 -1.52566 0
M  V30 4368 C 418.286 5.26582 -0.928214 0
M  V30 4369 C 419.586 4.33861 -2.90795 0
M  V30 4370 H 421.28 2.32149 -1.89069 0
M  V30 4371 H 418.826 1.11564 -0.910468 0
M  V30 4372 H 420.779 4.20036 -0.338774 0
M  V30 4373 H 419.503 3.23561 0.444493 0
M  V30 4374 H 418.162 3.25429 -1.68794 0
M  V30 4375 H 417.81 5.02986 0.0378289 0
M  V30 4376 H 417.51 5.65284 -1.60397 0
M  V30 4377 H 419.034 6.05799 -0.764167 0
M  V30 4378 H 420.448 5.01327 -2.78109 0
M  V30 4379 H 418.845 4.83664 -3.55231 0
M  V30 4380 H 419.915 3.42848 -3.42904 0
M  V30 4381 N 421.258 1.00505 1.21394 0
M  V30 4382 C 422.483 0.706367 1.95001 0
M  V30 4383 C 422.908 -0.72463 1.73582 0
M  V30 4384 O 422.266 -1.49702 1.0227 0
M  V30 4385 C 422.314 1.03299 3.45487 0
M  V30 4386 O 421.418 0.138275 4.12168 0
M  V30 4387 H 420.759 0.263175 0.609619 0
M  V30 4388 H 423.289 1.34531 1.54151 0
M  V30 4389 H 423.299 0.979872 3.96059 0
M  V30 4390 H 421.974 2.07567 3.60401 0
M  V30 4391 H 420.551 0.247928 3.72075 0
M  V30 4392 N 422.737 -1.36956 0.779787 0
M  V30 4393 C 423.962 -2.04283 0.358224 0
M  V30 4394 C 424.387 -1.58422 -1.01411 0
M  V30 4395 O 423.745 -0.748179 -1.65142 0
M  V30 4396 C 423.793 -3.58152 0.419479 0
M  V30 4397 O 422.897 -4.08342 -0.577142 0
M  V30 4398 H 422.238 -0.645967 0.153698 0
M  V30 4399 H 424.768 -1.75108 1.05822 0
M  V30 4400 H 424.778 -4.07041 0.279636 0
M  V30 4401 H 423.453 -3.90886 1.42061 0
M  V30 4402 H 422.03 -3.70751 -0.399755 0
M  V30 4403 N 424.215 -0.530993 -1.48385 0
M  V30 4404 C 425.163 0.244595 -2.3131 0
M  V30 4405 C 426.157 0.93451 -1.41291 0
M  V30 4406 O 427.363 0.85878 -1.58193 0
M  V30 4407 H 423.738 0.0977472 -0.74562 0
M  V30 4408 H 425.709 -0.474369 -2.94605 0
M  V30 4409 C 424.458 1.2779 -3.23365 0
M  V30 4410 H 423.781 0.756439 -3.92579 0
M  V30 4411 H 425.221 1.79198 -3.84271 0
M  V30 4412 C 423.68 2.31205 -2.45042 0
M  V30 4413 O 424.21 3.37661 -2.17596 0
M  V30 4414 N 422.416 2.04446 -2.0652 0
M  V30 4415 H 421.963 1.17891 -2.2904 0
M  V30 4416 H 421.921 2.73861 -1.54427 0
M  V30 4417 N 425.693 1.55336 -0.266172 0
M  V30 4418 C 426.623 2.25146 0.618981 0
M  V30 4419 C 427.604 1.23845 1.16604 0
M  V30 4420 O 428.789 1.52544 1.20183 0
M  V30 4421 C 425.919 2.96572 1.80728 0
M  V30 4422 C 424.873 4.04726 1.39215 0
M  V30 4423 C 424.199 4.63678 2.66283 0
M  V30 4424 C 425.499 5.19407 0.548942 0
M  V30 4425 H 427.193 2.99377 0.0368116 0
M  V30 4426 H 424.739 1.43991 0.0162651 0
M  V30 4427 H 426.692 3.44116 2.43232 0
M  V30 4428 H 425.416 2.19861 2.41514 0
M  V30 4429 H 424.075 3.57979 0.790351 0
M  V30 4430 H 423.723 3.83646 3.25308 0
M  V30 4431 H 423.423 5.367 2.39222 0
M  V30 4432 H 424.947 5.13967 3.29651 0
M  V30 4433 H 426.361 5.63059 1.07876 0
M  V30 4434 H 424.758 5.98936 0.373593 0
M  V30 4435 H 425.828 4.8295 -0.434394 0
M  V30 4436 N 427.171 -0.0066808 1.57599 0
M  V30 4437 C 428.118 -1.00024 2.08 0
M  V30 4438 C 429.088 -1.34549 0.973943 0
M  V30 4439 O 430.273 -1.44502 1.24595 0
M  V30 4440 C 427.413 -2.2891 2.58252 0
M  V30 4441 C 426.526 -2.00346 3.82734 0
M  V30 4442 C 425.661 -3.23265 4.21513 0
M  V30 4443 C 424.7 -2.90357 5.3885 0
M  V30 4444 N 423.837 -4.05793 5.72954 0
M  V30 4445 H 428.677 -0.563499 2.92624 0
M  V30 4446 H 426.214 -0.266592 1.44664 0
M  V30 4447 H 428.172 -3.04247 2.85464 0
M  V30 4448 H 426.802 -2.70265 1.76512 0
M  V30 4449 H 425.854 -1.15406 3.62471 0
M  V30 4450 H 427.166 -1.72086 4.68175 0
M  V30 4451 H 426.32 -4.06953 4.49971 0
M  V30 4452 H 425.059 -3.54657 3.34768 0
M  V30 4453 H 424.064 -2.05075 5.10122 0
M  V30 4454 H 425.289 -2.60219 6.27266 0
M  V30 4455 H 423.235 -4.37094 4.89167 0
M  V30 4456 H 423.152 -3.81034 6.52954 0
M  V30 4457 H 424.42 -4.90289 6.06001 0
M  V30 4458 N 428.649 -1.55105 -0.279332 0
M  V30 4459 C 430.065 -1.46803 -0.626187 0
M  V30 4460 C 430.265 -0.676939 -1.89789 0
M  V30 4461 O 429.321 -0.19326 -2.51759 0
M  V30 4462 C 430.634 -2.90962 -0.759034 0
M  V30 4463 C 432.182 -3.01138 -0.853504 0
M  V30 4464 C 432.657 -4.46539 -1.01818 0
M  V30 4465 N 434.148 -4.50341 -1.08386 0
M  V30 4466 C 434.883 -5.60053 -1.22996 0
M  V30 4467 N 434.379 -6.79645 -1.34366 0
M  V30 4468 N 436.172 -5.47783 -1.26056 0
M  V30 4469 H 428.323 -2.04996 0.555921 0
M  V30 4470 H 430.586 -0.929325 0.187239 0
M  V30 4471 H 430.292 -3.51544 0.104852 0
M  V30 4472 H 430.166 -3.39619 -1.64131 0
M  V30 4473 H 432.553 -2.40658 -1.70786 0
M  V30 4474 H 432.634 -2.55745 0.0532466 0
M  V30 4475 H 432.278 -5.0762 -0.168504 0
M  V30 4476 H 432.208 -4.89583 -1.93948 0
M  V30 4477 H 434.699 -3.64191 -1.00864 0
M  V30 4478 H 435.012 -7.59012 -1.4533 0
M  V30 4479 H 433.357 -6.82469 -1.31382 0
M  V30 4480 H 436.548 -4.53294 -1.168 0
M  V30 4481 H 436.721 -6.33331 -1.37098 0
M  V30 4482 N 430.127 0.543554 -1.4793 0
M  V30 4483 C 431.355 1.32516 -1.58894 0
M  V30 4484 C 431.77 1.87215 -0.244131 0
M  V30 4485 O 431.127 1.65709 0.764652 0
M  V30 4486 C 431.178 2.48554 -2.62494 0
M  V30 4487 O 430.899 1.96112 -3.91755 0
M  V30 4488 C 432.4 3.40572 -2.8377 0
M  V30 4489 H 429.62 0.403472 -0.536145 0
M  V30 4490 H 432.164 0.657106 -1.93655 0
M  V30 4491 H 430.319 3.1127 -2.30629 0
M  V30 4492 H 430.733 2.71967 -4.4848 0
M  V30 4493 H 432.207 4.18375 -3.60093 0
M  V30 4494 H 432.684 3.94965 -1.92092 0
M  V30 4495 H 433.29 2.8366 -3.16887 0
M  V30 4496 N 431.605 1.3629 0.791371 0
M  V30 4497 C 432.568 1.30309 1.88553 0
M  V30 4498 C 433.568 0.211204 1.59407 0
M  V30 4499 O 434.758 0.465865 1.67855 0
M  V30 4500 C 431.89 1.01956 3.25297 0
M  V30 4501 H 433.083 2.27614 1.95273 0
M  V30 4502 H 430.636 1.21035 0.988953 0
M  V30 4503 H 431.371 0.050998 3.2426 0
M  V30 4504 H 431.156 1.80968 3.4784 0
M  V30 4505 H 432.646 1.0037 4.05359 0
M  V30 4506 N 433.083 -1.0153 1.20538 0
M  V30 4507 C 434.308 -1.79283 1.04271 0
M  V30 4508 C 434.733 -1.8372 -0.403544 0
M  V30 4509 O 434.091 -1.27321 -1.2907 0
M  V30 4510 C 434.139 -3.21535 1.63241 0
M  V30 4511 O 433.243 -4.03099 0.870908 0
M  V30 4512 H 432.584 -0.55293 0.367647 0
M  V30 4513 H 435.114 -1.27696 1.59859 0
M  V30 4514 H 435.124 -3.72243 1.6703 0
M  V30 4515 H 433.799 -3.1762 2.68497 0
M  V30 4516 H 432.376 -3.61693 0.907323 0
M  V30 4517 N 434.561 -1.01147 -1.20859 0
M  V30 4518 C 435.509 -0.57059 -2.25493 0
M  V30 4519 C 436.503 0.388109 -1.64894 0
M  V30 4520 O 437.709 0.258592 -1.78133 0
M  V30 4521 H 434.084 -0.166191 -0.733406 0
M  V30 4522 H 436.055 -1.46411 -2.60012 0
M  V30 4523 C 434.804 0.0805241 -3.47607 0
M  V30 4524 H 434.127 -0.648156 -3.94511 0
M  V30 4525 H 435.567 0.352197 -4.22535 0
M  V30 4526 C 434.026 1.32175 -3.09889 0
M  V30 4527 O 434.556 2.41553 -3.20959 0
M  V30 4528 N 432.762 1.20392 -2.64488 0
M  V30 4529 H 432.309 0.313905 -2.5568 0
M  V30 4530 H 432.267 2.03541 -2.39621 0
M  V30 4531 N 436.039 1.36541 -0.78704 0
M  V30 4532 C 437.45 1.81873 -0.421807 0
M  V30 4533 C 437.801 1.65487 1.05397 0
M  V30 4534 O 436.926 1.17448 1.81755 0
M  V30 4535 C 437.521 3.30192 -0.758841 0
M  V30 4536 C 436.08 3.73743 -0.446468 0
M  V30 4537 C 435.227 2.58844 -0.994728 0
M  V30 4538 H 438.178 1.24796 -0.98039 0
M  V30 4539 H 438.199 3.80468 -0.0490648 0
M  V30 4540 H 437.711 3.42087 -1.83299 0
M  V30 4541 H 435.812 3.6741 0.619739 0
M  V30 4542 H 435.925 4.69272 -0.965415 0
M  V30 4543 H 434.289 2.51245 -0.418087 0
M  V30 4544 H 435.072 2.73525 -2.07458 0
M  V30 4545 N 437.518 0.538854 1.48102 0
M  V30 4546 C 438.465 -0.219042 2.29758 0
M  V30 4547 C 439.435 -0.925562 1.37922 0
M  V30 4548 O 440.62 -0.924855 1.66886 0
M  V30 4549 C 437.76 -1.25452 3.2149 0
M  V30 4550 C 436.873 -0.555943 4.28408 0
M  V30 4551 C 436.008 -1.57512 5.0731 0
M  V30 4552 C 435.047 -0.860498 6.06021 0
M  V30 4553 N 434.184 -1.82564 6.77949 0
M  V30 4554 H 439.024 0.483449 2.94052 0
M  V30 4555 H 436.561 0.250247 1.44956 0
M  V30 4556 H 438.519 -1.86727 3.7308 0
M  V30 4557 H 437.149 -1.92528 2.591 0
M  V30 4558 H 436.201 0.170938 3.80016 0
M  V30 4559 H 437.513 0.00474616 4.988 0
M  V30 4560 H 436.667 -2.26191 5.62959 0
M  V30 4561 H 435.406 -2.16972 4.36778 0
M  V30 4562 H 434.411 -0.159686 5.49568 0
M  V30 4563 H 435.636 -0.271897 6.78555 0
M  V30 4564 H 433.582 -2.40915 6.10161 0
M  V30 4565 H 433.499 -1.31662 7.44447 0
M  V30 4566 H 434.767 -2.50414 7.38182 0
M  V30 4567 N 438.996 -1.55193 0.274407 0
M  V30 4568 C 440.242 -1.99877 -0.343086 0
M  V30 4569 C 440.575 -1.16256 -1.55558 0
M  V30 4570 O 439.85 -0.232462 -1.93106 0
M  V30 4571 C 440.133 -3.52706 -0.725965 0
M  V30 4572 C 439.986 -4.47081 0.493818 0
M  V30 4573 C 441.305 -4.11422 -1.56268 0
M  V30 4574 H 438.424 -0.726625 -0.123229 0
M  V30 4575 H 441.066 -1.86136 0.38121 0
M  V30 4576 H 439.216 -3.64546 -1.34307 0
M  V30 4577 H 440.888 -4.47186 1.13237 0
M  V30 4578 H 439.131 -4.1877 1.13201 0
M  V30 4579 H 439.802 -5.51699 0.18217 0
M  V30 4580 H 442.278 -4.02855 -1.04151 0
M  V30 4581 H 441.154 -5.18568 -1.79939 0
M  V30 4582 H 441.415 -3.61607 -2.54348 0
M  V30 4583 N 440.474 -0.00167713 -1.576 0
M  V30 4584 C 441.384 1.00548 -2.1196 0
M  V30 4585 C 442.4 1.3758 -1.06526 0
M  V30 4586 O 443.576 1.46278 -1.38436 0
M  V30 4587 C 440.641 2.27809 -2.6135 0
M  V30 4588 C 439.702 1.97074 -3.81393 0
M  V30 4589 C 438.935 3.18267 -4.28417 0
M  V30 4590 O 439.158 4.30009 -3.74765 0
M  V30 4591 O 438.092 3.02167 -5.20556 0
M  V30 4592 H 441.918 0.573373 -2.98238 0
M  V30 4593 H 439.503 0.217255 -1.47812 0
M  V30 4594 H 441.385 3.02568 -2.93309 0
M  V30 4595 H 440.06 2.70254 -1.78169 0
M  V30 4596 H 438.967 1.19785 -3.54404 0
M  V30 4597 H 440.3 1.59464 -4.65652 0
M  V30 4598 N 441.952 1.55251 0.271103 0
M  V30 4599 C 442.9 1.89054 1.35504 0
M  V30 4600 C 443.894 0.767064 1.51038 0
M  V30 4601 O 445.1 0.951429 1.528 0
M  V30 4602 H 441.475 0.600072 0.45323 0
M  V30 4603 H 443.446 2.79598 1.04247 0
M  V30 4604 C 442.195 2.18068 2.70817 0
M  V30 4605 H 441.518 3.04005 2.59656 0
M  V30 4606 H 442.958 2.4564 3.45597 0
M  V30 4607 C 441.417 0.988901 3.2206 0
M  V30 4608 O 441.947 0.224501 4.01072 0
M  V30 4609 N 440.153 0.786085 2.79766 0
M  V30 4610 H 439.7 1.40937 2.15626 0
M  V30 4611 H 439.658 -0.00969349 3.14399 0
M  V30 4612 N 443.43 -0.535701 1.48216 0
M  V30 4613 C 444.34 -1.66785 1.64985 0
M  V30 4614 C 445.356 -1.65654 0.532414 0
M  V30 4615 O 446.532 -1.8471 0.80275 0
M  V30 4616 C 443.597 -3.0326 1.68031 0
M  V30 4617 C 442.658 -3.1529 2.9136 0
M  V30 4618 C 441.891 -4.45255 2.94252 0
M  V30 4619 O 442.114 -5.32011 2.05719 0
M  V30 4620 O 441.048 -4.6153 3.86359 0
M  V30 4621 H 444.874 -1.55576 2.60825 0
M  V30 4622 H 442.459 -0.70815 1.31551 0
M  V30 4623 H 444.341 -3.84436 1.72589 0
M  V30 4624 H 443.016 -3.14805 0.753628 0
M  V30 4625 H 441.923 -2.3343 2.92337 0
M  V30 4626 H 443.256 -3.08658 3.83394 0
M  V30 4627 N 444.908 -1.36708 -0.784132 0
M  V30 4628 C 446.185 -1.21776 -1.53069 0
M  V30 4629 C 446.565 0.193876 -2.10208 0
M  V30 4630 O 445.913 1.20012 -1.94446 0
M  V30 4631 C 446.123 -2.30395 -2.62143 0
M  V30 4632 C 447.471 -2.67325 -3.29882 0
M  V30 4633 O 448.495 -2.29478 -2.7243 0
M  V30 4634 O 447.354 -3.32485 -4.33724 0
M  V30 4635 H 444.448 -0.474459 -0.677361 0
M  V30 4636 H 446.994 -1.48454 -0.82216 0
M  V30 4637 H 445.766 -3.2498 -2.17953 0
M  V30 4638 H 445.389 -2.05112 -3.40609 0
M  V30 4639 N 446.386 1.0089 -1.21074 0
M  V30 4640 C 447.296 2.13039 -0.982425 0
M  V30 4641 C 448.312 1.73881 0.0642161 0
M  V30 4642 O 449.488 2.01012 -0.12496 0
M  V30 4643 C 446.553 3.42377 -0.545803 0
M  V30 4644 C 445.614 3.95731 -1.6642 0
M  V30 4645 C 444.847 5.18896 -1.24832 0
M  V30 4646 O 445.07 5.70273 -0.120265 0
M  V30 4647 O 444.004 5.65597 -2.05873 0
M  V30 4648 H 447.83 2.35175 -1.92163 0
M  V30 4649 H 445.415 1.1142 -0.995285 0
M  V30 4650 H 447.297 4.20244 -0.311912 0
M  V30 4651 H 445.972 3.21639 0.364727 0
M  V30 4652 H 444.879 3.19108 -1.95246 0
M  V30 4653 H 446.212 4.20872 -2.55201 0
M  V30 4654 N 447.864 1.01787 1.20321 0
M  V30 4655 C 448.774 0.598898 2.26827 0
M  V30 4656 C 449.79 -0.36418 1.70146 0
M  V30 4657 O 450.966 -0.224812 2.00141 0
M  V30 4658 C 448.031 -0.0549769 3.46656 0
M  V30 4659 C 447.092 0.954205 4.18561 0
M  V30 4660 C 446.325 0.331439 5.3267 0
M  V30 4661 O 446.548 -0.86851 5.63749 0
M  V30 4662 O 445.482 1.0488 5.92692 0
M  V30 4663 H 449.308 1.48562 2.64883 0
M  V30 4664 H 446.893 0.787434 1.26964 0
M  V30 4665 H 448.775 -0.420102 4.19301 0
M  V30 4666 H 447.45 -0.915876 3.10473 0
M  V30 4667 H 446.357 1.37072 3.48083 0
M  V30 4668 H 447.69 1.78511 4.58688 0
M  V30 4669 N 449.342 -1.36122 0.79427 0
M  V30 4670 C 450.272 -2.32551 0.210328 0
M  V30 4671 C 451.253 -1.56884 -0.657386 0
M  V30 4672 O 452.438 -1.85014 -0.590207 0
M  V30 4673 C 449.568 -3.41128 -0.651819 0
M  V30 4674 C 448.522 -4.27842 0.116395 0
M  V30 4675 C 447.848 -5.2763 -0.86666 0
M  V30 4676 C 449.148 -5.05647 1.30837 0
M  V30 4677 H 450.842 -2.81636 1.01594 0
M  V30 4678 H 448.388 -1.35407 0.489981 0
M  V30 4679 H 450.341 -4.07581 -1.07031 0
M  V30 4680 H 449.065 -2.90622 -1.49019 0
M  V30 4681 H 447.724 -3.62952 0.515915 0
M  V30 4682 H 447.372 -4.73395 -1.70019 0
M  V30 4683 H 447.072 -5.86514 -0.35705 0
M  V30 4684 H 448.596 -5.96955 -1.28361 0
M  V30 4685 H 450.01 -5.65113 0.965393 0
M  V30 4686 H 448.407 -5.73967 1.75161 0
M  V30 4687 H 449.477 -4.37006 2.10128 0
M  V30 4688 N 450.82 -0.546701 -1.47814 0
M  V30 4689 C 452.045 -0.021268 -2.07389 0
M  V30 4690 C 452.47 1.25822 -1.39822 0
M  V30 4691 O 451.828 1.75111 -0.46968 0
M  V30 4692 C 451.876 0.168502 -3.60206 0
M  V30 4693 O 450.98 1.23347 -3.93522 0
M  V30 4694 H 450.321 -0.0466108 -0.662362 0
M  V30 4695 H 452.851 -0.759387 -1.89985 0
M  V30 4696 H 452.861 0.385982 -4.0617 0
M  V30 4697 H 451.536 -0.766075 -4.08784 0
M  V30 4698 H 450.113 0.997319 -3.59316 0
M  V30 4699 N 452.299 1.55045 -0.282633 0
M  V30 4700 C 453.524 2.04628 0.337977 0
M  V30 4701 C 453.949 1.15937 1.48123 0
M  V30 4702 O 453.307 0.159532 1.80597 0
M  V30 4703 C 453.355 3.51854 0.78936 0
M  V30 4704 O 452.459 3.66236 1.89592 0
M  V30 4705 H 451.8 0.660434 0.0687261 0
M  V30 4706 H 454.33 2.00261 -0.419124 0
M  V30 4707 H 454.34 3.93361 1.08311 0
M  V30 4708 H 453.015 4.15873 -0.0470419 0
M  V30 4709 H 451.592 3.36633 1.60413 0
M  V30 4710 N 453.777 0.010035 1.57597 0
M  V30 4711 C 455.002 -0.687021 1.95691 0
M  V30 4712 C 455.427 -1.65952 0.885519 0
M  V30 4713 O 454.785 -1.80633 -0.15543 0
M  V30 4714 C 454.833 -1.3864 3.32884 0
M  V30 4715 O 453.937 -2.50115 3.27897 0
M  V30 4716 H 453.278 -0.181989 0.638573 0
M  V30 4717 H 455.808 0.0662122 2.04493 0
M  V30 4718 H 455.818 -1.74754 3.6868 0
M  V30 4719 H 454.493 -0.673411 4.10412 0
M  V30 4720 H 453.07 -2.16253 3.03791 0
M  V30 4721 N 455.255 -1.55392 -0.262866 0
M  V30 4722 C 456.483 -1.80513 -1.01108 0
M  V30 4723 C 456.898 -0.583533 -1.79556 0
M  V30 4724 O 456.255 0.447585 -1.76926 0
M  V30 4725 C 456.306 -3.03648 -1.96164 0
M  V30 4726 O 456.027 -4.2109 -1.20893 0
M  V30 4727 C 457.528 -3.41448 -2.82715 0
M  V30 4728 H 454.748 -0.601079 -0.298236 0
M  V30 4729 H 457.292 -2.02425 -0.290582 0
M  V30 4730 H 455.447 -2.83832 -2.63663 0
M  V30 4731 H 455.861 -4.90771 -1.85051 0
M  V30 4732 H 457.335 -4.30751 -3.45192 0
M  V30 4733 H 457.812 -2.61308 -3.53008 0
M  V30 4734 H 458.418 -3.63559 -2.20693 0
M  V30 4735 N 456.733 0.527833 -1.48498 0
M  V30 4736 C 457.643 1.65907 -1.65867 0
M  V30 4737 C 458.659 1.6537 -0.541192 0
M  V30 4738 O 459.835 1.84282 -0.812534 0
M  V30 4739 C 456.9 3.02364 -1.69637 0
M  V30 4740 C 455.961 3.1374 -2.93028 0
M  V30 4741 C 455.194 4.43688 -2.96609 0
M  V30 4742 O 455.417 5.30913 -2.08538 0
M  V30 4743 O 454.351 4.59475 -3.88802 0
M  V30 4744 H 458.177 1.5419 -2.61647 0
M  V30 4745 H 455.762 0.701163 -1.31924 0
M  V30 4746 H 457.644 3.83515 -1.74625 0
M  V30 4747 H 456.319 3.14401 -0.770312 0
M  V30 4748 H 455.226 2.31877 -2.93571 0
M  V30 4749 H 456.559 3.06621 -3.85026 0
M  V30 4750 N 458.211 1.37122 0.776871 0
M  V30 4751 C 459.436 1.354 1.57104 0
M  V30 4752 C 459.861 -0.0595562 1.88006 0
M  V30 4753 O 459.219 -1.03514 1.48844 0
M  V30 4754 C 459.267 2.19472 2.8612 0
M  V30 4755 O 458.371 1.59582 3.80273 0
M  V30 4756 H 457.712 0.462869 0.476076 0
M  V30 4757 H 460.242 1.80577 0.961932 0
M  V30 4758 H 460.252 2.32502 3.35271 0
M  V30 4759 H 458.927 3.22222 2.62956 0
M  V30 4760 H 457.504 1.55564 3.38902 0
M  V30 4761 N 459.689 -1.00246 1.21608 0
M  V30 4762 C 460.938 -1.73476 1.02902 0
M  V30 4763 C 461.251 -1.90643 -0.437561 0
M  V30 4764 O 462.457 -2.61105 -0.74407 0
M  V30 4765 C 460.913 -3.12079 1.79261 0
M  V30 4766 C 460.521 -3.02877 3.30106 0
M  V30 4767 C 462.265 -3.89421 1.68972 0
M  V30 4768 C 460.172 -4.36575 3.98944 0
M  V30 4769 H 459.102 -0.650408 0.381425 0
M  V30 4770 H 461.753 -1.11985 1.45367 0
M  V30 4771 H 460.135 -3.74196 1.2959 0
M  V30 4772 H 461.309 -2.49983 3.87098 0
M  V30 4773 H 459.624 -2.39022 3.40965 0
M  V30 4774 H 462.221 -4.88362 2.17731 0
M  V30 4775 H 462.564 -4.1122 0.648397 0
M  V30 4776 H 463.097 -3.33963 2.16133 0
M  V30 4777 H 459.836 -4.19978 5.03288 0
M  V30 4778 H 459.356 -4.8942 3.4674 0
M  V30 4779 H 461.035 -5.05364 4.04 0
M  V30 4780 N 461.167 -1.02423 -1.1978 0
M  V30 4781 C 462.444 -0.632802 -1.85081 0
M  V30 4782 C 462.824 0.888745 -1.9148 0
M  V30 4783 O 462.172 1.78357 -1.42832 0
M  V30 4784 C 462.382 -1.28947 -3.24305 0
M  V30 4785 C 463.73 -1.40976 -4.00513 0
M  V30 4786 O 464.754 -1.24628 -3.33686 0
M  V30 4787 O 463.613 -1.67467 -5.20209 0
M  V30 4788 H 460.707 -0.219348 -0.79738 0
M  V30 4789 H 463.253 -1.12209 -1.27307 0
M  V30 4790 H 462.025 -2.3288 -3.14456 0
M  V30 4791 H 461.648 -0.787748 -3.89718 0
M  V30 4792 N 462.645 1.35699 -0.801477 0
M  V30 4793 C 463.593 2.3177 -0.196317 0
M  V30 4794 C 464.587 1.56388 0.651081 0
M  V30 4795 O 465.793 1.71557 0.544815 0
M  V30 4796 H 462.168 0.750669 -0.0447189 0
M  V30 4797 H 464.139 2.8036 -1.02181 0
M  V30 4798 C 462.888 3.41671 0.644702 0
M  V30 4799 H 462.211 3.998 0.0019921 0
M  V30 4800 H 463.651 4.11184 1.0346 0
M  V30 4801 C 462.11 2.84271 1.80808 0
M  V30 4802 O 462.64 2.77408 2.9053 0
M  V30 4803 N 460.846 2.41391 1.61799 0
M  V30 4804 H 460.393 2.47173 0.725493 0
M  V30 4805 H 460.351 2.03334 2.39797 0
M  V30 4806 N 464.123 0.554532 1.47522 0
M  V30 4807 C 465.348 0.0322661 2.07375 0
M  V30 4808 C 465.773 -1.25079 1.40488 0
M  V30 4809 O 465.131 -1.74859 0.47896 0
M  V30 4810 C 465.179 -0.149397 3.6029 0
M  V30 4811 O 464.283 -1.21259 3.9417 0
M  V30 4812 H 463.624 0.0501228 0.662106 0
M  V30 4813 H 466.154 0.769452 1.8958 0
M  V30 4814 H 466.164 -0.364437 4.06369 0
M  V30 4815 H 464.839 0.787743 4.08372 0
M  V30 4816 H 463.416 -0.97825 3.5984 0
M  V30 4817 N 465.601 -1.54893 0.290851 0
M  V30 4818 C 466.848 -1.99933 -0.321391 0
M  V30 4819 C 467.176 -1.17927 -1.54672 0
M  V30 4820 O 466.431 -0.240902 -1.94212 0
M  V30 4821 C 466.73 -3.49815 -0.732397 0
M  V30 4822 C 466.396 -4.4921 0.390056 0
M  V30 4823 C 465.058 -4.76107 0.698223 0
M  V30 4824 C 467.41 -5.08453 1.14562 0
M  V30 4825 C 464.738 -5.59514 1.76526 0
M  V30 4826 C 467.09 -5.9302 2.2025 0
M  V30 4827 C 465.754 -6.18232 2.51684 0
M  V30 4828 H 465.024 -0.731608 -0.117605 0
M  V30 4829 H 467.671 -1.87107 0.407839 0
M  V30 4830 H 465.976 -3.60199 -1.54155 0
M  V30 4831 H 467.673 -3.82083 -1.21712 0
M  V30 4832 H 464.263 -4.28372 0.13976 0
M  V30 4833 H 468.447 -4.87683 0.920801 0
M  V30 4834 H 463.703 -5.77289 2.01364 0
M  V30 4835 H 467.877 -6.37955 2.7926 0
M  V30 4836 H 465.504 -6.82653 3.34499 0
M  V30 4837 N 467.08 -0.0183926 -1.57589 0
M  V30 4838 C 468.305 0.676634 -1.96052 0
M  V30 4839 C 468.73 1.6548 -0.894307 0
M  V30 4840 O 468.088 1.80712 0.145849 0
M  V30 4841 C 468.136 1.36872 -3.33614 0
M  V30 4842 O 467.24 2.48372 -3.29219 0
M  V30 4843 H 466.581 0.1786 -0.63953 0
M  V30 4844 H 469.111 -0.077056 -2.04455 0
M  V30 4845 H 469.121 1.72797 -3.69601 0
M  V30 4846 H 467.796 0.651636 -4.10763 0
M  V30 4847 H 466.373 2.14639 -3.04934 0
M  V30 4848 N 468.558 1.5553 0.254621 0
M  V30 4849 C 469.783 1.81383 1.00573 0
M  V30 4850 C 470.208 0.594419 1.78461 0
M  V30 4851 O 469.566 -0.456403 1.75461 0
M  V30 4852 C 469.614 3.04892 1.92545 0
M  V30 4853 O 468.718 2.81266 3.01601 0
M  V30 4854 H 468.059 0.598969 0.286587 0
M  V30 4855 H 470.589 2.02703 0.277952 0
M  V30 4856 H 470.599 3.34119 2.34155 0
M  V30 4857 H 469.274 3.93287 1.3527 0
M  V30 4858 H 467.851 2.63185 2.64174 0
M  V30 4859 N 470.036 -0.519951 1.48776 0
M  V30 4860 C 471.447 -1.10177 1.50725 0
M  V30 4861 C 471.798 -1.94153 0.282678 0
M  V30 4862 O 470.923 -2.07645 -0.609298 0
M  V30 4863 C 471.518 -2.00482 2.73116 0
M  V30 4864 C 470.077 -2.53862 2.77905 0
M  V30 4865 C 469.224 -1.31047 2.44381 0
M  V30 4866 H 472.175 -0.30473 1.55747 0
M  V30 4867 H 472.196 -2.8491 2.52203 0
M  V30 4868 H 471.708 -1.39335 3.62225 0
M  V30 4869 H 469.809 -3.18702 1.93029 0
M  V30 4870 H 469.922 -2.9231 3.79594 0
M  V30 4871 H 468.286 -1.62953 1.95751 0
M  V30 4872 H 469.069 -0.71637 3.35743 0
M  V30 4873 N 471.514 -1.37532 -0.769588 0
M  V30 4874 C 472.76 -1.33057 -1.53048 0
M  V30 4875 C 473.093 0.0841865 -1.94017 0
M  V30 4876 O 472.368 1.04198 -1.64235 0
M  V30 4877 C 472.651 -2.27166 -2.79406 0
M  V30 4878 C 472.504 -3.77429 -2.44677 0
M  V30 4879 C 473.823 -2.19683 -3.81349 0
M  V30 4880 H 470.942 -0.484655 -0.555228 0
M  V30 4881 H 473.584 -1.68251 -0.882702 0
M  V30 4882 H 471.734 -1.97283 -3.34682 0
M  V30 4883 H 473.406 -4.17918 -1.953 0
M  V30 4884 H 471.649 -3.95892 -1.77346 0
M  V30 4885 H 472.32 -4.38716 -3.35011 0
M  V30 4886 H 474.796 -2.46029 -3.35573 0
M  V30 4887 H 473.672 -2.87668 -4.67481 0
M  V30 4888 H 473.933 -1.19045 -4.25771 0
M  V30 4889 N 472.992 0.995999 -1.22138 0
M  V30 4890 C 474.408 1.25917 -0.980667 0
M  V30 4891 C 474.608 1.98819 0.327604 0
M  V30 4892 O 473.664 2.29587 1.05101 0
M  V30 4893 C 474.977 2.07399 -2.17729 0
M  V30 4894 C 476.525 2.20594 -2.22052 0
M  V30 4895 C 477 3.05462 -3.41258 0
M  V30 4896 N 478.491 3.13049 -3.41401 0
M  V30 4897 C 479.226 3.78997 -4.30289 0
M  V30 4898 N 478.722 4.46899 -5.2939 0
M  V30 4899 N 480.515 3.75728 -4.18073 0
M  V30 4900 H 472.666 0.507158 -2.06256 0
M  V30 4901 H 474.929 0.28658 -0.903646 0
M  V30 4902 H 474.635 1.61191 -3.12586 0
M  V30 4903 H 474.509 3.08154 -2.17534 0
M  V30 4904 H 476.896 2.66017 -1.27745 0
M  V30 4905 H 476.977 1.1928 -2.26287 0
M  V30 4906 H 476.621 2.60739 -4.35864 0
M  V30 4907 H 476.551 4.06911 -3.34262 0
M  V30 4908 H 479.042 2.64721 -2.69688 0
M  V30 4909 H 479.355 4.94952 -5.935 0
M  V30 4910 H 477.7 4.45657 -5.33306 0
M  V30 4911 H 480.891 3.2184 -3.39907 0
M  V30 4912 H 481.064 4.26845 -4.87553 0
M  V30 4913 N 474.47 1.03057 1.19235 0
M  V30 4914 C 475.4 0.633497 2.24742 0
M  V30 4915 C 476.381 -0.358335 1.66283 0
M  V30 4916 O 477.566 -0.240676 1.92703 0
M  V30 4917 C 474.696 -0.0147648 3.47297 0
M  V30 4918 C 473.65 0.899527 4.18441 0
M  V30 4919 C 472.976 0.116281 5.34574 0
M  V30 4920 C 474.276 2.21404 4.73051 0
M  V30 4921 H 475.97 1.5155 2.58211 0
M  V30 4922 H 473.516 0.73014 1.24117 0
M  V30 4923 H 475.469 -0.304202 4.20301 0
M  V30 4924 H 474.193 -0.931577 3.13032 0
M  V30 4925 H 472.852 1.17319 3.47321 0
M  V30 4926 H 472.5 -0.802619 4.96555 0
M  V30 4927 H 472.2 0.725293 5.83107 0
M  V30 4928 H 473.724 -0.166376 6.10373 0
M  V30 4929 H 475.138 1.98601 5.37802 0
M  V30 4930 H 473.535 2.77512 5.32078 0
M  V30 4931 H 474.605 2.86752 3.91026 0
M  V30 4932 N 475.948 -1.35272 0.808662 0
M  V30 4933 C 476.911 -2.28082 0.226093 0
M  V30 4934 C 477.911 -1.49673 -0.587762 0
M  V30 4935 O 479.101 -1.69404 -0.405943 0
M  V30 4936 C 476.233 -3.33955 -0.684596 0
M  V30 4937 H 477.426 -2.81116 1.04469 0
M  V30 4938 H 474.979 -1.45162 0.579466 0
M  V30 4939 H 475.714 -2.86111 -1.5268 0
M  V30 4940 H 475.499 -3.91965 -0.102699 0
M  V30 4941 H 476.989 -4.03219 -1.08646 0
M  V30 4942 N 477.426 -0.562348 -1.47226 0
M  V30 4943 C 478.837 -0.130325 -1.86245 0
M  V30 4944 C 479.188 1.30128 -1.46838 0
M  V30 4945 O 478.313 1.97974 -0.873805 0
M  V30 4946 C 478.908 -0.229738 -3.3802 0
M  V30 4947 C 477.467 0.14728 -3.76112 0
M  V30 4948 C 476.614 -0.574971 -2.71274 0
M  V30 4949 H 479.565 -0.771773 -1.3867 0
M  V30 4950 H 479.586 0.550316 -3.76499 0
M  V30 4951 H 479.098 -1.27178 -3.66671 0
M  V30 4952 H 477.199 1.19023 -3.53078 0
M  V30 4953 H 477.312 -0.214858 -4.78618 0
M  V30 4954 H 475.676 -0.0174756 -2.54694 0
M  V30 4955 H 476.459 -1.61827 -3.02766 0
M  V30 4956 N 478.904 1.54736 -0.299062 0
M  V30 4957 C 479.814 2.27127 0.587413 0
M  V30 4958 C 480.83 1.30575 1.15005 0
M  V30 4959 O 482.006 1.63554 1.17525 0
M  V30 4960 C 479.071 2.99645 1.74395 0
M  V30 4961 C 478.132 4.11731 1.21559 0
M  V30 4962 C 477.365 4.80781 2.317 0
M  V30 4963 O 477.588 4.4918 3.51558 0
M  V30 4964 O 476.522 5.68226 1.98501 0
M  V30 4965 H 480.348 3.037 0.000250109 0
M  V30 4966 H 477.933 1.49256 -0.0655919 0
M  V30 4967 H 479.815 3.45138 2.4178 0
M  V30 4968 H 478.49 2.25969 2.31775 0
M  V30 4969 H 477.397 3.70641 0.507514 0
M  V30 4970 H 478.73 4.87379 0.687233 0
M  V30 4971 N 480.382 0.0267497 1.57577 0
M  V30 4972 C 481.798 -0.32962 1.56159 0
M  V30 4973 C 481.998 -1.73059 1.03213 0
M  V30 4974 O 481.054 -2.43233 0.677804 0
M  V30 4975 C 482.367 -0.18039 3.00158 0
M  V30 4976 C 483.915 -0.253334 3.11973 0
M  V30 4977 C 484.39 -0.132921 4.57807 0
M  V30 4978 N 485.881 -0.189979 4.6281 0
M  V30 4979 C 486.616 -0.120554 5.73273 0
M  V30 4980 N 486.112 -0.000180315 6.928 0
M  V30 4981 N 487.905 -0.174369 5.61829 0
M  V30 4982 H 480.056 0.942896 1.90324 0
M  V30 4983 H 482.319 0.3639 0.875375 0
M  V30 4984 H 482.025 0.784576 3.42837 0
M  V30 4985 H 481.899 -0.951565 3.65 0
M  V30 4986 H 484.286 -1.20876 2.69208 0
M  V30 4987 H 484.367 0.548177 2.49857 0
M  V30 4988 H 484.011 0.819073 5.01252 0
M  V30 4989 H 483.941 -0.953264 5.179 0
M  V30 4990 H 486.432 -0.283257 3.76837 0
M  V30 4991 H 486.745 0.0461666 7.72786 0
M  V30 4992 H 485.09 0.034569 6.94991 0
M  V30 4993 H 488.281 -0.266794 4.67339 0
M  V30 4994 H 488.454 -0.116802 6.47895 0
M  V30 4995 N 481.861 -1.55662 -0.24637 0
M  V30 4996 C 482.771 -1.93495 -1.32653 0
M  V30 4997 C 483.787 -0.835462 -1.5263 0
M  V30 4998 O 484.963 -1.1369 -1.66242 0
M  V30 4999 C 482.028 -2.22242 -2.66101 0
M  V30 5000 C 481.089 -3.45625 -2.54641 0
M  V30 5001 C 480.322 -3.72991 -3.81724 0
M  V30 5002 O 480.545 -3.02421 -4.8363 0
M  V30 5003 O 479.479 -4.66515 -3.80325 0
M  V30 5004 H 483.305 -2.85498 -1.03559 0
M  V30 5005 H 480.89 -1.42551 -0.44717 0
M  V30 5006 H 482.772 -2.42037 -3.44958 0
M  V30 5007 H 481.447 -1.33417 -2.94926 0
M  V30 5008 H 480.354 -3.31136 -1.74067 0
M  V30 5009 H 481.687 -4.34754 -2.3076 0
M  V30 5010 N 483.339 0.512053 -1.4905 0
M  V30 5011 C 484.586 1.26686 -1.57978 0
M  V30 5012 C 484.914 1.92733 -0.261553 0
M  V30 5013 O 484.169 1.80772 0.749667 0
M  V30 5014 C 484.468 2.36446 -2.68008 0
M  V30 5015 C 484.134 1.87932 -4.09869 0
M  V30 5016 C 482.796 1.74419 -4.48477 0
M  V30 5017 C 485.148 1.5149 -4.98698 0
M  V30 5018 C 482.476 1.22827 -5.73699 0
M  V30 5019 C 484.828 1.01355 -6.24428 0
M  V30 5020 C 483.492 0.864735 -6.61875 0
M  V30 5021 H 482.762 0.463577 -0.578081 0
M  V30 5022 H 485.409 0.569421 -1.82838 0
M  V30 5023 H 483.714 3.11933 -2.37076 0
M  V30 5024 H 485.411 2.9453 -2.72127 0
M  V30 5025 H 482.001 1.99405 -3.79389 0
M  V30 5026 H 486.185 1.60782 -4.69535 0
M  V30 5027 H 481.441 1.10008 -6.01422 0
M  V30 5028 H 485.615 0.722351 -6.92644 0
M  V30 5029 H 483.242 0.462777 -7.5879 0
M  V30 5030 N 484.817 1.37938 0.762283 0
M  V30 5031 C 486.066 1.32989 1.51647 0
M  V30 5032 C 486.379 -0.0802922 1.95435 0
M  V30 5033 O 487.585 -0.252295 2.70325 0
M  V30 5034 C 486.041 2.33485 2.73885 0
M  V30 5035 C 485.649 3.80079 2.37157 0
M  V30 5036 C 487.393 2.37563 3.51801 0
M  V30 5037 C 485.3 4.72283 3.55954 0
M  V30 5038 H 484.23 0.494301 0.56937 0
M  V30 5039 H 486.881 1.63448 0.834083 0
M  V30 5040 H 485.263 1.96056 3.44061 0
M  V30 5041 H 486.437 4.26398 1.74704 0
M  V30 5042 H 484.752 3.79037 1.72395 0
M  V30 5043 H 487.349 3.0365 4.40114 0
M  V30 5044 H 487.692 1.39199 3.92338 0
M  V30 5045 H 488.225 2.73747 2.8863 0
M  V30 5046 H 484.964 5.7181 3.2049 0
M  V30 5047 H 484.484 4.30663 4.1748 0
M  V30 5048 H 486.163 4.89876 4.22647 0
M  V30 5049 N 486.295 -0.989507 1.22664 0
M  V30 5050 C 487.242 -2.08024 0.999733 0
M  V30 5051 C 488.212 -1.65909 -0.0797047 0
M  V30 5052 O 489.397 -1.90669 0.0705715 0
M  V30 5053 C 486.537 -3.40067 0.587234 0
M  V30 5054 C 485.65 -3.95505 1.73781 0
M  V30 5055 C 484.785 -5.15722 1.27297 0
M  V30 5056 C 483.824 -5.63305 2.39488 0
M  V30 5057 N 482.961 -6.74758 1.94026 0
M  V30 5058 H 487.801 -2.26768 1.9334 0
M  V30 5059 H 485.338 -1.11171 0.963297 0
M  V30 5060 H 487.296 -4.15899 0.329227 0
M  V30 5061 H 485.926 -3.21314 -0.309426 0
M  V30 5062 H 484.978 -3.16513 2.11006 0
M  V30 5063 H 486.29 -4.26797 2.58158 0
M  V30 5064 H 485.444 -5.98854 0.972546 0
M  V30 5065 H 484.183 -4.86061 0.399445 0
M  V30 5066 H 483.188 -4.78759 2.70315 0
M  V30 5067 H 484.413 -5.94988 3.27362 0
M  V30 5068 H 482.359 -6.46874 1.09041 0
M  V30 5069 H 482.276 -7.05386 2.71968 0
M  V30 5070 H 483.544 -7.61387 1.67062 0
M  V30 5071 N 487.773 -1.03688 -1.18687 0
M  V30 5072 C 488.998 -0.757819 -1.93059 0
M  V30 5073 C 489.423 0.678353 -1.75442 0
M  V30 5074 O 488.781 1.46938 -1.06203 0
M  V30 5075 C 488.829 -1.12423 -3.42627 0
M  V30 5076 O 487.933 -0.247505 -4.11657 0
M  V30 5077 H 487.274 -0.279245 -0.602427 0
M  V30 5078 H 489.804 -1.3857 -1.5053 0
M  V30 5079 H 489.814 -1.08454 -3.93322 0
M  V30 5080 H 488.489 -2.17049 -3.54771 0
M  V30 5081 H 487.066 -0.34649 -3.71287 0
M  V30 5082 N 489.251 1.34841 -0.815825 0
M  V30 5083 C 490.181 2.32187 -0.247298 0
M  V30 5084 C 491.162 1.5791 0.632344 0
M  V30 5085 O 492.347 1.8593 0.560698 0
M  V30 5086 C 489.477 3.42122 0.597466 0
M  V30 5087 C 488.431 4.27602 -0.184446 0
M  V30 5088 C 487.757 5.28942 0.782609 0
M  V30 5089 C 489.057 5.03502 -1.38865 0
M  V30 5090 H 490.751 2.79985 -1.06061 0
M  V30 5091 H 488.297 1.34611 -0.511461 0
M  V30 5092 H 490.25 4.09232 1.00533 0
M  V30 5093 H 488.974 2.92956 1.44376 0
M  V30 5094 H 487.633 3.62085 -0.573592 0
M  V30 5095 H 487.281 4.7604 1.62466 0
M  V30 5096 H 486.981 5.87008 0.263695 0
M  V30 5097 H 488.505 5.98922 1.18848 0
M  V30 5098 H 489.919 5.63506 -1.05518 0
M  V30 5099 H 488.316 5.71108 -1.8427 0
M  V30 5100 H 489.386 4.33608 -2.17054 0
M  V30 5101 N 490.729 0.570148 1.46925 0
M  V30 5102 C 491.662 -0.218362 2.27153 0
M  V30 5103 C 492.64 -0.90847 1.34854 0
M  V30 5104 O 493.824 -0.924875 1.64251 0
M  V30 5105 C 490.951 -1.3122 3.12248 0
M  V30 5106 C 489.997 -0.729277 4.20219 0
M  V30 5107 S 490.83 0.434159 5.33737 0
M  V30 5108 C 491.986 -0.661188 6.22398 0
M  V30 5109 H 492.219 0.462393 2.93682 0
M  V30 5110 H 489.752 0.356753 1.50222 0
M  V30 5111 H 491.71 -1.93856 3.61842 0
M  V30 5112 H 490.371 -1.96485 2.45056 0
M  V30 5113 H 489.564 -1.5511 4.79538 0
M  V30 5114 H 489.166 -0.178836 3.73572 0
M  V30 5115 H 491.458 -1.55006 6.5953 0
M  V30 5116 H 492.401 -0.105046 7.08022 0
M  V30 5117 H 492.809 -0.959682 5.56283 0
M  V30 5118 N 492.207 -1.54576 0.307264 0
M  V30 5119 C 493.17 -2.22423 -0.553224 0
M  V30 5120 C 494.17 -1.21231 -1.05639 0
M  V30 5121 O 495.36 -1.45923 -0.951419 0
M  V30 5122 C 492.492 -2.91552 -1.76664 0
M  V30 5123 H 493.685 -2.99874 0.0396484 0
M  V30 5124 H 491.238 -1.56192 0.0581629 0
M  V30 5125 H 491.973 -2.18196 -2.39918 0
M  V30 5126 H 491.758 -3.65738 -1.41343 0
M  V30 5127 H 493.248 -3.43292 -2.37783 0
M  V30 5128 N 493.685 -0.035106 -1.57561 0
M  V30 5129 C 494.934 0.641604 -1.91223 0
M  V30 5130 C 495.247 1.72944 -0.913761 0
M  V30 5131 O 496.453 2.46321 -1.14185 0
M  V30 5132 C 494.909 1.19249 -3.3957 0
M  V30 5133 C 494.517 0.137616 -4.47789 0
M  V30 5134 C 496.261 1.84537 -3.82291 0
M  V30 5135 C 494.168 0.700478 -5.87237 0
M  V30 5136 H 493.098 0.243417 -0.713627 0
M  V30 5137 H 495.749 -0.101382 -1.8322 0
M  V30 5138 H 494.131 1.98728 -3.42525 0
M  V30 5139 H 495.305 -0.635153 -4.56402 0
M  V30 5140 H 493.62 -0.416855 -4.14308 0
M  V30 5141 H 496.217 2.27616 -4.83834 0
M  V30 5142 H 496.56 2.69054 -3.17672 0
M  V30 5143 H 497.093 1.11739 -3.81784 0
M  V30 5144 H 493.832 -0.106693 -6.55413 0
M  V30 5145 H 493.352 1.4416 -5.82218 0
M  V30 5146 H 495.031 1.18837 -6.35993 0
M  V30 5147 N 495.163 1.55791 0.238111 0
M  V30 5148 C 496.411 1.77681 0.963001 0
M  V30 5149 C 496.732 0.600674 1.85518 0
M  V30 5150 O 496.002 -0.383182 1.92116 0
M  V30 5151 H 494.582 0.655315 0.358568 0
M  V30 5152 H 497.244 1.93239 0.253945 0
M  V30 5153 H 496.34 2.69177 1.57956 0
M  V30 5154 N 496.642 -0.504142 1.49319 0
M  V30 5155 C 497.589 -1.60603 1.65756 0
M  V30 5156 C 498.559 -1.58425 0.499082 0
M  V30 5157 O 499.744 -1.76459 0.725728 0
M  V30 5158 C 496.884 -2.98764 1.72726 0
M  V30 5159 C 495.997 -3.10982 2.99857 0
M  V30 5160 C 495.132 -4.39857 2.97824 0
M  V30 5161 C 494.171 -4.45697 4.19548 0
M  V30 5162 N 493.308 -5.65995 4.15444 0
M  V30 5163 H 498.148 -1.45895 2.59843 0
M  V30 5164 H 495.685 -0.709891 1.28837 0
M  V30 5165 H 497.643 -3.78839 1.74747 0
M  V30 5166 H 496.273 -3.12183 0.821075 0
M  V30 5167 H 495.325 -2.23991 3.07461 0
M  V30 5168 H 496.637 -3.11157 3.89849 0
M  V30 5169 H 495.791 -5.2825 2.98391 0
M  V30 5170 H 494.53 -4.42242 2.05604 0
M  V30 5171 H 493.535 -3.55707 4.19229 0
M  V30 5172 H 494.76 -4.4503 5.12957 0
M  V30 5173 H 492.706 -5.69229 3.26059 0
M  V30 5174 H 492.623 -5.67773 4.99169 0
M  V30 5175 H 493.891 -6.56604 4.20109 0
M  V30 5176 N 498.12 -1.38341 -0.754957 0
M  V30 5177 C 499.536 -1.19508 -1.05783 0
M  V30 5178 C 499.736 -0.0428005 -2.01455 0
M  V30 5179 O 498.792 0.611861 -2.44975 0
M  V30 5180 C 500.105 -2.52091 -1.63923 0
M  V30 5181 C 501.653 -2.58762 -1.76101 0
M  V30 5182 C 502.128 -3.91517 -2.37652 0
M  V30 5183 N 503.619 -3.93049 -2.45085 0
M  V30 5184 C 504.354 -4.9253 -2.93602 0
M  V30 5185 N 503.85 -6.02408 -3.42165 0
M  V30 5186 N 505.643 -4.79921 -2.92629 0
M  V30 5187 H 497.794 -2.1206 -0.120056 0
M  V30 5188 H 500.057 -0.94089 -0.11589 0
M  V30 5189 H 499.763 -3.36858 -1.01093 0
M  V30 5190 H 499.637 -2.70388 -2.63003 0
M  V30 5191 H 502.024 -1.74391 -2.38058 0
M  V30 5192 H 502.105 -2.44333 -0.757294 0
M  V30 5193 H 501.749 -4.76309 -1.76329 0
M  V30 5194 H 501.679 -4.03256 -3.38662 0
M  V30 5195 H 504.17 -3.13685 -2.10736 0
M  V30 5196 H 504.483 -6.74248 -3.77637 0
M  V30 5197 H 502.828 -6.0603 -3.40225 0
M  V30 5198 H 506.019 -3.93194 -2.54001 0
M  V30 5199 H 506.192 -5.57601 -3.30128 0
M  V30 5200 N 499.598 0.982988 -1.23187 0
M  V30 5201 C 500.528 2.09301 -1.03515 0
M  V30 5202 C 501.509 1.70035 0.0471136 0
M  V30 5203 O 502.694 1.93847 -0.117029 0
M  V30 5204 C 499.824 3.4167 -0.622791 0
M  V30 5205 C 498.778 3.94828 -1.65211 0
M  V30 5206 C 498.104 5.23362 -1.09527 0
M  V30 5207 C 499.404 4.2439 -3.04451 0
M  V30 5208 H 501.098 2.26016 -1.96359 0
M  V30 5209 H 498.644 1.08611 -0.945501 0
M  V30 5210 H 500.597 4.18746 -0.472233 0
M  V30 5211 H 499.321 3.24811 0.341329 0
M  V30 5212 H 497.98 3.19895 -1.79061 0
M  V30 5213 H 497.628 5.02852 -0.122211 0
M  V30 5214 H 497.328 5.59895 -1.783 0
M  V30 5215 H 498.852 6.03062 -0.956511 0
M  V30 5216 H 500.266 4.92225 -2.93917 0
M  V30 5217 H 498.663 4.72118 -3.70438 0
M  V30 5218 H 499.733 3.31765 -3.53638 0
M  V30 5219 N 501.076 1.04316 1.18135 0
M  V30 5220 C 502.039 0.640794 2.2006 0
M  V30 5221 C 503.039 -0.303124 1.57917 0
M  V30 5222 O 504.229 -0.0881855 1.73977 0
M  V30 5223 C 501.361 -0.060148 3.40847 0
M  V30 5224 H 502.554 1.54281 2.57172 0
M  V30 5225 H 500.107 0.836004 1.32063 0
M  V30 5226 H 500.842 -0.975845 3.0927 0
M  V30 5227 H 500.627 0.618319 3.87194 0
M  V30 5228 H 502.117 -0.328082 4.16309 0
M  V30 5229 N 502.554 -1.34406 0.822964 0
M  V30 5230 C 503.782 -2.02508 0.424039 0
M  V30 5231 C 504.197 -1.61975 -0.970022 0
M  V30 5232 O 503.554 -0.825228 -1.62777 0
M  V30 5233 C 503.605 -3.57789 0.516657 0
M  V30 5234 O 503.326 -3.96853 1.85577 0
M  V30 5235 C 504.827 -4.43157 0.112637 0
M  V30 5236 H 502.047 -0.649063 0.170173 0
M  V30 5237 H 504.591 -1.7168 1.11113 0
M  V30 5238 H 502.746 -3.87207 -0.122353 0
M  V30 5239 H 503.16 -4.91538 1.83005 0
M  V30 5240 H 504.634 -5.51527 0.228526 0
M  V30 5241 H 505.111 -4.28939 -0.943837 0
M  V30 5242 H 505.717 -4.19067 0.725449 0
M  V30 5243 N 504.032 -0.577932 -1.46621 0
M  V30 5244 C 504.962 0.145917 -2.33044 0
M  V30 5245 C 505.943 0.888412 -1.45056 0
M  V30 5246 O 507.128 0.864812 -1.73881 0
M  V30 5247 C 504.258 1.16322 -3.27241 0
M  V30 5248 C 503.212 0.535868 -4.24632 0
M  V30 5249 C 502.538 1.65929 -5.08303 0
M  V30 5250 C 503.838 -0.523861 -5.19666 0
M  V30 5251 H 505.532 -0.575636 -2.93814 0
M  V30 5252 H 503.078 -0.278272 -1.41286 0
M  V30 5253 H 505.031 1.67793 -3.86553 0
M  V30 5254 H 503.755 1.91498 -2.64567 0
M  V30 5255 H 502.414 0.0422759 -3.66576 0
M  V30 5256 H 502.062 2.40061 -4.42018 0
M  V30 5257 H 501.762 1.2452 -5.74255 0
M  V30 5258 H 503.286 2.17686 -5.70478 0
M  V30 5259 H 504.7 -0.0944059 -5.73222 0
M  V30 5260 H 503.097 -0.858 -5.93935 0
M  V30 5261 H 504.167 -1.41197 -4.63887 0
M  V30 5262 N 505.51 1.54411 -0.315457 0
M  V30 5263 C 506.921 1.85885 0.174265 0
M  V30 5264 C 507.272 1.23723 1.52273 0
M  V30 5265 O 506.397 0.540246 2.09548 0
M  V30 5266 C 506.992 3.37257 0.322981 0
M  V30 5267 C 505.551 3.68711 0.756922 0
M  V30 5268 C 504.698 2.77013 -0.126195 0
M  V30 5269 H 507.649 1.49374 -0.536007 0
M  V30 5270 H 507.67 3.62539 1.15522 0
M  V30 5271 H 507.182 3.82471 -0.658602 0
M  V30 5272 H 505.283 3.29024 1.74854 0
M  V30 5273 H 505.396 4.75741 0.566291 0
M  V30 5274 H 503.76 2.51588 0.39692 0
M  V30 5275 H 504.543 3.25051 -1.1044 0
M  V30 5276 N 506.988 0.0434614 1.5754 0
M  V30 5277 C 508.216 -0.641835 1.96693 0
M  V30 5278 C 508.631 -1.64832 0.920652 0
M  V30 5279 O 507.988 -1.82247 -0.095993 0
M  V30 5280 C 508.039 -1.33557 3.35924 0
M  V30 5281 O 507.76 -0.369403 4.3654 0
M  V30 5282 C 509.261 -2.11135 3.89791 0
M  V30 5283 H 506.481 -0.176013 0.647503 0
M  V30 5284 H 509.025 0.107478 2.04217 0
M  V30 5285 H 507.18 -2.03617 3.29574 0
M  V30 5286 H 507.594 -0.863674 5.1734 0
M  V30 5287 H 509.068 -2.55107 4.89514 0
M  V30 5288 H 509.545 -2.95634 3.24803 0
M  V30 5289 H 510.151 -1.46002 3.99454 0
M  V30 5290 N 508.466 -1.55915 -0.229846 0
M  V30 5291 C 509.413 -1.91734 -1.28478 0
M  V30 5292 C 510.383 -0.773539 -1.46988 0
M  V30 5293 O 511.568 -1.02871 -1.60693 0
M  V30 5294 C 508.708 -2.23224 -2.63182 0
M  V30 5295 C 507.821 -3.50497 -2.52539 0
M  V30 5296 C 506.956 -3.71474 -3.79711 0
M  V30 5297 C 505.995 -4.92289 -3.63755 0
M  V30 5298 N 505.132 -5.09698 -4.82858 0
M  V30 5299 H 509.972 -2.81692 -0.972308 0
M  V30 5300 H 507.509 -1.39429 -0.468815 0
M  V30 5301 H 509.467 -2.3949 -3.41614 0
M  V30 5302 H 508.097 -1.36451 -2.92542 0
M  V30 5303 H 507.149 -3.4247 -1.65585 0
M  V30 5304 H 508.461 -4.39079 -2.36666 0
M  V30 5305 H 507.615 -3.87791 -4.66586 0
M  V30 5306 H 506.354 -2.81157 -3.985 0
M  V30 5307 H 505.359 -4.7593 -2.75264 0
M  V30 5308 H 506.584 -5.84083 -3.46445 0
M  V30 5309 H 504.53 -4.22322 -5.01976 0
M  V30 5310 H 504.447 -5.92399 -4.69681 0
M  V30 5311 H 505.715 -5.30443 -5.71183 0
M  V30 5312 N 509.944 0.496216 -1.49584 0
M  V30 5313 C 510.854 1.62352 -1.69349 0
M  V30 5314 C 511.87 1.64184 -0.576147 0
M  V30 5315 O 513.046 1.82517 -0.85144 0
M  V30 5316 C 510.111 2.98698 -1.76013 0
M  V30 5317 C 509.172 3.07454 -2.99617 0
M  V30 5318 C 508.405 4.37296 -3.05953 0
M  V30 5319 O 508.628 5.2637 -2.19752 0
M  V30 5320 O 507.562 4.51124 -3.9846 0
M  V30 5321 H 511.388 1.48606 -2.64859 0
M  V30 5322 H 508.973 0.673022 -1.33382 0
M  V30 5323 H 510.855 3.79725 -1.82721 0
M  V30 5324 H 509.53 3.12696 -0.836828 0
M  V30 5325 H 508.437 2.25597 -2.98424 0
M  V30 5326 H 509.77 2.98385 -3.91443 0
M  V30 5327 N 511.423 1.38739 0.74761 0
M  V30 5328 C 512.355 1.32341 1.87132 0
M  V30 5329 C 513.368 0.234502 1.61102 0
M  V30 5330 O 514.557 0.492516 1.71571 0
M  V30 5331 C 511.657 1.02915 3.22896 0
M  V30 5332 C 510.83 2.22834 3.76383 0
M  V30 5333 C 509.889 1.90059 4.90677 0
M  V30 5334 O 508.915 2.62615 5.04997 0
M  V30 5335 N 510.117 0.859141 5.74107 0
M  V30 5336 H 512.882 2.29175 1.93129 0
M  V30 5337 H 510.443 1.32678 0.927805 0
M  V30 5338 H 512.435 0.79031 3.96908 0
M  V30 5339 H 511.005 0.148572 3.12247 0
M  V30 5340 H 510.225 2.62747 2.93867 0
M  V30 5341 H 511.513 3.02851 4.08851 0
M  V30 5342 H 510.911 0.257564 5.65113 0
M  V30 5343 H 509.468 0.680189 6.48241 0
M  V30 5344 N 512.901 -0.976442 1.23707 0
M  V30 5345 C 513.848 -2.06952 1.02174 0
M  V30 5346 C 514.818 -1.65984 -0.0621034 0
M  V30 5347 O 516.003 -1.90584 0.0907906 0
M  V30 5348 C 513.143 -3.39425 0.62327 0
M  V30 5349 C 512.256 -3.9364 1.77966 0
M  V30 5350 C 511.391 -5.14343 1.3276 0
M  V30 5351 C 510.43 -5.60733 2.45449 0
M  V30 5352 N 509.567 -6.72662 2.01172 0
M  V30 5353 H 514.407 -2.24704 1.95734 0
M  V30 5354 H 511.944 -1.10143 0.975034 0
M  V30 5355 H 513.902 -4.15526 0.37332 0
M  V30 5356 H 512.532 -3.21624 -0.275329 0
M  V30 5357 H 511.584 -3.14258 2.14351 0
M  V30 5358 H 512.896 -4.24035 2.62671 0
M  V30 5359 H 512.05 -5.97789 1.03601 0
M  V30 5360 H 510.789 -4.8561 0.450975 0
M  V30 5361 H 509.794 -4.75865 2.75378 0
M  V30 5362 H 511.019 -5.91483 3.33654 0
M  V30 5363 H 508.965 -6.45681 1.15895 0
M  V30 5364 H 508.882 -7.02462 2.79434 0
M  V30 5365 H 510.15 -7.59572 1.75129 0
M  V30 5366 N 514.379 -1.04941 -1.1758 0
M  V30 5367 C 515.607 -0.778294 -1.91703 0
M  V30 5368 C 516.022 0.665697 -1.76675 0
M  V30 5369 O 515.379 1.45456 -1.10222 0
M  V30 5370 C 515.43 -1.14628 -3.42845 0
M  V30 5371 O 515.151 -2.53359 -3.57409 0
M  V30 5372 C 516.652 -0.900931 -4.34049 0
M  V30 5373 H 513.872 -0.283167 -0.608323 0
M  V30 5374 H 516.416 -1.39942 -1.49119 0
M  V30 5375 H 514.571 -0.569953 -3.83184 0
M  V30 5376 H 514.985 -2.67709 -4.51035 0
M  V30 5377 H 516.459 -1.20817 -5.38616 0
M  V30 5378 H 516.936 0.163966 -4.38894 0
M  V30 5379 H 517.542 -1.46097 -3.99419 0
M  V30 5380 N 515.857 1.33968 -0.830081 0
M  V30 5381 C 516.789 2.28194 -0.21448 0
M  V30 5382 C 517.802 1.5135 0.599752 0
M  V30 5383 O 518.991 1.73286 0.42826 0
M  V30 5384 C 516.091 3.31221 0.717356 0
M  V30 5385 C 515.264 4.37365 -0.055613 0
M  V30 5386 C 514.323 5.2011 0.798231 0
M  V30 5387 O 513.349 5.68691 0.240616 0
M  V30 5388 N 514.551 5.40523 2.11695 0
M  V30 5389 H 517.316 2.81662 -1.02405 0
M  V30 5390 H 514.877 1.46568 -0.687713 0
M  V30 5391 H 516.869 3.83477 1.29334 0
M  V30 5392 H 515.439 2.78095 1.42765 0
M  V30 5393 H 514.659 3.85727 -0.812936 0
M  V30 5394 H 515.947 5.05397 -0.587444 0
M  V30 5395 H 515.345 5.0274 2.59363 0
M  V30 5396 H 513.902 5.95871 2.64162 0
M  V30 5397 N 517.335 0.585699 1.46312 0
M  V30 5398 C 518.751 0.247607 1.57668 0
M  V30 5399 C 518.951 -1.25007 1.58037 0
M  V30 5400 O 518.007 -2.03196 1.49893 0
M  V30 5401 C 519.32 0.899456 2.86933 0
M  V30 5402 C 520.868 0.873326 3.00569 0
M  V30 5403 C 521.343 1.50477 4.32574 0
M  V30 5404 N 522.834 1.46925 4.3928 0
M  V30 5405 C 523.569 1.92719 5.40044 0
M  V30 5406 N 523.065 2.46499 6.47464 0
M  V30 5407 N 524.858 1.83617 5.31264 0
M  V30 5408 H 517.009 1.55841 1.44317 0
M  V30 5409 H 519.272 0.651564 0.688599 0
M  V30 5410 H 518.978 1.95313 2.92482 0
M  V30 5411 H 518.852 0.409476 3.74971 0
M  V30 5412 H 521.239 -0.171736 2.946 0
M  V30 5413 H 521.32 1.40136 2.13999 0
M  V30 5414 H 520.964 2.54905 4.39302 0
M  V30 5415 H 520.894 0.951944 5.17924 0
M  V30 5416 H 523.385 1.07616 3.62253 0
M  V30 5417 H 523.698 2.79291 7.20567 0
M  V30 5418 H 522.043 2.50526 6.48276 0
M  V30 5419 H 525.234 1.41358 4.46246 0
M  V30 5420 H 525.407 2.19622 6.09648 0
M  V30 5421 N 518.813 -1.54241 0.323641 0
M  V30 5422 C 519.743 -2.27289 -0.534993 0
M  V30 5423 C 520.724 -1.28087 -1.11927 0
M  V30 5424 O 521.909 -1.56899 -1.14439 0
M  V30 5425 C 519.039 -3.03075 -1.69596 0
M  V30 5426 C 517.993 -4.09614 -1.24098 0
M  V30 5427 C 517.319 -4.73242 -2.4889 0
M  V30 5428 C 518.619 -5.21087 -0.355789 0
M  V30 5429 H 520.313 -2.99308 0.0743257 0
M  V30 5430 H 517.859 -1.43952 0.0371874 0
M  V30 5431 H 519.812 -3.52907 -2.30293 0
M  V30 5432 H 518.536 -2.28673 -2.33187 0
M  V30 5433 H 517.195 -3.60666 -0.656945 0
M  V30 5434 H 516.843 -3.95455 -3.10845 0
M  V30 5435 H 516.543 -5.45209 -2.19138 0
M  V30 5436 H 518.067 -5.25848 -3.10348 0
M  V30 5437 H 519.481 -5.66675 -0.869042 0
M  V30 5438 H 517.878 -5.9991 -0.151045 0
M  V30 5439 H 518.948 -4.81005 0.613339 0
M  V30 5440 N 520.291 -0.0518155 -1.57515 0
M  V30 5441 C 521.54 0.621286 -1.91893 0
M  V30 5442 C 521.853 1.71966 -0.932052 0
M  V30 5443 O 523.059 2.45096 -1.16791 0
M  V30 5444 C 521.515 1.15641 -3.40816 0
M  V30 5445 C 521.123 0.0901146 -4.47909 0
M  V30 5446 C 522.867 1.80472 -3.84227 0
M  V30 5447 C 520.774 0.638154 -5.87947 0
M  V30 5448 H 519.704 0.235835 -0.716169 0
M  V30 5449 H 522.355 -0.120809 -1.83102 0
M  V30 5450 H 520.737 1.95084 -3.44613 0
M  V30 5451 H 521.911 -0.683525 -4.55702 0
M  V30 5452 H 520.226 -0.460774 -4.13843 0
M  V30 5453 H 522.823 2.22471 -4.86221 0
M  V30 5454 H 523.166 2.65669 -3.20508 0
M  V30 5455 H 523.699 1.07683 -3.82948 0
M  V30 5456 H 520.438 -0.176202 -6.55263 0
M  V30 5457 H 519.958 1.37976 -5.83714 0
M  V30 5458 H 521.637 1.12085 -6.37217 0
M  V30 5459 N 521.769 1.56035 0.221574 0
M  V30 5460 C 522.994 1.83476 0.967026 0
M  V30 5461 C 523.419 0.632139 1.7716 0
M  V30 5462 O 522.777 -0.419082 1.7639 0
M  V30 5463 C 522.825 3.08907 1.86034 0
M  V30 5464 O 521.929 2.876 2.95567 0
M  V30 5465 H 521.27 0.604913 0.273817 0
M  V30 5466 H 523.8 2.03247 0.234893 0
M  V30 5467 H 523.81 3.3901 2.27016 0
M  V30 5468 H 522.485 3.96068 1.26898 0
M  V30 5469 H 521.062 2.6873 2.58532 0
M  V30 5470 N 523.247 -0.488276 1.49845 0
M  V30 5471 C 524.157 -1.61451 1.70207 0
M  V30 5472 C 525.173 -1.63877 0.584846 0
M  V30 5473 O 526.349 -1.82063 0.861107 0
M  V30 5474 C 523.414 -2.9776 1.77594 0
M  V30 5475 C 522.475 -3.05861 3.01243 0
M  V30 5476 C 521.708 -4.35668 3.08268 0
M  V30 5477 O 521.931 -5.25197 2.22541 0
M  V30 5478 O 520.865 -4.49005 4.00847 0
M  V30 5479 H 524.691 -1.47199 2.65643 0
M  V30 5480 H 522.276 -0.665939 1.33737 0
M  V30 5481 H 524.158 -3.7875 1.84732 0
M  V30 5482 H 522.833 -3.12248 0.8534 0
M  V30 5483 H 521.74 -2.24012 2.99616 0
M  V30 5484 H 523.073 -2.96304 3.9302 0
M  V30 5485 N 524.725 -1.39134 -0.740242 0
M  V30 5486 C 525.655 -1.40165 -1.86751 0
M  V30 5487 C 526.636 -0.265708 -1.68012 0
M  V30 5488 O 527.821 -0.47076 -1.88408 0
M  V30 5489 C 524.951 -1.2392 -3.2444 0
M  V30 5490 C 523.905 -2.34858 -3.57807 0
M  V30 5491 C 523.231 -2.03707 -4.94376 0
M  V30 5492 C 524.531 -3.77159 -3.61315 0
M  V30 5493 H 526.225 -2.345 -1.86145 0
M  V30 5494 H 523.771 -1.12875 -0.89416 0
M  V30 5495 H 525.724 -1.23263 -4.02969 0
M  V30 5496 H 524.448 -0.26051 -3.25559 0
M  V30 5497 H 523.107 -2.34723 -2.81604 0
M  V30 5498 H 522.755 -1.04289 -4.9207 0
M  V30 5499 H 522.455 -2.78016 -5.17669 0
M  V30 5500 H 523.979 -2.04691 -5.75268 0
M  V30 5501 H 525.393 -3.79252 -4.29931 0
M  V30 5502 H 523.79 -4.50784 -3.96124 0
M  V30 5503 H 524.86 -4.08513 -2.61238 0
M  V30 5504 N 526.204 0.969867 -1.24223 0
M  V30 5505 C 527.429 1.75289 -1.10853 0
M  V30 5506 C 527.854 1.85091 0.335079 0
M  V30 5507 O 527.212 1.32024 1.24255 0
M  V30 5508 C 527.26 3.15255 -1.75062 0
M  V30 5509 O 526.364 3.99589 -1.01992 0
M  V30 5510 H 525.705 0.538904 -0.387915 0
M  V30 5511 H 528.235 1.21675 -1.64488 0
M  V30 5512 H 528.245 3.65787 -1.80731 0
M  V30 5513 H 526.92 3.07436 -2.801 0
M  V30 5514 H 525.497 3.58077 -1.04094 0
M  V30 5515 N 527.682 1.05563 1.17022 0
M  V30 5516 C 528.612 0.681026 2.23348 0
M  V30 5517 C 529.593 -0.322983 1.67005 0
M  V30 5518 O 530.778 -0.199746 1.9317 0
M  V30 5519 C 527.908 0.0589053 3.4725 0
M  V30 5520 C 526.862 0.988082 4.16438 0
M  V30 5521 C 526.188 0.229646 5.34207 0
M  V30 5522 C 527.488 2.31388 4.68249 0
M  V30 5523 H 529.182 1.56993 2.54938 0
M  V30 5524 H 526.728 0.756302 1.2254 0
M  V30 5525 H 528.681 -0.214982 4.20851 0
M  V30 5526 H 527.405 -0.864968 3.14938 0
M  V30 5527 H 526.064 1.24659 3.44754 0
M  V30 5528 H 525.712 -0.697111 4.98146 0
M  V30 5529 H 525.412 0.848815 5.81437 0
M  V30 5530 H 526.936 -0.0368694 6.10589 0
M  V30 5531 H 528.35 2.09964 5.33468 0
M  V30 5532 H 526.747 2.88736 5.26072 0
M  V30 5533 H 527.817 2.94982 3.84855 0
M  V30 5534 N 529.16 -1.33526 0.837174 0
M  V30 5535 C 530.09 -2.31764 0.284206 0
M  V30 5536 C 531.071 -1.58896 -0.607142 0
M  V30 5537 O 532.256 -1.86798 -0.531047 0
M  V30 5538 C 529.386 -3.43029 -0.542962 0
M  V30 5539 C 528.34 -4.27255 0.252451 0
M  V30 5540 C 527.666 -5.3012 -0.69836 0
M  V30 5541 C 528.966 -5.01229 1.46858 0
M  V30 5542 H 530.66 -2.78262 1.10502 0
M  V30 5543 H 528.206 -1.3378 0.532812 0
M  V30 5544 H 530.159 -4.1078 -0.940096 0
M  V30 5545 H 528.883 -2.95216 -1.39697 0
M  V30 5546 H 527.542 -3.61127 0.631124 0
M  V30 5547 H 527.19 -4.78564 -1.54872 0
M  V30 5548 H 526.89 -5.87353 -0.170274 0
M  V30 5549 H 528.414 -6.00737 -1.09305 0
M  V30 5550 H 529.828 -5.61756 1.14469 0
M  V30 5551 H 528.225 -5.68104 1.93333 0
M  V30 5552 H 529.295 -4.301 2.23924 0
M  V30 5553 N 530.638 -0.59345 -1.46 0
M  V30 5554 C 531.586 0.146268 -2.3214 0
M  V30 5555 C 532.58 0.873743 -1.45128 0
M  V30 5556 O 533.786 0.790912 -1.61693 0
M  V30 5557 H 530.161 0.0660349 -0.749095 0
M  V30 5558 H 532.132 -0.598895 -2.92328 0
M  V30 5559 C 530.881 1.1396 -3.28494 0
M  V30 5560 H 530.204 0.589252 -3.95434 0
M  V30 5561 H 531.644 1.62738 -3.91526 0
M  V30 5562 C 530.103 2.20604 -2.54628 0
M  V30 5563 O 530.633 3.28128 -2.31722 0
M  V30 5564 N 528.839 1.95502 -2.15005 0
M  V30 5565 H 528.386 1.0807 -2.33834 0
M  V30 5566 H 528.344 2.67064 -1.65904 0
M  V30 5567 N 532.116 1.54067 -0.331816 0
M  V30 5568 C 533.066 2.21363 0.546101 0
M  V30 5569 C 534.05 1.19698 1.07523 0
M  V30 5570 O 535.242 1.45293 1.01088 0
M  V30 5571 C 532.371 2.98115 1.70242 0
M  V30 5572 C 531.457 4.07127 1.18779 0
M  V30 5573 N 531.848 5.04267 0.393465 0
M  V30 5574 C 530.146 4.21226 1.46576 0
M  V30 5575 C 530.847 5.81585 0.115572 0
M  V30 5576 N 529.823 5.39022 0.703987 0
M  V30 5577 H 533.625 2.93821 -0.0679751 0
M  V30 5578 H 531.139 1.61812 -0.138085 0
M  V30 5579 H 533.136 3.44818 2.34321 0
M  V30 5580 H 531.796 2.27181 2.31989 0
M  V30 5581 H 532.807 5.17888 0.0355757 0
M  V30 5582 H 529.484 3.61509 2.08848 0
M  V30 5583 H 530.874 6.6985 -0.524426 0
M  V30 5584 N 533.594 0.0601682 1.57485 0
M  V30 5585 C 534.541 -0.91112 2.12055 0
M  V30 5586 C 535.511 -1.30298 1.03013 0
M  V30 5587 O 536.696 -1.39087 1.30612 0
M  V30 5588 C 533.836 -2.1775 2.67729 0
M  V30 5589 C 532.949 -1.83933 3.90887 0
M  V30 5590 C 532.084 -3.05096 4.34845 0
M  V30 5591 C 531.123 -2.67241 5.5068 0
M  V30 5592 N 530.26 -3.81127 5.8965 0
M  V30 5593 H 535.1 -0.43888 2.9475 0
M  V30 5594 H 532.637 -0.204995 1.45665 0
M  V30 5595 H 534.595 -2.91866 2.98111 0
M  V30 5596 H 533.225 -2.62535 1.87816 0
M  V30 5597 H 532.277 -0.999287 3.6704 0
M  V30 5598 H 533.589 -1.52074 4.75052 0
M  V30 5599 H 532.743 -3.87502 4.66827 0
M  V30 5600 H 531.482 -3.40139 3.49509 0
M  V30 5601 H 530.487 -1.83254 5.18361 0
M  V30 5602 H 531.712 -2.3338 6.37738 0
M  V30 5603 H 529.658 -4.15954 5.07266 0
M  V30 5604 H 529.575 -3.52997 6.68528 0
M  V30 5605 H 530.843 -4.64145 6.2625 0
M  V30 5606 N 535.072 -1.5615 -0.213296 0
M  V30 5607 C 536.002 -1.96109 -1.26742 0
M  V30 5608 C 536.983 -0.830448 -1.48451 0
M  V30 5609 O 538.168 -1.09339 -1.60495 0
M  V30 5610 C 535.298 -2.28492 -2.61551 0
M  V30 5611 C 534.252 -3.44124 -2.54485 0
M  V30 5612 C 533.578 -3.62134 -3.93399 0
M  V30 5613 C 534.878 -4.78855 -2.08556 0
M  V30 5614 H 536.572 -2.84412 -0.935434 0
M  V30 5615 H 534.118 -1.36836 -0.44854 0
M  V30 5616 H 536.071 -2.55039 -3.3546 0
M  V30 5617 H 534.795 -1.37052 -2.96453 0
M  V30 5618 H 533.454 -3.17639 -1.83033 0
M  V30 5619 H 533.102 -2.68055 -4.25623 0
M  V30 5620 H 532.802 -4.39913 -3.89551 0
M  V30 5621 H 534.326 -3.91038 -4.68958 0
M  V30 5622 H 535.74 -5.04552 -2.72213 0
M  V30 5623 H 534.137 -5.59975 -2.1575 0
M  V30 5624 H 535.207 -4.73657 -1.03811 0
M  V30 5625 N 536.55 0.480323 -1.50102 0
M  V30 5626 C 537.961 1.06142 -1.53593 0
M  V30 5627 C 538.312 1.93335 -0.334055 0
M  V30 5628 O 537.437 2.09188 0.55403 0
M  V30 5629 C 538.032 1.9317 -2.78336 0
M  V30 5630 C 536.591 2.46405 -2.84538 0
M  V30 5631 C 535.738 1.24521 -2.4777 0
M  V30 5632 H 538.689 0.26333 -1.565 0
M  V30 5633 H 538.71 2.78123 -2.59669 0
M  V30 5634 H 538.222 1.29683 -3.65792 0
M  V30 5635 H 536.323 3.13472 -2.01411 0
M  V30 5636 H 536.436 2.82143 -3.87211 0
M  V30 5637 H 534.8 1.57706 -2.00003 0
M  V30 5638 H 535.583 0.627102 -3.37524 0
M  V30 5639 N 538.028 1.39524 0.732853 0
M  V30 5640 C 538.991 1.38189 1.82857 0
M  V30 5641 C 539.991 0.278624 1.58368 0
M  V30 5642 O 541.181 0.536639 1.65728 0
M  V30 5643 C 538.313 1.15661 3.2068 0
M  V30 5644 H 539.506 2.35692 1.85444 0
M  V30 5645 H 537.059 1.2512 0.936728 0
M  V30 5646 H 537.794 0.188482 3.23752 0
M  V30 5647 H 537.579 1.95559 3.39852 0
M  V30 5648 H 539.069 1.17472 4.00737 0
M  V30 5649 N 539.506 -0.963266 1.24736 0
M  V30 5650 C 540.922 -1.23273 1.01371 0
M  V30 5651 C 541.122 -1.99618 -0.274776 0
M  V30 5652 O 540.178 -2.32293 -0.989769 0
M  V30 5653 C 541.491 -2.01554 2.23152 0
M  V30 5654 C 543.039 -2.14629 2.27823 0
M  V30 5655 C 543.514 -2.96307 3.49237 0
M  V30 5656 N 545.005 -3.03887 3.49581 0
M  V30 5657 C 545.74 -3.67456 4.40186 0
M  V30 5658 N 545.236 -4.32706 5.41052 0
M  V30 5659 N 547.029 -3.64511 4.27888 0
M  V30 5660 H 539.18 -0.452294 2.07528 0
M  V30 5661 H 541.443 -0.262521 0.910926 0
M  V30 5662 H 541.149 -1.52847 3.1675 0
M  V30 5663 H 541.023 -3.02278 2.25628 0
M  V30 5664 H 543.41 -2.62537 1.34753 0
M  V30 5665 H 543.491 -1.13238 2.2937 0
M  V30 5666 H 543.135 -2.49091 4.42624 0
M  V30 5667 H 543.065 -3.97905 3.44933 0
M  V30 5668 H 545.556 -2.57477 2.76611 0
M  V30 5669 H 545.869 -4.79042 6.06415 0
M  V30 5670 H 544.214 -4.31361 5.44934 0
M  V30 5671 H 547.405 -3.12715 3.4832 0
M  V30 5672 H 547.578 -4.13768 4.98698 0
M  V30 5673 N 540.985 -1.06182 -1.16461 0
M  V30 5674 C 542.231 -0.779015 -1.87241 0
M  V30 5675 C 542.564 0.692715 -1.81425 0
M  V30 5676 O 541.839 1.5074 -1.22913 0
M  V30 5677 C 542.122 -1.2728 -3.36856 0
M  V30 5678 C 541.975 -2.80821 -3.51368 0
M  V30 5679 C 543.294 -0.879799 -4.31216 0
M  V30 5680 H 540.413 -0.284464 -0.679889 0
M  V30 5681 H 543.055 -1.31755 -1.36896 0
M  V30 5682 H 541.205 -0.814673 -3.79862 0
M  V30 5683 H 542.877 -3.34833 -3.17308 0
M  V30 5684 H 541.12 -3.19606 -2.93316 0
M  V30 5685 H 541.791 -3.10435 -4.56436 0
M  V30 5686 H 544.267 -1.27436 -3.96105 0
M  V30 5687 H 543.143 -1.25278 -5.34412 0
M  V30 5688 H 543.404 0.215372 -4.41575 0
M  V30 5689 N 542.463 1.3308 -0.844243 0
M  V30 5690 C 543.709 1.98304 -0.452453 0
M  V30 5691 C 544.064 1.65645 0.978746 0
M  V30 5692 O 543.357 0.928849 1.6758 0
M  V30 5693 C 543.551 3.52045 -0.616354 0
M  V30 5694 C 543.38 3.99643 -2.06193 0
M  V30 5695 C 542.15 4.27224 -2.69829 0
M  V30 5696 C 544.348 4.15471 -3.03131 0
M  V30 5697 N 542.33 4.60998 -4.05406 0
M  V30 5698 C 543.701 4.52665 -4.23668 0
M  V30 5699 C 545.756 3.97776 -2.99465 0
M  V30 5700 C 544.459 4.74011 -5.41023 0
M  V30 5701 C 546.485 4.20301 -4.16055 0
M  V30 5702 C 545.847 4.57801 -5.35348 0
M  V30 5703 H 541.946 0.752122 -0.214096 0
M  V30 5704 H 544.53 1.61096 -1.09344 0
M  V30 5705 H 542.701 3.884 -0.00513205 0
M  V30 5706 H 544.433 4.04228 -0.19548 0
M  V30 5707 H 541.188 4.18911 -2.20931 0
M  V30 5708 H 541.612 4.82087 -4.75312 0
M  V30 5709 H 546.254 3.67893 -2.08362 0
M  V30 5710 H 543.972 5.02753 -6.32665 0
M  V30 5711 H 547.558 4.08122 -4.14641 0
M  V30 5712 H 546.438 4.74884 -6.24063 0
M  V30 5713 N 543.941 0.601185 1.45683 0
M  V30 5714 C 544.871 -0.108824 2.33246 0
M  V30 5715 C 545.852 -0.865223 1.46451 0
M  V30 5716 O 547.037 -0.83704 1.75235 0
M  V30 5717 C 544.167 -1.11101 3.2905 0
M  V30 5718 C 543.121 -0.468244 4.25431 0
M  V30 5719 C 542.447 -1.57822 5.10878 0
M  V30 5720 C 543.747 0.606469 5.18767 0
M  V30 5721 H 545.441 0.622306 2.92861 0
M  V30 5722 H 542.987 0.300714 1.40825 0
M  V30 5723 H 544.94 -1.61622 3.89174 0
M  V30 5724 H 543.664 -1.87265 2.67581 0
M  V30 5725 H 542.323 0.0160484 3.66596 0
M  V30 5726 H 541.971 -2.32998 4.45781 0
M  V30 5727 H 541.671 -1.15369 5.76163 0
M  V30 5728 H 543.195 -2.08583 5.73869 0
M  V30 5729 H 544.609 0.185589 5.73 0
M  V30 5730 H 543.006 0.952381 5.92494 0
M  V30 5731 H 544.076 1.48559 4.61582 0
M  V30 5732 N 545.419 -1.53889 0.339982 0
M  V30 5733 C 546.83 -1.86139 -0.144671 0
M  V30 5734 C 547.181 -1.2613 -1.50285 0
M  V30 5735 O 546.306 -0.573515 -2.08662 0
M  V30 5736 C 546.901 -3.37728 -0.269285 0
M  V30 5737 C 545.46 -3.69868 -0.698168 0
M  V30 5738 C 544.607 -2.76777 0.170249 0
M  V30 5739 H 547.558 -1.48503 0.559704 0
M  V30 5740 H 547.579 -3.64331 -1.0974 0
M  V30 5741 H 547.091 -3.81375 0.719366 0
M  V30 5742 H 545.192 -3.31764 -1.69597 0
M  V30 5743 H 545.305 -4.76582 -0.490533 0
M  V30 5744 H 543.669 -2.52188 -0.356844 0
M  V30 5745 H 544.452 -3.23253 1.15597 0
M  V30 5746 N 546.897 -0.0685191 -1.57451 0
M  V30 5747 C 548.125 0.610462 -1.97689 0
M  V30 5748 C 548.54 1.63346 -0.946758 0
M  V30 5749 O 547.897 1.82377 0.0669868 0
M  V30 5750 C 547.948 1.28196 -3.38006 0
M  V30 5751 O 547.669 0.299906 -4.37072 0
M  V30 5752 C 549.17 2.04907 -3.931 0
M  V30 5753 H 546.39 0.165689 -0.650222 0
M  V30 5754 H 548.934 -0.139953 -2.04021 0
M  V30 5755 H 547.089 1.98348 -3.32771 0
M  V30 5756 H 547.503 0.78126 -5.18649 0
M  V30 5757 H 548.977 2.47287 -4.93511 0
M  V30 5758 H 549.454 2.9043 -3.29465 0
M  V30 5759 H 550.06 1.39629 -4.01726 0
M  V30 5760 N 548.375 1.56261 0.205012 0
M  V30 5761 C 549.338 1.92908 1.23771 0
M  V30 5762 C 550.338 0.809208 1.38955 0
M  V30 5763 O 551.528 1.07676 1.36936 0
M  V30 5764 C 548.66 2.19442 2.60879 0
M  V30 5765 H 549.853 2.85287 0.924728 0
M  V30 5766 H 547.406 1.49798 0.446125 0
M  V30 5767 H 548.141 1.29668 2.97248 0
M  V30 5768 H 547.926 3.0104 2.51232 0
M  V30 5769 H 549.416 2.48833 3.35368 0
M  V30 5770 N 549.853 -0.472356 1.50355 0
M  V30 5771 C 551.101 -1.22211 1.60962 0
M  V30 5772 C 551.422 -1.92497 0.311439 0
M  V30 5773 O 550.692 -1.8405 -0.671002 0
M  V30 5774 H 549.272 -0.454092 0.593135 0
M  V30 5775 H 551.934 -0.544977 1.87126 0
M  V30 5776 H 551.03 -1.9707 2.42012 0
M  V30 5777 N 551.331 -1.39911 -0.725443 0
M  V30 5778 C 552.578 -1.37654 -1.48518 0
M  V30 5779 C 552.906 0.0243982 -1.94485 0
M  V30 5780 O 552.161 1.00708 -1.67799 0
M  V30 5781 C 552.46 -2.30368 -2.7325 0
M  V30 5782 C 552.126 -3.77817 -2.461 0
M  V30 5783 C 550.788 -4.17991 -2.38405 0
M  V30 5784 C 553.14 -4.71036 -2.23103 0
M  V30 5785 C 550.468 -5.49433 -2.05768 0
M  V30 5786 C 552.82 -6.02766 -1.9198 0
M  V30 5787 C 551.484 -6.41993 -1.82761 0
M  V30 5788 H 550.754 -0.503713 -0.543465 0
M  V30 5789 H 553.401 -1.7249 -0.831822 0
M  V30 5790 H 551.706 -1.88683 -3.43375 0
M  V30 5791 H 553.403 -2.2591 -3.31309 0
M  V30 5792 H 549.993 -3.45982 -2.52972 0
M  V30 5793 H 554.177 -4.40823 -2.2801 0
M  V30 5794 H 549.433 -5.78738 -1.9716 0
M  V30 5795 H 553.607 -6.74519 -1.73197 0
M  V30 5796 H 551.234 -7.43761 -1.57237 0
M  V30 5797 N 552.809 0.956637 -1.25245 0
M  V30 5798 C 554.086 1.67716 -1.00651 0
M  V30 5799 C 554.466 2.0585 0.467866 0
M  V30 5800 O 553.814 1.77029 1.44475 0
M  V30 5801 C 554.024 2.90093 -1.94028 0
M  V30 5802 C 555.372 3.6209 -2.21756 0
M  V30 5803 O 556.396 3.00171 -1.9177 0
M  V30 5804 O 555.255 4.7358 -2.72735 0
M  V30 5805 H 552.349 0.733731 -0.381533 0
M  V30 5806 H 554.895 1.00974 -1.3639 0
M  V30 5807 H 553.667 2.58689 -2.93591 0
M  V30 5808 H 553.29 3.64566 -1.58674 0
M  V30 5809 N 554.287 1.06798 1.15896 0
M  V30 5810 C 555.237 0.653213 2.18443 0
M  V30 5811 C 556.221 -0.318763 1.57711 0
M  V30 5812 O 557.413 -0.133388 1.76497 0
M  V30 5813 C 554.542 0.0465785 3.43268 0
M  V30 5814 C 553.628 1.04336 4.11066 0
M  V30 5815 N 554.019 2.22084 4.54436 0
M  V30 5816 C 552.317 0.875433 4.37324 0
M  V30 5817 C 553.018 2.85276 5.06944 0
M  V30 5818 N 551.994 2.12973 5.00143 0
M  V30 5819 H 555.796 1.55011 2.49698 0
M  V30 5820 H 553.31 0.940384 1.32403 0
M  V30 5821 H 555.307 -0.26843 4.16035 0
M  V30 5822 H 553.967 -0.845504 3.13499 0
M  V30 5823 H 554.978 2.59833 4.48004 0
M  V30 5824 H 551.655 0.0357721 4.17485 0
M  V30 5825 H 553.045 3.85223 5.50503 0
M  V30 5826 N 555.766 -1.3263 0.851289 0
M  V30 5827 C 556.716 -2.26451 0.265302 0
M  V30 5828 C 557.7 -1.49814 -0.586899 0
M  V30 5829 O 558.892 -1.71525 -0.436834 0
M  V30 5830 C 556.021 -3.38895 -0.548212 0
M  V30 5831 C 555.107 -4.2292 0.316189 0
M  V30 5832 N 555.498 -4.86014 1.40084 0
M  V30 5833 C 553.796 -4.45876 0.105356 0
M  V30 5834 C 554.497 -5.48667 1.93235 0
M  V30 5835 N 553.473 -5.29455 1.232 0
M  V30 5836 H 557.275 -2.72757 1.09457 0
M  V30 5837 H 554.789 -1.4668 0.697047 0
M  V30 5838 H 556.786 -4.05111 -0.984402 0
M  V30 5839 H 555.446 -2.94135 -1.37531 0
M  V30 5840 H 556.457 -4.86212 1.78377 0
M  V30 5841 H 553.134 -4.11804 -0.687299 0
M  V30 5842 H 554.524 -6.08865 2.84135 0
M  V30 5843 N 557.244 -0.608902 -1.45362 0
M  V30 5844 C 558.49 -0.104762 -2.02529 0
M  V30 5845 C 558.823 1.26191 -1.47613 0
M  V30 5846 O 558.098 1.8327 -0.65134 0
M  V30 5847 C 558.381 -0.0672661 -3.60037 0
M  V30 5848 C 558.234 -1.4647 -4.25284 0
M  V30 5849 C 559.553 0.619877 -4.35713 0
M  V30 5850 H 556.672 -0.0395438 -0.735938 0
M  V30 5851 H 559.314 -0.781126 -1.73201 0
M  V30 5852 H 557.464 0.50871 -3.85155 0
M  V30 5853 H 559.136 -2.08785 -4.11347 0
M  V30 5854 H 557.379 -2.02502 -3.83634 0
M  V30 5855 H 558.05 -1.39069 -5.34195 0
M  V30 5856 H 560.526 0.130297 -4.15896 0
M  V30 5857 H 559.402 0.615224 -5.45441 0
M  V30 5858 H 559.663 1.68621 -4.0868 0
M  V30 5859 N 558.722 1.53707 -0.348139 0
M  V30 5860 C 559.968 2.01286 0.247332 0
M  V30 5861 C 560.301 1.23546 1.49834 0
M  V30 5862 O 559.576 0.324331 1.91777 0
M  V30 5863 C 559.859 3.55768 0.556858 0
M  V30 5864 C 559.712 4.44216 -0.706564 0
M  V30 5865 C 561.031 4.1841 1.3646 0
M  V30 5866 H 558.15 0.731677 0.0884201 0
M  V30 5867 H 560.792 1.84106 -0.469584 0
M  V30 5868 H 558.942 3.70539 1.16761 0
M  V30 5869 H 560.614 4.41274 -1.34444 0
M  V30 5870 H 558.857 4.12892 -1.33052 0
M  V30 5871 H 559.528 5.50202 -0.445186 0
M  V30 5872 H 562.004 4.07365 0.848113 0
M  V30 5873 H 560.88 5.26563 1.54992 0
M  V30 5874 H 561.141 3.7333 2.36805 0
M  V30 5875 N 560.2 0.0768682 1.57412 0
M  V30 5876 C 561.616 -0.279772 1.57129 0
M  V30 5877 C 561.816 -1.69688 1.08666 0
M  V30 5878 O 560.872 -2.40953 0.754843 0
M  V30 5879 C 562.185 -0.0848055 3.0058 0
M  V30 5880 C 563.733 -0.153954 3.12621 0
M  V30 5881 C 564.208 0.0127946 4.57998 0
M  V30 5882 N 565.699 -0.0426435 4.6318 0
M  V30 5883 C 566.434 0.0618892 5.73367 0
M  V30 5884 N 565.93 0.220229 6.9245 0
M  V30 5885 N 567.723 0.00446072 5.621 0
M  V30 5886 H 559.874 1.00297 1.87228 0
M  V30 5887 H 562.137 0.391565 0.863354 0
M  V30 5888 H 561.843 0.89325 3.40168 0
M  V30 5889 H 561.717 -0.834961 3.67843 0
M  V30 5890 H 564.104 -1.1225 2.72917 0
M  V30 5891 H 564.185 0.627389 2.47987 0
M  V30 5892 H 563.829 0.978128 4.98392 0
M  V30 5893 H 563.759 -0.788016 5.20671 0
M  V30 5894 H 566.25 -0.163226 3.77547 0
M  V30 5895 H 566.563 0.291999 7.72248 0
M  V30 5896 H 564.908 0.255658 6.9453 0
M  V30 5897 H 568.099 -0.117979 4.67951 0
M  V30 5898 H 568.272 0.0893796 6.47938 0
M  V30 5899 N 561.678 -1.56367 -0.196722 0
M  V30 5900 C 562.924 -1.80796 -0.918725 0
M  V30 5901 C 563.257 -0.650645 -1.82976 0
M  V30 5902 O 562.532 0.348889 -1.91345 0
M  V30 5903 C 562.815 -3.15472 -1.73636 0
M  V30 5904 C 562.668 -4.41693 -0.85015 0
M  V30 5905 C 563.987 -3.46824 -2.70927 0
M  V30 5906 H 561.106 -0.657702 -0.332561 0
M  V30 5907 H 563.748 -1.89086 -0.186186 0
M  V30 5908 H 561.898 -3.08536 -2.36088 0
M  V30 5909 H 563.57 -4.60673 -0.240459 0
M  V30 5910 H 561.813 -4.33517 -0.156785 0
M  V30 5911 H 562.484 -5.32419 -1.45719 0
M  V30 5912 H 564.96 -3.54049 -2.18607 0
M  V30 5913 H 563.836 -4.4218 -3.25219 0
M  V30 5914 H 564.097 -2.70236 -3.49893 0
M  V30 5915 N 563.156 0.464375 -1.50603 0
M  V30 5916 C 564.567 1.04507 -1.5471 0
M  V30 5917 C 564.918 1.9297 -0.354542 0
M  V30 5918 O 564.043 2.09763 0.531812 0
M  V30 5919 C 564.638 1.90207 -2.80369 0
M  V30 5920 C 563.197 2.43373 -2.87135 0
M  V30 5921 C 562.344 1.21886 -2.49076 0
M  V30 5922 H 565.295 0.246716 -1.56771 0
M  V30 5923 H 565.316 2.75353 -2.62604 0
M  V30 5924 H 564.828 1.25796 -3.67147 0
M  V30 5925 H 562.929 3.11318 -2.04724 0
M  V30 5926 H 563.042 2.7802 -3.90181 0
M  V30 5927 H 561.406 1.55575 -2.01664 0
M  V30 5928 H 562.189 0.591268 -3.3817 0
M  V30 5929 N 564.634 1.40294 0.718013 0
M  V30 5930 C 565.584 1.36847 1.82365 0
M  V30 5931 C 566.568 0.246424 1.59002 0
M  V30 5932 O 567.76 0.485336 1.70216 0
M  V30 5933 C 564.889 1.23105 3.20469 0
M  V30 5934 C 563.975 2.4008 3.49603 0
M  V30 5935 N 564.366 3.65562 3.49568 0
M  V30 5936 C 562.664 2.33407 3.80049 0
M  V30 5937 C 563.365 4.43015 3.76978 0
M  V30 5938 N 562.341 3.72823 3.95606 0
M  V30 5939 H 566.143 2.31811 1.80668 0
M  V30 5940 H 563.657 1.34031 0.91703 0
M  V30 5941 H 565.654 1.18718 3.9964 0
M  V30 5942 H 564.314 0.291056 3.23393 0
M  V30 5943 H 565.325 3.98756 3.30476 0
M  V30 5944 H 562.002 1.47762 3.90478 0
M  V30 5945 H 563.392 5.51859 3.83276 0
M  V30 5946 N 566.112 -0.949982 1.2575 0
M  V30 5947 C 567.34 -1.72972 1.13527 0
M  V30 5948 C 567.755 -1.8623 -0.310453 0
M  V30 5949 O 567.112 -1.36336 -1.2132 0
M  V30 5950 C 567.163 -3.14108 1.78936 0
M  V30 5951 O 566.884 -3.01493 3.17858 0
M  V30 5952 C 568.385 -4.08338 1.72554 0
M  V30 5953 H 565.605 -0.541864 0.395758 0
M  V30 5954 H 568.149 -1.19151 1.66202 0
M  V30 5955 H 566.304 -3.64858 1.30221 0
M  V30 5956 H 566.718 -3.90559 3.50092 0
M  V30 5957 H 568.192 -5.04963 2.22973 0
M  V30 5958 H 568.669 -4.33742 0.690251 0
M  V30 5959 H 569.275 -3.63506 2.2078 0
M  V30 5960 N 567.59 -1.07411 -1.15328 0
M  V30 5961 C 568.522 -0.652924 -2.19703 0
M  V30 5962 C 569.535 0.294869 -1.60107 0
M  V30 5963 O 570.724 0.0840932 -1.78302 0
M  V30 5964 C 567.824 0.061434 -3.38844 0
M  V30 5965 C 566.997 -0.902696 -4.27984 0
M  V30 5966 C 566.056 -0.225521 -5.25717 0
M  V30 5967 O 565.082 -0.86676 -5.62562 0
M  V30 5968 N 566.284 1.02858 -5.71315 0
M  V30 5969 H 569.049 -1.55081 -2.56457 0
M  V30 5970 H 566.61 -0.958883 -1.30449 0
M  V30 5971 H 568.602 0.525145 -4.01278 0
M  V30 5972 H 567.172 0.861269 -3.00501 0
M  V30 5973 H 566.392 -1.54551 -3.6264 0
M  V30 5974 H 567.68 -1.55636 -4.84412 0
M  V30 5975 H 567.078 1.56948 -5.43492 0
M  V30 5976 H 565.635 1.43596 -6.35786 0
M  V30 5977 N 569.068 1.32177 -0.85831 0
M  V30 5978 C 570.031 2.27086 -0.310588 0
M  V30 5979 C 571.031 1.51751 0.531806 0
M  V30 5980 O 572.221 1.70794 0.34279 0
M  V30 5981 C 569.353 3.36266 0.560179 0
M  V30 5982 H 570.546 2.77045 -1.1483 0
M  V30 5983 H 568.099 1.42911 -0.632942 0
M  V30 5984 H 568.834 2.9158 1.41956 0
M  V30 5985 H 568.619 3.92077 -0.0428473 0
M  V30 5986 H 570.109 4.06974 0.936056 0
M  V30 5987 N 570.547 0.616602 1.45037 0
M  V30 5988 C 571.793 0.115501 2.02471 0
M  V30 5989 C 572.126 -1.25406 1.4828 0
M  V30 5990 O 571.401 -1.82922 0.661051 0
M  V30 5991 C 571.684 0.0863588 3.59996 0
M  V30 5992 C 571.537 1.48723 4.24501 0
M  V30 5993 C 572.856 -0.596762 4.36035 0
M  V30 5994 H 569.975 0.0434461 0.735718 0
M  V30 5995 H 572.617 0.7903 1.72784 0
M  V30 5996 H 570.767 -0.488277 3.85419 0
M  V30 5997 H 572.439 2.10964 4.10234 0
M  V30 5998 H 570.682 2.04534 3.82555 0
M  V30 5999 H 571.353 1.419 5.3345 0
M  V30 6000 H 573.829 -0.10824 4.15959 0
M  V30 6001 H 572.705 -0.586289 5.4576 0
M  V30 6002 H 572.966 -1.66451 4.09569 0
M  V30 6003 N 572.025 -1.5352 0.356285 0
M  V30 6004 C 573.271 -2.01414 -0.236653 0
M  V30 6005 C 573.604 -1.24339 -1.49176 0
M  V30 6006 O 572.879 -0.334496 -1.91602 0
M  V30 6007 C 573.162 -3.56059 -0.537982 0
M  V30 6008 C 573.015 -4.43835 0.730112 0
M  V30 6009 C 574.334 -4.19127 -1.34239 0
M  V30 6010 H 571.453 -0.732135 -0.0845386 0
M  V30 6011 H 574.095 -1.83854 0.479341 0
M  V30 6012 H 572.245 -3.71153 -1.14795 0
M  V30 6013 H 573.917 -4.40555 1.36782 0
M  V30 6014 H 572.16 -4.1218 1.3524 0
M  V30 6015 H 572.831 -5.49958 0.474358 0
M  V30 6016 H 575.307 -4.07809 -0.826498 0
M  V30 6017 H 574.183 -5.27378 -1.52198 0
M  V30 6018 H 574.444 -3.74581 -2.34822 0
M  V30 6019 N 573.503 -0.0852151 -1.57369 0
M  V30 6020 C 574.433 0.874556 -2.16503 0
M  V30 6021 C 575.414 1.30111 -1.09568 0
M  V30 6022 O 576.599 1.36977 -1.37662 0
M  V30 6023 C 573.729 2.13731 -2.73745 0
M  V30 6024 C 572.683 1.84971 -3.85966 0
M  V30 6025 C 572.009 3.17991 -4.29867 0
M  V30 6026 C 573.309 1.14442 -5.09608 0
M  V30 6027 H 575.003 0.381899 -2.96954 0
M  V30 6028 H 572.549 0.18225 -1.42842 0
M  V30 6029 H 574.502 2.81302 -3.13763 0
M  V30 6030 H 573.226 2.65263 -1.90534 0
M  V30 6031 H 571.885 1.19801 -3.46473 0
M  V30 6032 H 571.533 3.6739 -3.4356 0
M  V30 6033 H 571.233 2.99534 -5.05523 0
M  V30 6034 H 572.757 3.86737 -4.72511 0
M  V30 6035 H 574.171 1.72105 -5.46857 0
M  V30 6036 H 572.568 1.06197 -5.90629 0
M  V30 6037 H 573.638 0.12559 -4.84737 0
M  V30 6038 N 574.981 1.5647 0.188427 0
M  V30 6039 C 575.929 1.95971 1.25293 0
M  V30 6040 C 576.923 0.846047 1.4676 0
M  V30 6041 O 578.129 1.03109 1.47542 0
M  V30 6042 H 574.504 0.623253 0.420784 0
M  V30 6043 H 576.475 2.84731 0.892792 0
M  V30 6044 C 575.224 2.32116 2.58877 0
M  V30 6045 H 574.547 3.17341 2.43176 0
M  V30 6046 H 575.987 2.63613 3.3209 0
M  V30 6047 C 574.446 1.15823 3.16365 0
M  V30 6048 O 574.976 0.436785 3.99318 0
M  V30 6049 N 573.182 0.933278 2.75206 0
M  V30 6050 H 572.729 1.52169 2.07852 0
M  V30 6051 H 572.687 0.156976 3.14008 0
M  V30 6052 N 576.459 -0.456382 1.50847 0
M  V30 6053 C 577.684 -1.2349 1.66628 0
M  V30 6054 C 578.109 -1.84715 0.355254 0
M  V30 6055 O 577.467 -1.67961 -0.682559 0
M  V30 6056 C 577.515 -2.30865 2.77009 0
M  V30 6057 O 576.619 -3.35882 2.39285 0
M  V30 6058 H 575.96 -0.36266 0.556214 0
M  V30 6059 H 578.49 -0.541374 1.97308 0
M  V30 6060 H 578.5 -2.75949 3.00526 0
M  V30 6061 H 577.175 -1.85677 3.72152 0
M  V30 6062 H 575.752 -2.96406 2.26269 0
M  V30 6063 N 577.937 -1.40673 -0.710563 0
M  V30 6064 C 578.884 -1.41336 -1.82463 0
M  V30 6065 C 579.854 -0.269648 -1.63897 0
M  V30 6066 O 581.039 -0.468463 -1.8496 0
M  V30 6067 C 578.179 -1.28665 -3.20218 0
M  V30 6068 C 577.292 -2.52784 -3.5032 0
M  V30 6069 C 576.427 -2.32517 -4.77608 0
M  V30 6070 C 575.466 -3.52187 -5.0063 0
M  V30 6071 N 574.603 -3.31084 -6.19135 0
M  V30 6072 H 579.443 -2.36558 -1.8123 0
M  V30 6073 H 576.98 -1.17483 -0.885226 0
M  V30 6074 H 578.938 -1.19324 -3.99772 0
M  V30 6075 H 577.568 -0.370602 -3.20666 0
M  V30 6076 H 576.62 -2.72634 -2.65283 0
M  V30 6077 H 577.932 -3.41845 -3.63241 0
M  V30 6078 H 577.086 -2.20558 -5.65189 0
M  V30 6079 H 575.825 -1.40889 -4.66906 0
M  V30 6080 H 574.83 -3.64617 -4.11502 0
M  V30 6081 H 576.055 -4.44749 -5.13201 0
M  V30 6082 H 574.001 -2.42143 -6.09674 0
M  V30 6083 H 573.918 -4.13713 -6.32754 0
M  V30 6084 H 575.186 -3.22868 -7.0949 0
M  V30 6085 N 579.415 0.9433 -1.26252 0
M  V30 6086 C 580.692 1.66639 -1.02424 0
M  V30 6087 C 581.072 2.06335 0.446006 0
M  V30 6088 O 580.42 1.78551 1.42589 0
M  V30 6089 C 580.63 2.88019 -1.97094 0
M  V30 6090 C 581.978 3.59718 -2.25584 0
M  V30 6091 O 583.002 2.9812 -1.94943 0
M  V30 6092 O 581.861 4.7066 -2.77743 0
M  V30 6093 H 578.955 0.729643 -0.389294 0
M  V30 6094 H 581.501 0.995218 -1.37454 0
M  V30 6095 H 580.273 2.5556 -2.96319 0
M  V30 6096 H 579.896 3.62863 -1.62532 0
M  V30 6097 N 580.893 1.08022 1.14757 0
M  V30 6098 C 581.84 0.706657 2.19716 0
M  V30 6099 C 582.81 -0.30525 1.63271 0
M  V30 6100 O 583.995 -0.19015 1.8985 0
M  V30 6101 C 581.135 0.117914 3.44898 0
M  V30 6102 C 580.248 1.18212 4.15512 0
M  V30 6103 C 579.383 0.557659 5.28265 0
M  V30 6104 C 578.422 1.60418 5.90705 0
M  V30 6105 N 577.559 1.0018 6.94916 0
M  V30 6106 H 582.399 1.60603 2.51019 0
M  V30 6107 H 579.936 0.802664 1.23271 0
M  V30 6108 H 581.894 -0.241112 4.16503 0
M  V30 6109 H 580.524 -0.744788 3.1409 0
M  V30 6110 H 579.576 1.65863 3.42335 0
M  V30 6111 H 580.888 1.97533 4.5802 0
M  V30 6112 H 580.042 0.146654 6.06523 0
M  V30 6113 H 578.781 -0.267249 4.86967 0
M  V30 6114 H 577.786 2.02489 5.11154 0
M  V30 6115 H 579.011 2.43149 6.34078 0
M  V30 6116 H 576.957 0.197917 6.55701 0
M  V30 6117 H 576.874 1.73216 7.35889 0
M  V30 6118 H 578.142 0.616523 7.77058 0
M  V30 6119 N 582.371 -1.3172 0.865308 0
M  V30 6120 C 583.334 -2.26918 0.322627 0
M  V30 6121 C 584.334 -1.52031 -0.523751 0
M  V30 6122 O 585.524 -1.70973 -0.333727 0
M  V30 6123 C 582.656 -3.36558 -0.542338 0
M  V30 6124 H 583.849 -2.76432 1.16298 0
M  V30 6125 H 581.402 -1.42573 0.640512 0
M  V30 6126 H 582.137 -2.92329 -1.40407 0
M  V30 6127 H 581.922 -3.92048 0.0636395 0
M  V30 6128 H 583.412 -4.07465 -0.91446 0
M  V30 6129 N 583.85 -0.624285 -1.44708 0
M  V30 6130 C 585.26 -0.2092 -1.85524 0
M  V30 6131 C 585.611 1.23783 -1.52225 0
M  V30 6132 O 584.736 1.94089 -0.956986 0
M  V30 6133 C 585.332 -0.372897 -3.36742 0
M  V30 6134 C 583.891 -0.012374 -3.76398 0
M  V30 6135 C 583.038 -0.68951 -2.68591 0
M  V30 6136 H 585.989 -0.829894 -1.35272 0
M  V30 6137 H 586.01 0.390134 -3.78495 0
M  V30 6138 H 585.522 -1.42615 -3.60947 0
M  V30 6139 H 583.623 1.03941 -3.57809 0
M  V30 6140 H 583.736 -0.417663 -4.77276 0
M  V30 6141 H 582.1 -0.125484 -2.54391 0
M  V30 6142 H 582.883 -1.74522 -2.9563 0
M  V30 6143 N 585.328 1.53329 -0.364422 0
M  V30 6144 C 586.558 2.05359 0.226096 0
M  V30 6145 C 586.966 1.23777 1.43094 0
M  V30 6146 O 586.309 0.271139 1.81688 0
M  V30 6147 C 586.371 3.52918 0.684794 0
M  V30 6148 C 586.035 4.55218 -0.403206 0
M  V30 6149 C 587.032 5.04583 -1.2527 0
M  V30 6150 C 584.717 4.99134 -0.563117 0
M  V30 6151 C 586.711 5.96463 -2.24745 0
M  V30 6152 C 584.398 5.9082 -1.56124 0
M  V30 6153 C 585.396 6.39375 -2.40184 0
M  V30 6154 O 585.084 7.29255 -3.38293 0
M  V30 6155 H 584.816 0.674588 0.0436772 0
M  V30 6156 H 587.37 1.98688 -0.520782 0
M  V30 6157 H 585.6 3.57122 1.48326 0
M  V30 6158 H 587.289 3.87812 1.19818 0
M  V30 6159 H 588.055 4.71403 -1.14034 0
M  V30 6160 H 583.934 4.60928 0.0813909 0
M  V30 6161 H 587.478 6.34285 -2.90393 0
M  V30 6162 H 583.375 6.23414 -1.67407 0
M  V30 6163 H 584.143 7.47249 -3.34009 0
M  V30 6164 N 586.806 0.0935595 1.57322 0
M  V30 6165 C 587.736 -0.863062 2.16964 0
M  V30 6166 C 588.717 -1.29528 1.10256 0
M  V30 6167 O 589.902 -1.36245 1.38387 0
M  V30 6168 C 587.032 -2.12276 2.74875 0
M  V30 6169 C 585.986 -1.82921 3.86942 0
M  V30 6170 C 585.312 -3.15707 4.31548 0
M  V30 6171 C 586.612 -1.11737 5.10208 0
M  V30 6172 H 588.306 -0.366145 2.97153 0
M  V30 6173 H 585.852 -0.174673 1.42937 0
M  V30 6174 H 587.805 -2.79634 3.1525 0
M  V30 6175 H 586.529 -2.64248 1.91938 0
M  V30 6176 H 585.188 -1.17961 3.47103 0
M  V30 6177 H 584.836 -3.65563 3.45504 0
M  V30 6178 H 584.536 -2.96849 5.07104 0
M  V30 6179 H 586.06 -3.84226 4.74555 0
M  V30 6180 H 587.474 -1.69203 5.47762 0
M  V30 6181 H 585.871 -1.03064 5.91183 0
M  V30 6182 H 586.941 -0.0998818 4.84797 0
M  V30 6183 N 588.284 -1.56567 -0.180126 0
M  V30 6184 C 589.533 -1.80685 -0.896426 0
M  V30 6185 C 589.846 -0.669335 -1.83791 0
M  V30 6186 O 591.052 -0.795209 -2.59593 0
M  V30 6187 C 589.508 -3.20132 -1.6445 0
M  V30 6188 C 589.116 -4.41727 -0.747088 0
M  V30 6189 C 590.86 -3.53549 -2.34955 0
M  V30 6190 C 588.767 -5.72195 -1.49489 0
M  V30 6191 H 587.697 -0.673758 -0.338477 0
M  V30 6192 H 590.348 -1.8289 -0.149467 0
M  V30 6193 H 588.73 -3.12218 -2.43589 0
M  V30 6194 H 589.904 -4.608 0.00671129 0
M  V30 6195 H 588.219 -4.16122 -0.152134 0
M  V30 6196 H 590.816 -4.48267 -2.91481 0
M  V30 6197 H 591.159 -2.78006 -3.09868 0
M  V30 6198 H 591.692 -3.62976 -1.62768 0
M  V30 6199 H 588.431 -6.50743 -0.788251 0
M  V30 6200 H 587.951 -5.57115 -2.22224 0
M  V30 6201 H 589.63 -6.1384 -2.04472 0
M  V30 6202 N 589.762 0.448376 -1.51087 0
M  V30 6203 C 590.992 1.21965 -1.66757 0
M  V30 6204 C 591.4 1.85748 -0.359753 0
M  V30 6205 O 590.743 1.71022 0.670604 0
M  V30 6206 C 590.805 2.35284 -2.71812 0
M  V30 6207 C 590.469 1.91957 -4.1473 0
M  V30 6208 C 591.466 1.42921 -4.9987 0
M  V30 6209 C 589.151 1.99985 -4.60772 0
M  V30 6210 C 591.145 1.02485 -6.29107 0
M  V30 6211 C 588.832 1.5916 -5.90009 0
M  V30 6212 C 589.83 1.10491 -6.74004 0
M  V30 6213 O 589.518 0.702413 -8.00825 0
M  V30 6214 H 589.25 0.374125 -0.563034 0
M  V30 6215 H 591.804 0.538927 -1.98204 0
M  V30 6216 H 590.034 3.06599 -2.35657 0
M  V30 6217 H 591.723 2.97184 -2.76472 0
M  V30 6218 H 592.489 1.36123 -4.65506 0
M  V30 6219 H 588.368 2.36814 -3.95525 0
M  V30 6220 H 591.912 0.644271 -6.94619 0
M  V30 6221 H 587.809 1.65626 -6.2389 0
M  V30 6222 H 588.577 0.829248 -8.14288 0
M  V30 6223 N 591.24 1.41047 0.703093 0
M  V30 6224 C 592.486 1.40207 1.46526 0
M  V30 6225 C 592.819 0.00847763 1.94198 0
M  V30 6226 O 592.094 -0.962437 1.69019 0
M  V30 6227 C 592.377 2.40238 2.6825 0
M  V30 6228 C 592.23 3.88674 2.26391 0
M  V30 6229 C 593.549 2.37627 3.70434 0
M  V30 6230 H 590.668 0.510594 0.531472 0
M  V30 6231 H 593.31 1.72271 0.801422 0
M  V30 6232 H 591.46 2.13026 3.24888 0
M  V30 6233 H 593.132 4.2676 1.75138 0
M  V30 6234 H 591.375 4.03903 1.58255 0
M  V30 6235 H 592.046 4.542 3.13698 0
M  V30 6236 H 594.522 2.61759 3.23452 0
M  V30 6237 H 593.398 3.09645 4.53223 0
M  V30 6238 H 593.659 1.39223 4.19606 0
M  V30 6239 N 592.718 -0.936591 1.26751 0
M  V30 6240 C 593.628 -2.06949 1.10496 0
M  V30 6241 C 594.644 -1.7396 0.037271 0
M  V30 6242 O 595.82 -1.99941 0.241944 0
M  V30 6243 C 592.885 -3.38612 0.744491 0
M  V30 6244 C 591.946 -3.85355 1.89209 0
M  V30 6245 C 591.179 -5.10735 1.54873 0
M  V30 6246 O 591.402 -5.68602 0.452546 0
M  V30 6247 O 590.336 -5.52632 2.38499 0
M  V30 6248 H 594.162 -2.23571 2.05547 0
M  V30 6249 H 591.747 -1.05428 1.05855 0
M  V30 6250 H 593.629 -4.17711 0.556396 0
M  V30 6251 H 592.304 -3.23218 -0.176582 0
M  V30 6252 H 591.211 -3.07182 2.13518 0
M  V30 6253 H 592.544 -4.05277 2.79305 0
M  V30 6254 N 594.196 -1.08629 -1.14182 0
M  V30 6255 C 595.442 -0.818556 -1.85546 0
M  V30 6256 C 595.775 0.654076 -1.82854 0
M  V30 6257 O 595.05 1.48099 -1.26083 0
M  V30 6258 C 595.333 -1.34397 -3.3408 0
M  V30 6259 C 595.186 -2.8821 -3.45333 0
M  V30 6260 C 596.505 -0.971069 -4.29253 0
M  V30 6261 H 593.624 -0.298821 -0.673702 0
M  V30 6262 H 596.266 -1.34629 -1.34071 0
M  V30 6263 H 594.416 -0.895064 -3.78049 0
M  V30 6264 H 596.088 -3.41488 -3.10134 0
M  V30 6265 H 594.331 -3.25756 -2.86471 0
M  V30 6266 H 595.002 -3.20047 -4.49749 0
M  V30 6267 H 597.478 -1.35809 -3.93313 0
M  V30 6268 H 596.354 -1.36586 -5.31635 0
M  V30 6269 H 596.615 0.121659 -4.41933 0
M  V30 6270 N 595.674 1.31259 -0.872281 0
M  V30 6271 C 596.604 2.30929 -0.345554 0
M  V30 6272 C 597.585 1.60449 0.5648 0
M  V30 6273 O 598.77 1.8814 0.481335 0
M  V30 6274 C 595.9 3.44348 0.451823 0
M  V30 6275 C 594.854 4.26435 -0.365641 0
M  V30 6276 C 594.18 5.31785 0.557562 0
M  V30 6277 C 595.48 4.97159 -1.60095 0
M  V30 6278 H 597.174 2.75234 -1.17841 0
M  V30 6279 H 594.72 1.3232 -0.568094 0
M  V30 6280 H 596.673 4.13128 0.830854 0
M  V30 6281 H 595.397 2.98816 1.31821 0
M  V30 6282 H 594.056 3.59326 -0.726649 0
M  V30 6283 H 593.704 4.82502 1.4213 0
M  V30 6284 H 593.404 5.87598 0.0144878 0
M  V30 6285 H 594.928 6.03424 0.933387 0
M  V30 6286 H 596.342 5.58523 -1.29323 0
M  V30 6287 H 594.739 5.62779 -2.08327 0
M  V30 6288 H 595.809 4.24012 -2.35249 0
M  V30 6289 N 597.152 0.631951 1.44375 0
M  V30 6290 C 598.062 -0.073674 2.34484 0
M  V30 6291 C 599.078 -0.834825 1.52665 0
M  V30 6292 O 600.254 -0.786902 1.85391 0
M  V30 6293 C 597.319 -1.04247 3.30656 0
M  V30 6294 C 596.38 -0.280602 4.28382 0
M  V30 6295 C 595.613 -1.20325 5.19959 0
M  V30 6296 O 595.836 -2.44199 5.15484 0
M  V30 6297 O 594.77 -0.687128 5.97965 0
M  V30 6298 H 598.596 0.667477 2.96274 0
M  V30 6299 H 596.181 0.392144 1.44162 0
M  V30 6300 H 598.063 -1.59981 3.89851 0
M  V30 6301 H 596.738 -1.76422 2.71398 0
M  V30 6302 H 595.645 0.319804 3.72731 0
M  V30 6303 H 596.978 0.401144 4.90563 0
M  V30 6304 N 598.631 -1.53133 0.372548 0
M  V30 6305 C 599.871 -2.03267 -0.214943 0
M  V30 6306 C 600.235 -1.25362 -1.45425 0
M  V30 6307 O 601.436 -1.65536 -2.11781 0
M  V30 6308 C 599.707 -3.53985 -0.492897 0
M  V30 6309 S 601.266 -4.25977 -1.05307 0
M  V30 6310 H 598.084 -0.708289 -0.062029 0
M  V30 6311 H 600.686 -1.88539 0.517025 0
M  V30 6312 H 599.39 -4.08282 0.416442 0
M  V30 6313 H 598.921 -3.72887 -1.25375 0
M  V30 6314 H 600.936 -4.37731 -2.33679 0
M  V30 6315 N 600.109 -0.101901 -1.5727 0
M  V30 6316 C 601.019 0.868647 -2.17926 0
M  V30 6317 C 602.035 1.30527 -1.1506 0
M  V30 6318 O 603.211 1.37178 -1.47459 0
M  V30 6319 C 600.276 2.10727 -2.75309 0
M  V30 6320 C 599.337 1.7242 -3.93154 0
M  V30 6321 C 598.57 2.90377 -4.47791 0
M  V30 6322 O 598.793 4.05305 -4.01353 0
M  V30 6323 O 597.727 2.6845 -5.38719 0
M  V30 6324 H 601.553 0.382544 -3.01281 0
M  V30 6325 H 599.138 0.122812 -1.48894 0
M  V30 6326 H 601.02 2.83303 -3.11958 0
M  V30 6327 H 599.695 2.58376 -1.94996 0
M  V30 6328 H 598.602 0.970039 -3.61305 0
M  V30 6329 H 599.935 1.29528 -4.74851 0
M  V30 6330 N 601.587 1.56661 0.17182 0
M  V30 6331 C 602.535 1.97289 1.23207 0
M  V30 6332 C 603.529 0.861566 1.45854 0
M  V30 6333 O 604.735 1.04668 1.4644 0
M  V30 6334 H 601.11 0.627681 0.41415 0
M  V30 6335 H 603.081 2.85662 0.862542 0
M  V30 6336 C 601.83 2.34849 2.564 0
M  V30 6337 H 601.153 3.19903 2.39797 0
M  V30 6338 H 602.593 2.67121 3.29276 0
M  V30 6339 C 601.052 1.19172 3.15119 0
M  V30 6340 O 601.582 0.479113 3.98833 0
M  V30 6341 N 599.788 0.962415 2.74201 0
M  V30 6342 H 599.335 1.54365 2.06226 0
M  V30 6343 H 599.293 0.190272 3.13824 0
M  V30 6344 N 603.065 -0.440357 1.51323 0
M  V30 6345 C 604.312 -1.19004 1.63842 0
M  V30 6346 C 604.64 -1.91266 0.35321 0
M  V30 6347 O 603.895 -1.84143 -0.662565 0
M  V30 6348 C 604.194 -2.2339 2.78984 0
M  V30 6349 C 603.86 -1.68162 4.18369 0
M  V30 6350 C 602.522 -1.52823 4.56288 0
M  V30 6351 C 604.874 -1.27524 5.05358 0
M  V30 6352 C 602.202 -0.953157 5.78906 0
M  V30 6353 C 604.554 -0.714474 6.28552 0
M  V30 6354 C 603.218 -0.547961 6.65247 0
M  V30 6355 H 602.488 -0.435468 0.59954 0
M  V30 6356 H 605.135 -0.481538 1.85347 0
M  V30 6357 H 603.44 -3.00267 2.51688 0
M  V30 6358 H 605.137 -2.81211 2.85869 0
M  V30 6359 H 601.727 -1.81077 3.8847 0
M  V30 6360 H 605.911 -1.38197 4.76671 0
M  V30 6361 H 601.167 -0.811882 6.05986 0
M  V30 6362 H 605.341 -0.391059 6.95301 0
M  V30 6363 H 602.968 -0.100222 7.60134 0
M  V30 6364 N 604.543 -1.41418 -0.695603 0
M  V30 6365 C 605.82 -1.31264 -1.45014 0
M  V30 6366 C 606.2 0.0597994 -2.11015 0
M  V30 6367 O 605.548 1.07403 -2.01685 0
M  V30 6368 C 605.758 -2.466 -2.4696 0
M  V30 6369 C 607.106 -2.87763 -3.12214 0
M  V30 6370 O 608.13 -2.46339 -2.57285 0
M  V30 6371 O 606.989 -3.59395 -4.11701 0
M  V30 6372 H 604.083 -0.516576 -0.645816 0
M  V30 6373 H 606.629 -1.53382 -0.726084 0
M  V30 6374 H 605.401 -3.38183 -1.96845 0
M  V30 6375 H 605.024 -2.26358 -3.26876 0
M  V30 6376 N 606.021 0.929856 -1.27246 0
M  V30 6377 C 607.249 1.71144 -1.16265 0
M  V30 6378 C 607.664 1.867 0.280786 0
M  V30 6379 O 607.021 1.38249 1.19136 0
M  V30 6380 C 607.072 3.11222 -1.83911 0
M  V30 6381 O 606.793 2.96398 -3.22614 0
M  V30 6382 C 608.294 4.05541 -1.79028 0
M  V30 6383 H 605.514 0.535499 -0.404328 0
M  V30 6384 H 608.058 1.16492 -1.68077 0
M  V30 6385 H 606.213 3.6274 -1.36009 0
M  V30 6386 H 606.627 3.8494 -3.56261 0
M  V30 6387 H 608.101 5.01351 -2.30978 0
M  V30 6388 H 608.578 4.32589 -0.759168 0
M  V30 6389 H 609.184 3.59947 -2.26535 0
M  V30 6390 N 607.499 1.09233 1.13605 0
M  V30 6391 C 608.727 0.848908 1.88683 0
M  V30 6392 C 609.142 -0.599667 1.79024 0
M  V30 6393 O 608.499 -1.41265 1.15544 0
M  V30 6394 C 608.55 1.27273 3.38355 0
M  V30 6395 O 608.271 2.66449 3.47759 0
M  V30 6396 C 609.772 1.0614 4.30406 0
M  V30 6397 H 606.992 0.305549 0.597395 0
M  V30 6398 H 609.536 1.4538 1.43823 0
M  V30 6399 H 607.691 0.711776 3.80805 0
M  V30 6400 H 608.105 2.84264 4.40788 0
M  V30 6401 H 609.579 1.40725 5.33761 0
M  V30 6402 H 610.056 -0.000960332 4.392 0
M  V30 6403 H 610.662 1.60821 3.93722 0
M  V30 6404 N 608.977 -1.30795 0.87923 0
M  V30 6405 C 610.202 -2.01063 0.508769 0
M  V30 6406 C 610.627 -1.65508 -0.893803 0
M  V30 6407 O 609.985 -0.868616 -1.59138 0
M  V30 6408 C 610.033 -3.54054 0.683991 0
M  V30 6409 O 609.137 -4.11498 -0.272654 0
M  V30 6410 H 608.478 -0.632786 0.201191 0
M  V30 6411 H 611.008 -1.66776 1.18519 0
M  V30 6412 H 611.018 -4.03845 0.580798 0
M  V30 6413 H 609.693 -3.79271 1.70665 0
M  V30 6414 H 608.27 -3.72695 -0.12364 0
M  V30 6415 N 610.455 -0.639598 -1.44038 0
M  V30 6416 C 611.701 -0.147698 -2.02261 0
M  V30 6417 C 612.034 1.23031 -1.50256 0
M  V30 6418 O 611.309 1.81847 -0.690068 0
M  V30 6419 C 611.592 -0.14362 -3.59813 0
M  V30 6420 C 611.445 -1.55458 -4.22082 0
M  V30 6421 C 612.764 0.527317 -4.36929 0
M  V30 6422 H 609.883 -0.0551453 -0.734934 0
M  V30 6423 H 612.525 -0.817688 -1.71505 0
M  V30 6424 H 610.675 0.426898 -3.86147 0
M  V30 6425 H 612.347 -2.17464 -4.06826 0
M  V30 6426 H 610.59 -2.10594 -3.79253 0
M  V30 6427 H 611.261 -1.50369 -5.31124 0
M  V30 6428 H 613.737 0.0420504 -4.16079 0
M  V30 6429 H 612.613 0.499389 -5.46624 0
M  V30 6430 H 612.874 1.59914 -4.12165 0
M  V30 6431 N 611.933 1.52934 -0.380664 0
M  V30 6432 C 613.344 1.86457 0.0952684 0
M  V30 6433 C 613.695 1.3007 1.46889 0
M  V30 6434 O 612.82 0.628636 2.07068 0
M  V30 6435 C 613.415 3.38323 0.179648 0
M  V30 6436 C 611.974 3.71589 0.599858 0
M  V30 6437 C 611.121 2.76228 -0.243572 0
M  V30 6438 H 614.072 1.46966 -0.59888 0
M  V30 6439 H 614.093 3.67113 1.00042 0
M  V30 6440 H 613.605 3.79333 -0.820228 0
M  V30 6441 H 611.706 3.36144 1.60742 0
M  V30 6442 H 611.819 4.77715 0.364003 0
M  V30 6443 H 610.183 2.53045 0.289855 0
M  V30 6444 H 610.966 3.20074 -1.24127 0
M  V30 6445 N 613.412 0.11024 1.57214 0
M  V30 6446 C 614.375 -0.828808 2.1369 0
M  V30 6447 C 615.375 -1.20059 1.06969 0
M  V30 6448 O 616.565 -1.12754 1.32786 0
M  V30 6449 C 613.697 -2.11959 2.66994 0
M  V30 6450 H 614.89 -0.338146 2.97988 0
M  V30 6451 H 612.443 -0.138913 1.55681 0
M  V30 6452 H 613.178 -2.65476 1.8626 0
M  V30 6453 H 612.963 -1.86258 3.45037 0
M  V30 6454 H 614.453 -2.79105 3.10629 0
M  V30 6455 N 614.89 -1.56749 -0.16351 0
M  V30 6456 C 616.306 -1.51043 -0.515567 0
M  V30 6457 C 616.506 -0.815855 -1.84245 0
M  V30 6458 O 615.562 -0.379477 -2.49632 0
M  V30 6459 C 616.875 -2.95791 -0.541114 0
M  V30 6460 C 618.423 -3.0664 -0.627776 0
M  V30 6461 C 618.898 -4.52861 -0.684141 0
M  V30 6462 N 620.389 -4.5714 -0.746818 0
M  V30 6463 C 621.124 -5.67634 -0.811137 0
M  V30 6464 N 620.62 -6.8774 -0.835811 0
M  V30 6465 N 622.413 -5.55624 -0.850756 0
M  V30 6466 H 614.564 -2.00307 0.70645 0
M  V30 6467 H 616.827 -0.912876 0.255659 0
M  V30 6468 H 616.533 -3.49797 0.365329 0
M  V30 6469 H 616.407 -3.50858 -1.38487 0
M  V30 6470 H 618.794 -2.52663 -1.52464 0
M  V30 6471 H 618.875 -2.54645 0.242805 0
M  V30 6472 H 618.519 -5.07472 0.2085 0
M  V30 6473 H 618.449 -5.02621 -1.57098 0
M  V30 6474 H 620.94 -3.70669 -0.735717 0
M  V30 6475 H 621.253 -7.67701 -0.886279 0
M  V30 6476 H 619.598 -6.90334 -0.803958 0
M  V30 6477 H 622.789 -4.60709 -0.828535 0
M  V30 6478 H 622.962 -6.41756 -0.897418 0
M  V30 6479 N 616.368 0.432326 -1.51554 0
M  V30 6480 C 617.617 1.17831 -1.63703 0
M  V30 6481 C 617.93 1.92229 -0.36156 0
M  V30 6482 O 619.136 2.69069 -0.362495 0
M  V30 6483 C 617.592 2.14318 -2.89129 0
M  V30 6484 C 617.2 1.45544 -4.23699 0
M  V30 6485 C 618.944 2.89319 -3.10636 0
M  V30 6486 C 616.851 2.40545 -5.4027 0
M  V30 6487 H 615.781 0.443533 -0.60975 0
M  V30 6488 H 618.432 0.444878 -1.78026 0
M  V30 6489 H 616.814 2.91117 -2.68452 0
M  V30 6490 H 617.988 0.742693 -4.54775 0
M  V30 6491 H 616.303 0.826772 -4.0811 0
M  V30 6492 H 618.9 3.60495 -3.94902 0
M  V30 6493 H 619.243 3.50951 -2.23918 0
M  V30 6494 H 619.776 2.19625 -3.31677 0
M  V30 6495 H 616.515 1.83594 -6.29264 0
M  V30 6496 H 616.035 3.09859 -5.13563 0
M  V30 6497 H 617.714 3.01569 -5.72421 0
M  V30 6498 N 617.846 1.41785 0.688094 0
M  V30 6499 C 619.257 1.3701 1.26828 0
M  V30 6500 C 619.608 0.056835 1.96118 0
M  V30 6501 O 618.733 -0.84475 1.99231 0
M  V30 6502 C 619.328 2.48168 2.30648 0
M  V30 6503 C 617.887 2.46766 2.84224 0
M  V30 6504 C 617.034 2.27633 1.58361 0
M  V30 6505 H 619.985 1.51192 0.482351 0
M  V30 6506 H 620.006 2.17655 3.121 0
M  V30 6507 H 619.518 3.43735 1.80188 0
M  V30 6508 H 617.619 1.54978 3.3884 0
M  V30 6509 H 617.732 3.43342 3.34145 0
M  V30 6510 H 616.096 1.75648 1.84445 0
M  V30 6511 H 616.879 3.25238 1.09887 0
M  V30 6512 N 619.324 -0.923095 1.27737 0
M  V30 6513 C 620.234 -2.05765 1.12685 0
M  V30 6514 C 621.25 -1.73911 0.0557197 0
M  V30 6515 O 622.426 -1.99674 0.263137 0
M  V30 6516 C 619.491 -3.37804 0.780363 0
M  V30 6517 C 618.552 -3.83326 1.93286 0
M  V30 6518 C 617.785 -5.09064 1.60281 0
M  V30 6519 O 618.008 -5.6809 0.512828 0
M  V30 6520 O 616.942 -5.50071 2.44347 0
M  V30 6521 H 620.768 -2.21378 2.07907 0
M  V30 6522 H 618.353 -1.04299 1.06968 0
M  V30 6523 H 620.235 -4.17097 0.600668 0
M  V30 6524 H 618.91 -3.23387 -0.142291 0
M  V30 6525 H 617.817 -3.049 2.16764 0
M  V30 6526 H 619.15 -4.02292 2.83588 0
M  V30 6527 N 620.802 -1.09834 -1.13024 0
M  V30 6528 C 621.75 -0.736283 -2.20639 0
M  V30 6529 C 622.744 0.264725 -1.67319 0
M  V30 6530 O 623.95 0.125745 -1.7956 0
M  V30 6531 H 620.325 -0.220136 -0.719058 0
M  V30 6532 H 622.296 -1.65295 -2.48436 0
M  V30 6533 C 621.045 -0.177544 -3.47246 0
M  V30 6534 H 620.368 -0.939009 -3.88616 0
M  V30 6535 H 621.808 0.0378007 -4.23983 0
M  V30 6536 C 620.267 1.08824 -3.1884 0
M  V30 6537 O 620.797 2.1708 -3.37993 0
M  V30 6538 N 619.003 1.00442 -2.7269 0
M  V30 6539 H 618.55 0.123383 -2.57304 0
M  V30 6540 H 618.508 1.85206 -2.5406 0
M  V30 6541 N 622.28 1.30327 -0.886154 0
M  V30 6542 C 623.696 1.48676 -0.580323 0
M  V30 6543 C 623.896 1.81189 0.881639 0
M  V30 6544 O 622.952 1.90021 1.66278 0
M  V30 6545 C 624.265 2.60932 -1.49449 0
M  V30 6546 C 625.813 2.74812 -1.49824 0
M  V30 6547 C 626.288 3.90183 -2.39836 0
M  V30 6548 N 627.779 3.97495 -2.37806 0
M  V30 6549 C 628.514 4.86078 -3.04165 0
M  V30 6550 N 628.01 5.79448 -3.79753 0
M  V30 6551 N 629.803 4.79456 -2.93391 0
M  V30 6552 H 621.954 1.07495 -1.8319 0
M  V30 6553 H 624.217 0.532661 -0.784204 0
M  V30 6554 H 623.923 2.43731 -2.5355 0
M  V30 6555 H 623.797 3.57437 -1.20494 0
M  V30 6556 H 626.184 2.91418 -0.464731 0
M  V30 6557 H 626.265 1.78924 -1.82811 0
M  V30 6558 H 625.909 3.74334 -3.43273 0
M  V30 6559 H 625.839 4.85411 -2.04166 0
M  V30 6560 H 628.33 3.30703 -1.82877 0
M  V30 6561 H 628.643 6.43805 -4.27475 0
M  V30 6562 H 626.988 5.79376 -3.8386 0
M  V30 6563 H 630.179 4.05494 -2.33864 0
M  V30 6564 H 630.352 5.48283 -3.45383 0
M  V30 6565 N 623.758 0.647228 1.43697 0
M  V30 6566 C 625.007 0.155552 2.01099 0
M  V30 6567 C 625.32 -1.23569 1.51624 0
M  V30 6568 O 626.526 -1.82226 2.01261 0
M  V30 6569 C 624.982 0.227296 3.59182 0
M  V30 6570 C 624.59 1.62086 4.17651 0
M  V30 6571 C 626.334 -0.207085 4.23995 0
M  V30 6572 C 624.241 1.64685 5.68008 0
M  V30 6573 H 623.171 0.0543895 0.752036 0
M  V30 6574 H 625.822 0.808386 1.64734 0
M  V30 6575 H 624.204 -0.492937 3.9292 0
M  V30 6576 H 625.378 2.36597 3.95422 0
M  V30 6577 H 623.693 2.0007 3.65186 0
M  V30 6578 H 626.29 -0.207426 5.34298 0
M  V30 6579 H 626.633 -1.23742 3.97484 0
M  V30 6580 H 627.166 0.461193 3.95118 0
M  V30 6581 H 623.905 2.65608 5.99277 0
M  V30 6582 H 623.425 0.944914 5.9231 0
M  V30 6583 H 625.104 1.38792 6.31938 0
M  V30 6584 N 625.236 -1.5273 0.388769 0
M  V30 6585 C 626.652 -1.59553 0.0387049 0
M  V30 6586 C 626.852 -1.40278 -1.44652 0
M  V30 6587 O 625.908 -1.21951 -2.21098 0
M  V30 6588 C 627.221 -2.9625 0.515409 0
M  V30 6589 C 628.769 -3.09426 0.471621 0
M  V30 6590 C 629.244 -4.48572 0.924505 0
M  V30 6591 N 630.735 -4.54754 0.880496 0
M  V30 6592 C 631.47 -5.60653 1.20234 0
M  V30 6593 N 630.966 -6.74198 1.59463 0
M  V30 6594 N 632.759 -5.50755 1.12363 0
M  V30 6595 H 624.91 -1.63508 1.35569 0
M  V30 6596 H 627.173 -0.768097 0.555636 0
M  V30 6597 H 626.879 -3.15569 1.5527 0
M  V30 6598 H 626.753 -3.77102 -0.085792 0
M  V30 6599 H 629.14 -2.89804 -0.556588 0
M  V30 6600 H 629.221 -2.30528 1.10862 0
M  V30 6601 H 628.865 -4.68936 1.95094 0
M  V30 6602 H 628.795 -5.25935 0.264524 0
M  V30 6603 H 631.286 -3.73237 0.591815 0
M  V30 6604 H 631.599 -7.5097 1.82385 0
M  V30 6605 H 629.944 -6.75531 1.63349 0
M  V30 6606 H 633.135 -4.6093 0.816169 0
M  V30 6607 H 633.308 -6.33184 1.37777 0
M  V30 6608 N 626.714 -0.118576 -1.57153 0
M  V30 6609 C 627.939 0.550582 -1.99958 0
M  V30 6610 C 628.364 1.59458 -0.997736 0
M  V30 6611 O 627.722 1.81274 0.0306269 0
M  V30 6612 C 627.77 1.15379 -3.41643 0
M  V30 6613 O 626.874 2.26932 -3.44348 0
M  V30 6614 H 626.215 0.137567 -0.649593 0
M  V30 6615 H 628.745 -0.206926 -2.03551 0
M  V30 6616 H 628.755 1.48942 -3.79843 0
M  V30 6617 H 627.43 0.389087 -4.14076 0
M  V30 6618 H 626.007 1.94812 -3.17967 0
M  V30 6619 N 628.193 1.56834 0.155195 0
M  V30 6620 C 629.421 1.87049 0.884326 0
M  V30 6621 C 629.836 0.705839 1.7511 0
M  V30 6622 O 629.193 -0.324641 1.79589 0
M  V30 6623 C 629.244 3.1644 1.74781 0
M  V30 6624 O 628.965 4.28417 0.915978 0
M  V30 6625 C 630.466 3.60113 2.58522 0
M  V30 6626 H 627.686 0.620196 0.25612 0
M  V30 6627 H 630.23 2.03946 0.150445 0
M  V30 6628 H 628.385 3.01321 2.43484 0
M  V30 6629 H 628.799 5.02353 1.50803 0
M  V30 6630 H 630.273 4.53508 3.14698 0
M  V30 6631 H 630.75 2.85005 3.34169 0
M  V30 6632 H 631.356 3.77898 1.95124 0
M  V30 6633 N 629.671 -0.424282 1.51781 0
M  V30 6634 C 631.087 -0.761768 1.40247 0
M  V30 6635 C 631.287 -1.95324 0.495041 0
M  V30 6636 O 630.343 -2.5246 -0.0448949 0
M  V30 6637 C 631.656 -1.0299 2.82513 0
M  V30 6638 C 633.204 -1.13354 2.91753 0
M  V30 6639 C 633.679 -1.43453 4.34954 0
M  V30 6640 N 635.17 -1.5035 4.3812 0
M  V30 6641 C 635.905 -1.75236 5.45967 0
M  V30 6642 N 635.401 -1.97827 6.63955 0
M  V30 6643 N 637.194 -1.77126 5.33463 0
M  V30 6644 H 629.345 0.360228 2.09323 0
M  V30 6645 H 631.608 0.0988128 0.942836 0
M  V30 6646 H 631.314 -0.226961 3.50967 0
M  V30 6647 H 631.188 -1.95411 3.22637 0
M  V30 6648 H 633.575 -1.92709 2.23489 0
M  V30 6649 H 633.656 -0.188041 2.55108 0
M  V30 6650 H 633.3 -0.646209 5.03772 0
M  V30 6651 H 633.23 -2.3923 4.69123 0
M  V30 6652 H 635.721 -1.34742 3.53062 0
M  V30 6653 H 636.034 -2.16223 7.41935 0
M  V30 6654 H 634.379 -1.95123 6.67047 0
M  V30 6655 H 637.57 -1.59005 4.40267 0
M  V30 6656 H 637.743 -1.96182 6.17589 0
M  V30 6657 N 631.149 -1.42148 -0.680565 0
M  V30 6658 C 632.374 -1.45901 -1.47403 0
M  V30 6659 C 632.799 -0.0700985 -1.87969 0
M  V30 6660 O 632.157 0.930145 -1.55621 0
M  V30 6661 C 632.205 -2.38661 -2.70321 0
M  V30 6662 O 631.309 -1.85399 -3.68376 0
M  V30 6663 H 630.65 -0.494565 -0.443059 0
M  V30 6664 H 633.18 -1.86774 -0.835251 0
M  V30 6665 H 633.19 -2.55046 -3.18458 0
M  V30 6666 H 631.865 -3.39571 -2.40134 0
M  V30 6667 H 630.442 -1.78541 -3.2738 0
M  V30 6668 N 632.627 0.916307 -1.28225 0
M  V30 6669 C 633.873 1.66765 -1.154 0
M  V30 6670 C 634.206 1.91912 0.297251 0
M  V30 6671 O 633.481 1.51766 1.21644 0
M  V30 6672 C 633.764 3.02715 -1.95028 0
M  V30 6673 C 633.617 2.84738 -3.48201 0
M  V30 6674 C 634.936 4.03215 -1.76369 0
M  V30 6675 H 632.055 0.605205 -0.42059 0
M  V30 6676 H 634.697 1.06255 -1.57512 0
M  V30 6677 H 632.847 3.54365 -1.59242 0
M  V30 6678 H 634.519 2.40118 -3.9388 0
M  V30 6679 H 632.762 2.19848 -3.73964 0
M  V30 6680 H 633.433 3.8127 -3.99171 0
M  V30 6681 H 635.909 3.60617 -2.07593 0
M  V30 6682 H 634.785 4.96306 -2.34459 0
M  V30 6683 H 635.046 4.36288 -0.71452 0
M  V30 6684 N 634.105 1.10431 1.1244 0
M  V30 6685 C 635.015 0.765502 2.21759 0
M  V30 6686 C 636.031 -0.236966 1.72379 0
M  V30 6687 O 637.207 -0.0757329 2.01258 0
M  V30 6688 C 634.272 0.202316 3.46109 0
M  V30 6689 C 633.333 1.26205 4.1033 0
M  V30 6690 C 632.566 0.725648 5.28744 0
M  V30 6691 O 632.789 -0.447942 5.68638 0
M  V30 6692 O 631.723 1.48555 5.83279 0
M  V30 6693 H 635.549 1.67801 2.53133 0
M  V30 6694 H 633.134 0.879443 1.20773 0
M  V30 6695 H 635.016 -0.107918 4.21262 0
M  V30 6696 H 633.691 -0.683052 3.16411 0
M  V30 6697 H 632.598 1.62514 3.36957 0
M  V30 6698 H 633.931 2.12044 4.44183 0
M  V30 6699 N 635.583 -1.29855 0.893053 0
M  V30 6700 C 636.531 -2.29867 0.355512 0
M  V30 6701 C 637.525 -1.60502 -0.541801 0
M  V30 6702 O 638.731 -1.74902 -0.425339 0
M  V30 6703 H 635.106 -0.745805 0.0963247 0
M  V30 6704 H 637.077 -2.72655 1.21252 0
M  V30 6705 C 635.826 -3.453 -0.407801 0
M  V30 6706 H 635.149 -3.98864 0.273426 0
M  V30 6707 H 636.589 -4.17334 -0.748887 0
M  V30 6708 C 635.048 -2.96051 -1.60795 0
M  V30 6709 O 635.578 -2.96763 -2.7073 0
M  V30 6710 N 633.784 -2.51963 -1.44786 0
M  V30 6711 H 633.331 -2.51583 -0.553498 0
M  V30 6712 H 633.289 -2.1937 -2.2522 0
M  V30 6713 N 637.061 -0.65484 -1.43351 0
M  V30 6714 C 637.991 0.0221809 -2.33489 0
M  V30 6715 C 638.972 0.810272 -1.49561 0
M  V30 6716 O 640.157 0.771426 -1.78221 0
M  V30 6717 C 637.287 0.988117 -3.32947 0
M  V30 6718 C 636.241 0.310026 -4.26876 0
M  V30 6719 C 635.567 1.38752 -5.16384 0
M  V30 6720 C 636.867 -0.798589 -5.16159 0
M  V30 6721 H 638.561 -0.730571 -2.9035 0
M  V30 6722 H 636.107 -0.352773 -1.39612 0
M  V30 6723 H 638.06 1.47067 -3.94904 0
M  V30 6724 H 636.784 1.77205 -2.74346 0
M  V30 6725 H 635.443 -0.152097 -3.66284 0
M  V30 6726 H 635.091 2.16293 -4.54121 0
M  V30 6727 H 634.791 0.939051 -5.80048 0
M  V30 6728 H 636.315 1.87141 -5.81215 0
M  V30 6729 H 637.729 -0.398126 -5.71916 0
M  V30 6730 H 636.126 -1.17163 -5.88552 0
M  V30 6731 H 637.196 -1.65588 -4.55751 0
M  V30 6732 N 638.539 1.52521 -0.396863 0
M  V30 6733 C 639.95 1.86547 0.0754868 0
M  V30 6734 C 640.301 1.31621 1.45501 0
M  V30 6735 O 639.426 0.650563 2.0639 0
M  V30 6736 C 640.021 3.38495 0.143754 0
M  V30 6737 C 638.58 3.72205 0.560413 0
M  V30 6738 C 637.727 2.75954 -0.272856 0
M  V30 6739 H 640.678 1.46323 -0.614434 0
M  V30 6740 H 640.699 3.68153 0.961425 0
M  V30 6741 H 640.211 3.78442 -0.860415 0
M  V30 6742 H 638.312 3.3783 1.57167 0
M  V30 6743 H 638.425 4.78074 0.313314 0
M  V30 6744 H 636.789 2.53339 0.263 0
M  V30 6745 H 637.572 3.1874 -1.27515 0
M  V30 6746 N 640.017 0.126909 1.57088 0
M  V30 6747 C 640.927 -0.833867 2.1928 0
M  V30 6748 C 641.943 -1.2868 1.17122 0
M  V30 6749 O 643.119 -1.34815 1.49622 0
M  V30 6750 C 640.184 -2.0632 2.78627 0
M  V30 6751 C 639.245 -1.66143 3.95847 0
M  V30 6752 C 638.478 -2.83217 4.52354 0
M  V30 6753 O 638.701 -3.98868 4.0775 0
M  V30 6754 O 637.635 -2.59846 5.42922 0
M  V30 6755 H 641.461 -0.334564 3.01852 0
M  V30 6756 H 639.046 -0.0991091 1.49071 0
M  V30 6757 H 640.928 -2.78304 3.16425 0
M  V30 6758 H 639.603 -2.55242 1.99082 0
M  V30 6759 H 638.51 -0.912435 3.62802 0
M  V30 6760 H 639.843 -1.21957 4.76852 0
M  V30 6761 N 641.495 -1.56914 -0.146875 0
M  V30 6762 C 642.735 -1.85163 -0.86568 0
M  V30 6763 C 643.099 -0.711215 -1.78342 0
M  V30 6764 O 644.3 -0.874754 -2.54168 0
M  V30 6765 C 642.571 -3.18593 -1.61967 0
M  V30 6766 S 644.13 -3.68397 -2.38388 0
M  V30 6767 H 640.948 -0.6494 -0.289483 0
M  V30 6768 H 643.55 -1.95096 -0.125679 0
M  V30 6769 H 642.254 -3.99562 -0.93694 0
M  V30 6770 H 641.785 -3.11666 -2.40058 0
M  V30 6771 H 643.8 -3.37672 -3.63582 0
M  V30 6772 N 642.974 0.416227 -1.52004 0
M  V30 6773 C 644.222 1.16153 -1.65387 0
M  V30 6774 C 644.543 1.91208 -0.382669 0
M  V30 6775 O 643.813 1.86413 0.602231 0
M  V30 6776 H 642.393 0.431765 -0.60958 0
M  V30 6777 H 645.055 0.475151 -1.89019 0
M  V30 6778 H 644.151 1.87952 -2.4916 0
M  V30 6779 N 644.452 1.42507 0.673017 0
M  V30 6780 C 645.701 1.42364 1.42883 0
M  V30 6781 C 646.014 0.0441598 1.9555 0
M  V30 6782 O 647.22 -0.0798679 2.71382 0
M  V30 6783 C 645.676 2.5043 2.58482 0
M  V30 6784 C 645.284 3.94392 2.12506 0
M  V30 6785 C 647.028 2.59455 3.35981 0
M  V30 6786 C 644.935 4.93964 3.25198 0
M  V30 6787 H 643.865 0.52951 0.536782 0
M  V30 6788 H 646.516 1.68422 0.728448 0
M  V30 6789 H 644.898 2.1754 3.30896 0
M  V30 6790 H 646.072 4.36645 1.47233 0
M  V30 6791 H 644.387 3.89233 1.4794 0
M  V30 6792 H 646.984 3.31025 4.19912 0
M  V30 6793 H 647.327 1.63869 3.82691 0
M  V30 6794 H 647.86 2.91549 2.70637 0
M  V30 6795 H 644.599 5.91034 2.83477 0
M  V30 6796 H 644.119 4.56341 3.89247 0
M  V30 6797 H 645.798 5.15763 3.90637 0
M  V30 6798 N 645.93 -0.909495 1.28709 0
M  V30 6799 C 647.158 -1.69272 1.18973 0
M  V30 6800 C 647.573 -1.87123 -0.251048 0
M  V30 6801 O 646.93 -1.40127 -1.16922 0
M  V30 6802 C 646.981 -3.08257 1.88839 0
M  V30 6803 O 646.702 -2.91228 3.27289 0
M  V30 6804 C 648.203 -4.02642 1.85457 0
M  V30 6805 H 645.423 -0.528999 0.412797 0
M  V30 6806 H 647.967 -1.13803 1.69909 0
M  V30 6807 H 646.122 -3.6053 1.41762 0
M  V30 6808 H 646.536 -3.79223 3.6234 0
M  V30 6809 H 648.01 -4.97613 2.38925 0
M  V30 6810 H 648.487 -4.31327 0.827893 0
M  V30 6811 H 649.093 -3.56298 2.32233 0
M  V30 6812 N 647.408 -1.11026 -1.11852 0
M  V30 6813 C 648.358 -0.733836 -2.15868 0
M  V30 6814 C 649.342 0.26001 -1.58785 0
M  V30 6815 O 650.534 0.0677901 -1.7687 0
M  V30 6816 C 647.663 -0.173948 -3.42859 0
M  V30 6817 C 646.749 -1.1952 -4.0691 0
M  V30 6818 N 647.14 -2.38797 -4.45881 0
M  V30 6819 C 645.438 -1.03714 -4.33773 0
M  V30 6820 C 646.139 -3.03894 -4.96007 0
M  V30 6821 N 645.115 -2.31389 -4.91894 0
M  V30 6822 H 648.917 -1.64171 -2.43773 0
M  V30 6823 H 646.431 -0.988877 -1.28822 0
M  V30 6824 H 648.428 0.113836 -4.16745 0
M  V30 6825 H 647.088 0.728568 -3.16421 0
M  V30 6826 H 648.099 -2.76281 -4.38051 0
M  V30 6827 H 644.776 -0.190694 -4.17064 0
M  V30 6828 H 646.166 -4.05389 -5.35826 0
M  V30 6829 N 648.886 1.2938 -0.899927 0
M  V30 6830 C 649.796 2.31462 -0.382437 0
M  V30 6831 C 650.812 1.65956 0.522929 0
M  V30 6832 O 651.988 1.97131 0.412454 0
M  V30 6833 C 649.053 3.44595 0.381472 0
M  V30 6834 C 648.114 4.25692 -0.555444 0
M  V30 6835 C 647.347 5.33422 0.172102 0
M  V30 6836 O 647.57 5.53053 1.396 0
M  V30 6837 O 646.504 5.99939 -0.485491 0
M  V30 6838 H 650.33 2.77706 -1.22934 0
M  V30 6839 H 647.915 1.33821 -0.664259 0
M  V30 6840 H 649.797 4.13474 0.813442 0
M  V30 6841 H 648.472 3.00458 1.20443 0
M  V30 6842 H 647.379 3.59453 -1.03653 0
M  V30 6843 H 648.712 4.73471 -1.34483 0
M  V30 6844 N 650.364 0.662433 1.43002 0
M  V30 6845 C 651.296 -0.062326 2.29115 0
M  V30 6846 C 652.309 -0.777926 1.43011 0
M  V30 6847 O 653.498 -0.634146 1.66856 0
M  V30 6848 C 650.598 -1.11163 3.2015 0
M  V30 6849 C 649.771 -0.472327 4.34842 0
M  V30 6850 C 648.83 -1.41974 5.06685 0
M  V30 6851 O 647.856 -0.924795 5.61637 0
M  V30 6852 N 649.058 -2.75345 5.11043 0
M  V30 6853 H 651.823 0.676838 2.91957 0
M  V30 6854 H 649.384 0.505907 1.53793 0
M  V30 6855 H 651.376 -1.74643 3.65078 0
M  V30 6856 H 649.946 -1.75266 2.58845 0
M  V30 6857 H 649.166 0.341751 3.92716 0
M  V30 6858 H 650.454 -0.0264381 5.08793 0
M  V30 6859 H 649.852 -3.18108 4.67786 0
M  V30 6860 H 648.409 -3.34105 5.59658 0
M  V30 6861 N 651.842 -1.52309 0.404946 0
M  V30 6862 C 653.258 -1.59503 0.0556255 0
M  V30 6863 C 653.458 -1.41805 -1.43156 0
M  V30 6864 O 652.514 -1.2429 -2.19792 0
M  V30 6865 C 653.827 -2.95687 0.546801 0
M  V30 6866 C 655.375 -3.08909 0.504413 0
M  V30 6867 C 655.85 -4.47566 0.97203 0
M  V30 6868 N 657.341 -4.53795 0.928679 0
M  V30 6869 C 658.076 -5.59346 1.26174 0
M  V30 6870 N 657.572 -6.72469 1.66604 0
M  V30 6871 N 659.365 -5.49532 1.18198 0
M  V30 6872 H 651.516 -1.6206 1.37296 0
M  V30 6873 H 653.779 -0.762161 0.563751 0
M  V30 6874 H 653.485 -3.13905 1.58609 0
M  V30 6875 H 653.359 -3.77172 -0.0457905 0
M  V30 6876 H 655.746 -2.90378 -0.525819 0
M  V30 6877 H 655.827 -2.2934 1.13301 0
M  V30 6878 H 655.471 -4.6684 2.00057 0
M  V30 6879 H 655.401 -5.25625 0.320292 0
M  V30 6880 H 657.892 -3.72588 0.631369 0
M  V30 6881 H 658.205 -7.48993 1.9034 0
M  V30 6882 H 656.55 -6.73761 1.70504 0
M  V30 6883 H 659.741 -4.60038 0.865011 0
M  V30 6884 H 659.914 -6.31687 1.44485 0
M  V30 6885 N 653.32 -0.135238 -1.57019 0
M  V30 6886 C 654.283 0.794707 -2.14981 0
M  V30 6887 C 655.283 1.18342 -1.08866 0
M  V30 6888 O 656.473 1.10627 -1.34563 0
M  V30 6889 C 653.605 2.07685 -2.70333 0
M  V30 6890 H 654.798 0.290696 -2.98488 0
M  V30 6891 H 652.351 0.114128 -1.55883 0
M  V30 6892 H 653.086 2.6248 -1.9046 0
M  V30 6893 H 652.871 1.80745 -3.47957 0
M  V30 6894 H 654.361 2.74127 -3.1503 0
M  V30 6895 N 654.798 1.5699 0.138552 0
M  V30 6896 C 656.046 1.83446 0.848053 0
M  V30 6897 C 656.367 0.71744 1.81322 0
M  V30 6898 O 655.637 -0.260228 1.94164 0
M  V30 6899 H 654.217 0.676792 0.316166 0
M  V30 6900 H 656.879 1.94462 0.130538 0
M  V30 6901 H 655.975 2.78677 1.40518 0
M  V30 6902 N 656.276 -0.40816 1.52223 0
M  V30 6903 C 657.501 -1.18127 1.70472 0
M  V30 6904 C 657.926 -1.83491 0.41384 0
M  V30 6905 O 657.284 -1.70047 -0.628778 0
M  V30 6906 C 657.332 -2.21935 2.84213 0
M  V30 6907 O 656.436 -3.28099 2.4985 0
M  V30 6908 H 655.777 -0.344781 0.56747 0
M  V30 6909 H 658.307 -0.478328 1.9893 0
M  V30 6910 H 658.317 -2.66248 3.09153 0
M  V30 6911 H 656.992 -1.73744 3.7787 0
M  V30 6912 H 655.569 -2.89058 2.35584 0
M  V30 6913 N 657.755 -1.42862 -0.66545 0
M  V30 6914 C 659.002 -1.4383 -1.42546 0
M  V30 6915 C 659.33 -0.0581114 -1.94413 0
M  V30 6916 O 658.585 0.935002 -1.71919 0
M  V30 6917 C 658.884 -2.4175 -2.63233 0
M  V30 6918 C 658.55 -3.87915 -2.29854 0
M  V30 6919 C 657.212 -4.27726 -2.20463 0
M  V30 6920 C 659.564 -4.80074 -2.02924 0
M  V30 6921 C 656.892 -5.57666 -1.82279 0
M  V30 6922 C 659.244 -6.10366 -1.66242 0
M  V30 6923 C 657.908 -6.49167 -1.55367 0
M  V30 6924 H 657.178 -0.52631 -0.521612 0
M  V30 6925 H 659.825 -1.75863 -0.757914 0
M  V30 6926 H 658.13 -2.03077 -3.35063 0
M  V30 6927 H 659.827 -2.39759 -3.21429 0
M  V30 6928 H 656.417 -3.564 -2.3807 0
M  V30 6929 H 660.601 -4.50097 -2.09108 0
M  V30 6930 H 655.857 -5.8658 -1.72436 0
M  V30 6931 H 660.031 -6.81258 -1.44432 0
M  V30 6932 H 657.658 -7.49761 -1.2555 0
M  V30 6933 N 659.233 0.902656 -1.29189 0
M  V30 6934 C 660.458 1.69167 -1.19989 0
M  V30 6935 C 660.883 1.86607 0.236495 0
M  V30 6936 O 660.241 1.38425 1.17082 0
M  V30 6937 C 660.289 3.05532 -1.91527 0
M  V30 6938 O 659.393 3.93621 -1.2303 0
M  V30 6939 H 658.734 0.517584 -0.415936 0
M  V30 6940 H 661.264 1.12785 -1.70706 0
M  V30 6941 H 661.274 3.55693 -1.99866 0
M  V30 6942 H 659.949 2.92156 -2.96003 0
M  V30 6943 H 658.526 3.52055 -1.22928 0
M  V30 6944 N 660.711 1.11618 1.11262 0
M  V30 6945 C 661.939 0.888739 1.8684 0
M  V30 6946 C 662.354 -0.561558 1.80255 0
M  V30 6947 O 661.711 -1.38782 1.18515 0
M  V30 6948 C 661.762 1.34422 3.35579 0
M  V30 6949 O 661.483 2.73766 3.42029 0
M  V30 6950 C 662.984 1.15246 4.28058 0
M  V30 6951 H 660.204 0.318152 0.590779 0
M  V30 6952 H 662.748 1.48398 1.40707 0
M  V30 6953 H 660.903 0.79239 3.7921 0
M  V30 6954 H 661.317 2.9355 4.34659 0
M  V30 6955 H 662.791 1.52015 5.30656 0
M  V30 6956 H 663.268 0.0922007 4.39103 0
M  V30 6957 H 663.874 1.69136 3.90222 0
M  V30 6958 N 662.189 -1.289 0.906776 0
M  V30 6959 C 663.435 -1.95558 0.53712 0
M  V30 6960 C 663.768 -1.71262 -0.915582 0
M  V30 6961 O 663.043 -1.02961 -1.65013 0
M  V30 6962 C 663.326 -3.50198 0.838645 0
M  V30 6963 C 663.179 -3.83923 2.34357 0
M  V30 6964 C 664.498 -4.38861 0.329988 0
M  V30 6965 H 661.617 -0.710289 0.196617 0
M  V30 6966 H 664.259 -1.52392 1.13475 0
M  V30 6967 H 662.409 -3.87096 0.330024 0
M  V30 6968 H 664.081 -3.56933 2.92227 0
M  V30 6969 H 662.324 -3.31215 2.80141 0
M  V30 6970 H 662.995 -4.91883 2.5051 0
M  V30 6971 H 665.471 -4.08996 0.765609 0
M  V30 6972 H 664.347 -5.45931 0.570105 0
M  V30 6973 H 664.608 -4.35352 -0.769511 0
M  V30 6974 N 663.667 -0.670007 -1.42649 0
M  V30 6975 C 665.078 -0.268118 -1.84765 0
M  V30 6976 C 665.429 1.18877 -1.56086 0
M  V30 6977 O 664.554 1.90947 -1.01825 0
M  V30 6978 C 665.149 -0.47984 -3.35385 0
M  V30 6979 C 663.708 -0.132116 -3.76168 0
M  V30 6980 C 662.855 -0.774611 -2.66261 0
M  V30 6981 H 665.806 -0.872509 -1.32563 0
M  V30 6982 H 665.827 0.269522 -3.79544 0
M  V30 6983 H 665.339 -1.54026 -3.56227 0
M  V30 6984 H 663.44 0.92505 -3.60934 0
M  V30 6985 H 663.553 -0.569294 -4.75706 0
M  V30 6986 H 661.917 -0.206353 -2.53863 0
M  V30 6987 H 662.7 -1.83839 -2.89928 0
M  V30 6988 N 665.145 1.52092 -0.413018 0
M  V30 6989 C 666.093 2.28681 0.425199 0
M  V30 6990 C 667.087 1.3353 1.04241 0
M  V30 6991 O 668.293 1.50973 0.980166 0
M  V30 6992 H 664.668 0.735661 0.155906 0
M  V30 6993 H 666.639 2.97418 -0.241926 0
M  V30 6994 C 665.388 3.1235 1.5275 0
M  V30 6995 H 664.711 3.85439 1.06191 0
M  V30 6996 H 666.151 3.69038 2.08774 0
M  V30 6997 C 664.61 2.26161 2.49706 0
M  V30 6998 O 665.14 1.90452 3.53682 0
M  V30 6999 N 663.346 1.89854 2.20008 0
M  V30 7000 H 662.893 2.19092 1.35486 0
M  V30 7001 H 662.851 1.3248 2.85125 0
M  V30 7002 N 666.623 0.143563 1.56945 0
M  V30 7003 C 667.853 -0.514699 2.00086 0
M  V30 7004 C 668.261 -1.59184 1.0226 0
M  V30 7005 O 667.604 -1.83697 0.0110514 0
M  V30 7006 C 667.666 -1.17778 3.39659 0
M  V30 7007 C 667.33 -0.245657 4.56339 0
M  V30 7008 C 668.327 0.525343 5.17239 0
M  V30 7009 C 666.012 -0.149564 5.02077 0
M  V30 7010 C 668.006 1.37992 6.22284 0
M  V30 7011 C 665.693 0.708621 6.06978 0
M  V30 7012 C 666.691 1.47197 6.6695 0
M  V30 7013 O 666.379 2.31586 7.6982 0
M  V30 7014 H 666.111 -0.138789 0.661599 0
M  V30 7015 H 668.665 0.234098 2.04062 0
M  V30 7016 H 666.895 -1.97415 3.32512 0
M  V30 7017 H 668.584 -1.73542 3.6693 0
M  V30 7018 H 669.35 0.461118 4.82803 0
M  V30 7019 H 665.229 -0.733457 4.55128 0
M  V30 7020 H 668.773 1.97621 6.69023 0
M  V30 7021 H 664.67 0.77415 6.40841 0
M  V30 7022 H 665.438 2.24796 7.87025 0
M  V30 7023 N 668.101 -1.57061 -0.130224 0
M  V30 7024 C 669.378 -1.75205 -0.869631 0
M  V30 7025 C 669.758 -0.716063 -1.98584 0
M  V30 7026 O 669.106 0.262032 -2.26993 0
M  V30 7027 C 669.316 -3.19835 -1.39666 0
M  V30 7028 C 670.664 -3.82011 -1.85345 0
M  V30 7029 O 671.688 -3.23368 -1.49371 0
M  V30 7030 O 670.547 -4.85064 -2.51744 0
M  V30 7031 H 667.641 -0.716977 -0.412157 0
M  V30 7032 H 670.187 -1.69311 -0.11484 0
M  V30 7033 H 668.959 -3.86745 -0.595288 0
M  V30 7034 H 668.582 -3.30222 -2.21448 0
M  V30 7035 N 669.579 0.400081 -1.52437 0
M  V30 7036 C 670.527 1.50851 -1.7705 0
M  V30 7037 C 671.521 1.56928 -0.637969 0
M  V30 7038 O 672.727 1.60226 -0.820212 0
M  V30 7039 H 669.102 0.50186 -0.560036 0
M  V30 7040 H 671.073 1.27281 -2.69893 0
M  V30 7041 C 669.822 2.88117 -1.94638 0
M  V30 7042 H 669.145 2.84187 -2.81208 0
M  V30 7043 H 670.585 3.64942 -2.15855 0
M  V30 7044 C 669.044 3.29206 -0.715899 0
M  V30 7045 O 669.574 4.01544 0.111944 0
M  V30 7046 N 667.78 2.85363 -0.549191 0
M  V30 7047 H 667.327 2.26664 -1.22397 0
M  V30 7048 H 667.285 3.13214 0.27278 0
M  V30 7049 N 671.057 1.43213 0.657864 0
M  V30 7050 C 672.334 1.35063 1.41483 0
M  V30 7051 C 672.714 -0.0038314 2.111 0
M  V30 7052 O 672.062 -1.02018 2.04462 0
M  V30 7053 C 672.272 2.53061 2.40335 0
M  V30 7054 C 673.62 2.9594 3.04474 0
M  V30 7055 O 674.644 2.53074 2.50663 0
M  V30 7056 O 673.503 3.70184 4.02027 0
M  V30 7057 H 670.597 0.533517 0.631893 0
M  V30 7058 H 673.143 1.55253 0.685162 0
M  V30 7059 H 671.915 3.43283 1.87809 0
M  V30 7060 H 671.538 2.34945 3.20759 0
M  V30 7061 N 672.536 -0.895792 1.29666 0
M  V30 7062 C 673.813 -1.62723 1.08538 0
M  V30 7063 C 674.193 -2.07848 -0.369119 0
M  V30 7064 O 673.541 -1.8372 -1.35864 0
M  V30 7065 C 673.751 -2.80505 2.07648 0
M  V30 7066 C 675.099 -3.51098 2.3878 0
M  V30 7067 O 676.123 -2.90679 2.05874 0
M  V30 7068 O 674.982 -4.60028 2.9502 0
M  V30 7069 H 672.076 -0.714692 0.416106 0
M  V30 7070 H 674.622 -0.943517 1.41053 0
M  V30 7071 H 673.394 -2.44386 3.05599 0
M  V30 7072 H 673.017 -3.5658 1.75887 0
M  V30 7073 N 674.014 -1.12206 -1.10668 0
M  V30 7074 C 674.924 -0.800686 -2.20513 0
M  V30 7075 C 675.94 0.209512 -1.72734 0
M  V30 7076 O 677.116 0.043705 -2.01353 0
M  V30 7077 C 674.181 -0.257353 -3.45744 0
M  V30 7078 C 673.242 -1.32718 -4.0827 0
M  V30 7079 C 672.475 -0.809674 -5.27522 0
M  V30 7080 O 672.698 0.35742 -5.69279 0
M  V30 7081 O 671.632 -1.57816 -5.80842 0
M  V30 7082 H 675.458 -1.71807 -2.50432 0
M  V30 7083 H 673.043 -0.898546 -1.19359 0
M  V30 7084 H 674.925 0.0408849 -4.2138 0
M  V30 7085 H 673.6 0.632627 -3.17458 0
M  V30 7086 H 672.507 -1.67855 -3.34329 0
M  V30 7087 H 673.84 -2.19083 -4.40753 0
M  V30 7088 N 675.492 1.28418 -0.913599 0
M  V30 7089 C 676.455 2.25564 -0.406624 0
M  V30 7090 C 677.455 1.5387 0.466965 0
M  V30 7091 O 678.645 1.72094 0.270042 0
M  V30 7092 C 675.777 3.38339 0.417053 0
M  V30 7093 H 676.97 2.71926 -1.26477 0
M  V30 7094 H 674.523 1.40098 -0.692986 0
M  V30 7095 H 675.258 2.97339 1.29461 0
M  V30 7096 H 675.043 3.91542 -0.209102 0
M  V30 7097 H 676.533 4.10578 0.762602 0
M  V30 7098 N 676.97 0.677563 1.42291 0
M  V30 7099 C 678.216 0.209962 2.02313 0
M  V30 7100 C 678.571 -1.1714 1.52631 0
M  V30 7101 O 677.864 -1.7756 0.719938 0
M  V30 7102 C 678.058 0.187229 3.56909 0
M  V30 7103 C 677.887 1.56484 4.21595 0
M  V30 7104 C 676.657 2.16329 4.56651 0
M  V30 7105 C 678.855 2.50805 4.49 0
M  V30 7106 N 676.837 3.46842 5.06531 0
M  V30 7107 C 678.208 3.65976 5.00461 0
M  V30 7108 C 680.263 2.493 4.30992 0
M  V30 7109 C 678.966 4.79899 5.35807 0
M  V30 7110 C 680.992 3.62322 4.67415 0
M  V30 7111 C 680.354 4.76221 5.19031 0
M  V30 7112 H 676.453 0.121815 0.772454 0
M  V30 7113 H 679.037 0.891148 1.73109 0
M  V30 7114 H 677.208 -0.46338 3.85626 0
M  V30 7115 H 678.94 -0.293512 4.03634 0
M  V30 7116 H 675.695 1.6879 4.42501 0
M  V30 7117 H 676.119 4.13694 5.35898 0
M  V30 7118 H 680.761 1.62467 3.90339 0
M  V30 7119 H 678.479 5.67406 5.75392 0
M  V30 7120 H 682.065 3.62388 4.55155 0
M  V30 7121 H 680.945 5.62228 5.46689 0
M  V30 7122 N 678.448 -1.51871 0.421078 0
M  V30 7123 C 679.673 -2.0684 -0.152371 0
M  V30 7124 C 680.098 -1.28802 -1.37083 0
M  V30 7125 O 679.456 -0.321482 -1.78427 0
M  V30 7126 C 679.504 -3.57532 -0.469368 0
M  V30 7127 O 678.608 -3.81818 -1.55848 0
M  V30 7128 H 677.949 -0.663939 -0.00898586 0
M  V30 7129 H 680.479 -1.95674 0.597724 0
M  V30 7130 H 680.489 -4.01515 -0.724553 0
M  V30 7131 H 679.164 -4.13761 0.421276 0
M  V30 7132 H 677.741 -3.49709 -1.29453 0
M  V30 7133 N 679.926 -0.151884 -1.56866 0
M  V30 7134 C 681.172 0.498742 -1.96572 0
M  V30 7135 C 681.505 1.64194 -1.03702 0
M  V30 7136 O 680.78 1.94334 -0.0803432 0
M  V30 7137 C 681.063 1.00027 -3.45929 0
M  V30 7138 C 680.916 -0.141767 -4.49577 0
M  V30 7139 C 682.235 1.88044 -3.97904 0
M  V30 7140 H 679.354 0.17982 -0.714726 0
M  V30 7141 H 681.996 -0.234097 -1.88552 0
M  V30 7142 H 680.146 1.62476 -3.52894 0
M  V30 7143 H 681.818 -0.778269 -4.54687 0
M  V30 7144 H 680.061 -0.80019 -4.26356 0
M  V30 7145 H 680.732 0.250947 -5.51429 0
M  V30 7146 H 683.208 1.35416 -3.93449 0
M  V30 7147 H 682.084 2.20043 -5.02864 0
M  V30 7148 H 682.345 2.81916 -3.40552 0
M  V30 7149 N 681.404 1.57128 0.121893 0
M  V30 7150 C 682.681 1.75664 0.860327 0
M  V30 7151 C 683.061 0.726585 1.98202 0
M  V30 7152 O 682.409 -0.24999 2.27128 0
M  V30 7153 C 682.619 3.20571 1.37968 0
M  V30 7154 C 683.967 3.82988 1.83317 0
M  V30 7155 O 684.991 3.24156 1.47654 0
M  V30 7156 O 683.85 4.86393 2.49168 0
M  V30 7157 H 680.944 0.719153 0.408348 0
M  V30 7158 H 683.49 1.6937 0.105859 0
M  V30 7159 H 682.262 3.87056 0.57477 0
M  V30 7160 H 681.885 3.31392 2.19694 0
M  V30 7161 N 682.882 -0.391992 1.52647 0
M  V30 7162 C 684.159 -1.15136 1.58123 0
M  V30 7163 C 684.539 -2.07786 0.372597 0
M  V30 7164 O 683.887 -2.19374 -0.639304 0
M  V30 7165 C 684.097 -1.91367 2.91856 0
M  V30 7166 C 685.445 -2.46833 3.45483 0
M  V30 7167 O 686.469 -2.01527 2.9371 0
M  V30 7168 O 685.328 -3.29587 4.3593 0
M  V30 7169 H 682.422 -0.526649 0.637629 0
M  V30 7170 H 684.968 -0.397386 1.64982 0
M  V30 7171 H 683.74 -1.23597 3.71268 0
M  V30 7172 H 683.363 -2.73732 2.88369 0
M  V30 7173 N 684.36 -1.4356 -0.65026 0
M  V30 7174 C 685.609 -1.44619 -1.406 0
M  V30 7175 C 685.922 -0.0752645 -1.95455 0
M  V30 7176 O 687.128 0.0366832 -2.71475 0
M  V30 7177 C 685.584 -2.54511 -2.54465 0
M  V30 7178 C 685.192 -3.97723 -2.06204 0
M  V30 7179 C 686.936 -2.64768 -3.31811 0
M  V30 7180 C 684.843 -4.99075 -3.17298 0
M  V30 7181 H 683.773 -0.537983 -0.52829 0
M  V30 7182 H 686.424 -1.69559 -0.701561 0
M  V30 7183 H 684.806 -2.22777 -3.27393 0
M  V30 7184 H 685.98 -4.38932 -1.40267 0
M  V30 7185 H 684.295 -3.91538 -1.41729 0
M  V30 7186 H 686.892 -3.37664 -4.14593 0
M  V30 7187 H 687.235 -1.69936 -3.80036 0
M  V30 7188 H 687.768 -2.95817 -2.65964 0
M  V30 7189 H 684.507 -5.95469 -2.74038 0
M  V30 7190 H 684.027 -4.62476 -3.81937 0
M  V30 7191 H 685.706 -5.21913 -3.82382 0
M  V30 7192 N 685.838 0.888903 -1.30139 0
M  V30 7193 C 687.086 1.63713 -1.18501 0
M  V30 7194 C 687.407 1.9324 0.261399 0
M  V30 7195 O 686.677 1.56608 1.17689 0
M  V30 7196 H 685.257 0.606861 -0.435579 0
M  V30 7197 H 687.919 1.06525 -1.63213 0
M  V30 7198 H 687.015 2.58894 -1.743 0
M  V30 7199 N 687.317 1.12792 1.10072 0
M  V30 7200 C 688.227 0.812369 2.20086 0
M  V30 7201 C 689.243 -0.200349 1.72843 0
M  V30 7202 O 690.419 -0.0330262 2.01373 0
M  V30 7203 C 687.484 0.275685 3.45602 0
M  V30 7204 C 686.545 1.34881 4.07561 0
M  V30 7205 C 685.778 0.837639 5.27086 0
M  V30 7206 O 686.001 -0.327224 5.69461 0
M  V30 7207 O 684.935 1.60894 5.79997 0
M  V30 7208 H 688.761 1.73133 2.49517 0
M  V30 7209 H 686.346 0.904863 1.18881 0
M  V30 7210 H 688.228 -0.0185375 4.21396 0
M  V30 7211 H 686.903 -0.615783 3.17789 0
M  V30 7212 H 685.81 1.69625 3.33434 0
M  V30 7213 H 687.143 2.21418 4.39585 0
M  V30 7214 N 688.795 -1.27931 0.920396 0
M  V30 7215 C 689.725 -2.29487 0.431024 0
M  V30 7216 C 690.706 -1.62435 -0.504861 0
M  V30 7217 O 691.891 -1.89797 -0.411176 0
M  V30 7218 C 689.021 -3.45788 -0.323709 0
M  V30 7219 C 687.975 -4.24784 0.523658 0
M  V30 7220 C 687.301 -5.33488 -0.359809 0
M  V30 7221 C 688.601 -4.90874 1.78437 0
M  V30 7222 H 690.295 -2.70671 1.27975 0
M  V30 7223 H 687.841 -1.30121 0.616813 0
M  V30 7224 H 689.794 -4.15927 -0.676952 0
M  V30 7225 H 688.518 -3.03502 -1.2064 0
M  V30 7226 H 687.177 -3.56382 0.85951 0
M  V30 7227 H 686.825 -4.87445 -1.24124 0
M  V30 7228 H 686.525 -5.87247 0.203605 0
M  V30 7229 H 688.049 -6.06472 -0.708787 0
M  V30 7230 H 689.463 -5.53339 1.49963 0
M  V30 7231 H 687.86 -5.54659 2.29071 0
M  V30 7232 H 688.93 -4.14988 2.50824 0
M  V30 7233 N 690.273 -0.685099 -1.4193 0
M  V30 7234 C 691.205 0.0258679 -2.29185 0
M  V30 7235 C 692.218 0.755076 -1.44231 0
M  V30 7236 O 693.407 0.60752 -1.67844 0
M  V30 7237 C 690.507 1.06055 -3.21878 0
M  V30 7238 C 689.68 0.403088 -4.35539 0
M  V30 7239 C 688.739 1.33895 -5.0888 0
M  V30 7240 O 687.765 0.835326 -5.63037 0
M  V30 7241 N 688.967 2.6718 -5.15359 0
M  V30 7242 H 691.732 -0.723201 -2.90843 0
M  V30 7243 H 689.293 -0.53031 -1.52968 0
M  V30 7244 H 691.285 1.68813 -3.6781 0
M  V30 7245 H 689.855 1.71126 -2.616 0
M  V30 7246 H 689.075 -0.404185 -3.92122 0
M  V30 7247 H 690.363 -0.0545098 -5.08771 0
M  V30 7248 H 689.761 3.10626 -4.72788 0
M  V30 7249 H 688.318 3.25159 -5.64903 0
M  V30 7250 N 691.751 1.51645 -0.429126 0
M  V30 7251 C 692.997 2.02314 0.140286 0
M  V30 7252 C 693.33 1.31314 1.43074 0
M  V30 7253 O 692.605 0.425531 1.89788 0
M  V30 7254 C 692.888 3.5822 0.36749 0
M  V30 7255 C 692.741 4.39846 -0.941039 0
M  V30 7256 C 694.06 4.25055 1.14089 0
M  V30 7257 H 691.179 0.735335 0.0495112 0
M  V30 7258 H 693.821 1.81358 -0.566514 0
M  V30 7259 H 691.971 3.76207 0.969556 0
M  V30 7260 H 693.643 4.33527 -1.57646 0
M  V30 7261 H 691.886 4.05259 -1.54751 0
M  V30 7262 H 692.557 5.47069 -0.73621 0
M  V30 7263 H 695.033 4.11288 0.630986 0
M  V30 7264 H 693.909 5.34038 1.26863 0
M  V30 7265 H 694.17 3.85358 2.16683 0
M  V30 7266 N 693.229 0.160201 1.56784 0
M  V30 7267 C 694.139 -0.787167 2.21 0
M  V30 7268 C 695.155 -1.26167 1.19825 0
M  V30 7269 O 696.331 -1.31611 1.52448 0
M  V30 7270 C 693.396 -2.00364 2.8294 0
M  V30 7271 C 692.457 -1.5771 3.99282 0
M  V30 7272 C 691.69 -2.73558 4.58259 0
M  V30 7273 O 691.913 -3.90129 4.16119 0
M  V30 7274 O 690.847 -2.48271 5.48311 0
M  V30 7275 H 694.673 -0.270462 3.02493 0
M  V30 7276 H 692.258 -0.0674666 1.49248 0
M  V30 7277 H 694.14 -2.71529 3.22257 0
M  V30 7278 H 692.815 -2.50961 2.04451 0
M  V30 7279 H 691.722 -0.835274 3.64656 0
M  V30 7280 H 693.055 -1.11815 4.79331 0
M  V30 7281 N 694.707 -1.5719 -0.113559 0
M  V30 7282 C 695.637 -2.03772 -1.14013 0
M  V30 7283 C 696.618 -0.923176 -1.42869 0
M  V30 7284 O 697.803 -1.19325 -1.53216 0
M  V30 7285 C 694.933 -2.44663 -2.4649 0
M  V30 7286 C 693.887 -3.59612 -2.32085 0
M  V30 7287 C 693.213 -3.8642 -3.69573 0
M  V30 7288 C 694.513 -4.91149 -1.7768 0
M  V30 7289 H 696.207 -2.89785 -0.752665 0
M  V30 7290 H 693.753 -1.39412 -0.360609 0
M  V30 7291 H 695.706 -2.75857 -3.18561 0
M  V30 7292 H 694.43 -1.55628 -2.87137 0
M  V30 7293 H 693.089 -3.28636 -1.62461 0
M  V30 7294 H 692.737 -2.94581 -4.07715 0
M  V30 7295 H 692.437 -4.63797 -3.60786 0
M  V30 7296 H 693.961 -4.2007 -4.4314 0
M  V30 7297 H 695.375 -5.20843 -2.39574 0
M  V30 7298 H 693.772 -5.72562 -1.79701 0
M  V30 7299 H 694.842 -4.79301 -0.734776 0
M  V30 7300 N 696.185 0.383891 -1.52853 0
M  V30 7301 C 697.596 0.961591 -1.60032 0
M  V30 7302 C 697.947 1.90819 -0.456333 0
M  V30 7303 O 697.072 2.12288 0.419873 0
M  V30 7304 C 697.667 1.75078 -2.90057 0
M  V30 7305 C 696.226 2.2781 -2.99632 0
M  V30 7306 C 695.373 1.08512 -2.55187 0
M  V30 7307 H 698.324 0.163269 -1.57858 0
M  V30 7308 H 698.345 2.61046 -2.7683 0
M  V30 7309 H 697.857 1.06157 -3.73299 0
M  V30 7310 H 695.958 3.00028 -2.20939 0
M  V30 7311 H 696.071 2.56947 -4.0437 0
M  V30 7312 H 694.435 1.44667 -2.09627 0
M  V30 7313 H 695.218 0.41118 -3.40829 0
M  V30 7314 N 697.663 1.43903 0.642637 0
M  V30 7315 C 698.573 1.52349 1.78401 0
M  V30 7316 C 699.589 0.409869 1.69104 0
M  V30 7317 O 700.765 0.665548 1.90085 0
M  V30 7318 C 697.83 1.45408 3.14734 0
M  V30 7319 C 696.891 2.67528 3.35749 0
M  V30 7320 C 696.124 2.60909 4.65577 0
M  V30 7321 O 696.347 1.6627 5.45628 0
M  V30 7322 O 695.281 3.5158 4.88544 0
M  V30 7323 H 699.107 2.48752 1.7423 0
M  V30 7324 H 696.692 1.26021 0.802439 0
M  V30 7325 H 698.574 1.44019 3.96026 0
M  V30 7326 H 697.249 0.521437 3.19473 0
M  V30 7327 H 696.156 2.74487 2.5418 0
M  V30 7328 H 697.489 3.598 3.35864 0
M  V30 7329 N 699.141 -0.881989 1.30609 0
M  V30 7330 C 700.387 -1.63647 1.19781 0
M  V30 7331 C 700.72 -1.92632 -0.246265 0
M  V30 7332 O 699.995 -1.54938 -1.17577 0
M  V30 7333 C 700.278 -2.97437 2.02985 0
M  V30 7334 C 700.131 -2.75406 3.55628 0
M  V30 7335 C 701.45 -3.98397 1.86997 0
M  V30 7336 H 698.569 -0.593841 0.436488 0
M  V30 7337 H 701.211 -1.02041 1.60273 0
M  V30 7338 H 699.361 -3.50018 1.68581 0
M  V30 7339 H 701.033 -2.2959 4.00107 0
M  V30 7340 H 699.276 -2.09856 3.79662 0
M  V30 7341 H 699.947 -3.70552 4.09139 0
M  V30 7342 H 702.423 -3.54986 2.17081 0
M  V30 7343 H 701.299 -4.89916 2.47536 0
M  V30 7344 H 701.56 -4.3424 0.829943 0
M  V30 7345 N 700.619 -1.13374 -1.09472 0
M  V30 7346 C 701.569 -0.77946 -2.14263 0
M  V30 7347 C 702.553 0.226271 -1.59301 0
M  V30 7348 O 703.745 0.0302581 -1.76974 0
M  V30 7349 C 700.874 -0.246635 -3.42413 0
M  V30 7350 C 699.96 -1.28124 -4.04283 0
M  V30 7351 N 700.351 -2.48201 -4.40715 0
M  V30 7352 C 698.649 -1.12892 -4.31476 0
M  V30 7353 C 699.35 -3.14347 -4.8945 0
M  V30 7354 N 698.326 -2.41771 -4.86876 0
M  V30 7355 H 702.128 -1.69305 -2.40235 0
M  V30 7356 H 699.642 -1.01598 -1.26695 0
M  V30 7357 H 701.639 0.0254131 -4.16892 0
M  V30 7358 H 700.299 0.661287 -3.17895 0
M  V30 7359 H 701.31 -2.85511 -4.32093 0
M  V30 7360 H 697.987 -0.279117 -4.16566 0
M  V30 7361 H 699.377 -4.16663 -5.27107 0
M  V30 7362 N 702.098 1.27442 -0.927168 0
M  V30 7363 C 703.326 1.98498 -0.583622 0
M  V30 7364 C 703.741 1.69171 0.838241 0
M  V30 7365 O 703.098 0.951969 1.55704 0
M  V30 7366 C 703.149 3.52552 -0.799341 0
M  V30 7367 O 702.87 3.80851 -2.16527 0
M  V30 7368 C 704.371 4.4086 -0.464436 0
M  V30 7369 H 701.591 0.633487 -0.221213 0
M  V30 7370 H 704.135 1.62308 -1.24404 0
M  V30 7371 H 702.29 3.86955 -0.185728 0
M  V30 7372 H 702.704 4.75441 -2.21487 0
M  V30 7373 H 704.178 5.47967 -0.666075 0
M  V30 7374 H 704.655 4.35082 0.599995 0
M  V30 7375 H 705.261 4.11977 -1.05617 0
M  V30 7376 N 703.576 0.692616 1.41565 0
M  V30 7377 C 704.524 0.0139952 2.32596 0
M  V30 7378 C 705.518 -0.771691 1.50802 0
M  V30 7379 O 706.724 -0.677646 1.66757 0
M  V30 7380 H 703.099 -0.0142745 0.751865 0
M  V30 7381 H 705.07 0.798851 2.87508 0
M  V30 7382 C 703.819 -0.910602 3.35564 0
M  V30 7383 H 703.142 -0.315446 3.98554 0
M  V30 7384 H 704.582 -1.3538 4.01806 0
M  V30 7385 C 703.041 -2.02539 2.6922 0
M  V30 7386 O 703.571 -3.11386 2.53775 0
M  V30 7387 N 701.777 -1.80227 2.27962 0
M  V30 7388 H 701.324 -0.917054 2.40724 0
M  V30 7389 H 701.282 -2.55001 1.83907 0
M  V30 7390 N 705.054 -1.51416 0.437162 0
M  V30 7391 C 706.279 -2.0699 -0.130424 0
M  V30 7392 C 706.704 -1.30249 -1.35709 0
M  V30 7393 O 706.062 -0.340388 -1.78076 0
M  V30 7394 C 706.11 -3.5801 -0.43142 0
M  V30 7395 O 705.214 -3.8345 -1.5179 0
M  V30 7396 H 704.555 -0.663997 -0.00194339 0
M  V30 7397 H 707.085 -1.95029 0.618445 0
M  V30 7398 H 707.095 -4.02261 -0.681926 0
M  V30 7399 H 705.77 -4.13291 0.465137 0
M  V30 7400 H 704.347 -3.51062 -1.25737 0
M  V30 7401 N 706.532 -0.168513 -1.56696 0
M  V30 7402 C 707.772 0.479648 -1.98693 0
M  V30 7403 C 708.136 1.60609 -1.05209 0
M  V30 7404 O 709.337 2.3166 -1.36334 0
M  V30 7405 C 707.608 0.952852 -3.44464 0
M  V30 7406 S 709.167 1.60259 -4.08488 0
M  V30 7407 H 705.985 0.154377 -0.694038 0
M  V30 7408 H 708.587 -0.265312 -1.93691 0
M  V30 7409 H 707.291 0.12257 -4.10217 0
M  V30 7410 H 706.822 1.73192 -3.53225 0
M  V30 7411 H 708.837 2.89065 -4.03307 0
M  V30 7412 N 708.01 1.57248 0.105221 0
M  V30 7413 C 709.287 1.76566 0.841647 0
M  V30 7414 C 709.667 0.747566 1.9742 0
M  V30 7415 O 709.015 -0.225886 2.27381 0
M  V30 7416 C 709.225 3.22016 1.3456 0
M  V30 7417 C 710.573 3.84911 1.79244 0
M  V30 7418 O 711.597 3.25703 1.44207 0
M  V30 7419 O 710.456 4.89008 2.43995 0
M  V30 7420 H 707.55 0.723443 0.400698 0
M  V30 7421 H 710.096 1.69472 0.0878893 0
M  V30 7422 H 708.868 3.87644 0.533685 0
M  V30 7423 H 708.491 3.33703 2.16167 0
M  V30 7424 N 709.488 -0.375779 1.53054 0
M  V30 7425 C 710.436 -1.48015 1.79428 0
M  V30 7426 C 711.43 -1.55893 0.662854 0
M  V30 7427 O 712.636 -1.58901 0.845599 0
M  V30 7428 H 709.011 -0.492887 0.56795 0
M  V30 7429 H 710.982 -1.22971 2.71884 0
M  V30 7430 C 709.731 -2.84984 1.99197 0
M  V30 7431 H 709.054 -2.79677 2.85693 0
M  V30 7432 H 710.494 -3.61462 2.21633 0
M  V30 7433 C 708.953 -3.28025 0.768183 0
M  V30 7434 O 709.483 -4.01671 -0.0480482 0
M  V30 7435 N 707.689 -2.84454 0.594521 0
M  V30 7436 H 707.236 -2.24688 1.25988 0
M  V30 7437 H 707.194 -3.13609 -0.222916 0
M  V30 7438 N 710.966 -1.44241 -0.634997 0
M  V30 7439 C 712.215 -1.46102 -1.39058 0
M  V30 7440 C 712.528 -0.0959909 -1.95364 0
M  V30 7441 O 713.734 0.00788751 -2.71499 0
M  V30 7442 C 712.19 -2.57195 -2.51751 0
M  V30 7443 C 711.798 -3.99888 -2.01974 0
M  V30 7444 C 713.542 -2.68272 -3.28984 0
M  V30 7445 C 711.449 -5.02412 -3.11987 0
M  V30 7446 H 710.379 -0.543556 -0.522554 0
M  V30 7447 H 713.03 -1.70294 -0.683538 0
M  V30 7448 H 711.412 -2.26237 -3.25012 0
M  V30 7449 H 712.586 -4.40396 -1.35604 0
M  V30 7450 H 710.901 -3.93019 -1.37568 0
M  V30 7451 H 713.498 -3.42042 -4.10988 0
M  V30 7452 H 713.841 -1.73957 -3.78212 0
M  V30 7453 H 714.374 -2.98622 -2.62812 0
M  V30 7454 H 711.113 -5.98342 -2.67707 0
M  V30 7455 H 710.633 -4.66501 -3.77011 0
M  V30 7456 H 712.312 -5.25939 -3.76825 0
M  V30 7457 N 712.444 0.87505 -1.31075 0
M  V30 7458 C 713.669 1.66583 -1.23551 0
M  V30 7459 C 714.094 1.87067 0.19686 0
M  V30 7460 O 713.452 1.40877 1.1412 0
M  V30 7461 C 713.5 3.01401 -1.97965 0
M  V30 7462 O 712.604 3.90923 -1.31351 0
M  V30 7463 H 711.945 0.508645 -0.426821 0
M  V30 7464 H 714.475 1.09139 -1.7306 0
M  V30 7465 H 714.485 3.51374 -2.07366 0
M  V30 7466 H 713.16 2.85812 -3.02133 0
M  V30 7467 H 711.737 3.49369 -1.30368 0
M  V30 7468 N 713.922 1.13953 1.08869 0
M  V30 7469 C 714.854 0.779906 2.15523 0
M  V30 7470 C 715.867 -0.20102 1.61554 0
M  V30 7471 O 717.056 0.0200049 1.78489 0
M  V30 7472 C 714.156 0.136226 3.38626 0
M  V30 7473 C 713.329 1.15069 4.21993 0
M  V30 7474 C 712.388 0.531645 5.23507 0
M  V30 7475 O 711.414 1.19327 5.56552 0
M  V30 7476 N 712.616 -0.693734 5.7634 0
M  V30 7477 H 715.381 1.69769 2.46979 0
M  V30 7478 H 712.942 1.03331 1.24637 0
M  V30 7479 H 714.934 -0.290295 4.03658 0
M  V30 7480 H 713.504 -0.684603 3.05011 0
M  V30 7481 H 712.724 1.75431 3.53012 0
M  V30 7482 H 714.012 1.83614 4.74514 0
M  V30 7483 H 713.41 -1.24994 5.51718 0
M  V30 7484 H 711.967 -1.06283 6.43076 0
M  V30 7485 N 715.4 -1.26948 0.933913 0
M  V30 7486 C 716.647 -1.94087 0.577625 0
M  V30 7487 C 716.975 -1.73345 -0.88214 0
M  V30 7488 O 716.23 -1.05945 -1.64542 0
M  V30 7489 C 716.529 -3.46963 0.857406 0
M  V30 7490 C 716.195 -3.87834 2.2999 0
M  V30 7491 C 714.857 -3.98704 2.69423 0
M  V30 7492 C 717.209 -4.08442 3.23766 0
M  V30 7493 C 714.537 -4.27573 4.01744 0
M  V30 7494 C 716.889 -4.38798 4.55675 0
M  V30 7495 C 715.553 -4.47881 4.94934 0
M  V30 7496 H 714.823 -0.710215 0.211368 0
M  V30 7497 H 717.47 -1.50899 1.17905 0
M  V30 7498 H 715.775 -3.91416 0.173369 0
M  V30 7499 H 717.472 -3.97062 0.560615 0
M  V30 7500 H 714.062 -3.79916 1.98399 0
M  V30 7501 H 718.246 -3.99479 2.94499 0
M  V30 7502 H 713.502 -4.32815 4.31834 0
M  V30 7503 H 717.676 -4.5369 5.28335 0
M  V30 7504 H 715.303 -4.70005 5.97495 0
M  V30 7505 N 716.879 -0.700114 -1.41195 0
M  V30 7506 C 718.104 -0.240704 -2.05998 0
M  V30 7507 C 718.529 1.10313 -1.52357 0
M  V30 7508 O 717.887 1.69154 -0.652424 0
M  V30 7509 C 717.935 -0.213783 -3.59966 0
M  V30 7510 O 717.039 0.809933 -4.04368 0
M  V30 7511 H 716.38 -0.116471 -0.653705 0
M  V30 7512 H 718.91 -0.956251 -1.80878 0
M  V30 7513 H 718.92 -0.0461852 -4.07974 0
M  V30 7514 H 717.595 -1.19454 -3.98376 0
M  V30 7515 H 716.172 0.611319 -3.67855 0
M  V30 7516 N 718.357 1.51182 -0.445186 0
M  V30 7517 C 719.603 2.02452 0.11882 0
M  V30 7518 C 719.936 1.32824 1.41673 0
M  V30 7519 O 719.211 0.445637 1.89326 0
M  V30 7520 C 719.494 3.5859 0.329475 0
M  V30 7521 C 719.347 4.38823 -0.987638 0
M  V30 7522 C 720.666 4.26241 1.09575 0
M  V30 7523 H 717.785 0.735819 0.0417092 0
M  V30 7524 H 720.427 1.80747 -0.585718 0
M  V30 7525 H 718.577 3.77214 0.9296 0
M  V30 7526 H 720.249 4.3183 -1.62235 0
M  V30 7527 H 718.492 4.03594 -1.59041 0
M  V30 7528 H 719.163 5.46257 -0.794192 0
M  V30 7529 H 721.639 4.11934 0.587328 0
M  V30 7530 H 720.515 5.35354 1.21191 0
M  V30 7531 H 720.776 3.87635 2.12584 0
M  V30 7532 N 719.835 0.176821 1.56605 0
M  V30 7533 C 721.112 -0.513365 1.88743 0
M  V30 7534 C 721.492 -1.80929 1.08757 0
M  V30 7535 O 720.84 -2.27765 0.183127 0
M  V30 7536 C 721.05 -0.749925 3.40848 0
M  V30 7537 C 722.398 -1.07747 4.10701 0
M  V30 7538 O 723.422 -0.838277 3.46196 0
M  V30 7539 O 722.281 -1.52901 5.24675 0
M  V30 7540 H 719.375 -0.265296 0.783292 0
M  V30 7541 H 721.921 0.215669 1.68324 0
M  V30 7542 H 720.693 0.16599 3.90948 0
M  V30 7543 H 720.316 -1.53208 3.66897 0
M  V30 7544 N 721.313 -1.57302 -0.09688 0
M  V30 7545 C 722.538 -1.9058 -0.818169 0
M  V30 7546 C 722.963 -0.770921 -1.71576 0
M  V30 7547 O 722.321 0.277588 -1.79162 0
M  V30 7548 C 722.369 -3.22714 -1.60898 0
M  V30 7549 O 721.473 -3.10178 -2.71779 0
M  V30 7550 H 720.814 -0.624759 -0.224882 0
M  V30 7551 H 723.344 -2.04471 -0.07264 0
M  V30 7552 H 723.354 -3.55978 -1.99358 0
M  V30 7553 H 722.029 -4.04899 -0.950227 0
M  V30 7554 H 720.606 -2.88424 -2.3636 0
M  V30 7555 N 722.791 0.367657 -1.53252 0
M  V30 7556 C 724.04 1.10782 -1.68554 0
M  V30 7557 C 724.353 1.90523 -0.442765 0
M  V30 7558 O 725.559 2.6729 -0.47629 0
M  V30 7559 C 724.015 2.01863 -2.97959 0
M  V30 7560 C 723.623 1.27443 -4.29491 0
M  V30 7561 C 725.367 2.75883 -3.22628 0
M  V30 7562 C 723.274 2.17414 -5.49987 0
M  V30 7563 H 722.204 0.417272 -0.628013 0
M  V30 7564 H 724.855 0.368971 -1.79752 0
M  V30 7565 H 723.237 2.7947 -2.80558 0
M  V30 7566 H 724.411 0.549138 -4.57516 0
M  V30 7567 H 722.726 0.652935 -4.11249 0
M  V30 7568 H 725.323 3.43421 -4.09837 0
M  V30 7569 H 725.666 3.41138 -2.38601 0
M  V30 7570 H 726.199 2.0536 -3.40693 0
M  V30 7571 H 722.938 1.5674 -6.36485 0
M  V30 7572 H 722.458 2.87799 -5.26243 0
M  V30 7573 H 724.137 2.77019 -5.84696 0
M  V30 7574 N 724.269 1.44576 0.627338 0
M  V30 7575 C 725.497 1.51048 1.41394 0
M  V30 7576 C 725.912 0.136568 1.88305 0
M  V30 7577 O 725.269 -0.858251 1.6106 0
M  V30 7578 C 725.32 2.47837 2.63172 0
M  V30 7579 O 725.041 3.79887 2.18215 0
M  V30 7580 C 726.542 2.63811 3.56257 0
M  V30 7581 H 723.762 0.512171 0.4335 0
M  V30 7582 H 726.306 1.89576 0.766878 0
M  V30 7583 H 724.461 2.12433 3.23961 0
M  V30 7584 H 724.875 4.32177 2.97192 0
M  V30 7585 H 726.349 3.35554 4.38301 0
M  V30 7586 H 726.826 1.69169 4.05313 0
M  V30 7587 H 727.432 3.0013 3.01333 0
M  V30 7588 N 725.747 -0.868086 1.31537 0
M  V30 7589 C 726.972 -1.65926 1.24432 0
M  V30 7590 C 727.397 -1.87169 -0.186936 0
M  V30 7591 O 726.755 -1.4148 -1.13371 0
M  V30 7592 C 726.803 -3.00347 1.9956 0
M  V30 7593 O 725.907 -3.90221 1.33422 0
M  V30 7594 H 725.248 -0.506375 0.429512 0
M  V30 7595 H 727.778 -1.0822 1.73637 0
M  V30 7596 H 727.788 -3.50269 2.09226 0
M  V30 7597 H 726.463 -2.84205 3.03645 0
M  V30 7598 H 725.04 -3.48672 1.32219 0
M  V30 7599 N 727.225 -1.14528 -1.08264 0
M  V30 7600 C 728.157 -0.791325 -2.15106 0
M  V30 7601 C 729.17 0.192449 -1.61659 0
M  V30 7602 O 730.359 -0.0294704 -1.78476 0
M  V30 7603 C 727.459 -0.154183 -3.38549 0
M  V30 7604 C 726.632 -1.17305 -4.21377 0
M  V30 7605 C 725.691 -0.559401 -5.23218 0
M  V30 7606 O 724.717 -1.22277 -5.55911 0
M  V30 7607 N 725.919 0.663159 -5.767 0
M  V30 7608 H 728.684 -1.71076 -2.46075 0
M  V30 7609 H 726.245 -1.0399 -1.24087 0
M  V30 7610 H 728.237 0.268884 -4.03806 0
M  V30 7611 H 726.807 0.668418 -3.0537 0
M  V30 7612 H 726.027 -1.773 -3.52077 0
M  V30 7613 H 727.315 -1.86128 -4.73533 0
M  V30 7614 H 726.713 1.22066 -5.52373 0
M  V30 7615 H 725.27 1.02871 -6.43631 0
M  V30 7616 N 728.703 1.26451 -0.940633 0
M  V30 7617 C 729.613 2.30128 -0.455881 0
M  V30 7618 C 730.629 1.67536 0.469867 0
M  V30 7619 O 731.805 1.98344 0.349529 0
M  V30 7620 C 728.87 3.45634 0.271648 0
M  V30 7621 C 727.931 4.23709 -0.690594 0
M  V30 7622 C 727.164 5.337 0.00231047 0
M  V30 7623 O 727.387 5.57215 1.21935 0
M  V30 7624 O 726.321 5.98091 -0.676111 0
M  V30 7625 H 730.147 2.73655 -1.31707 0
M  V30 7626 H 727.732 1.3164 -0.706497 0
M  V30 7627 H 729.614 4.15853 0.681486 0
M  V30 7628 H 728.289 3.04138 1.10824 0
M  V30 7629 H 727.196 3.55974 -1.15037 0
M  V30 7630 H 728.529 4.68953 -1.49478 0
M  V30 7631 N 730.181 0.707592 1.40822 0
M  V30 7632 C 731.406 0.251626 2.05868 0
M  V30 7633 C 731.831 -1.09503 1.5294 0
M  V30 7634 O 731.189 -1.68806 0.661385 0
M  V30 7635 C 731.237 0.23287 3.59847 0
M  V30 7636 O 730.341 -0.788477 4.04792 0
M  V30 7637 H 729.682 0.119936 0.653078 0
M  V30 7638 H 732.212 0.96583 1.80369 0
M  V30 7639 H 732.222 0.0678204 4.07944 0
M  V30 7640 H 730.897 1.21565 3.97737 0
M  V30 7641 H 729.474 -0.591802 3.68174 0
M  V30 7642 N 731.66 -1.50943 0.453197 0
M  V30 7643 C 732.607 -2.28128 -0.350197 0
M  V30 7644 C 733.577 -1.32398 -1.00299 0
M  V30 7645 O 734.762 -1.61319 -1.01887 0
M  V30 7646 C 731.902 -3.13782 -1.43649 0
M  V30 7647 C 731.015 -4.24523 -0.800255 0
M  V30 7648 C 730.15 -4.97462 -1.86293 0
M  V30 7649 C 729.189 -6.00102 -1.20598 0
M  V30 7650 N 728.326 -6.66387 -2.21071 0
M  V30 7651 H 733.166 -2.96337 0.31434 0
M  V30 7652 H 730.703 -1.46151 0.166863 0
M  V30 7653 H 732.661 -3.6178 -2.07776 0
M  V30 7654 H 731.291 -2.47655 -2.07044 0
M  V30 7655 H 730.343 -3.80371 -0.0468651 0
M  V30 7656 H 731.655 -4.98009 -0.280777 0
M  V30 7657 H 730.809 -5.49088 -2.58044 0
M  V30 7658 H 729.548 -4.23642 -2.41617 0
M  V30 7659 H 728.553 -5.47753 -0.474 0
M  V30 7660 H 729.778 -6.75887 -0.659859 0
M  V30 7661 H 727.724 -5.9537 -2.75446 0
M  V30 7662 H 727.641 -7.3569 -1.74058 0
M  V30 7663 H 728.909 -7.22638 -2.92257 0
M  V30 7664 N 733.138 -0.185124 -1.56509 0
M  V30 7665 C 734.048 0.751908 -2.22224 0
M  V30 7666 C 735.064 1.24244 -1.21817 0
M  V30 7667 O 736.24 1.29169 -1.54523 0
M  V30 7668 C 733.305 1.95837 -2.86092 0
M  V30 7669 C 732.366 1.51337 -4.01741 0
M  V30 7670 C 731.599 2.66233 -4.62554 0
M  V30 7671 O 731.822 3.8346 -4.22273 0
M  V30 7672 O 730.756 2.39517 -5.52191 0
M  V30 7673 H 734.582 0.222304 -3.02885 0
M  V30 7674 H 732.167 0.0437141 -1.49336 0
M  V30 7675 H 734.049 2.66368 -3.26536 0
M  V30 7676 H 732.724 2.47677 -2.08417 0
M  V30 7677 H 731.631 0.777155 -3.65939 0
M  V30 7678 H 732.964 1.04175 -4.81049 0
M  V30 7679 N 734.616 1.57351 0.0885366 0
M  V30 7680 C 736.027 1.75303 0.642308 0
M  V30 7681 C 736.378 0.808238 1.78779 0
M  V30 7682 O 735.503 -0.01171 2.16397 0
M  V30 7683 C 736.098 3.17885 1.17194 0
M  V30 7684 C 734.657 3.37239 1.67172 0
M  V30 7685 C 733.804 2.7108 0.584045 0
M  V30 7686 H 736.755 1.58103 -0.137567 0
M  V30 7687 H 736.776 3.2112 2.04114 0
M  V30 7688 H 736.288 3.86625 0.338024 0
M  V30 7689 H 734.389 2.73588 2.52943 0
M  V30 7690 H 734.502 4.45594 1.76019 0
M  V30 7691 H 732.866 2.33161 1.02508 0
M  V30 7692 H 733.649 3.42464 -0.239403 0
M  V30 7693 N 736.094 -0.359525 1.53444 0
M  V30 7694 C 737.34 -1.10315 1.70172 0
M  V30 7695 C 737.673 -1.88788 0.455287 0
M  V30 7696 O 736.948 -1.86635 -0.547514 0
M  V30 7697 C 737.231 -2.05744 2.95536 0
M  V30 7698 C 737.084 -1.3084 4.3035 0
M  V30 7699 C 738.403 -3.05784 3.16518 0
M  V30 7700 H 735.522 -0.399662 0.619225 0
M  V30 7701 H 738.164 -0.383338 1.86093 0
M  V30 7702 H 736.314 -2.67125 2.82093 0
M  V30 7703 H 737.986 -0.721959 4.55615 0
M  V30 7704 H 736.229 -0.610283 4.29486 0
M  V30 7705 H 736.9 -2.00718 5.14214 0
M  V30 7706 H 739.376 -2.5451 3.29187 0
M  V30 7707 H 738.252 -3.69772 4.05659 0
M  V30 7708 H 738.513 -3.76289 2.32076 0
M  V30 7709 N 737.572 -1.44907 -0.619662 0
M  V30 7710 C 738.819 -1.48292 -1.37898 0
M  V30 7711 C 739.147 -0.119933 -1.9413 0
M  V30 7712 O 738.402 0.879834 -1.74807 0
M  V30 7713 C 738.701 -2.50002 -2.55409 0
M  V30 7714 C 738.367 -3.95031 -2.17397 0
M  V30 7715 C 737.029 -4.34524 -2.06743 0
M  V30 7716 C 739.381 -4.86287 -1.87548 0
M  V30 7717 C 736.709 -5.63183 -1.64445 0
M  V30 7718 C 739.061 -6.15346 -1.4674 0
M  V30 7719 C 737.725 -6.53781 -1.34636 0
M  V30 7720 H 736.995 -0.542638 -0.504603 0
M  V30 7721 H 739.642 -1.78186 -0.701581 0
M  V30 7722 H 737.947 -2.13634 -3.28433 0
M  V30 7723 H 739.644 -2.49864 -3.13639 0
M  V30 7724 H 736.234 -3.63793 -2.26611 0
M  V30 7725 H 740.418 -4.56522 -1.94682 0
M  V30 7726 H 735.674 -5.91769 -1.53687 0
M  V30 7727 H 739.848 -6.85508 -1.22685 0
M  V30 7728 H 737.475 -7.53375 -1.01634 0
M  V30 7729 N 739.05 0.861098 -1.31996 0
M  V30 7730 C 740.299 1.60965 -1.21545 0
M  V30 7731 C 740.612 1.94325 0.222972 0
M  V30 7732 O 741.818 2.67757 0.449272 0
M  V30 7733 C 740.274 2.90223 -2.12834 0
M  V30 7734 C 739.882 2.64313 -3.61722 0
M  V30 7735 C 741.626 3.68229 -2.11205 0
M  V30 7736 C 739.533 3.89532 -4.44993 0
M  V30 7737 H 738.463 0.603988 -0.451348 0
M  V30 7738 H 741.114 0.951358 -1.56912 0
M  V30 7739 H 739.496 3.57475 -1.70375 0
M  V30 7740 H 740.67 2.05413 -4.12483 0
M  V30 7741 H 738.985 1.99647 -3.65418 0
M  V30 7742 H 741.582 4.61138 -2.70658 0
M  V30 7743 H 741.925 4.01466 -1.1014 0
M  V30 7744 H 742.458 3.07873 -2.51911 0
M  V30 7745 H 739.197 3.61441 -5.46846 0
M  V30 7746 H 738.717 4.47851 -3.98985 0
M  V30 7747 H 740.396 4.57334 -4.57663 0
M  V30 7748 N 740.528 1.15101 1.07655 0
M  V30 7749 C 741.491 0.847625 2.12951 0
M  V30 7750 C 742.491 -0.151227 1.60087 0
M  V30 7751 O 743.681 0.0780399 1.74025 0
M  V30 7752 C 740.813 0.265 3.39868 0
M  V30 7753 H 742.006 1.7809 2.41296 0
M  V30 7754 H 739.559 0.958072 1.23494 0
M  V30 7755 H 740.294 -0.676625 3.17163 0
M  V30 7756 H 740.079 0.984554 3.79538 0
M  V30 7757 H 741.569 0.0702121 4.17541 0
M  V30 7758 N 742.006 -1.2595 0.947325 0
M  V30 7759 C 742.969 -2.24407 0.466285 0
M  V30 7760 C 743.969 -1.55054 -0.426005 0
M  V30 7761 O 745.159 -1.7275 -0.224319 0
M  V30 7762 C 742.291 -3.39326 -0.327201 0
M  V30 7763 H 743.484 -2.68477 1.33642 0
M  V30 7764 H 741.037 -1.38211 0.729887 0
M  V30 7765 H 741.772 -3.00667 -1.21532 0
M  V30 7766 H 741.557 -3.9085 0.312839 0
M  V30 7767 H 743.047 -4.12455 -0.653477 0
M  V30 7768 N 743.484 -0.715051 -1.40445 0
M  V30 7769 C 744.732 -0.253826 -2.005 0
M  V30 7770 C 745.053 1.15681 -1.5698 0
M  V30 7771 O 744.323 1.78414 -0.809027 0
M  V30 7772 H 742.903 -0.0908537 -0.741454 0
M  V30 7773 H 745.565 -0.920561 -1.7179 0
M  V30 7774 H 744.661 -0.286499 -3.10782 0
M  V30 7775 N 744.962 1.50701 -0.461195 0
M  V30 7776 C 746.239 1.94958 0.158296 0
M  V30 7777 C 746.619 1.40111 1.57899 0
M  V30 7778 O 745.967 0.597976 2.20537 0
M  V30 7779 C 746.177 3.48821 0.11172 0
M  V30 7780 C 747.525 4.23499 0.30552 0
M  V30 7781 O 748.549 3.557 0.188758 0
M  V30 7782 O 747.408 5.43823 0.540244 0
M  V30 7783 H 744.502 0.818674 0.117054 0
M  V30 7784 H 747.048 1.61508 -0.520888 0
M  V30 7785 H 745.82 3.81263 -0.880577 0
M  V30 7786 H 745.443 3.88781 0.832791 0
M  V30 7787 N 746.441 0.193421 1.56409 0
M  V30 7788 C 747.69 -0.445995 1.96707 0
M  V30 7789 C 748.003 -1.62876 1.08309 0
M  V30 7790 O 749.209 -2.33586 1.38383 0
M  V30 7791 C 747.665 -0.844863 3.49843 0
M  V30 7792 C 747.273 0.31352 4.46902 0
M  V30 7793 C 749.017 -1.45146 3.98915 0
M  V30 7794 C 746.924 -0.106214 5.91305 0
M  V30 7795 H 745.854 -0.170398 0.734493 0
M  V30 7796 H 748.505 0.285172 1.81271 0
M  V30 7797 H 746.887 -1.63265 3.60778 0
M  V30 7798 H 748.061 1.09103 4.47698 0
M  V30 7799 H 746.376 0.8315 4.08014 0
M  V30 7800 H 748.973 -1.77792 5.04276 0
M  V30 7801 H 749.316 -2.35734 3.43126 0
M  V30 7802 H 749.849 -0.727675 3.91088 0
M  V30 7803 H 746.588 0.765442 6.51016 0
M  V30 7804 H 746.108 -0.848623 5.93766 0
M  V30 7805 H 747.787 -0.542588 6.44721 0
M  V30 7806 N 747.919 -1.57396 -0.0801906 0
M  V30 7807 C 749.335 -1.53564 -0.434778 0
M  V30 7808 C 749.535 -0.912372 -1.79661 0
M  V30 7809 O 748.591 -0.511268 -2.4727 0
M  V30 7810 C 749.904 -2.98244 -0.383561 0
M  V30 7811 C 751.452 -3.09536 -0.46435 0
M  V30 7812 C 751.927 -4.55851 -0.443128 0
M  V30 7813 N 753.418 -4.60456 -0.503448 0
M  V30 7814 C 754.153 -5.71135 -0.509106 0
M  V30 7815 N 753.649 -6.91203 -0.47008 0
M  V30 7816 N 755.442 -5.59353 -0.555035 0
M  V30 7817 H 747.593 -1.96281 0.811635 0
M  V30 7818 H 749.856 -0.898041 0.303689 0
M  V30 7819 H 749.562 -3.47369 0.550236 0
M  V30 7820 H 749.436 -3.57705 -1.19694 0
M  V30 7821 H 751.823 -2.6039 -1.38857 0
M  V30 7822 H 751.904 -2.53 0.377445 0
M  V30 7823 H 751.548 -5.05653 0.477207 0
M  V30 7824 H 751.478 -5.10242 -1.30234 0
M  V30 7825 H 753.969 -3.74048 -0.538199 0
M  V30 7826 H 754.282 -7.7132 -0.478091 0
M  V30 7827 H 752.627 -6.93625 -0.436897 0
M  V30 7828 H 755.818 -4.64453 -0.583158 0
M  V30 7829 H 755.991 -6.4561 -0.555976 0
M  V30 7830 N 749.397 0.351382 -1.53633 0
M  V30 7831 C 750.813 0.693987 -1.43722 0
M  V30 7832 C 751.013 1.9274 -0.587669 0
M  V30 7833 O 750.069 2.52387 -0.0756082 0
M  V30 7834 C 751.382 0.893937 -2.87105 0
M  V30 7835 C 752.93 0.993051 -2.96829 0
M  V30 7836 C 753.405 1.22537 -4.41303 0
M  V30 7837 N 754.896 1.29275 -4.44795 0
M  V30 7838 C 755.631 1.48988 -5.53706 0
M  V30 7839 N 755.127 1.65924 -6.72637 0
M  V30 7840 N 756.92 1.51472 -5.41306 0
M  V30 7841 H 749.071 -0.459688 -2.07366 0
M  V30 7842 H 751.334 -0.143684 -0.937048 0
M  V30 7843 H 751.04 0.0592517 -3.5165 0
M  V30 7844 H 750.914 1.79795 -3.31592 0
M  V30 7845 H 753.301 1.81827 -2.32429 0
M  V30 7846 H 753.382 0.0661119 -2.55715 0
M  V30 7847 H 753.026 0.405117 -5.06282 0
M  V30 7848 H 752.956 2.16575 -4.80003 0
M  V30 7849 H 755.447 1.17743 -3.59089 0
M  V30 7850 H 755.76 1.80578 -7.51406 0
M  V30 7851 H 754.105 1.63075 -6.75597 0
M  V30 7852 H 757.296 1.37818 -4.47352 0
M  V30 7853 H 757.469 1.66493 -6.26246 0
M  V30 7854 N 750.875 1.45233 0.611969 0
M  V30 7855 C 752.291 1.29542 0.932251 0
M  V30 7856 C 752.491 0.24523 2.00002 0
M  V30 7857 O 751.547 -0.362333 2.49887 0
M  V30 7858 C 752.86 2.67301 1.37733 0
M  V30 7859 C 754.408 2.75163 1.49178 0
M  V30 7860 C 754.883 4.13437 1.97064 0
M  V30 7861 N 756.374 4.15709 2.04304 0
M  V30 7862 C 757.109 5.19566 2.42568 0
M  V30 7863 N 756.605 6.33771 2.79832 0
M  V30 7864 N 758.398 5.06923 2.42869 0
M  V30 7865 H 750.549 2.12192 -0.0938679 0
M  V30 7866 H 752.812 0.947775 0.0206569 0
M  V30 7867 H 752.518 3.45318 0.666951 0
M  V30 7868 H 752.392 2.95472 2.3447 0
M  V30 7869 H 754.779 1.97453 2.19309 0
M  V30 7870 H 754.86 2.50712 0.507674 0
M  V30 7871 H 754.504 4.91631 1.27521 0
M  V30 7872 H 754.434 4.35277 2.9638 0
M  V30 7873 H 756.925 3.33293 1.78113 0
M  V30 7874 H 757.238 7.08815 3.07898 0
M  V30 7875 H 755.583 6.37179 2.77538 0
M  V30 7876 H 758.774 4.1675 2.1316 0
M  V30 7877 H 758.947 5.87981 2.72364 0
M  V30 7878 N 752.353 -0.854086 1.3245 0
M  V30 7879 C 753.283 -1.97827 1.24044 0
M  V30 7880 C 754.264 -1.69646 0.124166 0
M  V30 7881 O 755.449 -1.91687 0.31143 0
M  V30 7882 C 752.579 -3.33673 0.963324 0
M  V30 7883 C 751.533 -3.76207 2.04089 0
M  V30 7884 C 750.859 -5.0969 1.61618 0
M  V30 7885 C 752.159 -3.91612 3.45597 0
M  V30 7886 H 753.853 -2.05118 2.18099 0
M  V30 7887 H 751.399 -0.985489 1.04996 0
M  V30 7888 H 753.352 -4.11871 0.891061 0
M  V30 7889 H 752.076 -3.26597 -0.0128649 0
M  V30 7890 H 750.735 -3.0026 2.10332 0
M  V30 7891 H 750.383 -4.99072 0.627418 0
M  V30 7892 H 750.083 -5.3912 2.33717 0
M  V30 7893 H 751.607 -5.90381 1.55829 0
M  V30 7894 H 753.021 -4.60163 3.4194 0
M  V30 7895 H 751.418 -4.3246 4.16051 0
M  V30 7896 H 752.488 -2.9451 3.85217 0
M  V30 7897 N 753.831 -1.1567 -1.07043 0
M  V30 7898 C 755.056 -0.957946 -1.83952 0
M  V30 7899 C 755.481 0.488807 -1.81638 0
M  V30 7900 O 754.839 1.34869 -1.21162 0
M  V30 7901 C 754.887 -1.48064 -3.288 0
M  V30 7902 O 753.991 -0.681921 -4.06723 0
M  V30 7903 H 753.332 -0.341453 -0.569479 0
M  V30 7904 H 755.862 -1.53728 -1.35015 0
M  V30 7905 H 755.872 -1.49484 -3.7963 0
M  V30 7906 H 754.547 -2.53388 -3.29799 0
M  V30 7907 H 753.124 -0.737612 -3.65532 0
M  V30 7908 N 755.309 1.25446 -0.953992 0
M  V30 7909 C 756.219 2.29632 -0.480264 0
M  V30 7910 C 757.235 1.68025 0.452071 0
M  V30 7911 O 758.411 1.98703 0.328472 0
M  V30 7912 C 755.476 3.45903 0.234974 0
M  V30 7913 C 754.537 4.22953 -0.735495 0
M  V30 7914 C 753.77 5.33672 -0.0542957 0
M  V30 7915 O 753.993 5.58477 1.16018 0
M  V30 7916 O 752.927 5.9734 -0.739509 0
M  V30 7917 H 756.753 2.72242 -1.34602 0
M  V30 7918 H 754.338 1.30883 -0.720419 0
M  V30 7919 H 756.22 4.16552 0.637341 0
M  V30 7920 H 754.895 3.05296 1.07592 0
M  V30 7921 H 753.802 3.54734 -1.18806 0
M  V30 7922 H 755.135 4.67341 -1.54444 0
M  V30 7923 N 756.787 0.722489 1.40064 0
M  V30 7924 C 757.719 0.0349057 2.29173 0
M  V30 7925 C 758.732 -0.716571 1.46182 0
M  V30 7926 O 759.921 -0.562806 1.69395 0
M  V30 7927 C 757.021 -0.974839 3.24577 0
M  V30 7928 C 756.194 -0.287471 4.36454 0
M  V30 7929 C 755.253 -1.20356 5.12251 0
M  V30 7930 O 754.279 -0.685753 5.65054 0
M  V30 7931 N 755.481 -2.53422 5.22262 0
M  V30 7932 H 758.246 0.800058 2.88824 0
M  V30 7933 H 755.807 0.57068 1.51509 0
M  V30 7934 H 757.799 -1.59002 3.72157 0
M  V30 7935 H 756.369 -1.6413 2.66046 0
M  V30 7936 H 755.589 0.508008 3.90913 0
M  V30 7937 H 756.877 0.189382 5.08447 0
M  V30 7938 H 756.275 -2.97981 4.80857 0
M  V30 7939 H 754.832 -3.10067 5.73325 0
M  V30 7940 N 758.265 -1.50454 0.469181 0
M  V30 7941 C 759.195 -2.31353 -0.31592 0
M  V30 7942 C 760.176 -1.38172 -0.992094 0
M  V30 7943 O 761.361 -1.67093 -0.989633 0
M  V30 7944 C 758.491 -3.1786 -1.39937 0
M  V30 7945 C 757.445 -4.19578 -0.844909 0
M  V30 7946 C 756.771 -4.9481 -2.0265 0
M  V30 7947 C 758.071 -5.22106 0.142499 0
M  V30 7948 H 759.765 -2.97237 0.359269 0
M  V30 7949 H 757.311 -1.42942 0.174224 0
M  V30 7950 H 759.264 -3.7325 -1.95607 0
M  V30 7951 H 757.988 -2.49858 -2.1033 0
M  V30 7952 H 756.647 -3.65285 -0.310189 0
M  V30 7953 H 756.295 -4.23282 -2.71737 0
M  V30 7954 H 755.995 -5.63613 -1.66174 0
M  V30 7955 H 757.519 -5.53035 -2.58815 0
M  V30 7956 H 758.933 -5.72378 -0.324966 0
M  V30 7957 H 757.33 -5.98618 0.421441 0
M  V30 7958 H 758.4 -4.7297 1.06901 0
M  V30 7959 N 759.743 -0.201713 -1.56304 0
M  V30 7960 C 760.706 0.702811 -2.18159 0
M  V30 7961 C 761.706 1.13619 -1.13787 0
M  V30 7962 O 762.896 1.0482 -1.39134 0
M  V30 7963 C 760.028 1.96032 -2.78898 0
M  V30 7964 H 761.221 0.163836 -2.99452 0
M  V30 7965 H 758.774 0.04791 -1.56227 0
M  V30 7966 H 759.509 2.54165 -2.01421 0
M  V30 7967 H 759.294 1.65824 -3.55309 0
M  V30 7968 H 760.784 2.60519 -3.26373 0
M  V30 7969 N 761.222 1.57436 0.0718424 0
M  V30 7970 C 762.172 2.00132 1.09229 0
M  V30 7971 C 763.156 0.883379 1.34481 0
M  V30 7972 O 764.348 1.14728 1.34783 0
M  V30 7973 C 761.477 2.44876 2.40605 0
M  V30 7974 C 760.563 3.63405 2.18627 0
M  V30 7975 N 760.954 4.77583 1.66579 0
M  V30 7976 C 759.252 3.69953 2.491 0
M  V30 7977 C 759.953 5.5943 1.59415 0
M  V30 7978 N 758.929 5.03275 2.05464 0
M  V30 7979 H 762.731 2.85849 0.683185 0
M  V30 7980 H 760.245 1.59987 0.278914 0
M  V30 7981 H 762.242 2.73703 3.14471 0
M  V30 7982 H 760.902 1.60546 2.82232 0
M  V30 7983 H 761.913 4.99875 1.35443 0
M  V30 7984 H 758.59 2.96336 2.94094 0
M  V30 7985 H 759.98 6.61093 1.20026 0
M  V30 7986 N 762.7 -0.34323 1.53817 0
M  V30 7987 C 763.928 -1.10348 1.75017 0
M  V30 7988 C 764.343 -1.82345 0.489475 0
M  V30 7989 O 763.7 -1.74362 -0.538886 0
M  V30 7990 C 763.751 -2.11672 2.93048 0
M  V30 7991 O 763.472 -1.42603 4.14241 0
M  V30 7992 C 764.973 -3.0007 3.26301 0
M  V30 7993 H 762.193 -0.329056 0.584776 0
M  V30 7994 H 764.737 -0.395339 2.00642 0
M  V30 7995 H 762.892 -2.78051 2.69753 0
M  V30 7996 H 763.306 -2.10294 4.80496 0
M  V30 7997 H 764.78 -3.67101 4.12239 0
M  V30 7998 H 765.257 -3.66105 2.42618 0
M  V30 7999 H 765.863 -2.3928 3.51604 0
M  V30 8000 N 764.178 -1.45556 -0.604258 0
M  V30 8001 C 765.589 -1.44171 -1.18624 0
M  V30 8002 C 765.94 -0.171081 -1.95453 0
M  V30 8003 O 765.065 0.727156 -2.03817 0
M  V30 8004 C 765.66 -2.61193 -2.15786 0
M  V30 8005 C 764.219 -2.62918 -2.69353 0
M  V30 8006 C 763.366 -2.36479 -1.4482 0
M  V30 8007 H 766.317 -1.53747 -0.393381 0
M  V30 8008 H 766.338 -2.35481 -2.98879 0
M  V30 8009 H 765.85 -3.53656 -1.59841 0
M  V30 8010 H 763.951 -1.7447 -3.29228 0
M  V30 8011 H 764.064 -3.6224 -3.13559 0
M  V30 8012 H 762.428 -1.86103 -1.73891 0
M  V30 8013 H 763.211 -3.31091 -0.907376 0
M  V30 8014 N 765.656 0.84705 -1.32902 0
M  V30 8015 C 766.884 1.63403 -1.26913 0
M  V30 8016 C 767.299 1.88108 0.161483 0
M  V30 8017 O 766.656 1.45546 1.10103 0
M  V30 8018 C 766.707 2.98896 -2.03331 0
M  V30 8019 O 766.428 2.75281 -3.40811 0
M  V30 8020 C 767.929 3.93335 -2.04457 0
M  V30 8021 H 765.149 0.508701 -0.437566 0
M  V30 8022 H 767.693 1.05567 -1.75145 0
M  V30 8023 H 765.848 3.53356 -1.58802 0
M  V30 8024 H 766.262 3.61504 -3.8002 0
M  V30 8025 H 767.736 4.85647 -2.62394 0
M  V30 8026 H 768.213 4.26885 -1.03274 0
M  V30 8027 H 768.819 3.44812 -2.48967 0
M  V30 8028 N 767.134 1.16236 1.06428 0
M  V30 8029 C 768.097 0.870163 2.1204 0
M  V30 8030 C 769.097 -0.134239 1.60239 0
M  V30 8031 O 770.287 0.0964932 1.73933 0
M  V30 8032 C 767.419 0.301033 3.39568 0
M  V30 8033 H 768.612 1.8064 2.39394 0
M  V30 8034 H 766.165 0.971116 1.2247 0
M  V30 8035 H 766.9 -0.642948 3.17863 0
M  V30 8036 H 766.685 1.02475 3.78472 0
M  V30 8037 H 768.175 0.114494 4.17443 0
M  V30 8038 N 768.612 -1.24939 0.960631 0
M  V30 8039 C 769.859 -1.92818 0.618663 0
M  V30 8040 C 770.187 -1.75177 -0.845173 0
M  V30 8041 O 769.442 -1.09412 -1.62258 0
M  V30 8042 C 769.741 -3.45066 0.930809 0
M  V30 8043 C 769.407 -3.82869 2.38164 0
M  V30 8044 C 768.069 -3.92899 2.7782 0
M  V30 8045 C 770.421 -4.01483 3.32356 0
M  V30 8046 C 767.749 -4.18955 4.10723 0
M  V30 8047 C 770.101 -4.29033 4.6488 0
M  V30 8048 C 768.765 -4.37282 5.04322 0
M  V30 8049 H 768.035 -0.705571 0.226385 0
M  V30 8050 H 770.682 -1.48365 1.21079 0
M  V30 8051 H 768.987 -3.9096 0.256355 0
M  V30 8052 H 770.684 -3.95783 0.644712 0
M  V30 8053 H 767.274 -3.75622 2.06413 0
M  V30 8054 H 771.458 -3.93143 3.02907 0
M  V30 8055 H 766.714 -4.23558 4.40918 0
M  V30 8056 H 770.888 -4.42381 5.3784 0
M  V30 8057 H 768.515 -4.57225 6.0733 0
M  V30 8058 N 770.09 -0.729906 -1.39679 0
M  V30 8059 C 771.037 -0.0866063 -2.30637 0
M  V30 8060 C 772.007 0.735115 -1.48947 0
M  V30 8061 O 773.192 0.696125 -1.77648 0
M  V30 8062 C 770.332 0.818524 -3.35252 0
M  V30 8063 C 769.445 -0.0152635 -4.31997 0
M  V30 8064 C 768.58 0.890669 -5.2368 0
M  V30 8065 C 767.619 0.0518246 -6.12078 0
M  V30 8066 N 766.756 0.913411 -6.96133 0
M  V30 8067 H 771.596 -0.867925 -2.85081 0
M  V30 8068 H 769.133 -0.439673 -1.40376 0
M  V30 8069 H 771.091 1.3577 -3.9449 0
M  V30 8070 H 769.721 1.56587 -2.82277 0
M  V30 8071 H 768.773 -0.671794 -3.74421 0
M  V30 8072 H 770.085 -0.664086 -4.9436 0
M  V30 8073 H 769.239 1.49787 -5.87919 0
M  V30 8074 H 767.978 1.57328 -4.61627 0
M  V30 8075 H 766.983 -0.568209 -5.46856 0
M  V30 8076 H 768.208 -0.627497 -6.76195 0
M  V30 8077 H 766.154 1.58141 -6.36653 0
M  V30 8078 H 766.071 0.320952 -7.55318 0
M  V30 8079 H 767.339 1.50633 -7.64807 0
M  V30 8080 N 771.568 1.50203 -0.477153 0
M  V30 8081 C 772.984 1.59056 -0.131663 0
M  V30 8082 C 773.184 1.48473 1.36227 0
M  V30 8083 O 772.24 1.34635 2.13611 0
M  V30 8084 C 773.553 2.92741 -0.687254 0
M  V30 8085 C 775.101 3.0615 -0.651223 0
M  V30 8086 C 775.576 4.42419 -1.18446 0
M  V30 8087 N 777.067 4.48847 -1.14413 0
M  V30 8088 C 777.802 5.52689 -1.52717 0
M  V30 8089 N 777.298 6.63754 -1.98499 0
M  V30 8090 N 779.091 5.43267 -1.44282 0
M  V30 8091 H 771.242 1.55325 -1.44872 0
M  V30 8092 H 773.505 0.734395 -0.599473 0
M  V30 8093 H 773.211 3.0598 -1.73405 0
M  V30 8094 H 773.085 3.76961 -0.134215 0
M  V30 8095 H 775.472 2.92556 0.386677 0
M  V30 8096 H 775.553 2.23673 -1.24114 0
M  V30 8097 H 775.197 4.56763 -2.22103 0
M  V30 8098 H 775.127 5.23498 -0.570709 0
M  V30 8099 H 777.618 3.69152 -0.808416 0
M  V30 8100 H 777.931 7.39059 -2.25859 0
M  V30 8101 H 776.276 6.64858 -2.02456 0
M  V30 8102 H 779.467 4.55387 -1.08352 0
M  V30 8103 H 779.64 6.24074 -1.74459 0
M  V30 8104 N 773.046 0.209999 1.56195 0
M  V30 8105 C 774.323 -0.473214 1.89789 0
M  V30 8106 C 774.703 -1.78581 1.1257 0
M  V30 8107 O 774.051 -2.27325 0.231398 0
M  V30 8108 C 774.261 -0.677458 3.42362 0
M  V30 8109 C 775.609 -0.990114 4.12895 0
M  V30 8110 O 776.633 -0.764655 3.47896 0
M  V30 8111 O 775.492 -1.41737 5.278 0
M  V30 8112 H 772.586 -0.248622 0.788743 0
M  V30 8113 H 775.132 0.251324 1.67829 0
M  V30 8114 H 773.904 0.248878 3.90508 0
M  V30 8115 H 773.527 -1.45391 3.70064 0
M  V30 8116 N 774.524 -1.57472 -0.0634922 0
M  V30 8117 C 775.935 -1.76303 -0.614337 0
M  V30 8118 C 776.286 -0.836578 -1.77471 0
M  V30 8119 O 775.411 -0.0227184 -2.16388 0
M  V30 8120 C 776.006 -3.19709 -1.12122 0
M  V30 8121 C 774.565 -3.39856 -1.61786 0
M  V30 8122 C 773.712 -2.71975 -0.540845 0
M  V30 8123 H 776.663 -1.57864 0.162702 0
M  V30 8124 H 776.684 -3.24326 -1.98979 0
M  V30 8125 H 776.196 -3.87114 -0.276472 0
M  V30 8126 H 774.297 -2.77578 -2.48558 0
M  V30 8127 H 774.41 -4.48338 -1.68908 0
M  V30 8128 H 772.774 -2.34763 -0.987854 0
M  V30 8129 H 773.557 -3.4204 0.293856 0
M  V30 8130 N 776.003 0.335068 -1.53997 0
M  V30 8131 C 776.913 1.43511 -1.85585 0
M  V30 8132 C 777.929 1.57162 -0.746726 0
M  V30 8133 O 779.105 1.72477 -1.03988 0
M  V30 8134 C 776.17 2.78386 -2.06646 0
M  V30 8135 C 775.231 2.74007 -3.30483 0
M  V30 8136 C 774.464 4.02449 -3.50529 0
M  V30 8137 O 774.687 5.00147 -2.74242 0
M  V30 8138 O 773.621 4.06405 -4.4398 0
M  V30 8139 H 777.447 1.19731 -2.79102 0
M  V30 8140 H 775.032 0.528033 -1.39758 0
M  V30 8141 H 776.914 3.58247 -2.21894 0
M  V30 8142 H 775.589 3.0208 -1.16317 0
M  V30 8143 H 774.496 1.92736 -3.2063 0
M  V30 8144 H 775.829 2.55267 -4.20832 0
M  V30 8145 N 777.481 1.45874 0.596531 0
M  V30 8146 C 778.758 1.40942 1.35627 0
M  V30 8147 C 779.138 0.0857066 2.10926 0
M  V30 8148 O 778.486 -0.932544 2.08605 0
M  V30 8149 C 778.696 2.63027 2.29386 0
M  V30 8150 C 780.044 3.08588 2.91649 0
M  V30 8151 O 781.068 2.63478 2.39704 0
M  V30 8152 O 779.927 3.86902 3.85965 0
M  V30 8153 H 777.021 0.559838 0.608696 0
M  V30 8154 H 779.567 1.5802 0.618698 0
M  V30 8155 H 778.339 3.5094 1.7308 0
M  V30 8156 H 777.962 2.48338 3.10506 0
M  V30 8157 N 778.959 -0.83999 1.33349 0
M  V30 8158 C 780.37 -1.41139 1.22216 0
M  V30 8159 C 780.721 -1.95551 -0.159398 0
M  V30 8160 O 779.846 -1.88721 -1.05893 0
M  V30 8161 C 780.441 -2.56564 2.21269 0
M  V30 8162 C 779 -3.09661 2.13979 0
M  V30 8163 C 778.147 -1.82457 2.08818 0
M  V30 8164 H 781.098 -0.645853 1.44964 0
M  V30 8165 H 781.119 -3.34163 1.81976 0
M  V30 8166 H 780.631 -2.16932 3.21811 0
M  V30 8167 H 778.732 -3.53841 1.16736 0
M  V30 8168 H 778.845 -3.6991 3.04472 0
M  V30 8169 H 777.209 -2.0266 1.54276 0
M  V30 8170 H 777.992 -1.45022 3.11165 0
M  V30 8171 N 780.437 -1.16799 -1.0581 0
M  V30 8172 C 781.662 -0.977402 -1.82925 0
M  V30 8173 C 782.087 0.469514 -1.82146 0
M  V30 8174 O 781.445 1.33576 -1.22585 0
M  V30 8175 C 781.493 -1.51543 -3.27211 0
M  V30 8176 O 780.597 -0.725021 -4.05977 0
M  V30 8177 H 779.938 -0.347474 -0.565825 0
M  V30 8178 H 782.468 -1.55151 -1.33376 0
M  V30 8179 H 782.478 -1.53502 -3.78023 0
M  V30 8180 H 781.153 -2.56872 -3.27093 0
M  V30 8181 H 779.73 -0.77634 -3.64729 0
M  V30 8182 N 781.915 1.24427 -0.967243 0
M  V30 8183 C 782.878 2.23637 -0.501927 0
M  V30 8184 C 783.878 1.55712 0.401283 0
M  V30 8185 O 785.068 1.73085 0.196808 0
M  V30 8186 C 782.2 3.39804 0.273176 0
M  V30 8187 H 783.393 2.66317 -1.37897 0
M  V30 8188 H 780.946 1.37033 -0.751783 0
M  V30 8189 H 781.681 3.02562 1.16733 0
M  V30 8190 H 781.466 3.90303 -0.37498 0
M  V30 8191 H 782.956 4.13443 0.587776 0
M  V30 8192 N 783.393 0.737304 1.3929 0
M  V30 8193 C 784.639 0.286681 2.00763 0
M  V30 8194 C 784.972 -1.12388 1.58375 0
M  V30 8195 O 784.247 -1.76661 0.813699 0
M  V30 8196 C 784.53 0.391147 3.57969 0
M  V30 8197 C 784.383 1.84165 4.1037 0
M  V30 8198 C 785.702 -0.225072 4.39524 0
M  V30 8199 H 782.821 0.105642 0.729389 0
M  V30 8200 H 785.463 0.933892 1.65464 0
M  V30 8201 H 783.613 -0.159875 3.88171 0
M  V30 8202 H 785.285 2.44972 3.90879 0
M  V30 8203 H 783.528 2.3622 3.63844 0
M  V30 8204 H 784.199 1.866 5.19504 0
M  V30 8205 H 786.675 0.244677 4.1538 0
M  V30 8206 H 785.551 -0.121646 5.48765 0
M  V30 8207 H 785.812 -1.31141 4.22202 0
M  V30 8208 N 784.871 -1.49948 0.485112 0
M  V30 8209 C 785.834 -2.27351 -0.290546 0
M  V30 8210 C 786.834 -1.32704 -0.908087 0
M  V30 8211 O 788.024 -1.56007 -0.775085 0
M  V30 8212 C 785.156 -3.10135 -1.41524 0
M  V30 8213 H 786.349 -2.97374 0.388454 0
M  V30 8214 H 783.902 -1.54453 0.239586 0
M  V30 8215 H 784.637 -2.44641 -2.12888 0
M  V30 8216 H 784.422 -3.79705 -0.978074 0
M  V30 8217 H 785.912 -3.68638 -1.96204 0
M  V30 8218 N 786.349 -0.21828 -1.56081 0
M  V30 8219 C 787.279 0.687922 -2.23136 0
M  V30 8220 C 788.26 1.20357 -1.202 0
M  V30 8221 O 789.445 1.24817 -1.48776 0
M  V30 8222 C 786.575 1.89762 -2.90874 0
M  V30 8223 C 785.529 1.51595 -4.00254 0
M  V30 8224 C 784.855 2.80415 -4.55271 0
M  V30 8225 C 786.155 0.708404 -5.17474 0
M  V30 8226 H 787.849 0.128854 -2.99123 0
M  V30 8227 H 785.395 0.0605354 -1.43873 0
M  V30 8228 H 787.348 2.53699 -3.36474 0
M  V30 8229 H 786.072 2.4816 -2.1233 0
M  V30 8230 H 784.731 0.900058 -3.55379 0
M  V30 8231 H 784.379 3.36951 -3.73461 0
M  V30 8232 H 784.079 2.55613 -5.2909 0
M  V30 8233 H 785.603 3.453 -5.03587 0
M  V30 8234 H 787.017 1.2514 -5.59476 0
M  V30 8235 H 785.414 0.557593 -5.97504 0
M  V30 8236 H 786.484 -0.285679 -4.84058 0
M  V30 8237 N 787.827 1.57504 0.0551401 0
M  V30 8238 C 788.774 2.04825 1.06373 0
M  V30 8239 C 789.744 0.932108 1.37481 0
M  V30 8240 O 790.929 1.20093 1.48265 0
M  V30 8241 C 788.069 2.51091 2.36743 0
M  V30 8242 C 787.182 3.76392 2.12021 0
M  V30 8243 C 786.317 4.11373 3.36074 0
M  V30 8244 C 785.356 5.29666 3.0679 0
M  V30 8245 N 784.493 5.60205 4.2322 0
M  V30 8246 H 789.333 2.90753 0.653216 0
M  V30 8247 H 786.87 1.43776 0.310951 0
M  V30 8248 H 788.828 2.75973 3.12881 0
M  V30 8249 H 787.458 1.68118 2.75565 0
M  V30 8250 H 786.51 3.58751 1.26498 0
M  V30 8251 H 787.822 4.62662 1.86401 0
M  V30 8252 H 786.976 4.37245 4.20597 0
M  V30 8253 H 785.715 3.23704 3.64784 0
M  V30 8254 H 784.72 5.03574 2.20664 0
M  V30 8255 H 785.945 6.18968 2.79385 0
M  V30 8256 H 783.891 4.75495 4.5193 0
M  V30 8257 H 783.808 6.40928 4.00933 0
M  V30 8258 H 785.076 5.90637 5.08692 0
M  V30 8259 N 789.305 -0.326896 1.54172 0
M  V30 8260 C 790.215 -1.42525 1.86343 0
M  V30 8261 C 791.231 -1.56764 0.75505 0
M  V30 8262 O 792.407 -1.71924 1.04901 0
M  V30 8263 C 789.472 -2.77286 2.08119 0
M  V30 8264 C 788.533 -2.7225 3.31931 0
M  V30 8265 C 787.766 -4.00584 3.52659 0
M  V30 8266 O 787.989 -4.98686 2.76891 0
M  V30 8267 O 786.923 -4.04045 4.46129 0
M  V30 8268 H 790.749 -1.18249 2.79734 0
M  V30 8269 H 788.334 -0.520614 1.40036 0
M  V30 8270 H 790.216 -3.57065 2.23791 0
M  V30 8271 H 788.891 -3.01459 1.17917 0
M  V30 8272 H 787.798 -1.91033 3.21647 0
M  V30 8273 H 789.131 -2.53032 4.2218 0
M  V30 8274 N 790.784 -1.46188 -0.588786 0
M  V30 8275 C 792.195 -1.45421 -1.17088 0
M  V30 8276 C 792.546 -0.191801 -1.9526 0
M  V30 8277 O 791.671 0.705497 -2.04577 0
M  V30 8278 C 792.266 -2.63467 -2.13004 0
M  V30 8279 C 790.825 -2.6576 -2.6655 0
M  V30 8280 C 789.972 -2.38002 -1.42304 0
M  V30 8281 H 792.923 -1.54156 -0.377052 0
M  V30 8282 H 792.944 -2.38638 -2.96365 0
M  V30 8283 H 792.456 -3.55331 -1.56081 0
M  V30 8284 H 790.557 -1.77952 -3.27359 0
M  V30 8285 H 790.67 -3.65545 -3.09699 0
M  V30 8286 H 789.034 -1.87936 -1.71907 0
M  V30 8287 H 789.817 -3.32035 -0.872209 0
M  V30 8288 N 792.262 0.832906 -1.33792 0
M  V30 8289 C 793.508 1.59053 -1.26782 0
M  V30 8290 C 793.863 1.91705 0.163399 0
M  V30 8291 O 793.156 1.5638 1.10706 0
M  V30 8292 C 793.35 2.9047 -2.08235 0
M  V30 8293 C 793.179 2.70656 -3.59132 0
M  V30 8294 C 791.949 2.67905 -4.28433 0
M  V30 8295 C 794.147 2.42871 -4.53341 0
M  V30 8296 N 792.129 2.39531 -5.65242 0
M  V30 8297 C 793.5 2.24101 -5.78082 0
M  V30 8298 C 795.555 2.28517 -4.42362 0
M  V30 8299 C 794.258 1.92432 -6.93082 0
M  V30 8300 C 796.284 1.98242 -5.57184 0
M  V30 8301 C 795.646 1.80288 -6.80937 0
M  V30 8302 H 791.745 0.584823 -0.51914 0
M  V30 8303 H 794.329 0.977252 -1.68398 0
M  V30 8304 H 792.5 3.49739 -1.6893 0
M  V30 8305 H 794.232 3.55744 -1.92947 0
M  V30 8306 H 790.987 2.81624 -3.80768 0
M  V30 8307 H 791.411 2.28211 -6.37377 0
M  V30 8308 H 796.053 2.41107 -3.47314 0
M  V30 8309 H 793.771 1.78579 -7.88121 0
M  V30 8310 H 797.357 1.87882 -5.50628 0
M  V30 8311 H 796.237 1.57199 -7.68283 0
M  V30 8312 N 793.74 1.17359 1.05189 0
M  V30 8313 C 794.672 0.848078 2.12933 0
M  V30 8314 C 795.685 -0.149521 1.62112 0
M  V30 8315 O 796.874 0.0767797 1.78335 0
M  V30 8316 C 793.974 0.243889 3.38021 0
M  V30 8317 C 793.147 1.28436 4.18118 0
M  V30 8318 C 792.206 0.697926 5.21551 0
M  V30 8319 O 791.232 1.36973 5.52473 0
M  V30 8320 N 792.434 -0.510024 5.78255 0
M  V30 8321 H 795.199 1.7754 2.41453 0
M  V30 8322 H 792.76 1.07244 1.21286 0
M  V30 8323 H 794.752 -0.161727 4.04377 0
M  V30 8324 H 793.322 -0.58722 3.07035 0
M  V30 8325 H 792.542 1.86573 3.47252 0
M  V30 8326 H 793.83 1.98617 4.68432 0
M  V30 8327 H 793.228 -1.07378 5.55416 0
M  V30 8328 H 791.785 -0.857705 6.46132 0
M  V30 8329 N 795.218 -1.23913 0.973828 0
M  V30 8330 C 796.128 -2.28838 0.516735 0
M  V30 8331 C 797.144 -1.68723 -0.425282 0
M  V30 8332 O 798.32 -1.99201 -0.296819 0
M  V30 8333 C 795.385 -3.46233 -0.179914 0
M  V30 8334 C 794.446 -4.21729 0.80269 0
M  V30 8335 C 793.679 -5.33518 0.139191 0
M  V30 8336 O 793.902 -5.60252 -1.07118 0
M  V30 8337 O 792.836 -5.96088 0.834447 0
M  V30 8338 H 796.662 -2.70067 1.38916 0
M  V30 8339 H 794.247 -1.2972 0.74115 0
M  V30 8340 H 796.129 -4.17514 -0.570991 0
M  V30 8341 H 794.804 -3.06969 -1.02721 0
M  V30 8342 H 793.711 -3.52799 1.24434 0
M  V30 8343 H 795.044 -4.64825 1.61859 0
M  V30 8344 N 796.696 -0.74468 -1.38897 0
M  V30 8345 C 797.643 -0.111064 -2.30533 0
M  V30 8346 C 798.613 0.719276 -1.49719 0
M  V30 8347 O 799.798 0.677244 -1.78376 0
M  V30 8348 C 796.938 0.78292 -3.36102 0
M  V30 8349 C 796.051 -0.0610817 -4.31957 0
M  V30 8350 C 795.186 0.835075 -5.24595 0
M  V30 8351 C 794.225 -0.0130974 -6.12099 0
M  V30 8352 N 793.362 0.839525 -6.97063 0
M  V30 8353 H 798.202 -0.898113 -2.84144 0
M  V30 8354 H 795.739 -0.454537 -1.39901 0
M  V30 8355 H 797.697 1.31578 -3.95908 0
M  V30 8356 H 796.327 1.53585 -2.83922 0
M  V30 8357 H 795.379 -0.711469 -3.73687 0
M  V30 8358 H 796.691 -0.716482 -4.93627 0
M  V30 8359 H 795.845 1.43542 -5.89475 0
M  V30 8360 H 794.584 1.52423 -4.63269 0
M  V30 8361 H 793.589 -0.626179 -5.46223 0
M  V30 8362 H 794.814 -0.699181 -6.75491 0
M  V30 8363 H 792.76 1.5138 -6.38295 0
M  V30 8364 H 792.677 0.240823 -7.55616 0
M  V30 8365 H 793.945 1.42513 -7.66362 0
M  V30 8366 N 798.174 1.49689 -0.493057 0
M  V30 8367 C 799.42 2.02727 0.0543518 0
M  V30 8368 C 799.753 1.37264 1.37376 0
M  V30 8369 O 799.028 0.505644 1.87812 0
M  V30 8370 C 799.311 3.59456 0.215226 0
M  V30 8371 C 799.164 4.35459 -1.12675 0
M  V30 8372 C 800.483 4.29511 0.959586 0
M  V30 8373 H 797.602 0.736773 0.0182786 0
M  V30 8374 H 800.244 1.78792 -0.642924 0
M  V30 8375 H 798.394 3.79981 0.809122 0
M  V30 8376 H 800.066 4.2645 -1.75891 0
M  V30 8377 H 798.309 3.9833 -1.71801 0
M  V30 8378 H 798.98 5.43454 -0.967578 0
M  V30 8379 H 801.456 4.13594 0.455977 0
M  V30 8380 H 800.332 5.38939 1.04098 0
M  V30 8381 H 800.593 3.94202 2.00144 0
M  V30 8382 N 799.652 0.226554 1.55963 0
M  V30 8383 C 801.068 -0.128733 1.5908 0
M  V30 8384 C 801.268 -1.58558 1.24345 0
M  V30 8385 O 800.324 -2.32661 0.981069 0
M  V30 8386 C 801.637 0.202076 3.0002 0
M  V30 8387 C 803.185 0.144718 3.12665 0
M  V30 8388 C 803.66 0.449272 4.55791 0
M  V30 8389 N 805.151 0.399026 4.61478 0
M  V30 8390 C 805.886 0.608106 5.70166 0
M  V30 8391 N 805.382 0.879227 6.87198 0
M  V30 8392 N 807.175 0.5402 5.59498 0
M  V30 8393 H 799.326 1.17686 1.76816 0
M  V30 8394 H 801.589 0.472072 0.822102 0
M  V30 8395 H 801.295 1.21341 3.30105 0
M  V30 8396 H 801.169 -0.480554 3.74126 0
M  V30 8397 H 803.556 -0.857261 2.82374 0
M  V30 8398 H 803.637 0.860899 2.40878 0
M  V30 8399 H 803.281 1.44871 4.86801 0
M  V30 8400 H 803.211 -0.288157 5.25811 0
M  V30 8401 H 805.702 0.197372 3.77384 0
M  V30 8402 H 806.015 1.02673 7.65949 0
M  V30 8403 H 804.36 0.916477 6.88931 0
M  V30 8404 H 807.551 0.328581 4.66945 0
M  V30 8405 H 807.724 0.706548 6.44137 0
M  V30 8406 N 801.13 -1.57531 -0.0467866 0
M  V30 8407 C 802.546 -1.54451 -0.402107 0
M  V30 8408 C 802.746 -0.950275 -1.77685 0
M  V30 8409 O 801.802 -0.563602 -2.4613 0
M  V30 8410 C 803.115 -2.9899 -0.320212 0
M  V30 8411 C 804.663 -3.10452 -0.398588 0
M  V30 8412 C 805.138 -4.56689 -0.346335 0
M  V30 8413 N 806.629 -4.6142 -0.405666 0
M  V30 8414 C 807.364 -5.72087 -0.387845 0
M  V30 8415 N 806.86 -6.92045 -0.32336 0
M  V30 8416 N 808.653 -5.60404 -0.436263 0
M  V30 8417 H 800.804 -1.94515 0.853087 0
M  V30 8418 H 803.067 -0.891397 0.322669 0
M  V30 8419 H 802.773 -3.46124 0.623794 0
M  V30 8420 H 802.647 -3.60164 -1.1208 0
M  V30 8421 H 805.034 -2.63276 -1.33302 0
M  V30 8422 H 805.115 -2.52142 0.431026 0
M  V30 8423 H 804.759 -5.04527 0.584356 0
M  V30 8424 H 804.689 -5.12889 -1.19382 0
M  V30 8425 H 807.18 -3.75105 -0.458737 0
M  V30 8426 H 807.493 -7.7216 -0.314375 0
M  V30 8427 H 805.838 -6.94396 -0.28967 0
M  V30 8428 H 809.029 -4.65586 -0.48451 0
M  V30 8429 H 809.202 -6.46645 -0.418907 0
M  V30 8430 N 802.608 0.318715 -1.54344 0
M  V30 8431 C 803.857 1.05363 -1.71993 0
M  V30 8432 C 804.17 1.89018 -0.503155 0
M  V30 8433 O 805.376 2.65639 -0.561085 0
M  V30 8434 C 803.832 1.92281 -3.0423 0
M  V30 8435 C 803.44 1.13715 -4.33328 0
M  V30 8436 C 805.184 2.65479 -3.31242 0
M  V30 8437 C 803.091 1.99806 -5.56625 0
M  V30 8438 H 802.021 0.397081 -0.64097 0
M  V30 8439 H 804.672 0.311598 -1.80835 0
M  V30 8440 H 803.054 2.70402 -2.89307 0
M  V30 8441 H 804.228 0.403305 -4.59032 0
M  V30 8442 H 802.543 0.521769 -4.13118 0
M  V30 8443 H 805.14 3.30209 -4.20555 0
M  V30 8444 H 805.483 3.33374 -2.49334 0
M  V30 8445 H 806.016 1.94417 -3.47054 0
M  V30 8446 H 802.755 1.36411 -6.41149 0
M  V30 8447 H 802.275 2.70911 -5.35133 0
M  V30 8448 H 803.954 2.58277 -5.93213 0
M  V30 8449 N 804.086 1.46499 0.581025 0
M  V30 8450 C 805.502 1.31491 0.904563 0
M  V30 8451 C 805.702 0.287598 1.99437 0
M  V30 8452 O 804.758 -0.309247 2.50599 0
M  V30 8453 C 806.071 2.70163 1.32032 0
M  V30 8454 C 807.619 2.78266 1.43308 0
M  V30 8455 C 808.094 4.17524 1.8825 0
M  V30 8456 N 809.585 4.19949 1.9544 0
M  V30 8457 C 810.32 5.24594 2.31493 0
M  V30 8458 N 809.816 6.39564 2.66326 0
M  V30 8459 N 811.609 5.11961 2.32062 0
M  V30 8460 H 803.76 2.11946 -0.138856 0
M  V30 8461 H 806.023 0.948 0.000548528 0
M  V30 8462 H 805.729 3.46655 0.593554 0
M  V30 8463 H 805.603 3.00379 2.2815 0
M  V30 8464 H 807.99 2.02061 2.15071 0
M  V30 8465 H 808.071 2.51732 0.45438 0
M  V30 8466 H 807.715 4.94225 1.17065 0
M  V30 8467 H 807.645 4.41466 2.87081 0
M  V30 8468 H 810.136 3.36996 1.71004 0
M  V30 8469 H 810.449 7.15187 2.92793 0
M  V30 8470 H 808.794 6.42923 2.6396 0
M  V30 8471 H 811.985 4.21177 2.04272 0
M  V30 8472 H 812.158 5.93626 2.5983 0
M  V30 8473 N 805.565 -0.825799 1.34232 0
M  V30 8474 C 806.475 -1.9684 1.27638 0
M  V30 8475 C 807.491 -1.73018 0.184569 0
M  V30 8476 O 808.667 -1.97172 0.410525 0
M  V30 8477 C 805.732 -3.31084 1.02879 0
M  V30 8478 C 804.793 -3.67933 2.21188 0
M  V30 8479 C 804.026 -4.95772 1.976 0
M  V30 8480 O 804.249 -5.62721 0.93281 0
M  V30 8481 O 803.183 -5.30431 2.84477 0
M  V30 8482 H 807.009 -2.05346 2.23756 0
M  V30 8483 H 804.594 -0.960772 1.1441 0
M  V30 8484 H 806.476 -4.11492 0.908406 0
M  V30 8485 H 805.151 -3.23552 0.0979821 0
M  V30 8486 H 804.058 -2.87981 2.38784 0
M  V30 8487 H 805.391 -3.80147 3.12648 0
M  V30 8488 N 807.043 -1.17915 -1.04565 0
M  V30 8489 C 808.291 -0.969505 -1.77327 0
M  V30 8490 C 808.612 0.502569 -1.88412 0
M  V30 8491 O 807.882 1.36467 -1.40547 0
M  V30 8492 H 806.462 -0.355723 -0.656864 0
M  V30 8493 H 809.124 -1.48506 -1.26223 0
M  V30 8494 H 808.22 -1.40324 -2.78775 0
M  V30 8495 N 808.521 1.23394 -0.980386 0
M  V30 8496 C 809.746 1.96384 -0.666935 0
M  V30 8497 C 810.171 1.72087 0.759456 0
M  V30 8498 O 809.529 0.992328 1.51732 0
M  V30 8499 C 809.577 3.47499 -0.963177 0
M  V30 8500 O 808.681 4.12363 -0.0552051 0
M  V30 8501 H 808.022 0.614797 -0.250839 0
M  V30 8502 H 810.552 1.56831 -1.31398 0
M  V30 8503 H 810.562 3.97953 -0.899877 0
M  V30 8504 H 809.237 3.6451 -2.00264 0
M  V30 8505 H 807.814 3.72499 -0.172914 0
M  V30 8506 N 809.999 0.752036 1.385 0
M  V30 8507 C 811.41 0.375385 1.82887 0
M  V30 8508 C 811.761 -1.09575 1.62751 0
M  V30 8509 O 810.886 -1.84685 1.12785 0
M  V30 8510 C 811.481 0.674563 3.32017 0
M  V30 8511 C 810.04 0.351208 3.74758 0
M  V30 8512 C 809.187 0.928531 2.61292 0
M  V30 8513 H 812.138 0.948313 1.27251 0
M  V30 8514 H 812.159 -0.0477781 3.8047 0
M  V30 8515 H 811.671 1.74533 3.46641 0
M  V30 8516 H 809.772 -0.713042 3.65714 0
M  V30 8517 H 809.885 0.845675 4.71577 0
M  V30 8518 H 808.249 0.354012 2.52228 0
M  V30 8519 H 809.032 2.0043 2.78716 0
M  V30 8520 N 811.477 -1.49425 0.500989 0
M  V30 8521 C 812.707 -2.06561 -0.0402858 0
M  V30 8522 C 813.115 -1.36157 -1.31369 0
M  V30 8523 O 812.458 -0.433618 -1.78509 0
M  V30 8524 C 812.52 -3.5765 -0.364269 0
M  V30 8525 C 812.184 -4.49739 0.811417 0
M  V30 8526 C 813.181 -4.91255 1.7019 0
M  V30 8527 C 810.866 -4.92036 1.01022 0
M  V30 8528 C 812.86 -5.73806 2.77534 0
M  V30 8529 C 810.547 -5.74364 2.08683 0
M  V30 8530 C 811.545 -6.15154 2.96774 0
M  V30 8531 O 811.233 -6.95836 4.02577 0
M  V30 8532 H 810.965 -0.67578 0.0172357 0
M  V30 8533 H 813.519 -1.93193 0.697553 0
M  V30 8534 H 811.749 -3.69026 -1.1557 0
M  V30 8535 H 813.438 -3.97025 -0.844156 0
M  V30 8536 H 814.204 -4.59222 1.56013 0
M  V30 8537 H 810.083 -4.59789 0.333929 0
M  V30 8538 H 813.627 -6.05564 3.4632 0
M  V30 8539 H 809.524 -6.0581 2.22855 0
M  V30 8540 H 810.292 -7.14142 3.9993 0
M  V30 8541 N 812.955 -0.234822 -1.55841 0
M  V30 8542 C 814.203 0.392483 -1.98252 0
M  V30 8543 C 814.524 1.59344 -1.12404 0
M  V30 8544 O 813.794 1.94834 -0.204055 0
M  V30 8545 H 812.374 0.147999 -0.732192 0
M  V30 8546 H 815.036 -0.330804 -1.92072 0
M  V30 8547 H 814.132 0.709829 -3.03921 0
M  V30 8548 N 814.433 1.57553 0.0384317 0
M  V30 8549 C 815.383 2.02404 1.0496 0
M  V30 8550 C 816.367 0.911705 1.32577 0
M  V30 8551 O 817.559 1.17561 1.32319 0
M  V30 8552 C 814.688 2.49924 2.35357 0
M  V30 8553 C 813.774 3.6796 2.1087 0
M  V30 8554 N 814.165 4.81009 1.56411 0
M  V30 8555 C 812.463 3.75153 2.41197 0
M  V30 8556 C 813.164 5.62686 1.47512 0
M  V30 8557 N 812.14 5.0752 1.94742 0
M  V30 8558 H 815.942 2.87234 0.622399 0
M  V30 8559 H 813.456 1.60543 0.244916 0
M  V30 8560 H 815.453 2.80312 3.08595 0
M  V30 8561 H 814.113 1.66496 2.78763 0
M  V30 8562 H 815.124 5.02636 1.2481 0
M  V30 8563 H 811.801 3.02507 2.87742 0
M  V30 8564 H 813.191 6.6349 1.05976 0
M  V30 8565 N 815.911 -0.310526 1.54511 0
M  V30 8566 C 816.841 -1.38757 1.878 0
M  V30 8567 C 817.822 -1.53353 0.735991 0
M  V30 8568 O 819.007 -1.67018 0.990887 0
M  V30 8569 C 816.137 -2.75327 2.11689 0
M  V30 8570 C 815.091 -2.75506 3.27537 0
M  V30 8571 C 814.417 -4.15275 3.36824 0
M  V30 8572 C 815.717 -2.38093 4.64875 0
M  V30 8573 H 817.411 -1.11146 2.78005 0
M  V30 8574 H 814.957 -0.533232 1.33763 0
M  V30 8575 H 816.91 -3.50752 2.33562 0
M  V30 8576 H 815.634 -3.04443 1.18245 0
M  V30 8577 H 814.293 -2.02538 3.05572 0
M  V30 8578 H 813.941 -4.41553 2.40915 0
M  V30 8579 H 813.641 -4.16299 4.14692 0
M  V30 8580 H 815.165 -4.92493 3.60947 0
M  V30 8581 H 816.579 -3.03232 4.86542 0
M  V30 8582 H 814.976 -2.50345 5.45387 0
M  V30 8583 H 816.046 -1.33227 4.66239 0
M  V30 8584 N 817.389 -1.46805 -0.573248 0
M  V30 8585 C 818.8 -1.46655 -1.15539 0
M  V30 8586 C 819.151 -0.2125 -1.95046 0
M  V30 8587 O 818.276 0.683759 -2.05314 0
M  V30 8588 C 818.871 -2.65711 -2.10198 0
M  V30 8589 C 817.43 -2.68572 -2.63716 0
M  V30 8590 C 816.577 -2.39498 -1.39772 0
M  V30 8591 H 819.528 -1.54547 -0.36068 0
M  V30 8592 H 819.549 -2.41768 -2.93817 0
M  V30 8593 H 819.061 -3.56967 -1.52303 0
M  V30 8594 H 817.162 -1.81414 -3.25453 0
M  V30 8595 H 817.275 -3.68809 -3.05805 0
M  V30 8596 H 815.639 -1.89749 -1.69904 0
M  V30 8597 H 816.422 -3.32942 -0.836943 0
M  V30 8598 N 818.867 0.818669 -1.34668 0
M  V30 8599 C 819.815 1.95123 -1.26609 0
M  V30 8600 C 820.809 1.68611 -0.163348 0
M  V30 8601 O 822.015 1.76975 -0.328586 0
M  V30 8602 H 818.39 0.640871 -0.393431 0
M  V30 8603 H 820.361 1.99043 -2.22316 0
M  V30 8604 C 819.11 3.31697 -1.04272 0
M  V30 8605 H 818.433 3.52648 -1.8836 0
M  V30 8606 H 819.873 4.11382 -1.0267 0
M  V30 8607 C 818.332 3.35942 0.253858 0
M  V30 8608 O 818.862 3.81632 1.25378 0
M  V30 8609 N 817.068 2.89165 0.288447 0
M  V30 8610 H 816.615 2.52176 -0.525845 0
M  V30 8611 H 816.573 2.92387 1.15572 0
M  V30 8612 N 820.346 1.18468 1.03938 0
M  V30 8613 C 821.592 0.992302 1.77553 0
M  V30 8614 C 821.947 -0.472959 1.86496 0
M  V30 8615 O 821.24 -1.34662 1.36296 0
M  V30 8616 C 821.434 1.58229 3.20466 0
M  V30 8617 C 821.263 3.1034 3.25452 0
M  V30 8618 C 820.033 3.79166 3.34008 0
M  V30 8619 C 822.231 4.07814 3.13357 0
M  V30 8620 N 820.213 5.18768 3.28258 0
M  V30 8621 C 821.584 5.33946 3.15121 0
M  V30 8622 C 823.639 3.99315 2.97409 0
M  V30 8623 C 822.342 6.52565 3.02574 0
M  V30 8624 C 824.368 5.17532 2.86208 0
M  V30 8625 C 823.73 6.42557 2.88617 0
M  V30 8626 H 819.829 0.417131 0.661457 0
M  V30 8627 H 822.413 1.50265 1.23808 0
M  V30 8628 H 820.584 1.0981 3.72554 0
M  V30 8629 H 822.316 1.32531 3.82384 0
M  V30 8630 H 819.071 3.29905 3.39794 0
M  V30 8631 H 819.495 5.91783 3.28818 0
M  V30 8632 H 824.137 3.03485 2.94375 0
M  V30 8633 H 821.855 7.48592 3.0436 0
M  V30 8634 H 825.441 5.12748 2.7492 0
M  V30 8635 H 824.321 7.32494 2.80039 0
M  V30 8636 N 821.824 -1.22873 0.986916 0
M  V30 8637 C 823.24 -1.43594 0.696633 0
M  V30 8638 C 823.44 -1.87622 -0.734869 0
M  V30 8639 O 822.496 -2.02633 -1.50652 0
M  V30 8640 C 823.809 -2.48231 1.69711 0
M  V30 8641 C 825.357 -2.62037 1.71188 0
M  V30 8642 C 825.832 -3.6989 2.70084 0
M  V30 8643 N 827.323 -3.77341 2.68641 0
M  V30 8644 C 828.058 -4.6037 3.41829 0
M  V30 8645 N 827.554 -5.47438 4.24598 0
M  V30 8646 N 829.347 -4.54626 3.30563 0
M  V30 8647 H 821.498 -0.925982 1.91153 0
M  V30 8648 H 823.761 -0.46866 0.824052 0
M  V30 8649 H 823.467 -2.22812 2.72117 0
M  V30 8650 H 823.341 -3.46731 1.48516 0
M  V30 8651 H 825.728 -2.86803 0.694837 0
M  V30 8652 H 825.809 -1.63831 1.96451 0
M  V30 8653 H 825.453 -3.45872 3.71934 0
M  V30 8654 H 825.383 -4.67652 2.42093 0
M  V30 8655 H 827.874 -3.15124 2.08578 0
M  V30 8656 H 828.187 -6.078 4.77283 0
M  V30 8657 H 826.532 -5.4704 4.28687 0
M  V30 8658 H 829.723 -3.85627 2.65347 0
M  V30 8659 H 829.896 -5.19103 3.8786 0
M  V30 8660 N 823.302 -0.75937 -1.38099 0
M  V30 8661 C 824.232 -0.151077 -2.33011 0
M  V30 8662 C 825.213 0.697099 -1.5516 0
M  V30 8663 O 826.398 0.637101 -1.83452 0
M  V30 8664 C 823.528 0.738423 -3.39359 0
M  V30 8665 C 822.482 -0.0074741 -4.27999 0
M  V30 8666 C 821.808 1.00066 -5.25253 0
M  V30 8667 C 823.108 -1.17926 -5.08813 0
M  V30 8668 H 824.802 -0.943933 -2.84131 0
M  V30 8669 H 822.348 -0.455362 -1.36611 0
M  V30 8670 H 824.301 1.17369 -4.04725 0
M  V30 8671 H 823.025 1.56366 -2.86735 0
M  V30 8672 H 821.684 -0.423379 -3.64147 0
M  V30 8673 H 821.332 1.82012 -4.68914 0
M  V30 8674 H 821.032 0.506199 -5.85416 0
M  V30 8675 H 822.556 1.43512 -5.93495 0
M  V30 8676 H 823.97 -0.821262 -5.67387 0
M  V30 8677 H 822.367 -1.60497 -5.78239 0
M  V30 8678 H 823.437 -1.98938 -4.42212 0
M  V30 8679 N 824.78 1.49157 -0.508906 0
M  V30 8680 C 825.71 2.32109 0.254469 0
M  V30 8681 C 826.691 1.40754 0.955111 0
M  V30 8682 O 827.876 1.69658 0.944983 0
M  V30 8683 C 825.006 3.21458 1.3146 0
M  V30 8684 C 823.96 4.2167 0.733368 0
M  V30 8685 C 823.286 5.00009 1.8946 0
M  V30 8686 C 824.586 5.21544 -0.280875 0
M  V30 8687 H 826.28 2.9618 -0.43795 0
M  V30 8688 H 823.826 1.4243 -0.212062 0
M  V30 8689 H 825.779 3.78305 1.85643 0
M  V30 8690 H 824.503 2.55346 2.03632 0
M  V30 8691 H 823.162 3.65979 0.213231 0
M  V30 8692 H 822.81 4.30338 2.60419 0
M  V30 8693 H 822.51 5.67821 1.51173 0
M  V30 8694 H 824.034 5.59702 2.44061 0
M  V30 8695 H 825.448 5.73039 0.173095 0
M  V30 8696 H 823.845 5.97291 -0.580006 0
M  V30 8697 H 824.915 4.69969 -1.19404 0
M  V30 8698 N 826.258 0.243083 1.55714 0
M  V30 8699 C 827.483 -0.389944 2.03701 0
M  V30 8700 C 827.908 -1.51025 1.12129 0
M  V30 8701 O 827.266 -1.80944 0.11352 0
M  V30 8702 C 827.314 -0.878649 3.49731 0
M  V30 8703 O 826.418 -1.98851 3.61292 0
M  V30 8704 H 825.759 -0.0855115 0.658471 0
M  V30 8705 H 828.289 0.368023 2.01263 0
M  V30 8706 H 828.299 -1.18287 3.90477 0
M  V30 8707 H 826.974 -0.0588107 4.15858 0
M  V30 8708 H 825.551 -1.68928 3.32442 0
M  V30 8709 N 827.736 -1.57571 -0.0300757 0
M  V30 8710 C 828.982 -1.89506 -0.722159 0
M  V30 8711 C 829.315 -0.840699 -1.7506 0
M  V30 8712 O 828.59 0.144358 -1.93964 0
M  V30 8713 C 828.873 -3.32081 -1.39262 0
M  V30 8714 C 828.726 -4.48211 -0.377768 0
M  V30 8715 C 830.045 -3.73557 -2.32687 0
M  V30 8716 H 827.164 -0.689213 -0.261064 0
M  V30 8717 H 829.806 -1.89994 0.0150388 0
M  V30 8718 H 827.956 -3.31796 -2.02098 0
M  V30 8719 H 829.628 -4.6063 0.248591 0
M  V30 8720 H 827.871 -4.3274 0.303045 0
M  V30 8721 H 828.542 -5.44854 -0.885347 0
M  V30 8722 H 831.018 -3.75202 -1.79896 0
M  V30 8723 H 829.894 -4.74125 -2.7658 0
M  V30 8724 H 830.155 -3.05759 -3.19317 0
M  V30 8725 N 829.214 0.302327 -1.54673 0
M  V30 8726 C 830.463 1.03533 -1.73101 0
M  V30 8727 C 830.776 1.88473 -0.523174 0
M  V30 8728 O 831.982 2.65029 -0.589229 0
M  V30 8729 C 830.438 1.89043 -3.06252 0
M  V30 8730 C 830.046 1.09112 -4.3451 0
M  V30 8731 C 831.79 2.61951 -3.34039 0
M  V30 8732 C 829.697 1.93891 -5.58713 0
M  V30 8733 H 828.627 0.390261 -0.645145 0
M  V30 8734 H 831.278 0.2924 -1.81155 0
M  V30 8735 H 829.66 2.67319 -2.92159 0
M  V30 8736 H 830.834 0.354596 -4.59434 0
M  V30 8737 H 829.149 0.477923 -4.13648 0
M  V30 8738 H 831.746 3.25729 -4.24033 0
M  V30 8739 H 832.089 3.30711 -2.52855 0
M  V30 8740 H 832.622 1.90725 -3.49097 0
M  V30 8741 H 829.361 1.29604 -6.4256 0
M  V30 8742 H 828.881 2.6522 -5.37976 0
M  V30 8743 H 830.56 2.51971 -5.95919 0
M  V30 8744 N 830.692 1.47107 0.565454 0
M  V30 8745 C 831.938 1.53535 1.32495 0
M  V30 8746 C 832.271 0.193537 1.93233 0
M  V30 8747 O 831.546 -0.796956 1.77423 0
M  V30 8748 C 831.829 2.64712 2.4413 0
M  V30 8749 C 831.682 4.08482 1.88314 0
M  V30 8750 C 833.001 2.71853 3.46098 0
M  V30 8751 H 830.12 0.558926 0.480386 0
M  V30 8752 H 832.762 1.79125 0.633575 0
M  V30 8753 H 830.912 2.43023 3.03104 0
M  V30 8754 H 832.584 4.4151 1.33665 0
M  V30 8755 H 830.827 4.17148 1.19037 0
M  V30 8756 H 831.498 4.82032 2.68978 0
M  V30 8757 H 833.974 2.91397 2.97031 0
M  V30 8758 H 832.85 3.51433 4.21646 0
M  V30 8759 H 833.111 1.78584 4.04426 0
M  V30 8760 N 832.17 -0.811516 1.35101 0
M  V30 8761 C 833.117 -1.92308 1.27617 0
M  V30 8762 C 834.087 -1.6543 0.149091 0
M  V30 8763 O 835.272 -1.8789 0.331974 0
M  V30 8764 C 832.412 -3.28768 1.04908 0
M  V30 8765 C 831.525 -3.67865 2.26493 0
M  V30 8766 C 830.66 -4.9333 1.96974 0
M  V30 8767 C 829.699 -5.25041 3.1464 0
M  V30 8768 N 828.836 -6.41685 2.84929 0
M  V30 8769 H 833.676 -1.98041 2.22674 0
M  V30 8770 H 831.213 -0.968755 1.10696 0
M  V30 8771 H 833.171 -4.07426 0.897749 0
M  V30 8772 H 831.801 -3.22517 0.135151 0
M  V30 8773 H 830.853 -2.84507 2.52507 0
M  V30 8774 H 832.165 -3.87263 3.14371 0
M  V30 8775 H 831.319 -5.79803 1.78643 0
M  V30 8776 H 830.058 -4.75958 1.06374 0
M  V30 8777 H 829.063 -4.3706 3.33554 0
M  V30 8778 H 830.288 -5.44346 4.06035 0
M  V30 8779 H 828.234 -6.25747 1.96918 0
M  V30 8780 H 828.151 -6.6131 3.66341 0
M  V30 8781 H 829.419 -7.31198 2.70128 0
M  V30 8782 N 833.648 -1.19017 -1.03309 0
M  V30 8783 C 834.888 -1.00129 -1.78195 0
M  V30 8784 C 835.252 0.460236 -1.86402 0
M  V30 8785 O 836.453 0.768802 -2.57571 0
M  V30 8786 C 834.724 -1.64703 -3.17187 0
M  V30 8787 S 836.283 -1.60695 -4.08317 0
M  V30 8788 H 833.101 -0.359395 -0.613479 0
M  V30 8789 H 835.703 -1.51293 -1.23818 0
M  V30 8790 H 834.407 -2.70283 -3.08829 0
M  V30 8791 H 833.938 -1.136 -3.76641 0
M  V30 8792 H 835.953 -0.628171 -4.92208 0
M  V30 8793 N 835.127 1.22348 -0.993418 0
M  V30 8794 C 836.375 1.90733 -0.668246 0
M  V30 8795 C 836.696 1.77732 0.802261 0
M  V30 8796 O 835.966 1.16486 1.57505 0
M  V30 8797 H 834.546 0.705966 -0.244174 0
M  V30 8798 H 837.208 1.48691 -1.26004 0
M  V30 8799 H 836.304 2.97883 -0.931239 0
M  V30 8800 N 836.605 0.766683 1.37694 0
M  V30 8801 C 837.882 0.25366 1.93948 0
M  V30 8802 C 838.262 -1.25041 1.70082 0
M  V30 8803 O 837.61 -2.03115 1.04674 0
M  V30 8804 C 837.82 0.621549 3.43421 0
M  V30 8805 C 839.168 0.588504 4.20502 0
M  V30 8806 O 840.192 0.560632 3.5176 0
M  V30 8807 O 839.051 0.61107 5.43073 0
M  V30 8808 H 836.145 0.0570586 0.825029 0
M  V30 8809 H 838.691 0.847693 1.47011 0
M  V30 8810 H 837.463 1.65979 3.54354 0
M  V30 8811 H 837.086 0.000197027 3.976 0
M  V30 8812 N 838.083 -1.48885 0.516809 0
M  V30 8813 C 839.36 -1.95412 -0.0858293 0
M  V30 8814 C 839.74 -1.45875 -1.5259 0
M  V30 8815 O 839.088 -0.679415 -2.18166 0
M  V30 8816 C 839.298 -3.48995 0.0178194 0
M  V30 8817 C 840.646 -4.24342 -0.14813 0
M  V30 8818 O 841.67 -3.56155 -0.0566125 0
M  V30 8819 O 840.529 -5.45454 -0.338035 0
M  V30 8820 H 837.623 -0.822455 -0.0865884 0
M  V30 8821 H 840.169 -1.59464 0.580472 0
M  V30 8822 H 838.941 -3.77732 1.02147 0
M  V30 8823 H 838.564 -3.91604 -0.687924 0
M  V30 8824 N 839.561 -0.251338 -1.55583 0
M  V30 8825 C 840.491 0.640437 -2.24545 0
M  V30 8826 C 841.472 1.17781 -1.22726 0
M  V30 8827 O 842.657 1.21633 -1.5139 0
M  V30 8828 C 839.787 1.8355 -2.94834 0
M  V30 8829 C 838.741 1.4307 -4.03379 0
M  V30 8830 C 838.067 2.70695 -4.61116 0
M  V30 8831 C 839.367 0.59848 -5.1886 0
M  V30 8832 H 841.061 0.0653772 -2.99329 0
M  V30 8833 H 838.607 0.0300042 -1.43969 0
M  V30 8834 H 840.56 2.46505 -3.4178 0
M  V30 8835 H 839.284 2.43601 -2.17546 0
M  V30 8836 H 837.943 0.824474 -3.57209 0
M  V30 8837 H 837.591 3.28954 -3.80524 0
M  V30 8838 H 837.291 2.44332 -5.34393 0
M  V30 8839 H 838.815 3.34541 -5.10798 0
M  V30 8840 H 840.229 1.13244 -5.62004 0
M  V30 8841 H 838.626 0.430728 -5.98552 0
M  V30 8842 H 839.696 -0.38829 -4.83343 0
M  V30 8843 N 841.039 1.57585 0.0217189 0
M  V30 8844 C 842.455 1.55072 0.377484 0
M  V30 8845 C 842.655 0.978423 1.76151 0
M  V30 8846 O 841.711 0.602688 2.45202 0
M  V30 8847 C 843.024 2.99462 0.272605 0
M  V30 8848 C 844.572 3.11047 0.349148 0
M  V30 8849 C 845.047 4.57182 0.273636 0
M  V30 8850 N 846.538 4.62007 0.332206 0
M  V30 8851 C 847.273 5.72631 0.296782 0
M  V30 8852 N 846.769 6.92472 0.21322 0
M  V30 8853 N 848.562 5.61028 0.347053 0
M  V30 8854 H 840.713 1.93133 -0.883925 0
M  V30 8855 H 842.976 0.886151 -0.33681 0
M  V30 8856 H 842.682 3.45088 -0.67878 0
M  V30 8857 H 842.556 3.61901 1.06335 0
M  V30 8858 H 844.943 2.65364 1.29097 0
M  V30 8859 H 845.024 2.51425 -0.471085 0
M  V30 8860 H 844.668 5.03534 -0.664548 0
M  V30 8861 H 844.598 5.14724 1.11207 0
M  V30 8862 H 847.089 3.75788 0.399003 0
M  V30 8863 H 847.402 7.72563 0.191492 0
M  V30 8864 H 845.747 6.94769 0.179161 0
M  V30 8865 H 848.938 4.66298 0.410378 0
M  V30 8866 H 849.111 6.47229 0.315979 0
M  V30 8867 N 842.517 -0.29412 1.54831 0
M  V30 8868 C 843.449 -1.38476 1.82639 0
M  V30 8869 C 844.462 -1.46517 0.709694 0
M  V30 8870 O 845.651 -1.48712 0.987269 0
M  V30 8871 C 842.751 -2.76791 1.95551 0
M  V30 8872 C 841.924 -2.91599 3.26019 0
M  V30 8873 C 840.983 -4.10456 3.29261 0
M  V30 8874 O 840.009 -4.02214 4.02756 0
M  V30 8875 N 841.211 -5.21422 2.55145 0
M  V30 8876 H 843.976 -1.14974 2.76769 0
M  V30 8877 H 841.537 -0.484206 1.5449 0
M  V30 8878 H 843.529 -3.5456 1.95113 0
M  V30 8879 H 842.099 -2.93209 1.08384 0
M  V30 8880 H 841.319 -2.00886 3.39173 0
M  V30 8881 H 842.607 -2.98409 4.12104 0
M  V30 8882 H 842.005 -5.31 1.95078 0
M  V30 8883 H 840.562 -5.97501 2.60454 0
M  V30 8884 N 843.995 -1.47404 -0.557645 0
M  V30 8885 C 844.905 -1.62491 -1.69216 0
M  V30 8886 C 845.921 -0.507764 -1.66426 0
M  V30 8887 O 847.097 -0.775241 -1.85882 0
M  V30 8888 C 844.162 -1.63511 -3.05721 0
M  V30 8889 C 843.223 -2.86648 -3.1958 0
M  V30 8890 C 842.456 -2.87609 -4.49574 0
M  V30 8891 O 842.679 -1.97799 -5.35006 0
M  V30 8892 O 841.613 -3.79465 -4.67215 0
M  V30 8893 H 845.439 -2.58487 -1.59431 0
M  V30 8894 H 843.024 -1.30485 -0.7276 0
M  V30 8895 H 844.906 -1.66863 -3.86956 0
M  V30 8896 H 843.581 -0.706812 -3.15889 0
M  V30 8897 H 842.488 -2.8884 -2.37744 0
M  V30 8898 H 843.821 -3.7877 -3.14316 0
M  V30 8899 N 845.473 0.80434 -1.35529 0
M  V30 8900 C 846.403 1.93086 -1.31301 0
M  V30 8901 C 847.384 1.69068 -0.187044 0
M  V30 8902 O 848.569 1.90399 -0.382359 0
M  V30 8903 C 845.699 3.29867 -1.0865 0
M  V30 8904 C 844.653 3.68373 -2.17911 0
M  V30 8905 C 843.979 5.0334 -1.80423 0
M  V30 8906 C 845.279 3.78516 -3.59893 0
M  V30 8907 H 846.973 1.96882 -2.25561 0
M  V30 8908 H 844.519 0.945841 -1.08581 0
M  V30 8909 H 846.472 4.08281 -1.04331 0
M  V30 8910 H 845.196 3.2642 -0.108359 0
M  V30 8911 H 843.855 2.92247 -2.21331 0
M  V30 8912 H 843.503 4.96399 -0.812213 0
M  V30 8913 H 843.203 5.30074 -2.53565 0
M  V30 8914 H 844.727 5.84191 -1.77633 0
M  V30 8915 H 846.141 4.47155 -3.58783 0
M  V30 8916 H 844.538 4.16721 -4.31814 0
M  V30 8917 H 845.608 2.8001 -3.95882 0
M  V30 8918 N 846.951 1.19563 1.02676 0
M  V30 8919 C 847.881 0.959024 2.12897 0
M  V30 8920 C 848.862 -0.108382 1.69754 0
M  V30 8921 O 850.047 0.0470698 1.94143 0
M  V30 8922 C 847.177 0.499211 3.43693 0
M  V30 8923 C 846.131 1.5087 4.00528 0
M  V30 8924 C 845.457 0.905884 5.2697 0
M  V30 8925 C 846.757 2.88954 4.3509 0
M  V30 8926 H 848.451 1.88084 2.32948 0
M  V30 8927 H 845.997 0.905731 1.11949 0
M  V30 8928 H 847.95 0.320965 4.20176 0
M  V30 8929 H 846.674 -0.458205 3.2337 0
M  V30 8930 H 845.333 1.67413 3.26142 0
M  V30 8931 H 844.981 -0.0591506 5.02965 0
M  V30 8932 H 844.681 1.58 5.65959 0
M  V30 8933 H 846.205 0.73848 6.06118 0
M  V30 8934 H 847.619 2.75981 5.02501 0
M  V30 8935 H 846.016 3.53177 4.85166 0
M  V30 8936 H 847.086 3.41447 3.44299 0
M  V30 8937 N 848.429 -1.21819 0.999893 0
M  V30 8938 C 849.392 -2.22227 0.561044 0
M  V30 8939 C 850.392 -1.56722 -0.359858 0
M  V30 8940 O 851.582 -1.73546 -0.150848 0
M  V30 8941 C 848.714 -3.40409 -0.182987 0
M  V30 8942 H 849.907 -2.62567 1.44909 0
M  V30 8943 H 847.46 -1.34991 0.78785 0
M  V30 8944 H 848.195 -3.05551 -1.08671 0
M  V30 8945 H 847.98 -3.89171 0.47833 0
M  V30 8946 H 849.47 -4.14856 -0.477952 0
M  V30 8947 N 849.908 -0.773975 -1.37286 0
M  V30 8948 C 851.155 -0.339306 -1.99637 0
M  V30 8949 C 851.483 1.08478 -1.61439 0
M  V30 8950 O 850.738 1.7612 -0.853252 0
M  V30 8951 C 851.037 -0.432651 -3.54772 0
M  V30 8952 C 850.703 -1.81531 -4.12744 0
M  V30 8953 C 849.365 -2.19366 -4.2829 0
M  V30 8954 C 851.717 -2.72137 -4.44512 0
M  V30 8955 C 849.045 -3.47239 -4.72908 0
M  V30 8956 C 851.397 -3.99421 -4.90556 0
M  V30 8957 C 850.061 -4.37298 -5.04308 0
M  V30 8958 H 849.331 -0.124161 -0.730524 0
M  V30 8959 H 851.978 -0.988432 -1.64019 0
M  V30 8960 H 850.283 0.30001 -3.9065 0
M  V30 8961 H 851.98 -0.0776 -4.00925 0
M  V30 8962 H 848.57 -1.51126 -4.01072 0
M  V30 8963 H 852.754 -2.44165 -4.32084 0
M  V30 8964 H 848.01 -3.76477 -4.81742 0
M  V30 8965 H 852.184 -4.69756 -5.14104 0
M  V30 8966 H 849.811 -5.36442 -5.38641 0
M  V30 8967 N 851.386 1.48609 -0.524698 0
M  V30 8968 C 852.318 2.27508 0.278 0
M  V30 8969 C 853.331 1.35042 0.909258 0
M  V30 8970 O 854.52 1.60136 0.788592 0
M  V30 8971 C 851.62 3.08247 1.40843 0
M  V30 8972 C 850.793 4.28455 0.880083 0
M  V30 8973 C 849.852 4.91048 1.891 0
M  V30 8974 O 848.878 5.5042 1.45005 0
M  V30 8975 N 850.08 4.82816 3.22288 0
M  V30 8976 H 852.845 2.97037 -0.398642 0
M  V30 8977 H 850.406 1.57876 -0.358698 0
M  V30 8978 H 852.398 3.46992 2.08276 0
M  V30 8979 H 850.968 2.41173 1.98883 0
M  V30 8980 H 850.188 3.94189 0.0299228 0
M  V30 8981 H 851.476 5.06279 0.505881 0
M  V30 8982 H 850.874 4.3572 3.60783 0
M  V30 8983 H 849.431 5.25676 3.85368 0
M  V30 8984 N 852.864 0.259585 1.55447 0
M  V30 8985 C 854.11 -0.362143 1.9954 0
M  V30 8986 C 854.443 -1.5666 1.14767 0
M  V30 8987 O 853.718 -1.93319 0.214025 0
M  V30 8988 C 854.001 -0.759588 3.51998 0
M  V30 8989 C 853.854 0.451134 4.47532 0
M  V30 8990 C 855.173 -1.60186 4.09913 0
M  V30 8991 H 852.292 -0.130157 0.725416 0
M  V30 8992 H 854.934 0.363431 1.86492 0
M  V30 8993 H 853.084 -1.3778 3.63248 0
M  V30 8994 H 854.756 1.08965 4.48246 0
M  V30 8995 H 852.999 1.092 4.19831 0
M  V30 8996 H 853.67 0.129518 5.51848 0
M  V30 8997 H 856.146 -1.0799 4.01842 0
M  V30 8998 H 855.022 -1.84879 5.16828 0
M  V30 8999 H 855.283 -2.57787 3.59163 0
M  V30 9000 N 854.342 -1.57594 -0.0133615 0
M  V30 9001 C 855.272 -2.10611 -1.00823 0
M  V30 9002 C 856.253 -1.01217 -1.36708 0
M  V30 9003 O 857.438 -1.28827 -1.45318 0
M  V30 9004 C 854.568 -2.59844 -2.30431 0
M  V30 9005 C 853.522 -3.73644 -2.08745 0
M  V30 9006 C 852.848 -4.09141 -3.4425 0
M  V30 9007 C 854.148 -5.01454 -1.46086 0
M  V30 9008 H 855.842 -2.93985 -0.566849 0
M  V30 9009 H 853.388 -1.41423 -0.271219 0
M  V30 9010 H 855.341 -2.95557 -3.00373 0
M  V30 9011 H 854.065 -1.73573 -2.76658 0
M  V30 9012 H 852.724 -3.38303 -1.41232 0
M  V30 9013 H 852.372 -3.19914 -3.88155 0
M  V30 9014 H 852.072 -4.85802 -3.3056 0
M  V30 9015 H 853.596 -4.47402 -4.15528 0
M  V30 9016 H 855.01 -5.35024 -2.05966 0
M  V30 9017 H 853.407 -5.82832 -1.42924 0
M  V30 9018 H 854.477 -4.83003 -0.428471 0
M  V30 9019 N 855.82 0.285905 -1.54985 0
M  V30 9020 C 856.767 1.35306 -1.86978 0
M  V30 9021 C 857.737 1.49682 -0.720046 0
M  V30 9022 O 858.922 1.64297 -0.970107 0
M  V30 9023 C 856.062 2.71059 -2.13591 0
M  V30 9024 C 855.175 2.6501 -3.41165 0
M  V30 9025 C 854.31 3.92856 -3.57544 0
M  V30 9026 C 853.349 3.81266 -4.78855 0
M  V30 9027 N 852.486 5.00919 -4.9196 0
M  V30 9028 H 857.326 1.07323 -2.78003 0
M  V30 9029 H 854.863 0.518776 -1.37649 0
M  V30 9030 H 856.821 3.50026 -2.27019 0
M  V30 9031 H 855.451 2.97271 -1.25816 0
M  V30 9032 H 854.503 1.77824 -3.36278 0
M  V30 9033 H 855.815 2.52342 -4.30262 0
M  V30 9034 H 854.969 4.80263 -3.70718 0
M  V30 9035 H 853.708 4.08377 -2.66608 0
M  V30 9036 H 852.713 2.92243 -4.65698 0
M  V30 9037 H 853.938 3.67277 -5.71213 0
M  V30 9038 H 851.884 5.16875 -4.03951 0
M  V30 9039 H 851.801 4.90732 -5.75081 0
M  V30 9040 H 853.069 5.89935 -5.09507 0
M  V30 9041 N 857.298 1.47698 0.54982 0
M  V30 9042 C 858.23 1.56806 1.67166 0
M  V30 9043 C 859.243 0.453709 1.5635 0
M  V30 9044 O 860.432 0.723663 1.63173 0
M  V30 9045 C 857.532 1.4632 3.05686 0
M  V30 9046 C 856.705 2.72452 3.42182 0
M  V30 9047 C 855.764 2.55698 4.59897 0
M  V30 9048 O 854.79 3.29534 4.64108 0
M  V30 9049 N 855.992 1.64009 5.56849 0
M  V30 9050 H 858.757 2.53545 1.59797 0
M  V30 9051 H 856.318 1.44171 0.736635 0
M  V30 9052 H 858.31 1.32835 3.82279 0
M  V30 9053 H 856.88 0.57634 3.07241 0
M  V30 9054 H 856.1 3.00644 2.54964 0
M  V30 9055 H 857.388 3.56172 3.63344 0
M  V30 9056 H 856.786 1.03186 5.5621 0
M  V30 9057 H 855.343 1.56473 6.3274 0
M  V30 9058 N 858.776 -0.797141 1.35954 0
M  V30 9059 C 859.706 -1.92387 1.32323 0
M  V30 9060 C 860.687 -1.68967 0.196007 0
M  V30 9061 O 861.872 -1.90193 0.39245 0
M  V30 9062 C 859.002 -3.29286 1.10398 0
M  V30 9063 C 857.956 -3.67212 2.19862 0
M  V30 9064 C 857.282 -5.02377 1.8309 0
M  V30 9065 C 858.582 -3.76602 3.61896 0
M  V30 9066 H 860.276 -1.95683 2.26602 0
M  V30 9067 H 857.822 -0.94007 1.09081 0
M  V30 9068 H 859.775 -4.07721 1.06495 0
M  V30 9069 H 858.499 -3.26358 0.125668 0
M  V30 9070 H 857.158 -2.91069 2.22878 0
M  V30 9071 H 856.806 -4.95961 0.838527 0
M  V30 9072 H 856.506 -5.28722 2.56372 0
M  V30 9073 H 858.03 -5.8324 1.80729 0
M  V30 9074 H 859.444 -4.45246 3.6115 0
M  V30 9075 H 857.841 -4.14425 4.34018 0
M  V30 9076 H 858.911 -2.77906 3.97361 0
M  V30 9077 N 860.254 -1.20106 -1.0204 0
M  V30 9078 C 861.186 -0.904236 -2.10609 0
M  V30 9079 C 862.199 0.106487 -1.62451 0
M  V30 9080 O 863.388 -0.124035 -1.78069 0
M  V30 9081 C 860.488 -0.333423 -3.37256 0
M  V30 9082 C 859.661 -1.39476 -4.14566 0
M  V30 9083 C 858.72 -0.835961 -5.19517 0
M  V30 9084 O 857.746 -1.51573 -5.48648 0
M  V30 9085 N 858.948 0.356531 -5.79404 0
M  V30 9086 H 861.713 -1.8388 -2.36661 0
M  V30 9087 H 859.274 -1.10422 -1.184 0
M  V30 9088 H 861.266 0.0544571 -4.04663 0
M  V30 9089 H 859.836 0.505608 -3.08484 0
M  V30 9090 H 859.056 -1.95714 -3.42184 0
M  V30 9091 H 860.344 -2.10967 -4.63001 0
M  V30 9092 H 859.742 0.926143 -5.58067 0
M  V30 9093 H 858.299 0.686093 -6.48179 0
M  V30 9094 N 861.732 1.21287 -1.00634 0
M  V30 9095 C 862.957 1.94925 -0.708441 0
M  V30 9096 C 863.382 1.73659 0.722783 0
M  V30 9097 O 862.74 1.02429 1.49593 0
M  V30 9098 C 862.788 3.45377 -1.03667 0
M  V30 9099 O 861.892 4.12153 -0.142661 0
M  V30 9100 H 861.233 0.609338 -0.263824 0
M  V30 9101 H 863.763 1.54008 -1.34695 0
M  V30 9102 H 863.773 3.95954 -0.984086 0
M  V30 9103 H 862.448 3.6018 -2.0795 0
M  V30 9104 H 861.025 3.72048 -0.251888 0
M  V30 9105 N 863.21 0.781244 1.36873 0
M  V30 9106 C 864.459 0.34652 1.98701 0
M  V30 9107 C 864.772 -1.08555 1.62712 0
M  V30 9108 O 865.978 -1.62213 2.17713 0
M  V30 9109 C 864.434 0.568611 3.5538 0
M  V30 9110 C 864.042 2.01156 4.003 0
M  V30 9111 C 865.786 0.197983 4.24038 0
M  V30 9112 C 863.693 2.18074 5.49725 0
M  V30 9113 H 862.623 0.125821 0.743428 0
M  V30 9114 H 865.274 0.961721 1.56279 0
M  V30 9115 H 863.656 -0.116185 3.9583 0
M  V30 9116 H 864.83 2.73209 3.71071 0
M  V30 9117 H 863.145 2.33967 3.44454 0
M  V30 9118 H 865.742 0.302778 5.33842 0
M  V30 9119 H 866.085 -0.852927 4.07469 0
M  V30 9120 H 866.618 0.835696 3.88923 0
M  V30 9121 H 863.357 3.21519 5.71232 0
M  V30 9122 H 862.877 1.50517 5.80607 0
M  V30 9123 H 864.556 1.98393 6.15832 0
M  V30 9124 N 864.689 -1.48329 0.532571 0
M  V30 9125 C 865.935 -2.03399 0.00755104 0
M  V30 9126 C 866.29 -1.40213 -1.3175 0
M  V30 9127 O 865.583 -0.539633 -1.83844 0
M  V30 9128 C 865.777 -3.57 -0.168943 0
M  V30 9129 C 865.606 -4.35077 1.13745 0
M  V30 9130 C 864.376 -4.75915 1.69803 0
M  V30 9131 C 866.574 -4.71734 2.04869 0
M  V30 9132 N 864.556 -5.38538 2.94703 0
M  V30 9133 C 865.927 -5.34403 3.14346 0
M  V30 9134 C 867.982 -4.53665 2.05164 0
M  V30 9135 C 866.685 -5.80912 4.24186 0
M  V30 9136 C 868.711 -5.01157 3.13999 0
M  V30 9137 C 868.073 -5.63853 4.22195 0
M  V30 9138 H 864.172 -0.780743 0.0443253 0
M  V30 9139 H 866.756 -1.81119 0.714423 0
M  V30 9140 H 864.927 -3.79099 -0.844903 0
M  V30 9141 H 866.659 -3.98708 -0.693804 0
M  V30 9142 H 863.414 -4.57103 1.23909 0
M  V30 9143 H 863.838 -5.74413 3.583 0
M  V30 9144 H 868.48 -4.04571 1.22808 0
M  V30 9145 H 866.198 -6.2901 5.07318 0
M  V30 9146 H 869.784 -4.88965 3.15285 0
M  V30 9147 H 868.664 -5.99935 5.05023 0
M  V30 9148 N 866.167 -0.267825 -1.55308 0
M  V30 9149 C 867.077 0.633055 -2.25897 0
M  V30 9150 C 868.093 1.17613 -1.28231 0
M  V30 9151 O 869.269 1.20797 -1.61153 0
M  V30 9152 C 866.334 1.80397 -2.96071 0
M  V30 9153 C 865.395 1.29829 -4.09198 0
M  V30 9154 C 864.628 2.4134 -4.76016 0
M  V30 9155 O 864.851 3.60537 -4.42006 0
M  V30 9156 O 863.785 2.09909 -5.64111 0
M  V30 9157 H 867.611 0.0614381 -3.03638 0
M  V30 9158 H 865.196 -0.0355072 -1.49358 0
M  V30 9159 H 867.078 2.48685 -3.40197 0
M  V30 9160 H 865.753 2.36281 -2.21253 0
M  V30 9161 H 864.66 0.582086 -3.69544 0
M  V30 9162 H 865.993 0.785288 -4.85895 0
M  V30 9163 N 867.645 1.57599 0.00500368 0
M  V30 9164 C 868.577 2.04949 1.02609 0
M  V30 9165 C 869.59 0.966507 1.31006 0
M  V30 9166 O 870.779 1.2434 1.2807 0
M  V30 9167 C 867.879 2.43023 2.36206 0
M  V30 9168 C 867.052 3.73993 2.26821 0
M  V30 9169 C 866.111 3.9899 3.43065 0
M  V30 9170 O 865.137 4.69725 3.21477 0
M  V30 9171 N 866.339 3.46496 4.65748 0
M  V30 9172 H 869.104 2.93167 0.622336 0
M  V30 9173 H 866.665 1.60752 0.192488 0
M  V30 9174 H 868.657 2.56863 3.12735 0
M  V30 9175 H 867.227 1.60349 2.68341 0
M  V30 9176 H 866.447 3.70277 1.35235 0
M  V30 9177 H 867.735 4.59865 2.17719 0
M  V30 9178 H 867.133 2.89206 4.86186 0
M  V30 9179 H 865.69 3.65675 5.3956 0
M  V30 9180 N 869.123 -0.277682 1.55134 0
M  V30 9181 C 870.033 -1.36524 1.90783 0
M  V30 9182 C 871.049 -1.54283 0.804542 0
M  V30 9183 O 872.225 -1.68499 1.10318 0
M  V30 9184 C 869.29 -2.70524 2.16835 0
M  V30 9185 C 868.351 -2.61552 3.40424 0
M  V30 9186 C 867.584 -3.89162 3.65224 0
M  V30 9187 O 867.807 -4.89624 2.92616 0
M  V30 9188 O 866.741 -3.89647 4.58758 0
M  V30 9189 H 870.567 -1.0929 2.83354 0
M  V30 9190 H 868.152 -0.475799 1.41621 0
M  V30 9191 H 870.034 -3.49765 2.35038 0
M  V30 9192 H 868.709 -2.97555 1.27448 0
M  V30 9193 H 867.616 -1.80704 3.27562 0
M  V30 9194 H 868.949 -2.39472 4.30016 0
M  V30 9195 N 870.601 -1.47988 -0.541979 0
M  V30 9196 C 872.017 -1.33843 -0.869383 0
M  V30 9197 C 872.217 -0.340374 -1.98604 0
M  V30 9198 O 871.273 0.242696 -2.51331 0
M  V30 9199 C 872.586 -2.73568 -1.24823 0
M  V30 9200 C 874.134 -2.81967 -1.3588 0
M  V30 9201 C 874.609 -4.22368 -1.77114 0
M  V30 9202 N 876.1 -4.24983 -1.84237 0
M  V30 9203 C 876.835 -5.30547 -2.17503 0
M  V30 9204 N 876.331 -6.46401 -2.49275 0
M  V30 9205 N 878.124 -5.17933 -2.18406 0
M  V30 9206 H 870.275 -2.11503 0.195001 0
M  V30 9207 H 872.538 -0.947681 0.0245862 0
M  V30 9208 H 872.244 -3.48107 -0.501435 0
M  V30 9209 H 872.118 -3.06322 -2.20106 0
M  V30 9210 H 874.505 -2.07692 -2.09638 0
M  V30 9211 H 874.586 -2.52848 -0.387478 0
M  V30 9212 H 874.23 -4.97155 -1.0392 0
M  V30 9213 H 874.16 -4.48922 -2.75275 0
M  V30 9214 H 876.651 -3.41411 -1.62009 0
M  V30 9215 H 876.964 -7.22698 -2.73729 0
M  V30 9216 H 875.309 -6.49696 -2.46821 0
M  V30 9217 H 878.5 -4.26445 -1.93034 0
M  V30 9218 H 878.673 -6.00307 -2.44 0
M  V30 9219 N 872.079 0.78992 -1.36375 0
M  V30 9220 C 873.325 1.55007 -1.3077 0
M  V30 9221 C 873.658 1.93871 0.112979 0
M  V30 9222 O 872.933 1.6267 1.06625 0
M  V30 9223 C 873.216 2.82748 -2.22993 0
M  V30 9224 C 873.069 2.50253 -3.73756 0
M  V30 9225 C 874.388 3.84569 -2.13998 0
M  V30 9226 H 871.507 0.562362 -0.476359 0
M  V30 9227 H 874.149 0.907582 -1.66922 0
M  V30 9228 H 872.299 3.37573 -1.92292 0
M  V30 9229 H 873.971 2.01482 -4.14973 0
M  V30 9230 H 872.214 1.83203 -3.93216 0
M  V30 9231 H 872.885 3.41487 -4.33694 0
M  V30 9232 H 875.361 3.39188 -2.4102 0
M  V30 9233 H 874.237 4.717 -2.80697 0
M  V30 9234 H 874.498 4.27491 -1.12711 0
M  V30 9235 N 873.557 1.20646 1.01402 0
M  V30 9236 C 874.968 1.01823 1.56489 0
M  V30 9237 C 875.319 -0.42463 1.9155 0
M  V30 9238 O 874.444 -1.30644 1.72514 0
M  V30 9239 C 875.039 1.84208 2.84347 0
M  V30 9240 C 873.598 1.69743 3.35953 0
M  V30 9241 C 872.745 1.8198 2.09233 0
M  V30 9242 H 875.696 1.348 0.837539 0
M  V30 9243 H 875.717 1.34698 3.55861 0
M  V30 9244 H 875.229 2.89215 2.58798 0
M  V30 9245 H 873.33 0.673833 3.66456 0
M  V30 9246 H 873.443 2.51173 4.07981 0
M  V30 9247 H 871.807 1.25193 2.21808 0
M  V30 9248 H 872.59 2.88477 1.86107 0
M  V30 9249 N 875.035 -1.20752 1.01276 0
M  V30 9250 C 875.965 -2.25658 0.600064 0
M  V30 9251 C 876.946 -1.65733 -0.38298 0
M  V30 9252 O 878.131 -1.92324 -0.269256 0
M  V30 9253 C 875.261 -3.47237 -0.0663197 0
M  V30 9254 C 874.215 -4.1973 0.83731 0
M  V30 9255 C 873.541 -5.34687 0.0369102 0
M  V30 9256 C 874.841 -4.76286 2.14357 0
M  V30 9257 H 876.535 -2.60432 1.477 0
M  V30 9258 H 874.081 -1.25187 0.711634 0
M  V30 9259 H 876.034 -4.19803 -0.366563 0
M  V30 9260 H 874.758 -3.11615 -0.977944 0
M  V30 9261 H 873.417 -3.49024 1.1215 0
M  V30 9262 H 873.065 -4.95309 -0.876244 0
M  V30 9263 H 872.765 -5.84119 0.63865 0
M  V30 9264 H 874.289 -6.10059 -0.256968 0
M  V30 9265 H 875.703 -5.40691 1.90595 0
M  V30 9266 H 874.1 -5.36139 2.69583 0
M  V30 9267 H 875.17 -3.9524 2.80916 0
M  V30 9268 N 876.513 -0.788492 -1.36457 0
M  V30 9269 C 877.759 -0.370067 -2.00005 0
M  V30 9270 C 878.114 1.0464 -1.61456 0
M  V30 9271 O 877.407 1.71277 -0.85876 0
M  V30 9272 C 877.601 -0.470255 -3.54293 0
M  V30 9273 C 877.43 -1.89492 -4.07827 0
M  V30 9274 C 876.2 -2.51932 -4.38016 0
M  V30 9275 C 878.398 -2.85692 -4.2765 0
M  V30 9276 N 876.38 -3.85997 -4.77368 0
M  V30 9277 C 877.751 -4.04588 -4.69796 0
M  V30 9278 C 879.806 -2.8276 -4.09818 0
M  V30 9279 C 878.509 -5.2096 -4.95977 0
M  V30 9280 C 880.535 -3.98319 -4.37145 0
M  V30 9281 C 879.897 -5.1596 -4.79547 0
M  V30 9282 H 875.996 -0.182813 -0.760331 0
M  V30 9283 H 878.58 -1.02589 -1.6548 0
M  V30 9284 H 876.751 0.155476 -3.88089 0
M  V30 9285 H 878.483 -0.0281643 -4.0469 0
M  V30 9286 H 875.238 -2.0342 -4.27688 0
M  V30 9287 H 875.662 -4.54971 -5.01329 0
M  V30 9288 H 880.304 -1.92971 -3.76194 0
M  V30 9289 H 878.022 -6.11335 -5.28483 0
M  V30 9290 H 881.608 -3.97411 -4.24919 0
M  V30 9291 H 880.488 -6.03893 -5.00283 0
M  V30 9292 N 877.991 1.48044 -0.54043 0
M  V30 9293 C 879.24 2.01698 -0.00809961 0
M  V30 9294 C 879.553 1.42184 1.34325 0
M  V30 9295 O 880.759 1.87398 1.96454 0
M  V30 9296 C 879.215 3.59882 0.035933 0
M  V30 9297 C 878.823 4.28384 -1.31115 0
M  V30 9298 C 880.567 4.21346 0.51654 0
M  V30 9299 C 878.474 5.78529 -1.22714 0
M  V30 9300 H 877.404 0.754 0.000742174 0
M  V30 9301 H 880.055 1.70204 -0.685775 0
M  V30 9302 H 878.437 3.88264 0.778906 0
M  V30 9303 H 879.611 4.11663 -2.07051 0
M  V30 9304 H 877.926 3.78837 -1.72834 0
M  V30 9305 H 880.523 5.31351 0.597529 0
M  V30 9306 H 880.866 3.87373 1.52473 0
M  V30 9307 H 881.399 3.97432 -0.171064 0
M  V30 9308 H 878.138 6.17093 -2.21081 0
M  V30 9309 H 877.658 5.97634 -0.50931 0
M  V30 9310 H 879.337 6.40395 -0.92216 0
M  V30 9311 N 879.47 0.276058 1.55163 0
M  V30 9312 C 880.417 -0.611006 2.22565 0
M  V30 9313 C 881.387 -1.14902 1.19945 0
M  V30 9314 O 882.572 -1.19815 1.48489 0
M  V30 9315 C 879.712 -1.78885 2.95117 0
M  V30 9316 C 878.825 -1.2846 4.12458 0
M  V30 9317 C 877.96 -2.42432 4.72652 0
M  V30 9318 C 876.999 -1.89015 5.82185 0
M  V30 9319 N 876.136 -2.96463 6.36439 0
M  V30 9320 H 880.976 -0.0295849 2.97985 0
M  V30 9321 H 878.513 -0.00283607 1.471 0
M  V30 9322 H 880.471 -2.48121 3.35398 0
M  V30 9323 H 879.101 -2.34229 2.22119 0
M  V30 9324 H 878.153 -0.485312 3.77292 0
M  V30 9325 H 879.465 -0.853358 4.91446 0
M  V30 9326 H 878.619 -3.19659 5.15658 0
M  V30 9327 H 877.358 -2.88872 3.92943 0
M  V30 9328 H 876.363 -1.10267 5.38629 0
M  V30 9329 H 877.588 -1.43509 6.63763 0
M  V30 9330 H 875.534 -3.42283 5.59623 0
M  V30 9331 H 875.451 -2.57759 7.10701 0
M  V30 9332 H 876.719 -3.73663 6.84103 0
M  V30 9333 N 880.948 -1.576 0.00335426 0
M  V30 9334 C 882.359 -1.7875 -0.539008 0
M  V30 9335 C 882.71 -0.911097 -1.73763 0
M  V30 9336 O 881.835 -0.114476 -2.16097 0
M  V30 9337 C 882.43 -3.24177 -0.984611 0
M  V30 9338 C 880.989 -3.46412 -1.47226 0
M  V30 9339 C 880.136 -2.74024 -0.425004 0
M  V30 9340 H 883.087 -1.57032 0.229511 0
M  V30 9341 H 883.108 -3.32474 -1.85044 0
M  V30 9342 H 882.62 -3.87938 -0.112035 0
M  V30 9343 H 880.721 -2.8787 -2.36562 0
M  V30 9344 H 880.834 -4.55098 -1.49741 0
M  V30 9345 H 879.198 -2.38741 -0.887394 0
M  V30 9346 H 879.981 -3.40486 0.438662 0
M  V30 9347 N 882.426 0.269451 -1.5528 0
M  V30 9348 C 883.656 1.01724 -1.79821 0
M  V30 9349 C 884.064 1.80298 -0.573532 0
M  V30 9350 O 883.407 1.77666 0.466963 0
M  V30 9351 C 883.469 2.02043 -2.97353 0
M  V30 9352 C 883.133 1.42375 -4.34256 0
M  V30 9353 C 884.13 0.837611 -5.13108 0
M  V30 9354 C 881.815 1.44988 -4.8092 0
M  V30 9355 C 883.809 0.285557 -6.3676 0
M  V30 9356 C 881.496 0.893969 -6.04526 0
M  V30 9357 C 882.494 0.312809 -6.82283 0
M  V30 9358 O 882.182 -0.234582 -8.03558 0
M  V30 9359 H 881.914 0.30604 -0.602757 0
M  V30 9360 H 884.468 0.30454 -2.0313 0
M  V30 9361 H 882.698 2.77082 -2.69745 0
M  V30 9362 H 884.387 2.6298 -3.09187 0
M  V30 9363 H 885.153 0.81009 -4.78187 0
M  V30 9364 H 881.032 1.89162 -4.20403 0
M  V30 9365 H 884.576 -0.168696 -6.97396 0
M  V30 9366 H 880.473 0.918742 -6.38928 0
M  V30 9367 H 881.241 -0.124282 -8.18406 0
M  V30 9368 N 883.904 1.48273 0.534124 0
M  V30 9369 C 884.851 1.62487 1.6391 0
M  V30 9370 C 885.821 0.467062 1.59398 0
M  V30 9371 O 887.006 0.690029 1.77885 0
M  V30 9372 C 884.146 1.66671 3.02183 0
M  V30 9373 C 883.259 2.9353 3.16961 0
M  V30 9374 C 882.394 2.88902 4.45768 0
M  V30 9375 C 881.433 4.10483 4.54059 0
M  V30 9376 N 880.57 4.03956 5.74251 0
M  V30 9377 H 885.41 2.56851 1.51101 0
M  V30 9378 H 882.947 1.27381 0.735704 0
M  V30 9379 H 884.905 1.67079 3.82283 0
M  V30 9380 H 883.535 0.758011 3.13774 0
M  V30 9381 H 882.587 3.02886 2.3014 0
M  V30 9382 H 883.899 3.83501 3.18949 0
M  V30 9383 H 883.053 2.87688 5.34154 0
M  V30 9384 H 881.792 1.96652 4.46295 0
M  V30 9385 H 880.797 4.11977 3.64081 0
M  V30 9386 H 882.022 5.03887 4.55274 0
M  V30 9387 H 879.968 3.14525 5.75682 0
M  V30 9388 H 879.885 4.87628 5.77715 0
M  V30 9389 H 881.153 4.06795 6.64935 0
M  V30 9390 N 885.382 -0.782676 1.36792 0
M  V30 9391 C 886.631 -1.53605 1.30723 0
M  V30 9392 C 886.944 -1.95294 -0.109296 0
M  V30 9393 O 888.15 -2.69921 -0.292398 0
M  V30 9394 C 886.606 -2.77321 2.29393 0
M  V30 9395 C 886.214 -2.42774 3.76517 0
M  V30 9396 C 887.958 -3.55289 2.32314 0
M  V30 9397 C 885.865 -3.62926 4.66947 0
M  V30 9398 H 884.795 -0.576646 0.485794 0
M  V30 9399 H 887.446 -0.858255 1.62192 0
M  V30 9400 H 885.828 -3.46934 1.90927 0
M  V30 9401 H 887.002 -1.81014 4.23758 0
M  V30 9402 H 885.317 -1.78002 3.76436 0
M  V30 9403 H 887.914 -4.44573 2.97083 0
M  V30 9404 H 888.257 -3.94361 1.3336 0
M  V30 9405 H 888.79 -2.92662 2.69432 0
M  V30 9406 H 885.529 -3.28944 5.66989 0
M  V30 9407 H 885.049 -4.23828 4.24418 0
M  V30 9408 H 886.728 -4.29873 4.83548 0
M  V30 9409 N 886.86 -1.21182 -1.00761 0
M  V30 9410 C 887.79 -0.992773 -2.11344 0
M  V30 9411 C 888.771 0.0813618 -1.69905 0
M  V30 9412 O 889.956 -0.0779503 -1.94043 0
M  V30 9413 C 887.086 -0.553826 -3.42856 0
M  V30 9414 C 886.04 -1.57223 -3.98077 0
M  V30 9415 C 885.366 -0.989605 -5.25463 0
M  V30 9416 C 886.666 -2.95839 -4.30438 0
M  V30 9417 H 888.36 -1.91766 -2.29927 0
M  V30 9418 H 885.906 -0.923426 -1.10494 0
M  V30 9419 H 887.859 -0.387771 -4.19612 0
M  V30 9420 H 886.583 0.406702 -3.24058 0
M  V30 9421 H 885.242 -1.7258 -3.23437 0
M  V30 9422 H 884.89 -0.0208743 -5.02996 0
M  V30 9423 H 884.59 -1.66984 -5.63374 0
M  V30 9424 H 886.114 -0.834815 -6.04866 0
M  V30 9425 H 887.528 -2.8394 -4.98047 0
M  V30 9426 H 885.925 -3.60851 -4.79486 0
M  V30 9427 H 886.995 -3.46882 -3.38823 0
M  V30 9428 N 888.338 1.20213 -1.01915 0
M  V30 9429 C 889.584 1.89928 -0.711007 0
M  V30 9430 C 889.917 1.7881 0.75767 0
M  V30 9431 O 889.192 1.17399 1.55073 0
M  V30 9432 C 889.475 3.41225 -1.15053 0
M  V30 9433 C 889.328 3.61264 -2.67971 0
M  V30 9434 C 890.647 4.34108 -0.72377 0
M  V30 9435 H 887.766 0.689702 -0.259768 0
M  V30 9436 H 890.408 1.41557 -1.26734 0
M  V30 9437 H 888.558 3.82552 -0.677199 0
M  V30 9438 H 890.23 3.29173 -3.23176 0
M  V30 9439 H 888.473 3.04647 -3.08824 0
M  V30 9440 H 889.144 4.67331 -2.93779 0
M  V30 9441 H 891.62 4.00442 -1.13073 0
M  V30 9442 H 890.496 5.38581 -1.05931 0
M  V30 9443 H 890.757 4.40512 0.374424 0
M  V30 9444 N 889.816 0.795718 1.36037 0
M  V30 9445 C 891.065 0.367575 1.98322 0
M  V30 9446 C 891.378 -1.06823 1.63854 0
M  V30 9447 O 892.584 -1.59895 2.19421 0
M  V30 9448 C 891.04 0.606272 3.54757 0
M  V30 9449 C 890.648 2.0539 3.98144 0
M  V30 9450 C 892.392 0.242947 4.23804 0
M  V30 9451 C 890.299 2.23893 5.47381 0
M  V30 9452 H 889.229 0.133699 0.742052 0
M  V30 9453 H 891.88 0.978242 1.5525 0
M  V30 9454 H 890.262 -0.0741957 3.9593 0
M  V30 9455 H 891.436 2.77129 3.68152 0
M  V30 9456 H 889.751 2.37607 3.41953 0
M  V30 9457 H 892.348 0.359382 5.33491 0
M  V30 9458 H 892.691 -0.809661 4.08351 0
M  V30 9459 H 893.224 0.876899 3.88015 0
M  V30 9460 H 889.963 3.27559 5.6779 0
M  V30 9461 H 889.483 1.56666 5.78978 0
M  V30 9462 H 891.162 2.04914 6.13693 0
M  V30 9463 N 891.294 -1.47756 0.548274 0
M  V30 9464 C 892.519 -2.07387 0.023475 0
M  V30 9465 C 892.944 -1.39956 -1.25674 0
M  V30 9466 O 892.302 -0.471543 -1.7506 0
M  V30 9467 C 892.35 -3.60224 -0.164669 0
M  V30 9468 O 891.454 -3.93653 -1.22928 0
M  V30 9469 H 890.795 -0.662312 0.0473156 0
M  V30 9470 H 893.325 -1.89905 0.761409 0
M  V30 9471 H 893.335 -4.06211 -0.38166 0
M  V30 9472 H 892.01 -4.08702 0.770425 0
M  V30 9473 H 890.587 -3.59422 -0.993495 0
M  V30 9474 N 892.772 -0.284283 -1.55015 0
M  V30 9475 C 893.735 0.586182 -2.21577 0
M  V30 9476 C 894.735 1.07427 -1.1965 0
M  V30 9477 O 895.925 0.972977 -1.44495 0
M  V30 9478 C 893.057 1.80973 -2.88897 0
M  V30 9479 H 894.25 0.00487253 -2.999 0
M  V30 9480 H 891.803 -0.0349696 -1.56261 0
M  V30 9481 H 892.538 2.43131 -2.14611 0
M  V30 9482 H 892.323 1.46757 -3.636 0
M  V30 9483 H 893.813 2.42853 -3.39724 0
M  V30 9484 N 894.251 1.57596 -0.0117121 0
M  V30 9485 C 895.528 1.82323 0.708356 0
M  V30 9486 C 895.908 0.891947 1.91331 0
M  V30 9487 O 895.256 -0.0565984 2.2843 0
M  V30 9488 C 895.466 3.31111 1.10303 0
M  V30 9489 C 896.814 3.97147 1.50199 0
M  V30 9490 O 897.838 3.35503 1.1965 0
M  V30 9491 O 896.697 5.0576 2.07049 0
M  V30 9492 H 893.791 0.751173 0.345931 0
M  V30 9493 H 896.337 1.69657 -0.0380632 0
M  V30 9494 H 895.109 3.90534 0.24467 0
M  V30 9495 H 894.732 3.48818 1.90818 0
M  V30 9496 N 895.729 -0.261212 1.5542 0
M  V30 9497 C 896.954 -1.01341 1.80955 0
M  V30 9498 C 897.379 -1.78711 0.586849 0
M  V30 9499 O 896.737 -1.75266 -0.463837 0
M  V30 9500 C 896.785 -1.93835 3.04073 0
M  V30 9501 O 895.889 -3.02791 2.79985 0
M  V30 9502 H 895.23 -0.289123 0.597749 0
M  V30 9503 H 897.76 -0.286543 2.02584 0
M  V30 9504 H 897.77 -2.3557 3.33123 0
M  V30 9505 H 896.445 -1.36936 3.9271 0
M  V30 9506 H 895.022 -2.65287 2.62063 0
M  V30 9507 N 897.207 -1.48554 -0.526253 0
M  V30 9508 C 898.455 -1.56452 -1.27935 0
M  V30 9509 C 898.776 -0.24184 -1.93495 0
M  V30 9510 O 898.046 0.736917 -1.81511 0
M  V30 9511 H 896.626 -0.576379 -0.47518 0
M  V30 9512 H 899.288 -1.85039 -0.612083 0
M  V30 9513 H 898.384 -2.34751 -2.05666 0
M  V30 9514 N 898.685 0.775411 -1.37205 0
M  V30 9515 C 899.618 1.8957 -1.27037 0
M  V30 9516 C 900.596 1.61891 -0.151643 0
M  V30 9517 O 901.78 1.85673 -0.325218 0
M  V30 9518 C 898.907 3.24712 -0.963316 0
M  V30 9519 C 897.953 3.71306 -2.09842 0
M  V30 9520 S 898.786 3.8541 -3.71778 0
M  V30 9521 C 899.942 5.23406 -3.43216 0
M  V30 9522 H 900.175 1.97905 -2.21857 0
M  V30 9523 H 897.708 0.936127 -1.22784 0
M  V30 9524 H 899.666 4.02768 -0.792983 0
M  V30 9525 H 898.327 3.14083 -0.0326561 0
M  V30 9526 H 897.52 4.69271 -1.83849 0
M  V30 9527 H 897.122 3.00341 -2.2287 0
M  V30 9528 H 899.414 6.08454 -2.97977 0
M  V30 9529 H 900.357 5.54409 -4.40495 0
M  V30 9530 H 900.765 4.9117 -2.78231 0
M  V30 9531 N 900.163 1.21714 1.00117 0
M  V30 9532 C 901.412 1.03087 1.73367 0
M  V30 9533 C 901.725 -0.435532 1.90689 0
M  V30 9534 O 902.931 -0.741291 2.61184 0
M  V30 9535 C 901.387 1.79593 3.11888 0
M  V30 9536 C 900.995 3.30428 3.02525 0
M  V30 9537 C 902.739 1.69386 3.89241 0
M  V30 9538 C 900.646 3.99408 4.3615 0
M  V30 9539 H 899.576 0.382117 0.650002 0
M  V30 9540 H 902.227 1.45486 1.11831 0
M  V30 9541 H 900.609 1.29988 3.74058 0
M  V30 9542 H 901.783 3.87364 2.49571 0
M  V30 9543 H 900.098 3.4122 2.38659 0
M  V30 9544 H 902.695 2.18251 4.8813 0
M  V30 9545 H 903.038 0.652773 4.1115 0
M  V30 9546 H 903.571 2.16489 3.33733 0
M  V30 9547 H 900.31 5.03735 4.19442 0
M  V30 9548 H 899.83 3.47261 4.8905 0
M  V30 9549 H 901.509 4.04537 5.04934 0
M  V30 9550 N 901.641 -1.19671 1.02551 0
M  V30 9551 C 902.551 -2.26441 0.613329 0
M  V30 9552 C 903.567 -1.70375 -0.353339 0
M  V30 9553 O 904.743 -2.0028 -0.212064 0
M  V30 9554 C 901.808 -3.46684 -0.0329028 0
M  V30 9555 C 900.869 -4.17945 0.980837 0
M  V30 9556 C 900.102 -5.32448 0.36535 0
M  V30 9557 O 900.325 -5.64291 -0.832596 0
M  V30 9558 O 899.259 -5.92012 1.08652 0
M  V30 9559 H 903.085 -2.63932 1.50246 0
M  V30 9560 H 900.67 -1.2646 0.795502 0
M  V30 9561 H 902.552 -4.1956 -0.393395 0
M  V30 9562 H 901.227 -3.1105 -0.896089 0
M  V30 9563 H 900.134 -3.47204 1.39286 0
M  V30 9564 H 901.467 -4.57542 1.81428 0
M  V30 9565 N 903.119 -0.802921 -1.35613 0
M  V30 9566 C 904.53 -0.443004 -1.81368 0
M  V30 9567 C 904.881 1.03459 -1.66706 0
M  V30 9568 O 904.006 1.80372 -1.19561 0
M  V30 9569 C 904.601 -0.797324 -3.29284 0
M  V30 9570 C 903.16 -0.490055 -3.73196 0
M  V30 9571 C 902.307 -1.02487 -2.57666 0
M  V30 9572 H 905.258 -0.994888 -1.23643 0
M  V30 9573 H 905.279 -0.0934638 -3.80385 0
M  V30 9574 H 904.791 -1.87278 -3.39924 0
M  V30 9575 H 902.892 0.576818 -3.68108 0
M  V30 9576 H 903.005 -1.02012 -4.68114 0
M  V30 9577 H 901.369 -0.44738 -2.5074 0
M  V30 9578 H 902.152 -2.10636 -2.71085 0
M  V30 9579 N 904.597 1.47463 -0.556102 0
M  V30 9580 C 905.843 2.02775 -0.0316806 0
M  V30 9581 C 906.176 1.42967 1.3143 0
M  V30 9582 O 905.451 0.584847 1.85499 0
M  V30 9583 C 905.734 3.60046 0.0625742 0
M  V30 9584 C 905.587 4.30288 -1.31043 0
M  V30 9585 C 906.906 4.33195 0.776553 0
M  V30 9586 H 904.025 0.736886 -0.0129869 0
M  V30 9587 H 906.667 1.75904 -0.718177 0
M  V30 9588 H 904.817 3.83071 0.647231 0
M  V30 9589 H 906.489 4.18607 -1.9382 0
M  V30 9590 H 904.732 3.90685 -1.8854 0
M  V30 9591 H 905.403 5.38861 -1.1972 0
M  V30 9592 H 907.879 4.15156 0.280147 0
M  V30 9593 H 906.755 5.42869 0.81146 0
M  V30 9594 H 907.016 4.02336 1.83244 0
M  V30 9595 N 906.075 0.2925 1.54862 0
M  V30 9596 C 907.321 -0.319736 2.00264 0
M  V30 9597 C 907.654 -1.5419 1.18064 0
M  V30 9598 O 906.929 -1.92821 0.254983 0
M  V30 9599 C 907.212 -0.684753 3.5353 0
M  V30 9600 C 907.065 0.545961 4.46474 0
M  V30 9601 C 908.384 -1.51456 4.13218 0
M  V30 9602 H 905.503 -0.11474 0.728014 0
M  V30 9603 H 908.145 0.402907 1.85679 0
M  V30 9604 H 906.295 -1.30044 3.66089 0
M  V30 9605 H 907.967 1.18448 4.45834 0
M  V30 9606 H 906.21 1.1808 4.1742 0
M  V30 9607 H 906.881 0.246544 5.51449 0
M  V30 9608 H 909.357 -0.994421 4.04043 0
M  V30 9609 H 908.233 -1.73875 5.20633 0
M  V30 9610 H 908.494 -2.5011 3.64551 0
M  V30 9611 N 907.553 -1.57587 0.0200696 0
M  V30 9612 C 908.501 -2.10814 -0.982868 0
M  V30 9613 C 909.495 -1.03263 -1.34287 0
M  V30 9614 O 910.701 -1.21708 -1.32617 0
M  V30 9615 H 907.076 -0.673409 -0.334701 0
M  V30 9616 H 909.047 -2.94034 -0.50856 0
M  V30 9617 C 907.796 -2.64301 -2.25921 0
M  V30 9618 H 907.119 -3.46703 -1.99091 0
M  V30 9619 H 908.559 -3.052 -2.94328 0
M  V30 9620 C 907.018 -1.56628 -2.98277 0
M  V30 9621 O 907.548 -0.960825 -3.9004 0
M  V30 9622 N 905.754 -1.28889 -2.60453 0
M  V30 9623 H 905.301 -1.7831 -1.85912 0
M  V30 9624 H 905.259 -0.570697 -3.09177 0
M  V30 9625 N 909.032 0.252966 -1.55557 0
M  V30 9626 C 909.995 1.29645 -1.8901 0
M  V30 9627 C 910.995 1.41378 -0.766096 0
M  V30 9628 O 912.185 1.40183 -1.03414 0
M  V30 9629 C 909.317 2.67504 -2.11316 0
M  V30 9630 H 910.51 1.01202 -2.82309 0
M  V30 9631 H 908.063 0.491977 -1.48355 0
M  V30 9632 H 908.798 3.01095 -1.20466 0
M  V30 9633 H 908.583 2.6037 -2.93172 0
M  V30 9634 H 910.073 3.42861 -2.38403 0
M  V30 9635 N 910.51 1.48831 0.518367 0
M  V30 9636 C 911.756 1.57672 1.27543 0
M  V30 9637 C 912.089 0.254915 1.9252 0
M  V30 9638 O 911.364 -0.740107 1.79868 0
M  V30 9639 C 911.647 2.72345 2.35585 0
M  V30 9640 C 911.5 4.14267 1.75224 0
M  V30 9641 C 912.819 2.82726 3.37274 0
M  V30 9642 H 909.938 0.573926 0.462361 0
M  V30 9643 H 912.58 1.8105 0.576267 0
M  V30 9644 H 910.73 2.52543 2.95219 0
M  V30 9645 H 912.402 4.45539 1.19551 0
M  V30 9646 H 910.645 4.20724 1.05706 0
M  V30 9647 H 911.316 4.90345 2.53507 0
M  V30 9648 H 913.792 3.00699 2.8761 0
M  V30 9649 H 912.668 3.6467 4.10252 0
M  V30 9650 H 912.929 1.9136 3.9854 0
M  V30 9651 N 911.988 -0.768124 1.37614 0
M  V30 9652 C 913.213 -1.56239 1.36397 0
M  V30 9653 C 913.638 -1.8804 -0.0475839 0
M  V30 9654 O 912.996 -1.495 -1.02564 0
M  V30 9655 C 913.044 -2.84716 2.21289 0
M  V30 9656 O 912.148 -3.79249 1.62001 0
M  V30 9657 H 911.489 -0.473119 0.465891 0
M  V30 9658 H 914.019 -0.950415 1.81186 0
M  V30 9659 H 914.029 -3.33784 2.34632 0
M  V30 9660 H 912.704 -2.60899 3.2389 0
M  V30 9661 H 911.281 -3.37904 1.57719 0
M  V30 9662 N 913.466 -1.22244 -0.994698 0
M  V30 9663 C 914.715 -1.04005 -1.72817 0
M  V30 9664 C 915.028 0.425413 -1.90918 0
M  V30 9665 O 916.234 0.727429 -2.61574 0
M  V30 9666 C 914.69 -1.81244 -3.10932 0
M  V30 9667 C 914.298 -3.32028 -3.00768 0
M  V30 9668 C 916.042 -1.71448 -3.88337 0
M  V30 9669 C 913.949 -4.01716 -4.34026 0
M  V30 9670 H 912.879 -0.385559 -0.647966 0
M  V30 9671 H 915.53 -1.46077 -1.11058 0
M  V30 9672 H 913.912 -1.3197 -3.73363 0
M  V30 9673 H 915.086 -3.88682 -2.47513 0
M  V30 9674 H 913.401 -3.4248 -2.36846 0
M  V30 9675 H 915.998 -2.20836 -4.86965 0
M  V30 9676 H 916.341 -0.674568 -4.10798 0
M  V30 9677 H 916.874 -2.18256 -3.3258 0
M  V30 9678 H 913.613 -5.05952 -4.16765 0
M  V30 9679 H 913.133 -3.49849 -4.87202 0
M  V30 9680 H 914.812 -4.0721 -5.02782 0
M  V30 9681 N 914.944 1.19125 -1.03184 0
M  V30 9682 C 915.894 2.20348 -0.585731 0
M  V30 9683 C 916.878 1.56656 0.367109 0
M  V30 9684 O 918.07 1.76003 0.187598 0
M  V30 9685 C 915.199 3.43249 0.0590006 0
M  V30 9686 C 914.285 4.1408 -0.916457 0
M  V30 9687 N 914.676 4.61051 -2.08005 0
M  V30 9688 C 912.974 4.39809 -0.74054 0
M  V30 9689 C 913.675 5.15477 -2.69552 0
M  V30 9690 N 912.651 5.06456 -1.97493 0
M  V30 9691 H 916.453 2.54346 -1.47259 0
M  V30 9692 H 913.967 1.35232 -0.899225 0
M  V30 9693 H 915.964 4.15013 0.396236 0
M  V30 9694 H 914.624 3.1075 0.941507 0
M  V30 9695 H 915.635 4.55782 -2.45934 0
M  V30 9696 H 912.312 4.17397 0.0926238 0
M  V30 9697 H 913.702 5.62088 -3.68112 0
M  V30 9698 N 916.422 0.810101 1.35185 0
M  V30 9699 C 917.354 0.180581 2.28488 0
M  V30 9700 C 918.367 -0.622154 1.50443 0
M  V30 9701 O 919.556 -0.453938 1.72632 0
M  V30 9702 C 916.656 -0.766447 3.30119 0
M  V30 9703 C 915.829 -0.00932028 4.37399 0
M  V30 9704 C 914.888 -0.875354 5.18868 0
M  V30 9705 O 913.914 -0.325012 5.68271 0
M  V30 9706 N 915.116 -2.19695 5.37321 0
M  V30 9707 H 917.881 0.98212 2.83151 0
M  V30 9708 H 915.442 0.665879 1.47573 0
M  V30 9709 H 917.434 -1.35012 3.81515 0
M  V30 9710 H 916.004 -1.46878 2.75945 0
M  V30 9711 H 915.224 0.755585 3.86891 0
M  V30 9712 H 916.512 0.512352 5.06214 0
M  V30 9713 H 915.91 -2.66797 4.98834 0
M  V30 9714 H 914.467 -2.72978 5.91884 0
M  V30 9715 N 917.9 -1.47166 0.563914 0
M  V30 9716 C 919.146 -2.02756 0.0424338 0
M  V30 9717 C 919.479 -1.43662 -1.3067 0
M  V30 9718 O 918.754 -0.594676 -1.85186 0
M  V30 9719 C 919.037 -3.60074 -0.0434793 0
M  V30 9720 C 918.89 -4.29587 1.33323 0
M  V30 9721 C 920.209 -4.336 -0.753568 0
M  V30 9722 H 917.328 -0.736806 0.0168946 0
M  V30 9723 H 919.97 -1.75521 0.727496 0
M  V30 9724 H 918.12 -3.83409 -0.626906 0
M  V30 9725 H 919.792 -4.17573 1.96037 0
M  V30 9726 H 918.035 -3.8968 1.9061 0
M  V30 9727 H 918.706 -5.38218 1.22576 0
M  V30 9728 H 921.182 -4.15299 -0.258126 0
M  V30 9729 H 920.058 -5.43291 -0.782659 0
M  V30 9730 H 920.319 -4.03302 -1.81108 0
M  V30 9731 N 919.378 -0.300708 -1.54705 0
M  V30 9732 C 920.325 0.57552 -2.23509 0
M  V30 9733 C 921.295 1.12979 -1.21758 0
M  V30 9734 O 922.48 1.17437 -1.50377 0
M  V30 9735 C 919.62 1.74167 -2.97926 0
M  V30 9736 C 918.733 1.21882 -4.1445 0
M  V30 9737 C 917.868 2.34881 -4.7645 0
M  V30 9738 C 916.907 1.79729 -5.85119 0
M  V30 9739 N 916.044 2.863 -6.41075 0
M  V30 9740 H 920.884 -0.0178257 -2.97995 0
M  V30 9741 H 918.421 -0.0205666 -1.47086 0
M  V30 9742 H 920.379 2.42753 -3.39303 0
M  V30 9743 H 919.009 2.30665 -2.25817 0
M  V30 9744 H 918.061 0.425227 -3.78016 0
M  V30 9745 H 919.373 0.775065 -4.92741 0
M  V30 9746 H 918.527 3.11415 -5.20678 0
M  V30 9747 H 917.266 2.82584 -3.97489 0
M  V30 9748 H 916.271 1.01684 -5.40315 0
M  V30 9749 H 917.496 1.32931 -6.65963 0
M  V30 9750 H 915.442 3.33337 -5.64998 0
M  V30 9751 H 915.359 2.46419 -7.14712 0
M  V30 9752 H 916.627 3.62732 -6.89961 0
M  V30 9753 N 920.856 1.57574 -0.0284266 0
M  V30 9754 C 921.803 2.10176 0.953658 0
M  V30 9755 C 922.773 1.00367 1.32347 0
M  V30 9756 O 923.958 1.27783 1.4169 0
M  V30 9757 C 921.098 2.63287 2.231 0
M  V30 9758 C 920.211 3.87102 1.91771 0
M  V30 9759 C 919.346 4.28609 3.13795 0
M  V30 9760 C 918.385 5.45184 2.78282 0
M  V30 9761 N 917.522 5.81851 3.92929 0
M  V30 9762 H 922.362 2.93806 0.498176 0
M  V30 9763 H 919.899 1.45222 0.234302 0
M  V30 9764 H 921.857 2.9217 2.97813 0
M  V30 9765 H 920.487 1.82489 2.66266 0
M  V30 9766 H 919.539 3.64952 1.07303 0
M  V30 9767 H 920.851 4.71892 1.61615 0
M  V30 9768 H 920.005 4.58925 3.96829 0
M  V30 9769 H 918.744 3.42585 3.47112 0
M  V30 9770 H 917.749 5.14563 1.93661 0
M  V30 9771 H 918.974 6.32907 2.46182 0
M  V30 9772 H 916.92 4.98782 4.2609 0
M  V30 9773 H 916.837 6.6128 3.66395 0
M  V30 9774 H 918.105 6.16772 4.76669 0
M  V30 9775 N 922.334 -0.244713 1.55689 0
M  V30 9776 C 923.266 -1.32595 1.86952 0
M  V30 9777 C 924.279 -1.44185 0.755948 0
M  V30 9778 O 925.468 -1.45496 1.03408 0
M  V30 9779 C 922.568 -2.70429 2.04258 0
M  V30 9780 C 921.741 -2.8108 3.35131 0
M  V30 9781 C 920.8 -3.99773 3.42152 0
M  V30 9782 O 919.826 -3.89197 4.15348 0
M  V30 9783 N 921.028 -5.13041 2.71604 0
M  V30 9784 H 923.793 -1.06111 2.80287 0
M  V30 9785 H 921.354 -0.434811 1.55952 0
M  V30 9786 H 923.346 -3.48173 2.06295 0
M  V30 9787 H 921.916 -2.89612 1.17658 0
M  V30 9788 H 921.136 -1.89994 3.45392 0
M  V30 9789 H 922.424 -2.85147 4.21389 0
M  V30 9790 H 921.822 -5.24525 2.11872 0
M  V30 9791 H 920.379 -5.88912 2.79331 0
M  V30 9792 N 923.813 -1.49104 -0.510467 0
M  V30 9793 C 925.038 -1.62068 -1.29417 0
M  V30 9794 C 925.463 -0.288432 -1.85875 0
M  V30 9795 O 924.821 0.742667 -1.65391 0
M  V30 9796 C 924.869 -2.68506 -2.40701 0
M  V30 9797 O 923.973 -2.27021 -3.4429 0
M  V30 9798 H 923.314 -0.542778 -0.382476 0
M  V30 9799 H 925.844 -1.95228 -0.612154 0
M  V30 9800 H 925.854 -2.90383 -2.86604 0
M  V30 9801 H 924.529 -3.65216 -1.98973 0
M  V30 9802 H 923.106 -2.15436 -3.04371 0
M  V30 9803 N 925.291 0.760815 -1.38019 0
M  V30 9804 C 926.223 1.88387 -1.30549 0
M  V30 9805 C 927.236 1.61319 -0.219119 0
M  V30 9806 O 928.425 1.72033 -0.476122 0
M  V30 9807 C 925.525 3.23863 -0.998291 0
M  V30 9808 C 924.698 3.78492 -2.19232 0
M  V30 9809 C 923.757 4.92468 -1.85368 0
M  V30 9810 O 922.783 5.0748 -2.57785 0
M  V30 9811 N 923.985 5.74901 -0.804319 0
M  V30 9812 H 926.75 1.95308 -2.27322 0
M  V30 9813 H 924.311 0.940423 -1.31786 0
M  V30 9814 H 926.303 3.97644 -0.7524 0
M  V30 9815 H 924.873 3.12374 -0.11877 0
M  V30 9816 H 924.093 2.96361 -2.5993 0
M  V30 9817 H 925.381 4.11722 -2.98935 0
M  V30 9818 H 924.779 5.65333 -0.203628 0
M  V30 9819 H 923.336 6.48861 -0.618301 0
M  V30 9820 N 926.769 1.22769 0.988202 0
M  V30 9821 C 927.699 1.02627 2.09738 0
M  V30 9822 C 928.68 -0.0543211 1.70013 0
M  V30 9823 O 929.865 0.108811 1.93895 0
M  V30 9824 C 926.995 0.608302 3.41931 0
M  V30 9825 C 925.949 1.63536 3.95525 0
M  V30 9826 C 925.275 1.07308 5.23822 0
M  V30 9827 C 926.575 3.02649 4.25677 0
M  V30 9828 H 928.269 1.954 2.26847 0
M  V30 9829 H 925.815 0.940888 1.09011 0
M  V30 9830 H 927.768 0.454478 4.18942 0
M  V30 9831 H 926.492 -0.355095 3.24664 0
M  V30 9832 H 925.151 1.77704 3.20651 0
M  V30 9833 H 924.799 0.100894 5.02899 0
M  V30 9834 H 924.499 1.75925 5.60646 0
M  V30 9835 H 926.023 0.930938 6.03462 0
M  V30 9836 H 927.437 2.91828 4.93467 0
M  V30 9837 H 925.834 3.68434 4.73684 0
M  V30 9838 H 926.904 3.52228 3.33262 0
M  V30 9839 N 928.247 -1.18576 1.03814 0
M  V30 9840 C 929.472 -1.92978 0.759873 0
M  V30 9841 C 929.897 -1.75514 -0.676486 0
M  V30 9842 O 929.255 -1.06359 -1.46824 0
M  V30 9843 C 929.303 -3.42507 1.12788 0
M  V30 9844 O 928.407 -4.1163 0.251886 0
M  V30 9845 H 927.748 -0.602129 0.279886 0
M  V30 9846 H 930.278 -1.50383 1.3873 0
M  V30 9847 H 930.288 -3.93206 1.08872 0
M  V30 9848 H 928.963 -3.5454 2.17427 0
M  V30 9849 H 927.54 -3.7125 0.350441 0
M  V30 9850 N 929.725 -0.817259 -1.34754 0
M  V30 9851 C 930.655 -0.249769 -2.3216 0
M  V30 9852 C 931.636 0.630663 -1.57977 0
M  V30 9853 O 932.821 0.558719 -1.85989 0
M  V30 9854 C 929.951 0.593825 -3.42186 0
M  V30 9855 C 928.905 -0.188997 -4.27583 0
M  V30 9856 C 928.231 0.776979 -5.29025 0
M  V30 9857 C 929.531 -1.39401 -5.03354 0
M  V30 9858 H 931.225 -1.06359 -2.79872 0
M  V30 9859 H 928.771 -0.512894 -1.34556 0
M  V30 9860 H 930.724 1.00097 -4.09339 0
M  V30 9861 H 929.448 1.44064 -2.93109 0
M  V30 9862 H 928.107 -0.577445 -3.62024 0
M  V30 9863 H 927.755 1.61959 -4.76212 0
M  V30 9864 H 927.455 0.257448 -5.87036 0
M  V30 9865 H 928.979 1.18211 -5.99048 0
M  V30 9866 H 930.393 -1.06117 -5.63393 0
M  V30 9867 H 928.79 -1.84878 -5.70912 0
M  V30 9868 H 929.86 -2.17515 -4.33377 0
M  V30 9869 N 931.203 1.46865 -0.571711 0
M  V30 9870 C 932.133 2.3298 0.155795 0
M  V30 9871 C 933.114 1.44678 0.894553 0
M  V30 9872 O 934.299 1.73513 0.872176 0
M  V30 9873 C 931.429 3.26745 1.17708 0
M  V30 9874 C 930.383 4.24401 0.553863 0
M  V30 9875 C 929.709 5.07595 1.68083 0
M  V30 9876 C 931.009 5.19884 -0.501827 0
M  V30 9877 H 932.703 2.94056 -0.563176 0
M  V30 9878 H 930.249 1.41402 -0.27228 0
M  V30 9879 H 932.202 3.85838 1.6943 0
M  V30 9880 H 930.926 2.63753 1.92618 0
M  V30 9881 H 929.585 3.66554 0.057815 0
M  V30 9882 H 929.233 4.40996 2.41933 0
M  V30 9883 H 928.933 5.73722 1.26953 0
M  V30 9884 H 930.457 5.6955 2.20103 0
M  V30 9885 H 931.871 5.73257 -0.0701057 0
M  V30 9886 H 930.268 5.94293 -0.832815 0
M  V30 9887 H 931.338 4.64482 -1.39229 0
M  V30 9888 N 932.681 0.308908 1.54543 0
M  V30 9889 C 933.958 -0.351558 1.92415 0
M  V30 9890 C 934.338 -1.71061 1.23699 0
M  V30 9891 O 933.686 -2.25394 0.3755 0
M  V30 9892 C 933.896 -0.458357 3.45977 0
M  V30 9893 C 935.244 -0.725524 4.18355 0
M  V30 9894 O 936.268 -0.541859 3.52054 0
M  V30 9895 O 935.127 -1.07884 5.35745 0
M  V30 9896 H 932.221 -0.197957 0.802958 0
M  V30 9897 H 934.767 0.357548 1.65891 0
M  V30 9898 H 933.539 0.496723 3.88134 0
M  V30 9899 H 933.162 -1.21562 3.78561 0
M  V30 9900 N 934.159 -1.57557 0.0367827 0
M  V30 9901 C 935.389 -1.96134 -0.649225 0
M  V30 9902 C 935.797 -0.912279 -1.65753 0
M  V30 9903 O 935.14 0.113569 -1.83349 0
M  V30 9904 C 935.202 -3.30889 -1.40545 0
M  V30 9905 C 934.866 -4.53622 -0.554609 0
M  V30 9906 C 935.863 -5.19611 0.17331 0
M  V30 9907 C 933.548 -4.99907 -0.48976 0
M  V30 9908 C 935.542 -6.3021 0.95467 0
M  V30 9909 C 933.229 -6.10386 0.295299 0
M  V30 9910 C 934.227 -6.75398 1.01621 0
M  V30 9911 O 933.915 -7.83755 1.78839 0
M  V30 9912 H 933.647 -0.650662 -0.183344 0
M  V30 9913 H 936.201 -2.05179 0.0951512 0
M  V30 9914 H 934.431 -3.18356 -2.19513 0
M  V30 9915 H 936.12 -3.54315 -1.9803 0
M  V30 9916 H 936.886 -4.84819 0.132589 0
M  V30 9917 H 932.765 -4.49105 -1.04046 0
M  V30 9918 H 936.309 -6.80886 1.51789 0
M  V30 9919 H 932.206 -6.44616 0.33771 0
M  V30 9920 H 932.974 -8.0046 1.70898 0
M  V30 9921 N 935.637 0.236453 -1.55816 0
M  V30 9922 C 936.884 0.963012 -1.78136 0
M  V30 9923 C 937.212 1.84918 -0.602952 0
M  V30 9924 O 936.467 1.91285 0.413325 0
M  V30 9925 C 936.766 1.84549 -3.06066 0
M  V30 9926 C 936.432 1.11381 -4.36927 0
M  V30 9927 C 935.094 0.911635 -4.72486 0
M  V30 9928 C 937.446 0.596 -5.17781 0
M  V30 9929 C 934.774 0.179515 -5.86425 0
M  V30 9930 C 937.126 -0.122702 -6.32481 0
M  V30 9931 C 935.79 -0.336263 -6.66652 0
M  V30 9932 H 935.06 0.352391 -0.651845 0
M  V30 9933 H 937.707 0.232295 -1.90086 0
M  V30 9934 H 936.012 2.6436 -2.89173 0
M  V30 9935 H 937.709 2.40953 -3.20535 0
M  V30 9936 H 934.299 1.28134 -4.08998 0
M  V30 9937 H 938.483 0.73971 -4.90757 0
M  V30 9938 H 933.739 0.00368224 -6.114 0
M  V30 9939 H 937.913 -0.531516 -6.94369 0
M  V30 9940 H 935.54 -0.905507 -7.54788 0
M  V30 9941 N 937.115 1.49373 0.502552 0
M  V30 9942 C 938.045 1.68839 1.61294 0
M  V30 9943 C 939.026 0.537096 1.61398 0
M  V30 9944 O 940.211 0.772764 1.78163 0
M  V30 9945 C 937.341 1.75347 2.99784 0
M  V30 9946 C 936.295 2.90251 3.14545 0
M  V30 9947 C 935.621 2.8187 4.54371 0
M  V30 9948 C 936.921 4.31207 2.94717 0
M  V30 9949 H 938.615 2.61803 1.45257 0
M  V30 9950 H 936.161 1.25987 0.697371 0
M  V30 9951 H 938.114 1.87552 3.77362 0
M  V30 9952 H 936.838 0.789814 3.16906 0
M  V30 9953 H 935.497 2.77646 2.39392 0
M  V30 9954 H 935.145 1.83416 4.68367 0
M  V30 9955 H 934.845 3.5899 4.65188 0
M  V30 9956 H 936.369 2.96081 5.34012 0
M  V30 9957 H 937.783 4.44501 3.62065 0
M  V30 9958 H 936.18 5.09536 3.17007 0
M  V30 9959 H 937.25 4.45759 1.90857 0
M  V30 9960 N 938.594 -0.753485 1.38421 0
M  V30 9961 C 939.526 -1.87692 1.31547 0
M  V30 9962 C 940.539 -1.612 0.227671 0
M  V30 9963 O 941.728 -1.71778 0.485238 0
M  V30 9964 C 938.828 -3.23329 1.01545 0
M  V30 9965 C 938.001 -3.77324 2.21236 0
M  V30 9966 C 937.06 -4.91478 1.87977 0
M  V30 9967 O 936.086 -5.06106 2.60472 0
M  V30 9968 N 937.288 -5.74466 0.834796 0
M  V30 9969 H 940.053 -1.94099 2.28354 0
M  V30 9970 H 937.614 -0.933421 1.32283 0
M  V30 9971 H 939.606 -3.9724 0.773477 0
M  V30 9972 H 938.176 -3.12307 0.135334 0
M  V30 9973 H 937.396 -2.94978 2.61498 0
M  V30 9974 H 938.684 -4.10131 3.01115 0
M  V30 9975 H 938.082 -5.65217 0.233606 0
M  V30 9976 H 936.639 -6.48524 0.652703 0
M  V30 9977 N 940.072 -1.23292 -0.981677 0
M  V30 9978 C 940.982 -1.02964 -2.10798 0
M  V30 9979 C 941.998 0.0254674 -1.73981 0
M  V30 9980 O 943.174 -0.169706 -2.00684 0
M  V30 9981 C 940.239 -0.621934 -3.41076 0
M  V30 9982 C 939.3 -1.75194 -3.91926 0
M  V30 9983 C 938.533 -1.36359 -5.15986 0
M  V30 9984 O 938.756 -0.247265 -5.69864 0
M  V30 9985 O 937.69 -2.18421 -5.60871 0
M  V30 9986 H 941.516 -1.97354 -2.30836 0
M  V30 9987 H 939.101 -1.01986 -1.09175 0
M  V30 9988 H 940.983 -0.405446 -4.19445 0
M  V30 9989 H 939.658 0.29299 -3.22371 0
M  V30 9990 H 938.565 -2.02305 -3.1468 0
M  V30 9991 H 939.898 -2.64513 -4.15083 0
M  V30 9992 N 941.55 1.18024 -1.04442 0
M  V30 9993 C 942.5 2.19714 -0.609069 0
M  V30 9994 C 943.484 1.57037 0.350473 0
M  V30 9995 O 944.676 1.76192 0.16892 0
M  V30 9996 C 941.805 3.43293 0.0225911 0
M  V30 9997 C 940.891 4.13084 -0.960325 0
M  V30 9998 N 941.282 4.58819 -2.12883 0
M  V30 9999 C 939.58 4.38999 -0.787146 0
M  V30 10000 C 940.281 5.12589 -2.75004 0
M  V30 10001 N 939.257 5.04333 -2.02853 0
M  V30 10002 H 943.059 2.5277 -1.49948 0
M  V30 10003 H 940.573 1.34271 -0.913517 0
M  V30 10004 H 942.57 4.1541 0.352196 0
M  V30 10005 H 941.23 3.11731 0.908495 0
M  V30 10006 H 942.241 4.53148 -2.50754 0
M  V30 10007 H 938.918 4.17472 0.048348 0
M  V30 10008 H 940.308 5.58152 -3.74053 0
M  V30 10009 N 943.028 0.824394 1.34319 0
M  V30 10010 C 944.276 0.41235 1.97849 0
M  V30 10011 C 944.597 -1.02841 1.65677 0
M  V30 10012 O 943.867 -1.71421 0.948245 0
M  V30 10013 H 942.447 0.149486 0.73189 0
M  V30 10014 H 945.109 1.05416 1.63931 0
M  V30 10015 H 944.205 0.532557 3.07523 0
M  V30 10016 N 944.506 -1.46559 0.579492 0
M  V30 10017 C 945.731 -2.0729 0.0674595 0
M  V30 10018 C 946.156 -1.4259 -1.22677 0
M  V30 10019 O 945.514 -0.50857 -1.74021 0
M  V30 10020 C 945.562 -3.60492 -0.0882227 0
M  V30 10021 O 944.666 -3.96172 -1.14551 0
M  V30 10022 H 944.007 -0.661159 0.0613536 0
M  V30 10023 H 946.537 -1.88247 0.801519 0
M  V30 10024 H 946.547 -4.06929 -0.295411 0
M  V30 10025 H 945.222 -4.06976 0.856943 0
M  V30 10026 H 943.799 -3.61448 -0.917033 0
M  V30 10027 N 945.984 -0.3171 -1.54377 0
M  V30 10028 C 947.214 0.289138 -2.04567 0
M  V30 10029 C 947.622 1.46833 -1.19318 0
M  V30 10030 O 946.965 1.82436 -0.215141 0
M  V30 10031 C 947.027 0.792994 -3.50645 0
M  V30 10032 C 946.691 -0.263033 -4.56242 0
M  V30 10033 C 947.688 -1.09694 -5.08196 0
M  V30 10034 C 945.373 -0.409364 -5.00629 0
M  V30 10035 C 947.367 -2.06297 -6.03092 0
M  V30 10036 C 945.054 -1.37882 -5.95342 0
M  V30 10037 C 946.052 -2.20409 -6.46459 0
M  V30 10038 O 945.74 -3.15708 -7.39313 0
M  V30 10039 H 945.472 0.0644005 -0.672925 0
M  V30 10040 H 948.026 -0.459438 -2.00196 0
M  V30 10041 H 946.256 1.59237 -3.52392 0
M  V30 10042 H 947.945 1.31687 -3.83944 0
M  V30 10043 H 948.711 -0.994842 -4.74687 0
M  V30 10044 H 944.59 0.223091 -4.6046 0
M  V30 10045 H 948.134 -2.70751 -6.42915 0
M  V30 10046 H 944.031 -1.48158 -6.28267 0
M  V30 10047 H 944.799 -3.10873 -7.57166 0
M  V30 10048 N 947.462 1.57535 -0.0451378 0
M  V30 10049 C 948.69 1.96761 0.639742 0
M  V30 10050 C 949.105 0.922405 1.64734 0
M  V30 10051 O 948.462 -0.0940535 1.82257 0
M  V30 10052 C 948.513 3.36066 1.33199 0
M  V30 10053 O 948.234 4.36579 0.364757 0
M  V30 10054 C 949.735 3.90015 2.1072 0
M  V30 10055 H 946.955 0.64769 0.175324 0
M  V30 10056 H 949.499 2.04206 -0.109651 0
M  V30 10057 H 947.654 3.2979 2.03266 0
M  V30 10058 H 948.068 5.17432 0.858168 0
M  V30 10059 H 949.542 4.89785 2.54586 0
M  V30 10060 H 950.019 3.25117 2.95288 0
M  V30 10061 H 950.625 3.99609 1.45577 0
M  V30 10062 N 948.94 -0.228186 1.55939 0
M  V30 10063 C 950.168 -0.970618 1.8272 0
M  V30 10064 C 950.583 -1.78212 0.623385 0
M  V30 10065 O 949.94 -1.77879 -0.408063 0
M  V30 10066 C 949.991 -1.89352 3.07942 0
M  V30 10067 O 949.712 -1.11483 4.23678 0
M  V30 10068 C 951.213 -2.75039 3.47661 0
M  V30 10069 H 948.433 -0.284772 0.607574 0
M  V30 10070 H 950.977 -0.245419 2.03022 0
M  V30 10071 H 949.132 -2.57275 2.89635 0
M  V30 10072 H 949.546 -1.74073 4.94772 0
M  V30 10073 H 951.02 -3.35511 4.38334 0
M  V30 10074 H 951.497 -3.471 2.69106 0
M  V30 10075 H 952.103 -2.1254 3.68384 0
M  V30 10076 N 950.418 -1.49637 -0.494624 0
M  V30 10077 C 951.328 -1.69522 -1.62172 0
M  V30 10078 C 952.344 -0.577894 -1.64123 0
M  V30 10079 O 953.52 -0.853382 -1.82426 0
M  V30 10080 C 950.585 -1.7633 -2.9851 0
M  V30 10081 C 949.646 -2.99944 -3.07135 0
M  V30 10082 C 948.879 -3.06419 -4.36971 0
M  V30 10083 O 949.102 -2.20312 -5.26136 0
M  V30 10084 O 948.036 -3.9894 -4.507 0
M  V30 10085 H 951.862 -2.65017 -1.48324 0
M  V30 10086 H 949.447 -1.33454 -0.671603 0
M  V30 10087 H 951.329 -1.83125 -3.7953 0
M  V30 10088 H 950.004 -0.840155 -3.12607 0
M  V30 10089 H 948.911 -2.98664 -2.2528 0
M  V30 10090 H 950.244 -3.9176 -2.97968 0
M  V30 10091 N 951.896 0.746133 -1.38819 0
M  V30 10092 C 952.859 1.84167 -1.36437 0
M  V30 10093 C 953.859 1.58626 -0.263499 0
M  V30 10094 O 955.049 1.66233 -0.520801 0
M  V30 10095 C 952.181 3.21769 -1.12596 0
M  V30 10096 H 953.374 1.87684 -2.33912 0
M  V30 10097 H 950.927 0.948625 -1.24221 0
M  V30 10098 H 951.662 3.23917 -0.15758 0
M  V30 10099 H 951.447 3.41702 -1.92307 0
M  V30 10100 H 952.937 4.0184 -1.13643 0
M  V30 10101 N 953.375 1.23811 0.975125 0
M  V30 10102 C 954.622 1.07336 1.71712 0
M  V30 10103 C 954.95 -0.388954 1.90571 0
M  V30 10104 O 954.205 -1.30409 1.45918 0
M  V30 10105 C 954.504 1.74994 3.11628 0
M  V30 10106 C 954.17 3.24918 3.12632 0
M  V30 10107 C 952.832 3.65822 3.12614 0
M  V30 10108 C 955.184 4.20797 3.07538 0
M  V30 10109 C 952.512 5.01054 3.05224 0
M  V30 10110 C 954.864 5.56027 3.0169 0
M  V30 10111 C 953.528 5.96287 2.99996 0
M  V30 10112 H 952.798 0.392771 0.62834 0
M  V30 10113 H 955.445 1.53815 1.14075 0
M  V30 10114 H 953.75 1.20889 3.72684 0
M  V30 10115 H 955.447 1.5972 3.67819 0
M  V30 10116 H 952.037 2.92359 3.13407 0
M  V30 10117 H 956.221 3.902 3.06688 0
M  V30 10118 H 951.477 5.31454 3.02268 0
M  V30 10119 H 955.651 6.3003 2.96706 0
M  V30 10120 H 953.278 7.01037 2.94025 0
M  V30 10121 N 954.853 -1.17469 1.05066 0
M  V30 10122 C 955.783 -2.23635 0.671552 0
M  V30 10123 C 956.764 -1.66867 -0.33006 0
M  V30 10124 O 957.949 -1.93084 -0.207933 0
M  V30 10125 C 955.079 -3.47272 0.0441845 0
M  V30 10126 C 954.033 -4.16854 0.97042 0
M  V30 10127 C 953.359 -5.34299 0.206998 0
M  V30 10128 C 954.659 -4.69225 2.29401 0
M  V30 10129 H 956.353 -2.55602 1.55911 0
M  V30 10130 H 953.899 -1.2286 0.751101 0
M  V30 10131 H 955.852 -4.20756 -0.23282 0
M  V30 10132 H 954.576 -3.14568 -0.878311 0
M  V30 10133 H 953.235 -3.4528 1.23197 0
M  V30 10134 H 952.883 -4.97846 -0.718222 0
M  V30 10135 H 952.583 -5.81792 0.82416 0
M  V30 10136 H 954.107 -6.10568 -0.0627525 0
M  V30 10137 H 955.521 -5.34353 2.077 0
M  V30 10138 H 953.918 -5.27291 2.86503 0
M  V30 10139 H 954.988 -3.86102 2.93348 0
M  V30 10140 N 956.331 -0.831506 -1.3388 0
M  V30 10141 C 957.556 -0.435954 -2.02766 0
M  V30 10142 C 957.981 0.952889 -1.62178 0
M  V30 10143 O 957.339 1.62166 -0.810681 0
M  V30 10144 C 957.387 -0.555907 -3.56289 0
M  V30 10145 O 956.491 0.420826 -4.10247 0
M  V30 10146 H 955.832 -0.178248 -0.639628 0
M  V30 10147 H 958.362 -1.1243 -1.70941 0
M  V30 10148 H 958.372 -0.434831 -4.05676 0
M  V30 10149 H 957.047 -1.56881 -3.85177 0
M  V30 10150 H 955.624 0.257919 -3.72007 0
M  V30 10151 N 957.809 1.4625 -0.587256 0
M  V30 10152 C 958.772 2.28812 0.133238 0
M  V30 10153 C 959.772 1.38645 0.814513 0
M  V30 10154 O 960.962 1.60975 0.665774 0
M  V30 10155 C 958.094 3.19147 1.19824 0
M  V30 10156 H 959.287 2.93991 -0.592386 0
M  V30 10157 H 956.84 1.52435 -0.345416 0
M  V30 10158 H 957.575 2.58725 1.95529 0
M  V30 10159 H 957.36 3.85541 0.71418 0
M  V30 10160 H 958.85 3.81278 1.70344 0
M  V30 10161 N 959.287 0.325282 1.54207 0
M  V30 10162 C 960.219 -0.57395 2.21897 0
M  V30 10163 C 961.232 -1.0785 1.21952 0
M  V30 10164 O 962.421 -0.991782 1.48411 0
M  V30 10165 C 959.521 -1.8005 2.87115 0
M  V30 10166 C 958.694 -1.43435 4.13213 0
M  V30 10167 C 957.753 -2.51862 4.62009 0
M  V30 10168 O 956.779 -2.15934 5.26651 0
M  V30 10169 N 957.981 -3.8282 4.36382 0
M  V30 10170 H 960.746 0.00566918 2.99699 0
M  V30 10171 H 958.307 0.148563 1.61217 0
M  V30 10172 H 960.299 -2.51981 3.16682 0
M  V30 10173 H 958.869 -2.28792 2.13009 0
M  V30 10174 H 958.089 -0.546598 3.90392 0
M  V30 10175 H 959.377 -1.16544 4.95273 0
M  V30 10176 H 958.775 -4.14807 3.84645 0
M  V30 10177 H 957.332 -4.50976 4.70599 0
M  V30 10178 N 960.765 -1.57509 0.0534917 0
M  V30 10179 C 962.181 -1.56696 -0.303067 0
M  V30 10180 C 962.381 -1.06135 -1.71282 0
M  V30 10181 O 961.437 -0.71899 -2.42047 0
M  V30 10182 C 962.75 -3.00421 -0.129418 0
M  V30 10183 C 964.298 -3.12358 -0.200346 0
M  V30 10184 C 964.773 -4.57967 -0.0551971 0
M  V30 10185 N 966.264 -4.63066 -0.111398 0
M  V30 10186 C 966.999 -5.73395 -0.0232344 0
M  V30 10187 N 966.495 -6.92701 0.11741 0
M  V30 10188 N 968.288 -5.62045 -0.078984 0
M  V30 10189 H 960.439 -1.88696 0.975064 0
M  V30 10190 H 962.702 -0.869072 0.378706 0
M  V30 10191 H 962.408 -3.41456 0.842653 0
M  V30 10192 H 962.282 -3.66563 -0.889476 0
M  V30 10193 H 964.669 -2.71221 -1.16289 0
M  V30 10194 H 964.75 -2.48891 0.590506 0
M  V30 10195 H 964.394 -4.9979 0.904034 0
M  V30 10196 H 964.324 -5.19443 -0.865223 0
M  V30 10197 H 966.815 -3.77263 -0.219256 0
M  V30 10198 H 967.128 -7.72597 0.177326 0
M  V30 10199 H 965.473 -6.94833 0.152526 0
M  V30 10200 H 968.664 -4.67725 -0.187434 0
M  V30 10201 H 968.837 -6.48 -0.00681731 0
M  V30 10202 N 962.243 0.219913 -1.56058 0
M  V30 10203 C 963.191 1.29215 -1.93407 0
M  V30 10204 C 964.185 1.48434 -0.816307 0
M  V30 10205 O 965.391 1.49589 -1.00115 0
M  V30 10206 H 961.766 0.433256 -0.614649 0
M  V30 10207 H 963.737 0.949977 -2.82875 0
M  V30 10208 C 962.486 2.63501 -2.26854 0
M  V30 10209 H 961.809 2.4952 -3.12377 0
M  V30 10210 H 963.249 3.37334 -2.56869 0
M  V30 10211 C 961.708 3.18634 -1.09425 0
M  V30 10212 O 962.238 4.00117 -0.356243 0
M  V30 10213 N 960.444 2.7703 -0.877642 0
M  V30 10214 H 959.991 2.10875 -1.47951 0
M  V30 10215 H 959.949 3.1426 -0.0936792 0
M  V30 10216 N 963.721 1.49897 0.486681 0
M  V30 10217 C 964.968 1.60105 1.23986 0
M  V30 10218 C 965.296 0.294228 1.92262 0
M  V30 10219 O 964.551 -0.718876 1.82018 0
M  V30 10220 C 964.85 2.71982 2.31863 0
M  V30 10221 C 964.516 4.13 1.80948 0
M  V30 10222 C 963.178 4.51373 1.66782 0
M  V30 10223 C 965.53 5.01198 1.43004 0
M  V30 10224 C 962.858 5.75701 1.13072 0
M  V30 10225 C 965.21 6.26058 0.90742 0
M  V30 10226 C 963.874 6.63247 0.752269 0
M  V30 10227 H 963.144 0.585866 0.453698 0
M  V30 10228 H 965.791 1.83778 0.538305 0
M  V30 10229 H 964.096 2.42336 3.07865 0
M  V30 10230 H 965.793 2.77087 2.89869 0
M  V30 10231 H 962.383 3.82718 1.92937 0
M  V30 10232 H 966.567 4.72196 1.52789 0
M  V30 10233 H 961.823 6.03202 0.997842 0
M  V30 10234 H 965.997 6.9377 0.604684 0
M  V30 10235 H 963.624 7.59466 0.33392 0
M  V30 10236 N 965.199 -0.738761 1.39212 0
M  V30 10237 C 966.445 -1.50046 1.36433 0
M  V30 10238 C 966.778 -1.94157 -0.0409474 0
M  V30 10239 O 966.053 -1.66515 -1.00514 0
M  V30 10240 C 966.336 -2.74277 2.33333 0
M  V30 10241 C 966.189 -2.36209 3.82786 0
M  V30 10242 C 967.508 -3.76361 2.28123 0
M  V30 10243 H 964.627 -0.544294 0.496903 0
M  V30 10244 H 967.269 -0.845005 1.70175 0
M  V30 10245 H 965.419 -3.30204 2.04689 0
M  V30 10246 H 967.091 -1.85942 4.22165 0
M  V30 10247 H 965.334 -1.68483 3.99745 0
M  V30 10248 H 966.005 -3.25156 4.46069 0
M  V30 10249 H 968.481 -3.30009 2.53443 0
M  V30 10250 H 967.357 -4.60957 2.9801 0
M  V30 10251 H 967.618 -4.23013 1.28499 0
M  V30 10252 N 966.677 -1.24326 -0.968545 0
M  V30 10253 C 967.609 -0.992749 -2.06584 0
M  V30 10254 C 968.622 0.0374902 -1.62757 0
M  V30 10255 O 969.811 -0.199448 -1.77382 0
M  V30 10256 C 966.911 -0.476165 -3.35538 0
M  V30 10257 C 966.084 -1.56934 -4.08277 0
M  V30 10258 C 965.143 -1.05555 -5.15504 0
M  V30 10259 O 964.169 -1.74707 -5.41725 0
M  V30 10260 N 965.371 0.110465 -5.80395 0
M  V30 10261 H 968.136 -1.93752 -2.28649 0
M  V30 10262 H 965.697 -1.15344 -1.13611 0
M  V30 10263 H 967.689 -0.117223 -4.0453 0
M  V30 10264 H 966.259 0.374315 -3.10351 0
M  V30 10265 H 965.479 -2.10051 -3.33575 0
M  V30 10266 H 966.767 -2.30415 -4.53637 0
M  V30 10267 H 966.165 0.688614 -5.61493 0
M  V30 10268 H 964.722 0.41056 -6.50506 0
M  V30 10269 N 968.156 1.1691 -1.05688 0
M  V30 10270 C 969.381 1.91745 -0.790478 0
M  V30 10271 C 969.806 1.76568 0.648478 0
M  V30 10272 O 969.164 1.08682 1.45114 0
M  V30 10273 C 969.212 3.4067 -1.18222 0
M  V30 10274 O 968.316 4.11177 -0.317341 0
M  V30 10275 H 967.657 0.5976 -0.28943 0
M  V30 10276 H 970.187 1.48157 -1.41105 0
M  V30 10277 H 970.197 3.91424 -1.15114 0
M  V30 10278 H 968.872 3.51036 -2.2304 0
M  V30 10279 H 967.449 3.70645 -0.409459 0
M  V30 10280 N 969.634 0.838594 1.33437 0
M  V30 10281 C 970.874 0.440239 1.99603 0
M  V30 10282 C 971.238 -0.982061 1.64984 0
M  V30 10283 O 972.439 -1.48413 2.24114 0
M  V30 10284 C 970.71 0.654201 3.51362 0
M  V30 10285 S 972.269 0.351025 4.37394 0
M  V30 10286 H 969.087 0.165608 0.691444 0
M  V30 10287 H 971.689 1.08782 1.6244 0
M  V30 10288 H 970.393 1.68873 3.74045 0
M  V30 10289 H 969.924 -0.00754449 3.93399 0
M  V30 10290 H 971.939 -0.829298 4.89221 0
M  V30 10291 N 971.112 -1.45937 0.595003 0
M  V30 10292 C 972.075 -2.2888 -0.121102 0
M  V30 10293 C 973.075 -1.39075 -0.807149 0
M  V30 10294 O 974.265 -1.61326 -0.657228 0
M  V30 10295 C 971.397 -3.19778 -1.1813 0
M  V30 10296 H 972.59 -2.93673 0.607968 0
M  V30 10297 H 970.143 -1.5225 0.353495 0
M  V30 10298 H 970.878 -2.59759 -1.94154 0
M  V30 10299 H 970.663 -3.85914 -0.693724 0
M  V30 10300 H 972.153 -3.82176 -1.68319 0
M  V30 10301 N 972.59 -0.333456 -1.54032 0
M  V30 10302 C 973.838 0.265608 -2.00347 0
M  V30 10303 C 974.159 1.51873 -1.2231 0
M  V30 10304 O 973.429 1.93142 -0.327549 0
M  V30 10305 H 972.009 0.101135 -0.740122 0
M  V30 10306 H 974.671 -0.452285 -1.8958 0
M  V30 10307 H 973.767 0.51511 -3.0782 0
M  V30 10308 N 974.068 1.57479 -0.061844 0
M  V30 10309 C 975.298 1.97142 0.61794 0
M  V30 10310 C 975.706 0.938533 1.64281 0
M  V30 10311 O 975.049 -0.084385 1.83506 0
M  V30 10312 C 975.111 3.33083 1.35263 0
M  V30 10313 C 974.775 4.54447 0.482372 0
M  V30 10314 C 975.772 5.1927 -0.255954 0
M  V30 10315 C 973.457 5.00623 0.410167 0
M  V30 10316 C 975.451 6.28612 -1.05481 0
M  V30 10317 C 973.138 6.09839 -0.392369 0
M  V30 10318 C 974.136 6.73696 -1.12354 0
M  V30 10319 O 973.824 7.80811 -1.91285 0
M  V30 10320 H 973.556 0.653497 0.172969 0
M  V30 10321 H 976.11 2.05002 -0.127781 0
M  V30 10322 H 974.34 3.21808 2.14421 0
M  V30 10323 H 976.029 3.5742 1.92368 0
M  V30 10324 H 976.795 4.84546 -0.209703 0
M  V30 10325 H 972.674 4.50704 0.968883 0
M  V30 10326 H 976.218 6.78385 -1.62602 0
M  V30 10327 H 972.115 6.43997 -0.44022 0
M  V30 10328 H 972.883 7.9764 -1.83611 0
M  V30 10329 N 975.546 -0.211634 1.56173 0
M  V30 10330 C 976.786 -0.941505 1.81425 0
M  V30 10331 C 977.15 -1.8113 0.636862 0
M  V30 10332 O 978.351 -2.57568 0.768907 0
M  V30 10333 C 976.622 -1.75002 3.11623 0
M  V30 10334 S 978.181 -2.53418 3.58225 0
M  V30 10335 H 974.999 -0.316088 0.636875 0
M  V30 10336 H 977.601 -0.206244 1.94409 0
M  V30 10337 H 976.305 -1.10136 3.95346 0
M  V30 10338 H 975.836 -2.5274 3.01473 0
M  V30 10339 H 977.851 -3.77234 3.22349 0
M  V30 10340 N 977.024 -1.50153 -0.478725 0
M  V30 10341 C 977.954 -1.71384 -1.58587 0
M  V30 10342 C 978.935 -0.562705 -1.60523 0
M  V30 10343 O 980.12 -0.80101 -1.76911 0
M  V30 10344 C 977.25 -1.80094 -2.96957 0
M  V30 10345 C 976.204 -2.95218 -3.09888 0
M  V30 10346 C 975.53 -2.89063 -4.49829 0
M  V30 10347 C 976.83 -4.35841 -2.8782 0
M  V30 10348 H 978.524 -2.64081 -1.41073 0
M  V30 10349 H 976.07 -1.27081 -0.677239 0
M  V30 10350 H 978.023 -1.93531 -3.74331 0
M  V30 10351 H 976.747 -0.840131 -3.1561 0
M  V30 10352 H 975.406 -2.81419 -2.34944 0
M  V30 10353 H 975.054 -1.90844 -4.6539 0
M  V30 10354 H 974.754 -3.66345 -4.59418 0
M  V30 10355 H 976.278 -3.04539 -5.29234 0
M  V30 10356 H 977.692 -4.50205 -3.54948 0
M  V30 10357 H 976.089 -5.14515 -3.0886 0
M  V30 10358 H 977.159 -4.48739 -1.83742 0
M  V30 10359 N 978.502 0.731368 -1.39602 0
M  V30 10360 C 979.748 1.49321 -1.37227 0
M  V30 10361 C 980.081 1.94176 0.0306502 0
M  V30 10362 O 979.356 1.67046 0.996294 0
M  V30 10363 C 979.639 2.73035 -2.34784 0
M  V30 10364 C 979.492 2.34176 -3.84033 0
M  V30 10365 C 980.811 3.75146 -2.30116 0
M  V30 10366 H 977.93 0.541652 -0.499783 0
M  V30 10367 H 980.572 0.835968 -1.70621 0
M  V30 10368 H 978.722 3.29114 -2.06437 0
M  V30 10369 H 980.394 1.83701 -4.23145 0
M  V30 10370 H 978.637 1.66361 -4.00633 0
M  V30 10371 H 979.308 3.22786 -4.47787 0
M  V30 10372 H 981.784 3.28661 -2.55189 0
M  V30 10373 H 980.66 4.5937 -3.00451 0
M  V30 10374 H 980.921 4.22326 -1.30741 0
M  V30 10375 N 979.98 1.24838 0.961938 0
M  V30 10376 C 981.22 1.10348 1.72054 0
M  V30 10377 C 981.584 -0.350775 1.88769 0
M  V30 10378 O 982.785 -0.617323 2.61615 0
M  V30 10379 C 981.056 1.82916 3.07045 0
M  V30 10380 S 982.615 1.84227 3.98253 0
M  V30 10381 H 979.433 0.394552 0.591481 0
M  V30 10382 H 982.035 1.58254 1.14786 0
M  V30 10383 H 980.739 2.87829 2.92545 0
M  V30 10384 H 980.27 1.35366 3.69377 0
M  V30 10385 H 982.285 0.914073 4.87708 0
M  V30 10386 N 981.458 -1.16348 1.06306 0
M  V30 10387 C 982.688 -1.90505 0.799453 0
M  V30 10388 C 983.096 -1.77686 -0.649955 0
M  V30 10389 O 982.439 -1.11921 -1.45669 0
M  V30 10390 C 982.501 -3.41775 1.11492 0
M  V30 10391 C 982.165 -3.7838 2.56277 0
M  V30 10392 C 983.162 -3.80288 3.54509 0
M  V30 10393 C 980.847 -4.09007 2.9158 0
M  V30 10394 C 982.841 -4.12312 4.86084 0
M  V30 10395 C 980.528 -4.40697 4.23354 0
M  V30 10396 C 981.526 -4.4233 5.20416 0
M  V30 10397 O 981.214 -4.73267 6.49826 0
M  V30 10398 H 980.946 -0.61094 0.289359 0
M  V30 10399 H 983.5 -1.48409 1.41999 0
M  V30 10400 H 981.73 -3.84219 0.437306 0
M  V30 10401 H 983.419 -3.97207 0.835533 0
M  V30 10402 H 984.185 -3.56738 3.28577 0
M  V30 10403 H 980.064 -4.06901 2.16686 0
M  V30 10404 H 983.608 -4.13501 5.61838 0
M  V30 10405 H 979.505 -4.63713 4.49044 0
M  V30 10406 H 980.273 -4.91078 6.54817 0
M  V30 10407 N 982.937 -0.845659 -1.3299 0
M  V30 10408 C 983.867 -0.298957 -2.31578 0
M  V30 10409 C 984.848 0.597012 -1.59279 0
M  V30 10410 O 986.033 0.519142 -1.87132 0
M  V30 10411 C 983.163 0.521109 -3.43368 0
M  V30 10412 C 982.117 -0.279651 -4.27085 0
M  V30 10413 C 981.443 0.664591 -5.30554 0
M  V30 10414 C 982.743 -1.50046 -5.00283 0
M  V30 10415 H 984.437 -1.12272 -2.77552 0
M  V30 10416 H 981.983 -0.54132 -1.33438 0
M  V30 10417 H 983.936 0.913921 -4.1137 0
M  V30 10418 H 982.66 1.37815 -2.96099 0
M  V30 10419 H 981.319 -0.654106 -3.60717 0
M  V30 10420 H 980.967 1.51822 -4.79541 0
M  V30 10421 H 980.667 0.132871 -5.8745 0
M  V30 10422 H 982.191 1.05477 -6.01421 0
M  V30 10423 H 983.605 -1.18044 -5.61016 0
M  V30 10424 H 982.002 -1.96946 -5.66862 0
M  V30 10425 H 983.072 -2.26659 -4.28665 0
M  V30 10426 N 984.415 1.45619 -0.602734 0
M  V30 10427 C 985.345 2.33258 0.106342 0
M  V30 10428 C 986.326 1.46543 0.863664 0
M  V30 10429 O 987.511 1.75324 0.835175 0
M  V30 10430 C 984.641 3.29168 1.10751 0
M  V30 10431 C 983.595 4.25481 0.463717 0
M  V30 10432 C 982.921 5.11046 1.57278 0
M  V30 10433 C 984.221 5.18702 -0.61199 0
M  V30 10434 H 985.915 2.92795 -0.625423 0
M  V30 10435 H 983.461 1.40793 -0.302213 0
M  V30 10436 H 985.414 3.89346 1.61208 0
M  V30 10437 H 984.138 2.6778 1.8698 0
M  V30 10438 H 982.797 3.66595 -0.0199496 0
M  V30 10439 H 982.445 4.46029 2.32524 0
M  V30 10440 H 982.145 5.76286 1.14755 0
M  V30 10441 H 983.669 5.74091 2.07972 0
M  V30 10442 H 985.083 5.72979 -0.191686 0
M  V30 10443 H 983.48 5.92393 -0.958686 0
M  V30 10444 H 984.55 4.61424 -1.4905 0
M  V30 10445 N 985.893 0.34162 1.53853 0
M  V30 10446 C 986.825 -0.550383 2.22494 0
M  V30 10447 C 987.838 -1.0655 1.23089 0
M  V30 10448 O 989.027 -0.975985 1.49455 0
M  V30 10449 C 986.127 -1.76995 2.89009 0
M  V30 10450 C 985.3 -1.39045 4.14711 0
M  V30 10451 C 984.359 -2.46947 4.64654 0
M  V30 10452 O 983.385 -2.10336 5.28912 0
M  V30 10453 N 984.587 -3.7817 4.40418 0
M  V30 10454 H 987.352 0.037456 2.99677 0
M  V30 10455 H 984.913 0.165654 1.6105 0
M  V30 10456 H 986.905 -2.48608 3.19337 0
M  V30 10457 H 985.475 -2.2652 2.15424 0
M  V30 10458 H 984.695 -0.505161 3.9095 0
M  V30 10459 H 985.983 -1.11284 4.96481 0
M  V30 10460 H 985.381 -4.10704 3.89023 0
M  V30 10461 H 983.938 -4.45959 4.75356 0
M  V30 10462 N 987.371 -1.57444 0.0701946 0
M  V30 10463 C 988.617 -1.93716 -0.600178 0
M  V30 10464 C 988.95 -0.950329 -1.69359 0
M  V30 10465 O 988.225 0.0207123 -1.94489 0
M  V30 10466 C 988.508 -3.40266 -1.17861 0
M  V30 10467 C 988.361 -4.49706 -0.0919575 0
M  V30 10468 C 989.68 -3.87599 -2.08459 0
M  V30 10469 H 986.799 -0.704421 -0.216704 0
M  V30 10470 H 989.441 -1.89514 0.135838 0
M  V30 10471 H 987.591 -3.43977 -1.80587 0
M  V30 10472 H 989.263 -4.58116 0.541031 0
M  V30 10473 H 987.506 -4.29937 0.577639 0
M  V30 10474 H 988.177 -5.49381 -0.537048 0
M  V30 10475 H 990.653 -3.85883 -1.5567 0
M  V30 10476 H 989.529 -4.90755 -2.45867 0
M  V30 10477 H 989.79 -3.25448 -2.99226 0
M  V30 10478 N 988.849 0.203349 -1.56283 0
M  V30 10479 C 989.796 1.25205 -1.93888 0
M  V30 10480 C 990.766 1.45654 -0.798376 0
M  V30 10481 O 991.951 1.58924 -1.05583 0
M  V30 10482 C 989.091 2.59355 -2.27659 0
M  V30 10483 C 988.204 2.46553 -3.54733 0
M  V30 10484 C 987.339 3.73351 -3.77865 0
M  V30 10485 C 986.378 3.55347 -4.98392 0
M  V30 10486 N 985.515 4.74137 -5.17821 0
M  V30 10487 H 990.355 0.924356 -2.83301 0
M  V30 10488 H 987.892 0.445082 -1.40205 0
M  V30 10489 H 989.85 3.375 -2.45254 0
M  V30 10490 H 988.48 2.90184 -1.41396 0
M  V30 10491 H 987.532 1.59749 -3.45231 0
M  V30 10492 H 988.844 2.2918 -4.43033 0
M  V30 10493 H 987.998 4.59937 -3.95655 0
M  V30 10494 H 986.737 3.9367 -2.8788 0
M  V30 10495 H 985.742 2.67146 -4.80534 0
M  V30 10496 H 986.967 3.36482 -5.89879 0
M  V30 10497 H 984.913 4.94735 -4.30782 0
M  V30 10498 H 984.83 4.59558 -6.00285 0
M  V30 10499 H 986.098 5.62098 -5.40061 0
M  V30 10500 N 990.327 1.50405 0.470755 0
M  V30 10501 C 991.604 1.51929 1.23195 0
M  V30 10502 C 991.984 0.264159 2.09441 0
M  V30 10503 O 991.332 -0.752395 2.15757 0
M  V30 10504 C 991.542 2.81521 2.06269 0
M  V30 10505 C 992.89 3.32195 2.64446 0
M  V30 10506 O 993.914 2.82845 2.16511 0
M  V30 10507 O 992.773 4.18221 3.51786 0
M  V30 10508 H 989.867 0.609411 0.559059 0
M  V30 10509 H 992.413 1.62695 0.482549 0
M  V30 10510 H 991.185 3.64346 1.42715 0
M  V30 10511 H 990.808 2.7376 2.88342 0
M  V30 10512 N 991.805 -0.723954 1.39988 0
M  V30 10513 C 993.221 -1.03095 1.21834 0
M  V30 10514 C 993.421 -2.01309 0.0876647 0
M  V30 10515 O 992.477 -2.46277 -0.55714 0
M  V30 10516 C 993.79 -1.58267 2.5568 0
M  V30 10517 C 995.338 -1.70293 2.6262 0
M  V30 10518 C 995.813 -2.28872 3.96713 0
M  V30 10519 N 997.304 -2.36269 3.98411 0
M  V30 10520 C 998.039 -2.82557 4.98948 0
M  V30 10521 N 997.535 -3.28661 6.0988 0
M  V30 10522 N 999.328 -2.81866 4.86321 0
M  V30 10523 H 991.479 -0.0727891 2.12275 0
M  V30 10524 H 993.742 -0.0949029 0.943238 0
M  V30 10525 H 993.448 -0.935642 3.39026 0
M  V30 10526 H 993.322 -2.56914 2.76179 0
M  V30 10527 H 995.709 -2.34115 1.7965 0
M  V30 10528 H 995.79 -0.70268 2.45959 0
M  V30 10529 H 995.434 -1.65675 4.80119 0
M  V30 10530 H 995.364 -3.29595 4.107 0
M  V30 10531 H 997.855 -2.03697 3.18302 0
M  V30 10532 H 998.168 -3.62524 6.82493 0
M  V30 10533 H 996.513 -3.26641 6.13458 0
M  V30 10534 H 999.704 -2.45179 3.98754 0
M  V30 10535 H 999.877 -3.17626 5.64817 0
M  V30 10536 N 993.283 -1.25346 -0.955304 0
M  V30 10537 C 994.233 -1.02358 -2.03732 0
M  V30 10538 C 995.217 0.0392941 -1.60852 0
M  V30 10539 O 996.409 -0.175959 -1.76123 0
M  V30 10540 C 993.538 -0.643552 -3.37214 0
M  V30 10541 C 992.624 -1.74315 -3.8662 0
M  V30 10542 N 993.015 -2.97816 -4.08827 0
M  V30 10543 C 991.313 -1.62351 -4.15401 0
M  V30 10544 C 992.014 -3.69185 -4.4953 0
M  V30 10545 N 990.99 -2.96803 -4.55422 0
M  V30 10546 H 994.792 -1.96119 -2.18894 0
M  V30 10547 H 992.306 -1.15655 -1.14007 0
M  V30 10548 H 994.303 -0.460053 -4.14354 0
M  V30 10549 H 992.963 0.286738 -3.23431 0
M  V30 10550 H 993.974 -3.33868 -3.95919 0
M  V30 10551 H 990.651 -0.762133 -4.10485 0
M  V30 10552 H 992.041 -4.7519 -4.7502 0
M  V30 10553 N 994.761 1.15782 -1.06922 0
M  V30 10554 C 995.709 2.22441 -0.679893 0
M  V30 10555 C 996.703 1.66591 0.307221 0
M  V30 10556 O 997.909 1.79182 0.171402 0
M  V30 10557 H 994.284 0.724427 -0.201765 0
M  V30 10558 H 996.255 2.52562 -1.58918 0
M  V30 10559 C 995.004 3.47586 -0.0891142 0
M  V30 10560 H 994.327 3.9088 -0.839805 0
M  V30 10561 H 995.767 4.2375 0.14569 0
M  V30 10562 C 994.226 3.15967 1.16903 0
M  V30 10563 O 994.756 3.32359 2.25611 0
M  V30 10564 N 992.962 2.70046 1.07349 0
M  V30 10565 H 992.509 2.56907 0.188825 0
M  V30 10566 H 992.467 2.49264 1.91611 0
M  V30 10567 N 996.239 0.8527 1.3254 0
M  V30 10568 C 997.487 0.454224 1.96929 0
M  V30 10569 C 997.808 -0.993034 1.67821 0
M  V30 10570 O 997.078 -1.69371 0.984393 0
M  V30 10571 H 995.658 0.164977 0.728554 0
M  V30 10572 H 998.32 1.0887 1.61658 0
M  V30 10573 H 997.416 0.597667 3.06324 0
M  V30 10574 N 997.718 -1.45297 0.610449 0
M  V30 10575 C 998.666 -2.32295 -0.119167 0
M  V30 10576 C 999.66 -1.46138 -0.856746 0
M  V30 10577 O 1000.87 -1.62605 -0.771988 0
M  V30 10578 H 997.241 -0.749815 -0.0572881 0
M  V30 10579 H 999.212 -2.91609 0.63297 0
M  V30 10580 C 997.961 -3.29802 -1.10119 0
M  V30 10581 H 997.284 -3.96095 -0.543063 0
M  V30 10582 H 998.724 -3.93398 -1.58158 0
M  V30 10583 C 997.183 -2.57185 -2.17617 0
M  V30 10584 O 997.713 -2.35535 -3.25401 0
M  V30 10585 N 995.919 -2.17272 -1.9298 0
M  V30 10586 H 995.466 -2.3508 -1.05334 0
M  V30 10587 H 995.424 -1.69009 -2.6511 0
M  V30 10588 N 999.196 -0.349774 -1.5367 0
M  V30 10589 C 1000.44 0.245862 -2.00196 0
M  V30 10590 C 1000.76 1.51154 -1.24144 0
M  V30 10591 O 1001.96 2.18481 -1.61178 0
M  V30 10592 C 1000.42 0.488665 -3.56567 0
M  V30 10593 C 1000.03 -0.761475 -4.41481 0
M  V30 10594 C 1001.77 1.04282 -4.11492 0
M  V30 10595 C 999.679 -0.489128 -5.89374 0
M  V30 10596 H 998.609 0.0956493 -0.747909 0
M  V30 10597 H 1001.26 -0.466068 -1.77483 0
M  V30 10598 H 999.642 1.26145 -3.75371 0
M  V30 10599 H 1000.82 -1.53585 -4.34452 0
M  V30 10600 H 999.131 -1.23771 -3.9758 0
M  V30 10601 H 1001.73 1.26164 -5.19603 0
M  V30 10602 H 1002.07 2.00023 -3.65098 0
M  V30 10603 H 1002.6 0.330582 -3.96424 0
M  V30 10604 H 999.343 -1.41643 -6.40014 0
M  V30 10605 H 998.863 0.247039 -5.99291 0
M  V30 10606 H 1000.54 -0.1087 -6.46909 0
M  V30 10607 N 1000.67 1.57404 -0.0785433 0
M  V30 10608 C 1001.6 2.16131 0.883726 0
M  V30 10609 C 1002.58 1.09015 1.30575 0
M  V30 10610 O 1003.77 1.3708 1.37559 0
M  V30 10611 C 1000.9 2.72836 2.1489 0
M  V30 10612 C 999.854 3.85178 1.86605 0
M  V30 10613 C 999.18 4.28516 3.1981 0
M  V30 10614 C 1000.48 5.09118 1.16601 0
M  V30 10615 H 1002.17 2.9679 0.394484 0
M  V30 10616 H 999.72 1.42763 0.188304 0
M  V30 10617 H 1001.67 3.12567 2.8263 0
M  V30 10618 H 1000.4 1.89408 2.66068 0
M  V30 10619 H 999.056 3.45962 1.21268 0
M  V30 10620 H 998.704 3.42 3.68843 0
M  V30 10621 H 998.404 5.04249 3.01674 0
M  V30 10622 H 999.928 4.70868 3.88737 0
M  V30 10623 H 1001.34 5.46123 1.74422 0
M  V30 10624 H 999.739 5.90173 1.087 0
M  V30 10625 H 1000.81 4.8468 0.146138 0
M  V30 10626 N 1002.15 -0.195058 1.56388 0
M  V30 10627 C 1003.08 -1.24444 1.97575 0
M  V30 10628 C 1004.06 -1.47471 0.847717 0
M  V30 10629 O 1005.25 -1.59208 1.11205 0
M  V30 10630 C 1002.38 -2.58866 2.31529 0
M  V30 10631 C 1001.33 -2.50451 3.47071 0
M  V30 10632 C 1000.66 -3.89146 3.667 0
M  V30 10633 C 1001.96 -2.02953 4.81256 0
M  V30 10634 H 1003.65 -0.902178 2.85484 0
M  V30 10635 H 1001.2 -0.43254 1.3735 0
M  V30 10636 H 1003.15 -3.3246 2.58936 0
M  V30 10637 H 1001.87 -2.94833 1.40502 0
M  V30 10638 H 1000.53 -1.79313 3.19754 0
M  V30 10639 H 1000.18 -4.22466 2.73004 0
M  V30 10640 H 999.882 -3.84391 4.44429 0
M  V30 10641 H 1001.41 -4.64363 3.96484 0
M  V30 10642 H 1002.82 -2.66306 5.07695 0
M  V30 10643 H 1001.22 -2.092 5.62455 0
M  V30 10644 H 1002.29 -0.982757 4.74837 0
M  V30 10645 N 1003.63 -1.50653 -0.462772 0
M  V30 10646 C 1004.91 -1.5258 -1.22387 0
M  V30 10647 C 1005.29 -0.275263 -2.09298 0
M  V30 10648 O 1004.63 0.740943 -2.16153 0
M  V30 10649 C 1004.84 -2.82611 -2.04773 0
M  V30 10650 C 1006.19 -3.33592 -2.62681 0
M  V30 10651 O 1007.22 -2.83989 -2.15008 0
M  V30 10652 O 1006.08 -4.20081 -3.49563 0
M  V30 10653 H 1003.17 -0.612367 -0.55582 0
M  V30 10654 H 1005.72 -1.62948 -0.473914 0
M  V30 10655 H 1004.49 -3.65098 -1.40781 0
M  V30 10656 H 1004.11 -2.75286 -2.86886 0
M  V30 10657 N 1005.11 0.71652 -1.4037 0
M  V30 10658 C 1006.07 1.81231 -1.40313 0
M  V30 10659 C 1007.07 1.58032 -0.297087 0
M  V30 10660 O 1008.26 1.65091 -0.555944 0
M  V30 10661 C 1005.39 3.19308 -1.19395 0
M  V30 10662 H 1006.59 1.8268 -2.3784 0
M  V30 10663 H 1004.14 0.922062 -1.26205 0
M  V30 10664 H 1004.87 3.2351 -0.226252 0
M  V30 10665 H 1004.66 3.37546 -1.99512 0
M  V30 10666 H 1006.15 3.99339 -1.22141 0
M  V30 10667 N 1006.59 1.25851 0.948643 0
M  V30 10668 C 1007.5 1.08516 2.07994 0
M  V30 10669 C 1008.51 0.0206696 1.73988 0
M  V30 10670 O 1009.69 0.222854 2.00163 0
M  V30 10671 C 1006.75 0.712145 3.39307 0
M  V30 10672 C 1005.81 1.85523 3.87143 0
M  V30 10673 C 1005.05 1.49992 5.1219 0
M  V30 10674 O 1005.27 0.398268 5.69008 0
M  V30 10675 O 1004.2 2.33215 5.54882 0
M  V30 10676 H 1008.03 2.03405 2.25522 0
M  V30 10677 H 1005.62 1.04844 1.06433 0
M  V30 10678 H 1007.5 0.516512 4.18223 0
M  V30 10679 H 1006.17 -0.207416 3.23035 0
M  V30 10680 H 1005.08 2.10578 3.09205 0
M  V30 10681 H 1006.41 2.75425 4.07924 0
M  V30 10682 N 1008.06 -1.15214 1.07534 0
M  V30 10683 C 1009.31 -1.85676 0.79805 0
M  V30 10684 C 1009.63 -1.82837 -0.677919 0
M  V30 10685 O 1008.9 -1.27059 -1.49107 0
M  V30 10686 H 1007.48 -0.687468 0.292227 0
M  V30 10687 H 1010.15 -1.39658 1.35947 0
M  V30 10688 H 1009.24 -2.9076 1.13423 0
M  V30 10689 N 1009.54 -0.859717 -1.32086 0
M  V30 10690 C 1010.49 -0.279715 -2.26278 0
M  V30 10691 C 1011.48 0.577348 -1.50185 0
M  V30 10692 O 1012.67 0.425903 -1.71799 0
M  V30 10693 C 1009.8 0.526622 -3.39237 0
M  V30 10694 C 1008.88 -0.343112 -4.2271 0
M  V30 10695 N 1009.27 -1.43176 -4.85113 0
M  V30 10696 C 1007.57 -0.133744 -4.45799 0
M  V30 10697 C 1008.27 -1.96725 -5.47425 0
M  V30 10698 N 1007.25 -1.26569 -5.2866 0
M  V30 10699 H 1011.05 -1.11191 -2.72055 0
M  V30 10700 H 1008.57 -0.706372 -1.46233 0
M  V30 10701 H 1010.56 0.958587 -4.0573 0
M  V30 10702 H 1009.22 1.35655 -2.95005 0
M  V30 10703 H 1010.23 -1.81469 -4.85066 0
M  V30 10704 H 1006.91 0.661064 -4.12233 0
M  V30 10705 H 1008.3 -2.88006 -6.07044 0
M  V30 10706 N 1011.02 1.44971 -0.618145 0
M  V30 10707 C 1012.27 2.01372 -0.115004 0
M  V30 10708 C 1012.58 1.49104 1.26599 0
M  V30 10709 O 1013.79 1.97549 1.86244 0
M  V30 10710 C 1012.24 3.59567 -0.154883 0
M  V30 10711 C 1011.85 4.20832 -1.53639 0
M  V30 10712 C 1013.6 4.23491 0.292468 0
M  V30 10713 C 1011.5 5.7121 -1.53208 0
M  V30 10714 H 1010.43 0.752979 -0.0392267 0
M  V30 10715 H 1013.08 1.66329 -0.775032 0
M  V30 10716 H 1011.47 3.91847 0.572001 0
M  V30 10717 H 1012.64 4.00109 -2.28582 0
M  V30 10718 H 1010.96 3.69143 -1.92672 0
M  V30 10719 H 1013.55 5.33771 0.315032 0
M  V30 10720 H 1013.9 3.9491 1.31725 0
M  V30 10721 H 1014.43 3.95967 -0.381493 0
M  V30 10722 H 1011.17 6.04506 -2.53481 0
M  V30 10723 H 1010.69 5.94094 -0.825387 0
M  V30 10724 H 1012.37 6.34606 -1.26032 0
M  V30 10725 N 1012.5 0.357919 1.53482 0
M  V30 10726 C 1013.75 -0.235241 2.00324 0
M  V30 10727 C 1014.06 -1.50494 1.24944 0
M  V30 10728 O 1015.27 -2.17623 1.62335 0
M  V30 10729 C 1013.72 -0.469748 3.56821 0
M  V30 10730 C 1013.33 0.784877 4.41071 0
M  V30 10731 C 1015.07 -1.02098 4.12039 0
M  V30 10732 C 1012.98 0.520377 5.89106 0
M  V30 10733 H 1011.91 -0.0916816 0.748405 0
M  V30 10734 H 1014.56 0.475474 1.77233 0
M  V30 10735 H 1012.94 -1.24153 3.76035 0
M  V30 10736 H 1014.12 1.55886 4.33631 0
M  V30 10737 H 1012.43 1.25878 3.96918 0
M  V30 10738 H 1015.03 -1.23406 5.20264 0
M  V30 10739 H 1015.37 -1.98084 3.66154 0
M  V30 10740 H 1015.91 -0.309554 3.96594 0
M  V30 10741 H 1012.65 1.45035 6.39254 0
M  V30 10742 H 1012.17 -0.215254 5.99414 0
M  V30 10743 H 1013.84 0.143006 6.46842 0
M  V30 10744 N 1013.98 -1.5736 0.0868897 0
M  V30 10745 C 1014.93 -2.10105 -0.885435 0
M  V30 10746 C 1015.91 -1.01417 -1.24913 0
M  V30 10747 O 1017.1 -1.27704 -1.22558 0
M  V30 10748 C 1014.23 -2.67837 -2.14752 0
M  V30 10749 C 1013.32 -3.83553 -1.80963 0
M  V30 10750 N 1013.71 -4.91917 -1.17693 0
M  V30 10751 C 1012.01 -3.93134 -2.10622 0
M  V30 10752 C 1012.71 -5.72628 -1.02332 0
M  V30 10753 N 1011.68 -5.2139 -1.53796 0
M  V30 10754 H 1015.49 -2.91272 -0.392179 0
M  V30 10755 H 1013 -1.61981 -0.116566 0
M  V30 10756 H 1015 -3.03948 -2.85344 0
M  V30 10757 H 1013.66 -1.88122 -2.64651 0
M  V30 10758 H 1014.67 -5.10964 -0.844731 0
M  V30 10759 H 1011.34 -3.24416 -2.62793 0
M  V30 10760 H 1012.73 -6.69813 -0.529171 0
M  V30 10761 N 1015.45 0.186762 -1.56489 0
M  V30 10762 C 1016.7 0.904077 -1.80303 0
M  V30 10763 C 1017.02 1.84073 -0.661538 0
M  V30 10764 O 1018.22 2.59928 -0.784197 0
M  V30 10765 C 1016.68 1.65806 -3.19432 0
M  V30 10766 C 1016.29 0.765807 -4.41406 0
M  V30 10767 C 1018.03 2.36451 -3.52549 0
M  V30 10768 C 1015.94 1.51913 -5.71556 0
M  V30 10769 H 1014.87 0.34133 -0.672317 0
M  V30 10770 H 1017.52 0.157218 -1.82825 0
M  V30 10771 H 1015.9 2.44911 -3.11183 0
M  V30 10772 H 1017.07 0.0128225 -4.60798 0
M  V30 10773 H 1015.39 0.169772 -4.16054 0
M  V30 10774 H 1017.99 2.93378 -4.47027 0
M  V30 10775 H 1018.33 3.11044 -2.7669 0
M  V30 10776 H 1018.86 1.64305 -3.62283 0
M  V30 10777 H 1015.6 0.815829 -6.50403 0
M  V30 10778 H 1015.12 2.24583 -5.56168 0
M  V30 10779 H 1016.8 2.07073 -6.12968 0
M  V30 10780 N 1016.93 1.50896 0.454776 0
M  V30 10781 C 1018.21 1.53227 1.21576 0
M  V30 10782 C 1018.59 0.286358 2.09149 0
M  V30 10783 O 1017.94 -0.729469 2.16543 0
M  V30 10784 C 1018.15 2.83693 2.03271 0
M  V30 10785 C 1019.5 3.34981 2.60908 0
M  V30 10786 O 1020.52 2.85126 2.13499 0
M  V30 10787 O 1019.38 4.21929 3.4733 0
M  V30 10788 H 1016.47 0.615306 0.552564 0
M  V30 10789 H 1019.02 1.63197 0.465266 0
M  V30 10790 H 1017.79 3.65839 1.38843 0
M  V30 10791 H 1017.41 2.76803 2.85422 0
M  V30 10792 N 1018.41 -0.709066 1.40748 0
M  V30 10793 C 1019.66 -1.46901 1.39378 0
M  V30 10794 C 1019.99 -1.945 -0.0016993 0
M  V30 10795 O 1019.24 -1.68963 -0.987426 0
M  V30 10796 C 1019.54 -2.70543 2.33541 0
M  V30 10797 C 1019.21 -2.41674 3.80663 0
M  V30 10798 C 1017.87 -2.33511 4.20745 0
M  V30 10799 C 1020.22 -2.1759 4.73607 0
M  V30 10800 C 1017.55 -1.99342 5.51797 0
M  V30 10801 C 1019.9 -1.84933 6.04965 0
M  V30 10802 C 1018.56 -1.75256 6.44082 0
M  V30 10803 H 1017.83 -0.537549 0.510021 0
M  V30 10804 H 1020.48 -0.811635 1.7345 0
M  V30 10805 H 1018.79 -3.41149 1.92677 0
M  V30 10806 H 1020.48 -3.2865 2.29761 0
M  V30 10807 H 1017.07 -2.48917 3.4891 0
M  V30 10808 H 1021.26 -2.22849 4.43454 0
M  V30 10809 H 1016.51 -1.90392 5.81 0
M  V30 10810 H 1020.69 -1.65313 6.76494 0
M  V30 10811 H 1018.31 -1.48547 7.45545 0
M  V30 10812 N 1019.89 -1.26353 -0.941956 0
M  V30 10813 C 1021.14 -1.1163 -1.68473 0
M  V30 10814 C 1021.46 0.34108 -1.91994 0
M  V30 10815 O 1020.73 1.24065 -1.51607 0
M  V30 10816 H 1019.31 -0.410113 -0.624353 0
M  V30 10817 H 1021.97 -1.58669 -1.13182 0
M  V30 10818 H 1021.07 -1.63445 -2.6588 0
M  V30 10819 N 1021.37 1.14642 -1.08144 0
M  V30 10820 C 1022.61 1.85617 -0.809484 0
M  V30 10821 C 1022.94 1.8279 0.664672 0
M  V30 10822 O 1022.2 1.25178 1.50429 0
M  V30 10823 C 1022.5 3.33953 -1.2732 0
M  V30 10824 C 1022.16 3.56969 -2.7547 0
M  V30 10825 C 1020.82 3.6296 -3.15933 0
M  V30 10826 C 1023.18 3.66014 -3.71057 0
M  V30 10827 C 1020.5 3.75515 -4.50783 0
M  V30 10828 C 1022.86 3.80094 -5.05679 0
M  V30 10829 C 1021.52 3.84333 -5.45751 0
M  V30 10830 H 1020.79 0.67922 -0.296211 0
M  V30 10831 H 1023.44 1.35433 -1.35389 0
M  V30 10832 H 1021.74 3.86399 -0.648329 0
M  V30 10833 H 1023.44 3.87291 -1.03957 0
M  V30 10834 H 1020.03 3.52953 -2.4315 0
M  V30 10835 H 1024.21 3.60679 -3.40917 0
M  V30 10836 H 1019.47 3.77057 -4.81288 0
M  V30 10837 H 1023.64 3.86035 -5.79612 0
M  V30 10838 H 1021.27 3.93814 -6.50242 0
M  V30 10839 N 1022.85 0.866709 1.31628 0
M  V30 10840 C 1024.09 0.472185 1.96095 0
M  V30 10841 C 1024.41 -0.979873 1.69286 0
M  V30 10842 O 1025.61 -1.48039 2.27589 0
M  V30 10843 C 1024.07 0.793468 3.51044 0
M  V30 10844 C 1023.68 2.26206 3.86697 0
M  V30 10845 C 1025.42 0.467255 4.21921 0
M  V30 10846 C 1023.33 2.52593 5.34743 0
M  V30 10847 H 1022.26 0.172846 0.733921 0
M  V30 10848 H 1024.91 1.05916 1.49847 0
M  V30 10849 H 1023.29 0.135783 3.95767 0
M  V30 10850 H 1024.47 2.96254 3.52945 0
M  V30 10851 H 1022.78 2.55399 3.28877 0
M  V30 10852 H 1025.38 0.641669 5.30836 0
M  V30 10853 H 1025.72 -0.592065 4.12068 0
M  V30 10854 H 1026.25 1.08134 3.82821 0
M  V30 10855 H 1022.99 3.57196 5.49628 0
M  V30 10856 H 1022.51 1.87136 5.6986 0
M  V30 10857 H 1024.19 2.37156 6.01968 0
M  V30 10858 N 1024.32 -1.44642 0.625825 0
M  V30 10859 C 1025.25 -2.33397 -0.0692188 0
M  V30 10860 C 1026.23 -1.47898 -0.840241 0
M  V30 10861 O 1027.42 -1.7663 -0.807176 0
M  V30 10862 C 1024.55 -3.30888 -1.055 0
M  V30 10863 C 1023.5 -4.26164 -0.395968 0
M  V30 10864 C 1022.83 -5.13483 -1.49128 0
M  V30 10865 C 1024.13 -5.17663 0.694433 0
M  V30 10866 H 1025.82 -2.91763 0.671925 0
M  V30 10867 H 1023.37 -1.40294 0.324573 0
M  V30 10868 H 1025.32 -3.91861 -1.54993 0
M  V30 10869 H 1024.05 -2.7072 -1.82696 0
M  V30 10870 H 1022.71 -3.66516 0.0782691 0
M  V30 10871 H 1022.35 -4.49672 -2.25399 0
M  V30 10872 H 1022.05 -5.78038 -1.05573 0
M  V30 10873 H 1023.58 -5.77327 -1.98813 0
M  V30 10874 H 1024.99 -5.72602 0.282818 0
M  V30 10875 H 1023.39 -5.90793 1.05281 0
M  V30 10876 H 1024.46 -4.58994 1.56372 0
M  V30 10877 N 1025.8 -0.366053 -1.5329 0
M  V30 10878 C 1027.03 0.226839 -2.06156 0
M  V30 10879 C 1027.45 1.41637 -1.23776 0
M  V30 10880 O 1026.81 1.7947 -0.256948 0
M  V30 10881 C 1026.86 0.597956 -3.55608 0
M  V30 10882 O 1025.96 1.69512 -3.75951 0
M  V30 10883 H 1025.3 0.0329156 -0.663184 0
M  V30 10884 H 1027.83 -0.526793 -1.97702 0
M  V30 10885 H 1027.84 0.868831 -3.98642 0
M  V30 10886 H 1026.52 -0.271838 -4.15011 0
M  V30 10887 H 1025.09 1.41976 -3.44815 0
M  V30 10888 N 1027.28 1.57312 -0.0952337 0
M  V30 10889 C 1028.5 1.99119 0.580206 0
M  V30 10890 C 1028.93 0.973955 1.60922 0
M  V30 10891 O 1028.29 -0.0575338 1.81209 0
M  V30 10892 C 1028.34 3.39893 1.20438 0
M  V30 10893 O 1027.44 3.40941 2.32019 0
M  V30 10894 H 1026.78 0.64748 0.147195 0
M  V30 10895 H 1029.31 2.03836 -0.176686 0
M  V30 10896 H 1029.32 3.7759 1.54564 0
M  V30 10897 H 1028 4.13453 0.450514 0
M  V30 10898 H 1026.57 3.1504 1.9951 0
M  V30 10899 N 1028.76 -0.17846 1.56586 0
M  V30 10900 C 1029.98 -0.916061 1.86073 0
M  V30 10901 C 1030.41 -1.75349 0.680754 0
M  V30 10902 O 1029.77 -1.77479 -0.37028 0
M  V30 10903 C 1029.81 -1.77445 3.1392 0
M  V30 10904 O 1028.92 -2.87524 2.95641 0
M  V30 10905 H 1028.26 -0.257031 0.612234 0
M  V30 10906 H 1030.79 -0.178755 2.03818 0
M  V30 10907 H 1030.8 -2.1758 3.45142 0
M  V30 10908 H 1029.47 -1.15927 3.99417 0
M  V30 10909 H 1028.05 -2.51023 2.75757 0
M  V30 10910 N 1030.24 -1.51135 -0.446768 0
M  V30 10911 C 1031.65 -1.55919 -1.02694 0
M  V30 10912 C 1032 -0.377038 -1.92543 0
M  V30 10913 O 1031.12 0.507295 -2.1037 0
M  V30 10914 C 1031.72 -2.8257 -1.86922 0
M  V30 10915 C 1030.28 -2.89956 -2.40005 0
M  V30 10916 C 1029.42 -2.50482 -1.18971 0
M  V30 10917 H 1032.37 -1.57048 -0.228403 0
M  V30 10918 H 1032.4 -2.65799 -2.7227 0
M  V30 10919 H 1031.91 -3.6859 -1.21502 0
M  V30 10920 H 1030.01 -2.08343 -3.08907 0
M  V30 10921 H 1030.12 -3.93399 -2.73448 0
M  V30 10922 H 1028.49 -2.03466 -1.53211 0
M  V30 10923 H 1029.27 -3.38837 -0.551762 0
M  V30 10924 N 1031.71 0.701592 -1.41122 0
M  V30 10925 C 1033.13 1.01143 -1.23459 0
M  V30 10926 C 1033.33 2.01144 -0.11968 0
M  V30 10927 O 1032.39 2.47132 0.517889 0
M  V30 10928 C 1033.7 1.54179 -2.58165 0
M  V30 10929 C 1035.25 1.66093 -2.65296 0
M  V30 10930 C 1035.72 2.22532 -4.00304 0
M  V30 10931 N 1037.21 2.299 -4.0212 0
M  V30 10932 C 1037.95 2.74584 -5.0338 0
M  V30 10933 N 1037.44 3.18917 -6.15032 0
M  V30 10934 N 1039.24 2.74094 -4.90743 0
M  V30 10935 H 1031.39 0.0390087 -2.12364 0
M  V30 10936 H 1033.65 0.0798848 -0.944628 0
M  V30 10937 H 1033.36 0.881587 -3.40472 0
M  V30 10938 H 1033.23 2.52488 -2.80231 0
M  V30 10939 H 1035.62 2.31227 -1.83352 0
M  V30 10940 H 1035.7 0.663461 -2.47046 0
M  V30 10941 H 1035.34 1.58016 -4.82694 0
M  V30 10942 H 1035.27 3.2302 -4.15891 0
M  V30 10943 H 1037.76 1.98607 -3.21502 0
M  V30 10944 H 1038.08 3.5162 -6.88174 0
M  V30 10945 H 1036.42 3.1684 -6.18577 0
M  V30 10946 H 1039.61 2.38804 -4.02604 0
M  V30 10947 H 1039.79 3.086 -5.69798 0
M  V30 10948 N 1033.19 1.2685 0.935242 0
M  V30 10949 C 1034.14 1.08746 2.05614 0
M  V30 10950 C 1035.13 0.012681 1.69395 0
M  V30 10951 O 1036.34 0.169822 1.79197 0
M  V30 10952 H 1032.71 0.33485 0.673335 0
M  V30 10953 H 1034.69 2.03725 2.18033 0
M  V30 10954 C 1033.43 0.74346 3.39659 0
M  V30 10955 H 1032.76 1.56236 3.68008 0
M  V30 10956 H 1034.2 0.656607 4.18885 0
M  V30 10957 C 1032.66 -0.551751 3.32351 0
M  V30 10958 O 1033.19 -1.58836 3.68963 0
M  V30 10959 N 1031.39 -0.544583 2.85452 0
M  V30 10960 H 1030.94 0.29939 2.55854 0
M  V30 10961 H 1030.9 -1.41129 2.80945 0
M  V30 10962 N 1034.67 -1.14067 1.0875 0
M  V30 10963 C 1035.6 -2.21385 0.74236 0
M  V30 10964 C 1036.58 -1.67833 -0.276805 0
M  V30 10965 O 1037.77 -1.93647 -0.1464 0
M  V30 10966 C 1034.9 -3.46956 0.154644 0
M  V30 10967 C 1033.85 -4.13555 1.10255 0
M  V30 10968 C 1033.18 -5.3337 0.376877 0
M  V30 10969 C 1034.48 -4.6169 2.44213 0
M  V30 10970 H 1036.17 -2.50512 1.63964 0
M  V30 10971 H 1033.72 -1.20408 0.789807 0
M  V30 10972 H 1035.67 -4.21284 -0.0988419 0
M  V30 10973 H 1034.39 -3.17203 -0.777789 0
M  V30 10974 H 1033.05 -3.41186 1.34119 0
M  V30 10975 H 1032.7 -4.99879 -0.559472 0
M  V30 10976 H 1032.4 -5.78875 1.00884 0
M  V30 10977 H 1033.92 -6.10458 0.131527 0
M  V30 10978 H 1035.34 -5.27475 2.24595 0
M  V30 10979 H 1033.74 -5.17909 3.03134 0
M  V30 10980 H 1034.81 -3.76574 3.05483 0
M  V30 10981 N 1036.15 -0.873678 -1.31166 0
M  V30 10982 C 1037.4 -0.485497 -1.96182 0
M  V30 10983 C 1037.72 0.96621 -1.69379 0
M  V30 10984 O 1036.99 1.67783 -1.01121 0
M  V30 10985 H 1035.57 -0.176547 -0.725838 0
M  V30 10986 H 1038.23 -1.11428 -1.59906 0
M  V30 10987 H 1037.33 -0.646325 -3.05334 0
M  V30 10988 N 1037.63 1.44308 -0.633487 0
M  V30 10989 C 1038.87 2.02023 -0.138917 0
M  V30 10990 C 1039.2 1.49841 1.24008 0
M  V30 10991 O 1038.46 0.673718 1.83738 0
M  V30 10992 C 1038.76 3.57316 -0.0773886 0
M  V30 10993 C 1038.42 4.28762 -1.39548 0
M  V30 10994 C 1037.08 4.47997 -1.75648 0
M  V30 10995 C 1039.44 4.69391 -2.26542 0
M  V30 10996 C 1036.76 5.05121 -2.98445 0
M  V30 10997 C 1039.12 5.27876 -3.48612 0
M  V30 10998 C 1037.78 5.45329 -3.84932 0
M  V30 10999 H 1037.05 0.739254 -0.0508333 0
M  V30 11000 H 1039.7 1.73043 -0.820271 0
M  V30 11001 H 1038 3.85724 0.687345 0
M  V30 11002 H 1039.7 3.99706 0.321837 0
M  V30 11003 H 1036.29 4.14122 -1.10456 0
M  V30 11004 H 1040.47 4.54241 -1.99946 0
M  V30 11005 H 1035.73 5.16821 -3.26658 0
M  V30 11006 H 1039.9 5.58307 -4.16253 0
M  V30 11007 H 1037.53 5.8936 -4.80166 0
M  V30 11008 N 1039.1 0.374177 1.53094 0
M  V30 11009 C 1040.01 -0.475935 2.29722 0
M  V30 11010 C 1041.03 -1.085 1.36029 0
M  V30 11011 O 1042.21 -1.09408 1.69091 0
M  V30 11012 C 1039.27 -1.59572 3.07795 0
M  V30 11013 C 1038.33 -1.01332 4.17169 0
M  V30 11014 C 1037.57 -2.07975 4.9151 0
M  V30 11015 O 1037.79 -3.29232 4.65793 0
M  V30 11016 O 1036.72 -1.7055 5.77232 0
M  V30 11017 H 1040.55 0.147877 3.0334 0
M  V30 11018 H 1038.13 0.138312 1.48758 0
M  V30 11019 H 1040.02 -2.24658 3.5652 0
M  V30 11020 H 1038.69 -2.20478 2.37005 0
M  V30 11021 H 1037.6 -0.326133 3.72676 0
M  V30 11022 H 1038.93 -0.4487 4.90151 0
M  V30 11023 N 1040.58 -1.57259 0.103575 0
M  V30 11024 C 1041.81 -1.99 -0.566275 0
M  V30 11025 C 1042.23 -0.982909 -1.61197 0
M  V30 11026 O 1041.58 0.026345 -1.82481 0
M  V30 11027 C 1041.63 -3.40778 -1.20635 0
M  V30 11028 O 1041.35 -4.37632 -0.202472 0
M  V30 11029 C 1042.86 -3.97567 -1.961 0
M  V30 11030 H 1040.08 -0.653751 -0.151164 0
M  V30 11031 H 1042.62 -2.03658 0.185365 0
M  V30 11032 H 1040.77 -3.37107 -1.90886 0
M  V30 11033 H 1041.19 -5.2026 -0.665535 0
M  V30 11034 H 1042.66 -4.98897 -2.36233 0
M  V30 11035 H 1043.14 -3.35853 -2.83018 0
M  V30 11036 H 1043.75 -4.04737 -1.30645 0
M  V30 11037 N 1042.06 0.170153 -1.56679 0
M  V30 11038 C 1043.29 0.90618 -1.86556 0
M  V30 11039 C 1043.71 1.74986 -0.690044 0
M  V30 11040 O 1043.07 1.77672 0.360862 0
M  V30 11041 C 1043.12 1.75777 -3.14857 0
M  V30 11042 O 1042.22 2.85952 -2.97162 0
M  V30 11043 H 1041.56 0.253781 -0.613589 0
M  V30 11044 H 1044.09 0.167943 -2.0391 0
M  V30 11045 H 1044.1 2.15747 -3.46291 0
M  V30 11046 H 1042.78 1.13807 -4.00026 0
M  V30 11047 H 1041.35 2.49557 -2.77084 0
M  V30 11048 N 1043.54 1.5137 0.438746 0
M  V30 11049 C 1044.5 1.71993 1.51496 0
M  V30 11050 C 1045.5 0.589978 1.49586 0
M  V30 11051 O 1046.69 0.857505 1.51633 0
M  V30 11052 C 1043.82 1.77508 2.91039 0
M  V30 11053 H 1045.02 2.68041 1.34514 0
M  V30 11054 H 1042.57 1.41338 0.667326 0
M  V30 11055 H 1043.3 0.832698 3.13427 0
M  V30 11056 H 1043.09 2.59627 2.9383 0
M  V30 11057 H 1044.58 1.95308 3.69113 0
M  V30 11058 N 1045.02 -0.694098 1.41492 0
M  V30 11059 C 1046.26 -1.45415 1.40929 0
M  V30 11060 C 1046.59 -1.94491 0.0189301 0
M  V30 11061 O 1045.85 -1.7 -0.96945 0
M  V30 11062 C 1046.15 -2.6805 2.36398 0
M  V30 11063 C 1045.81 -2.37623 3.83205 0
M  V30 11064 C 1044.47 -2.29035 4.23198 0
M  V30 11065 C 1046.83 -2.12555 4.75888 0
M  V30 11066 C 1044.15 -1.93478 5.5388 0
M  V30 11067 C 1046.51 -1.78506 6.06892 0
M  V30 11068 C 1045.17 -1.68415 6.45905 0
M  V30 11069 H 1044.44 -0.53211 0.515694 0
M  V30 11070 H 1047.09 -0.793193 1.74301 0
M  V30 11071 H 1045.39 -3.39086 1.96285 0
M  V30 11072 H 1047.09 -3.26194 2.33234 0
M  V30 11073 H 1043.68 -2.45202 3.51531 0
M  V30 11074 H 1047.86 -2.18133 4.45793 0
M  V30 11075 H 1043.12 -1.84219 5.82986 0
M  V30 11076 H 1047.29 -1.58128 6.7821 0
M  V30 11077 H 1044.92 -1.40631 7.47079 0
M  V30 11078 N 1046.49 -1.27344 -0.928501 0
M  V30 11079 C 1047.44 -1.10001 -2.029 0
M  V30 11080 C 1048.41 -0.00131084 -1.661 0
M  V30 11081 O 1049.6 -0.163485 -1.90098 0
M  V30 11082 C 1046.74 -0.7524 -3.36798 0
M  V30 11083 C 1045.85 -1.92865 -3.86558 0
M  V30 11084 C 1044.98 -1.52299 -5.08899 0
M  V30 11085 C 1044.02 -2.66677 -5.50953 0
M  V30 11086 N 1043.16 -2.26706 -6.64491 0
M  V30 11087 H 1048 -2.0417 -2.17068 0
M  V30 11088 H 1045.54 -1.01637 -1.0634 0
M  V30 11089 H 1047.5 -0.531687 -4.13798 0
M  V30 11090 H 1046.13 0.15234 -3.2244 0
M  V30 11091 H 1045.18 -2.26192 -3.05845 0
M  V30 11092 H 1046.49 -2.78668 -4.13698 0
M  V30 11093 H 1045.64 -1.26348 -5.93398 0
M  V30 11094 H 1044.38 -0.636042 -4.83535 0
M  V30 11095 H 1043.39 -2.93344 -4.65004 0
M  V30 11096 H 1044.61 -3.55992 -5.78313 0
M  V30 11097 H 1042.56 -1.40462 -6.40786 0
M  V30 11098 H 1042.48 -3.06049 -6.91281 0
M  V30 11099 H 1043.74 -2.04 -7.52333 0
M  V30 11100 N 1047.97 1.13488 -1.09353 0
M  V30 11101 C 1048.9 2.20988 -0.75409 0
M  V30 11102 C 1049.88 1.67977 0.267901 0
M  V30 11103 O 1051.07 1.93722 0.136128 0
M  V30 11104 C 1048.2 3.46869 -0.173042 0
M  V30 11105 C 1047.15 4.12965 -1.12446 0
M  V30 11106 C 1046.48 5.33163 -0.405157 0
M  V30 11107 C 1047.78 4.60388 -2.46658 0
M  V30 11108 H 1049.47 2.49639 -1.6529 0
M  V30 11109 H 1047.02 1.19987 -0.796182 0
M  V30 11110 H 1048.97 4.21331 0.0764988 0
M  V30 11111 H 1047.7 3.17611 0.760956 0
M  V30 11112 H 1046.35 3.40469 -1.35927 0
M  V30 11113 H 1046 5.00169 0.532955 0
M  V30 11114 H 1045.7 5.78332 -1.03952 0
M  V30 11115 H 1047.23 6.1038 -0.163899 0
M  V30 11116 H 1048.64 5.26276 -2.27389 0
M  V30 11117 H 1047.04 5.16294 -3.05876 0
M  V30 11118 H 1048.11 3.74949 -3.07476 0
M  V30 11119 N 1049.45 0.880621 1.30701 0
M  V30 11120 C 1050.68 0.511682 2.00473 0
M  V30 11121 C 1051.09 -0.898684 1.6604 0
M  V30 11122 O 1050.45 -1.59035 0.895218 0
M  V30 11123 C 1050.5 0.671723 3.55204 0
M  V30 11124 O 1050.22 2.02656 3.8841 0
M  V30 11125 C 1051.72 0.3052 4.42248 0
M  V30 11126 H 1048.94 0.198231 0.64105 0
M  V30 11127 H 1051.49 1.18472 1.66687 0
M  V30 11128 H 1049.64 0.0461066 3.87373 0
M  V30 11129 H 1050.06 2.04202 4.83117 0
M  V30 11130 H 1051.53 0.468095 5.50012 0
M  V30 11131 H 1052.01 -0.756456 4.32637 0
M  V30 11132 H 1052.61 0.906959 4.15517 0
M  V30 11133 N 1050.93 -1.4397 0.641131 0
M  V30 11134 C 1052.16 -2.06303 0.157006 0
M  V30 11135 C 1052.57 -1.47981 -1.17248 0
M  V30 11136 O 1051.93 -0.606471 -1.72128 0
M  V30 11137 C 1051.98 -3.6147 0.0468425 0
M  V30 11138 O 1051.7 -4.17622 1.32376 0
M  V30 11139 C 1053.2 -4.40857 -0.464795 0
M  V30 11140 H 1050.42 -0.665684 0.0842946 0
M  V30 11141 H 1052.97 -1.84675 0.878363 0
M  V30 11142 H 1051.12 -3.82325 -0.625006 0
M  V30 11143 H 1051.54 -5.11167 1.17509 0
M  V30 11144 H 1053.01 -5.49813 -0.490862 0
M  V30 11145 H 1053.49 -4.13016 -1.4938 0
M  V30 11146 H 1054.09 -4.24943 0.174146 0
M  V30 11147 N 1052.41 -0.382291 -1.52893 0
M  V30 11148 C 1053.32 0.463745 -2.29971 0
M  V30 11149 C 1054.33 1.07777 -1.36602 0
M  V30 11150 O 1055.51 1.0851 -1.69669 0
M  V30 11151 C 1052.57 1.57938 -3.08637 0
M  V30 11152 C 1051.64 0.991182 -4.17701 0
M  V30 11153 C 1050.87 2.05365 -4.92606 0
M  V30 11154 O 1051.09 3.26757 -4.67532 0
M  V30 11155 O 1050.03 1.67487 -5.78128 0
M  V30 11156 H 1053.85 -0.163962 -3.03257 0
M  V30 11157 H 1051.44 -0.146199 -1.48683 0
M  V30 11158 H 1053.32 2.22765 -3.57706 0
M  V30 11159 H 1051.99 2.19218 -2.3817 0
M  V30 11160 H 1050.9 0.306364 -3.72843 0
M  V30 11161 H 1052.23 0.422699 -4.90382 0
M  V30 11162 N 1053.89 1.57202 -0.111913 0
M  V30 11163 C 1055.13 1.9495 0.547795 0
M  V30 11164 C 1055.46 0.994763 1.67137 0
M  V30 11165 O 1054.72 0.0173528 1.95692 0
M  V30 11166 C 1055.01 3.39152 1.12741 0
M  V30 11167 C 1054.68 4.50724 0.125916 0
M  V30 11168 C 1053.34 4.80968 -0.149489 0
M  V30 11169 C 1055.69 5.18215 -0.556987 0
M  V30 11170 C 1053.02 5.76023 -1.1142 0
M  V30 11171 C 1055.37 6.14307 -1.51029 0
M  V30 11172 C 1054.04 6.42947 -1.79375 0
M  V30 11173 H 1053.31 0.713372 0.200453 0
M  V30 11174 H 1055.96 1.90542 -0.191316 0
M  V30 11175 H 1054.26 3.4022 1.94313 0
M  V30 11176 H 1055.96 3.65668 1.64584 0
M  V30 11177 H 1052.55 4.27162 0.350756 0
M  V30 11178 H 1056.73 4.95012 -0.357378 0
M  V30 11179 H 1051.99 5.9652 -1.34064 0
M  V30 11180 H 1056.16 6.65692 -2.04516 0
M  V30 11181 H 1053.79 7.1641 -2.54284 0
M  V30 11182 N 1055.36 -0.161842 1.56767 0
M  V30 11183 C 1056.61 -0.878224 1.82798 0
M  V30 11184 C 1056.94 -1.81481 0.691242 0
M  V30 11185 O 1056.22 -1.92075 -0.30618 0
M  V30 11186 C 1056.5 -1.66565 3.19262 0
M  V30 11187 C 1056.35 -0.751551 4.43477 0
M  V30 11188 C 1057.67 -2.63134 3.52773 0
M  V30 11189 H 1054.79 -0.317828 0.664947 0
M  V30 11190 H 1057.43 -0.14402 1.89453 0
M  V30 11191 H 1055.58 -2.29157 3.13719 0
M  V30 11192 H 1057.26 -0.137783 4.61094 0
M  V30 11193 H 1055.5 -0.0601785 4.33758 0
M  V30 11194 H 1056.17 -1.33823 5.35533 0
M  V30 11195 H 1058.65 -2.10666 3.5883 0
M  V30 11196 H 1057.52 -3.15289 4.49315 0
M  V30 11197 H 1057.78 -3.43786 2.77963 0
M  V30 11198 N 1056.84 -1.516 -0.430713 0
M  V30 11199 C 1058.12 -1.55142 -1.19123 0
M  V30 11200 C 1058.5 -0.319596 -2.08667 0
M  V30 11201 O 1057.85 0.694927 -2.17676 0
M  V30 11202 C 1058.06 -2.86891 -1.98732 0
M  V30 11203 C 1059.4 -3.39089 -2.55546 0
M  V30 11204 O 1060.43 -2.88486 -2.08936 0
M  V30 11205 O 1059.29 -4.27401 -3.40574 0
M  V30 11206 H 1056.38 -0.624019 -0.542705 0
M  V30 11207 H 1058.93 -1.63917 -0.439244 0
M  V30 11208 H 1057.7 -3.68002 -1.33005 0
M  V30 11209 H 1057.32 -2.81309 -2.80982 0
M  V30 11210 N 1058.32 0.686584 -1.41858 0
M  V30 11211 C 1059.57 1.44879 -1.41908 0
M  V30 11212 C 1059.9 1.94175 -0.0311408 0
M  V30 11213 O 1059.17 1.70131 0.942646 0
M  V30 11214 C 1059.46 2.65428 -2.43352 0
M  V30 11215 C 1059.31 2.2184 -3.91289 0
M  V30 11216 C 1060.63 3.67635 -2.41934 0
M  V30 11217 H 1057.75 0.525477 -0.516762 0
M  V30 11218 H 1060.39 0.781263 -1.73194 0
M  V30 11219 H 1058.54 3.2238 -2.16803 0
M  V30 11220 H 1060.21 1.70146 -4.28775 0
M  V30 11221 H 1058.45 1.53531 -4.05722 0
M  V30 11222 H 1059.13 3.08376 -4.5783 0
M  V30 11223 H 1061.6 3.20376 -2.65516 0
M  V30 11224 H 1060.48 4.49579 -3.14913 0
M  V30 11225 H 1060.74 4.17953 -1.44111 0
M  V30 11226 N 1059.8 1.27835 0.921735 0
M  V30 11227 C 1060.73 1.05397 2.02402 0
M  V30 11228 C 1061.71 -0.0274904 1.62577 0
M  V30 11229 O 1062.89 0.11885 1.88125 0
M  V30 11230 C 1060.02 0.600016 3.33343 0
M  V30 11231 C 1059.07 1.67693 3.9215 0
M  V30 11232 S 1059.9 3.27093 4.23994 0
M  V30 11233 C 1061.05 2.83513 5.58006 0
M  V30 11234 H 1061.29 1.98723 2.21125 0
M  V30 11235 H 1058.82 1.11733 1.0656 0
M  V30 11236 H 1060.78 0.344793 4.09049 0
M  V30 11237 H 1059.44 -0.313288 3.12534 0
M  V30 11238 H 1058.63 1.31074 4.86658 0
M  V30 11239 H 1058.23 1.88454 3.2305 0
M  V30 11240 H 1060.53 2.29187 6.37557 0
M  V30 11241 H 1061.47 3.76788 5.9953 0
M  V30 11242 H 1061.88 2.22472 5.18813 0
M  V30 11243 N 1061.28 -1.12907 1.09954 0
M  V30 11244 C 1062.52 -1.83941 0.837255 0
M  V30 11245 C 1062.84 -1.84234 -0.638984 0
M  V30 11246 O 1062.11 -1.30193 -1.46378 0
M  V30 11247 H 1060.69 -0.681115 0.306743 0
M  V30 11248 H 1063.36 -1.36743 1.38879 0
M  V30 11249 H 1062.45 -2.88289 1.19565 0
M  V30 11250 N 1062.75 -0.88754 -1.30232 0
M  V30 11251 C 1064 -0.506277 -1.95656 0
M  V30 11252 C 1064.32 0.948191 -1.70395 0
M  V30 11253 O 1063.59 1.66701 -1.02895 0
M  V30 11254 H 1062.17 -0.184235 -0.723924 0
M  V30 11255 H 1064.83 -1.13118 -1.58715 0
M  V30 11256 H 1063.93 -0.678673 -3.04632 0
M  V30 11257 N 1064.23 1.43628 -0.648757 0
M  V30 11258 C 1065.16 2.33478 0.0320785 0
M  V30 11259 C 1066.14 1.49217 0.816605 0
M  V30 11260 O 1067.33 1.77892 0.778974 0
M  V30 11261 C 1064.46 3.32525 1.00222 0
M  V30 11262 C 1063.41 4.2674 0.328119 0
M  V30 11263 C 1062.74 5.15791 1.4094 0
M  V30 11264 C 1064.04 5.16493 -0.776701 0
M  V30 11265 H 1065.73 2.90657 -0.718257 0
M  V30 11266 H 1063.28 1.3976 -0.346852 0
M  V30 11267 H 1065.23 3.94277 1.4874 0
M  V30 11268 H 1063.96 2.73593 1.78366 0
M  V30 11269 H 1062.61 3.66346 -0.136569 0
M  V30 11270 H 1062.26 4.53201 2.18216 0
M  V30 11271 H 1061.96 5.79645 0.963631 0
M  V30 11272 H 1063.49 5.80416 1.89603 0
M  V30 11273 H 1064.9 5.7208 -0.373878 0
M  V30 11274 H 1063.3 5.89043 -1.14667 0
M  V30 11275 H 1064.37 4.56448 -1.63654 0
M  V30 11276 N 1065.71 0.390394 1.52688 0
M  V30 11277 C 1066.99 -0.249068 1.94008 0
M  V30 11278 C 1067.37 -1.64263 1.32593 0
M  V30 11279 O 1066.72 -2.23086 0.494448 0
M  V30 11280 C 1066.93 -0.274318 3.4792 0
M  V30 11281 C 1068.27 -0.502743 4.21613 0
M  V30 11282 O 1069.3 -0.35448 3.54432 0
M  V30 11283 O 1068.16 -0.79334 5.40711 0
M  V30 11284 H 1065.25 -0.155116 0.812323 0
M  V30 11285 H 1067.8 0.44498 1.63762 0
M  V30 11286 H 1066.57 0.701766 3.84956 0
M  V30 11287 H 1066.19 -1.01324 3.84473 0
M  V30 11288 N 1067.19 -1.57141 0.120249 0
M  V30 11289 C 1068.44 -1.94852 -0.536387 0
M  V30 11290 C 1068.76 -1.00452 -1.67136 0
M  V30 11291 O 1068.03 -0.061053 -1.95805 0
M  V30 11292 H 1066.61 -0.719411 -0.201138 0
M  V30 11293 H 1069.27 -1.93977 0.189482 0
M  V30 11294 H 1068.37 -2.97917 -0.930145 0
M  V30 11295 N 1068.67 0.153526 -1.5685 0
M  V30 11296 C 1069.94 0.895545 -1.73895 0
M  V30 11297 C 1070.32 1.99625 -0.686504 0
M  V30 11298 O 1069.67 2.26579 0.2957 0
M  V30 11299 C 1069.88 1.44399 -3.17726 0
M  V30 11300 C 1071.23 1.90996 -3.79217 0
M  V30 11301 O 1072.25 1.54155 -3.21115 0
M  V30 11302 O 1071.11 2.58917 -4.81274 0
M  V30 11303 H 1068.21 0.422755 -0.710779 0
M  V30 11304 H 1070.75 0.139961 -1.69122 0
M  V30 11305 H 1069.52 0.652635 -3.85819 0
M  V30 11306 H 1069.15 2.26326 -3.26898 0
M  V30 11307 N 1070.14 1.51827 0.422667 0
M  V30 11308 C 1071.08 1.68901 1.53453 0
M  V30 11309 C 1072.06 0.536549 1.53492 0
M  V30 11310 O 1073.24 0.762226 1.72402 0
M  V30 11311 C 1070.37 1.71599 2.92013 0
M  V30 11312 C 1069.41 2.92984 3.0994 0
M  V30 11313 S 1070.25 4.53559 2.84683 0
M  V30 11314 C 1071.4 4.59024 4.25498 0
M  V30 11315 H 1071.63 2.62943 1.38739 0
M  V30 11316 H 1069.17 1.41695 0.613347 0
M  V30 11317 H 1071.13 1.73838 3.71874 0
M  V30 11318 H 1069.79 0.787083 3.04079 0
M  V30 11319 H 1068.98 2.91315 4.1128 0
M  V30 11320 H 1068.58 2.88562 2.37924 0
M  V30 11321 H 1070.87 4.35567 5.18929 0
M  V30 11322 H 1071.82 5.60904 4.32195 0
M  V30 11323 H 1072.22 3.88193 4.09837 0
M  V30 11324 N 1071.62 -0.679052 1.4222 0
M  V30 11325 C 1072.87 -1.43912 1.42463 0
M  V30 11326 C 1073.2 -1.9446 0.0395574 0
M  V30 11327 O 1072.45 -1.71019 -0.951365 0
M  V30 11328 C 1072.75 -2.65528 2.39227 0
M  V30 11329 C 1072.42 -2.33545 3.85704 0
M  V30 11330 C 1071.08 -2.24534 4.25603 0
M  V30 11331 C 1073.43 -2.07496 4.78116 0
M  V30 11332 C 1070.76 -1.87592 5.55901 0
M  V30 11333 C 1073.11 -1.72059 6.08752 0
M  V30 11334 C 1071.78 -1.61555 6.47654 0
M  V30 11335 H 1071.05 -0.52661 0.521309 0
M  V30 11336 H 1073.69 -0.774661 1.75132 0
M  V30 11337 H 1072 -3.36985 1.9987 0
M  V30 11338 H 1073.69 -3.23702 2.36681 0
M  V30 11339 H 1070.28 -2.4146 3.54112 0
M  V30 11340 H 1074.47 -2.13393 4.48082 0
M  V30 11341 H 1069.72 -1.78026 5.84908 0
M  V30 11342 H 1073.9 -1.50926 6.79849 0
M  V30 11343 H 1071.53 -1.32699 7.48529 0
M  V30 11344 N 1073.1 -1.28322 -0.914942 0
M  V30 11345 C 1074.05 -1.12003 -2.03858 0
M  V30 11346 C 1075.04 -0.0396287 -1.69354 0
M  V30 11347 O 1076.25 -0.198309 -1.78904 0
M  V30 11348 H 1072.62 -0.34552 -0.667922 0
M  V30 11349 H 1074.59 -2.07168 -2.14765 0
M  V30 11350 C 1073.34 -0.797402 -3.38433 0
M  V30 11351 H 1072.67 -1.62071 -3.65476 0
M  V30 11352 H 1074.11 -0.723165 -4.17787 0
M  V30 11353 C 1072.57 0.498807 -3.33187 0
M  V30 11354 O 1073.1 1.52946 -3.71444 0
M  V30 11355 N 1071.3 0.499101 -2.86282 0
M  V30 11356 H 1070.85 -0.340056 -2.55346 0
M  V30 11357 H 1070.81 1.36641 -2.83155 0
M  V30 11358 N 1074.58 1.12322 -1.10551 0
M  V30 11359 C 1075.81 1.87407 -0.869607 0
M  V30 11360 C 1076.22 1.79976 0.58356 0
M  V30 11361 O 1075.56 1.1725 1.41415 0
M  V30 11362 C 1075.62 3.37401 -1.24099 0
M  V30 11363 C 1075.29 3.68607 -2.70144 0
M  V30 11364 C 1076.28 3.66869 -3.68379 0
M  V30 11365 C 1073.97 3.97903 -3.06559 0
M  V30 11366 C 1075.96 3.93987 -5.01052 0
M  V30 11367 C 1073.65 4.24681 -4.39419 0
M  V30 11368 C 1074.65 4.2271 -5.36475 0
M  V30 11369 O 1074.33 4.48823 -6.66943 0
M  V30 11370 H 1074.07 0.59978 -0.311834 0
M  V30 11371 H 1076.62 1.43037 -1.4741 0
M  V30 11372 H 1074.85 3.82332 -0.579606 0
M  V30 11373 H 1076.54 3.93833 -0.982378 0
M  V30 11374 H 1077.31 3.44297 -3.41591 0
M  V30 11375 H 1073.18 3.98578 -2.31638 0
M  V30 11376 H 1076.73 3.92364 -5.76798 0
M  V30 11377 H 1072.63 4.46727 -4.65945 0
M  V30 11378 H 1073.39 4.66436 -6.72592 0
M  V30 11379 N 1076.06 0.894434 1.2976 0
M  V30 11380 C 1077.29 0.532143 1.99629 0
M  V30 11381 C 1077.69 -0.886234 1.6716 0
M  V30 11382 O 1077.04 -1.59573 0.910065 0
M  V30 11383 C 1077.1 0.638335 3.53787 0
M  V30 11384 C 1076.76 2.02273 4.09798 0
M  V30 11385 C 1077.76 2.99327 4.25087 0
M  V30 11386 C 1075.45 2.33069 4.44954 0
M  V30 11387 C 1077.44 4.25304 4.74758 0
M  V30 11388 C 1075.13 3.59289 4.94322 0
M  V30 11389 C 1076.12 4.55222 5.09178 0
M  V30 11390 O 1075.81 5.79202 5.57477 0
M  V30 11391 H 1075.54 0.203326 0.644697 0
M  V30 11392 H 1078.1 1.2043 1.6639 0
M  V30 11393 H 1076.33 -0.0908338 3.86593 0
M  V30 11394 H 1078.02 0.285956 4.04891 0
M  V30 11395 H 1078.78 2.76849 3.9822 0
M  V30 11396 H 1074.66 1.59162 4.32653 0
M  V30 11397 H 1078.21 5.00189 4.86269 0
M  V30 11398 H 1074.1 3.816 5.20626 0
M  V30 11399 H 1074.87 5.81717 5.75802 0
M  V30 11400 N 1077.53 -1.43282 0.656365 0
M  V30 11401 C 1078.48 -2.30776 -0.0333155 0
M  V30 11402 C 1079.45 -1.44928 -0.811493 0
M  V30 11403 O 1080.64 -1.73792 -0.787465 0
M  V30 11404 C 1077.78 -3.30548 -0.991566 0
M  V30 11405 C 1076.89 -4.31493 -0.209159 0
M  V30 11406 C 1076.02 -5.18346 -1.16149 0
M  V30 11407 C 1075.06 -6.10983 -0.369699 0
M  V30 11408 N 1074.2 -6.90449 -1.27378 0
M  V30 11409 H 1079.04 -2.89204 0.718668 0
M  V30 11410 H 1076.58 -1.4247 0.366161 0
M  V30 11411 H 1078.54 -3.86905 -1.56078 0
M  V30 11412 H 1077.17 -2.73762 -1.71039 0
M  V30 11413 H 1076.22 -3.77405 0.476394 0
M  V30 11414 H 1077.53 -4.97142 0.406394 0
M  V30 11415 H 1076.68 -5.79345 -1.80124 0
M  V30 11416 H 1075.42 -4.52831 -1.81095 0
M  V30 11417 H 1074.43 -5.49069 0.283377 0
M  V30 11418 H 1075.65 -6.78541 0.275399 0
M  V30 11419 H 1073.6 -6.27579 -1.90999 0
M  V30 11420 H 1073.52 -7.52631 -0.71287 0
M  V30 11421 H 1074.78 -7.5595 -1.90158 0
M  V30 11422 N 1079.01 -0.398486 -1.52479 0
M  V30 11423 C 1079.95 0.476551 -2.23169 0
M  V30 11424 C 1080.92 1.05665 -1.23587 0
M  V30 11425 O 1082.11 1.10654 -1.52604 0
M  V30 11426 C 1079.24 1.66048 -2.95204 0
M  V30 11427 C 1078.28 1.20478 -4.0913 0
M  V30 11428 S 1079.11 0.178711 -5.35202 0
M  V30 11429 C 1080.27 1.36821 -6.10762 0
M  V30 11430 H 1080.5 -0.123704 -2.97043 0
M  V30 11431 H 1078.04 -0.182722 -1.53315 0
M  V30 11432 H 1079.99 2.33942 -3.37315 0
M  V30 11433 H 1078.66 2.23206 -2.20993 0
M  V30 11434 H 1077.85 2.08901 -4.58668 0
M  V30 11435 H 1077.45 0.604632 -3.6908 0
M  V30 11436 H 1079.74 2.2937 -6.37492 0
M  V30 11437 H 1080.69 0.913579 -7.02182 0
M  V30 11438 H 1081.09 1.58919 -5.41669 0
M  V30 11439 N 1080.49 1.57075 -0.12858 0
M  V30 11440 C 1081.42 2.18833 0.814519 0
M  V30 11441 C 1082.4 1.13114 1.2704 0
M  V30 11442 O 1083.59 1.41387 1.33129 0
M  V30 11443 C 1080.72 2.79535 2.06101 0
M  V30 11444 C 1079.67 3.9092 1.74257 0
M  V30 11445 C 1079 4.38473 3.06015 0
M  V30 11446 C 1080.3 5.1257 1.00345 0
M  V30 11447 H 1081.99 2.97895 0.299862 0
M  V30 11448 H 1079.54 1.4329 0.14279 0
M  V30 11449 H 1081.49 3.21401 2.72543 0
M  V30 11450 H 1080.21 1.97777 2.59907 0
M  V30 11451 H 1078.87 3.49645 1.102 0
M  V30 11452 H 1078.52 3.53561 3.57776 0
M  V30 11453 H 1078.22 5.13591 2.85479 0
M  V30 11454 H 1079.75 4.82997 3.7356 0
M  V30 11455 H 1081.16 5.51395 1.56959 0
M  V30 11456 H 1079.56 5.93333 0.898693 0
M  V30 11457 H 1080.63 4.84899 -0.0081335 0
M  V30 11458 N 1081.97 -0.145205 1.5693 0
M  V30 11459 C 1082.9 -1.20881 1.93553 0
M  V30 11460 C 1083.88 -1.41467 0.801612 0
M  V30 11461 O 1085.06 -1.5605 1.05739 0
M  V30 11462 C 1082.19 -2.5674 2.20912 0
M  V30 11463 C 1081.24 -2.52738 3.43549 0
M  V30 11464 S 1082.07 -1.99257 4.97048 0
M  V30 11465 C 1083.23 -3.36842 5.27531 0
M  V30 11466 H 1083.46 -0.896362 2.83465 0
M  V30 11467 H 1080.99 -0.350894 1.5036 0
M  V30 11468 H 1082.95 -3.34923 2.37354 0
M  V30 11469 H 1081.61 -2.85174 1.31661 0
M  V30 11470 H 1080.8 -3.52753 3.59974 0
M  V30 11471 H 1080.41 -1.82665 3.26358 0
M  V30 11472 H 1082.7 -4.32958 5.21108 0
M  V30 11473 H 1083.64 -3.25268 6.28973 0
M  V30 11474 H 1084.05 -3.3406 4.55043 0
M  V30 11475 N 1083.45 -1.52049 -0.414609 0
M  V30 11476 C 1084.38 -1.77956 -1.51175 0
M  V30 11477 C 1085.36 -0.630282 -1.57992 0
M  V30 11478 O 1086.54 -0.875324 -1.73354 0
M  V30 11479 C 1083.67 -1.92527 -2.89051 0
M  V30 11480 C 1082.63 -3.08096 -2.97087 0
M  V30 11481 C 1081.95 -3.07882 -4.37164 0
M  V30 11482 C 1083.25 -4.47656 -2.69075 0
M  V30 11483 H 1084.95 -2.69827 -1.29746 0
M  V30 11484 H 1082.49 -1.29839 -0.62273 0
M  V30 11485 H 1084.45 -2.09234 -3.65786 0
M  V30 11486 H 1083.17 -0.973235 -3.11762 0
M  V30 11487 H 1081.83 -2.91131 -2.22797 0
M  V30 11488 H 1081.48 -2.10411 -4.56877 0
M  V30 11489 H 1081.18 -3.85501 -4.43467 0
M  V30 11490 H 1082.7 -3.26712 -5.15841 0
M  V30 11491 H 1084.12 -4.64855 -3.35534 0
M  V30 11492 H 1082.51 -5.27151 -2.8676 0
M  V30 11493 H 1083.58 -4.56129 -1.64544 0
M  V30 11494 N 1084.93 0.6715 -1.42579 0
M  V30 11495 C 1085.86 1.79703 -1.42266 0
M  V30 11496 C 1086.87 1.59599 -0.321268 0
M  V30 11497 O 1088.06 1.68657 -0.584564 0
M  V30 11498 C 1085.16 3.16859 -1.20224 0
M  V30 11499 C 1084.33 3.63783 -2.42859 0
M  V30 11500 C 1083.39 4.79683 -2.16312 0
M  V30 11501 O 1082.42 4.90058 -2.89537 0
M  V30 11502 N 1083.62 5.68622 -1.16831 0
M  V30 11503 H 1086.38 1.80455 -2.39282 0
M  V30 11504 H 1083.95 0.854708 -1.375 0
M  V30 11505 H 1085.94 3.92054 -1.00376 0
M  V30 11506 H 1084.51 3.10987 -0.317188 0
M  V30 11507 H 1083.73 2.7923 -2.78252 0
M  V30 11508 H 1085.02 3.91877 -3.24514 0
M  V30 11509 H 1084.41 5.62894 -0.562746 0
M  V30 11510 H 1082.97 6.43615 -1.0297 0
M  V30 11511 N 1086.4 1.28806 0.908124 0
M  V30 11512 C 1087.65 1.16058 1.65454 0
M  V30 11513 C 1087.97 -0.290057 1.92831 0
M  V30 11514 O 1087.24 -1.20001 1.54843 0
M  V30 11515 H 1085.82 0.426522 0.61326 0
M  V30 11516 H 1088.48 1.61614 1.08936 0
M  V30 11517 H 1087.58 1.70437 2.61453 0
M  V30 11518 N 1087.88 -1.11734 1.11145 0
M  V30 11519 C 1088.81 -2.1976 0.789152 0
M  V30 11520 C 1089.79 -1.68382 -0.241143 0
M  V30 11521 O 1090.98 -1.93914 -0.105292 0
M  V30 11522 C 1088.11 -3.46549 0.228204 0
M  V30 11523 C 1087.06 -4.11123 1.19002 0
M  V30 11524 C 1086.39 -5.32451 0.489928 0
M  V30 11525 C 1087.69 -4.56406 2.53951 0
M  V30 11526 H 1089.38 -2.46978 1.69241 0
M  V30 11527 H 1086.93 -1.18705 0.81517 0
M  V30 11528 H 1088.88 -4.21399 -0.00945908 0
M  V30 11529 H 1087.6 -3.18782 -0.71033 0
M  V30 11530 H 1086.26 -3.38264 1.41326 0
M  V30 11531 H 1085.91 -5.00953 -0.453315 0
M  V30 11532 H 1085.61 -5.76605 1.1314 0
M  V30 11533 H 1087.14 -6.10042 0.260984 0
M  V30 11534 H 1088.55 -5.22592 2.35733 0
M  V30 11535 H 1086.95 -5.11363 3.14051 0
M  V30 11536 H 1088.02 -3.7001 3.13402 0
M  V30 11537 N 1089.36 -0.901303 -1.29284 0
M  V30 11538 C 1090.61 -0.52401 -1.94774 0
M  V30 11539 C 1090.92 0.934645 -1.71825 0
M  V30 11540 O 1092.13 1.41953 -2.31434 0
M  V30 11541 C 1090.58 -0.886262 -3.48817 0
M  V30 11542 C 1090.19 -2.3638 -3.80564 0
M  V30 11543 C 1091.94 -0.578955 -4.20533 0
M  V30 11544 C 1089.84 -2.66682 -5.27858 0
M  V30 11545 H 1088.77 -0.192244 -0.72908 0
M  V30 11546 H 1091.42 -1.09852 -1.46986 0
M  V30 11547 H 1089.81 -0.240666 -3.95268 0
M  V30 11548 H 1090.98 -3.05508 -3.44966 0
M  V30 11549 H 1089.29 -2.64029 -3.2199 0
M  V30 11550 H 1091.89 -0.782185 -5.28948 0
M  V30 11551 H 1092.23 0.482605 -4.13493 0
M  V30 11552 H 1092.77 -1.18246 -3.79819 0
M  V30 11553 H 1089.51 -3.71643 -5.39965 0
M  V30 11554 H 1089.03 -2.02179 -5.64698 0
M  V30 11555 H 1090.71 -2.53033 -5.95469 0
M  V30 11556 N 1090.84 1.42931 -0.663954 0
M  V30 11557 C 1091.8 2.29197 0.0117626 0
M  V30 11558 C 1092.8 1.42767 0.739875 0
M  V30 11559 O 1093.99 1.64278 0.579509 0
M  V30 11560 C 1091.12 3.2505 1.02738 0
M  V30 11561 H 1092.32 2.90438 -0.747391 0
M  V30 11562 H 1089.87 1.5039 -0.425733 0
M  V30 11563 H 1090.6 2.68726 1.8154 0
M  V30 11564 H 1090.39 3.88785 0.508809 0
M  V30 11565 H 1091.88 3.89771 1.49893 0
M  V30 11566 N 1092.32 0.406567 1.52266 0
M  V30 11567 C 1093.28 -0.408251 2.25535 0
M  V30 11568 C 1094.28 -0.975795 1.27808 0
M  V30 11569 O 1095.47 -0.855077 1.5177 0
M  V30 11570 C 1092.6 -1.57443 3.02365 0
M  V30 11571 H 1093.79 0.233459 2.9899 0
M  V30 11572 H 1091.35 0.159032 1.55489 0
M  V30 11573 H 1092.08 -2.25308 2.33252 0
M  V30 11574 H 1091.87 -1.17399 3.74112 0
M  V30 11575 H 1093.36 -2.15088 3.57948 0
M  V30 11576 N 1093.79 -1.57004 0.136909 0
M  V30 11577 C 1095.21 -1.58082 -0.21958 0
M  V30 11578 C 1095.41 -1.15065 -1.65415 0
M  V30 11579 O 1094.47 -0.846284 -2.37896 0
M  V30 11580 C 1095.78 -3.00685 0.0300112 0
M  V30 11581 C 1097.33 -3.12981 -0.0344899 0
M  V30 11582 C 1097.8 -4.57615 0.187639 0
M  V30 11583 N 1099.29 -4.63005 0.134219 0
M  V30 11584 C 1100.03 -5.72712 0.280743 0
M  V30 11585 N 1099.52 -6.91104 0.48443 0
M  V30 11586 N 1101.32 -5.61673 0.219055 0
M  V30 11587 H 1093.47 -1.83262 1.07372 0
M  V30 11588 H 1095.73 -0.847776 0.424241 0
M  V30 11589 H 1095.44 -3.36509 1.02247 0
M  V30 11590 H 1095.31 -3.70762 -0.693918 0
M  V30 11591 H 1097.7 -2.77004 -1.01749 0
M  V30 11592 H 1097.78 -2.45411 0.721608 0
M  V30 11593 H 1097.42 -4.94295 1.16769 0
M  V30 11594 H 1097.35 -5.23299 -0.588661 0
M  V30 11595 H 1099.84 -3.77895 -0.0189681 0
M  V30 11596 H 1100.16 -7.7057 0.586613 0
M  V30 11597 H 1098.5 -6.93047 0.520627 0
M  V30 11598 H 1101.69 -4.68061 0.0607606 0
M  V30 11599 H 1101.87 -6.47125 0.336683 0
M  V30 11600 N 1095.27 0.136881 -1.57004 0
M  V30 11601 C 1096.22 1.16869 -1.99023 0
M  V30 11602 C 1097.19 1.42137 -0.859435 0
M  V30 11603 O 1098.37 1.54303 -1.12229 0
M  V30 11604 C 1095.51 2.49466 -2.38455 0
M  V30 11605 C 1094.63 2.31286 -3.64871 0
M  V30 11606 C 1093.76 3.56989 -3.9336 0
M  V30 11607 C 1092.8 3.33889 -5.13015 0
M  V30 11608 N 1091.94 4.51748 -5.37464 0
M  V30 11609 H 1096.78 0.803366 -2.86967 0
M  V30 11610 H 1094.32 0.385216 -1.41967 0
M  V30 11611 H 1096.27 3.26794 -2.59348 0
M  V30 11612 H 1094.9 2.83926 -1.53577 0
M  V30 11613 H 1093.96 1.44962 -3.51696 0
M  V30 11614 H 1095.27 2.10183 -4.52355 0
M  V30 11615 H 1094.42 4.42742 -4.14806 0
M  V30 11616 H 1093.16 3.81106 -3.04318 0
M  V30 11617 H 1092.17 2.46525 -4.91432 0
M  V30 11618 H 1093.39 3.1116 -6.03619 0
M  V30 11619 H 1091.34 4.76019 -4.51377 0
M  V30 11620 H 1091.25 4.33684 -6.19237 0
M  V30 11621 H 1092.52 5.38686 -5.63416 0
M  V30 11622 N 1096.75 1.52266 0.40654 0
M  V30 11623 C 1097.7 1.72175 1.49465 0
M  V30 11624 C 1098.68 0.575668 1.50249 0
M  V30 11625 O 1099.88 0.832835 1.56182 0
M  V30 11626 C 1097.01 1.87818 2.87366 0
M  V30 11627 C 1096.09 3.08305 2.91219 0
M  V30 11628 N 1096.48 4.30967 2.64766 0
M  V30 11629 C 1094.78 3.08192 3.22388 0
M  V30 11630 C 1095.48 5.12455 2.75254 0
M  V30 11631 N 1094.46 4.47758 3.08242 0
M  V30 11632 H 1098.26 2.64653 1.27812 0
M  V30 11633 H 1095.77 1.50334 0.61428 0
M  V30 11634 H 1097.77 2.00198 3.65686 0
M  V30 11635 H 1096.43 0.965414 3.10016 0
M  V30 11636 H 1097.44 4.59397 2.39113 0
M  V30 11637 H 1094.12 2.26662 3.50615 0
M  V30 11638 H 1095.51 6.20186 2.58495 0
M  V30 11639 N 1098.23 -0.663929 1.42933 0
M  V30 11640 C 1099.16 -1.78876 1.41699 0
M  V30 11641 C 1100.14 -1.60174 0.27981 0
M  V30 11642 O 1101.32 -1.82502 0.471735 0
M  V30 11643 C 1098.45 -3.1603 1.2183 0
M  V30 11644 C 1097.5 -3.53457 2.38685 0
M  V30 11645 S 1098.33 -3.54648 4.01229 0
M  V30 11646 C 1099.49 -4.94477 3.83723 0
M  V30 11647 H 1099.72 -1.7965 2.36882 0
M  V30 11648 H 1097.25 -0.835596 1.29835 0
M  V30 11649 H 1099.21 -3.95193 1.11054 0
M  V30 11650 H 1097.87 -3.1283 0.282139 0
M  V30 11651 H 1097.06 -4.53178 2.20559 0
M  V30 11652 H 1096.67 -2.81681 2.46032 0
M  V30 11653 H 1098.96 -5.82851 3.45386 0
M  V30 11654 H 1099.9 -5.17652 4.83158 0
M  V30 11655 H 1100.31 -4.67507 3.16382 0
M  V30 11656 N 1099.71 -1.29285 -0.901281 0
M  V30 11657 C 1100.98 -1.07847 -1.63182 0
M  V30 11658 C 1101.36 0.377927 -2.07689 0
M  V30 11659 O 1100.71 1.36642 -1.83143 0
M  V30 11660 C 1100.92 -2.06457 -2.81383 0
M  V30 11661 C 1102.27 -2.37289 -3.52107 0
M  V30 11662 O 1103.29 -2.0464 -2.91549 0
M  V30 11663 O 1102.15 -2.93067 -4.61274 0
M  V30 11664 H 1099.25 -0.413073 -0.71645 0
M  V30 11665 H 1101.79 -1.40651 -0.949488 0
M  V30 11666 H 1100.56 -3.04561 -2.4568 0
M  V30 11667 H 1100.19 -1.74374 -3.57323 0
M  V30 11668 N 1101.18 1.11143 -1.11736 0
M  V30 11669 C 1102.13 2.17274 -0.778513 0
M  V30 11670 C 1103.1 1.64186 0.251405 0
M  V30 11671 O 1104.29 1.90373 0.127629 0
M  V30 11672 C 1101.43 3.44324 -0.231246 0
M  V30 11673 C 1100.54 4.114 -1.31809 0
M  V30 11674 C 1099.67 5.26146 -0.73104 0
M  V30 11675 C 1098.71 5.85112 -1.79752 0
M  V30 11676 N 1097.85 6.91247 -1.22973 0
M  V30 11677 H 1102.69 2.45603 -1.68769 0
M  V30 11678 H 1100.23 1.20565 -0.842759 0
M  V30 11679 H 1102.19 4.1707 0.104045 0
M  V30 11680 H 1100.82 3.16369 0.641119 0
M  V30 11681 H 1099.87 3.36697 -1.77029 0
M  V30 11682 H 1101.18 4.51278 -2.12485 0
M  V30 11683 H 1100.33 6.05713 -0.345987 0
M  V30 11684 H 1099.07 4.87583 0.107 0
M  V30 11685 H 1098.08 5.0422 -2.19185 0
M  V30 11686 H 1099.3 6.25741 -2.63865 0
M  V30 11687 H 1097.25 6.54696 -0.41339 0
M  V30 11688 H 1097.17 7.29796 -1.97316 0
M  V30 11689 H 1098.43 7.74611 -0.87167 0
M  V30 11690 N 1102.66 0.908147 1.28804 0
M  V30 11691 C 1103.91 0.539201 1.95501 0
M  V30 11692 C 1104.24 -0.913759 1.7136 0
M  V30 11693 O 1103.52 -1.64904 1.03136 0
M  V30 11694 C 1103.8 0.842372 3.50109 0
M  V30 11695 C 1103.65 2.34765 3.83673 0
M  V30 11696 C 1104.97 0.334658 4.38826 0
M  V30 11697 H 1102.09 0.197373 0.71008 0
M  V30 11698 H 1104.73 1.13637 1.52272 0
M  V30 11699 H 1102.88 0.334143 3.8706 0
M  V30 11700 H 1104.55 2.92607 3.56621 0
M  V30 11701 H 1102.8 2.80494 3.30916 0
M  V30 11702 H 1103.47 2.51034 4.91616 0
M  V30 11703 H 1105.94 0.769961 4.08914 0
M  V30 11704 H 1104.82 0.575914 5.4587 0
M  V30 11705 H 1105.08 -0.764878 4.35433 0
M  V30 11706 N 1104.14 -1.42577 0.671525 0
M  V30 11707 C 1105.39 -2.01882 0.192716 0
M  V30 11708 C 1105.72 -1.52959 -1.19654 0
M  V30 11709 O 1104.99 -0.730404 -1.80265 0
M  V30 11710 C 1105.28 -3.59404 0.223734 0
M  V30 11711 C 1105.13 -4.18514 1.64821 0
M  V30 11712 C 1106.45 -4.37996 -0.429858 0
M  V30 11713 H 1103.57 -0.733523 0.0715026 0
M  V30 11714 H 1106.21 -1.69641 0.855689 0
M  V30 11715 H 1104.36 -3.87003 -0.340776 0
M  V30 11716 H 1106.03 -4.01881 2.26472 0
M  V30 11717 H 1104.28 -3.74467 2.1899 0
M  V30 11718 H 1104.95 -5.27643 1.62162 0
M  V30 11719 H 1107.42 -4.16069 0.0506433 0
M  V30 11720 H 1106.3 -5.476 -0.377503 0
M  V30 11721 H 1106.56 -4.15625 -1.50693 0
M  V30 11722 N 1105.62 -0.414636 -1.52048 0
M  V30 11723 C 1106.55 0.443601 -2.24866 0
M  V30 11724 C 1107.56 1.00556 -1.28032 0
M  V30 11725 O 1108.75 0.903566 -1.53941 0
M  V30 11726 C 1105.85 1.63004 -2.97124 0
M  V30 11727 C 1105.03 1.191 -4.20873 0
M  V30 11728 C 1104.08 2.24497 -4.75907 0
M  V30 11729 O 1103.11 1.84861 -5.38345 0
M  V30 11730 N 1104.31 3.56727 -4.57959 0
M  V30 11731 H 1107.08 -0.180393 -2.99157 0
M  V30 11732 H 1104.64 -0.242305 -1.60077 0
M  V30 11733 H 1106.63 2.33089 -3.30835 0
M  V30 11734 H 1105.2 2.15984 -2.25986 0
M  V30 11735 H 1104.42 0.318059 -3.92915 0
M  V30 11736 H 1105.71 0.874699 -5.01225 0
M  V30 11737 H 1105.11 3.91675 -4.08175 0
M  V30 11738 H 1103.66 4.22772 -4.96092 0
M  V30 11739 N 1107.1 1.56929 -0.145233 0
M  V30 11740 C 1108.35 1.95243 0.506273 0
M  V30 11741 C 1108.66 1.0325 1.66129 0
M  V30 11742 O 1109.86 1.31135 2.37731 0
M  V30 11743 C 1108.32 3.47079 0.952042 0
M  V30 11744 C 1107.93 4.47654 -0.175947 0
M  V30 11745 C 1109.67 3.94263 1.57344 0
M  V30 11746 C 1107.58 5.90698 0.287993 0
M  V30 11747 H 1106.51 0.728906 0.192903 0
M  V30 11748 H 1109.16 1.82062 -0.229295 0
M  V30 11749 H 1107.54 3.55587 1.74282 0
M  V30 11750 H 1108.72 4.50841 -0.952848 0
M  V30 11751 H 1107.03 4.10377 -0.70564 0
M  V30 11752 H 1109.63 4.9857 1.93214 0
M  V30 11753 H 1109.97 3.35714 2.46174 0
M  V30 11754 H 1110.5 3.88665 0.847593 0
M  V30 11755 H 1107.24 6.53061 -0.564889 0
M  V30 11756 H 1106.76 5.90876 1.03081 0
M  V30 11757 H 1108.44 6.42747 0.740586 0
M  V30 11758 N 1108.58 -0.128553 1.57075 0
M  V30 11759 C 1109.82 -0.839252 1.8462 0
M  V30 11760 C 1110.15 -1.79974 0.729582 0
M  V30 11761 O 1109.43 -1.92681 -0.265369 0
M  V30 11762 C 1109.71 -1.59756 3.22723 0
M  V30 11763 C 1109.57 -0.657313 4.44971 0
M  V30 11764 C 1110.88 -2.55592 3.58275 0
M  V30 11765 H 1108 -0.303652 0.671539 0
M  V30 11766 H 1110.65 -0.103802 1.89716 0
M  V30 11767 H 1108.8 -2.22451 3.18509 0
M  V30 11768 H 1110.47 -0.0399471 4.61283 0
M  V30 11769 H 1108.71 0.0318416 4.33788 0
M  V30 11770 H 1109.38 -1.22433 5.38251 0
M  V30 11771 H 1111.86 -2.03007 3.63218 0
M  V30 11772 H 1110.73 -3.05687 4.55902 0
M  V30 11773 H 1110.99 -3.37813 2.85193 0
M  V30 11774 N 1110.05 -1.5248 -0.398459 0
M  V30 11775 C 1110.96 -1.79492 -1.51062 0
M  V30 11776 C 1111.98 -0.681101 -1.60116 0
M  V30 11777 O 1113.16 -0.967671 -1.7663 0
M  V30 11778 C 1110.22 -1.94958 -2.86692 0
M  V30 11779 C 1109.28 -3.1887 -2.87438 0
M  V30 11780 C 1108.51 -3.33588 -4.16599 0
M  V30 11781 O 1108.74 -2.53327 -5.11059 0
M  V30 11782 O 1107.67 -4.26795 -4.24416 0
M  V30 11783 H 1111.5 -2.73913 -1.31169 0
M  V30 11784 H 1109.08 -1.37455 -0.585372 0
M  V30 11785 H 1110.96 -2.06891 -3.67116 0
M  V30 11786 H 1109.64 -1.03726 -3.06631 0
M  V30 11787 H 1108.55 -3.12386 -2.0583 0
M  V30 11788 H 1109.88 -4.09917 -2.7245 0
M  V30 11789 N 1111.53 0.65634 -1.43283 0
M  V30 11790 C 1112.78 1.41212 -1.44021 0
M  V30 11791 C 1113.09 1.95485 -0.0669783 0
M  V30 11792 O 1114.3 2.71457 0.0481909 0
M  V30 11793 C 1112.76 2.55541 -2.5343 0
M  V30 11794 C 1112.36 2.07889 -3.96845 0
M  V30 11795 C 1114.11 3.3293 -2.63359 0
M  V30 11796 C 1112.01 3.19411 -4.97726 0
M  V30 11797 H 1110.94 0.530566 -0.535739 0
M  V30 11798 H 1113.6 0.708743 -1.6926 0
M  V30 11799 H 1111.98 3.28335 -2.21387 0
M  V30 11800 H 1113.15 1.42127 -4.38334 0
M  V30 11801 H 1111.47 1.43388 -3.90933 0
M  V30 11802 H 1114.06 4.1602 -3.35903 0
M  V30 11803 H 1114.41 3.80753 -1.68324 0
M  V30 11804 H 1114.94 2.67216 -2.94687 0
M  V30 11805 H 1111.68 2.7656 -5.94302 0
M  V30 11806 H 1111.2 3.83895 -4.60853 0
M  V30 11807 H 1112.88 3.84591 -5.20287 0
M  V30 11808 N 1113.01 1.29761 0.894412 0
M  V30 11809 C 1113.94 1.09666 2.00121 0
M  V30 11810 C 1114.92 0.00700077 1.62598 0
M  V30 11811 O 1116.1 0.158728 1.87831 0
M  V30 11812 C 1113.23 0.670588 3.31995 0
M  V30 11813 C 1112.28 1.75974 3.88504 0
M  V30 11814 S 1113.11 3.36013 4.1696 0
M  V30 11815 C 1114.27 2.95285 5.51867 0
M  V30 11816 H 1114.5 2.03369 2.1686 0
M  V30 11817 H 1112.03 1.13968 1.04166 0
M  V30 11818 H 1113.99 0.431481 4.08226 0
M  V30 11819 H 1112.65 -0.246924 3.13128 0
M  V30 11820 H 1111.84 1.41367 4.83768 0
M  V30 11821 H 1111.45 1.95264 3.1898 0
M  V30 11822 H 1113.74 2.42659 6.32553 0
M  V30 11823 H 1114.68 3.8942 5.91403 0
M  V30 11824 H 1115.09 2.33426 5.13977 0
M  V30 11825 N 1114.49 -1.10549 1.12324 0
M  V30 11826 C 1115.42 -2.16657 0.747826 0
M  V30 11827 C 1116.43 -1.61238 -0.224981 0
M  V30 11828 O 1117.62 -1.78499 -0.00649408 0
M  V30 11829 C 1114.72 -3.38791 0.0859421 0
M  V30 11830 C 1113.89 -4.23655 1.08792 0
M  V30 11831 C 1112.95 -5.24239 0.453871 0
M  V30 11832 O 1111.98 -5.58262 1.11052 0
M  V30 11833 N 1113.18 -5.75246 -0.779215 0
M  V30 11834 H 1115.95 -2.49472 1.66084 0
M  V30 11835 H 1113.51 -1.26157 1.01469 0
M  V30 11836 H 1115.5 -4.03182 -0.350186 0
M  V30 11837 H 1114.07 -3.03961 -0.729807 0
M  V30 11838 H 1113.29 -3.55578 1.70171 0
M  V30 11839 H 1114.58 -4.77187 1.76549 0
M  V30 11840 H 1113.98 -5.49802 -1.3317 0
M  V30 11841 H 1112.53 -6.41428 -1.15818 0
M  V30 11842 N 1115.97 -0.914965 -1.28321 0
M  V30 11843 C 1116.9 -0.361578 -2.2633 0
M  V30 11844 C 1117.91 0.500637 -1.54911 0
M  V30 11845 O 1119.1 0.31532 -1.75693 0
M  V30 11846 C 1116.2 0.501693 -3.35166 0
M  V30 11847 C 1115.37 -0.338289 -4.3609 0
M  V30 11848 C 1114.43 0.460267 -5.24183 0
M  V30 11849 O 1113.46 -0.127594 -5.69057 0
M  V30 11850 N 1114.66 1.76302 -5.5308 0
M  V30 11851 H 1117.42 -1.20402 -2.74451 0
M  V30 11852 H 1114.99 -0.781042 -1.41814 0
M  V30 11853 H 1116.98 1.04268 -3.91037 0
M  V30 11854 H 1115.55 1.24485 -2.86744 0
M  V30 11855 H 1114.77 -1.06064 -3.79663 0
M  V30 11856 H 1116.06 -0.912996 -5.00542 0
M  V30 11857 H 1115.45 2.26314 -5.18458 0
M  V30 11858 H 1114.01 2.25081 -6.11704 0
M  V30 11859 N 1117.44 1.42219 -0.679077 0
M  V30 11860 C 1118.69 2.01081 -0.202718 0
M  V30 11861 C 1119.01 1.53986 1.19639 0
M  V30 11862 O 1118.28 0.763359 1.80415 0
M  V30 11863 H 1116.86 0.743526 -0.0719547 0
M  V30 11864 H 1119.52 1.74077 -0.876544 0
M  V30 11865 H 1118.62 3.11411 -0.207314 0
M  V30 11866 N 1118.92 0.422693 1.51826 0
M  V30 11867 C 1120.15 -0.15017 2.06856 0
M  V30 11868 C 1120.57 -1.36946 1.28948 0
M  V30 11869 O 1119.93 -1.78393 0.32338 0
M  V30 11870 C 1119.98 -0.465563 3.57582 0
M  V30 11871 O 1119.08 -1.55442 3.81984 0
M  V30 11872 H 1118.42 -0.00827931 0.663948 0
M  V30 11873 H 1120.95 0.599806 1.95611 0
M  V30 11874 H 1120.96 -0.720279 4.01592 0
M  V30 11875 H 1119.64 0.425679 4.13716 0
M  V30 11876 H 1118.21 -1.29081 3.49846 0
M  V30 11877 N 1120.4 -1.5685 0.153553 0
M  V30 11878 C 1121.33 -2.14231 -0.814729 0
M  V30 11879 C 1122.34 -1.09339 -1.20619 0
M  V30 11880 O 1123.53 -1.36592 -1.14913 0
M  V30 11881 C 1120.63 -2.6555 -2.10562 0
M  V30 11882 C 1119.81 -3.94912 -1.8805 0
M  V30 11883 C 1118.87 -4.31476 -3.0119 0
M  V30 11884 O 1117.89 -4.9968 -2.72596 0
M  V30 11885 N 1119.09 -3.91588 -4.28531 0
M  V30 11886 H 1121.86 -2.9794 -0.324277 0
M  V30 11887 H 1119.42 -1.61873 -0.0298087 0
M  V30 11888 H 1121.41 -2.87019 -2.85311 0
M  V30 11889 H 1119.98 -1.86529 -2.5085 0
M  V30 11890 H 1119.2 -3.82002 -0.973024 0
M  V30 11891 H 1120.49 -4.79433 -1.70356 0
M  V30 11892 H 1119.89 -3.36645 -4.54628 0
M  V30 11893 H 1118.44 -4.18095 -5.00039 0
M  V30 11894 N 1121.88 0.120221 -1.57141 0
M  V30 11895 C 1122.81 1.14876 -2.03287 0
M  V30 11896 C 1123.79 1.43259 -0.917112 0
M  V30 11897 O 1124.97 1.53721 -1.18674 0
M  V30 11898 C 1122.1 2.47525 -2.43616 0
M  V30 11899 C 1121.06 2.33607 -3.58625 0
M  V30 11900 C 1120.38 3.71207 -3.84849 0
M  V30 11901 C 1121.68 1.79761 -4.90391 0
M  V30 11902 H 1123.38 0.764943 -2.89463 0
M  V30 11903 H 1120.92 0.366516 -1.39258 0
M  V30 11904 H 1122.88 3.19728 -2.74504 0
M  V30 11905 H 1121.6 2.87794 -1.54409 0
M  V30 11906 H 1120.26 1.63853 -3.27945 0
M  V30 11907 H 1119.91 4.0896 -2.9285 0
M  V30 11908 H 1119.61 3.62749 -4.62263 0
M  V30 11909 H 1121.13 4.44917 -4.18188 0
M  V30 11910 H 1122.55 2.4178 -5.19822 0
M  V30 11911 H 1120.94 1.82126 -5.71795 0
M  V30 11912 H 1122.01 0.755087 -4.78985 0
M  V30 11913 N 1123.36 1.52689 0.390367 0
M  V30 11914 C 1124.77 1.59623 0.968366 0
M  V30 11915 C 1125.12 0.44824 1.91011 0
M  V30 11916 O 1124.24 -0.428868 2.12108 0
M  V30 11917 C 1124.84 2.89312 1.76306 0
M  V30 11918 C 1123.4 2.98664 2.29079 0
M  V30 11919 C 1122.54 2.54725 1.09593 0
M  V30 11920 H 1125.5 1.57787 0.169959 0
M  V30 11921 H 1125.52 2.75721 2.62217 0
M  V30 11922 H 1125.03 3.72846 1.07738 0
M  V30 11923 H 1123.13 2.19665 3.00962 0
M  V30 11924 H 1123.24 4.03277 2.58659 0
M  V30 11925 H 1121.61 2.09012 1.45554 0
M  V30 11926 H 1122.39 3.40651 0.425625 0
M  V30 11927 N 1124.83 -0.648732 1.43629 0
M  V30 11928 C 1126.07 -1.42032 1.46991 0
M  V30 11929 C 1126.44 -1.91774 0.0931841 0
M  V30 11930 O 1127.64 -2.688 0.00148504 0
M  V30 11931 C 1125.91 -2.56693 2.48684 0
M  V30 11932 S 1127.47 -3.45149 2.70956 0
M  V30 11933 H 1124.29 -0.484772 0.520113 0
M  V30 11934 H 1126.89 -0.75274 1.80427 0
M  V30 11935 H 1125.59 -2.18431 3.47442 0
M  V30 11936 H 1125.12 -3.28296 2.1676 0
M  V30 11937 H 1127.14 -4.53569 2.01221 0
M  V30 11938 N 1126.31 -1.30234 -0.887518 0
M  V30 11939 C 1127.56 -1.1891 -1.6391 0
M  V30 11940 C 1127.89 0.256749 -1.92798 0
M  V30 11941 O 1127.14 1.20047 -1.54555 0
M  V30 11942 C 1127.44 -1.96046 -2.98832 0
M  V30 11943 C 1127.11 -3.45683 -2.89507 0
M  V30 11944 C 1125.77 -3.86489 -2.8667 0
M  V30 11945 C 1128.12 -4.40983 -2.7782 0
M  V30 11946 C 1125.45 -5.2089 -2.69982 0
M  V30 11947 C 1127.8 -5.75489 -2.6267 0
M  V30 11948 C 1126.47 -6.15537 -2.58207 0
M  V30 11949 H 1125.74 -0.435123 -0.599791 0
M  V30 11950 H 1128.38 -1.61308 -1.03209 0
M  V30 11951 H 1126.69 -1.46275 -3.6347 0
M  V30 11952 H 1128.38 -1.84678 -3.55942 0
M  V30 11953 H 1124.97 -3.13255 -2.92523 0
M  V30 11954 H 1129.16 -4.10401 -2.79079 0
M  V30 11955 H 1124.41 -5.51014 -2.6494 0
M  V30 11956 H 1128.59 -6.48973 -2.526 0
M  V30 11957 H 1126.22 -7.19627 -2.45034 0
M  V30 11958 N 1127.79 1.09952 -1.12909 0
M  V30 11959 C 1128.74 2.14591 -0.77037 0
M  V30 11960 C 1129.72 1.59204 0.233021 0
M  V30 11961 O 1130.92 1.7696 0.0377599 0
M  V30 11962 C 1128.05 3.42514 -0.232117 0
M  V30 11963 C 1127.13 4.04823 -1.26409 0
M  V30 11964 N 1127.52 4.41763 -2.46331 0
M  V30 11965 C 1125.82 4.31951 -1.11062 0
M  V30 11966 C 1126.52 4.90778 -3.12269 0
M  V30 11967 N 1125.5 4.87896 -2.39704 0
M  V30 11968 H 1129.3 2.40951 -1.68285 0
M  V30 11969 H 1126.81 1.27125 -1.0106 0
M  V30 11970 H 1128.81 4.16878 0.0430853 0
M  V30 11971 H 1127.47 3.17612 0.674757 0
M  V30 11972 H 1128.48 4.33299 -2.83677 0
M  V30 11973 H 1125.16 4.16681 -0.261456 0
M  V30 11974 H 1126.55 5.28868 -4.14425 0
M  V30 11975 N 1129.27 0.921757 1.27833 0
M  V30 11976 C 1130.52 0.557974 1.94245 0
M  V30 11977 C 1130.84 -0.90268 1.72849 0
M  V30 11978 O 1130.11 -1.63915 1.07279 0
M  V30 11979 H 1128.69 0.203364 0.718785 0
M  V30 11980 H 1131.35 1.17286 1.5566 0
M  V30 11981 H 1130.45 0.759202 3.02725 0
M  V30 11982 N 1130.75 -1.41857 0.686609 0
M  V30 11983 C 1131.97 -2.06219 0.221037 0
M  V30 11984 C 1132.4 -1.51298 -1.11762 0
M  V30 11985 O 1131.75 -0.636253 -1.69769 0
M  V30 11986 C 1131.8 -3.60153 0.179425 0
M  V30 11987 O 1130.91 -4.03577 -0.848481 0
M  V30 11988 H 1130.25 -0.654787 0.110228 0
M  V30 11989 H 1132.78 -1.81783 0.938948 0
M  V30 11990 H 1132.79 -4.07999 0.00725332 0
M  V30 11991 H 1131.46 -3.99498 1.15647 0
M  V30 11992 H 1130.04 -3.67255 -0.646393 0
M  V30 11993 N 1132.22 -0.430739 -1.51599 0
M  V30 11994 C 1133.45 0.139197 -2.06932 0
M  V30 11995 C 1133.87 1.3626 -1.29672 0
M  V30 11996 O 1133.23 1.78219 -0.332836 0
M  V30 11997 C 1133.28 0.446593 -3.57824 0
M  V30 11998 O 1132.38 1.53414 -3.82803 0
M  V30 11999 H 1131.73 0.00475812 -0.663983 0
M  V30 12000 H 1134.26 -0.610171 -1.9529 0
M  V30 12001 H 1134.27 0.698972 -4.01968 0
M  V30 12002 H 1132.94 -0.447613 -4.13484 0
M  V30 12003 H 1131.52 1.27224 -3.50526 0
M  V30 12004 N 1133.7 1.56767 -0.161869 0
M  V30 12005 C 1134.93 2.00964 0.492027 0
M  V30 12006 C 1135.35 1.04206 1.57437 0
M  V30 12007 O 1134.7 0.0413998 1.82453 0
M  V30 12008 C 1134.75 3.4502 1.07904 0
M  V30 12009 O 1134.47 4.38082 0.0399085 0
M  V30 12010 C 1135.98 4.04572 1.81209 0
M  V30 12011 H 1133.2 0.658911 0.126797 0
M  V30 12012 H 1135.74 2.0283 -0.260824 0
M  V30 12013 H 1133.89 3.43959 1.78243 0
M  V30 12014 H 1134.31 5.22372 0.471985 0
M  V30 12015 H 1135.78 5.07321 2.17554 0
M  V30 12016 H 1136.26 3.46126 2.70359 0
M  V30 12017 H 1136.87 4.09307 1.15534 0
M  V30 12018 N 1135.18 -0.111886 1.57202 0
M  V30 12019 C 1136.43 -0.817022 1.84412 0
M  V30 12020 C 1136.74 -1.80708 0.748608 0
M  V30 12021 O 1137.95 -2.55891 0.907319 0
M  V30 12022 C 1136.4 -1.50376 3.26979 0
M  V30 12023 C 1136.01 -0.554334 4.44557 0
M  V30 12024 C 1137.76 -2.19361 3.63429 0
M  V30 12025 C 1135.66 -1.24471 5.78153 0
M  V30 12026 H 1134.59 -0.308864 0.687836 0
M  V30 12027 H 1137.24 -0.0698109 1.83367 0
M  V30 12028 H 1135.63 -2.29785 3.22514 0
M  V30 12029 H 1136.8 0.207045 4.60335 0
M  V30 12030 H 1135.12 0.0289261 4.1639 0
M  V30 12031 H 1137.71 -2.71716 4.60515 0
M  V30 12032 H 1138.06 -2.97488 2.91215 0
M  V30 12033 H 1138.59 -1.46833 3.69709 0
M  V30 12034 H 1135.33 -0.504584 6.53555 0
M  V30 12035 H 1134.85 -1.97792 5.66249 0
M  V30 12036 H 1136.53 -1.77591 6.2215 0
M  V30 12037 N 1136.66 -1.52894 -0.382264 0
M  V30 12038 C 1138.07 -1.42295 -0.722802 0
M  V30 12039 C 1138.27 -0.548717 -1.93885 0
M  V30 12040 O 1137.33 -0.0247431 -2.52488 0
M  V30 12041 C 1138.64 -2.85246 -0.9516 0
M  V30 12042 C 1140.19 -2.94768 -1.05265 0
M  V30 12043 C 1140.67 -4.38745 -1.31404 0
M  V30 12044 N 1142.16 -4.421 -1.38211 0
M  V30 12045 C 1142.89 -5.50592 -1.60113 0
M  V30 12046 N 1142.39 -6.69158 -1.79442 0
M  V30 12047 N 1144.18 -5.38145 -1.62347 0
M  V30 12048 H 1136.33 -2.0825 0.417816 0
M  V30 12049 H 1138.6 -0.939753 0.124776 0
M  V30 12050 H 1138.3 -3.51459 -0.130088 0
M  V30 12051 H 1138.18 -3.27903 -1.86439 0
M  V30 12052 H 1140.56 -2.28718 -1.86472 0
M  V30 12053 H 1140.64 -2.55529 -0.117619 0
M  V30 12054 H 1140.29 -5.05363 -0.507038 0
M  V30 12055 H 1140.22 -4.75542 -2.26202 0
M  V30 12056 H 1142.71 -3.56644 -1.24954 0
M  V30 12057 H 1143.02 -7.47615 -1.95681 0
M  V30 12058 H 1141.37 -6.72175 -1.76653 0
M  V30 12059 H 1144.56 -4.44485 -1.46803 0
M  V30 12060 H 1144.73 -6.22764 -1.79077 0
M  V30 12061 N 1138.14 0.641106 -1.43971 0
M  V30 12062 C 1139.09 1.77474 -1.50352 0
M  V30 12063 C 1140.08 1.65173 -0.376052 0
M  V30 12064 O 1141.29 1.71373 -0.550572 0
M  V30 12065 H 1137.66 0.585747 -0.471597 0
M  V30 12066 H 1139.63 1.69213 -2.45784 0
M  V30 12067 C 1138.38 3.15778 -1.45532 0
M  V30 12068 H 1137.7 3.25886 -2.316 0
M  V30 12069 H 1139.14 3.95022 -1.54058 0
M  V30 12070 C 1137.6 3.36447 -0.174624 0
M  V30 12071 O 1138.13 3.9446 0.759215 0
M  V30 12072 N 1136.34 2.90487 -0.0809383 0
M  V30 12073 H 1135.89 2.43461 -0.841691 0
M  V30 12074 H 1135.84 3.04693 0.775231 0
M  V30 12075 N 1139.62 1.30703 0.880598 0
M  V30 12076 C 1140.55 1.20033 2.00286 0
M  V30 12077 C 1141.53 0.0899614 1.69862 0
M  V30 12078 O 1142.71 0.272747 1.92275 0
M  V30 12079 C 1139.84 0.895902 3.35546 0
M  V30 12080 C 1138.8 1.96468 3.80242 0
M  V30 12081 C 1138.12 1.51316 5.12843 0
M  V30 12082 C 1139.42 3.37637 3.98496 0
M  V30 12083 H 1141.12 2.13922 2.0947 0
M  V30 12084 H 1138.66 1.02989 1.00644 0
M  V30 12085 H 1140.61 0.807899 4.13583 0
M  V30 12086 H 1139.34 -0.0786636 3.26505 0
M  V30 12087 H 1138 2.0424 3.04437 0
M  V30 12088 H 1137.65 0.52674 5.00234 0
M  V30 12089 H 1137.35 2.22807 5.43719 0
M  V30 12090 H 1138.87 1.43903 5.93401 0
M  V30 12091 H 1140.28 3.326 4.66959 0
M  V30 12092 H 1138.68 4.07253 4.40755 0
M  V30 12093 H 1139.75 3.79205 3.02211 0
M  V30 12094 N 1141.09 -1.09351 1.1349 0
M  V30 12095 C 1142.04 -2.16008 0.812981 0
M  V30 12096 C 1143.01 -1.64566 -0.225252 0
M  V30 12097 O 1144.2 -1.90552 -0.0973261 0
M  V30 12098 C 1141.34 -3.43913 0.285996 0
M  V30 12099 C 1140.45 -4.09251 1.38338 0
M  V30 12100 C 1139.58 -5.24916 0.814652 0
M  V30 12101 C 1138.62 -5.82178 1.89038 0
M  V30 12102 N 1137.76 -6.89203 1.33955 0
M  V30 12103 H 1142.6 -2.42887 1.72655 0
M  V30 12104 H 1140.14 -1.19209 0.861833 0
M  V30 12105 H 1142.09 -4.17183 -0.0376794 0
M  V30 12106 H 1140.72 -3.17349 -0.590707 0
M  V30 12107 H 1139.78 -3.33838 1.82363 0
M  V30 12108 H 1141.09 -4.4784 2.19638 0
M  V30 12109 H 1140.24 -6.05086 0.442306 0
M  V30 12110 H 1138.98 -4.87691 -0.029416 0
M  V30 12111 H 1137.99 -5.00669 2.27179 0
M  V30 12112 H 1139.21 -6.21464 2.73787 0
M  V30 12113 H 1137.16 -6.53956 0.517494 0
M  V30 12114 H 1137.07 -7.26565 2.08902 0
M  V30 12115 H 1138.34 -7.73126 0.994793 0
M  V30 12116 N 1142.57 -0.928524 -1.27343 0
M  V30 12117 C 1143.48 -0.433901 -2.30553 0
M  V30 12118 C 1144.5 0.485832 -1.6708 0
M  V30 12119 O 1145.67 0.36844 -1.98001 0
M  V30 12120 C 1142.74 0.304617 -3.45359 0
M  V30 12121 C 1141.8 -0.650131 -4.24349 0
M  V30 12122 C 1141.03 0.0532372 -5.33673 0
M  V30 12123 O 1141.26 1.27246 -5.56026 0
M  V30 12124 O 1140.19 -0.619009 -5.98709 0
M  V30 12125 H 1144.02 -1.2909 -2.74899 0
M  V30 12126 H 1141.6 -0.693903 -1.32308 0
M  V30 12127 H 1143.48 0.721137 -4.15184 0
M  V30 12128 H 1142.16 1.13721 -3.03066 0
M  V30 12129 H 1141.06 -1.11635 -3.57055 0
M  V30 12130 H 1142.4 -1.44996 -4.70358 0
M  V30 12131 N 1144.05 1.41491 -0.694123 0
M  V30 12132 C 1145.47 1.55358 -0.365532 0
M  V30 12133 C 1145.67 1.66994 1.12762 0
M  V30 12134 O 1144.72 1.64756 1.91342 0
M  V30 12135 C 1146.03 2.79352 -1.11279 0
M  V30 12136 C 1147.58 2.93147 -1.097 0
M  V30 12137 C 1148.06 4.20027 -1.82597 0
M  V30 12138 N 1149.55 4.26981 -1.7956 0
M  V30 12139 C 1150.28 5.24013 -2.32805 0
M  V30 12140 N 1149.78 6.27083 -2.94515 0
M  V30 12141 N 1151.57 5.15943 -2.23069 0
M  V30 12142 H 1143.72 1.32183 -1.66257 0
M  V30 12143 H 1145.99 0.637624 -0.701527 0
M  V30 12144 H 1145.69 2.76958 -2.16765 0
M  V30 12145 H 1145.57 3.70827 -0.690439 0
M  V30 12146 H 1147.95 2.95057 -0.0504037 0
M  V30 12147 H 1148.03 2.02849 -1.55839 0
M  V30 12148 H 1147.68 4.18878 -2.87235 0
M  V30 12149 H 1147.61 5.09294 -1.33893 0
M  V30 12150 H 1150.1 3.53129 -1.34567 0
M  V30 12151 H 1150.41 6.97511 -3.32714 0
M  V30 12152 H 1148.76 6.27589 -2.98592 0
M  V30 12153 H 1151.95 4.34346 -1.74532 0
M  V30 12154 H 1152.12 5.91396 -2.64868 0
M  V30 12155 N 1145.53 0.438773 1.51369 0
M  V30 12156 C 1146.77 -0.127213 2.021 0
M  V30 12157 C 1147.1 -1.42587 1.32284 0
M  V30 12158 O 1146.36 -1.90986 0.426949 0
M  V30 12159 C 1146.66 -0.39186 3.55245 0
M  V30 12160 C 1146.32 0.821158 4.4336 0
M  V30 12161 C 1144.98 1.15381 4.67162 0
M  V30 12162 C 1147.34 1.6303 4.95046 0
M  V30 12163 C 1144.66 2.29626 5.39897 0
M  V30 12164 C 1147.02 2.76376 5.69033 0
M  V30 12165 C 1145.68 3.10094 5.91099 0
M  V30 12166 H 1144.95 -0.0465505 0.739536 0
M  V30 12167 H 1147.6 0.586261 1.82305 0
M  V30 12168 H 1145.9 -1.18724 3.73379 0
M  V30 12169 H 1147.6 -0.843228 3.92034 0
M  V30 12170 H 1144.19 0.551946 4.25031 0
M  V30 12171 H 1148.37 1.38651 4.76539 0
M  V30 12172 H 1143.63 2.56062 5.55196 0
M  V30 12173 H 1147.8 3.39442 6.08072 0
M  V30 12174 H 1145.43 3.98731 6.47238 0
M  V30 12175 N 1147.01 -1.56678 0.170181 0
M  V30 12176 C 1147.96 -2.14503 -0.772818 0
M  V30 12177 C 1148.94 -1.07896 -1.19362 0
M  V30 12178 O 1150.13 -1.34021 -1.15617 0
M  V30 12179 C 1147.26 -2.78844 -2.00253 0
M  V30 12180 C 1146.35 -3.92607 -1.60377 0
M  V30 12181 N 1146.74 -4.97464 -0.914519 0
M  V30 12182 C 1145.04 -4.03746 -1.89487 0
M  V30 12183 C 1145.74 -5.77248 -0.718343 0
M  V30 12184 N 1144.71 -5.2881 -1.25942 0
M  V30 12185 H 1148.51 -2.92941 -0.237231 0
M  V30 12186 H 1146.03 -1.62371 -0.0305396 0
M  V30 12187 H 1148.03 -3.18646 -2.68831 0
M  V30 12188 H 1146.69 -2.01886 -2.54307 0
M  V30 12189 H 1147.7 -5.14724 -0.572692 0
M  V30 12190 H 1144.37 -3.3789 -2.45227 0
M  V30 12191 H 1145.76 -6.71676 -0.173373 0
M  V30 12192 N 1148.48 0.103547 -1.57259 0
M  V30 12193 C 1149.42 1.15707 -1.9669 0
M  V30 12194 C 1150.39 1.39292 -0.838837 0
M  V30 12195 O 1151.58 1.53192 -1.09839 0
M  V30 12196 C 1148.71 2.50793 -2.27642 0
M  V30 12197 C 1147.75 2.43541 -3.50129 0
M  V30 12198 S 1148.58 1.86009 -5.02156 0
M  V30 12199 C 1149.74 3.22737 -5.36276 0
M  V30 12200 H 1149.97 0.820891 -2.85742 0
M  V30 12201 H 1147.51 0.310906 -1.51237 0
M  V30 12202 H 1149.46 3.28512 -2.46151 0
M  V30 12203 H 1148.13 2.81583 -1.39176 0
M  V30 12204 H 1147.32 3.43085 -3.692 0
M  V30 12205 H 1146.92 1.73948 -3.31086 0
M  V30 12206 H 1149.21 4.1899 -5.32404 0
M  V30 12207 H 1150.16 3.08477 -6.37375 0
M  V30 12208 H 1150.56 3.21878 -4.6374 0
M  V30 12209 N 1149.96 1.53094 0.37415 0
M  V30 12210 C 1151.19 1.73061 1.143 0
M  V30 12211 C 1151.61 0.454611 1.82524 0
M  V30 12212 O 1150.97 -0.590743 1.71406 0
M  V30 12213 C 1151.02 2.89086 2.15549 0
M  V30 12214 O 1150.12 2.57096 3.22452 0
M  V30 12215 H 1149.46 0.575009 0.332055 0
M  V30 12216 H 1151.99 1.99946 0.433897 0
M  V30 12217 H 1152 3.15007 2.59296 0
M  V30 12218 H 1150.68 3.81647 1.65283 0
M  V30 12219 H 1149.25 2.41965 2.83738 0
M  V30 12220 N 1151.44 -0.633461 1.44309 0
M  V30 12221 C 1152.37 -1.7583 1.45462 0
M  V30 12222 C 1153.35 -1.59545 0.313723 0
M  V30 12223 O 1154.53 -1.8146 0.51034 0
M  V30 12224 C 1151.66 -3.13375 1.28506 0
M  V30 12225 C 1150.71 -3.48315 2.46128 0
M  V30 12226 S 1151.54 -3.46058 4.08662 0
M  V30 12227 C 1152.7 -4.86226 3.94125 0
M  V30 12228 H 1152.93 -1.74585 2.4064 0
M  V30 12229 H 1150.46 -0.807868 1.31578 0
M  V30 12230 H 1152.42 -3.92748 1.19411 0
M  V30 12231 H 1151.08 -3.12161 0.348432 0
M  V30 12232 H 1150.27 -4.48397 2.30122 0
M  V30 12233 H 1149.88 -2.76399 2.51951 0
M  V30 12234 H 1152.17 -5.75393 3.57671 0
M  V30 12235 H 1153.11 -5.07287 4.9403 0
M  V30 12236 H 1153.52 -4.60691 3.26227 0
M  V30 12237 N 1152.92 -1.31168 -0.873655 0
M  V30 12238 C 1154.15 -1.23595 -1.65927 0
M  V30 12239 C 1154.56 0.199349 -1.87745 0
M  V30 12240 O 1153.92 1.13013 -1.43298 0
M  V30 12241 C 1153.97 -1.97268 -3.02932 0
M  V30 12242 O 1153.69 -3.35196 -2.82091 0
M  V30 12243 C 1155.19 -1.9649 -3.97374 0
M  V30 12244 H 1152.41 -0.427228 -0.517414 0
M  V30 12245 H 1154.96 -1.72983 -1.09074 0
M  V30 12246 H 1153.11 -1.51651 -3.56484 0
M  V30 12247 H 1153.52 -3.7266 -3.69087 0
M  V30 12248 H 1155 -2.52557 -4.90835 0
M  V30 12249 H 1155.48 -0.946525 -4.28879 0
M  V30 12250 H 1156.08 -2.4197 -3.49758 0
M  V30 12251 N 1154.4 1.08748 -1.14068 0
M  V30 12252 C 1155.31 2.19123 -0.837998 0
M  V30 12253 C 1156.32 1.73065 0.180164 0
M  V30 12254 O 1157.5 2.01398 0.00952285 0
M  V30 12255 C 1154.56 3.45257 -0.316 0
M  V30 12256 C 1153.62 4.05959 -1.39628 0
M  V30 12257 C 1152.86 5.26072 -0.899095 0
M  V30 12258 O 1153.08 5.69804 0.260744 0
M  V30 12259 O 1152.01 5.7808 -1.67652 0
M  V30 12260 H 1155.84 2.4748 -1.76033 0
M  V30 12261 H 1153.43 1.17816 -0.918675 0
M  V30 12262 H 1155.31 4.21389 -0.0306425 0
M  V30 12263 H 1153.98 3.18486 0.578654 0
M  V30 12264 H 1152.89 3.31432 -1.73505 0
M  V30 12265 H 1154.22 4.36971 -2.26533 0
M  V30 12266 N 1155.87 0.935264 1.26849 0
M  V30 12267 C 1156.78 0.446122 2.30319 0
M  V30 12268 C 1157.8 -0.476965 1.67335 0
M  V30 12269 O 1158.98 -0.357934 1.98194 0
M  V30 12270 C 1156.04 -0.286297 3.45516 0
M  V30 12271 C 1155.1 0.672626 4.23998 0
M  V30 12272 C 1154.34 -0.0249345 5.33694 0
M  V30 12273 O 1154.56 -1.24296 5.56693 0
M  V30 12274 O 1153.49 0.650752 5.98372 0
M  V30 12275 H 1157.32 1.30546 2.74211 0
M  V30 12276 H 1154.9 0.70091 1.31938 0
M  V30 12277 H 1156.79 -0.699109 4.1556 0
M  V30 12278 H 1155.46 -1.12112 3.03665 0
M  V30 12279 H 1154.37 1.13527 3.56458 0
M  V30 12280 H 1155.7 1.47489 4.69583 0
M  V30 12281 N 1157.35 -1.41121 0.701616 0
M  V30 12282 C 1158.28 -2.292 0.000880842 0
M  V30 12283 C 1159.3 -1.45102 -0.738192 0
M  V30 12284 O 1160.49 -1.68541 -0.587891 0
M  V30 12285 C 1157.59 -3.23094 -1.02292 0
M  V30 12286 C 1156.76 -4.35979 -0.352231 0
M  V30 12287 C 1155.82 -5.10408 -1.27947 0
M  V30 12288 O 1154.84 -5.63974 -0.769561 0
M  V30 12289 N 1156.05 -5.18442 -2.61147 0
M  V30 12290 H 1158.81 -2.8998 0.757094 0
M  V30 12291 H 1156.37 -1.52339 0.548126 0
M  V30 12292 H 1158.36 -3.69755 -1.64509 0
M  V30 12293 H 1156.93 -2.6358 -1.68061 0
M  V30 12294 H 1156.15 -3.91624 0.44992 0
M  V30 12295 H 1157.44 -5.08673 0.113882 0
M  V30 12296 H 1156.84 -4.76381 -3.05087 0
M  V30 12297 H 1155.4 -5.68659 -3.18544 0
M  V30 12298 N 1158.83 -0.446794 -1.51134 0
M  V30 12299 C 1159.76 0.350229 -2.30858 0
M  V30 12300 C 1160.74 1.0125 -1.36684 0
M  V30 12301 O 1161.93 1.01433 -1.65605 0
M  V30 12302 C 1159.06 1.4464 -3.15748 0
M  V30 12303 C 1158.01 0.907102 -4.18277 0
M  V30 12304 C 1157.34 2.09974 -4.91747 0
M  V30 12305 C 1158.64 -0.0649758 -5.2226 0
M  V30 12306 H 1160.33 -0.315105 -2.97737 0
M  V30 12307 H 1157.88 -0.152985 -1.43185 0
M  V30 12308 H 1159.83 2.01127 -3.70305 0
M  V30 12309 H 1158.55 2.14016 -2.46708 0
M  V30 12310 H 1157.21 0.364382 -3.64785 0
M  V30 12311 H 1156.86 2.77991 -4.19202 0
M  V30 12312 H 1156.56 1.74523 -5.61084 0
M  V30 12313 H 1158.08 2.66996 -5.49131 0
M  V30 12314 H 1159.5 0.4099 -5.71833 0
M  V30 12315 H 1157.9 -0.332529 -5.99178 0
M  V30 12316 H 1158.97 -0.998681 -4.74504 0
M  V30 12317 N 1160.31 1.56586 -0.178487 0
M  V30 12318 C 1161.24 2.155 0.780543 0
M  V30 12319 C 1162.25 1.11244 1.18864 0
M  V30 12320 O 1163.44 1.38403 1.12725 0
M  V30 12321 C 1160.54 2.68867 2.0631 0
M  V30 12322 C 1159.72 3.97854 1.81744 0
M  V30 12323 C 1158.77 4.36213 2.94287 0
M  V30 12324 O 1157.8 5.03954 2.64612 0
M  V30 12325 N 1159 3.98356 4.22247 0
M  V30 12326 H 1161.77 2.98419 0.276836 0
M  V30 12327 H 1159.33 1.61899 0.00405241 0
M  V30 12328 H 1161.32 2.91522 2.80708 0
M  V30 12329 H 1159.89 1.90496 2.47851 0
M  V30 12330 H 1159.11 3.83502 0.912127 0
M  V30 12331 H 1160.4 4.82083 1.62707 0
M  V30 12332 H 1159.8 3.43835 4.49215 0
M  V30 12333 H 1158.35 4.25998 4.93325 0
M  V30 12334 N 1161.79 -0.095206 1.57312 0
M  V30 12335 C 1162.72 -1.11627 2.05089 0
M  V30 12336 C 1163.7 -1.41782 0.939787 0
M  V30 12337 O 1164.88 -1.51813 1.21105 0
M  V30 12338 C 1162.01 -2.43618 2.47523 0
M  V30 12339 C 1160.97 -2.27872 3.62296 0
M  V30 12340 C 1160.29 -3.65038 3.90706 0
M  V30 12341 C 1161.59 -1.71936 4.93189 0
M  V30 12342 H 1163.29 -0.718795 2.90644 0
M  V30 12343 H 1160.83 -0.344315 1.39823 0
M  V30 12344 H 1162.79 -3.1532 2.79556 0
M  V30 12345 H 1161.51 -2.85301 1.58968 0
M  V30 12346 H 1160.17 -1.58615 3.3051 0
M  V30 12347 H 1159.82 -4.04249 2.99319 0
M  V30 12348 H 1159.52 -3.55349 4.67976 0
M  V30 12349 H 1161.04 -4.38208 4.25213 0
M  V30 12350 H 1162.45 -2.33479 5.23603 0
M  V30 12351 H 1160.85 -1.73006 5.74621 0
M  V30 12352 H 1161.92 -0.678789 4.80125 0
M  V30 12353 N 1163.26 -1.53291 -0.366026 0
M  V30 12354 C 1164.19 -1.82675 -1.45437 0
M  V30 12355 C 1165.18 -0.680227 -1.55907 0
M  V30 12356 O 1166.36 -0.930032 -1.70482 0
M  V30 12357 C 1163.49 -2.01626 -2.8278 0
M  V30 12358 C 1162.44 -3.17391 -2.87135 0
M  V30 12359 C 1161.77 -3.21634 -4.27148 0
M  V30 12360 C 1163.07 -4.5599 -2.54697 0
M  V30 12361 H 1164.76 -2.73818 -1.21096 0
M  V30 12362 H 1162.31 -1.31754 -0.581108 0
M  V30 12363 H 1164.26 -2.20765 -3.58944 0
M  V30 12364 H 1162.99 -1.07193 -3.08508 0
M  V30 12365 H 1161.65 -2.98071 -2.13422 0
M  V30 12366 H 1161.29 -2.2484 -4.49951 0
M  V30 12367 H 1160.99 -3.99414 -4.30978 0
M  V30 12368 H 1162.52 -3.42957 -5.05186 0
M  V30 12369 H 1163.93 -4.75294 -3.20575 0
M  V30 12370 H 1162.33 -5.36008 -2.69844 0
M  V30 12371 H 1163.4 -4.61133 -1.49949 0
M  V30 12372 N 1164.74 0.6258 -1.44643 0
M  V30 12373 C 1165.99 1.3873 -1.47925 0
M  V30 12374 C 1166.32 1.93868 -0.113469 0
M  V30 12375 O 1165.6 1.73976 0.869639 0
M  V30 12376 C 1165.88 2.54867 -2.54391 0
M  V30 12377 C 1165.73 2.05044 -4.00346 0
M  V30 12378 C 1167.05 3.57043 -2.57309 0
M  V30 12379 H 1164.17 0.503087 -0.538584 0
M  V30 12380 H 1166.81 0.707102 -1.76352 0
M  V30 12381 H 1164.96 3.12894 -2.30281 0
M  V30 12382 H 1166.63 1.51807 -4.35606 0
M  V30 12383 H 1164.88 1.36185 -4.11869 0
M  V30 12384 H 1165.55 2.88681 -4.70497 0
M  V30 12385 H 1168.02 3.08826 -2.78865 0
M  V30 12386 H 1166.9 4.35818 -3.33698 0
M  V30 12387 H 1167.16 4.11464 -1.61708 0
M  V30 12388 N 1166.22 1.31629 0.866686 0
M  V30 12389 C 1167.13 1.21524 2.00671 0
M  V30 12390 C 1168.15 0.131277 1.73504 0
M  V30 12391 O 1169.32 0.349699 1.98341 0
M  V30 12392 C 1166.39 0.926491 3.34091 0
M  V30 12393 C 1165.45 2.09769 3.7456 0
M  V30 12394 C 1164.68 1.82262 5.01614 0
M  V30 12395 O 1164.9 0.759329 5.65323 0
M  V30 12396 O 1163.84 2.68031 5.38928 0
M  V30 12397 H 1167.66 2.17335 2.1213 0
M  V30 12398 H 1165.25 1.11401 0.995499 0
M  V30 12399 H 1167.13 0.78144 4.14091 0
M  V30 12400 H 1165.81 -0.00155829 3.237 0
M  V30 12401 H 1164.71 2.29816 2.95187 0
M  V30 12402 H 1166.05 3.0081 3.89582 0
M  V30 12403 N 1167.7 -1.08142 1.14644 0
M  V30 12404 C 1168.63 -2.15022 0.793614 0
M  V30 12405 C 1169.64 -1.61679 -0.190729 0
M  V30 12406 O 1170.83 -1.78472 0.0313696 0
M  V30 12407 C 1167.93 -3.38532 0.157785 0
M  V30 12408 C 1167.11 -4.21252 1.17753 0
M  V30 12409 C 1166.17 -5.23158 0.564968 0
M  V30 12410 O 1165.19 -5.5578 1.22869 0
M  V30 12411 N 1166.39 -5.7677 -0.657022 0
M  V30 12412 H 1169.16 -2.45893 1.71338 0
M  V30 12413 H 1166.72 -1.23976 1.04122 0
M  V30 12414 H 1168.71 -4.03834 -0.264586 0
M  V30 12415 H 1167.28 -3.05441 -0.665168 0
M  V30 12416 H 1166.5 -3.51888 1.77675 0
M  V30 12417 H 1167.79 -4.73335 1.86632 0
M  V30 12418 H 1167.19 -5.52503 -1.21478 0
M  V30 12419 H 1165.74 -6.4374 -1.02186 0
M  V30 12420 N 1169.18 -0.941978 -1.26351 0
M  V30 12421 C 1170.11 -0.396486 -2.24729 0
M  V30 12422 C 1171.09 0.51514 -1.54224 0
M  V30 12423 O 1172.27 0.452405 -1.82991 0
M  V30 12424 C 1169.4 0.430232 -3.35956 0
M  V30 12425 C 1168.45 -0.419981 -4.24427 0
M  V30 12426 S 1169.28 -1.84442 -5.02734 0
M  V30 12427 C 1170.43 -1.02578 -6.17437 0
M  V30 12428 H 1170.67 -1.23025 -2.70651 0
M  V30 12429 H 1168.2 -0.745148 -1.35229 0
M  V30 12430 H 1170.16 0.901315 -4.00483 0
M  V30 12431 H 1168.82 1.23868 -2.88644 0
M  V30 12432 H 1168.01 0.213475 -5.03548 0
M  V30 12433 H 1167.61 -0.82578 -3.6477 0
M  V30 12434 H 1169.91 -0.268431 -6.76968 0
M  V30 12435 H 1170.85 -1.79047 -6.85089 0
M  V30 12436 H 1171.26 -0.561488 -5.61701 0
M  V30 12437 N 1170.66 1.40747 -0.709091 0
M  V30 12438 C 1171.9 2.013 -0.246174 0
M  V30 12439 C 1172.23 1.56078 1.15556 0
M  V30 12440 O 1171.51 0.777941 1.78265 0
M  V30 12441 C 1171.79 3.58685 -0.318945 0
M  V30 12442 C 1171.65 4.13997 -1.75859 0
M  V30 12443 C 1172.96 4.38981 0.31358 0
M  V30 12444 H 1170.08 0.73137 -0.0909255 0
M  V30 12445 H 1172.73 1.67312 -0.900365 0
M  V30 12446 H 1170.88 3.8777 0.23805 0
M  V30 12447 H 1172.55 3.95735 -2.37047 0
M  V30 12448 H 1170.79 3.6853 -2.28841 0
M  V30 12449 H 1171.46 5.23158 -1.76095 0
M  V30 12450 H 1173.94 4.15789 -0.160939 0
M  V30 12451 H 1172.81 5.48409 0.232184 0
M  V30 12452 H 1173.07 4.19474 1.39621 0
M  V30 12453 N 1172.13 0.454803 1.50895 0
M  V30 12454 C 1173.41 -0.166559 1.9489 0
M  V30 12455 C 1173.79 -1.58492 1.3944 0
M  V30 12456 O 1173.14 -2.20788 0.588622 0
M  V30 12457 C 1173.35 -0.126506 3.48771 0
M  V30 12458 C 1174.7 -0.32347 4.23366 0
M  V30 12459 O 1175.72 -0.203835 3.55616 0
M  V30 12460 O 1174.58 -0.563292 5.43589 0
M  V30 12461 H 1171.67 -0.120523 0.818171 0
M  V30 12462 H 1174.22 0.514037 1.61727 0
M  V30 12463 H 1172.99 0.864407 3.81633 0
M  V30 12464 H 1172.61 -0.849264 3.88424 0
M  V30 12465 N 1173.61 -1.56489 0.186789 0
M  V30 12466 C 1174.86 -1.96952 -0.453261 0
M  V30 12467 C 1175.18 -1.07451 -1.62725 0
M  V30 12468 O 1174.45 -0.144046 -1.9537 0
M  V30 12469 H 1173.03 -0.727295 -0.170445 0
M  V30 12470 H 1175.69 -1.92999 0.271584 0
M  V30 12471 H 1174.79 -3.01594 -0.802951 0
M  V30 12472 N 1175.09 0.086862 -1.5736 0
M  V30 12473 C 1176.31 0.806017 -1.91097 0
M  V30 12474 C 1176.74 1.71082 -0.78183 0
M  V30 12475 O 1176.1 1.79335 0.266175 0
M  V30 12476 C 1176.15 1.5884 -3.23732 0
M  V30 12477 O 1175.25 2.69798 -3.11902 0
M  V30 12478 H 1174.59 0.220899 -0.626179 0
M  V30 12479 H 1177.12 0.059619 -2.04513 0
M  V30 12480 H 1177.13 1.97088 -3.5724 0
M  V30 12481 H 1175.81 0.924426 -4.05496 0
M  V30 12482 H 1174.38 2.34519 -2.89923 0
M  V30 12483 N 1176.57 1.53483 0.357892 0
M  V30 12484 C 1177.5 1.75257 1.46151 0
M  V30 12485 C 1178.48 0.601167 1.51079 0
M  V30 12486 O 1179.66 0.834661 1.69014 0
M  V30 12487 C 1176.79 1.8383 2.84472 0
M  V30 12488 C 1175.84 3.05866 2.97234 0
M  V30 12489 S 1176.67 4.65225 2.6519 0
M  V30 12490 C 1177.82 4.76657 4.05646 0
M  V30 12491 H 1178.06 2.6859 1.27462 0
M  V30 12492 H 1175.59 1.44169 0.552697 0
M  V30 12493 H 1177.55 1.89454 3.64167 0
M  V30 12494 H 1176.21 0.915345 3.00467 0
M  V30 12495 H 1175.4 3.08497 3.98555 0
M  V30 12496 H 1175 2.98393 2.25471 0
M  V30 12497 H 1177.3 4.57185 4.99988 0
M  V30 12498 H 1178.24 5.7873 4.08016 0
M  V30 12499 H 1178.65 4.05226 3.93004 0
M  V30 12500 N 1178.05 -0.61812 1.44973 0
M  V30 12501 C 1179.46 -0.937734 1.29146 0
M  V30 12502 C 1179.66 -2.00104 0.236749 0
M  V30 12503 O 1178.72 -2.49731 -0.372923 0
M  V30 12504 C 1180.03 -1.38865 2.66715 0
M  V30 12505 C 1181.58 -1.50343 2.74529 0
M  V30 12506 C 1182.05 -1.98814 4.12598 0
M  V30 12507 N 1183.54 -2.06064 4.14839 0
M  V30 12508 C 1184.28 -2.44768 5.18533 0
M  V30 12509 N 1183.78 -2.82516 6.32579 0
M  V30 12510 N 1185.57 -2.45016 5.05889 0
M  V30 12511 H 1177.72 0.084872 2.1223 0
M  V30 12512 H 1179.98 -0.0246744 0.947679 0
M  V30 12513 H 1179.69 -0.681583 3.45032 0
M  V30 12514 H 1179.56 -2.3572 2.94475 0
M  V30 12515 H 1181.95 -2.20144 1.96522 0
M  V30 12516 H 1182.03 -0.518297 2.50494 0
M  V30 12517 H 1181.67 -1.29604 4.91086 0
M  V30 12518 H 1181.6 -2.98223 4.34017 0
M  V30 12519 H 1184.1 -1.79525 3.32535 0
M  V30 12520 H 1184.41 -3.109 7.07504 0
M  V30 12521 H 1182.75 -2.80237 6.35997 0
M  V30 12522 H 1185.94 -2.14925 4.15842 0
M  V30 12523 H 1186.12 -2.74854 5.86821 0
M  V30 12524 N 1179.52 -1.32087 -0.859693 0
M  V30 12525 C 1180.75 -1.25486 -1.6513 0
M  V30 12526 C 1181.17 0.175015 -1.87284 0
M  V30 12527 O 1180.53 1.12468 -1.42199 0
M  V30 12528 C 1180.58 -2.01469 -2.9907 0
M  V30 12529 O 1179.68 -1.35904 -3.89363 0
M  V30 12530 H 1179.02 -0.432728 -0.503629 0
M  V30 12531 H 1181.55 -1.74322 -1.07112 0
M  V30 12532 H 1181.56 -2.11452 -3.4893 0
M  V30 12533 H 1180.24 -3.05448 -2.82266 0
M  V30 12534 H 1178.82 -1.34437 -3.47823 0
M  V30 12535 N 1181 1.07532 -1.15215 0
M  V30 12536 C 1182.25 1.79474 -0.920439 0
M  V30 12537 C 1182.56 1.87593 0.553926 0
M  V30 12538 O 1183.77 2.56037 0.903169 0
M  V30 12539 C 1182.23 3.22509 -1.59738 0
M  V30 12540 C 1181.83 3.22596 -3.10863 0
M  V30 12541 C 1183.58 3.99072 -1.44714 0
M  V30 12542 C 1181.48 4.60273 -3.71352 0
M  V30 12543 H 1180.41 0.672625 -0.340722 0
M  V30 12544 H 1183.07 1.2071 -1.38208 0
M  V30 12545 H 1181.45 3.81454 -1.06342 0
M  V30 12546 H 1182.62 2.73306 -3.70999 0
M  V30 12547 H 1180.94 2.5953 -3.25627 0
M  V30 12548 H 1183.53 5.00823 -1.87299 0
M  V30 12549 H 1183.88 4.14428 -0.394386 0
M  V30 12550 H 1184.41 3.46617 -1.95195 0
M  V30 12551 H 1181.15 4.50122 -4.76519 0
M  V30 12552 H 1180.67 5.09809 -3.15998 0
M  V30 12553 H 1182.35 5.29243 -3.7217 0
M  V30 12554 N 1182.48 0.948665 1.2585 0
M  V30 12555 C 1183.71 0.617229 1.97479 0
M  V30 12556 C 1184.12 -0.809406 1.7057 0
M  V30 12557 O 1183.48 -1.54066 0.97826 0
M  V30 12558 C 1183.53 0.859065 3.51144 0
M  V30 12559 O 1183.25 2.2296 3.77121 0
M  V30 12560 C 1184.75 0.539197 4.40009 0
M  V30 12561 H 1181.97 0.231933 0.629641 0
M  V30 12562 H 1184.52 1.27141 1.60173 0
M  V30 12563 H 1182.67 0.25138 3.86584 0
M  V30 12564 H 1183.09 2.29524 4.71613 0
M  V30 12565 H 1184.56 0.758986 5.46757 0
M  V30 12566 H 1185.04 -0.526062 4.36038 0
M  V30 12567 H 1185.64 1.12594 4.10125 0
M  V30 12568 N 1183.96 -1.40369 0.716545 0
M  V30 12569 C 1185.19 -2.05181 0.266143 0
M  V30 12570 C 1185.6 -1.53988 -1.09239 0
M  V30 12571 O 1184.96 -0.696859 -1.68672 0
M  V30 12572 C 1185.01 -3.60713 0.238384 0
M  V30 12573 O 1184.73 -4.10018 1.54328 0
M  V30 12574 C 1186.23 -4.42701 -0.230453 0
M  V30 12575 H 1183.45 -0.66028 0.119463 0
M  V30 12576 H 1186 -1.7976 0.97502 0
M  V30 12577 H 1184.15 -3.85101 -0.421466 0
M  V30 12578 H 1184.56 -5.0422 1.4444 0
M  V30 12579 H 1186.04 -5.51642 -0.198728 0
M  V30 12580 H 1186.52 -4.20354 -1.27276 0
M  V30 12581 H 1187.12 -4.23423 0.399155 0
M  V30 12582 N 1185.44 -0.462799 -1.50652 0
M  V30 12583 C 1186.38 0.335664 -2.28346 0
M  V30 12584 C 1187.35 0.994541 -1.33034 0
M  V30 12585 O 1188.54 1.00857 -1.61964 0
M  V30 12586 C 1185.68 1.41648 -3.1469 0
M  V30 12587 C 1184.79 0.773207 -4.25024 0
M  V30 12588 C 1183.93 1.83121 -4.98638 0
M  V30 12589 C 1182.97 1.16774 -6.00858 0
M  V30 12590 N 1182.1 2.16823 -6.67782 0
M  V30 12591 H 1186.94 -0.333202 -2.96131 0
M  V30 12592 H 1184.48 -0.176166 -1.46041 0
M  V30 12593 H 1186.44 2.05468 -3.63096 0
M  V30 12594 H 1185.07 2.05462 -2.48968 0
M  V30 12595 H 1184.12 0.0226444 -3.80393 0
M  V30 12596 H 1185.43 0.249061 -4.98178 0
M  V30 12597 H 1184.59 2.54543 -5.5072 0
M  V30 12598 H 1183.32 2.38915 -4.25172 0
M  V30 12599 H 1182.33 0.439112 -5.48044 0
M  V30 12600 H 1183.55 0.616809 -6.76293 0
M  V30 12601 H 1181.5 2.71649 -5.97112 0
M  V30 12602 H 1181.42 1.69371 -7.36783 0
M  V30 12603 H 1182.69 2.8765 -7.24484 0
M  V30 12604 N 1186.91 1.56388 -0.195085 0
M  V30 12605 C 1187.84 2.22091 0.720971 0
M  V30 12606 C 1188.83 1.184 1.22128 0
M  V30 12607 O 1190.01 1.46907 1.27012 0
M  V30 12608 C 1187.14 2.88025 1.94059 0
M  V30 12609 C 1186.09 3.97959 1.5752 0
M  V30 12610 C 1185.42 4.51058 2.87143 0
M  V30 12611 C 1186.72 5.16365 0.785145 0
M  V30 12612 H 1188.41 2.98898 0.173245 0
M  V30 12613 H 1185.96 1.43767 0.0818868 0
M  V30 12614 H 1187.91 3.32671 2.58666 0
M  V30 12615 H 1186.64 2.08623 2.51285 0
M  V30 12616 H 1185.3 3.54004 0.952715 0
M  V30 12617 H 1184.94 3.68418 3.42458 0
M  V30 12618 H 1184.64 5.25237 2.63439 0
M  V30 12619 H 1186.17 4.98406 3.52738 0
M  V30 12620 H 1187.58 5.57556 1.33431 0
M  V30 12621 H 1185.98 5.9661 0.646231 0
M  V30 12622 H 1187.05 4.84428 -0.213789 0
M  V30 12623 N 1188.39 -0.0785156 1.57404 0
M  V30 12624 C 1189.62 -0.790893 1.90862 0
M  V30 12625 C 1190.03 -1.7198 0.788644 0
M  V30 12626 O 1189.37 -1.82027 -0.247322 0
M  V30 12627 C 1189.44 -1.64362 3.19727 0
M  V30 12628 C 1189.1 -0.884796 4.48353 0
M  V30 12629 C 1190.1 -0.207074 5.19487 0
M  V30 12630 C 1187.78 -0.853962 4.94988 0
M  V30 12631 C 1189.78 0.491329 6.35504 0
M  V30 12632 C 1187.46 -0.151783 6.10911 0
M  V30 12633 C 1188.46 0.519669 6.8102 0
M  V30 12634 O 1188.15 1.21055 7.94733 0
M  V30 12635 H 1187.88 -0.230427 0.635515 0
M  V30 12636 H 1190.43 -0.0551231 2.05326 0
M  V30 12637 H 1188.66 -2.42203 3.01454 0
M  V30 12638 H 1190.35 -2.23406 3.38887 0
M  V30 12639 H 1191.12 -0.222247 4.84491 0
M  V30 12640 H 1187 -1.36605 4.40296 0
M  V30 12641 H 1190.54 1.01598 6.90162 0
M  V30 12642 H 1186.44 -0.134514 6.4536 0
M  V30 12643 H 1187.21 1.11914 8.10813 0
M  V30 12644 N 1189.87 -1.5367 -0.349747 0
M  V30 12645 C 1191.15 -1.61238 -1.10732 0
M  V30 12646 C 1191.53 -0.429756 -2.06679 0
M  V30 12647 O 1190.88 0.578564 -2.21054 0
M  V30 12648 C 1191.09 -2.97022 -1.83245 0
M  V30 12649 C 1192.43 -3.52158 -2.37212 0
M  V30 12650 O 1193.46 -2.99156 -1.9335 0
M  V30 12651 O 1192.32 -4.44853 -3.1744 0
M  V30 12652 H 1189.41 -0.65191 -0.508864 0
M  V30 12653 H 1191.96 -1.66015 -0.351738 0
M  V30 12654 H 1190.73 -3.74535 -1.13311 0
M  V30 12655 H 1190.35 -2.95808 -2.65675 0
M  V30 12656 N 1191.35 0.610423 -1.45298 0
M  V30 12657 C 1192.6 1.3668 -1.48872 0
M  V30 12658 C 1192.92 1.94562 -0.130686 0
M  V30 12659 O 1192.19 1.76996 0.839607 0
M  V30 12660 H 1190.77 0.507393 -0.548235 0
M  V30 12661 H 1193.43 0.716997 -1.81232 0
M  V30 12662 H 1192.53 2.18766 -2.22593 0
M  V30 12663 N 1192.83 1.32541 0.852676 0
M  V30 12664 C 1194.07 1.23214 1.607 0
M  V30 12665 C 1194.4 -0.205542 1.93411 0
M  V30 12666 O 1193.66 -1.15907 1.57683 0
M  V30 12667 C 1193.96 2.039 2.9353 0
M  V30 12668 C 1193.62 3.53237 2.8024 0
M  V30 12669 C 1192.28 3.93953 2.76323 0
M  V30 12670 C 1194.64 4.48194 2.6603 0
M  V30 12671 C 1191.96 5.27865 2.56077 0
M  V30 12672 C 1194.32 5.82251 2.47319 0
M  V30 12673 C 1192.98 6.22166 2.41796 0
M  V30 12674 H 1192.25 0.450873 0.588043 0
M  V30 12675 H 1194.9 1.63988 0.988954 0
M  V30 12676 H 1193.2 1.55861 3.59464 0
M  V30 12677 H 1194.9 1.94051 3.50921 0
M  V30 12678 H 1191.49 3.209 2.84114 0
M  V30 12679 H 1195.67 4.17656 2.681 0
M  V30 12680 H 1190.93 5.57845 2.50237 0
M  V30 12681 H 1195.1 6.55442 2.35305 0
M  V30 12682 H 1192.73 7.2587 2.25868 0
M  V30 12683 N 1194.3 -1.0692 1.15784 0
M  V30 12684 C 1195.24 -2.14168 0.816375 0
M  V30 12685 C 1196.25 -1.61872 -0.17357 0
M  V30 12686 O 1197.44 -1.78429 0.0502973 0
M  V30 12687 C 1194.54 -3.38346 0.193682 0
M  V30 12688 C 1193.71 -4.19979 1.22215 0
M  V30 12689 C 1192.77 -5.2253 0.620424 0
M  V30 12690 O 1191.8 -5.54446 1.28757 0
M  V30 12691 N 1193 -5.77434 -0.595811 0
M  V30 12692 H 1195.76 -2.44062 1.73937 0
M  V30 12693 H 1193.32 -1.22865 1.05431 0
M  V30 12694 H 1195.32 -4.04092 -0.22174 0
M  V30 12695 H 1193.89 -3.06129 -0.632735 0
M  V30 12696 H 1193.11 -3.49984 1.81397 0
M  V30 12697 H 1194.39 -4.71329 1.91641 0
M  V30 12698 H 1193.79 -5.5376 -1.15611 0
M  V30 12699 H 1192.35 -6.44788 -0.953529 0
M  V30 12700 N 1195.78 -0.955326 -1.25345 0
M  V30 12701 C 1197.01 -0.626783 -1.96863 0
M  V30 12702 C 1197.42 0.80547 -1.71198 0
M  V30 12703 O 1196.76 1.55049 -0.985163 0
M  V30 12704 C 1196.83 -0.806404 -3.50339 0
M  V30 12705 C 1196.49 -2.21595 -3.99681 0
M  V30 12706 C 1197.49 -3.19268 -4.10322 0
M  V30 12707 C 1195.17 -2.54032 -4.33328 0
M  V30 12708 C 1197.17 -4.47471 -4.53926 0
M  V30 12709 C 1194.85 -3.82465 -4.76617 0
M  V30 12710 C 1195.85 -4.78997 -4.86879 0
M  V30 12711 O 1195.54 -6.0514 -5.29208 0
M  V30 12712 H 1195.27 -0.233854 -0.634262 0
M  V30 12713 H 1197.82 -1.28232 -1.60455 0
M  V30 12714 H 1196.05 -0.0937184 -3.86586 0
M  V30 12715 H 1197.74 -0.47881 -4.03066 0
M  V30 12716 H 1198.51 -2.95534 -3.84558 0
M  V30 12717 H 1194.39 -1.79623 -4.24566 0
M  V30 12718 H 1197.93 -5.22819 -4.6185 0
M  V30 12719 H 1193.83 -4.06005 -5.01827 0
M  V30 12720 H 1194.6 -6.08527 -5.47392 0
M  V30 12721 N 1197.26 1.39987 -0.723979 0
M  V30 12722 C 1198.19 2.3332 -0.0917282 0
M  V30 12723 C 1199.17 1.53335 0.736361 0
M  V30 12724 O 1200.36 1.81771 0.683582 0
M  V30 12725 C 1197.49 3.3737 0.824549 0
M  V30 12726 C 1196.44 4.2788 0.101452 0
M  V30 12727 C 1195.77 5.22536 1.13401 0
M  V30 12728 C 1197.07 5.11649 -1.04939 0
M  V30 12729 H 1198.76 2.86441 -0.871318 0
M  V30 12730 H 1196.31 1.37725 -0.420448 0
M  V30 12731 H 1198.26 4.01607 1.27631 0
M  V30 12732 H 1196.98 2.82663 1.63613 0
M  V30 12733 H 1195.64 3.65107 -0.330569 0
M  V30 12734 H 1195.29 4.64131 1.93886 0
M  V30 12735 H 1194.99 5.83938 0.65502 0
M  V30 12736 H 1196.52 5.89651 1.58569 0
M  V30 12737 H 1197.93 5.69293 -0.6766 0
M  V30 12738 H 1196.33 5.82137 -1.45729 0
M  V30 12739 H 1197.4 4.47132 -1.8762 0
M  V30 12740 N 1198.74 0.470782 1.50404 0
M  V30 12741 C 1199.97 -0.0820134 2.06737 0
M  V30 12742 C 1200.38 -1.33535 1.33468 0
M  V30 12743 O 1199.74 -1.77975 0.403872 0
M  V30 12744 C 1199.79 -0.370427 3.59597 0
M  V30 12745 O 1199.51 0.8332 4.30104 0
M  V30 12746 C 1201.01 -0.970222 4.32552 0
M  V30 12747 H 1198.23 0.00694502 0.670964 0
M  V30 12748 H 1200.78 0.659476 1.93575 0
M  V30 12749 H 1198.93 -1.06185 3.72563 0
M  V30 12750 H 1199.35 0.577614 5.2131 0
M  V30 12751 H 1200.82 -1.1218 5.40481 0
M  V30 12752 H 1201.3 -1.96024 3.93028 0
M  V30 12753 H 1201.9 -0.31719 4.24116 0
M  V30 12754 N 1200.22 -1.56282 0.203376 0
M  V30 12755 C 1201.17 -2.20822 -0.730784 0
M  V30 12756 C 1202.16 -1.18193 -1.21354 0
M  V30 12757 O 1203.37 -1.36318 -1.17547 0
M  V30 12758 H 1199.74 -0.707792 -0.254036 0
M  V30 12759 H 1201.71 -2.97955 -0.162825 0
M  V30 12760 C 1200.46 -2.88803 -1.93618 0
M  V30 12761 H 1199.78 -3.67521 -1.57379 0
M  V30 12762 H 1201.22 -3.37387 -2.56799 0
M  V30 12763 C 1199.68 -1.90285 -2.78017 0
M  V30 12764 O 1200.21 -1.40833 -3.76203 0
M  V30 12765 N 1198.42 -1.58332 -2.43679 0
M  V30 12766 H 1197.97 -1.9874 -1.63891 0
M  V30 12767 H 1197.92 -0.926722 -3.00432 0
M  V30 12768 N 1201.7 0.070167 -1.57444 0
M  V30 12769 C 1202.94 0.767495 -1.8696 0
M  V30 12770 C 1203.26 1.78032 -0.795595 0
M  V30 12771 O 1202.53 1.95112 0.175566 0
M  V30 12772 H 1201.11 0.286443 -0.689898 0
M  V30 12773 H 1203.78 0.0458692 -1.94846 0
M  V30 12774 H 1202.87 1.28269 -2.84523 0
M  V30 12775 N 1203.17 1.53854 0.341593 0
M  V30 12776 C 1204.42 1.7041 1.07905 0
M  V30 12777 C 1204.74 0.475039 1.89744 0
M  V30 12778 O 1205.94 0.521589 2.66443 0
M  V30 12779 C 1204.4 3.01342 1.96776 0
M  V30 12780 C 1204.01 4.31592 1.20135 0
M  V30 12781 C 1205.75 3.27264 2.70367 0
M  V30 12782 C 1203.66 5.53598 2.08047 0
M  V30 12783 H 1202.59 0.635005 0.406553 0
M  V30 12784 H 1205.24 1.80353 0.338409 0
M  V30 12785 H 1203.62 2.85261 2.74667 0
M  V30 12786 H 1204.79 4.58382 0.471404 0
M  V30 12787 H 1203.11 4.12298 0.583039 0
M  V30 12788 H 1205.71 4.15607 3.36415 0
M  V30 12789 H 1206.05 2.44357 3.37039 0
M  V30 12790 H 1206.58 3.4413 1.99548 0
M  V30 12791 H 1203.32 6.39053 1.45914 0
M  V30 12792 H 1202.84 5.31052 2.78825 0
M  V30 12793 H 1204.52 5.89314 2.67055 0
M  V30 12794 N 1204.65 -0.602709 1.4562 0
M  V30 12795 C 1205.58 -1.72705 1.49159 0
M  V30 12796 C 1206.56 -1.58843 0.347494 0
M  V30 12797 O 1207.75 -1.80337 0.548716 0
M  V30 12798 C 1204.87 -3.10579 1.35125 0
M  V30 12799 C 1203.92 -3.43016 2.53461 0
M  V30 12800 S 1204.75 -3.37311 4.1591 0
M  V30 12801 C 1205.91 -4.77757 4.0435 0
M  V30 12802 H 1206.14 -1.69441 2.44289 0
M  V30 12803 H 1203.67 -0.779776 1.33262 0
M  V30 12804 H 1205.63 -3.90127 1.27715 0
M  V30 12805 H 1204.29 -3.11352 0.414568 0
M  V30 12806 H 1203.49 -4.43415 2.39581 0
M  V30 12807 H 1203.09 -2.70993 2.57757 0
M  V30 12808 H 1205.38 -5.67677 3.69796 0
M  V30 12809 H 1206.32 -4.96694 5.04679 0
M  V30 12810 H 1206.73 -4.53667 3.35926 0
M  V30 12811 O 1206.17 -1.43203 -0.746673 0
M  V30 12812 H 1206.86 -1.34308 -1.39575 0
M  V30 END ATOM
M  V30 BEGIN BOND
M  V30 END BOND
M  V30 END CTAB
M  END
$$$$
