drugbank_target|Q9UBV8 Peflin (DB11093; DB11348; DB14481)
 OpenBabel12092121053D

  0  0  0     0  0            999 V3000
M  V30 BEGIN CTAB
M  V30 COUNTS 4144 4217 0 0 0
M  V30 BEGIN ATOM
M  V30 1 H -0.908 1.98254 -0.117106 0
M  V30 2 N 0 1.576 0 0
M  V30 3 C 0.933 2.03868 1.02534 0
M  V30 4 C 1.911 0.928543 1.3348 0
M  V30 5 O 3.095 1.19667 1.45644 0
M  V30 6 C 0.222 2.43627 2.35294 0
M  V30 7 C -0.732 3.65373 2.2001 0
M  V30 8 S 0.101 5.13292 1.52614 0
M  V30 9 C 1.257 5.56322 2.86805 0
M  V30 10 H 1.49 2.90518 0.631377 0
M  V30 11 H -0.977 1.52953 0.210867 0
M  V30 12 H 0.981 2.67203 3.11629 0
M  V30 13 H -0.358 1.57376 2.7183 0
M  V30 14 H -1.165 3.90944 3.18086 0
M  V30 15 H -1.563 3.418 1.51819 0
M  V30 16 H 0.729 5.58782 3.83104 0
M  V30 17 H 1.672 6.56266 2.65933 0
M  V30 18 H 2.08 4.83886 2.90714 0
M  V30 19 N 1.4781 -0.272755 1.55222 0
M  V30 20 C 2.4411 -1.32041 1.87344 0
M  V30 21 C 3.4411 -1.42342 0.74803 0
M  V30 22 O 4.6311 -1.41488 1.0162 0
M  V30 23 C 1.7631 -2.70173 2.07893 0
M  V30 24 H 2.9561 -1.04789 2.80997 0
M  V30 25 H 0.5091 -0.51083 1.47717 0
M  V30 26 H 1.2441 -3.02605 1.16622 0
M  V30 27 H 1.0291 -2.64082 2.89833 0
M  V30 28 H 2.5191 -3.45869 2.34017 0
M  V30 29 N 2.9562 -1.48159 -0.537278 0
M  V30 30 C 4.1812 -1.59707 -1.32319 0
M  V30 31 C 4.6062 -0.254859 -1.86365 0
M  V30 32 O 3.9642 0.772378 -1.64024 0
M  V30 33 C 4.0122 -2.6412 -2.45505 0
M  V30 34 O 3.1162 -2.20774 -3.48328 0
M  V30 35 H 2.4572 -0.535791 -0.392204 0
M  V30 36 H 4.9872 -1.94092 -0.647268 0
M  V30 37 H 4.9972 -2.85166 -2.91795 0
M  V30 38 H 3.6722 -3.61567 -2.05528 0
M  V30 39 H 2.2492 -2.09911 -3.08207 0
M  V30 40 N 4.4343 0.785586 -1.36625 0
M  V30 41 C 5.6643 1.5722 -1.34036 0
M  V30 42 C 6.0723 1.89033 0.0795062 0
M  V30 43 O 5.4153 1.50881 1.04789 0
M  V30 44 C 5.4773 2.91759 -2.10041 0
M  V30 45 C 5.1413 2.82654 -3.59104 0
M  V30 46 C 6.1383 2.54634 -4.53274 0
M  V30 47 C 3.8233 3.01111 -4.02042 0
M  V30 48 C 5.8173 2.45177 -5.88359 0
M  V30 49 C 3.5043 2.91276 -5.37216 0
M  V30 50 C 4.5023 2.63348 -6.30188 0
M  V30 51 O 4.1903 2.53514 -7.6288 0
M  V30 52 H 3.9223 0.494177 -0.461265 0
M  V30 53 H 6.4763 0.982632 -1.8037 0
M  V30 54 H 4.7063 3.52781 -1.58375 0
M  V30 55 H 6.3953 3.53059 -2.00261 0
M  V30 56 H 7.1613 2.40073 -4.21414 0
M  V30 57 H 3.0403 3.21854 -3.30047 0
M  V30 58 H 6.5843 2.23299 -6.60896 0
M  V30 59 H 2.4813 3.054 -5.68684 0
M  V30 60 H 3.2493 2.68967 -7.73045 0
M  V30 61 N 5.9124 1.20967 1.01018 0
M  V30 62 C 7.3234 1.02319 1.56165 0
M  V30 63 C 7.6744 -0.418546 1.91684 0
M  V30 64 O 6.7994 -1.30096 1.72928 0
M  V30 65 C 7.3944 1.85109 2.8376 0
M  V30 66 C 5.9534 1.70809 3.35412 0
M  V30 67 C 5.1004 1.82643 2.08655 0
M  V30 68 H 8.0514 1.35065 0.833255 0
M  V30 69 H 8.0724 1.35827 3.55431 0
M  V30 70 H 7.5844 2.90035 2.57878 0
M  V30 71 H 5.6854 0.685464 3.66241 0
M  V30 72 H 5.7984 2.52467 4.07182 0
M  V30 73 H 4.1624 1.25896 2.21409 0
M  V30 74 H 4.9454 2.89066 1.85191 0
M  V30 75 N 7.3905 -1.2043 1.01659 0
M  V30 76 C 8.6205 -1.93496 0.724081 0
M  V30 77 C 9.0285 -1.74998 -0.71918 0
M  V30 78 O 8.3715 -1.06118 -1.49949 0
M  V30 79 C 8.4335 -3.45886 0.97994 0
M  V30 80 C 8.0975 -3.88145 2.41232 0
M  V30 81 C 9.0945 -3.93907 3.39313 0
M  V30 82 C 6.7795 -4.20134 2.75305 0
M  V30 83 C 8.7735 -4.31069 4.6953 0
M  V30 84 C 6.4605 -4.56971 4.05735 0
M  V30 85 C 7.4585 -4.62411 5.02658 0
M  V30 86 O 7.1465 -4.98403 6.30754 0
M  V30 87 H 6.8785 -0.621824 0.265162 0
M  V30 88 H 9.4325 -1.53867 1.36066 0
M  V30 89 H 7.6625 -3.85639 0.286198 0
M  V30 90 H 9.3515 -4.0018 0.679021 0
M  V30 91 H 10.1175 -3.69357 3.14325 0
M  V30 92 H 5.9965 -4.1509 2.00551 0
M  V30 93 H 9.5405 -4.3523 5.45179 0
M  V30 94 H 5.4375 -4.80977 4.30502 0
M  V30 95 H 6.2055 -5.16395 6.35042 0
M  V30 96 N 8.8686 -0.792821 -1.36206 0
M  V30 97 C 10.2846 -0.474903 -1.52371 0
M  V30 98 C 10.4846 1.00622 -1.74578 0
M  V30 99 O 9.5406 1.79162 -1.77924 0
M  V30 100 C 10.8536 -1.3083 -2.70747 0
M  V30 101 C 12.4016 -1.30234 -2.84619 0
M  V30 102 C 12.8766 -2.11956 -4.06004 0
M  V30 103 N 14.3676 -2.09419 -4.13156 0
M  V30 104 C 15.1026 -2.69419 -5.06163 0
M  V30 105 N 14.5986 -3.3829 -6.04592 0
M  V30 106 N 16.3916 -2.59134 -4.98804 0
M  V30 107 H 8.5426 -1.75222 -1.20046 0
M  V30 108 H 10.8056 -0.745024 -0.586211 0
M  V30 109 H 10.5116 -2.35881 -2.6087 0
M  V30 110 H 10.3856 -0.95196 -3.6499 0
M  V30 111 H 12.7726 -0.259748 -2.93955 0
M  V30 112 H 12.8536 -1.69847 -1.91274 0
M  V30 113 H 12.4976 -3.16248 -3.97429 0
M  V30 114 H 12.4276 -1.69711 -4.98503 0
M  V30 115 H 14.9186 -1.59297 -3.42685 0
M  V30 116 H 15.2316 -3.81394 -6.7213 0
M  V30 117 H 13.5766 -3.42393 -6.04807 0
M  V30 118 H 16.7676 -2.04927 -4.20859 0
M  V30 119 H 16.9406 -3.06185 -5.711 0
M  V30 120 N 10.3467 1.47872 -0.545128 0
M  V30 121 C 11.2787 2.27869 0.246621 0
M  V30 122 C 12.2917 1.36282 0.890561 0
M  V30 123 O 13.4807 1.61207 0.766449 0
M  V30 124 C 10.5807 3.10159 1.36582 0
M  V30 125 C 9.7537 4.29627 0.820954 0
M  V30 126 C 8.8127 4.93607 1.82314 0
M  V30 127 O 7.8387 5.52366 1.37406 0
M  V30 128 N 9.0407 4.87211 3.15603 0
M  V30 129 H 11.8057 2.96459 -0.439539 0
M  V30 130 H 9.3667 1.57367 -0.380421 0
M  V30 131 H 11.3587 3.49829 2.03474 0
M  V30 132 H 9.9287 2.43891 1.9554 0
M  V30 133 H 9.1487 3.94192 -0.0244032 0
M  V30 134 H 10.4367 5.06928 0.436063 0
M  V30 135 H 9.8347 4.40651 3.54744 0
M  V30 136 H 8.3917 5.30937 3.78087 0
M  V30 137 N 11.8248 0.280983 1.55075 0
M  V30 138 C 13.0728 -0.333455 1.9933 0
M  V30 139 C 13.3938 -1.55937 1.17085 0
M  V30 140 O 12.6638 -1.94143 0.261805 0
M  V30 141 H 11.2438 -0.126197 0.736263 0
M  V30 142 H 13.9058 0.387678 1.91005 0
M  V30 143 H 13.0018 -0.619292 3.05894 0
M  V30 144 N 13.3029 -1.57598 0.00835791 0
M  V30 145 C 14.5429 -1.92788 -0.679136 0
M  V30 146 C 14.9069 -0.883378 -1.70471 0
M  V30 147 O 16.1079 -1.12079 -2.44319 0
M  V30 148 C 14.3789 -3.32994 -1.29807 0
M  V30 149 S 15.9379 -3.90082 -2.00952 0
M  V30 150 H 12.7559 -0.67475 -0.224127 0
M  V30 151 H 15.3579 -1.95385 0.0670497 0
M  V30 152 H 14.0619 -4.06846 -0.538922 0
M  V30 153 H 13.5929 -3.33791 -2.082 0
M  V30 154 H 15.6079 -3.71834 -3.28563 0
M  V30 155 N 14.781 0.264519 -1.55364 0
M  V30 156 C 16.192 0.834936 -1.6699 0
M  V30 157 C 16.543 1.86718 -0.602552 0
M  V30 158 O 15.668 2.14899 0.254425 0
M  V30 159 C 16.263 1.5212 -3.02729 0
M  V30 160 C 14.822 2.03954 -3.16354 0
M  V30 161 C 13.969 0.884498 -2.62815 0
M  V30 162 H 16.92 0.0406869 -1.58648 0
M  V30 163 H 16.941 2.38853 -2.96191 0
M  V30 164 H 16.453 0.769668 -3.80392 0
M  V30 165 H 14.554 2.82041 -2.43482 0
M  V30 166 H 14.667 2.24902 -4.23032 0
M  V30 167 H 13.031 1.2802 -2.20188 0
M  V30 168 H 13.814 0.14634 -3.42988 0
M  V30 169 N 16.2591 1.48442 0.529413 0
M  V30 170 C 17.5071 1.56179 1.28267 0
M  V30 171 C 17.8281 0.237721 1.93546 0
M  V30 172 O 17.0981 -0.740779 1.81354 0
M  V30 173 H 15.6781 0.575367 0.476405 0
M  V30 174 H 18.3401 1.84909 0.61602 0
M  V30 175 H 17.4361 2.34312 2.06165 0
M  V30 176 N 17.7372 -0.778329 1.37039 0
M  V30 177 C 18.7002 -1.87301 1.32102 0
M  V30 178 C 19.7002 -1.59198 0.226405 0
M  V30 179 O 20.8902 -1.67403 0.481861 0
M  V30 180 C 18.0222 -3.24309 1.05055 0
M  V30 181 H 19.2152 -1.93093 2.29467 0
M  V30 182 H 16.7682 -0.977358 1.21973 0
M  V30 183 H 17.5032 -3.24196 0.0819373 0
M  V30 184 H 17.2882 -3.46098 1.84279 0
M  V30 185 H 18.7782 -4.04382 1.04234 0
M  V30 186 N 19.2153 -1.21501 -1.00376 0
M  V30 187 C 20.1783 -0.976927 -2.07337 0
M  V30 188 C 21.1783 0.0525322 -1.60714 0
M  V30 189 O 22.3683 -0.184869 -1.73216 0
M  V30 190 C 19.5003 -0.473423 -3.37597 0
M  V30 191 H 20.6933 -1.92587 -2.29892 0
M  V30 192 H 18.2463 -1.03217 -1.17371 0
M  V30 193 H 18.9813 0.480379 -3.20722 0
M  V30 194 H 18.7663 -1.216 -3.72768 0
M  V30 195 H 20.2563 -0.32675 -4.1632 0
M  V30 196 N 20.6934 1.19889 -1.02296 0
M  V30 197 C 21.9414 1.89046 -0.714558 0
M  V30 198 C 22.2624 1.79636 0.758681 0
M  V30 199 O 21.5324 1.20292 1.54618 0
M  V30 200 H 20.1124 0.699802 -0.261317 0
M  V30 201 H 22.7744 1.45574 -1.29592 0
M  V30 202 H 21.8704 2.95524 -1.0036 0
M  V30 203 N 22.1715 0.800033 1.35784 0
M  V30 204 C 23.1035 0.163596 2.28615 0
M  V30 205 C 24.1165 -0.633317 1.49976 0
M  V30 206 O 25.3055 -0.466754 1.72289 0
M  V30 207 C 22.4055 -0.790958 3.29541 0
M  V30 208 C 21.5785 -0.0418255 4.3738 0
M  V30 209 C 20.6375 -0.91389 5.18203 0
M  V30 210 O 19.6635 -0.367234 5.68014 0
M  V30 211 N 20.8655 -2.23682 5.35674 0
M  V30 212 H 23.6305 0.96105 2.83873 0
M  V30 213 H 21.1915 0.654894 1.48063 0
M  V30 214 H 23.1835 -1.37844 3.80501 0
M  V30 215 H 21.7535 -1.48925 2.74846 0
M  V30 216 H 20.9735 0.726813 3.87442 0
M  V30 217 H 22.2615 0.474719 5.06581 0
M  V30 218 H 21.6595 -2.70497 4.96838 0
M  V30 219 H 20.2165 -2.77369 5.89839 0
M  V30 220 N 23.6496 -1.47581 0.552962 0
M  V30 221 C 24.6126 -2.28439 -0.186605 0
M  V30 222 C 25.6126 -1.36706 -0.84665 0
M  V30 223 O 26.8026 -1.59378 -0.703164 0
M  V30 224 C 23.9346 -3.16264 -1.2724 0
M  V30 225 H 25.1276 -2.95294 0.523609 0
M  V30 226 H 22.6806 -1.532 0.309745 0
M  V30 227 H 23.4156 -2.54091 -2.01514 0
M  V30 228 H 23.2006 -3.83769 -0.803968 0
M  V30 229 H 24.6906 -3.77198 -1.79196 0
M  V30 230 N 25.1277 -0.289203 -1.54924 0
M  V30 231 C 26.5387 0.205791 -1.85562 0
M  V30 232 C 26.8897 1.54351 -1.2112 0
M  V30 233 O 26.0147 2.10435 -0.504601 0
M  V30 234 C 26.6097 0.380177 -3.3666 0
M  V30 235 C 25.1687 0.819395 -3.67373 0
M  V30 236 C 24.3157 -0.079159 -2.77187 0
M  V30 237 H 27.2667 -0.510577 -1.50262 0
M  V30 238 H 27.2877 1.21659 -3.60526 0
M  V30 239 H 26.7997 -0.593589 -3.83534 0
M  V30 240 H 24.9007 1.80413 -3.26009 0
M  V30 241 H 25.0137 0.646957 -4.74712 0
M  V30 242 H 23.3777 0.439565 -2.50878 0
M  V30 243 H 24.1607 -1.04906 -3.26878 0
M  V30 244 N 26.6058 1.57591 -0.0167156 0
M  V30 245 C 27.8538 1.90906 0.663285 0
M  V30 246 C 28.1748 0.892509 1.73376 0
M  V30 247 O 27.4448 -0.0677623 1.95783 0
M  V30 248 H 26.0248 0.704637 0.247983 0
M  V30 249 H 28.6868 1.94803 -0.0615909 0
M  V30 250 H 27.7828 2.9116 1.12393 0
M  V30 251 N 28.0839 -0.256276 1.55502 0
M  V30 252 C 29.0469 -1.30047 1.88734 0
M  V30 253 C 30.0469 -1.4154 0.763086 0
M  V30 254 O 31.2369 -1.40403 1.03115 0
M  V30 255 C 28.3689 -2.67953 2.10747 0
M  V30 256 H 29.5619 -1.01802 2.82093 0
M  V30 257 H 27.1149 -0.495134 1.4825 0
M  V30 258 H 27.8499 -3.01351 1.19825 0
M  V30 259 H 27.6349 -2.60993 2.92617 0
M  V30 260 H 29.1249 -3.43368 2.37673 0
M  V30 261 N 29.562 -1.4872 -0.521534 0
M  V30 262 C 30.973 -1.50607 -1.10337 0
M  V30 263 C 31.324 -0.280612 -1.94183 0
M  V30 264 O 30.449 0.611507 -2.0758 0
M  V30 265 C 31.044 -2.72903 -2.00772 0
M  V30 266 C 29.603 -2.77634 -2.54158 0
M  V30 267 C 28.75 -2.44241 -1.31307 0
M  V30 268 H 31.701 -1.55714 -0.306388 0
M  V30 269 H 31.722 -2.519 -2.85178 0
M  V30 270 H 31.234 -3.62077 -1.39721 0
M  V30 271 H 29.335 -1.92689 -3.18907 0
M  V30 272 H 29.448 -3.79283 -2.92714 0
M  V30 273 H 27.812 -1.95577 -1.63161 0
M  V30 274 H 28.595 -3.35666 -0.719943 0
M  V30 275 N 31.0401 0.771051 -1.3745 0
M  V30 276 C 32.4511 1.34737 -1.29239 0
M  V30 277 C 32.8021 1.96109 0.0596908 0
M  V30 278 O 31.9271 1.93865 0.961534 0
M  V30 279 C 32.5221 2.44973 -2.34037 0
M  V30 280 C 31.0811 2.98372 -2.29458 0
M  V30 281 C 30.2281 1.71595 -2.17831 0
M  V30 282 H 33.1791 0.571256 -1.48062 0
M  V30 283 H 33.2001 3.24471 -1.98744 0
M  V30 284 H 32.7121 2.00276 -3.32432 0
M  V30 285 H 30.8131 3.47443 -1.34589 0
M  V30 286 H 30.9261 3.53939 -3.229 0
M  V30 287 H 29.2901 1.94547 -1.64388 0
M  V30 288 H 30.0731 1.29001 -3.18141 0
M  V30 289 N 32.5182 1.22032 0.997298 0
M  V30 290 C 33.7662 1.04016 1.73278 0
M  V30 291 C 34.0872 -0.426255 1.90284 0
M  V30 292 O 33.3572 -1.30694 1.45931 0
M  V30 293 H 31.9372 0.381897 0.642 0
M  V30 294 H 34.5992 1.5347 1.20137 0
M  V30 295 H 33.6952 1.51441 2.72896 0
M  V30 296 N 33.9963 -1.19345 1.0293 0
M  V30 297 C 35.2213 -1.93538 0.745511 0
M  V30 298 C 35.6463 -1.75007 -0.689511 0
M  V30 299 O 35.0043 -1.05265 -1.47611 0
M  V30 300 C 35.0523 -3.43336 1.10239 0
M  V30 301 O 34.1563 -4.11806 0.221289 0
M  V30 302 H 33.4973 -0.604193 0.275404 0
M  V30 303 H 36.0273 -1.5141 1.37609 0
M  V30 304 H 36.0373 -3.94004 1.05947 0
M  V30 305 H 34.7123 -3.56146 2.14786 0
M  V30 306 H 33.2893 -3.715 0.322842 0
M  V30 307 N 35.4744 -0.807222 -1.35358 0
M  V30 308 C 36.7044 -0.399796 -2.02695 0
M  V30 309 C 37.1124 0.994176 -1.60974 0
M  V30 310 O 36.4554 1.65209 -0.803226 0
M  V30 311 C 36.5174 -0.404445 -3.57218 0
M  V30 312 C 36.1814 -1.74904 -4.22206 0
M  V30 313 C 37.1784 -2.70743 -4.4384 0
M  V30 314 C 34.8634 -2.03322 -4.5931 0
M  V30 315 C 36.8574 -3.93183 -5.01683 0
M  V30 316 C 34.5444 -3.26026 -5.16866 0
M  V30 317 C 35.5424 -4.20774 -5.37994 0
M  V30 318 O 35.2304 -5.41312 -5.94337 0
M  V30 319 H 34.9624 -0.160517 -0.656666 0
M  V30 320 H 37.5164 -1.09235 -1.73945 0
M  V30 321 H 35.7464 0.344707 -3.85161 0
M  V30 322 H 37.4354 -0.0192429 -4.05895 0
M  V30 323 H 38.2014 -2.5008 -4.15554 0
M  V30 324 H 34.0804 -1.30384 -4.42178 0
M  V30 325 H 37.6244 -4.6715 -5.1809 0
M  V30 326 H 33.5214 -3.46559 -5.44579 0
M  V30 327 H 34.2894 -5.42618 -6.12787 0
M  V30 328 N 36.9525 1.47285 -0.560781 0
M  V30 329 C 38.1825 2.06555 -0.0429638 0
M  V30 330 C 38.5905 1.41339 1.25777 0
M  V30 331 O 37.9335 0.505182 1.76617 0
M  V30 332 C 37.9955 3.58827 0.219887 0
M  V30 333 C 37.6595 4.46105 -0.991944 0
M  V30 334 C 38.6565 4.84 -1.89843 0
M  V30 335 C 36.3415 4.87567 -1.20762 0
M  V30 336 C 38.3355 5.6216 -3.00425 0
M  V30 337 C 36.0225 5.65491 -2.31653 0
M  V30 338 C 37.0205 6.02699 -3.21315 0
M  V30 339 O 36.7085 6.79052 -4.30283 0
M  V30 340 H 36.4405 0.674537 -0.0444468 0
M  V30 341 H 38.9945 1.90225 -0.774818 0
M  V30 342 H 37.2245 3.73383 1.00609 0
M  V30 343 H 38.9135 4.00103 0.683522 0
M  V30 344 H 39.6795 4.52564 -1.74387 0
M  V30 345 H 35.5585 4.5807 -0.518893 0
M  V30 346 H 39.1025 5.9112 -3.70436 0
M  V30 347 H 34.9995 5.9634 -2.47081 0
M  V30 348 H 35.7675 6.9745 -4.28376 0
M  V30 349 N 38.4306 0.297415 1.54768 0
M  V30 350 C 39.8416 -0.195947 1.85669 0
M  V30 351 C 40.1926 -1.53707 1.21937 0
M  V30 352 O 39.3176 -2.10164 0.515754 0
M  V30 353 C 39.9126 -0.362318 3.36857 0
M  V30 354 C 38.4716 -0.799901 3.67802 0
M  V30 355 C 37.6186 0.0938578 2.77141 0
M  V30 356 H 40.5696 0.518538 1.4999 0
M  V30 357 H 40.5906 -1.19745 3.61167 0
M  V30 358 H 40.1026 0.613921 3.83214 0
M  V30 359 H 38.2036 -1.78682 3.26961 0
M  V30 360 H 38.3166 -0.621773 4.75048 0
M  V30 361 H 36.6806 -0.426254 2.51108 0
M  V30 362 H 37.4636 1.06639 3.26318 0
M  V30 363 N 39.9087 -1.5758 0.0250728 0
M  V30 364 C 41.1567 -1.91255 -0.653151 0
M  V30 365 C 41.4777 -0.901691 -1.729 0
M  V30 366 O 40.7477 0.0573785 -1.95816 0
M  V30 367 H 39.3277 -0.705942 -0.244243 0
M  V30 368 H 41.9897 -1.94767 0.0719209 0
M  V30 369 H 41.0857 -2.91752 -1.10847 0
M  V30 370 N 41.3868 0.248026 -1.55636 0
M  V30 371 C 42.7978 0.817177 -1.67866 0
M  V30 372 C 43.1488 1.86069 -0.622322 0
M  V30 373 O 42.2738 2.15157 0.231618 0
M  V30 374 C 42.8688 1.489 -3.04326 0
M  V30 375 C 41.4278 2.00587 -3.185 0
M  V30 376 C 40.5748 0.856573 -2.63739 0
M  V30 377 H 43.5258 0.0238579 -1.58682 0
M  V30 378 H 43.5468 2.35698 -2.98708 0
M  V30 379 H 43.0588 0.729279 -3.81186 0
M  V30 380 H 41.1598 2.79443 -2.4646 0
M  V30 381 H 41.2728 2.20402 -4.25393 0
M  V30 382 H 39.6368 1.25678 -2.21534 0
M  V30 383 H 40.4198 0.109953 -3.43124 0
M  V30 384 N 42.8649 1.48995 0.513639 0
M  V30 385 C 44.2759 1.5119 1.09537 0
M  V30 386 C 44.6269 0.290906 1.94031 0
M  V30 387 O 43.7519 -0.60049 2.07902 0
M  V30 388 C 44.3469 2.73964 1.99322 0
M  V30 389 C 42.9059 2.78978 2.52682 0
M  V30 390 C 42.0529 2.44934 1.30009 0
M  V30 391 H 45.0039 1.55875 0.298125 0
M  V30 392 H 45.0249 2.53409 2.83838 0
M  V30 393 H 44.5369 3.62813 1.37799 0
M  V30 394 H 42.6379 1.94378 3.1788 0
M  V30 395 H 42.7509 3.8083 2.90698 0
M  V30 396 H 41.1149 1.9644 1.62122 0
M  V30 397 H 41.8979 3.36043 0.702131 0
M  V30 398 N 44.343 -0.763751 1.37857 0
M  V30 399 C 45.291 -1.89864 1.34367 0
M  V30 400 C 46.285 -1.67816 0.231143 0
M  V30 401 O 47.491 -1.75508 0.399617 0
M  V30 402 H 43.866 -0.624501 0.41893 0
M  V30 403 H 45.837 -1.89925 2.30155 0
M  V30 404 C 44.586 -3.27227 1.1755 0
M  V30 405 H 43.909 -3.44773 2.02414 0
M  V30 406 H 45.349 -4.06911 1.1916 0
M  V30 407 C 43.808 -3.36692 -0.118311 0
M  V30 408 O 44.338 -3.86374 -1.09902 0
M  V30 409 N 42.544 -2.90092 -0.171717 0
M  V30 410 H 42.091 -2.49853 0.627012 0
M  V30 411 H 42.049 -2.96806 -1.03699 0
M  V30 412 N 45.8211 -1.22559 -0.990812 0
M  V30 413 C 47.0461 -1.07862 -1.77145 0
M  V30 414 C 47.4711 0.366447 -1.84496 0
M  V30 415 O 46.8291 1.26478 -1.29896 0
M  V30 416 C 46.8771 -1.69686 -3.18181 0
M  V30 417 O 45.9811 -0.951946 -4.01263 0
M  V30 418 H 45.3221 -0.378712 -0.545411 0
M  V30 419 H 47.8521 -1.62399 -1.2445 0
M  V30 420 H 47.8621 -1.74496 -3.68802 0
M  V30 421 H 46.5371 -2.74841 -3.12146 0
M  V30 422 H 45.1141 -0.980011 -3.59792 0
M  V30 423 N 47.2992 1.18797 -1.03562 0
M  V30 424 C 48.5472 1.88278 -0.734569 0
M  V30 425 C 48.8682 1.8043 0.739586 0
M  V30 426 O 48.1382 1.21925 1.53333 0
M  V30 427 H 46.7182 0.696991 -0.268725 0
M  V30 428 H 49.3802 1.44192 -1.31129 0
M  V30 429 H 48.4762 2.94443 -1.03489 0
M  V30 430 N 48.7773 0.814389 1.34928 0
M  V30 431 C 50.0253 0.397636 1.9815 0
M  V30 432 C 50.3463 -1.04069 1.64908 0
M  V30 433 O 49.6163 -1.72121 0.93548 0
M  V30 434 H 48.1963 0.144043 0.732981 0
M  V30 435 H 50.8583 1.04195 1.6471 0
M  V30 436 H 49.9543 0.509688 3.0791 0
M  V30 437 N 50.2554 -1.46986 0.568584 0
M  V30 438 C 51.1874 -2.28233 -0.210337 0
M  V30 439 C 52.2004 -1.37682 -0.868767 0
M  V30 440 O 53.3894 -1.62406 -0.740705 0
M  V30 441 C 50.4894 -3.12293 -1.3163 0
M  V30 442 C 49.6624 -4.30878 -0.7525 0
M  V30 443 C 48.7214 -4.96445 -1.74439 0
M  V30 444 O 47.7474 -5.54482 -1.286 0
M  V30 445 N 48.9494 -4.92171 -3.07812 0
M  V30 446 H 51.7144 -2.95723 0.486648 0
M  V30 447 H 49.2754 -1.56742 0.405409 0
M  V30 448 H 51.2674 -3.53022 -1.97883 0
M  V30 449 H 49.8374 -2.46971 -1.91636 0
M  V30 450 H 49.0574 -3.94104 0.0871128 0
M  V30 451 H 50.3454 -5.07558 -0.35536 0
M  V30 452 H 49.7434 -4.46239 -3.47688 0
M  V30 453 H 48.3004 -5.36884 -3.69592 0
M  V30 454 N 51.7335 -0.305618 -1.54608 0
M  V30 455 C 52.9635 0.304333 -2.04346 0
M  V30 456 C 53.3715 1.47715 -1.18224 0
M  V30 457 O 52.7145 1.82591 -0.201577 0
M  V30 458 C 52.7765 0.819031 -3.50046 0
M  V30 459 C 52.4405 -0.22912 -4.56425 0
M  V30 460 C 53.4375 -1.05914 -5.08997 0
M  V30 461 C 51.1225 -0.372148 -5.0092 0
M  V30 462 C 53.1165 -2.01809 -6.04609 0
M  V30 463 C 50.8035 -1.33454 -5.9635 0
M  V30 464 C 51.8015 -2.15599 -6.48079 0
M  V30 465 O 51.4895 -3.10205 -7.41639 0
M  V30 466 H 51.2215 0.0693996 -0.672428 0
M  V30 467 H 53.7755 -0.444548 -2.00532 0
M  V30 468 H 52.0055 1.61852 -3.51199 0
M  V30 469 H 53.6945 1.34537 -3.82955 0
M  V30 470 H 54.4605 -0.959538 -4.75413 0
M  V30 471 H 50.3395 0.257304 -4.60281 0
M  V30 472 H 53.8835 -2.65966 -6.44909 0
M  V30 473 H 49.7805 -1.43485 -6.29351 0
M  V30 474 H 50.5485 -3.05237 -7.59455 0
M  V30 475 N 53.2116 1.57565 -0.0334293 0
M  V30 476 C 54.4596 1.91598 0.642999 0
M  V30 477 C 54.7806 0.910847 1.7242 0
M  V30 478 O 54.0506 -0.0469931 1.95844 0
M  V30 479 H 52.6306 0.707228 0.240496 0
M  V30 480 H 55.2926 1.94726 -0.0822488 0
M  V30 481 H 54.3886 2.92336 1.09298 0
M  V30 482 N 54.6897 -0.239769 1.55765 0
M  V30 483 C 55.9147 -0.988373 1.82335 0
M  V30 484 C 56.3397 -1.77886 0.611421 0
M  V30 485 O 55.6977 -1.75889 -0.439639 0
M  V30 486 C 55.7457 -1.89627 3.06715 0
M  V30 487 O 54.8497 -2.98904 2.84131 0
M  V30 488 H 54.1907 -0.280858 0.601677 0
M  V30 489 H 56.7207 -0.258597 2.02959 0
M  V30 490 H 56.7307 -2.30957 3.36338 0
M  V30 491 H 55.4057 -1.31511 3.9456 0
M  V30 492 H 53.9827 -2.61651 2.65694 0
M  V30 493 N 56.1678 -1.49265 -0.50573 0
M  V30 494 C 57.4158 -1.582 -1.25766 0
M  V30 495 C 57.7368 -0.268482 -1.93143 0
M  V30 496 O 57.0068 0.711833 -1.8251 0
M  V30 497 H 55.5868 -0.582873 -0.467191 0
M  V30 498 H 58.2488 -1.85865 -0.586525 0
M  V30 499 H 57.3448 -2.37563 -2.02412 0
M  V30 500 N 57.6459 0.756429 -1.3826 0
M  V30 501 C 58.5759 1.88374 -1.37976 0
M  V30 502 C 59.5569 1.68311 -0.246082 0
M  V30 503 O 60.7419 1.88944 -0.44874 0
M  V30 504 C 57.8719 3.25864 -1.20125 0
M  V30 505 C 56.8259 3.60523 -2.30666 0
M  V30 506 C 56.1519 4.9672 -1.97923 0
M  V30 507 C 57.4519 3.65692 -3.72916 0
M  V30 508 H 59.1459 1.88869 -2.32312 0
M  V30 509 H 56.6919 0.907272 -1.11824 0
M  V30 510 H 58.6449 4.0438 -1.18552 0
M  V30 511 H 57.3689 3.25841 -0.222498 0
M  V30 512 H 56.0279 2.84324 -2.3142 0
M  V30 513 H 55.6759 4.93253 -0.985393 0
M  V30 514 H 55.3759 5.20878 -2.71955 0
M  V30 515 H 56.8999 5.77618 -1.97964 0
M  V30 516 H 58.3139 4.34328 -3.74208 0
M  V30 517 H 56.7109 4.01358 -4.4613 0
M  V30 518 H 57.7809 2.65987 -4.05436 0
M  V30 519 N 59.124 1.23083 0.984299 0
M  V30 520 C 60.535 1.05609 1.5396 0
M  V30 521 C 60.886 -0.377793 1.92528 0
M  V30 522 O 60.011 -1.26398 1.75649 0
M  V30 523 C 60.606 1.91087 2.7977 0
M  V30 524 C 59.165 1.77885 3.31713 0
M  V30 525 C 58.312 1.87028 2.04733 0
M  V30 526 H 61.263 1.36802 0.804419 0
M  V30 527 H 61.284 1.43336 3.5247 0
M  V30 528 H 60.796 2.9544 2.51668 0
M  V30 529 H 58.897 0.762995 3.64704 0
M  V30 530 H 59.01 2.61047 4.01735 0
M  V30 531 H 57.374 1.30565 2.18689 0
M  V30 532 H 58.157 2.92929 1.79017 0
M  V30 533 N 60.6021 -1.18246 1.0419 0
M  V30 534 C 62.0131 -1.69914 0.773698 0
M  V30 535 C 62.3641 -1.83085 -0.705297 0
M  V30 536 O 61.4891 -1.51123 -1.5489 0
M  V30 537 C 62.0841 -3.08619 1.39784 0
M  V30 538 C 60.6431 -3.57494 1.17792 0
M  V30 539 C 59.7901 -2.34013 1.48773 0
M  V30 540 H 62.7411 -1.02904 1.20816 0
M  V30 541 H 62.7621 -3.71958 0.801714 0
M  V30 542 H 62.2741 -2.99001 2.47426 0
M  V30 543 H 60.3751 -3.72406 0.120295 0
M  V30 544 H 60.4881 -4.40852 1.87581 0
M  V30 545 H 58.8521 -2.37986 0.907463 0
M  V30 546 H 59.6351 -2.27013 2.57527 0
M  V30 547 N 62.0802 -0.821533 -1.34494 0
M  V30 548 C 63.3282 -0.408139 -1.97936 0
M  V30 549 C 63.6492 1.03193 -1.65457 0
M  V30 550 O 62.9192 1.71622 -0.944595 0
M  V30 551 H 61.4992 -0.147928 -0.732206 0
M  V30 552 H 64.1612 -1.05067 -1.64155 0
M  V30 553 H 63.2572 -0.52601 -3.07635 0
M  V30 554 N 63.5583 1.46682 -0.576371 0
M  V30 555 C 64.8063 2.02013 -0.0594163 0
M  V30 556 C 65.1273 1.45101 1.30271 0
M  V30 557 O 64.3973 0.633317 1.8538 0
M  V30 558 H 62.9773 0.746759 -0.0189745 0
M  V30 559 H 65.6393 1.79862 -0.750717 0
M  V30 560 H 64.7353 3.12097 0.014345 0
M  V30 561 N 65.0364 0.313813 1.54444 0
M  V30 562 C 66.2844 -0.291099 1.99993 0
M  V30 563 C 66.6054 -1.53418 1.20366 0
M  V30 564 O 65.8754 -1.93544 0.302927 0
M  V30 565 H 64.4554 -0.110552 0.738774 0
M  V30 566 H 67.1174 0.428106 1.9014 0
M  V30 567 H 66.2134 -0.554268 3.07139 0
M  V30 568 N 66.5145 -1.57545 0.0417849 0
M  V30 569 C 67.7445 -1.96339 -0.642995 0
M  V30 570 C 68.1525 -0.917536 -1.65463 0
M  V30 571 O 67.4955 0.107747 -1.83384 0
M  V30 572 C 67.5575 -3.31333 -1.39494 0
M  V30 573 C 67.2215 -4.53796 -0.540204 0
M  V30 574 C 68.2185 -5.19553 0.189806 0
M  V30 575 C 65.9035 -5.0006 -0.473886 0
M  V30 576 C 67.8975 -6.29904 0.974674 0
M  V30 577 C 65.5845 -6.10289 0.314677 0
M  V30 578 C 66.5825 -6.75072 1.03765 0
M  V30 579 O 66.2705 -7.83183 1.81327 0
M  V30 580 H 66.0025 -0.651241 -0.181277 0
M  V30 581 H 68.5565 -2.05148 0.101665 0
M  V30 582 H 66.7865 -3.19052 -2.18502 0
M  V30 583 H 68.4755 -3.54942 -1.96904 0
M  V30 584 H 69.2415 -4.84774 0.147981 0
M  V30 585 H 65.1205 -4.49433 -1.0262 0
M  V30 586 H 68.6645 -6.80401 1.5395 0
M  V30 587 H 64.5615 -6.44506 0.358174 0
M  V30 588 H 65.3295 -7.99913 1.73438 0
M  V30 589 N 67.9926 0.231505 -1.5589 0
M  V30 590 C 69.2406 0.955461 -1.78088 0
M  V30 591 C 69.5616 1.85262 -0.608533 0
M  V30 592 O 68.8316 1.92277 0.375035 0
M  V30 593 H 67.4116 0.355787 -0.656829 0
M  V30 594 H 70.0736 0.245751 -1.93344 0
M  V30 595 H 69.1696 1.56814 -2.69844 0
M  V30 596 N 69.4707 1.49531 0.497807 0
M  V30 597 C 70.7187 1.58865 1.24926 0
M  V30 598 C 71.0397 0.278721 1.92998 0
M  V30 599 O 70.3097 -0.702144 1.82885 0
M  V30 600 H 68.8897 0.585343 0.464094 0
M  V30 601 H 71.5517 1.86174 0.57666 0
M  V30 602 H 70.6477 2.38633 2.01149 0
M  V30 603 N 70.9488 -0.749086 1.3866 0
M  V30 604 C 72.3598 -1.32664 1.31366 0
M  V30 605 C 72.7108 -1.96179 -0.028484 0
M  V30 606 O 71.8358 -1.9537 -0.93057 0
M  V30 607 C 72.4308 -2.41219 2.37905 0
M  V30 608 C 70.9898 -2.94684 2.34176 0
M  V30 609 C 70.1368 -1.68108 2.20533 0
M  V30 610 H 73.0878 -0.547628 1.48952 0
M  V30 611 H 73.1088 -3.21268 2.0388 0
M  V30 612 H 72.6208 -1.94962 3.35576 0
M  V30 613 H 70.7218 -3.45258 1.401 0
M  V30 614 H 70.8348 -3.48757 3.2849 0
M  V30 615 H 69.1988 -1.91907 1.67463 0
M  V30 616 H 69.9818 -1.23923 3.20153 0
M  V30 617 N 72.4269 -1.23603 -0.977757 0
M  V30 618 C 73.3899 -1.02069 -2.05218 0
M  V30 619 C 74.3899 0.0184305 -1.60789 0
M  V30 620 O 75.5799 -0.221569 -1.72785 0
M  V30 621 C 72.7119 -0.544926 -3.36517 0
M  V30 622 H 73.9049 -1.9742 -2.25755 0
M  V30 623 H 71.4579 -1.05684 -1.15155 0
M  V30 624 H 72.1929 0.412241 -3.21669 0
M  V30 625 H 71.9779 -1.2948 -3.70105 0
M  V30 626 H 73.4679 -0.414985 -4.15533 0
M  V30 627 N 73.905 1.17692 -1.04816 0
M  V30 628 C 75.316 1.69501 -0.782698 0
M  V30 629 C 75.667 1.83456 0.695577 0
M  V30 630 O 74.792 1.51942 1.54086 0
M  V30 631 C 75.387 3.07874 -1.41419 0
M  V30 632 C 73.946 3.56864 -1.19686 0
M  V30 633 C 73.093 2.3322 -1.50012 0
M  V30 634 H 76.044 1.02262 -1.2136 0
M  V30 635 H 76.065 3.71528 -0.821428 0
M  V30 636 H 75.577 2.97685 -2.49009 0
M  V30 637 H 73.678 3.72337 -0.140043 0
M  V30 638 H 73.791 4.39851 -1.89916 0
M  V30 639 H 72.155 2.37501 -0.920071 0
M  V30 640 H 72.938 2.25644 -2.58727 0
M  V30 641 N 75.3831 0.828654 1.34056 0
M  V30 642 C 76.6311 0.41863 1.97717 0
M  V30 643 C 76.9521 -1.02314 1.66002 0
M  V30 644 O 76.2221 -1.71119 0.953683 0
M  V30 645 H 74.8021 0.151809 0.731412 0
M  V30 646 H 77.4641 1.05936 1.63596 0
M  V30 647 H 76.5601 0.542318 3.07352 0
M  V30 648 N 76.8612 -1.46375 0.584142 0
M  V30 649 C 78.1092 -2.01978 0.0701287 0
M  V30 650 C 78.4302 -1.4579 -1.295 0
M  V30 651 O 77.7002 -0.64314 -1.85042 0
M  V30 652 H 76.2802 -0.746648 0.0229345 0
M  V30 653 H 78.9422 -1.79461 0.760245 0
M  V30 654 H 78.0382 -3.121 0.0022064 0
M  V30 655 N 78.3393 -0.321999 -1.54275 0
M  V30 656 C 79.7503 0.166384 -1.85957 0
M  V30 657 C 80.1013 1.51747 -1.24367 0
M  V30 658 O 79.2263 2.09317 -0.549124 0
M  V30 659 C 79.8213 0.308681 -3.37391 0
M  V30 660 C 78.3803 0.741286 -3.69028 0
M  V30 661 C 77.5273 -0.137937 -2.76957 0
M  V30 662 H 80.4783 -0.542335 -1.49146 0
M  V30 663 H 80.4993 1.13984 -3.63026 0
M  V30 664 H 80.0113 -0.674809 -3.82188 0
M  V30 665 H 78.1123 1.73458 -3.29762 0
M  V30 666 H 78.2253 0.546118 -4.75977 0
M  V30 667 H 76.5893 0.386251 -2.51754 0
M  V30 668 H 77.3723 -1.11816 -3.2458 0
M  V30 669 N 79.8174 1.5752 -0.0501392 0
M  V30 670 C 81.0474 1.96678 0.632573 0
M  V30 671 C 81.4554 0.926298 1.64974 0
M  V30 672 O 80.7984 -0.09802 1.83438 0
M  V30 673 C 80.8604 3.32068 1.37735 0
M  V30 674 C 80.5244 4.54076 0.516131 0
M  V30 675 C 81.5214 5.19445 -0.217357 0
M  V30 676 C 79.2064 5.00304 0.44736 0
M  V30 677 C 81.2004 6.29378 -1.00807 0
M  V30 678 C 78.8874 6.10114 -0.347038 0
M  V30 679 C 79.8854 6.74512 -1.07344 0
M  V30 680 O 79.5734 7.82211 -1.85477 0
M  V30 681 H 79.3054 0.652193 0.177821 0
M  V30 682 H 81.8594 2.05091 -0.112543 0
M  V30 683 H 80.0894 3.20206 2.16807 0
M  V30 684 H 81.7784 3.55981 1.95019 0
M  V30 685 H 82.5444 4.84689 -0.173688 0
M  V30 686 H 78.4234 4.49971 1.00235 0
M  V30 687 H 81.9674 6.79575 -1.57556 0
M  V30 688 H 77.8644 6.44307 -0.392349 0
M  V30 689 H 78.6324 7.98982 -1.77678 0
M  V30 690 N 81.2955 -0.223234 1.56011 0
M  V30 691 C 82.5435 -0.946003 1.78592 0
M  V30 692 C 82.8645 -1.84936 0.618349 0
M  V30 693 O 82.1345 -1.92473 -0.364833 0
M  V30 694 H 80.7145 -0.352298 0.658707 0
M  V30 695 H 83.3765 -0.235494 1.93472 0
M  V30 696 H 82.4725 -1.55381 2.70672 0
M  V30 697 N 82.7736 -1.49793 -0.48987 0
M  V30 698 C 84.1846 -1.52914 -1.07118 0
M  V30 699 C 84.5356 -0.321738 -1.93544 0
M  V30 700 O 83.6606 0.567338 -2.08831 0
M  V30 701 C 84.2556 -2.771 -1.94938 0
M  V30 702 C 82.8146 -2.82963 -2.48212 0
M  V30 703 C 81.9616 -2.46972 -1.26096 0
M  V30 704 H 84.9126 -1.56329 -0.273289 0
M  V30 705 H 84.9336 -2.57892 -2.79771 0
M  V30 706 H 84.4456 -3.64959 -1.32009 0
M  V30 707 H 82.5466 -1.99411 -3.14748 0
M  V30 708 H 82.6596 -3.85406 -2.84603 0
M  V30 709 H 81.0236 -1.98994 -1.58976 0
M  V30 710 H 81.8066 -3.37118 -0.648581 0
M  V30 711 N 84.2517 0.741722 -1.39055 0
M  V30 712 C 85.6627 1.31966 -1.32068 0
M  V30 713 C 86.0137 1.96192 0.0180797 0
M  V30 714 O 85.1387 1.95861 0.920196 0
M  V30 715 C 85.7337 2.39954 -2.39181 0
M  V30 716 C 84.2927 2.93438 -2.35735 0
M  V30 717 C 83.4397 1.66936 -2.21422 0
M  V30 718 H 86.3907 0.539721 -1.4924 0
M  V30 719 H 86.4117 3.20182 -2.05581 0
M  V30 720 H 85.9237 1.9318 -3.36605 0
M  V30 721 H 84.0247 3.4451 -1.41929 0
M  V30 722 H 84.1377 3.4701 -3.30335 0
M  V30 723 H 82.5017 1.91016 -1.68478 0
M  V30 724 H 83.2847 1.22224 -3.20806 0
M  V30 725 N 85.7298 1.2412 0.971189 0
M  V30 726 C 86.6928 1.03156 2.04674 0
M  V30 727 C 87.6928 -0.00990322 1.60797 0
M  V30 728 O 88.8828 0.230729 1.72665 0
M  V30 729 C 86.0148 0.562765 3.36223 0
M  V30 730 H 87.2078 1.98614 2.24705 0
M  V30 731 H 84.7608 1.06293 1.14593 0
M  V30 732 H 85.4958 -0.395176 3.21883 0
M  V30 733 H 85.2808 1.31441 3.69413 0
M  V30 734 H 86.7708 0.437015 4.15307 0
M  V30 735 N 87.2079 -1.17134 1.05439 0
M  V30 736 C 88.4559 -1.87085 0.764429 0
M  V30 737 C 88.7769 -1.81584 -0.710787 0
M  V30 738 O 88.0469 -1.24349 -1.51374 0
M  V30 739 H 86.6269 -0.692627 0.279779 0
M  V30 740 H 89.2889 -1.42087 1.33406 0
M  V30 741 H 88.3849 -2.92759 1.0816 0
M  V30 742 N 88.686 -0.835752 -1.33615 0
M  V30 743 C 89.934 -0.429109 -1.97492 0
M  V30 744 C 90.255 1.01433 -1.66543 0
M  V30 745 O 89.525 1.70611 -0.962744 0
M  V30 746 H 88.105 -0.155686 -0.730596 0
M  V30 747 H 90.767 -1.06802 -1.63031 0
M  V30 748 H 89.863 -0.55861 -3.0706 0
M  V30 749 N 90.1641 1.46063 -0.591896 0
M  V30 750 C 91.4121 2.01938 -0.0808391 0
M  V30 751 C 91.7331 1.46475 1.28725 0
M  V30 752 O 91.0031 0.652944 1.84698 0
M  V30 753 H 89.5831 0.746516 -0.0268938 0
M  V30 754 H 92.2451 1.79055 -0.769752 0
M  V30 755 H 91.3411 3.12094 -0.0187578 0
M  V30 756 N 91.6422 0.330177 1.54103 0
M  V30 757 C 93.0532 -0.15652 1.86043 0
M  V30 758 C 93.4042 -1.51086 1.2517 0
M  V30 759 O 92.5292 -2.09023 0.560217 0
M  V30 760 C 93.1242 -0.290784 3.3755 0
M  V30 761 C 91.6832 -0.721705 3.69416 0
M  V30 762 C 90.8302 0.152622 2.7688 0
M  V30 763 H 93.7812 0.550237 1.48856 0
M  V30 764 H 93.8022 -1.12058 3.63625 0
M  V30 765 H 93.3142 0.695068 3.81825 0
M  V30 766 H 91.4152 -1.71706 3.30678 0
M  V30 767 H 91.5282 -0.520869 4.7626 0
M  V30 768 H 89.8922 -0.372894 2.51956 0
M  V30 769 H 90.6752 1.13536 3.23982 0
M  V30 770 N 93.1203 -1.57491 0.0584922 0
M  V30 771 C 94.3503 -1.9701 -0.622134 0
M  V30 772 C 94.7583 -0.935034 -1.6448 0
M  V30 773 O 94.1013 0.0882904 -1.83488 0
M  V30 774 C 94.1633 -3.32794 -1.35972 0
M  V30 775 C 93.8273 -4.54343 -0.492043 0
M  V30 776 C 94.8243 -5.19323 0.244901 0
M  V30 777 C 92.5093 -5.00534 -0.420821 0
M  V30 778 C 94.5033 -6.28835 1.04143 0
M  V30 779 C 92.1903 -6.09921 0.379389 0
M  V30 780 C 93.1883 -6.73933 1.10919 0
M  V30 781 O 92.8763 -7.81216 1.89623 0
M  V30 782 H 92.6083 -0.653127 -0.174359 0
M  V30 783 H 95.1623 -2.05029 0.123418 0
M  V30 784 H 93.3923 -3.21351 -2.15105 0
M  V30 785 H 95.0813 -3.5701 -1.93129 0
M  V30 786 H 95.8473 -4.8459 0.19939 0
M  V30 787 H 91.7263 -4.50496 -0.978474 0
M  V30 788 H 95.2703 -6.7873 1.61157 0
M  V30 789 H 91.1673 -6.44089 0.426512 0
M  V30 790 H 91.9353 -7.98029 1.81913 0
M  V30 791 N 94.5984 0.214957 -1.56127 0
M  V30 792 C 95.8464 0.936518 -1.79091 0
M  V30 793 C 96.1674 1.84606 -0.628148 0
M  V30 794 O 95.4374 1.92664 0.35462 0
M  V30 795 H 94.0174 0.3488 -0.660566 0
M  V30 796 H 96.6794 0.22523 -1.93594 0
M  V30 797 H 95.7754 1.53943 -2.71492 0
M  V30 798 N 96.0765 1.50051 0.48192 0
M  V30 799 C 97.0265 1.64512 1.5786 0
M  V30 800 C 98.0105 0.500073 1.52932 0
M  V30 801 O 99.2025 0.753964 1.60139 0
M  V30 802 C 96.3315 1.73263 2.9637 0
M  V30 803 C 95.4175 2.93409 3.06222 0
M  V30 804 N 95.8085 4.17236 2.85915 0
M  V30 805 C 94.1065 2.91742 3.37346 0
M  V30 806 C 94.8075 4.981 3.00451 0
M  V30 807 N 93.7835 4.3184 3.30174 0
M  V30 808 H 97.5855 2.57955 1.40842 0
M  V30 809 H 95.0995 1.47086 0.688439 0
M  V30 810 H 97.0965 1.81724 3.75209 0
M  V30 811 H 95.7565 0.809711 3.14442 0
M  V30 812 H 96.7675 4.46909 2.6171 0
M  V30 813 H 93.4445 2.08907 3.61475 0
M  V30 814 H 94.8345 6.06532 2.89082 0
M  V30 815 N 97.5546 -0.734337 1.39446 0
M  V30 816 C 98.9656 -1.31264 1.32766 0
M  V30 817 C 99.3166 -1.96198 -0.00767497 0
M  V30 818 O 98.4416 -1.96346 -0.909796 0
M  V30 819 C 99.0366 -2.38682 2.4045 0
M  V30 820 C 97.5956 -2.92184 2.37288 0
M  V30 821 C 96.7426 -1.6576 2.22304 0
M  V30 822 H 99.6936 -0.531799 1.49525 0
M  V30 823 H 99.7146 -3.19087 2.07276 0
M  V30 824 H 99.2266 -1.91392 3.37625 0
M  V30 825 H 97.3276 -3.43752 1.43754 0
M  V30 826 H 97.4406 -3.45253 3.3217 0
M  V30 827 H 95.8046 -1.9012 1.69489 0
M  V30 828 H 96.5876 -1.20521 3.21449 0
M  V30 829 N 99.0327 -1.24633 -0.964593 0
M  V30 830 C 99.9807 -1.03917 -2.08096 0
M  V30 831 C 100.975 0.0268581 -1.69379 0
M  V30 832 O 102.181 -0.127952 -1.79545 0
M  V30 833 H 98.5557 -0.319044 -0.680966 0
M  V30 834 H 100.527 -1.98581 -2.22729 0
M  V30 835 C 99.2757 -0.663983 -3.41301 0
M  V30 836 H 98.5987 -1.47605 -3.71555 0
M  V30 837 H 100.039 -0.558663 -4.20303 0
M  V30 838 C 98.4977 0.629169 -3.30973 0
M  V30 839 O 99.0277 1.67404 -3.65156 0
M  V30 840 N 97.2337 0.611057 -2.84103 0
M  V30 841 H 96.7807 -0.239593 -2.56483 0
M  V30 842 H 96.7387 1.47647 -2.77575 0
M  V30 843 N 100.511 1.16574 -1.06058 0
M  V30 844 C 101.922 1.68662 -0.800632 0
M  V30 845 C 102.273 1.84184 0.67608 0
M  V30 846 O 101.398 1.53568 1.52466 0
M  V30 847 C 101.993 3.06356 -1.44676 0
M  V30 848 C 100.552 3.55575 -1.23465 0
M  V30 849 C 99.6988 2.31616 -1.52477 0
M  V30 850 H 102.65 1.00969 -1.22438 0
M  V30 851 H 102.671 3.70636 -0.860788 0
M  V30 852 H 102.183 2.95027 -2.52152 0
M  V30 853 H 100.284 3.72167 -0.179527 0
M  V30 854 H 100.397 4.37812 -1.94571 0
M  V30 855 H 98.7608 2.36512 -0.945209 0
M  V30 856 H 99.5438 2.22887 -2.61106 0
M  V30 857 N 101.989 0.842826 1.3317 0
M  V30 858 C 103.237 0.439577 1.97262 0
M  V30 859 C 103.558 -1.00548 1.67078 0
M  V30 860 O 102.828 -1.70098 0.971779 0
M  V30 861 H 101.408 0.159558 0.72976 0
M  V30 862 H 104.07 1.07665 1.62463 0
M  V30 863 H 103.166 0.574886 3.0676 0
M  V30 864 N 103.467 -1.45747 0.599634 0
M  V30 865 C 104.4 -2.27547 -0.172552 0
M  V30 866 C 105.378 -1.36657 -0.881116 0
M  V30 867 O 106.562 -1.66081 -0.891595 0
M  V30 868 C 103.689 -3.14829 -1.24903 0
M  V30 869 C 102.735 -4.21603 -0.644465 0
M  V30 870 S 103.568 -5.32754 0.541606 0
M  V30 871 C 104.724 -6.23604 -0.535656 0
M  V30 872 H 104.957 -2.92691 0.521468 0
M  V30 873 H 102.49 -1.49473 0.386947 0
M  V30 874 H 104.448 -3.65675 -1.86527 0
M  V30 875 H 103.109 -2.48965 -1.91508 0
M  V30 876 H 102.302 -4.82566 -1.45417 0
M  V30 877 H 101.904 -3.73857 -0.103534 0
M  V30 878 H 104.196 -6.62519 -1.41686 0
M  V30 879 H 105.139 -7.0809 0.0376246 0
M  V30 880 H 105.547 -5.58103 -0.84741 0
M  V30 881 N 104.945 -0.338344 -1.53925 0
M  V30 882 C 106.192 0.259758 -2.00827 0
M  V30 883 C 106.52 1.50973 -1.22628 0
M  V30 884 O 105.775 1.93379 -0.300509 0
M  V30 885 C 106.074 0.62448 -3.51902 0
M  V30 886 C 105.74 -0.528006 -4.47798 0
M  V30 887 C 104.402 -0.844298 -4.73735 0
M  V30 888 C 106.754 -1.30143 -5.0469 0
M  V30 889 C 104.082 -1.93648 -5.53821 0
M  V30 890 C 106.434 -2.38382 -5.85967 0
M  V30 891 C 105.098 -2.70576 -6.10201 0
M  V30 892 H 104.368 0.0950523 -0.734878 0
M  V30 893 H 107.015 -0.465182 -1.85764 0
M  V30 894 H 105.32 1.43006 -3.64769 0
M  V30 895 H 107.017 1.09905 -3.85645 0
M  V30 896 H 103.607 -0.271421 -4.2774 0
M  V30 897 H 107.791 -1.07033 -4.84621 0
M  V30 898 H 103.047 -2.19021 -5.70824 0
M  V30 899 H 107.221 -2.98746 -6.29066 0
M  V30 900 H 104.848 -3.55333 -6.72044 0
M  V30 901 N 106.423 1.57458 -0.0668435 0
M  V30 902 C 107.834 1.80776 0.466558 0
M  V30 903 C 108.185 0.980361 1.69951 0
M  V30 904 O 107.31 0.201441 2.1546 0
M  V30 905 C 107.905 3.27881 0.85321 0
M  V30 906 C 106.464 3.52062 1.3315 0
M  V30 907 C 105.611 2.75513 0.314264 0
M  V30 908 H 108.562 1.5598 -0.292588 0
M  V30 909 H 108.583 3.39659 1.715 0
M  V30 910 H 108.095 3.88075 -0.0443439 0
M  V30 911 H 106.196 2.97167 2.24772 0
M  V30 912 H 106.309 4.60762 1.31285 0
M  V30 913 H 104.673 2.42123 0.790492 0
M  V30 914 H 105.456 3.38442 -0.575477 0
M  V30 915 N 107.901 -0.206675 1.56239 0
M  V30 916 C 109.126 -0.949474 1.8439 0
M  V30 917 C 109.551 -1.76549 0.649016 0
M  V30 918 O 108.909 -1.76782 -0.402231 0
M  V30 919 C 108.957 -1.83078 3.10668 0
M  V30 920 O 108.061 -2.9281 2.90407 0
M  V30 921 H 107.402 -0.268033 0.607499 0
M  V30 922 H 109.932 -0.215488 2.03462 0
M  V30 923 H 109.942 -2.2377 3.41161 0
M  V30 924 H 108.617 -1.23112 3.97261 0
M  V30 925 H 107.194 -2.55956 2.71184 0
M  V30 926 N 109.379 -1.50304 -0.473955 0
M  V30 927 C 110.627 -1.60832 -1.22382 0
M  V30 928 C 110.948 -0.30939 -1.9253 0
M  V30 929 O 110.218 0.67296 -1.83978 0
M  V30 930 H 108.798 -0.592652 -0.454723 0
M  V30 931 H 111.46 -1.87068 -0.546968 0
M  V30 932 H 110.556 -2.41803 -1.97327 0
M  V30 933 N 110.857 0.726932 -1.39834 0
M  V30 934 C 112.085 1.51613 -1.40787 0
M  V30 935 C 112.5 1.88799 -0.00451505 0
M  V30 936 O 111.857 1.54662 0.968809 0
M  V30 937 C 111.908 2.79863 -2.28821 0
M  V30 938 O 111.629 2.44253 -3.63692 0
M  V30 939 C 113.13 3.73837 -2.38245 0
M  V30 940 H 110.35 0.468264 -0.480593 0
M  V30 941 H 112.894 0.897607 -1.83748 0
M  V30 942 H 111.049 3.38027 -1.89252 0
M  V30 943 H 111.463 3.26695 -4.1033 0
M  V30 944 H 112.937 4.60699 -3.04073 0
M  V30 945 H 113.414 4.16153 -1.40403 0
M  V30 946 H 114.02 3.21589 -2.78317 0
M  V30 947 N 112.336 1.25143 0.95797 0
M  V30 948 C 113.747 1.08851 1.51685 0
M  V30 949 C 114.098 -0.33687 1.93286 0
M  V30 950 O 113.223 -1.22644 1.7829 0
M  V30 951 C 113.818 1.96978 2.75654 0
M  V30 952 C 112.377 1.84881 3.27866 0
M  V30 953 C 111.524 1.91329 2.0072 0
M  V30 954 H 114.475 1.38478 0.77522 0
M  V30 955 H 114.496 1.5078 3.4935 0
M  V30 956 H 114.008 3.00712 2.45345 0
M  V30 957 H 112.109 0.840182 3.63004 0
M  V30 958 H 112.222 2.6951 3.96107 0
M  V30 959 H 110.586 1.35174 2.15871 0
M  V30 960 H 111.369 2.96661 1.72764 0
M  V30 961 N 113.814 -1.1601 1.06675 0
M  V30 962 C 115.062 -1.86264 0.784229 0
M  V30 963 C 115.383 -1.82328 -0.691488 0
M  V30 964 O 114.653 -1.25947 -1.50047 0
M  V30 965 H 113.233 -0.689621 0.28711 0
M  V30 966 H 115.895 -1.40664 1.34906 0
M  V30 967 H 114.991 -2.91595 1.11259 0
M  V30 968 N 115.292 -0.849877 -1.32721 0
M  V30 969 C 116.54 -0.450032 -1.97026 0
M  V30 970 C 116.861 0.996604 -1.67609 0
M  V30 971 O 116.131 1.6958 -0.980786 0
M  V30 972 H 114.711 -0.163426 -0.728904 0
M  V30 973 H 117.373 -1.08526 -1.6189 0
M  V30 974 H 116.469 -0.591146 -3.0645 0
M  V30 975 N 116.77 1.45427 -0.607355 0
M  V30 976 C 118.181 1.85756 -0.187535 0
M  V30 977 C 118.532 1.5077 1.25551 0
M  V30 978 O 117.657 0.93427 1.95193 0
M  V30 979 C 118.252 3.37154 -0.333572 0
M  V30 980 C 116.811 3.76387 0.0315542 0
M  V30 981 C 115.958 2.69377 -0.658117 0
M  V30 982 H 118.909 1.36231 -0.81405 0
M  V30 983 H 118.93 3.78014 0.43428 0
M  V30 984 H 118.442 3.62586 -1.38393 0
M  V30 985 H 116.543 3.56571 1.0811 0
M  V30 986 H 116.656 4.77731 -0.361935 0
M  V30 987 H 115.02 2.5452 -0.0957873 0
M  V30 988 H 115.803 2.97646 -1.7106 0
M  V30 989 N 118.248 0.346503 1.53744 0
M  V30 990 C 119.478 -0.250047 2.05081 0
M  V30 991 C 119.886 -1.44529 1.22098 0
M  V30 992 O 119.229 -1.81992 0.249917 0
M  V30 993 C 119.291 -0.725934 3.52094 0
M  V30 994 C 118.955 0.350053 4.55657 0
M  V30 995 C 119.952 1.19372 5.0601 0
M  V30 996 C 117.637 0.504827 4.99757 0
M  V30 997 C 119.631 2.17768 5.99046 0
M  V30 998 C 117.318 1.49218 5.92602 0
M  V30 999 C 118.316 2.32706 6.42135 0
M  V30 1000 O 118.004 3.2976 7.33153 0
M  V30 1001 H 117.736 -0.0515469 0.674032 0
M  V30 1002 H 120.29 0.497559 1.99282 0
M  V30 1003 H 118.52 -1.52483 3.55367 0
M  V30 1004 H 120.209 -1.24336 3.86388 0
M  V30 1005 H 120.975 1.08525 4.72702 0
M  V30 1006 H 116.854 -0.135178 4.60802 0
M  V30 1007 H 120.398 2.82971 6.37631 0
M  V30 1008 H 116.295 1.6012 6.25325 0
M  V30 1009 H 117.063 3.25265 7.51096 0
M  V30 1010 N 119.726 -1.57421 0.075193 0
M  V30 1011 C 120.974 -1.93236 -0.591974 0
M  V30 1012 C 121.295 -0.956241 -1.69944 0
M  V30 1013 O 120.565 -0.00494792 -1.95899 0
M  V30 1014 H 119.145 -0.713355 -0.22166 0
M  V30 1015 H 121.807 -1.9444 0.133848 0
M  V30 1016 H 120.903 -2.95131 -1.01509 0
M  V30 1017 N 121.204 0.198386 -1.56346 0
M  V30 1018 C 122.452 0.91747 -1.80075 0
M  V30 1019 C 122.773 1.83929 -0.647692 0
M  V30 1020 O 122.043 1.93029 0.334166 0
M  V30 1021 H 120.623 0.341774 -0.664228 0
M  V30 1022 H 123.285 0.204684 -1.93822 0
M  V30 1023 H 122.381 1.51055 -2.7311 0
M  V30 1024 N 122.682 1.50554 0.465978 0
M  V30 1025 C 123.645 1.69233 1.54574 0
M  V30 1026 C 124.645 0.562901 1.50626 0
M  V30 1027 O 125.835 0.830016 1.53155 0
M  V30 1028 C 122.967 1.7223 2.94193 0
M  V30 1029 H 124.16 2.65571 1.39327 0
M  V30 1030 H 121.713 1.40111 0.692711 0
M  V30 1031 H 122.448 0.77603 3.14878 0
M  V30 1032 H 122.233 2.54285 2.98466 0
M  V30 1033 H 123.723 1.88618 3.72576 0
M  V30 1034 N 124.16 -0.719506 1.40217 0
M  V30 1035 C 125.123 -1.8153 1.39927 0
M  V30 1036 C 126.123 -1.58095 0.293723 0
M  V30 1037 O 127.313 -1.65209 0.552429 0
M  V30 1038 C 124.445 -3.19561 1.18716 0
M  V30 1039 H 125.638 -1.83186 2.37451 0
M  V30 1040 H 123.191 -0.924746 1.26008 0
M  V30 1041 H 123.926 -3.23557 0.219366 0
M  V30 1042 H 123.711 -3.3797 1.98793 0
M  V30 1043 H 125.201 -3.99598 1.21291 0
M  V30 1044 N 125.638 -1.25649 -0.95132 0
M  V30 1045 C 127.049 -1.09654 -1.51106 0
M  V30 1046 C 127.4 0.326615 -1.93462 0
M  V30 1047 O 126.525 1.21697 -1.78938 0
M  V30 1048 C 127.12 -1.98437 -2.74605 0
M  V30 1049 C 125.679 -1.86618 -3.2688 0
M  V30 1050 C 124.826 -1.9239 -1.99703 0
M  V30 1051 H 127.777 -1.38887 -0.767865 0
M  V30 1052 H 127.798 -1.5263 -3.48546 0
M  V30 1053 H 127.31 -3.02009 -2.43746 0
M  V30 1054 H 125.411 -0.859421 -3.62553 0
M  V30 1055 H 125.524 -2.71607 -3.94673 0
M  V30 1056 H 123.888 -1.36317 -2.15151 0
M  V30 1057 H 124.671 -2.97573 -1.71188 0
M  V30 1058 N 127.117 1.15442 -1.07289 0
M  V30 1059 C 128.365 1.85845 -0.794096 0
M  V30 1060 C 128.686 1.82692 0.681809 0
M  V30 1061 O 127.956 1.26741 1.49377 0
M  V30 1062 H 126.536 0.688089 -0.290763 0
M  V30 1063 H 129.198 1.39947 -1.3565 0
M  V30 1064 H 128.294 2.91001 -1.12804 0
M  V30 1065 N 128.595 0.856903 1.32268 0
M  V30 1066 C 129.843 0.460474 1.96784 0
M  V30 1067 C 130.164 -0.987701 1.68135 0
M  V30 1068 O 129.434 -1.69058 0.989765 0
M  V30 1069 H 128.014 0.167289 0.728027 0
M  V30 1070 H 130.676 1.09383 1.61312 0
M  V30 1071 H 129.772 0.60739 3.06133 0
M  V30 1072 N 130.073 -1.45103 0.615059 0
M  V30 1073 C 131.484 -1.85654 0.197383 0
M  V30 1074 C 131.835 -1.51433 -1.24749 0
M  V30 1075 O 130.96 -0.944608 -1.94695 0
M  V30 1076 C 131.555 -3.36972 0.351448 0
M  V30 1077 C 130.114 -3.76398 -0.011593 0
M  V30 1078 C 129.261 -2.69024 0.672394 0
M  V30 1079 H 132.212 -1.35797 0.821263 0
M  V30 1080 H 132.233 -3.78239 -0.414227 0
M  V30 1081 H 131.745 -3.61847 1.40314 0
M  V30 1082 H 129.846 -3.5714 -1.06217 0
M  V30 1083 H 129.959 -4.77532 0.387265 0
M  V30 1084 H 128.323 -2.54465 0.109284 0
M  V30 1085 H 129.106 -2.96735 1.72636 0
M  V30 1086 N 131.551 -0.354651 -1.53558 0
M  V30 1087 C 132.781 0.239167 -2.05211 0
M  V30 1088 C 133.189 1.43879 -1.22863 0
M  V30 1089 O 132.532 1.81857 -0.259565 0
M  V30 1090 C 132.594 0.707251 -3.52474 0
M  V30 1091 C 132.258 -0.374212 -4.55465 0
M  V30 1092 C 133.255 -1.22054 -5.0537 0
M  V30 1093 C 130.94 -0.531323 -4.99482 0
M  V30 1094 C 132.934 -2.20942 -5.97882 0
M  V30 1095 C 130.621 -1.52358 -5.91802 0
M  V30 1096 C 131.619 -2.36108 -6.40892 0
M  V30 1097 O 131.307 -3.33643 -7.31394 0
M  V30 1098 H 131.039 0.0479716 -0.674296 0
M  V30 1099 H 133.593 -0.508121 -1.99016 0
M  V30 1100 H 131.823 1.50596 -3.56171 0
M  V30 1101 H 133.512 1.22285 -3.87042 0
M  V30 1102 H 134.278 -1.1103 -4.7212 0
M  V30 1103 H 130.157 0.110738 -4.60867 0
M  V30 1104 H 133.701 -2.86348 -6.36121 0
M  V30 1105 H 129.598 -1.63434 -6.24467 0
M  V30 1106 H 130.366 -3.29244 -7.4936 0
M  V30 1107 N 133.029 1.57378 -0.0835403 0
M  V30 1108 C 134.277 1.93547 0.581718 0
M  V30 1109 C 134.598 0.96524 1.69435 0
M  V30 1110 O 133.868 0.0153369 1.95894 0
M  V30 1111 H 132.448 0.714521 0.217874 0
M  V30 1112 H 135.11 1.94366 -0.144158 0
M  V30 1113 H 134.206 2.95665 0.999423 0
M  V30 1114 N 134.507 -0.190092 1.56449 0
M  V30 1115 C 135.439 -1.25973 1.91477 0
M  V30 1116 C 136.452 -1.41452 0.805931 0
M  V30 1117 O 137.641 -1.41789 1.08435 0
M  V30 1118 C 134.741 -2.63117 2.13594 0
M  V30 1119 C 133.914 -2.69182 3.4476 0
M  V30 1120 C 132.973 -3.87557 3.5593 0
M  V30 1121 O 131.999 -3.74427 4.28711 0
M  V30 1122 N 133.201 -5.03224 2.89388 0
M  V30 1123 H 135.966 -0.962394 2.83828 0
M  V30 1124 H 133.527 -0.379981 1.57378 0
M  V30 1125 H 135.519 -3.40742 2.1835 0
M  V30 1126 H 134.089 -2.85319 1.27719 0
M  V30 1127 H 133.309 -1.77793 3.51828 0
M  V30 1128 H 134.597 -2.70229 4.31107 0
M  V30 1129 H 133.995 -5.16791 2.30094 0
M  V30 1130 H 132.552 -5.78778 2.99764 0
M  V30 1131 N 135.985 -1.50799 -0.457987 0
M  V30 1132 C 137.396 -1.55152 -1.0385 0
M  V30 1133 C 137.747 -0.362719 -1.92818 0
M  V30 1134 O 136.872 0.522915 -2.09987 0
M  V30 1135 C 137.467 -2.81173 -1.89017 0
M  V30 1136 C 136.026 -2.88164 -2.42154 0
M  V30 1137 C 135.173 -2.49591 -1.20829 0
M  V30 1138 H 138.124 -1.56874 -0.240068 0
M  V30 1139 H 138.145 -2.63769 -2.74238 0
M  V30 1140 H 137.657 -3.67677 -1.24238 0
M  V30 1141 H 135.758 -2.06042 -3.10447 0
M  V30 1142 H 135.871 -3.91356 -2.76364 0
M  V30 1143 H 134.235 -2.02322 -1.54719 0
M  V30 1144 H 135.018 -3.38418 -0.576927 0
M  V30 1145 N 137.463 0.71206 -1.40597 0
M  V30 1146 C 138.874 1.29135 -1.34837 0
M  V30 1147 C 139.225 1.96186 -0.0235395 0
M  V30 1148 O 138.35 1.97768 0.878444 0
M  V30 1149 C 138.945 2.34827 -2.44217 0
M  V30 1150 C 137.504 2.88371 -2.41907 0
M  V30 1151 C 136.651 1.62202 -2.24913 0
M  V30 1152 H 139.602 0.507944 -1.50352 0
M  V30 1153 H 139.623 3.15749 -2.12327 0
M  V30 1154 H 139.135 1.85996 -3.40627 0
M  V30 1155 H 137.236 3.41422 -1.49204 0
M  V30 1156 H 137.349 3.39925 -3.37621 0
M  V30 1157 H 135.713 1.874 -1.72492 0
M  V30 1158 H 136.496 1.15391 -3.23326 0
M  V30 1159 N 138.941 1.26152 0.944643 0
M  V30 1160 C 140.352 1.10454 1.50522 0
M  V30 1161 C 140.703 -0.31635 1.93633 0
M  V30 1162 O 139.828 -1.20746 1.79581 0
M  V30 1163 C 140.423 1.99891 2.73549 0
M  V30 1164 C 138.982 1.88348 3.25886 0
M  V30 1165 C 138.129 1.93447 1.9868 0
M  V30 1166 H 141.08 1.39292 0.760489 0
M  V30 1167 H 141.101 1.54477 3.47732 0
M  V30 1168 H 140.613 3.03297 2.42141 0
M  V30 1169 H 138.714 0.878636 3.62092 0
M  V30 1170 H 138.827 2.73696 3.93227 0
M  V30 1171 H 137.191 1.37456 2.14425 0
M  V30 1172 H 137.974 2.98476 1.69607 0
M  V30 1173 N 140.419 -1.14872 1.07899 0
M  V30 1174 C 141.644 -1.90202 0.826926 0
M  V30 1175 C 142.069 -1.77774 -0.614664 0
M  V30 1176 O 141.427 -1.11431 -1.43013 0
M  V30 1177 C 141.475 -3.38352 1.24702 0
M  V30 1178 O 140.579 -4.10497 0.39575 0
M  V30 1179 H 139.92 -0.591968 0.300782 0
M  V30 1180 H 142.45 -1.45437 1.43907 0
M  V30 1181 H 142.46 -3.89156 1.22563 0
M  V30 1182 H 141.135 -3.46715 2.29698 0
M  V30 1183 H 139.712 -3.69796 0.480117 0
M  V30 1184 N 141.898 -0.863906 -1.31812 0
M  V30 1185 C 143.123 -0.48527 -2.01643 0
M  V30 1186 C 143.548 0.913058 -1.64453 0
M  V30 1187 O 142.906 1.6014 -0.849985 0
M  V30 1188 C 142.954 -0.642625 -3.54828 0
M  V30 1189 O 142.058 0.320659 -4.11151 0
M  V30 1190 H 141.399 -0.193793 -0.635091 0
M  V30 1191 H 143.929 -1.16565 -1.68148 0
M  V30 1192 H 143.939 -0.533628 -4.04495 0
M  V30 1193 H 142.614 -1.66227 -3.81237 0
M  V30 1194 H 141.191 0.167126 -3.72525 0
M  V30 1195 N 143.376 1.44774 -0.622745 0
M  V30 1196 C 144.606 2.06187 -0.130532 0
M  V30 1197 C 145.014 1.46547 1.19669 0
M  V30 1198 O 144.357 0.579636 1.74316 0
M  V30 1199 C 144.419 3.59437 0.0674983 0
M  V30 1200 C 144.083 4.41496 -1.18026 0
M  V30 1201 C 145.08 4.75512 -2.102 0
M  V30 1202 C 142.765 4.82007 -1.41333 0
M  V30 1203 C 144.759 5.48912 -3.23998 0
M  V30 1204 C 142.446 5.55157 -2.55429 0
M  V30 1205 C 143.444 5.88528 -3.46589 0
M  V30 1206 O 143.132 6.60191 -4.58697 0
M  V30 1207 H 142.864 0.672045 -0.0730162 0
M  V30 1208 H 145.418 1.86768 -0.854802 0
M  V30 1209 H 143.648 3.77314 0.846825 0
M  V30 1210 H 145.337 4.02642 0.513209 0
M  V30 1211 H 146.103 4.4476 -1.93425 0
M  V30 1212 H 141.982 4.55457 -0.712709 0
M  V30 1213 H 145.526 5.74877 -3.95174 0
M  V30 1214 H 141.423 5.85324 -2.72151 0
M  V30 1215 H 142.191 6.78654 -4.57571 0
M  V30 1216 N 144.854 0.36279 1.53368 0
M  V30 1217 C 146.102 -0.227326 2.00817 0
M  V30 1218 C 146.423 -1.49511 1.25186 0
M  V30 1219 O 145.693 -1.92482 0.364348 0
M  V30 1220 H 144.273 -0.0869923 0.741917 0
M  V30 1221 H 146.935 0.488381 1.88682 0
M  V30 1222 H 146.031 -0.456273 3.08747 0
M  V30 1223 N 146.332 -1.57332 0.0918853 0
M  V30 1224 C 147.295 -2.12708 -0.85369 0
M  V30 1225 C 148.295 -1.05561 -1.213 0
M  V30 1226 O 149.485 -1.31461 -1.14296 0
M  V30 1227 C 146.617 -2.64503 -2.15061 0
M  V30 1228 H 147.81 -2.97573 -0.3729 0
M  V30 1229 H 145.363 -1.55509 -0.157072 0
M  V30 1230 H 146.098 -1.83149 -2.67632 0
M  V30 1231 H 145.883 -3.4284 -1.90272 0
M  V30 1232 H 147.373 -3.07351 -2.82711 0
M  V30 1233 N 147.81 0.181792 -1.56548 0
M  V30 1234 C 148.742 1.24956 -1.92142 0
M  V30 1235 C 149.755 1.41022 -0.813422 0
M  V30 1236 O 150.944 1.41212 -1.09186 0
M  V30 1237 C 148.044 2.61981 -2.14987 0
M  V30 1238 C 147.217 2.6735 -3.46183 0
M  V30 1239 C 146.276 3.85664 -3.5798 0
M  V30 1240 O 145.302 3.72148 -4.30691 0
M  V30 1241 N 146.504 5.01683 -2.92053 0
M  V30 1242 H 149.269 0.947329 -2.84334 0
M  V30 1243 H 146.83 0.371629 -1.57577 0
M  V30 1244 H 148.822 3.3958 -2.20154 0
M  V30 1245 H 147.392 2.84637 -1.2923 0
M  V30 1246 H 146.612 1.75925 -3.52766 0
M  V30 1247 H 147.9 2.67939 -4.32534 0
M  V30 1248 H 147.298 5.15564 -2.32832 0
M  V30 1249 H 145.855 5.77181 -3.0283 0
M  V30 1250 N 149.288 1.51039 0.449983 0
M  V30 1251 C 150.22 1.67617 1.56324 0
M  V30 1252 C 151.233 0.557083 1.52972 0
M  V30 1253 O 152.422 0.830989 1.57977 0
M  V30 1254 C 149.522 1.66402 2.95235 0
M  V30 1255 C 148.695 2.9469 3.23229 0
M  V30 1256 C 147.754 2.85832 4.41799 0
M  V30 1257 O 146.78 3.59785 4.41071 0
M  V30 1258 N 147.982 2.00821 5.44657 0
M  V30 1259 H 150.747 2.63648 1.42512 0
M  V30 1260 H 148.308 1.48767 0.638737 0
M  V30 1261 H 150.3 1.58062 3.72557 0
M  V30 1262 H 148.87 0.780182 3.02708 0
M  V30 1263 H 148.09 3.16996 2.34323 0
M  V30 1264 H 149.378 3.79636 3.38754 0
M  V30 1265 H 148.776 1.40091 5.48079 0
M  V30 1266 H 147.333 1.98368 6.20881 0
M  V30 1267 N 150.766 -0.704594 1.40972 0
M  V30 1268 C 152.177 -1.28418 1.3552 0
M  V30 1269 C 152.528 -1.96171 0.0339434 0
M  V30 1270 O 151.653 -1.98231 -0.867944 0
M  V30 1271 C 152.248 -2.33528 2.45459 0
M  V30 1272 C 150.807 -2.87085 2.43433 0
M  V30 1273 C 149.954 -1.61007 2.2577 0
M  V30 1274 H 152.905 -0.499963 1.50619 0
M  V30 1275 H 152.926 -3.14619 2.13998 0
M  V30 1276 H 152.438 -1.84187 3.41609 0
M  V30 1277 H 150.539 -3.40626 1.51013 0
M  V30 1278 H 150.652 -3.3813 3.39419 0
M  V30 1279 H 149.016 -1.86482 1.73483 0
M  V30 1280 H 149.799 -1.13675 3.23933 0
M  V30 1281 N 152.244 -1.26651 -0.937939 0
M  V30 1282 C 153.492 -1.12165 -1.68118 0
M  V30 1283 C 153.813 0.334983 -1.92101 0
M  V30 1284 O 153.083 1.23583 -1.52 0
M  V30 1285 H 151.663 -0.412093 -0.623048 0
M  V30 1286 H 154.325 -1.59027 -1.12678 0
M  V30 1287 H 153.421 -1.64289 -2.6536 0
M  V30 1288 N 153.722 1.14298 -1.08507 0
M  V30 1289 C 154.652 2.21542 -0.737646 0
M  V30 1290 C 155.633 1.67773 0.280377 0
M  V30 1291 O 156.818 1.93616 0.150521 0
M  V30 1292 C 153.948 3.46988 -0.147259 0
M  V30 1293 C 152.902 4.13789 -1.09374 0
M  V30 1294 C 152.228 5.33449 -0.365524 0
M  V30 1295 C 153.528 4.62208 -2.4323 0
M  V30 1296 H 155.222 2.5086 -1.6343 0
M  V30 1297 H 152.768 1.20576 -0.787243 0
M  V30 1298 H 154.721 4.21262 0.107808 0
M  V30 1299 H 153.445 3.17037 0.784538 0
M  V30 1300 H 152.104 3.4147 -1.33393 0
M  V30 1301 H 151.752 4.99759 0.57011 0
M  V30 1302 H 151.452 5.79088 -0.996512 0
M  V30 1303 H 152.976 6.10485 -0.118534 0
M  V30 1304 H 154.39 5.27952 -2.23472 0
M  V30 1305 H 152.787 5.18553 -3.02031 0
M  V30 1306 H 153.857 3.77224 -3.04681 0
M  V30 1307 N 155.201 0.870884 1.31352 0
M  V30 1308 C 156.431 0.496049 2.00557 0
M  V30 1309 C 156.839 -0.916241 1.65534 0
M  V30 1310 O 156.182 -1.61188 0.881134 0
M  V30 1311 C 156.244 0.574418 3.54881 0
M  V30 1312 C 155.908 1.94849 4.1338 0
M  V30 1313 C 156.905 2.91611 4.30417 0
M  V30 1314 C 154.59 2.25005 4.49086 0
M  V30 1315 C 156.584 4.16672 4.82352 0
M  V30 1316 C 154.271 3.50315 5.00722 0
M  V30 1317 C 155.269 4.45964 5.17306 0
M  V30 1318 O 154.957 5.69052 5.67833 0
M  V30 1319 H 154.689 0.191664 0.64826 0
M  V30 1320 H 157.243 1.17409 1.68536 0
M  V30 1321 H 155.473 -0.160549 3.86367 0
M  V30 1322 H 157.162 0.212879 4.05341 0
M  V30 1323 H 157.928 2.69622 4.03149 0
M  V30 1324 H 153.807 1.51332 4.35453 0
M  V30 1325 H 157.351 4.91336 4.95211 0
M  V30 1326 H 153.248 3.72147 5.27424 0
M  V30 1327 H 154.016 5.71236 5.86201 0
M  V30 1328 N 156.679 -1.44442 0.630414 0
M  V30 1329 C 157.927 -2.01653 0.134351 0
M  V30 1330 C 158.248 -1.49836 -1.24796 0
M  V30 1331 O 157.518 -0.701684 -1.82902 0
M  V30 1332 H 156.098 -0.74554 0.0466769 0
M  V30 1333 H 158.76 -1.76952 0.816955 0
M  V30 1334 H 157.856 -3.11935 0.101498 0
M  V30 1335 N 158.157 -0.370918 -1.53173 0
M  V30 1336 C 159.089 0.507823 -2.23503 0
M  V30 1337 C 160.102 1.04182 -1.251 0
M  V30 1338 O 161.291 0.947286 -1.5129 0
M  V30 1339 C 158.391 1.71447 -2.92334 0
M  V30 1340 C 157.564 1.31105 -4.17289 0
M  V30 1341 C 156.623 2.38035 -4.69282 0
M  V30 1342 O 155.649 2.00204 -5.32829 0
M  V30 1343 N 156.851 3.69697 -4.47554 0
M  V30 1344 H 159.616 -0.0946382 -2.99551 0
M  V30 1345 H 157.177 -0.196358 -1.60705 0
M  V30 1346 H 159.169 2.42469 -3.24023 0
M  V30 1347 H 157.739 2.22368 -2.19707 0
M  V30 1348 H 156.959 0.430462 -3.91843 0
M  V30 1349 H 158.247 1.0179 -4.98514 0
M  V30 1350 H 157.645 4.03205 -3.9679 0
M  V30 1351 H 156.202 4.36807 -4.8378 0
M  V30 1352 N 159.635 1.57281 -0.100228 0
M  V30 1353 C 160.883 1.94153 0.561157 0
M  V30 1354 C 161.204 0.983157 1.68401 0
M  V30 1355 O 160.474 0.0361132 1.95867 0
M  V30 1356 H 159.054 0.716791 0.210283 0
M  V30 1357 H 161.716 1.94202 -0.164765 0
M  V30 1358 H 160.812 2.96709 0.968008 0
M  V30 1359 N 161.113 -0.173488 1.56642 0
M  V30 1360 C 162.361 -0.888706 1.81512 0
M  V30 1361 C 162.682 -1.82875 0.676872 0
M  V30 1362 O 161.952 -1.93536 -0.303414 0
M  V30 1363 H 160.532 -0.331164 0.669582 0
M  V30 1364 H 163.194 -0.173823 1.94123 0
M  V30 1365 H 162.29 -1.46691 2.75478 0
M  V30 1366 N 162.591 -1.51276 -0.441967 0
M  V30 1367 C 163.554 -1.7167 -1.51862 0
M  V30 1368 C 164.554 -0.586793 -1.49711 0
M  V30 1369 O 165.744 -0.854276 -1.51815 0
M  V30 1370 C 162.876 -1.76889 -2.91416 0
M  V30 1371 H 164.069 -2.67754 -1.35084 0
M  V30 1372 H 161.622 -1.41196 -0.670333 0
M  V30 1373 H 162.357 -0.826026 -3.13604 0
M  V30 1374 H 162.142 -2.59001 -2.94382 0
M  V30 1375 H 163.632 -1.94522 -3.69528 0
M  V30 1376 N 164.069 0.697108 -1.41344 0
M  V30 1377 C 165.48 1.27697 -1.36199 0
M  V30 1378 C 165.831 1.9615 -0.0443463 0
M  V30 1379 O 164.956 1.98689 0.857419 0
M  V30 1380 C 165.551 2.32223 -2.46694 0
M  V30 1381 C 164.11 2.8579 -2.44952 0
M  V30 1382 C 163.257 1.59807 -2.26621 0
M  V30 1383 H 166.208 0.491968 -1.50882 0
M  V30 1384 H 166.229 3.1348 -2.15664 0
M  V30 1385 H 165.741 1.82373 -3.42581 0
M  V30 1386 H 163.842 3.3982 -1.52817 0
M  V30 1387 H 163.955 3.36325 -3.41207 0
M  V30 1388 H 162.319 1.8556 -1.7447 0
M  V30 1389 H 163.102 1.11956 -3.24532 0
M  V30 1390 N 165.547 1.27147 0.931209 0
M  V30 1391 C 166.958 1.12044 1.49342 0
M  V30 1392 C 167.309 -0.295795 1.93957 0
M  V30 1393 O 166.434 -1.18835 1.80852 0
M  V30 1394 C 167.029 2.02781 2.71414 0
M  V30 1395 C 165.588 1.91794 3.2387 0
M  V30 1396 C 164.735 1.95543 1.96617 0
M  V30 1397 H 167.686 1.40091 0.745672 0
M  V30 1398 H 167.707 1.58156 3.46074 0
M  V30 1399 H 167.219 3.05848 2.38911 0
M  V30 1400 H 165.32 0.916992 3.6114 0
M  V30 1401 H 165.433 2.77852 3.90302 0
M  V30 1402 H 163.797 1.39722 2.12955 0
M  V30 1403 H 164.58 3.00259 1.66432 0
M  V30 1404 N 167.025 -1.13721 1.09112 0
M  V30 1405 C 167.973 -2.21103 0.722219 0
M  V30 1406 C 168.967 -1.67147 -0.275374 0
M  V30 1407 O 170.173 -1.79477 -0.137176 0
M  V30 1408 H 166.548 -0.720445 0.215553 0
M  V30 1409 H 168.519 -2.49483 1.63709 0
M  V30 1410 C 167.268 -3.47352 0.15543 0
M  V30 1411 H 166.591 -3.89206 0.914246 0
M  V30 1412 H 168.031 -4.2395 -0.0647967 0
M  V30 1413 C 166.49 -3.1814 -1.10852 0
M  V30 1414 O 167.02 -3.36604 -2.19227 0
M  V30 1415 N 165.226 -2.72045 -1.02176 0
M  V30 1416 H 164.773 -2.57221 -0.139764 0
M  V30 1417 H 164.731 -2.52875 -1.8682 0
M  V30 1418 N 168.503 -0.877838 -1.30888 0
M  V30 1419 C 169.749 -0.493426 -1.96706 0
M  V30 1420 C 170.082 0.953504 -1.6918 0
M  V30 1421 O 169.357 1.67266 -0.992594 0
M  V30 1422 C 169.64 -0.760429 -3.51979 0
M  V30 1423 C 169.493 -2.25747 -3.89048 0
M  V30 1424 C 170.812 -0.232148 -4.39487 0
M  V30 1425 H 167.931 -0.180746 -0.714493 0
M  V30 1426 H 170.573 -1.10052 -1.54882 0
M  V30 1427 H 168.723 -0.243715 -3.87735 0
M  V30 1428 H 170.395 -2.84204 -3.63354 0
M  V30 1429 H 168.638 -2.72694 -3.37373 0
M  V30 1430 H 169.309 -2.39491 -4.97341 0
M  V30 1431 H 171.785 -0.674314 -4.106 0
M  V30 1432 H 170.661 -0.448355 -5.47066 0
M  V30 1433 H 170.922 0.866297 -4.33529 0
M  V30 1434 N 169.982 1.44106 -0.638065 0
M  V30 1435 C 171.259 1.95453 -0.0759321 0
M  V30 1436 C 171.639 1.57984 1.40015 0
M  V30 1437 O 170.987 0.857361 2.11806 0
M  V30 1438 C 171.197 3.47655 -0.306132 0
M  V30 1439 C 172.545 4.24114 -0.203008 0
M  V30 1440 O 173.569 3.55405 -0.237871 0
M  V30 1441 O 172.428 5.46381 -0.113827 0
M  V30 1442 H 169.522 0.826797 0.0183332 0
M  V30 1443 H 172.068 1.54122 -0.710251 0
M  V30 1444 H 170.84 3.68 -1.3301 0
M  V30 1445 H 170.463 3.95949 0.361991 0
M  V30 1446 N 171.46 0.379036 1.52974 0
M  V30 1447 C 172.871 -0.0972525 1.86447 0
M  V30 1448 C 173.222 -1.47027 1.29914 0
M  V30 1449 O 172.347 -2.07135 0.626433 0
M  V30 1450 C 172.942 -0.183248 3.38304 0
M  V30 1451 C 171.501 -0.603812 3.71525 0
M  V30 1452 C 170.648 0.240632 2.76254 0
M  V30 1453 H 173.599 0.597316 1.4703 0
M  V30 1454 H 173.62 -1.00432 3.67006 0
M  V30 1455 H 173.132 0.816191 3.79421 0
M  V30 1456 H 171.233 -1.61099 3.35973 0
M  V30 1457 H 171.346 -0.369086 4.77676 0
M  V30 1458 H 169.71 -0.292548 2.53014 0
M  V30 1459 H 170.493 1.23786 3.20206 0
M  V30 1460 N 172.938 -1.57226 0.108567 0
M  V30 1461 C 173.848 -2.18292 -0.859401 0
M  V30 1462 C 174.864 -1.15612 -1.30038 0
M  V30 1463 O 176.04 -1.48039 -1.36552 0
M  V30 1464 C 173.105 -2.762 -2.09558 0
M  V30 1465 C 172.166 -3.93881 -1.70752 0
M  V30 1466 C 171.399 -4.49018 -2.88477 0
M  V30 1467 O 171.622 -4.03068 -4.036 0
M  V30 1468 O 170.556 -5.39852 -2.66164 0
M  V30 1469 H 174.382 -3.01441 -0.369769 0
M  V30 1470 H 171.967 -1.48945 -0.1165 0
M  V30 1471 H 173.849 -3.13156 -2.81978 0
M  V30 1472 H 172.524 -1.96089 -2.57548 0
M  V30 1473 H 171.431 -3.61713 -0.954714 0
M  V30 1474 H 172.764 -4.75396 -1.27513 0
M  V30 1475 N 174.416 0.165178 -1.56732 0
M  V30 1476 C 175.379 1.18822 -1.95995 0
M  V30 1477 C 176.379 1.3685 -0.84431 0
M  V30 1478 O 177.569 1.34152 -1.11126 0
M  V30 1479 C 174.701 2.5521 -2.26011 0
M  V30 1480 H 175.894 0.851825 -2.87548 0
M  V30 1481 H 173.447 0.407857 -1.50885 0
M  V30 1482 H 174.182 2.93852 -1.37191 0
M  V30 1483 H 173.967 2.43489 -3.07336 0
M  V30 1484 H 175.457 3.28927 -2.57288 0
M  V30 1485 N 175.894 1.51508 0.433938 0
M  V30 1486 C 177.124 1.67914 1.20369 0
M  V30 1487 C 177.532 0.377461 1.85397 0
M  V30 1488 O 176.875 -0.654255 1.71654 0
M  V30 1489 C 176.937 2.74045 2.32679 0
M  V30 1490 C 176.601 4.16543 1.87991 0
M  V30 1491 C 177.598 5.01211 1.38145 0
M  V30 1492 C 175.283 4.6266 1.95579 0
M  V30 1493 C 177.277 6.30056 0.964774 0
M  V30 1494 C 174.964 5.91501 1.53523 0
M  V30 1495 C 175.962 6.75027 1.04055 0
M  V30 1496 O 175.65 8.01459 0.625964 0
M  V30 1497 H 175.382 0.566578 0.368735 0
M  V30 1498 H 177.936 1.98709 0.51999 0
M  V30 1499 H 176.166 2.38572 3.04336 0
M  V30 1500 H 177.855 2.79295 2.94532 0
M  V30 1501 H 178.621 4.66783 1.31675 0
M  V30 1502 H 174.5 3.97767 2.33029 0
M  V30 1503 H 178.044 6.95202 0.57796 0
M  V30 1504 H 173.941 6.25442 1.59665 0
M  V30 1505 H 174.709 8.15043 0.751509 0
M  V30 1506 N 177.372 -0.689602 1.41712 0
M  V30 1507 C 178.597 -1.48329 1.44959 0
M  V30 1508 C 179.022 -1.8801 0.0581283 0
M  V30 1509 O 178.38 -1.55026 -0.940035 0
M  V30 1510 C 178.428 -2.71835 2.36935 0
M  V30 1511 O 177.532 -3.69549 1.8305 0
M  V30 1512 H 176.873 -0.446199 0.491734 0
M  V30 1513 H 179.403 -0.847127 1.86239 0
M  V30 1514 H 179.413 -3.20076 2.53013 0
M  V30 1515 H 178.088 -2.42291 3.38035 0
M  V30 1516 H 176.665 -3.2851 1.76452 0
M  V30 1517 N 178.85 -1.27639 -0.924453 0
M  V30 1518 C 180.096 -1.15345 -1.67532 0
M  V30 1519 C 180.451 0.297096 -1.90092 0
M  V30 1520 O 179.744 1.21374 -1.48253 0
M  V30 1521 C 179.938 -1.87407 -3.04325 0
M  V30 1522 C 179.767 -3.3932 -2.95114 0
M  V30 1523 C 178.537 -4.08644 -2.97218 0
M  V30 1524 C 180.735 -4.35242 -2.73987 0
M  V30 1525 N 178.717 -5.47102 -2.78482 0
M  V30 1526 C 180.088 -5.6099 -2.63988 0
M  V30 1527 C 182.143 -4.25294 -2.589 0
M  V30 1528 C 180.846 -6.77924 -2.40442 0
M  V30 1529 C 182.872 -5.41952 -2.36731 0
M  V30 1530 C 182.234 -6.66658 -2.27478 0
M  V30 1531 H 178.333 -0.47696 -0.619704 0
M  V30 1532 H 180.917 -1.6115 -1.09265 0
M  V30 1533 H 179.088 -1.44053 -3.60699 0
M  V30 1534 H 180.82 -1.6759 -3.68369 0
M  V30 1535 H 177.575 -3.60136 -3.07569 0
M  V30 1536 H 177.999 -6.19852 -2.72236 0
M  V30 1537 H 182.641 -3.29598 -2.64811 0
M  V30 1538 H 180.359 -7.73699 -2.3327 0
M  V30 1539 H 183.945 -5.36137 -2.25938 0
M  V30 1540 H 182.825 -7.55405 -2.10555 0
M  V30 1541 N 180.328 1.1314 -1.09713 0
M  V30 1542 C 181.575 1.84484 -0.834987 0
M  V30 1543 C 181.903 1.83689 0.639418 0
M  V30 1544 O 181.158 1.2724 1.4869 0
M  V30 1545 C 181.457 3.32167 -1.3191 0
M  V30 1546 C 181.123 3.53139 -2.80363 0
M  V30 1547 C 179.785 3.58571 -3.20905 0
M  V30 1548 C 182.137 3.60866 -3.76065 0
M  V30 1549 C 179.465 3.69267 -4.55916 0
M  V30 1550 C 181.817 3.73089 -5.10869 0
M  V30 1551 C 180.481 3.76775 -5.50996 0
M  V30 1552 H 179.751 0.675073 -0.305544 0
M  V30 1553 H 182.398 1.33554 -1.37243 0
M  V30 1554 H 180.703 3.85469 -0.701517 0
M  V30 1555 H 182.4 3.85821 -1.09284 0
M  V30 1556 H 178.99 3.49569 -2.47991 0
M  V30 1557 H 183.174 3.55946 -3.45855 0
M  V30 1558 H 178.43 3.70388 -4.86438 0
M  V30 1559 H 182.604 3.78011 -5.84877 0
M  V30 1560 H 180.231 3.84815 -6.55608 0
M  V30 1561 N 181.806 0.884767 1.30421 0
M  V30 1562 C 182.738 0.308655 2.27112 0
M  V30 1563 C 183.751 -0.536655 1.53701 0
M  V30 1564 O 184.94 -0.35624 1.74909 0
M  V30 1565 C 182.04 -0.579782 3.33904 0
M  V30 1566 C 181.213 0.236417 4.36761 0
M  V30 1567 C 180.272 -0.582482 5.22966 0
M  V30 1568 O 179.298 -0.00525502 5.692 0
M  V30 1569 N 180.5 -1.89163 5.48815 0
M  V30 1570 H 183.265 1.13964 2.77186 0
M  V30 1571 H 180.826 0.747731 1.43599 0
M  V30 1572 H 182.818 -1.13366 3.88497 0
M  V30 1573 H 181.388 -1.31144 2.83761 0
M  V30 1574 H 180.608 0.97174 3.82035 0
M  V30 1575 H 181.896 0.795924 5.02536 0
M  V30 1576 H 181.294 -2.38352 5.13035 0
M  V30 1577 H 179.851 -2.39296 6.06284 0
M  V30 1578 N 183.284 -1.43765 0.645699 0
M  V30 1579 C 184.509 -2.06767 0.161883 0
M  V30 1580 C 184.934 -1.48034 -1.16049 0
M  V30 1581 O 184.292 -0.587369 -1.71522 0
M  V30 1582 C 184.34 -3.60519 0.0762003 0
M  V30 1583 O 183.444 -4.00982 -0.963721 0
M  V30 1584 H 182.785 -0.657675 0.091429 0
M  V30 1585 H 185.315 -1.84397 0.886499 0
M  V30 1586 H 185.325 -4.07853 -0.109604 0
M  V30 1587 H 184 -4.02646 1.04157 0
M  V30 1588 H 182.577 -3.65253 -0.751312 0
M  V30 1589 N 184.763 -0.387143 -1.52771 0
M  V30 1590 C 186.009 0.196025 -2.0185 0
M  V30 1591 C 186.342 1.46641 -1.27319 0
M  V30 1592 O 185.617 1.90889 -0.373032 0
M  V30 1593 C 185.9 0.466136 -3.5707 0
M  V30 1594 C 185.753 -0.819385 -4.42274 0
M  V30 1595 C 187.072 1.25768 -4.21747 0
M  V30 1596 H 184.191 0.0697708 -0.73369 0
M  V30 1597 H 186.833 -0.516286 -1.82851 0
M  V30 1598 H 184.983 1.07293 -3.7339 0
M  V30 1599 H 186.655 -1.4563 -4.37709 0
M  V30 1600 H 184.898 -1.43517 -4.09372 0
M  V30 1601 H 185.569 -0.585065 -5.48891 0
M  V30 1602 H 188.045 0.744167 -4.09391 0
M  V30 1603 H 186.921 1.41541 -5.30337 0
M  V30 1604 H 187.182 2.27228 -3.79236 0
M  V30 1605 N 186.241 1.57166 -0.116904 0
M  V30 1606 C 187.518 1.86645 0.585049 0
M  V30 1607 C 187.898 1.0177 1.84949 0
M  V30 1608 O 187.246 0.0960379 2.28298 0
M  V30 1609 C 187.456 3.37736 0.879507 0
M  V30 1610 C 188.804 4.06289 1.23348 0
M  V30 1611 O 189.828 3.42743 0.969836 0
M  V30 1612 O 188.687 5.18455 1.7282 0
M  V30 1613 H 185.781 0.772593 0.295007 0
M  V30 1614 H 188.327 1.69025 -0.151249 0
M  V30 1615 H 187.099 3.91296 -0.0166136 0
M  V30 1616 H 186.722 3.6078 1.67103 0
M  V30 1617 N 187.719 -0.156864 1.56817 0
M  V30 1618 C 188.944 -0.890331 1.87318 0
M  V30 1619 C 189.369 -1.74394 0.704855 0
M  V30 1620 O 188.727 -1.77972 -0.345786 0
M  V30 1621 C 188.775 -1.73102 3.16336 0
M  V30 1622 O 187.879 -2.83422 2.99576 0
M  V30 1623 H 187.22 -0.24857 0.615718 0
M  V30 1624 H 189.75 -0.150649 2.04045 0
M  V30 1625 H 189.76 -2.12803 3.48107 0
M  V30 1626 H 188.435 -1.10412 4.00976 0
M  V30 1627 H 187.012 -2.47199 2.7919 0
M  V30 1628 N 189.197 -1.51736 -0.425897 0
M  V30 1629 C 190.474 -1.55519 -1.1863 0
M  V30 1630 C 190.854 -0.326219 -2.08564 0
M  V30 1631 O 190.202 0.688012 -2.17896 0
M  V30 1632 C 190.412 -2.87521 -1.9782 0
M  V30 1633 C 191.76 -3.39899 -2.54468 0
M  V30 1634 O 192.784 -2.89148 -2.08019 0
M  V30 1635 O 191.643 -4.2848 -3.39215 0
M  V30 1636 H 188.737 -0.625739 -0.540721 0
M  V30 1637 H 191.283 -1.64055 -0.434038 0
M  V30 1638 H 190.055 -3.68422 -1.31836 0
M  V30 1639 H 189.678 -2.822 -2.80088 0
M  V30 1640 N 190.675 0.682077 -1.42076 0
M  V30 1641 C 191.625 1.78823 -1.41444 0
M  V30 1642 C 192.609 1.58323 -0.28681 0
M  V30 1643 O 193.801 1.68926 -0.528498 0
M  V30 1644 C 190.93 3.17232 -1.3122 0
M  V30 1645 C 190.016 3.4338 -2.489 0
M  V30 1646 N 190.407 3.40152 -3.7434 0
M  V30 1647 C 188.705 3.73986 -2.43003 0
M  V30 1648 C 189.406 3.65581 -4.52466 0
M  V30 1649 N 188.382 3.85989 -3.8277 0
M  V30 1650 H 192.184 1.7471 -2.36334 0
M  V30 1651 H 189.698 0.882622 -1.36321 0
M  V30 1652 H 191.695 3.96489 -1.2885 0
M  V30 1653 H 190.355 3.22547 -0.373263 0
M  V30 1654 H 191.366 3.20221 -4.07037 0
M  V30 1655 H 188.043 3.86591 -1.57651 0
M  V30 1656 H 189.433 3.69108 -5.61435 0
M  V30 1657 N 192.153 1.28127 0.917671 0
M  V30 1658 C 193.378 1.18007 1.70555 0
M  V30 1659 C 193.803 -0.258257 1.86319 0
M  V30 1660 O 193.161 -1.1869 1.37049 0
M  V30 1661 C 193.209 1.87948 3.07746 0
M  V30 1662 O 192.313 1.18427 3.9503 0
M  V30 1663 H 191.654 0.409867 0.522403 0
M  V30 1664 H 194.184 1.69379 1.1477 0
M  V30 1665 H 194.194 1.95701 3.58001 0
M  V30 1666 H 192.869 2.92573 2.95591 0
M  V30 1667 H 191.446 1.18811 3.53466 0
M  V30 1668 N 193.631 -1.12557 1.10312 0
M  V30 1669 C 194.879 -1.83675 0.843091 0
M  V30 1670 C 195.2 -1.84435 -0.633131 0
M  V30 1671 O 194.47 -1.30657 -1.45964 0
M  V30 1672 H 193.05 -0.680138 0.308904 0
M  V30 1673 H 195.712 -1.36301 1.39313 0
M  V30 1674 H 194.808 -2.87908 1.2048 0
M  V30 1675 N 195.109 -0.891671 -1.2995 0
M  V30 1676 C 196.339 -0.527893 -1.99742 0
M  V30 1677 C 196.747 0.88979 -1.66971 0
M  V30 1678 O 196.09 1.59766 -0.906667 0
M  V30 1679 C 196.152 -0.630804 -3.53922 0
M  V30 1680 C 195.816 -2.01401 -4.10228 0
M  V30 1681 C 196.813 -2.98422 -4.25724 0
M  V30 1682 C 194.498 -2.32121 -4.45449 0
M  V30 1683 C 196.492 -4.24293 -4.75662 0
M  V30 1684 C 194.179 -3.58237 -4.95086 0
M  V30 1685 C 195.177 -4.54137 -5.10146 0
M  V30 1686 O 194.865 -5.78014 -5.58708 0
M  V30 1687 H 194.597 -0.201953 -0.645129 0
M  V30 1688 H 197.151 -1.20076 -1.66646 0
M  V30 1689 H 195.381 0.0990616 -3.86573 0
M  V30 1690 H 197.07 -0.277338 -4.04951 0
M  V30 1691 H 197.836 -2.76001 -3.98809 0
M  V30 1692 H 193.715 -1.5824 -4.32991 0
M  V30 1693 H 197.259 -4.99153 -4.87332 0
M  V30 1694 H 193.156 -3.80491 -5.21437 0
M  V30 1695 H 193.924 -5.8049 -5.77039 0
M  V30 1696 N 196.587 1.43421 -0.653314 0
M  V30 1697 C 197.836 2.01032 -0.164076 0
M  V30 1698 C 198.149 1.52147 1.22926 0
M  V30 1699 O 199.355 2.02031 1.81371 0
M  V30 1700 C 197.811 3.59082 -0.24252 0
M  V30 1701 C 197.419 4.1696 -1.63855 0
M  V30 1702 C 199.163 4.24079 0.18911 0
M  V30 1703 C 197.07 5.67304 -1.67092 0
M  V30 1704 H 196 0.751798 -0.0575769 0
M  V30 1705 H 198.651 1.6439 -0.815362 0
M  V30 1706 H 197.033 3.93125 0.476276 0
M  V30 1707 H 198.207 3.94416 -2.38271 0
M  V30 1708 H 196.522 3.64335 -2.01616 0
M  V30 1709 H 199.119 5.34381 0.184775 0
M  V30 1710 H 199.462 3.98005 1.22056 0
M  V30 1711 H 199.995 3.94918 -0.477938 0
M  V30 1712 H 196.734 5.98145 -2.68146 0
M  V30 1713 H 196.254 5.91904 -0.970014 0
M  V30 1714 H 197.933 6.31344 -1.4147 0
M  V30 1715 N 198.065 0.39524 1.52563 0
M  V30 1716 C 199.29 -0.187456 2.06551 0
M  V30 1717 C 199.715 -1.39249 1.26457 0
M  V30 1718 O 199.073 -1.78947 0.291151 0
M  V30 1719 C 199.121 -0.529985 3.56684 0
M  V30 1720 O 198.225 -1.62307 3.79118 0
M  V30 1721 H 197.566 -0.0202537 0.663691 0
M  V30 1722 H 200.096 0.564426 1.96661 0
M  V30 1723 H 200.106 -0.792598 4.00227 0
M  V30 1724 H 198.781 0.350987 4.14416 0
M  V30 1725 H 197.358 -1.3537 3.47461 0
M  V30 1726 N 199.544 -1.57102 0.125237 0
M  V30 1727 C 200.477 -2.11371 -0.860094 0
M  V30 1728 C 201.455 -1.03168 -1.25679 0
M  V30 1729 O 202.639 -1.30862 -1.35674 0
M  V30 1730 C 199.766 -2.61555 -2.1519 0
M  V30 1731 C 198.812 -3.81701 -1.9028 0
M  V30 1732 S 199.645 -5.23797 -1.11343 0
M  V30 1733 C 200.801 -5.77353 -2.41689 0
M  V30 1734 H 201.034 -2.94617 -0.39852 0
M  V30 1735 H 198.567 -1.54145 -0.0886555 0
M  V30 1736 H 200.525 -2.91122 -2.89411 0
M  V30 1737 H 199.186 -1.78479 -2.58465 0
M  V30 1738 H 198.379 -4.14985 -2.86014 0
M  V30 1739 H 197.981 -3.52783 -1.24178 0
M  V30 1740 H 200.273 -5.87458 -3.37489 0
M  V30 1741 H 201.216 -6.75323 -2.12942 0
M  V30 1742 H 201.624 -5.05457 -2.51342 0
M  V30 1743 N 201.022 0.148545 -1.56898 0
M  V30 1744 C 201.969 1.18345 -1.98149 0
M  V30 1745 C 202.939 1.42772 -0.848848 0
M  V30 1746 O 204.124 1.55132 -1.11079 0
M  V30 1747 C 201.264 2.51231 -2.36594 0
M  V30 1748 C 200.377 2.33991 -3.63142 0
M  V30 1749 C 199.512 3.59902 -3.90697 0
M  V30 1750 C 198.551 3.37692 -5.1052 0
M  V30 1751 N 197.688 4.5573 -5.34092 0
M  V30 1752 H 202.528 0.82467 -2.86362 0
M  V30 1753 H 200.065 0.395756 -1.41676 0
M  V30 1754 H 202.023 3.28713 -2.56912 0
M  V30 1755 H 200.653 2.85059 -1.51463 0
M  V30 1756 H 199.705 1.47572 -3.50609 0
M  V30 1757 H 201.017 2.13539 -4.5078 0
M  V30 1758 H 200.171 4.45813 -4.11505 0
M  V30 1759 H 198.91 3.83357 -3.01477 0
M  V30 1760 H 197.915 2.5017 -4.89587 0
M  V30 1761 H 199.14 3.15637 -6.0129 0
M  V30 1762 H 197.086 4.79361 -4.47827 0
M  V30 1763 H 197.003 4.38274 -6.15996 0
M  V30 1764 H 198.271 5.42858 -5.59397 0
M  V30 1765 N 202.5 1.5196 0.417844 0
M  V30 1766 C 203.41 1.77554 1.53336 0
M  V30 1767 C 204.426 0.660655 1.6097 0
M  V30 1768 O 205.602 0.945099 1.77848 0
M  V30 1769 C 202.667 1.91291 2.89152 0
M  V30 1770 C 201.728 3.15183 2.91475 0
M  V30 1771 C 200.961 3.28256 4.20813 0
M  V30 1772 O 201.184 2.46798 5.14244 0
M  V30 1773 O 200.118 4.21356 4.29817 0
M  V30 1774 H 203.944 2.7222 1.34647 0
M  V30 1775 H 201.529 1.36698 0.602828 0
M  V30 1776 H 203.411 2.02199 3.69721 0
M  V30 1777 H 202.086 0.998129 3.07927 0
M  V30 1778 H 200.993 3.09739 2.09791 0
M  V30 1779 H 202.326 4.06414 2.77648 0
M  V30 1780 N 203.978 -0.674533 1.42435 0
M  V30 1781 C 204.908 -1.80009 1.48724 0
M  V30 1782 C 205.889 -1.6659 0.343793 0
M  V30 1783 O 207.074 -1.86007 0.558137 0
M  V30 1784 C 204.204 -3.18306 1.38919 0
M  V30 1785 C 203.158 -3.46461 2.51294 0
M  V30 1786 C 202.484 -4.84335 2.26547 0
M  V30 1787 C 203.784 -3.43328 3.93603 0
M  V30 1788 H 205.478 -1.75004 2.42928 0
M  V30 1789 H 203.024 -0.840533 1.16923 0
M  V30 1790 H 204.977 -3.9678 1.41927 0
M  V30 1791 H 203.701 -3.2399 0.412094 0
M  V30 1792 H 202.36 -2.70348 2.47604 0
M  V30 1793 H 202.008 -4.86669 1.2713 0
M  V30 1794 H 201.708 -5.04136 3.01861 0
M  V30 1795 H 203.232 -5.65094 2.31304 0
M  V30 1796 H 204.646 -4.11772 3.98894 0
M  V30 1797 H 203.043 -3.74664 4.68771 0
M  V30 1798 H 204.113 -2.41897 4.20255 0
M  V30 1799 N 205.456 -1.28612 -0.910864 0
M  V30 1800 C 206.403 -1.12786 -2.01365 0
M  V30 1801 C 207.373 -0.024201 -1.66082 0
M  V30 1802 O 208.558 -0.189667 -1.89855 0
M  V30 1803 C 205.698 -0.798743 -3.35729 0
M  V30 1804 C 204.811 -1.98173 -3.83864 0
M  V30 1805 C 203.946 -1.59298 -5.06752 0
M  V30 1806 C 202.985 -2.74245 -5.47226 0
M  V30 1807 N 202.122 -2.35842 -6.61304 0
M  V30 1808 H 206.962 -2.07142 -2.14234 0
M  V30 1809 H 204.499 -1.03093 -1.0493 0
M  V30 1810 H 206.457 -0.588662 -4.13026 0
M  V30 1811 H 205.087 0.10789 -3.2262 0
M  V30 1812 H 204.139 -2.30386 -3.02699 0
M  V30 1813 H 205.451 -2.84343 -4.09818 0
M  V30 1814 H 204.605 -1.34513 -5.916 0
M  V30 1815 H 203.344 -0.702618 -4.82612 0
M  V30 1816 H 202.349 -2.99725 -4.60918 0
M  V30 1817 H 203.574 -3.63928 -5.73353 0
M  V30 1818 H 201.52 -1.49279 -6.38789 0
M  V30 1819 H 201.437 -3.15546 -6.86998 0
M  V30 1820 H 202.705 -2.14348 -7.4945 0
M  V30 1821 N 206.934 1.1197 -1.10907 0
M  V30 1822 C 207.866 2.17592 -0.720175 0
M  V30 1823 C 208.879 1.60938 0.245495 0
M  V30 1824 O 210.068 1.78476 0.0292245 0
M  V30 1825 C 207.168 3.38873 -0.0427917 0
M  V30 1826 C 206.341 4.25006 -1.03388 0
M  V30 1827 C 205.4 5.24774 -0.387075 0
M  V30 1828 O 204.426 5.59631 -1.03934 0
M  V30 1829 N 205.628 5.74208 0.852407 0
M  V30 1830 H 208.393 2.51567 -1.62893 0
M  V30 1831 H 205.954 1.27439 -0.998543 0
M  V30 1832 H 207.946 4.02703 0.401501 0
M  V30 1833 H 206.516 3.03007 0.768456 0
M  V30 1834 H 205.736 3.57716 -1.65629 0
M  V30 1835 H 207.024 4.79397 -1.70458 0
M  V30 1836 H 206.422 5.48062 1.40161 0
M  V30 1837 H 204.979 6.39901 1.23977 0
M  V30 1838 N 208.412 0.89855 1.29475 0
M  V30 1839 C 209.375 0.380272 2.26023 0
M  V30 1840 C 210.375 -0.484891 1.53315 0
M  V30 1841 O 211.565 -0.290108 1.71767 0
M  V30 1842 C 208.697 -0.45651 3.3783 0
M  V30 1843 H 209.89 1.23295 2.73383 0
M  V30 1844 H 207.443 0.676589 1.40897 0
M  V30 1845 H 208.178 -1.32922 2.95808 0
M  V30 1846 H 207.963 0.163393 3.91759 0
M  V30 1847 H 209.453 -0.810466 4.0966 0
M  V30 1848 N 209.89 -1.43072 0.660911 0
M  V30 1849 C 210.82 -2.33497 -0.0122829 0
M  V30 1850 C 211.801 -1.49903 -0.803925 0
M  V30 1851 O 212.986 -1.78546 -0.763864 0
M  V30 1852 C 210.116 -3.33363 -0.973994 0
M  V30 1853 C 209.07 -4.27003 -0.291928 0
M  V30 1854 C 208.396 -5.16967 -1.36562 0
M  V30 1855 C 209.696 -5.15816 0.820462 0
M  V30 1856 H 211.39 -2.90038 0.742873 0
M  V30 1857 H 208.936 -1.39461 0.358688 0
M  V30 1858 H 210.889 -3.95524 -1.45392 0
M  V30 1859 H 209.613 -2.75095 -1.7604 0
M  V30 1860 H 208.272 -3.66217 0.167623 0
M  V30 1861 H 207.92 -4.55034 -2.14366 0
M  V30 1862 H 207.62 -5.80441 -0.914454 0
M  V30 1863 H 209.144 -5.82003 -1.84675 0
M  V30 1864 H 210.558 -5.71742 0.422366 0
M  V30 1865 H 208.955 -5.8805 1.19656 0
M  V30 1866 H 210.025 -4.55045 1.67518 0
M  V30 1867 N 211.368 -0.403325 -1.52352 0
M  V30 1868 C 212.614 0.174605 -2.02047 0
M  V30 1869 C 212.947 1.45282 -1.28867 0
M  V30 1870 O 212.222 1.90483 -0.393257 0
M  V30 1871 C 212.505 0.428238 -3.57545 0
M  V30 1872 C 212.358 -0.866248 -4.4138 0
M  V30 1873 C 213.677 1.21287 -4.23057 0
M  V30 1874 H 210.796 0.0619851 -0.734389 0
M  V30 1875 H 213.438 -0.53565 -1.82293 0
M  V30 1876 H 211.588 1.03327 -3.74507 0
M  V30 1877 H 213.26 -1.50265 -4.3614 0
M  V30 1878 H 211.503 -1.47851 -4.07827 0
M  V30 1879 H 212.174 -0.643249 -5.48239 0
M  V30 1880 H 214.65 0.700703 -4.10158 0
M  V30 1881 H 213.526 1.35909 -5.31808 0
M  V30 1882 H 213.787 2.23193 -3.81625 0
M  V30 1883 N 212.846 1.57033 -0.133567 0
M  V30 1884 C 213.794 2.17348 0.828412 0
M  V30 1885 C 214.788 1.12671 1.26498 0
M  V30 1886 O 215.994 1.30947 1.23502 0
M  V30 1887 H 212.369 0.695775 0.285309 0
M  V30 1888 H 214.34 2.96935 0.295372 0
M  V30 1889 C 213.089 2.79893 2.06289 0
M  V30 1890 H 212.412 3.60147 1.73592 0
M  V30 1891 H 213.852 3.25615 2.71572 0
M  V30 1892 C 212.311 1.77713 2.86216 0
M  V30 1893 O 212.841 1.23937 3.82103 0
M  V30 1894 N 211.047 1.47321 2.50489 0
M  V30 1895 H 210.594 1.91243 1.7258 0
M  V30 1896 H 210.552 0.79199 3.04261 0
M  V30 1897 N 214.325 -0.140222 1.56975 0
M  V30 1898 C 215.565 -0.857823 1.85528 0
M  V30 1899 C 215.929 -1.78039 0.718768 0
M  V30 1900 O 217.13 -2.53795 0.885521 0
M  V30 1901 C 215.401 -1.60615 3.19277 0
M  V30 1902 S 216.96 -2.36824 3.69405 0
M  V30 1903 H 213.778 -0.286727 0.650622 0
M  V30 1904 H 216.38 -0.117408 1.95147 0
M  V30 1905 H 215.084 -0.919994 3.99955 0
M  V30 1906 H 214.615 -2.38735 3.12681 0
M  V30 1907 H 216.63 -3.62148 3.3921 0
M  V30 1908 N 215.803 -1.52179 -0.40978 0
M  V30 1909 C 216.751 -1.76086 -1.51975 0
M  V30 1910 C 217.745 -0.627964 -1.57331 0
M  V30 1911 O 218.951 -0.809993 -1.60745 0
M  V30 1912 H 215.326 -0.556829 -0.505416 0
M  V30 1913 H 217.297 -2.69077 -1.28996 0
M  V30 1914 C 216.046 -1.92799 -2.8935 0
M  V30 1915 H 215.369 -2.79392 -2.85972 0
M  V30 1916 H 216.809 -2.13527 -3.66309 0
M  V30 1917 C 215.268 -0.694923 -3.29655 0
M  V30 1918 O 215.798 0.13751 -4.01465 0
M  V30 1919 N 214.004 -0.53101 -2.85707 0
M  V30 1920 H 213.551 -1.20952 -2.27439 0
M  V30 1921 H 213.509 0.292718 -3.13034 0
M  V30 1922 N 217.281 0.66697 -1.42791 0
M  V30 1923 C 218.527 1.42754 -1.44889 0
M  V30 1924 C 218.882 1.92283 -0.0669755 0
M  V30 1925 O 218.175 1.68494 0.912154 0
M  V30 1926 C 218.369 2.6349 -2.4147 0
M  V30 1927 C 218.198 2.25776 -3.88915 0
M  V30 1928 C 216.968 2.1476 -4.57391 0
M  V30 1929 C 219.166 1.86927 -4.79127 0
M  V30 1930 N 217.148 1.70232 -5.89826 0
M  V30 1931 C 218.519 1.53378 -6.00729 0
M  V30 1932 C 220.574 1.73989 -4.66511 0
M  V30 1933 C 219.277 1.08187 -7.11117 0
M  V30 1934 C 221.303 1.30203 -5.76889 0
M  V30 1935 C 220.665 0.975818 -6.97608 0
M  V30 1936 H 216.764 0.518559 -0.585338 0
M  V30 1937 H 219.348 0.768906 -1.78874 0
M  V30 1938 H 217.519 3.27033 -2.09533 0
M  V30 1939 H 219.251 3.30123 -2.34096 0
M  V30 1940 H 216.006 2.3408 -4.11708 0
M  V30 1941 H 216.43 1.50369 -6.6009 0
M  V30 1942 H 221.072 1.97853 -3.7365 0
M  V30 1943 H 218.79 0.830701 -8.03819 0
M  V30 1944 H 222.376 1.20701 -5.69142 0
M  V30 1945 H 221.256 0.642157 -7.81566 0
M  V30 1946 N 218.759 1.29093 0.90403 0
M  V30 1947 C 219.984 1.19809 1.69294 0
M  V30 1948 C 220.409 -0.238481 1.86582 0
M  V30 1949 O 219.767 -1.1723 1.383 0
M  V30 1950 C 219.815 1.91202 3.05736 0
M  V30 1951 O 218.919 1.22611 3.93752 0
M  V30 1952 H 218.26 0.415385 0.518027 0
M  V30 1953 H 220.79 1.70586 1.12967 0
M  V30 1954 H 220.8 1.99487 3.55906 0
M  V30 1955 H 219.475 2.95692 2.92471 0
M  V30 1956 H 218.052 1.22554 3.52186 0
M  V30 1957 N 220.237 -1.11381 1.11499 0
M  V30 1958 C 221.462 -1.87475 0.887019 0
M  V30 1959 C 221.887 -1.79639 -0.557796 0
M  V30 1960 O 221.245 -1.15924 -1.39396 0
M  V30 1961 C 221.293 -3.34213 1.35403 0
M  V30 1962 O 220.397 -4.0903 0.526146 0
M  V30 1963 H 219.738 -0.582099 0.319463 0
M  V30 1964 H 222.268 -1.40785 1.48461 0
M  V30 1965 H 222.278 -3.8506 1.34881 0
M  V30 1966 H 220.953 -3.39232 2.40612 0
M  V30 1967 H 219.53 -3.68082 0.597522 0
M  V30 1968 N 221.715 -0.905404 -1.28997 0
M  V30 1969 C 222.962 -0.534248 -1.95325 0
M  V30 1970 C 223.29 0.920535 -1.71337 0
M  V30 1971 O 222.545 1.66861 -1.02254 0
M  V30 1972 C 222.844 -0.779906 -3.48787 0
M  V30 1973 C 222.51 -2.21293 -3.92861 0
M  V30 1974 C 221.172 -2.60475 -4.04606 0
M  V30 1975 C 223.524 -3.14587 -4.15553 0
M  V30 1976 C 220.852 -3.9212 -4.36416 0
M  V30 1977 C 223.204 -4.45787 -4.48839 0
M  V30 1978 C 221.868 -4.84834 -4.58794 0
M  V30 1979 H 221.138 -0.195495 -0.714747 0
M  V30 1980 H 223.785 -1.14514 -1.53488 0
M  V30 1981 H 222.09 -0.0861365 -3.91705 0
M  V30 1982 H 223.787 -0.472029 -3.98212 0
M  V30 1983 H 220.377 -1.89887 -3.84241 0
M  V30 1984 H 224.561 -2.85528 -4.0594 0
M  V30 1985 H 219.817 -4.22086 -4.42327 0
M  V30 1986 H 223.991 -5.18098 -4.65346 0
M  V30 1987 H 221.618 -5.86877 -4.83197 0
M  V30 1988 N 223.193 1.4272 -0.668489 0
M  V30 1989 C 224.141 2.32586 0.0254857 0
M  V30 1990 C 225.135 1.49471 0.797176 0
M  V30 1991 O 226.341 1.65583 0.705853 0
M  V30 1992 H 222.716 0.751514 0.0270339 0
M  V30 1993 H 224.687 2.88823 -0.749936 0
M  V30 1994 C 223.436 3.3397 0.967427 0
M  V30 1995 H 222.759 3.97961 0.383048 0
M  V30 1996 H 224.199 3.9945 1.42181 0
M  V30 1997 C 222.658 2.65744 2.0708 0
M  V30 1998 O 223.188 2.48454 3.15648 0
M  V30 1999 N 221.394 2.2487 1.8407 0
M  V30 2000 H 220.941 2.39132 0.95778 0
M  V30 2001 H 220.899 1.79552 2.58086 0
M  V30 2002 N 224.671 0.411399 1.52136 0
M  V30 2003 C 225.948 -0.222308 1.94333 0
M  V30 2004 C 226.328 -1.6242 1.34844 0
M  V30 2005 O 225.676 -2.22384 0.525145 0
M  V30 2006 C 225.886 -0.226345 3.48265 0
M  V30 2007 C 227.234 -0.444592 4.22266 0
M  V30 2008 O 228.258 -0.305602 3.54887 0
M  V30 2009 O 227.117 -0.718749 5.41753 0
M  V30 2010 H 224.211 -0.143907 0.814383 0
M  V30 2011 H 226.757 0.467506 1.63133 0
M  V30 2012 H 225.529 0.75475 3.83952 0
M  V30 2013 H 225.152 -0.960163 3.85832 0
M  V30 2014 N 226.149 -1.5696 0.141893 0
M  V30 2015 C 227.059 -2.20066 -0.812905 0
M  V30 2016 C 228.075 -1.18344 -1.27557 0
M  V30 2017 O 229.251 -1.50902 -1.33381 0
M  V30 2018 C 226.316 -2.80583 -2.03652 0
M  V30 2019 C 225.377 -3.97414 -1.62359 0
M  V30 2020 C 224.61 -4.55036 -2.78887 0
M  V30 2021 O 224.833 -4.11538 -3.94959 0
M  V30 2022 O 223.767 -5.45376 -2.54653 0
M  V30 2023 H 227.593 -3.02157 -0.305746 0
M  V30 2024 H 225.178 -1.49159 -0.0848799 0
M  V30 2025 H 227.06 -3.19067 -2.75272 0
M  V30 2026 H 225.735 -2.01508 -2.5333 0
M  V30 2027 H 224.642 -3.63656 -0.877775 0
M  V30 2028 H 225.975 -4.77994 -1.17401 0
M  V30 2029 N 227.627 0.131896 -1.57047 0
M  V30 2030 C 228.855 0.856461 -1.88341 0
M  V30 2031 C 229.27 1.74042 -0.731757 0
M  V30 2032 O 228.627 1.80051 0.297945 0
M  V30 2033 C 228.678 1.70064 -3.18999 0
M  V30 2034 O 228.399 0.852278 -4.2973 0
M  V30 2035 C 229.9 2.53148 -3.63911 0
M  V30 2036 H 227.12 0.246885 -0.62393 0
M  V30 2037 H 229.664 0.120152 -2.04147 0
M  V30 2038 H 227.819 2.38984 -3.04902 0
M  V30 2039 H 228.233 1.43329 -5.04537 0
M  V30 2040 H 229.707 3.07931 -4.58129 0
M  V30 2041 H 230.184 3.29901 -2.89935 0
M  V30 2042 H 230.79 1.89492 -3.80753 0
M  V30 2043 N 229.106 1.52395 0.401703 0
M  V30 2044 C 230.346 1.68498 1.15705 0
M  V30 2045 C 230.71 0.409748 1.87577 0
M  V30 2046 O 231.911 0.446983 2.65058 0
M  V30 2047 C 230.182 2.87789 2.11924 0
M  V30 2048 S 231.741 3.24415 2.95466 0
M  V30 2049 H 228.559 0.593267 0.391862 0
M  V30 2050 H 231.161 1.90408 0.443282 0
M  V30 2051 H 229.865 3.7884 1.57824 0
M  V30 2052 H 229.396 2.68175 2.87829 0
M  V30 2053 H 231.411 2.73614 4.13944 0
M  V30 2054 N 230.584 -0.659388 1.43143 0
M  V30 2055 C 231.514 -1.78422 1.50625 0
M  V30 2056 C 232.495 -1.66216 0.361443 0
M  V30 2057 O 233.68 -1.85404 0.577834 0
M  V30 2058 C 230.81 -3.16815 1.42287 0
M  V30 2059 C 229.764 -3.43777 2.54954 0
M  V30 2060 C 229.09 -4.81905 2.31671 0
M  V30 2061 C 230.39 -3.39134 3.97222 0
M  V30 2062 H 232.084 -1.72417 2.44771 0
M  V30 2063 H 229.63 -0.828084 1.17808 0
M  V30 2064 H 231.583 -3.95253 1.46127 0
M  V30 2065 H 230.307 -3.23534 0.446435 0
M  V30 2066 H 228.966 -2.67707 2.50457 0
M  V30 2067 H 228.614 -4.85294 1.32284 0
M  V30 2068 H 228.314 -5.00906 3.07192 0
M  V30 2069 H 229.838 -5.62609 2.37284 0
M  V30 2070 H 231.252 -4.07518 4.03239 0
M  V30 2071 H 229.649 -3.69671 4.72719 0
M  V30 2072 H 230.719 -2.37426 4.22797 0
M  V30 2073 N 232.062 -1.29571 -0.897171 0
M  V30 2074 C 232.995 -1.0924 -2.00354 0
M  V30 2075 C 233.973 -0.00354011 -1.626 0
M  V30 2076 O 235.157 -0.15473 -1.87864 0
M  V30 2077 C 232.284 -0.66352 -3.32137 0
M  V30 2078 C 231.33 -1.75146 -3.88878 0
M  V30 2079 S 232.163 -3.35124 -4.17674 0
M  V30 2080 C 233.319 -2.9411 -5.52494 0
M  V30 2081 H 233.552 -2.02907 -2.17292 0
M  V30 2082 H 231.085 -1.13746 -1.04408 0
M  V30 2083 H 233.043 -0.422791 -4.08317 0
M  V30 2084 H 231.704 0.253588 -3.13075 0
M  V30 2085 H 230.897 -1.40337 -4.84068 0
M  V30 2086 H 230.499 -1.94584 -3.19395 0
M  V30 2087 H 232.791 -2.41312 -6.33068 0
M  V30 2088 H 233.734 -3.88161 -5.9223 0
M  V30 2089 H 234.142 -2.32332 -5.14473 0
M  V30 2090 N 233.54 1.10788 -1.12088 0
M  V30 2091 C 234.473 2.16237 -0.729168 0
M  V30 2092 C 235.451 1.60207 0.277921 0
M  V30 2093 O 236.635 1.87707 0.172737 0
M  V30 2094 C 233.762 3.38609 -0.0786848 0
M  V30 2095 C 232.808 4.13322 -1.05201 0
M  V30 2096 S 233.641 4.69371 -2.57781 0
M  V30 2097 C 234.797 5.95058 -1.94053 0
M  V30 2098 H 235.03 2.4913 -1.62239 0
M  V30 2099 H 232.563 1.22519 -0.939603 0
M  V30 2100 H 234.521 4.09473 0.290254 0
M  V30 2101 H 233.182 3.03962 0.791593 0
M  V30 2102 H 232.375 5.01051 -0.544433 0
M  V30 2103 H 231.977 3.48251 -1.36371 0
M  V30 2104 H 234.269 6.65278 -1.28107 0
M  V30 2105 H 235.212 6.50472 -2.79807 0
M  V30 2106 H 235.62 5.46918 -1.39787 0
M  V30 2107 N 235.018 0.912232 1.28515 0
M  V30 2108 C 236.267 0.540504 1.94323 0
M  V30 2109 C 236.58 -0.920044 1.72611 0
M  V30 2110 O 237.786 -1.39986 2.32629 0
M  V30 2111 C 236.242 0.915803 3.48053 0
M  V30 2112 C 235.85 2.39598 3.78546 0
M  V30 2113 C 237.594 0.614588 4.20027 0
M  V30 2114 C 235.501 2.71148 5.25578 0
M  V30 2115 H 234.431 0.198418 0.727424 0
M  V30 2116 H 237.082 1.11094 1.46049 0
M  V30 2117 H 235.464 0.274168 3.9505 0
M  V30 2118 H 236.638 3.08422 3.42364 0
M  V30 2119 H 234.953 2.66749 3.1974 0
M  V30 2120 H 237.55 0.827002 5.28266 0
M  V30 2121 H 237.893 -0.447531 4.13887 0
M  V30 2122 H 238.426 1.21462 3.78803 0
M  V30 2123 H 235.165 3.76207 5.36794 0
M  V30 2124 H 234.685 2.0696 5.62963 0
M  V30 2125 H 236.364 2.58072 5.93302 0
M  V30 2126 N 236.496 -1.42363 0.676048 0
M  V30 2127 C 237.444 -2.32596 -0.0131507 0
M  V30 2128 C 238.438 -1.49891 -0.789238 0
M  V30 2129 O 239.644 -1.65955 -0.697061 0
M  V30 2130 H 236.019 -0.751647 -0.0230481 0
M  V30 2131 H 237.99 -2.88421 0.765243 0
M  V30 2132 C 236.739 -3.34479 -0.949702 0
M  V30 2133 H 236.062 -3.98158 -0.361938 0
M  V30 2134 H 237.502 -4.00199 -1.4006 0
M  V30 2135 C 235.961 -2.66838 -2.05667 0
M  V30 2136 O 236.491 -2.50124 -3.14326 0
M  V30 2137 N 234.697 -2.25843 -1.82875 0
M  V30 2138 H 234.244 -2.39637 -0.945085 0
M  V30 2139 H 234.202 -1.80918 -2.5713 0
M  V30 2140 N 237.974 -0.419461 -1.51915 0
M  V30 2141 C 238.907 0.445751 -2.23804 0
M  V30 2142 C 239.885 1.03951 -1.25031 0
M  V30 2143 O 241.069 1.08541 -1.54114 0
M  V30 2144 C 238.196 1.61964 -2.97465 0
M  V30 2145 C 237.242 1.14828 -4.10751 0
M  V30 2146 S 238.075 0.104938 -5.35397 0
M  V30 2147 C 239.231 1.28391 -6.1259 0
M  V30 2148 H 239.464 -0.164627 -2.96844 0
M  V30 2149 H 236.997 -0.203833 -1.53049 0
M  V30 2150 H 238.955 2.29271 -3.40507 0
M  V30 2151 H 237.616 2.20139 -2.24048 0
M  V30 2152 H 236.809 2.02561 -4.61503 0
M  V30 2153 H 236.411 0.553712 -3.69878 0
M  V30 2154 H 238.703 2.20563 -6.40592 0
M  V30 2155 H 239.646 0.816724 -7.03374 0
M  V30 2156 H 240.054 1.51439 -5.43807 0
M  V30 2157 N 239.452 1.56882 -0.150215 0
M  V30 2158 C 240.699 1.96228 0.500093 0
M  V30 2159 C 241.027 1.03522 1.64661 0
M  V30 2160 O 240.282 0.0650683 1.95592 0
M  V30 2161 C 240.581 3.41801 1.04437 0
M  V30 2162 C 240.247 4.50897 0.0159671 0
M  V30 2163 C 238.909 4.8046 -0.266731 0
M  V30 2164 C 241.261 5.16703 -0.683192 0
M  V30 2165 C 238.589 5.73135 -1.25434 0
M  V30 2166 C 240.941 6.10441 -1.65964 0
M  V30 2167 C 239.605 6.38382 -1.95 0
M  V30 2168 H 238.875 0.718048 0.182997 0
M  V30 2169 H 241.522 1.90019 -0.237724 0
M  V30 2170 H 239.827 3.44857 1.85959 0
M  V30 2171 H 241.524 3.69573 1.55618 0
M  V30 2172 H 238.114 4.27891 0.246485 0
M  V30 2173 H 242.298 4.93993 -0.477983 0
M  V30 2174 H 237.554 5.93074 -1.48571 0
M  V30 2175 H 241.728 6.60507 -2.20689 0
M  V30 2176 H 239.355 7.09996 -2.71679 0
M  V30 2177 N 240.93 -0.123565 1.57115 0
M  V30 2178 C 242.207 -0.862196 1.75572 0
M  V30 2179 C 242.587 -1.98279 0.724475 0
M  V30 2180 O 241.935 -2.27102 -0.252407 0
M  V30 2181 C 242.145 -1.38309 3.20424 0
M  V30 2182 C 243.493 -1.83724 3.82793 0
M  V30 2183 O 244.517 -1.47999 3.23998 0
M  V30 2184 O 243.376 -2.49685 4.86127 0
M  V30 2185 H 240.47 -0.409113 0.718718 0
M  V30 2186 H 243.016 -0.107661 1.69358 0
M  V30 2187 H 241.788 -0.578889 3.86994 0
M  V30 2188 H 241.411 -2.20046 3.31158 0
M  V30 2189 N 242.408 -1.52605 -0.393616 0
M  V30 2190 C 243.355 -1.77055 -1.48054 0
M  V30 2191 C 244.325 -0.61358 -1.54352 0
M  V30 2192 O 245.51 -0.852806 -1.70681 0
M  V30 2193 C 242.65 -1.94108 -2.85335 0
M  V30 2194 C 241.763 -3.21792 -2.88226 0
M  V30 2195 C 240.898 -3.29188 -4.16904 0
M  V30 2196 C 239.937 -4.51013 -4.13828 0
M  V30 2197 N 239.074 -4.55716 -5.34105 0
M  V30 2198 H 243.914 -2.69815 -1.26506 0
M  V30 2199 H 241.451 -1.33683 -0.61379 0
M  V30 2200 H 243.409 -2.01979 -3.65049 0
M  V30 2201 H 242.039 -1.04713 -3.05344 0
M  V30 2202 H 241.091 -3.23015 -2.00911 0
M  V30 2203 H 242.403 -4.11557 -2.8182 0
M  V30 2204 H 241.557 -3.36216 -5.05018 0
M  V30 2205 H 240.296 -2.37389 -4.26026 0
M  V30 2206 H 239.301 -4.44115 -3.24102 0
M  V30 2207 H 240.526 -5.44123 -4.06333 0
M  V30 2208 H 238.472 -3.66807 -5.43865 0
M  V30 2209 H 238.389 -5.39346 -5.29756 0
M  V30 2210 H 239.657 -4.66993 -6.2413 0
M  V30 2211 N 243.887 0.651787 -1.4349 0
M  V30 2212 C 245.115 1.43937 -1.48626 0
M  V30 2213 C 245.53 1.8851 -0.104587 0
M  V30 2214 O 244.887 1.5958 0.885464 0
M  V30 2215 C 244.938 2.6734 -2.43334 0
M  V30 2216 O 244.659 2.24631 -3.76128 0
M  V30 2217 C 246.16 3.60683 -2.57726 0
M  V30 2218 H 243.38 0.44213 -0.504739 0
M  V30 2219 H 245.924 0.798944 -1.88248 0
M  V30 2220 H 244.079 3.2752 -2.06904 0
M  V30 2221 H 244.493 3.04485 -4.2707 0
M  V30 2222 H 245.967 4.43933 -3.28067 0
M  V30 2223 H 246.444 4.08126 -1.62265 0
M  V30 2224 H 247.05 3.06384 -2.94973 0
M  V30 2225 N 245.365 1.30045 0.890287 0
M  V30 2226 C 246.312 1.15976 1.99545 0
M  V30 2227 C 247.282 0.0506202 1.66023 0
M  V30 2228 O 248.467 0.219847 1.89529 0
M  V30 2229 C 245.607 0.852054 3.34416 0
M  V30 2230 C 244.72 2.04255 3.80662 0
M  V30 2231 C 243.855 1.6734 5.04154 0
M  V30 2232 C 242.894 2.82916 5.42794 0
M  V30 2233 N 242.031 2.46333 6.57468 0
M  V30 2234 H 246.871 2.10524 2.10911 0
M  V30 2235 H 244.408 1.04749 1.03276 0
M  V30 2236 H 246.366 0.654296 4.12037 0
M  V30 2237 H 244.996 -0.0565502 3.2275 0
M  V30 2238 H 244.048 2.35172 2.98995 0
M  V30 2239 H 245.36 2.90826 4.05242 0
M  V30 2240 H 244.514 1.43908 5.89386 0
M  V30 2241 H 243.253 0.779308 4.81433 0
M  V30 2242 H 242.258 3.0702 4.56091 0
M  V30 2243 H 243.483 3.73004 5.6749 0
M  V30 2244 H 241.429 1.59423 6.36334 0
M  V30 2245 H 241.346 3.26436 6.81891 0
M  V30 2246 H 242.614 2.26244 7.45945 0
M  V30 2247 N 246.843 -1.10192 1.12674 0
M  V30 2248 C 248.068 -1.86523 0.906853 0
M  V30 2249 C 248.493 -1.80221 -0.538711 0
M  V30 2250 O 247.851 -1.17396 -1.38158 0
M  V30 2251 C 247.899 -3.32758 1.3894 0
M  V30 2252 O 247.003 -4.08449 0.5695 0
M  V30 2253 H 246.344 -0.578678 0.325619 0
M  V30 2254 H 248.874 -1.39203 1.49946 0
M  V30 2255 H 248.884 -3.83608 1.38958 0
M  V30 2256 H 247.559 -3.36661 2.44197 0
M  V30 2257 H 246.136 -3.67427 0.636528 0
M  V30 2258 N 248.321 -0.919034 -1.28029 0
M  V30 2259 C 249.569 -0.553838 -1.94363 0
M  V30 2260 C 249.89 0.906357 -1.72656 0
M  V30 2261 O 249.16 1.64143 -1.0693 0
M  V30 2262 H 247.74 -0.201834 -0.719216 0
M  V30 2263 H 250.402 -1.16954 -1.55909 0
M  V30 2264 H 249.498 -0.752758 -3.02886 0
M  V30 2265 N 249.799 1.42003 -0.683588 0
M  V30 2266 C 251.215 1.55625 -0.353976 0
M  V30 2267 C 251.415 1.66151 1.14 0
M  V30 2268 O 250.471 1.63329 1.92561 0
M  V30 2269 C 251.784 2.80171 -1.092 0
M  V30 2270 C 253.332 2.93954 -1.07518 0
M  V30 2271 C 253.807 4.21372 -1.79471 0
M  V30 2272 N 255.298 4.28303 -1.76381 0
M  V30 2273 C 256.033 5.25729 -2.28904 0
M  V30 2274 N 255.529 6.29254 -2.89846 0
M  V30 2275 N 257.322 5.17586 -2.19228 0
M  V30 2276 H 249.473 1.33415 -1.6527 0
M  V30 2277 H 251.736 0.64282 -0.696769 0
M  V30 2278 H 251.442 2.78561 -2.14701 0
M  V30 2279 H 251.316 3.7133 -0.662862 0
M  V30 2280 H 253.703 2.95086 -0.028475 0
M  V30 2281 H 253.784 2.04002 -1.54328 0
M  V30 2282 H 253.428 4.21001 -2.84114 0
M  V30 2283 H 253.358 5.10275 -1.30104 0
M  V30 2284 H 255.849 3.54119 -1.31939 0
M  V30 2285 H 256.162 6.99964 -3.27522 0
M  V30 2286 H 254.507 6.29791 -2.93919 0
M  V30 2287 H 257.698 4.35631 -1.71299 0
M  V30 2288 H 257.871 5.93348 -2.60466 0
M  V30 2289 N 251.277 0.427512 1.51691 0
M  V30 2290 C 252.526 -0.143679 2.01188 0
M  V30 2291 C 252.839 -1.44642 1.31674 0
M  V30 2292 O 254.045 -2.09997 1.72086 0
M  V30 2293 C 252.501 -0.306602 3.58592 0
M  V30 2294 C 252.109 0.985125 4.37035 0
M  V30 2295 C 253.853 -0.832091 4.16265 0
M  V30 2296 C 251.76 0.788382 5.86122 0
M  V30 2297 H 250.69 -0.0574701 0.751807 0
M  V30 2298 H 253.341 0.555772 1.74881 0
M  V30 2299 H 251.723 -1.06882 3.81303 0
M  V30 2300 H 252.897 1.75492 4.26074 0
M  V30 2301 H 251.212 1.4384 3.90767 0
M  V30 2302 H 253.809 -0.995617 5.25349 0
M  V30 2303 H 254.152 -1.81186 3.74803 0
M  V30 2304 H 254.685 -0.128444 3.97593 0
M  V30 2305 H 251.424 1.74025 6.31978 0
M  V30 2306 H 250.944 0.0582143 5.99772 0
M  V30 2307 H 252.623 0.437722 6.45518 0
M  V30 2308 N 252.755 -1.56801 0.158532 0
M  V30 2309 C 254.032 -1.88131 -0.535357 0
M  V30 2310 C 254.412 -1.06638 -1.82186 0
M  V30 2311 O 253.76 -0.156533 -2.27963 0
M  V30 2312 C 253.97 -3.39949 -0.789653 0
M  V30 2313 C 255.318 -4.09416 -1.12533 0
M  V30 2314 O 256.342 -3.45194 -0.878622 0
M  V30 2315 O 255.201 -5.22855 -1.59014 0
M  V30 2316 H 252.295 -0.780143 -0.27442 0
M  V30 2317 H 254.841 -1.68564 0.19601 0
M  V30 2318 H 253.613 -3.91115 0.120353 0
M  V30 2319 H 253.236 -3.65084 -1.57479 0
M  V30 2320 N 254.233 0.115231 -1.57178 0
M  V30 2321 C 255.479 0.82357 -1.85325 0
M  V30 2322 C 255.812 1.79349 -0.744814 0
M  V30 2323 O 255.087 1.92899 0.249024 0
M  V30 2324 C 255.37 1.57014 -3.24066 0
M  V30 2325 C 255.223 0.619565 -4.45513 0
M  V30 2326 C 256.542 2.52545 -3.60429 0
M  V30 2327 H 253.661 0.297948 -0.674089 0
M  V30 2328 H 256.303 0.0877138 -1.89797 0
M  V30 2329 H 254.453 2.19742 -3.20383 0
M  V30 2330 H 256.125 0.000837639 -4.613 0
M  V30 2331 H 254.368 -0.0686174 -4.33746 0
M  V30 2332 H 255.039 1.17866 -5.3927 0
M  V30 2333 H 257.515 1.9992 -3.64926 0
M  V30 2334 H 256.391 3.01811 -4.58477 0
M  V30 2335 H 256.652 3.35383 -2.88047 0
M  V30 2336 N 255.711 1.52812 0.385517 0
M  V30 2337 C 256.941 1.71658 1.14966 0
M  V30 2338 C 257.349 0.436253 1.84102 0
M  V30 2339 O 256.692 -0.599313 1.73649 0
M  V30 2340 C 256.754 2.81309 2.23843 0
M  V30 2341 C 256.418 4.22313 1.74644 0
M  V30 2342 C 257.415 5.05352 1.22129 0
M  V30 2343 C 255.1 4.68648 1.80761 0
M  V30 2344 C 257.094 6.32807 0.763838 0
M  V30 2345 C 254.781 5.96086 1.34627 0
M  V30 2346 C 255.779 6.77996 0.825264 0
M  V30 2347 O 255.467 8.03045 0.370669 0
M  V30 2348 H 255.199 0.578022 0.350523 0
M  V30 2349 H 257.753 2.00263 0.456509 0
M  V30 2350 H 255.983 2.48133 2.96592 0
M  V30 2351 H 257.672 2.88524 2.85497 0
M  V30 2352 H 258.438 4.70736 1.16758 0
M  V30 2353 H 254.317 4.04979 2.20256 0
M  V30 2354 H 257.861 6.96689 0.356494 0
M  V30 2355 H 253.758 6.30205 1.39686 0
M  V30 2356 H 254.526 8.17021 0.491829 0
M  V30 2357 N 257.189 -0.644168 1.43834 0
M  V30 2358 C 258.437 -1.40117 1.45642 0
M  V30 2359 C 258.758 -1.94814 0.0852413 0
M  V30 2360 O 258.028 -1.74988 -0.880688 0
M  V30 2361 H 256.608 -0.52005 0.536243 0
M  V30 2362 H 259.27 -0.7591 1.7951 0
M  V30 2363 H 258.366 -2.23902 2.17427 0
M  V30 2364 N 258.668 -1.30515 -0.883378 0
M  V30 2365 C 259.915 -1.1943 -1.63532 0
M  V30 2366 C 260.243 0.250627 -1.92878 0
M  V30 2367 O 259.498 1.19556 -1.54935 0
M  V30 2368 C 259.797 -1.96994 -2.98209 0
M  V30 2369 C 259.463 -3.466 -2.88408 0
M  V30 2370 C 258.125 -3.87397 -2.85442 0
M  V30 2371 C 260.477 -4.41863 -2.76418 0
M  V30 2372 C 257.805 -5.21745 -2.68327 0
M  V30 2373 C 260.157 -5.7632 -2.60841 0
M  V30 2374 C 258.821 -6.16354 -2.56251 0
M  V30 2375 H 258.091 -0.437025 -0.598406 0
M  V30 2376 H 260.738 -1.61635 -1.02696 0
M  V30 2377 H 259.043 -1.47429 -3.63004 0
M  V30 2378 H 260.74 -1.85808 -3.55354 0
M  V30 2379 H 257.33 -3.14182 -2.91527 0
M  V30 2380 H 261.514 -4.11285 -2.77775 0
M  V30 2381 H 256.77 -5.51853 -2.63189 0
M  V30 2382 H 260.944 -6.49772 -2.50538 0
M  V30 2383 H 258.571 -7.20401 -2.42748 0
M  V30 2384 N 260.146 1.09593 -1.13257 0
M  V30 2385 C 261.371 1.8604 -0.916732 0
M  V30 2386 C 261.796 1.80504 0.529146 0
M  V30 2387 O 261.154 1.18127 1.37534 0
M  V30 2388 C 261.202 3.32017 -1.40703 0
M  V30 2389 O 260.306 4.08141 -0.591153 0
M  V30 2390 H 259.647 0.576943 -0.328683 0
M  V30 2391 H 262.177 1.38405 -1.50682 0
M  V30 2392 H 262.187 3.82865 -1.4099 0
M  V30 2393 H 260.862 3.35361 -2.45979 0
M  V30 2394 H 259.439 3.67084 -0.656005 0
M  V30 2395 N 261.624 0.925811 1.2754 0
M  V30 2396 C 262.587 0.428129 2.25166 0
M  V30 2397 C 263.587 -0.452261 1.54309 0
M  V30 2398 O 264.777 -0.253608 1.72344 0
M  V30 2399 C 261.909 -0.384749 3.38722 0
M  V30 2400 H 263.102 1.29066 2.70706 0
M  V30 2401 H 260.655 0.706323 1.3943 0
M  V30 2402 H 261.39 -1.26618 2.98561 0
M  V30 2403 H 261.175 0.246454 3.91325 0
M  V30 2404 H 262.665 -0.723389 4.11287 0
M  V30 2405 N 263.102 -1.41638 0.69111 0
M  V30 2406 C 264.032 -2.3347 0.037248 0
M  V30 2407 C 265.013 -1.51575 -0.771947 0
M  V30 2408 O 266.198 -1.80126 -0.72582 0
M  V30 2409 C 263.328 -3.35354 -0.903064 0
M  V30 2410 C 262.282 -4.27526 -0.201288 0
M  V30 2411 C 261.608 -5.19747 -1.25565 0
M  V30 2412 C 262.908 -5.13959 0.929689 0
M  V30 2413 H 264.602 -2.88397 0.804227 0
M  V30 2414 H 262.148 -1.38669 0.388189 0
M  V30 2415 H 264.101 -3.98519 -1.36969 0
M  V30 2416 H 262.825 -2.78767 -1.70166 0
M  V30 2417 H 261.484 -3.65779 0.245265 0
M  V30 2418 H 261.132 -4.59479 -2.04666 0
M  V30 2419 H 260.832 -5.8225 -0.791128 0
M  V30 2420 H 262.356 -5.85789 -1.72288 0
M  V30 2421 H 263.77 -5.70718 0.543546 0
M  V30 2422 H 262.167 -5.85379 1.32103 0
M  V30 2423 H 263.237 -4.51389 1.77133 0
M  V30 2424 N 264.58 -0.43555 -1.51462 0
M  V30 2425 C 265.826 0.123979 -2.03022 0
M  V30 2426 C 266.181 1.4054 -1.31401 0
M  V30 2427 O 265.474 1.86948 -0.419634 0
M  V30 2428 C 265.668 0.39942 -3.55161 0
M  V30 2429 C 265.497 -0.853754 -4.41521 0
M  V30 2430 C 264.267 -1.38675 -4.85898 0
M  V30 2431 C 266.465 -1.73939 -4.83994 0
M  V30 2432 N 264.447 -2.59265 -5.56466 0
M  V30 2433 C 265.818 -2.79135 -5.5361 0
M  V30 2434 C 267.873 -1.75402 -4.65981 0
M  V30 2435 C 266.576 -3.85737 -6.07124 0
M  V30 2436 C 268.602 -2.80938 -5.20411 0
M  V30 2437 C 267.964 -3.84854 -5.89972 0
M  V30 2438 H 264.063 0.00624887 -0.781975 0
M  V30 2439 H 266.647 -0.59582 -1.85359 0
M  V30 2440 H 264.818 1.08825 -3.72843 0
M  V30 2441 H 266.55 0.95015 -3.93388 0
M  V30 2442 H 263.305 -0.94094 -4.64159 0
M  V30 2443 H 263.729 -3.2041 -5.96378 0
M  V30 2444 H 268.371 -0.963926 -4.11665 0
M  V30 2445 H 266.089 -4.65586 -6.60496 0
M  V30 2446 H 269.675 -2.8301 -5.08327 0
M  V30 2447 H 268.555 -4.65176 -6.31333 0
M  V30 2448 N 266.058 1.56714 -0.166846 0
M  V30 2449 C 267.005 2.17746 0.765193 0
M  V30 2450 C 267.975 1.11614 1.23011 0
M  V30 2451 O 269.16 1.39745 1.29908 0
M  V30 2452 C 266.3 2.81882 1.9909 0
M  V30 2453 C 265.413 4.02462 1.56997 0
M  V30 2454 C 264.548 4.54537 2.749 0
M  V30 2455 C 263.587 5.67538 2.29275 0
M  V30 2456 N 262.724 6.14142 3.40255 0
M  V30 2457 H 267.564 2.97048 0.237952 0
M  V30 2458 H 265.101 1.4672 0.105725 0
M  V30 2459 H 267.059 3.17221 2.70974 0
M  V30 2460 H 265.689 2.05191 2.49192 0
M  V30 2461 H 264.741 3.72973 0.748037 0
M  V30 2462 H 266.053 4.84273 1.19503 0
M  V30 2463 H 265.207 4.92035 3.54946 0
M  V30 2464 H 263.946 3.71774 3.1565 0
M  V30 2465 H 262.951 5.29597 1.47674 0
M  V30 2466 H 264.176 6.52099 1.89588 0
M  V30 2467 H 262.122 5.3431 3.8059 0
M  V30 2468 H 262.039 6.9093 3.06841 0
M  V30 2469 H 263.307 6.56289 4.206 0
M  V30 2470 N 267.536 -0.106894 1.57237 0
M  V30 2471 C 268.783 -0.812526 1.85484 0
M  V30 2472 C 269.111 -1.79304 0.753687 0
M  V30 2473 O 268.366 -1.94047 -0.253853 0
M  V30 2474 C 268.665 -1.58628 3.20268 0
M  V30 2475 C 268.331 -0.748967 4.44636 0
M  V30 2476 C 266.993 -0.518104 4.78403 0
M  V30 2477 C 269.345 -0.166122 5.20935 0
M  V30 2478 C 266.673 0.305659 5.85903 0
M  V30 2479 C 269.025 0.644899 6.29304 0
M  V30 2480 C 267.689 0.885965 6.61594 0
M  V30 2481 H 266.959 -0.297324 0.678734 0
M  V30 2482 H 269.606 -0.0744332 1.91355 0
M  V30 2483 H 267.911 -2.39562 3.10028 0
M  V30 2484 H 269.608 -2.13643 3.39349 0
M  V30 2485 H 266.198 -0.939006 4.18187 0
M  V30 2486 H 270.382 -0.33167 4.95191 0
M  V30 2487 H 265.638 0.501528 6.0934 0
M  V30 2488 H 269.812 1.10345 6.87602 0
M  V30 2489 H 267.439 1.52609 7.44725 0
M  V30 2490 N 269.014 -1.53014 -0.377408 0
M  V30 2491 C 270.263 -1.67845 -1.11853 0
M  V30 2492 C 270.576 -0.430625 -1.90801 0
M  V30 2493 O 271.782 -0.459261 -2.67587 0
M  V30 2494 C 270.238 -2.96668 -2.03756 0
M  V30 2495 C 269.846 -4.28671 -1.30175 0
M  V30 2496 C 271.59 -3.20865 -2.77932 0
M  V30 2497 C 269.497 -5.48591 -2.20911 0
M  V30 2498 H 268.427 -0.625343 -0.421263 0
M  V30 2499 H 271.078 -1.79514 -0.380409 0
M  V30 2500 H 269.46 -2.78773 -2.8125 0
M  V30 2501 H 270.634 -4.57157 -0.578259 0
M  V30 2502 H 268.949 -4.10825 -0.679108 0
M  V30 2503 H 271.546 -4.07642 -3.46024 0
M  V30 2504 H 271.889 -2.36424 -3.4265 0
M  V30 2505 H 272.422 -3.39379 -2.07525 0
M  V30 2506 H 269.161 -6.35474 -1.6079 0
M  V30 2507 H 268.681 -5.244 -2.91144 0
M  V30 2508 H 270.36 -5.8292 -2.80736 0
M  V30 2509 N 270.492 0.636531 -1.44174 0
M  V30 2510 C 271.424 1.7618 -1.46606 0
M  V30 2511 C 272.437 1.58768 -0.360091 0
M  V30 2512 O 273.626 1.67181 -0.625518 0
M  V30 2513 C 270.726 3.13833 -1.27915 0
M  V30 2514 C 269.899 3.57753 -2.51658 0
M  V30 2515 C 268.958 4.74265 -2.27945 0
M  V30 2516 O 267.984 4.82852 -3.01401 0
M  V30 2517 N 269.186 5.65604 -1.30662 0
M  V30 2518 H 271.951 1.74567 -2.43612 0
M  V30 2519 H 269.512 0.820924 -1.39544 0
M  V30 2520 H 271.504 3.8949 -1.09907 0
M  V30 2521 H 270.074 3.10121 -0.39293 0
M  V30 2522 H 269.294 2.72362 -2.84978 0
M  V30 2523 H 270.582 3.83847 -3.33974 0
M  V30 2524 H 269.98 5.61354 -0.699844 0
M  V30 2525 H 268.537 6.40913 -1.18634 0
M  V30 2526 N 271.97 1.30982 0.876444 0
M  V30 2527 C 272.902 1.13902 1.98894 0
M  V30 2528 C 273.915 0.0798815 1.62604 0
M  V30 2529 O 275.104 0.326743 1.75484 0
M  V30 2530 C 272.204 0.716699 3.31235 0
M  V30 2531 C 271.377 1.85945 3.95908 0
M  V30 2532 C 270.436 1.42426 5.06558 0
M  V30 2533 O 269.462 2.13287 5.27729 0
M  V30 2534 N 270.664 0.308025 5.79682 0
M  V30 2535 H 273.429 2.09724 2.14094 0
M  V30 2536 H 270.99 1.2323 1.05004 0
M  V30 2537 H 272.982 0.408403 4.02634 0
M  V30 2538 H 271.552 -0.149719 3.12241 0
M  V30 2539 H 270.772 2.33541 3.17573 0
M  V30 2540 H 272.06 2.62503 4.35855 0
M  V30 2541 H 271.458 -0.282241 5.64995 0
M  V30 2542 H 270.015 0.0592282 6.51773 0
M  V30 2543 N 273.449 -1.08991 1.13837 0
M  V30 2544 C 274.695 -1.81699 0.91417 0
M  V30 2545 C 275.05 -1.84264 -0.553594 0
M  V30 2546 O 274.343 -1.30313 -1.4046 0
M  V30 2547 C 274.537 -3.27042 1.44147 0
M  V30 2548 C 274.366 -3.38637 2.95897 0
M  V30 2549 C 273.136 -3.50177 3.64286 0
M  V30 2550 C 275.334 -3.30791 3.93804 0
M  V30 2551 N 273.316 -3.50501 5.04006 0
M  V30 2552 C 274.687 -3.38037 5.19741 0
M  V30 2553 C 276.742 -3.14488 3.86007 0
M  V30 2554 C 275.445 -3.30659 6.38793 0
M  V30 2555 C 277.471 -3.08438 5.04599 0
M  V30 2556 C 276.833 -3.1628 6.29402 0
M  V30 2557 H 272.932 -0.678967 0.387979 0
M  V30 2558 H 275.516 -1.30224 1.4474 0
M  V30 2559 H 273.687 -3.76976 0.935091 0
M  V30 2560 H 275.419 -3.87785 1.1578 0
M  V30 2561 H 272.174 -3.53815 3.1482 0
M  V30 2562 H 272.598 -3.54236 5.76928 0
M  V30 2563 H 277.24 -3.07291 2.90399 0
M  V30 2564 H 274.958 -3.36618 7.34652 0
M  V30 2565 H 278.544 -2.96952 5.0031 0
M  V30 2566 H 277.424 -3.1162 7.19627 0
M  V30 2567 N 274.927 -0.932562 -1.27047 0
M  V30 2568 C 275.874 -0.434072 -2.26681 0
M  V30 2569 C 276.844 0.501639 -1.58344 0
M  V30 2570 O 278.029 0.419734 -1.86126 0
M  V30 2571 C 275.169 0.30261 -3.43771 0
M  V30 2572 C 274.282 -0.667774 -4.26808 0
M  V30 2573 C 273.417 0.0892393 -5.31125 0
M  V30 2574 C 272.456 -0.873532 -6.05835 0
M  V30 2575 N 271.593 -0.148832 -7.01942 0
M  V30 2576 H 276.433 -1.28868 -2.68695 0
M  V30 2577 H 273.97 -0.646713 -1.32121 0
M  V30 2578 H 275.928 0.746092 -4.10474 0
M  V30 2579 H 274.558 1.12142 -3.02695 0
M  V30 2580 H 273.61 -1.22978 -3.59973 0
M  V30 2581 H 274.922 -1.40337 -4.78651 0
M  V30 2582 H 274.076 0.592409 -6.03801 0
M  V30 2583 H 272.815 0.85777 -4.80097 0
M  V30 2584 H 271.82 -1.38791 -5.31994 0
M  V30 2585 H 273.045 -1.64193 -6.58952 0
M  V30 2586 H 270.991 0.601365 -6.53238 0
M  V30 2587 H 270.908 -0.82391 -7.51497 0
M  V30 2588 H 272.176 0.333527 -7.78786 0
M  V30 2589 N 276.405 1.4127 -0.698611 0
M  V30 2590 C 277.353 2.32588 -0.023855 0
M  V30 2591 C 278.347 1.51128 0.765292 0
M  V30 2592 O 279.553 1.67043 0.670571 0
M  V30 2593 H 275.928 0.751918 0.0110871 0
M  V30 2594 H 277.899 2.87167 -0.811031 0
M  V30 2595 C 276.648 3.35947 0.896369 0
M  V30 2596 H 275.971 3.98684 0.298548 0
M  V30 2597 H 277.411 4.02376 1.33676 0
M  V30 2598 C 275.87 2.70076 2.01396 0
M  V30 2599 O 276.4 2.55093 3.10307 0
M  V30 2600 N 274.606 2.28724 1.79259 0
M  V30 2601 H 274.153 2.4111 0.906841 0
M  V30 2602 H 274.111 1.84986 2.54219 0
M  V30 2603 N 277.883 0.443576 1.51229 0
M  V30 2604 C 278.813 -0.355142 2.30783 0
M  V30 2605 C 279.794 -1.0154 1.36468 0
M  V30 2606 O 280.979 -1.01785 1.65389 0
M  V30 2607 C 278.109 -1.45312 3.15439 0
M  V30 2608 C 277.063 -0.916002 4.18083 0
M  V30 2609 C 276.389 -2.1102 4.91299 0
M  V30 2610 C 277.689 0.0538602 5.22272 0
M  V30 2611 H 279.383 0.308767 2.97804 0
M  V30 2612 H 276.929 0.149937 1.43217 0
M  V30 2613 H 278.882 -2.01914 3.69876 0
M  V30 2614 H 277.606 -2.14541 2.46252 0
M  V30 2615 H 276.265 -0.372145 3.64706 0
M  V30 2616 H 275.913 -2.78882 4.18609 0
M  V30 2617 H 275.613 -1.75717 5.60712 0
M  V30 2618 H 277.137 -2.68164 5.48562 0
M  V30 2619 H 278.551 -0.422069 5.71744 0
M  V30 2620 H 276.948 0.319776 5.99247 0
M  V30 2621 H 278.018 0.98858 4.74716 0
M  V30 2622 N 279.361 -1.56624 0.175154 0
M  V30 2623 C 280.608 -1.96999 -0.468811 0
M  V30 2624 C 280.936 -1.06129 -1.62994 0
M  V30 2625 O 280.191 -0.0961771 -1.95464 0
M  V30 2626 C 280.49 -3.43419 -0.989864 0
M  V30 2627 C 280.156 -4.50866 0.0557687 0
M  V30 2628 C 278.818 -4.79975 0.343134 0
M  V30 2629 C 281.17 -5.15551 0.765308 0
M  V30 2630 C 278.498 -5.71066 1.34536 0
M  V30 2631 C 280.85 -6.07724 1.75654 0
M  V30 2632 C 279.514 -6.35199 2.05132 0
M  V30 2633 H 278.784 -0.720869 -0.17155 0
M  V30 2634 H 281.431 -1.89616 0.267924 0
M  V30 2635 H 279.736 -3.47772 -1.80449 0
M  V30 2636 H 281.433 -3.72002 -1.49719 0
M  V30 2637 H 278.023 -4.28229 -0.178381 0
M  V30 2638 H 282.207 -4.9317 0.556513 0
M  V30 2639 H 277.463 -5.90635 1.57988 0
M  V30 2640 H 281.637 -6.56912 2.31169 0
M  V30 2641 H 279.264 -7.05584 2.8294 0
M  V30 2642 N 280.839 0.0985539 -1.57292 0
M  V30 2643 C 281.771 1.14595 -1.98496 0
M  V30 2644 C 282.784 1.36512 -0.887031 0
M  V30 2645 O 283.973 1.35225 -1.16518 0
M  V30 2646 C 281.073 2.50216 -2.28572 0
M  V30 2647 C 280.246 2.48624 -3.59868 0
M  V30 2648 C 279.305 3.66146 -3.7792 0
M  V30 2649 O 278.331 3.48795 -4.49812 0
M  V30 2650 N 279.533 4.85496 -3.18235 0
M  V30 2651 H 282.298 0.795277 -2.88956 0
M  V30 2652 H 279.859 0.287579 -1.59325 0
M  V30 2653 H 281.851 3.27432 -2.37845 0
M  V30 2654 H 280.421 2.77387 -1.44136 0
M  V30 2655 H 279.641 1.56978 -3.61596 0
M  V30 2656 H 280.929 2.44635 -4.46129 0
M  V30 2657 H 280.327 5.02497 -2.59833 0
M  V30 2658 H 278.884 5.60317 -3.32999 0
M  V30 2659 N 282.317 1.53212 0.369288 0
M  V30 2660 C 283.249 1.75668 1.47219 0
M  V30 2661 C 284.262 0.637387 1.49804 0
M  V30 2662 O 285.451 0.913561 1.5335 0
M  V30 2663 C 282.551 1.81818 2.85999 0
M  V30 2664 C 281.724 3.11409 3.07153 0
M  V30 2665 C 280.783 3.08849 4.26026 0
M  V30 2666 O 279.809 3.82659 4.2138 0
M  V30 2667 N 281.011 2.29409 5.33246 0
M  V30 2668 H 283.776 2.70832 1.28337 0
M  V30 2669 H 281.337 1.51944 0.55898 0
M  V30 2670 H 283.329 1.77588 3.63655 0
M  V30 2671 H 281.899 0.939544 2.98146 0
M  V30 2672 H 281.119 3.28971 2.1719 0
M  V30 2673 H 282.407 3.97059 3.18154 0
M  V30 2674 H 281.805 1.68946 5.39883 0
M  V30 2675 H 280.362 2.31001 6.09493 0
M  V30 2676 N 283.795 -0.628877 1.44509 0
M  V30 2677 C 285.025 -1.41349 1.50678 0
M  V30 2678 C 285.433 -1.88745 0.131075 0
M  V30 2679 O 284.776 -1.61592 -0.87371 0
M  V30 2680 C 284.838 -2.66608 2.41165 0
M  V30 2681 C 284.502 -2.40993 3.88293 0
M  V30 2682 C 285.499 -2.0268 4.78766 0
M  V30 2683 C 283.184 -2.54563 4.33016 0
M  V30 2684 C 285.178 -1.78269 6.11963 0
M  V30 2685 C 282.865 -2.29766 5.6626 0
M  V30 2686 C 283.863 -1.91678 6.55552 0
M  V30 2687 O 283.551 -1.67158 7.86329 0
M  V30 2688 H 283.283 -0.439851 0.51333 0
M  V30 2689 H 285.837 -0.776084 1.90174 0
M  V30 2690 H 284.067 -3.32994 1.96601 0
M  V30 2691 H 285.756 -3.28615 2.38259 0
M  V30 2692 H 286.522 -1.91751 4.45485 0
M  V30 2693 H 282.401 -2.83179 3.63773 0
M  V30 2694 H 285.945 -1.48465 6.81619 0
M  V30 2695 H 281.842 -2.40306 5.99102 0
M  V30 2696 H 282.61 -1.81386 7.98149 0
M  V30 2697 N 285.273 -1.31445 -0.869486 0
M  V30 2698 C 286.55 -1.11795 -1.60503 0
M  V30 2699 C 286.93 0.327168 -2.08549 0
M  V30 2700 O 286.278 1.32135 -1.8642 0
M  V30 2701 C 286.488 -2.13258 -2.76265 0
M  V30 2702 C 287.836 -2.45805 -3.46215 0
M  V30 2703 O 288.86 -2.11688 -2.86473 0
M  V30 2704 O 287.719 -3.04228 -4.5399 0
M  V30 2705 H 284.813 -0.430421 -0.706163 0
M  V30 2706 H 287.359 -1.42925 -0.914907 0
M  V30 2707 H 286.131 -3.10461 -2.3818 0
M  V30 2708 H 285.754 -1.83035 -3.52964 0
M  V30 2709 N 286.751 1.08385 -1.14413 0
M  V30 2710 C 288.167 1.32844 -0.884563 0
M  V30 2711 C 288.367 1.95841 0.474181 0
M  V30 2712 O 287.423 2.21158 1.21842 0
M  V30 2713 C 288.736 2.22978 -2.01745 0
M  V30 2714 C 290.284 2.36458 -2.05077 0
M  V30 2715 C 290.759 3.29934 -3.1766 0
M  V30 2716 N 292.25 3.37511 -3.17239 0
M  V30 2717 C 292.985 4.09871 -4.0099 0
M  V30 2718 N 292.481 4.84936 -4.94781 0
M  V30 2719 N 294.274 4.05704 -3.89051 0
M  V30 2720 H 286.425 0.658756 -2.01926 0
M  V30 2721 H 288.688 0.352821 -0.879899 0
M  V30 2722 H 288.394 1.83934 -2.99769 0
M  V30 2723 H 288.268 3.23441 -1.94077 0
M  V30 2724 H 290.655 2.7476 -1.0766 0
M  V30 2725 H 290.736 1.35736 -2.16816 0
M  V30 2726 H 290.38 2.92352 -4.15322 0
M  V30 2727 H 290.31 4.30584 -3.03158 0
M  V30 2728 H 292.801 2.83996 -2.49308 0
M  V30 2729 H 293.114 5.37612 -5.55151 0
M  V30 2730 H 291.459 4.83988 -4.98779 0
M  V30 2731 H 294.65 3.46167 -3.15097 0
M  V30 2732 H 294.823 4.61834 -4.54547 0
M  V30 2733 N 288.23 0.939286 1.26551 0
M  V30 2734 C 289.507 0.5038 1.89001 0
M  V30 2735 C 289.887 -1.01854 1.84903 0
M  V30 2736 O 289.235 -1.87773 1.30206 0
M  V30 2737 C 289.445 1.063 3.32417 0
M  V30 2738 C 290.793 1.13051 4.09273 0
M  V30 2739 O 291.817 1.01345 3.41479 0
M  V30 2740 O 290.676 1.31233 5.30509 0
M  V30 2741 H 287.77 0.163897 0.810597 0
M  V30 2742 H 290.316 1.03173 1.34735 0
M  V30 2743 H 289.088 2.10665 3.29752 0
M  V30 2744 H 288.711 0.517408 3.94219 0
M  V30 2745 N 289.708 -1.40897 0.706093 0
M  V30 2746 C 291.124 -1.55042 0.37869 0
M  V30 2747 C 291.324 -1.67944 -1.11342 0
M  V30 2748 O 290.38 -1.66372 -1.89938 0
M  V30 2749 C 291.693 -2.78398 1.13643 0
M  V30 2750 C 293.241 -2.92206 1.12181 0
M  V30 2751 C 293.716 -4.18463 1.86152 0
M  V30 2752 N 295.207 -4.25443 1.83173 0
M  V30 2753 C 295.942 -5.2202 2.37239 0
M  V30 2754 N 295.438 -6.24563 2.99821 0
M  V30 2755 N 297.231 -5.14033 2.27435 0
M  V30 2756 H 289.382 -1.30769 1.67372 0
M  V30 2757 H 291.645 -0.631653 0.706907 0
M  V30 2758 H 291.351 -2.7511 2.19106 0
M  V30 2759 H 291.225 -3.70228 0.721853 0
M  V30 2760 H 293.612 -2.95004 0.0754171 0
M  V30 2761 H 293.693 -2.01521 1.57554 0
M  V30 2762 H 293.337 -4.16427 2.90776 0
M  V30 2763 H 293.267 -5.08141 1.38206 0
M  V30 2764 H 295.758 -3.51976 1.37556 0
M  V30 2765 H 296.071 -6.94665 3.38616 0
M  V30 2766 H 294.416 -6.25035 3.03902 0
M  V30 2767 H 297.607 -4.3285 1.78208 0
M  V30 2768 H 297.78 -5.89129 2.69873 0
M  V30 2769 N 291.186 -0.45159 -1.50991 0
M  V30 2770 C 292.411 0.110667 -2.07105 0
M  V30 2771 C 292.836 1.3446 -1.31538 0
M  V30 2772 O 292.194 1.77743 -0.357365 0
M  V30 2773 C 292.242 0.397238 -3.58405 0
M  V30 2774 O 291.346 1.48124 -3.84881 0
M  V30 2775 H 290.687 -0.00439271 -0.663985 0
M  V30 2776 H 293.217 -0.637026 -1.9443 0
M  V30 2777 H 293.227 0.64351 -4.02893 0
M  V30 2778 H 291.902 -0.504553 -4.12828 0
M  V30 2779 H 290.479 1.22381 -3.52246 0
M  V30 2780 N 292.664 1.56529 -0.183458 0
M  V30 2781 C 293.912 1.96855 0.457452 0
M  V30 2782 C 294.233 1.07104 1.62953 0
M  V30 2783 O 293.503 0.139887 1.954 0
M  V30 2784 H 292.083 0.72693 0.171992 0
M  V30 2785 H 294.745 1.93056 -0.267476 0
M  V30 2786 H 293.841 3.01423 0.809368 0
M  V30 2787 N 294.142 -0.090211 1.57342 0
M  V30 2788 C 295.367 -0.810082 1.90925 0
M  V30 2789 C 295.792 -1.71248 0.778187 0
M  V30 2790 O 295.15 -1.79278 -0.269991 0
M  V30 2791 C 295.198 -1.59529 3.23393 0
M  V30 2792 O 294.302 -2.70461 3.11327 0
M  V30 2793 H 293.643 -0.222231 0.625707 0
M  V30 2794 H 296.173 -0.0639716 2.045 0
M  V30 2795 H 296.183 -1.97847 3.5682 0
M  V30 2796 H 294.858 -0.933055 4.05299 0
M  V30 2797 H 293.435 -2.35135 2.89423 0
M  V30 2798 N 295.62 -1.53406 -0.361157 0
M  V30 2799 C 296.869 -1.69022 -1.10066 0
M  V30 2800 C 297.182 -0.450838 -1.90333 0
M  V30 2801 O 298.388 -0.487617 -2.67085 0
M  V30 2802 C 296.844 -2.98812 -2.00598 0
M  V30 2803 C 296.452 -4.30027 -1.25621 0
M  V30 2804 C 298.196 -3.23795 -2.74513 0
M  V30 2805 C 296.103 -5.50903 -2.1508 0
M  V30 2806 H 295.033 -0.629776 -0.414606 0
M  V30 2807 H 297.684 -1.79907 -0.361348 0
M  V30 2808 H 296.066 -2.8174 -2.78278 0
M  V30 2809 H 297.24 -4.57745 -0.529739 0
M  V30 2810 H 295.555 -4.11522 -0.635496 0
M  V30 2811 H 298.152 -4.11289 -3.41681 0
M  V30 2812 H 298.495 -2.40045 -3.40123 0
M  V30 2813 H 299.028 -3.41561 -2.03914 0
M  V30 2814 H 295.767 -6.37143 -1.54041 0
M  V30 2815 H 295.287 -5.27459 -2.85565 0
M  V30 2816 H 296.966 -5.85865 -2.74538 0
M  V30 2817 N 297.098 0.621204 -1.44841 0
M  V30 2818 C 298.323 1.41244 -1.51871 0
M  V30 2819 C 298.748 1.87519 -0.147764 0
M  V30 2820 O 298.106 1.59334 0.865 0
M  V30 2821 C 298.154 2.60221 -2.49634 0
M  V30 2822 O 297.258 3.60395 -2.00473 0
M  V30 2823 H 296.599 0.42223 -0.512463 0
M  V30 2824 H 299.129 0.757305 -1.90069 0
M  V30 2825 H 299.139 3.0764 -2.67996 0
M  V30 2826 H 297.814 2.25887 -3.4921 0
M  V30 2827 H 296.391 3.19717 -1.91925 0
M  V30 2828 N 298.576 1.31904 0.862503 0
M  V30 2829 C 299.806 1.24817 1.64634 0
M  V30 2830 C 300.214 -0.187579 1.88268 0
M  V30 2831 O 299.557 -1.13253 1.44635 0
M  V30 2832 C 299.619 1.92996 3.03303 0
M  V30 2833 C 299.283 3.42336 3.02746 0
M  V30 2834 C 300.28 4.37956 2.80162 0
M  V30 2835 C 297.965 3.84147 3.2363 0
M  V30 2836 C 299.959 5.73361 2.78453 0
M  V30 2837 C 297.646 5.19663 3.21549 0
M  V30 2838 C 298.644 6.14081 2.98988 0
M  V30 2839 O 298.332 7.47118 2.96766 0
M  V30 2840 H 298.064 0.432222 0.519769 0
M  V30 2841 H 300.618 1.7445 1.08427 0
M  V30 2842 H 298.848 1.37922 3.61268 0
M  V30 2843 H 300.537 1.79723 3.63943 0
M  V30 2844 H 301.303 4.06981 2.63802 0
M  V30 2845 H 297.182 3.11083 3.40218 0
M  V30 2846 H 300.726 6.4703 2.60763 0
M  V30 2847 H 296.623 5.5027 3.37451 0
M  V30 2848 H 297.391 7.56382 3.12775 0
M  V30 2849 N 300.054 -1.07777 1.14986 0
M  V30 2850 C 301.282 -1.84018 0.945773 0
M  V30 2851 C 301.697 -1.81897 -0.505863 0
M  V30 2852 O 301.054 -1.22726 -1.35072 0
M  V30 2853 C 301.105 -3.31287 1.44677 0
M  V30 2854 O 300.826 -3.33449 2.84154 0
M  V30 2855 C 302.327 -4.24311 1.28355 0
M  V30 2856 H 299.547 -0.580716 0.336169 0
M  V30 2857 H 302.091 -1.36077 1.52654 0
M  V30 2858 H 300.246 -3.76594 0.908625 0
M  V30 2859 H 300.66 -4.25427 3.06777 0
M  V30 2860 H 302.134 -5.2573 1.68261 0
M  V30 2861 H 302.611 -4.38612 0.227184 0
M  V30 2862 H 303.217 -3.84836 1.81056 0
M  V30 2863 N 301.532 -0.945985 -1.26051 0
M  V30 2864 C 302.442 -0.465633 -2.29933 0
M  V30 2865 C 303.458 0.462761 -1.67733 0
M  V30 2866 O 304.634 0.341118 -1.9849 0
M  V30 2867 C 301.699 0.256994 -3.45746 0
M  V30 2868 C 300.76 -0.708549 -4.23412 0
M  V30 2869 C 299.993 -0.0203135 -5.33696 0
M  V30 2870 O 300.216 1.19571 -5.57726 0
M  V30 2871 O 299.15 -0.701459 -5.97799 0
M  V30 2872 H 302.976 -1.32866 -2.73094 0
M  V30 2873 H 300.561 -0.712071 -1.31339 0
M  V30 2874 H 302.443 0.663852 -4.16138 0
M  V30 2875 H 301.118 1.09533 -3.04605 0
M  V30 2876 H 300.025 -1.16545 -3.55483 0
M  V30 2877 H 301.358 -1.51465 -4.68315 0
M  V30 2878 N 303.011 1.40521 -0.713556 0
M  V30 2879 C 303.941 2.33381 -0.0743864 0
M  V30 2880 C 304.922 1.52784 0.747735 0
M  V30 2881 O 306.107 1.81258 0.697071 0
M  V30 2882 C 303.237 3.36748 0.849598 0
M  V30 2883 C 302.191 4.27793 0.133247 0
M  V30 2884 C 301.517 5.21679 1.17281 0
M  V30 2885 C 302.817 5.12415 -1.01134 0
M  V30 2886 H 304.511 2.87081 -0.850007 0
M  V30 2887 H 302.057 1.38034 -0.410201 0
M  V30 2888 H 304.01 4.00648 1.30612 0
M  V30 2889 H 302.734 2.81439 1.65709 0
M  V30 2890 H 301.393 3.65342 -0.303426 0
M  V30 2891 H 301.041 4.62677 1.9733 0
M  V30 2892 H 300.741 5.83435 0.698397 0
M  V30 2893 H 302.265 5.88456 1.62947 0
M  V30 2894 H 303.679 5.69781 -0.634274 0
M  V30 2895 H 302.076 5.83203 -1.41399 0
M  V30 2896 H 303.146 4.48514 -1.84292 0
M  V30 2897 N 304.489 0.459591 1.5075 0
M  V30 2898 C 305.421 -0.37665 2.26084 0
M  V30 2899 C 306.434 -0.967109 1.30961 0
M  V30 2900 O 307.623 -0.857468 1.56556 0
M  V30 2901 C 304.723 -1.54112 3.01832 0
M  V30 2902 C 303.896 -1.06553 4.24223 0
M  V30 2903 C 302.955 -2.1027 4.82362 0
M  V30 2904 O 301.981 -1.68798 5.43595 0
M  V30 2905 N 303.183 -3.42974 4.68347 0
M  V30 2906 H 305.948 0.269124 2.98489 0
M  V30 2907 H 303.509 0.28972 1.59287 0
M  V30 2908 H 305.501 -2.23165 3.37608 0
M  V30 2909 H 304.071 -2.0918 2.32298 0
M  V30 2910 H 303.291 -0.201274 3.93686 0
M  V30 2911 H 304.579 -0.725516 5.03601 0
M  V30 2912 H 303.977 -3.79385 4.19623 0
M  V30 2913 H 302.534 -4.07858 5.08424 0
M  V30 2914 N 305.967 -1.56429 0.191757 0
M  V30 2915 C 306.899 -2.16154 -0.762245 0
M  V30 2916 C 307.912 -1.12247 -1.17917 0
M  V30 2917 O 309.101 -1.39353 -1.11548 0
M  V30 2918 C 306.201 -2.70606 -2.04024 0
M  V30 2919 C 305.374 -3.99381 -1.78364 0
M  V30 2920 C 304.433 -4.38692 -2.90578 0
M  V30 2921 O 303.459 -5.06179 -2.6033 0
M  V30 2922 N 304.661 -4.01922 -4.18854 0
M  V30 2923 H 307.426 -2.98643 -0.251526 0
M  V30 2924 H 304.987 -1.61897 0.00967373 0
M  V30 2925 H 306.979 -2.93891 -2.78227 0
M  V30 2926 H 305.549 -1.9259 -2.46227 0
M  V30 2927 H 304.769 -3.84262 -0.879581 0
M  V30 2928 H 306.057 -4.83445 -1.58614 0
M  V30 2929 H 305.455 -3.47631 -4.46283 0
M  V30 2930 H 304.012 -4.30165 -4.89695 0
M  V30 2931 N 307.445 0.0818655 -1.57387 0
M  V30 2932 C 308.408 1.08265 -2.02018 0
M  V30 2933 C 309.408 1.32183 -0.915664 0
M  V30 2934 O 310.598 1.28073 -1.18081 0
M  V30 2935 C 307.73 2.42871 -2.39221 0
M  V30 2936 H 308.923 0.698204 -2.91659 0
M  V30 2937 H 306.476 0.327303 -1.52835 0
M  V30 2938 H 307.211 2.86167 -1.52575 0
M  V30 2939 H 306.996 2.26855 -3.19811 0
M  V30 2940 H 308.486 3.14826 -2.74362 0
M  V30 2941 N 308.923 1.53595 0.353017 0
M  V30 2942 C 309.853 1.83902 1.43883 0
M  V30 2943 C 310.834 0.693421 1.55324 0
M  V30 2944 O 312.019 0.944452 1.69687 0
M  V30 2945 C 309.149 2.04016 2.8106 0
M  V30 2946 C 308.103 3.19814 2.84434 0
M  V30 2947 C 307.429 3.25244 4.24406 0
M  V30 2948 C 308.729 4.58133 2.50822 0
M  V30 2949 H 310.423 2.74835 1.1877 0
M  V30 2950 H 307.969 1.32242 0.569917 0
M  V30 2951 H 309.922 2.238 3.57059 0
M  V30 2952 H 308.646 1.09804 3.07588 0
M  V30 2953 H 307.305 2.9987 2.10887 0
M  V30 2954 H 306.953 2.28646 4.48029 0
M  V30 2955 H 306.653 4.03054 4.27576 0
M  V30 2956 H 308.177 3.47228 5.0226 0
M  V30 2957 H 309.591 4.77995 3.16534 0
M  V30 2958 H 307.988 5.38276 2.6529 0
M  V30 2959 H 309.058 4.62387 1.46034 0
M  V30 2960 N 310.401 -0.613514 1.45168 0
M  V30 2961 C 311.626 -1.40437 1.52618 0
M  V30 2962 C 312.051 -1.87438 0.157707 0
M  V30 2963 O 311.409 -1.59791 -0.856537 0
M  V30 2964 C 311.457 -2.58894 2.51011 0
M  V30 2965 O 310.561 -3.59326 2.02382 0
M  V30 2966 H 309.902 -0.419506 0.514695 0
M  V30 2967 H 312.432 -0.747215 1.90467 0
M  V30 2968 H 312.442 -3.06214 2.69624 0
M  V30 2969 H 311.117 -2.24032 3.50403 0
M  V30 2970 H 309.694 -3.18695 1.93618 0
M  V30 2971 N 311.879 -1.3236 -0.855495 0
M  V30 2972 C 312.811 -1.17052 -1.97057 0
M  V30 2973 C 313.824 -0.10574 -1.62456 0
M  V30 2974 O 315.013 -0.354619 -1.74942 0
M  V30 2975 C 312.113 -0.769305 -3.30053 0
M  V30 2976 C 311.286 -1.9222 -3.929 0
M  V30 2977 C 310.345 -1.50466 -5.04228 0
M  V30 2978 O 309.371 -2.21655 -5.24269 0
M  V30 2979 N 310.573 -0.400209 -5.79119 0
M  V30 2980 H 313.338 -2.13103 -2.1073 0
M  V30 2981 H 310.899 -1.24885 -1.0303 0
M  V30 2982 H 312.891 -0.472407 -4.01933 0
M  V30 2983 H 311.461 0.100025 -3.1244 0
M  V30 2984 H 310.681 -2.38563 -3.13817 0
M  V30 2985 H 311.969 -2.69403 -4.31624 0
M  V30 2986 H 311.367 0.192319 -5.65373 0
M  V30 2987 H 309.924 -0.162912 -6.51596 0
M  V30 2988 N 313.357 1.07166 -1.15556 0
M  V30 2989 C 314.29 2.13808 -0.797593 0
M  V30 2990 C 315.268 1.6101 0.226812 0
M  V30 2991 O 316.452 1.88161 0.112932 0
M  V30 2992 C 313.579 3.38187 -0.186371 0
M  V30 2993 C 312.625 4.09766 -1.18297 0
M  V30 2994 S 313.458 4.60932 -2.72584 0
M  V30 2995 C 314.614 5.88583 -2.12886 0
M  V30 2996 H 314.847 2.43843 -1.70083 0
M  V30 2997 H 312.38 1.19467 -0.978106 0
M  V30 2998 H 314.338 4.10189 0.159837 0
M  V30 2999 H 312.999 3.06326 0.694489 0
M  V30 3000 H 312.192 4.99065 -0.703562 0
M  V30 3001 H 311.794 3.43736 -1.47381 0
M  V30 3002 H 314.086 6.60866 -1.49208 0
M  V30 3003 H 315.029 6.41241 -3.0036 0
M  V30 3004 H 315.437 5.42194 -1.57116 0
M  V30 3005 N 314.835 0.952656 1.25548 0
M  V30 3006 C 316.083 0.605176 1.92826 0
M  V30 3007 C 316.404 -0.860261 1.74999 0
M  V30 3008 O 315.674 -1.6125 1.11244 0
M  V30 3009 H 314.254 0.220832 0.713612 0
M  V30 3010 H 316.916 1.21047 1.52754 0
M  V30 3011 H 316.012 0.832798 3.00784 0
M  V30 3012 N 316.313 -1.40141 0.720998 0
M  V30 3013 C 317.543 -2.04798 0.27226 0
M  V30 3014 C 317.951 -1.54442 -1.09289 0
M  V30 3015 O 317.294 -0.698342 -1.69908 0
M  V30 3016 C 317.356 -3.59048 0.18027 0
M  V30 3017 C 317.02 -4.32317 1.48159 0
M  V30 3018 C 318.017 -4.59902 2.42458 0
M  V30 3019 C 315.702 -4.71125 1.74202 0
M  V30 3020 C 317.696 -5.25288 3.61042 0
M  V30 3021 C 315.383 -5.36242 2.93066 0
M  V30 3022 C 316.381 -5.63254 3.86308 0
M  V30 3023 O 316.069 -6.27024 5.03086 0
M  V30 3024 H 315.801 -0.665419 0.119139 0
M  V30 3025 H 318.355 -1.80436 0.981432 0
M  V30 3026 H 316.585 -3.82251 -0.58489 0
M  V30 3027 H 318.274 -4.05221 -0.234618 0
M  V30 3028 H 319.04 -4.30379 2.23604 0
M  V30 3029 H 314.919 -4.49466 1.02477 0
M  V30 3030 H 318.463 -5.46289 4.33837 0
M  V30 3031 H 314.36 -5.65185 3.11826 0
M  V30 3032 H 315.128 -6.4552 5.03235 0
M  V30 3033 N 317.792 -0.46758 -1.50504 0
M  V30 3034 C 318.74 0.342482 -2.30065 0
M  V30 3035 C 319.734 0.993596 -1.37201 0
M  V30 3036 O 320.94 0.925102 -1.54408 0
M  V30 3037 H 317.315 0.129283 -0.740803 0
M  V30 3038 H 319.286 -0.34899 -2.96352 0
M  V30 3039 C 318.035 1.4139 -3.17654 0
M  V30 3040 H 317.358 0.922264 -3.89017 0
M  V30 3041 H 318.798 1.95335 -3.76325 0
M  V30 3042 C 317.257 2.4139 -2.35016 0
M  V30 3043 O 317.787 3.46586 -2.03079 0
M  V30 3044 N 315.993 2.13021 -1.97662 0
M  V30 3045 H 315.54 1.27499 -2.23834 0
M  V30 3046 H 315.498 2.80164 -1.42673 0
M  V30 3047 N 319.27 1.56325 -0.20005 0
M  V30 3048 C 320.2 2.22318 0.713916 0
M  V30 3049 C 321.181 1.18788 1.21752 0
M  V30 3050 O 322.366 1.47309 1.26545 0
M  V30 3051 C 319.496 2.88639 1.93144 0
M  V30 3052 C 318.45 3.98457 1.56255 0
M  V30 3053 C 317.776 4.51967 2.85709 0
M  V30 3054 C 319.076 5.16612 0.768747 0
M  V30 3055 H 320.77 2.98952 0.163755 0
M  V30 3056 H 318.316 1.43792 0.0773219 0
M  V30 3057 H 320.269 3.33491 2.57608 0
M  V30 3058 H 318.993 2.09419 2.50621 0
M  V30 3059 H 317.652 3.54305 0.941471 0
M  V30 3060 H 317.3 3.69503 3.41287 0
M  V30 3061 H 317 5.26071 2.6177 0
M  V30 3062 H 318.524 4.99523 3.51154 0
M  V30 3063 H 319.938 5.57977 1.3166 0
M  V30 3064 H 318.335 5.96812 0.627286 0
M  V30 3065 H 319.405 4.84358 -0.229168 0
M  V30 3066 N 320.748 -0.0735177 1.57428 0
M  V30 3067 C 321.973 -0.789787 1.91774 0
M  V30 3068 C 322.398 -1.70413 0.796306 0
M  V30 3069 O 321.756 -1.79555 -0.250961 0
M  V30 3070 C 321.804 -1.5609 3.25067 0
M  V30 3071 O 320.908 -2.67144 3.14178 0
M  V30 3072 H 320.249 -0.215582 0.628029 0
M  V30 3073 H 322.779 -0.0422781 2.04556 0
M  V30 3074 H 322.789 -1.94052 3.58898 0
M  V30 3075 H 321.464 -0.890015 4.06265 0
M  V30 3076 H 320.041 -2.32052 2.91901 0
M  V30 3077 N 322.226 -1.5378 -0.344866 0
M  V30 3078 C 323.637 -1.62428 -0.920552 0
M  V30 3079 C 323.988 -0.504747 -1.89596 0
M  V30 3080 O 323.113 0.365711 -2.13287 0
M  V30 3081 C 323.708 -2.94419 -1.67639 0
M  V30 3082 C 322.267 -3.05333 -2.20111 0
M  V30 3083 C 321.414 -2.57866 -1.01982 0
M  V30 3084 H 324.365 -1.58222 -0.123042 0
M  V30 3085 H 324.386 -2.83384 -2.53917 0
M  V30 3086 H 323.898 -3.7588 -0.966224 0
M  V30 3087 H 321.999 -2.28502 -2.94308 0
M  V30 3088 H 322.112 -4.10778 -2.46573 0
M  V30 3089 H 320.476 -2.13241 -1.39285 0
M  V30 3090 H 321.259 -3.41765 -0.324308 0
M  V30 3091 N 323.704 0.605807 -1.45491 0
M  V30 3092 C 324.636 1.73031 -1.5031 0
M  V30 3093 C 325.649 1.57968 -0.393687 0
M  V30 3094 O 326.838 1.65817 -0.660839 0
M  V30 3095 C 323.938 3.11049 -1.34543 0
M  V30 3096 C 323.111 3.52334 -2.59189 0
M  V30 3097 C 322.17 4.69323 -2.37954 0
M  V30 3098 O 321.196 4.7635 -3.11575 0
M  V30 3099 N 322.398 5.62705 -1.4263 0
M  V30 3100 H 325.163 1.6936 -2.4726 0
M  V30 3101 H 322.724 0.79114 -1.41254 0
M  V30 3102 H 324.716 3.87071 -1.18144 0
M  V30 3103 H 323.286 3.09217 -0.458623 0
M  V30 3104 H 322.506 2.66256 -2.90691 0
M  V30 3105 H 323.794 3.76677 -3.42041 0
M  V30 3106 H 323.192 5.59744 -0.818758 0
M  V30 3107 H 321.749 6.38252 -1.32202 0
M  V30 3108 N 325.182 1.32811 0.848464 0
M  V30 3109 C 326.429 1.23724 1.60308 0
M  V30 3110 C 326.757 -0.1994 1.93475 0
M  V30 3111 O 326.012 -1.15406 1.5805 0
M  V30 3112 C 326.311 2.04831 2.92881 0
M  V30 3113 C 325.977 3.54125 2.79117 0
M  V30 3114 C 324.639 3.94829 2.7507 0
M  V30 3115 C 326.991 4.49036 2.64606 0
M  V30 3116 C 324.319 5.28675 2.544 0
M  V30 3117 C 326.671 5.83033 2.4547 0
M  V30 3118 C 325.335 6.22931 2.39819 0
M  V30 3119 H 324.605 0.452737 0.586609 0
M  V30 3120 H 327.252 1.64301 0.983743 0
M  V30 3121 H 325.557 1.57001 3.58968 0
M  V30 3122 H 327.254 1.95164 3.50303 0
M  V30 3123 H 323.844 3.21801 2.83094 0
M  V30 3124 H 328.028 4.18505 2.66772 0
M  V30 3125 H 323.284 5.58637 2.48465 0
M  V30 3126 H 327.458 6.56186 2.33222 0
M  V30 3127 H 325.085 7.26584 2.23562 0
M  V30 3128 N 326.66 -1.06551 1.16123 0
M  V30 3129 C 327.888 -1.83005 0.965237 0
M  V30 3130 C 328.303 -1.82423 -0.486542 0
M  V30 3131 O 327.66 -1.24152 -1.33763 0
M  V30 3132 C 327.711 -3.29733 1.48183 0
M  V30 3133 O 327.432 -3.30416 2.87674 0
M  V30 3134 C 328.933 -4.22926 1.32848 0
M  V30 3135 H 326.153 -0.577118 0.342309 0
M  V30 3136 H 328.697 -1.3445 1.54089 0
M  V30 3137 H 326.852 -3.75609 0.948517 0
M  V30 3138 H 327.266 -4.22149 3.11272 0
M  V30 3139 H 328.74 -5.23916 1.73827 0
M  V30 3140 H 329.217 -4.38346 0.273692 0
M  V30 3141 H 329.823 -3.82894 1.85127 0
M  V30 3142 N 328.138 -0.959301 -1.25041 0
M  V30 3143 C 329.07 -0.440543 -2.24926 0
M  V30 3144 C 330.083 0.446131 -1.56568 0
M  V30 3145 O 331.272 0.253657 -1.76689 0
M  V30 3146 C 328.372 0.38412 -3.36716 0
M  V30 3147 C 327.545 -0.490658 -4.34639 0
M  V30 3148 C 326.604 0.276587 -5.25473 0
M  V30 3149 O 325.63 -0.326614 -5.68262 0
M  V30 3150 N 326.832 1.56844 -5.5891 0
M  V30 3151 H 329.597 -1.29931 -2.70071 0
M  V30 3152 H 327.158 -0.830181 -1.38995 0
M  V30 3153 H 329.15 0.905228 -3.94446 0
M  V30 3154 H 327.72 1.14377 -2.90924 0
M  V30 3155 H 326.94 -1.19282 -3.7572 0
M  V30 3156 H 328.228 -1.08756 -4.97041 0
M  V30 3157 H 327.626 2.08036 -5.26059 0
M  V30 3158 H 326.183 2.03541 -6.19205 0
M  V30 3159 N 329.616 1.39756 -0.72842 0
M  V30 3160 C 330.546 2.33289 -0.0991354 0
M  V30 3161 C 331.527 1.53568 0.731489 0
M  V30 3162 O 332.712 1.81987 0.677807 0
M  V30 3163 C 329.842 3.3763 0.813834 0
M  V30 3164 C 328.796 4.2791 0.0878663 0
M  V30 3165 C 328.122 5.22894 1.11741 0
M  V30 3166 C 329.422 5.11314 -1.06563 0
M  V30 3167 H 331.116 2.86163 -0.880408 0
M  V30 3168 H 328.662 1.37591 -0.424819 0
M  V30 3169 H 330.615 4.0201 1.26355 0
M  V30 3170 H 329.339 2.83181 1.62715 0
M  V30 3171 H 327.998 3.65 -0.342159 0
M  V30 3172 H 327.646 4.64744 1.92412 0
M  V30 3173 H 327.346 5.84143 0.636477 0
M  V30 3174 H 328.87 5.90151 1.56697 0
M  V30 3175 H 330.284 5.69076 -0.694671 0
M  V30 3176 H 328.681 5.81671 -1.47577 0
M  V30 3177 H 329.751 4.46534 -1.89038 0
M  V30 3178 N 331.094 0.475555 1.50254 0
M  V30 3179 C 332.024 -0.30611 2.31485 0
M  V30 3180 C 333.005 -0.986228 1.38591 0
M  V30 3181 O 334.19 -0.982541 1.67511 0
M  V30 3182 C 331.32 -1.38588 3.1845 0
M  V30 3183 C 330.274 -0.827115 4.19932 0
M  V30 3184 C 329.6 -2.00551 4.95665 0
M  V30 3185 C 330.9 0.16463 5.2204 0
M  V30 3186 H 332.594 0.371866 2.97082 0
M  V30 3187 H 330.14 0.180282 1.42867 0
M  V30 3188 H 332.093 -1.94023 3.74076 0
M  V30 3189 H 330.817 -2.09269 2.50747 0
M  V30 3190 H 329.476 -0.294702 3.65414 0
M  V30 3191 H 329.124 -2.6994 4.2443 0
M  V30 3192 H 328.824 -1.63784 5.64313 0
M  V30 3193 H 330.348 -2.56468 5.54127 0
M  V30 3194 H 331.762 -0.300699 5.72511 0
M  V30 3195 H 330.159 0.446813 5.98434 0
M  V30 3196 H 331.229 1.08905 4.72512 0
M  V30 3197 N 332.573 -1.56217 0.208337 0
M  V30 3198 C 333.819 -1.98242 -0.427552 0
M  V30 3199 C 334.152 -1.09554 -1.60348 0
M  V30 3200 O 333.427 -0.15035 -1.93918 0
M  V30 3201 C 333.71 -3.4931 -0.874907 0
M  V30 3202 C 333.563 -4.48773 0.303751 0
M  V30 3203 C 334.882 -4.04424 -1.73577 0
M  V30 3204 H 332.001 -0.720744 -0.153936 0
M  V30 3205 H 334.643 -1.87586 0.30192 0
M  V30 3206 H 332.793 -3.58522 -1.49648 0
M  V30 3207 H 334.465 -4.51586 0.941682 0
M  V30 3208 H 332.708 -4.23194 0.953375 0
M  V30 3209 H 333.379 -5.51976 -0.0519883 0
M  V30 3210 H 335.855 -3.98075 -1.21143 0
M  V30 3211 H 334.731 -5.1047 -2.01771 0
M  V30 3212 H 334.992 -3.50494 -2.69456 0
M  V30 3213 N 334.051 0.0651679 -1.57465 0
M  V30 3214 C 335.276 0.779605 -1.9219 0
M  V30 3215 C 335.701 1.69988 -0.805333 0
M  V30 3216 O 335.059 1.79685 0.241435 0
M  V30 3217 C 335.107 1.54364 -3.2589 0
M  V30 3218 O 334.211 2.65474 -3.1559 0
M  V30 3219 H 333.552 0.212249 -0.629163 0
M  V30 3220 H 336.082 0.0314294 -2.04576 0
M  V30 3221 H 336.092 1.92146 -3.59922 0
M  V30 3222 H 334.767 0.868457 -4.06732 0
M  V30 3223 H 333.344 2.30501 -2.93128 0
M  V30 3224 N 335.529 1.53961 0.336706 0
M  V30 3225 C 336.945 1.44378 0.680241 0
M  V30 3226 C 337.145 0.606034 1.9217 0
M  V30 3227 O 336.201 0.099688 2.52303 0
M  V30 3228 C 337.514 2.87945 0.8665 0
M  V30 3229 C 339.062 2.97763 0.964682 0
M  V30 3230 C 339.537 4.42453 1.18321 0
M  V30 3231 N 341.028 4.46008 1.25025 0
M  V30 3232 C 341.763 5.55102 1.43697 0
M  V30 3233 N 341.259 6.7419 1.59498 0
M  V30 3234 N 343.052 5.42727 1.463 0
M  V30 3235 H 335.203 2.06918 -0.479455 0
M  V30 3236 H 337.466 0.935634 -0.152619 0
M  V30 3237 H 337.172 3.51691 0.0256937 0
M  V30 3238 H 337.046 3.33293 1.76623 0
M  V30 3239 H 339.433 2.34153 1.796 0
M  V30 3240 H 339.514 2.55766 0.041708 0
M  V30 3241 H 339.158 5.06645 0.356788 0
M  V30 3242 H 339.088 4.82048 2.11985 0
M  V30 3243 H 341.579 3.60196 1.14312 0
M  V30 3244 H 341.892 7.53095 1.734 0
M  V30 3245 H 340.237 6.77123 1.56621 0
M  V30 3246 H 343.428 4.48647 1.33543 0
M  V30 3247 H 343.601 6.27806 1.6051 0
M  V30 3248 N 337.007 -0.598083 1.45811 0
M  V30 3249 C 338.237 -1.38121 1.53643 0
M  V30 3250 C 338.645 -1.88425 0.171081 0
M  V30 3251 O 337.988 -1.63409 -0.839237 0
M  V30 3252 C 338.05 -2.61432 2.46766 0
M  V30 3253 C 337.714 -2.32702 3.93318 0
M  V30 3254 C 338.711 -1.92479 4.82957 0
M  V30 3255 C 336.396 -2.45321 4.38318 0
M  V30 3256 C 338.39 -1.65248 6.15607 0
M  V30 3257 C 336.077 -2.17703 5.71007 0
M  V30 3258 C 337.075 -1.7773 6.5947 0
M  V30 3259 O 336.763 -1.50441 7.89698 0
M  V30 3260 H 336.495 -0.428863 0.522544 0
M  V30 3261 H 339.049 -0.73557 1.91777 0
M  V30 3262 H 337.279 -3.28749 2.0362 0
M  V30 3263 H 338.968 -3.23487 2.45175 0
M  V30 3264 H 339.734 -1.82258 4.49452 0
M  V30 3265 H 335.613 -2.75399 3.69697 0
M  V30 3266 H 339.157 -1.33973 6.84614 0
M  V30 3267 H 335.054 -2.27544 6.04065 0
M  V30 3268 H 335.822 -1.64415 8.01817 0
M  V30 3269 N 338.485 -1.33259 -0.841409 0
M  V30 3270 C 339.725 -1.25902 -1.61022 0
M  V30 3271 C 340.089 0.173325 -1.91216 0
M  V30 3272 O 341.29 0.370824 -2.6623 0
M  V30 3273 C 339.561 -2.10735 -2.88662 0
M  V30 3274 S 341.12 -2.20541 -3.79351 0
M  V30 3275 H 337.938 -0.447958 -0.552137 0
M  V30 3276 H 340.54 -1.68263 -0.995382 0
M  V30 3277 H 339.244 -3.1384 -2.64448 0
M  V30 3278 H 338.775 -1.69201 -3.55154 0
M  V30 3279 H 340.79 -1.36462 -4.77067 0
M  V30 3280 N 339.963 1.05934 -1.16686 0
M  V30 3281 C 341.374 1.60263 -0.957745 0
M  V30 3282 C 341.725 1.89789 0.49745 0
M  V30 3283 O 340.85 1.67401 1.37135 0
M  V30 3284 C 341.445 2.91172 -1.73218 0
M  V30 3285 C 340.004 3.42188 -1.56794 0
M  V30 3286 C 339.151 2.16028 -1.73859 0
M  V30 3287 H 342.102 0.888392 -1.31504 0
M  V30 3288 H 342.123 3.60744 -1.21014 0
M  V30 3289 H 341.635 2.6965 -2.79124 0
M  V30 3290 H 339.736 3.68762 -0.533437 0
M  V30 3291 H 339.849 4.17273 -2.35414 0
M  V30 3292 H 338.213 2.26426 -1.16633 0
M  V30 3293 H 338.996 1.96985 -2.81161 0
M  V30 3294 N 341.441 0.965919 1.2453 0
M  V30 3295 C 342.857 0.67216 1.44756 0
M  V30 3296 C 343.057 -0.766609 1.86347 0
M  V30 3297 O 342.113 -1.5407 2.00047 0
M  V30 3298 C 343.426 1.65473 2.51076 0
M  V30 3299 C 344.974 1.66716 2.64905 0
M  V30 3300 C 345.449 2.63766 3.74421 0
M  V30 3301 N 346.94 2.62198 3.81846 0
M  V30 3302 C 347.675 3.33966 4.66106 0
M  V30 3303 N 347.171 4.15245 5.54566 0
M  V30 3304 N 348.964 3.22799 4.60171 0
M  V30 3305 H 341.115 1.89553 0.958293 0
M  V30 3306 H 343.378 0.815979 0.482579 0
M  V30 3307 H 343.084 2.68296 2.27399 0
M  V30 3308 H 342.958 1.4261 3.49202 0
M  V30 3309 H 345.345 0.646057 2.87941 0
M  V30 3310 H 345.426 1.93642 1.67142 0
M  V30 3311 H 345.07 3.6601 3.52135 0
M  V30 3312 H 345 2.34121 4.71694 0
M  V30 3313 H 347.491 2.032 3.18619 0
M  V30 3314 H 347.804 4.66898 6.15814 0
M  V30 3315 H 346.149 4.1934 5.54237 0
M  V30 3316 H 349.34 2.58764 3.90075 0
M  V30 3317 H 349.513 3.78994 5.25612 0
M  V30 3318 N 342.919 -1.39368 0.735821 0
M  V30 3319 C 344.144 -2.05319 0.293052 0
M  V30 3320 C 344.569 -1.55115 -1.064 0
M  V30 3321 O 343.927 -0.695261 -1.67439 0
M  V30 3322 C 343.975 -3.59305 0.305323 0
M  V30 3323 O 343.079 -4.06299 -0.706761 0
M  V30 3324 H 342.42 -0.650529 0.13307 0
M  V30 3325 H 344.95 -1.78386 1.00197 0
M  V30 3326 H 344.96 -4.07724 0.149997 0
M  V30 3327 H 343.635 -3.95207 1.29553 0
M  V30 3328 H 342.212 -3.69292 -0.517504 0
M  V30 3329 N 344.397 -0.483516 -1.5 0
M  V30 3330 C 345.36 0.292965 -2.2732 0
M  V30 3331 C 346.36 0.909499 -1.32608 0
M  V30 3332 O 347.55 0.776745 -1.55924 0
M  V30 3333 C 344.682 1.41854 -3.09984 0
M  V30 3334 H 345.875 -0.385289 -2.97415 0
M  V30 3335 H 343.428 -0.237942 -1.54478 0
M  V30 3336 H 344.163 2.13148 -2.44414 0
M  V30 3337 H 343.948 0.982114 -3.79601 0
M  V30 3338 H 345.438 1.96597 -3.68429 0
M  V30 3339 N 345.875 1.56104 -0.216619 0
M  V30 3340 C 346.823 2.21434 0.712036 0
M  V30 3341 C 347.817 1.19218 1.20348 0
M  V30 3342 O 349.023 1.3731 1.16387 0
M  V30 3343 H 345.398 0.70992 0.248026 0
M  V30 3344 H 347.369 2.98083 0.137558 0
M  V30 3345 C 346.118 2.90434 1.91163 0
M  V30 3346 H 345.441 3.68842 1.54258 0
M  V30 3347 H 346.881 3.39552 2.5393 0
M  V30 3348 C 345.34 1.92635 2.76394 0
M  V30 3349 O 345.87 1.44017 3.74996 0
M  V30 3350 N 344.076 1.60392 2.42328 0
M  V30 3351 H 343.623 2.00122 1.622 0
M  V30 3352 H 343.581 0.952159 2.99635 0
M  V30 3353 N 347.353 -0.0568162 1.57498 0
M  V30 3354 C 348.764 -0.606858 1.76562 0
M  V30 3355 C 349.115 -1.77114 0.844094 0
M  V30 3356 O 348.24 -2.16376 0.0318911 0
M  V30 3357 C 348.835 -1.10766 3.20182 0
M  V30 3358 C 347.394 -1.60344 3.40539 0
M  V30 3359 C 346.541 -0.529311 2.72201 0
M  V30 3360 H 349.492 0.169393 1.57793 0
M  V30 3361 H 349.513 -1.97602 3.25167 0
M  V30 3362 H 349.025 -0.26006 3.87228 0
M  V30 3363 H 347.126 -2.47379 2.78629 0
M  V30 3364 H 347.239 -1.67006 4.4905 0
M  V30 3365 H 345.603 -0.977893 2.35179 0
M  V30 3366 H 346.386 0.308352 3.41912 0
M  V30 3367 N 348.832 -1.54138 -0.328536 0
M  V30 3368 C 349.795 -1.82462 -1.38709 0
M  V30 3369 C 350.795 -0.696229 -1.44946 0
M  V30 3370 O 351.985 -0.964535 -1.4506 0
M  V30 3371 C 349.117 -1.98018 -2.77492 0
M  V30 3372 H 350.31 -2.77037 -1.14851 0
M  V30 3373 H 347.863 -1.45779 -0.563751 0
M  V30 3374 H 348.598 -1.05637 -3.06613 0
M  V30 3375 H 348.383 -2.80124 -2.74359 0
M  V30 3376 H 349.873 -2.21396 -3.54081 0
M  V30 3377 N 350.31 0.590341 -1.46126 0
M  V30 3378 C 351.243 1.71434 -1.50617 0
M  V30 3379 C 352.221 1.58543 -0.360948 0
M  V30 3380 O 353.405 1.79865 -0.563985 0
M  V30 3381 C 350.532 3.09422 -1.37753 0
M  V30 3382 C 349.578 3.40854 -2.5636 0
M  V30 3383 S 350.411 3.33773 -4.18755 0
M  V30 3384 C 351.567 4.74312 -4.08386 0
M  V30 3385 H 351.8 1.67364 -2.45717 0
M  V30 3386 H 349.333 0.76845 -1.33919 0
M  V30 3387 H 351.291 3.8903 -1.31018 0
M  V30 3388 H 349.952 3.10989 -0.440949 0
M  V30 3389 H 349.145 4.41368 -2.43332 0
M  V30 3390 H 348.747 2.68798 -2.60046 0
M  V30 3391 H 351.039 5.64522 -3.74595 0
M  V30 3392 H 351.982 4.92397 -5.08872 0
M  V30 3393 H 352.39 4.50803 -3.3976 0
M  V30 3394 N 351.788 1.33704 0.83433 0
M  V30 3395 C 352.72 1.20172 1.9517 0
M  V30 3396 C 353.733 0.131572 1.62267 0
M  V30 3397 O 354.922 0.382406 1.74356 0
M  V30 3398 C 352.022 0.821716 3.28787 0
M  V30 3399 C 351.195 1.98446 3.89792 0
M  V30 3400 C 350.254 1.58469 5.01771 0
M  V30 3401 O 349.28 2.29968 5.20676 0
M  V30 3402 N 350.482 0.492291 5.78409 0
M  V30 3403 H 353.247 2.16429 2.07313 0
M  V30 3404 H 350.808 1.26509 1.0103 0
M  V30 3405 H 352.8 0.536291 4.01131 0
M  V30 3406 H 351.37 -0.0503058 3.1256 0
M  V30 3407 H 350.59 2.43526 3.09982 0
M  V30 3408 H 351.878 2.76236 4.27283 0
M  V30 3409 H 351.276 -0.102349 5.65607 0
M  V30 3410 H 349.833 0.266555 6.51255 0
M  V30 3411 N 353.266 -1.05314 1.17247 0
M  V30 3412 C 354.196 -2.1498 0.911362 0
M  V30 3413 C 355.177 -1.69471 -0.146169 0
M  V30 3414 O 356.362 -1.942 0.003812 0
M  V30 3415 C 353.492 -3.4472 0.422528 0
M  V30 3416 C 352.446 -4.03789 1.4191 0
M  V30 3417 C 351.772 -5.28858 0.788274 0
M  V30 3418 C 353.072 -4.41418 2.7919 0
M  V30 3419 H 354.766 -2.3708 1.82848 0
M  V30 3420 H 352.312 -1.13938 0.880569 0
M  V30 3421 H 354.265 -4.20787 0.227289 0
M  V30 3422 H 352.989 -3.22269 -0.530123 0
M  V30 3423 H 351.648 -3.2979 1.60106 0
M  V30 3424 H 351.296 -5.02709 -0.171173 0
M  V30 3425 H 350.996 -5.69338 1.45353 0
M  V30 3426 H 352.52 -6.07612 0.603282 0
M  V30 3427 H 353.934 -5.08524 2.64719 0
M  V30 3428 H 352.331 -4.92913 3.42282 0
M  V30 3429 H 353.401 -3.51819 3.33693 0
M  V30 3430 N 354.744 -0.972509 -1.24016 0
M  V30 3431 C 356.021 -0.553733 -1.87598 0
M  V30 3432 C 356.401 0.969158 -1.87538 0
M  V30 3433 O 355.749 1.84255 -1.35139 0
M  V30 3434 C 355.959 -1.15076 -3.29482 0
M  V30 3435 C 357.307 -1.23862 -4.06132 0
M  V30 3436 O 358.331 -1.10363 -3.38672 0
M  V30 3437 O 357.19 -1.45252 -5.26844 0
M  V30 3438 H 354.284 -0.185331 -0.805966 0
M  V30 3439 H 356.83 -1.06709 -1.31952 0
M  V30 3440 H 355.602 -2.19333 -3.2405 0
M  V30 3441 H 355.225 -0.621746 -3.92709 0
M  V30 3442 N 356.222 1.38976 -0.743202 0
M  V30 3443 C 357.638 1.53984 -0.419664 0
M  V30 3444 C 357.838 1.70837 1.0685 0
M  V30 3445 O 356.894 1.7135 1.8546 0
M  V30 3446 C 358.207 2.75287 -1.20985 0
M  V30 3447 C 359.755 2.89129 -1.19889 0
M  V30 3448 C 360.23 4.13381 -1.97181 0
M  V30 3449 N 361.721 4.20437 -1.94389 0
M  V30 3450 C 362.456 5.15547 -2.50996 0
M  V30 3451 N 361.952 6.16395 -3.16274 0
M  V30 3452 N 363.745 5.07822 -2.40984 0
M  V30 3453 H 355.896 1.26285 -1.7078 0
M  V30 3454 H 358.159 0.612689 -0.723406 0
M  V30 3455 H 357.865 2.69204 -2.26323 0
M  V30 3456 H 357.739 3.68184 -0.819759 0
M  V30 3457 H 360.126 2.947 -0.153606 0
M  V30 3458 H 360.207 1.97272 -1.62841 0
M  V30 3459 H 359.851 4.08572 -3.01714 0
M  V30 3460 H 359.781 5.04298 -1.51629 0
M  V30 3461 H 362.272 3.48205 -1.46839 0
M  V30 3462 H 362.585 6.85443 -3.56915 0
M  V30 3463 H 360.93 6.16758 -3.20367 0
M  V30 3464 H 364.121 4.27973 -1.89622 0
M  V30 3465 H 364.294 5.81767 -2.85397 0
M  V30 3466 N 357.7 0.491464 1.49741 0
M  V30 3467 C 358.947 -0.0564256 2.02421 0
M  V30 3468 C 359.275 -1.37872 1.37192 0
M  V30 3469 O 358.53 -1.89375 0.493508 0
M  V30 3470 C 358.829 -0.267329 3.56399 0
M  V30 3471 C 358.495 0.975775 4.40215 0
M  V30 3472 C 357.157 1.31655 4.62839 0
M  V30 3473 C 359.509 1.80251 4.89039 0
M  V30 3474 C 356.837 2.48375 5.31532 0
M  V30 3475 C 359.189 2.96116 5.59015 0
M  V30 3476 C 357.853 3.30585 5.79888 0
M  V30 3477 H 357.123 -0.0206476 0.740712 0
M  V30 3478 H 359.77 0.649686 1.80143 0
M  V30 3479 H 358.075 -1.05588 3.77304 0
M  V30 3480 H 359.772 -0.705549 3.94744 0
M  V30 3481 H 356.362 0.700315 4.2284 0
M  V30 3482 H 360.546 1.55239 4.71396 0
M  V30 3483 H 355.802 2.7533 5.45897 0
M  V30 3484 H 359.976 3.60509 5.95824 0
M  V30 3485 H 357.603 4.21132 6.32892 0
M  V30 3486 N 359.178 -1.55987 0.224894 0
M  V30 3487 C 360.427 -1.97566 -0.406273 0
M  V30 3488 C 360.74 -1.11569 -1.6066 0
M  V30 3489 O 361.946 -1.43062 -2.3075 0
M  V30 3490 C 360.402 -3.51474 -0.774207 0
M  V30 3491 C 360.01 -4.46179 0.403496 0
M  V30 3492 C 361.754 -4.01758 -1.37079 0
M  V30 3493 C 359.661 -5.91399 0.0129412 0
M  V30 3494 H 358.591 -0.737777 -0.155565 0
M  V30 3495 H 361.242 -1.80659 0.321635 0
M  V30 3496 H 359.624 -3.63994 -1.55963 0
M  V30 3497 H 360.798 -4.45409 1.18101 0
M  V30 3498 H 359.113 -4.06255 0.913536 0
M  V30 3499 H 361.71 -5.07756 -1.67596 0
M  V30 3500 H 362.053 -3.47805 -2.28773 0
M  V30 3501 H 362.586 -3.92475 -0.648733 0
M  V30 3502 H 359.325 -6.49341 0.896451 0
M  V30 3503 H 358.845 -5.95356 -0.728821 0
M  V30 3504 H 360.524 -6.45683 -0.412582 0
M  V30 3505 N 360.656 0.0484629 -1.57525 0
M  V30 3506 C 361.588 1.08222 -2.02041 0
M  V30 3507 C 362.601 1.33621 -0.930012 0
M  V30 3508 O 363.79 1.3145 -1.20761 0
M  V30 3509 C 360.89 2.42818 -2.36416 0
M  V30 3510 C 360.063 2.37049 -3.67596 0
M  V30 3511 C 359.122 3.53937 -3.89378 0
M  V30 3512 O 358.148 3.34308 -4.60681 0
M  V30 3513 N 359.35 4.75126 -3.3352 0
M  V30 3514 H 362.115 0.702946 -2.9134 0
M  V30 3515 H 359.676 0.236745 -1.6016 0
M  V30 3516 H 361.668 3.197 -2.48141 0
M  V30 3517 H 360.238 2.72661 -1.52888 0
M  V30 3518 H 359.458 1.45395 -3.66407 0
M  V30 3519 H 360.746 2.30318 -4.53686 0
M  V30 3520 H 360.144 4.93976 -2.75688 0
M  V30 3521 H 358.701 5.49439 -3.50656 0
M  V30 3522 N 362.134 1.5431 0.320358 0
M  V30 3523 C 363.38 1.72924 1.05949 0
M  V30 3524 C 363.713 0.503185 1.87568 0
M  V30 3525 O 362.988 -0.499839 1.87968 0
M  V30 3526 C 363.271 3.00676 1.98156 0
M  V30 3527 C 363.124 4.3354 1.19845 0
M  V30 3528 C 364.443 3.24198 2.9763 0
M  V30 3529 H 361.562 0.629195 0.383774 0
M  V30 3530 H 364.204 1.87008 0.335854 0
M  V30 3531 H 362.354 2.888 2.59859 0
M  V30 3532 H 364.026 4.57305 0.605773 0
M  V30 3533 H 362.269 4.309 0.500784 0
M  V30 3534 H 362.94 5.19156 1.87567 0
M  V30 3535 H 365.416 3.35557 2.4605 0
M  V30 3536 H 364.292 4.14938 3.59329 0
M  V30 3537 H 364.553 2.41577 3.7026 0
M  V30 3538 N 363.613 -0.582584 1.46437 0
M  V30 3539 C 364.853 -1.35184 1.53312 0
M  V30 3540 C 365.217 -1.9115 0.180508 0
M  V30 3541 O 366.418 -2.68514 0.124017 0
M  V30 3542 C 364.689 -2.45089 2.60127 0
M  V30 3543 S 366.248 -3.32439 2.86408 0
M  V30 3544 H 363.066 -0.460559 0.54167 0
M  V30 3545 H 365.668 -0.669709 1.83671 0
M  V30 3546 H 364.372 -2.02366 3.57038 0
M  V30 3547 H 363.903 -3.18074 2.315 0
M  V30 3548 H 365.918 -4.43924 2.21688 0
M  V30 3549 N 365.091 -1.34144 -0.827227 0
M  V30 3550 C 366.319 -1.29325 -1.61501 0
M  V30 3551 C 366.734 0.13354 -1.88327 0
M  V30 3552 O 366.091 1.0793 -1.47164 0
M  V30 3553 C 366.142 -2.07746 -2.95844 0
M  V30 3554 O 365.863 -3.4486 -2.70191 0
M  V30 3555 C 367.364 -2.10273 -3.90256 0
M  V30 3556 H 364.584 -0.445069 -0.50215 0
M  V30 3557 H 367.128 -1.76693 -1.02955 0
M  V30 3558 H 365.283 -1.6403 -3.5096 0
M  V30 3559 H 365.697 -3.85345 -3.55822 0
M  V30 3560 H 367.171 -2.69575 -4.81698 0
M  V30 3561 H 367.648 -1.096 -4.25305 0
M  V30 3562 H 368.254 -2.54059 -3.41078 0
M  V30 3563 N 366.569 1.04691 -1.17803 0
M  V30 3564 C 367.501 2.12571 -0.857097 0
M  V30 3565 C 368.514 1.62174 0.142647 0
M  V30 3566 O 369.703 1.78301 -0.0843387 0
M  V30 3567 C 366.803 3.37915 -0.258216 0
M  V30 3568 C 365.976 4.1757 -1.30207 0
M  V30 3569 C 365.035 5.2125 -0.720029 0
M  V30 3570 O 364.061 5.51888 -1.39314 0
M  V30 3571 N 365.263 5.78466 0.485507 0
M  V30 3572 H 368.028 2.40698 -1.78562 0
M  V30 3573 H 365.589 1.20831 -1.07757 0
M  V30 3574 H 367.581 4.04442 0.144584 0
M  V30 3575 H 366.151 3.07281 0.574199 0
M  V30 3576 H 365.371 3.46458 -1.88043 0
M  V30 3577 H 366.659 4.67586 -2.00601 0
M  V30 3578 H 366.057 5.55866 1.05022 0
M  V30 3579 H 364.614 6.4649 0.830307 0
M  V30 3580 N 368.047 0.979072 1.23499 0
M  V30 3581 C 368.977 0.537606 2.27227 0
M  V30 3582 C 369.958 -0.428539 1.64613 0
M  V30 3583 O 371.143 -0.322191 1.91509 0
M  V30 3584 C 368.273 -0.162052 3.46922 0
M  V30 3585 C 367.227 0.721242 4.21879 0
M  V30 3586 C 366.553 -0.110555 5.34586 0
M  V30 3587 C 367.853 2.01141 4.82016 0
M  V30 3588 H 369.547 1.40462 2.64406 0
M  V30 3589 H 367.093 0.67684 1.27102 0
M  V30 3590 H 369.046 -0.482192 4.18632 0
M  V30 3591 H 367.77 -1.06351 3.08799 0
M  V30 3592 H 366.429 1.02482 3.51984 0
M  V30 3593 H 366.077 -1.0125 4.92704 0
M  V30 3594 H 365.777 0.477325 5.85658 0
M  V30 3595 H 367.301 -0.425107 6.09118 0
M  V30 3596 H 368.715 1.75612 5.45741 0
M  V30 3597 H 367.112 2.54695 5.43369 0
M  V30 3598 H 368.182 2.69909 4.02836 0
M  V30 3599 N 369.525 -1.3858 0.750561 0
M  V30 3600 C 370.457 -2.29057 0.0810714 0
M  V30 3601 C 371.47 -1.47596 -0.686973 0
M  V30 3602 O 372.659 -1.70495 -0.528563 0
M  V30 3603 C 369.759 -3.26475 -0.909247 0
M  V30 3604 C 368.932 -4.36945 -0.199478 0
M  V30 3605 C 367.991 -5.14572 -1.10011 0
M  V30 3606 O 367.017 -5.66321 -0.57177 0
M  V30 3607 N 368.219 -5.27262 -2.42849 0
M  V30 3608 H 370.984 -2.87153 0.858087 0
M  V30 3609 H 368.545 -1.50328 0.60109 0
M  V30 3610 H 370.537 -3.75285 -1.51471 0
M  V30 3611 H 369.107 -2.69298 -1.58736 0
M  V30 3612 H 368.327 -3.8981 0.586664 0
M  V30 3613 H 369.615 -5.07963 0.291783 0
M  V30 3614 H 369.013 -4.86763 -2.88233 0
M  V30 3615 H 367.57 -5.79456 -2.98453 0
M  V30 3616 N 371.003 -0.499398 -1.49478 0
M  V30 3617 C 372.249 0.0457576 -2.02748 0
M  V30 3618 C 372.582 1.36793 -1.37846 0
M  V30 3619 O 371.857 1.87596 -0.513601 0
M  V30 3620 C 372.14 0.199986 -3.59544 0
M  V30 3621 C 371.993 -1.1452 -4.34977 0
M  V30 3622 C 373.312 0.94137 -4.29914 0
M  V30 3623 H 370.431 0.0151552 -0.736844 0
M  V30 3624 H 373.073 -0.650498 -1.78518 0
M  V30 3625 H 371.223 0.793007 -3.8032 0
M  V30 3626 H 372.895 -1.77697 -4.25701 0
M  V30 3627 H 371.138 -1.73488 -3.97598 0
M  V30 3628 H 371.809 -0.990607 -5.43039 0
M  V30 3629 H 374.285 0.43844 -4.13784 0
M  V30 3630 H 373.161 1.01812 -5.39375 0
M  V30 3631 H 373.422 1.98471 -3.95046 0
M  V30 3632 N 372.481 1.55866 -0.233164 0
M  V30 3633 C 373.411 2.23783 0.666599 0
M  V30 3634 C 374.392 1.21343 1.19205 0
M  V30 3635 O 375.577 1.4996 1.23392 0
M  V30 3636 C 372.707 2.92671 1.86978 0
M  V30 3637 C 371.661 4.01682 1.47768 0
M  V30 3638 C 370.987 4.57926 2.76058 0
M  V30 3639 C 372.287 5.18126 0.658993 0
M  V30 3640 H 373.981 2.99232 0.100306 0
M  V30 3641 H 371.527 1.43924 0.046804 0
M  V30 3642 H 373.48 3.3888 2.50476 0
M  V30 3643 H 372.204 2.14688 2.46123 0
M  V30 3644 H 370.863 3.56222 0.866106 0
M  V30 3645 H 370.511 3.76659 3.33372 0
M  V30 3646 H 370.211 5.31505 2.50552 0
M  V30 3647 H 371.735 5.06859 3.40479 0
M  V30 3648 H 373.149 5.60644 1.19795 0
M  V30 3649 H 371.546 5.98009 0.500552 0
M  V30 3650 H 372.616 4.83763 -0.331856 0
M  V30 3651 N 373.959 -0.0401083 1.57549 0
M  V30 3652 C 375.187 -0.745196 1.93014 0
M  V30 3653 C 375.602 -1.6948 0.831984 0
M  V30 3654 O 374.959 -1.81482 -0.192463 0
M  V30 3655 C 375.01 -1.51176 3.28372 0
M  V30 3656 O 374.731 -0.600284 4.33968 0
M  V30 3657 C 376.232 -2.315 3.78051 0
M  V30 3658 H 373.452 -0.210088 0.637263 0
M  V30 3659 H 375.996 -0.000924689 2.045 0
M  V30 3660 H 374.151 -2.20801 3.18317 0
M  V30 3661 H 374.565 -1.13669 5.12035 0
M  V30 3662 H 376.039 -2.80697 4.75303 0
M  V30 3663 H 376.516 -3.12436 3.08675 0
M  V30 3664 H 377.122 -1.66971 3.91153 0
M  V30 3665 N 375.437 -1.54477 -0.31217 0
M  V30 3666 C 376.347 -1.87695 -1.4074 0
M  V30 3667 C 377.363 -0.769975 -1.56036 0
M  V30 3668 O 378.539 -1.06537 -1.70915 0
M  V30 3669 C 375.604 -2.10755 -2.75287 0
M  V30 3670 C 374.665 -3.34514 -2.69071 0
M  V30 3671 C 373.898 -3.56465 -3.97201 0
M  V30 3672 O 374.121 -2.81637 -4.96021 0
M  V30 3673 O 373.055 -4.49964 -3.9977 0
M  V30 3674 H 376.881 -2.80849 -1.15574 0
M  V30 3675 H 374.466 -1.40526 -0.507228 0
M  V30 3676 H 376.348 -2.27188 -3.54913 0
M  V30 3677 H 375.023 -1.20788 -3.0032 0
M  V30 3678 H 373.93 -3.23456 -1.87955 0
M  V30 3679 H 375.263 -4.24575 -2.48992 0
M  V30 3680 N 376.915 0.57481 -1.46744 0
M  V30 3681 C 377.878 1.66533 -1.57478 0
M  V30 3682 C 378.878 1.54338 -0.451263 0
M  V30 3683 O 380.068 1.58814 -0.715813 0
M  V30 3684 C 377.2 3.05999 -1.50259 0
M  V30 3685 H 378.393 1.58372 -2.54673 0
M  V30 3686 H 375.946 0.793301 -1.34672 0
M  V30 3687 H 376.681 3.19709 -0.543725 0
M  V30 3688 H 376.466 3.16259 -2.31781 0
M  V30 3689 H 377.956 3.8537 -1.60872 0
M  V30 3690 N 378.394 1.34581 0.820102 0
M  V30 3691 C 379.641 1.27096 1.57648 0
M  V30 3692 C 379.969 -0.158317 1.93855 0
M  V30 3693 O 379.224 -1.12028 1.60463 0
M  V30 3694 C 379.523 2.10997 2.8847 0
M  V30 3695 C 379.189 3.59966 2.71543 0
M  V30 3696 C 377.851 4.00575 2.66634 0
M  V30 3697 C 380.203 4.54548 2.55021 0
M  V30 3698 C 377.531 5.33953 2.43128 0
M  V30 3699 C 379.883 5.88109 2.33047 0
M  V30 3700 C 378.547 6.27878 2.26552 0
M  V30 3701 H 377.817 0.465078 0.576874 0
M  V30 3702 H 380.464 1.6635 0.948671 0
M  V30 3703 H 378.769 1.6458 3.55557 0
M  V30 3704 H 380.466 2.0255 3.46084 0
M  V30 3705 H 377.056 3.27733 2.76205 0
M  V30 3706 H 381.24 4.24069 2.57835 0
M  V30 3707 H 376.496 5.63781 2.3656 0
M  V30 3708 H 380.67 6.60985 2.19251 0
M  V30 3709 H 378.297 7.31162 2.081 0
M  V30 3710 N 379.872 -1.04064 1.18357 0
M  V30 3711 C 381.288 -1.2947 0.933258 0
M  V30 3712 C 381.488 -1.97466 -0.401169 0
M  V30 3713 O 380.544 -2.25528 -1.13549 0
M  V30 3714 C 381.857 -2.15337 2.09882 0
M  V30 3715 C 383.405 -2.28683 2.13712 0
M  V30 3716 C 383.88 -3.17917 3.29686 0
M  V30 3717 N 385.371 -3.25504 3.29547 0
M  V30 3718 C 386.106 -3.94706 4.15926 0
M  V30 3719 N 385.602 -4.66239 5.12439 0
M  V30 3720 N 387.395 -3.90986 4.0384 0
M  V30 3721 H 379.546 -0.583359 2.04232 0
M  V30 3722 H 381.809 -0.319921 0.892387 0
M  V30 3723 H 381.515 -1.72682 3.06389 0
M  V30 3724 H 381.389 -3.16015 2.05947 0
M  V30 3725 H 383.776 -2.70575 1.17784 0
M  V30 3726 H 383.857 -1.27596 2.21705 0
M  V30 3727 H 383.501 -2.76736 4.25887 0
M  V30 3728 H 383.431 -4.19036 3.1893 0
M  V30 3729 H 385.922 -2.74547 2.59677 0
M  V30 3730 H 386.235 -5.16638 5.74722 0
M  V30 3731 H 384.58 -4.65143 5.16398 0
M  V30 3732 H 387.771 -3.34234 3.27727 0
M  V30 3733 H 387.944 -4.44646 4.71375 0
M  V30 3734 N 381.35 -0.985608 -1.22978 0
M  V30 3735 C 382.26 -0.538548 -2.28335 0
M  V30 3736 C 383.276 0.409163 -1.69121 0
M  V30 3737 O 384.452 0.277797 -1.99475 0
M  V30 3738 C 381.517 0.146867 -3.46389 0
M  V30 3739 C 380.578 -0.842896 -4.20944 0
M  V30 3740 C 379.811 -0.190095 -5.33361 0
M  V30 3741 O 380.034 1.01767 -5.61248 0
M  V30 3742 O 378.968 -0.891289 -5.95264 0
M  V30 3743 H 382.794 -1.41487 -2.68729 0
M  V30 3744 H 380.379 -0.753495 -1.29007 0
M  V30 3745 H 382.261 0.531125 -4.1804 0
M  V30 3746 H 380.936 0.997871 -3.07935 0
M  V30 3747 H 379.843 -1.27795 -3.51595 0
M  V30 3748 H 381.176 -1.66287 -4.6326 0
M  V30 3749 N 382.828 1.3818 -0.7579 0
M  V30 3750 C 383.775 2.30416 -0.133057 0
M  V30 3751 C 384.745 1.50398 0.704957 0
M  V30 3752 O 385.93 1.79014 0.660192 0
M  V30 3753 C 383.07 3.36834 0.750813 0
M  V30 3754 C 382.183 4.31879 -0.102297 0
M  V30 3755 C 381.318 5.25368 0.784979 0
M  V30 3756 C 380.357 6.12058 -0.0715046 0
M  V30 3757 N 379.494 6.97832 0.772972 0
M  V30 3758 H 384.334 2.83274 -0.925186 0
M  V30 3759 H 381.871 1.39461 -0.467866 0
M  V30 3760 H 383.829 3.97145 1.27794 0
M  V30 3761 H 382.459 2.85374 1.50868 0
M  V30 3762 H 381.511 3.72991 -0.747095 0
M  V30 3763 H 382.823 4.92921 -0.763552 0
M  V30 3764 H 381.977 5.90818 1.37911 0
M  V30 3765 H 380.716 4.64703 1.47996 0
M  V30 3766 H 379.721 5.456 -0.678272 0
M  V30 3767 H 380.946 6.74793 -0.763606 0
M  V30 3768 H 378.892 6.3971 1.45282 0
M  V30 3769 H 378.809 7.55812 0.168709 0
M  V30 3770 H 380.077 7.67687 1.35194 0
M  V30 3771 N 384.306 0.507319 1.49211 0
M  V30 3772 C 385.583 -0.0982702 1.95353 0
M  V30 3773 C 385.963 -1.53516 1.449 0
M  V30 3774 O 385.311 -2.18594 0.66551 0
M  V30 3775 C 385.521 -0.00440283 3.49 0
M  V30 3776 C 386.869 -0.175147 4.24239 0
M  V30 3777 O 387.893 -0.0792891 3.56112 0
M  V30 3778 O 386.752 -0.37276 5.45227 0
M  V30 3779 H 383.846 -0.0918236 0.821887 0
M  V30 3780 H 386.392 0.570307 1.5983 0
M  V30 3781 H 385.164 0.997402 3.78375 0
M  V30 3782 H 384.787 -0.712845 3.91158 0
M  V30 3783 N 385.784 -1.5574 0.241426 0
M  V30 3784 C 387.012 -2.03208 -0.389134 0
M  V30 3785 C 387.427 -1.12082 -1.51931 0
M  V30 3786 O 386.784 -0.134183 -1.82006 0
M  V30 3787 C 386.835 -3.50064 -0.902087 0
M  V30 3788 O 386.556 -4.37717 0.18305 0
M  V30 3789 C 388.057 -4.13268 -1.60389 0
M  V30 3790 H 385.277 -0.664509 -0.0931053 0
M  V30 3791 H 387.821 -2.0124 0.36369 0
M  V30 3792 H 385.976 -3.52583 -1.60511 0
M  V30 3793 H 386.39 -5.24097 -0.205579 0
M  V30 3794 H 387.864 -5.17733 -1.91458 0
M  V30 3795 H 388.341 -3.59434 -2.52397 0
M  V30 3796 H 388.947 -4.14655 -0.945576 0
M  V30 3797 N 387.262 0.0317525 -1.57568 0
M  V30 3798 C 388.225 1.01783 -2.0536 0
M  V30 3799 C 389.225 1.29203 -0.957253 0
M  V30 3800 O 390.415 1.24251 -1.22095 0
M  V30 3801 C 387.547 2.35137 -2.46827 0
M  V30 3802 H 388.74 0.605062 -2.93733 0
M  V30 3803 H 386.293 0.278514 -1.53799 0
M  V30 3804 H 387.028 2.81168 -1.61602 0
M  V30 3805 H 386.813 2.16566 -3.26866 0
M  V30 3806 H 388.303 3.05938 -2.84239 0
M  V30 3807 N 388.74 1.54641 0.303973 0
M  V30 3808 C 389.986 1.74038 1.04109 0
M  V30 3809 C 390.319 0.523051 1.87024 0
M  V30 3810 O 389.594 -0.479874 1.88487 0
M  V30 3811 C 389.877 3.02761 1.94955 0
M  V30 3812 C 389.73 4.34787 1.1524 0
M  V30 3813 C 391.049 3.27336 2.94175 0
M  V30 3814 H 388.168 0.63323 0.377079 0
M  V30 3815 H 390.81 1.87354 0.316001 0
M  V30 3816 H 388.96 2.9154 2.56782 0
M  V30 3817 H 390.632 4.57922 0.557236 0
M  V30 3818 H 388.875 4.31407 0.455053 0
M  V30 3819 H 389.546 5.21116 1.8205 0
M  V30 3820 H 392.022 3.38148 2.42477 0
M  V30 3821 H 390.898 4.18726 3.54908 0
M  V30 3822 H 391.159 2.45491 3.67677 0
M  V30 3823 N 390.218 -0.567019 1.47046 0
M  V30 3824 C 391.15 -1.68985 1.54844 0
M  V30 3825 C 392.163 -1.56869 0.435431 0
M  V30 3826 O 393.352 -1.64006 0.70457 0
M  V30 3827 C 390.452 -3.07373 1.42742 0
M  V30 3828 C 389.625 -3.45339 2.6844 0
M  V30 3829 C 388.684 -4.62849 2.50314 0
M  V30 3830 O 387.71 -4.67922 3.24095 0
M  V30 3831 N 388.912 -5.58726 1.57499 0
M  V30 3832 H 391.677 -1.62745 2.51663 0
M  V30 3833 H 389.238 -0.753411 1.43302 0
M  V30 3834 H 391.23 -3.83803 1.28365 0
M  V30 3835 H 389.8 -3.07893 0.540445 0
M  V30 3836 H 389.02 -2.58455 2.97648 0
M  V30 3837 H 390.308 -3.67476 3.51907 0
M  V30 3838 H 389.706 -5.57376 0.966876 0
M  V30 3839 H 388.263 -6.34523 1.49078 0
M  V30 3840 N 391.696 -1.35014 -0.812953 0
M  V30 3841 C 392.944 -1.27678 -1.56661 0
M  V30 3842 C 393.265 0.150359 -1.94419 0
M  V30 3843 O 392.535 1.08532 -1.63088 0
M  V30 3844 H 391.115 -0.469602 -0.580933 0
M  V30 3845 H 393.777 -1.69043 -0.970076 0
M  V30 3846 H 392.873 -1.88833 -2.48492 0
M  V30 3847 N 393.175 1.03435 -1.18907 0
M  V30 3848 C 394.123 2.13703 -0.918353 0
M  V30 3849 C 395.117 1.68947 0.123767 0
M  V30 3850 O 396.323 1.79983 -0.0249701 0
M  V30 3851 H 392.698 0.698112 -0.279542 0
M  V30 3852 H 394.669 2.33731 -1.85506 0
M  V30 3853 C 393.418 3.44542 -0.467532 0
M  V30 3854 H 392.741 3.79394 -1.26095 0
M  V30 3855 H 394.181 4.22812 -0.317164 0
M  V30 3856 C 392.64 3.26829 0.817588 0
M  V30 3857 O 393.17 3.54975 1.88031 0
M  V30 3858 N 391.376 2.80139 0.772677 0
M  V30 3859 H 390.923 2.57434 -0.0923883 0
M  V30 3860 H 390.881 2.68668 1.63294 0
M  V30 3861 N 394.653 0.992116 1.22453 0
M  V30 3862 C 395.902 0.662992 1.90492 0
M  V30 3863 C 396.215 -0.808407 1.78113 0
M  V30 3864 O 397.421 -1.24908 2.41061 0
M  V30 3865 C 395.877 1.1353 3.41524 0
M  V30 3866 C 395.485 2.63187 3.62542 0
M  V30 3867 C 397.229 0.880465 4.15269 0
M  V30 3868 C 395.136 3.04024 5.0727 0
M  V30 3869 H 394.066 0.244278 0.713333 0
M  V30 3870 H 396.717 1.20157 1.38688 0
M  V30 3871 H 395.099 0.52485 3.92506 0
M  V30 3872 H 396.273 3.2957 3.22056 0
M  V30 3873 H 394.588 2.86543 3.02129 0
M  V30 3874 H 397.185 1.16128 5.21937 0
M  V30 3875 H 397.528 -0.183408 4.15896 0
M  V30 3876 H 398.061 1.45307 3.70312 0
M  V30 3877 H 394.8 4.09584 5.11782 0
M  V30 3878 H 394.32 2.42343 5.48662 0
M  V30 3879 H 395.999 2.95282 5.75689 0
M  V30 3880 N 396.131 -1.37776 0.765217 0
M  V30 3881 C 397.547 -1.53297 0.444108 0
M  V30 3882 C 397.747 -1.72515 -1.04119 0
M  V30 3883 O 396.803 -1.74278 -1.82711 0
M  V30 3884 C 398.116 -2.73328 1.25349 0
M  V30 3885 C 399.664 -2.87185 1.24473 0
M  V30 3886 C 400.139 -4.10191 2.03733 0
M  V30 3887 N 401.63 -4.17291 2.01053 0
M  V30 3888 C 402.365 -5.11488 2.59166 0
M  V30 3889 N 401.861 -6.11285 3.26041 0
M  V30 3890 N 403.654 -5.03924 2.49032 0
M  V30 3891 H 395.805 -1.23552 1.72768 0
M  V30 3892 H 398.068 -0.601103 0.733062 0
M  V30 3893 H 397.774 -2.6557 2.30577 0
M  V30 3894 H 397.648 -3.66834 0.87823 0
M  V30 3895 H 400.035 -2.94418 0.20047 0
M  V30 3896 H 400.116 -1.94657 1.65959 0
M  V30 3897 H 399.76 -4.0372 3.08176 0
M  V30 3898 H 399.69 -5.01821 1.59633 0
M  V30 3899 H 402.181 -3.45825 1.5236 0
M  V30 3900 H 402.494 -6.79678 3.67774 0
M  V30 3901 H 400.839 -6.11583 3.30138 0
M  V30 3902 H 404.03 -4.24902 1.96407 0
M  V30 3903 H 404.203 -5.77152 2.94617 0
M  V30 3904 N 397.609 -0.515225 -1.4894 0
M  V30 3905 C 398.539 0.244628 -2.32215 0
M  V30 3906 C 399.52 0.949136 -1.41157 0
M  V30 3907 O 400.705 0.937783 -1.70057 0
M  V30 3908 C 397.835 1.30096 -3.22013 0
M  V30 3909 C 396.789 0.715486 -4.21977 0
M  V30 3910 C 396.115 1.87339 -5.00808 0
M  V30 3911 C 397.415 -0.302982 -5.2142 0
M  V30 3912 H 399.109 -0.450501 -2.95991 0
M  V30 3913 H 396.655 -0.218098 -1.42339 0
M  V30 3914 H 398.608 1.84037 -3.79089 0
M  V30 3915 H 397.332 2.02547 -2.56207 0
M  V30 3916 H 395.991 0.197715 -3.66066 0
M  V30 3917 H 395.639 2.58592 -4.31438 0
M  V30 3918 H 395.339 1.48764 -5.68457 0
M  V30 3919 H 396.863 2.41686 -5.60732 0
M  V30 3920 H 398.277 0.148802 -5.73107 0
M  V30 3921 H 396.674 -0.60532 -5.97039 0
M  V30 3922 H 397.744 -1.21395 -4.69459 0
M  V30 3923 N 399.087 1.5561 -0.249682 0
M  V30 3924 C 400.312 2.03865 0.381305 0
M  V30 3925 C 400.737 1.12769 1.50548 0
M  V30 3926 O 400.095 0.121189 1.80895 0
M  V30 3927 C 400.143 3.50101 0.863816 0
M  V30 3928 O 399.247 3.62132 1.97318 0
M  V30 3929 H 398.588 0.658827 0.0827194 0
M  V30 3930 H 401.118 2.01105 -0.376552 0
M  V30 3931 H 401.128 3.90975 1.1663 0
M  V30 3932 H 399.803 4.1588 0.0411816 0
M  V30 3933 H 398.38 3.33155 1.67517 0
M  V30 3934 N 400.565 -0.0233959 1.57583 0
M  V30 3935 C 401.812 -0.713063 1.8953 0
M  V30 3936 C 402.14 -1.75056 0.847673 0
M  V30 3937 O 401.395 -1.95119 -0.150636 0
M  V30 3938 C 401.694 -1.41428 3.28227 0
M  V30 3939 C 401.36 -0.512222 4.47981 0
M  V30 3940 C 400.022 -0.263785 4.80476 0
M  V30 3941 C 402.374 0.110248 5.21083 0
M  V30 3942 C 399.702 0.615804 5.83459 0
M  V30 3943 C 402.054 0.977573 6.25001 0
M  V30 3944 C 400.718 1.23542 6.55968 0
M  V30 3945 H 399.988 -0.260928 0.69354 0
M  V30 3946 H 402.635 0.0271047 1.91481 0
M  V30 3947 H 400.94 -2.22791 3.22291 0
M  V30 3948 H 402.637 -1.95355 3.50196 0
M  V30 3949 H 399.227 -0.716013 4.22577 0
M  V30 3950 H 403.411 -0.0687137 4.96252 0
M  V30 3951 H 398.667 0.82382 6.05824 0
M  V30 3952 H 402.841 1.46638 6.80786 0
M  V30 3953 H 400.468 1.91871 7.35588 0
M  V30 3954 N 402.043 -1.548 -0.295768 0
M  V30 3955 C 402.953 -1.89177 -1.38742 0
M  V30 3956 C 403.969 -0.786481 -1.55211 0
M  V30 3957 O 405.145 -1.08344 -1.69775 0
M  V30 3958 C 402.21 -2.13663 -2.73036 0
M  V30 3959 C 401.271 -3.37349 -2.65508 0
M  V30 3960 C 400.504 -3.60658 -3.93398 0
M  V30 3961 O 400.727 -2.86882 -4.93006 0
M  V30 3962 O 399.661 -4.54179 -3.94975 0
M  V30 3963 H 403.487 -2.82059 -1.12589 0
M  V30 3964 H 401.072 -1.41056 -0.492295 0
M  V30 3965 H 402.954 -2.3094 -3.52484 0
M  V30 3966 H 401.629 -1.23967 -2.99022 0
M  V30 3967 H 400.536 -3.25431 -1.84514 0
M  V30 3968 H 401.869 -4.27192 -2.44474 0
M  V30 3969 N 403.521 0.559213 -1.47345 0
M  V30 3970 C 404.798 1.31997 -1.44348 0
M  V30 3971 C 405.178 2.1064 -0.139358 0
M  V30 3972 O 404.526 2.1091 0.879153 0
M  V30 3973 C 404.736 2.22618 -2.68779 0
M  V30 3974 C 406.084 2.83701 -3.1591 0
M  V30 3975 O 407.108 2.32921 -2.69493 0
M  V30 3976 O 405.967 3.75993 -3.966 0
M  V30 3977 H 403.061 0.594251 -0.575147 0
M  V30 3978 H 405.607 0.578282 -1.59543 0
M  V30 3979 H 404.379 1.64093 -3.55231 0
M  V30 3980 H 404.002 3.04085 -2.5616 0
M  V30 3981 N 404.999 1.35443 0.805782 0
M  V30 3982 C 406.246 1.28761 1.56291 0
M  V30 3983 C 406.574 -0.137747 1.94012 0
M  V30 3984 O 405.829 -1.1032 1.61642 0
M  V30 3985 C 406.128 2.14045 2.86216 0
M  V30 3986 C 405.794 3.62826 2.67709 0
M  V30 3987 C 404.456 4.0338 2.6237 0
M  V30 3988 C 406.808 4.57227 2.50186 0
M  V30 3989 C 404.136 5.36501 2.37451 0
M  V30 3990 C 406.488 5.90547 2.26797 0
M  V30 3991 C 405.152 6.30245 2.1988 0
M  V30 3992 H 404.422 0.471171 0.571908 0
M  V30 3993 H 407.069 1.67347 0.930974 0
M  V30 3994 H 405.374 1.68342 3.53791 0
M  V30 3995 H 407.071 2.0621 3.43917 0
M  V30 3996 H 403.661 3.30644 2.72713 0
M  V30 3997 H 407.845 4.2678 2.53323 0
M  V30 3998 H 403.101 5.66259 2.30567 0
M  V30 3999 H 407.275 6.63274 2.12228 0
M  V30 4000 H 404.902 7.33328 2.00333 0
M  V30 4001 N 406.477 -1.02803 1.19454 0
M  V30 4002 C 407.723 -1.76478 0.999171 0
M  V30 4003 C 408.056 -1.88456 -0.468828 0
M  V30 4004 O 407.331 -1.40198 -1.34814 0
M  V30 4005 C 407.614 -3.19044 1.66981 0
M  V30 4006 C 407.467 -3.14932 3.21151 0
M  V30 4007 C 408.786 -4.17456 1.39349 0
M  V30 4008 H 405.905 -0.640614 0.364393 0
M  V30 4009 H 408.547 -1.20005 1.47305 0
M  V30 4010 H 406.697 -3.67263 1.2669 0
M  V30 4011 H 408.369 -2.74605 3.70661 0
M  V30 4012 H 406.612 -2.52625 3.52652 0
M  V30 4013 H 407.283 -4.1566 3.63223 0
M  V30 4014 H 409.759 -3.77842 1.74283 0
M  V30 4015 H 408.635 -5.154 1.88823 0
M  V30 4016 H 408.896 -4.40949 0.318813 0
M  V30 4017 N 407.956 -0.998596 -1.21925 0
M  V30 4018 C 409.184 -0.696286 -1.94832 0
M  V30 4019 C 409.599 0.740032 -1.73692 0
M  V30 4020 O 408.956 1.5 -1.03953 0
M  V30 4021 C 409.007 -0.999833 -3.47398 0
M  V30 4022 O 408.728 -2.37972 -3.67833 0
M  V30 4023 C 410.229 -0.716025 -4.37479 0
M  V30 4024 H 407.449 -0.257111 -0.619786 0
M  V30 4025 H 409.993 -1.33491 -1.54921 0
M  V30 4026 H 408.148 -0.406918 -3.85257 0
M  V30 4027 H 408.562 -2.48338 -4.61983 0
M  V30 4028 H 410.036 -0.978642 -5.43256 0
M  V30 4029 H 410.513 0.349968 -4.37803 0
M  V30 4030 H 411.119 -1.29025 -4.05256 0
M  V30 4031 N 409.434 1.37368 -0.772513 0
M  V30 4032 C 410.367 2.27956 -0.105593 0
M  V30 4033 C 411.345 1.46362 0.708295 0
M  V30 4034 O 412.529 1.75695 0.682895 0
M  V30 4035 C 409.656 3.27687 0.856686 0
M  V30 4036 C 408.702 4.26312 0.1267 0
M  V30 4037 S 409.535 5.22206 -1.1858 0
M  V30 4038 C 410.691 6.25488 -0.227081 0
M  V30 4039 H 410.924 2.84171 -0.87372 0
M  V30 4040 H 408.457 1.43654 -0.565939 0
M  V30 4041 H 410.415 3.85653 1.40648 0
M  V30 4042 H 409.076 2.70417 1.59793 0
M  V30 4043 H 408.269 4.96674 0.856212 0
M  V30 4044 H 407.871 3.72339 -0.352117 0
M  V30 4045 H 410.163 6.74836 0.600231 0
M  V30 4046 H 411.106 7.02371 -0.898899 0
M  V30 4047 H 411.514 5.64267 0.162053 0
M  V30 4048 N 410.912 0.523116 1.48665 0
M  V30 4049 C 412.14 -0.0096312 2.06898 0
M  V30 4050 C 412.555 -1.28784 1.38059 0
M  V30 4051 O 411.912 -1.76453 0.465893 0
M  V30 4052 C 411.963 -0.244386 3.60673 0
M  V30 4053 O 411.684 0.983172 4.26925 0
M  V30 4054 C 413.185 -0.818289 4.35682 0
M  V30 4055 H 410.405 0.0304161 0.67031 0
M  V30 4056 H 412.949 0.726799 1.91149 0
M  V30 4057 H 411.104 -0.930847 3.76051 0
M  V30 4058 H 411.518 0.759653 5.1897 0
M  V30 4059 H 412.992 -0.93201 5.44075 0
M  V30 4060 H 413.469 -1.82153 3.99646 0
M  V30 4061 H 414.075 -0.168609 4.24966 0
M  V30 4062 N 412.39 -1.55475 0.257931 0
M  V30 4063 C 413.353 -2.20551 -0.623706 0
M  V30 4064 C 414.353 -1.17809 -1.09443 0
M  V30 4065 O 415.543 -1.42823 -0.997362 0
M  V30 4066 C 412.675 -2.85784 -1.8585 0
M  V30 4067 H 413.868 -2.99848 -0.0557743 0
M  V30 4068 H 411.421 -1.56298 0.0084422 0
M  V30 4069 H 412.156 -2.10453 -2.46739 0
M  V30 4070 H 411.941 -3.61057 -1.52907 0
M  V30 4071 H 413.431 -3.35553 -2.48584 0
M  V30 4072 N 413.868 0.0150385 -1.57593 0
M  V30 4073 C 415.093 0.718067 -1.94573 0
M  V30 4074 C 415.518 1.6734 -0.859005 0
M  V30 4075 O 414.876 1.80362 0.184147 0
M  V30 4076 C 414.924 1.43918 -3.30636 0
M  V30 4077 O 414.028 2.55299 -3.23876 0
M  V30 4078 H 413.369 0.192125 -0.635597 0
M  V30 4079 H 415.899 -0.0336708 -2.04572 0
M  V30 4080 H 415.909 1.80598 -3.65853 0
M  V30 4081 H 414.584 0.738619 -4.09289 0
M  V30 4082 H 413.161 2.21058 -3.00312 0
M  V30 4083 N 415.346 1.54954 0.287554 0
M  V30 4084 C 416.762 1.46469 0.633964 0
M  V30 4085 C 416.962 0.666865 1.90145 0
M  V30 4086 O 416.018 0.179906 2.51858 0
M  V30 4087 C 417.331 2.90556 0.774454 0
M  V30 4088 C 418.879 3.00681 0.869462 0
M  V30 4089 C 419.354 4.45993 1.04184 0
M  V30 4090 N 420.845 4.4976 1.10772 0
M  V30 4091 C 421.58 5.59393 1.25964 0
M  V30 4092 N 421.076 6.78923 1.37968 0
M  V30 4093 N 422.869 5.47107 1.28959 0
M  V30 4094 H 415.02 2.05288 -0.545041 0
M  V30 4095 H 417.283 0.930305 -0.182308 0
M  V30 4096 H 416.989 3.51594 -0.086207 0
M  V30 4097 H 416.863 3.38743 1.6593 0
M  V30 4098 H 419.25 2.39749 1.7206 0
M  V30 4099 H 419.331 2.55769 -0.0396831 0
M  V30 4100 H 418.975 5.07524 0.195422 0
M  V30 4101 H 418.905 4.88548 1.96542 0
M  V30 4102 H 421.396 3.63651 1.02794 0
M  V30 4103 H 421.709 7.58231 1.49353 0
M  V30 4104 H 420.054 6.81763 1.34999 0
M  V30 4105 H 423.245 4.52668 1.19202 0
M  V30 4106 H 423.418 6.32595 1.40455 0
M  V30 4107 N 416.824 -0.551391 1.4764 0
M  V30 4108 C 417.757 -1.6738 1.5511 0
M  V30 4109 C 418.735 -1.5753 0.402856 0
M  V30 4110 O 419.919 -1.78307 0.611475 0
M  V30 4111 C 417.046 -3.05661 1.45908 0
M  V30 4112 C 416.092 -3.33938 2.65307 0
M  V30 4113 S 416.925 -3.22553 4.27457 0
M  V30 4114 C 418.081 -4.63317 4.20818 0
M  V30 4115 H 418.314 -1.6079 2.50068 0
M  V30 4116 H 415.847 -0.732674 1.35909 0
M  V30 4117 H 417.805 -3.8542 1.41286 0
M  V30 4118 H 416.466 -3.09711 0.523248 0
M  V30 4119 H 415.659 -4.34761 2.54948 0
M  V30 4120 H 415.261 -2.61809 2.67081 0
M  V30 4121 H 417.553 -5.54391 3.89431 0
M  V30 4122 H 418.496 -4.78732 5.21748 0
M  V30 4123 H 418.904 -4.41636 3.51593 0
M  V30 4124 N 418.302 -1.35869 -0.798587 0
M  V30 4125 C 419.232 -1.32118 -1.92528 0
M  V30 4126 C 420.213 -0.194209 -1.68988 0
M  V30 4127 O 421.398 -0.390426 -1.90235 0
M  V30 4128 C 418.528 -1.10047 -3.29404 0
M  V30 4129 C 417.482 -2.19471 -3.67446 0
M  V30 4130 C 416.808 -1.82555 -5.02571 0
M  V30 4131 C 418.108 -3.61495 -3.76987 0
M  V30 4132 H 419.802 -2.26394 -1.95924 0
M  V30 4133 H 417.348 -1.08981 -0.94123 0
M  V30 4134 H 419.301 -1.06061 -4.07835 0
M  V30 4135 H 418.025 -0.122195 -3.26371 0
M  V30 4136 H 416.684 -2.22568 -2.91306 0
M  V30 4137 H 416.332 -0.833249 -4.9605 0
M  V30 4138 H 416.032 -2.5581 -5.28995 0
M  V30 4139 H 417.556 -1.80108 -5.83432 0
M  V30 4140 H 418.97 -3.60676 -4.4563 0
M  V30 4141 H 417.367 -4.33577 -4.14887 0
M  V30 4142 H 418.437 -3.97065 -2.78329 0
M  V30 4143 O 419.819 0.937816 -1.31481 0
M  V30 4144 H 420.51 1.56832 -1.13682 0
M  V30 END ATOM
M  V30 BEGIN BOND
M  V30 END BOND
M  V30 END CTAB
M  END
$$$$
