drugbank_target|Q9UDR5 Alpha-aminoadipic semialdehyde synthase, mitochondrial (DB00142; DB00157; DB02338; DB04207)
 OpenBabel12092119233D

  0  0  0     0  0            999 V3000
M  V30 BEGIN CTAB
M  V30 COUNTS 14412 14560 0 0 0
M  V30 BEGIN ATOM
M  V30 1 H -0.908 1.98254 -0.117106 0
M  V30 2 N 0 1.576 0 0
M  V30 3 C 0.933 2.03868 1.02534 0
M  V30 4 C 1.911 0.928543 1.3348 0
M  V30 5 O 3.095 1.19667 1.45644 0
M  V30 6 C 0.222 2.43627 2.35294 0
M  V30 7 C -0.732 3.65373 2.2001 0
M  V30 8 S 0.101 5.13292 1.52614 0
M  V30 9 C 1.257 5.56322 2.86805 0
M  V30 10 H 1.49 2.90518 0.631377 0
M  V30 11 H -0.977 1.52953 0.210867 0
M  V30 12 H 0.981 2.67203 3.11629 0
M  V30 13 H -0.358 1.57376 2.7183 0
M  V30 14 H -1.165 3.90944 3.18086 0
M  V30 15 H -1.563 3.418 1.51819 0
M  V30 16 H 0.729 5.58782 3.83104 0
M  V30 17 H 1.672 6.56266 2.65933 0
M  V30 18 H 2.08 4.83886 2.90714 0
M  V30 19 N 1.4781 -0.272755 1.55222 0
M  V30 20 C 2.4081 -1.34136 1.91127 0
M  V30 21 C 3.3891 -1.51513 0.773168 0
M  V30 22 O 4.5741 -1.64552 1.03132 0
M  V30 23 C 1.7041 -2.70083 2.1834 0
M  V30 24 C 0.6581 -2.67437 3.34158 0
M  V30 25 C -0.0159 -4.06938 3.46851 0
M  V30 26 C 1.2841 -2.26686 4.70543 0
M  V30 27 H 2.9781 -1.04333 2.80633 0
M  V30 28 H 0.5241 -0.500454 1.35024 0
M  V30 29 H 2.4771 -3.44952 2.42046 0
M  V30 30 H 1.2011 -3.01469 1.25634 0
M  V30 31 H -0.1399 -1.95026 3.1042 0
M  V30 32 H -0.4919 -4.35547 2.51611 0
M  V30 33 H -0.7919 -4.06062 4.2472 0
M  V30 34 H 0.7321 -4.83545 3.72849 0
M  V30 35 H 2.1461 -2.91277 4.93792 0
M  V30 36 H 0.5431 -2.36971 5.5133 0
M  V30 37 H 1.6131 -1.21818 4.69349 0
M  V30 38 N 2.9562 -1.48159 -0.537278 0
M  V30 39 C 3.8882 -1.58218 -1.65831 0
M  V30 40 C 4.9012 -0.466948 -1.5596 0
M  V30 41 O 6.0902 -0.73747 -1.62553 0
M  V30 42 C 3.1902 -1.48906 -3.04434 0
M  V30 43 C 2.3632 -2.75343 -3.3986 0
M  V30 44 C 1.4222 -2.59588 -4.57712 0
M  V30 45 O 0.4482 -3.33457 -4.61297 0
M  V30 46 N 1.6502 -1.68724 -5.55439 0
M  V30 47 H 4.4152 -2.54891 -1.57641 0
M  V30 48 H 1.9762 -1.4479 -0.724386 0
M  V30 49 H 3.9682 -1.36072 -3.81139 0
M  V30 50 H 2.5382 -0.602368 -3.06741 0
M  V30 51 H 1.7582 -3.02795 -2.52406 0
M  V30 52 H 3.0462 -3.5924 -3.60311 0
M  V30 53 H 2.4442 -1.07898 -5.55315 0
M  V30 54 H 1.0012 -1.61832 -6.3139 0
M  V30 55 N 4.4343 0.785586 -1.36625 0
M  V30 56 C 5.6803 1.54591 -1.31261 0
M  V30 57 C 6.0133 1.93906 0.106823 0
M  V30 58 O 5.2883 1.63007 1.06108 0
M  V30 59 C 5.5713 2.82038 -2.23889 0
M  V30 60 C 5.4243 2.49066 -3.74548 0
M  V30 61 C 6.7433 3.83887 -2.15217 0
M  V30 62 H 3.8623 0.560846 -0.478143 0
M  V30 63 H 6.5043 0.902278 -1.67209 0
M  V30 64 H 4.6543 3.36961 -1.93363 0
M  V30 65 H 6.3263 2.00164 -4.15611 0
M  V30 66 H 4.5693 1.81954 -3.93796 0
M  V30 67 H 5.2403 3.40109 -4.34776 0
M  V30 68 H 7.7163 3.38421 -2.42096 0
M  V30 69 H 6.5923 4.70806 -2.82193 0
M  V30 70 H 6.8533 4.27131 -1.14068 0
M  V30 71 N 5.9124 1.20967 1.01018 0
M  V30 72 C 6.8624 0.93182 2.08089 0
M  V30 73 C 7.8464 -0.110898 1.60517 0
M  V30 74 O 9.0384 0.0973392 1.76732 0
M  V30 75 C 6.1674 0.492719 3.39746 0
M  V30 76 C 5.2534 1.56922 3.94 0
M  V30 77 N 5.6444 2.79312 4.21686 0
M  V30 78 C 3.9424 1.43688 4.2222 0
M  V30 79 C 4.6434 3.48797 4.65527 0
M  V30 80 N 3.6194 2.76224 4.68189 0
M  V30 81 H 7.4214 1.86175 2.27412 0
M  V30 82 H 4.9354 1.10463 1.19045 0
M  V30 83 H 6.9324 0.275044 4.15992 0
M  V30 84 H 5.5924 -0.430509 3.21833 0
M  V30 85 H 6.6034 3.15903 4.10397 0
M  V30 86 H 3.2804 0.578548 4.13472 0
M  V30 87 H 4.6704 4.53561 4.95714 0
M  V30 88 N 7.3905 -1.2043 1.01659 0
M  V30 89 C 8.8065 -1.41852 0.731442 0
M  V30 90 C 9.0065 -1.89358 -0.688898 0
M  V30 91 O 8.0625 -2.06247 -1.45666 0
M  V30 92 C 9.3755 -2.44019 1.75714 0
M  V30 93 C 10.9235 -2.57785 1.77527 0
M  V30 94 C 11.3985 -3.63194 2.79023 0
M  V30 95 N 12.8895 -3.70678 2.77763 0
M  V30 96 C 13.6245 -4.51897 3.52954 0
M  V30 97 N 13.1205 -5.36921 4.37821 0
M  V30 98 N 14.9135 -4.4643 3.41551 0
M  V30 99 H 7.0645 -0.879093 1.93354 0
M  V30 100 H 9.3275 -0.448425 0.835236 0
M  V30 101 H 9.0335 -2.1611 2.77469 0
M  V30 102 H 8.9075 -3.43007 1.56927 0
M  V30 103 H 11.2945 -2.85023 0.764569 0
M  V30 104 H 11.3755 -1.58992 2.00387 0
M  V30 105 H 11.0195 -3.36699 3.80258 0
M  V30 106 H 10.9495 -4.61609 2.53425 0
M  V30 107 H 13.4405 -3.09944 2.16201 0
M  V30 108 H 13.7535 -5.95981 4.91962 0
M  V30 109 H 12.0985 -5.36424 4.41899 0
M  V30 110 H 15.2895 -3.79042 2.74672 0
M  V30 111 H 15.4625 -5.09491 4.00404 0
M  V30 112 N 8.8686 -0.792821 -1.36206 0
M  V30 113 C 10.0966 -0.378825 -2.03402 0
M  V30 114 C 10.5116 1.00586 -1.59774 0
M  V30 115 O 9.8686 1.64574 -0.788764 0
M  V30 116 C 9.9196 -0.43683 -3.58851 0
M  V30 117 O 9.6406 -1.76691 -4.00889 0
M  V30 118 C 11.1416 -0.0138943 -4.43298 0
M  V30 119 H 8.3616 -0.155673 -0.652692 0
M  V30 120 H 10.9056 -1.07261 -1.74113 0
M  V30 121 H 9.0606 0.208575 -3.86838 0
M  V30 122 H 9.4746 -1.72011 -4.95492 0
M  V30 123 H 10.9486 -0.105615 -5.51899 0
M  V30 124 H 11.4256 1.03915 -4.2673 0
M  V30 125 H 12.0316 -0.63192 -4.20579 0
M  V30 126 N 10.3467 1.47872 -0.545128 0
M  V30 127 C 11.5947 2.02093 -0.016553 0
M  V30 128 C 11.9157 1.42305 1.3332 0
M  V30 129 O 11.1857 0.593853 1.86682 0
M  V30 130 H 9.7657 0.746993 -0.00313038 0
M  V30 131 H 12.4277 1.81414 -0.712397 0
M  V30 132 H 11.5237 3.11996 0.0805422 0
M  V30 133 N 11.8248 0.280983 1.55075 0
M  V30 134 C 12.7548 -0.597469 2.25727 0
M  V30 135 C 13.7358 -1.15417 1.24952 0
M  V30 136 O 14.9208 -1.18722 1.53684 0
M  V30 137 C 12.0508 -1.7789 2.98283 0
M  V30 138 C 11.0048 -1.35347 4.06036 0
M  V30 139 C 10.3308 -2.61846 4.66198 0
M  V30 140 C 11.6308 -0.499354 5.19907 0
M  V30 141 H 13.3248 -0.00824265 2.99399 0
M  V30 142 H 10.8708 -0.0025244 1.44 0
M  V30 143 H 12.8238 -2.39937 3.46422 0
M  V30 144 H 11.5478 -2.39405 2.22155 0
M  V30 145 H 10.2068 -0.756156 3.58717 0
M  V30 146 H 9.8548 -3.21632 3.86732 0
M  V30 147 H 9.5548 -2.3409 5.38958 0
M  V30 148 H 11.0788 -3.24732 5.1709 0
M  V30 149 H 12.4928 -1.02498 5.64063 0
M  V30 150 H 10.8898 -0.316424 5.99265 0
M  V30 151 H 11.9598 0.480459 4.82514 0
M  V30 152 N 13.3029 -1.57598 0.00835791 0
M  V30 153 C 14.5509 -1.90551 -0.6734 0
M  V30 154 C 14.8719 -0.883301 -1.73847 0
M  V30 155 O 14.1419 0.0781442 -1.95744 0
M  V30 156 H 12.7219 -0.703312 -0.251717 0
M  V30 157 H 15.3839 -1.94833 0.0512592 0
M  V30 158 H 14.4799 -2.9056 -1.13935 0
M  V30 159 N 14.781 0.264519 -1.55364 0
M  V30 160 C 16.197 0.61215 -1.47394 0
M  V30 161 C 16.397 1.89134 -0.695018 0
M  V30 162 O 15.453 2.51563 -0.217275 0
M  V30 163 C 16.766 0.731235 -2.91674 0
M  V30 164 C 18.314 0.82473 -3.01939 0
M  V30 165 C 18.789 0.975522 -4.4749 0
M  V30 166 N 20.28 1.04083 -4.51354 0
M  V30 167 C 21.015 1.17646 -5.61201 0
M  V30 168 N 20.511 1.27874 -6.80896 0
M  V30 169 N 22.304 1.20823 -5.48961 0
M  V30 170 H 14.455 -0.575456 -2.04456 0
M  V30 171 H 16.718 -0.196099 -0.927496 0
M  V30 172 H 16.424 -0.138392 -3.51428 0
M  V30 173 H 16.298 1.60883 -3.41169 0
M  V30 174 H 18.685 1.68482 -2.42276 0
M  V30 175 H 18.766 -0.0776479 -2.55682 0
M  V30 176 H 18.41 0.120058 -5.07758 0
M  V30 177 H 18.34 1.89268 -4.91412 0
M  V30 178 H 20.831 0.973846 -3.65136 0
M  V30 179 H 21.144 1.38081 -7.60364 0
M  V30 180 H 19.489 1.24863 -6.83692 0
M  V30 181 H 22.68 1.12469 -4.54388 0
M  V30 182 H 22.853 1.31049 -6.3461 0
M  V30 183 N 16.2591 1.48442 0.529413 0
M  V30 184 C 17.1891 1.65902 1.64313 0
M  V30 185 C 18.1701 0.507897 1.6234 0
M  V30 186 O 19.3551 0.740503 1.79528 0
M  V30 187 C 16.4851 1.69911 3.02898 0
M  V30 188 C 15.4391 2.8453 3.19729 0
M  V30 189 C 14.7651 2.73629 4.59381 0
M  V30 190 C 16.0651 4.25821 3.02447 0
M  V30 191 H 17.7591 2.5914 1.49955 0
M  V30 192 H 15.3051 1.24709 0.719982 0
M  V30 193 H 17.2581 1.80715 3.80684 0
M  V30 194 H 15.9821 0.732524 3.18279 0
M  V30 195 H 14.6411 2.73283 2.44361 0
M  V30 196 H 14.2891 1.74938 4.71599 0
M  V30 197 H 13.9891 3.50541 4.71588 0
M  V30 198 H 15.5131 2.86401 5.39265 0
M  V30 199 H 16.9271 4.37898 3.70024 0
M  V30 200 H 15.3241 5.03735 3.26146 0
M  V30 201 H 16.3941 4.42244 1.98867 0
M  V30 202 N 17.7372 -0.778329 1.37039 0
M  V30 203 C 18.9852 -1.53361 1.31623 0
M  V30 204 C 19.3062 -1.94739 -0.100831 0
M  V30 205 O 18.5762 -1.65797 -1.04347 0
M  V30 206 H 17.1562 -0.568794 0.484234 0
M  V30 207 H 19.8182 -0.926742 1.71457 0
M  V30 208 H 18.9142 -2.43606 1.95096 0
M  V30 209 N 19.2153 -1.21501 -1.00376 0
M  V30 210 C 20.4613 -1.03452 -1.74429 0
M  V30 211 C 20.7943 0.430764 -1.89362 0
M  V30 212 O 20.0693 1.31962 -1.42886 0
M  V30 213 C 20.3523 -1.73375 -3.15615 0
M  V30 214 C 20.2053 -3.27431 -3.08397 0
M  V30 215 C 21.5243 -1.47732 -4.14564 0
M  V30 216 H 18.6433 -0.377226 -0.633143 0
M  V30 217 H 21.2853 -1.49693 -1.17013 0
M  V30 218 H 19.4353 -1.34064 -3.64636 0
M  V30 219 H 21.1073 -3.76119 -2.67081 0
M  V30 220 H 19.3503 -3.5767 -2.45468 0
M  V30 221 H 20.0213 -3.71524 -4.08258 0
M  V30 222 H 22.4973 -1.8186 -3.74254 0
M  V30 223 H 21.3733 -1.99169 -5.11491 0
M  V30 224 H 21.6343 -0.407589 -4.40217 0
M  V30 225 N 20.6934 1.19889 -1.02296 0
M  V30 226 C 21.9184 1.9393 -0.735237 0
M  V30 227 C 22.3434 1.74639 0.698782 0
M  V30 228 O 21.7014 1.04481 1.48167 0
M  V30 229 C 21.7494 3.43916 -1.08417 0
M  V30 230 O 20.8534 4.11917 -0.199446 0
M  V30 231 H 20.1944 0.605645 -0.272196 0
M  V30 232 H 22.7244 1.52137 -1.36804 0
M  V30 233 H 22.7344 3.9456 -1.03856 0
M  V30 234 H 21.4094 3.5728 -2.12894 0
M  V30 235 H 19.9864 3.71666 -0.303136 0
M  V30 236 N 22.1715 0.800033 1.35784 0
M  V30 237 C 23.1015 0.220184 2.3246 0
M  V30 238 C 24.0825 -0.65073 1.57161 0
M  V30 239 O 25.2675 -0.582359 1.85263 0
M  V30 240 C 22.3975 -0.637353 3.41402 0
M  V30 241 C 21.3515 0.134531 4.27789 0
M  V30 242 C 20.6775 -0.844285 5.27992 0
M  V30 243 C 21.9775 1.32979 5.05088 0
M  V30 244 H 23.6715 1.02787 2.81203 0
M  V30 245 H 21.2175 0.495717 1.35199 0
M  V30 246 H 23.1705 -1.05302 4.08031 0
M  V30 247 H 21.8945 -1.47785 2.91251 0
M  V30 248 H 20.5535 0.531296 3.6273 0
M  V30 249 H 20.2015 -1.68011 4.74111 0
M  V30 250 H 19.9015 -0.332184 5.8666 0
M  V30 251 H 21.4255 -1.2583 5.97494 0
M  V30 252 H 22.8395 0.98934 5.64699 0
M  V30 253 H 21.2365 1.77593 5.7322 0
M  V30 254 H 22.3065 2.11978 4.36111 0
M  V30 255 N 23.6496 -1.47581 0.552962 0
M  V30 256 C 24.8746 -2.07378 0.0300593 0
M  V30 257 C 25.2996 -1.40355 -1.25229 0
M  V30 258 O 24.6576 -0.477099 -1.7491 0
M  V30 259 C 24.7056 -3.60274 -0.153231 0
M  V30 260 O 23.8096 -3.94041 -1.21678 0
M  V30 261 H 23.1506 -0.662158 0.0494182 0
M  V30 262 H 25.6806 -1.89662 0.767434 0
M  V30 263 H 25.6906 -4.0633 -0.368761 0
M  V30 264 H 24.3656 -4.08455 0.783397 0
M  V30 265 H 22.9426 -3.59735 -0.982079 0
M  V30 266 N 25.1277 -0.289203 -1.54924 0
M  V30 267 C 26.0747 0.592115 -2.23075 0
M  V30 268 C 27.0447 1.13881 -1.20915 0
M  V30 269 O 28.2297 1.18551 -1.495 0
M  V30 270 C 25.3697 1.76376 -2.96623 0
M  V30 271 C 24.4827 1.24959 -4.13533 0
M  V30 272 C 23.6177 2.38416 -4.74691 0
M  V30 273 C 22.6567 1.84072 -5.83767 0
M  V30 274 N 21.7937 2.91057 -6.38929 0
M  V30 275 H 26.6337 0.00432038 -2.98 0
M  V30 276 H 24.1707 -0.00963529 -1.47097 0
M  V30 277 H 26.1287 2.45268 -3.3749 0
M  V30 278 H 24.7587 2.32337 -2.24097 0
M  V30 279 H 23.8107 0.453307 -3.77689 0
M  V30 280 H 25.1227 0.811662 -4.92152 0
M  V30 281 H 24.2767 3.15276 -5.18349 0
M  V30 282 H 23.0157 2.8553 -3.95378 0
M  V30 283 H 22.0207 1.05697 -5.39545 0
M  V30 284 H 23.2457 1.37877 -6.64956 0
M  V30 285 H 21.1917 3.37526 -5.62505 0
M  V30 286 H 21.1087 2.51724 -7.12861 0
M  V30 287 H 22.3767 3.6785 -6.87246 0
M  V30 288 N 26.6058 1.57591 -0.0167156 0
M  V30 289 C 27.8538 1.90906 0.663285 0
M  V30 290 C 28.1748 0.892509 1.73376 0
M  V30 291 O 27.4448 -0.0677623 1.95783 0
M  V30 292 H 26.0248 0.704637 0.247983 0
M  V30 293 H 28.6868 1.94803 -0.0615909 0
M  V30 294 H 27.7828 2.9116 1.12393 0
M  V30 295 N 28.0839 -0.256276 1.55502 0
M  V30 296 C 29.0139 -1.32102 1.92539 0
M  V30 297 C 29.9949 -1.50684 0.789194 0
M  V30 298 O 31.1799 -1.63449 1.04872 0
M  V30 299 C 28.3099 -2.67752 2.21192 0
M  V30 300 C 27.2639 -2.63878 3.36975 0
M  V30 301 C 26.5899 -4.03236 3.51147 0
M  V30 302 C 27.8899 -2.21682 4.72921 0
M  V30 303 H 29.5839 -1.01351 2.81724 0
M  V30 304 H 27.1299 -0.486105 1.35547 0
M  V30 305 H 29.0829 -3.42365 2.45691 0
M  V30 306 H 27.8069 -3.0012 1.28824 0
M  V30 307 H 26.4659 -1.91722 3.12471 0
M  V30 308 H 26.1139 -4.32854 2.56216 0
M  V30 309 H 25.8139 -4.01535 4.29003 0
M  V30 310 H 27.3379 -4.79563 3.77957 0
M  V30 311 H 28.7519 -2.86023 4.96854 0
M  V30 312 H 27.1489 -2.3111 5.53812 0
M  V30 313 H 28.2189 -1.16833 4.70615 0
M  V30 314 N 29.562 -1.4872 -0.521534 0
M  V30 315 C 30.512 -1.60269 -1.62166 0
M  V30 316 C 31.496 -0.45935 -1.54204 0
M  V30 317 O 32.688 -0.711241 -1.62081 0
M  V30 318 C 29.817 -1.65344 -3.00859 0
M  V30 319 C 28.903 -2.85187 -3.13894 0
M  V30 320 N 29.294 -4.09509 -2.96877 0
M  V30 321 C 27.592 -2.82695 -3.44963 0
M  V30 322 C 28.293 -4.89959 -3.13552 0
M  V30 323 N 27.269 -4.22934 -3.41508 0
M  V30 324 H 31.071 -2.5413 -1.47632 0
M  V30 325 H 28.585 -1.45209 -0.727194 0
M  V30 326 H 30.582 -1.71713 -3.79895 0
M  V30 327 H 29.242 -0.726058 -3.16478 0
M  V30 328 H 30.253 -4.39814 -2.73467 0
M  V30 329 H 26.93 -1.99249 -3.66887 0
M  V30 330 H 28.32 -5.98654 -3.05061 0
M  V30 331 N 31.0401 0.771051 -1.3745 0
M  V30 332 C 31.9901 1.87456 -1.29785 0
M  V30 333 C 32.9741 1.59827 -0.185541 0
M  V30 334 O 34.1661 1.71945 -0.419997 0
M  V30 335 C 31.2951 3.24935 -1.1078 0
M  V30 336 C 30.3811 3.58514 -2.26558 0
M  V30 337 N 30.7721 3.6327 -3.5195 0
M  V30 338 C 29.0701 3.88683 -2.18727 0
M  V30 339 C 29.7711 3.93616 -4.283 0
M  V30 340 N 28.7471 4.09551 -3.57448 0
M  V30 341 H 32.5491 1.89386 -2.24745 0
M  V30 342 H 30.0631 0.967531 -1.30432 0
M  V30 343 H 32.0601 4.03881 -1.03374 0
M  V30 344 H 30.7201 3.24268 -0.16738 0
M  V30 345 H 31.7311 3.45458 -3.85848 0
M  V30 346 H 28.4081 3.95834 -1.32746 0
M  V30 347 H 29.7981 4.04066 -5.36824 0
M  V30 348 N 32.5182 1.22032 0.997298 0
M  V30 349 C 33.4652 0.986467 2.08656 0
M  V30 350 C 34.4352 -0.0902671 1.65855 0
M  V30 351 O 35.6202 0.0584294 1.90711 0
M  V30 352 C 32.7602 0.565569 3.40434 0
M  V30 353 C 31.8732 1.71259 3.96604 0
M  V30 354 C 31.0082 1.24011 5.16522 0
M  V30 355 C 30.0472 2.35896 5.64818 0
M  V30 356 N 29.1842 1.89726 6.7598 0
M  V30 357 H 34.0242 1.91892 2.27994 0
M  V30 358 H 31.5612 0.956199 1.11782 0
M  V30 359 H 33.5192 0.302738 4.161 0
M  V30 360 H 32.1492 -0.329879 3.2111 0
M  V30 361 H 31.2012 2.08986 3.17851 0
M  V30 362 H 32.5132 2.55436 4.28432 0
M  V30 363 H 31.6672 0.934395 5.99461 0
M  V30 364 H 30.4062 0.368487 4.86306 0
M  V30 365 H 29.4112 2.67261 4.8047 0
M  V30 366 H 30.6362 3.23567 5.97061 0
M  V30 367 H 28.5822 1.0492 6.47555 0
M  V30 368 H 28.4992 2.67471 7.07103 0
M  V30 369 H 29.7672 1.62211 7.62435 0
M  V30 370 N 33.9963 -1.19345 1.0293 0
M  V30 371 C 34.9593 -2.20793 0.615069 0
M  V30 372 C 35.9593 -1.57553 -0.321533 0
M  V30 373 O 37.1493 -1.73862 -0.108483 0
M  V30 374 C 34.2813 -3.40754 -0.0999222 0
M  V30 375 H 35.4743 -2.58955 1.51269 0
M  V30 376 H 33.0273 -1.3303 0.820534 0
M  V30 377 H 33.7623 -3.0811 -1.01187 0
M  V30 378 H 33.5473 -3.87889 0.57309 0
M  V30 379 H 35.0373 -4.15898 -0.376645 0
M  V30 380 N 35.4744 -0.807222 -1.35358 0
M  V30 381 C 36.7204 -0.388463 -1.99045 0
M  V30 382 C 37.0534 1.04184 -1.63888 0
M  V30 383 O 36.3284 1.72292 -0.902535 0
M  V30 384 C 36.6114 -0.572783 -3.55515 0
M  V30 385 C 36.4644 -2.04807 -4.00468 0
M  V30 386 C 37.7834 0.00114064 -4.401 0
M  V30 387 H 34.9024 -0.142619 -0.723069 0
M  V30 388 H 37.5444 -1.01687 -1.60498 0
M  V30 389 H 35.6944 -0.0378425 -3.88482 0
M  V30 390 H 37.3664 -2.64544 -3.77908 0
M  V30 391 H 35.6094 -2.54427 -3.51353 0
M  V30 392 H 36.2804 -2.12792 -5.09337 0
M  V30 393 H 38.7564 -0.455716 -4.13597 0
M  V30 394 H 37.6324 -0.157737 -5.48673 0
M  V30 395 H 37.8934 1.09488 -4.28328 0
M  V30 396 N 36.9525 1.47285 -0.560781 0
M  V30 397 C 37.8825 2.32857 0.173105 0
M  V30 398 C 38.8635 1.44009 0.905281 0
M  V30 399 O 40.0485 1.7286 0.885046 0
M  V30 400 C 37.1785 3.25861 1.20133 0
M  V30 401 C 36.1325 4.23978 0.585388 0
M  V30 402 C 35.4585 5.06332 1.7185 0
M  V30 403 C 36.7585 5.20242 -0.463178 0
M  V30 404 H 38.4525 2.94466 -0.541307 0
M  V30 405 H 35.9985 1.41601 -0.261764 0
M  V30 406 H 37.9515 3.84569 1.72293 0
M  V30 407 H 36.6755 2.62315 1.94573 0
M  V30 408 H 35.3345 3.66501 0.085054 0
M  V30 409 H 34.9825 4.39186 2.45203 0
M  V30 410 H 34.6825 5.72762 1.31213 0
M  V30 411 H 36.2065 5.67899 2.24329 0
M  V30 412 H 37.6205 5.73293 -0.027502 0
M  V30 413 H 36.0175 5.94896 -0.788627 0
M  V30 414 H 37.0875 4.65504 -1.35773 0
M  V30 415 N 38.4306 0.297415 1.54768 0
M  V30 416 C 39.3936 -0.567375 2.22066 0
M  V30 417 C 40.3936 -1.06409 1.20556 0
M  V30 418 O 41.5836 -0.960691 1.45315 0
M  V30 419 C 38.7156 -1.78517 2.90421 0
M  V30 420 H 39.9086 0.0205534 2.99893 0
M  V30 421 H 37.4616 0.0482163 1.56226 0
M  V30 422 H 38.1966 -2.41303 2.16664 0
M  V30 423 H 37.9816 -1.43669 3.64831 0
M  V30 424 H 39.4716 -2.39964 3.41771 0
M  V30 425 N 39.9087 -1.5758 0.0250728 0
M  V30 426 C 41.1547 -1.91917 -0.655413 0
M  V30 427 C 41.4877 -0.901433 -1.72011 0
M  V30 428 O 40.7627 0.0764069 -1.9435 0
M  V30 429 C 41.0457 -3.36751 -1.27558 0
M  V30 430 C 40.8987 -4.49258 -0.220719 0
M  V30 431 C 42.2177 -3.81469 -2.19475 0
M  V30 432 H 39.3367 -0.697925 -0.23679 0
M  V30 433 H 41.9787 -1.89825 0.0815036 0
M  V30 434 H 40.1287 -3.38664 -1.90365 0
M  V30 435 H 41.8007 -4.59478 0.409601 0
M  V30 436 H 40.0437 -4.31415 0.454264 0
M  V30 437 H 40.7147 -5.47618 -0.694175 0
M  V30 438 H 43.1907 -3.81266 -1.66659 0
M  V30 439 H 42.0667 -4.83512 -2.59822 0
M  V30 440 H 42.3277 -3.16744 -3.08424 0
M  V30 441 N 41.3868 0.248026 -1.55636 0
M  V30 442 C 42.8028 0.596483 -1.48035 0
M  V30 443 C 43.0028 1.88386 -0.715039 0
M  V30 444 O 42.0588 2.51319 -0.243944 0
M  V30 445 C 43.3718 0.700258 -2.92433 0
M  V30 446 C 44.9198 0.792659 -3.02797 0
M  V30 447 C 45.3948 0.928005 -4.485 0
M  V30 448 N 46.8858 0.992903 -4.52433 0
M  V30 449 C 47.6208 1.11687 -5.62418 0
M  V30 450 N 47.1168 1.20645 -6.82214 0
M  V30 451 N 48.9098 1.14994 -5.50212 0
M  V30 452 H 41.0608 -0.597109 -2.03834 0
M  V30 453 H 43.3238 -0.205925 -0.925364 0
M  V30 454 H 43.0298 -0.175658 -3.51261 0
M  V30 455 H 42.9038 1.57255 -3.42857 0
M  V30 456 H 45.2908 1.65903 -2.4405 0
M  V30 457 H 45.3718 -0.104762 -2.55585 0
M  V30 458 H 45.0158 0.0661971 -5.07857 0
M  V30 459 H 44.9458 1.84045 -4.93391 0
M  V30 460 H 47.4368 0.935064 -3.66149 0
M  V30 461 H 47.7498 1.30008 -7.61786 0
M  V30 462 H 46.0948 1.17605 -6.84977 0
M  V30 463 H 49.2858 1.07643 -4.55555 0
M  V30 464 H 49.4588 1.24311 -6.35965 0
M  V30 465 N 42.8649 1.48995 0.513639 0
M  V30 466 C 44.2809 1.35478 0.843682 0
M  V30 467 C 44.4809 0.378213 1.97919 0
M  V30 468 O 43.5369 -0.194689 2.51748 0
M  V30 469 C 44.8499 2.75901 1.1958 0
M  V30 470 C 46.3979 2.84509 1.30474 0
M  V30 471 C 46.8729 4.25671 1.69021 0
M  V30 472 N 48.3639 4.28422 1.76094 0
M  V30 473 C 49.0989 5.34601 2.07338 0
M  V30 474 N 48.5949 6.5104 2.36894 0
M  V30 475 N 50.3879 5.22007 2.08483 0
M  V30 476 H 42.5389 2.11092 -0.235328 0
M  V30 477 H 44.8019 0.947039 -0.0426669 0
M  V30 478 H 44.5079 3.49001 0.434913 0
M  V30 479 H 44.3819 3.10467 2.1422 0
M  V30 480 H 46.7689 2.11655 2.05637 0
M  V30 481 H 46.8499 2.53542 0.339155 0
M  V30 482 H 46.4939 4.99048 0.944135 0
M  V30 483 H 46.4239 4.54094 2.66658 0
M  V30 484 H 48.9149 3.44441 1.55464 0
M  V30 485 H 49.2279 7.2779 2.59887 0
M  V30 486 H 47.5729 6.54287 2.34378 0
M  V30 487 H 50.7639 4.30051 1.84861 0
M  V30 488 H 50.9369 6.04854 2.325 0
M  V30 489 N 44.343 -0.763751 1.37857 0
M  V30 490 C 45.253 -1.90817 1.36478 0
M  V30 491 C 46.269 -1.71997 0.263248 0
M  V30 492 O 47.445 -1.95095 0.499979 0
M  V30 493 C 44.51 -3.2605 1.17864 0
M  V30 494 C 43.571 -3.57467 2.3773 0
M  V30 495 C 42.804 -4.86249 2.19995 0
M  V30 496 O 43.027 -5.57884 1.18836 0
M  V30 497 O 41.961 -5.16911 3.08361 0
M  V30 498 H 45.787 -1.94933 2.32884 0
M  V30 499 H 43.372 -0.907619 1.1867 0
M  V30 500 H 45.254 -4.06924 1.09504 0
M  V30 501 H 43.929 -3.22769 0.245372 0
M  V30 502 H 42.836 -2.76796 2.51664 0
M  V30 503 H 44.169 -3.655 3.29652 0
M  V30 504 N 45.8211 -1.22559 -0.990812 0
M  V30 505 C 47.0981 -0.959875 -1.70428 0
M  V30 506 C 47.4781 0.524455 -2.04481 0
M  V30 507 O 46.8261 1.49302 -1.72977 0
M  V30 508 C 47.0361 -1.85955 -2.95333 0
M  V30 509 C 48.3841 -2.11687 -3.68068 0
M  V30 510 O 49.4081 -1.8342 -3.05345 0
M  V30 511 O 48.2671 -2.59572 -4.80921 0
M  V30 512 H 45.3611 -0.361154 -0.743974 0
M  V30 513 H 47.9071 -1.33554 -1.04697 0
M  V30 514 H 46.6791 -2.86346 -2.66687 0
M  V30 515 H 46.3021 -1.4856 -3.68803 0
M  V30 516 N 47.2992 1.18797 -1.03562 0
M  V30 517 C 48.5452 1.8893 -0.737113 0
M  V30 518 C 48.8782 1.79837 0.732956 0
M  V30 519 O 48.1532 1.19525 1.5344 0
M  V30 520 C 48.4362 3.39607 -1.19745 0
M  V30 521 C 48.2892 3.57537 -2.72924 0
M  V30 522 C 49.6082 4.33069 -0.783526 0
M  V30 523 H 46.7272 0.686057 -0.269249 0
M  V30 524 H 49.3692 1.39797 -1.28673 0
M  V30 525 H 47.5192 3.81583 -0.729855 0
M  V30 526 H 49.1912 3.24688 -3.27682 0
M  V30 527 H 47.4342 3.00363 -3.12993 0
M  V30 528 H 48.1052 4.63238 -3.00191 0
M  V30 529 H 50.5812 3.98846 -1.18581 0
M  V30 530 H 49.4572 5.3707 -1.13343 0
M  V30 531 H 49.7182 4.40986 0.313681 0
M  V30 532 N 48.7773 0.814389 1.34928 0
M  V30 533 C 49.7253 0.218424 2.31572 0
M  V30 534 C 50.7193 -0.636128 1.57002 0
M  V30 535 O 51.9253 -0.52842 1.72069 0
M  V30 536 H 48.3003 0.0518799 0.750208 0
M  V30 537 H 50.2713 1.04852 2.79372 0
M  V30 538 C 49.0203 -0.61207 3.4227 0
M  V30 539 H 48.3433 0.0361578 3.99784 0
M  V30 540 H 49.7833 -0.995317 4.12152 0
M  V30 541 C 48.2423 -1.78087 2.85984 0
M  V30 542 O 48.7723 -2.8787 2.80168 0
M  V30 543 N 46.9783 -1.59488 2.42924 0
M  V30 544 H 46.5253 -0.701874 2.47854 0
M  V30 545 H 46.4833 -2.37846 2.05613 0
M  V30 546 N 50.2554 -1.46986 0.568584 0
M  V30 547 C 51.2184 -2.28624 -0.162366 0
M  V30 548 C 52.2184 -1.37596 -0.832103 0
M  V30 549 O 53.4084 -1.60115 -0.68622 0
M  V30 550 C 50.5404 -3.17596 -1.23878 0
M  V30 551 H 51.7334 -2.94722 0.554899 0
M  V30 552 H 49.2864 -1.52863 0.325976 0
M  V30 553 H 50.0214 -2.56214 -1.98808 0
M  V30 554 H 49.8064 -3.846 -0.763219 0
M  V30 555 H 51.2964 -3.79078 -1.75185 0
M  V30 556 N 51.7335 -0.305618 -1.54608 0
M  V30 557 C 52.9795 0.295595 -2.01241 0
M  V30 558 C 53.3345 1.51171 -1.19018 0
M  V30 559 O 52.6275 1.89832 -0.259684 0
M  V30 560 C 52.8215 0.698983 -3.50498 0
M  V30 561 C 52.6505 -0.476491 -4.47168 0
M  V30 562 C 51.4205 -0.969963 -4.95903 0
M  V30 563 C 53.6185 -1.32294 -4.96994 0
M  V30 564 N 51.6005 -2.11172 -5.76437 0
M  V30 565 C 52.9715 -2.31212 -5.75275 0
M  V30 566 C 55.0265 -1.35278 -4.7917 0
M  V30 567 C 53.7295 -3.32896 -6.37631 0
M  V30 568 C 55.7555 -2.35823 -5.42348 0
M  V30 569 C 55.1175 -3.33469 -6.20466 0
M  V30 570 H 51.2165 0.0724992 -0.778632 0
M  V30 571 H 53.8005 -0.436583 -1.89742 0
M  V30 572 H 51.9715 1.40032 -3.62278 0
M  V30 573 H 53.7035 1.28013 -3.8392 0
M  V30 574 H 50.4585 -0.544178 -4.70463 0
M  V30 575 H 50.8825 -2.68714 -6.21387 0
M  V30 576 H 55.5245 -0.61157 -4.18354 0
M  V30 577 H 53.2425 -4.07933 -6.97579 0
M  V30 578 H 56.8285 -2.38911 -5.30484 0
M  V30 579 H 55.7085 -4.09996 -6.68485 0
M  V30 580 N 53.2116 1.57565 -0.0334293 0
M  V30 581 C 54.1216 2.13943 0.962572 0
M  V30 582 C 55.1376 1.09276 1.35406 0
M  V30 583 O 56.3136 1.41355 1.4346 0
M  V30 584 C 53.3786 2.65887 2.22497 0
M  V30 585 C 52.4396 3.85286 1.8935 0
M  V30 586 C 51.6726 4.34743 3.09571 0
M  V30 587 O 51.8956 3.83352 4.22371 0
M  V30 588 O 50.8296 5.26538 2.91618 0
M  V30 589 H 54.6556 2.99333 0.513169 0
M  V30 590 H 52.2406 1.4822 0.18743 0
M  V30 591 H 54.1226 2.99346 2.96598 0
M  V30 592 H 52.7976 1.83578 2.6661 0
M  V30 593 H 51.7046 3.56746 1.1262 0
M  V30 594 H 53.0376 4.68771 1.5005 0
M  V30 595 N 54.6897 -0.239769 1.55765 0
M  V30 596 C 56.1057 -0.588624 1.48349 0
M  V30 597 C 56.3057 -1.88005 0.72502 0
M  V30 598 O 55.3617 -2.51186 0.257269 0
M  V30 599 C 56.6747 -0.68474 2.928 0
M  V30 600 C 58.2227 -0.77659 3.03213 0
M  V30 601 C 58.6977 -0.904207 4.48986 0
M  V30 602 N 60.1887 -0.968896 4.52953 0
M  V30 603 C 60.9237 -1.08703 5.63002 0
M  V30 604 N 60.4197 -1.17026 6.82845 0
M  V30 605 N 62.2127 -1.12074 5.50814 0
M  V30 606 H 54.3637 0.607911 2.03515 0
M  V30 607 H 56.6267 0.21083 0.924259 0
M  V30 608 H 56.3327 0.194284 3.51163 0
M  V30 609 H 56.2067 -1.55435 3.43686 0
M  V30 610 H 58.5937 -1.64606 2.44926 0
M  V30 611 H 58.6747 0.118315 2.55526 0
M  V30 612 H 58.3187 -0.0392633 5.07885 0
M  V30 613 H 58.2487 -1.81426 4.9436 0
M  V30 614 H 60.7397 -0.915633 3.6664 0
M  V30 615 H 61.0527 -1.25966 7.62465 0
M  V30 616 H 59.3977 -1.13971 6.85591 0
M  V30 617 H 62.5887 -1.05226 4.5612 0
M  V30 618 H 62.7617 -1.20936 6.36615 0
M  V30 619 N 56.1678 -1.49265 -0.50573 0
M  V30 620 C 57.5838 -1.35923 -0.836486 0
M  V30 621 C 57.7838 -0.388704 -1.97715 0
M  V30 622 O 56.8398 0.181336 -2.51848 0
M  V30 623 C 58.1528 -2.76531 -1.18115 0
M  V30 624 C 59.7008 -2.85197 -1.28964 0
M  V30 625 C 60.1758 -4.26561 -1.66761 0
M  V30 626 N 61.6668 -4.2935 -1.73819 0
M  V30 627 C 62.4018 -5.35693 -2.045 0
M  V30 628 N 61.8978 -6.52287 -2.33438 0
M  V30 629 N 63.6908 -5.23105 -2.05711 0
M  V30 630 H 55.8418 -2.10965 0.246519 0
M  V30 631 H 58.1048 -0.9468 0.0476887 0
M  V30 632 H 57.8108 -3.49226 -0.416398 0
M  V30 633 H 57.6848 -3.11599 -2.1257 0
M  V30 634 H 60.0718 -2.12742 -2.04511 0
M  V30 635 H 60.1528 -2.53718 -0.325704 0
M  V30 636 H 59.7968 -4.99541 -0.917656 0
M  V30 637 H 59.7268 -4.55502 -2.64246 0
M  V30 638 H 62.2178 -3.4526 -1.53635 0
M  V30 639 H 62.5308 -7.29158 -2.56024 0
M  V30 640 H 60.8758 -6.55521 -2.30905 0
M  V30 641 H 64.0668 -4.31026 -1.82577 0
M  V30 642 H 64.2398 -6.06078 -2.29289 0
M  V30 643 N 57.6459 0.756429 -1.3826 0
M  V30 644 C 58.6089 1.85176 -1.35065 0
M  V30 645 C 59.6089 1.58818 -0.251703 0
M  V30 646 O 60.7989 1.66615 -0.508433 0
M  V30 647 C 57.9309 3.22596 -1.10201 0
M  V30 648 H 59.1239 1.89417 -2.3251 0
M  V30 649 H 56.6769 0.95783 -1.23512 0
M  V30 650 H 57.4119 3.24025 -0.133504 0
M  V30 651 H 57.1969 3.43122 -1.89762 0
M  V30 652 H 58.6869 4.02673 -1.10654 0
M  V30 653 N 59.124 1.23083 0.984299 0
M  V30 654 C 60.535 1.05609 1.5396 0
M  V30 655 C 60.886 -0.377793 1.92528 0
M  V30 656 O 60.011 -1.26398 1.75649 0
M  V30 657 C 60.606 1.91087 2.7977 0
M  V30 658 C 59.165 1.77885 3.31713 0
M  V30 659 C 58.312 1.87028 2.04733 0
M  V30 660 H 61.263 1.36802 0.804419 0
M  V30 661 H 61.284 1.43336 3.5247 0
M  V30 662 H 60.796 2.9544 2.51668 0
M  V30 663 H 58.897 0.762995 3.64704 0
M  V30 664 H 59.01 2.61047 4.01735 0
M  V30 665 H 57.374 1.30565 2.18689 0
M  V30 666 H 58.157 2.92929 1.79017 0
M  V30 667 N 60.6021 -1.18246 1.0419 0
M  V30 668 C 61.5321 -2.24127 0.654914 0
M  V30 669 C 62.5131 -1.66617 -0.342451 0
M  V30 670 O 63.6981 -1.92924 -0.222277 0
M  V30 671 C 60.8281 -3.47295 0.0183757 0
M  V30 672 C 59.7821 -4.17563 0.939414 0
M  V30 673 C 59.1081 -5.34438 0.167286 0
M  V30 674 C 60.4081 -4.70917 2.25908 0
M  V30 675 H 62.1021 -2.56753 1.54007 0
M  V30 676 H 59.6481 -1.23414 0.74195 0
M  V30 677 H 61.6011 -4.20572 -0.264082 0
M  V30 678 H 60.3251 -3.13907 -0.901664 0
M  V30 679 H 58.9841 -3.46186 1.20628 0
M  V30 680 H 58.6321 -4.97298 -0.7552 0
M  V30 681 H 58.3321 -5.82388 0.780901 0
M  V30 682 H 59.8561 -6.10504 -0.108125 0
M  V30 683 H 61.2701 -5.35882 2.03724 0
M  V30 684 H 59.6671 -5.29406 2.82577 0
M  V30 685 H 60.7371 -3.88272 2.9047 0
M  V30 686 N 62.0802 -0.821533 -1.34494 0
M  V30 687 C 63.0432 -0.247847 -2.27856 0
M  V30 688 C 64.0432 0.573453 -1.50227 0
M  V30 689 O 65.2332 0.389759 -1.69784 0
M  V30 690 C 62.3652 0.652698 -3.34593 0
M  V30 691 H 63.5582 -1.07146 -2.80107 0
M  V30 692 H 61.1112 -0.593291 -1.44602 0
M  V30 693 H 61.8462 1.49943 -2.87555 0
M  V30 694 H 61.6312 0.065292 -3.92046 0
M  V30 695 H 63.1212 1.04793 -4.04238 0
M  V30 696 N 63.5583 1.46682 -0.576371 0
M  V30 697 C 64.9693 1.86112 -0.148091 0
M  V30 698 C 65.3203 1.48073 1.2872 0
M  V30 699 O 64.4453 0.892656 1.97131 0
M  V30 700 C 65.0403 3.37786 -0.261982 0
M  V30 701 C 63.5993 3.76235 0.111384 0
M  V30 702 C 62.7463 2.70713 -0.60083 0
M  V30 703 H 65.6973 1.37927 -0.78497 0
M  V30 704 H 65.7183 3.77007 0.514364 0
M  V30 705 H 65.2303 3.6544 -1.30671 0
M  V30 706 H 63.3313 3.54198 1.15649 0
M  V30 707 H 63.4443 4.78391 -0.26052 0
M  V30 708 H 61.8083 2.54666 -0.0417783 0
M  V30 709 H 62.5913 3.01208 -1.64708 0
M  V30 710 N 65.0364 0.313813 1.54444 0
M  V30 711 C 65.9834 -0.55655 2.23989 0
M  V30 712 C 66.9534 -1.11943 1.22711 0
M  V30 713 O 68.1384 -1.16158 1.51367 0
M  V30 714 C 65.2784 -1.71635 2.99392 0
M  V30 715 C 64.3914 -1.18364 4.15468 0
M  V30 716 C 63.5264 -2.30834 4.78424 0
M  V30 717 C 62.5654 -1.74762 5.86622 0
M  V30 718 N 61.7024 -2.80855 6.43479 0
M  V30 719 H 66.5424 0.0430893 2.97969 0
M  V30 720 H 64.0794 0.0330359 1.47063 0
M  V30 721 H 66.0374 -2.39868 3.41349 0
M  V30 722 H 64.6674 -2.28742 2.27765 0
M  V30 723 H 63.7194 -0.393163 3.78363 0
M  V30 724 H 65.0314 -0.733262 4.93381 0
M  V30 725 H 64.1854 -3.0699 5.23299 0
M  V30 726 H 62.9244 -2.79204 3.99871 0
M  V30 727 H 61.9294 -0.970995 5.41158 0
M  V30 728 H 63.1544 -1.2728 6.67066 0
M  V30 729 H 61.1004 -3.28535 5.67804 0
M  V30 730 H 61.0174 -2.40351 7.16776 0
M  V30 731 H 62.2854 -3.5687 6.93011 0
M  V30 732 N 66.5145 -1.57545 0.0417849 0
M  V30 733 C 67.4645 -2.07483 -0.945247 0
M  V30 734 C 68.4485 -0.977983 -1.27767 0
M  V30 735 O 69.6405 -1.24142 -1.26166 0
M  V30 736 C 66.7695 -2.61576 -2.22335 0
M  V30 737 C 65.8555 -3.78213 -1.91874 0
M  V30 738 N 66.2465 -4.88344 -1.31733 0
M  V30 739 C 64.5445 -3.8694 -2.21796 0
M  V30 740 C 65.2455 -5.69462 -1.1869 0
M  V30 741 N 64.2215 -5.16771 -1.68666 0
M  V30 742 H 68.0235 -2.90029 -0.475441 0
M  V30 743 H 65.5375 -1.61581 -0.162911 0
M  V30 744 H 67.5345 -2.95651 -2.93932 0
M  V30 745 H 66.1945 -1.80465 -2.69931 0
M  V30 746 H 67.2055 -5.08335 -0.990729 0
M  V30 747 H 63.8825 -3.16757 -2.71977 0
M  V30 748 H 65.2725 -6.68023 -0.720793 0
M  V30 749 N 67.9926 0.231505 -1.5589 0
M  V30 750 C 69.2416 0.955346 -1.7764 0
M  V30 751 C 69.5546 1.85893 -0.608546 0
M  V30 752 O 70.7606 2.62067 -0.70943 0
M  V30 753 C 69.2166 1.74886 -3.14552 0
M  V30 754 C 68.8246 0.891915 -4.39032 0
M  V30 755 C 70.5686 2.46452 -3.45633 0
M  V30 756 C 68.4756 1.68221 -5.66971 0
M  V30 757 H 67.4056 0.360446 -0.662265 0
M  V30 758 H 70.0566 0.209516 -1.823 0
M  V30 759 H 68.4386 2.53723 -3.04041 0
M  V30 760 H 69.6126 0.144793 -4.60572 0
M  V30 761 H 67.9276 0.288863 -4.15397 0
M  V30 762 H 70.5246 3.06061 -4.38441 0
M  V30 763 H 70.8676 3.18841 -2.67668 0
M  V30 764 H 71.4006 1.74613 -3.57428 0
M  V30 765 H 68.1396 1.00178 -6.478 0
M  V30 766 H 67.6596 2.4042 -5.49507 0
M  V30 767 H 69.3386 2.24544 -6.06786 0
M  V30 768 N 69.4707 1.49531 0.497807 0
M  V30 769 C 70.4177 1.66436 1.59899 0
M  V30 770 C 71.3877 0.505793 1.58212 0
M  V30 771 O 72.5727 0.733202 1.7615 0
M  V30 772 C 69.7127 1.7399 2.98029 0
M  V30 773 C 68.8257 3.01172 3.09708 0
M  V30 774 C 67.9607 2.99686 4.38591 0
M  V30 775 C 66.9997 4.21434 4.43914 0
M  V30 776 N 66.1367 4.1784 5.64229 0
M  V30 777 H 70.9767 2.60459 1.44793 0
M  V30 778 H 68.5137 1.29137 0.704423 0
M  V30 779 H 70.4717 1.76352 3.78095 0
M  V30 780 H 69.1017 0.834301 3.11832 0
M  V30 781 H 68.1537 3.08408 2.22685 0
M  V30 782 H 69.4657 3.91165 3.09502 0
M  V30 783 H 68.6197 3.00628 5.2698 0
M  V30 784 H 67.3587 2.07477 4.41367 0
M  V30 785 H 66.3637 4.20733 3.53926 0
M  V30 786 H 67.5887 5.14839 4.42851 0
M  V30 787 H 65.5347 3.28469 5.67841 0
M  V30 788 H 65.4517 5.01571 5.65652 0
M  V30 789 H 66.7197 4.22889 6.54817 0
M  V30 790 N 70.9488 -0.749086 1.3866 0
M  V30 791 C 72.1968 -1.50535 1.34847 0
M  V30 792 C 72.5178 -1.94909 -0.0595016 0
M  V30 793 O 71.7878 -1.67973 -1.00806 0
M  V30 794 H 70.3678 -0.558395 0.49619 0
M  V30 795 H 73.0298 -0.890165 1.73384 0
M  V30 796 H 72.1258 -2.39413 2.00219 0
M  V30 797 N 72.4269 -1.23603 -0.977757 0
M  V30 798 C 73.6759 -1.06377 -1.71368 0
M  V30 799 C 73.9889 0.399062 -1.91486 0
M  V30 800 O 75.1949 0.691312 -2.62551 0
M  V30 801 C 73.6509 -1.85512 -3.08404 0
M  V30 802 C 73.2589 -3.36141 -2.96164 0
M  V30 803 C 75.0029 -1.76783 -3.85938 0
M  V30 804 C 72.9099 -4.07659 -4.28449 0
M  V30 805 H 71.8399 -0.394452 -0.642591 0
M  V30 806 H 74.4909 -1.47594 -1.09034 0
M  V30 807 H 72.8729 -1.37103 -3.71509 0
M  V30 808 H 74.0469 -3.92056 -2.42133 0
M  V30 809 H 72.3619 -3.45712 -2.32104 0
M  V30 810 H 74.9589 -2.27526 -4.83876 0
M  V30 811 H 75.3019 -0.731116 -4.0983 0
M  V30 812 H 75.8349 -2.22818 -3.2954 0
M  V30 813 H 72.5739 -5.11648 -4.09752 0
M  V30 814 H 72.0939 -3.5653 -4.82334 0
M  V30 815 H 73.7729 -4.141 -4.97122 0
M  V30 816 N 73.905 1.17692 -1.04816 0
M  V30 817 C 75.133 1.91786 -0.776254 0
M  V30 818 C 75.548 1.76604 0.667577 0
M  V30 819 O 74.905 1.10067 1.45573 0
M  V30 820 C 74.956 3.42967 -1.14263 0
M  V30 821 O 74.677 3.57678 -2.52978 0
M  V30 822 C 76.178 4.34144 -0.896311 0
M  V30 823 H 73.398 0.608624 -0.282519 0
M  V30 824 H 75.942 1.49268 -1.39783 0
M  V30 825 H 74.097 3.83245 -0.565874 0
M  V30 826 H 74.511 4.51319 -2.67229 0
M  V30 827 H 75.985 5.38744 -1.20244 0
M  V30 828 H 76.462 4.38876 0.168636 0
M  V30 829 H 77.068 3.99574 -1.45672 0
M  V30 830 N 75.3831 0.828654 1.34056 0
M  V30 831 C 76.3311 0.242973 2.31327 0
M  V30 832 C 77.3251 -0.61944 1.57668 0
M  V30 833 O 78.5311 -0.51014 1.7262 0
M  V30 834 H 74.9061 0.059834 0.749616 0
M  V30 835 H 76.8771 1.07809 2.78244 0
M  V30 836 C 75.6261 -0.575733 3.429 0
M  V30 837 H 74.9491 0.0785582 3.99723 0
M  V30 838 H 76.3891 -0.951547 4.13185 0
M  V30 839 C 74.8481 -1.75044 2.87856 0
M  V30 840 O 75.3781 -2.84882 2.83205 0
M  V30 841 N 73.5841 -1.56903 2.44602 0
M  V30 842 H 73.1311 -0.675547 2.48584 0
M  V30 843 H 73.0891 -2.35652 2.08124 0
M  V30 844 N 76.8612 -1.46375 0.584142 0
M  V30 845 C 77.7912 -2.33103 -0.136037 0
M  V30 846 C 78.7722 -1.45431 -0.882255 0
M  V30 847 O 79.9572 -1.74246 -0.857434 0
M  V30 848 C 77.0872 -3.27731 -1.14933 0
M  V30 849 C 76.0412 -4.24855 -0.517862 0
M  V30 850 C 75.3672 -5.09001 -1.63773 0
M  V30 851 C 76.6672 -5.19439 0.545886 0
M  V30 852 H 78.3612 -2.93568 0.588086 0
M  V30 853 H 75.9072 -1.41166 0.284259 0
M  V30 854 H 77.8602 -3.87261 -1.66153 0
M  V30 855 H 76.5842 -2.65377 -1.90375 0
M  V30 856 H 75.2432 -3.6659 -0.0267361 0
M  V30 857 H 74.8912 -4.43031 -2.38185 0
M  V30 858 H 74.5912 -5.74777 -1.22085 0
M  V30 859 H 76.1152 -5.71396 -2.15266 0
M  V30 860 H 77.5292 -5.73177 0.118704 0
M  V30 861 H 75.9262 -5.93566 0.88317 0
M  V30 862 H 76.9962 -4.63285 1.43162 0
M  V30 863 N 78.3393 -0.321999 -1.54275 0
M  V30 864 C 79.5873 0.280489 -2.00144 0
M  V30 865 C 79.9083 1.52777 -1.21178 0
M  V30 866 O 79.1783 1.9338 -0.313187 0
M  V30 867 H 77.7583 0.106632 -0.73935 0
M  V30 868 H 80.4203 -0.438184 -1.8991 0
M  V30 869 H 79.5163 0.537972 -3.07428 0
M  V30 870 N 79.8174 1.5752 -0.0501392 0
M  V30 871 C 81.0474 1.96678 0.632573 0
M  V30 872 C 81.4554 0.926298 1.64974 0
M  V30 873 O 80.7984 -0.09802 1.83438 0
M  V30 874 C 80.8604 3.32068 1.37735 0
M  V30 875 C 80.5244 4.54076 0.516131 0
M  V30 876 C 81.5214 5.19445 -0.217357 0
M  V30 877 C 79.2064 5.00304 0.44736 0
M  V30 878 C 81.2004 6.29378 -1.00807 0
M  V30 879 C 78.8874 6.10114 -0.347038 0
M  V30 880 C 79.8854 6.74512 -1.07344 0
M  V30 881 O 79.5734 7.82211 -1.85477 0
M  V30 882 H 79.3054 0.652193 0.177821 0
M  V30 883 H 81.8594 2.05091 -0.112543 0
M  V30 884 H 80.0894 3.20206 2.16807 0
M  V30 885 H 81.7784 3.55981 1.95019 0
M  V30 886 H 82.5444 4.84689 -0.173688 0
M  V30 887 H 78.4234 4.49971 1.00235 0
M  V30 888 H 81.9674 6.79575 -1.57556 0
M  V30 889 H 77.8644 6.44307 -0.392349 0
M  V30 890 H 78.6324 7.98982 -1.77678 0
M  V30 891 N 81.2955 -0.223234 1.56011 0
M  V30 892 C 82.2425 -1.27664 1.92277 0
M  V30 893 C 83.2125 -1.46659 0.779763 0
M  V30 894 O 84.3975 -1.60256 1.03551 0
M  V30 895 C 81.5375 -2.62234 2.24338 0
M  V30 896 C 80.6505 -2.51051 3.51564 0
M  V30 897 C 79.7855 -3.78133 3.7308 0
M  V30 898 C 78.8245 -3.61665 4.93827 0
M  V30 899 N 77.9615 -4.80693 5.11741 0
M  V30 900 H 82.8015 -0.960358 2.82101 0
M  V30 901 H 80.3385 -0.462901 1.39627 0
M  V30 902 H 82.2965 -3.40596 2.40936 0
M  V30 903 H 80.9265 -2.91961 1.3769 0
M  V30 904 H 79.9785 -1.64132 3.43169 0
M  V30 905 H 81.2905 -2.34803 4.40079 0
M  V30 906 H 80.4445 -4.64938 3.89766 0
M  V30 907 H 79.1835 -3.97304 2.82844 0
M  V30 908 H 78.1885 -2.73244 4.77093 0
M  V30 909 H 79.4135 -3.43966 5.85546 0
M  V30 910 H 77.3595 -5.00181 4.24446 0
M  V30 911 H 77.2765 -4.67165 5.94384 0
M  V30 912 H 78.5445 -5.6893 5.3286 0
M  V30 913 N 82.7736 -1.49793 -0.48987 0
M  V30 914 C 84.0196 -1.60078 -1.24511 0
M  V30 915 C 84.3526 -0.291608 -1.91998 0
M  V30 916 O 83.6276 0.705647 -1.81248 0
M  V30 917 C 83.9106 -2.76791 -2.30345 0
M  V30 918 C 83.7636 -4.17535 -1.67286 0
M  V30 919 C 85.0826 -2.89111 -3.31817 0
M  V30 920 H 82.2016 -0.582645 -0.451324 0
M  V30 921 H 84.8436 -1.82117 -0.541612 0
M  V30 922 H 82.9936 -2.5813 -2.90346 0
M  V30 923 H 84.6656 -4.4774 -1.11026 0
M  V30 924 H 82.9086 -4.22665 -0.976577 0
M  V30 925 H 83.5796 -4.95094 -2.44103 0
M  V30 926 H 86.0556 -3.06133 -2.81819 0
M  V30 927 H 84.9316 -3.72433 -4.03219 0
M  V30 928 H 85.1926 -1.9893 -3.94815 0
M  V30 929 N 84.2517 0.741722 -1.39055 0
M  V30 930 C 85.1817 1.869 -1.39966 0
M  V30 931 C 86.1627 1.6804 -0.26392 0
M  V30 932 O 87.3477 1.88458 -0.468755 0
M  V30 933 C 84.4777 3.24572 -1.23574 0
M  V30 934 C 83.4317 3.58056 -2.34477 0
M  V30 935 C 82.7577 4.94593 -2.0318 0
M  V30 936 C 84.0577 3.61716 -3.76774 0
M  V30 937 H 85.7517 1.86395 -2.34302 0
M  V30 938 H 83.2977 0.895361 -1.1278 0
M  V30 939 H 85.2507 4.031 -1.22834 0
M  V30 940 H 83.9747 3.25587 -0.257045 0
M  V30 941 H 82.6337 2.81854 -2.34423 0
M  V30 942 H 82.2817 4.92181 -1.03765 0
M  V30 943 H 81.9817 5.17964 -2.77465 0
M  V30 944 H 83.5057 5.75486 -2.04079 0
M  V30 945 H 84.9197 4.30335 -3.78794 0
M  V30 946 H 83.3167 3.96603 -4.50362 0
M  V30 947 H 84.3867 2.61672 -4.08235 0
M  V30 948 N 85.7298 1.2412 0.971189 0
M  V30 949 C 86.9788 1.07284 1.70801 0
M  V30 950 C 87.2918 -0.388902 1.91695 0
M  V30 951 O 88.4978 -0.677379 2.62914 0
M  V30 952 C 86.9538 1.87145 3.07416 0
M  V30 953 C 86.5618 3.37707 2.94377 0
M  V30 954 C 88.3058 1.78828 3.84995 0
M  V30 955 C 86.2128 4.09925 4.26281 0
M  V30 956 H 85.1428 0.397854 0.64049 0
M  V30 957 H 87.7938 1.4817 1.0825 0
M  V30 958 H 86.1758 1.39071 3.70777 0
M  V30 959 H 87.3498 3.93335 2.4005 0
M  V30 960 H 85.6648 3.46938 2.30267 0
M  V30 961 H 88.2618 2.30089 4.82662 0
M  V30 962 H 88.6048 0.75284 4.09436 0
M  V30 963 H 89.1378 2.24563 3.28354 0
M  V30 964 H 85.8768 5.13813 4.07033 0
M  V30 965 H 85.3968 3.59083 4.80437 0
M  V30 966 H 87.0758 4.1673 4.94919 0
M  V30 967 N 87.2079 -1.17134 1.05439 0
M  V30 968 C 88.1399 -2.2078 0.615539 0
M  V30 969 C 89.1529 -1.59584 -0.322001 0
M  V30 970 O 90.3419 -1.78133 -0.114344 0
M  V30 971 C 87.4419 -3.38691 -0.118938 0
M  V30 972 C 86.6149 -4.29454 0.829924 0
M  V30 973 C 85.6739 -5.26024 0.136258 0
M  V30 974 O 84.6999 -5.63952 0.77115 0
M  V30 975 N 85.9019 -5.69487 -1.1254 0
M  V30 976 H 88.6669 -2.59052 1.50705 0
M  V30 977 H 86.2279 -1.32058 0.936603 0
M  V30 978 H 88.2199 -4.00329 -0.593179 0
M  V30 979 H 86.7899 -2.98996 -0.91215 0
M  V30 980 H 86.0099 -3.65211 1.48373 0
M  V30 981 H 87.2979 -4.86984 1.47392 0
M  V30 982 H 86.6959 -5.4075 -1.6615 0
M  V30 983 H 85.2529 -6.33257 -1.54366 0
M  V30 984 N 88.686 -0.835752 -1.33615 0
M  V30 985 C 90.097 -0.487099 -1.80234 0
M  V30 986 C 90.448 0.993627 -1.69179 0
M  V30 987 O 89.573 1.77403 -1.23924 0
M  V30 988 C 90.168 -0.877385 -3.27242 0
M  V30 989 C 88.727 -0.580915 -3.7189 0
M  V30 990 C 87.874 -1.0874 -2.5509 0
M  V30 991 H 90.825 -1.02474 -1.2118 0
M  V30 992 H 90.846 -0.186195 -3.80044 0
M  V30 993 H 90.358 -1.95512 -3.35256 0
M  V30 994 H 88.459 0.486881 -3.69405 0
M  V30 995 H 88.572 -1.13396 -4.65487 0
M  V30 996 H 86.936 -0.508392 -2.49575 0
M  V30 997 H 87.719 -2.17184 -2.65868 0
M  V30 998 N 90.1641 1.46063 -0.591896 0
M  V30 999 C 91.3891 2.07226 -0.0850314 0
M  V30 1000 C 91.8141 1.43625 1.21463 0
M  V30 1001 O 91.1721 0.523305 1.73583 0
M  V30 1002 C 91.2201 3.60554 0.0576567 0
M  V30 1003 O 90.3241 3.97128 1.11188 0
M  V30 1004 H 89.6651 0.660615 -0.0669568 0
M  V30 1005 H 92.1951 1.8756 -0.81745 0
M  V30 1006 H 92.2051 4.07165 0.2609 0
M  V30 1007 H 90.8801 4.06235 -0.891416 0
M  V30 1008 H 89.4571 3.62213 0.886356 0
M  V30 1009 N 91.6422 0.330177 1.54103 0
M  V30 1010 C 92.5902 -0.548226 2.26047 0
M  V30 1011 C 93.5842 -1.11309 1.27698 0
M  V30 1012 O 94.7902 -1.06036 1.45452 0
M  V30 1013 H 91.1652 -0.195456 0.726155 0
M  V30 1014 H 93.1362 0.0807567 2.98291 0
M  V30 1015 C 91.8852 -1.69415 3.03634 0
M  V30 1016 H 91.2082 -1.26876 3.79134 0
M  V30 1017 H 92.6482 -2.28423 3.5721 0
M  V30 1018 C 91.1072 -2.61569 2.12328 0
M  V30 1019 O 91.6372 -3.63462 1.7105 0
M  V30 1020 N 89.8432 -2.29952 1.77681 0
M  V30 1021 H 89.3902 -1.47134 2.11446 0
M  V30 1022 H 89.3482 -2.91871 1.16869 0
M  V30 1023 N 93.1203 -1.57491 0.0584922 0
M  V30 1024 C 94.5363 -1.56792 -0.298091 0
M  V30 1025 C 94.7363 -1.06679 -1.70944 0
M  V30 1026 O 93.7923 -0.726672 -2.41818 0
M  V30 1027 C 95.1053 -3.00461 -0.119879 0
M  V30 1028 C 96.6533 -3.1242 -0.190428 0
M  V30 1029 C 97.1283 -4.57982 -0.0406567 0
M  V30 1030 N 98.6193 -4.63099 -0.0966958 0
M  V30 1031 C 99.3543 -5.734 -0.00502943 0
M  V30 1032 N 98.8503 -6.9266 0.139402 0
M  V30 1033 N 100.643 -5.62067 -0.0611391 0
M  V30 1034 H 92.7943 -1.88386 0.98105 0
M  V30 1035 H 95.0573 -0.867865 0.381463 0
M  V30 1036 H 94.7633 -3.41187 0.85349 0
M  V30 1037 H 94.6373 -3.66843 -0.877833 0
M  V30 1038 H 97.0243 -2.71589 -1.15427 0
M  V30 1039 H 97.1053 -2.48702 0.598405 0
M  V30 1040 H 96.7493 -4.995 0.919897 0
M  V30 1041 H 96.6793 -5.19715 -0.848727 0
M  V30 1042 H 99.1703 -3.77331 -0.207277 0
M  V30 1043 H 99.4833 -7.72536 0.201855 0
M  V30 1044 H 97.8283 -6.94781 0.174586 0
M  V30 1045 H 101.019 -4.67782 -0.172583 0
M  V30 1046 H 101.192 -6.47999 0.0137562 0
M  V30 1047 N 94.5984 0.214957 -1.56127 0
M  V30 1048 C 96.0144 0.564948 -1.49267 0
M  V30 1049 C 96.2144 1.86827 -0.754838 0
M  V30 1050 O 95.2704 2.50745 -0.297198 0
M  V30 1051 C 96.5834 0.638071 -2.93852 0
M  V30 1052 C 98.1314 0.728253 -3.0441 0
M  V30 1053 C 98.6064 0.832663 -4.50367 0
M  V30 1054 N 100.097 0.896712 -4.54437 0
M  V30 1055 C 100.832 0.997324 -5.6466 0
M  V30 1056 N 100.328 1.06147 -6.8462 0
M  V30 1057 N 102.121 1.03297 -5.52527 0
M  V30 1058 H 94.2724 -0.640211 -2.02522 0
M  V30 1059 H 96.5354 -0.225507 -0.920788 0
M  V30 1060 H 96.2414 -0.250126 -3.50809 0
M  V30 1061 H 96.1154 1.49947 -3.46115 0
M  V30 1062 H 98.5024 1.60689 -2.47514 0
M  V30 1063 H 98.5834 -0.158952 -2.55306 0
M  V30 1064 H 98.2274 -0.0415417 -5.07883 0
M  V30 1065 H 98.1574 1.73538 -4.97184 0
M  V30 1066 H 100.648 0.857188 -3.6805 0
M  V30 1067 H 100.961 1.1382 -7.64372 0
M  V30 1068 H 99.3064 1.03049 -6.87318 0
M  V30 1069 H 102.497 0.979558 -4.57736 0
M  V30 1070 H 102.67 1.10793 -6.38458 0
M  V30 1071 N 96.0765 1.50051 0.48192 0
M  V30 1072 C 97.0395 1.67584 1.5636 0
M  V30 1073 C 98.0395 0.546894 1.51214 0
M  V30 1074 O 99.2295 0.813725 1.54026 0
M  V30 1075 C 96.3615 1.691 2.96003 0
M  V30 1076 H 97.5545 2.64078 1.42136 0
M  V30 1077 H 95.1075 1.39369 0.707533 0
M  V30 1078 H 95.8425 0.742589 3.15684 0
M  V30 1079 H 95.6275 2.51105 3.01146 0
M  V30 1080 H 97.1175 1.84656 3.74556 0
M  V30 1081 N 97.5546 -0.734337 1.39446 0
M  V30 1082 C 98.8036 -1.48937 1.36017 0
M  V30 1083 C 99.1166 -1.95557 -0.0409005 0
M  V30 1084 O 100.323 -2.70779 -0.19778 0
M  V30 1085 C 98.7786 -2.69125 2.38955 0
M  V30 1086 C 98.3866 -2.29452 3.8478 0
M  V30 1087 C 100.131 -3.46944 2.44603 0
M  V30 1088 C 98.0376 -3.46366 4.79358 0
M  V30 1089 H 96.9676 -0.559296 0.505672 0
M  V30 1090 H 99.6186 -0.800983 1.65095 0
M  V30 1091 H 98.0006 -3.40041 2.02948 0
M  V30 1092 H 99.1746 -1.66077 4.29831 0
M  V30 1093 H 97.4896 -1.64723 3.82433 0
M  V30 1094 H 100.087 -4.33907 3.12456 0
M  V30 1095 H 100.43 -3.89454 1.47076 0
M  V30 1096 H 100.963 -2.83056 2.79507 0
M  V30 1097 H 97.7016 -3.08905 5.78151 0
M  V30 1098 H 97.2216 -4.08719 4.38986 0
M  V30 1099 H 98.9006 -4.12691 4.98292 0
M  V30 1100 N 99.0327 -1.24633 -0.964593 0
M  V30 1101 C 99.9827 -1.00841 -2.04487 0
M  V30 1102 C 100.967 0.0512468 -1.60818 0
M  V30 1103 O 102.159 -0.162865 -1.76249 0
M  V30 1104 C 99.2877 -0.618474 -3.37683 0
M  V30 1105 C 98.3737 -1.71437 -3.87905 0
M  V30 1106 N 98.7647 -2.9477 -4.11029 0
M  V30 1107 C 97.0627 -1.5926 -4.16596 0
M  V30 1108 C 97.7637 -3.65834 -4.52261 0
M  V30 1109 N 96.7397 -2.9341 -4.57615 0
M  V30 1110 H 100.542 -1.94487 -2.20345 0
M  V30 1111 H 98.0557 -1.14805 -1.14863 0
M  V30 1112 H 100.053 -0.429247 -4.14684 0
M  V30 1113 H 98.7127 0.310766 -3.23209 0
M  V30 1114 H 99.7237 -3.30917 -3.9839 0
M  V30 1115 H 96.4007 -0.731606 -4.1104 0
M  V30 1116 H 97.7907 -4.71646 -4.78539 0
M  V30 1117 N 100.511 1.16574 -1.06058 0
M  V30 1118 C 101.788 1.83048 -0.689416 0
M  V30 1119 C 102.168 1.94122 0.829443 0
M  V30 1120 O 101.516 1.48249 1.7388 0
M  V30 1121 C 101.726 3.20186 -1.38859 0
M  V30 1122 C 103.074 3.95989 -1.53226 0
M  V30 1123 O 104.098 3.29696 -1.3483 0
M  V30 1124 O 102.957 5.14813 -1.83384 0
M  V30 1125 H 100.051 0.790258 -0.243764 0
M  V30 1126 H 102.597 1.23797 -1.16071 0
M  V30 1127 H 101.369 3.07146 -2.4244 0
M  V30 1128 H 100.992 3.87112 -0.907216 0
M  V30 1129 N 101.989 0.842826 1.3317 0
M  V30 1130 C 102.936 0.276885 2.29133 0
M  V30 1131 C 103.906 -0.609527 1.54512 0
M  V30 1132 O 105.091 -0.546955 1.82792 0
M  V30 1133 C 102.231 -0.538707 3.40869 0
M  V30 1134 C 101.344 0.372169 4.30394 0
M  V30 1135 C 100.479 -0.454908 5.29249 0
M  V30 1136 C 99.5179 0.45411 6.10413 0
M  V30 1137 N 98.6549 -0.335075 7.013 0
M  V30 1138 H 103.495 1.10052 2.76934 0
M  V30 1139 H 101.032 0.554161 1.36262 0
M  V30 1140 H 102.99 -1.02709 4.0436 0
M  V30 1141 H 101.62 -1.32727 2.9425 0
M  V30 1142 H 100.672 0.97888 3.6759 0
M  V30 1143 H 101.984 1.0703 4.87182 0
M  V30 1144 H 101.138 -1.00695 5.98285 0
M  V30 1145 H 99.8769 -1.18646 4.73048 0
M  V30 1146 H 98.8819 1.01813 5.40291 0
M  V30 1147 H 100.107 1.18409 6.68697 0
M  V30 1148 H 98.0529 -1.04994 6.47543 0
M  V30 1149 H 97.9699 0.304262 7.55387 0
M  V30 1150 H 99.2379 -0.869224 7.74638 0
M  V30 1151 N 103.467 -1.45747 0.599634 0
M  V30 1152 C 104.744 -1.95585 0.0240846 0
M  V30 1153 C 105.124 -1.54217 -1.44154 0
M  V30 1154 O 104.472 -0.800903 -2.14004 0
M  V30 1155 C 104.682 -3.48344 0.21385 0
M  V30 1156 C 106.03 -4.24504 0.0904902 0
M  V30 1157 O 107.054 -3.55911 0.143558 0
M  V30 1158 O 105.913 -5.46491 -0.0310766 0
M  V30 1159 H 103.007 -0.82602 -0.0402478 0
M  V30 1160 H 105.553 -1.55951 0.669139 0
M  V30 1161 H 104.325 -3.71397 1.23206 0
M  V30 1162 H 103.948 -3.9485 -0.466842 0
M  V30 1163 N 104.945 -0.338344 -1.53925 0
M  V30 1164 C 106.175 0.260919 -2.04946 0
M  V30 1165 C 106.583 1.45174 -1.2133 0
M  V30 1166 O 105.926 1.82122 -0.240262 0
M  V30 1167 C 105.988 0.744596 -3.51704 0
M  V30 1168 C 105.652 -0.325883 -4.55837 0
M  V30 1169 C 106.649 -1.16687 -5.06636 0
M  V30 1170 C 104.334 -0.478317 -5.00017 0
M  V30 1171 C 106.328 -2.14588 -6.00192 0
M  V30 1172 C 104.015 -1.46073 -5.93385 0
M  V30 1173 C 105.013 -2.29297 -6.4336 0
M  V30 1174 O 104.701 -3.25867 -7.34892 0
M  V30 1175 H 104.433 0.0551207 -0.673749 0
M  V30 1176 H 106.987 -0.486984 -1.99544 0
M  V30 1177 H 105.217 1.54366 -3.54553 0
M  V30 1178 H 106.906 1.26383 -3.85723 0
M  V30 1179 H 107.672 -1.06016 -4.73271 0
M  V30 1180 H 103.551 0.159613 -4.60724 0
M  V30 1181 H 107.095 -2.79585 -6.39123 0
M  V30 1182 H 102.992 -1.56802 -6.26166 0
M  V30 1183 H 103.76 -3.21278 -7.5281 0
M  V30 1184 N 106.423 1.57458 -0.0668435 0
M  V30 1185 C 107.669 1.93587 0.6043 0
M  V30 1186 C 108.002 0.946722 1.69561 0
M  V30 1187 O 107.277 -0.0248516 1.94484 0
M  V30 1188 C 107.56 3.40014 1.18585 0
M  V30 1189 C 107.413 4.49685 0.101529 0
M  V30 1190 C 108.732 3.87154 2.09284 0
M  V30 1191 H 105.851 0.703958 0.218202 0
M  V30 1192 H 108.493 1.89542 -0.131804 0
M  V30 1193 H 106.643 3.43592 1.81319 0
M  V30 1194 H 108.315 4.5823 -0.531279 0
M  V30 1195 H 106.558 4.30059 -0.568487 0
M  V30 1196 H 107.229 5.49266 0.54874 0
M  V30 1197 H 109.705 3.85551 1.56491 0
M  V30 1198 H 108.581 4.90231 2.46911 0
M  V30 1199 H 108.842 3.2481 2.99918 0
M  V30 1200 N 107.901 -0.206675 1.56239 0
M  V30 1201 C 108.848 -1.25617 1.93621 0
M  V30 1202 C 109.818 -1.45824 0.795274 0
M  V30 1203 O 111.003 -1.59148 1.05245 0
M  V30 1204 C 108.143 -2.59839 2.27107 0
M  V30 1205 C 107.256 -2.47308 3.54207 0
M  V30 1206 C 106.391 -3.74155 3.7707 0
M  V30 1207 C 105.43 -3.56407 4.97635 0
M  V30 1208 N 104.567 -4.75238 5.1681 0
M  V30 1209 H 109.407 -0.930383 2.83104 0
M  V30 1210 H 106.944 -0.448065 1.4011 0
M  V30 1211 H 108.902 -3.38021 2.44535 0
M  V30 1212 H 107.532 -2.90485 1.40778 0
M  V30 1213 H 106.584 -1.60483 3.4489 0
M  V30 1214 H 107.896 -2.30122 4.42544 0
M  V30 1215 H 107.05 -4.60778 3.94675 0
M  V30 1216 H 105.789 -3.94282 2.87042 0
M  V30 1217 H 104.794 -2.68168 4.79964 0
M  V30 1218 H 106.019 -3.37736 5.89161 0
M  V30 1219 H 103.965 -4.95651 4.29728 0
M  V30 1220 H 103.882 -4.60835 5.99306 0
M  V30 1221 H 105.15 -5.63246 5.38864 0
M  V30 1222 N 109.379 -1.50304 -0.473955 0
M  V30 1223 C 110.342 -1.6841 -1.55469 0
M  V30 1224 C 111.342 -0.554905 -1.50922 0
M  V30 1225 O 112.532 -0.821882 -1.53593 0
M  V30 1226 C 109.664 -1.70667 -2.95102 0
M  V30 1227 H 110.857 -2.64828 -1.40733 0
M  V30 1228 H 108.41 -1.39742 -0.700132 0
M  V30 1229 H 109.145 -0.75932 -3.15285 0
M  V30 1230 H 108.93 -2.52698 -2.9981 0
M  V30 1231 H 110.42 -1.8664 -3.73571 0
M  V30 1232 N 110.857 0.726932 -1.39834 0
M  V30 1233 C 112.105 1.4837 -1.37225 0
M  V30 1234 C 112.426 1.94979 0.0284857 0
M  V30 1235 O 111.696 1.69555 0.981213 0
M  V30 1236 H 110.276 0.55043 -0.505011 0
M  V30 1237 H 112.938 0.862468 -1.74778 0
M  V30 1238 H 112.034 2.36198 -2.04003 0
M  V30 1239 N 112.336 1.25143 0.95797 0
M  V30 1240 C 113.584 1.09476 1.69881 0
M  V30 1241 C 113.905 -0.365502 1.91544 0
M  V30 1242 O 113.175 -1.25985 1.50015 0
M  V30 1243 H 111.755 0.402128 0.629525 0
M  V30 1244 H 114.417 1.57214 1.15194 0
M  V30 1245 H 113.513 1.60046 2.6794 0
M  V30 1246 N 113.814 -1.1601 1.06675 0
M  V30 1247 C 115.063 -1.85973 0.780818 0
M  V30 1248 C 115.376 -1.82819 -0.695444 0
M  V30 1249 O 116.582 -2.484 -1.09589 0
M  V30 1250 C 115.038 -3.33757 1.34665 0
M  V30 1251 C 114.646 -3.45374 2.85343 0
M  V30 1252 C 116.39 -4.0895 1.13843 0
M  V30 1253 C 114.297 -4.87266 3.35151 0
M  V30 1254 H 113.227 -0.696661 0.288407 0
M  V30 1255 H 115.878 -1.30903 1.28595 0
M  V30 1256 H 114.26 -3.88456 0.769274 0
M  V30 1257 H 115.434 -3.00816 3.49065 0
M  V30 1258 H 113.749 -2.83619 3.04876 0
M  V30 1259 H 116.346 -5.13654 1.4854 0
M  V30 1260 H 116.689 -4.16229 0.0770282 0
M  V30 1261 H 117.222 -3.605 1.68179 0
M  V30 1262 H 113.961 -4.85168 4.40786 0
M  V30 1263 H 113.481 -5.32433 2.76179 0
M  V30 1264 H 115.16 -5.56097 3.30704 0
M  V30 1265 N 115.292 -0.849877 -1.32721 0
M  V30 1266 C 116.222 -0.306308 -2.31482 0
M  V30 1267 C 117.203 0.591952 -1.59468 0
M  V30 1268 O 118.388 0.513199 -1.87296 0
M  V30 1269 C 115.518 0.510204 -3.43532 0
M  V30 1270 C 114.472 -0.293209 -4.26994 0
M  V30 1271 C 113.798 0.647743 -5.30762 0
M  V30 1272 C 115.098 -1.51634 -4.99804 0
M  V30 1273 H 116.792 -1.13153 -2.77195 0
M  V30 1274 H 114.338 -0.545553 -1.33266 0
M  V30 1275 H 116.291 0.900856 -4.11658 0
M  V30 1276 H 115.015 1.36874 -2.96535 0
M  V30 1277 H 113.674 -0.665555 -3.60508 0
M  V30 1278 H 113.322 1.50299 -4.8002 0
M  V30 1279 H 113.022 0.11422 -5.87489 0
M  V30 1280 H 114.546 1.03567 -6.01753 0
M  V30 1281 H 115.96 -1.19824 -5.60638 0
M  V30 1282 H 114.357 -1.98745 -5.66234 0
M  V30 1283 H 115.427 -2.28018 -4.27943 0
M  V30 1284 N 116.77 1.45427 -0.607355 0
M  V30 1285 C 117.702 2.2871 0.149752 0
M  V30 1286 C 118.715 1.39937 0.831958 0
M  V30 1287 O 119.904 1.64313 0.697385 0
M  V30 1288 C 117.004 3.15673 1.23304 0
M  V30 1289 C 116.177 4.32722 0.637996 0
M  V30 1290 C 115.236 5.00895 1.61215 0
M  V30 1291 O 114.262 5.57697 1.13854 0
M  V30 1292 N 115.464 5.00159 2.94655 0
M  V30 1293 H 118.229 2.94328 -0.564882 0
M  V30 1294 H 115.79 1.55612 -0.446823 0
M  V30 1295 H 117.782 3.58144 1.88454 0
M  V30 1296 H 116.352 2.51965 1.8502 0
M  V30 1297 H 115.572 3.93734 -0.191572 0
M  V30 1298 H 116.86 5.08321 0.220665 0
M  V30 1299 H 116.258 4.553 3.35735 0
M  V30 1300 H 114.815 5.46495 3.55228 0
M  V30 1301 N 118.248 0.346503 1.53744 0
M  V30 1302 C 119.158 -0.517293 2.28826 0
M  V30 1303 C 120.174 -1.10935 1.3405 0
M  V30 1304 O 121.35 -1.1244 1.6709 0
M  V30 1305 C 118.415 -1.65098 3.04866 0
M  V30 1306 C 117.476 -1.0884 4.15274 0
M  V30 1307 C 116.709 -2.16806 4.87679 0
M  V30 1308 O 116.932 -3.3758 4.59778 0
M  V30 1309 O 115.866 -1.80934 5.74061 0
M  V30 1310 H 119.692 0.0931396 3.03557 0
M  V30 1311 H 117.277 0.111458 1.48984 0
M  V30 1312 H 119.159 -2.31053 3.5241 0
M  V30 1313 H 117.834 -2.24717 2.32989 0
M  V30 1314 H 116.741 -0.3933 3.72027 0
M  V30 1315 H 118.074 -0.537036 4.89261 0
M  V30 1316 N 119.726 -1.57421 0.075193 0
M  V30 1317 C 121.003 -1.85029 -0.634329 0
M  V30 1318 C 121.383 -0.968305 -1.87582 0
M  V30 1319 O 120.731 -0.0354749 -2.28472 0
M  V30 1320 C 120.941 -3.35286 -0.968742 0
M  V30 1321 C 122.289 -4.02875 -1.34077 0
M  V30 1322 O 123.313 -3.40051 -1.06037 0
M  V30 1323 O 122.172 -5.13691 -1.86506 0
M  V30 1324 H 119.266 -0.7645 -0.315387 0
M  V30 1325 H 121.812 -1.69366 0.106382 0
M  V30 1326 H 120.584 -3.91203 -0.0871376 0
M  V30 1327 H 120.207 -3.56223 -1.7661 0
M  V30 1328 N 121.204 0.198386 -1.56346 0
M  V30 1329 C 122.453 0.917451 -1.79627 0
M  V30 1330 C 122.766 1.8456 -0.64784 0
M  V30 1331 O 123.972 2.60504 -0.764859 0
M  V30 1332 C 122.428 1.68175 -3.18191 0
M  V30 1333 C 122.036 0.798589 -4.40825 0
M  V30 1334 C 123.78 2.39065 -3.50782 0
M  V30 1335 C 121.687 1.56157 -5.70411 0
M  V30 1336 H 120.617 0.346317 -0.669762 0
M  V30 1337 H 123.268 0.170801 -1.82703 0
M  V30 1338 H 121.65 2.47216 -3.09354 0
M  V30 1339 H 122.824 0.0470665 -4.60776 0
M  V30 1340 H 121.139 0.200686 -4.15916 0
M  V30 1341 H 123.736 2.96692 -4.44835 0
M  V30 1342 H 124.079 3.13091 -2.74371 0
M  V30 1343 H 124.612 1.66993 -3.61052 0
M  V30 1344 H 121.351 0.864142 -6.49779 0
M  V30 1345 H 120.871 2.2871 -5.54483 0
M  V30 1346 H 122.55 2.11622 -6.11412 0
M  V30 1347 N 122.682 1.50554 0.465978 0
M  V30 1348 C 123.907 1.65838 1.24549 0
M  V30 1349 C 124.332 0.343486 1.84937 0
M  V30 1350 O 123.69 -0.69324 1.67523 0
M  V30 1351 C 123.738 2.75533 2.32624 0
M  V30 1352 O 122.842 2.37142 3.37398 0
M  V30 1353 H 122.183 0.553893 0.366194 0
M  V30 1354 H 124.713 1.96959 0.553927 0
M  V30 1355 H 124.723 2.98763 2.77857 0
M  V30 1356 H 123.398 3.70962 1.88043 0
M  V30 1357 H 121.975 2.24377 2.97841 0
M  V30 1358 N 124.16 -0.719506 1.40217 0
M  V30 1359 C 125.07 -1.86378 1.42479 0
M  V30 1360 C 126.086 -1.71073 0.317834 0
M  V30 1361 O 127.262 -1.93406 0.561794 0
M  V30 1362 C 124.327 -3.22136 1.28178 0
M  V30 1363 C 123.388 -3.49723 2.48982 0
M  V30 1364 C 122.621 -4.79004 2.35353 0
M  V30 1365 O 122.844 -5.53821 1.36524 0
M  V30 1366 O 121.778 -5.06839 3.2465 0
M  V30 1367 H 125.604 -1.87425 2.38968 0
M  V30 1368 H 123.189 -0.869405 1.21498 0
M  V30 1369 H 125.071 -4.03234 1.22395 0
M  V30 1370 H 123.746 -3.21825 0.347934 0
M  V30 1371 H 122.653 -2.6865 2.60342 0
M  V30 1372 H 123.986 -3.54828 3.41113 0
M  V30 1373 N 125.638 -1.25649 -0.95132 0
M  V30 1374 C 126.601 -1.06399 -2.03007 0
M  V30 1375 C 127.601 -0.0156794 -1.60792 0
M  V30 1376 O 128.791 -0.25817 -1.72276 0
M  V30 1377 C 125.923 -0.616184 -3.35285 0
M  V30 1378 H 127.116 -2.02164 -2.21517 0
M  V30 1379 H 124.669 -1.08103 -1.12887 0
M  V30 1380 H 125.404 0.343917 -3.22471 0
M  V30 1381 H 125.189 -1.37301 -3.67275 0
M  V30 1382 H 126.679 -0.503032 -4.14559 0
M  V30 1383 N 127.117 1.15442 -1.07289 0
M  V30 1384 C 128.357 1.8788 -0.805012 0
M  V30 1385 C 128.721 1.80413 0.656907 0
M  V30 1386 O 129.922 2.47874 1.0398 0
M  V30 1387 C 128.193 3.3298 -1.29843 0
M  V30 1388 S 129.752 4.23158 -1.16114 0
M  V30 1389 H 126.57 0.64839 -0.291739 0
M  V30 1390 H 129.172 1.39285 -1.37186 0
M  V30 1391 H 127.876 3.35958 -2.35712 0
M  V30 1392 H 127.407 3.86629 -0.726767 0
M  V30 1393 H 129.422 4.96103 -0.0982778 0
M  V30 1394 N 128.595 0.856903 1.32268 0
M  V30 1395 C 129.525 0.31858 2.31316 0
M  V30 1396 C 130.506 -0.583487 1.59779 0
M  V30 1397 O 131.691 -0.503259 1.87566 0
M  V30 1398 C 128.821 -0.491979 3.43798 0
M  V30 1399 C 127.775 0.315849 4.26833 0
M  V30 1400 C 127.101 -0.619586 5.31098 0
M  V30 1401 C 128.401 1.54282 4.98993 0
M  V30 1402 H 130.095 1.14621 2.76591 0
M  V30 1403 H 127.641 0.552613 1.32974 0
M  V30 1404 H 129.594 -0.879012 4.1213 0
M  V30 1405 H 128.318 -1.35299 2.97257 0
M  V30 1406 H 126.977 0.684664 3.6015 0
M  V30 1407 H 126.625 -1.47751 4.8081 0
M  V30 1408 H 126.325 -0.0830621 5.87541 0
M  V30 1409 H 127.849 -1.00375 6.02293 0
M  V30 1410 H 129.263 1.22796 5.59995 0
M  V30 1411 H 127.66 2.01745 5.65172 0
M  V30 1412 H 128.73 2.30285 4.26728 0
M  V30 1413 N 130.073 -1.45103 0.615059 0
M  V30 1414 C 131.322 -2.01396 0.110718 0
M  V30 1415 C 131.635 -1.48834 -1.26916 0
M  V30 1416 O 132.841 -1.97152 -1.86664 0
M  V30 1417 C 131.297 -3.59599 0.14723 0
M  V30 1418 C 130.905 -4.21158 1.52743 0
M  V30 1419 C 132.649 -4.23428 -0.30148 0
M  V30 1420 C 130.556 -5.71535 1.51992 0
M  V30 1421 H 129.486 -0.753061 0.0376241 0
M  V30 1422 H 132.137 -1.66494 0.77149 0
M  V30 1423 H 130.519 -3.91724 -0.580339 0
M  V30 1424 H 131.693 -4.00594 2.2773 0
M  V30 1425 H 130.008 -3.69552 1.91886 0
M  V30 1426 H 132.605 -5.33703 -0.326392 0
M  V30 1427 H 132.948 -3.94629 -1.32565 0
M  V30 1428 H 133.481 -3.96047 0.373065 0
M  V30 1429 H 130.22 -6.05044 2.52193 0
M  V30 1430 H 129.74 -5.94268 0.81274 0
M  V30 1431 H 131.419 -6.34873 1.24681 0
M  V30 1432 N 131.551 -0.354651 -1.53558 0
M  V30 1433 C 132.481 0.489091 -2.2832 0
M  V30 1434 C 133.462 1.09324 -1.30316 0
M  V30 1435 O 134.647 1.11255 -1.59173 0
M  V30 1436 C 131.777 1.63456 -3.0643 0
M  V30 1437 C 130.731 1.1582 -4.12031 0
M  V30 1438 C 130.057 2.39305 -4.7816 0
M  V30 1439 C 131.357 0.250731 -5.21698 0
M  V30 1440 H 133.051 -0.134614 -2.99097 0
M  V30 1441 H 130.597 -0.0661826 -1.43848 0
M  V30 1442 H 132.55 2.23136 -3.57475 0
M  V30 1443 H 131.274 2.28533 -2.33325 0
M  V30 1444 H 129.933 0.584146 -3.61916 0
M  V30 1445 H 129.581 3.02814 -4.01637 0
M  V30 1446 H 129.281 2.08109 -5.49513 0
M  V30 1447 H 130.805 2.99691 -5.31994 0
M  V30 1448 H 132.219 0.754695 -5.68311 0
M  V30 1449 H 130.616 0.0301468 -6.00092 0
M  V30 1450 H 131.686 -0.710125 -4.79672 0
M  V30 1451 N 133.029 1.57378 -0.0835403 0
M  V30 1452 C 134.277 1.93547 0.581718 0
M  V30 1453 C 134.598 0.96524 1.69435 0
M  V30 1454 O 133.868 0.0153369 1.95894 0
M  V30 1455 H 132.448 0.714521 0.217874 0
M  V30 1456 H 135.11 1.94366 -0.144158 0
M  V30 1457 H 134.206 2.95665 0.999423 0
M  V30 1458 N 134.507 -0.190092 1.56449 0
M  V30 1459 C 135.753 -0.911052 1.81184 0
M  V30 1460 C 136.086 -1.82699 0.658396 0
M  V30 1461 O 135.361 -1.91491 -0.340775 0
M  V30 1462 C 135.644 -1.72297 3.16205 0
M  V30 1463 C 135.497 -0.831419 4.42049 0
M  V30 1464 C 136.816 -2.69454 3.47969 0
M  V30 1465 H 133.935 -0.32977 0.659106 0
M  V30 1466 H 136.577 -0.178169 1.89163 0
M  V30 1467 H 134.727 -2.34778 3.09534 0
M  V30 1468 H 136.399 -0.220929 4.60771 0
M  V30 1469 H 134.642 -0.138406 4.33579 0
M  V30 1470 H 135.313 -1.43461 5.33032 0
M  V30 1471 H 137.789 -2.17104 3.54972 0
M  V30 1472 H 136.665 -3.23342 4.43555 0
M  V30 1473 H 136.926 -3.48744 2.71717 0
M  V30 1474 N 135.985 -1.50799 -0.457987 0
M  V30 1475 C 136.932 -1.70617 -1.5543 0
M  V30 1476 C 137.902 -0.547562 -1.56815 0
M  V30 1477 O 139.087 -0.779647 -1.74144 0
M  V30 1478 C 136.227 -1.81831 -2.93311 0
M  V30 1479 C 135.34 -3.09278 -3.01615 0
M  V30 1480 C 134.475 -3.11209 -4.30491 0
M  V30 1481 C 133.514 -4.33055 -4.32585 0
M  V30 1482 N 132.651 -4.32652 -5.52952 0
M  V30 1483 H 137.491 -2.64207 -1.37836 0
M  V30 1484 H 135.028 -1.30959 -0.669937 0
M  V30 1485 H 136.986 -1.86314 -3.73287 0
M  V30 1486 H 135.616 -0.916685 -3.0951 0
M  V30 1487 H 134.668 -3.14203 -2.1443 0
M  V30 1488 H 135.98 -3.99233 -2.99022 0
M  V30 1489 H 135.134 -3.14494 -5.18824 0
M  V30 1490 H 133.873 -2.19106 -4.35711 0
M  V30 1491 H 132.878 -4.29969 -3.42647 0
M  V30 1492 H 134.103 -5.264 -4.29046 0
M  V30 1493 H 132.049 -3.43409 -5.58933 0
M  V30 1494 H 131.966 -5.16392 -5.52155 0
M  V30 1495 H 133.234 -4.40101 -6.43375 0
M  V30 1496 N 137.463 0.71206 -1.40597 0
M  V30 1497 C 138.879 1.02058 -1.22704 0
M  V30 1498 C 139.079 2.01228 -0.104729 0
M  V30 1499 O 138.135 2.4674 0.53624 0
M  V30 1500 C 139.448 1.56094 -2.57012 0
M  V30 1501 C 140.996 1.6806 -2.64054 0
M  V30 1502 C 141.471 2.25501 -3.9864 0
M  V30 1503 N 142.962 2.32882 -4.004 0
M  V30 1504 C 143.697 2.78317 -5.01325 0
M  V30 1505 N 143.193 3.23478 -6.12645 0
M  V30 1506 N 144.986 2.77733 -4.88693 0
M  V30 1507 H 137.137 0.0547896 -2.12329 0
M  V30 1508 H 139.4 0.0869027 -0.944008 0
M  V30 1509 H 139.106 0.906865 -3.39807 0
M  V30 1510 H 138.98 2.54564 -2.78347 0
M  V30 1511 H 141.367 2.32583 -1.81629 0
M  V30 1512 H 141.448 0.681802 -2.46546 0
M  V30 1513 H 141.092 1.61598 -4.81506 0
M  V30 1514 H 141.022 3.26102 -4.13479 0
M  V30 1515 H 143.513 2.00991 -3.20017 0
M  V30 1516 H 143.826 3.56725 -6.85542 0
M  V30 1517 H 142.171 3.21429 -6.16205 0
M  V30 1518 H 145.362 2.4179 -4.00818 0
M  V30 1519 H 145.535 3.12826 -5.67489 0
M  V30 1520 N 138.941 1.26152 0.944643 0
M  V30 1521 C 140.352 1.10454 1.50522 0
M  V30 1522 C 140.703 -0.31635 1.93633 0
M  V30 1523 O 139.828 -1.20746 1.79581 0
M  V30 1524 C 140.423 1.99891 2.73549 0
M  V30 1525 C 138.982 1.88348 3.25886 0
M  V30 1526 C 138.129 1.93447 1.9868 0
M  V30 1527 H 141.08 1.39292 0.760489 0
M  V30 1528 H 141.101 1.54477 3.47732 0
M  V30 1529 H 140.613 3.03297 2.42141 0
M  V30 1530 H 138.714 0.878636 3.62092 0
M  V30 1531 H 138.827 2.73696 3.93227 0
M  V30 1532 H 137.191 1.37456 2.14425 0
M  V30 1533 H 137.974 2.98476 1.69607 0
M  V30 1534 N 140.419 -1.14872 1.07899 0
M  V30 1535 C 141.83 -1.67367 0.827363 0
M  V30 1536 C 142.181 -1.85236 -0.646693 0
M  V30 1537 O 141.306 -1.55974 -1.50004 0
M  V30 1538 C 141.901 -3.04016 1.49532 0
M  V30 1539 C 140.46 -3.53566 1.29106 0
M  V30 1540 C 139.607 -2.29161 1.56143 0
M  V30 1541 H 142.558 -0.990083 1.24028 0
M  V30 1542 H 142.579 -3.69219 0.919643 0
M  V30 1543 H 142.091 -2.90978 2.56814 0
M  V30 1544 H 140.192 -3.71835 0.238713 0
M  V30 1545 H 140.305 -4.34661 2.01511 0
M  V30 1546 H 138.669 -2.34978 0.982717 0
M  V30 1547 H 139.452 -2.18705 2.64619 0
M  V30 1548 N 141.898 -0.863906 -1.31812 0
M  V30 1549 C 142.808 -0.318461 -2.32428 0
M  V30 1550 C 143.824 0.568496 -1.64451 0
M  V30 1551 O 145 0.46666 -1.95919 0
M  V30 1552 C 142.065 0.476355 -3.43412 0
M  V30 1553 C 141.126 -0.43784 -4.27061 0
M  V30 1554 C 140.359 0.319138 -5.32745 0
M  V30 1555 O 140.582 1.54799 -5.48993 0
M  V30 1556 O 139.516 -0.319861 -6.01049 0
M  V30 1557 H 143.342 -1.15229 -2.80991 0
M  V30 1558 H 140.927 -0.627103 -1.35602 0
M  V30 1559 H 142.809 0.927156 -4.11074 0
M  V30 1560 H 141.484 1.28683 -2.97022 0
M  V30 1561 H 140.391 -0.937013 -3.62175 0
M  V30 1562 H 141.724 -1.21375 -4.77 0
M  V30 1563 N 143.376 1.44774 -0.622745 0
M  V30 1564 C 144.286 2.34433 0.0886031 0
M  V30 1565 C 145.302 1.52131 0.844529 0
M  V30 1566 O 146.478 1.84886 0.798691 0
M  V30 1567 C 143.543 3.29986 1.0635 0
M  V30 1568 C 142.604 4.28195 0.307873 0
M  V30 1569 C 141.837 5.19183 1.23633 0
M  V30 1570 O 142.06 5.13918 2.47476 0
M  V30 1571 O 140.994 5.97515 0.725189 0
M  V30 1572 H 144.82 2.96693 -0.648599 0
M  V30 1573 H 142.405 1.44408 -0.382957 0
M  V30 1574 H 144.287 3.88825 1.6246 0
M  V30 1575 H 142.962 2.70269 1.78146 0
M  V30 1576 H 141.869 3.72927 -0.296064 0
M  V30 1577 H 143.202 4.90808 -0.3699 0
M  V30 1578 N 144.854 0.36279 1.53368 0
M  V30 1579 C 145.801 -0.485008 2.25646 0
M  V30 1580 C 146.771 -1.07982 1.2621 0
M  V30 1581 O 147.956 -1.11284 1.54986 0
M  V30 1582 C 145.096 -1.62023 3.04701 0
M  V30 1583 C 144.209 -1.05086 4.19024 0
M  V30 1584 C 143.344 -2.15496 4.85525 0
M  V30 1585 C 142.383 -1.5601 5.91884 0
M  V30 1586 N 141.52 -2.60241 6.52088 0
M  V30 1587 H 146.36 0.137864 2.97681 0
M  V30 1588 H 143.897 0.0798061 1.46883 0
M  V30 1589 H 145.855 -2.28887 3.48807 0
M  V30 1590 H 144.485 -2.2138 2.34927 0
M  V30 1591 H 143.537 -0.27259 3.79422 0
M  V30 1592 H 144.849 -0.575926 4.95464 0
M  V30 1593 H 144.003 -2.90186 5.32801 0
M  V30 1594 H 142.742 -2.66341 4.08551 0
M  V30 1595 H 141.747 -0.798338 5.43973 0
M  V30 1596 H 142.972 -1.05994 6.70777 0
M  V30 1597 H 140.918 -3.10304 5.77968 0
M  V30 1598 H 140.835 -2.17426 7.24059 0
M  V30 1599 H 142.103 -3.34641 7.04014 0
M  V30 1600 N 146.332 -1.57332 0.0918853 0
M  V30 1601 C 147.262 -2.16872 -0.865371 0
M  V30 1602 C 148.243 -1.10118 -1.29646 0
M  V30 1603 O 149.428 -1.38242 -1.36392 0
M  V30 1604 C 146.558 -2.74649 -2.12569 0
M  V30 1605 C 145.512 -3.86747 -1.83333 0
M  V30 1606 C 144.838 -4.31212 -3.16166 0
M  V30 1607 C 146.138 -5.10089 -1.1228 0
M  V30 1608 H 147.832 -2.97114 -0.369307 0
M  V30 1609 H 145.378 -1.42918 -0.176194 0
M  V30 1610 H 147.331 -3.14952 -2.7997 0
M  V30 1611 H 146.055 -1.91657 -2.64452 0
M  V30 1612 H 144.714 -3.46978 -1.18331 0
M  V30 1613 H 144.362 -3.45115 -3.6593 0
M  V30 1614 H 144.062 -5.06788 -2.97388 0
M  V30 1615 H 145.586 -4.74146 -3.84731 0
M  V30 1616 H 147 -5.47582 -1.69785 0
M  V30 1617 H 145.397 -5.91073 -1.03693 0
M  V30 1618 H 146.467 -4.84786 -0.105041 0
M  V30 1619 N 147.81 0.181792 -1.56548 0
M  V30 1620 C 148.743 1.25366 -1.90679 0
M  V30 1621 C 149.721 1.43299 -0.768376 0
M  V30 1622 O 150.905 1.58475 -1.02068 0
M  V30 1623 C 148.032 2.61826 -2.1486 0
M  V30 1624 C 147.078 2.60688 -3.37556 0
M  V30 1625 S 147.911 2.10804 -4.92262 0
M  V30 1626 C 149.067 3.49062 -5.19525 0
M  V30 1627 H 149.3 0.962277 -2.81296 0
M  V30 1628 H 146.833 0.385892 -1.495 0
M  V30 1629 H 148.791 3.40371 -2.29473 0
M  V30 1630 H 147.452 2.88169 -1.24969 0
M  V30 1631 H 146.645 3.61058 -3.51643 0
M  V30 1632 H 146.247 1.90232 -3.22006 0
M  V30 1633 H 148.539 4.45003 -5.10861 0
M  V30 1634 H 149.482 3.39859 -6.2121 0
M  V30 1635 H 149.89 3.4459 -4.47122 0
M  V30 1636 N 149.288 1.51039 0.449983 0
M  V30 1637 C 150.513 1.6715 1.22783 0
M  V30 1638 C 150.938 0.363081 1.84563 0
M  V30 1639 O 150.296 -0.675433 1.68249 0
M  V30 1640 C 150.344 2.77985 2.29689 0
M  V30 1641 O 149.448 2.40707 3.34864 0
M  V30 1642 H 148.789 0.557746 0.360299 0
M  V30 1643 H 151.319 1.97535 0.533005 0
M  V30 1644 H 151.329 3.01693 2.74673 0
M  V30 1645 H 150.004 3.72935 1.84098 0
M  V30 1646 H 148.581 2.27523 2.95445 0
M  V30 1647 N 150.766 -0.704594 1.40972 0
M  V30 1648 C 152.182 -1.01406 1.23244 0
M  V30 1649 C 152.382 -2.01169 0.115399 0
M  V30 1650 O 151.438 -2.47021 -0.523147 0
M  V30 1651 C 152.751 -1.54728 2.57836 0
M  V30 1652 C 154.299 -1.66658 2.64942 0
M  V30 1653 C 154.774 -2.23383 3.9983 0
M  V30 1654 N 156.265 -2.30756 4.01629 0
M  V30 1655 C 157 -2.75655 5.02794 0
M  V30 1656 N 156.496 -3.20225 6.14352 0
M  V30 1657 N 158.289 -2.75138 4.90159 0
M  V30 1658 H 150.44 -0.0435285 2.12355 0
M  V30 1659 H 152.703 -0.0818951 0.944456 0
M  V30 1660 H 152.409 -0.888832 3.40283 0
M  V30 1661 H 152.283 -2.53084 2.79693 0
M  V30 1662 H 154.67 -2.31617 1.8286 0
M  V30 1663 H 154.751 -0.668717 2.46904 0
M  V30 1664 H 154.395 -1.59043 4.82357 0
M  V30 1665 H 154.325 -3.23904 4.15203 0
M  V30 1666 H 156.816 -1.99291 3.21079 0
M  V30 1667 H 157.129 -3.53084 6.87424 0
M  V30 1668 H 155.474 -3.18156 6.17901 0
M  V30 1669 H 158.665 -2.39661 4.02095 0
M  V30 1670 H 158.838 -3.09812 5.6914 0
M  V30 1671 N 152.244 -1.26651 -0.937939 0
M  V30 1672 C 153.191 -1.0849 -2.03712 0
M  V30 1673 C 154.161 0.011033 -1.66096 0
M  V30 1674 O 155.346 -0.149353 -1.90215 0
M  V30 1675 C 152.486 -0.72735 -3.37348 0
M  V30 1676 C 151.599 -1.89986 -3.87981 0
M  V30 1677 C 150.734 -1.48513 -5.10017 0
M  V30 1678 C 149.773 -2.62575 -5.5292 0
M  V30 1679 N 148.91 -2.21762 -6.66158 0
M  V30 1680 H 153.75 -2.02551 -2.18579 0
M  V30 1681 H 151.287 -1.00844 -1.07093 0
M  V30 1682 H 153.245 -0.50092 -4.14182 0
M  V30 1683 H 151.875 0.176298 -3.22318 0
M  V30 1684 H 150.927 -2.23913 -3.07518 0
M  V30 1685 H 152.239 -2.75586 -4.15757 0
M  V30 1686 H 151.393 -1.21934 -5.94321 0
M  V30 1687 H 150.132 -0.60009 -4.83994 0
M  V30 1688 H 149.137 -2.8988 -4.67172 0
M  V30 1689 H 150.362 -3.51685 -5.80943 0
M  V30 1690 H 148.308 -1.35696 -6.41812 0
M  V30 1691 H 148.225 -3.00903 -6.93537 0
M  V30 1692 H 149.493 -1.98403 -7.53828 0
M  V30 1693 N 153.722 1.14298 -1.08507 0
M  V30 1694 C 154.95 1.89219 -0.836876 0
M  V30 1695 C 155.365 1.78638 0.611054 0
M  V30 1696 O 154.722 1.14643 1.41998 0
M  V30 1697 C 154.773 3.39158 -1.25116 0
M  V30 1698 O 154.494 3.49449 -2.64229 0
M  V30 1699 C 155.995 4.31073 -1.03398 0
M  V30 1700 H 153.215 0.599328 -0.301739 0
M  V30 1701 H 155.759 1.44746 -1.44461 0
M  V30 1702 H 153.914 3.81251 -0.687514 0
M  V30 1703 H 154.328 4.42589 -2.81452 0
M  V30 1704 H 155.802 5.34646 -1.37323 0
M  V30 1705 H 156.279 4.3919 0.0289259 0
M  V30 1706 H 156.885 3.94738 -1.58311 0
M  V30 1707 N 155.201 0.870884 1.31352 0
M  V30 1708 C 156.431 0.496049 2.00557 0
M  V30 1709 C 156.839 -0.916241 1.65534 0
M  V30 1710 O 156.182 -1.61188 0.881134 0
M  V30 1711 C 156.244 0.574418 3.54881 0
M  V30 1712 C 155.908 1.94849 4.1338 0
M  V30 1713 C 156.905 2.91611 4.30417 0
M  V30 1714 C 154.59 2.25005 4.49086 0
M  V30 1715 C 156.584 4.16672 4.82352 0
M  V30 1716 C 154.271 3.50315 5.00722 0
M  V30 1717 C 155.269 4.45964 5.17306 0
M  V30 1718 O 154.957 5.69052 5.67833 0
M  V30 1719 H 154.689 0.191664 0.64826 0
M  V30 1720 H 157.243 1.17409 1.68536 0
M  V30 1721 H 155.473 -0.160549 3.86367 0
M  V30 1722 H 157.162 0.212879 4.05341 0
M  V30 1723 H 157.928 2.69622 4.03149 0
M  V30 1724 H 153.807 1.51332 4.35453 0
M  V30 1725 H 157.351 4.91336 4.95211 0
M  V30 1726 H 153.248 3.72147 5.27424 0
M  V30 1727 H 154.016 5.71236 5.86201 0
M  V30 1728 N 156.679 -1.44442 0.630414 0
M  V30 1729 C 157.642 -2.29107 -0.0652523 0
M  V30 1730 C 158.642 -1.41002 -0.772995 0
M  V30 1731 O 159.832 -1.62881 -0.617692 0
M  V30 1732 C 156.964 -3.22564 -1.10296 0
M  V30 1733 H 158.157 -2.92103 0.679401 0
M  V30 1734 H 155.71 -1.51343 0.390517 0
M  V30 1735 H 156.445 -2.64416 -1.87762 0
M  V30 1736 H 156.23 -3.87491 -0.59941 0
M  V30 1737 H 157.72 -3.86167 -1.5895 0
M  V30 1738 N 158.157 -0.370918 -1.53173 0
M  V30 1739 C 159.404 0.217102 -2.01333 0
M  V30 1740 C 159.732 1.48338 -1.25802 0
M  V30 1741 O 158.987 1.92698 -0.34146 0
M  V30 1742 C 159.286 0.549696 -3.53147 0
M  V30 1743 C 158.952 -0.622872 -4.46577 0
M  V30 1744 C 157.614 -0.944595 -4.71838 0
M  V30 1745 C 159.966 -1.40819 -5.01816 0
M  V30 1746 C 157.294 -2.05351 -5.49589 0
M  V30 1747 C 159.646 -2.50757 -5.80778 0
M  V30 1748 C 158.31 -2.83458 -6.04324 0
M  V30 1749 H 157.58 0.0794431 -0.736729 0
M  V30 1750 H 160.227 -0.504481 -1.84736 0
M  V30 1751 H 158.532 1.35237 -3.6772 0
M  V30 1752 H 160.229 1.017 -3.87889 0
M  V30 1753 H 156.819 -0.36209 -4.27068 0
M  V30 1754 H 161.003 -1.17289 -4.82242 0
M  V30 1755 H 156.259 -2.3108 -5.6605 0
M  V30 1756 H 160.433 -3.12022 -6.22588 0
M  V30 1757 H 158.06 -3.69508 -6.64355 0
M  V30 1758 N 159.635 1.57281 -0.100228 0
M  V30 1759 C 160.882 1.94537 0.562268 0
M  V30 1760 C 161.21 0.982315 1.67871 0
M  V30 1761 O 160.465 0.00280936 1.957 0
M  V30 1762 C 160.764 3.38305 1.15259 0
M  V30 1763 C 160.43 4.50618 0.159409 0
M  V30 1764 C 159.092 4.81066 -0.113741 0
M  V30 1765 C 161.444 5.18615 -0.518461 0
M  V30 1766 C 158.772 5.76835 -1.07137 0
M  V30 1767 C 161.124 6.15412 -1.46459 0
M  V30 1768 C 159.788 6.44262 -1.74592 0
M  V30 1769 H 159.058 0.711863 0.205748 0
M  V30 1770 H 161.705 1.90679 -0.17715 0
M  V30 1771 H 160.01 3.38766 1.96836 0
M  V30 1772 H 161.707 3.64435 1.67297 0
M  V30 1773 H 158.297 4.2689 0.382491 0
M  V30 1774 H 162.481 4.95264 -0.320581 0
M  V30 1775 H 157.737 5.975 -1.29628 0
M  V30 1776 H 161.911 6.67194 -1.99564 0
M  V30 1777 H 159.538 7.1828 -2.48953 0
M  V30 1778 N 161.113 -0.173488 1.56642 0
M  V30 1779 C 162.338 -0.910149 1.86363 0
M  V30 1780 C 162.763 -1.75132 0.686318 0
M  V30 1781 O 162.121 -1.77595 -0.364643 0
M  V30 1782 C 162.169 -1.76447 3.14482 0
M  V30 1783 O 161.273 -2.86584 2.96553 0
M  V30 1784 H 160.614 -0.255086 0.613047 0
M  V30 1785 H 163.144 -0.172283 2.03873 0
M  V30 1786 H 163.154 -2.16483 3.45831 0
M  V30 1787 H 161.829 -1.14658 3.99783 0
M  V30 1788 H 160.406 -2.50146 2.76553 0
M  V30 1789 N 162.591 -1.51276 -0.441967 0
M  V30 1790 C 163.541 -1.6864 -1.53442 0
M  V30 1791 C 164.525 -0.540444 -1.51552 0
M  V30 1792 O 165.717 -0.796157 -1.58083 0
M  V30 1793 C 162.846 -1.8106 -2.91672 0
M  V30 1794 C 161.932 -3.01424 -2.98336 0
M  V30 1795 N 162.323 -4.2467 -2.74752 0
M  V30 1796 C 160.621 -3.00584 -3.29493 0
M  V30 1797 C 161.322 -5.05891 -2.87139 0
M  V30 1798 N 160.298 -4.40442 -3.18609 0
M  V30 1799 H 164.1 -2.61598 -1.33954 0
M  V30 1800 H 161.614 -1.4886 -0.6492 0
M  V30 1801 H 163.611 -1.91609 -3.70259 0
M  V30 1802 H 162.271 -0.892795 -3.12185 0
M  V30 1803 H 163.282 -4.53691 -2.49769 0
M  V30 1804 H 159.959 -2.18417 -3.55809 0
M  V30 1805 H 161.349 -6.13983 -2.72899 0
M  V30 1806 N 164.069 0.697108 -1.41344 0
M  V30 1807 C 165.297 1.48593 -1.43972 0
M  V30 1808 C 165.712 1.88747 -0.0445612 0
M  V30 1809 O 165.069 1.56682 0.935785 0
M  V30 1810 C 165.12 2.74946 -2.34706 0
M  V30 1811 O 164.841 2.36484 -3.68791 0
M  V30 1812 C 166.342 3.687 -2.46121 0
M  V30 1813 H 163.562 0.457964 -0.490418 0
M  V30 1814 H 166.106 0.858429 -1.8561 0
M  V30 1815 H 164.261 3.33937 -1.9638 0
M  V30 1816 H 164.675 3.17918 -4.17167 0
M  V30 1817 H 166.149 4.54145 -3.13777 0
M  V30 1818 H 166.626 4.13081 -1.49199 0
M  V30 1819 H 167.232 3.15613 -2.85076 0
M  V30 1820 N 165.547 1.27147 0.931209 0
M  V30 1821 C 166.796 1.12664 1.67302 0
M  V30 1822 C 167.109 -0.327718 1.92835 0
M  V30 1823 O 168.315 -0.593392 2.64936 0
M  V30 1824 C 166.771 1.9683 3.01307 0
M  V30 1825 C 166.379 3.46901 2.83485 0
M  V30 1826 C 168.123 1.90985 3.79111 0
M  V30 1827 C 166.03 4.23279 4.13024 0
M  V30 1828 H 164.96 0.41803 0.627509 0
M  V30 1829 H 167.611 1.51539 1.03481 0
M  V30 1830 H 165.993 1.50797 3.66164 0
M  V30 1831 H 167.167 4.00773 2.27415 0
M  V30 1832 H 165.482 3.54088 2.19113 0
M  V30 1833 H 168.079 2.45328 4.75098 0
M  V30 1834 H 168.422 0.882718 4.06834 0
M  V30 1835 H 168.955 2.34895 3.21044 0
M  V30 1836 H 165.694 5.26503 3.90481 0
M  V30 1837 H 165.214 3.74186 4.6877 0
M  V30 1838 H 166.893 4.32265 4.81411 0
M  V30 1839 N 167.025 -1.13721 1.09112 0
M  V30 1840 C 167.972 -2.19031 0.727591 0
M  V30 1841 C 168.942 -1.63555 -0.289656 0
M  V30 1842 O 170.127 -1.90023 -0.172026 0
M  V30 1843 C 167.267 -3.4477 0.15082 0
M  V30 1844 C 166.38 -4.14365 1.22172 0
M  V30 1845 C 165.515 -5.27709 0.608042 0
M  V30 1846 C 164.554 -5.89147 1.66047 0
M  V30 1847 N 163.691 -6.93929 1.06806 0
M  V30 1848 H 168.531 -2.49475 1.62991 0
M  V30 1849 H 166.068 -1.22499 0.81439 0
M  V30 1850 H 168.026 -4.16714 -0.201358 0
M  V30 1851 H 166.656 -3.14787 -0.714783 0
M  V30 1852 H 165.708 -3.40737 1.69122 0
M  V30 1853 H 167.02 -4.56114 2.01895 0
M  V30 1854 H 166.174 -6.06355 0.204523 0
M  V30 1855 H 164.913 -4.872 -0.220769 0
M  V30 1856 H 163.918 -5.09198 2.07357 0
M  V30 1857 H 165.143 -6.31729 2.49189 0
M  V30 1858 H 163.089 -6.55483 0.260476 0
M  V30 1859 H 163.006 -7.34202 1.8023 0
M  V30 1860 H 164.274 -7.76434 0.690644 0
M  V30 1861 N 168.503 -0.877838 -1.30888 0
M  V30 1862 C 169.466 -0.344265 -2.266 0
M  V30 1863 C 170.466 0.50922 -1.52524 0
M  V30 1864 O 171.656 0.317398 -1.71284 0
M  V30 1865 C 168.788 0.510198 -3.37061 0
M  V30 1866 H 169.981 -1.1893 -2.7531 0
M  V30 1867 H 167.534 -0.654088 -1.41956 0
M  V30 1868 H 168.269 1.37612 -2.93655 0
M  V30 1869 H 168.054 -0.101047 -3.9197 0
M  V30 1870 H 169.544 0.875537 -4.08319 0
M  V30 1871 N 169.982 1.44106 -0.638065 0
M  V30 1872 C 170.914 2.28976 0.101205 0
M  V30 1873 C 171.927 1.4167 0.802088 0
M  V30 1874 O 173.116 1.65755 0.662375 0
M  V30 1875 C 170.216 3.18217 1.16581 0
M  V30 1876 C 169.389 4.33978 0.546066 0
M  V30 1877 C 168.448 5.04202 1.50554 0
M  V30 1878 O 167.474 5.59986 1.01999 0
M  V30 1879 N 168.676 5.06296 2.8398 0
M  V30 1880 H 171.441 2.93064 -0.627186 0
M  V30 1881 H 169.002 1.54629 -0.479731 0
M  V30 1882 H 170.994 3.62061 1.80815 0
M  V30 1883 H 169.564 2.55833 1.79634 0
M  V30 1884 H 168.784 3.93239 -0.275046 0
M  V30 1885 H 170.072 5.08675 0.112793 0
M  V30 1886 H 169.47 4.62319 3.26002 0
M  V30 1887 H 168.027 5.53907 3.43556 0
M  V30 1888 N 171.46 0.379036 1.52974 0
M  V30 1889 C 172.37 -0.468639 2.29872 0
M  V30 1890 C 173.386 -1.08067 1.36373 0
M  V30 1891 O 174.562 -1.08871 1.69438 0
M  V30 1892 C 171.627 -1.58594 3.083 0
M  V30 1893 C 170.688 -1.00007 4.17489 0
M  V30 1894 C 169.921 -2.06413 4.92168 0
M  V30 1895 O 170.144 -3.27751 4.66835 0
M  V30 1896 O 169.078 -1.68717 5.7777 0
M  V30 1897 H 172.904 0.157508 3.03291 0
M  V30 1898 H 170.489 0.143035 1.48714 0
M  V30 1899 H 172.371 -2.23525 3.57232 0
M  V30 1900 H 171.046 -2.19724 2.37703 0
M  V30 1901 H 169.953 -0.314299 3.72777 0
M  V30 1902 H 171.286 -0.433135 4.90291 0
M  V30 1903 N 172.938 -1.57226 0.108567 0
M  V30 1904 C 173.901 -2.13602 -0.831082 0
M  V30 1905 C 174.901 -1.06841 -1.20173 0
M  V30 1906 O 176.091 -1.32666 -1.12895 0
M  V30 1907 C 173.223 -2.66769 -2.12243 0
M  V30 1908 H 174.416 -2.97951 -0.341317 0
M  V30 1909 H 171.969 -1.55667 -0.14057 0
M  V30 1910 H 172.704 -1.85977 -2.65675 0
M  V30 1911 H 172.489 -3.44839 -1.86625 0
M  V30 1912 H 173.979 -3.10332 -2.79435 0
M  V30 1913 N 174.416 0.165178 -1.56732 0
M  V30 1914 C 175.364 1.22369 -1.97809 0
M  V30 1915 C 176.358 1.45488 -0.867741 0
M  V30 1916 O 177.564 1.45995 -1.05288 0
M  V30 1917 H 173.939 0.411486 -0.629431 0
M  V30 1918 H 175.91 0.850425 -2.86025 0
M  V30 1919 C 174.659 2.55403 -2.35934 0
M  V30 1920 H 173.982 2.38438 -3.20916 0
M  V30 1921 H 175.422 3.2814 -2.68514 0
M  V30 1922 C 173.881 3.14611 -1.20506 0
M  V30 1923 O 174.411 3.98626 -0.496016 0
M  V30 1924 N 172.617 2.7379 -0.97403 0
M  V30 1925 H 172.164 2.0557 -1.55238 0
M  V30 1926 H 172.122 3.1374 -0.203573 0
M  V30 1927 N 175.894 1.51508 0.433938 0
M  V30 1928 C 176.827 1.67756 1.54704 0
M  V30 1929 C 177.805 0.525127 1.53887 0
M  V30 1930 O 178.989 0.749393 1.72963 0
M  V30 1931 C 176.116 1.69424 2.9328 0
M  V30 1932 C 175.162 2.90673 3.12108 0
M  V30 1933 S 175.995 4.51431 2.88046 0
M  V30 1934 C 177.151 4.55849 4.28897 0
M  V30 1935 H 177.384 2.61904 1.40689 0
M  V30 1936 H 174.917 1.41235 0.62386 0
M  V30 1937 H 176.875 1.7107 3.73156 0
M  V30 1938 H 175.536 0.764464 3.04655 0
M  V30 1939 H 174.729 2.88251 4.13434 0
M  V30 1940 H 174.331 2.86786 2.40062 0
M  V30 1941 H 176.623 4.31699 5.22152 0
M  V30 1942 H 177.566 5.57676 4.36351 0
M  V30 1943 H 177.974 3.85137 4.12711 0
M  V30 1944 N 177.372 -0.689602 1.41712 0
M  V30 1945 C 178.62 -1.4468 1.4111 0
M  V30 1946 C 178.941 -1.94986 0.0232196 0
M  V30 1947 O 178.211 -1.72097 -0.935913 0
M  V30 1948 H 176.791 -0.536847 0.519427 0
M  V30 1949 H 179.453 -0.815825 1.77004 0
M  V30 1950 H 178.549 -2.30706 2.10193 0
M  V30 1951 N 178.85 -1.27639 -0.924453 0
M  V30 1952 C 179.78 -1.13166 -2.04244 0
M  V30 1953 C 180.761 -0.032256 -1.70069 0
M  V30 1954 O 181.946 -0.207328 -1.9309 0
M  V30 1955 C 179.076 -0.781496 -3.38393 0
M  V30 1956 C 178.03 -1.83449 -3.86692 0
M  V30 1957 C 177.356 -1.33822 -5.17683 0
M  V30 1958 C 178.656 -3.23917 -4.09726 0
M  V30 1959 H 180.35 -2.06689 -2.1661 0
M  V30 1960 H 177.896 -0.995136 -1.04082 0
M  V30 1961 H 179.849 -0.667057 -4.16087 0
M  V30 1962 H 178.573 0.189439 -3.2605 0
M  V30 1963 H 177.232 -1.93789 -3.11193 0
M  V30 1964 H 176.88 -0.35665 -5.01734 0
M  V30 1965 H 176.58 -2.04224 -5.50968 0
M  V30 1966 H 178.104 -1.23679 -5.97943 0
M  V30 1967 H 179.518 -3.16559 -4.77978 0
M  V30 1968 H 177.915 -3.92059 -4.54324 0
M  V30 1969 H 178.985 -3.68729 -3.14908 0
M  V30 1970 N 180.328 1.1314 -1.09713 0
M  V30 1971 C 181.258 2.20748 -0.761102 0
M  V30 1972 C 182.239 1.68061 0.262566 0
M  V30 1973 O 183.424 1.93765 0.129977 0
M  V30 1974 C 180.554 3.46812 -0.184054 0
M  V30 1975 C 179.508 4.12606 -1.13757 0
M  V30 1976 C 178.834 5.33031 -0.422083 0
M  V30 1977 C 180.134 4.59603 -2.48118 0
M  V30 1978 H 181.828 2.49113 -1.66082 0
M  V30 1979 H 179.374 1.19734 -0.799987 0
M  V30 1980 H 181.327 4.21353 0.0631215 0
M  V30 1981 H 180.051 3.17851 0.750868 0
M  V30 1982 H 178.71 3.40036 -1.37007 0
M  V30 1983 H 178.358 5.00335 0.517072 0
M  V30 1984 H 178.058 5.77999 -1.05788 0
M  V30 1985 H 179.582 6.10325 -0.183277 0
M  V30 1986 H 180.996 5.25552 -2.29059 0
M  V30 1987 H 179.393 5.15321 -3.07514 0
M  V30 1988 H 180.463 3.73971 -3.08665 0
M  V30 1989 N 181.806 0.884767 1.30421 0
M  V30 1990 C 183.083 0.423185 1.90967 0
M  V30 1991 C 183.463 -1.09605 1.80416 0
M  V30 1992 O 182.811 -1.93126 1.22125 0
M  V30 1993 C 183.021 0.921056 3.36627 0
M  V30 1994 C 184.369 0.955903 4.137 0
M  V30 1995 O 185.393 0.867706 3.4547 0
M  V30 1996 O 184.252 1.08614 5.35598 0
M  V30 1997 H 181.346 0.129369 0.816819 0
M  V30 1998 H 183.892 0.973653 1.3899 0
M  V30 1999 H 182.664 1.96489 3.3839 0
M  V30 2000 H 182.287 0.349741 3.96059 0
M  V30 2001 N 183.284 -1.43765 0.645699 0
M  V30 2002 C 184.194 -2.34544 -0.0512957 0
M  V30 2003 C 185.21 -1.53455 -0.82022 0
M  V30 2004 O 186.386 -1.86133 -0.769176 0
M  V30 2005 C 183.451 -3.31636 -1.01087 0
M  V30 2006 C 182.512 -4.2863 -0.239712 0
M  V30 2007 C 181.745 -5.21084 -1.15358 0
M  V30 2008 O 181.968 -5.1779 -2.39269 0
M  V30 2009 O 180.902 -5.98593 -0.630038 0
M  V30 2010 H 184.728 -2.95624 0.695718 0
M  V30 2011 H 182.313 -1.43781 0.405882 0
M  V30 2012 H 184.195 -3.9136 -1.56254 0
M  V30 2013 H 182.87 -2.73069 -1.73824 0
M  V30 2014 H 181.777 -3.72408 0.355356 0
M  V30 2015 H 183.11 -4.90157 0.447936 0
M  V30 2016 N 184.763 -0.387143 -1.52771 0
M  V30 2017 C 186.012 0.19697 -2.00736 0
M  V30 2018 C 186.325 1.48082 -1.27793 0
M  V30 2019 O 187.531 2.14485 -1.66458 0
M  V30 2020 C 185.987 0.401568 -3.57653 0
M  V30 2021 C 185.595 -0.868907 -4.39493 0
M  V30 2022 C 187.339 0.942164 -4.13912 0
M  V30 2023 C 185.246 -0.632705 -5.88006 0
M  V30 2024 H 184.176 0.0773827 -0.750019 0
M  V30 2025 H 186.827 -0.50921 -1.76293 0
M  V30 2026 H 185.209 1.16954 -3.78335 0
M  V30 2027 H 186.383 -1.64133 -4.30577 0
M  V30 2028 H 184.698 -1.33429 -3.94443 0
M  V30 2029 H 187.295 1.13455 -5.22525 0
M  V30 2030 H 187.638 1.9106 -3.69867 0
M  V30 2031 H 188.171 0.233814 -3.97112 0
M  V30 2032 H 184.91 -1.57208 -6.36369 0
M  V30 2033 H 184.43 0.100825 -5.99715 0
M  V30 2034 H 186.109 -0.26642 -6.46451 0
M  V30 2035 N 186.241 1.57166 -0.116904 0
M  V30 2036 C 187.171 2.18222 0.830759 0
M  V30 2037 C 188.152 1.12167 1.27877 0
M  V30 2038 O 189.337 1.40394 1.34176 0
M  V30 2039 C 186.467 2.77996 2.08172 0
M  V30 2040 C 185.421 3.89614 1.77157 0
M  V30 2041 C 184.747 4.36187 3.09265 0
M  V30 2042 C 186.047 5.1181 1.04151 0
M  V30 2043 H 187.741 2.97664 0.321992 0
M  V30 2044 H 185.287 1.4318 0.153434 0
M  V30 2045 H 187.24 3.19366 2.74924 0
M  V30 2046 H 185.964 1.9584 2.6137 0
M  V30 2047 H 184.623 3.48816 1.12796 0
M  V30 2048 H 184.271 3.50893 3.60393 0
M  V30 2049 H 183.971 5.11455 2.89288 0
M  V30 2050 H 185.495 4.80207 3.77139 0
M  V30 2051 H 186.909 5.50214 1.61052 0
M  V30 2052 H 185.306 5.92648 0.942762 0
M  V30 2053 H 186.376 4.84892 0.0279022 0
M  V30 2054 N 187.719 -0.156864 1.56817 0
M  V30 2055 C 188.666 -1.19394 1.97519 0
M  V30 2056 C 189.636 -1.4322 0.841265 0
M  V30 2057 O 190.821 -1.55719 1.10255 0
M  V30 2058 C 187.961 -2.52483 2.35258 0
M  V30 2059 C 187.074 -2.35914 3.61896 0
M  V30 2060 C 186.209 -3.61969 3.88782 0
M  V30 2061 C 185.248 -3.40395 5.08722 0
M  V30 2062 N 184.385 -4.58556 5.31668 0
M  V30 2063 H 189.225 -0.839845 2.85921 0
M  V30 2064 H 186.762 -0.403264 1.41464 0
M  V30 2065 H 188.72 -3.30071 2.55165 0
M  V30 2066 H 187.35 -2.85859 1.49949 0
M  V30 2067 H 186.402 -1.49429 3.49821 0
M  V30 2068 H 187.714 -2.15926 4.49641 0
M  V30 2069 H 186.868 -4.47989 4.09135 0
M  V30 2070 H 185.607 -3.84951 2.9944 0
M  V30 2071 H 184.612 -2.52763 4.88253 0
M  V30 2072 H 185.837 -3.18822 5.99608 0
M  V30 2073 H 183.783 -4.81729 4.45279 0
M  V30 2074 H 183.7 -4.41535 6.13664 0
M  V30 2075 H 184.968 -5.45817 5.5651 0
M  V30 2076 N 189.197 -1.51736 -0.425897 0
M  V30 2077 C 190.129 -1.70083 -1.53638 0
M  V30 2078 C 191.142 -0.581349 -1.52066 0
M  V30 2079 O 192.331 -0.856017 -1.56635 0
M  V30 2080 C 189.431 -1.71078 -2.9255 0
M  V30 2081 C 188.604 -2.99795 -3.185 0
M  V30 2082 C 187.663 -2.92825 -4.37196 0
M  V30 2083 O 186.689 -3.66756 -4.35291 0
M  V30 2084 N 187.891 -2.0946 -5.41393 0
M  V30 2085 H 190.656 -2.65882 -1.383 0
M  V30 2086 H 188.217 -1.49765 -0.614988 0
M  V30 2087 H 190.209 -1.63969 -3.69995 0
M  V30 2088 H 188.779 -0.828242 -3.01428 0
M  V30 2089 H 187.999 -3.20684 -2.2925 0
M  V30 2090 H 189.287 -3.84977 -3.32671 0
M  V30 2091 H 188.685 -1.48792 -5.45781 0
M  V30 2092 H 187.242 -2.08221 -6.17647 0
M  V30 2093 N 190.675 0.682077 -1.42076 0
M  V30 2094 C 191.585 1.82535 -1.47371 0
M  V30 2095 C 192.601 1.7017 -0.363079 0
M  V30 2096 O 193.777 1.91848 -0.612875 0
M  V30 2097 C 190.842 3.18624 -1.36674 0
M  V30 2098 C 189.903 3.42999 -2.58167 0
M  V30 2099 C 189.136 4.72595 -2.4797 0
M  V30 2100 O 189.359 5.50006 -1.5116 0
M  V30 2101 O 188.293 4.98054 -3.37974 0
M  V30 2102 H 192.119 1.81023 -2.43853 0
M  V30 2103 H 189.704 0.836887 -1.2376 0
M  V30 2104 H 191.586 3.99847 -1.33043 0
M  V30 2105 H 190.261 3.20789 -0.433138 0
M  V30 2106 H 189.168 2.61653 -2.67373 0
M  V30 2107 H 190.501 3.45659 -3.50401 0
M  V30 2108 N 192.153 1.28127 0.917671 0
M  V30 2109 C 193.402 1.14432 1.66097 0
M  V30 2110 C 193.715 -0.307247 1.93172 0
M  V30 2111 O 194.921 -0.565259 2.65551 0
M  V30 2112 C 193.377 2.00015 2.99202 0
M  V30 2113 C 192.985 3.49889 2.79789 0
M  V30 2114 C 194.729 1.94996 3.77064 0
M  V30 2115 C 192.636 4.27636 4.08511 0
M  V30 2116 H 191.566 0.424662 0.62304 0
M  V30 2117 H 194.217 1.52628 1.01868 0
M  V30 2118 H 192.599 1.54672 3.64544 0
M  V30 2119 H 193.773 4.03162 2.23152 0
M  V30 2120 H 192.088 3.56392 2.15345 0
M  V30 2121 H 194.685 2.50354 4.72469 0
M  V30 2122 H 195.028 0.925819 4.05875 0
M  V30 2123 H 195.561 2.38287 3.18534 0
M  V30 2124 H 192.3 5.30615 3.84874 0
M  V30 2125 H 191.82 3.79137 4.64774 0
M  V30 2126 H 193.499 4.37346 4.76799 0
M  V30 2127 N 193.631 -1.12557 1.10312 0
M  V30 2128 C 195.047 -1.36036 0.834649 0
M  V30 2129 C 195.247 -1.93946 -0.546539 0
M  V30 2130 O 194.303 -2.16484 -1.29966 0
M  V30 2131 C 195.616 -2.30312 1.9333 0
M  V30 2132 C 197.164 -2.43906 1.9616 0
M  V30 2133 C 197.639 -3.41496 3.05195 0
M  V30 2134 N 199.13 -3.49053 3.04494 0
M  V30 2135 C 199.865 -4.24471 3.85502 0
M  V30 2136 N 199.361 -5.02966 4.76442 0
M  V30 2137 N 201.154 -4.19864 3.73725 0
M  V30 2138 H 193.305 -0.733246 1.99342 0
M  V30 2139 H 195.568 -0.385234 0.866198 0
M  V30 2140 H 195.274 -1.94933 2.92735 0
M  V30 2141 H 195.148 -3.30421 1.81939 0
M  V30 2142 H 197.535 -2.78567 0.973886 0
M  V30 2143 H 197.616 -1.4369 2.11629 0
M  V30 2144 H 197.26 -3.07565 4.04186 0
M  V30 2145 H 197.19 -4.41539 2.86968 0
M  V30 2146 H 199.681 -2.93053 2.38596 0
M  V30 2147 H 199.994 -5.57846 5.34815 0
M  V30 2148 H 198.339 -5.02167 4.80472 0
M  V30 2149 H 201.53 -3.57623 3.02032 0
M  V30 2150 H 201.703 -4.78386 4.37093 0
M  V30 2151 N 195.109 -0.891671 -1.2995 0
M  V30 2152 C 196.039 -0.379797 -2.30391 0
M  V30 2153 C 197.02 0.540919 -1.6127 0
M  V30 2154 O 198.205 0.453352 -1.88834 0
M  V30 2155 C 195.335 0.400654 -3.44981 0
M  V30 2156 C 194.289 -0.428905 -4.25846 0
M  V30 2157 C 193.615 0.478557 -5.32554 0
M  V30 2158 C 194.915 -1.67458 -4.94727 0
M  V30 2159 H 196.609 -1.21914 -2.73454 0
M  V30 2160 H 194.155 -0.587675 -1.31462 0
M  V30 2161 H 196.108 0.769434 -4.14316 0
M  V30 2162 H 194.832 1.27371 -3.0074 0
M  V30 2163 H 193.491 -0.779911 -3.58208 0
M  V30 2164 H 193.139 1.34951 -4.84559 0
M  V30 2165 H 192.839 -0.0727433 -5.87555 0
M  V30 2166 H 194.363 0.843705 -6.04743 0
M  V30 2167 H 195.777 -1.376 -5.56542 0
M  V30 2168 H 194.174 -2.16659 -5.59624 0
M  V30 2169 H 195.244 -2.41518 -4.20473 0
M  V30 2170 N 196.587 1.43421 -0.653314 0
M  V30 2171 C 197.836 2.01032 -0.164076 0
M  V30 2172 C 198.149 1.52147 1.22926 0
M  V30 2173 O 199.355 2.02031 1.81371 0
M  V30 2174 C 197.811 3.59082 -0.24252 0
M  V30 2175 C 197.419 4.1696 -1.63855 0
M  V30 2176 C 199.163 4.24079 0.18911 0
M  V30 2177 C 197.07 5.67304 -1.67092 0
M  V30 2178 H 196 0.751798 -0.0575769 0
M  V30 2179 H 198.651 1.6439 -0.815362 0
M  V30 2180 H 197.033 3.93125 0.476276 0
M  V30 2181 H 198.207 3.94416 -2.38271 0
M  V30 2182 H 196.522 3.64335 -2.01616 0
M  V30 2183 H 199.119 5.34381 0.184775 0
M  V30 2184 H 199.462 3.98005 1.22056 0
M  V30 2185 H 199.995 3.94918 -0.477938 0
M  V30 2186 H 196.734 5.98145 -2.68146 0
M  V30 2187 H 196.254 5.91904 -0.970014 0
M  V30 2188 H 197.933 6.31344 -1.4147 0
M  V30 2189 N 198.065 0.39524 1.52563 0
M  V30 2190 C 199.342 -0.242908 1.94086 0
M  V30 2191 C 199.722 -1.63841 1.33114 0
M  V30 2192 O 199.07 -2.22928 0.501529 0
M  V30 2193 C 199.28 -0.26327 3.48006 0
M  V30 2194 C 200.628 -0.489354 4.21771 0
M  V30 2195 O 201.652 -0.343226 3.54543 0
M  V30 2196 O 200.511 -0.776169 5.4096 0
M  V30 2197 H 197.605 -0.152536 0.812811 0
M  V30 2198 H 200.151 0.450178 1.6362 0
M  V30 2199 H 198.923 0.713985 3.84731 0
M  V30 2200 H 198.546 -1.00103 3.84792 0
M  V30 2201 N 199.544 -1.57102 0.125237 0
M  V30 2202 C 200.774 -1.99472 -0.538015 0
M  V30 2203 C 201.182 -1.00395 -1.60366 0
M  V30 2204 O 200.525 0.0103875 -1.83697 0
M  V30 2205 C 200.587 -3.38262 -1.21734 0
M  V30 2206 C 200.251 -4.56021 -0.298897 0
M  V30 2207 C 201.248 -5.17817 0.464943 0
M  V30 2208 C 198.933 -5.01869 -0.208149 0
M  V30 2209 C 200.927 -6.23852 1.3072 0
M  V30 2210 C 198.614 -6.07763 0.637736 0
M  V30 2211 C 199.612 -6.68622 1.39403 0
M  V30 2212 O 199.3 -7.7247 2.22586 0
M  V30 2213 H 199.032 -0.659934 -0.146501 0
M  V30 2214 H 201.586 -2.04321 0.210267 0
M  V30 2215 H 199.816 -3.30185 -2.01282 0
M  V30 2216 H 201.505 -3.6488 -1.77813 0
M  V30 2217 H 202.271 -4.83308 0.404741 0
M  V30 2218 H 198.15 -4.54241 -0.786522 0
M  V30 2219 H 201.694 -6.71284 1.898 0
M  V30 2220 H 197.591 -6.41701 0.699309 0
M  V30 2221 H 198.359 -7.89595 2.15596 0
M  V30 2222 N 201.022 0.148545 -1.56898 0
M  V30 2223 C 201.932 1.20293 -2.01412 0
M  V30 2224 C 202.948 1.47107 -0.929273 0
M  V30 2225 O 204.124 1.58807 -1.23863 0
M  V30 2226 C 201.189 2.51682 -2.38447 0
M  V30 2227 C 200.25 2.32529 -3.60872 0
M  V30 2228 C 199.483 3.57653 -3.96132 0
M  V30 2229 O 199.706 4.63771 -3.32073 0
M  V30 2230 O 198.64 3.50408 -4.89385 0
M  V30 2231 H 202.466 0.855025 -2.91416 0
M  V30 2232 H 200.051 0.357151 -1.45068 0
M  V30 2233 H 201.933 3.29147 -2.63135 0
M  V30 2234 H 200.608 2.86006 -1.51599 0
M  V30 2235 H 199.515 1.53019 -3.41373 0
M  V30 2236 H 200.848 2.03121 -4.48333 0
M  V30 2237 N 202.5 1.5196 0.417844 0
M  V30 2238 C 203.447 1.74678 1.50852 0
M  V30 2239 C 204.417 0.588947 1.55308 0
M  V30 2240 O 205.602 0.825544 1.72016 0
M  V30 2241 C 202.742 1.89544 2.88387 0
M  V30 2242 C 201.855 3.17166 2.93309 0
M  V30 2243 C 200.99 3.22513 4.22088 0
M  V30 2244 C 200.029 4.44372 4.20951 0
M  V30 2245 N 199.166 4.47161 5.41287 0
M  V30 2246 H 204.006 2.67768 1.30783 0
M  V30 2247 H 201.543 1.32689 0.63498 0
M  V30 2248 H 203.501 1.96146 3.68216 0
M  V30 2249 H 202.131 0.998424 3.06971 0
M  V30 2250 H 201.183 3.19778 2.06024 0
M  V30 2251 H 202.495 4.07021 2.88332 0
M  V30 2252 H 201.649 3.28139 5.10303 0
M  V30 2253 H 200.388 2.30581 4.29748 0
M  V30 2254 H 199.393 4.38902 3.31127 0
M  V30 2255 H 200.618 5.3759 4.14938 0
M  V30 2256 H 198.564 3.58108 5.49632 0
M  V30 2257 H 198.481 5.3085 5.3827 0
M  V30 2258 H 199.749 4.57005 6.3148 0
M  V30 2259 N 203.978 -0.674533 1.42435 0
M  V30 2260 C 204.911 -1.79924 1.40366 0
M  V30 2261 C 205.889 -1.60378 0.267899 0
M  V30 2262 O 207.073 -1.82847 0.458159 0
M  V30 2263 C 204.2 -3.16927 1.19478 0
M  V30 2264 C 203.246 -3.55221 2.36051 0
M  V30 2265 S 204.079 -3.5762 3.98583 0
M  V30 2266 C 205.235 -4.97315 3.80038 0
M  V30 2267 H 205.468 -1.81405 2.35541 0
M  V30 2268 H 203.001 -0.845221 1.29211 0
M  V30 2269 H 204.959 -3.96007 1.08114 0
M  V30 2270 H 203.62 -3.13031 0.258883 0
M  V30 2271 H 202.813 -4.54804 2.17185 0
M  V30 2272 H 202.415 -2.83502 2.43932 0
M  V30 2273 H 204.707 -5.85401 3.41045 0
M  V30 2274 H 205.65 -5.21228 4.79298 0
M  V30 2275 H 206.058 -4.69845 3.12899 0
M  V30 2276 N 205.456 -1.28612 -0.910864 0
M  V30 2277 C 206.702 -1.16106 -1.66274 0
M  V30 2278 C 207.035 0.289113 -1.92036 0
M  V30 2279 O 206.31 1.21 -1.52281 0
M  V30 2280 C 206.593 -1.96309 -3.01885 0
M  V30 2281 C 206.446 -3.49405 -2.8326 0
M  V30 2282 C 207.765 -1.78076 -4.02463 0
M  V30 2283 H 204.884 -0.423152 -0.603417 0
M  V30 2284 H 207.526 -1.57961 -1.05586 0
M  V30 2285 H 205.676 -1.60742 -3.53687 0
M  V30 2286 H 207.348 -3.94894 -2.38446 0
M  V30 2287 H 205.591 -3.74893 -2.18261 0
M  V30 2288 H 206.262 -4.00784 -3.79574 0
M  V30 2289 H 208.738 -2.0912 -3.59733 0
M  V30 2290 H 207.614 -2.36561 -4.95308 0
M  V30 2291 H 207.875 -0.733008 -4.35981 0
M  V30 2292 N 206.934 1.1197 -1.10907 0
M  V30 2293 C 208.211 1.79959 -0.766432 0
M  V30 2294 C 208.591 1.97466 0.746363 0
M  V30 2295 O 207.939 1.55491 1.67436 0
M  V30 2296 C 208.149 3.14009 -1.52314 0
M  V30 2297 C 209.497 3.89134 -1.69883 0
M  V30 2298 O 210.521 3.2368 -1.48692 0
M  V30 2299 O 209.38 5.06572 -2.05054 0
M  V30 2300 H 206.474 0.779208 -0.277062 0
M  V30 2301 H 209.02 1.18762 -1.21217 0
M  V30 2302 H 207.792 2.96587 -2.55249 0
M  V30 2303 H 207.415 3.82915 -1.07059 0
M  V30 2304 N 208.412 0.89855 1.29475 0
M  V30 2305 C 209.362 0.346767 2.25348 0
M  V30 2306 C 210.346 -0.532509 1.51833 0
M  V30 2307 O 211.538 -0.374714 1.72988 0
M  V30 2308 C 208.667 -0.425681 3.40651 0
M  V30 2309 C 207.753 0.46845 4.21505 0
M  V30 2310 N 208.144 1.57514 4.80648 0
M  V30 2311 C 206.442 0.26603 4.45206 0
M  V30 2312 C 207.143 2.12889 5.41344 0
M  V30 2313 N 206.119 1.42208 5.24669 0
M  V30 2314 H 209.921 1.19219 2.68634 0
M  V30 2315 H 207.435 0.749473 1.44072 0
M  V30 2316 H 209.432 -0.837716 4.08397 0
M  V30 2317 H 208.092 -1.26838 2.98902 0
M  V30 2318 H 209.103 1.95789 4.79465 0
M  V30 2319 H 205.78 -0.538394 4.14014 0
M  V30 2320 H 207.17 3.05901 5.98226 0
M  V30 2321 N 209.89 -1.43072 0.660911 0
M  V30 2322 C 211.306 -1.56169 0.329173 0
M  V30 2323 C 211.506 -1.64317 -1.16629 0
M  V30 2324 O 210.562 -1.60245 -1.95135 0
M  V30 2325 C 211.875 -2.81873 1.04729 0
M  V30 2326 C 213.423 -2.95627 1.02828 0
M  V30 2327 C 213.898 -4.24174 1.72744 0
M  V30 2328 N 215.389 -4.31055 1.69545 0
M  V30 2329 C 216.124 -5.29304 2.20511 0
M  V30 2330 N 215.62 -6.33786 2.79799 0
M  V30 2331 N 217.413 -5.21008 2.10966 0
M  V30 2332 H 209.564 -1.36027 1.63127 0
M  V30 2333 H 211.827 -0.653823 0.686454 0
M  V30 2334 H 211.533 -2.81942 2.10242 0
M  V30 2335 H 211.407 -3.72338 0.603702 0
M  V30 2336 H 213.794 -2.95094 -0.0184742 0
M  V30 2337 H 213.875 -2.06431 1.51063 0
M  V30 2338 H 213.519 -4.25467 2.7738 0
M  V30 2339 H 213.449 -5.1228 1.2197 0
M  V30 2340 H 215.94 -3.56174 1.26288 0
M  V30 2341 H 216.253 -7.05086 3.16344 0
M  V30 2342 H 214.598 -6.34387 2.83863 0
M  V30 2343 H 217.789 -4.38301 1.64347 0
M  V30 2344 H 217.962 -5.97416 2.50993 0
M  V30 2345 N 211.368 -0.403325 -1.52352 0
M  V30 2346 C 212.616 0.174003 -2.0135 0
M  V30 2347 C 212.937 1.46139 -1.29106 0
M  V30 2348 O 212.207 1.91448 -0.415253 0
M  V30 2349 H 210.787 0.0672911 -0.743963 0
M  V30 2350 H 213.449 -0.538235 -1.87321 0
M  V30 2351 H 212.545 0.374254 -3.09848 0
M  V30 2352 N 212.846 1.57033 -0.133567 0
M  V30 2353 C 214.092 1.95976 0.521649 0
M  V30 2354 C 214.425 1.01779 1.65393 0
M  V30 2355 O 213.7 0.0576581 1.94415 0
M  V30 2356 C 213.983 3.44738 1.04057 0
M  V30 2357 C 213.836 4.49711 -0.0892897 0
M  V30 2358 C 215.155 3.95682 1.92675 0
M  V30 2359 H 212.274 0.712579 0.188149 0
M  V30 2360 H 214.916 1.88813 -0.212076 0
M  V30 2361 H 213.066 3.50973 1.66583 0
M  V30 2362 H 214.738 4.55565 -0.725152 0
M  V30 2363 H 212.981 4.27261 -0.750378 0
M  V30 2364 H 213.652 5.51099 0.315284 0
M  V30 2365 H 216.128 3.91841 1.39998 0
M  V30 2366 H 215.004 5.00262 2.25897 0
M  V30 2367 H 215.265 3.37239 2.85872 0
M  V30 2368 N 214.325 -0.140222 1.56975 0
M  V30 2369 C 215.741 -0.493088 1.51792 0
M  V30 2370 C 215.941 -1.83013 0.843116 0
M  V30 2371 O 214.997 -2.49041 0.416493 0
M  V30 2372 C 216.31 -0.497144 2.96562 0
M  V30 2373 C 217.858 -0.582186 3.07538 0
M  V30 2374 C 218.333 -0.616838 4.53827 0
M  V30 2375 N 219.824 -0.678873 4.58198 0
M  V30 2376 C 220.559 -0.726782 5.68775 0
M  V30 2377 N 220.055 -0.733623 6.88905 0
M  V30 2378 N 221.848 -0.768179 5.56826 0
M  V30 2379 H 213.999 0.736108 1.99237 0
M  V30 2380 H 216.262 0.269182 0.90898 0
M  V30 2381 H 215.968 0.417217 3.49217 0
M  V30 2382 H 215.842 -1.33263 3.52875 0
M  V30 2383 H 218.229 -1.48697 2.54899 0
M  V30 2384 H 218.31 0.280581 2.54257 0
M  V30 2385 H 217.954 0.283812 5.07106 0
M  V30 2386 H 217.884 -1.49619 5.04898 0
M  V30 2387 H 220.375 -0.68061 3.7172 0
M  V30 2388 H 220.688 -0.772215 7.68932 0
M  V30 2389 H 219.033 -0.701389 6.91452 0
M  V30 2390 H 222.224 -0.760051 4.61888 0
M  V30 2391 H 222.397 -0.80205 6.43017 0
M  V30 2392 N 215.803 -1.52179 -0.40978 0
M  V30 2393 C 217.049 -1.66453 -1.15851 0
M  V30 2394 C 217.382 -0.392972 -1.90182 0
M  V30 2395 O 216.657 0.608579 -1.84734 0
M  V30 2396 C 216.94 -2.88612 -2.15349 0
M  V30 2397 C 216.793 -4.25815 -1.44918 0
M  V30 2398 C 218.112 -3.06294 -3.16026 0
M  V30 2399 H 215.231 -0.60575 -0.419805 0
M  V30 2400 H 217.873 -1.84732 -0.444314 0
M  V30 2401 H 216.023 -2.73158 -2.76255 0
M  V30 2402 H 217.695 -4.52995 -0.871365 0
M  V30 2403 H 215.938 -4.27247 -0.751159 0
M  V30 2404 H 216.609 -5.07337 -2.17516 0
M  V30 2405 H 219.085 -3.20641 -2.65195 0
M  V30 2406 H 217.961 -3.93283 -3.8291 0
M  V30 2407 H 218.222 -2.19579 -3.83715 0
M  V30 2408 N 217.281 0.66697 -1.42791 0
M  V30 2409 C 218.527 1.4291 -1.43891 0
M  V30 2410 C 218.86 1.94114 -0.0578972 0
M  V30 2411 O 218.135 1.71414 0.91911 0
M  V30 2412 C 218.418 2.62049 -2.46987 0
M  V30 2413 C 218.271 2.16426 -3.94309 0
M  V30 2414 C 219.59 3.64266 -2.46978 0
M  V30 2415 H 216.709 0.518306 -0.523954 0
M  V30 2416 H 219.351 0.757321 -1.74255 0
M  V30 2417 H 217.501 3.19361 -2.21225 0
M  V30 2418 H 219.173 1.64221 -4.31079 0
M  V30 2419 H 217.416 1.47925 -4.078 0
M  V30 2420 H 218.087 3.02038 -4.62036 0
M  V30 2421 H 220.563 3.16686 -2.69906 0
M  V30 2422 H 219.439 4.45196 -3.21079 0
M  V30 2423 H 219.7 4.15927 -1.49857 0
M  V30 2424 N 218.759 1.29093 0.90403 0
M  V30 2425 C 219.722 1.1386 1.98919 0
M  V30 2426 C 220.722 0.0753457 1.60623 0
M  V30 2427 O 221.912 0.321931 1.71199 0
M  V30 2428 C 219.044 0.740198 3.32767 0
M  V30 2429 H 220.237 2.10246 2.13861 0
M  V30 2430 H 217.79 1.12218 1.08797 0
M  V30 2431 H 218.525 -0.223997 3.23525 0
M  V30 2432 H 218.31 1.50838 3.61926 0
M  V30 2433 H 219.8 0.656546 4.12407 0
M  V30 2434 N 220.237 -1.11381 1.11499 0
M  V30 2435 C 221.484 -1.83132 0.864231 0
M  V30 2436 C 221.812 -1.84683 -0.610114 0
M  V30 2437 O 221.067 -1.29589 -1.46646 0
M  V30 2438 C 221.366 -3.30026 1.37177 0
M  V30 2439 C 221.032 -3.48634 2.85946 0
M  V30 2440 C 219.694 -3.53421 3.26569 0
M  V30 2441 C 222.046 -3.54837 3.81759 0
M  V30 2442 C 219.374 -3.61967 4.61733 0
M  V30 2443 C 221.726 -3.64915 5.1674 0
M  V30 2444 C 220.39 -3.67962 5.5692 0
M  V30 2445 H 219.66 -0.670127 0.316245 0
M  V30 2446 H 222.307 -1.31354 1.3935 0
M  V30 2447 H 220.612 -3.84304 0.762753 0
M  V30 2448 H 222.309 -3.84034 1.15408 0
M  V30 2449 H 218.899 -3.45579 2.53521 0
M  V30 2450 H 223.083 -3.50399 3.51474 0
M  V30 2451 H 218.339 -3.62603 4.92269 0
M  V30 2452 H 222.513 -3.68658 5.90816 0
M  V30 2453 H 220.14 -3.74336 6.61647 0
M  V30 2454 N 221.715 -0.905404 -1.28997 0
M  V30 2455 C 222.963 -0.533192 -1.9494 0
M  V30 2456 C 223.284 0.924618 -1.71685 0
M  V30 2457 O 222.554 1.65268 -1.05183 0
M  V30 2458 H 221.134 -0.194194 -0.721317 0
M  V30 2459 H 223.796 -1.15294 -1.57141 0
M  V30 2460 H 222.892 -0.72059 -3.03667 0
M  V30 2461 N 223.193 1.4272 -0.668489 0
M  V30 2462 C 224.125 2.2914 0.052613 0
M  V30 2463 C 225.138 1.43339 0.771857 0
M  V30 2464 O 226.327 1.67123 0.627067 0
M  V30 2465 C 223.427 3.20618 1.09804 0
M  V30 2466 C 222.6 4.35039 0.45389 0
M  V30 2467 C 221.659 5.07282 1.39825 0
M  V30 2468 O 220.685 5.62024 0.900978 0
M  V30 2469 N 221.887 5.12206 2.73176 0
M  V30 2470 H 224.652 2.91668 -0.689209 0
M  V30 2471 H 222.213 1.53577 -0.512422 0
M  V30 2472 H 224.205 3.65815 1.73094 0
M  V30 2473 H 222.775 2.59585 1.74167 0
M  V30 2474 H 221.995 3.92567 -0.358396 0
M  V30 2475 H 223.283 5.088 0.00486972 0
M  V30 2476 H 222.681 4.6913 3.16122 0
M  V30 2477 H 221.238 5.61069 3.31729 0
M  V30 2478 N 224.671 0.411399 1.52136 0
M  V30 2479 C 225.917 -0.156262 2.02799 0
M  V30 2480 C 226.272 -1.42613 1.29149 0
M  V30 2481 O 225.565 -1.87592 0.389839 0
M  V30 2482 C 225.759 -0.455872 3.54481 0
M  V30 2483 C 225.588 0.783404 4.42824 0
M  V30 2484 C 224.358 1.30928 4.88043 0
M  V30 2485 C 226.556 1.66217 4.86699 0
M  V30 2486 N 224.538 2.5038 5.6052 0
M  V30 2487 C 225.909 2.70292 5.5798 0
M  V30 2488 C 227.964 1.67966 4.68713 0
M  V30 2489 C 226.667 3.7603 6.13184 0
M  V30 2490 C 228.693 2.72624 5.24815 0
M  V30 2491 C 228.055 3.7542 5.9602 0
M  V30 2492 H 224.154 -0.0186886 0.781777 0
M  V30 2493 H 226.738 0.566255 1.86284 0
M  V30 2494 H 224.909 -1.14743 3.71064 0
M  V30 2495 H 226.641 -1.01261 3.91827 0
M  V30 2496 H 223.396 0.866977 4.65597 0
M  V30 2497 H 223.82 3.10881 6.014 0
M  V30 2498 H 228.462 0.898312 4.13147 0
M  V30 2499 H 226.18 4.55019 6.6782 0
M  V30 2500 H 229.766 2.74887 5.12765 0
M  V30 2501 H 228.646 4.55073 6.38654 0
M  V30 2502 N 226.149 -1.5696 0.141893 0
M  V30 2503 C 227.112 -2.15316 -0.785587 0
M  V30 2504 C 228.112 -1.09366 -1.1788 0
M  V30 2505 O 229.302 -1.35031 -1.10056 0
M  V30 2506 C 226.434 -2.71211 -2.06537 0
M  V30 2507 H 227.627 -2.98608 -0.278041 0
M  V30 2508 H 225.18 -1.5593 -0.107519 0
M  V30 2509 H 225.915 -1.91571 -2.6167 0
M  V30 2510 H 225.7 -3.4872 -1.79268 0
M  V30 2511 H 227.19 -3.16189 -2.72789 0
M  V30 2512 N 227.627 0.131896 -1.57047 0
M  V30 2513 C 228.875 0.840269 -1.83804 0
M  V30 2514 C 229.196 1.81017 -0.72512 0
M  V30 2515 O 228.466 1.94272 0.251995 0
M  V30 2516 H 227.046 0.313294 -0.678127 0
M  V30 2517 H 229.708 0.122294 -1.94516 0
M  V30 2518 H 228.804 1.39335 -2.79271 0
M  V30 2519 N 229.106 1.52395 0.401703 0
M  V30 2520 C 230.352 1.67065 1.14966 0
M  V30 2521 C 230.685 0.403052 1.89971 0
M  V30 2522 O 229.96 -0.598774 1.85054 0
M  V30 2523 C 230.243 2.8975 2.13815 0
M  V30 2524 C 230.096 4.26578 1.42658 0
M  V30 2525 C 231.415 3.07965 3.14397 0
M  V30 2526 H 228.534 0.607968 0.416587 0
M  V30 2527 H 231.176 1.84965 0.434511 0
M  V30 2528 H 229.326 2.74619 2.74803 0
M  V30 2529 H 230.998 4.53451 0.847329 0
M  V30 2530 H 229.241 4.27639 0.72849 0
M  V30 2531 H 229.912 5.08483 2.14823 0
M  V30 2532 H 232.388 3.22043 2.63491 0
M  V30 2533 H 231.264 3.95308 3.80819 0
M  V30 2534 H 231.525 2.21611 3.82545 0
M  V30 2535 N 230.584 -0.659388 1.43143 0
M  V30 2536 C 231.547 -1.75432 1.47501 0
M  V30 2537 C 232.547 -1.56707 0.360512 0
M  V30 2538 O 233.737 -1.62717 0.622002 0
M  V30 2539 C 230.869 -3.14239 1.32162 0
M  V30 2540 H 232.062 -1.7295 2.45006 0
M  V30 2541 H 229.615 -0.870469 1.29817 0
M  V30 2542 H 230.35 -3.22336 0.356401 0
M  V30 2543 H 230.135 -3.29235 2.12948 0
M  V30 2544 H 231.625 -3.94094 1.3813 0
M  V30 2545 N 232.062 -1.29571 -0.897171 0
M  V30 2546 C 233.31 -1.17456 -1.64464 0
M  V30 2547 C 233.631 0.273698 -1.9307 0
M  V30 2548 O 232.901 1.18684 -1.55855 0
M  V30 2549 H 231.481 -0.431706 -0.609622 0
M  V30 2550 H 234.143 -1.62531 -1.07562 0
M  V30 2551 H 233.239 -1.72648 -2.59998 0
M  V30 2552 N 233.54 1.10788 -1.12088 0
M  V30 2553 C 234.473 2.16237 -0.729168 0
M  V30 2554 C 235.451 1.60207 0.277921 0
M  V30 2555 O 236.635 1.87707 0.172737 0
M  V30 2556 C 233.762 3.38609 -0.0786848 0
M  V30 2557 C 232.808 4.13322 -1.05201 0
M  V30 2558 S 233.641 4.69371 -2.57781 0
M  V30 2559 C 234.797 5.95058 -1.94053 0
M  V30 2560 H 235.03 2.4913 -1.62239 0
M  V30 2561 H 232.563 1.22519 -0.939603 0
M  V30 2562 H 234.521 4.09473 0.290254 0
M  V30 2563 H 233.182 3.03962 0.791593 0
M  V30 2564 H 232.375 5.01051 -0.544433 0
M  V30 2565 H 231.977 3.48251 -1.36371 0
M  V30 2566 H 234.269 6.65278 -1.28107 0
M  V30 2567 H 235.212 6.50472 -2.79807 0
M  V30 2568 H 235.62 5.46918 -1.39787 0
M  V30 2569 N 235.018 0.912232 1.28515 0
M  V30 2570 C 236.267 0.540504 1.94323 0
M  V30 2571 C 236.58 -0.920044 1.72611 0
M  V30 2572 O 237.786 -1.39986 2.32629 0
M  V30 2573 C 236.242 0.915803 3.48053 0
M  V30 2574 C 235.85 2.39598 3.78546 0
M  V30 2575 C 237.594 0.614588 4.20027 0
M  V30 2576 C 235.501 2.71148 5.25578 0
M  V30 2577 H 234.431 0.198418 0.727424 0
M  V30 2578 H 237.082 1.11094 1.46049 0
M  V30 2579 H 235.464 0.274168 3.9505 0
M  V30 2580 H 236.638 3.08422 3.42364 0
M  V30 2581 H 234.953 2.66749 3.1974 0
M  V30 2582 H 237.55 0.827002 5.28266 0
M  V30 2583 H 237.893 -0.447531 4.13887 0
M  V30 2584 H 238.426 1.21462 3.78803 0
M  V30 2585 H 235.165 3.76207 5.36794 0
M  V30 2586 H 234.685 2.0696 5.62963 0
M  V30 2587 H 236.364 2.58072 5.93302 0
M  V30 2588 N 236.496 -1.42363 0.676048 0
M  V30 2589 C 237.444 -2.32596 -0.0131507 0
M  V30 2590 C 238.438 -1.49891 -0.789238 0
M  V30 2591 O 239.644 -1.65955 -0.697061 0
M  V30 2592 H 236.019 -0.751647 -0.0230481 0
M  V30 2593 H 237.99 -2.88421 0.765243 0
M  V30 2594 C 236.739 -3.34479 -0.949702 0
M  V30 2595 H 236.062 -3.98158 -0.361938 0
M  V30 2596 H 237.502 -4.00199 -1.4006 0
M  V30 2597 C 235.961 -2.66838 -2.05667 0
M  V30 2598 O 236.491 -2.50124 -3.14326 0
M  V30 2599 N 234.697 -2.25843 -1.82875 0
M  V30 2600 H 234.244 -2.39637 -0.945085 0
M  V30 2601 H 234.202 -1.80918 -2.5713 0
M  V30 2602 N 237.974 -0.419461 -1.51915 0
M  V30 2603 C 239.223 0.154346 -2.01109 0
M  V30 2604 C 239.536 1.45338 -1.30905 0
M  V30 2605 O 240.742 2.10906 -1.7097 0
M  V30 2606 C 239.198 0.325615 -3.58424 0
M  V30 2607 C 238.806 -0.961934 -4.37551 0
M  V30 2608 C 240.55 0.854155 -4.15818 0
M  V30 2609 C 238.457 -0.757287 -5.86531 0
M  V30 2610 H 237.387 0.0614563 -0.751491 0
M  V30 2611 H 240.038 -0.54649 -1.75173 0
M  V30 2612 H 238.42 1.08903 -3.80731 0
M  V30 2613 H 239.594 -1.7323 -4.26999 0
M  V30 2614 H 237.909 -1.41766 -3.91524 0
M  V30 2615 H 240.506 1.02346 -5.24814 0
M  V30 2616 H 240.849 1.83172 -3.73837 0
M  V30 2617 H 241.382 0.149528 -3.97519 0
M  V30 2618 H 238.121 -1.70671 -6.32892 0
M  V30 2619 H 237.641 -0.0264061 -5.99794 0
M  V30 2620 H 239.32 -0.403482 -6.45741 0
M  V30 2621 N 239.452 1.56882 -0.150215 0
M  V30 2622 C 240.382 2.19935 0.784284 0
M  V30 2623 C 241.363 1.14854 1.25469 0
M  V30 2624 O 242.548 1.43209 1.31168 0
M  V30 2625 C 239.678 2.82349 2.02229 0
M  V30 2626 C 238.632 3.93285 1.68853 0
M  V30 2627 C 237.958 4.42649 2.99944 0
M  V30 2628 C 239.258 5.13904 0.932714 0
M  V30 2629 H 240.952 2.9828 0.258781 0
M  V30 2630 H 238.498 1.43473 0.123029 0
M  V30 2631 H 240.451 3.25126 2.68088 0
M  V30 2632 H 239.175 2.0134 2.57157 0
M  V30 2633 H 237.834 3.5113 1.05371 0
M  V30 2634 H 237.482 3.58458 3.52869 0
M  V30 2635 H 237.182 5.17476 2.78374 0
M  V30 2636 H 238.706 4.88099 3.66868 0
M  V30 2637 H 240.12 5.53506 1.49345 0
M  V30 2638 H 238.517 5.94515 0.81684 0
M  V30 2639 H 239.587 4.84842 -0.0749568 0
M  V30 2640 N 240.93 -0.123565 1.57115 0
M  V30 2641 C 241.88 -1.1575 1.96433 0
M  V30 2642 C 242.864 -1.37313 0.838686 0
M  V30 2643 O 244.056 -1.38482 1.10235 0
M  V30 2644 C 241.185 -2.48526 2.36833 0
M  V30 2645 C 240.271 -2.30457 3.5602 0
M  V30 2646 N 240.662 -1.8219 4.71848 0
M  V30 2647 C 238.96 -2.61129 3.61563 0
M  V30 2648 C 239.661 -1.77721 5.53886 0
M  V30 2649 N 238.637 -2.21899 4.96248 0
M  V30 2650 H 242.439 -0.776797 2.83449 0
M  V30 2651 H 239.953 -0.331364 1.58983 0
M  V30 2652 H 241.95 -3.233 2.63216 0
M  V30 2653 H 240.61 -2.87358 1.5118 0
M  V30 2654 H 241.621 -1.51805 4.95152 0
M  V30 2655 H 238.298 -3.03678 2.86507 0
M  V30 2656 H 239.688 -1.41697 6.56789 0
M  V30 2657 N 242.408 -1.52605 -0.393616 0
M  V30 2658 C 243.656 -1.67093 -1.13685 0
M  V30 2659 C 243.977 -0.411011 -1.90619 0
M  V30 2660 O 243.247 0.574491 -1.87287 0
M  V30 2661 H 241.827 -0.615923 -0.422668 0
M  V30 2662 H 244.489 -1.89704 -0.447039 0
M  V30 2663 H 243.585 -2.51922 -1.84232 0
M  V30 2664 N 243.887 0.651787 -1.4349 0
M  V30 2665 C 244.82 1.77668 -1.43211 0
M  V30 2666 C 245.798 1.59931 -0.29338 0
M  V30 2667 O 246.982 1.82095 -0.487191 0
M  V30 2668 C 244.109 3.14986 -1.24505 0
M  V30 2669 C 243.155 3.51421 -2.41673 0
M  V30 2670 S 243.988 3.51234 -4.04222 0
M  V30 2671 C 245.144 4.91206 -3.87902 0
M  V30 2672 H 245.377 1.77635 -2.38397 0
M  V30 2673 H 242.91 0.824558 -1.30539 0
M  V30 2674 H 244.868 3.94237 -1.144 0
M  V30 2675 H 243.529 3.1258 -0.308651 0
M  V30 2676 H 242.722 4.51291 -2.24393 0
M  V30 2677 H 242.324 2.79585 -2.48411 0
M  V30 2678 H 244.616 5.79902 -3.50315 0
M  V30 2679 H 245.559 5.13537 -4.8753 0
M  V30 2680 H 245.967 4.64808 -3.20334 0
M  V30 2681 N 245.365 1.30045 0.890287 0
M  V30 2682 C 246.613 1.18327 1.63839 0
M  V30 2683 C 246.934 -0.263455 1.93212 0
M  V30 2684 O 246.204 -1.17856 1.56482 0
M  V30 2685 H 244.784 0.434933 0.607324 0
M  V30 2686 H 247.446 1.631 1.06698 0
M  V30 2687 H 246.542 1.74024 2.59079 0
M  V30 2688 N 246.843 -1.10192 1.12674 0
M  V30 2689 C 247.773 -2.18652 0.819362 0
M  V30 2690 C 248.754 -1.68698 -0.217915 0
M  V30 2691 O 249.939 -1.94041 -0.0785581 0
M  V30 2692 C 247.069 -3.46202 0.27594 0
M  V30 2693 C 246.023 -4.09444 1.24656 0
M  V30 2694 C 245.349 -5.31725 0.563258 0
M  V30 2695 C 246.649 -4.52863 2.60217 0
M  V30 2696 H 248.343 -2.44622 1.72628 0
M  V30 2697 H 245.889 -1.17571 0.831451 0
M  V30 2698 H 247.842 -4.21372 0.0486149 0
M  V30 2699 H 246.566 -3.1973 -0.666331 0
M  V30 2700 H 245.225 -3.36284 1.45974 0
M  V30 2701 H 244.873 -5.0153 -0.384235 0
M  V30 2702 H 244.573 -5.74991 1.21075 0
M  V30 2703 H 246.097 -6.09624 0.34503 0
M  V30 2704 H 247.511 -5.19294 2.42913 0
M  V30 2705 H 245.908 -5.06986 3.21068 0
M  V30 2706 H 246.978 -3.65656 3.18471 0
M  V30 2707 N 248.321 -0.919034 -1.28029 0
M  V30 2708 C 249.737 -0.617972 -1.4715 0
M  V30 2709 C 249.937 0.835242 -1.83374 0
M  V30 2710 O 248.993 1.61388 -1.94191 0
M  V30 2711 C 250.306 -1.56041 -2.57044 0
M  V30 2712 C 251.854 -1.56769 -2.7091 0
M  V30 2713 C 252.329 -2.49688 -3.83953 0
M  V30 2714 N 253.82 -2.47845 -3.91314 0
M  V30 2715 C 254.555 -3.16437 -4.78179 0
M  V30 2716 N 254.051 -3.94376 -5.69596 0
M  V30 2717 N 255.844 -3.05498 -4.71834 0
M  V30 2718 H 247.995 -1.85866 -1.02798 0
M  V30 2719 H 250.258 -0.797506 -0.512531 0
M  V30 2720 H 249.964 -2.59671 -2.372 0
M  V30 2721 H 249.838 -1.29551 -3.54255 0
M  V30 2722 H 252.225 -0.538745 -2.90141 0
M  V30 2723 H 252.306 -1.87305 -1.74214 0
M  V30 2724 H 251.95 -3.52688 -3.65477 0
M  V30 2725 H 251.88 -2.16453 -4.80058 0
M  V30 2726 H 254.371 -1.91234 -3.25941 0
M  V30 2727 H 254.684 -4.43721 -6.32718 0
M  V30 2728 H 253.029 -3.98481 -5.69419 0
M  V30 2729 H 256.22 -2.44108 -3.99411 0
M  V30 2730 H 256.393 -3.59225 -5.39316 0
M  V30 2731 N 249.799 1.42003 -0.683588 0
M  V30 2732 C 250.729 2.33487 -0.024866 0
M  V30 2733 C 251.71 1.51163 0.779975 0
M  V30 2734 O 252.895 1.79739 0.735362 0
M  V30 2735 C 250.025 3.3487 0.920836 0
M  V30 2736 C 248.979 4.27414 0.223958 0
M  V30 2737 C 248.305 5.19074 1.2832 0
M  V30 2738 C 249.605 5.14445 -0.90242 0
M  V30 2739 H 251.299 2.88819 -0.788921 0
M  V30 2740 H 248.845 1.38873 -0.38083 0
M  V30 2741 H 250.798 3.97787 1.39081 0
M  V30 2742 H 249.522 2.77861 1.71642 0
M  V30 2743 H 248.181 3.65904 -0.225864 0
M  V30 2744 H 247.829 4.58387 2.071 0
M  V30 2745 H 247.529 5.81822 0.821995 0
M  V30 2746 H 249.053 5.84867 1.75392 0
M  V30 2747 H 250.467 5.70998 -0.513272 0
M  V30 2748 H 248.864 5.86072 -1.28997 0
M  V30 2749 H 249.934 4.52322 -1.74737 0
M  V30 2750 N 251.277 0.427512 1.51691 0
M  V30 2751 C 252.207 -0.3796 2.30394 0
M  V30 2752 C 253.188 -1.02982 1.35384 0
M  V30 2753 O 254.373 -1.03534 1.643 0
M  V30 2754 C 251.503 -1.48649 3.1388 0
M  V30 2755 C 250.457 -0.960294 4.17088 0
M  V30 2756 C 249.783 -2.16219 4.89033 0
M  V30 2757 C 251.083 -0.00153679 5.223 0
M  V30 2758 H 252.777 0.277164 2.98114 0
M  V30 2759 H 250.323 0.134739 1.43368 0
M  V30 2760 H 252.276 -2.05826 3.67714 0
M  V30 2761 H 251 -2.1714 2.43962 0
M  V30 2762 H 249.659 -0.410806 3.64291 0
M  V30 2763 H 249.307 -2.83307 4.15628 0
M  V30 2764 H 249.007 -1.81654 5.58816 0
M  V30 2765 H 250.531 -2.73968 5.45687 0
M  V30 2766 H 251.945 -0.482687 5.71264 0
M  V30 2767 H 250.342 0.256199 5.99553 0
M  V30 2768 H 251.412 0.938174 4.75738 0
M  V30 2769 N 252.755 -1.56801 0.158532 0
M  V30 2770 C 253.718 -2.16138 -0.762705 0
M  V30 2771 C 254.718 -1.1061 -1.16713 0
M  V30 2772 O 255.908 -1.36191 -1.08617 0
M  V30 2773 C 253.04 -2.73386 -2.03649 0
M  V30 2774 H 254.233 -2.98886 -0.246354 0
M  V30 2775 H 251.786 -1.56035 -0.0909744 0
M  V30 2776 H 252.521 -1.94335 -2.59623 0
M  V30 2777 H 252.306 -3.50601 -1.75559 0
M  V30 2778 H 253.796 -3.19065 -2.6942 0
M  V30 2779 N 254.233 0.115231 -1.57178 0
M  V30 2780 C 255.163 1.1423 -2.03651 0
M  V30 2781 C 256.144 1.42967 -0.921655 0
M  V30 2782 O 257.329 1.53343 -1.19162 0
M  V30 2783 C 254.459 2.4675 -2.44401 0
M  V30 2784 C 253.413 2.32467 -3.59365 0
M  V30 2785 C 252.739 3.69984 -3.86026 0
M  V30 2786 C 254.039 1.78203 -4.90959 0
M  V30 2787 H 255.733 0.755749 -2.89705 0
M  V30 2788 H 253.279 0.362093 -1.39373 0
M  V30 2789 H 255.232 3.18854 -2.75517 0
M  V30 2790 H 253.956 2.87302 -1.55322 0
M  V30 2791 H 252.615 1.62811 -3.28463 0
M  V30 2792 H 252.263 4.08028 -2.94147 0
M  V30 2793 H 251.963 3.61279 -4.63412 0
M  V30 2794 H 253.487 4.43587 -4.19599 0
M  V30 2795 H 254.901 2.40128 -5.20587 0
M  V30 2796 H 253.298 1.8031 -5.72371 0
M  V30 2797 H 254.368 0.739876 -4.79222 0
M  V30 2798 N 255.711 1.52812 0.385517 0
M  V30 2799 C 256.959 1.67694 1.12797 0
M  V30 2800 C 257.28 0.421115 1.90399 0
M  V30 2801 O 256.55 -0.564551 1.87589 0
M  V30 2802 H 255.13 0.618155 0.419396 0
M  V30 2803 H 257.792 1.89938 0.436972 0
M  V30 2804 H 256.888 2.52896 1.82894 0
M  V30 2805 N 257.189 -0.644168 1.43834 0
M  V30 2806 C 258.139 -1.7501 1.46135 0
M  V30 2807 C 259.123 -1.57507 0.328685 0
M  V30 2808 O 260.315 -1.67465 0.5731 0
M  V30 2809 C 257.444 -3.13641 1.39585 0
M  V30 2810 C 256.53 -3.3666 2.57916 0
M  V30 2811 N 256.921 -3.30107 3.83227 0
M  V30 2812 C 255.219 -3.67411 2.52834 0
M  V30 2813 C 255.92 -3.53456 4.61999 0
M  V30 2814 N 254.896 -3.75705 3.9287 0
M  V30 2815 H 258.698 -1.68382 2.40883 0
M  V30 2816 H 256.212 -0.846169 1.38614 0
M  V30 2817 H 258.209 -3.92933 1.39317 0
M  V30 2818 H 256.869 -3.21444 0.45865 0
M  V30 2819 H 257.88 -3.09316 4.15384 0
M  V30 2820 H 254.557 -3.82275 1.67845 0
M  V30 2821 H 255.947 -3.54093 5.71024 0
M  V30 2822 N 258.668 -1.30515 -0.883378 0
M  V30 2823 C 259.618 -1.13641 -1.9766 0
M  V30 2824 C 260.602 -0.0511314 -1.60819 0
M  V30 2825 O 261.794 -0.274623 -1.74857 0
M  V30 2826 C 258.923 -0.831976 -3.33066 0
M  V30 2827 C 258.009 -1.95759 -3.76217 0
M  V30 2828 N 258.4 -3.20313 -3.9145 0
M  V30 2829 C 256.698 -1.85431 -4.05625 0
M  V30 2830 C 257.399 -3.93856 -4.2808 0
M  V30 2831 N 256.375 -3.21919 -4.38029 0
M  V30 2832 H 260.177 -2.08106 -2.07531 0
M  V30 2833 H 257.691 -1.21877 -1.0733 0
M  V30 2834 H 259.688 -0.692102 -4.11115 0
M  V30 2835 H 258.348 0.104588 -3.24532 0
M  V30 2836 H 259.359 -3.55583 -3.76538 0
M  V30 2837 H 256.036 -0.991531 -4.05555 0
M  V30 2838 H 257.426 -5.01125 -4.47575 0
M  V30 2839 N 260.146 1.09593 -1.13257 0
M  V30 2840 C 261.374 1.855 -0.916378 0
M  V30 2841 C 261.789 1.81069 0.534738 0
M  V30 2842 O 261.146 1.20562 1.37007 0
M  V30 2843 C 261.197 3.33546 -1.39388 0
M  V30 2844 O 260.918 3.37927 -2.78813 0
M  V30 2845 C 262.419 4.26299 -1.21588 0
M  V30 2846 H 259.639 0.585991 -0.326887 0
M  V30 2847 H 262.183 1.38488 -1.5047 0
M  V30 2848 H 260.338 3.77992 -0.848597 0
M  V30 2849 H 260.752 4.30254 -2.9997 0
M  V30 2850 H 262.226 5.28341 -1.59876 0
M  V30 2851 H 262.703 4.38918 -0.157376 0
M  V30 2852 H 263.309 3.87668 -1.7491 0
M  V30 2853 N 261.624 0.925811 1.2754 0
M  V30 2854 C 263.035 0.610102 1.7645 0
M  V30 2855 C 263.386 -0.874723 1.75622 0
M  V30 2856 O 262.511 -1.68444 1.35851 0
M  V30 2857 C 263.106 1.10073 3.20421 0
M  V30 2858 C 261.665 0.835723 3.67005 0
M  V30 2859 C 260.812 1.26054 2.46993 0
M  V30 2860 H 263.763 1.10579 1.13833 0
M  V30 2861 H 263.784 0.447557 3.77859 0
M  V30 2862 H 263.296 2.18143 3.20991 0
M  V30 2863 H 261.397 -0.231249 3.71882 0
M  V30 2864 H 261.51 1.45193 4.56569 0
M  V30 2865 H 259.874 0.679111 2.45479 0
M  V30 2866 H 260.657 2.34984 2.50275 0
M  V30 2867 N 263.102 -1.41638 0.69111 0
M  V30 2868 C 264.349 -2.01299 0.220193 0
M  V30 2869 C 264.677 -1.54715 -1.17871 0
M  V30 2870 O 263.932 -0.747193 -1.80874 0
M  V30 2871 C 264.231 -3.56714 0.221277 0
M  V30 2872 C 263.897 -4.22792 1.56709 0
M  V30 2873 C 262.559 -4.40557 1.93554 0
M  V30 2874 C 264.911 -4.59883 2.45268 0
M  V30 2875 C 262.239 -4.92688 3.18552 0
M  V30 2876 C 264.591 -5.13403 3.69595 0
M  V30 2877 C 263.255 -5.29379 4.06589 0
M  V30 2878 H 262.525 -0.736606 0.0805743 0
M  V30 2879 H 265.172 -1.69598 0.889319 0
M  V30 2880 H 263.477 -3.8818 -0.531391 0
M  V30 2881 H 265.174 -4.00678 -0.160547 0
M  V30 2882 H 261.764 -4.09336 1.2705 0
M  V30 2883 H 265.948 -4.45817 2.18084 0
M  V30 2884 H 261.204 -5.03242 3.47214 0
M  V30 2885 H 265.378 -5.41084 4.38407 0
M  V30 2886 H 263.005 -5.69537 5.03519 0
M  V30 2887 N 264.58 -0.43555 -1.51462 0
M  V30 2888 C 265.513 0.421989 -2.24264 0
M  V30 2889 C 266.491 1.02619 -1.26127 0
M  V30 2890 O 267.675 1.069 -1.55257 0
M  V30 2891 C 264.802 1.588 -2.99166 0
M  V30 2892 C 263.848 1.10465 -4.11946 0
M  V30 2893 S 264.681 0.048146 -5.35478 0
M  V30 2894 C 265.837 1.21887 -6.13917 0
M  V30 2895 H 266.07 -0.196102 -2.96653 0
M  V30 2896 H 263.603 -0.220054 -1.52824 0
M  V30 2897 H 265.561 2.25647 -3.42919 0
M  V30 2898 H 264.222 2.1775 -2.26371 0
M  V30 2899 H 263.415 1.97654 -4.63626 0
M  V30 2900 H 263.017 0.51445 -3.70445 0
M  V30 2901 H 265.309 2.13756 -6.42895 0
M  V30 2902 H 266.252 0.742076 -7.04201 0
M  V30 2903 H 266.66 1.45663 -5.45383 0
M  V30 2904 N 266.058 1.56714 -0.166846 0
M  V30 2905 C 267.008 2.14338 0.777382 0
M  V30 2906 C 267.992 1.07642 1.19591 0
M  V30 2907 O 269.184 1.33775 1.15902 0
M  V30 2908 C 266.313 2.78417 2.00846 0
M  V30 2909 C 265.399 3.92264 1.61212 0
M  V30 2910 N 265.79 4.97268 0.925104 0
M  V30 2911 C 264.088 4.03342 1.90346 0
M  V30 2912 C 264.789 5.77093 0.730627 0
M  V30 2913 N 263.765 5.2854 1.27067 0
M  V30 2914 H 267.567 2.9289 0.243466 0
M  V30 2915 H 265.081 1.62364 0.0339954 0
M  V30 2916 H 267.078 3.18073 2.69509 0
M  V30 2917 H 265.738 2.01344 2.54736 0
M  V30 2918 H 266.749 5.14601 0.583646 0
M  V30 2919 H 263.426 3.37368 2.45946 0
M  V30 2920 H 264.816 6.71638 0.187668 0
M  V30 2921 N 267.536 -0.106894 1.57237 0
M  V30 2922 C 268.785 -0.811163 1.8467 0
M  V30 2923 C 269.098 -1.80469 0.754342 0
M  V30 2924 O 270.304 -2.55601 0.915439 0
M  V30 2925 C 268.76 -1.49337 3.27454 0
M  V30 2926 C 268.368 -0.540217 4.44731 0
M  V30 2927 C 270.112 -2.18206 3.64124 0
M  V30 2928 C 268.019 -1.22634 5.78545 0
M  V30 2929 H 266.949 -0.306679 0.688813 0
M  V30 2930 H 269.6 -0.0639887 1.83388 0
M  V30 2931 H 267.982 -2.2876 3.23241 0
M  V30 2932 H 269.156 0.221659 4.60267 0
M  V30 2933 H 267.471 0.042146 4.16379 0
M  V30 2934 H 270.068 -2.70253 4.61376 0
M  V30 2935 H 270.411 -2.96562 2.92158 0
M  V30 2936 H 270.944 -1.45658 3.70174 0
M  V30 2937 H 267.683 -0.483832 6.53712 0
M  V30 2938 H 267.203 -1.95993 5.66874 0
M  V30 2939 H 268.882 -1.75615 6.2271 0
M  V30 2940 N 269.014 -1.53014 -0.377408 0
M  V30 2941 C 270.262 -1.6829 -1.11906 0
M  V30 2942 C 270.583 -0.431206 -1.90173 0
M  V30 2943 O 269.853 0.554595 -1.87886 0
M  V30 2944 H 268.433 -0.620371 -0.416112 0
M  V30 2945 H 271.095 -1.90167 -0.426893 0
M  V30 2946 H 270.191 -2.53862 -1.8155 0
M  V30 2947 N 270.492 0.636531 -1.44174 0
M  V30 2948 C 271.425 1.76139 -1.45087 0
M  V30 2949 C 272.403 1.59611 -0.310326 0
M  V30 2950 O 273.587 1.81568 -0.506477 0
M  V30 2951 C 270.714 3.13648 -1.27839 0
M  V30 2952 C 269.76 3.48838 -2.45386 0
M  V30 2953 S 270.593 3.46927 -4.07924 0
M  V30 2954 C 271.749 4.87064 -3.9309 0
M  V30 2955 H 271.982 1.75096 -2.40268 0
M  V30 2956 H 269.515 0.810666 -1.31406 0
M  V30 2957 H 271.473 3.93002 -1.18575 0
M  V30 2958 H 270.134 3.12235 -0.341787 0
M  V30 2959 H 269.327 4.48886 -2.29167 0
M  V30 2960 H 268.929 2.76935 -2.51362 0
M  V30 2961 H 271.221 5.76153 -3.56446 0
M  V30 2962 H 272.164 5.08337 -4.92949 0
M  V30 2963 H 272.572 4.61384 -3.25246 0
M  V30 2964 N 271.97 1.30982 0.876444 0
M  V30 2965 C 272.933 1.18054 1.96459 0
M  V30 2966 C 273.933 0.109399 1.60427 0
M  V30 2967 O 275.123 0.358173 1.70478 0
M  V30 2968 C 272.255 0.810616 3.31122 0
M  V30 2969 H 273.448 2.14735 2.09354 0
M  V30 2970 H 271.001 1.145 1.06392 0
M  V30 2971 H 271.736 -0.155322 3.23928 0
M  V30 2972 H 271.521 1.58481 3.58645 0
M  V30 2973 H 273.011 0.743876 4.10921 0
M  V30 2974 N 273.449 -1.08991 1.13837 0
M  V30 2975 C 274.399 -2.1393 0.788535 0
M  V30 2976 C 275.383 -1.59396 -0.219516 0
M  V30 2977 O 276.575 -1.76985 -0.0227557 0
M  V30 2978 C 273.704 -3.42305 0.261147 0
M  V30 2979 C 272.79 -4.03736 1.29837 0
M  V30 2980 N 273.181 -4.39659 2.50067 0
M  V30 2981 C 271.479 -4.30993 1.1472 0
M  V30 2982 C 272.18 -4.88113 3.16419 0
M  V30 2983 N 271.156 -4.85846 2.43832 0
M  V30 2984 H 274.958 -2.39516 1.70322 0
M  V30 2985 H 272.472 -1.26263 1.02134 0
M  V30 2986 H 274.469 -4.16899 -0.0077405 0
M  V30 2987 H 273.129 -3.18172 -0.647805 0
M  V30 2988 H 274.14 -4.30878 2.8734 0
M  V30 2989 H 270.817 -4.16444 0.296773 0
M  V30 2990 H 272.207 -5.25336 4.18894 0
M  V30 2991 N 274.927 -0.932562 -1.27047 0
M  V30 2992 C 275.875 -0.42603 -2.28665 0
M  V30 2993 C 276.869 0.49219 -1.62092 0
M  V30 2994 O 278.075 0.371355 -1.76128 0
M  V30 2995 H 274.45 -0.119213 -0.742491 0
M  V30 2996 H 276.421 -1.29579 -2.68797 0
M  V30 2997 C 275.17 0.301426 -3.46391 0
M  V30 2998 H 274.493 -0.39595 -3.97834 0
M  V30 2999 H 275.933 0.6202 -4.1944 0
M  V30 3000 C 274.392 1.51616 -3.00856 0
M  V30 3001 O 274.922 2.61476 -3.04948 0
M  V30 3002 N 273.128 1.36969 -2.56296 0
M  V30 3003 H 272.675 0.475873 -2.53166 0
M  V30 3004 H 272.633 2.18368 -2.26192 0
M  V30 3005 N 276.405 1.4127 -0.698611 0
M  V30 3006 C 277.635 2.05205 -0.239644 0
M  V30 3007 C 278.043 1.52684 1.11733 0
M  V30 3008 O 277.386 0.671222 1.70998 0
M  V30 3009 C 277.448 3.59289 -0.123126 0
M  V30 3010 C 277.112 4.34619 -1.41263 0
M  V30 3011 C 278.109 4.63701 -2.35111 0
M  V30 3012 C 275.794 4.73837 -1.66684 0
M  V30 3013 C 277.788 5.30966 -3.52639 0
M  V30 3014 C 275.475 5.40837 -2.84498 0
M  V30 3015 C 276.473 5.69329 -3.77298 0
M  V30 3016 O 276.161 6.34949 -4.93047 0
M  V30 3017 H 275.893 0.66723 -0.108537 0
M  V30 3018 H 278.447 1.81974 -0.952602 0
M  V30 3019 H 276.677 3.81272 0.645628 0
M  V30 3020 H 278.366 4.04797 0.299056 0
M  V30 3021 H 279.132 4.33882 -2.16729 0
M  V30 3022 H 275.011 4.51039 -0.953135 0
M  V30 3023 H 278.555 5.53121 -4.25091 0
M  V30 3024 H 274.452 5.70075 -3.02795 0
M  V30 3025 H 275.22 6.53445 -4.92902 0
M  V30 3026 N 277.883 0.443576 1.51229 0
M  V30 3027 C 279.299 0.0962001 1.5931 0
M  V30 3028 C 279.499 -1.39501 1.45402 0
M  V30 3029 O 278.555 -2.16557 1.29843 0
M  V30 3030 C 279.868 0.621875 2.94199 0
M  V30 3031 C 281.416 0.582865 3.07525 0
M  V30 3032 C 281.891 1.08562 4.44948 0
M  V30 3033 N 283.382 1.04387 4.51284 0
M  V30 3034 C 284.117 1.40368 5.55954 0
M  V30 3035 N 283.613 1.83664 6.68011 0
M  V30 3036 N 285.406 1.32145 5.46346 0
M  V30 3037 H 277.557 1.41376 1.58514 0
M  V30 3038 H 279.82 0.582965 0.747567 0
M  V30 3039 H 279.526 1.66546 3.09767 0
M  V30 3040 H 279.4 0.0502125 3.77167 0
M  V30 3041 H 281.787 -0.451749 2.91622 0
M  V30 3042 H 281.868 1.191 2.26382 0
M  V30 3043 H 281.512 2.11873 4.61598 0
M  V30 3044 H 281.442 0.453956 5.2464 0
M  V30 3045 H 283.933 0.725986 3.70861 0
M  V30 3046 H 284.246 2.0934 7.43906 0
M  V30 3047 H 282.591 1.87596 6.69203 0
M  V30 3048 H 285.782 0.981808 4.57688 0
M  V30 3049 H 285.955 1.60514 6.27805 0
M  V30 3050 N 279.361 -1.56624 0.175154 0
M  V30 3051 C 280.309 -2.19468 -0.770495 0
M  V30 3052 C 281.303 -1.15985 -1.23466 0
M  V30 3053 O 282.509 -1.34176 -1.19987 0
M  V30 3054 H 278.884 -0.703095 -0.266761 0
M  V30 3055 H 280.855 -2.97613 -0.216542 0
M  V30 3056 C 279.604 -2.85264 -1.98796 0
M  V30 3057 H 278.927 -3.64623 -1.63983 0
M  V30 3058 H 280.367 -3.327 -2.62843 0
M  V30 3059 C 278.826 -1.85239 -2.81404 0
M  V30 3060 O 279.356 -1.34024 -3.78682 0
M  V30 3061 N 277.562 -1.53911 -2.46495 0
M  V30 3062 H 277.109 -1.95751 -1.67449 0
M  V30 3063 H 277.067 -0.872382 -3.02054 0
M  V30 3064 N 280.839 0.0985539 -1.57292 0
M  V30 3065 C 282.064 0.820196 -1.90493 0
M  V30 3066 C 282.489 1.71658 -0.769094 0
M  V30 3067 O 281.847 1.79133 0.279495 0
M  V30 3068 C 281.895 1.61242 -3.22542 0
M  V30 3069 O 280.999 2.72108 -3.09888 0
M  V30 3070 H 280.34 0.225547 -0.62452 0
M  V30 3071 H 282.87 0.0748159 -2.04463 0
M  V30 3072 H 282.88 1.99737 -3.55766 0
M  V30 3073 H 281.555 0.954535 -4.04798 0
M  V30 3074 H 280.132 2.36667 -2.88172 0
M  V30 3075 N 282.317 1.53212 0.369288 0
M  V30 3076 C 283.542 1.73423 1.1375 0
M  V30 3077 C 283.967 0.460404 1.82378 0
M  V30 3078 O 283.325 -0.585298 1.71592 0
M  V30 3079 C 283.373 2.89769 2.1463 0
M  V30 3080 O 282.477 2.58119 3.21634 0
M  V30 3081 H 281.818 0.576061 0.330227 0
M  V30 3082 H 284.348 2.00083 0.427547 0
M  V30 3083 H 284.358 3.15829 2.58294 0
M  V30 3084 H 283.033 3.8217 1.64071 0
M  V30 3085 H 281.61 2.42864 2.82969 0
M  V30 3086 N 283.795 -0.628877 1.44509 0
M  V30 3087 C 284.727 -1.754 1.47538 0
M  V30 3088 C 285.74 -1.58575 0.368506 0
M  V30 3089 O 286.929 -1.66847 0.634376 0
M  V30 3090 C 284.029 -3.1315 1.29577 0
M  V30 3091 C 283.202 -3.56413 2.53551 0
M  V30 3092 C 282.261 -4.7305 2.30457 0
M  V30 3093 O 281.287 -4.81247 3.03957 0
M  V30 3094 N 282.489 -5.64903 1.3366 0
M  V30 3095 H 285.254 -1.73272 2.44534 0
M  V30 3096 H 282.815 -0.813512 1.39977 0
M  V30 3097 H 284.807 -3.88902 1.11971 0
M  V30 3098 H 283.377 -3.09908 0.409371 0
M  V30 3099 H 282.597 -2.70847 2.86419 0
M  V30 3100 H 283.885 -3.82071 3.36005 0
M  V30 3101 H 283.283 -5.60975 0.729604 0
M  V30 3102 H 281.84 -6.40275 1.22032 0
M  V30 3103 N 285.273 -1.31445 -0.869486 0
M  V30 3104 C 286.236 -1.19094 -1.9583 0
M  V30 3105 C 287.236 -0.117906 -1.60367 0
M  V30 3106 O 288.426 -0.367208 -1.70286 0
M  V30 3107 C 285.558 -0.828165 -3.30688 0
M  V30 3108 H 286.751 -2.15842 -2.08212 0
M  V30 3109 H 284.304 -1.15063 -1.05784 0
M  V30 3110 H 285.039 0.138142 -3.24006 0
M  V30 3111 H 284.824 -1.6038 -3.578 0
M  V30 3112 H 286.314 -0.765658 -4.10521 0
M  V30 3113 N 286.751 1.08385 -1.14413 0
M  V30 3114 C 287.997 1.81044 -0.913834 0
M  V30 3115 C 288.33 1.86004 0.558209 0
M  V30 3116 O 287.605 1.33606 1.4135 0
M  V30 3117 C 287.888 3.26648 -1.51569 0
M  V30 3118 C 287.741 3.29895 -3.0576 0
M  V30 3119 C 289.06 4.23629 -1.19273 0
M  V30 3120 H 286.179 0.65727 -0.333414 0
M  V30 3121 H 288.821 1.26896 -1.41412 0
M  V30 3122 H 286.971 3.72889 -1.09023 0
M  V30 3123 H 288.643 2.91977 -3.57137 0
M  V30 3124 H 286.886 2.69163 -3.40197 0
M  V30 3125 H 287.557 4.32516 -3.42977 0
M  V30 3126 H 290.033 3.85727 -1.56057 0
M  V30 3127 H 288.909 5.23822 -1.64017 0
M  V30 3128 H 289.17 4.41968 -0.108068 0
M  V30 3129 N 288.23 0.939286 1.26551 0
M  V30 3130 C 289.162 0.404704 2.25599 0
M  V30 3131 C 290.175 -0.470983 1.55838 0
M  V30 3132 O 291.364 -0.281734 1.76263 0
M  V30 3133 C 288.464 -0.43764 3.36062 0
M  V30 3134 C 287.637 0.421449 4.35365 0
M  V30 3135 C 286.696 -0.36015 5.24966 0
M  V30 3136 O 285.722 0.236167 5.6871 0
M  V30 3137 N 286.924 -1.65715 5.56344 0
M  V30 3138 H 289.689 1.25618 2.72103 0
M  V30 3139 H 287.25 0.807963 1.40298 0
M  V30 3140 H 289.242 -0.967866 3.92956 0
M  V30 3141 H 287.812 -1.18991 2.89067 0
M  V30 3142 H 287.032 1.1329 3.7757 0
M  V30 3143 H 288.32 1.00835 4.98708 0
M  V30 3144 H 287.718 -2.16378 5.22682 0
M  V30 3145 H 286.275 -2.13366 6.15888 0
M  V30 3146 N 289.708 -1.40897 0.706093 0
M  V30 3147 C 290.671 -2.29131 0.0562841 0
M  V30 3148 C 291.671 -1.44901 -0.697166 0
M  V30 3149 O 292.861 -1.65926 -0.530484 0
M  V30 3150 C 289.993 -3.27957 -0.93043 0
M  V30 3151 H 291.186 -2.88091 0.833284 0
M  V30 3152 H 288.739 -1.4906 0.470192 0
M  V30 3153 H 289.474 -2.73997 -1.73482 0
M  V30 3154 H 289.259 -3.90124 -0.393166 0
M  V30 3155 H 290.749 -3.94049 -1.38256 0
M  V30 3156 N 291.186 -0.45159 -1.50991 0
M  V30 3157 C 292.432 0.110237 -2.025 0
M  V30 3158 C 292.765 1.41109 -1.33424 0
M  V30 3159 O 292.04 1.89135 -0.453659 0
M  V30 3160 C 292.323 0.314271 -3.58726 0
M  V30 3161 C 292.176 -1.00623 -4.38401 0
M  V30 3162 C 293.495 1.07767 -4.26702 0
M  V30 3163 H 290.614 0.0385897 -0.735989 0
M  V30 3164 H 293.256 -0.593374 -1.80497 0
M  V30 3165 H 291.406 0.913601 -3.77605 0
M  V30 3166 H 293.078 -1.64064 -4.31139 0
M  V30 3167 H 291.321 -1.6075 -4.02917 0
M  V30 3168 H 291.992 -0.817341 -5.45915 0
M  V30 3169 H 294.468 0.56986 -4.12179 0
M  V30 3170 H 293.344 1.18921 -5.35863 0
M  V30 3171 H 293.605 2.10939 -3.88532 0
M  V30 3172 N 292.664 1.56529 -0.183458 0
M  V30 3173 C 294.08 1.58664 0.172554 0
M  V30 3174 C 294.28 1.19925 1.61926 0
M  V30 3175 O 293.336 0.916534 2.35278 0
M  V30 3176 C 294.649 3.00463 -0.119262 0
M  V30 3177 C 296.197 3.12945 -0.0584396 0
M  V30 3178 C 296.672 4.56857 -0.323408 0
M  V30 3179 N 298.163 4.62403 -0.271612 0
M  V30 3180 C 298.898 5.71626 -0.450639 0
M  V30 3181 N 298.394 6.89362 -0.689384 0
M  V30 3182 N 300.187 5.60775 -0.385701 0
M  V30 3183 H 292.338 1.79994 -1.12765 0
M  V30 3184 H 294.601 0.834808 -0.449222 0
M  V30 3185 H 294.307 3.33326 -1.12192 0
M  V30 3186 H 294.181 3.72659 0.583544 0
M  V30 3187 H 296.568 2.79902 0.934805 0
M  V30 3188 H 296.649 2.4316 -0.794144 0
M  V30 3189 H 296.293 4.9061 -1.31392 0
M  V30 3190 H 296.223 5.24816 0.43305 0
M  V30 3191 H 298.714 3.77785 -0.0932256 0
M  V30 3192 H 299.027 7.68489 -0.815113 0
M  V30 3193 H 297.372 6.91196 -0.726142 0
M  V30 3194 H 300.563 4.67674 -0.199687 0
M  V30 3195 H 300.736 6.4584 -0.528646 0
M  V30 3196 N 294.142 -0.090211 1.57342 0
M  V30 3197 C 295.419 -0.824761 1.77361 0
M  V30 3198 C 295.799 -1.96698 0.76637 0
M  V30 3199 O 295.147 -2.27586 -0.204179 0
M  V30 3200 C 295.357 -1.31481 3.23286 0
M  V30 3201 C 296.705 -1.75563 3.86604 0
M  V30 3202 O 297.729 -1.41093 3.27065 0
M  V30 3203 O 296.588 -2.39317 4.91314 0
M  V30 3204 H 293.682 -0.393776 0.727234 0
M  V30 3205 H 296.228 -0.0717138 1.69548 0
M  V30 3206 H 295 -0.496671 3.88135 0
M  V30 3207 H 294.623 -2.12973 3.35751 0
M  V30 3208 N 295.62 -1.53406 -0.361157 0
M  V30 3209 C 296.583 -1.79479 -1.42548 0
M  V30 3210 C 297.583 -0.665327 -1.4639 0
M  V30 3211 O 298.773 -0.933549 -1.47073 0
M  V30 3212 C 295.905 -1.92087 -2.8163 0
M  V30 3213 H 297.098 -2.74538 -1.20701 0
M  V30 3214 H 294.651 -1.4455 -0.594546 0
M  V30 3215 H 295.386 -0.991099 -3.08784 0
M  V30 3216 H 295.171 -2.74241 -2.80239 0
M  V30 3217 H 296.661 -2.13836 -3.58697 0
M  V30 3218 N 297.098 0.621204 -1.44841 0
M  V30 3219 C 298.346 1.37783 -1.47852 0
M  V30 3220 C 298.667 1.94653 -0.116224 0
M  V30 3221 O 297.937 1.76367 0.852737 0
M  V30 3222 H 296.517 0.511453 -0.544449 0
M  V30 3223 H 299.179 0.730446 -1.80694 0
M  V30 3224 H 298.275 2.20414 -2.20961 0
M  V30 3225 N 298.576 1.31904 0.862503 0
M  V30 3226 C 299.806 1.24817 1.64634 0
M  V30 3227 C 300.214 -0.187579 1.88268 0
M  V30 3228 O 299.557 -1.13253 1.44635 0
M  V30 3229 C 299.619 1.92996 3.03303 0
M  V30 3230 C 299.283 3.42336 3.02746 0
M  V30 3231 C 300.28 4.37956 2.80162 0
M  V30 3232 C 297.965 3.84147 3.2363 0
M  V30 3233 C 299.959 5.73361 2.78453 0
M  V30 3234 C 297.646 5.19663 3.21549 0
M  V30 3235 C 298.644 6.14081 2.98988 0
M  V30 3236 O 298.332 7.47118 2.96766 0
M  V30 3237 H 298.064 0.432222 0.519769 0
M  V30 3238 H 300.618 1.7445 1.08427 0
M  V30 3239 H 298.848 1.37922 3.61268 0
M  V30 3240 H 300.537 1.79723 3.63943 0
M  V30 3241 H 301.303 4.06981 2.63802 0
M  V30 3242 H 297.182 3.11083 3.40218 0
M  V30 3243 H 300.726 6.4703 2.60763 0
M  V30 3244 H 296.623 5.5027 3.37451 0
M  V30 3245 H 297.391 7.56382 3.12775 0
M  V30 3246 N 300.054 -1.07777 1.14986 0
M  V30 3247 C 300.964 -2.18404 0.856546 0
M  V30 3248 C 301.98 -1.73211 -0.165485 0
M  V30 3249 O 303.156 -2.01399 0.00755219 0
M  V30 3250 C 300.221 -3.44977 0.34526 0
M  V30 3251 C 299.282 -4.0476 1.43065 0
M  V30 3252 C 298.515 -5.25291 0.943663 0
M  V30 3253 O 298.738 -5.70004 -0.212426 0
M  V30 3254 O 297.672 -5.76638 1.72547 0
M  V30 3255 H 301.498 -2.45978 1.78125 0
M  V30 3256 H 299.083 -1.17033 0.928631 0
M  V30 3257 H 300.965 -4.21348 0.0663671 0
M  V30 3258 H 299.64 -3.18965 -0.551631 0
M  V30 3259 H 298.547 -3.29949 1.76309 0
M  V30 3260 H 299.88 -4.35035 2.30229 0
M  V30 3261 N 301.532 -0.945985 -1.26051 0
M  V30 3262 C 302.781 -0.591836 -1.92822 0
M  V30 3263 C 303.094 0.873956 -1.7499 0
M  V30 3264 O 304.3 1.33769 -2.36259 0
M  V30 3265 C 302.756 -1.00776 -3.45503 0
M  V30 3266 C 302.364 -2.4955 -3.7206 0
M  V30 3267 C 304.108 -0.725735 -4.1825 0
M  V30 3268 C 302.015 -2.84988 -5.18205 0
M  V30 3269 H 300.945 -0.217635 -0.721908 0
M  V30 3270 H 303.596 -1.14927 -1.43052 0
M  V30 3271 H 301.978 -0.378812 -3.94184 0
M  V30 3272 H 303.152 -3.1739 -3.34066 0
M  V30 3273 H 301.467 -2.75133 -3.12555 0
M  V30 3274 H 304.064 -0.966771 -5.25887 0
M  V30 3275 H 304.407 0.337639 -4.14929 0
M  V30 3276 H 304.94 -1.31463 -3.7545 0
M  V30 3277 H 301.679 -3.90307 -5.26631 0
M  V30 3278 H 301.199 -2.21813 -5.57278 0
M  V30 3279 H 302.878 -2.73712 -5.86252 0
M  V30 3280 N 303.011 1.40521 -0.713556 0
M  V30 3281 C 304.236 2.05759 -0.26035 0
M  V30 3282 C 304.661 1.53403 1.08854 0
M  V30 3283 O 304.019 0.668535 1.68524 0
M  V30 3284 C 304.067 3.59745 -0.248122 0
M  V30 3285 O 303.171 4.05123 0.77131 0
M  V30 3286 H 302.512 0.652564 -0.122703 0
M  V30 3287 H 305.042 1.79958 -0.973467 0
M  V30 3288 H 305.052 4.07911 -0.0851129 0
M  V30 3289 H 303.727 3.97218 -1.2325 0
M  V30 3290 H 302.304 3.68422 0.57619 0
M  V30 3291 N 304.489 0.459591 1.5075 0
M  V30 3292 C 305.419 -0.330644 2.31147 0
M  V30 3293 C 306.4 -1.00087 1.37538 0
M  V30 3294 O 307.585 -1.00025 1.66459 0
M  V30 3295 C 304.715 -1.41958 3.16962 0
M  V30 3296 C 303.669 -0.871608 4.19031 0
M  V30 3297 C 302.995 -2.05797 4.9351 0
M  V30 3298 C 304.295 0.109251 5.22186 0
M  V30 3299 H 305.989 0.340336 2.97459 0
M  V30 3300 H 303.535 0.165119 1.4305 0
M  V30 3301 H 305.488 -1.9798 3.71997 0
M  V30 3302 H 304.212 -2.11917 2.48513 0
M  V30 3303 H 302.871 -0.333442 3.6508 0
M  V30 3304 H 302.519 -2.74427 4.21544 0
M  V30 3305 H 302.219 -1.6976 5.62544 0
M  V30 3306 H 303.743 -2.62331 5.51375 0
M  V30 3307 H 305.157 -0.361405 5.7216 0
M  V30 3308 H 303.554 0.383316 5.98875 0
M  V30 3309 H 304.624 1.03887 4.73641 0
M  V30 3310 N 305.967 -1.56429 0.191757 0
M  V30 3311 C 307.215 -1.97095 -0.447006 0
M  V30 3312 C 307.536 -1.07967 -1.62383 0
M  V30 3313 O 306.806 -0.150248 -1.95323 0
M  V30 3314 H 305.386 -0.727832 -0.168135 0
M  V30 3315 H 308.048 -1.92911 0.27771 0
M  V30 3316 H 307.144 -3.01848 -0.793371 0
M  V30 3317 N 307.445 0.0818655 -1.57387 0
M  V30 3318 C 308.375 1.09885 -2.06028 0
M  V30 3319 C 309.356 1.4098 -0.951774 0
M  V30 3320 O 310.541 1.50781 -1.22387 0
M  V30 3321 C 307.671 2.4151 -2.4958 0
M  V30 3322 C 306.625 2.24792 -3.64215 0
M  V30 3323 C 305.951 3.61712 -3.93787 0
M  V30 3324 C 307.251 1.67749 -4.94629 0
M  V30 3325 H 308.945 0.694128 -2.91243 0
M  V30 3326 H 306.491 0.332448 -1.4011 0
M  V30 3327 H 308.444 3.12939 -2.82219 0
M  V30 3328 H 307.168 2.83943 -1.61381 0
M  V30 3329 H 305.827 1.55807 -3.31843 0
M  V30 3330 H 305.475 4.01697 -3.02735 0
M  V30 3331 H 305.175 3.51368 -4.70971 0
M  V30 3332 H 306.699 4.34587 -4.28913 0
M  V30 3333 H 308.113 2.29032 -5.25564 0
M  V30 3334 H 306.51 1.68128 -5.76067 0
M  V30 3335 H 307.58 0.638059 -4.80684 0
M  V30 3336 N 308.923 1.53595 0.353017 0
M  V30 3337 C 309.856 1.7572 1.45594 0
M  V30 3338 C 310.834 0.605961 1.50887 0
M  V30 3339 O 312.018 0.840023 1.68748 0
M  V30 3340 C 309.145 1.84732 2.83887 0
M  V30 3341 C 308.191 3.06808 2.96262 0
M  V30 3342 S 309.024 4.66065 2.63711 0
M  V30 3343 C 310.18 4.77943 4.04131 0
M  V30 3344 H 310.413 2.68994 1.26608 0
M  V30 3345 H 307.946 1.44343 0.548117 0
M  V30 3346 H 309.904 1.9061 3.63563 0
M  V30 3347 H 308.565 0.92488 3.00175 0
M  V30 3348 H 307.758 3.09761 3.97573 0
M  V30 3349 H 307.36 2.99108 2.24523 0
M  V30 3350 H 309.652 4.5877 4.98534 0
M  V30 3351 H 310.595 5.80022 4.06177 0
M  V30 3352 H 311.003 4.06472 3.91715 0
M  V30 3353 N 310.401 -0.613514 1.45168 0
M  V30 3354 C 311.812 -1.19539 1.43413 0
M  V30 3355 C 312.163 -1.95558 0.158632 0
M  V30 3356 O 311.288 -2.0335 -0.740119 0
M  V30 3357 C 311.883 -2.17445 2.59813 0
M  V30 3358 C 310.442 -2.71022 2.61197 0
M  V30 3359 C 309.589 -1.46323 2.35552 0
M  V30 3360 H 312.54 -0.403163 1.53494 0
M  V30 3361 H 312.561 -3.00373 2.33574 0
M  V30 3362 H 312.073 -1.62089 3.52631 0
M  V30 3363 H 310.174 -3.30332 1.7237 0
M  V30 3364 H 310.287 -3.15859 3.60236 0
M  V30 3365 H 308.651 -1.75072 1.84992 0
M  V30 3366 H 309.434 -0.92844 3.30507 0
M  V30 3367 N 311.879 -1.3236 -0.855495 0
M  V30 3368 C 312.826 -1.21225 -1.964 0
M  V30 3369 C 313.796 -0.0946204 -1.6583 0
M  V30 3370 O 314.981 -0.27002 -1.8888 0
M  V30 3371 C 312.121 -0.940419 -3.32039 0
M  V30 3372 C 311.234 -2.14276 -3.75113 0
M  V30 3373 C 310.369 -1.80648 -4.9954 0
M  V30 3374 C 309.408 -2.97208 -5.35102 0
M  V30 3375 N 308.545 -2.63678 -6.50706 0
M  V30 3376 H 313.385 -2.16042 -2.05255 0
M  V30 3377 H 310.922 -1.07451 -1.00463 0
M  V30 3378 H 312.88 -0.763311 -4.10158 0
M  V30 3379 H 311.51 -0.0290413 -3.22787 0
M  V30 3380 H 310.562 -2.43017 -2.92655 0
M  V30 3381 H 311.874 -3.01468 -3.97389 0
M  V30 3382 H 311.028 -1.59484 -5.85363 0
M  V30 3383 H 309.767 -0.906678 -4.79198 0
M  V30 3384 H 308.772 -3.19004 -4.47791 0
M  V30 3385 H 309.997 -3.87918 -5.57401 0
M  V30 3386 H 307.943 -1.76238 -6.31883 0
M  V30 3387 H 307.86 -3.444 -6.72997 0
M  V30 3388 H 309.128 -2.45942 -7.39684 0
M  V30 3389 N 313.357 1.07166 -1.15556 0
M  V30 3390 C 314.582 1.84053 -0.955988 0
M  V30 3391 C 315.007 1.81586 0.490739 0
M  V30 3392 O 314.365 1.21018 1.34997 0
M  V30 3393 C 314.413 3.28957 -1.47714 0
M  V30 3394 O 313.517 4.06795 -0.677593 0
M  V30 3395 H 312.858 0.569842 -0.340847 0
M  V30 3396 H 315.388 1.35178 -1.53584 0
M  V30 3397 H 315.398 3.79788 -1.4908 0
M  V30 3398 H 314.073 3.30068 -2.53037 0
M  V30 3399 H 312.65 3.6561 -0.733721 0
M  V30 3400 N 314.835 0.952656 1.25548 0
M  V30 3401 C 316.084 0.602053 1.92505 0
M  V30 3402 C 316.397 -0.864663 1.75451 0
M  V30 3403 O 317.603 -1.32514 2.36965 0
M  V30 3404 C 316.059 1.02607 3.44963 0
M  V30 3405 C 315.667 2.51519 3.70732 0
M  V30 3406 C 317.411 0.747905 4.1786 0
M  V30 3407 C 315.318 2.87732 5.16686 0
M  V30 3408 H 314.248 0.22146 0.720744 0
M  V30 3409 H 316.899 1.15684 1.42441 0
M  V30 3410 H 315.281 0.399712 3.93978 0
M  V30 3411 H 316.455 3.19157 3.32378 0
M  V30 3412 H 314.77 2.76786 3.11092 0
M  V30 3413 H 317.367 0.994647 5.25367 0
M  V30 3414 H 317.71 -0.315629 4.15102 0
M  V30 3415 H 318.243 1.33452 3.74747 0
M  V30 3416 H 314.982 3.93095 5.24554 0
M  V30 3417 H 314.502 2.24765 5.56094 0
M  V30 3418 H 316.181 2.76817 5.84792 0
M  V30 3419 N 316.313 -1.40141 0.720998 0
M  V30 3420 C 317.561 -2.0039 0.262323 0
M  V30 3421 C 317.882 -1.57469 -1.15015 0
M  V30 3422 O 317.152 -0.816582 -1.78069 0
M  V30 3423 H 315.732 -0.741063 0.093996 0
M  V30 3424 H 318.394 -1.71398 0.927835 0
M  V30 3425 H 317.49 -3.10658 0.299671 0
M  V30 3426 N 317.792 -0.46758 -1.50504 0
M  V30 3427 C 319.203 -0.0116166 -1.86696 0
M  V30 3428 C 319.554 1.39202 -1.38265 0
M  V30 3429 O 318.679 2.0313 -0.746132 0
M  V30 3430 C 319.274 -0.0143044 -3.38797 0
M  V30 3431 C 317.833 0.386175 -3.74414 0
M  V30 3432 C 316.98 -0.401287 -2.74381 0
M  V30 3433 H 319.931 -0.682022 -1.43297 0
M  V30 3434 H 319.952 0.788641 -3.72237 0
M  V30 3435 H 319.464 -1.03602 -3.74016 0
M  V30 3436 H 317.565 1.41237 -3.44794 0
M  V30 3437 H 317.678 0.0899596 -4.79016 0
M  V30 3438 H 316.042 0.144536 -2.5429 0
M  V30 3439 H 316.825 -1.42244 -3.12444 0
M  V30 3440 N 319.27 1.56325 -0.20005 0
M  V30 3441 C 320.2 2.22318 0.713916 0
M  V30 3442 C 321.181 1.18788 1.21752 0
M  V30 3443 O 322.366 1.47309 1.26545 0
M  V30 3444 C 319.496 2.88639 1.93144 0
M  V30 3445 C 318.45 3.98457 1.56255 0
M  V30 3446 C 317.776 4.51967 2.85709 0
M  V30 3447 C 319.076 5.16612 0.768747 0
M  V30 3448 H 320.77 2.98952 0.163755 0
M  V30 3449 H 318.316 1.43792 0.0773219 0
M  V30 3450 H 320.269 3.33491 2.57608 0
M  V30 3451 H 318.993 2.09419 2.50621 0
M  V30 3452 H 317.652 3.54305 0.941471 0
M  V30 3453 H 317.3 3.69503 3.41287 0
M  V30 3454 H 317 5.26071 2.6177 0
M  V30 3455 H 318.524 4.99523 3.51154 0
M  V30 3456 H 319.938 5.57977 1.3166 0
M  V30 3457 H 318.335 5.96812 0.627286 0
M  V30 3458 H 319.405 4.84358 -0.229168 0
M  V30 3459 N 320.748 -0.0735177 1.57428 0
M  V30 3460 C 321.976 -0.785969 1.9139 0
M  V30 3461 C 322.391 -1.71207 0.795847 0
M  V30 3462 O 321.748 -1.81033 -0.230915 0
M  V30 3463 C 321.799 -1.58107 3.25091 0
M  V30 3464 O 321.52 -0.6922 4.32597 0
M  V30 3465 C 323.021 -2.39467 3.73055 0
M  V30 3466 H 320.241 -0.223558 0.632663 0
M  V30 3467 H 322.785 -0.044302 2.04452 0
M  V30 3468 H 320.94 -2.27503 3.13562 0
M  V30 3469 H 321.354 -1.24504 5.09508 0
M  V30 3470 H 322.828 -2.90716 4.69242 0
M  V30 3471 H 323.305 -3.18913 3.01979 0
M  V30 3472 H 323.911 -1.7523 3.87523 0
M  V30 3473 N 322.226 -1.5378 -0.344866 0
M  V30 3474 C 323.473 -1.70963 -1.08526 0
M  V30 3475 C 323.801 -0.472126 -1.88683 0
M  V30 3476 O 323.056 0.546116 -1.87926 0
M  V30 3477 C 323.355 -2.92407 -2.05506 0
M  V30 3478 C 323.021 -4.28066 -1.41671 0
M  V30 3479 C 321.683 -4.64951 -1.2399 0
M  V30 3480 C 324.035 -5.12344 -0.956726 0
M  V30 3481 C 321.363 -5.83733 -0.589277 0
M  V30 3482 C 323.715 -6.3179 -0.320015 0
M  V30 3483 C 322.379 -6.67372 -0.130881 0
M  V30 3484 H 321.649 -0.625598 -0.397124 0
M  V30 3485 H 324.296 -1.87995 -0.36469 0
M  V30 3486 H 322.601 -2.69973 -2.8394 0
M  V30 3487 H 324.298 -3.02895 -2.62784 0
M  V30 3488 H 320.888 -3.99034 -1.56429 0
M  V30 3489 H 325.072 -4.8438 -1.08118 0
M  V30 3490 H 320.328 -6.09877 -0.431344 0
M  V30 3491 H 324.502 -6.96386 0.0445072 0
M  V30 3492 H 322.129 -7.59273 0.375318 0
M  V30 3493 N 323.704 0.605807 -1.45491 0
M  V30 3494 C 324.95 1.36679 -1.49823 0
M  V30 3495 C 325.283 1.93693 -0.140175 0
M  V30 3496 O 324.558 1.75158 0.845581 0
M  V30 3497 C 324.841 2.51337 -2.57879 0
M  V30 3498 C 324.694 1.99508 -4.03134 0
M  V30 3499 C 326.013 3.53463 -2.62205 0
M  V30 3500 H 323.132 0.495617 -0.545466 0
M  V30 3501 H 325.774 0.682732 -1.7731 0
M  V30 3502 H 323.924 3.09691 -2.34571 0
M  V30 3503 H 325.596 1.45789 -4.37656 0
M  V30 3504 H 323.839 1.30496 -4.13707 0
M  V30 3505 H 324.51 2.82169 -4.74431 0
M  V30 3506 H 326.986 3.04953 -2.83095 0
M  V30 3507 H 325.862 4.31178 -3.39672 0
M  V30 3508 H 326.123 4.09197 -1.67363 0
M  V30 3509 N 325.182 1.32811 0.848464 0
M  V30 3510 C 326.429 1.23724 1.60308 0
M  V30 3511 C 326.757 -0.1994 1.93475 0
M  V30 3512 O 326.012 -1.15406 1.5805 0
M  V30 3513 C 326.311 2.04831 2.92881 0
M  V30 3514 C 325.977 3.54125 2.79117 0
M  V30 3515 C 324.639 3.94829 2.7507 0
M  V30 3516 C 326.991 4.49036 2.64606 0
M  V30 3517 C 324.319 5.28675 2.544 0
M  V30 3518 C 326.671 5.83033 2.4547 0
M  V30 3519 C 325.335 6.22931 2.39819 0
M  V30 3520 H 324.605 0.452737 0.586609 0
M  V30 3521 H 327.252 1.64301 0.983743 0
M  V30 3522 H 325.557 1.57001 3.58968 0
M  V30 3523 H 327.254 1.95164 3.50303 0
M  V30 3524 H 323.844 3.21801 2.83094 0
M  V30 3525 H 328.028 4.18505 2.66772 0
M  V30 3526 H 323.284 5.58637 2.48465 0
M  V30 3527 H 327.458 6.56186 2.33222 0
M  V30 3528 H 325.085 7.26584 2.23562 0
M  V30 3529 N 326.66 -1.06551 1.16123 0
M  V30 3530 C 327.888 -1.83005 0.965237 0
M  V30 3531 C 328.303 -1.82423 -0.486542 0
M  V30 3532 O 327.66 -1.24152 -1.33763 0
M  V30 3533 C 327.711 -3.29733 1.48183 0
M  V30 3534 O 327.432 -3.30416 2.87674 0
M  V30 3535 C 328.933 -4.22926 1.32848 0
M  V30 3536 H 326.153 -0.577118 0.342309 0
M  V30 3537 H 328.697 -1.3445 1.54089 0
M  V30 3538 H 326.852 -3.75609 0.948517 0
M  V30 3539 H 327.266 -4.22149 3.11272 0
M  V30 3540 H 328.74 -5.23916 1.73827 0
M  V30 3541 H 329.217 -4.38346 0.273692 0
M  V30 3542 H 329.823 -3.82894 1.85127 0
M  V30 3543 N 328.138 -0.959301 -1.25041 0
M  V30 3544 C 329.386 -0.615393 -1.92503 0
M  V30 3545 C 329.707 0.850969 -1.75452 0
M  V30 3546 O 328.977 1.60658 -1.12098 0
M  V30 3547 H 327.557 -0.224613 -0.712431 0
M  V30 3548 H 330.219 -1.21855 -1.5211 0
M  V30 3549 H 329.315 -0.848738 -3.00338 0
M  V30 3550 N 329.616 1.39756 -0.72842 0
M  V30 3551 C 330.844 2.04948 -0.283528 0
M  V30 3552 C 331.259 1.54908 1.0793 0
M  V30 3553 O 330.616 0.711135 1.68075 0
M  V30 3554 C 330.667 3.60498 -0.268957 0
M  V30 3555 O 330.388 4.08695 -1.57798 0
M  V30 3556 C 331.889 4.4288 0.192912 0
M  V30 3557 H 329.109 0.659243 -0.125056 0
M  V30 3558 H 331.653 1.78927 -0.990226 0
M  V30 3559 H 329.808 3.85444 0.388801 0
M  V30 3560 H 330.222 5.02977 -1.48709 0
M  V30 3561 H 331.696 5.51791 0.151952 0
M  V30 3562 H 332.173 4.21418 1.23708 0
M  V30 3563 H 332.779 4.23069 -0.435039 0
M  V30 3564 N 331.094 0.475555 1.50254 0
M  V30 3565 C 332.342 -0.077738 2.0195 0
M  V30 3566 C 332.663 -1.39813 1.35931 0
M  V30 3567 O 331.933 -1.89249 0.506123 0
M  V30 3568 H 330.513 -0.031719 0.746326 0
M  V30 3569 H 333.175 0.626995 1.84539 0
M  V30 3570 H 332.271 -0.225995 3.11281 0
M  V30 3571 N 332.573 -1.56217 0.208337 0
M  V30 3572 C 333.521 -2.21053 -0.723769 0
M  V30 3573 C 334.515 -1.18578 -1.20978 0
M  V30 3574 O 335.721 -1.36691 -1.17114 0
M  V30 3575 H 332.096 -0.708595 -0.251788 0
M  V30 3576 H 334.067 -2.98006 -0.153365 0
M  V30 3577 C 332.816 -2.89417 -1.927 0
M  V30 3578 H 332.139 -3.68019 -1.56212 0
M  V30 3579 H 333.579 -3.38201 -2.55727 0
M  V30 3580 C 332.038 -1.91166 -2.77411 0
M  V30 3581 O 332.568 -1.42026 -3.75754 0
M  V30 3582 N 330.774 -1.59105 -2.43175 0
M  V30 3583 H 330.321 -1.99259 -1.63259 0
M  V30 3584 H 330.279 -0.936255 -3.00136 0
M  V30 3585 N 334.051 0.0651679 -1.57465 0
M  V30 3586 C 335.297 0.764193 -1.87851 0
M  V30 3587 C 335.63 1.76889 -0.801495 0
M  V30 3588 O 334.905 1.93594 0.187528 0
M  V30 3589 C 335.188 1.46625 -3.28897 0
M  V30 3590 C 335.041 0.477515 -4.47258 0
M  V30 3591 C 336.36 2.4095 -3.68281 0
M  V30 3592 H 333.479 0.276351 -0.683227 0
M  V30 3593 H 336.121 0.0272868 -1.8998 0
M  V30 3594 H 334.271 2.09438 -3.27212 0
M  V30 3595 H 335.943 -0.145922 -4.61069 0
M  V30 3596 H 334.186 -0.206576 -4.33308 0
M  V30 3597 H 334.857 1.0065 -5.42746 0
M  V30 3598 H 337.333 1.88209 -3.71102 0
M  V30 3599 H 336.209 2.87072 -4.67847 0
M  V30 3600 H 336.47 3.26049 -2.98571 0
M  V30 3601 N 335.529 1.53961 0.336706 0
M  V30 3602 C 336.754 1.75797 1.10046 0
M  V30 3603 C 337.179 0.498985 1.81361 0
M  V30 3604 O 336.537 -0.548769 1.72795 0
M  V30 3605 C 336.585 2.94257 2.08436 0
M  V30 3606 O 335.689 2.64883 3.16087 0
M  V30 3607 H 335.03 0.582936 0.317934 0
M  V30 3608 H 337.56 2.00945 0.38501 0
M  V30 3609 H 337.57 3.21237 2.51537 0
M  V30 3610 H 336.245 3.85564 1.55927 0
M  V30 3611 H 334.822 2.48812 2.77753 0
M  V30 3612 N 337.007 -0.598083 1.45811 0
M  V30 3613 C 337.954 -1.7082 1.55207 0
M  V30 3614 C 338.924 -1.61278 0.39732 0
M  V30 3615 O 340.109 -1.80717 0.612038 0
M  V30 3616 C 337.249 -3.09144 1.53376 0
M  V30 3617 C 336.362 -3.29423 2.79472 0
M  V30 3618 C 335.497 -4.57907 2.69248 0
M  V30 3619 C 334.536 -4.71476 3.90354 0
M  V30 3620 N 333.673 -5.9127 3.78608 0
M  V30 3621 H 338.513 -1.62125 2.50039 0
M  V30 3622 H 336.05 -0.790389 1.24062 0
M  V30 3623 H 338.008 -3.89186 1.50301 0
M  V30 3624 H 336.638 -3.16773 0.620876 0
M  V30 3625 H 335.69 -2.43091 2.92594 0
M  V30 3626 H 337.002 -3.3532 3.69272 0
M  V30 3627 H 336.156 -5.46157 2.64192 0
M  V30 3628 H 334.895 -4.54423 1.77063 0
M  V30 3629 H 333.9 -3.81648 3.95759 0
M  V30 3630 H 335.125 -4.76751 4.83617 0
M  V30 3631 H 333.071 -5.88813 2.89199 0
M  V30 3632 H 332.988 -5.98369 4.6205 0
M  V30 3633 H 334.256 -6.81992 3.77501 0
M  V30 3634 N 338.485 -1.33259 -0.841409 0
M  V30 3635 C 339.733 -1.24326 -1.59334 0
M  V30 3636 C 340.054 0.191564 -1.94057 0
M  V30 3637 O 339.324 1.11967 -1.60749 0
M  V30 3638 H 337.904 -0.457174 -0.590763 0
M  V30 3639 H 340.566 -1.66947 -1.00571 0
M  V30 3640 H 339.662 -1.8352 -2.52442 0
M  V30 3641 N 339.963 1.05934 -1.16686 0
M  V30 3642 C 340.926 2.11669 -0.879144 0
M  V30 3643 C 341.926 1.60294 0.127445 0
M  V30 3644 O 343.116 1.7389 -0.103865 0
M  V30 3645 C 340.248 3.39438 -0.315425 0
M  V30 3646 H 341.441 2.38626 -1.81653 0
M  V30 3647 H 338.994 1.22058 -0.976299 0
M  V30 3648 H 339.729 3.18132 0.629468 0
M  V30 3649 H 339.514 3.78034 -1.04079 0
M  V30 3650 H 341.004 4.17391 -0.132189 0
M  V30 3651 N 341.441 0.965919 1.2453 0
M  V30 3652 C 342.373 0.452465 2.2469 0
M  V30 3653 C 343.386 -0.437821 1.56802 0
M  V30 3654 O 344.575 -0.244283 1.76821 0
M  V30 3655 C 341.675 -0.366258 3.36915 0
M  V30 3656 C 340.848 0.513701 4.34373 0
M  V30 3657 C 339.907 -0.248716 5.25612 0
M  V30 3658 O 338.933 0.356745 5.68081 0
M  V30 3659 N 340.135 -1.53877 5.59734 0
M  V30 3660 H 342.9 1.31361 2.69378 0
M  V30 3661 H 340.461 0.837541 1.38553 0
M  V30 3662 H 342.453 -0.884297 3.94921 0
M  V30 3663 H 341.023 -1.12832 2.91526 0
M  V30 3664 H 340.243 1.21273 3.75082 0
M  V30 3665 H 341.531 1.11391 4.96457 0
M  V30 3666 H 340.929 -2.05243 5.27154 0
M  V30 3667 H 339.486 -2.00254 6.20275 0
M  V30 3668 N 342.919 -1.39368 0.735821 0
M  V30 3669 C 343.882 -2.2896 0.104874 0
M  V30 3670 C 344.882 -1.46347 -0.666274 0
M  V30 3671 O 346.072 -1.67014 -0.49517 0
M  V30 3672 C 343.204 -3.29857 -0.860656 0
M  V30 3673 H 344.397 -2.86259 0.894205 0
M  V30 3674 H 341.95 -1.48029 0.501704 0
M  V30 3675 H 342.685 -2.77615 -1.67631 0
M  V30 3676 H 342.47 -3.9087 -0.310327 0
M  V30 3677 H 343.96 -3.96893 -1.29867 0
M  V30 3678 N 344.397 -0.483516 -1.5 0
M  V30 3679 C 345.646 0.0689102 -2.01582 0
M  V30 3680 C 345.959 1.39655 -1.36952 0
M  V30 3681 O 347.165 2.03465 -1.79762 0
M  V30 3682 C 345.621 0.173302 -3.59483 0
M  V30 3683 C 345.229 -1.14665 -4.33077 0
M  V30 3684 C 346.973 0.677024 -4.19066 0
M  V30 3685 C 344.88 -1.00537 -5.82792 0
M  V30 3686 H 343.81 0.0295277 -0.753422 0
M  V30 3687 H 346.461 -0.620295 -1.72698 0
M  V30 3688 H 344.843 0.926569 -3.85007 0
M  V30 3689 H 346.017 -1.91184 -4.19268 0
M  V30 3690 H 344.332 -1.58244 -3.85159 0
M  V30 3691 H 346.929 0.799952 -5.28682 0
M  V30 3692 H 347.272 1.67151 -3.81269 0
M  V30 3693 H 347.805 -0.0192083 -3.97795 0
M  V30 3694 H 344.544 -1.9736 -6.25083 0
M  V30 3695 H 344.064 -0.280776 -5.99142 0
M  V30 3696 H 345.743 -0.677 -6.43448 0
M  V30 3697 N 345.875 1.56104 -0.216619 0
M  V30 3698 C 347.122 1.98172 0.416416 0
M  V30 3699 C 347.45 1.10413 1.60122 0
M  V30 3700 O 346.705 0.147967 1.9514 0
M  V30 3701 C 347.004 3.45923 0.898464 0
M  V30 3702 C 346.67 4.50559 -0.175288 0
M  V30 3703 C 345.332 4.78897 -0.470271 0
M  V30 3704 C 347.684 5.1334 -0.901728 0
M  V30 3705 C 345.012 5.67299 -1.4963 0
M  V30 3706 C 347.364 6.02853 -1.91705 0
M  V30 3707 C 346.028 6.29537 -2.21901 0
M  V30 3708 H 345.298 0.725164 0.152377 0
M  V30 3709 H 347.945 1.88839 -0.318103 0
M  V30 3710 H 346.25 3.52434 1.71165 0
M  V30 3711 H 347.947 3.75841 1.39803 0
M  V30 3712 H 344.537 4.28551 0.0647806 0
M  V30 3713 H 348.721 4.91521 -0.687072 0
M  V30 3714 H 343.977 5.86239 -1.73592 0
M  V30 3715 H 348.151 6.50552 -2.48505 0
M  V30 3716 H 345.778 6.97835 -3.01548 0
M  V30 3717 N 347.353 -0.0568162 1.57498 0
M  V30 3718 C 348.301 -1.08452 2.05769 0
M  V30 3719 C 349.295 -1.39164 0.965903 0
M  V30 3720 O 350.501 -1.38395 1.15095 0
M  V30 3721 H 346.876 -0.367148 0.656282 0
M  V30 3722 H 348.847 -0.651368 2.91204 0
M  V30 3723 C 347.596 -2.38543 2.52968 0
M  V30 3724 H 346.919 -2.15765 3.36579 0
M  V30 3725 H 348.359 -3.08863 2.90481 0
M  V30 3726 C 346.818 -3.05562 1.41893 0
M  V30 3727 O 347.348 -3.94262 0.769442 0
M  V30 3728 N 345.554 -2.6643 1.16032 0
M  V30 3729 H 345.101 -1.94387 1.6903 0
M  V30 3730 H 345.059 -3.11593 0.419219 0
M  V30 3731 N 348.832 -1.54138 -0.328536 0
M  V30 3732 C 349.742 -1.86192 -1.42723 0
M  V30 3733 C 350.758 -0.753382 -1.56844 0
M  V30 3734 O 351.934 -1.04718 -1.72035 0
M  V30 3735 C 348.999 -2.07824 -2.77507 0
M  V30 3736 C 348.06 -3.31641 -2.72603 0
M  V30 3737 C 347.293 -3.52232 -4.00959 0
M  V30 3738 O 347.516 -2.7636 -4.9898 0
M  V30 3739 O 346.45 -4.45699 -4.0452 0
M  V30 3740 H 350.276 -2.79608 -1.18547 0
M  V30 3741 H 347.861 -1.3998 -0.522104 0
M  V30 3742 H 349.743 -2.23411 -3.57303 0
M  V30 3743 H 348.418 -1.17596 -3.01584 0
M  V30 3744 H 347.325 -3.21444 -1.91376 0
M  V30 3745 H 348.658 -4.2191 -2.53481 0
M  V30 3746 N 350.31 0.590341 -1.46126 0
M  V30 3747 C 351.24 1.71032 -1.58966 0
M  V30 3748 C 352.221 1.64302 -0.440335 0
M  V30 3749 O 353.406 1.82436 -0.665634 0
M  V30 3750 C 350.536 3.09665 -1.57241 0
M  V30 3751 C 349.49 3.31221 -2.71066 0
M  V30 3752 C 348.816 4.70303 -2.54399 0
M  V30 3753 C 350.116 3.19796 -4.1295 0
M  V30 3754 H 351.81 1.60543 -2.52718 0
M  V30 3755 H 349.356 0.770933 -1.21625 0
M  V30 3756 H 351.309 3.87831 -1.64819 0
M  V30 3757 H 350.033 3.21036 -0.600289 0
M  V30 3758 H 348.692 2.55452 -2.62944 0
M  V30 3759 H 348.34 4.78429 -1.55288 0
M  V30 3760 H 348.04 4.85679 -3.30741 0
M  V30 3761 H 349.564 5.50647 -2.63857 0
M  V30 3762 H 350.978 3.87815 -4.22223 0
M  V30 3763 H 349.375 3.46696 -4.89818 0
M  V30 3764 H 350.445 2.16983 -4.33643 0
M  V30 3765 N 351.788 1.33704 0.83433 0
M  V30 3766 C 353.199 1.22813 1.4062 0
M  V30 3767 C 353.55 -0.151107 1.95617 0
M  V30 3768 O 352.675 -1.05092 1.89168 0
M  V30 3769 C 353.27 2.22355 2.55624 0
M  V30 3770 C 351.829 2.1529 3.08751 0
M  V30 3771 C 350.976 2.09589 1.8157 0
M  V30 3772 H 353.927 1.45236 0.639702 0
M  V30 3773 H 353.948 1.83391 3.33389 0
M  V30 3774 H 353.46 3.22728 2.15566 0
M  V30 3775 H 351.561 1.18235 3.53343 0
M  V30 3776 H 351.674 3.06038 3.68616 0
M  V30 3777 H 350.038 1.55134 2.02004 0
M  V30 3778 H 350.821 3.11777 1.43701 0
M  V30 3779 N 353.266 -1.05314 1.17247 0
M  V30 3780 C 354.506 -1.79869 0.970898 0
M  V30 3781 C 354.87 -1.85594 -0.491808 0
M  V30 3782 O 356.071 -2.56229 -0.812409 0
M  V30 3783 C 354.342 -3.19937 1.59295 0
M  V30 3784 S 355.901 -4.10986 1.53741 0
M  V30 3785 H 352.719 -0.61949 0.348931 0
M  V30 3786 H 355.321 -1.26368 1.49169 0
M  V30 3787 H 354.025 -3.13372 2.65003 0
M  V30 3788 H 353.556 -3.78515 1.07191 0
M  V30 3789 H 355.571 -4.93203 0.544537 0
M  V30 3790 N 354.744 -0.972509 -1.24016 0
M  V30 3791 C 355.654 -0.5143 -2.28893 0
M  V30 3792 C 356.67 0.427078 -1.68677 0
M  V30 3793 O 357.846 0.298939 -1.99169 0
M  V30 3794 C 354.911 0.183598 -3.46214 0
M  V30 3795 C 353.972 -0.798202 -4.21814 0
M  V30 3796 C 353.205 -0.133514 -5.33533 0
M  V30 3797 O 353.428 1.07714 -5.60137 0
M  V30 3798 O 352.362 -0.828103 -5.96176 0
M  V30 3799 H 356.188 -1.38629 -2.70214 0
M  V30 3800 H 353.773 -0.739769 -1.29799 0
M  V30 3801 H 355.655 0.575433 -4.17453 0
M  V30 3802 H 354.33 1.03048 -3.0686 0
M  V30 3803 H 353.237 -1.24059 -3.52931 0
M  V30 3804 H 354.57 -1.61364 -4.64997 0
M  V30 3805 N 356.222 1.38976 -0.743202 0
M  V30 3806 C 357.452 2.04339 -0.304807 0
M  V30 3807 C 357.86 1.56162 1.06819 0
M  V30 3808 O 357.203 0.725284 1.68776 0
M  V30 3809 C 357.265 3.58716 -0.237369 0
M  V30 3810 C 356.929 4.29905 -1.55018 0
M  V30 3811 C 357.926 4.55987 -2.49744 0
M  V30 3812 C 355.611 4.68294 -1.81675 0
M  V30 3813 C 357.605 5.19478 -3.69353 0
M  V30 3814 C 355.292 5.31512 -3.0156 0
M  V30 3815 C 356.29 5.57037 -3.9522 0
M  V30 3816 O 355.978 6.18941 -5.12998 0
M  V30 3817 H 355.71 0.663439 -0.12971 0
M  V30 3818 H 358.264 1.78852 -1.01001 0
M  V30 3819 H 356.494 3.83133 0.524003 0
M  V30 3820 H 358.183 4.05543 0.170121 0
M  V30 3821 H 358.949 4.26767 -2.30423 0
M  V30 3822 H 354.828 4.47779 -1.09615 0
M  V30 3823 H 358.372 5.39318 -4.42473 0
M  V30 3824 H 354.269 5.60153 -3.20778 0
M  V30 3825 H 355.037 6.37433 -5.13441 0
M  V30 3826 N 357.7 0.491464 1.49741 0
M  V30 3827 C 358.946 -0.0565092 2.02721 0
M  V30 3828 C 359.279 -1.37522 1.37118 0
M  V30 3829 O 358.554 -1.87866 0.503645 0
M  V30 3830 C 358.837 -0.219051 3.59433 0
M  V30 3831 C 358.69 1.12211 4.35579 0
M  V30 3832 C 360.009 -0.964157 4.29409 0
M  V30 3833 H 357.128 -0.0190627 0.736753 0
M  V30 3834 H 359.77 0.641021 1.7886 0
M  V30 3835 H 357.92 -0.813165 3.79895 0
M  V30 3836 H 359.592 1.75437 4.26637 0
M  V30 3837 H 357.835 1.71377 3.98513 0
M  V30 3838 H 358.506 0.961794 5.43556 0
M  V30 3839 H 360.982 -0.460378 4.13545 0
M  V30 3840 H 359.858 -1.04671 5.38828 0
M  V30 3841 H 360.119 -2.00563 3.93988 0
M  V30 3842 N 359.178 -1.55987 0.224894 0
M  V30 3843 C 360.088 -2.24066 -0.69511 0
M  V30 3844 C 361.104 -1.24939 -1.21104 0
M  V30 3845 O 362.28 -1.5776 -1.25195 0
M  V30 3846 C 359.345 -2.90983 -1.88493 0
M  V30 3847 C 358.406 -4.05462 -1.41064 0
M  V30 3848 C 357.639 -4.69179 -2.54375 0
M  V30 3849 O 357.862 -4.31895 -3.72589 0
M  V30 3850 O 356.796 -5.58108 -2.25386 0
M  V30 3851 H 360.622 -3.03353 -0.145149 0
M  V30 3852 H 358.207 -1.49399 -0.00569476 0
M  V30 3853 H 360.089 -3.33209 -2.57972 0
M  V30 3854 H 358.764 -2.14653 -2.42293 0
M  V30 3855 H 357.671 -3.67798 -0.683774 0
M  V30 3856 H 359.004 -4.83545 -0.918985 0
M  V30 3857 N 360.656 0.0484629 -1.57525 0
M  V30 3858 C 362.067 0.597486 -1.76881 0
M  V30 3859 C 362.418 1.76664 -0.853475 0
M  V30 3860 O 361.543 2.16357 -0.0433656 0
M  V30 3861 C 362.138 1.09066 -3.20765 0
M  V30 3862 C 360.697 1.58535 -3.41385 0
M  V30 3863 C 359.844 0.514868 -2.72478 0
M  V30 3864 H 362.795 -0.177758 -1.57701 0
M  V30 3865 H 362.816 1.95875 -3.2621 0
M  V30 3866 H 362.328 0.239521 -3.8736 0
M  V30 3867 H 360.429 2.45898 -2.79937 0
M  V30 3868 H 360.542 1.64622 -4.49929 0
M  V30 3869 H 358.906 0.965407 -2.35695 0
M  V30 3870 H 359.689 -0.32648 -3.41744 0
M  V30 3871 N 362.134 1.5431 0.320358 0
M  V30 3872 C 363.084 1.803 1.39556 0
M  V30 3873 C 364.068 0.659166 1.46778 0
M  V30 3874 O 365.26 0.91926 1.51257 0
M  V30 3875 C 362.389 2.03665 2.76361 0
M  V30 3876 C 361.475 3.24178 2.73439 0
M  V30 3877 N 361.866 4.4516 2.40137 0
M  V30 3878 C 360.164 3.25816 3.04565 0
M  V30 3879 C 360.865 5.27109 2.4603 0
M  V30 3880 N 359.841 4.64368 2.82601 0
M  V30 3881 H 363.643 2.71416 1.12742 0
M  V30 3882 H 361.157 1.53548 0.528856 0
M  V30 3883 H 363.154 2.20425 3.53862 0
M  V30 3884 H 361.814 1.13805 3.04103 0
M  V30 3885 H 362.825 4.72104 2.12927 0
M  V30 3886 H 359.502 2.46001 3.37328 0
M  V30 3887 H 360.892 6.33728 2.23246 0
M  V30 3888 N 363.613 -0.582584 1.46437 0
M  V30 3889 C 364.523 -1.71949 1.59595 0
M  V30 3890 C 365.539 -1.67264 0.479443 0
M  V30 3891 O 366.715 -1.87171 0.743579 0
M  V30 3892 C 363.78 -3.08452 1.58298 0
M  V30 3893 C 362.841 -3.244 2.81182 0
M  V30 3894 C 362.074 -4.54391 2.79937 0
M  V30 3895 O 362.297 -5.38287 1.8869 0
M  V30 3896 O 361.231 -4.73588 3.71481 0
M  V30 3897 H 365.057 -1.63795 2.55744 0
M  V30 3898 H 362.642 -0.749643 1.29231 0
M  V30 3899 H 364.524 -3.89732 1.60271 0
M  V30 3900 H 363.199 -3.17043 0.653094 0
M  V30 3901 H 362.106 -2.42613 2.84763 0
M  V30 3902 H 363.439 -3.20699 3.7338 0
M  V30 3903 N 365.091 -1.34144 -0.827227 0
M  V30 3904 C 366.021 -1.28005 -1.95287 0
M  V30 3905 C 367.002 -0.158321 -1.69362 0
M  V30 3906 O 368.187 -0.349987 -1.9102 0
M  V30 3907 C 365.317 -1.03036 -3.31664 0
M  V30 3908 C 364.271 -2.11628 -3.72019 0
M  V30 3909 C 363.597 -1.71854 -5.0633 0
M  V30 3910 C 364.897 -3.53417 -3.8457 0
M  V30 3911 H 366.591 -2.22187 -2.00682 0
M  V30 3912 H 364.137 -1.0696 -0.964135 0
M  V30 3913 H 366.09 -0.973863 -4.09993 0
M  V30 3914 H 364.814 -0.0529391 -3.26557 0
M  V30 3915 H 363.473 -2.16339 -2.95961 0
M  V30 3916 H 363.121 -0.727841 -4.97706 0
M  V30 3917 H 362.821 -2.44531 -5.34302 0
M  V30 3918 H 364.345 -1.67692 -5.87122 0
M  V30 3919 H 365.759 -3.51142 -4.5318 0
M  V30 3920 H 364.156 -4.24679 -4.2399 0
M  V30 3921 H 365.226 -3.91072 -2.86689 0
M  V30 3922 N 366.569 1.04691 -1.17803 0
M  V30 3923 C 367.516 2.12557 -0.899343 0
M  V30 3924 C 368.486 1.65339 0.158771 0
M  V30 3925 O 369.671 1.90789 0.0204797 0
M  V30 3926 C 366.811 3.42481 -0.424315 0
M  V30 3927 C 365.924 4.03346 -1.54713 0
M  V30 3928 C 365.059 5.21208 -1.02546 0
M  V30 3929 C 364.098 5.74089 -2.12339 0
M  V30 3930 N 363.235 6.83247 -1.61612 0
M  V30 3931 H 368.075 2.35734 -1.823 0
M  V30 3932 H 365.612 1.1564 -0.909159 0
M  V30 3933 H 367.57 4.16996 -0.130421 0
M  V30 3934 H 366.2 3.19471 0.462377 0
M  V30 3935 H 365.252 3.2622 -1.95664 0
M  V30 3936 H 366.564 4.38628 -2.37501 0
M  V30 3937 H 365.718 6.02812 -0.685718 0
M  V30 3938 H 364.457 4.87414 -0.167084 0
M  V30 3939 H 363.462 4.91111 -2.47165 0
M  V30 3940 H 364.687 6.0993 -2.98601 0
M  V30 3941 H 362.633 6.5134 -0.780533 0
M  V30 3942 H 362.55 7.17559 -2.38003 0
M  V30 3943 H 363.818 7.68491 -1.30545 0
M  V30 3944 N 368.047 0.979072 1.23499 0
M  V30 3945 C 368.957 0.526431 2.28617 0
M  V30 3946 C 369.973 -0.418126 1.68901 0
M  V30 3947 O 371.149 -0.288372 1.99325 0
M  V30 3948 C 368.214 -0.165235 3.46306 0
M  V30 3949 C 367.275 0.82056 4.21385 0
M  V30 3950 C 366.508 0.161807 5.33455 0
M  V30 3951 O 366.731 -1.04742 5.60701 0
M  V30 3952 O 365.665 0.859708 5.95729 0
M  V30 3953 H 369.491 1.4006 2.69475 0
M  V30 3954 H 367.076 0.746643 1.29405 0
M  V30 3955 H 368.958 -0.553287 4.17752 0
M  V30 3956 H 367.633 -1.01419 3.07402 0
M  V30 3957 H 366.54 1.25929 3.52268 0
M  V30 3958 H 367.873 1.63828 4.64135 0
M  V30 3959 N 369.525 -1.3858 0.750561 0
M  V30 3960 C 370.771 -2.00481 0.305825 0
M  V30 3961 C 371.104 -1.5944 -1.10872 0
M  V30 3962 O 370.379 -0.83052 -1.75877 0
M  V30 3963 C 370.662 -3.5758 0.425287 0
M  V30 3964 C 370.515 -4.08594 1.88072 0
M  V30 3965 C 371.834 -4.39719 -0.183122 0
M  V30 3966 H 368.953 -0.728348 0.112598 0
M  V30 3967 H 371.595 -1.64566 0.949638 0
M  V30 3968 H 369.745 -3.88306 -0.122828 0
M  V30 3969 H 371.417 -3.88523 2.48691 0
M  V30 3970 H 369.66 -3.61574 2.39681 0
M  V30 3971 H 370.331 -5.177 1.91548 0
M  V30 3972 H 372.807 -4.15128 0.284303 0
M  V30 3973 H 371.683 -5.48856 -0.0692757 0
M  V30 3974 H 371.944 -4.23434 -1.27106 0
M  V30 3975 N 371.003 -0.499398 -1.49478 0
M  V30 3976 C 372.228 0.044722 -2.07352 0
M  V30 3977 C 372.653 1.30207 -1.35749 0
M  V30 3978 O 372.011 1.76516 -0.413732 0
M  V30 3979 C 372.059 0.283013 -3.59488 0
M  V30 3980 O 371.163 1.35804 -3.89398 0
M  V30 3981 H 370.504 -0.0255147 -0.66351 0
M  V30 3982 H 373.034 -0.698561 -1.92305 0
M  V30 3983 H 373.044 0.515007 -4.04737 0
M  V30 3984 H 371.719 -0.635636 -4.11014 0
M  V30 3985 H 370.296 1.11113 -3.55961 0
M  V30 3986 N 372.481 1.55866 -0.233164 0
M  V30 3987 C 373.413 2.18099 0.704668 0
M  V30 3988 C 374.426 1.15334 1.14899 0
M  V30 3989 O 375.615 1.42262 1.07814 0
M  V30 3990 C 372.715 2.7592 1.96777 0
M  V30 3991 C 371.888 4.03969 1.67713 0
M  V30 3992 C 370.947 4.46242 2.78845 0
M  V30 3993 O 369.973 5.12903 2.46818 0
M  V30 3994 N 371.175 4.12886 4.08051 0
M  V30 3995 H 373.94 2.99205 0.172258 0
M  V30 3996 H 371.501 1.61815 -0.0525945 0
M  V30 3997 H 373.493 3.01165 2.70337 0
M  V30 3998 H 372.063 1.99051 2.41034 0
M  V30 3999 H 371.283 3.86459 0.777391 0
M  V30 4000 H 372.571 4.8748 1.4574 0
M  V30 4001 H 371.969 3.59342 4.3691 0
M  V30 4002 H 370.526 4.42997 4.78118 0
M  V30 4003 N 373.959 -0.0401083 1.57549 0
M  V30 4004 C 375.187 -0.745196 1.93014 0
M  V30 4005 C 375.602 -1.6948 0.831984 0
M  V30 4006 O 374.959 -1.81482 -0.192463 0
M  V30 4007 C 375.01 -1.51176 3.28372 0
M  V30 4008 O 374.731 -0.600284 4.33968 0
M  V30 4009 C 376.232 -2.315 3.78051 0
M  V30 4010 H 373.452 -0.210088 0.637263 0
M  V30 4011 H 375.996 -0.000924689 2.045 0
M  V30 4012 H 374.151 -2.20801 3.18317 0
M  V30 4013 H 374.565 -1.13669 5.12035 0
M  V30 4014 H 376.039 -2.80697 4.75303 0
M  V30 4015 H 376.516 -3.12436 3.08675 0
M  V30 4016 H 377.122 -1.66971 3.91153 0
M  V30 4017 N 375.437 -1.54477 -0.31217 0
M  V30 4018 C 376.685 -1.72884 -1.04668 0
M  V30 4019 C 377.006 -0.511477 -1.88173 0
M  V30 4020 O 376.276 0.474407 -1.90069 0
M  V30 4021 H 374.856 -0.637461 -0.389425 0
M  V30 4022 H 377.518 -1.91807 -0.345852 0
M  V30 4023 H 376.614 -2.61334 -1.70619 0
M  V30 4024 N 376.915 0.57481 -1.46744 0
M  V30 4025 C 378.192 1.3352 -1.4294 0
M  V30 4026 C 378.572 2.10775 -0.117009 0
M  V30 4027 O 377.92 2.09966 0.901474 0
M  V30 4028 C 378.13 2.25456 -2.66403 0
M  V30 4029 C 379.478 2.87035 -3.12883 0
M  V30 4030 O 380.502 2.35766 -2.67007 0
M  V30 4031 O 379.361 3.80179 -3.92589 0
M  V30 4032 H 376.455 0.600318 -0.568812 0
M  V30 4033 H 379.001 0.595171 -1.58921 0
M  V30 4034 H 377.773 1.67851 -3.53471 0
M  V30 4035 H 377.396 3.06785 -2.52921 0
M  V30 4036 N 378.394 1.34581 0.820102 0
M  V30 4037 C 379.324 1.29038 1.94606 0
M  V30 4038 C 380.305 0.1673 1.69275 0
M  V30 4039 O 381.49 0.360112 1.90832 0
M  V30 4040 C 378.62 1.04793 3.31113 0
M  V30 4041 C 377.574 2.13597 3.70891 0
M  V30 4042 C 376.9 1.74537 5.05412 0
M  V30 4043 C 378.2 3.55451 3.8269 0
M  V30 4044 H 379.894 2.23248 1.99501 0
M  V30 4045 H 377.44 1.0747 0.958449 0
M  V30 4046 H 379.393 0.995592 4.0947 0
M  V30 4047 H 378.117 0.0702565 3.26524 0
M  V30 4048 H 376.776 2.17905 2.9481 0
M  V30 4049 H 376.424 0.754226 4.97313 0
M  V30 4050 H 376.124 2.47361 5.32997 0
M  V30 4051 H 377.648 1.70803 5.86224 0
M  V30 4052 H 379.062 3.5354 4.51312 0
M  V30 4053 H 377.459 4.26922 4.21732 0
M  V30 4054 H 378.529 3.92587 2.84611 0
M  V30 4055 N 379.872 -1.04064 1.18357 0
M  V30 4056 C 381.288 -1.2947 0.933258 0
M  V30 4057 C 381.488 -1.97466 -0.401169 0
M  V30 4058 O 380.544 -2.25528 -1.13549 0
M  V30 4059 C 381.857 -2.15337 2.09882 0
M  V30 4060 C 383.405 -2.28683 2.13712 0
M  V30 4061 C 383.88 -3.17917 3.29686 0
M  V30 4062 N 385.371 -3.25504 3.29547 0
M  V30 4063 C 386.106 -3.94706 4.15926 0
M  V30 4064 N 385.602 -4.66239 5.12439 0
M  V30 4065 N 387.395 -3.90986 4.0384 0
M  V30 4066 H 379.546 -0.583359 2.04232 0
M  V30 4067 H 381.809 -0.319921 0.892387 0
M  V30 4068 H 381.515 -1.72682 3.06389 0
M  V30 4069 H 381.389 -3.16015 2.05947 0
M  V30 4070 H 383.776 -2.70575 1.17784 0
M  V30 4071 H 383.857 -1.27596 2.21705 0
M  V30 4072 H 383.501 -2.76736 4.25887 0
M  V30 4073 H 383.431 -4.19036 3.1893 0
M  V30 4074 H 385.922 -2.74547 2.59677 0
M  V30 4075 H 386.235 -5.16638 5.74722 0
M  V30 4076 H 384.58 -4.65143 5.16398 0
M  V30 4077 H 387.771 -3.34234 3.27727 0
M  V30 4078 H 387.944 -4.44646 4.71375 0
M  V30 4079 N 381.35 -0.985608 -1.22978 0
M  V30 4080 C 382.297 -0.529825 -2.24636 0
M  V30 4081 C 383.267 0.434028 -1.60329 0
M  V30 4082 O 384.452 0.340414 -1.87739 0
M  V30 4083 C 381.592 0.156533 -3.44745 0
M  V30 4084 C 380.705 -0.848197 -4.23591 0
M  V30 4085 C 379.84 -0.136109 -5.31026 0
M  V30 4086 C 378.879 -1.1297 -6.01585 0
M  V30 4087 N 378.016 -0.446415 -7.00679 0
M  V30 4088 H 382.856 -1.40148 -2.62988 0
M  V30 4089 H 380.393 -0.702168 -1.29259 0
M  V30 4090 H 382.351 0.571324 -4.1327 0
M  V30 4091 H 380.981 0.992025 -3.07179 0
M  V30 4092 H 380.033 -1.38135 -3.54433 0
M  V30 4093 H 381.345 -1.60512 -4.72268 0
M  V30 4094 H 380.499 0.335784 -6.0577 0
M  V30 4095 H 379.238 0.653373 -4.83304 0
M  V30 4096 H 378.243 -1.6123 -5.25628 0
M  V30 4097 H 379.468 -1.91993 -6.51395 0
M  V30 4098 H 377.414 0.323763 -6.55201 0
M  V30 4099 H 377.331 -1.1419 -7.47326 0
M  V30 4100 H 378.599 0.00291697 -7.795 0
M  V30 4101 N 382.828 1.3818 -0.7579 0
M  V30 4102 C 384.074 2.00316 -0.316453 0
M  V30 4103 C 384.407 1.60026 1.10025 0
M  V30 4104 O 383.682 0.839835 1.75434 0
M  V30 4105 C 383.965 3.57349 -0.444245 0
M  V30 4106 C 383.818 4.07591 -1.90236 0
M  V30 4107 C 385.137 4.3981 0.1598 0
M  V30 4108 H 382.256 0.727741 -0.116459 0
M  V30 4109 H 384.898 1.6406 -0.958352 0
M  V30 4110 H 383.048 3.88365 0.102233 0
M  V30 4111 H 384.72 3.87199 -2.50748 0
M  V30 4112 H 382.963 3.60297 -2.41595 0
M  V30 4113 H 383.634 5.16677 -1.94291 0
M  V30 4114 H 386.11 4.14971 -0.306314 0
M  V30 4115 H 384.986 5.48885 0.0401675 0
M  V30 4116 H 385.247 4.24102 1.24859 0
M  V30 4117 N 384.306 0.507319 1.49211 0
M  V30 4118 C 385.536 -0.0315292 2.06576 0
M  V30 4119 C 385.944 -1.30791 1.36713 0
M  V30 4120 O 385.287 -1.78324 0.441181 0
M  V30 4121 C 385.349 -0.349104 3.57801 0
M  V30 4122 C 385.013 0.830475 4.49391 0
M  V30 4123 C 386.01 1.72271 4.90529 0
M  V30 4124 C 383.695 1.03107 4.91604 0
M  V30 4125 C 385.689 2.79964 5.72625 0
M  V30 4126 C 383.376 2.11116 5.73475 0
M  V30 4127 C 384.374 2.99379 6.1389 0
M  V30 4128 O 384.062 4.05523 6.94123 0
M  V30 4129 H 383.794 0.0201002 0.675701 0
M  V30 4130 H 386.348 0.705737 1.92895 0
M  V30 4131 H 384.578 -1.14005 3.69513 0
M  V30 4132 H 386.267 -0.827319 3.97379 0
M  V30 4133 H 387.033 1.57958 4.58557 0
M  V30 4134 H 382.912 0.353417 4.59643 0
M  V30 4135 H 386.456 3.48884 6.04091 0
M  V30 4136 H 382.353 2.25421 6.0486 0
M  V30 4137 H 383.121 4.02953 7.1244 0
M  V30 4138 N 385.784 -1.5574 0.241426 0
M  V30 4139 C 387.032 -1.98417 -0.384075 0
M  V30 4140 C 387.353 -1.13078 -1.58866 0
M  V30 4141 O 386.623 -0.212312 -1.94746 0
M  V30 4142 H 385.203 -0.732813 -0.144894 0
M  V30 4143 H 387.865 -1.9193 0.338943 0
M  V30 4144 H 386.961 -3.04219 -0.696939 0
M  V30 4145 N 387.262 0.0317525 -1.57568 0
M  V30 4146 C 388.49 0.734949 -1.93407 0
M  V30 4147 C 388.905 1.69036 -0.84096 0
M  V30 4148 O 388.262 1.81582 0.182836 0
M  V30 4149 C 388.313 1.49432 -3.29169 0
M  V30 4150 O 388.034 0.577261 -4.3428 0
M  V30 4151 C 389.535 2.29492 -3.79273 0
M  V30 4152 H 386.755 0.206706 -0.638368 0
M  V30 4153 H 389.299 -0.00992046 -2.04498 0
M  V30 4154 H 387.454 2.1911 -3.19483 0
M  V30 4155 H 387.868 1.10952 -5.1263 0
M  V30 4156 H 389.342 2.78172 -4.76785 0
M  V30 4157 H 389.819 3.10794 -3.10328 0
M  V30 4158 H 390.425 1.64894 -3.92033 0
M  V30 4159 N 388.74 1.54641 0.303973 0
M  V30 4160 C 389.986 1.74038 1.04109 0
M  V30 4161 C 390.319 0.523051 1.87024 0
M  V30 4162 O 389.594 -0.479874 1.88487 0
M  V30 4163 C 389.877 3.02761 1.94955 0
M  V30 4164 C 389.73 4.34787 1.1524 0
M  V30 4165 C 391.049 3.27336 2.94175 0
M  V30 4166 H 388.168 0.63323 0.377079 0
M  V30 4167 H 390.81 1.87354 0.316001 0
M  V30 4168 H 388.96 2.9154 2.56782 0
M  V30 4169 H 390.632 4.57922 0.557236 0
M  V30 4170 H 388.875 4.31407 0.455053 0
M  V30 4171 H 389.546 5.21116 1.8205 0
M  V30 4172 H 392.022 3.38148 2.42477 0
M  V30 4173 H 390.898 4.18726 3.54908 0
M  V30 4174 H 391.159 2.45491 3.67677 0
M  V30 4175 N 390.218 -0.567019 1.47046 0
M  V30 4176 C 391.148 -1.68482 1.61667 0
M  V30 4177 C 392.129 -1.6358 0.466418 0
M  V30 4178 O 393.314 -1.81354 0.694574 0
M  V30 4179 C 390.444 -3.07124 1.62148 0
M  V30 4180 C 389.398 -3.26867 2.76301 0
M  V30 4181 C 388.724 -4.66196 2.61849 0
M  V30 4182 C 390.024 -3.13186 4.17986 0
M  V30 4183 H 391.718 -1.56502 2.5524 0
M  V30 4184 H 389.264 -0.751486 1.22836 0
M  V30 4185 H 391.217 -3.8516 1.70968 0
M  V30 4186 H 389.941 -3.2004 0.651287 0
M  V30 4187 H 388.6 -2.51237 2.66975 0
M  V30 4188 H 388.248 -4.75898 1.62879 0
M  V30 4189 H 387.948 -4.80356 3.38425 0
M  V30 4190 H 389.472 -5.46379 2.72584 0
M  V30 4191 H 390.886 -3.81049 4.2834 0
M  V30 4192 H 389.283 -3.3886 4.95272 0
M  V30 4193 H 390.353 -2.10057 4.3704 0
M  V30 4194 N 391.696 -1.35014 -0.812953 0
M  V30 4195 C 392.921 -1.31187 -1.60639 0
M  V30 4196 C 393.346 0.109382 -1.87782 0
M  V30 4197 O 392.704 1.07424 -1.46047 0
M  V30 4198 C 392.752 -2.11809 -2.91838 0
M  V30 4199 O 391.856 -1.49444 -3.8437 0
M  V30 4200 H 391.197 -0.450084 -0.488181 0
M  V30 4201 H 393.727 -1.77963 -1.00947 0
M  V30 4202 H 393.737 -2.23531 -3.41318 0
M  V30 4203 H 392.412 -3.15137 -2.71407 0
M  V30 4204 H 390.989 -1.46524 -3.42907 0
M  V30 4205 N 393.175 1.03435 -1.18907 0
M  V30 4206 C 394.591 1.28973 -0.940111 0
M  V30 4207 C 394.791 1.97676 0.390691 0
M  V30 4208 O 393.847 2.26127 1.12352 0
M  V30 4209 C 395.16 2.14221 -2.11021 0
M  V30 4210 C 396.708 2.27547 -2.14922 0
M  V30 4211 C 397.183 3.16164 -3.31367 0
M  V30 4212 N 398.674 3.23752 -3.31269 0
M  V30 4213 C 399.409 3.92495 -4.18014 0
M  V30 4214 N 398.905 4.63515 -5.14904 0
M  V30 4215 N 400.698 3.88838 -4.05908 0
M  V30 4216 H 392.849 0.57252 -2.04538 0
M  V30 4217 H 395.112 0.315184 -0.894071 0
M  V30 4218 H 394.818 1.71054 -3.073 0
M  V30 4219 H 394.692 3.14919 -2.0762 0
M  V30 4220 H 397.079 2.69947 -1.19217 0
M  V30 4221 H 397.16 1.26418 -2.22378 0
M  V30 4222 H 396.804 2.74474 -4.27348 0
M  V30 4223 H 396.734 4.17339 -3.21148 0
M  V30 4224 H 399.225 2.73167 -2.61129 0
M  V30 4225 H 399.538 5.13583 -5.77453 0
M  V30 4226 H 397.883 4.62398 -5.18857 0
M  V30 4227 H 401.074 3.32491 -3.29495 0
M  V30 4228 H 401.247 4.4214 -4.73726 0
M  V30 4229 N 394.653 0.992116 1.22453 0
M  V30 4230 C 395.603 0.512969 2.22155 0
M  V30 4231 C 396.587 -0.418416 1.55364 0
M  V30 4232 O 397.779 -0.245363 1.75291 0
M  V30 4233 C 394.908 -0.171822 3.4287 0
M  V30 4234 C 393.994 0.779822 4.16869 0
M  V30 4235 N 394.385 1.92734 4.6764 0
M  V30 4236 C 392.683 0.59554 4.42006 0
M  V30 4237 C 393.384 2.52458 5.24061 0
M  V30 4238 N 392.36 1.80735 5.12675 0
M  V30 4239 H 396.162 1.38817 2.5905 0
M  V30 4240 H 393.676 0.854277 1.38115 0
M  V30 4241 H 395.673 -0.532469 4.13486 0
M  V30 4242 H 394.333 -1.04317 3.07487 0
M  V30 4243 H 395.344 2.30816 4.63621 0
M  V30 4244 H 392.021 -0.229805 4.16867 0
M  V30 4245 H 393.411 3.49433 5.73887 0
M  V30 4246 N 396.131 -1.37776 0.765217 0
M  V30 4247 C 397.081 -2.2768 0.12075 0
M  V30 4248 C 398.065 -1.45778 -0.680988 0
M  V30 4249 O 399.257 -1.684 -0.545033 0
M  V30 4250 C 396.386 -3.34722 -0.762626 0
M  V30 4251 C 395.472 -4.24074 0.0465881 0
M  V30 4252 N 395.863 -4.93939 1.08892 0
M  V30 4253 C 394.161 -4.45643 -0.178418 0
M  V30 4254 C 394.862 -5.59845 1.57951 0
M  V30 4255 N 393.838 -5.36218 0.892797 0
M  V30 4256 H 397.64 -2.79166 0.918889 0
M  V30 4257 H 395.154 -1.50816 0.602353 0
M  V30 4258 H 397.151 -3.98031 -1.24005 0
M  V30 4259 H 395.811 -2.84793 -1.55959 0
M  V30 4260 H 396.822 -4.96572 1.47095 0
M  V30 4261 H 393.499 -4.06599 -0.9478 0
M  V30 4262 H 394.889 -6.25703 2.44838 0
M  V30 4263 N 397.609 -0.515225 -1.4894 0
M  V30 4264 C 398.559 0.275113 -2.26334 0
M  V30 4265 C 399.543 0.923007 -1.31793 0
M  V30 4266 O 400.735 0.828254 -1.56426 0
M  V30 4267 C 397.864 1.33041 -3.16473 0
M  V30 4268 C 396.95 0.688051 -4.18481 0
M  V30 4269 N 397.341 -0.217638 -5.05332 0
M  V30 4270 C 395.639 0.94699 -4.3583 0
M  V30 4271 C 396.34 -0.58676 -5.78733 0
M  V30 4272 N 395.316 0.0486966 -5.43578 0
M  V30 4273 H 399.118 -0.421876 -2.90856 0
M  V30 4274 H 396.632 -0.332249 -1.58965 0
M  V30 4275 H 398.629 1.9102 -3.70563 0
M  V30 4276 H 397.289 2.02894 -2.53504 0
M  V30 4277 H 398.3 -0.589343 -5.14536 0
M  V30 4278 H 394.977 1.63719 -3.8406 0
M  V30 4279 H 396.367 -1.32855 -6.58634 0
M  V30 4280 N 399.087 1.5561 -0.249682 0
M  V30 4281 C 400.017 2.24477 0.642826 0
M  V30 4282 C 400.998 1.22601 1.17911 0
M  V30 4283 O 402.183 1.5126 1.21795 0
M  V30 4284 C 399.313 2.94638 1.83863 0
M  V30 4285 C 398.267 4.03227 1.435 0
M  V30 4286 C 397.593 4.60828 2.71186 0
M  V30 4287 C 398.893 5.18796 0.604002 0
M  V30 4288 H 400.587 2.99321 0.0685625 0
M  V30 4289 H 398.133 1.43965 0.0315363 0
M  V30 4290 H 400.086 3.41517 2.46868 0
M  V30 4291 H 398.81 2.17287 2.43832 0
M  V30 4292 H 397.469 3.57121 0.828275 0
M  V30 4293 H 397.117 3.80174 3.29358 0
M  V30 4294 H 396.817 5.34132 2.44901 0
M  V30 4295 H 398.341 5.10442 3.35084 0
M  V30 4296 H 399.755 5.61883 1.13842 0
M  V30 4297 H 398.152 5.98506 0.437097 0
M  V30 4298 H 399.222 4.83384 -0.383147 0
M  V30 4299 N 400.565 -0.0233959 1.57583 0
M  V30 4300 C 401.811 -0.714119 1.89811 0
M  V30 4301 C 402.144 -1.74702 0.848113 0
M  V30 4302 O 401.419 -1.94023 -0.136135 0
M  V30 4303 C 401.702 -1.37853 3.32669 0
M  V30 4304 C 401.555 -0.358764 4.48367 0
M  V30 4305 C 402.874 -2.31101 3.7454 0
M  V30 4306 H 399.993 -0.25814 0.690314 0
M  V30 4307 H 402.635 0.0230927 1.89986 0
M  V30 4308 H 400.785 -2.00689 3.3265 0
M  V30 4309 H 402.457 0.268115 4.6052 0
M  V30 4310 H 400.7 0.321387 4.32608 0
M  V30 4311 H 401.371 -0.862242 5.45224 0
M  V30 4312 H 403.847 -1.78304 3.75961 0
M  V30 4313 H 402.723 -2.74567 4.75294 0
M  V30 4314 H 402.984 -3.18018 3.0711 0
M  V30 4315 N 402.043 -1.548 -0.295768 0
M  V30 4316 C 403.459 -1.4613 -0.641722 0
M  V30 4317 C 403.659 -0.656771 -1.90496 0
M  V30 4318 O 402.715 -0.166547 -2.5195 0
M  V30 4319 C 404.028 -2.90141 -0.789852 0
M  V30 4320 C 405.576 -3.00216 -0.885396 0
M  V30 4321 C 406.051 -4.45434 -1.06548 0
M  V30 4322 N 407.542 -4.49166 -1.13156 0
M  V30 4323 C 408.277 -5.58717 -1.28929 0
M  V30 4324 N 407.773 -6.78182 -1.41567 0
M  V30 4325 N 409.566 -5.46415 -1.31859 0
M  V30 4326 H 401.717 -2.05574 0.534147 0
M  V30 4327 H 403.98 -0.931259 0.177372 0
M  V30 4328 H 403.686 -3.51635 0.0675598 0
M  V30 4329 H 403.56 -3.37859 -1.67724 0
M  V30 4330 H 405.947 -2.38833 -1.73329 0
M  V30 4331 H 406.028 -2.55787 0.0261185 0
M  V30 4332 H 405.672 -5.07413 -0.222335 0
M  V30 4333 H 405.602 -4.87499 -1.9913 0
M  V30 4334 H 408.093 -3.631 -1.04721 0
M  V30 4335 H 408.406 -7.57428 -1.53372 0
M  V30 4336 H 406.751 -6.81037 -1.38613 0
M  V30 4337 H 409.942 -4.5203 -1.21601 0
M  V30 4338 H 410.115 -6.31841 -1.43808 0
M  V30 4339 N 403.521 0.559213 -1.47345 0
M  V30 4340 C 404.468 1.66645 -1.59682 0
M  V30 4341 C 405.438 1.60168 -0.43994 0
M  V30 4342 O 406.623 1.79031 -0.659736 0
M  V30 4343 C 403.763 3.04969 -1.61518 0
M  V30 4344 C 402.876 3.21897 -2.88108 0
M  V30 4345 C 402.011 4.50608 -2.81294 0
M  V30 4346 C 401.05 4.60961 -4.02717 0
M  V30 4347 N 400.187 5.81024 -3.94151 0
M  V30 4348 H 405.027 1.55439 -2.54249 0
M  V30 4349 H 402.564 0.757219 -1.26113 0
M  V30 4350 H 404.522 3.85064 -1.60566 0
M  V30 4351 H 403.152 3.15015 -0.704645 0
M  V30 4352 H 402.204 2.35248 -2.98936 0
M  V30 4353 H 403.516 3.25412 -3.78032 0
M  V30 4354 H 402.67 5.3896 -2.7858 0
M  V30 4355 H 401.409 4.49568 -1.89049 0
M  V30 4356 H 400.414 3.71021 -4.05738 0
M  V30 4357 H 401.639 4.63761 -4.96087 0
M  V30 4358 H 399.585 5.80938 -3.04708 0
M  V30 4359 H 399.502 5.85909 -4.77752 0
M  V30 4360 H 400.77 6.71744 -3.9545 0
M  V30 4361 N 404.999 1.35443 0.805782 0
M  V30 4362 C 406.227 1.31878 1.59423 0
M  V30 4363 C 406.642 -0.103562 1.88516 0
M  V30 4364 O 405.999 -1.05575 1.48863 0
M  V30 4365 C 406.05 2.12426 2.92502 0
M  V30 4366 O 405.771 3.49115 2.6467 0
M  V30 4367 C 407.272 2.16455 3.86862 0
M  V30 4368 H 404.492 0.453002 0.495005 0
M  V30 4369 H 407.036 1.78309 1.00131 0
M  V30 4370 H 405.191 1.69593 3.48306 0
M  V30 4371 H 405.605 3.90957 3.49647 0
M  V30 4372 H 407.079 2.77204 4.77349 0
M  V30 4373 H 407.556 1.16352 4.23508 0
M  V30 4374 H 408.162 2.59453 3.36993 0
M  V30 4375 N 406.477 -1.02803 1.19454 0
M  V30 4376 C 407.754 -1.73299 0.907013 0
M  V30 4377 C 408.134 -2.02772 -0.587086 0
M  V30 4378 O 407.482 -1.68304 -1.54551 0
M  V30 4379 C 407.692 -3.00912 1.76785 0
M  V30 4380 C 409.04 -3.74403 2.00268 0
M  V30 4381 O 410.064 -3.10841 1.73943 0
M  V30 4382 O 408.923 -4.88675 2.4466 0
M  V30 4383 H 406.017 -0.754727 0.338106 0
M  V30 4384 H 408.563 -1.08754 1.30271 0
M  V30 4385 H 407.335 -2.75366 2.7801 0
M  V30 4386 H 406.958 -3.73197 1.37149 0
M  V30 4387 N 407.956 -0.998596 -1.21925 0
M  V30 4388 C 408.919 -0.558679 -2.22287 0
M  V30 4389 C 409.919 0.361525 -1.56683 0
M  V30 4390 O 411.109 0.152695 -1.73529 0
M  V30 4391 C 408.241 0.18661 -3.40389 0
M  V30 4392 H 409.434 -1.4463 -2.62721 0
M  V30 4393 H 406.987 -0.786413 -1.35075 0
M  V30 4394 H 407.722 1.08996 -3.05435 0
M  V30 4395 H 407.507 -0.474188 -3.89222 0
M  V30 4396 H 408.997 0.482367 -4.14805 0
M  V30 4397 N 409.434 1.37368 -0.772513 0
M  V30 4398 C 410.68 1.99969 -0.337681 0
M  V30 4399 C 411.013 1.61184 1.08321 0
M  V30 4400 O 410.288 0.858395 1.74533 0
M  V30 4401 C 410.571 3.56858 -0.482121 0
M  V30 4402 C 410.424 4.0555 -1.94549 0
M  V30 4403 C 411.743 4.39955 0.113143 0
M  V30 4404 H 408.862 0.726464 -0.124171 0
M  V30 4405 H 411.504 1.63034 -0.975699 0
M  V30 4406 H 409.654 3.88452 0.0610361 0
M  V30 4407 H 411.326 3.84518 -2.54841 0
M  V30 4408 H 409.569 3.57715 -2.45403 0
M  V30 4409 H 410.24 5.14587 -1.9976 0
M  V30 4410 H 412.716 4.14623 -0.35031 0
M  V30 4411 H 411.592 5.48897 -0.0180514 0
M  V30 4412 H 411.853 4.25403 1.20354 0
M  V30 4413 N 410.912 0.523116 1.48665 0
M  V30 4414 C 412.142 -0.00961724 2.06598 0
M  V30 4415 C 412.55 -1.29333 1.38093 0
M  V30 4416 O 411.893 -1.77846 0.46007 0
M  V30 4417 C 411.955 -0.311135 3.58151 0
M  V30 4418 C 411.619 0.878092 4.48485 0
M  V30 4419 C 412.616 1.77464 4.88674 0
M  V30 4420 C 410.301 1.08315 4.90483 0
M  V30 4421 C 412.295 2.86021 5.69623 0
M  V30 4422 C 409.982 2.17187 5.71203 0
M  V30 4423 C 410.98 3.05873 6.10681 0
M  V30 4424 O 410.668 4.12862 6.89783 0
M  V30 4425 H 410.4 0.0272658 0.67545 0
M  V30 4426 H 412.954 0.726156 1.92136 0
M  V30 4427 H 411.184 -1.10079 3.70701 0
M  V30 4428 H 412.873 -0.785125 3.98234 0
M  V30 4429 H 413.639 1.62813 4.56855 0
M  V30 4430 H 409.518 0.402149 4.59243 0
M  V30 4431 H 413.062 3.55272 6.00356 0
M  V30 4432 H 408.959 2.31824 6.02435 0
M  V30 4433 H 409.727 4.10487 7.08126 0
M  V30 4434 N 412.39 -1.55475 0.257931 0
M  V30 4435 C 413.667 -1.91155 -0.414629 0
M  V30 4436 C 414.047 -1.18008 -1.75035 0
M  V30 4437 O 413.395 -0.301193 -2.26506 0
M  V30 4438 C 413.605 -3.44283 -0.571859 0
M  V30 4439 C 414.953 -4.15744 -0.862678 0
M  V30 4440 O 415.977 -3.50083 -0.657314 0
M  V30 4441 O 414.836 -5.31909 -1.2544 0
M  V30 4442 H 411.93 -0.796016 -0.22425 0
M  V30 4443 H 414.476 -1.66976 0.302814 0
M  V30 4444 H 413.248 -3.89558 0.368844 0
M  V30 4445 H 412.871 -3.7436 -1.33943 0
M  V30 4446 N 413.868 0.0150385 -1.57593 0
M  V30 4447 C 415.279 0.559832 -1.78109 0
M  V30 4448 C 415.63 1.74814 -0.890756 0
M  V30 4449 O 414.755 2.16216 -0.0892482 0
M  V30 4450 C 415.35 1.02238 -3.23006 0
M  V30 4451 C 413.909 1.51258 -3.44671 0
M  V30 4452 C 413.056 0.456955 -2.73509 0
M  V30 4453 H 416.007 -0.211169 -1.57289 0
M  V30 4454 H 416.028 1.88912 -3.30292 0
M  V30 4455 H 415.54 0.157302 -3.87781 0
M  V30 4456 H 413.641 2.39905 -2.8509 0
M  V30 4457 H 413.754 1.55042 -4.5332 0
M  V30 4458 H 412.118 0.915196 -2.37689 0
M  V30 4459 H 412.901 -0.398896 -3.40975 0
M  V30 4460 N 415.346 1.54954 0.287554 0
M  V30 4461 C 416.309 1.86076 1.33823 0
M  V30 4462 C 417.309 0.734414 1.43049 0
M  V30 4463 O 418.499 1.00266 1.42452 0
M  V30 4464 C 415.631 2.05305 2.72144 0
M  V30 4465 H 416.824 2.79984 1.07465 0
M  V30 4466 H 414.377 1.47223 0.524902 0
M  V30 4467 H 415.112 1.1373 3.03704 0
M  V30 4468 H 414.897 2.873 2.66836 0
M  V30 4469 H 416.387 2.30706 3.48087 0
M  V30 4470 N 416.824 -0.551391 1.4764 0
M  V30 4471 C 417.734 -1.68525 1.63207 0
M  V30 4472 C 418.75 -1.6621 0.514815 0
M  V30 4473 O 419.926 -1.85551 0.783113 0
M  V30 4474 C 416.991 -3.05025 1.64805 0
M  V30 4475 C 416.052 -3.18362 2.88 0
M  V30 4476 C 415.285 -4.4835 2.89513 0
M  V30 4477 O 415.508 -5.34163 2.00065 0
M  V30 4478 O 414.442 -4.65602 3.81443 0
M  V30 4479 H 418.268 -1.58333 2.59161 0
M  V30 4480 H 415.853 -0.722063 1.30792 0
M  V30 4481 H 417.735 -3.86245 1.68502 0
M  V30 4482 H 416.41 -3.15587 0.720197 0
M  V30 4483 H 415.317 -2.36518 2.89845 0
M  V30 4484 H 416.65 -3.12707 3.80099 0
M  V30 4485 N 418.302 -1.35869 -0.798587 0
M  V30 4486 C 419.532 -1.32529 -1.58491 0
M  V30 4487 C 419.94 0.0975405 -1.88948 0
M  V30 4488 O 419.283 1.06224 -1.49874 0
M  V30 4489 C 419.345 -2.07247 -2.9375 0
M  V30 4490 C 419.009 -3.56391 -2.86068 0
M  V30 4491 C 420.006 -4.50824 -2.58947 0
M  V30 4492 C 417.691 -3.9915 -3.04933 0
M  V30 4493 C 419.685 -5.85993 -2.5078 0
M  V30 4494 C 417.372 -5.34413 -2.96389 0
M  V30 4495 C 418.37 -6.27646 -2.69349 0
M  V30 4496 O 418.058 -7.60426 -2.60782 0
M  V30 4497 H 417.79 -0.456529 -0.498556 0
M  V30 4498 H 420.344 -1.79425 -0.999799 0
M  V30 4499 H 418.574 -1.55001 -3.54276 0
M  V30 4500 H 420.263 -1.96883 -3.54954 0
M  V30 4501 H 421.029 -4.19104 -2.44084 0
M  V30 4502 H 416.908 -3.26961 -3.24989 0
M  V30 4503 H 420.452 -6.58735 -2.29595 0
M  V30 4504 H 416.349 -5.65743 -3.10813 0
M  V30 4505 H 417.117 -7.70444 -2.76331 0
M  V30 4506 N 419.78 1.02168 -1.19998 0
M  V30 4507 C 421.057 1.72816 -0.916191 0
M  V30 4508 C 421.437 2.03081 0.576325 0
M  V30 4509 O 420.785 1.69122 1.53656 0
M  V30 4510 C 420.995 2.9997 -1.78378 0
M  V30 4511 C 422.343 3.73336 -2.02251 0
M  V30 4512 O 423.367 3.09914 -1.75589 0
M  V30 4513 O 422.226 4.87371 -2.47249 0
M  V30 4514 H 419.32 0.752924 -0.342103 0
M  V30 4515 H 421.866 1.08062 -1.30846 0
M  V30 4516 H 420.638 2.73888 -2.79466 0
M  V30 4517 H 420.261 3.72464 -1.39126 0
M  V30 4518 N 421.258 1.00505 1.21394 0
M  V30 4519 C 422.205 0.565496 2.23765 0
M  V30 4520 C 423.175 -0.408466 1.60999 0
M  V30 4521 O 424.36 -0.310503 1.88257 0
M  V30 4522 C 421.5 -0.101667 3.4495 0
M  V30 4523 C 420.613 0.915479 4.22188 0
M  V30 4524 C 419.748 0.220574 5.30742 0
M  V30 4525 C 418.787 1.22527 5.99711 0
M  V30 4526 N 417.924 0.557831 6.9988 0
M  V30 4527 H 422.764 1.44314 2.60725 0
M  V30 4528 H 420.301 0.722643 1.28126 0
M  V30 4529 H 422.259 -0.505504 4.14126 0
M  V30 4530 H 420.889 -0.94303 3.08718 0
M  V30 4531 H 419.941 1.43756 3.52191 0
M  V30 4532 H 421.253 1.68005 4.69655 0
M  V30 4533 H 420.407 -0.239368 6.06228 0
M  V30 4534 H 419.146 -0.576401 4.84282 0
M  V30 4535 H 418.151 1.69571 5.22997 0
M  V30 4536 H 419.376 2.02332 6.48258 0
M  V30 4537 H 417.322 -0.219486 6.55633 0
M  V30 4538 H 417.239 1.26065 7.45415 0
M  V30 4539 H 418.507 0.121095 7.79406 0
M  V30 4540 N 422.737 -1.36956 0.779787 0
M  V30 4541 C 423.687 -2.27539 0.144892 0
M  V30 4542 C 424.671 -1.46493 -0.665488 0
M  V30 4543 O 425.863 -1.68968 -0.527141 0
M  V30 4544 C 422.992 -3.35512 -0.727082 0
M  V30 4545 C 422.078 -4.24001 0.0915642 0
M  V30 4546 N 422.469 -4.92757 1.14125 0
M  V30 4547 C 420.767 -4.45807 -0.131141 0
M  V30 4548 C 421.468 -5.58138 1.6388 0
M  V30 4549 N 420.444 -5.35241 0.94962 0
M  V30 4550 H 424.246 -2.78176 0.948446 0
M  V30 4551 H 421.76 -1.50169 0.618315 0
M  V30 4552 H 423.757 -3.99324 -1.19776 0
M  V30 4553 H 422.417 -2.86431 -1.52929 0
M  V30 4554 H 423.428 -4.94984 1.52353 0
M  V30 4555 H 420.105 -4.07582 -0.904621 0
M  V30 4556 H 421.495 -6.23071 2.51461 0
M  V30 4557 N 424.215 -0.530993 -1.48385 0
M  V30 4558 C 425.626 -0.0907905 -1.86479 0
M  V30 4559 C 425.977 1.33213 -1.44044 0
M  V30 4560 O 425.102 1.99783 -0.831615 0
M  V30 4561 C 425.697 -0.157987 -3.38431 0
M  V30 4562 C 424.256 0.227026 -3.75715 0
M  V30 4563 C 423.403 -0.5173 -2.72432 0
M  V30 4564 H 426.354 -0.742186 -1.40276 0
M  V30 4565 H 426.375 0.630053 -3.75247 0
M  V30 4566 H 425.887 -1.19372 -3.69286 0
M  V30 4567 H 423.988 1.26486 -3.50474 0
M  V30 4568 H 424.101 -0.113288 -4.78966 0
M  V30 4569 H 422.465 0.0365527 -2.54674 0
M  V30 4570 H 423.248 -1.55368 -3.0613 0
M  V30 4571 N 425.693 1.55336 -0.266172 0
M  V30 4572 C 426.603 2.2583 0.635458 0
M  V30 4573 C 427.619 1.28106 1.17749 0
M  V30 4574 O 428.795 1.61024 1.20968 0
M  V30 4575 C 425.86 2.95879 1.80712 0
M  V30 4576 C 424.921 4.09059 1.30265 0
M  V30 4577 C 424.154 4.75759 2.41846 0
M  V30 4578 O 424.377 4.41622 3.61007 0
M  V30 4579 O 423.311 5.63888 2.1051 0
M  V30 4580 H 427.137 3.03631 0.0646693 0
M  V30 4581 H 424.722 1.49361 -0.0339177 0
M  V30 4582 H 426.604 3.39932 2.49047 0
M  V30 4583 H 425.279 2.21002 2.36516 0
M  V30 4584 H 424.186 3.69482 0.586019 0
M  V30 4585 H 425.519 4.85811 0.790458 0
M  V30 4586 N 427.171 -0.0066808 1.57599 0
M  V30 4587 C 428.587 -0.36267 1.55425 0
M  V30 4588 C 428.787 -1.75209 0.995187 0
M  V30 4589 O 427.843 -2.44616 0.626058 0
M  V30 4590 C 429.156 -0.244017 2.99708 0
M  V30 4591 C 430.704 -0.319451 3.11366 0
M  V30 4592 C 431.179 -0.229998 4.57422 0
M  V30 4593 N 432.67 -0.288105 4.62303 0
M  V30 4594 C 433.405 -0.242127 5.72889 0
M  V30 4595 N 432.901 -0.147133 6.92644 0
M  V30 4596 N 434.694 -0.293502 5.61333 0
M  V30 4597 H 426.845 0.902314 1.92281 0
M  V30 4598 H 429.108 0.34525 0.882896 0
M  V30 4599 H 428.814 0.711678 3.44424 0
M  V30 4600 H 428.688 -1.02877 3.629 0
M  V30 4601 H 431.075 -1.26559 2.66584 0
M  V30 4602 H 431.156 0.495055 2.50964 0
M  V30 4603 H 430.8 0.712566 5.02877 0
M  V30 4604 H 430.73 -1.0629 5.15761 0
M  V30 4605 H 433.221 -0.363126 3.76151 0
M  V30 4606 H 433.534 -0.117763 7.7271 0
M  V30 4607 H 431.879 -0.112857 6.94908 0
M  V30 4608 H 435.07 -0.365864 4.66668 0
M  V30 4609 H 435.243 -0.254204 6.47501 0
M  V30 4610 N 428.649 -1.55105 -0.279332 0
M  V30 4611 C 429.879 -1.7917 -1.02867 0
M  V30 4612 C 430.287 -0.56204 -1.80659 0
M  V30 4613 O 429.63 0.478266 -1.77365 0
M  V30 4614 C 429.692 -2.96061 -2.03932 0
M  V30 4615 C 429.356 -4.33341 -1.45137 0
M  V30 4616 C 430.353 -5.12565 -0.870266 0
M  V30 4617 C 428.038 -4.79987 -1.48048 0
M  V30 4618 C 430.032 -6.36565 -0.326097 0
M  V30 4619 C 427.719 -6.03944 -0.932443 0
M  V30 4620 C 428.717 -6.8207 -0.356247 0
M  V30 4621 O 428.405 -8.03691 0.183412 0
M  V30 4622 H 428.137 -0.600796 -0.309872 0
M  V30 4623 H 430.691 -2.02932 -0.317468 0
M  V30 4624 H 428.921 -2.67975 -2.78794 0
M  V30 4625 H 430.61 -3.07506 -2.64943 0
M  V30 4626 H 431.376 -4.77661 -0.840521 0
M  V30 4627 H 427.255 -4.1919 -1.91835 0
M  V30 4628 H 430.799 -6.97489 0.124286 0
M  V30 4629 H 426.696 -6.3833 -0.959407 0
M  V30 4630 H 427.464 -8.18468 0.0721681 0
M  V30 4631 N 430.127 0.543554 -1.4793 0
M  V30 4632 C 431.376 1.29649 -1.54512 0
M  V30 4633 C 431.689 1.94382 -0.217973 0
M  V30 4634 O 432.895 2.71017 -0.161908 0
M  V30 4635 C 431.351 2.35175 -2.72435 0
M  V30 4636 C 430.959 1.76572 -4.11736 0
M  V30 4637 C 432.703 3.11564 -2.8832 0
M  V30 4638 C 430.61 2.79958 -5.20939 0
M  V30 4639 H 429.54 0.487541 -0.57517 0
M  V30 4640 H 432.191 0.575708 -1.74235 0
M  V30 4641 H 430.573 3.10229 -2.46118 0
M  V30 4642 H 431.747 1.07799 -4.48013 0
M  V30 4643 H 430.062 1.12722 -4.00852 0
M  V30 4644 H 432.659 3.88794 -3.67074 0
M  V30 4645 H 433.002 3.66594 -1.97268 0
M  V30 4646 H 433.535 2.43623 -3.14472 0
M  V30 4647 H 430.274 2.29766 -6.13912 0
M  V30 4648 H 429.794 3.47101 -4.89164 0
M  V30 4649 H 431.473 3.43198 -5.48474 0
M  V30 4650 N 431.605 1.3629 0.791371 0
M  V30 4651 C 432.83 1.33726 1.58531 0
M  V30 4652 C 433.255 -0.0794933 1.87932 0
M  V30 4653 O 432.613 -1.05087 1.47738 0
M  V30 4654 C 432.661 2.16425 2.88431 0
M  V30 4655 O 431.765 1.5554 3.81944 0
M  V30 4656 H 431.106 0.457793 0.480959 0
M  V30 4657 H 433.636 1.79547 0.981031 0
M  V30 4658 H 433.646 2.28933 3.37718 0
M  V30 4659 H 432.321 3.19415 2.66359 0
M  V30 4660 H 430.898 1.51961 3.40532 0
M  V30 4661 N 433.083 -1.0153 1.20538 0
M  V30 4662 C 434.499 -1.27461 0.96051 0
M  V30 4663 C 434.699 -1.98273 -0.359193 0
M  V30 4664 O 433.755 -2.27886 -1.0874 0
M  V30 4665 C 435.068 -2.10837 2.14402 0
M  V30 4666 C 436.616 -2.24099 2.18515 0
M  V30 4667 C 437.091 -3.10852 3.36355 0
M  V30 4668 N 438.582 -3.18441 3.36377 0
M  V30 4669 C 439.317 -3.85795 4.24205 0
M  V30 4670 N 438.813 -4.55264 5.22213 0
M  V30 4671 N 440.606 -3.82331 4.12043 0
M  V30 4672 H 432.757 -0.539907 2.05423 0
M  V30 4673 H 435.02 -0.30092 0.898972 0
M  V30 4674 H 434.726 -1.66144 3.09983 0
M  V30 4675 H 434.6 -3.11576 2.12604 0
M  V30 4676 H 436.987 -2.68016 1.23497 0
M  V30 4677 H 437.068 -1.22865 2.24361 0
M  V30 4678 H 436.712 -2.6764 4.31661 0
M  V30 4679 H 436.642 -4.12177 3.27746 0
M  V30 4680 H 439.133 -2.68978 2.65442 0
M  V30 4681 H 439.446 -5.04331 5.85551 0
M  V30 4682 H 437.791 -4.54085 5.26148 0
M  V30 4683 H 440.982 -3.27207 3.34743 0
M  V30 4684 H 441.155 -4.34547 4.807 0
M  V30 4685 N 434.561 -1.01147 -1.20859 0
M  V30 4686 C 435.808 -0.697865 -1.90095 0
M  V30 4687 C 436.136 0.772014 -1.78522 0
M  V30 4688 O 435.391 1.57595 -1.16027 0
M  V30 4689 C 435.69 -1.0727 -3.40922 0
M  V30 4690 C 435.356 -2.53792 -3.72693 0
M  V30 4691 C 434.018 -2.93829 -3.81075 0
M  V30 4692 C 436.37 -3.48674 -3.87397 0
M  V30 4693 C 433.698 -4.27696 -4.01613 0
M  V30 4694 C 436.05 -4.82223 -4.09444 0
M  V30 4695 C 434.714 -5.21973 -4.16054 0
M  V30 4696 H 433.984 -0.255367 -0.695607 0
M  V30 4697 H 436.631 -1.27111 -1.43231 0
M  V30 4698 H 434.936 -0.417799 -3.89566 0
M  V30 4699 H 436.633 -0.807818 -3.92779 0
M  V30 4700 H 433.223 -2.21768 -3.66765 0
M  V30 4701 H 437.407 -3.18904 -3.80281 0
M  V30 4702 H 432.663 -4.58055 -4.04964 0
M  V30 4703 H 436.837 -5.55672 -4.19763 0
M  V30 4704 H 434.464 -6.25717 -4.31721 0
M  V30 4705 N 436.039 1.36541 -0.78704 0
M  V30 4706 C 436.987 2.31965 -0.171724 0
M  V30 4707 C 437.981 1.55689 0.667631 0
M  V30 4708 O 439.187 1.70969 0.562981 0
M  V30 4709 H 435.562 0.751101 -0.0367545 0
M  V30 4710 H 437.533 2.81428 -0.992017 0
M  V30 4711 C 436.282 3.40968 0.680904 0
M  V30 4712 H 435.605 3.99775 0.0443961 0
M  V30 4713 H 437.045 4.10063 1.07815 0
M  V30 4714 C 435.504 2.82338 1.83813 0
M  V30 4715 O 436.034 2.74311 2.93456 0
M  V30 4716 N 434.24 2.39661 1.6435 0
M  V30 4717 H 433.787 2.46389 0.751668 0
M  V30 4718 H 433.745 2.00779 2.4194 0
M  V30 4719 N 437.518 0.538854 1.48102 0
M  V30 4720 C 438.746 0.0123136 2.06896 0
M  V30 4721 C 439.161 -1.27312 1.39417 0
M  V30 4722 O 438.518 -1.75949 0.484582 0
M  V30 4723 C 438.569 -0.206118 3.60912 0
M  V30 4724 O 438.29 1.0284 4.25859 0
M  V30 4725 C 439.791 -0.772033 4.36526 0
M  V30 4726 H 437.011 0.0375239 0.66995 0
M  V30 4727 H 439.555 0.747032 1.90367 0
M  V30 4728 H 437.71 -0.89091 3.77017 0
M  V30 4729 H 438.124 0.814654 5.18135 0
M  V30 4730 H 439.598 -0.874251 5.45033 0
M  V30 4731 H 440.075 -1.77904 4.01555 0
M  V30 4732 H 440.681 -0.123526 4.25121 0
M  V30 4733 N 438.996 -1.55193 0.274407 0
M  V30 4734 C 440.273 -1.91584 -0.394331 0
M  V30 4735 C 440.653 -1.19858 -1.73774 0
M  V30 4736 O 440.001 -0.3252 -2.26174 0
M  V30 4737 C 440.211 -3.4487 -0.535311 0
M  V30 4738 C 441.559 -4.16636 -0.818534 0
M  V30 4739 O 442.583 -3.5076 -0.620146 0
M  V30 4740 O 441.442 -5.33209 -1.19792 0
M  V30 4741 H 438.536 -0.798349 -0.215794 0
M  V30 4742 H 441.082 -1.66646 0.320507 0
M  V30 4743 H 439.854 -3.89145 0.410141 0
M  V30 4744 H 439.477 -3.75759 -1.29964 0
M  V30 4745 N 440.474 -0.00167713 -1.576 0
M  V30 4746 C 441.723 0.682021 -1.89819 0
M  V30 4747 C 442.036 1.74844 -0.876871 0
M  V30 4748 O 443.242 2.48688 -1.08934 0
M  V30 4749 C 441.698 1.26425 -3.36964 0
M  V30 4750 C 441.306 0.232568 -4.47396 0
M  V30 4751 C 443.05 1.92604 -3.78291 0
M  V30 4752 C 440.957 0.824882 -5.85619 0
M  V30 4753 H 439.887 0.258499 -0.708304 0
M  V30 4754 H 442.538 -0.0624957 -1.83394 0
M  V30 4755 H 440.92 2.05949 -3.38232 0
M  V30 4756 H 442.094 -0.5382 -4.57646 0
M  V30 4757 H 440.409 -0.32888 -4.15099 0
M  V30 4758 H 443.006 2.37827 -4.78897 0
M  V30 4759 H 443.349 2.75732 -3.11894 0
M  V30 4760 H 443.882 1.19812 -3.79328 0
M  V30 4761 H 440.621 0.0323542 -6.55492 0
M  V30 4762 H 440.141 1.56477 -5.79029 0
M  V30 4763 H 441.82 1.32301 -6.33329 0
M  V30 4764 N 441.952 1.55251 0.271103 0
M  V30 4765 C 442.915 1.87484 1.31842 0
M  V30 4766 C 443.915 0.749545 1.42262 0
M  V30 4767 O 445.105 1.01771 1.4138 0
M  V30 4768 C 442.237 2.0818 2.69951 0
M  V30 4769 H 443.43 2.81108 1.0449 0
M  V30 4770 H 440.983 1.47771 0.509258 0
M  V30 4771 H 441.718 1.16944 3.02481 0
M  V30 4772 H 441.503 2.90114 2.63774 0
M  V30 4773 H 442.993 2.34385 3.4562 0
M  V30 4774 N 443.43 -0.535701 1.48216 0
M  V30 4775 C 444.841 -1.11769 1.49548 0
M  V30 4776 C 445.192 -1.94442 0.26207 0
M  V30 4777 O 444.317 -2.06987 -0.631287 0
M  V30 4778 C 444.912 -2.03367 2.70975 0
M  V30 4779 C 443.471 -2.56795 2.75196 0
M  V30 4780 C 442.618 -1.33631 2.42977 0
M  V30 4781 H 445.569 -0.321232 1.55415 0
M  V30 4782 H 445.59 -2.87569 2.49167 0
M  V30 4783 H 445.102 -1.43169 3.60727 0
M  V30 4784 H 443.203 -3.20731 1.89638 0
M  V30 4785 H 443.316 -2.9632 3.76472 0
M  V30 4786 H 441.68 -1.6502 1.94012 0
M  V30 4787 H 442.463 -0.75194 3.34964 0
M  V30 4788 N 444.908 -1.36708 -0.784132 0
M  V30 4789 C 446.138 -1.34203 -1.57077 0
M  V30 4790 C 446.546 0.0774945 -1.89041 0
M  V30 4791 O 445.889 1.04628 -1.50992 0
M  V30 4792 C 445.951 -2.10351 -2.91535 0
M  V30 4793 C 445.615 -3.59405 -2.82272 0
M  V30 4794 C 446.612 -4.53545 -2.54151 0
M  V30 4795 C 444.297 -4.02362 -3.00683 0
M  V30 4796 C 446.291 -5.8862 -2.44551 0
M  V30 4797 C 443.978 -5.37526 -2.90704 0
M  V30 4798 C 444.976 -6.30468 -2.62677 0
M  V30 4799 O 444.664 -7.63149 -2.52702 0
M  V30 4800 H 444.396 -0.461791 -0.493685 0
M  V30 4801 H 446.95 -1.80475 -0.980712 0
M  V30 4802 H 445.18 -1.5875 -3.52612 0
M  V30 4803 H 446.869 -2.00636 -3.52845 0
M  V30 4804 H 447.635 -4.21669 -2.39625 0
M  V30 4805 H 443.514 -3.30389 -3.21503 0
M  V30 4806 H 447.058 -6.61133 -2.22596 0
M  V30 4807 H 442.955 -5.69008 -3.04795 0
M  V30 4808 H 443.723 -7.73331 -2.68144 0
M  V30 4809 N 446.386 1.0089 -1.21074 0
M  V30 4810 C 447.614 1.78191 -1.05145 0
M  V30 4811 C 448.029 1.84537 0.398952 0
M  V30 4812 O 447.386 1.30393 1.27687 0
M  V30 4813 C 447.437 3.22288 -1.63746 0
M  V30 4814 O 447.158 3.16315 -3.03111 0
M  V30 4815 C 448.659 4.16106 -1.52875 0
M  V30 4816 H 445.879 0.560129 -0.369454 0
M  V30 4817 H 448.423 1.26945 -1.60328 0
M  V30 4818 H 446.578 3.70655 -1.12664 0
M  V30 4819 H 446.992 4.06817 -3.31059 0
M  V30 4820 H 448.466 5.15026 -1.98626 0
M  V30 4821 H 448.943 4.36541 -0.482521 0
M  V30 4822 H 449.549 3.73625 -2.03185 0
M  V30 4823 N 447.864 1.01787 1.20321 0
M  V30 4824 C 449.092 0.727194 1.937 0
M  V30 4825 C 449.507 -0.712305 1.74848 0
M  V30 4826 O 448.864 -1.48327 1.06327 0
M  V30 4827 C 448.915 1.05497 3.45764 0
M  V30 4828 O 448.636 2.43794 3.64 0
M  V30 4829 C 450.137 0.785534 4.36285 0
M  V30 4830 H 447.357 0.266939 0.615617 0
M  V30 4831 H 449.901 1.35939 1.52777 0
M  V30 4832 H 448.056 0.468158 3.84561 0
M  V30 4833 H 448.47 2.55656 4.57974 0
M  V30 4834 H 449.944 1.06495 5.4163 0
M  V30 4835 H 450.421 -0.280273 4.38305 0
M  V30 4836 H 451.027 1.35456 4.03152 0
M  V30 4837 N 449.342 -1.36122 0.79427 0
M  V30 4838 C 450.582 -2.00942 0.374376 0
M  V30 4839 C 450.946 -1.61666 -1.03577 0
M  V30 4840 O 452.147 -2.19113 -1.55701 0
M  V30 4841 C 450.418 -3.53323 0.538327 0
M  V30 4842 S 451.977 -4.38311 0.20703 0
M  V30 4843 H 448.795 -0.696515 0.142785 0
M  V30 4844 H 451.397 -1.65929 1.03382 0
M  V30 4845 H 450.101 -3.79395 1.56484 0
M  V30 4846 H 449.632 -3.93162 -0.136882 0
M  V30 4847 H 451.647 -4.8623 -0.989695 0
M  V30 4848 N 450.82 -0.546701 -1.47814 0
M  V30 4849 C 451.75 0.195317 -2.32682 0
M  V30 4850 C 452.731 0.918981 -1.43139 0
M  V30 4851 O 453.916 0.901501 -1.72008 0
M  V30 4852 C 451.046 1.23237 -3.247 0
M  V30 4853 C 450 0.625818 -4.234 0
M  V30 4854 C 449.326 1.76674 -5.04669 0
M  V30 4855 C 450.626 -0.413515 -5.2066 0
M  V30 4856 H 452.32 -0.513184 -2.94969 0
M  V30 4857 H 449.866 -0.248241 -1.41844 0
M  V30 4858 H 451.819 1.75955 -3.82907 0
M  V30 4859 H 450.543 1.97067 -2.60446 0
M  V30 4860 H 449.202 0.120023 -3.66403 0
M  V30 4861 H 448.85 2.49383 -4.36826 0
M  V30 4862 H 448.55 1.36673 -5.71484 0
M  V30 4863 H 450.074 2.29738 -5.65732 0
M  V30 4864 H 451.488 0.0272042 -5.73294 0
M  V30 4865 H 449.885 -0.731825 -5.95621 0
M  V30 4866 H 450.955 -1.31325 -4.66778 0
M  V30 4867 N 452.299 1.55045 -0.282633 0
M  V30 4868 C 453.548 1.98938 0.332667 0
M  V30 4869 C 453.861 1.17455 1.56409 0
M  V30 4870 O 455.067 1.51527 2.25282 0
M  V30 4871 C 453.523 3.54105 0.643226 0
M  V30 4872 C 453.131 4.44374 -0.568814 0
M  V30 4873 C 454.875 4.06569 1.22074 0
M  V30 4874 C 452.782 5.90943 -0.232426 0
M  V30 4875 H 451.712 0.743043 0.128075 0
M  V30 4876 H 454.363 1.79341 -0.388464 0
M  V30 4877 H 452.745 3.69532 1.42346 0
M  V30 4878 H 453.919 4.40718 -1.34551 0
M  V30 4879 H 452.234 4.02585 -1.06369 0
M  V30 4880 H 454.831 5.13626 1.48635 0
M  V30 4881 H 455.174 3.56057 2.15707 0
M  V30 4882 H 455.707 3.94612 0.502621 0
M  V30 4883 H 452.446 6.45567 -1.13683 0
M  V30 4884 H 451.966 5.9765 0.507357 0
M  V30 4885 H 453.645 6.4677 0.172657 0
M  V30 4886 N 453.777 0.010035 1.57597 0
M  V30 4887 C 454.725 -0.996272 2.10184 0
M  V30 4888 C 455.719 -1.34942 1.02406 0
M  V30 4889 O 456.925 -1.33389 1.20861 0
M  V30 4890 H 453.3 -0.338982 0.671264 0
M  V30 4891 H 455.271 -0.527272 2.93705 0
M  V30 4892 C 454.02 -2.27599 2.62857 0
M  V30 4893 H 453.343 -2.01295 3.45428 0
M  V30 4894 H 454.783 -2.96265 3.0332 0
M  V30 4895 C 453.242 -2.99269 1.54725 0
M  V30 4896 O 453.772 -3.90644 0.93597 0
M  V30 4897 N 451.978 -2.61269 1.27228 0
M  V30 4898 H 451.525 -1.87043 1.77123 0
M  V30 4899 H 451.483 -3.09534 0.550999 0
M  V30 4900 N 455.255 -1.55392 -0.262866 0
M  V30 4901 C 456.503 -1.76127 -0.991147 0
M  V30 4902 C 456.824 -0.571083 -1.8645 0
M  V30 4903 O 456.094 0.413698 -1.91482 0
M  V30 4904 H 454.674 -0.649528 -0.368948 0
M  V30 4905 H 457.336 -1.9281 -0.284655 0
M  V30 4906 H 456.432 -2.6663 -1.62219 0
M  V30 4907 N 456.733 0.527833 -1.48498 0
M  V30 4908 C 457.982 1.28003 -1.55878 0
M  V30 4909 C 458.295 1.9414 -0.238577 0
M  V30 4910 O 459.501 2.7083 -0.190643 0
M  V30 4911 C 457.957 2.32272 -2.74914 0
M  V30 4912 C 457.565 1.72196 -4.13585 0
M  V30 4913 C 459.309 3.08488 -2.91608 0
M  V30 4914 C 457.216 2.74417 -5.23879 0
M  V30 4915 H 456.146 0.481413 -0.580308 0
M  V30 4916 H 458.797 0.557195 -1.74836 0
M  V30 4917 H 457.179 3.07601 -2.49395 0
M  V30 4918 H 458.353 1.03041 -4.49132 0
M  V30 4919 H 456.668 1.08464 -4.02025 0
M  V30 4920 H 459.265 3.84879 -3.71177 0
M  V30 4921 H 459.608 3.64481 -2.01145 0
M  V30 4922 H 460.141 2.40274 -3.17038 0
M  V30 4923 H 456.88 2.23242 -6.16314 0
M  V30 4924 H 456.4 3.41893 -4.92818 0
M  V30 4925 H 458.079 3.37362 -5.52083 0
M  V30 4926 N 458.211 1.37122 0.776871 0
M  V30 4927 C 459.441 1.35034 1.56363 0
M  V30 4928 C 459.849 -0.0674681 1.8908 0
M  V30 4929 O 459.192 -1.03826 1.51545 0
M  V30 4930 C 459.254 2.11894 2.90415 0
M  V30 4931 C 458.918 3.60897 2.80362 0
M  V30 4932 C 459.915 4.54887 2.51742 0
M  V30 4933 C 457.6 4.03951 2.98545 0
M  V30 4934 C 459.594 5.89909 2.41426 0
M  V30 4935 C 457.281 5.3906 2.87849 0
M  V30 4936 C 458.279 6.31852 2.5933 0
M  V30 4937 O 457.967 7.64479 2.48651 0
M  V30 4938 H 457.699 0.464402 0.49123 0
M  V30 4939 H 460.253 1.80992 0.971127 0
M  V30 4940 H 458.483 1.60618 3.51765 0
M  V30 4941 H 460.172 2.02505 3.51776 0
M  V30 4942 H 460.938 4.22934 2.37385 0
M  V30 4943 H 456.817 3.3209 3.19746 0
M  V30 4944 H 460.361 6.62304 2.19086 0
M  V30 4945 H 456.258 5.70617 3.01773 0
M  V30 4946 H 457.026 7.74742 2.64039 0
M  V30 4947 N 459.689 -1.00246 1.21608 0
M  V30 4948 C 460.935 -1.74417 1.04643 0
M  V30 4949 C 461.29 -1.87862 -0.415387 0
M  V30 4950 O 460.583 -1.40373 -1.30407 0
M  V30 4951 C 460.777 -3.15448 1.68009 0
M  V30 4952 C 460.606 -3.15755 3.20201 0
M  V30 4953 C 459.376 -3.2219 3.89258 0
M  V30 4954 C 461.574 -3.00668 4.17257 0
M  V30 4955 N 459.556 -3.1215 5.28617 0
M  V30 4956 C 460.927 -2.98553 5.43384 0
M  V30 4957 C 462.982 -2.84989 4.08272 0
M  V30 4958 C 461.685 -2.82364 6.61561 0
M  V30 4959 C 463.711 -2.70158 5.26088 0
M  V30 4960 C 463.073 -2.68721 6.51128 0
M  V30 4961 H 459.172 -0.648317 0.437274 0
M  V30 4962 H 461.756 -1.19129 1.54001 0
M  V30 4963 H 459.927 -3.69001 1.21215 0
M  V30 4964 H 461.659 -3.78128 1.44226 0
M  V30 4965 H 458.414 -3.29488 3.40198 0
M  V30 4966 H 458.838 -3.10465 6.01615 0
M  V30 4967 H 463.48 -2.84904 3.12393 0
M  V30 4968 H 461.198 -2.81196 7.57598 0
M  V30 4969 H 464.784 -2.59022 5.20959 0
M  V30 4970 H 463.664 -2.57382 7.40759 0
M  V30 4971 N 461.167 -1.02423 -1.1978 0
M  V30 4972 C 462.077 -0.610919 -2.26506 0
M  V30 4973 C 463.093 0.355152 -1.70337 0
M  V30 4974 O 464.269 0.214195 -2.00258 0
M  V30 4975 C 461.334 0.0365921 -3.46681 0
M  V30 4976 C 460.395 -0.976389 -4.18049 0
M  V30 4977 C 459.628 -0.359683 -5.32487 0
M  V30 4978 O 459.851 0.838601 -5.64202 0
M  V30 4979 O 458.785 -1.08022 -5.92127 0
M  V30 4980 H 462.611 -1.49965 -2.64091 0
M  V30 4981 H 460.196 -0.794156 -1.26545 0
M  V30 4982 H 462.078 0.39786 -4.19518 0
M  V30 4983 H 460.753 0.899398 -3.10954 0
M  V30 4984 H 459.66 -1.38916 -3.47352 0
M  V30 4985 H 460.993 -1.80941 -4.57735 0
M  V30 4986 N 462.645 1.35699 -0.801477 0
M  V30 4987 C 463.577 2.28598 -0.166028 0
M  V30 4988 C 464.59 1.50044 0.631721 0
M  V30 4989 O 465.779 1.72339 0.464921 0
M  V30 4990 C 462.879 3.29625 0.787451 0
M  V30 4991 C 462.052 4.37384 0.037171 0
M  V30 4992 C 461.111 5.183 0.908375 0
M  V30 4993 O 460.137 5.68053 0.361189 0
M  V30 4994 N 461.339 5.35912 2.23112 0
M  V30 4995 H 464.104 2.83771 -0.964071 0
M  V30 4996 H 461.665 1.47994 -0.656469 0
M  V30 4997 H 463.657 3.80648 1.37439 0
M  V30 4998 H 462.227 2.75004 1.48632 0
M  V30 4999 H 461.447 3.87364 -0.730935 0
M  V30 5000 H 462.735 5.0653 -0.480109 0
M  V30 5001 H 462.133 4.97125 2.69968 0
M  V30 5002 H 460.69 5.90133 2.76741 0
M  V30 5003 N 464.123 0.554532 1.47522 0
M  V30 5004 C 465.071 -0.207765 2.3167 0
M  V30 5005 C 466.065 -0.911914 1.4276 0
M  V30 5006 O 467.271 -0.833504 1.59539 0
M  V30 5007 H 463.646 -0.0858726 0.747081 0
M  V30 5008 H 465.617 0.521178 2.93813 0
M  V30 5009 C 464.366 -1.2263 3.25357 0
M  V30 5010 H 463.689 -0.693887 3.93732 0
M  V30 5011 H 465.129 -1.73062 3.87073 0
M  V30 5012 C 463.588 -2.27278 2.4869 0
M  V30 5013 O 464.118 -3.34156 2.22941 0
M  V30 5014 N 462.324 -2.01134 2.09746 0
M  V30 5015 H 461.871 -1.14232 2.30887 0
M  V30 5016 H 461.829 -2.71369 1.58765 0
M  V30 5017 N 465.601 -1.54893 0.290851 0
M  V30 5018 C 466.829 -2.04343 -0.324288 0
M  V30 5019 C 467.244 -1.16859 -1.48289 0
M  V30 5020 O 466.601 -0.192018 -1.81487 0
M  V30 5021 C 466.652 -3.52756 -0.79026 0
M  V30 5022 O 466.373 -4.36913 0.322213 0
M  V30 5023 C 467.874 -4.18161 -1.4716 0
M  V30 5024 H 465.094 -0.667135 -0.0719173 0
M  V30 5025 H 467.638 -1.99981 0.427529 0
M  V30 5026 H 465.793 -3.57511 -1.49213 0
M  V30 5027 H 466.207 -5.24486 -0.0387372 0
M  V30 5028 H 467.681 -5.23562 -1.7489 0
M  V30 5029 H 468.158 -3.67282 -2.40834 0
M  V30 5030 H 468.764 -4.17454 -0.813178 0
M  V30 5031 N 467.08 -0.0183926 -1.57589 0
M  V30 5032 C 468.491 0.521927 -1.79256 0
M  V30 5033 C 468.842 1.72885 -0.927636 0
M  V30 5034 O 467.967 2.15978 -0.135091 0
M  V30 5035 C 468.562 0.953632 -3.25102 0
M  V30 5036 C 467.121 1.43913 -3.47801 0
M  V30 5037 C 466.268 0.398837 -2.74417 0
M  V30 5038 H 469.219 -0.244485 -1.56805 0
M  V30 5039 H 469.24 1.81863 -3.34224 0
M  V30 5040 H 468.752 0.0750123 -3.88028 0
M  V30 5041 H 466.853 2.33804 -2.90115 0
M  V30 5042 H 466.966 1.45391 -4.56507 0
M  V30 5043 H 465.33 0.864572 -2.39577 0
M  V30 5044 H 466.113 -0.471132 -3.40052 0
M  V30 5045 N 468.558 1.5553 0.254621 0
M  V30 5046 C 469.974 1.4778 0.602753 0
M  V30 5047 C 470.174 0.707047 1.88688 0
M  V30 5048 O 469.23 0.233288 2.5142 0
M  V30 5049 C 470.543 2.92133 0.712648 0
M  V30 5050 C 472.091 3.02458 0.805488 0
M  V30 5051 C 472.566 4.48102 0.947009 0
M  V30 5052 N 474.057 4.52008 1.01207 0
M  V30 5053 C 474.792 5.61939 1.1407 0
M  V30 5054 N 474.288 6.81697 1.23536 0
M  V30 5055 N 476.081 5.49719 1.17325 0
M  V30 5056 H 468.232 2.04085 -0.588463 0
M  V30 5057 H 470.495 0.926229 -0.202001 0
M  V30 5058 H 470.201 3.51332 -0.160766 0
M  V30 5059 H 470.075 3.42187 1.58707 0
M  V30 5060 H 472.462 2.43344 1.66936 0
M  V30 5061 H 472.543 2.55627 -0.0939266 0
M  V30 5062 H 472.187 5.07824 0.087725 0
M  V30 5063 H 472.117 4.92607 1.86135 0
M  V30 5064 H 474.608 3.65749 0.950577 0
M  V30 5065 H 474.921 7.61228 1.33236 0
M  V30 5066 H 473.266 6.84473 1.20508 0
M  V30 5067 H 476.457 4.55095 1.09573 0
M  V30 5068 H 476.63 6.35432 1.27005 0
M  V30 5069 N 470.036 -0.519951 1.48776 0
M  V30 5070 C 470.966 -1.63253 1.66945 0
M  V30 5071 C 471.947 -1.62014 0.518224 0
M  V30 5072 O 473.132 -1.79053 0.751919 0
M  V30 5073 C 470.262 -3.0181 1.71836 0
M  V30 5074 C 469.216 -3.17911 2.8656 0
M  V30 5075 C 468.542 -4.5763 2.76548 0
M  V30 5076 C 469.842 -2.99729 4.27738 0
M  V30 5077 H 471.536 -1.48302 2.6009 0
M  V30 5078 H 469.082 -0.712026 1.25165 0
M  V30 5079 H 471.035 -3.79525 1.83135 0
M  V30 5080 H 469.759 -3.17806 0.752775 0
M  V30 5081 H 468.418 -2.42616 2.74833 0
M  V30 5082 H 468.066 -4.70476 1.77937 0
M  V30 5083 H 467.766 -4.69346 3.53536 0
M  V30 5084 H 469.29 -5.37431 2.89828 0
M  V30 5085 H 470.704 -3.67228 4.40246 0
M  V30 5086 H 469.101 -3.22932 5.05801 0
M  V30 5087 H 470.171 -1.96047 4.43502 0
M  V30 5088 N 471.514 -1.37532 -0.769588 0
M  V30 5089 C 472.444 -1.36172 -1.89682 0
M  V30 5090 C 473.425 -0.23001 -1.68538 0
M  V30 5091 O 474.61 -0.43069 -1.89364 0
M  V30 5092 C 471.74 -1.1701 -3.26995 0
M  V30 5093 C 470.694 -2.27216 -3.62708 0
M  V30 5094 C 470.02 -1.93174 -4.98586 0
M  V30 5095 C 471.32 -3.6941 -3.69234 0
M  V30 5096 H 473.014 -2.30499 -1.91078 0
M  V30 5097 H 470.56 -1.10953 -0.917902 0
M  V30 5098 H 472.513 -1.14688 -4.05493 0
M  V30 5099 H 471.237 -0.191395 -3.26039 0
M  V30 5100 H 469.896 -2.28697 -2.86519 0
M  V30 5101 H 469.544 -0.938281 -4.94171 0
M  V30 5102 H 469.244 -2.66973 -5.23449 0
M  V30 5103 H 470.768 -1.92443 -5.79481 0
M  V30 5104 H 472.182 -3.70047 -4.37879 0
M  V30 5105 H 470.579 -4.4228 -4.05597 0
M  V30 5106 H 471.649 -4.0288 -2.69844 0
M  V30 5107 N 472.992 0.995999 -1.22138 0
M  V30 5108 C 474.22 1.77066 -1.07029 0
M  V30 5109 C 474.635 1.8495 0.379357 0
M  V30 5110 O 473.992 1.3174 1.26297 0
M  V30 5111 C 474.043 3.20533 -1.67155 0
M  V30 5112 O 473.764 3.13082 -3.06449 0
M  V30 5113 C 475.265 4.14461 -1.5728 0
M  V30 5114 H 472.485 0.556179 -0.375374 0
M  V30 5115 H 475.029 1.25238 -1.61666 0
M  V30 5116 H 473.184 3.6944 -1.16589 0
M  V30 5117 H 473.598 4.03283 -3.35355 0
M  V30 5118 H 475.072 5.1289 -2.04078 0
M  V30 5119 H 475.549 4.36005 -0.528795 0
M  V30 5120 H 476.155 3.71449 -2.07136 0
M  V30 5121 N 474.47 1.03057 1.19235 0
M  V30 5122 C 475.886 0.747947 1.40989 0
M  V30 5123 C 476.086 -0.666752 1.90149 0
M  V30 5124 O 475.142 -1.43249 2.07933 0
M  V30 5125 C 476.455 1.7855 2.41951 0
M  V30 5126 C 478.003 1.80524 2.55695 0
M  V30 5127 C 478.478 2.83243 3.59913 0
M  V30 5128 N 479.969 2.8207 3.67411 0
M  V30 5129 C 480.704 3.58204 4.47747 0
M  V30 5130 N 480.2 4.44057 5.31775 0
M  V30 5131 N 481.993 3.46738 4.42413 0
M  V30 5132 H 474.144 1.94367 0.856468 0
M  V30 5133 H 476.407 0.840412 0.438647 0
M  V30 5134 H 476.113 2.79973 2.12857 0
M  V30 5135 H 475.987 1.6092 3.41152 0
M  V30 5136 H 478.374 0.79778 2.84112 0
M  V30 5137 H 478.455 2.02229 1.56643 0
M  V30 5138 H 478.099 3.84161 3.32239 0
M  V30 5139 H 478.029 2.58795 4.5862 0
M  V30 5140 H 480.52 2.19803 3.074 0
M  V30 5141 H 480.833 4.98884 5.90199 0
M  V30 5142 H 479.178 4.48129 5.3123 0
M  V30 5143 H 482.369 2.79077 3.75811 0
M  V30 5144 H 482.542 4.06322 5.04783 0
M  V30 5145 N 475.948 -1.35272 0.808662 0
M  V30 5146 C 476.88 -2.28507 0.178149 0
M  V30 5147 C 477.893 -1.50377 -0.623754 0
M  V30 5148 O 479.082 -1.72583 -0.455774 0
M  V30 5149 C 476.182 -3.30038 -0.769959 0
M  V30 5150 C 475.355 -4.37398 -0.0139749 0
M  V30 5151 C 474.414 -5.18775 -0.880875 0
M  V30 5152 O 473.44 -5.68236 -0.331059 0
M  V30 5153 N 474.642 -5.37087 -2.20267 0
M  V30 5154 H 477.407 -2.83255 0.979106 0
M  V30 5155 H 474.968 -1.47643 0.664308 0
M  V30 5156 H 476.96 -3.81371 -1.35418 0
M  V30 5157 H 475.53 -2.75789 -1.47171 0
M  V30 5158 H 474.75 -3.86971 0.751468 0
M  V30 5159 H 476.038 -5.06268 0.506965 0
M  V30 5160 H 475.436 -4.9855 -2.67328 0
M  V30 5161 H 473.993 -5.91593 -2.73608 0
M  V30 5162 N 477.426 -0.562348 -1.47226 0
M  V30 5163 C 478.703 0.0256985 -1.95583 0
M  V30 5164 C 479.083 1.48032 -1.50498 0
M  V30 5165 O 478.431 2.15973 -0.746181 0
M  V30 5166 C 478.641 -0.125129 -3.48776 0
M  V30 5167 C 479.989 0.0175728 -4.24596 0
M  V30 5168 O 481.013 -0.0529341 -3.56161 0
M  V30 5169 O 479.872 0.170145 -5.46235 0
M  V30 5170 H 476.966 0.0612565 -0.824728 0
M  V30 5171 H 479.512 -0.629233 -1.57603 0
M  V30 5172 H 478.284 -1.13715 -3.74412 0
M  V30 5173 H 477.907 0.567178 -3.93534 0
M  V30 5174 N 478.904 1.54736 -0.299062 0
M  V30 5175 C 479.867 2.22127 0.565012 0
M  V30 5176 C 480.867 1.20669 1.06281 0
M  V30 5177 O 482.057 1.45417 0.959145 0
M  V30 5178 C 479.189 2.90611 1.78208 0
M  V30 5179 H 480.382 2.99891 -0.0237448 0
M  V30 5180 H 477.935 1.5622 -0.0498788 0
M  V30 5181 H 478.67 2.16921 2.41072 0
M  V30 5182 H 478.455 3.64984 1.43281 0
M  V30 5183 H 479.945 3.42026 2.396 0
M  V30 5184 N 480.382 0.0267497 1.57577 0
M  V30 5185 C 481.314 -0.984594 2.06974 0
M  V30 5186 C 482.327 -1.29032 0.992705 0
M  V30 5187 O 483.516 -1.25539 1.26895 0
M  V30 5188 C 480.616 -2.31262 2.47732 0
M  V30 5189 C 479.789 -2.1924 3.78487 0
M  V30 5190 C 478.848 -3.34956 4.05821 0
M  V30 5191 O 477.874 -3.11948 4.76106 0
M  V30 5192 N 479.076 -4.58672 3.55809 0
M  V30 5193 H 481.841 -0.563143 2.94362 0
M  V30 5194 H 479.402 -0.160061 1.61107 0
M  V30 5195 H 481.394 -3.07496 2.63112 0
M  V30 5196 H 479.964 -2.65056 1.65723 0
M  V30 5197 H 479.184 -1.27747 3.72927 0
M  V30 5198 H 480.472 -2.08409 4.64158 0
M  V30 5199 H 479.87 -4.8026 2.98942 0
M  V30 5200 H 478.427 -5.32083 3.76472 0
M  V30 5201 N 481.861 -1.55662 -0.24637 0
M  V30 5202 C 483.086 -1.81914 -0.996093 0
M  V30 5203 C 483.511 -0.603875 -1.78143 0
M  V30 5204 O 482.869 0.447091 -1.75701 0
M  V30 5205 C 482.917 -3.05908 -1.90925 0
M  V30 5206 O 482.021 -2.82861 -3.00105 0
M  V30 5207 H 481.362 -0.600481 -0.283406 0
M  V30 5208 H 483.892 -2.02848 -0.267199 0
M  V30 5209 H 483.902 -3.35356 -2.3238 0
M  V30 5210 H 482.577 -3.93999 -1.33183 0
M  V30 5211 H 481.154 -2.64583 -2.62775 0
M  V30 5212 N 483.339 0.512053 -1.4905 0
M  V30 5213 C 484.269 1.62365 -1.67809 0
M  V30 5214 C 485.25 1.61737 -0.526809 0
M  V30 5215 O 486.435 1.78651 -0.761404 0
M  V30 5216 C 483.565 3.00895 -1.73435 0
M  V30 5217 C 482.519 3.16387 -2.88242 0
M  V30 5218 C 481.845 4.56157 -2.78971 0
M  V30 5219 C 483.145 2.97457 -4.29321 0
M  V30 5220 H 484.839 1.46921 -2.60873 0
M  V30 5221 H 482.385 0.705379 -1.2554 0
M  V30 5222 H 484.338 3.78549 -1.85145 0
M  V30 5223 H 483.062 3.17403 -0.769619 0
M  V30 5224 H 481.721 2.41155 -2.76116 0
M  V30 5225 H 481.369 4.69525 -1.8043 0
M  V30 5226 H 481.069 4.67465 -3.5602 0
M  V30 5227 H 482.593 5.35886 -2.92675 0
M  V30 5228 H 484.007 3.64888 -4.42187 0
M  V30 5229 H 482.404 3.20245 -5.07507 0
M  V30 5230 H 483.474 1.93692 -4.44535 0
M  V30 5231 N 484.817 1.37938 0.762283 0
M  V30 5232 C 485.747 1.37176 1.88958 0
M  V30 5233 C 486.728 0.238945 1.68413 0
M  V30 5234 O 487.913 0.440726 1.89133 0
M  V30 5235 C 485.043 1.18742 3.2637 0
M  V30 5236 C 483.997 2.29136 3.61498 0
M  V30 5237 C 483.323 1.95816 4.97554 0
M  V30 5238 C 484.623 3.71363 3.6727 0
M  V30 5239 H 486.317 2.31509 1.89853 0
M  V30 5240 H 483.863 1.11438 0.912005 0
M  V30 5241 H 485.816 1.16837 4.04879 0
M  V30 5242 H 484.54 0.208683 3.25933 0
M  V30 5243 H 483.199 2.30213 2.85303 0
M  V30 5244 H 482.847 0.964475 4.93667 0
M  V30 5245 H 482.547 2.69745 5.22026 0
M  V30 5246 H 484.071 1.95513 5.78452 0
M  V30 5247 H 485.485 3.72364 4.35911 0
M  V30 5248 H 483.882 4.44425 4.03245 0
M  V30 5249 H 484.952 4.04305 2.67704 0
M  V30 5250 N 486.295 -0.989507 1.22664 0
M  V30 5251 C 487.258 -2.06183 1.00106 0
M  V30 5252 C 488.258 -1.60765 -0.0337726 0
M  V30 5253 O 489.448 -1.72989 0.205072 0
M  V30 5254 C 486.58 -3.37021 0.51279 0
M  V30 5255 H 487.773 -2.27629 1.95256 0
M  V30 5256 H 485.326 -1.16158 1.0458 0
M  V30 5257 H 486.061 -3.21261 -0.442917 0
M  V30 5258 H 485.846 -3.71323 1.25942 0
M  V30 5259 H 487.336 -4.1591 0.375315 0
M  V30 5260 N 487.773 -1.03688 -1.18687 0
M  V30 5261 C 489.184 -0.766488 -1.70241 0
M  V30 5262 C 489.535 0.713052 -1.82784 0
M  V30 5263 O 488.66 1.55529 -1.50465 0
M  V30 5264 C 489.255 -1.38475 -3.09209 0
M  V30 5265 C 487.814 -1.16276 -3.5799 0
M  V30 5266 C 486.961 -1.4778 -2.34641 0
M  V30 5267 H 489.912 -1.20378 -1.03415 0
M  V30 5268 H 489.933 -0.785939 -3.72295 0
M  V30 5269 H 489.445 -2.46157 -3.00048 0
M  V30 5270 H 487.546 -0.104508 -3.72453 0
M  V30 5271 H 487.659 -1.8571 -4.41643 0
M  V30 5272 H 486.023 -0.897366 -2.38368 0
M  V30 5273 H 486.806 -2.56562 -2.28102 0
M  V30 5274 N 489.251 1.34841 -0.815825 0
M  V30 5275 C 490.499 1.98107 -0.399744 0
M  V30 5276 C 490.82 1.65019 1.03894 0
M  V30 5277 O 490.09 0.937311 1.72021 0
M  V30 5278 H 488.67 0.732827 -0.144823 0
M  V30 5279 H 491.332 1.64599 -1.0437 0
M  V30 5280 H 490.428 3.07856 -0.512965 0
M  V30 5281 N 490.729 0.570148 1.46925 0
M  V30 5282 C 491.676 -0.170257 2.30171 0
M  V30 5283 C 492.646 -0.896099 1.39855 0
M  V30 5284 O 493.831 -0.889248 1.68811 0
M  V30 5285 C 490.971 -1.18605 3.24079 0
M  V30 5286 C 490.084 -0.464947 4.29491 0
M  V30 5287 C 489.219 -1.46716 5.10537 0
M  V30 5288 C 488.258 -0.731758 6.0771 0
M  V30 5289 N 487.395 -1.68142 6.81669 0
M  V30 5290 H 492.235 0.545713 2.92961 0
M  V30 5291 H 489.772 0.280938 1.44392 0
M  V30 5292 H 491.73 -1.78771 3.76957 0
M  V30 5293 H 490.36 -1.86989 2.63125 0
M  V30 5294 H 489.412 0.251506 3.79568 0
M  V30 5295 H 490.724 0.110548 4.98677 0
M  V30 5296 H 489.878 -2.14199 5.6763 0
M  V30 5297 H 488.617 -2.07658 4.41282 0
M  V30 5298 H 487.622 -0.0430787 5.49783 0
M  V30 5299 H 488.847 -0.127904 6.7898 0
M  V30 5300 H 486.793 -2.27918 6.15134 0
M  V30 5301 H 486.71 -1.15841 7.47072 0
M  V30 5302 H 487.978 -2.347 7.43328 0
M  V30 5303 N 492.207 -1.54576 0.307264 0
M  V30 5304 C 493.454 -2.00263 -0.300167 0
M  V30 5305 C 493.782 -1.19561 -1.53413 0
M  V30 5306 O 493.037 -0.261487 -1.93945 0
M  V30 5307 C 493.336 -3.50572 -0.695253 0
M  V30 5308 C 493.002 -4.48771 0.437679 0
M  V30 5309 C 491.664 -4.7534 0.748681 0
M  V30 5310 C 494.016 -5.0721 1.19949 0
M  V30 5311 C 491.344 -5.5761 1.8245 0
M  V30 5312 C 493.696 -5.90651 2.26527 0
M  V30 5313 C 492.36 -6.15528 2.58227 0
M  V30 5314 H 491.63 -0.732814 -0.109839 0
M  V30 5315 H 494.277 -1.86664 0.427661 0
M  V30 5316 H 492.582 -3.61814 -1.50326 0
M  V30 5317 H 494.279 -3.83352 -1.17653 0
M  V30 5318 H 490.869 -4.282 0.185187 0
M  V30 5319 H 495.053 -4.86679 0.972474 0
M  V30 5320 H 490.309 -5.75121 2.07476 0
M  V30 5321 H 494.483 -6.34957 2.86011 0
M  V30 5322 H 492.11 -6.79066 3.4172 0
M  V30 5323 N 493.685 -0.035106 -1.57561 0
M  V30 5324 C 494.91 0.655802 -1.96759 0
M  V30 5325 C 495.335 1.64523 -0.911809 0
M  V30 5326 O 494.693 1.80857 0.126673 0
M  V30 5327 C 494.741 1.33326 -3.35047 0
M  V30 5328 O 493.845 2.44866 -3.31835 0
M  V30 5329 H 493.186 0.171807 -0.641388 0
M  V30 5330 H 495.716 -0.0987369 -2.04362 0
M  V30 5331 H 495.726 1.68867 -3.71413 0
M  V30 5332 H 494.401 0.608033 -4.11431 0
M  V30 5333 H 492.978 2.11392 -3.07193 0
M  V30 5334 N 495.163 1.55791 0.238111 0
M  V30 5335 C 496.574 1.68383 0.806472 0
M  V30 5336 C 496.925 0.634157 1.85669 0
M  V30 5337 O 496.05 -0.217913 2.153 0
M  V30 5338 C 496.645 3.05268 1.46959 0
M  V30 5339 C 495.204 3.1977 1.98555 0
M  V30 5340 C 494.351 2.64279 0.839763 0
M  V30 5341 H 497.302 1.58694 0.0137535 0
M  V30 5342 H 497.323 3.00203 2.33792 0
M  V30 5343 H 496.835 3.81643 0.704993 0
M  V30 5344 H 494.936 2.48234 2.77868 0
M  V30 5345 H 495.049 4.26788 2.17689 0
M  V30 5346 H 493.413 2.22329 1.24265 0
M  V30 5347 H 494.196 3.43187 0.0881032 0
M  V30 5348 N 496.642 -0.504142 1.49319 0
M  V30 5349 C 497.605 -1.5883 1.65244 0
M  V30 5350 C 498.605 -1.52009 0.524386 0
M  V30 5351 O 499.795 -1.55218 0.79077 0
M  V30 5352 C 496.927 -2.98481 1.64687 0
M  V30 5353 H 498.12 -1.4604 2.61939 0
M  V30 5354 H 495.673 -0.728144 1.38303 0
M  V30 5355 H 496.408 -3.16751 0.695644 0
M  V30 5356 H 496.193 -3.0484 2.46607 0
M  V30 5357 H 497.683 -3.77256 1.79075 0
M  V30 5358 N 498.12 -1.38341 -0.754957 0
M  V30 5359 C 499.368 -1.34208 -1.51105 0
M  V30 5360 C 499.689 0.0677634 -1.94882 0
M  V30 5361 O 498.959 1.01517 -1.67544 0
M  V30 5362 H 497.539 -0.493819 -0.560493 0
M  V30 5363 H 500.201 -1.73005 -0.897507 0
M  V30 5364 H 499.297 -1.99203 -2.4026 0
M  V30 5365 N 499.598 0.982988 -1.23187 0
M  V30 5366 C 500.844 1.72648 -1.06398 0
M  V30 5367 C 501.177 1.90066 0.398561 0
M  V30 5368 O 500.452 1.45105 1.29518 0
M  V30 5369 C 500.735 3.12627 -1.78707 0
M  V30 5370 C 500.588 3.02795 -3.32618 0
M  V30 5371 C 501.907 4.11997 -1.54747 0
M  V30 5372 H 499.026 0.626649 -0.387918 0
M  V30 5373 H 501.668 1.14455 -1.51658 0
M  V30 5374 H 499.818 3.62308 -1.40234 0
M  V30 5375 H 501.49 2.60659 -3.80598 0
M  V30 5376 H 499.733 2.39362 -3.61785 0
M  V30 5377 H 500.404 4.01893 -3.78399 0
M  V30 5378 H 502.88 3.71114 -1.88186 0
M  V30 5379 H 501.756 5.08037 -2.07821 0
M  V30 5380 H 502.017 4.39462 -0.482249 0
M  V30 5381 N 501.076 1.04316 1.18135 0
M  V30 5382 C 501.986 0.646876 2.25505 0
M  V30 5383 C 503.002 -0.328008 1.7088 0
M  V30 5384 O 504.178 -0.182309 2.00573 0
M  V30 5385 C 501.243 0.0185664 3.46695 0
M  V30 5386 C 500.304 1.04277 4.16443 0
M  V30 5387 C 499.537 0.444352 5.31847 0
M  V30 5388 O 499.76 -0.748735 5.65465 0
M  V30 5389 O 498.694 1.17428 5.90334 0
M  V30 5390 H 502.52 1.54147 2.61672 0
M  V30 5391 H 500.105 0.814188 1.25265 0
M  V30 5392 H 501.987 -0.331068 4.20097 0
M  V30 5393 H 500.662 -0.849814 3.12346 0
M  V30 5394 H 499.569 1.44425 3.45098 0
M  V30 5395 H 500.902 1.882 4.54798 0
M  V30 5396 N 502.554 -1.34406 0.822964 0
M  V30 5397 C 503.802 -1.97892 0.410245 0
M  V30 5398 C 504.123 -1.65567 -1.03017 0
M  V30 5399 O 503.393 -0.94642 -1.71522 0
M  V30 5400 H 501.973 -0.732049 0.148707 0
M  V30 5401 H 504.635 -1.64043 1.05242 0
M  V30 5402 H 503.731 -3.07579 0.529284 0
M  V30 5403 N 504.032 -0.577932 -1.46621 0
M  V30 5404 C 505.272 -0.0643097 -2.04299 0
M  V30 5405 C 505.636 1.26967 -1.44026 0
M  V30 5406 O 506.837 1.87224 -1.92875 0
M  V30 5407 C 505.108 0.00547588 -3.574 0
M  V30 5408 S 506.667 0.462216 -4.36359 0
M  V30 5409 H 503.485 -0.0351573 -0.71013 0
M  V30 5410 H 506.087 -0.76935 -1.79725 0
M  V30 5411 H 504.791 -0.969423 -3.98786 0
M  V30 5412 H 504.322 0.733435 -3.86503 0
M  V30 5413 H 506.337 1.71791 -4.65513 0
M  V30 5414 N 505.51 1.54411 -0.315457 0
M  V30 5415 C 506.921 1.85885 0.174265 0
M  V30 5416 C 507.272 1.23723 1.52273 0
M  V30 5417 O 506.397 0.540246 2.09548 0
M  V30 5418 C 506.992 3.37257 0.322981 0
M  V30 5419 C 505.551 3.68711 0.756922 0
M  V30 5420 C 504.698 2.77013 -0.126195 0
M  V30 5421 H 507.649 1.49374 -0.536007 0
M  V30 5422 H 507.67 3.62539 1.15522 0
M  V30 5423 H 507.182 3.82471 -0.658602 0
M  V30 5424 H 505.283 3.29024 1.74854 0
M  V30 5425 H 505.396 4.75741 0.566291 0
M  V30 5426 H 503.76 2.51588 0.39692 0
M  V30 5427 H 504.543 3.25051 -1.1044 0
M  V30 5428 N 506.988 0.0434614 1.5754 0
M  V30 5429 C 507.951 -0.918696 2.09982 0
M  V30 5430 C 508.951 -1.24488 1.01781 0
M  V30 5431 O 510.141 -1.18284 1.27885 0
M  V30 5432 C 507.273 -2.23093 2.57764 0
M  V30 5433 H 508.466 -0.464229 2.96285 0
M  V30 5434 H 506.019 -0.204818 1.54952 0
M  V30 5435 H 506.754 -2.73137 1.74832 0
M  V30 5436 H 506.539 -2.00724 3.36827 0
M  V30 5437 H 508.029 -2.92028 2.98512 0
M  V30 5438 N 508.466 -1.55915 -0.229846 0
M  V30 5439 C 509.396 -1.94754 -1.28815 0
M  V30 5440 C 510.377 -0.814657 -1.49323 0
M  V30 5441 O 511.562 -1.07631 -1.61645 0
M  V30 5442 C 508.692 -2.25705 -2.63959 0
M  V30 5443 C 507.646 -3.41406 -2.5812 0
M  V30 5444 C 506.972 -3.57941 -3.97218 0
M  V30 5445 C 508.272 -4.76616 -2.13623 0
M  V30 5446 H 509.966 -2.83404 -0.965547 0
M  V30 5447 H 507.512 -1.36353 -0.463028 0
M  V30 5448 H 509.465 -2.51467 -3.38146 0
M  V30 5449 H 508.189 -1.339 -2.9789 0
M  V30 5450 H 506.848 -3.1568 -1.86391 0
M  V30 5451 H 506.496 -2.63526 -4.28443 0
M  V30 5452 H 506.196 -4.35757 -3.94195 0
M  V30 5453 H 507.72 -3.86042 -4.73079 0
M  V30 5454 H 509.134 -5.01637 -2.77549 0
M  V30 5455 H 507.531 -5.57655 -2.21677 0
M  V30 5456 H 508.601 -4.7253 -1.08829 0
M  V30 5457 N 509.944 0.496216 -1.49584 0
M  V30 5458 C 511.355 1.07765 -1.52459 0
M  V30 5459 C 511.706 1.93679 -0.31353 0
M  V30 5460 O 510.831 2.08588 0.576186 0
M  V30 5461 C 511.426 1.96111 -2.76271 0
M  V30 5462 C 509.985 2.49409 -2.81908 0
M  V30 5463 C 509.132 1.27142 -2.46435 0
M  V30 5464 H 512.083 0.279914 -1.56212 0
M  V30 5465 H 512.104 2.80862 -2.56704 0
M  V30 5466 H 511.616 1.33555 -3.64396 0
M  V30 5467 H 509.717 3.1559 -1.98074 0
M  V30 5468 H 509.83 2.86234 -3.84196 0
M  V30 5469 H 508.194 1.59818 -1.98319 0
M  V30 5470 H 508.977 0.662866 -3.3684 0
M  V30 5471 N 511.423 1.38739 0.74761 0
M  V30 5472 C 512.373 1.32948 1.85226 0
M  V30 5473 C 513.357 0.212642 1.59489 0
M  V30 5474 O 514.549 0.449121 1.71207 0
M  V30 5475 C 511.678 1.16279 3.23008 0
M  V30 5476 C 510.764 2.32611 3.54617 0
M  V30 5477 N 511.155 3.58065 3.57244 0
M  V30 5478 C 509.453 2.25293 3.84914 0
M  V30 5479 C 510.154 4.34919 3.8629 0
M  V30 5480 N 509.13 3.64348 4.03425 0
M  V30 5481 H 512.932 2.27927 1.85544 0
M  V30 5482 H 510.446 1.32056 0.945253 0
M  V30 5483 H 512.443 1.10214 4.02068 0
M  V30 5484 H 511.103 0.222394 3.23937 0
M  V30 5485 H 512.114 3.91656 3.3886 0
M  V30 5486 H 508.791 1.39446 3.93524 0
M  V30 5487 H 510.181 5.43605 3.94896 0
M  V30 5488 N 512.901 -0.976442 1.23707 0
M  V30 5489 C 513.848 -2.06952 1.02174 0
M  V30 5490 C 514.818 -1.65984 -0.0621034 0
M  V30 5491 O 516.003 -1.90584 0.0907906 0
M  V30 5492 C 513.143 -3.39425 0.62327 0
M  V30 5493 C 512.256 -3.9364 1.77966 0
M  V30 5494 C 511.391 -5.14343 1.3276 0
M  V30 5495 C 510.43 -5.60733 2.45449 0
M  V30 5496 N 509.567 -6.72662 2.01172 0
M  V30 5497 H 514.407 -2.24704 1.95734 0
M  V30 5498 H 511.944 -1.10143 0.975034 0
M  V30 5499 H 513.902 -4.15526 0.37332 0
M  V30 5500 H 512.532 -3.21624 -0.275329 0
M  V30 5501 H 511.584 -3.14258 2.14351 0
M  V30 5502 H 512.896 -4.24035 2.62671 0
M  V30 5503 H 512.05 -5.97789 1.03601 0
M  V30 5504 H 510.789 -4.8561 0.450975 0
M  V30 5505 H 509.794 -4.75865 2.75378 0
M  V30 5506 H 511.019 -5.91483 3.33654 0
M  V30 5507 H 508.965 -6.45681 1.15895 0
M  V30 5508 H 508.882 -7.02462 2.79434 0
M  V30 5509 H 510.15 -7.59572 1.75129 0
M  V30 5510 N 514.379 -1.04941 -1.1758 0
M  V30 5511 C 515.309 -0.669172 -2.23706 0
M  V30 5512 C 516.29 0.331835 -1.66832 0
M  V30 5513 O 517.475 0.209988 -1.93061 0
M  V30 5514 C 514.605 -0.0404889 -3.47276 0
M  V30 5515 C 513.559 -0.965983 -4.16957 0
M  V30 5516 C 512.885 -0.201312 -5.34321 0
M  V30 5517 C 514.185 -2.28902 -4.69469 0
M  V30 5518 H 515.879 -1.55639 -2.55767 0
M  V30 5519 H 513.425 -0.749793 -1.22939 0
M  V30 5520 H 515.378 0.237298 -4.20731 0
M  V30 5521 H 514.102 0.881658 -3.14475 0
M  V30 5522 H 512.761 -1.22829 -3.45411 0
M  V30 5523 H 512.409 0.723519 -4.97769 0
M  V30 5524 H 512.109 -0.817968 -5.81879 0
M  V30 5525 H 513.633 0.0692499 -6.10561 0
M  V30 5526 H 515.047 -2.07132 -5.34574 0
M  V30 5527 H 513.444 -2.85942 -5.27596 0
M  V30 5528 H 514.514 -2.92937 -3.86414 0
M  V30 5529 N 515.857 1.33968 -0.830081 0
M  V30 5530 C 517.103 1.98357 -0.422191 0
M  V30 5531 C 517.436 1.65633 1.01387 0
M  V30 5532 O 516.711 0.931648 1.70735 0
M  V30 5533 C 516.994 3.54492 -0.633043 0
M  V30 5534 C 516.847 3.96934 -2.11574 0
M  V30 5535 C 518.166 4.40039 -0.0735584 0
M  V30 5536 H 515.285 0.720544 -0.154871 0
M  V30 5537 H 517.927 1.58749 -1.04397 0
M  V30 5538 H 516.077 3.88361 -0.103775 0
M  V30 5539 H 517.749 3.73363 -2.7092 0
M  V30 5540 H 515.992 3.46984 -2.60354 0
M  V30 5541 H 516.663 5.05651 -2.21406 0
M  V30 5542 H 519.139 4.12764 -0.52585 0
M  V30 5543 H 518.015 5.48327 -0.250841 0
M  V30 5544 H 518.276 4.30124 1.02202 0
M  V30 5545 N 517.335 0.585699 1.46312 0
M  V30 5546 C 518.298 -0.135673 2.28798 0
M  V30 5547 C 519.298 -0.815988 1.38558 0
M  V30 5548 O 520.488 -0.667487 1.60904 0
M  V30 5549 C 517.62 -1.20163 3.1902 0
M  V30 5550 H 518.813 0.589257 2.94054 0
M  V30 5551 H 516.366 0.343794 1.52472 0
M  V30 5552 H 517.101 -1.95804 2.58517 0
M  V30 5553 H 516.886 -0.718282 3.85465 0
M  V30 5554 H 518.376 -1.70749 3.81096 0
M  V30 5555 N 518.813 -1.54241 0.323641 0
M  V30 5556 C 520.062 -1.9975 -0.279806 0
M  V30 5557 C 520.375 -1.2156 -1.5324 0
M  V30 5558 O 521.581 -1.57447 -2.21185 0
M  V30 5559 C 520.037 -3.55686 -0.549115 0
M  V30 5560 C 519.645 -4.4271 0.686432 0
M  V30 5561 C 521.389 -4.09663 -1.11251 0
M  V30 5562 C 519.296 -5.90119 0.389022 0
M  V30 5563 H 518.226 -0.746177 -0.10833 0
M  V30 5564 H 520.877 -1.78248 0.435877 0
M  V30 5565 H 519.259 -3.73176 -1.32499 0
M  V30 5566 H 520.433 -4.36996 1.46188 0
M  V30 5567 H 518.748 -3.99623 1.17005 0
M  V30 5568 H 521.345 -5.17386 -1.34965 0
M  V30 5569 H 521.688 -3.61651 -2.06191 0
M  V30 5570 H 522.221 -3.95806 -0.39782 0
M  V30 5571 H 518.96 -6.42326 1.30759 0
M  V30 5572 H 518.48 -5.98785 -0.348722 0
M  V30 5573 H 520.159 -6.47 -0.0011164 0
M  V30 5574 N 520.291 -0.0518155 -1.57515 0
M  V30 5575 C 521.531 0.625712 -1.94587 0
M  V30 5576 C 521.895 1.6797 -0.930053 0
M  V30 5577 O 523.096 2.41135 -1.18774 0
M  V30 5578 C 521.367 1.20574 -3.36447 0
M  V30 5579 S 522.926 1.90118 -3.95475 0
M  V30 5580 H 519.744 0.205434 -0.680675 0
M  V30 5581 H 522.346 -0.120906 -1.95126 0
M  V30 5582 H 521.05 0.426521 -4.08178 0
M  V30 5583 H 520.581 1.98916 -3.39405 0
M  V30 5584 H 522.596 3.18184 -3.80753 0
M  V30 5585 N 521.769 1.56035 0.221574 0
M  V30 5586 C 523.046 1.69837 0.970301 0
M  V30 5587 C 523.426 0.599065 2.02421 0
M  V30 5588 O 522.774 -0.393929 2.25079 0
M  V30 5589 C 522.984 3.11148 1.58076 0
M  V30 5590 C 524.332 3.70555 2.07302 0
M  V30 5591 O 525.356 3.14109 1.6797 0
M  V30 5592 O 524.215 4.69562 2.79596 0
M  V30 5593 H 521.309 0.691727 0.453257 0
M  V30 5594 H 523.855 1.68353 0.213358 0
M  V30 5595 H 522.627 3.82617 0.819759 0
M  V30 5596 H 522.25 3.16749 2.40324 0
M  V30 5597 N 523.247 -0.488276 1.49845 0
M  V30 5598 C 524.496 -1.23826 1.59217 0
M  V30 5599 C 524.809 -1.93439 0.289966 0
M  V30 5600 O 526.015 -2.70229 0.262382 0
M  V30 5601 C 524.471 -2.24902 2.80976 0
M  V30 5602 C 524.079 -1.6117 4.18005 0
M  V30 5603 C 525.823 -3.00648 2.99685 0
M  V30 5604 C 523.73 -2.60431 5.3097 0
M  V30 5605 H 522.66 -0.465858 0.592868 0
M  V30 5606 H 525.311 -0.510645 1.76252 0
M  V30 5607 H 523.693 -3.0088 2.57463 0
M  V30 5608 H 524.867 -0.910968 4.51706 0
M  V30 5609 H 523.182 -0.97767 4.0476 0
M  V30 5610 H 525.779 -3.74903 3.81251 0
M  V30 5611 H 526.122 -3.5902 2.10738 0
M  V30 5612 H 526.655 -2.31784 3.23297 0
M  V30 5613 H 523.394 -2.06823 6.22017 0
M  V30 5614 H 522.914 -3.28707 5.01709 0
M  V30 5615 H 524.593 -3.22606 5.60834 0
M  V30 5616 N 524.725 -1.39134 -0.740242 0
M  V30 5617 C 525.95 -1.39518 -1.53459 0
M  V30 5618 C 526.375 0.00968883 -1.88098 0
M  V30 5619 O 525.733 0.995312 -1.51536 0
M  V30 5620 C 525.781 -2.26981 -2.802 0
M  V30 5621 O 524.885 -1.69609 -3.75908 0
M  V30 5622 H 524.226 -0.475328 -0.463637 0
M  V30 5623 H 526.756 -1.83064 -0.913717 0
M  V30 5624 H 526.766 -2.41309 -3.28989 0
M  V30 5625 H 525.441 -3.29081 -2.5432 0
M  V30 5626 H 524.018 -1.64495 -3.34658 0
M  V30 5627 N 526.204 0.969867 -1.24223 0
M  V30 5628 C 527.167 2.04564 -1.03373 0
M  V30 5629 C 528.167 1.60798 0.00819206 0
M  V30 5630 O 529.357 1.72641 -0.232567 0
M  V30 5631 C 526.489 3.36163 -0.566343 0
M  V30 5632 H 527.682 2.24494 -1.98853 0
M  V30 5633 H 525.235 1.1448 -1.06415 0
M  V30 5634 H 525.97 3.21925 0.391751 0
M  V30 5635 H 525.755 3.69273 -1.31834 0
M  V30 5636 H 527.245 4.1526 -0.441435 0
M  V30 5637 N 527.682 1.05563 1.17022 0
M  V30 5638 C 528.959 0.68165 1.83338 0
M  V30 5639 C 529.339 -0.837665 1.93769 0
M  V30 5640 O 528.687 -1.74507 1.47511 0
M  V30 5641 C 528.897 1.375 3.20772 0
M  V30 5642 C 530.245 1.51545 3.96635 0
M  V30 5643 O 531.269 1.33431 3.30264 0
M  V30 5644 O 530.128 1.812 5.15586 0
M  V30 5645 H 527.222 0.240412 0.791285 0
M  V30 5646 H 529.768 1.15545 1.24288 0
M  V30 5647 H 528.54 2.41135 3.08171 0
M  V30 5648 H 528.163 0.890798 3.87493 0
M  V30 5649 N 529.16 -1.33526 0.837174 0
M  V30 5650 C 530.388 -2.02047 0.445494 0
M  V30 5651 C 530.803 -1.62995 -0.952788 0
M  V30 5652 O 530.16 -0.842447 -1.61892 0
M  V30 5653 C 530.211 -3.57221 0.554577 0
M  V30 5654 O 529.932 -3.94863 1.89776 0
M  V30 5655 C 531.433 -4.43012 0.159634 0
M  V30 5656 H 528.653 -0.647221 0.177048 0
M  V30 5657 H 531.197 -1.70492 1.12928 0
M  V30 5658 H 529.352 -3.87315 -0.0812781 0
M  V30 5659 H 529.766 -4.89569 1.88208 0
M  V30 5660 H 531.24 -5.51253 0.28701 0
M  V30 5661 H 531.717 -4.29916 -0.898289 0
M  V30 5662 H 532.323 -4.18274 0.769855 0
M  V30 5663 N 530.638 -0.59345 -1.46 0
M  V30 5664 C 531.886 -0.082988 -2.0193 0
M  V30 5665 C 532.207 1.28569 -1.46612 0
M  V30 5666 O 531.477 1.84629 -0.654909 0
M  V30 5667 H 530.057 -0.0276882 -0.746487 0
M  V30 5668 H 532.719 -0.771657 -1.78973 0
M  V30 5669 H 531.815 -0.022079 -3.12092 0
M  V30 5670 N 532.116 1.54067 -0.331816 0
M  V30 5671 C 533.364 2.00319 0.267739 0
M  V30 5672 C 533.685 1.22148 1.52003 0
M  V30 5673 O 532.955 0.325494 1.93177 0
M  V30 5674 H 531.535 0.740014 0.101922 0
M  V30 5675 H 534.197 1.89628 -0.450267 0
M  V30 5676 H 533.293 3.07765 0.518385 0
M  V30 5677 N 533.594 0.0601682 1.57485 0
M  V30 5678 C 534.819 -0.624416 1.97777 0
M  V30 5679 C 535.244 -1.63051 0.937867 0
M  V30 5680 O 534.602 -1.81036 -0.0978845 0
M  V30 5681 C 534.65 -1.27979 3.37126 0
M  V30 5682 O 533.754 -2.39556 3.35688 0
M  V30 5683 H 533.095 -0.161581 0.64404 0
M  V30 5684 H 535.625 0.131237 2.04179 0
M  V30 5685 H 535.635 -1.62937 3.74053 0
M  V30 5686 H 534.31 -0.542501 4.12347 0
M  V30 5687 H 532.887 -2.06478 3.10517 0
M  V30 5688 N 535.072 -1.5615 -0.213296 0
M  V30 5689 C 536.321 -1.78743 -0.93455 0
M  V30 5690 C 536.634 -0.630199 -1.8517 0
M  V30 5691 O 537.84 -0.739966 -2.61222 0
M  V30 5692 C 536.296 -3.16571 -1.71203 0
M  V30 5693 C 535.904 -4.40043 -0.840617 0
M  V30 5694 C 537.648 -3.48485 -2.42401 0
M  V30 5695 C 535.555 -5.68895 -1.61592 0
M  V30 5696 H 534.485 -0.666426 -0.352692 0
M  V30 5697 H 537.136 -1.82532 -0.188227 0
M  V30 5698 H 535.518 -3.06981 -2.50157 0
M  V30 5699 H 536.692 -4.6071 -0.0910326 0
M  V30 5700 H 535.007 -4.15706 -0.240365 0
M  V30 5701 H 537.604 -4.41983 -3.00924 0
M  V30 5702 H 537.947 -2.71371 -3.15695 0
M  V30 5703 H 538.48 -3.59442 -1.7043 0
M  V30 5704 H 535.219 -6.48925 -0.926106 0
M  V30 5705 H 534.739 -5.52275 -2.33991 0
M  V30 5706 H 536.418 -6.09365 -2.17447 0
M  V30 5707 N 536.55 0.480323 -1.50102 0
M  V30 5708 C 537.46 1.60547 -1.71061 0
M  V30 5709 C 538.476 1.63564 -0.593529 0
M  V30 5710 O 539.652 1.81604 -0.870751 0
M  V30 5711 C 536.717 2.96814 -1.79171 0
M  V30 5712 C 535.778 3.04259 -3.02861 0
M  V30 5713 C 535.011 4.34027 -3.10574 0
M  V30 5714 O 535.234 5.24009 -2.25323 0
M  V30 5715 O 534.168 4.46873 -4.03223 0
M  V30 5716 H 537.994 1.45788 -2.6642 0
M  V30 5717 H 535.579 0.658838 -1.34088 0
M  V30 5718 H 537.461 3.77765 -1.86738 0
M  V30 5719 H 536.136 3.11791 -0.869947 0
M  V30 5720 H 535.043 2.22419 -3.008 0
M  V30 5721 H 536.376 2.94216 -3.94586 0
M  V30 5722 N 538.028 1.39524 0.732853 0
M  V30 5723 C 539.275 1.36865 1.49246 0
M  V30 5724 C 539.603 -0.0347118 1.94469 0
M  V30 5725 O 538.858 -1.01596 1.67262 0
M  V30 5726 C 539.157 2.28916 2.74468 0
M  V30 5727 C 538.823 3.76506 2.481 0
M  V30 5728 C 537.485 4.16721 2.40619 0
M  V30 5729 C 539.837 4.69846 2.25598 0
M  V30 5730 C 537.165 5.48334 2.08679 0
M  V30 5731 C 539.517 6.01739 1.95174 0
M  V30 5732 C 538.181 6.41015 1.86163 0
M  V30 5733 H 537.451 0.500824 0.546129 0
M  V30 5734 H 540.098 1.72047 0.840958 0
M  V30 5735 H 538.403 1.86859 3.4437 0
M  V30 5736 H 540.1 2.2415 3.32502 0
M  V30 5737 H 536.69 3.44635 2.54803 0
M  V30 5738 H 540.874 4.39608 2.30344 0
M  V30 5739 H 536.13 5.77685 2.00226 0
M  V30 5740 H 540.304 6.73591 1.76771 0
M  V30 5741 H 537.931 7.42917 1.61179 0
M  V30 5742 N 539.506 -0.963266 1.24736 0
M  V30 5743 C 540.439 -2.05758 0.986852 0
M  V30 5744 C 541.417 -1.62398 -0.0809272 0
M  V30 5745 O 542.601 -1.88414 0.0569347 0
M  V30 5746 C 539.728 -3.35135 0.490095 0
M  V30 5747 C 538.774 -3.97451 1.54709 0
M  V30 5748 S 539.607 -4.34519 3.12976 0
M  V30 5749 C 540.763 -5.67026 2.65014 0
M  V30 5750 H 540.996 -2.27539 1.91346 0
M  V30 5751 H 538.529 -1.10176 1.08169 0
M  V30 5752 H 540.487 -4.09962 0.21012 0
M  V30 5753 H 539.148 -3.11335 -0.415873 0
M  V30 5754 H 538.341 -4.90704 1.15003 0
M  V30 5755 H 537.943 -3.29071 1.77731 0
M  V30 5756 H 540.235 -6.44748 2.08102 0
M  V30 5757 H 541.178 -6.11594 3.56873 0
M  V30 5758 H 541.586 -5.25847 2.05294 0
M  V30 5759 N 540.985 -1.06182 -1.16461 0
M  V30 5760 C 542.213 -0.798583 -1.90867 0
M  V30 5761 C 542.628 0.646921 -1.77371 0
M  V30 5762 O 541.985 1.44279 -1.11758 0
M  V30 5763 C 542.036 -1.18258 -3.4161 0
M  V30 5764 O 541.757 -2.57135 -3.54701 0
M  V30 5765 C 543.258 -0.946917 -4.33069 0
M  V30 5766 H 540.478 -0.289603 -0.605286 0
M  V30 5767 H 543.022 -1.41515 -1.47627 0
M  V30 5768 H 541.177 -0.610562 -3.82558 0
M  V30 5769 H 541.591 -2.72477 -4.4817 0
M  V30 5770 H 543.065 -1.26523 -5.37304 0
M  V30 5771 H 543.542 0.117406 -4.39043 0
M  V30 5772 H 544.148 -1.50326 -3.97847 0
M  V30 5773 N 542.463 1.3308 -0.844243 0
M  V30 5774 C 543.373 2.32876 -0.283922 0
M  V30 5775 C 544.389 1.63589 0.592846 0
M  V30 5776 O 545.565 1.95205 0.495693 0
M  V30 5777 C 542.63 3.42667 0.527283 0
M  V30 5778 C 541.691 4.27664 -0.374394 0
M  V30 5779 C 540.924 5.32212 0.39819 0
M  V30 5780 O 541.147 5.46635 1.62932 0
M  V30 5781 O 540.081 6.01458 -0.2306 0
M  V30 5782 H 543.907 2.82671 -1.11045 0
M  V30 5783 H 541.492 1.36518 -0.606903 0
M  V30 5784 H 543.374 4.09652 0.988078 0
M  V30 5785 H 542.049 2.95079 1.33078 0
M  V30 5786 H 540.956 3.63526 -0.883144 0
M  V30 5787 H 542.289 4.78749 -1.1428 0
M  V30 5788 N 543.941 0.601185 1.45683 0
M  V30 5789 C 545.181 0.0968037 2.04171 0
M  V30 5790 C 545.545 -1.2466 1.46027 0
M  V30 5791 O 546.746 -1.84132 1.95829 0
M  V30 5792 C 545.017 0.051384 3.57363 0
M  V30 5793 S 546.576 -0.392737 4.37039 0
M  V30 5794 H 543.394 0.0464504 0.709481 0
M  V30 5795 H 545.996 0.797846 1.78479 0
M  V30 5796 H 544.7 1.03274 3.97193 0
M  V30 5797 H 544.231 -0.671853 3.87621 0
M  V30 5798 H 546.246 -1.64364 4.68187 0
M  V30 5799 N 545.419 -1.53889 0.339982 0
M  V30 5800 C 546.647 -2.05271 -0.259114 0
M  V30 5801 C 547.062 -1.21517 -1.44496 0
M  V30 5802 O 546.419 -0.24966 -1.80784 0
M  V30 5803 C 546.47 -3.55092 -0.677634 0
M  V30 5804 O 546.191 -4.35667 0.461051 0
M  V30 5805 C 547.692 -4.22631 -1.33782 0
M  V30 5806 H 544.912 -0.669085 -0.0506566 0
M  V30 5807 H 547.456 -1.9852 0.490935 0
M  V30 5808 H 545.611 -3.62077 -1.37763 0
M  V30 5809 H 546.025 -5.24343 0.128144 0
M  V30 5810 H 547.499 -5.28861 -1.58145 0
M  V30 5811 H 547.976 -3.74758 -2.29027 0
M  V30 5812 H 548.582 -4.19829 -0.679957 0
M  V30 5813 N 546.897 -0.0685191 -1.57451 0
M  V30 5814 C 548.125 0.610462 -1.97689 0
M  V30 5815 C 548.54 1.63346 -0.946758 0
M  V30 5816 O 547.897 1.82377 0.0669868 0
M  V30 5817 C 547.948 1.28196 -3.38006 0
M  V30 5818 O 547.669 0.299906 -4.37072 0
M  V30 5819 C 549.17 2.04907 -3.931 0
M  V30 5820 H 546.39 0.165689 -0.650222 0
M  V30 5821 H 548.934 -0.139953 -2.04021 0
M  V30 5822 H 547.089 1.98348 -3.32771 0
M  V30 5823 H 547.503 0.78126 -5.18649 0
M  V30 5824 H 548.977 2.47287 -4.93511 0
M  V30 5825 H 549.454 2.9043 -3.29465 0
M  V30 5826 H 550.06 1.39629 -4.01726 0
M  V30 5827 N 548.375 1.56261 0.205012 0
M  V30 5828 C 549.624 1.79236 0.925058 0
M  V30 5829 C 549.937 0.640011 1.84833 0
M  V30 5830 O 551.143 0.753809 2.60826 0
M  V30 5831 C 549.599 3.17475 1.69522 0
M  V30 5832 C 549.207 4.40482 0.817269 0
M  V30 5833 C 550.951 3.49766 2.4055 0
M  V30 5834 C 548.858 5.69744 1.58573 0
M  V30 5835 H 547.788 0.668287 0.349153 0
M  V30 5836 H 550.439 1.82629 0.178544 0
M  V30 5837 H 548.821 3.08304 2.48526 0
M  V30 5838 H 549.995 4.60752 0.0665988 0
M  V30 5839 H 548.31 4.15827 0.218316 0
M  V30 5840 H 550.907 4.43573 2.98575 0
M  V30 5841 H 551.25 2.73041 3.14252 0
M  V30 5842 H 551.783 3.60341 1.68522 0
M  V30 5843 H 548.522 6.49407 0.891679 0
M  V30 5844 H 548.042 5.53509 2.31059 0
M  V30 5845 H 549.721 6.1051 2.14212 0
M  V30 5846 N 549.853 -0.472356 1.50355 0
M  V30 5847 C 550.763 -1.59637 1.7191 0
M  V30 5848 C 551.779 -1.63247 0.602195 0
M  V30 5849 O 552.955 -1.81139 0.880369 0
M  V30 5850 C 550.02 -2.9586 1.80742 0
M  V30 5851 C 549.081 -3.02649 3.04471 0
M  V30 5852 C 548.314 -4.32374 3.12872 0
M  V30 5853 O 548.537 -5.22807 2.28099 0
M  V30 5854 O 547.471 -4.44728 4.05587 0
M  V30 5855 H 551.297 -1.44373 2.67189 0
M  V30 5856 H 548.882 -0.651717 1.34436 0
M  V30 5857 H 550.764 -3.7677 1.88739 0
M  V30 5858 H 549.439 -3.11325 0.88647 0
M  V30 5859 H 548.346 -2.20821 3.01975 0
M  V30 5860 H 549.679 -2.92119 3.9614 0
M  V30 5861 N 551.331 -1.39911 -0.725443 0
M  V30 5862 C 552.281 -1.35878 -1.83088 0
M  V30 5863 C 553.265 -0.237989 -1.5913 0
M  V30 5864 O 554.457 -0.476302 -1.70471 0
M  V30 5865 C 551.586 -1.21403 -3.21117 0
M  V30 5866 C 550.672 -2.38223 -3.50871 0
M  V30 5867 N 551.063 -3.63703 -3.51502 0
M  V30 5868 C 549.361 -2.31388 -3.81281 0
M  V30 5869 C 550.062 -4.4101 -3.79322 0
M  V30 5870 N 549.038 -3.7072 -3.97577 0
M  V30 5871 H 552.84 -2.3085 -1.81895 0
M  V30 5872 H 550.354 -1.33543 -0.924125 0
M  V30 5873 H 552.351 -1.16597 -4.00263 0
M  V30 5874 H 551.011 -0.273902 -3.23543 0
M  V30 5875 H 552.022 -3.96998 -3.32586 0
M  V30 5876 H 548.699 -1.45689 -3.91256 0
M  V30 5877 H 550.089 -5.49819 -3.86198 0
M  V30 5878 N 552.809 0.956637 -1.25245 0
M  V30 5879 C 554.22 1.51569 -1.09012 0
M  V30 5880 C 554.571 1.93322 0.334813 0
M  V30 5881 O 553.696 1.78421 1.22454 0
M  V30 5882 C 554.291 2.75444 -1.97271 0
M  V30 5883 C 552.85 3.27669 -1.8523 0
M  V30 5884 C 551.997 2.00517 -1.91542 0
M  V30 5885 H 554.948 0.773746 -1.3856 0
M  V30 5886 H 554.969 3.4919 -1.51151 0
M  V30 5887 H 554.481 2.45024 -3.00973 0
M  V30 5888 H 552.582 3.62914 -0.844045 0
M  V30 5889 H 552.695 3.9582 -2.69932 0
M  V30 5890 H 551.059 2.15727 -1.35404 0
M  V30 5891 H 551.842 1.72448 -2.96844 0
M  V30 5892 N 554.287 1.06798 1.15896 0
M  V30 5893 C 555.534 0.787767 1.86549 0
M  V30 5894 C 555.862 -0.685959 1.82002 0
M  V30 5895 O 555.117 -1.5188 1.23414 0
M  V30 5896 C 555.416 1.23414 3.35416 0
M  V30 5897 C 555.082 2.71285 3.6016 0
M  V30 5898 C 553.744 3.11676 3.66622 0
M  V30 5899 C 556.096 3.6676 3.7032 0
M  V30 5900 C 553.424 4.4637 3.8075 0
M  V30 5901 C 555.776 5.01209 3.8597 0
M  V30 5902 C 554.44 5.41229 3.90676 0
M  V30 5903 H 553.71 0.288264 0.682631 0
M  V30 5904 H 556.357 1.338 1.37003 0
M  V30 5905 H 554.662 0.60319 3.87129 0
M  V30 5906 H 556.359 0.994298 3.88477 0
M  V30 5907 H 552.949 2.39015 3.55767 0
M  V30 5908 H 557.133 3.36685 3.64633 0
M  V30 5909 H 552.389 4.76855 3.82648 0
M  V30 5910 H 556.563 5.75067 3.92773 0
M  V30 5911 H 554.19 6.45602 4.01375 0
M  V30 5912 N 555.766 -1.3263 0.851289 0
M  V30 5913 C 557.006 -1.99174 0.459266 0
M  V30 5914 C 557.37 -1.65913 -0.966273 0
M  V30 5915 O 558.571 -2.2552 -1.46267 0
M  V30 5916 C 556.842 -3.50721 0.687698 0
M  V30 5917 S 558.401 -4.37039 0.392746 0
M  V30 5918 H 555.219 -0.689832 0.172199 0
M  V30 5919 H 557.821 -1.61395 1.10327 0
M  V30 5920 H 556.525 -3.72417 1.72435 0
M  V30 5921 H 556.056 -3.93389 0.0299949 0
M  V30 5922 H 558.071 -4.8999 -0.782578 0
M  V30 5923 N 557.244 -0.608902 -1.45362 0
M  V30 5924 C 558.177 0.158059 -2.27652 0
M  V30 5925 C 559.155 0.872397 -1.37215 0
M  V30 5926 O 560.339 0.881002 -1.66645 0
M  V30 5927 C 557.466 1.22896 -3.15617 0
M  V30 5928 C 556.512 0.617607 -4.22005 0
M  V30 5929 S 557.345 -0.575518 -5.32398 0
M  V30 5930 C 558.501 0.495938 -6.23932 0
M  V30 5931 H 558.734 -0.540095 -2.92353 0
M  V30 5932 H 556.267 -0.396456 -1.49223 0
M  V30 5933 H 558.225 1.84195 -3.66855 0
M  V30 5934 H 556.886 1.89919 -2.50179 0
M  V30 5935 H 556.079 1.42341 -4.83482 0
M  V30 5936 H 555.681 0.0797273 -3.73915 0
M  V30 5937 H 557.973 1.37465 -6.63408 0
M  V30 5938 H 558.916 -0.0827108 -7.08052 0
M  V30 5939 H 559.324 0.811856 -5.58631 0
M  V30 5940 N 558.722 1.53707 -0.348139 0
M  V30 5941 C 559.952 2.05108 0.247864 0
M  V30 5942 C 560.36 1.22252 1.44399 0
M  V30 5943 O 559.703 0.251853 1.81965 0
M  V30 5944 C 559.765 3.52171 0.722187 0
M  V30 5945 C 559.429 4.5562 -0.354902 0
M  V30 5946 C 560.426 5.05883 -1.19911 0
M  V30 5947 C 558.111 4.99703 -0.510145 0
M  V30 5948 C 560.105 5.98814 -2.18406 0
M  V30 5949 C 557.792 5.92443 -1.49848 0
M  V30 5950 C 558.79 6.41887 -2.33389 0
M  V30 5951 O 558.478 7.32802 -3.3054 0
M  V30 5952 H 558.21 0.674086 0.0508296 0
M  V30 5953 H 560.764 1.99229 -0.49968 0
M  V30 5954 H 558.994 3.55529 1.52105 0
M  V30 5955 H 560.683 3.8652 1.23925 0
M  V30 5956 H 561.449 4.72586 -1.09028 0
M  V30 5957 H 557.328 4.60816 0.130274 0
M  V30 5958 H 560.872 6.3733 -2.83649 0
M  V30 5959 H 556.769 6.25155 -1.60786 0
M  V30 5960 H 557.537 7.50749 -3.26064 0
M  V30 5961 N 560.2 0.0768682 1.57412 0
M  V30 5962 C 561.477 -0.632359 1.85096 0
M  V30 5963 C 561.857 -1.87479 0.9703 0
M  V30 5964 O 561.205 -2.28469 0.0379062 0
M  V30 5965 C 561.415 -0.965174 3.35388 0
M  V30 5966 C 562.763 -1.33648 4.03018 0
M  V30 5967 O 563.787 -1.05675 3.40164 0
M  V30 5968 O 562.646 -1.85959 5.13889 0
M  V30 5969 H 559.74 -0.314574 0.764835 0
M  V30 5970 H 562.286 0.108184 1.69355 0
M  V30 5971 H 561.058 -0.0829745 3.91212 0
M  V30 5972 H 560.681 -1.76231 3.5641 0
M  V30 5973 N 561.678 -1.56367 -0.196722 0
M  V30 5974 C 562.641 -1.93561 -1.22746 0
M  V30 5975 C 563.641 -0.816566 -1.38524 0
M  V30 5976 O 564.831 -1.084 -1.36363 0
M  V30 5977 C 561.963 -2.20823 -2.59712 0
M  V30 5978 H 563.156 -2.85774 -0.909586 0
M  V30 5979 H 560.709 -1.50032 -0.438174 0
M  V30 5980 H 561.444 -1.31243 -2.96557 0
M  V30 5981 H 561.229 -3.02368 -2.49632 0
M  V30 5982 H 562.719 -2.50608 -3.34044 0
M  V30 5983 N 563.156 0.464375 -1.50603 0
M  V30 5984 C 564.433 1.22549 -1.5245 0
M  V30 5985 C 564.813 2.09327 -0.273035 0
M  V30 5986 O 564.161 2.16074 0.743242 0
M  V30 5987 C 564.371 2.05074 -2.82393 0
M  V30 5988 C 565.719 2.63036 -3.33313 0
M  V30 5989 O 566.743 2.1531 -2.8376 0
M  V30 5990 O 565.602 3.5001 -4.19709 0
M  V30 5991 H 562.696 0.556471 -0.611775 0
M  V30 5992 H 565.242 0.475648 -1.62898 0
M  V30 5993 H 564.014 1.41169 -3.64948 0
M  V30 5994 H 563.637 2.87179 -2.7498 0
M  V30 5995 N 564.634 1.40294 0.718013 0
M  V30 5996 C 565.566 1.36281 1.84283 0
M  V30 5997 C 566.579 0.268621 1.60569 0
M  V30 5998 O 567.768 0.528798 1.70487 0
M  V30 5999 C 564.868 1.09741 3.2064 0
M  V30 6000 C 564.041 2.30767 3.71571 0
M  V30 6001 C 563.1 2.00424 4.86535 0
M  V30 6002 O 562.126 2.73268 4.99313 0
M  V30 6003 N 563.328 0.980724 5.72156 0
M  V30 6004 H 566.093 2.3322 1.88225 0
M  V30 6005 H 563.654 1.34616 0.899453 0
M  V30 6006 H 565.646 0.874322 3.95143 0
M  V30 6007 H 564.216 0.214771 3.11861 0
M  V30 6008 H 563.436 2.68921 2.88228 0
M  V30 6009 H 564.724 3.11455 4.02335 0
M  V30 6010 H 564.122 0.377375 5.6444 0
M  V30 6011 H 562.679 0.817538 6.46653 0
M  V30 6012 N 566.112 -0.949982 1.2575 0
M  V30 6013 C 567.062 -2.03297 1.03221 0
M  V30 6014 C 568.046 -1.60867 -0.0324751 0
M  V30 6015 O 569.238 -1.76047 0.183423 0
M  V30 6016 C 566.367 -3.36938 0.657841 0
M  V30 6017 C 565.453 -3.85878 1.75952 0
M  V30 6018 N 565.844 -4.0756 2.99547 0
M  V30 6019 C 564.142 -4.14709 1.64111 0
M  V30 6020 C 564.843 -4.47961 3.71087 0
M  V30 6021 N 563.819 -4.5416 2.98731 0
M  V30 6022 H 567.621 -2.1806 1.97045 0
M  V30 6023 H 565.135 -1.13516 1.16138 0
M  V30 6024 H 567.132 -4.14155 0.477614 0
M  V30 6025 H 565.792 -3.2355 -0.273025 0
M  V30 6026 H 566.803 -3.94501 3.35544 0
M  V30 6027 H 563.48 -4.10158 0.779527 0
M  V30 6028 H 564.87 -4.73002 4.77199 0
M  V30 6029 N 567.59 -1.07411 -1.15328 0
M  V30 6030 C 568.839 -0.792643 -1.85473 0
M  V30 6031 C 569.152 0.683789 -1.83259 0
M  V30 6032 O 570.358 1.08005 -2.49093 0
M  V30 6033 C 568.814 -1.36787 -3.32892 0
M  V30 6034 C 568.422 -2.87536 -3.43551 0
M  V30 6035 C 570.166 -1.16444 -4.08217 0
M  V30 6036 C 568.073 -3.38247 -4.85122 0
M  V30 6037 H 567.003 -0.292838 -0.694811 0
M  V30 6038 H 569.654 -1.29426 -1.30082 0
M  V30 6039 H 568.036 -0.793993 -3.87958 0
M  V30 6040 H 569.21 -3.50973 -2.98588 0
M  V30 6041 H 567.525 -3.06676 -2.81672 0
M  V30 6042 H 570.122 -1.51808 -5.12697 0
M  V30 6043 H 570.465 -0.10353 -4.16171 0
M  V30 6044 H 570.998 -1.70472 -3.59422 0
M  V30 6045 H 567.737 -4.43866 -4.82351 0
M  V30 6046 H 567.257 -2.79564 -5.30664 0
M  V30 6047 H 568.936 -3.34238 -5.5398 0
M  V30 6048 N 569.068 1.32177 -0.85831 0
M  V30 6049 C 570.317 1.96392 -0.459689 0
M  V30 6050 C 570.63 1.68659 0.990632 0
M  V30 6051 O 571.836 2.26641 1.49485 0
M  V30 6052 C 570.292 3.51542 -0.7711 0
M  V30 6053 C 569.9 3.8813 -2.2374 0
M  V30 6054 C 571.644 4.2221 -0.44038 0
M  V30 6055 C 569.551 5.36341 -2.49183 0
M  V30 6056 H 568.481 0.735007 -0.168169 0
M  V30 6057 H 571.132 1.50518 -1.0496 0
M  V30 6058 H 569.514 3.95846 -0.11058 0
M  V30 6059 H 570.688 3.54824 -2.94001 0
M  V30 6060 H 569.003 3.30497 -2.533 0
M  V30 6061 H 571.6 5.31234 -0.607855 0
M  V30 6062 H 571.943 4.11683 0.618291 0
M  V30 6063 H 572.476 3.83502 -1.05695 0
M  V30 6064 H 569.215 5.51892 -3.53689 0
M  V30 6065 H 568.735 5.7104 -1.83504 0
M  V30 6066 H 570.414 6.03466 -2.33318 0
M  V30 6067 N 570.547 0.616602 1.45037 0
M  V30 6068 C 571.497 -0.118543 2.27692 0
M  V30 6069 C 572.481 -0.830025 1.37838 0
M  V30 6070 O 573.673 -0.718528 1.6176 0
M  V30 6071 C 570.802 -1.10924 3.24886 0
M  V30 6072 C 569.888 -0.398134 4.22227 0
M  V30 6073 N 570.279 0.565233 5.02632 0
M  V30 6074 C 568.577 -0.644506 4.41319 0
M  V30 6075 C 569.278 0.984043 5.73316 0
M  V30 6076 N 568.254 0.325879 5.42622 0
M  V30 6077 H 572.056 0.621239 2.87259 0
M  V30 6078 H 569.57 0.440968 1.56299 0
M  V30 6079 H 571.567 -1.65038 3.82842 0
M  V30 6080 H 570.227 -1.84948 2.66879 0
M  V30 6081 H 571.238 0.942395 5.09254 0
M  V30 6082 H 567.915 -1.36873 3.94426 0
M  V30 6083 H 569.305 1.77911 6.47918 0
M  V30 6084 N 572.025 -1.5352 0.356285 0
M  V30 6085 C 573.302 -1.93405 -0.292223 0
M  V30 6086 C 573.682 -1.28901 -1.67176 0
M  V30 6087 O 573.03 -0.444632 -2.24132 0
M  V30 6088 C 573.24 -3.47223 -0.35175 0
M  V30 6089 C 574.588 -4.20389 -0.596534 0
M  V30 6090 O 575.612 -3.53554 -0.433344 0
M  V30 6091 O 574.471 -5.3881 -0.913589 0
M  V30 6092 H 571.565 -0.808666 -0.173172 0
M  V30 6093 H 574.111 -1.64713 0.408391 0
M  V30 6094 H 572.883 -3.86423 0.615841 0
M  V30 6095 H 572.506 -3.8212 -1.09864 0
M  V30 6096 N 573.503 -0.0852151 -1.57369 0
M  V30 6097 C 574.728 0.592872 -1.98746 0
M  V30 6098 C 575.153 1.61538 -0.963689 0
M  V30 6099 O 574.511 1.81168 0.069071 0
M  V30 6100 C 574.559 1.22599 -3.39119 0
M  V30 6101 O 573.663 2.34185 -3.39457 0
M  V30 6102 H 573.004 0.151314 -0.646529 0
M  V30 6103 H 575.534 -0.163703 -2.03944 0
M  V30 6104 H 575.544 1.56965 -3.76598 0
M  V30 6105 H 574.219 0.476831 -4.13158 0
M  V30 6106 H 572.796 2.01512 -3.13763 0
M  V30 6107 N 574.981 1.5647 0.188427 0
M  V30 6108 C 576.227 1.81281 0.909124 0
M  V30 6109 C 576.56 0.66034 1.82628 0
M  V30 6110 O 575.835 -0.338737 1.91528 0
M  V30 6111 C 576.118 3.16388 1.7196 0
M  V30 6112 C 575.971 4.42137 0.826714 0
M  V30 6113 C 577.29 3.48256 2.69083 0
M  V30 6114 H 574.409 0.659457 0.329068 0
M  V30 6115 H 577.051 1.89182 0.176156 0
M  V30 6116 H 575.201 3.09784 2.34448 0
M  V30 6117 H 576.873 4.60794 0.216025 0
M  V30 6118 H 575.116 4.33594 0.133792 0
M  V30 6119 H 575.787 5.33184 1.42893 0
M  V30 6120 H 578.263 3.55203 2.16726 0
M  V30 6121 H 577.139 4.43899 3.2287 0
M  V30 6122 H 577.4 2.72088 3.48455 0
M  V30 6123 N 576.459 -0.456382 1.50847 0
M  V30 6124 C 577.369 -1.57805 1.73594 0
M  V30 6125 C 578.385 -1.62599 0.619476 0
M  V30 6126 O 579.561 -1.80195 0.899532 0
M  V30 6127 C 576.626 -2.93926 1.8387 0
M  V30 6128 C 575.687 -2.99402 3.07663 0
M  V30 6129 C 574.92 -4.29031 3.1744 0
M  V30 6130 O 575.143 -5.20358 2.33631 0
M  V30 6131 O 574.077 -4.40401 4.10281 0
M  V30 6132 H 577.903 -1.41531 2.68705 0
M  V30 6133 H 575.488 -0.637422 1.3512 0
M  V30 6134 H 577.37 -3.74747 1.92725 0
M  V30 6135 H 576.045 -3.10368 0.91944 0
M  V30 6136 H 574.952 -2.17606 3.043 0
M  V30 6137 H 576.285 -2.87901 3.99216 0
M  V30 6138 N 577.937 -1.40673 -0.710563 0
M  V30 6139 C 579.185 -1.38947 -1.46759 0
M  V30 6140 C 579.506 0.00572879 -1.94999 0
M  V30 6141 O 578.776 0.961358 -1.70689 0
M  V30 6142 H 577.356 -0.5114 -0.544499 0
M  V30 6143 H 580.018 -1.75773 -0.842012 0
M  V30 6144 H 579.114 -2.06745 -2.33801 0
M  V30 6145 N 579.415 0.9433 -1.26252 0
M  V30 6146 C 580.64 1.72898 -1.14547 0
M  V30 6147 C 581.065 1.85761 0.295743 0
M  V30 6148 O 580.423 1.3463 1.21427 0
M  V30 6149 C 580.471 3.11471 -1.8171 0
M  V30 6150 O 579.575 3.97336 -1.10445 0
M  V30 6151 H 578.916 0.530555 -0.399259 0
M  V30 6152 H 581.446 1.18159 -1.67032 0
M  V30 6153 H 581.456 3.61872 -1.88449 0
M  V30 6154 H 580.131 3.01425 -2.86558 0
M  V30 6155 H 578.708 3.55788 -1.11666 0
M  V30 6156 N 580.893 1.08022 1.14757 0
M  V30 6157 C 582.141 0.805913 1.85336 0
M  V30 6158 C 582.462 -0.670162 1.83122 0
M  V30 6159 O 581.732 -1.48567 1.2769 0
M  V30 6160 H 580.312 0.295138 0.686223 0
M  V30 6161 H 582.974 1.36538 1.3908 0
M  V30 6162 H 582.07 1.14655 2.90277 0
M  V30 6163 N 582.371 -1.3172 0.865308 0
M  V30 6164 C 583.62 -1.96145 0.470098 0
M  V30 6165 C 583.933 -1.69182 -0.981674 0
M  V30 6166 O 585.139 -2.27431 -1.48281 0
M  V30 6167 C 583.595 -3.51129 0.789732 0
M  V30 6168 C 583.203 -3.86938 2.25795 0
M  V30 6169 C 584.947 -4.2197 0.462765 0
M  V30 6170 C 582.854 -5.35012 2.52024 0
M  V30 6171 H 581.784 -0.734105 0.172065 0
M  V30 6172 H 584.435 -1.49959 1.05757 0
M  V30 6173 H 582.817 -3.95781 0.131571 0
M  V30 6174 H 583.991 -3.5326 2.95879 0
M  V30 6175 H 582.306 -3.29149 2.55049 0
M  V30 6176 H 584.903 -5.30904 0.636019 0
M  V30 6177 H 585.246 -4.12005 -0.59645 0
M  V30 6178 H 585.779 -3.82936 1.07727 0
M  V30 6179 H 582.518 -5.50008 3.56611 0
M  V30 6180 H 582.038 -5.70058 1.8653 0
M  V30 6181 H 583.717 -6.0222 2.36515 0
M  V30 6182 N 583.85 -0.624285 -1.44708 0
M  V30 6183 C 584.779 0.0717025 -2.3339 0
M  V30 6184 C 585.76 0.841814 -1.47809 0
M  V30 6185 O 586.946 0.809056 -1.76544 0
M  V30 6186 C 584.076 1.05852 -3.30776 0
M  V30 6187 C 583.029 0.400503 -4.26122 0
M  V30 6188 C 582.356 1.49674 -5.13324 0
M  V30 6189 C 583.656 -0.688924 -5.17737 0
M  V30 6190 H 585.35 -0.668819 -2.91834 0
M  V30 6191 H 582.896 -0.32308 -1.40329 0
M  V30 6192 H 584.849 1.5541 -3.91696 0
M  V30 6193 H 583.572 1.82984 -2.70526 0
M  V30 6194 H 582.231 -0.0743687 -3.66525 0
M  V30 6195 H 581.88 2.25877 -4.49431 0
M  V30 6196 H 581.58 1.06188 -5.77926 0
M  V30 6197 H 583.104 1.99427 -5.77115 0
M  V30 6198 H 584.518 -0.276724 -5.72632 0
M  V30 6199 H 582.915 -1.04652 -5.90904 0
M  V30 6200 H 583.985 -1.55884 -4.5916 0
M  V30 6201 N 585.328 1.53329 -0.364422 0
M  V30 6202 C 586.261 2.22052 0.526145 0
M  V30 6203 C 587.239 1.21203 1.08391 0
M  V30 6204 O 588.423 1.50101 1.14026 0
M  V30 6205 C 585.55 2.91432 1.72583 0
M  V30 6206 C 584.596 4.06345 1.29562 0
M  V30 6207 S 585.429 5.34671 0.297885 0
M  V30 6208 C 586.585 6.07563 1.50392 0
M  V30 6209 H 586.818 2.97244 -0.0575055 0
M  V30 6210 H 584.351 1.53684 -0.148525 0
M  V30 6211 H 586.309 3.3202 2.41398 0
M  V30 6212 H 584.97 2.15966 2.28073 0
M  V30 6213 H 584.163 4.53901 2.19067 0
M  V30 6214 H 583.765 3.67642 0.686696 0
M  V30 6215 H 586.057 6.32224 2.43513 0
M  V30 6216 H 587 6.99973 1.06977 0
M  V30 6217 H 587.408 5.37994 1.70945 0
M  V30 6218 N 586.806 0.0935595 1.57322 0
M  V30 6219 C 588.046 -0.573901 1.96178 0
M  V30 6220 C 588.41 -1.65445 0.97426 0
M  V30 6221 O 589.611 -2.37901 1.25126 0
M  V30 6222 C 587.882 -1.11612 3.39526 0
M  V30 6223 S 589.441 -1.79566 4.00377 0
M  V30 6224 H 586.259 -0.187315 0.685882 0
M  V30 6225 H 588.861 0.172597 1.94737 0
M  V30 6226 H 587.565 -0.31815 4.09165 0
M  V30 6227 H 587.096 -1.89848 3.4456 0
M  V30 6228 H 589.111 -3.07978 3.89056 0
M  V30 6229 N 588.284 -1.56567 -0.180126 0
M  V30 6230 C 589.509 -1.85975 -0.918041 0
M  V30 6231 C 589.934 -0.678888 -1.75422 0
M  V30 6232 O 589.292 0.372168 -1.77439 0
M  V30 6233 C 589.34 -3.13731 -1.77779 0
M  V30 6234 O 588.444 -2.95335 -2.87838 0
M  V30 6235 H 587.785 -0.61196 -0.257683 0
M  V30 6236 H 590.315 -2.03798 -0.180923 0
M  V30 6237 H 590.325 -3.4491 -2.17948 0
M  V30 6238 H 589 -3.99293 -1.16352 0
M  V30 6239 H 587.577 -2.7549 -2.51316 0
M  V30 6240 N 589.762 0.448376 -1.51087 0
M  V30 6241 C 591.011 1.19561 -1.62444 0
M  V30 6242 C 591.324 1.92602 -0.341151 0
M  V30 6243 O 592.53 2.69439 -0.333936 0
M  V30 6244 C 590.986 2.17373 -2.8684 0
M  V30 6245 C 590.594 1.5003 -4.22131 0
M  V30 6246 C 592.338 2.92597 -3.0755 0
M  V30 6247 C 590.245 2.46262 -5.37689 0
M  V30 6248 H 589.175 0.449975 -0.605011 0
M  V30 6249 H 591.826 0.463735 -1.77544 0
M  V30 6250 H 590.208 2.93948 -2.65349 0
M  V30 6251 H 591.382 0.790886 -4.53962 0
M  V30 6252 H 589.697 0.870011 -4.0721 0
M  V30 6253 H 592.294 3.64663 -3.91056 0
M  V30 6254 H 592.637 3.53306 -2.20183 0
M  V30 6255 H 593.17 2.23131 -3.29329 0
M  V30 6256 H 589.909 1.90258 -6.27281 0
M  V30 6257 H 589.429 3.15289 -5.10248 0
M  V30 6258 H 591.108 3.07623 -5.6919 0
M  V30 6259 N 591.24 1.41047 0.703093 0
M  V30 6260 C 592.517 1.30493 1.45708 0
M  V30 6261 C 592.897 -0.0709892 2.10981 0
M  V30 6262 O 592.245 -1.08471 2.01113 0
M  V30 6263 C 592.455 2.45287 2.48265 0
M  V30 6264 C 593.803 2.86104 3.13735 0
M  V30 6265 O 594.827 2.44971 2.58587 0
M  V30 6266 O 593.686 3.57206 4.13601 0
M  V30 6267 H 590.78 0.513144 0.648546 0
M  V30 6268 H 593.326 1.52995 0.734208 0
M  V30 6269 H 592.098 3.37135 1.98635 0
M  V30 6270 H 591.721 2.24622 3.28071 0
M  V30 6271 N 592.718 -0.936591 1.26751 0
M  V30 6272 C 593.666 -2.0573 1.08527 0
M  V30 6273 C 594.66 -1.69397 0.0108784 0
M  V30 6274 O 595.866 -1.79215 0.167915 0
M  V30 6275 H 592.241 -0.673691 0.334133 0
M  V30 6276 H 594.212 -2.1825 2.03493 0
M  V30 6277 C 592.961 -3.39738 0.739845 0
M  V30 6278 H 592.284 -3.68174 1.55845 0
M  V30 6279 H 593.724 -4.18955 0.652149 0
M  V30 6280 C 592.183 -3.32292 -0.555288 0
M  V30 6281 O 592.713 -3.68794 -1.59229 0
M  V30 6282 N 590.919 -2.85394 -0.54762 0
M  V30 6283 H 590.466 -2.55886 0.296667 0
M  V30 6284 H 590.424 -2.80795 -1.41427 0
M  V30 6285 N 594.196 -1.08629 -1.14182 0
M  V30 6286 C 595.126 -0.740003 -2.21464 0
M  V30 6287 C 596.107 0.278591 -1.67803 0
M  V30 6288 O 597.292 0.148461 -1.93632 0
M  V30 6289 C 594.422 -0.150952 -3.46972 0
M  V30 6290 C 593.376 -1.09815 -4.13672 0
M  V30 6291 C 592.702 -0.3712 -5.3341 0
M  V30 6292 C 594.002 -2.43722 -4.61949 0
M  V30 6293 H 595.696 -1.63697 -2.50686 0
M  V30 6294 H 593.242 -0.788526 -1.20492 0
M  V30 6295 H 595.195 0.103325 -4.21273 0
M  V30 6296 H 593.919 0.781164 -3.1712 0
M  V30 6297 H 592.578 -1.33756 -3.41328 0
M  V30 6298 H 592.226 0.564792 -4.99819 0
M  V30 6299 H 591.926 -1.00267 -5.78982 0
M  V30 6300 H 593.45 -0.12503 -6.10472 0
M  V30 6301 H 594.864 -2.24034 -5.27714 0
M  V30 6302 H 593.261 -3.02582 -5.18232 0
M  V30 6303 H 594.331 -3.05082 -3.76899 0
M  V30 6304 N 595.674 1.31259 -0.872281 0
M  V30 6305 C 597.085 1.78822 -0.536617 0
M  V30 6306 C 597.436 1.71855 0.946594 0
M  V30 6307 O 596.561 1.28769 1.73918 0
M  V30 6308 C 597.156 3.24698 -0.967294 0
M  V30 6309 C 595.715 3.70147 -0.683251 0
M  V30 6310 C 594.862 2.51994 -1.15733 0
M  V30 6311 H 597.813 1.18308 -1.05777 0
M  V30 6312 H 597.834 3.79386 -0.290929 0
M  V30 6313 H 597.346 3.29737 -2.04683 0
M  V30 6314 H 595.447 3.70607 0.384825 0
M  V30 6315 H 595.56 4.62183 -1.2619 0
M  V30 6316 H 593.924 2.48078 -0.577024 0
M  V30 6317 H 594.707 2.59778 -2.24434 0
M  V30 6318 N 597.152 0.631951 1.44375 0
M  V30 6319 C 598.115 -0.0628142 2.29114 0
M  V30 6320 C 599.115 -0.771494 1.41084 0
M  V30 6321 O 600.305 -0.615959 1.62947 0
M  V30 6322 C 597.437 -1.09953 3.22681 0
M  V30 6323 H 598.63 0.682509 2.92031 0
M  V30 6324 H 596.183 0.392128 1.51301 0
M  V30 6325 H 596.918 -1.87481 2.64616 0
M  V30 6326 H 596.703 -0.595286 3.87555 0
M  V30 6327 H 598.193 -1.58538 3.86336 0
M  V30 6328 N 598.631 -1.53133 0.372548 0
M  V30 6329 C 599.563 -2.23557 -0.505444 0
M  V30 6330 C 600.576 -1.25211 -1.04049 0
M  V30 6331 O 601.765 -1.51391 -0.945675 0
M  V30 6332 C 598.865 -2.92516 -1.71136 0
M  V30 6333 C 598.038 -4.17428 -1.30661 0
M  V30 6334 C 597.097 -4.69535 -2.37536 0
M  V30 6335 O 596.123 -5.33042 -1.99637 0
M  V30 6336 N 597.325 -4.47947 -3.6922 0
M  V30 6337 H 600.09 -2.9954 0.0978259 0
M  V30 6338 H 597.651 -1.60684 0.198068 0
M  V30 6339 H 599.643 -3.24281 -2.42124 0
M  V30 6340 H 598.213 -2.19944 -2.22134 0
M  V30 6341 H 597.433 -3.91888 -0.426292 0
M  V30 6342 H 598.721 -4.98622 -1.01259 0
M  V30 6343 H 598.119 -3.97219 -4.02783 0
M  V30 6344 H 596.676 -4.84245 -4.36292 0
M  V30 6345 N 600.109 -0.101901 -1.5727 0
M  V30 6346 C 601.039 0.851544 -2.17419 0
M  V30 6347 C 602.02 1.28942 -1.10941 0
M  V30 6348 O 603.205 1.35509 -1.39107 0
M  V30 6349 C 600.335 2.10816 -2.75996 0
M  V30 6350 C 599.289 1.80867 -3.87906 0
M  V30 6351 C 598.615 3.13413 -4.33216 0
M  V30 6352 C 599.915 1.0903 -5.10793 0
M  V30 6353 H 601.609 0.350381 -2.97343 0
M  V30 6354 H 599.155 0.16709 -1.43027 0
M  V30 6355 H 601.108 2.77959 -3.16729 0
M  V30 6356 H 599.832 2.63227 -1.93337 0
M  V30 6357 H 598.491 1.16119 -3.47724 0
M  V30 6358 H 598.139 3.63725 -3.47438 0
M  V30 6359 H 597.839 2.94155 -5.08671 0
M  V30 6360 H 599.363 3.81704 -4.76586 0
M  V30 6361 H 600.777 1.66295 -5.48652 0
M  V30 6362 H 599.174 0.99927 -5.91722 0
M  V30 6363 H 600.244 0.0741704 -4.84843 0
M  V30 6364 N 601.587 1.56661 0.17182 0
M  V30 6365 C 602.998 1.71652 0.734329 0
M  V30 6366 C 603.349 0.712335 1.82812 0
M  V30 6367 O 602.474 -0.126401 2.16031 0
M  V30 6368 C 603.069 3.11226 1.3388 0
M  V30 6369 C 601.628 3.27904 1.84813 0
M  V30 6370 C 600.775 2.67603 0.726917 0
M  V30 6371 H 603.726 1.5861 -0.0535665 0
M  V30 6372 H 603.747 3.09849 2.20849 0
M  V30 6373 H 603.259 3.8429 0.54249 0
M  V30 6374 H 601.36 2.59796 2.6709 0
M  V30 6375 H 601.473 4.35637 1.99392 0
M  V30 6376 H 599.837 2.274 1.14723 0
M  V30 6377 H 600.62 3.43252 -0.0575334 0
M  V30 6378 N 603.065 -0.440357 1.51323 0
M  V30 6379 C 604.314 -1.18697 1.63076 0
M  V30 6380 C 604.627 -1.92418 0.35136 0
M  V30 6381 O 605.833 -2.69258 0.348221 0
M  V30 6382 C 604.289 -2.15849 2.87988 0
M  V30 6383 C 603.897 -1.47789 4.22921 0
M  V30 6384 C 605.641 -2.90962 3.09098 0
M  V30 6385 C 603.548 -2.43407 5.38987 0
M  V30 6386 H 602.478 -0.44676 0.607389 0
M  V30 6387 H 605.129 -0.454313 1.77787 0
M  V30 6388 H 603.511 -2.92537 2.66905 0
M  V30 6389 H 604.685 -0.7668 4.54375 0
M  V30 6390 H 603 -0.848404 4.07665 0
M  V30 6391 H 605.597 -3.62584 3.92985 0
M  V30 6392 H 605.94 -3.52133 2.22053 0
M  V30 6393 H 606.473 -2.21381 3.30507 0
M  V30 6394 H 603.212 -1.86929 6.28282 0
M  V30 6395 H 602.732 -3.12579 5.11913 0
M  V30 6396 H 604.411 -3.046 5.70813 0
M  V30 6397 N 604.543 -1.41418 -0.695603 0
M  V30 6398 C 605.453 -1.45622 -1.83933 0
M  V30 6399 C 606.469 -0.346825 -1.70508 0
M  V30 6400 O 607.645 -0.59454 -1.92424 0
M  V30 6401 C 604.71 -1.33627 -3.19914 0
M  V30 6402 C 603.771 -2.54882 -3.45447 0
M  V30 6403 C 603.004 -2.43449 -4.7494 0
M  V30 6404 O 603.227 -1.45905 -5.51424 0
M  V30 6405 O 602.161 -3.33206 -5.01256 0
M  V30 6406 H 605.987 -2.42114 -1.83342 0
M  V30 6407 H 603.572 -1.22956 -0.848658 0
M  V30 6408 H 605.454 -1.29221 -4.01098 0
M  V30 6409 H 604.129 -0.402508 -3.21188 0
M  V30 6410 H 603.036 -2.64865 -2.64192 0
M  V30 6411 H 604.369 -3.47087 -3.48987 0
M  V30 6412 N 606.021 0.929856 -1.27246 0
M  V30 6413 C 606.984 2.01172 -1.09829 0
M  V30 6414 C 607.984 1.60743 -0.0429687 0
M  V30 6415 O 609.174 1.71813 -0.287373 0
M  V30 6416 C 606.306 3.34191 -0.673003 0
M  V30 6417 H 607.499 2.18054 -2.05895 0
M  V30 6418 H 605.052 1.11036 -1.10003 0
M  V30 6419 H 605.787 3.23009 0.289134 0
M  V30 6420 H 605.572 3.64892 -1.43515 0
M  V30 6421 H 607.062 4.13646 -0.573323 0
M  V30 6422 N 607.499 1.09233 1.13605 0
M  V30 6423 C 608.727 0.848908 1.88683 0
M  V30 6424 C 609.142 -0.599667 1.79024 0
M  V30 6425 O 608.499 -1.41265 1.15544 0
M  V30 6426 C 608.55 1.27273 3.38355 0
M  V30 6427 O 608.271 2.66449 3.47759 0
M  V30 6428 C 609.772 1.0614 4.30406 0
M  V30 6429 H 606.992 0.305549 0.597395 0
M  V30 6430 H 609.536 1.4538 1.43823 0
M  V30 6431 H 607.691 0.711776 3.80805 0
M  V30 6432 H 608.105 2.84264 4.40788 0
M  V30 6433 H 609.579 1.40725 5.33761 0
M  V30 6434 H 610.056 -0.000960332 4.392 0
M  V30 6435 H 610.662 1.60821 3.93722 0
M  V30 6436 N 608.977 -1.30795 0.87923 0
M  V30 6437 C 609.887 -2.32041 0.345565 0
M  V30 6438 C 610.903 -1.65103 -0.549265 0
M  V30 6439 O 612.079 -1.9645 -0.443763 0
M  V30 6440 C 609.144 -3.43944 -0.436245 0
M  V30 6441 C 608.205 -4.26521 0.48765 0
M  V30 6442 C 607.438 -5.33081 -0.256943 0
M  V30 6443 O 607.661 -5.50762 -1.48381 0
M  V30 6444 O 606.595 -6.00635 0.389985 0
M  V30 6445 H 610.421 -2.79627 1.18501 0
M  V30 6446 H 608.006 -1.3486 0.642885 0
M  V30 6447 H 609.888 -4.12128 -0.879119 0
M  V30 6448 H 608.563 -2.98504 -1.25208 0
M  V30 6449 H 607.47 -3.61057 0.979216 0
M  V30 6450 H 608.803 -4.75551 1.26933 0
M  V30 6451 N 610.455 -0.639598 -1.44038 0
M  V30 6452 C 611.695 -0.150902 -2.03842 0
M  V30 6453 C 612.059 1.20744 -1.49281 0
M  V30 6454 O 613.26 1.78875 -2.00642 0
M  V30 6455 C 611.531 -0.146114 -3.57101 0
M  V30 6456 S 613.09 0.276725 -4.37927 0
M  V30 6457 H 609.908 -0.0652447 -0.708 0
M  V30 6458 H 612.51 -0.844886 -1.76301 0
M  V30 6459 H 611.214 -1.13769 -3.94316 0
M  V30 6460 H 610.745 0.568846 -3.89266 0
M  V30 6461 H 612.76 1.51893 -4.7238 0
M  V30 6462 N 611.933 1.52934 -0.380664 0
M  V30 6463 C 613.18 2.01467 0.204278 0
M  V30 6464 C 613.508 1.26744 1.47533 0
M  V30 6465 O 612.763 0.353723 1.92477 0
M  V30 6466 C 613.062 3.5349 0.527199 0
M  V30 6467 C 612.728 4.46171 -0.651295 0
M  V30 6468 C 611.39 4.71227 -0.974619 0
M  V30 6469 C 613.742 5.00909 -1.44012 0
M  V30 6470 C 611.07 5.4827 -2.08847 0
M  V30 6471 C 613.422 5.7917 -2.5445 0
M  V30 6472 C 612.086 6.02507 -2.87301 0
M  V30 6473 H 611.356 0.73722 0.0747504 0
M  V30 6474 H 614.003 1.84411 -0.516234 0
M  V30 6475 H 612.308 3.68574 1.32892 0
M  V30 6476 H 614.005 3.88529 0.992283 0
M  V30 6477 H 610.595 4.26829 -0.389276 0
M  V30 6478 H 614.779 4.81485 -1.20357 0
M  V30 6479 H 610.035 5.64567 -2.34679 0
M  V30 6480 H 614.209 6.20588 -3.1598 0
M  V30 6481 H 611.836 6.61989 -3.7373 0
M  V30 6482 N 613.412 0.11024 1.57214 0
M  V30 6483 C 614.66 -0.548783 1.94506 0
M  V30 6484 C 614.981 -1.67772 0.99386 0
M  V30 6485 O 614.251 -1.9584 0.0485841 0
M  V30 6486 H 612.831 -0.205715 0.718116 0
M  V30 6487 H 615.493 0.177127 1.94093 0
M  V30 6488 H 614.589 -0.949096 2.97319 0
M  V30 6489 N 614.89 -1.56749 -0.16351 0
M  V30 6490 C 616.167 -1.73321 -0.906599 0
M  V30 6491 C 616.547 -0.673779 -2.00059 0
M  V30 6492 O 615.895 0.310121 -2.26386 0
M  V30 6493 C 616.105 -3.168 -1.46419 0
M  V30 6494 C 617.453 -3.77993 -1.93407 0
M  V30 6495 O 618.477 -3.20127 -1.56196 0
M  V30 6496 O 617.336 -4.79615 -2.61976 0
M  V30 6497 H 614.43 -0.708073 -0.427272 0
M  V30 6498 H 616.976 -1.69029 -0.150727 0
M  V30 6499 H 615.748 -3.85396 -0.677189 0
M  V30 6500 H 615.371 -3.2545 -2.28403 0
M  V30 6501 N 616.368 0.432326 -1.51554 0
M  V30 6502 C 617.301 1.54525 -1.6792 0
M  V30 6503 C 618.279 1.53831 -0.526764 0
M  V30 6504 O 619.463 1.72884 -0.751233 0
M  V30 6505 C 616.59 2.931 -1.69736 0
M  V30 6506 C 615.636 3.11799 -2.91005 0
M  V30 6507 S 616.469 2.87565 -4.51737 0
M  V30 6508 C 617.625 4.28412 -4.56305 0
M  V30 6509 H 617.858 1.4041 -2.62054 0
M  V30 6510 H 615.391 0.622357 -1.41301 0
M  V30 6511 H 617.349 3.72974 -1.71467 0
M  V30 6512 H 616.01 3.04574 -0.767705 0
M  V30 6513 H 615.203 4.13127 -2.8869 0
M  V30 6514 H 614.805 2.39757 -2.87041 0
M  V30 6515 H 617.097 5.21692 -4.32254 0
M  V30 6516 H 618.04 4.35758 -5.58141 0
M  V30 6517 H 618.448 4.12301 -3.85576 0
M  V30 6518 N 617.846 1.41785 0.688094 0
M  V30 6519 C 618.776 1.47 1.8142 0
M  V30 6520 C 619.757 0.327881 1.6691 0
M  V30 6521 O 620.942 0.540362 1.86531 0
M  V30 6522 C 618.072 1.35876 3.19617 0
M  V30 6523 C 617.026 2.47976 3.48844 0
M  V30 6524 C 616.352 2.21915 4.86475 0
M  V30 6525 C 617.652 3.90309 3.47068 0
M  V30 6526 H 619.346 2.41247 1.77314 0
M  V30 6527 H 616.892 1.16116 0.851651 0
M  V30 6528 H 618.845 1.38134 3.98117 0
M  V30 6529 H 617.569 0.38116 3.24368 0
M  V30 6530 H 616.228 2.45013 2.72698 0
M  V30 6531 H 615.876 1.2248 4.8786 0
M  V30 6532 H 615.576 2.97037 5.06994 0
M  V30 6533 H 617.1 2.25901 5.67275 0
M  V30 6534 H 618.514 3.94947 4.1556 0
M  V30 6535 H 616.911 4.65175 3.7912 0
M  V30 6536 H 617.981 4.17927 2.45896 0
M  V30 6537 N 619.324 -0.923095 1.27737 0
M  V30 6538 C 620.554 -1.70277 1.17001 0
M  V30 6539 C 620.962 -1.87188 -0.275199 0
M  V30 6540 O 620.305 -1.39195 -1.19877 0
M  V30 6541 C 620.367 -3.11976 1.78637 0
M  V30 6542 C 620.031 -3.18386 3.27841 0
M  V30 6543 C 621.028 -3.00287 4.2441 0
M  V30 6544 C 618.713 -3.41198 3.68632 0
M  V30 6545 C 620.707 -3.04896 5.59747 0
M  V30 6546 C 618.394 -3.4544 5.04097 0
M  V30 6547 C 619.392 -3.27309 5.99465 0
M  V30 6548 O 619.08 -3.31295 7.32461 0
M  V30 6549 H 618.812 -0.539366 0.407505 0
M  V30 6550 H 621.366 -1.16446 1.69202 0
M  V30 6551 H 619.596 -3.67308 1.20919 0
M  V30 6552 H 621.285 -3.7193 1.6255 0
M  V30 6553 H 622.051 -2.825 3.94232 0
M  V30 6554 H 617.93 -3.54359 2.94873 0
M  V30 6555 H 621.474 -2.90662 6.34162 0
M  V30 6556 H 617.371 -3.62753 5.33929 0
M  V30 6557 H 618.139 -3.47719 7.40968 0
M  V30 6558 N 620.802 -1.09834 -1.13024 0
M  V30 6559 C 622.213 -0.855651 -1.65938 0
M  V30 6560 C 622.564 0.615159 -1.86307 0
M  V30 6561 O 621.689 1.47335 -1.58497 0
M  V30 6562 C 622.284 -1.5467 -3.01434 0
M  V30 6563 C 620.843 -1.35088 -3.51323 0
M  V30 6564 C 619.99 -1.6001 -2.26478 0
M  V30 6565 H 622.941 -1.25691 -0.968889 0
M  V30 6566 H 622.962 -0.982179 -3.67605 0
M  V30 6567 H 622.474 -2.61715 -2.86578 0
M  V30 6568 H 620.575 -0.30179 -3.71376 0
M  V30 6569 H 620.688 -2.0886 -4.31178 0
M  V30 6570 H 619.052 -1.02246 -2.33276 0
M  V30 6571 H 619.835 -2.68293 -2.14182 0
M  V30 6572 N 622.28 1.30327 -0.886154 0
M  V30 6573 C 623.51 1.99964 -0.519421 0
M  V30 6574 C 623.918 1.66593 0.89686 0
M  V30 6575 O 623.261 0.899886 1.60149 0
M  V30 6576 C 623.323 3.54187 -0.615795 0
M  V30 6577 C 622.987 4.11078 -1.9966 0
M  V30 6578 C 623.984 4.26985 -2.96614 0
M  V30 6579 C 621.669 4.46429 -2.30231 0
M  V30 6580 C 623.663 4.77456 -4.22273 0
M  V30 6581 C 621.35 4.966 -3.56135 0
M  V30 6582 C 622.348 5.12066 -4.5197 0
M  V30 6583 O 622.036 5.61154 -5.7564 0
M  V30 6584 H 621.768 0.645979 -0.199217 0
M  V30 6585 H 624.322 1.67154 -1.19368 0
M  V30 6586 H 622.552 3.86528 0.115448 0
M  V30 6587 H 624.241 4.05065 -0.26017 0
M  V30 6588 H 625.007 3.99975 -2.74308 0
M  V30 6589 H 620.886 4.33658 -1.56404 0
M  V30 6590 H 624.43 4.89444 -4.97082 0
M  V30 6591 H 620.327 5.23045 -3.78277 0
M  V30 6592 H 621.095 5.79494 -5.78039 0
M  V30 6593 N 623.758 0.647228 1.43697 0
M  V30 6594 C 625.004 0.158422 2.0218 0
M  V30 6595 C 625.337 -1.22233 1.50907 0
M  V30 6596 O 624.612 -1.81478 0.699702 0
M  V30 6597 C 624.895 0.1627 3.59732 0
M  V30 6598 C 624.748 1.57694 4.21251 0
M  V30 6599 C 626.067 -0.504138 4.37203 0
M  V30 6600 H 623.186 0.059042 0.734631 0
M  V30 6601 H 625.828 0.826772 1.71069 0
M  V30 6602 H 623.978 -0.406414 3.86368 0
M  V30 6603 H 625.65 2.19618 4.05667 0
M  V30 6604 H 623.893 2.12603 3.7813 0
M  V30 6605 H 624.564 1.53183 5.3032 0
M  V30 6606 H 627.04 -0.0199841 4.16095 0
M  V30 6607 H 625.916 -0.470394 5.46881 0
M  V30 6608 H 626.177 -1.57726 4.13007 0
M  V30 6609 N 625.236 -1.5273 0.388769 0
M  V30 6610 C 626.146 -2.30165 -0.453993 0
M  V30 6611 C 627.162 -1.37058 -1.07197 0
M  V30 6612 O 628.338 -1.70127 -1.0779 0
M  V30 6613 C 625.403 -3.09303 -1.56628 0
M  V30 6614 C 624.464 -4.18117 -0.973467 0
M  V30 6615 C 623.697 -4.93472 -2.03275 0
M  V30 6616 O 623.92 -4.68913 -3.24772 0
M  V30 6617 O 622.854 -5.78833 -1.65034 0
M  V30 6618 H 626.68 -3.03185 0.176816 0
M  V30 6619 H 624.265 -1.4862 0.152501 0
M  V30 6620 H 626.147 -3.58648 -2.21246 0
M  V30 6621 H 624.822 -2.39098 -2.18206 0
M  V30 6622 H 623.729 -3.7297 -0.290556 0
M  V30 6623 H 625.062 -4.90556 -0.401908 0
M  V30 6624 N 626.714 -0.118576 -1.57153 0
M  V30 6625 C 627.624 0.845484 -2.18835 0
M  V30 6626 C 628.64 1.29299 -1.16438 0
M  V30 6627 O 629.816 1.35607 -1.48905 0
M  V30 6628 C 626.881 2.07795 -2.77529 0
M  V30 6629 C 625.942 1.6824 -3.9496 0
M  V30 6630 C 625.175 2.85612 -4.50845 0
M  V30 6631 O 625.398 4.01025 -4.05629 0
M  V30 6632 O 624.332 2.62721 -5.41536 0
M  V30 6633 H 628.158 0.350568 -3.0167 0
M  V30 6634 H 625.743 0.107013 -1.49016 0
M  V30 6635 H 627.625 2.79978 -3.14945 0
M  V30 6636 H 626.3 2.56294 -1.97725 0
M  V30 6637 H 625.207 0.931663 -3.62313 0
M  V30 6638 H 626.54 1.24484 -4.76198 0
M  V30 6639 N 628.193 1.56834 0.155195 0
M  V30 6640 C 629.126 1.9278 1.22111 0
M  V30 6641 C 630.104 0.792588 1.41975 0
M  V30 6642 O 631.288 1.04743 1.5672 0
M  V30 6643 C 628.415 2.19273 2.58142 0
M  V30 6644 C 627.461 3.41932 2.54921 0
M  V30 6645 S 628.294 4.95769 2.02418 0
M  V30 6646 C 629.45 5.25375 3.40194 0
M  V30 6647 H 629.683 2.82889 0.914393 0
M  V30 6648 H 627.216 1.50133 0.360461 0
M  V30 6649 H 629.174 2.35217 3.36427 0
M  V30 6650 H 627.835 1.29843 2.86007 0
M  V30 6651 H 627.028 3.57721 3.55038 0
M  V30 6652 H 626.63 3.25188 1.8474 0
M  V30 6653 H 628.922 5.1834 4.36268 0
M  V30 6654 H 629.865 6.26889 3.29266 0
M  V30 6655 H 630.273 4.52906 3.36951 0
M  V30 6656 N 629.671 -0.424282 1.51781 0
M  V30 6657 C 630.92 -1.16961 1.64326 0
M  V30 6658 C 631.233 -1.92035 0.371749 0
M  V30 6659 O 632.439 -2.68873 0.37676 0
M  V30 6660 C 630.895 -2.12782 2.90262 0
M  V30 6661 C 630.503 -1.43295 4.24465 0
M  V30 6662 C 632.247 -2.87667 3.12166 0
M  V30 6663 C 630.154 -2.37676 5.41538 0
M  V30 6664 H 629.084 -0.440293 0.612093 0
M  V30 6665 H 631.735 -0.435431 1.78259 0
M  V30 6666 H 630.117 -2.8969 2.69992 0
M  V30 6667 H 631.291 -0.718564 4.55163 0
M  V30 6668 H 629.606 -0.805118 4.08542 0
M  V30 6669 H 632.203 -3.58395 3.96808 0
M  V30 6670 H 632.546 -3.49758 2.25776 0
M  V30 6671 H 633.079 -2.17863 3.32837 0
M  V30 6672 H 629.818 -1.80255 6.30229 0
M  V30 6673 H 629.338 -3.07132 5.15199 0
M  V30 6674 H 631.017 -2.98529 5.74012 0
M  V30 6675 N 631.149 -1.42148 -0.680565 0
M  V30 6676 C 632.079 -1.4796 -1.80638 0
M  V30 6677 C 633.06 -0.336728 -1.66734 0
M  V30 6678 O 634.245 -0.550247 -1.86242 0
M  V30 6679 C 631.375 -1.37569 -3.18892 0
M  V30 6680 C 630.329 -2.49823 -3.47524 0
M  V30 6681 C 629.655 -2.24491 -4.85291 0
M  V30 6682 C 630.955 -3.92144 -3.44994 0
M  V30 6683 H 632.649 -2.42184 -1.76032 0
M  V30 6684 H 630.195 -1.16566 -0.845481 0
M  V30 6685 H 632.148 -1.40243 -3.97379 0
M  V30 6686 H 630.872 -0.398357 -3.24162 0
M  V30 6687 H 629.531 -2.46455 -2.71395 0
M  V30 6688 H 629.179 -1.25066 -4.87204 0
M  V30 6689 H 628.879 -2.99722 -5.05411 0
M  V30 6690 H 630.403 -2.28906 -5.66069 0
M  V30 6691 H 631.817 -3.97145 -4.13459 0
M  V30 6692 H 630.214 -4.67179 -3.76648 0
M  V30 6693 H 631.284 -4.19225 -2.43676 0
M  V30 6694 N 632.627 0.916307 -1.28225 0
M  V30 6695 C 633.852 1.7043 -1.18188 0
M  V30 6696 C 634.277 1.86346 0.256274 0
M  V30 6697 O 633.635 1.37175 1.18544 0
M  V30 6698 C 633.683 3.07546 -1.88275 0
M  V30 6699 O 632.787 3.94904 -1.18848 0
M  V30 6700 H 632.128 0.521967 -0.410423 0
M  V30 6701 H 634.658 1.14589 -1.69501 0
M  V30 6702 H 634.668 3.57793 -1.96082 0
M  V30 6703 H 633.343 2.95279 -2.92887 0
M  V30 6704 H 631.92 3.53339 -1.19187 0
M  V30 6705 N 634.105 1.10431 1.1244 0
M  V30 6706 C 635.382 0.758797 1.80282 0
M  V30 6707 C 635.762 -0.754727 1.97147 0
M  V30 6708 O 635.11 -1.68094 1.54779 0
M  V30 6709 C 635.32 1.50982 3.14651 0
M  V30 6710 C 636.668 1.68232 3.8985 0
M  V30 6711 O 637.692 1.47319 3.24308 0
M  V30 6712 O 636.551 2.02905 5.07437 0
M  V30 6713 H 633.645 0.273756 0.780376 0
M  V30 6714 H 636.191 1.20713 1.19275 0
M  V30 6715 H 634.963 2.53989 2.97666 0
M  V30 6716 H 634.586 1.05435 3.83366 0
M  V30 6717 N 635.583 -1.29855 0.893053 0
M  V30 6718 C 636.546 -2.26183 0.370687 0
M  V30 6719 C 637.546 -1.53108 -0.491385 0
M  V30 6720 O 638.736 -1.71643 -0.297386 0
M  V30 6721 C 635.868 -3.37633 -0.470827 0
M  V30 6722 H 637.061 -2.73903 1.22135 0
M  V30 6723 H 634.614 -1.41183 0.67061 0
M  V30 6724 H 635.349 -2.95241 -1.34175 0
M  V30 6725 H 635.134 -3.91825 0.146784 0
M  V30 6726 H 636.624 -4.09313 -0.827825 0
M  V30 6727 N 637.061 -0.65484 -1.43351 0
M  V30 6728 C 638.289 -0.176685 -2.06144 0
M  V30 6729 C 638.704 1.15831 -1.49093 0
M  V30 6730 O 638.061 1.71542 -0.622868 0
M  V30 6731 C 638.112 -0.0813326 -3.61408 0
M  V30 6732 O 637.833 -1.36355 -4.1634 0
M  V30 6733 C 639.334 0.422706 -4.4128 0
M  V30 6734 H 636.554 -0.0906429 -0.66485 0
M  V30 6735 H 639.098 -0.895945 -1.83829 0
M  V30 6736 H 637.253 0.588496 -3.82904 0
M  V30 6737 H 637.667 -1.22381 -5.10023 0
M  V30 6738 H 639.141 0.438375 -5.50257 0
M  V30 6739 H 639.618 1.45432 -4.14423 0
M  V30 6740 H 640.224 -0.214687 -4.24758 0
M  V30 6741 N 638.539 1.52521 -0.396863 0
M  V30 6742 C 639.471 2.24333 0.469814 0
M  V30 6743 C 640.484 1.2685 1.02043 0
M  V30 6744 O 641.673 1.52876 0.92147 0
M  V30 6745 C 638.773 2.95202 1.66461 0
M  V30 6746 C 637.946 4.19454 1.24003 0
M  V30 6747 C 637.005 4.73255 2.30036 0
M  V30 6748 O 636.031 5.36151 1.91131 0
M  V30 6749 N 637.233 4.53765 3.62047 0
M  V30 6750 H 639.998 2.99347 -0.145468 0
M  V30 6751 H 637.559 1.60348 -0.223606 0
M  V30 6752 H 639.551 3.28092 2.36934 0
M  V30 6753 H 638.121 2.2345 2.18607 0
M  V30 6754 H 637.341 3.92517 0.363892 0
M  V30 6755 H 638.629 5.0017 0.933135 0
M  V30 6756 H 638.027 4.03576 3.96412 0
M  V30 6757 H 636.584 4.91124 4.28533 0
M  V30 6758 N 640.017 0.126909 1.57088 0
M  V30 6759 C 641.428 -0.397201 1.82426 0
M  V30 6760 C 641.779 -1.66084 1.04453 0
M  V30 6761 O 640.904 -2.14534 0.283552 0
M  V30 6762 C 641.499 -0.727411 3.30899 0
M  V30 6763 C 640.058 -1.19612 3.56889 0
M  V30 6764 C 639.205 -0.20885 2.76512 0
M  V30 6765 H 642.156 0.351924 1.54749 0
M  V30 6766 H 642.177 -1.58407 3.45959 0
M  V30 6767 H 641.689 0.19247 3.87622 0
M  V30 6768 H 639.79 -2.13263 3.05532 0
M  V30 6769 H 639.903 -1.13598 4.65438 0
M  V30 6770 H 638.267 -0.697479 2.44964 0
M  V30 6771 H 639.05 0.704267 3.35998 0
M  V30 6772 N 641.495 -1.56914 -0.146875 0
M  V30 6773 C 642.425 -2.01308 -1.1831 0
M  V30 6774 C 643.406 -0.892664 -1.44795 0
M  V30 6775 O 644.591 -1.16048 -1.55713 0
M  V30 6776 C 641.721 -2.3938 -2.51624 0
M  V30 6777 C 640.675 -3.54608 -2.3966 0
M  V30 6778 C 640.001 -3.78493 -3.77686 0
M  V30 6779 C 641.301 -4.87269 -1.88058 0
M  V30 6780 H 642.995 -2.88123 -0.813964 0
M  V30 6781 H 640.541 -1.38615 -0.3901 0
M  V30 6782 H 642.494 -2.69037 -3.24341 0
M  V30 6783 H 641.218 -1.49502 -2.90373 0
M  V30 6784 H 639.877 -3.25116 -1.69396 0
M  V30 6785 H 639.525 -2.85866 -4.13871 0
M  V30 6786 H 639.225 -4.56039 -3.70543 0
M  V30 6787 H 640.749 -4.10576 -4.51951 0
M  V30 6788 H 642.163 -5.15644 -2.50568 0
M  V30 6789 H 640.56 -5.68622 -1.91805 0
M  V30 6790 H 641.63 -4.77634 -0.836277 0
M  V30 6791 N 642.974 0.416227 -1.52004 0
M  V30 6792 C 643.884 1.53147 -1.77717 0
M  V30 6793 C 644.9 1.609 -0.662368 0
M  V30 6794 O 646.076 1.77747 -0.946991 0
M  V30 6795 C 643.141 2.88948 -1.91598 0
M  V30 6796 C 642.202 2.9114 -3.15493 0
M  V30 6797 C 641.435 4.20464 -3.28703 0
M  V30 6798 O 641.658 5.13981 -2.47345 0
M  V30 6799 O 640.592 4.29368 -4.21813 0
M  V30 6800 H 644.418 1.34357 -2.72363 0
M  V30 6801 H 642.003 0.601373 -1.36762 0
M  V30 6802 H 643.885 3.69505 -2.02593 0
M  V30 6803 H 642.56 3.07821 -1.00141 0
M  V30 6804 H 641.467 2.09461 -3.09962 0
M  V30 6805 H 642.8 2.77216 -4.06709 0
M  V30 6806 N 644.452 1.42507 0.673017 0
M  V30 6807 C 645.677 1.4668 1.46627 0
M  V30 6808 C 646.102 0.080066 1.8793 0
M  V30 6809 O 645.46 -0.921879 1.56112 0
M  V30 6810 C 645.508 2.40091 2.69051 0
M  V30 6811 O 644.612 1.8735 3.67387 0
M  V30 6812 H 643.953 0.496908 0.44043 0
M  V30 6813 H 646.483 1.87215 0.825334 0
M  V30 6814 H 646.493 2.56731 3.17101 0
M  V30 6815 H 645.168 3.4084 2.3833 0
M  V30 6816 H 643.745 1.80274 3.26429 0
M  V30 6817 N 645.93 -0.909495 1.28709 0
M  V30 6818 C 646.862 -2.01729 1.08804 0
M  V30 6819 C 647.875 -1.62755 0.0384739 0
M  V30 6820 O 649.064 -1.76259 0.281977 0
M  V30 6821 C 646.164 -3.32952 0.63217 0
M  V30 6822 C 645.337 -4.00512 1.75809 0
M  V30 6823 C 644.396 -5.10019 1.29488 0
M  V30 6824 O 643.422 -5.32986 1.99787 0
M  V30 6825 N 644.624 -5.80278 0.1604 0
M  V30 6826 H 647.389 -2.19362 2.04207 0
M  V30 6827 H 644.95 -1.08106 1.20518 0
M  V30 6828 H 646.942 -4.03543 0.305802 0
M  V30 6829 H 645.512 -3.11759 -0.229134 0
M  V30 6830 H 644.732 -3.23413 2.25383 0
M  V30 6831 H 646.02 -4.42395 2.51325 0
M  V30 6832 H 645.418 -5.64094 -0.425937 0
M  V30 6833 H 643.975 -6.51713 -0.106663 0
M  V30 6834 N 647.408 -1.11026 -1.11852 0
M  V30 6835 C 648.356 -0.759643 -2.19846 0
M  V30 6836 C 649.35 0.246964 -1.6759 0
M  V30 6837 O 650.556 0.106693 -1.79684 0
M  V30 6838 H 646.931 -0.22775 -0.716683 0
M  V30 6839 H 648.902 -1.6792 -2.46669 0
M  V30 6840 C 647.651 -0.214364 -3.47039 0
M  V30 6841 H 646.974 -0.980175 -3.87599 0
M  V30 6842 H 648.414 -0.00717047 -4.23999 0
M  V30 6843 C 646.873 1.05436 -3.19976 0
M  V30 6844 O 647.403 2.13483 -3.40276 0
M  V30 6845 N 645.609 0.975436 -2.7374 0
M  V30 6846 H 645.156 0.0960853 -2.57421 0
M  V30 6847 H 645.114 1.82501 -2.5601 0
M  V30 6848 N 648.886 1.2938 -0.899927 0
M  V30 6849 C 650.133 1.9555 -0.525963 0
M  V30 6850 C 650.461 1.70945 0.927789 0
M  V30 6851 O 649.716 1.01545 1.67293 0
M  V30 6852 C 650.015 3.49114 -0.765113 0
M  V30 6853 C 649.681 3.93796 -2.19626 0
M  V30 6854 C 648.343 4.05707 -2.58758 0
M  V30 6855 C 650.695 4.16883 -3.12823 0
M  V30 6856 C 648.023 4.38074 -3.90267 0
M  V30 6857 C 650.375 4.50725 -4.4388 0
M  V30 6858 C 649.039 4.60845 -4.82885 0
M  V30 6859 H 648.309 0.715569 -0.192463 0
M  V30 6860 H 650.956 1.53972 -1.13863 0
M  V30 6861 H 649.261 3.91738 -0.069531 0
M  V30 6862 H 650.958 3.98409 -0.455144 0
M  V30 6863 H 647.548 3.85042 -1.88256 0
M  V30 6864 H 651.732 4.07147 -2.83804 0
M  V30 6865 H 646.988 4.44112 -4.20207 0
M  V30 6866 H 651.162 4.67538 -5.16121 0
M  V30 6867 H 648.789 4.85681 -5.84823 0
M  V30 6868 N 650.364 0.662433 1.43002 0
M  V30 6869 C 651.589 0.186003 2.06564 0
M  V30 6870 C 652.014 -1.14314 1.49379 0
M  V30 6871 O 651.372 -1.70824 0.607346 0
M  V30 6872 C 651.42 0.118269 3.60406 0
M  V30 6873 O 650.524 -0.916859 4.02079 0
M  V30 6874 H 649.865 0.0990981 0.656563 0
M  V30 6875 H 652.395 0.907958 1.8335 0
M  V30 6876 H 652.405 -0.0619981 4.07953 0
M  V30 6877 H 651.08 1.08849 4.01403 0
M  V30 6878 H 649.657 -0.708635 3.66105 0
M  V30 6879 N 651.842 -1.52309 0.404946 0
M  V30 6880 C 653.253 -1.86585 -0.0655926 0
M  V30 6881 C 653.604 -1.3239 -1.44801 0
M  V30 6882 O 652.729 -0.6615 -2.06042 0
M  V30 6883 C 653.324 -3.38566 -0.125801 0
M  V30 6884 C 651.883 -3.72497 -0.540666 0
M  V30 6885 C 651.03 -2.75806 0.287487 0
M  V30 6886 H 653.981 -1.45995 0.622185 0
M  V30 6887 H 654.002 -3.68658 -0.941888 0
M  V30 6888 H 653.514 -3.77981 0.880473 0
M  V30 6889 H 651.615 -3.38659 -1.55373 0
M  V30 6890 H 651.728 -4.78234 -0.287956 0
M  V30 6891 H 650.092 -2.53474 -0.249561 0
M  V30 6892 H 650.875 -3.18059 1.29203 0
M  V30 6893 N 653.32 -0.135238 -1.57019 0
M  V30 6894 C 654.566 0.519563 -1.96032 0
M  V30 6895 C 654.899 1.65284 -1.01955 0
M  V30 6896 O 654.174 1.94408 -0.059727 0
M  V30 6897 C 654.457 1.0369 -3.44848 0
M  V30 6898 C 654.31 -0.0940754 -4.49702 0
M  V30 6899 C 655.629 1.92254 -3.95887 0
M  V30 6900 H 652.748 0.18739 -0.712779 0
M  V30 6901 H 655.39 -0.214086 -1.8879 0
M  V30 6902 H 653.54 1.66209 -3.5115 0
M  V30 6903 H 655.212 -0.73 -4.55487 0
M  V30 6904 H 653.455 -0.754924 -4.27181 0
M  V30 6905 H 654.126 0.309419 -5.51132 0
M  V30 6906 H 656.602 1.39581 -3.9199 0
M  V30 6907 H 655.478 2.25364 -5.00502 0
M  V30 6908 H 655.739 2.85513 -3.37543 0
M  V30 6909 N 654.798 1.5699 0.138552 0
M  V30 6910 C 656.044 1.84081 0.85099 0
M  V30 6911 C 656.377 0.718107 1.80435 0
M  V30 6912 O 655.652 -0.277633 1.92508 0
M  V30 6913 C 655.935 3.21699 1.61808 0
M  V30 6914 C 655.788 4.44544 0.685633 0
M  V30 6915 C 657.107 3.5664 2.57868 0
M  V30 6916 H 654.226 0.669592 0.307922 0
M  V30 6917 H 656.868 1.89646 0.11588 0
M  V30 6918 H 655.018 3.17086 2.24474 0
M  V30 6919 H 656.69 4.61248 0.0693179 0
M  V30 6920 H 654.933 4.338 -0.00421993 0
M  V30 6921 H 655.604 5.3746 1.25858 0
M  V30 6922 H 658.08 3.61918 2.05316 0
M  V30 6923 H 656.956 4.53946 3.08584 0
M  V30 6924 H 657.217 2.83036 3.39622 0
M  V30 6925 N 656.276 -0.40816 1.52223 0
M  V30 6926 C 657.692 -0.74685 1.41047 0
M  V30 6927 C 657.892 -1.94788 0.51573 0
M  V30 6928 O 656.948 -2.52494 -0.0181156 0
M  V30 6929 C 658.261 -0.999878 2.83589 0
M  V30 6930 C 659.809 -1.10253 2.92939 0
M  V30 6931 C 660.284 -1.38832 4.36451 0
M  V30 6932 N 661.775 -1.45694 4.3969 0
M  V30 6933 C 662.51 -1.69435 5.47795 0
M  V30 6934 N 662.006 -1.90774 6.66016 0
M  V30 6935 N 663.799 -1.71458 5.35312 0
M  V30 6936 H 655.95 0.382409 2.08929 0
M  V30 6937 H 658.213 0.108807 0.941735 0
M  V30 6938 H 657.919 -0.189723 3.51188 0
M  V30 6939 H 657.793 -1.91978 3.24691 0
M  V30 6940 H 660.18 -1.90328 2.2552 0
M  V30 6941 H 660.261 -0.160973 2.55293 0
M  V30 6942 H 659.905 -0.592741 5.04429 0
M  V30 6943 H 659.835 -2.34241 4.71634 0
M  V30 6944 H 662.326 -1.3099 3.54472 0
M  V30 6945 H 662.639 -2.08342 7.44186 0
M  V30 6946 H 660.984 -1.88037 6.69079 0
M  V30 6947 H 664.175 -1.54326 4.41929 0
M  V30 6948 H 664.348 -1.89621 6.19635 0
M  V30 6949 N 657.755 -1.42862 -0.66545 0
M  V30 6950 C 659.032 -1.3431 -1.42197 0
M  V30 6951 C 659.412 0.0150265 -2.11095 0
M  V30 6952 O 658.76 1.03101 -2.03918 0
M  V30 6953 C 658.97 -2.51783 -2.41674 0
M  V30 6954 C 660.318 -2.94321 -3.0604 0
M  V30 6955 O 661.342 -2.51741 -2.52001 0
M  V30 6956 O 660.201 -3.68047 -4.03985 0
M  V30 6957 H 657.295 -0.530159 -0.634713 0
M  V30 6958 H 659.841 -1.54888 -0.693386 0
M  V30 6959 H 658.613 -3.42282 -1.89627 0
M  V30 6960 H 658.236 -2.33241 -3.22001 0
M  V30 6961 N 659.233 0.902656 -1.29189 0
M  V30 6962 C 660.196 1.98797 -1.14071 0
M  V30 6963 C 661.196 1.60615 -0.0770549 0
M  V30 6964 O 662.386 1.71165 -0.323753 0
M  V30 6965 C 659.518 3.32688 -0.743739 0
M  V30 6966 H 660.711 2.13637 -2.10473 0
M  V30 6967 H 658.264 1.08678 -1.12334 0
M  V30 6968 H 658.999 3.23549 0.220554 0
M  V30 6969 H 658.784 3.61765 -1.51223 0
M  V30 6970 H 660.274 4.12337 -0.660935 0
M  V30 6971 N 660.711 1.11618 1.11262 0
M  V30 6972 C 661.957 0.867463 1.83311 0
M  V30 6973 C 662.29 -0.605366 1.84524 0
M  V30 6974 O 661.565 -1.44704 1.29965 0
M  V30 6975 C 661.848 1.43207 3.30399 0
M  V30 6976 C 661.701 2.97265 3.3757 0
M  V30 6977 C 663.02 1.08454 4.26528 0
M  V30 6978 H 660.139 0.316578 0.665543 0
M  V30 6979 H 662.781 1.38137 1.30454 0
M  V30 6980 H 660.931 0.994982 3.75543 0
M  V30 6981 H 662.603 3.49591 3.00971 0
M  V30 6982 H 660.846 3.33237 2.77733 0
M  V30 6983 H 661.517 3.31859 4.41105 0
M  V30 6984 H 663.993 1.4619 3.89574 0
M  V30 6985 H 662.869 1.50633 5.27826 0
M  V30 6986 H 663.13 -0.00444568 4.421 0
M  V30 6987 N 662.189 -1.289 0.906776 0
M  V30 6988 C 663.438 -1.9455 0.532262 0
M  V30 6989 C 663.751 -1.72219 -0.927353 0
M  V30 6990 O 664.957 -2.32033 -1.40971 0
M  V30 6991 C 663.413 -3.48438 0.901041 0
M  V30 6992 C 663.021 -3.79558 2.37991 0
M  V30 6993 C 664.765 -4.20284 0.596777 0
M  V30 6994 C 662.672 -5.26723 2.68918 0
M  V30 6995 H 661.602 -0.728259 0.195333 0
M  V30 6996 H 664.253 -1.46519 1.10474 0
M  V30 6997 H 662.635 -3.95162 0.257419 0
M  V30 6998 H 663.809 -3.43668 3.06967 0
M  V30 6999 H 662.124 -3.20868 2.65391 0
M  V30 7000 H 664.721 -5.28612 0.8046 0
M  V30 7001 H 665.064 -4.13694 -0.465072 0
M  V30 7002 H 665.597 -3.79315 1.19855 0
M  V30 7003 H 662.336 -5.38384 3.73928 0
M  V30 7004 H 661.856 -5.63836 2.04571 0
M  V30 7005 H 663.535 -5.94391 2.55555 0
M  V30 7006 N 663.667 -0.670007 -1.42649 0
M  V30 7007 C 664.895 -0.19854 -2.05945 0
M  V30 7008 C 665.31 1.14243 -1.50313 0
M  V30 7009 O 664.667 1.70872 -0.641027 0
M  V30 7010 C 664.718 -0.11966 -3.61302 0
M  V30 7011 O 664.439 -1.40764 -4.1487 0
M  V30 7012 C 665.94 0.375878 -4.41704 0
M  V30 7013 H 663.16 -0.0976894 -0.663851 0
M  V30 7014 H 665.704 -0.915392 -1.82868 0
M  V30 7015 H 663.859 0.547851 -3.83507 0
M  V30 7016 H 664.273 -1.27784 -5.08696 0
M  V30 7017 H 665.747 0.379988 -5.50691 0
M  V30 7018 H 666.224 1.41028 -4.15942 0
M  V30 7019 H 666.83 -0.259727 -4.24506 0
M  V30 7020 N 665.145 1.52092 -0.413018 0
M  V30 7021 C 666.37 2.06756 0.163338 0
M  V30 7022 C 666.795 1.28073 1.37764 0
M  V30 7023 O 666.153 0.312015 1.78595 0
M  V30 7024 C 666.201 3.57278 0.488322 0
M  V30 7025 O 665.305 3.80986 1.57871 0
M  V30 7026 H 664.646 0.663882 0.0125068 0
M  V30 7027 H 667.176 1.95988 -0.587339 0
M  V30 7028 H 667.186 4.01125 0.745836 0
M  V30 7029 H 665.861 4.13978 -0.399327 0
M  V30 7030 H 664.438 3.49017 1.31306 0
M  V30 7031 N 666.623 0.143563 1.56945 0
M  V30 7032 C 667.571 -0.814556 2.17871 0
M  V30 7033 C 668.565 -1.25778 1.13474 0
M  V30 7034 O 669.771 -1.22666 1.31731 0
M  V30 7035 H 666.146 -0.280873 0.697578 0
M  V30 7036 H 668.117 -0.276459 2.97117 0
M  V30 7037 C 666.866 -2.04503 2.81201 0
M  V30 7038 H 666.189 -1.71296 3.61245 0
M  V30 7039 H 667.629 -2.69493 3.27337 0
M  V30 7040 C 666.088 -2.85079 1.79532 0
M  V30 7041 O 666.618 -3.81306 1.26368 0
M  V30 7042 N 664.824 -2.49546 1.48913 0
M  V30 7043 H 664.371 -1.71359 1.92338 0
M  V30 7044 H 664.329 -3.03751 0.811348 0
M  V30 7045 N 668.101 -1.57061 -0.130224 0
M  V30 7046 C 669.349 -1.83893 -0.838313 0
M  V30 7047 C 669.67 -0.727046 -1.80939 0
M  V30 7048 O 668.94 0.249927 -1.94299 0
M  V30 7049 H 667.52 -0.67846 -0.312573 0
M  V30 7050 H 670.182 -1.94529 -0.120224 0
M  V30 7051 H 669.278 -2.79419 -1.39038 0
M  V30 7052 N 669.579 0.400081 -1.52437 0
M  V30 7053 C 670.807 1.16768 -1.70801 0
M  V30 7054 C 671.222 1.84036 -0.421462 0
M  V30 7055 O 670.579 1.72242 0.603228 0
M  V30 7056 C 670.63 2.22403 -2.8499 0
M  V30 7057 O 670.351 1.57879 -4.08663 0
M  V30 7058 C 671.852 3.11974 -3.1494 0
M  V30 7059 H 669.072 0.350533 -0.57216 0
M  V30 7060 H 671.616 0.469534 -1.99037 0
M  V30 7061 H 669.771 2.87871 -2.59247 0
M  V30 7062 H 670.185 2.27982 -4.7236 0
M  V30 7063 H 671.659 3.82148 -3.9833 0
M  V30 7064 H 672.136 3.74858 -2.28863 0
M  V30 7065 H 672.742 2.52165 -3.42481 0
M  V30 7066 N 671.057 1.43213 0.657864 0
M  V30 7067 C 671.987 1.50815 1.78262 0
M  V30 7068 C 672.968 0.363211 1.66177 0
M  V30 7069 O 674.153 0.579806 1.85343 0
M  V30 7070 C 671.283 1.42625 3.16663 0
M  V30 7071 C 670.237 2.5532 3.43505 0
M  V30 7072 C 669.563 2.32184 4.81658 0
M  V30 7073 C 670.863 3.97583 3.38711 0
M  V30 7074 H 672.557 2.44954 1.72157 0
M  V30 7075 H 670.103 1.17896 0.82683 0
M  V30 7076 H 672.056 1.46548 3.95097 0
M  V30 7077 H 670.78 0.449877 3.23487 0
M  V30 7078 H 669.439 2.50742 2.6744 0
M  V30 7079 H 669.087 1.32801 4.85153 0
M  V30 7080 H 668.787 3.07724 5.00579 0
M  V30 7081 H 670.311 2.37883 5.62356 0
M  V30 7082 H 671.725 4.03673 4.07089 0
M  V30 7083 H 670.122 4.73112 3.69168 0
M  V30 7084 H 671.192 4.23049 2.36976 0
M  V30 7085 N 672.536 -0.895792 1.29666 0
M  V30 7086 C 673.947 -1.46195 1.1612 0
M  V30 7087 C 674.298 -1.94699 -0.242195 0
M  V30 7088 O 673.423 -1.8406 -1.13802 0
M  V30 7089 C 674.018 -2.65718 2.10189 0
M  V30 7090 C 672.577 -3.18458 2.00653 0
M  V30 7091 C 671.724 -1.91149 2.00891 0
M  V30 7092 H 674.675 -0.706756 1.42094 0
M  V30 7093 H 674.696 -3.4158 1.6764 0
M  V30 7094 H 674.208 -2.30386 3.12321 0
M  V30 7095 H 672.309 -3.58474 1.01623 0
M  V30 7096 H 672.422 -3.82491 2.88509 0
M  V30 7097 H 670.786 -2.09021 1.45542 0
M  V30 7098 H 671.569 -1.58089 3.04734 0
M  V30 7099 N 674.014 -1.12206 -1.10668 0
M  V30 7100 C 675.291 -0.787382 -1.79052 0
M  V30 7101 C 675.671 0.723267 -1.98323 0
M  V30 7102 O 675.019 1.6561 -1.57434 0
M  V30 7103 C 675.229 -1.55968 -3.1221 0
M  V30 7104 C 676.577 -1.74413 -3.87125 0
M  V30 7105 O 677.601 -1.5246 -3.21923 0
M  V30 7106 O 676.46 -2.10952 -5.04144 0
M  V30 7107 H 673.554 -0.286137 -0.775922 0
M  V30 7108 H 676.1 -1.22595 -1.1734 0
M  V30 7109 H 674.872 -2.58692 -2.93588 0
M  V30 7110 H 674.495 -1.1152 -3.8164 0
M  V30 7111 N 675.492 1.28418 -0.913599 0
M  V30 7112 C 676.439 2.27301 -0.400373 0
M  V30 7113 C 677.409 1.57582 0.52509 0
M  V30 7114 O 678.594 1.85482 0.447318 0
M  V30 7115 C 675.734 3.43284 0.35361 0
M  V30 7116 C 674.847 4.27752 -0.604341 0
M  V30 7117 C 673.982 5.30934 0.168075 0
M  V30 7118 C 673.021 6.07065 -0.783499 0
M  V30 7119 N 672.158 7.02086 -0.0446112 0
M  V30 7120 H 676.998 2.70579 -1.24865 0
M  V30 7121 H 674.535 1.33067 -0.627028 0
M  V30 7122 H 676.493 4.09322 0.806945 0
M  V30 7123 H 675.123 3.00997 1.16623 0
M  V30 7124 H 674.175 3.61759 -1.17621 0
M  V30 7125 H 675.487 4.80682 -1.33216 0
M  V30 7126 H 674.641 6.02855 0.681979 0
M  V30 7127 H 673.38 4.78771 0.928947 0
M  V30 7128 H 672.385 5.33995 -1.30878 0
M  V30 7129 H 673.61 6.61317 -1.54392 0
M  V30 7130 H 671.556 6.52273 0.698272 0
M  V30 7131 H 671.473 7.52637 -0.712258 0
M  V30 7132 H 672.741 7.78205 0.449102 0
M  V30 7133 N 676.97 0.677563 1.42291 0
M  V30 7134 C 678.2 0.209155 2.05539 0
M  V30 7135 C 678.608 -1.13987 1.51009 0
M  V30 7136 O 677.951 -1.71976 0.645764 0
M  V30 7137 C 678.013 0.0697758 3.59432 0
M  V30 7138 C 677.677 1.34795 4.36668 0
M  V30 7139 C 678.674 2.28201 4.67141 0
M  V30 7140 C 676.359 1.59632 4.76259 0
M  V30 7141 C 678.353 3.44718 5.36142 0
M  V30 7142 C 676.04 2.76437 5.45 0
M  V30 7143 C 677.038 3.68805 5.74867 0
M  V30 7144 O 676.726 4.83567 6.42198 0
M  V30 7145 H 676.458 0.0986202 0.668768 0
M  V30 7146 H 679.012 0.925483 1.83368 0
M  V30 7147 H 677.242 -0.702157 3.80272 0
M  V30 7148 H 678.931 -0.359115 4.04308 0
M  V30 7149 H 679.697 2.10264 4.37052 0
M  V30 7150 H 675.576 0.886073 4.52404 0
M  V30 7151 H 679.12 4.16833 5.59371 0
M  V30 7152 H 675.017 2.94299 5.74507 0
M  V30 7153 H 675.785 4.83147 6.6069 0
M  V30 7154 N 678.448 -1.51871 0.421078 0
M  V30 7155 C 679.395 -2.27334 -0.398508 0
M  V30 7156 C 680.365 -1.30241 -1.03085 0
M  V30 7157 O 681.55 -1.59121 -1.05285 0
M  V30 7158 C 678.69 -3.10664 -1.50272 0
M  V30 7159 C 677.803 -4.2273 -0.890122 0
M  V30 7160 C 676.938 -4.93399 -1.96803 0
M  V30 7161 C 675.977 -5.97409 -1.333 0
M  V30 7162 N 675.114 -6.61548 -2.35156 0
M  V30 7163 H 679.954 -2.96938 0.251411 0
M  V30 7164 H 677.491 -1.46472 0.135825 0
M  V30 7165 H 679.449 -3.57292 -2.15403 0
M  V30 7166 H 678.079 -2.43207 -2.1225 0
M  V30 7167 H 677.131 -3.80186 -0.127537 0
M  V30 7168 H 678.443 -4.97302 -0.386349 0
M  V30 7169 H 677.597 -5.43491 -2.69633 0
M  V30 7170 H 676.336 -4.18421 -2.50549 0
M  V30 7171 H 675.341 -5.46624 -0.59008 0
M  V30 7172 H 676.566 -6.74335 -0.803076 0
M  V30 7173 H 674.512 -5.89394 -2.88012 0
M  V30 7174 H 674.429 -7.31832 -1.89624 0
M  V30 7175 H 675.697 -7.16276 -3.0752 0
M  V30 7176 N 679.926 -0.151884 -1.56866 0
M  V30 7177 C 681.156 0.504081 -2.00356 0
M  V30 7178 C 681.564 1.58639 -1.03103 0
M  V30 7179 O 680.907 1.83688 -0.0207931 0
M  V30 7180 C 680.969 1.15975 -3.40279 0
M  V30 7181 C 680.633 0.221453 -4.56463 0
M  V30 7182 C 681.63 -0.552766 -5.16953 0
M  V30 7183 C 679.315 0.122936 -5.0215 0
M  V30 7184 C 681.309 -1.4129 -6.21543 0
M  V30 7185 C 678.996 -0.740801 -6.06593 0
M  V30 7186 C 679.994 -1.50732 -6.6616 0
M  V30 7187 O 679.682 -2.35666 -7.68581 0
M  V30 7188 H 679.414 0.135279 -0.662326 0
M  V30 7189 H 681.968 -0.244916 -2.03935 0
M  V30 7190 H 680.198 1.95649 -3.33554 0
M  V30 7191 H 681.887 1.71594 -3.67846 0
M  V30 7192 H 682.653 -0.486716 -4.82552 0
M  V30 7193 H 678.532 0.70931 -4.5551 0
M  V30 7194 H 682.076 -2.01166 -6.67966 0
M  V30 7195 H 677.973 -0.808125 -6.40421 0
M  V30 7196 H 678.741 -2.28967 -7.85822 0
M  V30 7197 N 681.404 1.57128 0.121893 0
M  V30 7198 C 682.653 1.83888 0.828748 0
M  V30 7199 C 682.966 0.737087 1.81181 0
M  V30 7200 O 684.172 0.891007 2.56463 0
M  V30 7201 C 682.628 3.26014 1.52455 0
M  V30 7202 C 682.236 4.44195 0.58263 0
M  V30 7203 C 683.98 3.62025 2.21671 0
M  V30 7204 C 681.887 5.77349 1.28149 0
M  V30 7205 H 680.817 0.685856 0.313238 0
M  V30 7206 H 683.468 1.83319 0.0814851 0
M  V30 7207 H 681.85 3.21044 2.31834 0
M  V30 7208 H 683.024 4.60457 -0.177729 0
M  V30 7209 H 681.339 4.164 -0.00241228 0
M  V30 7210 H 683.936 4.58776 2.74643 0
M  V30 7211 H 684.279 2.89315 2.99337 0
M  V30 7212 H 684.812 3.68767 1.49184 0
M  V30 7213 H 681.551 6.53221 0.546189 0
M  V30 7214 H 681.071 5.64978 2.01394 0
M  V30 7215 H 682.75 6.21006 1.81549 0
M  V30 7216 N 682.882 -0.391992 1.52647 0
M  V30 7217 C 683.814 -1.49811 1.73463 0
M  V30 7218 C 684.827 -1.50734 0.615078 0
M  V30 7219 O 686.016 -1.5469 0.890696 0
M  V30 7220 C 683.116 -2.88667 1.77552 0
M  V30 7221 C 682.289 -3.11743 3.06815 0
M  V30 7222 C 681.348 -4.30564 3.02491 0
M  V30 7223 O 680.374 -4.27014 3.76361 0
M  V30 7224 N 681.576 -5.36593 2.21468 0
M  V30 7225 H 684.341 -1.32343 2.68897 0
M  V30 7226 H 681.902 -0.581475 1.51098 0
M  V30 7227 H 683.894 -3.66251 1.7217 0
M  V30 7228 H 682.464 -2.99508 0.895181 0
M  V30 7229 H 681.684 -2.2205 3.25711 0
M  V30 7230 H 682.972 -3.24013 3.92292 0
M  V30 7231 H 682.37 -5.42332 1.60913 0
M  V30 7232 H 680.927 -6.12855 2.21928 0
M  V30 7233 N 684.36 -1.4356 -0.65026 0
M  V30 7234 C 685.588 -1.48779 -1.43779 0
M  V30 7235 C 686.003 -0.106593 -1.88499 0
M  V30 7236 O 685.36 0.883766 -1.59674 0
M  V30 7237 C 685.411 -2.43618 -2.67081 0
M  V30 7238 O 685.132 -3.76367 -2.24231 0
M  V30 7239 C 686.633 -2.5811 -3.60409 0
M  V30 7240 H 683.853 -0.50521 -0.441593 0
M  V30 7241 H 686.397 -1.88332 -0.796941 0
M  V30 7242 H 684.552 -2.07253 -3.273 0
M  V30 7243 H 684.966 -4.27394 -3.0403 0
M  V30 7244 H 686.44 -3.28539 -4.43583 0
M  V30 7245 H 686.917 -1.627 -4.07953 0
M  V30 7246 H 687.523 -2.95298 -3.0607 0
M  V30 7247 N 685.838 0.888903 -1.30139 0
M  V30 7248 C 686.768 2.01046 -1.18755 0
M  V30 7249 C 687.749 1.69916 -0.0791438 0
M  V30 7250 O 688.934 1.92445 -0.260498 0
M  V30 7251 C 686.064 3.36109 -0.874518 0
M  V30 7252 C 685.018 3.81486 -1.94043 0
M  V30 7253 C 684.344 5.13796 -1.48047 0
M  V30 7254 C 685.644 4.00637 -3.35093 0
M  V30 7255 H 687.338 2.10828 -2.12584 0
M  V30 7256 H 684.884 1.01298 -1.02346 0
M  V30 7257 H 686.837 4.14089 -0.781548 0
M  V30 7258 H 685.561 3.26449 0.0994519 0
M  V30 7259 H 684.22 3.05731 -2.02297 0
M  V30 7260 H 683.868 5.0056 -0.494878 0
M  V30 7261 H 683.568 5.45127 -2.19341 0
M  V30 7262 H 685.092 5.94305 -1.40121 0
M  V30 7263 H 686.506 4.69067 -3.2962 0
M  V30 7264 H 684.903 4.43339 -4.04438 0
M  V30 7265 H 685.973 3.0462 -3.77273 0
M  V30 7266 N 687.317 1.12792 1.10072 0
M  V30 7267 C 688.733 0.864745 1.34143 0
M  V30 7268 C 688.933 -0.503201 1.95116 0
M  V30 7269 O 687.989 -1.25111 2.19325 0
M  V30 7270 C 689.302 1.98413 2.25949 0
M  V30 7271 C 690.85 2.01545 2.39476 0
M  V30 7272 C 691.325 3.12727 3.34613 0
M  V30 7273 N 692.816 3.12194 3.42183 0
M  V30 7274 C 693.551 3.94862 4.15779 0
M  V30 7275 N 693.047 4.87528 4.92228 0
M  V30 7276 N 694.84 3.82985 4.11435 0
M  V30 7277 H 686.991 2.00926 0.68866 0
M  V30 7278 H 689.254 0.874564 0.365844 0
M  V30 7279 H 688.96 2.97005 1.88364 0
M  V30 7280 H 688.834 1.89254 3.26287 0
M  V30 7281 H 691.221 1.0357 2.76328 0
M  V30 7282 H 691.302 2.14777 1.3894 0
M  V30 7283 H 690.946 4.10936 2.98486 0
M  V30 7284 H 690.876 2.96732 4.35037 0
M  V30 7285 H 693.367 2.45065 2.87666 0
M  V30 7286 H 693.68 5.47109 5.45794 0
M  V30 7287 H 692.025 4.91539 4.9134 0
M  V30 7288 H 695.216 3.09923 3.50807 0
M  V30 7289 H 695.389 4.47641 4.68531 0
M  V30 7290 N 688.795 -1.27931 0.920396 0
M  V30 7291 C 689.705 -2.30824 0.419212 0
M  V30 7292 C 690.721 -1.66767 -0.496461 0
M  V30 7293 O 691.897 -1.97763 -0.38104 0
M  V30 7294 C 688.962 -3.45158 -0.326601 0
M  V30 7295 C 688.023 -4.24754 0.623098 0
M  V30 7296 C 687.256 -5.33629 -0.0872172 0
M  V30 7297 O 687.479 -5.55204 -1.30784 0
M  V30 7298 O 686.413 -5.99091 0.580875 0
M  V30 7299 H 690.239 -2.75716 1.27337 0
M  V30 7300 H 687.824 -1.32747 0.685465 0
M  V30 7301 H 689.706 -4.14716 -0.747559 0
M  V30 7302 H 688.381 -3.02336 -1.15648 0
M  V30 7303 H 687.288 -3.57759 1.09359 0
M  V30 7304 H 688.621 -4.71272 1.41998 0
M  V30 7305 N 690.273 -0.685099 -1.4193 0
M  V30 7306 C 691.498 -0.218842 -2.06242 0
M  V30 7307 C 691.923 1.11923 -1.51178 0
M  V30 7308 O 691.281 1.69837 -0.634446 0
M  V30 7309 C 691.329 -0.175592 -3.60172 0
M  V30 7310 O 690.433 0.852776 -4.03487 0
M  V30 7311 H 689.774 -0.109531 -0.654904 0
M  V30 7312 H 692.304 -0.937013 -1.81882 0
M  V30 7313 H 692.314 -0.00291151 -4.08 0
M  V30 7314 H 690.989 -1.15222 -3.99621 0
M  V30 7315 H 689.566 0.650301 -3.67186 0
M  V30 7316 N 691.751 1.51645 -0.429126 0
M  V30 7317 C 693.167 1.59394 -0.080994 0
M  V30 7318 C 693.367 1.44064 1.40882 0
M  V30 7319 O 692.423 1.27771 2.17786 0
M  V30 7320 C 693.736 2.94779 -0.593773 0
M  V30 7321 C 695.284 3.08067 -0.553494 0
M  V30 7322 C 695.759 4.45963 -1.04311 0
M  V30 7323 N 697.25 4.5226 -1.00076 0
M  V30 7324 C 697.985 5.57268 -1.35056 0
M  V30 7325 N 697.481 6.69734 -1.77282 0
M  V30 7326 N 699.274 5.47582 -1.26925 0
M  V30 7327 H 691.425 1.59856 -1.39857 0
M  V30 7328 H 693.688 0.753095 -0.575805 0
M  V30 7329 H 693.394 3.11342 -1.63583 0
M  V30 7330 H 693.268 3.77197 -0.0142202 0
M  V30 7331 H 695.655 2.91177 0.479556 0
M  V30 7332 H 695.736 2.27508 -1.16935 0
M  V30 7333 H 695.38 4.63598 -2.07459 0
M  V30 7334 H 695.31 5.25049 -0.403873 0
M  V30 7335 H 697.801 3.71537 -0.690564 0
M  V30 7336 H 698.114 7.4587 -2.02232 0
M  V30 7337 H 696.459 6.70963 -1.81202 0
M  V30 7338 H 699.65 4.58604 -0.93809 0
M  V30 7339 H 699.823 6.29308 -1.54516 0
M  V30 7340 N 693.229 0.160201 1.56784 0
M  V30 7341 C 694.139 -0.787167 2.21 0
M  V30 7342 C 695.155 -1.26167 1.19825 0
M  V30 7343 O 696.331 -1.31611 1.52448 0
M  V30 7344 C 693.396 -2.00364 2.8294 0
M  V30 7345 C 692.457 -1.5771 3.99282 0
M  V30 7346 C 691.69 -2.73558 4.58259 0
M  V30 7347 O 691.913 -3.90129 4.16119 0
M  V30 7348 O 690.847 -2.48271 5.48311 0
M  V30 7349 H 694.673 -0.270462 3.02493 0
M  V30 7350 H 692.258 -0.0674666 1.49248 0
M  V30 7351 H 694.14 -2.71529 3.22257 0
M  V30 7352 H 692.815 -2.50961 2.04451 0
M  V30 7353 H 691.722 -0.835274 3.64656 0
M  V30 7354 H 693.055 -1.11815 4.79331 0
M  V30 7355 N 694.707 -1.5719 -0.113559 0
M  V30 7356 C 696.123 -1.52607 -0.467253 0
M  V30 7357 C 696.323 -0.874058 -1.81556 0
M  V30 7358 O 695.379 -0.458703 -2.48299 0
M  V30 7359 C 696.692 -2.97363 -0.446736 0
M  V30 7360 C 698.24 -3.08482 -0.529903 0
M  V30 7361 C 698.715 -4.54809 -0.539721 0
M  V30 7362 N 700.206 -4.59284 -0.601005 0
M  V30 7363 C 700.941 -5.69927 -0.630138 0
M  V30 7364 N 700.437 -6.90051 -0.616589 0
M  V30 7365 N 702.23 -5.5805 -0.673558 0
M  V30 7366 H 694.381 -1.97958 0.769819 0
M  V30 7367 H 696.644 -0.90428 0.284572 0
M  V30 7368 H 696.35 -3.48458 0.47643 0
M  V30 7369 H 696.224 -3.55086 -1.27254 0
M  V30 7370 H 698.611 -2.57386 -1.44349 0
M  V30 7371 H 698.692 -2.53744 0.323695 0
M  V30 7372 H 698.336 -5.06552 0.369843 0
M  V30 7373 H 698.266 -5.07364 -1.41028 0
M  V30 7374 H 700.757 -3.72822 -0.617419 0
M  V30 7375 H 701.07 -7.70132 -0.641592 0
M  V30 7376 H 699.415 -6.92543 -0.583927 0
M  V30 7377 H 702.606 -4.63112 -0.681544 0
M  V30 7378 H 702.779 -6.44286 -0.692794 0
M  V30 7379 N 696.185 0.383891 -1.52853 0
M  V30 7380 C 697.148 1.45197 -1.77343 0
M  V30 7381 C 698.148 1.47362 -0.643522 0
M  V30 7382 O 699.338 1.48443 -0.911613 0
M  V30 7383 C 696.47 2.8445 -1.87885 0
M  V30 7384 H 697.663 1.24764 -2.72716 0
M  V30 7385 H 695.216 0.615939 -1.43652 0
M  V30 7386 H 695.951 3.10222 -0.94515 0
M  V30 7387 H 695.736 2.8428 -2.70051 0
M  V30 7388 H 697.226 3.61832 -2.08488 0
M  V30 7389 N 697.663 1.43903 0.642637 0
M  V30 7390 C 698.595 1.45857 1.768 0
M  V30 7391 C 699.608 0.353358 1.58919 0
M  V30 7392 O 700.797 0.618426 1.67445 0
M  V30 7393 C 697.897 1.26583 3.14372 0
M  V30 7394 C 697.07 2.50139 3.58817 0
M  V30 7395 C 696.129 2.25933 4.75227 0
M  V30 7396 O 695.155 2.99351 4.84125 0
M  V30 7397 N 696.357 1.28263 5.66153 0
M  V30 7398 H 699.122 2.42869 1.75598 0
M  V30 7399 H 696.683 1.39194 0.826832 0
M  V30 7400 H 698.675 1.08255 3.89953 0
M  V30 7401 H 697.245 0.37978 3.10284 0
M  V30 7402 H 696.465 2.83821 2.73568 0
M  V30 7403 H 697.753 3.32344 3.8526 0
M  V30 7404 H 697.151 0.676041 5.61646 0
M  V30 7405 H 695.708 1.15916 6.4141 0
M  V30 7406 N 699.141 -0.881989 1.30609 0
M  V30 7407 C 700.366 -1.67236 1.22665 0
M  V30 7408 C 700.791 -1.8696 -0.206777 0
M  V30 7409 O 700.149 -1.4027 -1.14865 0
M  V30 7410 C 700.197 -3.02446 1.96363 0
M  V30 7411 O 699.301 -3.91614 1.29276 0
M  V30 7412 H 698.642 -0.510902 0.424117 0
M  V30 7413 H 701.172 -1.10055 1.72479 0
M  V30 7414 H 701.182 -3.52468 2.055 0
M  V30 7415 H 699.857 -2.8741 3.00613 0
M  V30 7416 H 698.434 -3.50055 1.28514 0
M  V30 7417 N 700.619 -1.13374 -1.09472 0
M  V30 7418 C 701.549 -0.833268 -2.18126 0
M  V30 7419 C 702.53 0.207169 -1.68834 0
M  V30 7420 O 703.715 0.0662012 -1.94087 0
M  V30 7421 C 700.845 -0.297979 -3.46019 0
M  V30 7422 C 699.799 -1.27261 -4.08642 0
M  V30 7423 C 699.125 -0.597104 -5.31356 0
M  V30 7424 C 700.425 -2.63095 -4.51197 0
M  V30 7425 H 702.119 -1.74182 -2.43518 0
M  V30 7426 H 699.665 -0.838921 -1.17039 0
M  V30 7427 H 701.618 -0.0754444 -4.21332 0
M  V30 7428 H 700.342 0.645959 -3.20148 0
M  V30 7429 H 699.001 -1.48113 -3.35348 0
M  V30 7430 H 698.649 0.352293 -5.01765 0
M  V30 7431 H 698.349 -1.24734 -5.74208 0
M  V30 7432 H 699.873 -0.38384 -6.09392 0
M  V30 7433 H 701.287 -2.46214 -5.17737 0
M  V30 7434 H 699.684 -3.2429 -5.04932 0
M  V30 7435 H 700.754 -3.20793 -3.6362 0
M  V30 7436 N 702.098 1.27442 -0.927168 0
M  V30 7437 C 703.323 1.99036 -0.583042 0
M  V30 7438 C 703.748 1.68711 0.83176 0
M  V30 7439 O 703.106 0.927081 1.55804 0
M  V30 7440 C 703.154 3.51271 -0.814925 0
M  V30 7441 O 702.258 4.12226 0.119742 0
M  V30 7442 H 701.599 0.624883 -0.224538 0
M  V30 7443 H 704.129 1.62263 -1.24628 0
M  V30 7444 H 704.139 4.01411 -0.730282 0
M  V30 7445 H 702.814 3.72676 -1.84623 0
M  V30 7446 H 701.391 3.72897 -0.0147688 0
M  V30 7447 N 703.576 0.692616 1.41565 0
M  V30 7448 C 704.509 -0.025063 2.28186 0
M  V30 7449 C 705.487 -0.790912 1.42068 0
M  V30 7450 O 706.671 -0.782344 1.71498 0
M  V30 7451 C 703.798 -1.04285 3.22246 0
M  V30 7452 C 702.844 -0.370515 4.24888 0
M  V30 7453 S 703.677 0.884942 5.28137 0
M  V30 7454 C 704.833 -0.131324 6.25762 0
M  V30 7455 H 705.066 0.709626 2.88707 0
M  V30 7456 H 702.599 0.482783 1.46658 0
M  V30 7457 H 704.557 -1.62493 3.7697 0
M  V30 7458 H 703.218 -1.7501 2.60827 0
M  V30 7459 H 702.411 -1.13911 4.90959 0
M  V30 7460 H 702.013 0.138411 3.73744 0
M  V30 7461 H 704.305 -0.985527 6.70294 0
M  V30 7462 H 705.248 0.495384 7.06365 0
M  V30 7463 H 705.656 -0.484777 5.62415 0
M  V30 7464 N 705.054 -1.51416 0.437162 0
M  V30 7465 C 706.302 -2.01687 -0.129108 0
M  V30 7466 C 706.623 -1.32329 -1.43227 0
M  V30 7467 O 705.893 -0.457796 -1.90476 0
M  V30 7468 H 704.473 -0.745277 -0.0507023 0
M  V30 7469 H 707.135 -1.86075 0.579828 0
M  V30 7470 H 706.231 -3.10605 -0.305141 0
M  V30 7471 N 706.532 -0.168513 -1.56696 0
M  V30 7472 C 707.76 0.483503 -2.01171 0
M  V30 7473 C 708.175 1.56994 -1.04872 0
M  V30 7474 O 707.532 1.82434 -0.0491337 0
M  V30 7475 C 707.583 1.0644 -3.45475 0
M  V30 7476 O 707.304 0.0213375 -4.38095 0
M  V30 7477 C 708.805 1.79493 -4.05336 0
M  V30 7478 H 706.025 0.124002 -0.659443 0
M  V30 7479 H 708.569 -0.269419 -2.02717 0
M  V30 7480 H 706.724 1.76784 -3.44712 0
M  V30 7481 H 707.138 0.449837 -5.22567 0
M  V30 7482 H 708.612 2.15401 -5.08238 0
M  V30 7483 H 709.089 2.68889 -3.47269 0
M  V30 7484 H 709.695 1.13798 -4.09793 0
M  V30 7485 N 708.01 1.57248 0.105221 0
M  V30 7486 C 709.426 1.52853 0.459153 0
M  V30 7487 C 709.626 0.883674 1.8109 0
M  V30 7488 O 708.682 0.471864 2.48052 0
M  V30 7489 C 709.995 2.97596 0.43096 0
M  V30 7490 C 711.543 3.08758 0.513536 0
M  V30 7491 C 712.018 4.55089 0.515593 0
M  V30 7492 N 713.509 4.59597 0.576639 0
M  V30 7493 C 714.244 5.70253 0.599904 0
M  V30 7494 N 713.74 6.90368 0.579985 0
M  V30 7495 N 715.533 5.58399 0.643953 0
M  V30 7496 H 707.684 1.97547 -0.780306 0
M  V30 7497 H 709.947 0.902758 -0.289363 0
M  V30 7498 H 709.653 3.48201 -0.494903 0
M  V30 7499 H 709.527 3.55756 1.2537 0
M  V30 7500 H 711.914 2.58148 1.42982 0
M  V30 7501 H 711.995 2.53568 -0.337148 0
M  V30 7502 H 711.639 5.06348 -0.396701 0
M  V30 7503 H 711.569 5.08105 1.38335 0
M  V30 7504 H 714.06 3.73144 0.597639 0
M  V30 7505 H 714.373 7.70462 0.600741 0
M  V30 7506 H 712.718 6.92843 0.547191 0
M  V30 7507 H 715.909 4.63467 0.656975 0
M  V30 7508 H 716.082 6.44644 0.658616 0
M  V30 7509 N 709.488 -0.375779 1.53054 0
M  V30 7510 C 710.904 -0.716764 1.426 0
M  V30 7511 C 711.104 -1.93651 0.556931 0
M  V30 7512 O 710.16 -2.52475 0.0354461 0
M  V30 7513 C 711.473 -0.939499 2.85646 0
M  V30 7514 C 713.021 -1.04015 2.95212 0
M  V30 7515 C 713.496 -1.29543 4.39298 0
M  V30 7516 N 714.987 -1.36335 4.42682 0
M  V30 7517 C 715.722 -1.57778 5.51266 0
M  V30 7518 N 715.218 -1.76604 6.69913 0
M  V30 7519 N 717.011 -1.60065 5.38828 0
M  V30 7520 H 709.162 0.42664 2.08071 0
M  V30 7521 H 711.425 0.128758 0.939215 0
M  V30 7522 H 711.131 -0.115189 3.51511 0
M  V30 7523 H 711.005 -1.85048 3.2869 0
M  V30 7524 H 713.392 -1.85501 2.29507 0
M  V30 7525 H 713.473 -0.106785 2.55577 0
M  V30 7526 H 713.117 -0.485611 5.05573 0
M  V30 7527 H 713.047 -2.24184 4.76497 0
M  V30 7528 H 715.538 -1.23441 3.5717 0
M  V30 7529 H 715.851 -1.9251 7.48438 0
M  V30 7530 H 714.196 -1.73802 6.72917 0
M  V30 7531 H 717.387 -1.44917 4.45103 0
M  V30 7532 H 717.56 -1.76435 6.23518 0
M  V30 7533 N 710.966 -1.44241 -0.634997 0
M  V30 7534 C 711.913 -1.5081 -1.74714 0
M  V30 7535 C 712.883 -0.356147 -1.62237 0
M  V30 7536 O 714.068 -0.565848 -1.82216 0
M  V30 7537 C 711.208 -1.45458 -3.12947 0
M  V30 7538 C 710.321 -2.70998 -3.36428 0
M  V30 7539 C 709.456 -2.57507 -4.64611 0
M  V30 7540 C 708.495 -3.78229 -4.81258 0
M  V30 7541 N 707.632 -3.63438 -6.00714 0
M  V30 7542 H 712.472 -2.45832 -1.68436 0
M  V30 7543 H 710.009 -1.2201 -0.821706 0
M  V30 7544 H 711.967 -1.40347 -3.92885 0
M  V30 7545 H 710.597 -0.540058 -3.1825 0
M  V30 7546 H 709.649 -2.86312 -2.50458 0
M  V30 7547 H 710.961 -3.60619 -3.44609 0
M  V30 7548 H 710.115 -2.50207 -5.52703 0
M  V30 7549 H 708.854 -1.65441 -4.58782 0
M  V30 7550 H 707.859 -3.85918 -3.91596 0
M  V30 7551 H 709.084 -4.71327 -4.88904 0
M  V30 7552 H 707.03 -2.7412 -5.95982 0
M  V30 7553 H 706.947 -4.46672 -6.09934 0
M  V30 7554 H 708.215 -3.60022 -6.91378 0
M  V30 7555 N 712.444 0.87505 -1.31075 0
M  V30 7556 C 713.69 1.63009 -1.20647 0
M  V30 7557 C 714.023 1.9276 0.236045 0
M  V30 7558 O 713.298 1.55559 1.16754 0
M  V30 7559 C 713.581 2.96357 -2.0456 0
M  V30 7560 C 713.434 2.73516 -3.57084 0
M  V30 7561 C 714.753 3.974 -1.89107 0
M  V30 7562 H 711.872 0.591518 -0.439631 0
M  V30 7563 H 714.514 1.0119 -1.60812 0
M  V30 7564 H 712.664 3.49119 -1.70435 0
M  V30 7565 H 714.336 2.27465 -4.01319 0
M  V30 7566 H 712.579 2.0784 -3.80769 0
M  V30 7567 H 713.25 3.68377 -4.11099 0
M  V30 7568 H 715.726 3.5383 -2.18961 0
M  V30 7569 H 714.602 4.88596 -2.5013 0
M  V30 7570 H 714.863 4.33794 -0.85296 0
M  V30 7571 N 713.922 1.13953 1.08869 0
M  V30 7572 C 714.852 0.844824 2.17681 0
M  V30 7573 C 715.833 -0.198213 1.68941 0
M  V30 7574 O 717.018 -0.0559073 1.9412 0
M  V30 7575 C 714.148 0.316325 3.45856 0
M  V30 7576 C 713.102 1.29426 4.07962 0
M  V30 7577 C 712.428 0.625275 5.31031 0
M  V30 7578 C 713.728 2.65484 4.49795 0
M  V30 7579 H 715.422 1.75471 2.42591 0
M  V30 7580 H 712.968 0.845116 1.16592 0
M  V30 7581 H 714.921 0.0977876 4.21287 0
M  V30 7582 H 713.645 -0.628972 3.20486 0
M  V30 7583 H 712.304 1.49889 3.34558 0
M  V30 7584 H 711.952 -0.325678 5.01945 0
M  V30 7585 H 711.652 1.27777 5.73539 0
M  V30 7586 H 713.176 0.416152 6.0918 0
M  V30 7587 H 714.59 2.48957 5.16424 0
M  V30 7588 H 712.987 3.26963 5.03205 0
M  V30 7589 H 714.057 3.22717 3.61914 0
M  V30 7590 N 715.4 -1.26948 0.933913 0
M  V30 7591 C 716.646 -1.94374 0.57848 0
M  V30 7592 C 716.979 -1.73166 -0.879048 0
M  V30 7593 O 716.254 -1.06438 -1.62792 0
M  V30 7594 C 716.537 -3.4834 0.912739 0
M  V30 7595 C 716.39 -3.78866 2.42448 0
M  V30 7596 C 717.709 -4.38062 0.423003 0
M  V30 7597 H 714.828 -0.705959 0.211639 0
M  V30 7598 H 717.47 -1.49951 1.16682 0
M  V30 7599 H 715.62 -3.86309 0.412058 0
M  V30 7600 H 717.292 -3.50654 2.99733 0
M  V30 7601 H 715.535 -3.25198 2.87104 0
M  V30 7602 H 716.206 -4.86458 2.60887 0
M  V30 7603 H 718.682 -4.0728 0.852191 0
M  V30 7604 H 717.558 -5.44599 0.685776 0
M  V30 7605 H 717.819 -4.36886 -0.676994 0
M  V30 7606 N 716.879 -0.700114 -1.41195 0
M  V30 7607 C 717.809 -0.0521132 -2.33442 0
M  V30 7608 C 718.79 0.76228 -1.52063 0
M  V30 7609 O 719.975 0.714336 -1.80585 0
M  V30 7610 C 717.105 0.881693 -3.35922 0
M  V30 7611 C 716.059 0.174062 -4.27646 0
M  V30 7612 C 715.385 1.22254 -5.20536 0
M  V30 7613 C 716.685 -0.962396 -5.13357 0
M  V30 7614 H 718.379 -0.822574 -2.87879 0
M  V30 7615 H 715.925 -0.397011 -1.38419 0
M  V30 7616 H 717.878 1.34429 -3.99383 0
M  V30 7617 H 716.602 1.68387 -2.79845 0
M  V30 7618 H 715.261 -0.268551 -3.65615 0
M  V30 7619 H 714.909 2.01736 -4.60773 0
M  V30 7620 H 714.609 0.754038 -5.82742 0
M  V30 7621 H 716.133 1.68555 -5.86874 0
M  V30 7622 H 717.547 -0.579875 -5.7036 0
M  V30 7623 H 715.944 -1.35828 -5.84526 0
M  V30 7624 H 717.014 -1.80003 -4.50252 0
M  V30 7625 N 718.357 1.51182 -0.445186 0
M  V30 7626 C 719.605 2.01753 0.11841 0
M  V30 7627 C 719.926 1.33087 1.42523 0
M  V30 7628 O 719.196 0.467891 1.9023 0
M  V30 7629 H 717.776 0.745536 0.0467492 0
M  V30 7630 H 720.438 1.85765 -0.589688 0
M  V30 7631 H 719.534 3.10762 0.288665 0
M  V30 7632 N 719.835 0.176821 1.56605 0
M  V30 7633 C 721.06 -0.47599 2.01864 0
M  V30 7634 C 721.485 -1.55645 1.05623 0
M  V30 7635 O 720.843 -1.81263 0.0366729 0
M  V30 7636 C 720.891 -1.02619 3.4569 0
M  V30 7637 O 719.995 -2.13996 3.52533 0
M  V30 7638 H 719.336 -0.113363 0.654251 0
M  V30 7639 H 721.866 0.28233 2.02643 0
M  V30 7640 H 721.876 -1.34742 3.85109 0
M  V30 7641 H 720.551 -0.235138 4.15235 0
M  V30 7642 H 719.128 -1.82876 3.24978 0
M  V30 7643 N 721.313 -1.57302 -0.09688 0
M  V30 7644 C 722.561 -1.8563 -0.799117 0
M  V30 7645 C 722.882 -0.765263 -1.79356 0
M  V30 7646 O 722.152 0.208657 -1.94786 0
M  V30 7647 H 720.732 -0.684937 -0.298111 0
M  V30 7648 H 723.394 -1.9474 -0.0789341 0
M  V30 7649 H 722.49 -2.82305 -1.3308 0
M  V30 7650 N 722.791 0.367657 -1.53252 0
M  V30 7651 C 724.021 1.12955 -1.72988 0
M  V30 7652 C 724.429 1.8358 -0.457708 0
M  V30 7653 O 723.772 1.74336 0.579006 0
M  V30 7654 C 723.834 2.20545 -2.83902 0
M  V30 7655 C 723.498 1.69704 -4.24323 0
M  V30 7656 C 724.495 1.16223 -5.06743 0
M  V30 7657 C 722.18 1.7528 -4.70725 0
M  V30 7658 C 724.174 0.689935 -6.33655 0
M  V30 7659 C 721.861 1.27662 -5.97617 0
M  V30 7660 C 722.859 0.746083 -6.78913 0
M  V30 7661 O 722.547 0.276925 -8.03423 0
M  V30 7662 H 722.279 0.343753 -0.582074 0
M  V30 7663 H 724.833 0.433106 -2.00782 0
M  V30 7664 H 723.063 2.93676 -2.51577 0
M  V30 7665 H 724.752 2.82111 -2.91836 0
M  V30 7666 H 725.518 1.11256 -4.72067 0
M  V30 7667 H 721.397 2.15515 -4.07522 0
M  V30 7668 H 724.941 0.275164 -6.97057 0
M  V30 7669 H 720.838 1.32322 -6.31792 0
M  V30 7670 H 721.606 0.396445 -8.17539 0
M  V30 7671 N 724.269 1.44576 0.627338 0
M  V30 7672 C 725.518 1.46837 1.38281 0
M  V30 7673 C 725.831 0.10635 1.95311 0
M  V30 7674 O 727.037 0.00651084 2.71499 0
M  V30 7675 C 725.493 2.58527 2.50384 0
M  V30 7676 C 725.101 4.00953 1.99851 0
M  V30 7677 C 726.845 2.70013 3.27557 0
M  V30 7678 C 724.752 5.0406 3.09318 0
M  V30 7679 H 723.682 0.546319 0.519664 0
M  V30 7680 H 726.333 1.70654 0.674497 0
M  V30 7681 H 724.715 2.27957 3.23808 0
M  V30 7682 H 725.889 4.41108 1.33267 0
M  V30 7683 H 724.204 3.93743 1.35482 0
M  V30 7684 H 726.801 3.44217 4.09168 0
M  V30 7685 H 727.144 1.75961 3.77284 0
M  V30 7686 H 727.677 3.00011 2.61224 0
M  V30 7687 H 724.416 5.99753 2.6453 0
M  V30 7688 H 723.936 4.68493 3.74532 0
M  V30 7689 H 725.615 5.2793 3.74031 0
M  V30 7690 N 725.747 -0.868086 1.31537 0
M  V30 7691 C 726.972 -1.65926 1.24432 0
M  V30 7692 C 727.397 -1.87169 -0.186936 0
M  V30 7693 O 726.755 -1.4148 -1.13371 0
M  V30 7694 C 726.803 -3.00347 1.9956 0
M  V30 7695 O 725.907 -3.90221 1.33422 0
M  V30 7696 H 725.248 -0.506375 0.429512 0
M  V30 7697 H 727.778 -1.0822 1.73637 0
M  V30 7698 H 727.788 -3.50269 2.09226 0
M  V30 7699 H 726.463 -2.84205 3.03645 0
M  V30 7700 H 725.04 -3.48672 1.32219 0
M  V30 7701 N 727.225 -1.14528 -1.08264 0
M  V30 7702 C 728.135 -0.84728 -2.18765 0
M  V30 7703 C 729.151 0.172826 -1.7314 0
M  V30 7704 O 730.327 0.000985336 -2.014 0
M  V30 7705 C 727.392 -0.330633 -3.4512 0
M  V30 7706 C 726.453 -1.41348 -4.05363 0
M  V30 7707 C 725.686 -0.921387 -5.25686 0
M  V30 7708 O 725.909 0.236587 -5.69909 0
M  V30 7709 O 724.843 -1.70101 -5.77364 0
M  V30 7710 H 728.669 -1.7708 -2.46731 0
M  V30 7711 H 726.254 -0.923661 -1.17426 0
M  V30 7712 H 728.136 -0.0485053 -4.21372 0
M  V30 7713 H 726.811 0.565147 -3.18728 0
M  V30 7714 H 725.718 -1.74908 -3.30693 0
M  V30 7715 H 727.051 -2.28383 -4.36007 0
M  V30 7716 N 728.703 1.26451 -0.940633 0
M  V30 7717 C 730.114 1.75726 -0.630653 0
M  V30 7718 C 730.465 1.76631 0.854167 0
M  V30 7719 O 729.59 1.37807 1.66848 0
M  V30 7720 C 730.185 3.19114 -1.13805 0
M  V30 7721 C 728.744 3.66005 -0.878497 0
M  V30 7722 C 727.891 2.45505 -1.28928 0
M  V30 7723 H 730.842 1.12535 -1.119 0
M  V30 7724 H 730.863 3.77311 -0.491625 0
M  V30 7725 H 730.375 3.18424 -2.21874 0
M  V30 7726 H 728.476 3.72126 0.187833 0
M  V30 7727 H 728.589 4.54844 -1.50512 0
M  V30 7728 H 726.953 2.4467 -0.707713 0
M  V30 7729 H 727.736 2.47516 -2.37888 0
M  V30 7730 N 730.181 0.707592 1.40822 0
M  V30 7731 C 731.427 0.244031 2.01326 0
M  V30 7732 C 731.76 -1.15722 1.55955 0
M  V30 7733 O 731.035 -1.78347 0.776044 0
M  V30 7734 C 731.318 0.315128 3.58718 0
M  V30 7735 C 731.171 1.75419 4.14184 0
M  V30 7736 C 732.49 -0.318251 4.38948 0
M  V30 7737 H 729.609 0.0901471 0.731466 0
M  V30 7738 H 732.251 0.898584 1.67408 0
M  V30 7739 H 730.401 -0.242176 3.87744 0
M  V30 7740 H 732.073 2.36626 3.95987 0
M  V30 7741 H 730.316 2.28449 3.68773 0
M  V30 7742 H 730.987 1.75538 5.23345 0
M  V30 7743 H 733.463 0.156514 4.15806 0
M  V30 7744 H 732.339 -0.238019 5.48384 0
M  V30 7745 H 732.6 -1.40067 4.19325 0
M  V30 7746 N 731.66 -1.50943 0.453197 0
M  V30 7747 C 732.59 -2.31005 -0.34044 0
M  V30 7748 C 733.571 -1.37112 -1.00669 0
M  V30 7749 O 734.756 -1.66033 -1.0073 0
M  V30 7750 C 731.886 -3.16358 -1.433 0
M  V30 7751 C 730.84 -4.18658 -0.889363 0
M  V30 7752 C 730.166 -4.92633 -2.07887 0
M  V30 7753 C 731.466 -5.22227 0.0871142 0
M  V30 7754 H 733.16 -2.97601 0.327723 0
M  V30 7755 H 730.706 -1.43119 0.159054 0
M  V30 7756 H 732.659 -3.71155 -1.99555 0
M  V30 7757 H 731.383 -2.47613 -2.12968 0
M  V30 7758 H 730.042 -3.64936 -0.348915 0
M  V30 7759 H 729.69 -4.20376 -2.76211 0
M  V30 7760 H 729.39 -5.61819 -1.72143 0
M  V30 7761 H 730.914 -5.50258 -2.64666 0
M  V30 7762 H 732.328 -5.72001 -0.385656 0
M  V30 7763 H 730.725 -5.99032 0.357926 0
M  V30 7764 H 731.795 -4.74077 1.01879 0
M  V30 7765 N 733.138 -0.185124 -1.56509 0
M  V30 7766 C 734.048 0.751908 -2.22224 0
M  V30 7767 C 735.064 1.24244 -1.21817 0
M  V30 7768 O 736.24 1.29169 -1.54523 0
M  V30 7769 C 733.305 1.95837 -2.86092 0
M  V30 7770 C 732.366 1.51337 -4.01741 0
M  V30 7771 C 731.599 2.66233 -4.62554 0
M  V30 7772 O 731.822 3.8346 -4.22273 0
M  V30 7773 O 730.756 2.39517 -5.52191 0
M  V30 7774 H 734.582 0.222304 -3.02885 0
M  V30 7775 H 732.167 0.0437141 -1.49336 0
M  V30 7776 H 734.049 2.66368 -3.26536 0
M  V30 7777 H 732.724 2.47677 -2.08417 0
M  V30 7778 H 731.631 0.777155 -3.65939 0
M  V30 7779 H 732.964 1.04175 -4.81049 0
M  V30 7780 N 734.616 1.57351 0.0885366 0
M  V30 7781 C 735.846 1.90355 0.80303 0
M  V30 7782 C 736.254 0.777678 1.72478 0
M  V30 7783 O 735.597 -0.258908 1.81866 0
M  V30 7784 C 735.659 3.18674 1.66395 0
M  V30 7785 C 735.323 4.4778 0.913327 0
M  V30 7786 C 736.32 5.19345 0.240148 0
M  V30 7787 C 734.005 4.94434 0.885462 0
M  V30 7788 C 735.999 6.35803 -0.450854 0
M  V30 7789 C 733.686 6.10802 0.190679 0
M  V30 7790 C 734.684 6.81337 -0.476295 0
M  V30 7791 O 734.372 7.95488 -1.15992 0
M  V30 7792 H 734.104 0.634035 0.234469 0
M  V30 7793 H 736.658 2.05287 0.0681959 0
M  V30 7794 H 734.888 2.99906 2.44117 0
M  V30 7795 H 736.577 3.37458 2.2556 0
M  V30 7796 H 737.343 4.84339 0.253092 0
M  V30 7797 H 733.222 4.39417 1.39406 0
M  V30 7798 H 736.766 6.90795 -0.972019 0
M  V30 7799 H 732.663 6.45261 0.175603 0
M  V30 7800 H 733.431 8.11509 -1.06749 0
M  V30 7801 N 736.094 -0.359525 1.53444 0
M  V30 7802 C 737.024 -1.44662 1.8329 0
M  V30 7803 C 738.005 -1.55617 0.68683 0
M  V30 7804 O 739.19 -1.70086 0.93725 0
M  V30 7805 C 736.32 -2.81923 2.02822 0
M  V30 7806 C 735.274 -2.85787 3.18606 0
M  V30 7807 C 734.6 -4.25781 3.23442 0
M  V30 7808 C 735.9 -2.52762 4.57065 0
M  V30 7809 H 737.594 -1.19934 2.74329 0
M  V30 7810 H 735.14 -0.575517 1.31999 0
M  V30 7811 H 737.093 -3.58005 2.22285 0
M  V30 7812 H 735.817 -3.08051 1.085 0
M  V30 7813 H 734.476 -2.12157 2.98973 0
M  V30 7814 H 734.124 -4.48994 2.26745 0
M  V30 7815 H 733.824 -4.29281 4.01238 0
M  V30 7816 H 735.348 -5.03727 3.45096 0
M  V30 7817 H 736.762 -3.18557 4.76649 0
M  V30 7818 H 735.159 -2.67569 5.37147 0
M  V30 7819 H 736.229 -1.47993 4.61764 0
M  V30 7820 N 737.572 -1.44907 -0.619662 0
M  V30 7821 C 738.797 -1.52021 -1.41083 0
M  V30 7822 C 739.222 -0.14976 -1.87503 0
M  V30 7823 O 738.58 0.863303 -1.59426 0
M  V30 7824 C 738.628 -2.49911 -2.59955 0
M  V30 7825 O 737.732 -2.00857 -3.60181 0
M  V30 7826 H 737.073 -0.512912 -0.421684 0
M  V30 7827 H 739.603 -1.90149 -0.755282 0
M  V30 7828 H 739.613 -2.68323 -3.07354 0
M  V30 7829 H 738.288 -3.4945 -2.25516 0
M  V30 7830 H 736.865 -1.92265 -3.19513 0
M  V30 7831 N 739.05 0.861098 -1.31996 0
M  V30 7832 C 740.466 1.14827 -1.10846 0
M  V30 7833 C 740.666 2.0117 0.11528 0
M  V30 7834 O 739.722 2.39423 0.802048 0
M  V30 7835 C 741.035 1.83183 -2.38462 0
M  V30 7836 C 742.583 1.95847 -2.44158 0
M  V30 7837 C 743.058 2.67617 -3.71679 0
M  V30 7838 N 744.549 2.75147 -3.72624 0
M  V30 7839 C 745.284 3.31314 -4.67994 0
M  V30 7840 N 744.78 3.88343 -5.73726 0
M  V30 7841 N 746.573 3.29356 -4.55501 0
M  V30 7842 H 738.724 0.285951 -2.10466 0
M  V30 7843 H 740.987 0.189303 -0.928907 0
M  V30 7844 H 740.693 1.27193 -3.27895 0
M  V30 7845 H 740.567 2.83393 -2.48935 0
M  V30 7846 H 742.954 2.50999 -1.55189 0
M  V30 7847 H 743.035 0.94653 -2.37644 0
M  V30 7848 H 742.679 2.13131 -4.61018 0
M  V30 7849 H 742.609 3.69237 -3.75462 0
M  V30 7850 H 745.1 2.34682 -2.96197 0
M  V30 7851 H 745.413 4.29338 -6.42564 0
M  V30 7852 H 743.758 3.86693 -5.77489 0
M  V30 7853 H 746.949 2.84047 -3.72069 0
M  V30 7854 H 747.122 3.7283 -5.30001 0
M  V30 7855 N 740.528 1.15101 1.07655 0
M  V30 7856 C 741.805 0.834578 1.76902 0
M  V30 7857 C 742.185 -0.670431 2.00171 0
M  V30 7858 O 741.533 -1.61378 1.6177 0
M  V30 7859 C 741.743 1.64191 3.07965 0
M  V30 7860 C 743.091 1.84615 3.82364 0
M  V30 7861 O 744.115 1.60941 3.17768 0
M  V30 7862 O 742.974 2.24244 4.98374 0
M  V30 7863 H 740.068 0.306608 0.768063 0
M  V30 7864 H 742.614 1.25663 1.14048 0
M  V30 7865 H 741.386 2.66386 2.86626 0
M  V30 7866 H 741.009 1.216 3.78549 0
M  V30 7867 N 742.006 -1.2595 0.947325 0
M  V30 7868 C 743.254 -1.93081 0.596996 0
M  V30 7869 C 743.575 -1.74632 -0.867672 0
M  V30 7870 O 742.845 -1.1056 -1.6172 0
M  V30 7871 H 741.425 -0.714542 0.217805 0
M  V30 7872 H 744.087 -1.53265 1.20398 0
M  V30 7873 H 743.183 -3.01134 0.82004 0
M  V30 7874 N 743.484 -0.715051 -1.40445 0
M  V30 7875 C 744.432 -0.0509974 -2.32544 0
M  V30 7876 C 745.426 0.747602 -1.52011 0
M  V30 7877 O 746.632 0.651031 -1.67814 0
M  V30 7878 H 743.007 0.00231113 -0.751996 0
M  V30 7879 H 744.978 -0.84449 -2.86201 0
M  V30 7880 C 743.727 0.857101 -3.3697 0
M  V30 7881 H 743.05 0.252 -3.99005 0
M  V30 7882 H 744.49 1.28971 -4.03909 0
M  V30 7883 C 742.949 1.98231 -2.72408 0
M  V30 7884 O 743.479 3.07309 -2.58697 0
M  V30 7885 N 741.685 1.76577 -2.308 0
M  V30 7886 H 741.232 0.878641 -2.42152 0
M  V30 7887 H 741.19 2.52043 -1.87941 0
M  V30 7888 N 744.962 1.50701 -0.461195 0
M  V30 7889 C 746.211 2.01458 0.0988277 0
M  V30 7890 C 746.524 1.34863 1.41673 0
M  V30 7891 O 747.73 1.76721 2.06111 0
M  V30 7892 C 746.186 3.59186 0.226648 0
M  V30 7893 C 745.794 4.34732 -1.08223 0
M  V30 7894 C 747.538 4.18015 0.73916 0
M  V30 7895 C 745.445 5.8422 -0.918747 0
M  V30 7896 H 744.375 0.7529 0.040709 0
M  V30 7897 H 747.026 1.736 -0.594589 0
M  V30 7898 H 745.408 3.83589 0.983621 0
M  V30 7899 H 746.582 4.22059 -1.84939 0
M  V30 7900 H 744.897 3.87466 -1.52509 0
M  V30 7901 H 747.494 5.27436 0.878347 0
M  V30 7902 H 747.837 3.78746 1.72793 0
M  V30 7903 H 748.37 3.9778 0.0398469 0
M  V30 7904 H 745.109 6.27944 -1.88059 0
M  V30 7905 H 744.629 5.99493 -0.191801 0
M  V30 7906 H 746.308 6.44382 -0.581405 0
M  V30 7907 N 746.441 0.193421 1.56409 0
M  V30 7908 C 747.351 -0.740112 2.2262 0
M  V30 7909 C 748.367 -1.23597 1.22474 0
M  V30 7910 O 749.543 -1.28348 1.55206 0
M  V30 7911 C 746.608 -1.94317 2.87127 0
M  V30 7912 C 745.669 -1.49205 4.02538 0
M  V30 7913 C 744.902 -2.63776 4.63959 0
M  V30 7914 O 745.125 -3.81215 4.24301 0
M  V30 7915 O 744.059 -2.36585 5.53454 0
M  V30 7916 H 747.885 -0.206238 3.02999 0
M  V30 7917 H 745.47 -0.0357938 1.49357 0
M  V30 7918 H 747.352 -2.64633 3.27944 0
M  V30 7919 H 746.027 -2.46568 2.09728 0
M  V30 7920 H 744.934 -0.757738 3.66346 0
M  V30 7921 H 746.267 -1.01622 4.81595 0
M  V30 7922 N 747.919 -1.57396 -0.0801906 0
M  V30 7923 C 749.168 -1.8602 -0.779702 0
M  V30 7924 C 749.481 -0.784864 -1.79163 0
M  V30 7925 O 750.687 -0.958691 -2.54011 0
M  V30 7926 C 749.143 -3.29942 -1.43758 0
M  V30 7927 C 748.751 -4.45584 -0.464654 0
M  V30 7928 C 750.495 -3.67775 -2.11995 0
M  V30 7929 C 748.402 -5.80544 -1.12797 0
M  V30 7930 H 747.332 -0.69392 -0.294943 0
M  V30 7931 H 749.983 -1.83471 -0.0328527 0
M  V30 7932 H 748.365 -3.27078 -2.2324 0
M  V30 7933 H 749.539 -4.59824 0.299749 0
M  V30 7934 H 747.854 -4.16247 0.112813 0
M  V30 7935 H 750.451 -4.65896 -2.62383 0
M  V30 7936 H 750.794 -2.9715 -2.91561 0
M  V30 7937 H 751.327 -3.72593 -1.39354 0
M  V30 7938 H 748.066 -6.54439 -0.372807 0
M  V30 7939 H 747.586 -5.70119 -1.86344 0
M  V30 7940 H 749.265 -6.25602 -1.6502 0
M  V30 7941 N 749.397 0.351382 -1.53633 0
M  V30 7942 C 750.625 1.11275 -1.74429 0
M  V30 7943 C 751.04 1.82602 -0.479798 0
M  V30 7944 O 750.397 1.74074 0.548125 0
M  V30 7945 C 750.448 2.13223 -2.91921 0
M  V30 7946 O 750.169 1.44798 -4.13479 0
M  V30 7947 C 751.67 3.01797 -3.24706 0
M  V30 7948 H 748.89 0.332153 -0.583023 0
M  V30 7949 H 751.434 0.405974 -2.0043 0
M  V30 7950 H 749.589 2.79477 -2.68274 0
M  V30 7951 H 750.003 2.12839 -4.79374 0
M  V30 7952 H 751.477 3.69282 -4.10286 0
M  V30 7953 H 751.954 3.67387 -2.40673 0
M  V30 7954 H 752.56 2.41141 -3.5033 0
M  V30 7955 N 750.875 1.45233 0.611969 0
M  V30 7956 C 752.121 1.49242 1.37312 0
M  V30 7957 C 752.454 0.131963 1.93751 0
M  V30 7958 O 751.729 -0.852999 1.74798 0
M  V30 7959 C 752.012 2.56811 2.52428 0
M  V30 7960 C 751.865 4.02284 2.01215 0
M  V30 7961 C 753.184 2.60705 3.54572 0
M  V30 7962 H 750.303 0.54336 0.497925 0
M  V30 7963 H 752.945 1.77019 0.690242 0
M  V30 7964 H 751.095 2.33256 3.10683 0
M  V30 7965 H 752.767 4.37035 1.47643 0
M  V30 7966 H 751.01 4.1315 1.32248 0
M  V30 7967 H 751.681 4.7323 2.84178 0
M  V30 7968 H 754.157 2.81799 3.06151 0
M  V30 7969 H 753.033 3.37841 4.32614 0
M  V30 7970 H 753.294 1.65627 4.09903 0
M  V30 7971 N 752.353 -0.854086 1.3245 0
M  V30 7972 C 753.601 -1.60513 1.228 0
M  V30 7973 C 753.922 -1.93865 -0.210073 0
M  V30 7974 O 753.192 -1.59673 -1.13496 0
M  V30 7975 H 751.772 -0.595099 0.451516 0
M  V30 7976 H 754.434 -1.0216 1.6598 0
M  V30 7977 H 753.53 -2.54182 1.81102 0
M  V30 7978 N 753.831 -1.1567 -1.07043 0
M  V30 7979 C 755.056 -0.957946 -1.83952 0
M  V30 7980 C 755.481 0.488807 -1.81638 0
M  V30 7981 O 754.839 1.34869 -1.21162 0
M  V30 7982 C 754.887 -1.48064 -3.288 0
M  V30 7983 O 753.991 -0.681921 -4.06723 0
M  V30 7984 H 753.332 -0.341453 -0.569479 0
M  V30 7985 H 755.862 -1.53728 -1.35015 0
M  V30 7986 H 755.872 -1.49484 -3.7963 0
M  V30 7987 H 754.547 -2.53388 -3.29799 0
M  V30 7988 H 753.124 -0.737612 -3.65532 0
M  V30 7989 N 755.309 1.25446 -0.953992 0
M  V30 7990 C 756.586 1.884 -0.525823 0
M  V30 7991 C 756.966 1.86079 0.996891 0
M  V30 7992 O 756.314 1.32389 1.8624 0
M  V30 7993 C 756.524 3.31154 -1.10172 0
M  V30 7994 C 757.872 4.07926 -1.17819 0
M  V30 7995 O 758.896 3.40273 -1.05323 0
M  V30 7996 O 757.755 5.28942 -1.37415 0
M  V30 7997 H 754.849 0.808629 -0.173345 0
M  V30 7998 H 757.395 1.33522 -1.04738 0
M  V30 7999 H 756.167 3.27271 -2.14499 0
M  V30 8000 H 755.79 3.93588 -0.56338 0
M  V30 8001 N 756.787 0.722489 1.40064 0
M  V30 8002 C 757.72 0.0233443 2.28188 0
M  V30 8003 C 758.698 -0.7606 1.43714 0
M  V30 8004 O 759.882 -0.745791 1.73119 0
M  V30 8005 C 757.009 -0.974264 3.24385 0
M  V30 8006 C 756.055 -0.280307 4.25578 0
M  V30 8007 S 756.888 0.996769 5.26141 0
M  V30 8008 C 758.044 0.00143923 6.259 0
M  V30 8009 H 758.277 0.770705 2.87137 0
M  V30 8010 H 755.81 0.513783 1.45601 0
M  V30 8011 H 757.768 -1.5446 3.80332 0
M  V30 8012 H 756.429 -1.69438 2.6448 0
M  V30 8013 H 755.622 -1.03471 4.93264 0
M  V30 8014 H 755.224 0.217657 3.73366 0
M  V30 8015 H 757.516 -0.843126 6.72233 0
M  V30 8016 H 758.459 0.645104 7.05155 0
M  V30 8017 H 758.867 -0.365371 5.63316 0
M  V30 8018 N 758.265 -1.50454 0.469181 0
M  V30 8019 C 759.212 -2.28486 -0.325982 0
M  V30 8020 C 760.182 -1.33455 -0.988893 0
M  V30 8021 O 761.367 -1.6239 -1.0017 0
M  V30 8022 C 758.507 -3.15288 -1.40313 0
M  V30 8023 C 757.62 -4.25348 -0.755183 0
M  V30 8024 C 756.755 -4.9941 -1.81006 0
M  V30 8025 C 755.794 -6.01348 -1.14226 0
M  V30 8026 N 754.931 -6.68695 -2.1399 0
M  V30 8027 H 759.771 -2.95987 0.345753 0
M  V30 8028 H 757.308 -1.45965 0.182355 0
M  V30 8029 H 759.266 -3.63964 -2.03927 0
M  V30 8030 H 757.896 -2.49837 -2.04405 0
M  V30 8031 H 756.948 -3.80399 -0.00651901 0
M  V30 8032 H 758.26 -4.98279 -0.227941 0
M  V30 8033 H 757.414 -5.51794 -2.52206 0
M  V30 8034 H 756.153 -4.26181 -2.3711 0
M  V30 8035 H 755.158 -5.48225 -0.415876 0
M  V30 8036 H 756.383 -6.76548 -0.588135 0
M  V30 8037 H 754.329 -5.98258 -2.69115 0
M  V30 8038 H 754.246 -7.37495 -1.66246 0
M  V30 8039 H 755.514 -7.25697 -2.84576 0
M  V30 8040 N 759.743 -0.201713 -1.56304 0
M  V30 8041 C 760.691 0.733133 -2.20744 0
M  V30 8042 C 761.685 1.2148 -1.18064 0
M  V30 8043 O 762.891 1.17692 -1.36193 0
M  V30 8044 H 759.266 0.254789 -0.707521 0
M  V30 8045 H 761.237 0.165996 -2.97938 0
M  V30 8046 C 759.986 1.93925 -2.88597 0
M  V30 8047 H 759.309 1.5777 -3.67353 0
M  V30 8048 H 760.749 2.57158 -3.37114 0
M  V30 8049 C 759.208 2.78219 -1.89989 0
M  V30 8050 O 759.738 3.76353 -1.40432 0
M  V30 8051 N 757.944 2.43847 -1.58072 0
M  V30 8052 H 757.491 1.64103 -1.98565 0
M  V30 8053 H 757.449 3.0053 -0.923524 0
M  V30 8054 N 761.222 1.57436 0.0718424 0
M  V30 8055 C 762.154 2.00412 1.1121 0
M  V30 8056 C 763.167 0.910074 1.34987 0
M  V30 8057 O 764.356 1.18796 1.33228 0
M  V30 8058 C 761.456 2.32786 2.46301 0
M  V30 8059 C 760.629 3.64036 2.4248 0
M  V30 8060 C 759.688 3.8408 3.59679 0
M  V30 8061 O 758.714 4.55667 3.4111 0
M  V30 8062 N 759.916 3.2643 4.80025 0
M  V30 8063 H 762.681 2.90264 0.746118 0
M  V30 8064 H 760.242 1.59791 0.260495 0
M  V30 8065 H 762.234 2.43368 3.23348 0
M  V30 8066 H 760.804 1.48824 2.74901 0
M  V30 8067 H 760.024 3.64208 1.50818 0
M  V30 8068 H 761.312 4.50217 2.37027 0
M  V30 8069 H 760.71 2.68325 4.98014 0
M  V30 8070 H 759.267 3.42461 5.54584 0
M  V30 8071 N 762.7 -0.34323 1.53817 0
M  V30 8072 C 763.949 -1.08086 1.70295 0
M  V30 8073 C 764.262 -1.89794 0.47302 0
M  V30 8074 O 765.468 -2.66498 0.518754 0
M  V30 8075 C 763.924 -1.97097 3.01133 0
M  V30 8076 C 763.532 -1.20594 4.31464 0
M  V30 8077 C 765.276 -2.70715 3.26976 0
M  V30 8078 C 763.183 -2.08636 5.53376 0
M  V30 8079 H 762.113 -0.407228 0.634572 0
M  V30 8080 H 764.764 -0.340328 1.80316 0
M  V30 8081 H 763.146 -2.74971 2.84969 0
M  V30 8082 H 764.32 -0.476282 4.58332 0
M  V30 8083 H 762.635 -0.587426 4.12236 0
M  V30 8084 H 765.232 -3.36857 4.15248 0
M  V30 8085 H 765.575 -3.37299 2.43998 0
M  V30 8086 H 766.108 -1.99914 3.43917 0
M  V30 8087 H 762.847 -1.46594 6.38898 0
M  V30 8088 H 762.367 -2.7939 5.30755 0
M  V30 8089 H 764.046 -2.67682 5.89029 0
M  V30 8090 N 764.178 -1.45556 -0.604258 0
M  V30 8091 C 765.088 -1.57025 -1.74299 0
M  V30 8092 C 766.104 -0.45456 -1.67958 0
M  V30 8093 O 767.28 -0.715711 -1.88254 0
M  V30 8094 C 764.345 -1.53702 -3.10768 0
M  V30 8095 C 763.406 -2.76335 -3.28538 0
M  V30 8096 C 762.639 -2.73161 -4.58496 0
M  V30 8097 O 762.862 -1.80678 -5.41028 0
M  V30 8098 O 761.796 -3.64409 -4.79051 0
M  V30 8099 H 765.622 -2.53284 -1.67573 0
M  V30 8100 H 763.207 -1.28104 -0.768745 0
M  V30 8101 H 765.089 -1.54468 -3.92068 0
M  V30 8102 H 763.764 -0.605957 -3.17978 0
M  V30 8103 H 762.671 -2.8113 -2.46813 0
M  V30 8104 H 764.004 -3.68578 -3.26207 0
M  V30 8105 N 765.656 0.84705 -1.32902 0
M  V30 8106 C 766.588 1.96308 -1.18304 0
M  V30 8107 C 767.601 1.62386 -0.116082 0
M  V30 8108 O 768.79 1.74713 -0.365751 0
M  V30 8109 C 765.89 3.29556 -0.790305 0
M  V30 8110 C 765.063 3.91668 -1.94717 0
M  V30 8111 C 764.122 5.0326 -1.53674 0
M  V30 8112 O 763.148 5.22847 -2.24989 0
M  V30 8113 N 764.35 5.78852 -0.437075 0
M  V30 8114 H 767.115 2.09369 -2.14441 0
M  V30 8115 H 764.676 1.02233 -1.25539 0
M  V30 8116 H 766.668 4.01624 -0.49799 0
M  V30 8117 H 765.238 3.12497 0.0801286 0
M  V30 8118 H 764.458 3.12292 -2.40557 0
M  V30 8119 H 765.746 4.299 -2.72146 0
M  V30 8120 H 765.144 5.65484 0.156316 0
M  V30 8121 H 763.701 6.51479 -0.204399 0
M  V30 8122 N 767.134 1.16236 1.06428 0
M  V30 8123 C 768.064 0.890807 2.1584 0
M  V30 8124 C 769.045 -0.162333 1.69324 0
M  V30 8125 O 770.23 -0.0147191 1.94194 0
M  V30 8126 C 767.36 0.389615 3.45108 0
M  V30 8127 C 766.314 1.38051 4.05125 0
M  V30 8128 C 765.64 0.737773 5.29586 0
M  V30 8129 C 766.94 2.74965 4.44062 0
M  V30 8130 H 768.634 1.80577 2.38814 0
M  V30 8131 H 766.18 0.869657 1.14774 0
M  V30 8132 H 768.133 0.187127 4.20984 0
M  V30 8133 H 766.857 -0.560851 3.21748 0
M  V30 8134 H 765.516 1.56952 3.31303 0
M  V30 8135 H 765.164 -0.219135 5.02522 0
M  V30 8136 H 764.864 1.39914 5.70699 0
M  V30 8137 H 766.388 0.545275 6.0816 0
M  V30 8138 H 767.802 2.59855 5.11027 0
M  V30 8139 H 766.199 3.37563 4.96156 0
M  V30 8140 H 767.269 3.30321 3.54987 0
M  V30 8141 N 768.612 -1.24939 0.960631 0
M  V30 8142 C 769.86 -1.92437 0.617441 0
M  V30 8143 C 770.181 -1.75543 -0.849101 0
M  V30 8144 O 769.451 -1.12269 -1.60538 0
M  V30 8145 H 768.031 -0.712192 0.225371 0
M  V30 8146 H 770.693 -1.5198 1.22017 0
M  V30 8147 H 769.789 -3.00247 0.851933 0
M  V30 8148 N 770.09 -0.729906 -1.39679 0
M  V30 8149 C 771.037 -0.0866063 -2.30637 0
M  V30 8150 C 772.007 0.735115 -1.48947 0
M  V30 8151 O 773.192 0.696125 -1.77648 0
M  V30 8152 C 770.332 0.818524 -3.35252 0
M  V30 8153 C 769.445 -0.0152635 -4.31997 0
M  V30 8154 C 768.58 0.890669 -5.2368 0
M  V30 8155 C 767.619 0.0518246 -6.12078 0
M  V30 8156 N 766.756 0.913411 -6.96133 0
M  V30 8157 H 771.596 -0.867925 -2.85081 0
M  V30 8158 H 769.133 -0.439673 -1.40376 0
M  V30 8159 H 771.091 1.3577 -3.9449 0
M  V30 8160 H 769.721 1.56587 -2.82277 0
M  V30 8161 H 768.773 -0.671794 -3.74421 0
M  V30 8162 H 770.085 -0.664086 -4.9436 0
M  V30 8163 H 769.239 1.49787 -5.87919 0
M  V30 8164 H 767.978 1.57328 -4.61627 0
M  V30 8165 H 766.983 -0.568209 -5.46856 0
M  V30 8166 H 768.208 -0.627497 -6.76195 0
M  V30 8167 H 766.154 1.58141 -6.36653 0
M  V30 8168 H 766.071 0.320952 -7.55318 0
M  V30 8169 H 767.339 1.50633 -7.64807 0
M  V30 8170 N 771.568 1.50203 -0.477153 0
M  V30 8171 C 772.515 2.28656 0.31386 0
M  V30 8172 C 773.485 1.33977 0.981802 0
M  V30 8173 O 774.67 1.62919 0.993072 0
M  V30 8174 C 771.81 3.16027 1.38639 0
M  V30 8175 C 770.923 4.25743 0.732615 0
M  V30 8176 C 770.058 5.00363 1.78355 0
M  V30 8177 C 769.097 6.01945 1.11035 0
M  V30 8178 N 768.234 6.6982 2.10441 0
M  V30 8179 H 773.074 2.958 -0.361445 0
M  V30 8180 H 770.611 1.45867 -0.190093 0
M  V30 8181 H 772.569 3.6504 2.01994 0
M  V30 8182 H 771.199 2.50917 2.03077 0
M  V30 8183 H 770.251 3.80398 -0.0136546 0
M  V30 8184 H 771.563 4.98393 0.201513 0
M  V30 8185 H 770.717 5.53124 2.49276 0
M  V30 8186 H 769.456 4.27432 2.34847 0
M  V30 8187 H 768.461 5.48438 0.386797 0
M  V30 8188 H 769.686 6.76851 0.552248 0
M  V30 8189 H 767.632 5.99677 2.65939 0
M  V30 8190 H 767.549 7.38366 1.62332 0
M  V30 8191 H 768.817 7.27196 2.80724 0
M  V30 8192 N 773.046 0.209999 1.56195 0
M  V30 8193 C 774.276 -0.429373 2.02089 0
M  V30 8194 C 774.684 -1.54703 1.0892 0
M  V30 8195 O 774.027 -1.83485 0.0889535 0
M  V30 8196 C 774.089 -1.03266 3.44349 0
M  V30 8197 C 773.753 -0.0518873 4.56971 0
M  V30 8198 C 774.75 0.744249 5.14545 0
M  V30 8199 C 772.435 0.0635185 5.0226 0
M  V30 8200 C 774.429 1.64261 6.15871 0
M  V30 8201 C 772.116 0.965423 6.03426 0
M  V30 8202 C 773.114 1.75352 6.60106 0
M  V30 8203 O 772.802 2.64029 7.59305 0
M  V30 8204 H 772.534 -0.110604 0.66689 0
M  V30 8205 H 775.088 0.320436 2.02885 0
M  V30 8206 H 773.318 -1.83134 3.40586 0
M  V30 8207 H 775.007 -1.57823 3.73961 0
M  V30 8208 H 775.773 0.665476 4.80413 0
M  V30 8209 H 771.652 -0.539762 4.57829 0
M  V30 8210 H 775.196 2.25819 6.60039 0
M  V30 8211 H 771.093 1.04526 6.36981 0
M  V30 8212 H 771.861 2.57974 7.76783 0
M  V30 8213 N 774.524 -1.57472 -0.0634922 0
M  V30 8214 C 775.472 -2.05307 -1.09323 0
M  V30 8215 C 776.466 -0.959995 -1.39572 0
M  V30 8216 O 777.672 -1.14507 -1.38882 0
M  V30 8217 H 774.047 -0.65472 -0.369927 0
M  V30 8218 H 776.018 -2.90925 -0.663707 0
M  V30 8219 C 774.767 -2.51954 -2.39613 0
M  V30 8220 H 774.09 -3.35662 -2.1719 0
M  V30 8221 H 775.53 -2.89169 -3.10092 0
M  V30 8222 C 773.989 -1.40596 -3.06161 0
M  V30 8223 O 774.519 -0.752722 -3.94585 0
M  V30 8224 N 772.725 -1.14902 -2.66919 0
M  V30 8225 H 772.272 -1.68205 -1.95102 0
M  V30 8226 H 772.23 -0.406006 -3.11767 0
M  V30 8227 N 776.003 0.335068 -1.53997 0
M  V30 8228 C 777.252 1.07182 -1.70865 0
M  V30 8229 C 777.565 1.89541 -0.483078 0
M  V30 8230 O 778.771 2.66219 -0.532879 0
M  V30 8231 C 777.227 1.95497 -3.02174 0
M  V30 8232 C 776.835 1.18304 -4.32097 0
M  V30 8233 C 778.579 2.68978 -3.28407 0
M  V30 8234 C 776.486 2.05699 -5.54474 0
M  V30 8235 H 775.416 0.403857 -0.636722 0
M  V30 8236 H 778.067 0.33076 -1.80494 0
M  V30 8237 H 776.449 2.73456 -2.86423 0
M  V30 8238 H 777.623 0.451969 -4.58578 0
M  V30 8239 H 775.938 0.565556 -4.12541 0
M  V30 8240 H 778.535 3.34651 -4.17029 0
M  V30 8241 H 778.878 3.36 -2.45784 0
M  V30 8242 H 779.411 1.98087 -3.44973 0
M  V30 8243 H 776.15 1.43204 -6.39666 0
M  V30 8244 H 775.67 2.76572 -5.32229 0
M  V30 8245 H 777.349 2.64554 -5.90441 0
M  V30 8246 N 777.481 1.45874 0.596531 0
M  V30 8247 C 778.429 1.55739 1.72766 0
M  V30 8248 C 779.423 0.426666 1.63939 0
M  V30 8249 O 780.629 0.60301 1.69599 0
M  V30 8250 H 777.004 0.489386 0.570968 0
M  V30 8251 H 778.975 2.50871 1.61575 0
M  V30 8252 C 777.724 1.55174 3.11153 0
M  V30 8253 H 777.047 2.41511 3.1861 0
M  V30 8254 H 778.487 1.66133 3.90097 0
M  V30 8255 C 776.946 0.278001 3.35751 0
M  V30 8256 O 777.476 -0.637557 3.96608 0
M  V30 8257 N 775.682 0.170227 2.90101 0
M  V30 8258 H 775.229 0.916159 2.40758 0
M  V30 8259 H 775.187 -0.68117 3.06932 0
M  V30 8260 N 778.959 -0.83999 1.33349 0
M  V30 8261 C 780.37 -1.41139 1.22216 0
M  V30 8262 C 780.721 -1.95551 -0.159398 0
M  V30 8263 O 779.846 -1.88721 -1.05893 0
M  V30 8264 C 780.441 -2.56564 2.21269 0
M  V30 8265 C 779 -3.09661 2.13979 0
M  V30 8266 C 778.147 -1.82457 2.08818 0
M  V30 8267 H 781.098 -0.645853 1.44964 0
M  V30 8268 H 781.119 -3.34163 1.81976 0
M  V30 8269 H 780.631 -2.16932 3.21811 0
M  V30 8270 H 778.732 -3.53841 1.16736 0
M  V30 8271 H 778.845 -3.6991 3.04472 0
M  V30 8272 H 777.209 -2.0266 1.54276 0
M  V30 8273 H 777.992 -1.45022 3.11165 0
M  V30 8274 N 780.437 -1.16799 -1.0581 0
M  V30 8275 C 781.683 -0.953935 -1.78963 0
M  V30 8276 C 782.016 0.516638 -1.87202 0
M  V30 8277 O 781.291 1.38338 -1.36721 0
M  V30 8278 C 781.574 -1.58808 -3.23191 0
M  V30 8279 C 781.427 -3.13032 -3.23003 0
M  V30 8280 C 782.746 -1.2868 -4.20867 0
M  V30 8281 H 779.865 -0.347972 -0.64968 0
M  V30 8282 H 782.507 -1.44204 -1.23715 0
M  V30 8283 H 780.657 -1.17303 -3.70368 0
M  V30 8284 H 782.329 -3.63553 -2.83949 0
M  V30 8285 H 780.572 -3.46108 -2.61518 0
M  V30 8286 H 781.243 -3.52527 -4.24769 0
M  V30 8287 H 783.719 -1.6461 -3.82155 0
M  V30 8288 H 782.595 -1.75645 -5.20038 0
M  V30 8289 H 782.856 -0.206491 -4.41618 0
M  V30 8290 N 781.915 1.24427 -0.967243 0
M  V30 8291 C 783.14 1.9708 -0.646069 0
M  V30 8292 C 783.565 1.71272 0.777665 0
M  V30 8293 O 782.923 0.976179 1.52776 0
M  V30 8294 C 782.971 3.48501 -0.926266 0
M  V30 8295 O 782.075 4.12398 -0.0114653 0
M  V30 8296 H 781.416 0.617423 -0.244304 0
M  V30 8297 H 783.946 1.58215 -1.29727 0
M  V30 8298 H 783.956 3.98885 -0.857619 0
M  V30 8299 H 782.631 3.66613 -1.96386 0
M  V30 8300 H 781.208 3.72661 -0.133396 0
M  V30 8301 N 783.393 0.737304 1.3929 0
M  V30 8302 C 784.326 0.0475454 2.2815 0
M  V30 8303 C 785.304 -0.745314 1.44512 0
M  V30 8304 O 786.488 -0.727387 1.739 0
M  V30 8305 C 783.615 -0.939803 3.254 0
M  V30 8306 C 782.661 -0.235153 4.25851 0
M  V30 8307 S 783.494 1.05252 5.25055 0
M  V30 8308 C 784.65 0.0678242 6.25863 0
M  V30 8309 H 784.883 0.801117 2.86303 0
M  V30 8310 H 782.416 0.529197 1.45048 0
M  V30 8311 H 784.374 -1.50417 3.81949 0
M  V30 8312 H 783.035 -1.66623 2.66262 0
M  V30 8313 H 782.228 -0.982336 4.94334 0
M  V30 8314 H 781.83 0.257245 3.73114 0
M  V30 8315 H 784.122 -0.771779 6.7309 0
M  V30 8316 H 785.065 0.719858 7.04431 0
M  V30 8317 H 785.473 -0.305604 5.63672 0
M  V30 8318 N 784.871 -1.49948 0.485112 0
M  V30 8319 C 786.148 -1.95186 -0.12726 0
M  V30 8320 C 786.528 -1.42605 -1.5565 0
M  V30 8321 O 785.876 -0.632986 -2.19558 0
M  V30 8322 C 786.086 -3.48955 -0.0562117 0
M  V30 8323 C 787.434 -4.23932 -0.238106 0
M  V30 8324 O 788.458 -3.55955 -0.132145 0
M  V30 8325 O 787.317 -5.44614 -0.453658 0
M  V30 8326 H 784.411 -0.820433 -0.104014 0
M  V30 8327 H 786.957 -1.60659 0.546517 0
M  V30 8328 H 785.729 -3.79814 0.941122 0
M  V30 8329 H 785.352 -3.90056 -0.770834 0
M  V30 8330 N 786.349 -0.21828 -1.56081 0
M  V30 8331 C 787.598 0.414644 -1.97392 0
M  V30 8332 C 787.911 1.61132 -1.10887 0
M  V30 8333 O 789.117 2.31355 -1.42082 0
M  V30 8334 C 787.573 0.789099 -3.51143 0
M  V30 8335 C 787.181 -0.384578 -4.46346 0
M  V30 8336 C 788.925 1.38781 -4.01173 0
M  V30 8337 C 786.832 0.0121288 -5.91399 0
M  V30 8338 H 785.762 0.158691 -0.737111 0
M  V30 8339 H 788.413 -0.313974 -1.80794 0
M  V30 8340 H 786.795 1.57505 -3.6333 0
M  V30 8341 H 787.969 -1.16212 -4.45905 0
M  V30 8342 H 786.284 -0.896306 -4.06639 0
M  V30 8343 H 788.881 1.69746 -5.07041 0
M  V30 8344 H 789.224 2.30245 -3.46833 0
M  V30 8345 H 789.757 0.665364 -3.92196 0
M  V30 8346 H 786.496 -0.868917 -6.49715 0
M  V30 8347 H 786.016 0.754053 -5.95041 0
M  V30 8348 H 787.695 0.439949 -6.45502 0
M  V30 8349 N 787.827 1.57504 0.0551401 0
M  V30 8350 C 789.067 1.89895 0.756252 0
M  V30 8351 C 789.431 0.813983 1.73892 0
M  V30 8352 O 790.632 1.02145 2.48636 0
M  V30 8353 C 788.903 3.27494 1.43116 0
M  V30 8354 S 790.462 3.81669 2.16504 0
M  V30 8355 H 787.28 0.665173 0.251129 0
M  V30 8356 H 789.882 1.95496 0.0117193 0
M  V30 8357 H 788.586 4.04345 0.702391 0
M  V30 8358 H 788.117 3.25132 2.21479 0
M  V30 8359 H 790.132 3.58295 3.43277 0
M  V30 8360 N 789.305 -0.326896 1.54172 0
M  V30 8361 C 790.252 -1.40216 1.83325 0
M  V30 8362 C 791.222 -1.51538 0.680107 0
M  V30 8363 O 792.407 -1.66811 0.926206 0
M  V30 8364 C 789.547 -2.76626 2.0633 0
M  V30 8365 C 788.66 -2.73963 3.34019 0
M  V30 8366 C 787.795 -4.02198 3.47002 0
M  V30 8367 C 786.834 -3.93828 4.68578 0
M  V30 8368 N 785.971 -5.13787 4.78506 0
M  V30 8369 H 790.811 -1.14656 2.7506 0
M  V30 8370 H 788.348 -0.555089 1.36225 0
M  V30 8371 H 790.306 -3.55922 2.17659 0
M  V30 8372 H 788.936 -3.00503 1.1789 0
M  V30 8373 H 787.988 -1.86677 3.31445 0
M  V30 8374 H 789.3 -2.6366 4.2342 0
M  V30 8375 H 788.454 -4.89923 3.57855 0
M  V30 8376 H 787.193 -4.15302 2.55687 0
M  V30 8377 H 786.198 -3.04487 4.57786 0
M  V30 8378 H 787.423 -3.82292 5.61275 0
M  V30 8379 H 785.369 -5.27403 3.90105 0
M  V30 8380 H 785.286 -5.05807 5.61868 0
M  V30 8381 H 786.554 -6.03236 4.93686 0
M  V30 8382 N 790.784 -1.46188 -0.588786 0
M  V30 8383 C 791.716 -1.52319 -1.71265 0
M  V30 8384 C 792.729 -0.412096 -1.57498 0
M  V30 8385 O 793.918 -0.680146 -1.65034 0
M  V30 8386 C 791.018 -1.38164 -3.09458 0
M  V30 8387 C 790.191 -2.63284 -3.49286 0
M  V30 8388 C 789.25 -2.43415 -4.66514 0
M  V30 8389 O 788.276 -3.17113 -4.72682 0
M  V30 8390 N 789.478 -1.49187 -5.61002 0
M  V30 8391 H 792.243 -2.49219 -1.66463 0
M  V30 8392 H 789.804 -1.42167 -0.774601 0
M  V30 8393 H 791.796 -1.22653 -3.85666 0
M  V30 8394 H 790.366 -0.494678 -3.08661 0
M  V30 8395 H 789.586 -2.93779 -2.62845 0
M  V30 8396 H 790.874 -3.46413 -3.7266 0
M  V30 8397 H 790.272 -0.884027 -5.5875 0
M  V30 8398 H 788.829 -1.39642 -6.36666 0
M  V30 8399 N 792.262 0.832906 -1.33792 0
M  V30 8400 C 793.172 1.97514 -1.26592 0
M  V30 8401 C 794.188 1.73114 -0.175391 0
M  V30 8402 O 795.364 1.97387 -0.400062 0
M  V30 8403 C 792.429 3.31625 -1.01121 0
M  V30 8404 C 791.49 3.69101 -2.19233 0
M  V30 8405 C 790.723 4.96813 -1.94968 0
M  V30 8406 O 790.946 5.63208 -0.902955 0
M  V30 8407 O 789.88 5.31932 -2.8166 0
M  V30 8408 H 793.706 2.0653 -2.22664 0
M  V30 8409 H 791.291 0.966826 -1.13898 0
M  V30 8410 H 793.173 4.11968 -0.886571 0
M  V30 8411 H 791.848 3.23599 -0.080822 0
M  V30 8412 H 790.755 2.89243 -2.37253 0
M  V30 8413 H 792.088 3.818 -3.10628 0
M  V30 8414 N 793.74 1.17359 1.05189 0
M  V30 8415 C 794.65 0.904984 2.16442 0
M  V30 8416 C 795.666 -0.12686 1.73537 0
M  V30 8417 O 796.842 0.0524127 2.01332 0
M  V30 8418 C 793.907 0.422019 3.44122 0
M  V30 8419 C 792.968 1.52045 4.01473 0
M  V30 8420 C 792.201 1.06044 5.23059 0
M  V30 8421 O 792.424 -0.0854023 5.70336 0
M  V30 8422 O 791.358 1.85349 5.72651 0
M  V30 8423 H 795.184 1.8356 2.41949 0
M  V30 8424 H 792.769 0.95447 1.14936 0
M  V30 8425 H 794.651 0.160208 4.21095 0
M  V30 8426 H 793.326 -0.480444 3.20115 0
M  V30 8427 H 792.233 1.83615 3.25939 0
M  V30 8428 H 793.566 2.39863 4.29798 0
M  V30 8429 N 795.218 -1.23913 0.973828 0
M  V30 8430 C 796.165 -2.25132 0.508366 0
M  V30 8431 C 797.135 -1.59908 -0.449307 0
M  V30 8432 O 798.32 -1.87405 -0.358313 0
M  V30 8433 C 795.46 -3.4458 -0.189422 0
M  V30 8434 C 794.573 -4.24381 0.807738 0
M  V30 8435 C 793.708 -5.31131 0.0854315 0
M  V30 8436 C 792.747 -6.02635 1.07225 0
M  V30 8437 N 791.884 -7.01073 0.379535 0
M  V30 8438 H 796.724 -2.64313 1.37632 0
M  V30 8439 H 794.261 -1.29924 0.689802 0
M  V30 8440 H 796.219 -4.12706 -0.610733 0
M  V30 8441 H 794.849 -3.06218 -1.02129 0
M  V30 8442 H 793.901 -3.55735 1.34747 0
M  V30 8443 H 795.213 -4.73778 1.55998 0
M  V30 8444 H 794.367 -6.05422 -0.393572 0
M  V30 8445 H 793.106 -4.82658 -0.699461 0
M  V30 8446 H 792.111 -5.27143 1.56207 0
M  V30 8447 H 793.336 -6.53197 1.85769 0
M  V30 8448 H 791.282 -6.54862 -0.386269 0
M  V30 8449 H 791.199 -7.48382 1.07054 0
M  V30 8450 H 792.467 -7.79462 -0.0772984 0
M  V30 8451 N 796.696 -0.74468 -1.38897 0
M  V30 8452 C 797.626 -0.126355 -2.33158 0
M  V30 8453 C 798.607 0.713517 -1.54412 0
M  V30 8454 O 799.792 0.656523 -1.82766 0
M  V30 8455 C 796.922 0.774375 -3.38557 0
M  V30 8456 C 795.876 0.0379214 -4.27983 0
M  V30 8457 C 795.202 1.05631 -5.24162 0
M  V30 8458 C 796.502 -1.12523 -5.10035 0
M  V30 8459 H 798.196 -0.913744 -2.85116 0
M  V30 8460 H 795.742 -0.440847 -1.37086 0
M  V30 8461 H 797.695 1.21655 -4.03458 0
M  V30 8462 H 796.419 1.59399 -2.85061 0
M  V30 8463 H 795.078 -0.384733 -3.64576 0
M  V30 8464 H 794.726 1.86975 -4.66958 0
M  V30 8465 H 794.426 0.568261 -5.84846 0
M  V30 8466 H 795.95 1.49799 -5.9194 0
M  V30 8467 H 797.364 -0.761037 -5.68226 0
M  V30 8468 H 795.761 -1.54355 -5.79909 0
M  V30 8469 H 796.831 -1.94237 -4.44297 0
M  V30 8470 N 798.174 1.49689 -0.493057 0
M  V30 8471 C 799.422 2.02027 0.0541642 0
M  V30 8472 C 799.743 1.37554 1.38217 0
M  V30 8473 O 799.013 0.528174 1.88646 0
M  V30 8474 H 797.593 0.746646 0.0230069 0
M  V30 8475 H 800.255 1.83795 -0.648489 0
M  V30 8476 H 799.351 3.11523 0.189652 0
M  V30 8477 N 799.652 0.226554 1.55963 0
M  V30 8478 C 800.899 -0.403789 1.98433 0
M  V30 8479 C 801.227 -1.59416 1.1143 0
M  V30 8480 O 800.482 -1.95042 0.160389 0
M  V30 8481 C 800.781 -0.87642 3.46488 0
M  V30 8482 C 800.447 0.203973 4.50438 0
M  V30 8483 C 799.109 0.500754 4.78587 0
M  V30 8484 C 801.461 0.934396 5.12756 0
M  V30 8485 C 798.789 1.53239 5.66334 0
M  V30 8486 C 801.141 1.9554 6.0162 0
M  V30 8487 C 799.805 2.25905 6.28111 0
M  V30 8488 H 799.075 -0.147757 0.726119 0
M  V30 8489 H 801.722 0.330121 1.88633 0
M  V30 8490 H 800.027 -1.68918 3.53517 0
M  V30 8491 H 801.724 -1.37407 3.76723 0
M  V30 8492 H 798.314 -0.0374917 4.28584 0
M  V30 8493 H 802.498 0.718355 4.91074 0
M  V30 8494 H 797.754 1.77321 5.85122 0
M  V30 8495 H 801.928 2.52642 6.48957 0
M  V30 8496 H 799.555 3.05985 6.959 0
M  V30 8497 N 801.13 -1.57531 -0.0467866 0
M  V30 8498 C 802.06 -2.08425 -1.05268 0
M  V30 8499 C 803.041 -0.982941 -1.38825 0
M  V30 8500 O 804.226 -1.25716 -1.48018 0
M  V30 8501 C 801.356 -2.54897 -2.35891 0
M  V30 8502 C 800.31 -3.69132 -2.16623 0
M  V30 8503 C 799.636 -4.01747 -3.52851 0
M  V30 8504 C 800.936 -4.98243 -1.56689 0
M  V30 8505 H 802.63 -2.92716 -0.62908 0
M  V30 8506 H 800.176 -1.40816 -0.301156 0
M  V30 8507 H 802.129 -2.8912 -3.06574 0
M  V30 8508 H 800.853 -1.67666 -2.80278 0
M  V30 8509 H 799.512 -3.35231 -1.48377 0
M  V30 8510 H 799.16 -3.11608 -3.94853 0
M  V30 8511 H 798.86 -4.78681 -3.4079 0
M  V30 8512 H 800.384 -4.38487 -4.24925 0
M  V30 8513 H 801.798 -5.30535 -2.17268 0
M  V30 8514 H 800.195 -5.79669 -1.55255 0
M  V30 8515 H 801.265 -4.81986 -0.530827 0
M  V30 8516 N 802.608 0.318715 -1.54344 0
M  V30 8517 C 803.854 1.05765 -1.73037 0
M  V30 8518 C 804.187 1.87514 -0.505181 0
M  V30 8519 O 803.462 1.88021 0.497838 0
M  V30 8520 C 803.745 1.97836 -3.00887 0
M  V30 8521 C 803.598 1.19384 -4.33668 0
M  V30 8522 C 804.917 2.97285 -3.24514 0
M  V30 8523 H 802.036 0.383104 -0.629603 0
M  V30 8524 H 804.678 0.333864 -1.87044 0
M  V30 8525 H 802.828 2.59552 -2.89076 0
M  V30 8526 H 804.5 0.600906 -4.57369 0
M  V30 8527 H 802.743 0.496198 -4.30953 0
M  V30 8528 H 803.414 1.87014 -5.19355 0
M  V30 8529 H 805.89 2.45693 -3.35819 0
M  V30 8530 H 804.766 3.58887 -4.15321 0
M  V30 8531 H 805.027 3.70003 -2.41971 0
M  V30 8532 N 804.086 1.46499 0.581025 0
M  V30 8533 C 805.049 1.5677 1.672 0
M  V30 8534 C 806.049 0.444716 1.54528 0
M  V30 8535 O 807.239 0.709074 1.59116 0
M  V30 8536 C 804.371 1.4896 3.06633 0
M  V30 8537 H 805.564 2.54 1.5945 0
M  V30 8538 H 803.117 1.34334 0.799003 0
M  V30 8539 H 803.852 0.530168 3.19937 0
M  V30 8540 H 803.637 2.30439 3.17239 0
M  V30 8541 H 805.127 1.59237 3.86048 0
M  V30 8542 N 805.565 -0.825799 1.34232 0
M  V30 8543 C 806.512 -1.93651 1.2557 0
M  V30 8544 C 807.482 -1.65578 0.131536 0
M  V30 8545 O 808.667 -1.88231 0.312027 0
M  V30 8546 C 805.807 -3.29862 1.01415 0
M  V30 8547 C 804.92 -3.70247 2.22579 0
M  V30 8548 C 804.055 -4.95392 1.91731 0
M  V30 8549 C 803.094 -5.28349 3.09053 0
M  V30 8550 N 802.231 -6.44671 2.78107 0
M  V30 8551 H 807.071 -2.00392 2.20561 0
M  V30 8552 H 804.608 -0.980441 1.09662 0
M  V30 8553 H 806.566 -4.08356 0.854485 0
M  V30 8554 H 805.196 -3.22642 0.100936 0
M  V30 8555 H 804.248 -2.87169 2.49476 0
M  V30 8556 H 805.56 -3.90575 3.10246 0
M  V30 8557 H 804.714 -5.81665 1.72484 0
M  V30 8558 H 803.453 -4.77059 1.0132 0
M  V30 8559 H 802.458 -4.40574 3.289 0
M  V30 8560 H 803.683 -5.48622 4.00239 0
M  V30 8561 H 801.629 -6.278 1.9027 0
M  V30 8562 H 801.546 -6.65158 3.59306 0
M  V30 8563 H 802.814 -7.34022 2.62358 0
M  V30 8564 N 807.043 -1.17915 -1.04565 0
M  V30 8565 C 807.975 -0.859359 -2.1248 0
M  V30 8566 C 808.988 0.140922 -1.62189 0
M  V30 8567 O 810.177 -0.0862361 -1.78292 0
M  V30 8568 C 807.277 -0.261811 -3.37887 0
M  V30 8569 C 806.45 -1.30651 -4.17431 0
M  V30 8570 C 805.509 -0.725575 -5.21174 0
M  V30 8571 O 804.535 -1.39901 -5.51739 0
M  V30 8572 N 805.737 0.479351 -5.78517 0
M  V30 8573 H 808.502 -1.78818 -2.40508 0
M  V30 8574 H 806.063 -1.07885 -1.20716 0
M  V30 8575 H 808.055 0.14028 -4.04457 0
M  V30 8576 H 806.625 0.570929 -3.07342 0
M  V30 8577 H 805.845 -1.88412 -3.46258 0
M  V30 8578 H 807.133 -2.01099 -4.67372 0
M  V30 8579 H 806.531 1.04431 -5.55977 0
M  V30 8580 H 805.088 0.823427 -6.46578 0
M  V30 8581 N 808.521 1.23394 -0.980386 0
M  V30 8582 C 809.798 1.87242 -0.565667 0
M  V30 8583 C 810.178 1.88151 0.957197 0
M  V30 8584 O 809.526 1.36309 1.8339 0
M  V30 8585 C 809.736 3.28743 -1.17172 0
M  V30 8586 C 811.084 4.05335 -1.26446 0
M  V30 8587 O 812.108 3.37962 -1.12517 0
M  V30 8588 O 810.967 5.25908 -1.48604 0
M  V30 8589 H 808.061 0.80477 -0.190459 0
M  V30 8590 H 810.607 1.3127 -1.07547 0
M  V30 8591 H 809.379 3.22647 -2.21392 0
M  V30 8592 H 809.002 3.92305 -0.646739 0
M  V30 8593 N 809.999 0.752036 1.385 0
M  V30 8594 C 810.929 0.138718 2.33088 0
M  V30 8595 C 811.91 -0.705318 1.54788 0
M  V30 8596 O 813.095 -0.646821 1.83112 0
M  V30 8597 C 810.225 -0.75641 3.38963 0
M  V30 8598 C 809.179 -0.0152239 4.27997 0
M  V30 8599 C 808.505 -1.0285 5.24715 0
M  V30 8600 C 809.805 1.15226 5.09431 0
M  V30 8601 H 811.499 0.928852 2.84627 0
M  V30 8602 H 809.045 0.448111 1.3685 0
M  V30 8603 H 810.998 -1.19513 4.04097 0
M  V30 8604 H 809.722 -1.57885 2.85902 0
M  V30 8605 H 808.381 0.404061 3.64366 0
M  V30 8606 H 808.029 -1.84496 4.67943 0
M  V30 8607 H 807.729 -0.537238 5.85139 0
M  V30 8608 H 809.253 -1.46657 5.92726 0
M  V30 8609 H 810.667 0.791161 5.67815 0
M  V30 8610 H 809.064 1.57428 5.79082 0
M  V30 8611 H 810.134 1.9659 4.43261 0
M  V30 8612 N 811.477 -1.49425 0.500989 0
M  V30 8613 C 812.723 -2.02753 -0.0436 0
M  V30 8614 C 813.056 -1.37991 -1.36646 0
M  V30 8615 O 812.331 -0.515597 -1.87542 0
M  V30 8616 C 812.614 -3.59565 -0.19616 0
M  V30 8617 C 812.467 -4.34855 1.14982 0
M  V30 8618 C 813.786 -4.30014 -0.936795 0
M  V30 8619 H 810.905 -0.73686 -0.0143711 0
M  V30 8620 H 813.547 -1.78448 0.652397 0
M  V30 8621 H 811.697 -3.80405 -0.788959 0
M  V30 8622 H 813.369 -4.25512 1.7815 0
M  V30 8623 H 811.612 -3.97414 1.73911 0
M  V30 8624 H 812.283 -5.42933 0.996385 0
M  V30 8625 H 814.759 -4.1383 -0.434036 0
M  V30 8626 H 813.635 -5.39483 -1.01238 0
M  V30 8627 H 813.896 -3.95257 -1.9805 0
M  V30 8628 N 812.955 -0.234822 -1.55841 0
M  V30 8629 C 814.204 0.393685 -1.97821 0
M  V30 8630 C 814.517 1.59947 -1.1259 0
M  V30 8631 O 815.723 2.29835 -1.44528 0
M  V30 8632 C 814.179 0.751811 -3.5196 0
M  V30 8633 C 813.787 -0.431898 -4.45913 0
M  V30 8634 C 815.531 1.34518 -4.02623 0
M  V30 8635 C 813.438 -0.0505976 -5.91378 0
M  V30 8636 H 812.368 0.150864 -0.738753 0
M  V30 8637 H 815.019 -0.333132 -1.80451 0
M  V30 8638 H 813.401 1.53642 -3.6498 0
M  V30 8639 H 814.575 -1.20935 -4.44647 0
M  V30 8640 H 812.89 -0.939385 -4.05666 0
M  V30 8641 H 815.487 1.64359 -5.08813 0
M  V30 8642 H 815.83 2.26554 -3.49255 0
M  V30 8643 H 816.363 0.623729 -3.9288 0
M  V30 8644 H 813.102 -0.937779 -6.48757 0
M  V30 8645 H 812.622 0.690898 -5.95808 0
M  V30 8646 H 814.301 0.37146 -6.45933 0
M  V30 8647 N 814.433 1.57553 0.0384317 0
M  V30 8648 C 815.658 1.93485 0.746872 0
M  V30 8649 C 816.083 0.834069 1.68597 0
M  V30 8650 O 815.441 -0.210902 1.80069 0
M  V30 8651 C 815.489 3.28463 1.4881 0
M  V30 8652 O 814.593 3.20051 2.60079 0
M  V30 8653 H 813.934 0.632675 0.201539 0
M  V30 8654 H 816.464 2.046 -0.00329815 0
M  V30 8655 H 816.474 3.63132 1.86009 0
M  V30 8656 H 815.149 4.08147 0.799297 0
M  V30 8657 H 813.726 2.96998 2.25492 0
M  V30 8658 N 815.911 -0.310526 1.54511 0
M  V30 8659 C 816.841 -1.38757 1.878 0
M  V30 8660 C 817.822 -1.53353 0.735991 0
M  V30 8661 O 819.007 -1.67018 0.990887 0
M  V30 8662 C 816.137 -2.75327 2.11689 0
M  V30 8663 C 815.091 -2.75506 3.27537 0
M  V30 8664 C 814.417 -4.15275 3.36824 0
M  V30 8665 C 815.717 -2.38093 4.64875 0
M  V30 8666 H 817.411 -1.11146 2.78005 0
M  V30 8667 H 814.957 -0.533232 1.33763 0
M  V30 8668 H 816.91 -3.50752 2.33562 0
M  V30 8669 H 815.634 -3.04443 1.18245 0
M  V30 8670 H 814.293 -2.02538 3.05572 0
M  V30 8671 H 813.941 -4.41553 2.40915 0
M  V30 8672 H 813.641 -4.16299 4.14692 0
M  V30 8673 H 815.165 -4.92493 3.60947 0
M  V30 8674 H 816.579 -3.03232 4.86542 0
M  V30 8675 H 814.976 -2.50345 5.45387 0
M  V30 8676 H 816.046 -1.33227 4.66239 0
M  V30 8677 N 817.389 -1.46805 -0.573248 0
M  V30 8678 C 818.319 -1.60951 -1.69165 0
M  V30 8679 C 819.3 -0.45948 -1.63777 0
M  V30 8680 O 820.485 -0.68688 -1.81647 0
M  V30 8681 C 817.615 -1.60844 -3.07809 0
M  V30 8682 C 816.569 -2.74913 -3.28035 0
M  V30 8683 C 815.895 -2.59871 -4.67302 0
M  V30 8684 C 817.195 -4.16654 -3.14955 0
M  V30 8685 H 818.889 -2.54574 -1.57582 0
M  V30 8686 H 816.435 -1.22516 -0.756686 0
M  V30 8687 H 818.388 -1.69334 -3.85881 0
M  V30 8688 H 817.112 -0.637714 -3.20314 0
M  V30 8689 H 815.771 -2.65908 -2.52366 0
M  V30 8690 H 815.419 -1.60861 -4.76585 0
M  V30 8691 H 815.119 -3.36386 -4.81786 0
M  V30 8692 H 816.643 -2.70265 -5.4753 0
M  V30 8693 H 818.057 -4.26721 -3.82861 0
M  V30 8694 H 816.454 -4.93831 -3.40956 0
M  V30 8695 H 817.524 -4.36146 -2.11908 0
M  V30 8696 N 818.867 0.818669 -1.34668 0
M  V30 8697 C 820.278 1.39177 -1.24446 0
M  V30 8698 C 820.629 1.9578 0.128268 0
M  V30 8699 O 819.754 1.90382 1.02877 0
M  V30 8700 C 820.349 2.53012 -2.25323 0
M  V30 8701 C 818.908 3.06218 -2.18878 0
M  V30 8702 C 818.055 1.79112 -2.11694 0
M  V30 8703 H 821.006 0.622709 -1.45973 0
M  V30 8704 H 821.027 3.31226 -1.8727 0
M  V30 8705 H 820.539 2.11784 -3.25221 0
M  V30 8706 H 818.64 3.51939 -1.22351 0
M  V30 8707 H 818.753 3.65019 -3.10319 0
M  V30 8708 H 817.117 2.0018 -1.57481 0
M  V30 8709 H 817.9 1.40053 -3.13433 0
M  V30 8710 N 820.346 1.18468 1.03938 0
M  V30 8711 C 821.576 1.0043 1.80547 0
M  V30 8712 C 821.984 -0.450407 1.83761 0
M  V30 8713 O 821.327 -1.32463 1.27276 0
M  V30 8714 C 821.389 1.48437 3.27424 0
M  V30 8715 C 821.053 2.96372 3.47869 0
M  V30 8716 C 822.05 3.94217 3.38953 0
M  V30 8717 C 819.735 3.34831 3.74424 0
M  V30 8718 C 821.729 5.28517 3.56298 0
M  V30 8719 C 819.416 4.69294 3.91416 0
M  V30 8720 C 820.414 5.65946 3.82354 0
M  V30 8721 O 820.102 6.97974 3.98858 0
M  V30 8722 H 819.834 0.354853 0.575374 0
M  V30 8723 H 822.388 1.57473 1.31876 0
M  V30 8724 H 820.618 0.857601 3.7707 0
M  V30 8725 H 822.307 1.2677 3.85596 0
M  V30 8726 H 823.073 3.6585 3.184 0
M  V30 8727 H 818.952 2.60161 3.80575 0
M  V30 8728 H 822.496 6.03943 3.49141 0
M  V30 8729 H 818.393 4.97361 4.11463 0
M  V30 8730 H 819.161 7.04895 4.1601 0
M  V30 8731 N 821.824 -1.22873 0.986916 0
M  V30 8732 C 823.07 -1.91746 0.660401 0
M  V30 8733 C 823.403 -1.76738 -0.804812 0
M  V30 8734 O 822.678 -1.13246 -1.58131 0
M  V30 8735 C 822.961 -3.44156 1.05966 0
M  V30 8736 C 822.814 -3.68242 2.58298 0
M  V30 8737 C 824.133 -4.35874 0.60842 0
M  V30 8738 H 821.252 -0.696347 0.241391 0
M  V30 8739 H 823.894 -1.44867 1.22937 0
M  V30 8740 H 822.044 -3.84213 0.575534 0
M  V30 8741 H 823.716 -3.37626 3.14335 0
M  V30 8742 H 821.959 -3.12728 3.00638 0
M  V30 8743 H 822.63 -4.74956 2.81285 0
M  V30 8744 H 825.106 -4.03299 1.02417 0
M  V30 8745 H 823.982 -5.41201 0.916142 0
M  V30 8746 H 824.243 -4.39364 -0.491086 0
M  V30 8747 N 823.302 -0.75937 -1.38099 0
M  V30 8748 C 824.232 -0.151077 -2.33011 0
M  V30 8749 C 825.213 0.697099 -1.5516 0
M  V30 8750 O 826.398 0.637101 -1.83452 0
M  V30 8751 C 823.528 0.738423 -3.39359 0
M  V30 8752 C 822.482 -0.0074741 -4.27999 0
M  V30 8753 C 821.808 1.00066 -5.25253 0
M  V30 8754 C 823.108 -1.17926 -5.08813 0
M  V30 8755 H 824.802 -0.943933 -2.84131 0
M  V30 8756 H 822.348 -0.455362 -1.36611 0
M  V30 8757 H 824.301 1.17369 -4.04725 0
M  V30 8758 H 823.025 1.56366 -2.86735 0
M  V30 8759 H 821.684 -0.423379 -3.64147 0
M  V30 8760 H 821.332 1.82012 -4.68914 0
M  V30 8761 H 821.032 0.506199 -5.85416 0
M  V30 8762 H 822.556 1.43512 -5.93495 0
M  V30 8763 H 823.97 -0.821262 -5.67387 0
M  V30 8764 H 822.367 -1.60497 -5.78239 0
M  V30 8765 H 823.437 -1.98938 -4.42212 0
M  V30 8766 N 824.78 1.49157 -0.508906 0
M  V30 8767 C 825.73 2.26215 0.284705 0
M  V30 8768 C 826.714 1.31401 0.928586 0
M  V30 8769 O 827.906 1.56073 0.834877 0
M  V30 8770 C 825.035 3.15906 1.34382 0
M  V30 8771 C 824.121 4.18186 0.705785 0
M  V30 8772 N 824.512 5.05419 -0.196214 0
M  V30 8773 C 822.81 4.35425 0.965457 0
M  V30 8774 C 823.511 5.78977 -0.562222 0
M  V30 8775 N 822.487 5.43553 0.0717389 0
M  V30 8776 H 826.289 2.91033 -0.409543 0
M  V30 8777 H 823.803 1.59104 -0.325508 0
M  V30 8778 H 825.8 3.6975 1.92589 0
M  V30 8779 H 824.46 2.52642 2.03966 0
M  V30 8780 H 825.471 5.14781 -0.567526 0
M  V30 8781 H 822.148 3.83363 1.65346 0
M  V30 8782 H 823.538 6.59192 -1.30062 0
M  V30 8783 N 826.258 0.243083 1.55714 0
M  V30 8784 C 827.669 -0.260788 1.8487 0
M  V30 8785 C 828.02 -1.57879 1.16485 0
M  V30 8786 O 827.145 -2.1184 0.441908 0
M  V30 8787 C 827.74 -0.479954 3.35383 0
M  V30 8788 C 826.299 -0.928096 3.64778 0
M  V30 8789 C 825.446 -0.00316416 2.773 0
M  V30 8790 H 828.397 0.465743 1.51712 0
M  V30 8791 H 828.418 -1.32308 3.56756 0
M  V30 8792 H 827.93 0.479468 3.85127 0
M  V30 8793 H 826.031 -1.90012 3.20509 0
M  V30 8794 H 826.144 -0.7876 4.72582 0
M  V30 8795 H 824.508 -0.513849 2.49463 0
M  V30 8796 H 825.291 0.951562 3.29849 0
M  V30 8797 N 827.736 -1.57571 -0.0300757 0
M  V30 8798 C 828.666 -2.0953 -1.03051 0
M  V30 8799 C 829.647 -0.99761 -1.37774 0
M  V30 8800 O 830.832 -1.27279 -1.46676 0
M  V30 8801 C 827.962 -2.57385 -2.33174 0
M  V30 8802 C 826.916 -3.71409 -2.12696 0
M  V30 8803 C 826.242 -4.05467 -3.4857 0
M  V30 8804 C 827.542 -4.99877 -1.51396 0
M  V30 8805 H 829.236 -2.93367 -0.597999 0
M  V30 8806 H 826.782 -1.41127 -0.286203 0
M  V30 8807 H 828.735 -2.92355 -3.03491 0
M  V30 8808 H 827.459 -1.70629 -2.78484 0
M  V30 8809 H 826.118 -3.36786 -1.44813 0
M  V30 8810 H 825.766 -3.15779 -3.91526 0
M  V30 8811 H 825.466 -4.82269 -3.35694 0
M  V30 8812 H 826.99 -4.4297 -4.2025 0
M  V30 8813 H 828.404 -5.3281 -2.11629 0
M  V30 8814 H 826.801 -5.81283 -1.49098 0
M  V30 8815 H 827.871 -4.82522 -0.479676 0
M  V30 8816 N 829.214 0.302327 -1.54673 0
M  V30 8817 C 830.46 1.03924 -1.74149 0
M  V30 8818 C 830.793 1.86968 -0.525041 0
M  V30 8819 O 830.068 1.88538 0.477868 0
M  V30 8820 C 830.351 1.94633 -3.02969 0
M  V30 8821 C 830.204 1.14778 -4.34909 0
M  V30 8822 C 831.523 2.93826 -3.27649 0
M  V30 8823 H 828.642 0.376405 -0.633631 0
M  V30 8824 H 831.284 0.314007 -1.87387 0
M  V30 8825 H 829.434 2.56471 -2.91813 0
M  V30 8826 H 831.106 0.552363 -4.57981 0
M  V30 8827 H 829.349 0.450462 -4.31455 0
M  V30 8828 H 830.02 1.81495 -5.21309 0
M  V30 8829 H 832.496 2.42117 -3.38406 0
M  V30 8830 H 831.372 3.54462 -4.19104 0
M  V30 8831 H 831.633 3.67416 -2.45882 0
M  V30 8832 N 830.692 1.47107 0.565454 0
M  V30 8833 C 831.655 1.58535 1.65527 0
M  V30 8834 C 832.655 0.461081 1.54048 0
M  V30 8835 O 833.845 0.725911 1.58355 0
M  V30 8836 C 830.977 1.52204 3.05036 0
M  V30 8837 H 832.17 2.55676 1.56747 0
M  V30 8838 H 829.723 1.35174 0.78471 0
M  V30 8839 H 830.458 0.564071 3.19357 0
M  V30 8840 H 830.243 2.3379 3.14777 0
M  V30 8841 H 831.733 1.63322 3.84338 0
M  V30 8842 N 832.17 -0.811516 1.35101 0
M  V30 8843 C 833.117 -1.92308 1.27617 0
M  V30 8844 C 834.087 -1.6543 0.149091 0
M  V30 8845 O 835.272 -1.8789 0.331974 0
M  V30 8846 C 832.412 -3.28768 1.04908 0
M  V30 8847 C 831.525 -3.67865 2.26493 0
M  V30 8848 C 830.66 -4.9333 1.96974 0
M  V30 8849 C 829.699 -5.25041 3.1464 0
M  V30 8850 N 828.836 -6.41685 2.84929 0
M  V30 8851 H 833.676 -1.98041 2.22674 0
M  V30 8852 H 831.213 -0.968755 1.10696 0
M  V30 8853 H 833.171 -4.07426 0.897749 0
M  V30 8854 H 831.801 -3.22517 0.135151 0
M  V30 8855 H 830.853 -2.84507 2.52507 0
M  V30 8856 H 832.165 -3.87263 3.14371 0
M  V30 8857 H 831.319 -5.79803 1.78643 0
M  V30 8858 H 830.058 -4.75958 1.06374 0
M  V30 8859 H 829.063 -4.3706 3.33554 0
M  V30 8860 H 830.288 -5.44346 4.06035 0
M  V30 8861 H 828.234 -6.25747 1.96918 0
M  V30 8862 H 828.151 -6.6131 3.66341 0
M  V30 8863 H 829.419 -7.31198 2.70128 0
M  V30 8864 N 833.648 -1.19017 -1.03309 0
M  V30 8865 C 834.611 -0.926076 -2.09658 0
M  V30 8866 C 835.611 0.0917077 -1.60538 0
M  V30 8867 O 836.801 -0.142574 -1.73616 0
M  V30 8868 C 833.933 -0.390958 -3.38651 0
M  V30 8869 H 835.126 -1.86923 -2.3452 0
M  V30 8870 H 832.679 -1.00325 -1.19853 0
M  V30 8871 H 833.414 0.558446 -3.19456 0
M  V30 8872 H 833.199 -1.12474 -3.75622 0
M  V30 8873 H 834.689 -0.225131 -4.16993 0
M  V30 8874 N 835.127 1.22348 -0.993418 0
M  V30 8875 C 836.367 1.92835 -0.677779 0
M  V30 8876 C 836.731 1.75624 0.775893 0
M  V30 8877 O 837.932 2.40379 1.20297 0
M  V30 8878 C 836.203 3.40906 -1.07322 0
M  V30 8879 S 837.762 4.29966 -0.876032 0
M  V30 8880 H 834.58 0.666421 -0.247799 0
M  V30 8881 H 837.182 1.48133 -1.27581 0
M  V30 8882 H 835.886 3.50946 -2.12756 0
M  V30 8883 H 835.417 3.90618 -0.467015 0
M  V30 8884 H 837.432 4.95652 0.233162 0
M  V30 8885 N 836.605 0.766683 1.37694 0
M  V30 8886 C 837.854 0.325425 1.99057 0
M  V30 8887 C 838.167 -1.10275 1.61551 0
M  V30 8888 O 839.373 -1.64513 2.1598 0
M  V30 8889 C 837.829 0.530886 3.55963 0
M  V30 8890 C 837.437 1.96899 4.02411 0
M  V30 8891 C 839.181 0.152997 4.24224 0
M  V30 8892 C 837.088 2.12232 5.52007 0
M  V30 8893 H 836.018 0.117929 0.744721 0
M  V30 8894 H 838.669 0.945091 1.5729 0
M  V30 8895 H 837.051 -0.158162 3.95684 0
M  V30 8896 H 838.225 2.69258 3.73948 0
M  V30 8897 H 836.54 2.303 3.46916 0
M  V30 8898 H 839.137 0.24614 5.34133 0
M  V30 8899 H 839.48 -0.896096 4.06541 0
M  V30 8900 H 840.013 0.794398 3.89787 0
M  V30 8901 H 836.752 3.15442 5.7461 0
M  V30 8902 H 836.272 1.4435 5.82171 0
M  V30 8903 H 837.951 1.9185 6.17902 0
M  V30 8904 N 838.083 -1.48885 0.516809 0
M  V30 8905 C 839.311 -2.06892 -0.0184017 0
M  V30 8906 C 839.726 -1.37511 -1.29368 0
M  V30 8907 O 839.083 -0.458409 -1.76649 0
M  V30 8908 C 839.134 -3.60566 -0.259673 0
M  V30 8909 O 838.855 -4.27338 0.965065 0
M  V30 8910 C 840.356 -4.35331 -0.836751 0
M  V30 8911 H 837.576 -0.670433 0.0275743 0
M  V30 8912 H 840.12 -1.91455 0.718689 0
M  V30 8913 H 838.275 -3.75653 -0.94678 0
M  V30 8914 H 838.689 -5.19287 0.737647 0
M  V30 8915 H 840.163 -5.43675 -0.955065 0
M  V30 8916 H 840.64 -3.9887 -1.83845 0
M  V30 8917 H 841.246 -4.2489 -0.186622 0
M  V30 8918 N 839.561 -0.251338 -1.55583 0
M  V30 8919 C 840.509 0.662534 -2.22965 0
M  V30 8920 C 841.503 1.17662 -1.21869 0
M  V30 8921 O 842.709 1.133 -1.39868 0
M  V30 8922 H 839.084 0.232151 -0.715269 0
M  V30 8923 H 841.055 0.0711252 -2.98315 0
M  V30 8924 C 839.804 1.84646 -2.94621 0
M  V30 8925 H 839.127 1.46003 -3.72187 0
M  V30 8926 H 840.567 2.46303 -3.45124 0
M  V30 8927 C 839.026 2.72034 -1.98744 0
M  V30 8928 O 839.556 3.71695 -1.52335 0
M  V30 8929 N 837.762 2.38695 -1.6575 0
M  V30 8930 H 837.309 1.57702 -2.03685 0
M  V30 8931 H 837.267 2.9744 -1.01867 0
M  V30 8932 N 841.039 1.57585 0.0217189 0
M  V30 8933 C 841.986 2.07036 1.02004 0
M  V30 8934 C 842.956 0.96106 1.35473 0
M  V30 8935 O 844.141 1.23211 1.45684 0
M  V30 8936 C 841.281 2.56056 2.31364 0
M  V30 8937 C 840.394 3.80805 2.03989 0
M  V30 8938 C 839.529 4.18409 3.27272 0
M  V30 8939 C 838.568 5.36055 2.95486 0
M  V30 8940 N 837.705 5.69056 4.11242 0
M  V30 8941 H 842.545 2.92073 0.591396 0
M  V30 8942 H 840.082 1.44403 0.280384 0
M  V30 8943 H 842.04 2.82548 3.06957 0
M  V30 8944 H 840.67 1.73925 2.71937 0
M  V30 8945 H 839.722 3.61354 1.1886 0
M  V30 8946 H 841.034 4.66512 1.76546 0
M  V30 8947 H 840.188 4.46068 4.11228 0
M  V30 8948 H 838.927 3.31369 3.57835 0
M  V30 8949 H 837.932 5.08142 2.09933 0
M  V30 8950 H 839.157 6.24755 2.66193 0
M  V30 8951 H 837.103 4.84974 4.41742 0
M  V30 8952 H 837.02 6.49288 3.87247 0
M  V30 8953 H 838.288 6.01295 4.96049 0
M  V30 8954 N 842.517 -0.29412 1.54831 0
M  V30 8955 C 843.763 -1.02999 1.74697 0
M  V30 8956 C 844.096 -1.86687 0.534949 0
M  V30 8957 O 843.371 -1.88789 -0.467863 0
M  V30 8958 C 843.654 -1.93024 3.03996 0
M  V30 8959 C 843.507 -1.1247 4.35512 0
M  V30 8960 C 844.826 -2.92085 3.29203 0
M  V30 8961 H 841.945 -0.373039 0.635618 0
M  V30 8962 H 844.587 -0.304065 1.87551 0
M  V30 8963 H 842.737 -2.5492 2.93169 0
M  V30 8964 H 844.409 -0.528067 4.58268 0
M  V30 8965 H 842.652 -0.427574 4.31688 0
M  V30 8966 H 843.323 -1.78728 5.22265 0
M  V30 8967 H 845.799 -2.40319 3.39685 0
M  V30 8968 H 844.675 -3.52234 4.20978 0
M  V30 8969 H 844.936 -3.66107 2.47827 0
M  V30 8970 N 843.995 -1.47404 -0.557645 0
M  V30 8971 C 844.943 -1.60265 -1.68576 0
M  V30 8972 C 845.937 -0.469982 -1.6275 0
M  V30 8973 O 847.143 -0.647764 -1.67941 0
M  V30 8974 H 843.518 -0.504353 -0.557792 0
M  V30 8975 H 845.489 -2.55066 -1.54867 0
M  V30 8976 C 844.238 -1.63369 -3.0693 0
M  V30 8977 H 843.561 -2.49874 -3.12095 0
M  V30 8978 H 845.001 -1.76417 -3.85556 0
M  V30 8979 C 843.46 -0.366921 -3.34896 0
M  V30 8980 O 843.99 0.53218 -3.98159 0
M  V30 8981 N 842.196 -0.247082 -2.89548 0
M  V30 8982 H 841.743 -0.979669 -2.38244 0
M  V30 8983 H 841.701 0.599552 -3.0863 0
M  V30 8984 N 845.473 0.80434 -1.35529 0
M  V30 8985 C 846.406 1.92222 -1.22987 0
M  V30 8986 C 847.384 1.62177 -0.117269 0
M  V30 8987 O 848.568 1.86321 -0.285761 0
M  V30 8988 C 845.695 3.26682 -0.894223 0
M  V30 8989 C 844.741 3.75674 -2.01919 0
M  V30 8990 S 845.574 3.93209 -3.6352 0
M  V30 8991 C 846.73 5.30568 -3.32037 0
M  V30 8992 H 846.963 2.02567 -2.1761 0
M  V30 8993 H 844.496 0.961961 -1.20771 0
M  V30 8994 H 846.454 4.04359 -0.707371 0
M  V30 8995 H 845.115 3.14082 0.0339729 0
M  V30 8996 H 844.308 4.73065 -1.73854 0
M  V30 8997 H 843.91 3.05001 -2.16449 0
M  V30 8998 H 846.202 6.14637 -2.85004 0
M  V30 8999 H 847.145 5.63628 -4.28636 0
M  V30 9000 H 847.553 4.96961 -2.6775 0
M  V30 9001 N 846.951 1.19563 1.02676 0
M  V30 9002 C 848.197 1.00105 1.76371 0
M  V30 9003 C 848.53 -0.466823 1.88506 0
M  V30 9004 O 847.805 -1.34665 1.40341 0
M  V30 9005 C 848.088 1.67321 3.18866 0
M  V30 9006 C 847.941 3.21486 3.1459 0
M  V30 9007 C 849.26 1.39794 4.17308 0
M  V30 9008 H 846.379 0.365075 0.640226 0
M  V30 9009 H 849.021 1.47433 1.19848 0
M  V30 9010 H 847.171 1.27081 3.67128 0
M  V30 9011 H 848.843 3.70953 2.7421 0
M  V30 9012 H 847.086 3.5292 2.52249 0
M  V30 9013 H 847.757 3.63665 4.15273 0
M  V30 9014 H 850.233 1.74685 3.77657 0
M  V30 9015 H 849.109 1.89371 5.15199 0
M  V30 9016 H 849.37 0.323505 4.40915 0
M  V30 9017 N 848.429 -1.21819 0.999893 0
M  V30 9018 C 849.657 -1.94758 0.698359 0
M  V30 9019 C 850.072 -1.73771 -0.738183 0
M  V30 9020 O 849.429 -1.04113 -1.49889 0
M  V30 9021 C 849.48 -3.47292 1.00353 0
M  V30 9022 O 849.201 -3.67579 2.38363 0
M  V30 9023 C 850.702 -4.37403 0.72068 0
M  V30 9024 H 847.922 -0.619512 0.257771 0
M  V30 9025 H 850.466 -1.54778 1.33656 0
M  V30 9026 H 848.621 -3.85213 0.411018 0
M  V30 9027 H 849.035 -4.61719 2.48829 0
M  V30 9028 H 850.509 -5.43151 0.984422 0
M  V30 9029 H 850.986 -4.3784 -0.345309 0
M  V30 9030 H 851.592 -4.05119 1.29456 0
M  V30 9031 N 849.908 -0.773975 -1.37286 0
M  V30 9032 C 850.871 -0.167974 -2.28584 0
M  V30 9033 C 851.871 0.625662 -1.48129 0
M  V30 9034 O 853.061 0.448924 -1.68316 0
M  V30 9035 C 850.193 0.769364 -3.32105 0
M  V30 9036 H 851.386 -0.972806 -2.83684 0
M  V30 9037 H 848.939 -0.542335 -1.46589 0
M  V30 9038 H 849.674 1.59912 -2.82132 0
M  V30 9039 H 849.459 0.202419 -3.91577 0
M  V30 9040 H 850.949 1.18872 -4.00324 0
M  V30 9041 N 851.386 1.48609 -0.524698 0
M  V30 9042 C 852.611 2.07398 0.00952139 0
M  V30 9043 C 853.036 1.37939 1.27884 0
M  V30 9044 O 852.394 0.443633 1.75788 0
M  V30 9045 C 852.442 3.59916 0.221956 0
M  V30 9046 O 851.546 3.91647 1.29175 0
M  V30 9047 H 850.887 0.662981 -0.0367729 0
M  V30 9048 H 853.417 1.91092 -0.7311 0
M  V30 9049 H 853.427 4.05552 0.446236 0
M  V30 9050 H 852.102 4.09876 -0.705306 0
M  V30 9051 H 850.679 3.57796 1.05055 0
M  V30 9052 N 852.864 0.259585 1.55447 0
M  V30 9053 C 854.094 -0.364863 2.03353 0
M  V30 9054 C 854.502 -1.5116 1.13786 0
M  V30 9055 O 853.845 -1.83109 0.147283 0
M  V30 9056 C 853.907 -0.922587 3.4746 0
M  V30 9057 C 853.571 0.0935207 4.56904 0
M  V30 9058 C 854.568 0.907571 5.11917 0
M  V30 9059 C 852.253 0.223276 5.01804 0
M  V30 9060 C 854.247 1.83771 6.10333 0
M  V30 9061 C 851.934 1.15691 6.00049 0
M  V30 9062 C 852.932 1.96264 6.54194 0
M  V30 9063 O 852.62 2.88052 7.50521 0
M  V30 9064 H 852.352 -0.0893313 0.670072 0
M  V30 9065 H 854.906 0.384821 2.01763 0
M  V30 9066 H 853.136 -1.72206 3.4624 0
M  V30 9067 H 854.825 -1.45846 3.78792 0
M  V30 9068 H 855.591 0.817979 4.78052 0
M  V30 9069 H 851.47 -0.393834 4.59315 0
M  V30 9070 H 855.014 2.46703 6.52521 0
M  V30 9071 H 850.911 1.24738 6.33333 0
M  V30 9072 H 851.679 2.82557 7.68182 0
M  V30 9073 N 854.342 -1.57594 -0.0133615 0
M  V30 9074 C 855.591 -1.8916 -0.700103 0
M  V30 9075 C 855.904 -0.860147 -1.75673 0
M  V30 9076 O 857.11 -1.06556 -2.49716 0
M  V30 9077 C 855.566 -3.35742 -1.29635 0
M  V30 9078 C 855.174 -4.47154 -0.275249 0
M  V30 9079 C 856.918 -3.76436 -1.96205 0
M  V30 9080 C 854.825 -5.84805 -0.880726 0
M  V30 9081 H 853.755 -0.705805 -0.265247 0
M  V30 9082 H 856.406 -1.83445 0.044993 0
M  V30 9083 H 854.788 -3.36252 -2.09167 0
M  V30 9084 H 855.962 -4.58139 0.494506 0
M  V30 9085 H 854.277 -4.15394 0.289256 0
M  V30 9086 H 856.874 -4.76606 -2.42386 0
M  V30 9087 H 857.217 -3.09249 -2.78695 0
M  V30 9088 H 857.75 -3.78168 -1.23426 0
M  V30 9089 H 854.489 -6.55431 -0.0949013 0
M  V30 9090 H 854.009 -5.7751 -1.61995 0
M  V30 9091 H 855.688 -6.32038 -1.38338 0
M  V30 9092 N 855.82 0.285905 -1.54985 0
M  V30 9093 C 857.048 1.03776 -1.78992 0
M  V30 9094 C 857.463 1.80402 -0.556814 0
M  V30 9095 O 856.82 1.76242 0.473801 0
M  V30 9096 C 856.871 2.0065 -3.00702 0
M  V30 9097 O 856.592 1.27131 -4.19249 0
M  V30 9098 C 858.093 2.87753 -3.37214 0
M  V30 9099 H 855.313 0.307126 -0.596586 0
M  V30 9100 H 857.857 0.3206 -2.01971 0
M  V30 9101 H 856.012 2.67847 -2.79887 0
M  V30 9102 H 856.426 1.92316 -4.8797 0
M  V30 9103 H 857.9 3.51548 -4.2558 0
M  V30 9104 H 858.377 3.56848 -2.56039 0
M  V30 9105 H 858.983 2.26065 -3.60242 0
M  V30 9106 N 857.298 1.47698 0.54982 0
M  V30 9107 C 858.709 1.48474 1.13191 0
M  V30 9108 C 859.06 0.243504 1.94683 0
M  V30 9109 O 858.185 -0.651009 2.06375 0
M  V30 9110 C 858.78 2.69022 2.05944 0
M  V30 9111 C 857.339 2.72733 2.5941 0
M  V30 9112 C 856.486 2.41691 1.35944 0
M  V30 9113 H 859.437 1.55101 0.336048 0
M  V30 9114 H 859.458 2.46412 2.89934 0
M  V30 9115 H 858.97 3.59345 1.46605 0
M  V30 9116 H 857.071 1.86568 3.22526 0
M  V30 9117 H 857.184 3.73628 2.99899 0
M  V30 9118 H 855.548 1.92428 1.66864 0
M  V30 9119 H 856.331 3.34231 0.783869 0
M  V30 9120 N 858.776 -0.797141 1.35954 0
M  V30 9121 C 859.739 -1.89104 1.29508 0
M  V30 9122 C 860.739 -1.59495 0.204444 0
M  V30 9123 O 861.929 -1.68051 0.458746 0
M  V30 9124 C 859.061 -3.25726 1.00576 0
M  V30 9125 H 860.254 -1.96237 2.26785 0
M  V30 9126 H 857.807 -0.994075 1.20614 0
M  V30 9127 H 858.542 -3.24279 0.0372519 0
M  V30 9128 H 858.327 -3.48604 1.79492 0
M  V30 9129 H 859.817 -4.0578 0.986508 0
M  V30 9130 N 860.254 -1.20106 -1.0204 0
M  V30 9131 C 861.184 -0.970301 -2.12385 0
M  V30 9132 C 862.165 0.099378 -1.69809 0
M  V30 9133 O 863.35 -0.057365 -1.94115 0
M  V30 9134 C 860.48 -0.517431 -3.43424 0
M  V30 9135 C 859.434 -1.52992 -3.99722 0
M  V30 9136 C 858.76 -0.933817 -5.26483 0
M  V30 9137 C 860.06 -2.91257 -4.33551 0
M  V30 9138 H 861.754 -1.89316 -2.31948 0
M  V30 9139 H 859.3 -0.911655 -1.11467 0
M  V30 9140 H 861.253 -0.343243 -4.2 0
M  V30 9141 H 859.977 0.441049 -3.23608 0
M  V30 9142 H 858.636 -1.6914 -3.2525 0
M  V30 9143 H 858.284 0.0324763 -5.0299 0
M  V30 9144 H 857.984 -1.60999 -5.65113 0
M  V30 9145 H 859.508 -0.770614 -6.05718 0
M  V30 9146 H 860.922 -2.78642 -5.0103 0
M  V30 9147 H 859.319 -3.55745 -4.83286 0
M  V30 9148 H 860.389 -3.43269 -3.42483 0
M  V30 9149 N 861.732 1.21287 -1.00634 0
M  V30 9150 C 862.679 2.23705 -0.567876 0
M  V30 9151 C 863.649 1.61043 0.406753 0
M  V30 9152 O 864.834 1.88289 0.308499 0
M  V30 9153 C 861.974 3.44961 0.097996 0
M  V30 9154 C 861.087 4.22091 -0.919972 0
M  V30 9155 C 860.222 5.30718 -0.226222 0
M  V30 9156 C 859.261 5.99581 -1.23165 0
M  V30 9157 N 858.398 6.99821 -0.565278 0
M  V30 9158 H 863.238 2.60571 -1.44592 0
M  V30 9159 H 860.775 1.28049 -0.724006 0
M  V30 9160 H 862.733 4.1418 0.501097 0
M  V30 9161 H 861.363 3.08818 0.939744 0
M  V30 9162 H 860.415 3.52038 -1.44131 0
M  V30 9163 H 861.727 4.69476 -1.68505 0
M  V30 9164 H 860.881 6.06253 0.232917 0
M  V30 9165 H 859.62 4.84343 0.571247 0
M  V30 9166 H 858.625 5.22816 -1.70128 0
M  V30 9167 H 859.85 6.48042 -2.03022 0
M  V30 9168 H 857.796 6.55656 0.212508 0
M  V30 9169 H 857.713 7.4528 -1.26858 0
M  V30 9170 H 858.981 7.79393 -0.129389 0
M  V30 9171 N 863.21 0.781244 1.36873 0
M  V30 9172 C 864.12 0.174981 2.33947 0
M  V30 9173 C 865.136 -0.668512 1.60645 0
M  V30 9174 O 866.312 -0.586213 1.9268 0
M  V30 9175 C 863.377 -0.686557 3.39834 0
M  V30 9176 C 862.438 0.174489 4.28945 0
M  V30 9177 C 861.671 -0.646024 5.29776 0
M  V30 9178 O 861.894 -1.88254 5.38439 0
M  V30 9179 O 860.828 -0.0502214 6.01879 0
M  V30 9180 H 864.654 0.977382 2.87543 0
M  V30 9181 H 862.239 0.542559 1.392 0
M  V30 9182 H 864.121 -1.1781 4.04597 0
M  V30 9183 H 862.796 -1.46699 2.8855 0
M  V30 9184 H 861.703 0.712604 3.6725 0
M  V30 9185 H 863.036 0.918232 4.83559 0
M  V30 9186 N 864.689 -1.48329 0.532571 0
M  V30 9187 C 865.619 -2.32485 -0.217511 0
M  V30 9188 C 866.6 -1.42255 -0.932598 0
M  V30 9189 O 867.785 -1.7114 -0.917873 0
M  V30 9190 C 864.915 -3.23509 -1.26329 0
M  V30 9191 C 863.869 -4.22784 -0.666191 0
M  V30 9192 C 863.195 -5.0296 -1.81482 0
M  V30 9193 C 864.495 -5.21031 0.363813 0
M  V30 9194 H 866.189 -2.95445 0.485014 0
M  V30 9195 H 863.735 -1.42075 0.234694 0
M  V30 9196 H 865.688 -3.81211 -1.79601 0
M  V30 9197 H 864.412 -2.58554 -1.99543 0
M  V30 9198 H 863.071 -3.66272 -0.15498 0
M  V30 9199 H 862.719 -4.34427 -2.5354 0
M  V30 9200 H 862.419 -5.70154 -1.4212 0
M  V30 9201 H 863.943 -5.63514 -2.35126 0
M  V30 9202 H 865.357 -5.73241 -0.0819079 0
M  V30 9203 H 863.754 -5.96292 0.674956 0
M  V30 9204 H 864.824 -4.6801 1.26865 0
M  V30 9205 N 866.167 -0.267825 -1.55308 0
M  V30 9206 C 867.077 0.633055 -2.25897 0
M  V30 9207 C 868.093 1.17613 -1.28231 0
M  V30 9208 O 869.269 1.20797 -1.61153 0
M  V30 9209 C 866.334 1.80397 -2.96071 0
M  V30 9210 C 865.395 1.29829 -4.09198 0
M  V30 9211 C 864.628 2.4134 -4.76016 0
M  V30 9212 O 864.851 3.60537 -4.42006 0
M  V30 9213 O 863.785 2.09909 -5.64111 0
M  V30 9214 H 867.611 0.0614381 -3.03638 0
M  V30 9215 H 865.196 -0.0355072 -1.49358 0
M  V30 9216 H 867.078 2.48685 -3.40197 0
M  V30 9217 H 865.753 2.36281 -2.21253 0
M  V30 9218 H 864.66 0.582086 -3.69544 0
M  V30 9219 H 865.993 0.785288 -4.85895 0
M  V30 9220 N 867.645 1.57599 0.00500368 0
M  V30 9221 C 868.592 2.08106 0.998025 0
M  V30 9222 C 869.562 0.975374 1.34446 0
M  V30 9223 O 870.747 1.24749 1.44369 0
M  V30 9224 C 867.887 2.58496 2.28635 0
M  V30 9225 C 867 3.82947 1.99939 0
M  V30 9226 C 866.135 4.21857 3.22816 0
M  V30 9227 C 865.174 5.39159 2.89783 0
M  V30 9228 N 864.311 5.73386 4.05183 0
M  V30 9229 H 869.151 2.92684 0.560385 0
M  V30 9230 H 866.688 1.44692 0.265053 0
M  V30 9231 H 868.646 2.85787 3.03943 0
M  V30 9232 H 867.276 1.768 2.70077 0
M  V30 9233 H 866.328 3.62594 1.1502 0
M  V30 9234 H 867.64 4.68358 1.71588 0
M  V30 9235 H 866.794 4.50404 4.06474 0
M  V30 9236 H 865.533 3.35145 3.54301 0
M  V30 9237 H 864.538 5.1034 2.04532 0
M  V30 9238 H 865.763 6.27543 2.59551 0
M  V30 9239 H 863.709 4.89632 4.36574 0
M  V30 9240 H 863.626 6.53359 3.80339 0
M  V30 9241 H 864.894 6.06522 4.89644 0
M  V30 9242 N 869.123 -0.277682 1.55134 0
M  V30 9243 C 870.348 -1.03254 1.7987 0
M  V30 9244 C 870.773 -1.79324 0.567861 0
M  V30 9245 O 870.131 -1.74764 -0.4824 0
M  V30 9246 C 870.179 -1.9705 3.02 0
M  V30 9247 O 869.283 -3.05744 2.76757 0
M  V30 9248 H 868.624 -0.295447 0.594649 0
M  V30 9249 H 871.154 -0.308013 2.02268 0
M  V30 9250 H 871.164 -2.3909 3.30606 0
M  V30 9251 H 869.839 -1.41094 3.91236 0
M  V30 9252 H 868.416 -2.68052 2.59235 0
M  V30 9253 N 870.601 -1.47988 -0.541979 0
M  V30 9254 C 871.847 -1.55623 -1.30036 0
M  V30 9255 C 872.18 -0.224254 -1.92901 0
M  V30 9256 O 871.455 0.768629 -1.78668 0
M  V30 9257 C 871.738 -2.68562 -2.39888 0
M  V30 9258 C 871.591 -4.11426 -1.81792 0
M  V30 9259 C 872.91 -2.77325 -3.41729 0
M  V30 9260 H 870.029 -0.566498 -0.471433 0
M  V30 9261 H 872.671 -1.8011 -0.604998 0
M  V30 9262 H 870.821 -2.47814 -2.992 0
M  V30 9263 H 872.493 -4.43581 -1.26624 0
M  V30 9264 H 870.736 -4.18989 -1.12386 0
M  V30 9265 H 871.407 -4.8625 -2.61276 0
M  V30 9266 H 873.883 -2.96085 -2.92357 0
M  V30 9267 H 872.759 -3.58097 -4.16002 0
M  V30 9268 H 873.02 -1.84995 -4.01534 0
M  V30 9269 N 872.079 0.78992 -1.36375 0
M  V30 9270 C 872.989 1.93386 -1.32812 0
M  V30 9271 C 874.005 1.72468 -0.230377 0
M  V30 9272 O 875.181 1.96014 -0.462657 0
M  V30 9273 C 872.246 3.2824 -1.11621 0
M  V30 9274 C 871.307 3.61939 -2.30865 0
M  V30 9275 C 870.54 4.90359 -2.10675 0
M  V30 9276 O 870.763 5.6005 -1.08168 0
M  V30 9277 O 869.697 5.22702 -2.9844 0
M  V30 9278 H 873.523 1.99342 -2.29121 0
M  V30 9279 H 871.108 0.9301 -1.16917 0
M  V30 9280 H 872.99 4.08939 -1.01719 0
M  V30 9281 H 871.665 3.23178 -0.183732 0
M  V30 9282 H 870.572 2.81549 -2.46335 0
M  V30 9283 H 871.905 3.71725 -3.22617 0
M  V30 9284 N 873.557 1.20646 1.01402 0
M  V30 9285 C 874.834 0.927176 1.72229 0
M  V30 9286 C 875.214 -0.563382 2.03443 0
M  V30 9287 O 874.562 -1.52576 1.70096 0
M  V30 9288 C 874.772 1.80285 2.98828 0
M  V30 9289 C 876.12 2.04624 3.72041 0
M  V30 9290 O 877.144 1.77559 3.0879 0
M  V30 9291 O 876.003 2.50347 4.85787 0
M  V30 9292 H 873.097 0.346891 0.75073 0
M  V30 9293 H 875.643 1.31532 1.07227 0
M  V30 9294 H 874.415 2.81204 2.72102 0
M  V30 9295 H 874.038 1.41495 3.71571 0
M  V30 9296 N 875.035 -1.20752 1.01276 0
M  V30 9297 C 875.998 -2.2162 0.584583 0
M  V30 9298 C 876.998 -1.57094 -0.343215 0
M  V30 9299 O 878.188 -1.73696 -0.132433 0
M  V30 9300 C 875.32 -3.40583 -0.146872 0
M  V30 9301 H 876.513 -2.61015 1.47686 0
M  V30 9302 H 874.066 -1.34148 0.802123 0
M  V30 9303 H 874.801 -3.06686 -1.05424 0
M  V30 9304 H 874.586 -3.88642 0.51958 0
M  V30 9305 H 876.076 -4.15339 -0.433924 0
M  V30 9306 N 876.513 -0.788492 -1.36457 0
M  V30 9307 C 877.761 -0.359749 -1.98872 0
M  V30 9308 C 878.082 1.07197 -1.62892 0
M  V30 9309 O 877.352 1.73875 -0.902463 0
M  V30 9310 H 875.932 -0.130029 -0.735596 0
M  V30 9311 H 878.594 -1.01033 -1.66668 0
M  V30 9312 H 877.69 -0.450835 -3.08827 0
M  V30 9313 N 877.991 1.48044 -0.54043 0
M  V30 9314 C 879.24 2.01698 -0.00809961 0
M  V30 9315 C 879.553 1.42184 1.34325 0
M  V30 9316 O 880.759 1.87398 1.96454 0
M  V30 9317 C 879.215 3.59882 0.035933 0
M  V30 9318 C 878.823 4.28384 -1.31115 0
M  V30 9319 C 880.567 4.21346 0.51654 0
M  V30 9320 C 878.474 5.78529 -1.22714 0
M  V30 9321 H 877.404 0.754 0.000742174 0
M  V30 9322 H 880.055 1.70204 -0.685775 0
M  V30 9323 H 878.437 3.88264 0.778906 0
M  V30 9324 H 879.611 4.11663 -2.07051 0
M  V30 9325 H 877.926 3.78837 -1.72834 0
M  V30 9326 H 880.523 5.31351 0.597529 0
M  V30 9327 H 880.866 3.87373 1.52473 0
M  V30 9328 H 881.399 3.97432 -0.171064 0
M  V30 9329 H 878.138 6.17093 -2.21081 0
M  V30 9330 H 877.658 5.97634 -0.50931 0
M  V30 9331 H 879.337 6.40395 -0.92216 0
M  V30 9332 N 879.47 0.276058 1.55163 0
M  V30 9333 C 880.698 -0.343772 2.04024 0
M  V30 9334 C 881.113 -1.49397 1.15438 0
M  V30 9335 O 880.47 -1.81662 0.174692 0
M  V30 9336 C 880.521 -0.823885 3.51986 0
M  V30 9337 O 880.242 0.280507 4.37201 0
M  V30 9338 C 881.743 -1.51143 4.16738 0
M  V30 9339 H 878.963 -0.07828 0.666418 0
M  V30 9340 H 881.507 0.408427 2.0038 0
M  V30 9341 H 879.662 -1.52617 3.56071 0
M  V30 9342 H 880.076 -0.0887831 5.24425 0
M  V30 9343 H 881.55 -1.79878 5.2187 0
M  V30 9344 H 882.027 -2.44327 3.64967 0
M  V30 9345 H 882.633 -0.852975 4.16659 0
M  V30 9346 N 880.948 -1.576 0.00335426 0
M  V30 9347 C 882.197 -1.89892 -0.680001 0
M  V30 9348 C 882.51 -0.878731 -1.7475 0
M  V30 9349 O 883.716 -1.09199 -2.48572 0
M  V30 9350 C 882.172 -3.37098 -1.26066 0
M  V30 9351 C 881.78 -4.4742 -0.227807 0
M  V30 9352 C 883.524 -3.78495 -1.92202 0
M  V30 9353 C 881.431 -5.85706 -0.81865 0
M  V30 9354 H 880.361 -0.708578 -0.257746 0
M  V30 9355 H 883.012 -1.83387 0.0644472 0
M  V30 9356 H 881.394 -3.38451 -2.05589 0
M  V30 9357 H 882.568 -4.57589 0.54307 0
M  V30 9358 H 880.883 -4.15064 0.333297 0
M  V30 9359 H 883.48 -4.7915 -2.37318 0
M  V30 9360 H 883.823 -3.12187 -2.75399 0
M  V30 9361 H 884.356 -3.79456 -1.19408 0
M  V30 9362 H 881.095 -6.55495 -0.0253787 0
M  V30 9363 H 880.615 -5.79196 -1.55861 0
M  V30 9364 H 882.294 -6.33469 -1.31627 0
M  V30 9365 N 882.426 0.269451 -1.5528 0
M  V30 9366 C 883.675 0.998381 -1.75258 0
M  V30 9367 C 883.988 1.87321 -0.563034 0
M  V30 9368 O 885.194 2.63719 -0.645313 0
M  V30 9369 C 883.65 1.82505 -3.10193 0
M  V30 9370 C 883.258 0.99871 -4.36726 0
M  V30 9371 C 885.002 2.54807 -3.3952 0
M  V30 9372 C 882.909 1.81997 -5.627 0
M  V30 9373 H 881.839 0.376488 -0.653278 0
M  V30 9374 H 884.49 0.253909 -1.81735 0
M  V30 9375 H 882.872 2.61061 -2.97763 0
M  V30 9376 H 884.046 0.257064 -4.60082 0
M  V30 9377 H 882.361 0.390074 -4.14569 0
M  V30 9378 H 884.958 3.16662 -4.30847 0
M  V30 9379 H 885.301 3.25273 -2.59813 0
M  V30 9380 H 885.834 1.83278 -3.53064 0
M  V30 9381 H 882.573 1.15945 -6.45164 0
M  V30 9382 H 882.093 2.53749 -5.43481 0
M  V30 9383 H 883.772 2.39274 -6.0113 0
M  V30 9384 N 883.904 1.48273 0.534124 0
M  V30 9385 C 885.152 1.55771 1.28762 0
M  V30 9386 C 885.473 0.231575 1.9362 0
M  V30 9387 O 884.743 -0.746533 1.81118 0
M  V30 9388 H 883.323 0.573851 0.47823 0
M  V30 9389 H 885.985 1.84712 0.621888 0
M  V30 9390 H 885.081 2.33657 2.06908 0
M  V30 9391 N 885.382 -0.782676 1.36792 0
M  V30 9392 C 886.292 -1.92679 1.33835 0
M  V30 9393 C 887.308 -1.72344 0.23952 0
M  V30 9394 O 888.484 -1.95766 0.473045 0
M  V30 9395 C 885.549 -3.27644 1.1336 0
M  V30 9396 C 884.61 -3.6071 2.32781 0
M  V30 9397 C 883.843 -4.89234 2.13273 0
M  V30 9398 O 884.066 -5.59468 1.11136 0
M  V30 9399 O 883 -5.21112 3.01208 0
M  V30 9400 H 886.826 -1.98124 2.30175 0
M  V30 9401 H 884.411 -0.923887 1.17408 0
M  V30 9402 H 886.293 -4.08394 1.03886 0
M  V30 9403 H 884.968 -3.23076 0.200868 0
M  V30 9404 H 883.875 -2.80238 2.47825 0
M  V30 9405 H 885.208 -3.70008 3.24584 0
M  V30 9406 N 886.86 -1.21182 -1.00761 0
M  V30 9407 C 887.79 -0.992773 -2.11344 0
M  V30 9408 C 888.771 0.0813618 -1.69905 0
M  V30 9409 O 889.956 -0.0779503 -1.94043 0
M  V30 9410 C 887.086 -0.553826 -3.42856 0
M  V30 9411 C 886.04 -1.57223 -3.98077 0
M  V30 9412 C 885.366 -0.989605 -5.25463 0
M  V30 9413 C 886.666 -2.95839 -4.30438 0
M  V30 9414 H 888.36 -1.91766 -2.29927 0
M  V30 9415 H 885.906 -0.923426 -1.10494 0
M  V30 9416 H 887.859 -0.387771 -4.19612 0
M  V30 9417 H 886.583 0.406702 -3.24058 0
M  V30 9418 H 885.242 -1.7258 -3.23437 0
M  V30 9419 H 884.89 -0.0208743 -5.02996 0
M  V30 9420 H 884.59 -1.66984 -5.63374 0
M  V30 9421 H 886.114 -0.834815 -6.04866 0
M  V30 9422 H 887.528 -2.8394 -4.98047 0
M  V30 9423 H 885.925 -3.60851 -4.79486 0
M  V30 9424 H 886.995 -3.46882 -3.38823 0
M  V30 9425 N 888.338 1.20213 -1.01915 0
M  V30 9426 C 889.586 1.89272 -0.708552 0
M  V30 9427 C 889.907 1.79394 0.76438 0
M  V30 9428 O 889.177 1.198 1.54999 0
M  V30 9429 H 887.757 0.700628 -0.259094 0
M  V30 9430 H 890.419 1.45985 -1.29129 0
M  V30 9431 H 889.515 2.95841 -0.994215 0
M  V30 9432 N 889.816 0.795718 1.36037 0
M  V30 9433 C 890.746 0.212803 2.32528 0
M  V30 9434 C 891.727 -0.655716 1.56953 0
M  V30 9435 O 892.912 -0.588238 1.85077 0
M  V30 9436 C 890.042 -0.648189 3.41198 0
M  V30 9437 C 888.996 0.120948 4.27829 0
M  V30 9438 C 888.322 -0.861044 5.27722 0
M  V30 9439 C 889.622 1.31375 5.05508 0
M  V30 9440 H 891.316 1.01893 2.81528 0
M  V30 9441 H 888.862 0.491422 1.35355 0
M  V30 9442 H 890.815 -1.06597 4.07695 0
M  V30 9443 H 889.539 -1.48709 2.9078 0
M  V30 9444 H 888.198 0.519777 3.62897 0
M  V30 9445 H 887.846 -1.69515 4.73575 0
M  V30 9446 H 887.546 -0.350808 5.86552 0
M  V30 9447 H 889.07 -1.27726 5.97092 0
M  V30 9448 H 890.484 0.971406 5.6501 0
M  V30 9449 H 888.881 1.75772 5.73781 0
M  V30 9450 H 889.951 2.10593 4.36782 0
M  V30 9451 N 891.294 -1.47756 0.548274 0
M  V30 9452 C 892.571 -1.9555 -0.0443603 0
M  V30 9453 C 892.951 -1.49079 -1.49462 0
M  V30 9454 O 892.299 -0.725538 -2.16675 0
M  V30 9455 C 892.509 -3.48879 0.0918425 0
M  V30 9456 C 893.857 -4.2456 -0.0580879 0
M  V30 9457 O 894.881 -3.56195 0.018946 0
M  V30 9458 O 893.74 -5.46048 -0.222261 0
M  V30 9459 H 890.834 -0.824106 -0.0691235 0
M  V30 9460 H 893.38 -1.58196 0.614166 0
M  V30 9461 H 892.152 -3.7548 1.10137 0
M  V30 9462 H 891.775 -3.92975 -0.604704 0
M  V30 9463 N 892.772 -0.284283 -1.55015 0
M  V30 9464 C 894.183 0.211681 -1.85496 0
M  V30 9465 C 894.534 1.54735 -1.2063 0
M  V30 9466 O 893.659 2.10594 -0.497918 0
M  V30 9467 C 894.254 0.390864 -3.36538 0
M  V30 9468 C 892.813 0.831055 -3.67111 0
M  V30 9469 C 891.96 -0.0703581 -2.77211 0
M  V30 9470 H 894.911 -0.505803 -1.50424 0
M  V30 9471 H 894.932 1.22803 -3.60138 0
M  V30 9472 H 894.444 -0.581409 -3.8372 0
M  V30 9473 H 892.545 1.81447 -3.25434 0
M  V30 9474 H 892.658 0.662026 -4.74504 0
M  V30 9475 H 891.022 0.447528 -2.50737 0
M  V30 9476 H 891.805 -1.03868 -3.2721 0
M  V30 9477 N 894.251 1.57596 -0.0117121 0
M  V30 9478 C 895.499 1.90694 0.669342 0
M  V30 9479 C 895.82 0.886999 1.73659 0
M  V30 9480 O 895.09 -0.0739779 1.9576 0
M  V30 9481 H 893.67 0.703846 0.250219 0
M  V30 9482 H 896.332 1.94821 -0.0554057 0
M  V30 9483 H 895.428 2.90802 1.13316 0
M  V30 9484 N 895.729 -0.261212 1.5542 0
M  V30 9485 C 896.659 -1.32712 1.92119 0
M  V30 9486 C 897.64 -1.50934 0.784406 0
M  V30 9487 O 898.825 -1.63781 1.04352 0
M  V30 9488 C 895.955 -2.68453 2.20341 0
M  V30 9489 C 894.909 -2.64947 3.36136 0
M  V30 9490 C 894.235 -4.04349 3.49865 0
M  V30 9491 C 895.535 -2.23182 4.72215 0
M  V30 9492 H 897.229 -1.02245 2.81401 0
M  V30 9493 H 894.775 -0.490406 1.35392 0
M  V30 9494 H 896.728 -3.43144 2.44603 0
M  V30 9495 H 895.452 -3.00527 1.27871 0
M  V30 9496 H 894.111 -1.92714 3.11861 0
M  V30 9497 H 893.759 -4.33665 2.5484 0
M  V30 9498 H 893.459 -4.02895 4.27726 0
M  V30 9499 H 894.983 -4.80761 3.76432 0
M  V30 9500 H 896.397 -2.87599 4.95943 0
M  V30 9501 H 894.794 -2.32867 5.53076 0
M  V30 9502 H 895.864 -1.18327 4.70241 0
M  V30 9503 N 897.207 -1.48554 -0.526253 0
M  V30 9504 C 898.484 -1.47252 -1.28748 0
M  V30 9505 C 898.864 -0.186245 -2.10277 0
M  V30 9506 O 898.212 0.831954 -2.12816 0
M  V30 9507 C 898.422 -2.73672 -2.16575 0
M  V30 9508 C 899.77 -3.22151 -2.76593 0
M  V30 9509 O 900.794 -2.74614 -2.2686 0
M  V30 9510 O 899.653 -4.04877 -3.67066 0
M  V30 9511 H 896.747 -0.588242 -0.581292 0
M  V30 9512 H 899.293 -1.60792 -0.5426 0
M  V30 9513 H 898.065 -3.58798 -1.56139 0
M  V30 9514 H 897.688 -2.6287 -2.98304 0
M  V30 9515 N 898.685 0.775411 -1.37205 0
M  V30 9516 C 899.635 1.87867 -1.29189 0
M  V30 9517 C 900.619 1.59885 -0.180466 0
M  V30 9518 O 901.811 1.72077 -0.414536 0
M  V30 9519 C 898.94 3.25285 -1.09748 0
M  V30 9520 C 898.026 3.59231 -2.25419 0
M  V30 9521 N 898.417 3.64386 -3.50795 0
M  V30 9522 C 896.715 3.89375 -2.17492 0
M  V30 9523 C 897.416 3.94974 -4.27048 0
M  V30 9524 N 896.392 4.10684 -3.56146 0
M  V30 9525 H 900.194 1.90099 -2.24142 0
M  V30 9526 H 897.708 0.971667 -1.30125 0
M  V30 9527 H 899.705 4.04207 -1.02091 0
M  V30 9528 H 898.365 3.2432 -0.157083 0
M  V30 9529 H 899.376 3.46682 -3.8475 0
M  V30 9530 H 896.053 3.96254 -1.31489 0
M  V30 9531 H 897.443 4.05768 -5.35539 0
M  V30 9532 N 900.163 1.21714 1.00117 0
M  V30 9533 C 901.096 0.923113 2.08696 0
M  V30 9534 C 902.074 -0.130827 1.62073 0
M  V30 9535 O 903.258 -0.00103064 1.885 0
M  V30 9536 C 900.385 0.386807 3.36484 0
M  V30 9537 C 899.431 1.42414 4.0202 0
M  V30 9538 S 900.264 2.99466 4.43937 0
M  V30 9539 C 901.42 2.47452 5.74907 0
M  V30 9540 H 901.653 1.84258 2.33315 0
M  V30 9541 H 899.186 1.0473 1.1345 0
M  V30 9542 H 901.144 0.0839547 4.10414 0
M  V30 9543 H 899.805 -0.511413 3.09909 0
M  V30 9544 H 898.998 0.998593 4.94008 0
M  V30 9545 H 898.6 1.67527 3.34381 0
M  V30 9546 H 900.892 1.88177 6.50842 0
M  V30 9547 H 901.835 3.37898 6.22279 0
M  V30 9548 H 902.243 1.89027 5.31911 0
M  V30 9549 N 901.641 -1.19671 1.02551 0
M  V30 9550 C 902.571 -2.25009 0.623965 0
M  V30 9551 C 903.552 -1.66129 -0.36538 0
M  V30 9552 O 904.737 -1.92599 -0.248842 0
M  V30 9553 C 901.867 -3.47287 -0.0294869 0
M  V30 9554 C 900.821 -4.18818 0.881781 0
M  V30 9555 C 900.147 -5.34618 0.0936189 0
M  V30 9556 C 901.447 -4.73986 2.19396 0
M  V30 9557 H 903.141 -2.58851 1.50454 0
M  V30 9558 H 900.687 -1.24425 0.724872 0
M  V30 9559 H 902.64 -4.20168 -0.322016 0
M  V30 9560 H 901.364 -3.12635 -0.944838 0
M  V30 9561 H 900.023 -3.47815 1.15845 0
M  V30 9562 H 899.671 -4.9621 -0.823661 0
M  V30 9563 H 899.371 -5.83409 0.700568 0
M  V30 9564 H 900.895 -6.10297 -0.192249 0
M  V30 9565 H 902.309 -5.38639 1.96319 0
M  V30 9566 H 900.706 -5.3325 2.75254 0
M  V30 9567 H 901.776 -3.92238 2.85092 0
M  V30 9568 N 903.119 -0.802921 -1.35613 0
M  V30 9569 C 904.082 -0.216422 -2.28176 0
M  V30 9570 C 905.082 0.594101 -1.49422 0
M  V30 9571 O 906.272 0.41312 -1.6923 0
M  V30 9572 C 903.404 0.698746 -3.33662 0
M  V30 9573 H 904.597 -1.03276 -2.81557 0
M  V30 9574 H 902.15 -0.573307 -1.45406 0
M  V30 9575 H 902.885 1.53891 -2.85461 0
M  V30 9576 H 902.67 0.119314 -3.91918 0
M  V30 9577 H 904.16 1.10354 -4.02755 0
M  V30 9578 N 904.597 1.47463 -0.556102 0
M  V30 9579 C 905.53 2.26934 0.240027 0
M  V30 9580 C 906.508 1.33981 0.921297 0
M  V30 9581 O 907.692 1.63361 0.940506 0
M  V30 9582 C 904.819 3.10982 1.34194 0
M  V30 9583 C 903.865 4.19504 0.769342 0
M  V30 9584 S 904.698 5.34127 -0.383209 0
M  V30 9585 C 905.854 6.21739 0.720548 0
M  V30 9586 H 906.087 2.9411 -0.434348 0
M  V30 9587 H 903.62 1.50556 -0.342402 0
M  V30 9588 H 905.578 3.59976 1.973 0
M  V30 9589 H 904.239 2.4317 1.98814 0
M  V30 9590 H 903.432 4.78036 1.59679 0
M  V30 9591 H 903.034 3.73385 0.214475 0
M  V30 9592 H 905.326 6.58021 1.61292 0
M  V30 9593 H 906.269 7.0789 0.172602 0
M  V30 9594 H 906.677 5.55342 1.01272 0
M  V30 9595 N 906.075 0.2925 1.54862 0
M  V30 9596 C 906.985 -0.597036 2.26876 0
M  V30 9597 C 908.001 -1.15558 1.30086 0
M  V30 9598 O 909.177 -1.18217 1.63054 0
M  V30 9599 C 906.242 -1.75664 2.98903 0
M  V30 9600 C 905.303 -1.23303 4.11212 0
M  V30 9601 C 904.536 -2.33736 4.79795 0
M  V30 9602 O 904.759 -3.53459 4.47686 0
M  V30 9603 O 903.693 -2.00908 5.67379 0
M  V30 9604 H 907.519 -0.0131242 3.03697 0
M  V30 9605 H 905.104 0.0592642 1.49282 0
M  V30 9606 H 906.986 -2.43241 3.4411 0
M  V30 9607 H 905.661 -2.32731 2.24984 0
M  V30 9608 H 904.568 -0.523222 3.70423 0
M  V30 9609 H 905.901 -0.707887 4.87083 0
M  V30 9610 N 907.553 -1.57587 0.0200696 0
M  V30 9611 C 908.781 -1.95718 -0.670964 0
M  V30 9612 C 909.196 -0.896081 -1.6618 0
M  V30 9613 O 908.553 0.123037 -1.82085 0
M  V30 9614 C 908.604 -3.33904 -1.38529 0
M  V30 9615 O 908.325 -4.35943 -0.434167 0
M  V30 9616 C 909.826 -3.86614 -2.16898 0
M  V30 9617 H 907.046 -0.644819 -0.185606 0
M  V30 9618 H 909.59 -2.04354 0.0771495 0
M  V30 9619 H 907.745 -3.26515 -2.08487 0
M  V30 9620 H 908.159 -5.16001 -0.940378 0
M  V30 9621 H 909.633 -4.85673 -2.62346 0
M  V30 9622 H 910.11 -3.20379 -3.00423 0
M  V30 9623 H 910.716 -3.97243 -1.51916 0
M  V30 9624 N 909.032 0.252966 -1.55557 0
M  V30 9625 C 910.281 0.979736 -1.76307 0
M  V30 9626 C 910.594 1.86714 -0.582871 0
M  V30 9627 O 911.8 2.6302 -0.673247 0
M  V30 9628 C 910.256 1.79205 -3.12112 0
M  V30 9629 C 909.864 0.952333 -4.37761 0
M  V30 9630 C 911.608 2.51191 -3.42203 0
M  V30 9631 C 909.515 1.76018 -5.64599 0
M  V30 9632 H 908.445 0.369538 -0.657235 0
M  V30 9633 H 911.096 0.234619 -1.81994 0
M  V30 9634 H 909.478 2.57888 -3.00515 0
M  V30 9635 H 910.652 0.208251 -4.60329 0
M  V30 9636 H 908.967 0.346082 -4.14959 0
M  V30 9637 H 911.564 3.12074 -4.34182 0
M  V30 9638 H 911.907 3.22499 -2.63249 0
M  V30 9639 H 912.44 1.79523 -3.54988 0
M  V30 9640 H 909.179 1.09095 -6.46358 0
M  V30 9641 H 908.699 2.4797 -5.46142 0
M  V30 9642 H 910.378 2.32884 -6.03634 0
M  V30 9643 N 910.51 1.48831 0.518367 0
M  V30 9644 C 911.787 1.47933 1.27966 0
M  V30 9645 C 912.167 0.197393 2.10175 0
M  V30 9646 O 911.515 -0.820656 2.13255 0
M  V30 9647 C 911.725 2.74816 2.15121 0
M  V30 9648 C 913.073 3.23613 2.74881 0
M  V30 9649 O 914.097 2.75814 2.254 0
M  V30 9650 O 912.956 4.06818 3.64913 0
M  V30 9651 H 910.05 0.591316 0.578164 0
M  V30 9652 H 912.596 1.61077 0.534065 0
M  V30 9653 H 911.368 3.59621 1.54234 0
M  V30 9654 H 910.991 2.64449 2.96905 0
M  V30 9655 N 911.988 -0.768124 1.37614 0
M  V30 9656 C 912.935 -1.88151 1.33671 0
M  V30 9657 C 913.905 -1.64871 0.201645 0
M  V30 9658 O 915.09 -1.86739 0.391582 0
M  V30 9659 C 912.23 -3.25264 1.15314 0
M  V30 9660 C 911.343 -3.60473 2.38082 0
M  V30 9661 C 910.478 -4.86814 2.12569 0
M  V30 9662 C 909.517 -5.14765 3.31184 0
M  V30 9663 N 908.654 -6.32295 3.052 0
M  V30 9664 H 913.494 -1.90857 2.28862 0
M  V30 9665 H 911.031 -0.933048 1.13722 0
M  V30 9666 H 912.989 -4.04364 1.02691 0
M  V30 9667 H 911.619 -3.21924 0.237689 0
M  V30 9668 H 910.671 -2.7633 2.61431 0
M  V30 9669 H 911.983 -3.77065 3.26532 0
M  V30 9670 H 911.137 -5.73826 1.96999 0
M  V30 9671 H 909.876 -4.72333 1.21462 0
M  V30 9672 H 908.881 -4.26227 3.4729 0
M  V30 9673 H 910.106 -5.31153 4.23147 0
M  V30 9674 H 908.052 -6.19166 2.16726 0
M  V30 9675 H 907.969 -6.4932 3.87195 0
M  V30 9676 H 909.237 -7.22234 2.93254 0
M  V30 9677 N 913.466 -1.22244 -0.994698 0
M  V30 9678 C 914.429 -0.992308 -2.06606 0
M  V30 9679 C 915.429 0.0405872 -1.60749 0
M  V30 9680 O 916.619 -0.197737 -1.73074 0
M  V30 9681 C 913.751 -0.498499 -3.37236 0
M  V30 9682 H 914.944 -1.9429 -2.28455 0
M  V30 9683 H 912.497 -1.04087 -1.166 0
M  V30 9684 H 913.232 0.456531 -3.21071 0
M  V30 9685 H 913.017 -1.24367 -3.71854 0
M  V30 9686 H 914.507 -0.35768 -4.16065 0
M  V30 9687 N 914.944 1.19125 -1.03184 0
M  V30 9688 C 915.891 2.2245 -0.6152 0
M  V30 9689 C 916.861 1.61869 0.372502 0
M  V30 9690 O 918.046 1.88901 0.268491 0
M  V30 9691 C 915.186 3.45091 0.0248027 0
M  V30 9692 C 914.299 4.20044 -1.0093 0
M  V30 9693 C 913.434 5.30119 -0.338744 0
M  V30 9694 C 912.473 5.96833 -1.35855 0
M  V30 9695 N 911.61 6.98464 -0.713594 0
M  V30 9696 H 916.45 2.57445 -1.50086 0
M  V30 9697 H 913.987 1.26485 -0.751005 0
M  V30 9698 H 915.945 4.15149 0.413131 0
M  V30 9699 H 914.575 3.10742 0.874028 0
M  V30 9700 H 913.627 3.48901 -1.51566 0
M  V30 9701 H 914.939 4.65796 -1.78425 0
M  V30 9702 H 914.093 6.0661 0.104269 0
M  V30 9703 H 912.832 4.85446 0.468382 0
M  V30 9704 H 911.837 5.1909 -1.81179 0
M  V30 9705 H 913.062 6.4359 -2.16722 0
M  V30 9706 H 911.008 6.55959 0.0733863 0
M  V30 9707 H 910.925 7.42422 -1.42638 0
M  V30 9708 H 912.193 7.78943 -0.294681 0
M  V30 9709 N 916.422 0.810101 1.35185 0
M  V30 9710 C 917.332 0.224565 2.33523 0
M  V30 9711 C 918.348 -0.634287 1.62027 0
M  V30 9712 O 919.524 -0.545211 1.9388 0
M  V30 9713 C 916.589 -0.614319 3.41214 0
M  V30 9714 C 915.65 0.265435 4.28479 0
M  V30 9715 C 914.883 -0.533506 5.31027 0
M  V30 9716 O 915.106 -1.7679 5.42311 0
M  V30 9717 O 914.04 0.0774573 6.0185 0
M  V30 9718 H 917.866 1.03815 2.85405 0
M  V30 9719 H 915.451 0.571964 1.38018 0
M  V30 9720 H 917.333 -1.09201 4.07005 0
M  V30 9721 H 916.008 -1.40545 2.91597 0
M  V30 9722 H 914.915 0.790343 3.65656 0
M  V30 9723 H 916.248 1.0206 4.81503 0
M  V30 9724 N 917.9 -1.47166 0.563914 0
M  V30 9725 C 919.146 -2.02756 0.0424338 0
M  V30 9726 C 919.479 -1.43662 -1.3067 0
M  V30 9727 O 918.754 -0.594676 -1.85186 0
M  V30 9728 C 919.037 -3.60074 -0.0434793 0
M  V30 9729 C 918.89 -4.29587 1.33323 0
M  V30 9730 C 920.209 -4.336 -0.753568 0
M  V30 9731 H 917.328 -0.736806 0.0168946 0
M  V30 9732 H 919.97 -1.75521 0.727496 0
M  V30 9733 H 918.12 -3.83409 -0.626906 0
M  V30 9734 H 919.792 -4.17573 1.96037 0
M  V30 9735 H 918.035 -3.8968 1.9061 0
M  V30 9736 H 918.706 -5.38218 1.22576 0
M  V30 9737 H 921.182 -4.15299 -0.258126 0
M  V30 9738 H 920.058 -5.43291 -0.782659 0
M  V30 9739 H 920.319 -4.03302 -1.81108 0
M  V30 9740 N 919.378 -0.300708 -1.54705 0
M  V30 9741 C 920.626 0.308044 -1.99739 0
M  V30 9742 C 920.947 1.54433 -1.19061 0
M  V30 9743 O 920.217 1.93794 -0.286507 0
M  V30 9744 H 918.797 0.116811 -0.73781 0
M  V30 9745 H 921.459 -0.41197 -1.90496 0
M  V30 9746 H 920.555 0.580287 -3.06658 0
M  V30 9747 N 920.856 1.57574 -0.0284266 0
M  V30 9748 C 921.819 2.09096 0.938691 0
M  V30 9749 C 922.819 1.00588 1.25454 0
M  V30 9750 O 924.009 1.2675 1.19499 0
M  V30 9751 C 921.141 2.55624 2.25542 0
M  V30 9752 H 922.334 2.95829 0.49248 0
M  V30 9753 H 919.887 1.5475 0.219594 0
M  V30 9754 H 920.622 1.72218 2.74793 0
M  V30 9755 H 920.407 3.34896 2.03929 0
M  V30 9756 H 921.897 2.95712 2.94863 0
M  V30 9757 N 922.334 -0.244713 1.55689 0
M  V30 9758 C 923.562 -0.989944 1.8168 0
M  V30 9759 C 923.977 -1.78863 0.604449 0
M  V30 9760 O 923.334 -1.77437 -0.426907 0
M  V30 9761 C 923.385 -1.92607 3.05916 0
M  V30 9762 O 923.106 -1.1597 4.22472 0
M  V30 9763 C 924.607 -2.78711 3.44724 0
M  V30 9764 H 921.827 -0.2912 0.604519 0
M  V30 9765 H 924.371 -0.266938 2.0275 0
M  V30 9766 H 922.526 -2.60333 2.8689 0
M  V30 9767 H 922.94 -1.79311 4.92898 0
M  V30 9768 H 924.414 -3.40141 4.34751 0
M  V30 9769 H 924.891 -3.49935 2.6541 0
M  V30 9770 H 925.497 -2.16435 3.66109 0
M  V30 9771 N 923.813 -1.49104 -0.510467 0
M  V30 9772 C 925.062 -1.57362 -1.26175 0
M  V30 9773 C 925.375 -0.261218 -1.93848 0
M  V30 9774 O 926.581 -0.222238 -2.70589 0
M  V30 9775 C 925.037 -2.77606 -2.29048 0
M  V30 9776 C 924.645 -4.15567 -1.67357 0
M  V30 9777 C 926.389 -2.95188 -3.05064 0
M  V30 9778 C 924.296 -5.27046 -2.68285 0
M  V30 9779 H 923.226 -0.585887 -0.474608 0
M  V30 9780 H 925.877 -1.75474 -0.536753 0
M  V30 9781 H 924.259 -2.52968 -3.04669 0
M  V30 9782 H 925.433 -4.50304 -0.977924 0
M  V30 9783 H 923.748 -4.03264 -1.03765 0
M  V30 9784 H 926.345 -3.75643 -3.80521 0
M  V30 9785 H 926.688 -2.05385 -3.62108 0
M  V30 9786 H 927.221 -3.19821 -2.36558 0
M  V30 9787 H 923.96 -6.18878 -2.16034 0
M  V30 9788 H 923.48 -4.96774 -3.36118 0
M  V30 9789 H 925.159 -5.55983 -3.30896 0
M  V30 9790 N 925.291 0.760815 -1.38019 0
M  V30 9791 C 926.201 1.90526 -1.36884 0
M  V30 9792 C 927.217 1.71941 -0.266908 0
M  V30 9793 O 928.393 1.94988 -0.50413 0
M  V30 9794 C 925.458 3.25799 -1.18558 0
M  V30 9795 C 924.519 3.56961 -2.3849 0
M  V30 9796 C 923.752 4.8578 -2.21029 0
M  V30 9797 O 923.975 5.57629 -1.20023 0
M  V30 9798 O 922.909 5.16254 -3.0946 0
M  V30 9799 H 926.735 1.94437 -2.33298 0
M  V30 9800 H 924.32 0.905091 -1.18863 0
M  V30 9801 H 926.202 4.0669 -1.1037 0
M  V30 9802 H 924.877 3.22716 -0.252241 0
M  V30 9803 H 923.784 2.7626 -2.52252 0
M  V30 9804 H 925.117 3.64798 -3.30429 0
M  V30 9805 N 926.769 1.22769 0.988202 0
M  V30 9806 C 927.994 1.08239 1.76915 0
M  V30 9807 C 928.419 -0.362519 1.84574 0
M  V30 9808 O 927.777 -1.26202 1.30165 0
M  V30 9809 C 927.825 1.70363 3.17819 0
M  V30 9810 O 926.929 0.960484 4.01059 0
M  V30 9811 H 926.27 0.379872 0.544604 0
M  V30 9812 H 928.8 1.62663 1.24104 0
M  V30 9813 H 928.81 1.7528 3.6843 0
M  V30 9814 H 927.485 2.75505 3.1156 0
M  V30 9815 H 926.062 0.987667 3.59582 0
M  V30 9816 N 928.247 -1.18576 1.03814 0
M  V30 9817 C 929.477 -1.92158 0.758864 0
M  V30 9818 C 929.885 -1.76267 -0.687498 0
M  V30 9819 O 929.228 -1.08806 -1.4801 0
M  V30 9820 C 929.29 -3.44063 1.04217 0
M  V30 9821 C 928.954 -3.8373 2.48193 0
M  V30 9822 C 929.951 -3.87722 3.46363 0
M  V30 9823 C 927.636 -4.151 2.82838 0
M  V30 9824 C 929.63 -4.2253 4.77229 0
M  V30 9825 C 927.317 -4.49578 4.13911 0
M  V30 9826 C 928.315 -4.53269 5.10917 0
M  V30 9827 O 928.003 -4.86945 6.39641 0
M  V30 9828 H 927.735 -0.61694 0.276335 0
M  V30 9829 H 930.289 -1.51388 1.38819 0
M  V30 9830 H 928.519 -3.85061 0.355709 0
M  V30 9831 H 930.208 -3.9889 0.751091 0
M  V30 9832 H 930.974 -3.63627 3.20936 0
M  V30 9833 H 926.853 -4.11406 2.08006 0
M  V30 9834 H 930.397 -4.25326 5.52941 0
M  V30 9835 H 926.294 -4.73133 4.39107 0
M  V30 9836 H 927.062 -5.04857 6.44253 0
M  V30 9837 N 929.725 -0.817259 -1.34754 0
M  V30 9838 C 930.974 -0.39908 -1.97713 0
M  V30 9839 C 931.287 1.04203 -1.65533 0
M  V30 9840 O 932.493 1.56384 -2.21937 0
M  V30 9841 C 930.949 -0.662634 -3.53747 0
M  V30 9842 C 930.557 -2.11699 -3.94826 0
M  V30 9843 C 932.301 -0.31034 -4.23364 0
M  V30 9844 C 930.208 -2.32573 -5.4375 0
M  V30 9845 H 929.138 -0.145488 -0.739831 0
M  V30 9846 H 931.789 -1.00282 -1.53674 0
M  V30 9847 H 930.171 0.0111972 -3.95998 0
M  V30 9848 H 931.345 -2.82951 -3.63697 0
M  V30 9849 H 929.66 -2.43017 -3.3813 0
M  V30 9850 H 932.257 -0.44421 -5.32852 0
M  V30 9851 H 932.6 0.744594 -4.09587 0
M  V30 9852 H 933.133 -0.938518 -3.8657 0
M  V30 9853 H 929.872 -3.36551 -5.62507 0
M  V30 9854 H 929.392 -1.65858 -5.76412 0
M  V30 9855 H 931.071 -2.14651 -6.10356 0
M  V30 9856 N 931.203 1.46865 -0.571711 0
M  V30 9857 C 932.428 2.07323 -0.0564655 0
M  V30 9858 C 932.853 1.41938 1.23431 0
M  V30 9859 O 932.211 0.499334 1.74288 0
M  V30 9860 C 932.259 3.6044 0.107339 0
M  V30 9861 O 931.363 3.95558 1.1665 0
M  V30 9862 H 930.704 0.661475 -0.0578465 0
M  V30 9863 H 933.234 1.88669 -0.791524 0
M  V30 9864 H 933.244 4.06767 0.316987 0
M  V30 9865 H 931.919 4.07425 -0.835348 0
M  V30 9866 H 930.496 3.60957 0.936189 0
M  V30 9867 N 932.681 0.308908 1.54543 0
M  V30 9868 C 933.911 -0.299983 2.04411 0
M  V30 9869 C 934.319 -1.47463 1.18538 0
M  V30 9870 O 933.662 -1.82547 0.205463 0
M  V30 9871 C 933.724 -0.811579 3.50219 0
M  V30 9872 C 933.388 0.238834 4.56375 0
M  V30 9873 C 934.385 1.06997 5.08771 0
M  V30 9874 C 932.07 0.382808 5.00839 0
M  V30 9875 C 934.064 2.03096 6.04178 0
M  V30 9876 C 931.751 1.34723 5.96065 0
M  V30 9877 C 932.749 2.16978 6.47618 0
M  V30 9878 O 932.437 3.11783 7.40977 0
M  V30 9879 H 932.169 -0.0679682 0.672574 0
M  V30 9880 H 934.723 0.448815 2.00437 0
M  V30 9881 H 932.953 -1.61104 3.51543 0
M  V30 9882 H 934.642 -1.33721 3.83241 0
M  V30 9883 H 935.408 0.969654 4.75208 0
M  V30 9884 H 931.287 -0.247507 4.60335 0
M  V30 9885 H 934.831 2.67338 6.44342 0
M  V30 9886 H 930.728 1.44824 6.29044 0
M  V30 9887 H 931.496 3.06853 7.58804 0
M  V30 9888 N 934.159 -1.57557 0.0367827 0
M  V30 9889 C 935.399 -1.93981 -0.644252 0
M  V30 9890 C 935.763 -0.913982 -1.6885 0
M  V30 9891 O 936.964 -1.16468 -2.42257 0
M  V30 9892 C 935.235 -3.35281 -1.23779 0
M  V30 9893 S 936.794 -3.93643 -1.93883 0
M  V30 9894 H 933.612 -0.678683 -0.21192 0
M  V30 9895 H 936.214 -1.95232 0.102281 0
M  V30 9896 H 934.918 -4.07752 -0.465451 0
M  V30 9897 H 934.449 -3.37492 -2.02146 0
M  V30 9898 H 936.464 -3.777 -3.21803 0
M  V30 9899 N 935.637 0.236453 -1.55816 0
M  V30 9900 C 936.885 0.96111 -1.77784 0
M  V30 9901 C 937.206 1.85454 -0.602648 0
M  V30 9902 O 936.476 1.92157 0.381137 0
M  V30 9903 H 935.056 0.35787 -0.655697 0
M  V30 9904 H 937.718 0.251888 -1.93265 0
M  V30 9905 H 936.814 1.5767 -2.69345 0
M  V30 9906 N 937.115 1.49373 0.502552 0
M  V30 9907 C 938.363 1.58467 1.25429 0
M  V30 9908 C 938.684 0.272593 1.93085 0
M  V30 9909 O 937.954 -0.707947 1.82661 0
M  V30 9910 H 936.534 0.583866 0.46595 0
M  V30 9911 H 939.196 1.8599 0.582568 0
M  V30 9912 H 938.292 2.37993 2.01906 0
M  V30 9913 N 938.594 -0.753485 1.38421 0
M  V30 9914 C 939.524 -1.8808 1.38377 0
M  V30 9915 C 940.505 -1.68258 0.249664 0
M  V30 9916 O 941.69 -1.88848 0.45276 0
M  V30 9917 C 938.82 -3.25608 1.20818 0
M  V30 9918 C 937.774 -3.60032 2.31433 0
M  V30 9919 C 937.1 -4.96297 1.9898 0
M  V30 9920 C 938.4 -3.64898 3.73694 0
M  V30 9921 H 940.094 -1.88375 2.32713 0
M  V30 9922 H 937.64 -0.90489 1.12017 0
M  V30 9923 H 939.593 -4.04127 1.19412 0
M  V30 9924 H 938.317 -3.25793 0.229433 0
M  V30 9925 H 936.976 -2.83831 2.32025 0
M  V30 9926 H 936.624 -4.93043 0.995889 0
M  V30 9927 H 936.324 -5.20298 2.73063 0
M  V30 9928 H 937.848 -5.77196 1.99193 0
M  V30 9929 H 939.262 -4.33531 3.75132 0
M  V30 9930 H 937.659 -4.00407 4.46983 0
M  V30 9931 H 938.729 -2.65124 4.06002 0
M  V30 9932 N 940.072 -1.23292 -0.981677 0
M  V30 9933 C 941.483 -1.05936 -1.53735 0
M  V30 9934 C 941.834 0.373695 -1.92608 0
M  V30 9935 O 940.959 1.26024 -1.75917 0
M  V30 9936 C 941.554 -1.91682 -2.79363 0
M  V30 9937 C 940.113 -1.78591 -3.31334 0
M  V30 9938 C 939.26 -1.87463 -2.04335 0
M  V30 9939 H 942.211 -1.36973 -0.801505 0
M  V30 9940 H 942.232 -1.44085 -3.52164 0
M  V30 9941 H 941.744 -2.95975 -2.51039 0
M  V30 9942 H 939.845 -0.770755 -3.64541 0
M  V30 9943 H 939.958 -2.61902 -4.01179 0
M  V30 9944 H 938.322 -1.3103 -2.18411 0
M  V30 9945 H 939.105 -2.9331 -1.78394 0
M  V30 9946 N 941.55 1.18024 -1.04442 0
M  V30 9947 C 942.513 2.19992 -0.643136 0
M  V30 9948 C 943.513 1.57949 0.301444 0
M  V30 9949 O 944.703 1.73986 0.0863341 0
M  V30 9950 C 941.835 3.40853 0.0565208 0
M  V30 9951 H 943.028 2.57008 -1.54554 0
M  V30 9952 H 940.581 1.31974 -0.837408 0
M  V30 9953 H 941.316 3.09373 0.972553 0
M  V30 9954 H 941.101 3.87128 -0.622439 0
M  V30 9955 H 942.591 4.16344 0.323652 0
M  V30 9956 N 943.028 0.824394 1.34319 0
M  V30 9957 C 944.439 0.471802 1.8064 0
M  V30 9958 C 944.79 -1.00793 1.6833 0
M  V30 9959 O 943.915 -1.78447 1.22416 0
M  V30 9960 C 944.51 0.849609 3.27974 0
M  V30 9961 C 943.069 0.549365 3.72369 0
M  V30 9962 C 942.216 1.06573 2.56003 0
M  V30 9963 H 945.167 1.01443 1.22045 0
M  V30 9964 H 945.188 0.153968 3.80188 0
M  V30 9965 H 944.7 1.92663 3.36902 0
M  V30 9966 H 942.801 -0.518182 3.68979 0
M  V30 9967 H 942.914 1.09446 4.66432 0
M  V30 9968 H 941.278 0.487214 2.49997 0
M  V30 9969 H 942.061 2.14923 2.677 0
M  V30 9970 N 944.506 -1.46559 0.579492 0
M  V30 9971 C 945.416 -2.34066 -0.15816 0
M  V30 9972 C 946.432 -1.49556 -0.88932 0
M  V30 9973 O 947.608 -1.82434 -0.853226 0
M  V30 9974 C 944.673 -3.26683 -1.161 0
M  V30 9975 C 943.734 -4.27092 -0.434855 0
M  V30 9976 C 942.967 -5.15283 -1.38992 0
M  V30 9977 O 943.19 -5.06345 -2.62623 0
M  V30 9978 O 942.124 -5.95099 -0.902253 0
M  V30 9979 H 945.95 -2.98488 0.560234 0
M  V30 9980 H 943.535 -1.45482 0.339918 0
M  V30 9981 H 945.417 -3.8383 -1.73932 0
M  V30 9982 H 944.092 -2.64862 -1.86091 0
M  V30 9983 H 942.999 -3.73641 0.185224 0
M  V30 9984 H 944.332 -4.9169 0.224031 0
M  V30 9985 N 945.984 -0.3171 -1.54377 0
M  V30 9986 C 946.934 0.567199 -2.20832 0
M  V30 9987 C 947.918 1.08661 -1.18666 0
M  V30 9988 O 949.11 1.0247 -1.44322 0
M  V30 9989 C 946.239 1.73079 -2.96477 0
M  V30 9990 C 945.325 1.22658 -4.05975 0
M  V30 9991 N 945.716 0.441565 -5.03869 0
M  V30 9992 C 944.014 1.50589 -4.19808 0
M  V30 9993 C 944.715 0.171063 -5.81448 0
M  V30 9994 N 943.691 0.755389 -5.38326 0
M  V30 9995 H 947.493 -0.0399349 -2.93873 0
M  V30 9996 H 945.007 -0.122639 -1.61936 0
M  V30 9997 H 947.004 2.37601 -3.42566 0
M  V30 9998 H 945.664 2.34146 -2.24957 0
M  V30 9999 H 946.675 0.0849921 -5.1783 0
M  V30 10000 H 943.352 2.12288 -3.595 0
M  V30 10001 H 944.742 -0.460484 -6.7032 0
M  V30 10002 N 947.462 1.57535 -0.0451378 0
M  V30 10003 C 948.687 1.97172 0.64326 0
M  V30 10004 C 949.112 0.922266 1.63939 0
M  V30 10005 O 948.47 -0.115155 1.80934 0
M  V30 10006 C 948.518 3.35889 1.3119 0
M  V30 10007 O 947.622 3.33387 2.42748 0
M  V30 10008 H 946.963 0.642469 0.167719 0
M  V30 10009 H 949.493 2.04295 -0.111747 0
M  V30 10010 H 949.503 3.72481 1.66499 0
M  V30 10011 H 948.178 4.1181 0.581823 0
M  V30 10012 H 946.755 3.08533 2.09432 0
M  V30 10013 N 948.94 -0.228186 1.55939 0
M  V30 10014 C 949.888 -1.30239 1.92719 0
M  V30 10015 C 950.882 -1.48865 0.808424 0
M  V30 10016 O 952.088 -1.50118 0.993204 0
M  V30 10017 H 948.463 -0.436509 0.612343 0
M  V30 10018 H 950.434 -0.964965 2.82367 0
M  V30 10019 C 949.183 -2.647 2.25453 0
M  V30 10020 H 948.506 -2.51173 3.1105 0
M  V30 10021 H 949.946 -3.38691 2.55077 0
M  V30 10022 C 948.405 -3.1921 1.07734 0
M  V30 10023 O 948.935 -4.00301 0.335019 0
M  V30 10024 N 947.141 -2.77492 0.862938 0
M  V30 10025 H 946.688 -2.11657 1.4683 0
M  V30 10026 H 946.646 -3.14306 0.0770119 0
M  V30 10027 N 950.418 -1.49637 -0.494624 0
M  V30 10028 C 951.366 -1.6727 -1.61627 0
M  V30 10029 C 952.36 -0.538587 -1.6061 0
M  V30 10030 O 953.566 -0.718411 -1.65042 0
M  V30 10031 H 949.941 -0.527557 -0.535899 0
M  V30 10032 H 951.912 -2.61405 -1.43909 0
M  V30 10033 C 950.661 -1.7624 -2.99725 0
M  V30 10034 H 949.984 -2.62886 -3.01216 0
M  V30 10035 H 951.424 -1.92611 -3.77726 0
M  V30 10036 C 949.883 -0.508632 -3.33038 0
M  V30 10037 O 950.413 0.362828 -4.00058 0
M  V30 10038 N 948.619 -0.369667 -2.88239 0
M  V30 10039 H 948.166 -1.07984 -2.33875 0
M  V30 10040 H 948.124 0.468112 -3.10896 0
M  V30 10041 N 951.896 0.746133 -1.38819 0
M  V30 10042 C 953.307 1.32384 -1.31648 0
M  V30 10043 C 953.658 1.96185 0.0243086 0
M  V30 10044 O 952.783 1.95567 0.92641 0
M  V30 10045 C 953.378 2.40712 -2.38418 0
M  V30 10046 C 951.937 2.94185 -2.34803 0
M  V30 10047 C 951.084 1.67639 -2.20891 0
M  V30 10048 H 954.035 0.544457 -1.49068 0
M  V30 10049 H 954.056 3.20833 -2.04564 0
M  V30 10050 H 953.568 1.94247 -3.3599 0
M  V30 10051 H 951.669 3.44959 -1.40834 0
M  V30 10052 H 951.782 3.48057 -3.29231 0
M  V30 10053 H 950.146 1.9155 -1.67871 0
M  V30 10054 H 950.929 1.23242 -3.20416 0
M  V30 10055 N 953.375 1.23811 0.975125 0
M  V30 10056 C 954.305 1.04846 2.08638 0
M  V30 10057 C 955.286 -0.0362859 1.70061 0
M  V30 10058 O 956.471 0.12937 1.93769 0
M  V30 10059 C 953.601 0.644534 3.41267 0
M  V30 10060 C 952.555 1.67722 3.93768 0
M  V30 10061 C 951.881 1.12857 5.22654 0
M  V30 10062 C 953.181 3.07147 4.22443 0
M  V30 10063 H 954.875 1.97795 2.24761 0
M  V30 10064 H 952.421 0.952397 1.08006 0
M  V30 10065 H 954.374 0.498887 4.18436 0
M  V30 10066 H 953.098 -0.320641 3.25022 0
M  V30 10067 H 951.757 1.81095 3.18748 0
M  V30 10068 H 951.405 0.154227 5.02764 0
M  V30 10069 H 951.105 1.81862 5.58749 0
M  V30 10070 H 952.629 0.994891 6.0244 0
M  V30 10071 H 954.043 2.97045 4.90344 0
M  V30 10072 H 952.44 3.73437 4.6975 0
M  V30 10073 H 953.51 3.55743 3.29507 0
M  V30 10074 N 954.853 -1.17469 1.05066 0
M  V30 10075 C 956.269 -1.39699 0.771769 0
M  V30 10076 C 956.469 -1.91253 -0.634382 0
M  V30 10077 O 955.525 -2.10334 -1.39699 0
M  V30 10078 C 956.838 -2.38886 1.82631 0
M  V30 10079 C 958.386 -2.52595 1.84838 0
M  V30 10080 C 958.861 -3.55054 2.89311 0
M  V30 10081 N 960.352 -3.6257 2.88266 0
M  V30 10082 C 961.087 -4.41603 3.65752 0
M  V30 10083 N 960.583 -5.24162 4.53019 0
M  V30 10084 N 962.376 -4.36464 3.54197 0
M  V30 10085 H 954.527 -0.823355 1.95792 0
M  V30 10086 H 956.79 -0.42432 0.847736 0
M  V30 10087 H 956.496 -2.08075 2.83545 0
M  V30 10088 H 956.37 -3.38371 1.66687 0
M  V30 10089 H 958.757 -2.82717 0.845888 0
M  V30 10090 H 958.838 -1.53188 2.04859 0
M  V30 10091 H 958.482 -3.2567 3.89745 0
M  V30 10092 H 958.412 -4.54162 2.66542 0
M  V30 10093 H 960.903 -3.03625 2.24989 0
M  V30 10094 H 961.216 -5.81646 5.0883 0
M  V30 10095 H 959.561 -5.23547 4.57081 0
M  V30 10096 H 962.752 -3.7102 2.85416 0
M  V30 10097 H 962.925 -4.97814 4.14832 0
M  V30 10098 N 956.331 -0.831506 -1.3388 0
M  V30 10099 C 957.561 -0.436292 -2.01941 0
M  V30 10100 C 957.969 0.964979 -1.62741 0
M  V30 10101 O 957.312 1.63733 -0.832894 0
M  V30 10102 C 957.374 -0.468811 -3.5643 0
M  V30 10103 C 957.038 -1.82491 -4.18982 0
M  V30 10104 C 958.035 -2.78705 -4.38885 0
M  V30 10105 C 955.72 -2.11574 -4.55568 0
M  V30 10106 C 957.714 -4.02168 -4.94509 0
M  V30 10107 C 955.401 -3.35296 -5.10901 0
M  V30 10108 C 956.399 -4.3041 -5.30317 0
M  V30 10109 O 956.087 -5.51944 -5.84477 0
M  V30 10110 H 955.819 -0.172335 -0.653664 0
M  V30 10111 H 958.373 -1.12354 -1.71947 0
M  V30 10112 H 956.603 0.275179 -3.8572 0
M  V30 10113 H 958.292 -0.0924518 -4.05795 0
M  V30 10114 H 959.058 -2.57534 -4.10976 0
M  V30 10115 H 954.937 -1.38338 -4.39754 0
M  V30 10116 H 958.481 -4.76418 -5.09579 0
M  V30 10117 H 954.378 -3.56326 -5.3824 0
M  V30 10118 H 955.146 -5.53582 -6.029 0
M  V30 10119 N 957.809 1.4625 -0.587256 0
M  V30 10120 C 958.756 2.30354 0.143384 0
M  V30 10121 C 959.726 1.40891 0.879716 0
M  V30 10122 O 960.911 1.69837 0.869486 0
M  V30 10123 C 958.051 3.25441 1.14815 0
M  V30 10124 C 957.164 4.30004 0.414792 0
M  V30 10125 C 956.299 5.12214 1.40748 0
M  V30 10126 C 955.338 6.08523 0.660786 0
M  V30 10127 N 954.475 6.83585 1.60176 0
M  V30 10128 H 959.315 2.92304 -0.579866 0
M  V30 10129 H 956.852 1.44055 -0.29777 0
M  V30 10130 H 958.81 3.79018 1.7436 0
M  V30 10131 H 957.44 2.6529 1.83906 0
M  V30 10132 H 956.492 3.79248 -0.295787 0
M  V30 10133 H 957.804 4.98515 -0.168738 0
M  V30 10134 H 956.958 5.70091 2.0756 0
M  V30 10135 H 955.697 4.43675 2.02494 0
M  V30 10136 H 954.702 5.49796 -0.0210864 0
M  V30 10137 H 955.927 6.79083 0.0486551 0
M  V30 10138 H 953.873 6.17752 2.20724 0
M  V30 10139 H 953.79 7.48373 1.07115 0
M  V30 10140 H 955.058 7.46016 2.26009 0
M  V30 10141 N 959.287 0.325282 1.54207 0
M  V30 10142 C 960.534 -0.276775 2.006 0
M  V30 10143 C 960.862 -1.52007 1.21343 0
M  V30 10144 O 960.117 -1.93627 0.284104 0
M  V30 10145 C 960.416 -0.654292 3.5136 0
M  V30 10146 C 960.082 0.490023 4.48229 0
M  V30 10147 C 958.744 0.804104 4.74434 0
M  V30 10148 C 961.096 1.2586 5.05775 0
M  V30 10149 C 958.424 1.88945 5.55443 0
M  V30 10150 C 960.776 2.33405 5.87967 0
M  V30 10151 C 959.44 2.65393 6.12473 0
M  V30 10152 H 958.71 -0.101279 0.734046 0
M  V30 10153 H 961.357 0.449416 1.86152 0
M  V30 10154 H 959.662 -1.46093 3.63544 0
M  V30 10155 H 961.359 -1.13171 3.84699 0
M  V30 10156 H 957.949 0.235147 4.27954 0
M  V30 10157 H 962.133 1.02921 4.85511 0
M  V30 10158 H 957.389 2.14174 5.7266 0
M  V30 10159 H 961.563 2.93402 6.31576 0
M  V30 10160 H 959.19 3.49622 6.75032 0
M  V30 10161 N 960.765 -1.57509 0.0534917 0
M  V30 10162 C 961.99 -1.97511 -0.632794 0
M  V30 10163 C 962.415 -0.930947 -1.63447 0
M  V30 10164 O 961.773 0.105558 -1.80992 0
M  V30 10165 C 961.821 -3.3658 -1.29407 0
M  V30 10166 O 960.925 -3.3467 -2.40977 0
M  V30 10167 H 960.266 -0.643349 -0.16431 0
M  V30 10168 H 962.796 -2.04232 0.12258 0
M  V30 10169 H 962.806 -3.73359 -1.64521 0
M  V30 10170 H 961.481 -4.12113 -0.559976 0
M  V30 10171 H 960.058 -3.09639 -2.07793 0
M  V30 10172 N 962.243 0.219913 -1.56058 0
M  V30 10173 C 963.489 0.941055 -1.80321 0
M  V30 10174 C 963.844 1.81906 -0.626735 0
M  V30 10175 O 963.137 1.87811 0.379147 0
M  V30 10176 C 963.331 1.81293 -3.08006 0
M  V30 10177 C 963.16 1.02082 -4.37961 0
M  V30 10178 C 961.93 0.715096 -5.00214 0
M  V30 10179 C 964.128 0.385342 -5.12854 0
M  V30 10180 N 962.11 -0.098246 -6.13821 0
M  V30 10181 C 963.481 -0.291319 -6.19315 0
M  V30 10182 C 965.536 0.29854 -4.97004 0
M  V30 10183 C 964.239 -1.04648 -7.11647 0
M  V30 10184 C 966.265 -0.443159 -5.89737 0
M  V30 10185 C 965.627 -1.10836 -6.95625 0
M  V30 10186 H 961.726 0.324568 -0.711463 0
M  V30 10187 H 964.31 0.211795 -1.93545 0
M  V30 10188 H 962.481 2.51399 -2.96063 0
M  V30 10189 H 964.213 2.47167 -3.20454 0
M  V30 10190 H 960.968 1.03352 -4.62185 0
M  V30 10191 H 961.392 -0.4938 -6.75197 0
M  V30 10192 H 966.034 0.798478 -4.15192 0
M  V30 10193 H 963.752 -1.55793 -7.9294 0
M  V30 10194 H 967.338 -0.511348 -5.79549 0
M  V30 10195 H 966.218 -1.6731 -7.66144 0
M  V30 10196 N 963.721 1.49897 0.486681 0
M  V30 10197 C 964.946 1.64106 1.26823 0
M  V30 10198 C 965.371 0.317967 1.85393 0
M  V30 10199 O 964.729 -0.71626 1.66551 0
M  V30 10200 C 964.777 2.72301 2.36399 0
M  V30 10201 O 963.881 2.32469 3.40634 0
M  V30 10202 H 963.222 0.548794 0.373793 0
M  V30 10203 H 965.752 1.96177 0.581017 0
M  V30 10204 H 965.762 2.94906 2.81948 0
M  V30 10205 H 964.437 3.68335 1.93137 0
M  V30 10206 H 963.014 2.20251 3.00905 0
M  V30 10207 N 965.199 -0.738761 1.39212 0
M  V30 10208 C 966.61 -1.31684 1.32348 0
M  V30 10209 C 966.961 -1.96195 -0.0139041 0
M  V30 10210 O 966.086 -1.96056 -0.916025 0
M  V30 10211 C 966.681 -2.39444 2.39691 0
M  V30 10212 C 965.24 -2.92935 2.36359 0
M  V30 10213 C 964.387 -1.66465 2.21776 0
M  V30 10214 H 967.338 -0.536543 1.49355 0
M  V30 10215 H 967.359 -3.19744 2.06262 0
M  V30 10216 H 966.871 -1.92463 3.37016 0
M  V30 10217 H 964.972 -3.44207 1.42662 0
M  V30 10218 H 965.085 -3.46306 3.31073 0
M  V30 10219 H 963.449 -1.90657 1.68884 0
M  V30 10220 H 964.232 -1.21541 3.21065 0
M  V30 10221 N 966.677 -1.24326 -0.968545 0
M  V30 10222 C 967.923 -1.08406 -1.71394 0
M  V30 10223 C 968.256 0.376353 -1.90518 0
M  V30 10224 O 967.531 1.27816 -1.46606 0
M  V30 10225 C 967.814 -1.82344 -3.1052 0
M  V30 10226 C 967.667 -3.3613 -2.98893 0
M  V30 10227 C 968.986 -1.59545 -4.10163 0
M  V30 10228 H 966.105 -0.395205 -0.622079 0
M  V30 10229 H 968.747 -1.52983 -1.12677 0
M  V30 10230 H 966.897 -1.44452 -3.60646 0
M  V30 10231 H 968.569 -3.83614 -2.56199 0
M  V30 10232 H 966.812 -3.64553 -2.35124 0
M  V30 10233 H 967.483 -3.83064 -3.97449 0
M  V30 10234 H 969.959 -1.92504 -3.68892 0
M  V30 10235 H 968.835 -2.13736 -5.05577 0
M  V30 10236 H 969.096 -0.533503 -4.38869 0
M  V30 10237 N 968.156 1.1691 -1.05688 0
M  V30 10238 C 969.404 1.86922 -0.768409 0
M  V30 10239 C 969.725 1.81735 0.706921 0
M  V30 10240 O 968.995 1.24671 1.51109 0
M  V30 10241 H 967.575 0.69203 -0.281253 0
M  V30 10242 H 970.237 1.41803 -1.33708 0
M  V30 10243 H 969.333 2.92528 -1.08783 0
M  V30 10244 N 969.634 0.838594 1.33437 0
M  V30 10245 C 970.88 0.434813 1.98084 0
M  V30 10246 C 971.213 -1.00331 1.66275 0
M  V30 10247 O 970.488 -1.70139 0.942501 0
M  V30 10248 C 970.771 0.655602 3.54082 0
M  V30 10249 C 970.624 2.14097 3.95578 0
M  V30 10250 C 971.943 0.101576 4.39983 0
M  V30 10251 H 969.062 0.159456 0.719544 0
M  V30 10252 H 971.704 1.05406 1.58081 0
M  V30 10253 H 969.854 0.128501 3.88287 0
M  V30 10254 H 971.526 2.73292 3.71631 0
M  V30 10255 H 969.769 2.62558 3.4532 0
M  V30 10256 H 970.44 2.24621 5.04231 0
M  V30 10257 H 972.916 0.552122 4.12421 0
M  V30 10258 H 971.792 0.28575 5.48156 0
M  V30 10259 H 972.053 -0.994616 4.30767 0
M  V30 10260 N 971.112 -1.45937 0.595003 0
M  V30 10261 C 972.042 -2.33198 -0.11871 0
M  V30 10262 C 973.023 -1.46083 -0.871423 0
M  V30 10263 O 974.208 -1.74879 -0.844461 0
M  V30 10264 C 971.338 -3.28576 -1.12495 0
M  V30 10265 C 970.292 -4.25229 -0.486275 0
M  V30 10266 C 969.618 -5.10204 -1.59986 0
M  V30 10267 C 970.918 -5.19019 0.584473 0
M  V30 10268 H 972.612 -2.93122 0.609886 0
M  V30 10269 H 970.158 -1.40951 0.294742 0
M  V30 10270 H 972.111 -3.88485 -1.6327 0
M  V30 10271 H 970.835 -2.66784 -1.88398 0
M  V30 10272 H 969.494 -3.666 0.000507962 0
M  V30 10273 H 969.142 -4.44789 -2.34886 0
M  V30 10274 H 968.842 -5.75669 -1.1781 0
M  V30 10275 H 970.366 -5.7298 -2.11014 0
M  V30 10276 H 971.78 -5.73073 0.161297 0
M  V30 10277 H 970.177 -5.92893 0.927256 0
M  V30 10278 H 971.247 -4.62208 1.46601 0
M  V30 10279 N 972.59 -0.333456 -1.54032 0
M  V30 10280 C 973.523 0.570776 -2.20947 0
M  V30 10281 C 974.501 1.10811 -1.18994 0
M  V30 10282 O 975.685 1.17027 -1.47773 0
M  V30 10283 C 972.812 1.7842 -2.87896 0
M  V30 10284 C 971.858 1.37722 -4.03652 0
M  V30 10285 S 972.691 0.405548 -5.33962 0
M  V30 10286 C 973.847 1.62603 -6.0441 0
M  V30 10287 H 974.08 0.0023936 -2.973 0
M  V30 10288 H 971.613 -0.117531 -1.53952 0
M  V30 10289 H 973.571 2.48038 -3.27089 0
M  V30 10290 H 972.232 2.32378 -2.11327 0
M  V30 10291 H 971.425 2.28167 -4.49395 0
M  V30 10292 H 971.027 0.760628 -3.66184 0
M  V30 10293 H 973.319 2.56202 -6.2719 0
M  V30 10294 H 974.262 1.21058 -6.97675 0
M  V30 10295 H 974.67 1.8175 -5.34441 0
M  V30 10296 N 974.068 1.57479 -0.061844 0
M  V30 10297 C 975.016 2.13346 0.926629 0
M  V30 10298 C 976.01 1.06787 1.31502 0
M  V30 10299 O 977.216 1.25181 1.29343 0
M  V30 10300 H 973.591 0.682046 0.316729 0
M  V30 10301 H 975.562 2.95279 0.430424 0
M  V30 10302 C 974.311 2.70198 2.18834 0
M  V30 10303 H 973.634 3.51859 1.89829 0
M  V30 10304 H 975.074 3.12897 2.86132 0
M  V30 10305 C 973.533 1.64481 2.9402 0
M  V30 10306 O 974.063 1.0639 3.87355 0
M  V30 10307 N 972.269 1.35749 2.56944 0
M  V30 10308 H 971.816 1.83177 1.81119 0
M  V30 10309 H 971.774 0.652469 3.07555 0
M  V30 10310 N 975.546 -0.211634 1.56173 0
M  V30 10311 C 976.792 -0.935935 1.79911 0
M  V30 10312 C 977.125 -1.83589 0.633155 0
M  V30 10313 O 976.4 -1.91004 -0.367132 0
M  V30 10314 C 976.683 -1.76638 3.13801 0
M  V30 10315 C 976.536 -0.892259 4.40861 0
M  V30 10316 C 977.855 -2.74224 3.44223 0
M  V30 10317 H 974.974 -0.338822 0.654499 0
M  V30 10318 H 977.616 -0.20422 1.88899 0
M  V30 10319 H 975.766 -2.39021 3.0627 0
M  V30 10320 H 977.438 -0.284407 4.60422 0
M  V30 10321 H 975.681 -0.198145 4.33347 0
M  V30 10322 H 976.352 -1.50793 5.31004 0
M  V30 10323 H 978.828 -2.21975 3.51946 0
M  V30 10324 H 977.704 -3.29424 4.39057 0
M  V30 10325 H 977.965 -3.52455 2.66885 0
M  V30 10326 N 977.024 -1.50153 -0.478725 0
M  V30 10327 C 977.957 -1.63089 -1.59616 0
M  V30 10328 C 978.935 -0.479211 -1.55378 0
M  V30 10329 O 980.119 -0.697715 -1.75112 0
M  V30 10330 C 977.246 -1.60643 -2.9818 0
M  V30 10331 C 976.292 -2.81279 -3.206 0
M  V30 10332 S 977.125 -4.42681 -3.0132 0
M  V30 10333 C 978.281 -4.42915 -4.42241 0
M  V30 10334 H 978.514 -2.57612 -1.48402 0
M  V30 10335 H 976.047 -1.39321 -0.665513 0
M  V30 10336 H 978.005 -1.59917 -3.7807 0
M  V30 10337 H 976.666 -0.673684 -3.0679 0
M  V30 10338 H 975.859 -2.7585 -4.21809 0
M  V30 10339 H 975.461 -2.79533 -2.4847 0
M  V30 10340 H 977.753 -4.16007 -5.34737 0
M  V30 10341 H 978.696 -5.44477 -4.52715 0
M  V30 10342 H 979.104 -3.72715 -4.23962 0
M  V30 10343 N 978.502 0.731368 -1.39602 0
M  V30 10344 C 979.434 1.85575 -1.34516 0
M  V30 10345 C 980.447 1.60818 -0.253287 0
M  V30 10346 O 981.636 1.70984 -0.512505 0
M  V30 10347 C 978.736 3.21673 -1.06676 0
M  V30 10348 C 977.909 3.73757 -2.27211 0
M  V30 10349 C 976.968 4.88426 -1.95773 0
M  V30 10350 O 975.994 5.01898 -2.68491 0
M  V30 10351 N 977.196 5.73065 -0.926083 0
M  V30 10352 H 979.961 1.90442 -2.31413 0
M  V30 10353 H 977.522 0.912258 -1.33752 0
M  V30 10354 H 979.514 3.95959 -0.836577 0
M  V30 10355 H 978.084 3.12052 -0.185003 0
M  V30 10356 H 977.304 2.90781 -2.66158 0
M  V30 10357 H 978.592 4.05289 -3.07601 0
M  V30 10358 H 977.99 5.64774 -0.323497 0
M  V30 10359 H 976.547 6.47403 -0.755795 0
M  V30 10360 N 979.98 1.24838 0.961938 0
M  V30 10361 C 981.205 1.11967 1.7458 0
M  V30 10362 C 981.63 -0.323287 1.85301 0
M  V30 10363 O 980.988 -1.23412 1.32812 0
M  V30 10364 C 981.036 1.77066 3.14134 0
M  V30 10365 O 980.14 1.04534 3.98932 0
M  V30 10366 H 979.481 0.391338 0.536424 0
M  V30 10367 H 982.011 1.65259 1.20626 0
M  V30 10368 H 982.021 1.83056 3.64629 0
M  V30 10369 H 980.696 2.82052 3.05646 0
M  V30 10370 H 979.273 1.06372 3.57407 0
M  V30 10371 N 981.458 -1.16348 1.06306 0
M  V30 10372 C 982.421 -2.18941 0.678053 0
M  V30 10373 C 983.421 -1.58409 -0.276277 0
M  V30 10374 O 984.611 -1.74101 -0.0586435 0
M  V30 10375 C 981.743 -3.409 -0.00228684 0
M  V30 10376 H 982.936 -2.54516 1.58624 0
M  V30 10377 H 980.489 -1.30625 0.858298 0
M  V30 10378 H 981.224 -3.10881 -0.923212 0
M  V30 10379 H 981.009 -3.86089 0.683949 0
M  V30 10380 H 982.499 -4.16806 -0.257374 0
M  V30 10381 N 982.937 -0.845659 -1.3299 0
M  V30 10382 C 984.165 -0.45835 -2.01759 0
M  V30 10383 C 984.58 0.94239 -1.63598 0
M  V30 10384 O 983.937 1.61353 -0.852738 0
M  V30 10385 C 983.988 -0.577311 -3.5686 0
M  V30 10386 O 983.709 -1.92287 -3.93646 0
M  V30 10387 C 985.21 -0.187839 -4.42902 0
M  V30 10388 H 982.43 -0.181165 -0.646081 0
M  V30 10389 H 984.974 -1.14011 -1.6977 0
M  V30 10390 H 983.129 0.0566146 -3.87359 0
M  V30 10391 H 983.543 -1.91322 -4.88361 0
M  V30 10392 H 985.017 -0.322105 -5.51059 0
M  V30 10393 H 985.494 0.870896 -4.30479 0
M  V30 10394 H 986.1 -0.796473 -4.17776 0
M  V30 10395 N 984.415 1.45619 -0.602734 0
M  V30 10396 C 985.645 2.06348 -0.102105 0
M  V30 10397 C 986.053 1.44884 1.21677 0
M  V30 10398 O 985.396 0.555559 1.75098 0
M  V30 10399 C 985.458 3.59309 0.117026 0
M  V30 10400 C 985.122 4.43081 -1.11931 0
M  V30 10401 C 986.119 4.78364 -2.03627 0
M  V30 10402 C 983.804 4.83908 -1.34677 0
M  V30 10403 C 985.798 5.53325 -3.16403 0
M  V30 10404 C 983.485 5.58624 -2.47754 0
M  V30 10405 C 984.483 5.93249 -3.38445 0
M  V30 10406 O 984.171 6.6645 -4.49555 0
M  V30 10407 H 983.903 0.672988 -0.0637478 0
M  V30 10408 H 986.457 1.87928 -0.828983 0
M  V30 10409 H 984.687 3.76111 0.898742 0
M  V30 10410 H 986.376 4.01897 0.568649 0
M  V30 10411 H 987.142 4.47384 -1.87277 0
M  V30 10412 H 983.021 4.56396 -0.649875 0
M  V30 10413 H 986.565 5.80268 -3.87214 0
M  V30 10414 H 982.462 5.89019 -2.64059 0
M  V30 10415 H 983.23 6.84895 -4.48175 0
M  V30 10416 N 985.893 0.34162 1.53853 0
M  V30 10417 C 986.823 -0.508431 2.27897 0
M  V30 10418 C 987.804 -1.10425 1.29384 0
M  V30 10419 O 988.989 -1.126 1.58224 0
M  V30 10420 C 986.119 -1.66048 3.05034 0
M  V30 10421 C 985.073 -1.19309 4.11035 0
M  V30 10422 C 984.399 -2.4335 4.76114 0
M  V30 10423 C 985.699 -0.294952 5.21467 0
M  V30 10424 H 987.393 0.109251 2.99201 0
M  V30 10425 H 984.939 0.0539847 1.43899 0
M  V30 10426 H 986.892 -2.26158 3.5557 0
M  V30 10427 H 985.616 -2.30503 2.31379 0
M  V30 10428 H 984.275 -0.614809 3.61408 0
M  V30 10429 H 983.923 -3.06208 3.99056 0
M  V30 10430 H 983.623 -2.1276 5.47729 0
M  V30 10431 H 985.147 -3.0419 5.29434 0
M  V30 10432 H 986.561 -0.80285 5.67651 0
M  V30 10433 H 984.958 -0.0810221 6.00045 0
M  V30 10434 H 986.028 0.669433 4.80257 0
M  V30 10435 N 987.371 -1.57444 0.0701946 0
M  V30 10436 C 988.301 -2.15659 -0.895176 0
M  V30 10437 C 989.282 -1.08321 -1.31151 0
M  V30 10438 O 990.467 -1.36349 -1.38284 0
M  V30 10439 C 987.597 -2.71693 -2.16334 0
M  V30 10440 C 986.551 -3.84183 -1.88645 0
M  V30 10441 C 985.877 -4.26814 -3.22078 0
M  V30 10442 C 987.177 -5.08493 -1.19299 0
M  V30 10443 H 988.871 -2.96576 -0.410217 0
M  V30 10444 H 986.417 -1.42662 -0.195872 0
M  V30 10445 H 988.37 -3.11064 -2.84284 0
M  V30 10446 H 987.094 -1.87994 -2.67069 0
M  V30 10447 H 985.753 -3.45314 -1.23101 0
M  V30 10448 H 985.401 -3.40039 -3.70651 0
M  V30 10449 H 985.101 -5.02642 -3.04344 0
M  V30 10450 H 986.625 -4.68799 -3.91228 0
M  V30 10451 H 988.039 -5.4519 -1.77316 0
M  V30 10452 H 986.436 -5.89588 -1.11828 0
M  V30 10453 H 987.506 -4.84595 -0.171839 0
M  V30 10454 N 988.849 0.203349 -1.56283 0
M  V30 10455 C 990.126 0.950415 -1.70958 0
M  V30 10456 C 990.506 2.01708 -0.622647 0
M  V30 10457 O 989.854 2.25523 0.367635 0
M  V30 10458 C 990.064 1.54434 -3.12971 0
M  V30 10459 C 991.412 2.02964 -3.72949 0
M  V30 10460 O 992.436 1.64293 -3.16048 0
M  V30 10461 O 991.295 2.74097 -4.72793 0
M  V30 10462 H 988.389 0.445154 -0.69697 0
M  V30 10463 H 990.935 0.193695 -1.68591 0
M  V30 10464 H 989.707 0.77505 -3.83547 0
M  V30 10465 H 989.33 2.36611 -3.19532 0
M  V30 10466 N 990.327 1.50405 0.470755 0
M  V30 10467 C 991.575 1.61092 1.2204 0
M  V30 10468 C 991.896 0.313487 1.92464 0
M  V30 10469 O 991.166 -0.669043 1.84121 0
M  V30 10470 H 989.746 0.593618 0.45346 0
M  V30 10471 H 992.408 1.87184 0.542985 0
M  V30 10472 H 991.504 2.42222 1.96812 0
M  V30 10473 N 991.805 -0.723954 1.39988 0
M  V30 10474 C 992.752 -1.83803 1.39589 0
M  V30 10475 C 993.722 -1.64146 0.253996 0
M  V30 10476 O 994.907 -1.85398 0.450793 0
M  V30 10477 C 992.047 -3.21431 1.25604 0
M  V30 10478 C 991.16 -3.52717 2.49429 0
M  V30 10479 C 990.295 -4.79805 2.27949 0
M  V30 10480 C 989.334 -5.03968 3.47394 0
M  V30 10481 N 988.471 -6.22266 3.25161 0
M  V30 10482 H 993.311 -1.83479 2.34818 0
M  V30 10483 H 990.848 -0.896396 1.16633 0
M  V30 10484 H 992.806 -4.00892 1.15504 0
M  V30 10485 H 991.436 -3.21005 0.339986 0
M  V30 10486 H 990.488 -2.67872 2.7009 0
M  V30 10487 H 991.8 -3.66486 3.38363 0
M  V30 10488 H 990.954 -5.67268 2.15155 0
M  V30 10489 H 989.693 -4.68229 1.36428 0
M  V30 10490 H 988.698 -4.14963 3.60674 0
M  V30 10491 H 989.923 -5.17422 4.39831 0
M  V30 10492 H 987.869 -6.11957 2.36314 0
M  V30 10493 H 987.786 -6.36673 4.07656 0
M  V30 10494 H 989.054 -7.12539 3.16083 0
M  V30 10495 N 993.283 -1.25346 -0.955304 0
M  V30 10496 C 994.529 -1.10218 -1.70235 0
M  V30 10497 C 994.862 0.356124 -1.90907 0
M  V30 10498 O 994.137 1.26253 -1.47954 0
M  V30 10499 C 994.42 -1.85627 -3.08569 0
M  V30 10500 C 994.273 -3.39281 -2.95311 0
M  V30 10501 C 995.592 -1.63886 -4.08448 0
M  V30 10502 H 992.711 -0.401781 -0.617852 0
M  V30 10503 H 995.353 -1.5417 -1.11048 0
M  V30 10504 H 993.503 -1.48269 -3.59094 0
M  V30 10505 H 995.175 -3.8631 -2.52116 0
M  V30 10506 H 993.418 -3.67027 -2.31244 0
M  V30 10507 H 994.089 -3.87258 -3.93364 0
M  V30 10508 H 996.565 -1.96406 -3.6683 0
M  V30 10509 H 995.441 -2.19087 -5.03281 0
M  V30 10510 H 995.702 -0.580021 -4.38279 0
M  V30 10511 N 994.761 1.15782 -1.06922 0
M  V30 10512 C 996.007 1.86741 -0.790922 0
M  V30 10513 C 996.34 1.81863 0.681149 0
M  V30 10514 O 995.615 1.23871 1.49954 0
M  V30 10515 C 995.898 3.36038 -1.29422 0
M  V30 10516 C 995.751 3.49573 -2.83052 0
M  V30 10517 C 997.07 4.30647 -0.907239 0
M  V30 10518 H 994.189 0.678064 -0.288787 0
M  V30 10519 H 996.831 1.36054 -1.32624 0
M  V30 10520 H 994.981 3.79336 -0.838843 0
M  V30 10521 H 996.653 3.1517 -3.36847 0
M  V30 10522 H 994.896 2.91275 -3.21467 0
M  V30 10523 H 995.567 4.5445 -3.13335 0
M  V30 10524 H 998.043 3.95286 -1.29956 0
M  V30 10525 H 996.919 5.33604 -1.28679 0
M  V30 10526 H 997.18 4.41703 0.187251 0
M  V30 10527 N 996.239 0.8527 1.3254 0
M  V30 10528 C 997.187 0.284659 2.30852 0
M  V30 10529 C 998.181 -0.5909 1.5876 0
M  V30 10530 O 999.387 -0.478922 1.73512 0
M  V30 10531 H 995.762 0.0733452 0.748415 0
M  V30 10532 H 997.733 1.1281 2.76254 0
M  V30 10533 C 996.482 -0.51379 3.43883 0
M  V30 10534 H 995.805 0.150644 3.99516 0
M  V30 10535 H 997.245 -0.876866 4.14834 0
M  V30 10536 C 995.704 -1.69823 2.90967 0
M  V30 10537 O 996.234 -2.79727 2.88298 0
M  V30 10538 N 994.44 -1.52465 2.47392 0
M  V30 10539 H 993.987 -0.630599 2.49762 0
M  V30 10540 H 993.945 -2.31859 2.12341 0
M  V30 10541 N 997.718 -1.45297 0.610449 0
M  V30 10542 C 998.964 -2.02518 0.106917 0
M  V30 10543 C 999.297 -1.47747 -1.26034 0
M  V30 10544 O 998.572 -0.65329 -1.832 0
M  V30 10545 C 998.855 -3.6003 0.0710975 0
M  V30 10546 C 998.708 -4.25128 1.46922 0
M  V30 10547 C 1000.03 -4.35778 -0.61524 0
M  V30 10548 H 997.146 -0.735896 0.040327 0
M  V30 10549 H 999.788 -1.73117 0.782968 0
M  V30 10550 H 997.938 -3.85209 -0.504611 0
M  V30 10551 H 999.61 -4.11125 2.09223 0
M  V30 10552 H 997.853 -3.83418 2.02911 0
M  V30 10553 H 998.524 -5.34046 1.39637 0
M  V30 10554 H 1001 -4.1591 -0.125871 0
M  V30 10555 H 999.876 -5.45506 -0.609419 0
M  V30 10556 H 1000.14 -4.08859 -1.68186 0
M  V30 10557 N 999.196 -0.349774 -1.5367 0
M  V30 10558 C 1000.16 0.491676 -2.23864 0
M  V30 10559 C 1001.16 1.02256 -1.24098 0
M  V30 10560 O 1002.35 0.910816 -1.48492 0
M  V30 10561 C 999.481 1.68557 -2.96313 0
M  V30 10562 H 1000.67 -0.12233 -2.9965 0
M  V30 10563 H 998.227 -0.101214 -1.55972 0
M  V30 10564 H 998.962 2.3381 -2.2473 0
M  V30 10565 H 998.747 1.31203 -3.69497 0
M  V30 10566 H 1000.24 2.28225 -3.49718 0
M  V30 10567 N 1000.67 1.57404 -0.0785433 0
M  V30 10568 C 1001.92 1.93361 0.58786 0
M  V30 10569 C 1002.24 0.959856 1.6974 0
M  V30 10570 O 1001.51 0.0091173 1.95898 0
M  V30 10571 H 1000.09 0.713825 0.220141 0
M  V30 10572 H 1002.75 1.94411 -0.137986 0
M  V30 10573 H 1001.85 2.95346 1.00881 0
M  V30 10574 N 1002.15 -0.195058 1.56388 0
M  V30 10575 C 1003.4 -0.913636 1.8027 0
M  V30 10576 C 1003.72 -1.83791 0.651606 0
M  V30 10577 O 1002.99 -1.931 -0.330057 0
M  V30 10578 H 1001.57 -0.34036 0.664954 0
M  V30 10579 H 1004.23 -0.200559 1.93865 0
M  V30 10580 H 1003.33 -1.50473 2.7343 0
M  V30 10581 N 1003.63 -1.50653 -0.462772 0
M  V30 10582 C 1004.88 -1.61296 -1.21105 0
M  V30 10583 C 1005.19 -0.322757 -1.92919 0
M  V30 10584 O 1006.4 -0.308211 -2.69745 0
M  V30 10585 C 1004.85 -2.84752 -2.201 0
M  V30 10586 C 1004.46 -4.20681 -1.54051 0
M  V30 10587 C 1006.21 -3.04744 -2.95518 0
M  V30 10588 C 1004.11 -5.35314 -2.51381 0
M  V30 10589 H 1003.04 -0.60069 -0.455728 0
M  V30 10590 H 1005.69 -1.77093 -0.480656 0
M  V30 10591 H 1004.08 -2.62532 -2.96467 0
M  V30 10592 H 1005.25 -4.53187 -0.834168 0
M  V30 10593 H 1003.56 -4.06361 -0.908828 0
M  V30 10594 H 1006.16 -3.87559 -3.68378 0
M  V30 10595 H 1006.5 -2.16802 -3.55391 0
M  V30 10596 H 1007.04 -3.27185 -2.26263 0
M  V30 10597 H 1003.78 -6.25437 -1.96235 0
M  V30 10598 H 1003.3 -5.07216 -3.20144 0
M  V30 10599 H 1004.98 -5.66229 -3.1304 0
M  V30 10600 N 1005.11 0.71652 -1.4037 0
M  V30 10601 C 1006.33 1.51069 -1.42102 0
M  V30 10602 C 1006.76 1.88087 -0.0222387 0
M  V30 10603 O 1006.12 1.53204 0.969448 0
M  V30 10604 C 1006.16 2.76307 -2.31704 0
M  V30 10605 O 1005.27 3.72975 -1.75964 0
M  V30 10606 H 1004.61 0.455502 -0.483129 0
M  V30 10607 H 1007.14 0.882514 -1.84588 0
M  V30 10608 H 1007.15 3.24846 -2.46859 0
M  V30 10609 H 1005.82 2.48698 -3.3335 0
M  V30 10610 H 1004.4 3.31818 -1.70151 0
M  V30 10611 N 1006.59 1.25851 0.948643 0
M  V30 10612 C 1007.83 1.10954 1.69397 0
M  V30 10613 C 1008.16 -0.348443 1.91353 0
M  V30 10614 O 1007.42 -1.27285 1.48651 0
M  V30 10615 C 1007.72 1.81565 3.07846 0
M  V30 10616 C 1007.38 3.31477 3.0567 0
M  V30 10617 C 1006.04 3.72371 3.04784 0
M  V30 10618 C 1008.4 4.27225 2.98543 0
M  V30 10619 C 1005.72 5.07416 2.94527 0
M  V30 10620 C 1008.08 5.62301 2.89828 0
M  V30 10621 C 1006.74 6.02516 2.87281 0
M  V30 10622 H 1006.01 0.406011 0.619868 0
M  V30 10623 H 1008.66 1.562 1.10787 0
M  V30 10624 H 1006.96 1.28767 3.70035 0
M  V30 10625 H 1008.66 1.67486 3.64348 0
M  V30 10626 H 1005.25 2.98941 3.07135 0
M  V30 10627 H 1009.43 3.96618 2.98342 0
M  V30 10628 H 1004.69 5.37746 2.90928 0
M  V30 10629 H 1008.86 6.36182 2.83276 0
M  V30 10630 H 1006.49 7.07116 2.79089 0
M  V30 10631 N 1008.06 -1.15214 1.07534 0
M  V30 10632 C 1008.99 -2.2216 0.718837 0
M  V30 10633 C 1009.98 -1.6753 -0.29459 0
M  V30 10634 O 1011.16 -1.93481 -0.166931 0
M  V30 10635 C 1008.29 -3.471 0.117836 0
M  V30 10636 C 1007.24 -4.14701 1.05862 0
M  V30 10637 C 1006.57 -5.3374 0.320284 0
M  V30 10638 C 1007.87 -4.64254 2.39302 0
M  V30 10639 H 1009.56 -2.52237 1.61297 0
M  V30 10640 H 1007.11 -1.21239 0.776992 0
M  V30 10641 H 1009.06 -4.21156 -0.143519 0
M  V30 10642 H 1007.79 -3.16361 -0.811389 0
M  V30 10643 H 1006.45 -3.42589 1.30493 0
M  V30 10644 H 1006.09 -4.99257 -0.61246 0
M  V30 10645 H 1005.79 -5.79912 0.947381 0
M  V30 10646 H 1007.32 -6.10563 0.0667721 0
M  V30 10647 H 1008.73 -5.29827 2.18988 0
M  V30 10648 H 1007.13 -5.21095 2.97623 0
M  V30 10649 H 1008.2 -3.79793 3.01472 0
M  V30 10650 N 1009.54 -0.859717 -1.32086 0
M  V30 10651 C 1010.82 -0.386665 -1.9174 0
M  V30 10652 C 1011.2 1.13028 -1.78292 0
M  V30 10653 O 1010.55 1.95422 -1.18417 0
M  V30 10654 C 1010.76 -0.856648 -3.38323 0
M  V30 10655 C 1012.11 -0.87678 -4.15449 0
M  V30 10656 O 1013.13 -0.80162 -3.47063 0
M  V30 10657 O 1011.99 -0.98373 -5.37573 0
M  V30 10658 H 1009.08 -0.113758 -0.819139 0
M  V30 10659 H 1011.63 -0.946952 -1.40822 0
M  V30 10660 H 1010.4 -1.89996 -3.42078 0
M  V30 10661 H 1010.02 -0.274095 -3.96654 0
M  V30 10662 N 1011.02 1.44971 -0.618145 0
M  V30 10663 C 1011.98 2.29044 0.0846739 0
M  V30 10664 C 1012.98 1.40341 0.784921 0
M  V30 10665 O 1014.17 1.62351 0.631479 0
M  V30 10666 C 1011.31 3.21617 1.13027 0
M  V30 10667 H 1012.5 2.92668 -0.654612 0
M  V30 10668 H 1010.05 1.51668 -0.377672 0
M  V30 10669 H 1010.79 2.62815 1.89997 0
M  V30 10670 H 1010.57 3.86969 0.63224 0
M  V30 10671 H 1012.06 3.84805 1.62218 0
M  V30 10672 N 1012.5 0.357919 1.53482 0
M  V30 10673 C 1013.74 -0.23451 2.0144 0
M  V30 10674 C 1014.08 -1.49044 1.24497 0
M  V30 10675 O 1013.35 -1.91566 0.336535 0
M  V30 10676 C 1013.64 -0.534193 3.56116 0
M  V30 10677 C 1013.49 0.734834 4.43757 0
M  V30 10678 C 1014.81 -1.33793 4.1927 0
M  V30 10679 H 1011.93 -0.0837595 0.732225 0
M  V30 10680 H 1014.57 0.481297 1.83803 0
M  V30 10681 H 1012.72 -1.144 3.71275 0
M  V30 10682 H 1014.39 1.37251 4.40409 0
M  V30 10683 H 1012.63 1.35678 4.12036 0
M  V30 10684 H 1013.3 0.48021 5.49907 0
M  V30 10685 H 1015.78 -0.822158 4.07897 0
M  V30 10686 H 1014.66 -1.51636 5.27539 0
M  V30 10687 H 1014.92 -2.34423 3.74831 0
M  V30 10688 N 1013.98 -1.5736 0.0868897 0
M  V30 10689 C 1015.2 -1.98388 -0.587349 0
M  V30 10690 C 1015.62 -0.965757 -1.6223 0
M  V30 10691 O 1014.98 0.0456981 -1.82443 0
M  V30 10692 C 1015.03 -3.39479 -1.24242 0
M  V30 10693 O 1014.75 -4.37393 -0.248878 0
M  V30 10694 C 1016.25 -3.95465 -2.00305 0
M  V30 10695 H 1013.47 -0.652111 -0.15809 0
M  V30 10696 H 1016.01 -2.03843 0.163754 0
M  V30 10697 H 1014.17 -3.35063 -1.94451 0
M  V30 10698 H 1014.58 -5.19525 -0.720678 0
M  V30 10699 H 1016.06 -4.96363 -2.41511 0
M  V30 10700 H 1016.53 -3.32832 -2.86565 0
M  V30 10701 H 1017.14 -4.03328 -1.34931 0
M  V30 10702 N 1015.45 0.186762 -1.56489 0
M  V30 10703 C 1016.68 0.925916 -1.85584 0
M  V30 10704 C 1017.1 1.75708 -0.671446 0
M  V30 10705 O 1016.46 1.7728 0.379687 0
M  V30 10706 C 1016.51 1.79107 -3.12975 0
M  V30 10707 O 1015.61 2.89088 -2.94112 0
M  V30 10708 H 1014.96 0.260275 -0.610863 0
M  V30 10709 H 1017.49 0.189561 -2.0372 0
M  V30 10710 H 1017.5 2.19408 -3.43983 0
M  V30 10711 H 1016.17 1.18044 -3.98796 0
M  V30 10712 H 1014.75 2.52482 -2.74422 0
M  V30 10713 N 1016.93 1.50896 0.454776 0
M  V30 10714 C 1017.87 1.65608 1.57001 0
M  V30 10715 C 1018.84 0.50387 1.54596 0
M  V30 10716 O 1020.03 0.725485 1.7398 0
M  V30 10717 C 1017.15 1.65366 2.95587 0
M  V30 10718 C 1016.2 2.86344 3.16085 0
M  V30 10719 S 1017.03 4.47418 2.9424 0
M  V30 10720 C 1018.19 4.49895 4.35138 0
M  V30 10721 H 1018.42 2.59941 1.44285 0
M  V30 10722 H 1015.96 1.40362 0.643264 0
M  V30 10723 H 1017.91 1.65911 3.75478 0
M  V30 10724 H 1016.57 0.722407 3.0568 0
M  V30 10725 H 1015.77 2.82526 4.17367 0
M  V30 10726 H 1015.37 2.8345 2.43992 0
M  V30 10727 H 1017.66 4.24462 5.28051 0
M  V30 10728 H 1018.6 5.5161 4.43995 0
M  V30 10729 H 1019.01 3.79412 4.17979 0
M  V30 10730 N 1018.41 -0.709066 1.40748 0
M  V30 10731 C 1019.69 -1.4626 1.29874 0
M  V30 10732 C 1020.07 -2.10949 -0.0799322 0
M  V30 10733 O 1019.42 -2.00651 -1.09323 0
M  V30 10734 C 1019.63 -2.49302 2.44232 0
M  V30 10735 C 1020.97 -3.14945 2.84771 0
M  V30 10736 O 1022 -2.59623 2.43873 0
M  V30 10737 O 1020.86 -4.15111 3.5545 0
M  V30 10738 H 1017.95 -0.650716 0.51039 0
M  V30 10739 H 1020.5 -0.740687 1.52682 0
M  V30 10740 H 1019.27 -2.00063 3.36289 0
M  V30 10741 H 1018.89 -3.29021 2.23229 0
M  V30 10742 N 1019.89 -1.26353 -0.941956 0
M  V30 10743 C 1021.14 -1.11851 -1.68806 0
M  V30 10744 C 1021.46 0.33829 -1.91535 0
M  V30 10745 O 1020.72 1.26495 -1.49324 0
M  V30 10746 C 1021.02 -1.83195 -3.06879 0
M  V30 10747 C 1020.68 -3.33093 -3.03908 0
M  V30 10748 C 1019.35 -3.73982 -3.02805 0
M  V30 10749 C 1021.7 -4.28803 -2.96273 0
M  V30 10750 C 1019.03 -5.08971 -2.91832 0
M  V30 10751 C 1021.38 -5.6383 -2.86842 0
M  V30 10752 C 1020.04 -6.04032 -2.84081 0
M  V30 10753 H 1019.31 -0.409293 -0.617706 0
M  V30 10754 H 1021.96 -1.56785 -1.09957 0
M  V30 10755 H 1020.26 -1.30728 -3.69347 0
M  V30 10756 H 1021.96 -1.69416 -3.63455 0
M  V30 10757 H 1018.55 -3.00566 -3.05546 0
M  V30 10758 H 1022.74 -3.98195 -2.96234 0
M  V30 10759 H 1017.99 -5.39282 -2.88072 0
M  V30 10760 H 1022.17 -6.37676 -2.79898 0
M  V30 10761 H 1019.79 -7.08586 -2.75335 0
M  V30 10762 N 1021.37 1.14642 -1.08144 0
M  V30 10763 C 1022.61 1.85617 -0.809484 0
M  V30 10764 C 1022.94 1.8279 0.664672 0
M  V30 10765 O 1022.2 1.25178 1.50429 0
M  V30 10766 C 1022.5 3.33953 -1.2732 0
M  V30 10767 C 1022.16 3.56969 -2.7547 0
M  V30 10768 C 1020.82 3.6296 -3.15933 0
M  V30 10769 C 1023.18 3.66014 -3.71057 0
M  V30 10770 C 1020.5 3.75515 -4.50783 0
M  V30 10771 C 1022.86 3.80094 -5.05679 0
M  V30 10772 C 1021.52 3.84333 -5.45751 0
M  V30 10773 H 1020.79 0.67922 -0.296211 0
M  V30 10774 H 1023.44 1.35433 -1.35389 0
M  V30 10775 H 1021.74 3.86399 -0.648329 0
M  V30 10776 H 1023.44 3.87291 -1.03957 0
M  V30 10777 H 1020.03 3.52953 -2.4315 0
M  V30 10778 H 1024.21 3.60679 -3.40917 0
M  V30 10779 H 1019.47 3.77057 -4.81288 0
M  V30 10780 H 1023.64 3.86035 -5.79612 0
M  V30 10781 H 1021.27 3.93814 -6.50242 0
M  V30 10782 N 1022.85 0.866709 1.31628 0
M  V30 10783 C 1024.26 0.529032 1.79048 0
M  V30 10784 C 1024.61 -0.953871 1.71452 0
M  V30 10785 O 1023.73 -1.74462 1.28031 0
M  V30 10786 C 1024.33 0.953522 3.25105 0
M  V30 10787 C 1022.89 0.667554 3.70433 0
M  V30 10788 C 1022.03 1.14664 2.52483 0
M  V30 10789 H 1024.98 1.05275 1.18756 0
M  V30 10790 H 1025.01 0.274844 3.79506 0
M  V30 10791 H 1024.52 2.03283 3.30602 0
M  V30 10792 H 1022.62 -0.400532 3.70441 0
M  V30 10793 H 1022.73 1.2423 4.62714 0
M  V30 10794 H 1021.1 0.566502 2.4832 0
M  V30 10795 H 1021.88 2.2333 2.60727 0
M  V30 10796 N 1024.32 -1.44642 0.625825 0
M  V30 10797 C 1025.57 -2.01695 0.127948 0
M  V30 10798 C 1025.89 -1.49439 -1.25271 0
M  V30 10799 O 1025.16 -0.695873 -1.83124 0
M  V30 10800 H 1023.74 -0.745685 0.0443096 0
M  V30 10801 H 1026.4 -1.7721 0.811332 0
M  V30 10802 H 1025.5 -3.11966 0.0915933 0
M  V30 10803 N 1025.8 -0.366053 -1.5329 0
M  V30 10804 C 1026.73 0.47211 -2.28677 0
M  V30 10805 C 1027.71 1.08353 -1.31125 0
M  V30 10806 O 1028.9 1.10069 -1.59995 0
M  V30 10807 C 1026.03 1.61174 -3.07637 0
M  V30 10808 C 1024.98 1.12755 -4.12881 0
M  V30 10809 C 1024.31 2.35745 -4.79925 0
M  V30 10810 C 1025.61 0.211954 -5.2187 0
M  V30 10811 H 1027.3 -0.156838 -2.98989 0
M  V30 10812 H 1024.85 -0.0768709 -1.43795 0
M  V30 10813 H 1026.8 2.20473 -3.59123 0
M  V30 10814 H 1025.52 2.26793 -2.35016 0
M  V30 10815 H 1024.18 0.557234 -3.6234 0
M  V30 10816 H 1023.83 2.99821 -4.03877 0
M  V30 10817 H 1023.53 2.04019 -5.51044 0
M  V30 10818 H 1025.06 2.95729 -5.34207 0
M  V30 10819 H 1026.47 0.71244 -5.68856 0
M  V30 10820 H 1024.87 -0.0144501 -6.00098 0
M  V30 10821 H 1025.94 -0.745753 -4.79131 0
M  V30 10822 N 1027.28 1.57312 -0.0952337 0
M  V30 10823 C 1028.23 2.15263 0.881167 0
M  V30 10824 C 1029.22 1.09552 1.29208 0
M  V30 10825 O 1030.43 1.27897 1.26659 0
M  V30 10826 H 1026.8 0.688611 0.302191 0
M  V30 10827 H 1028.77 2.96126 0.367694 0
M  V30 10828 C 1027.52 2.74779 2.13053 0
M  V30 10829 H 1026.85 3.55807 1.82323 0
M  V30 10830 H 1028.29 3.18895 2.79431 0
M  V30 10831 C 1026.74 1.7068 2.90465 0
M  V30 10832 O 1027.27 1.14582 3.85011 0
M  V30 10833 N 1025.48 1.41169 2.54007 0
M  V30 10834 H 1025.03 1.86977 1.77193 0
M  V30 10835 H 1024.99 0.717559 3.06102 0
M  V30 10836 N 1028.76 -0.17846 1.56586 0
M  V30 10837 C 1029.69 -1.22342 1.98884 0
M  V30 10838 C 1030.67 -1.46564 0.86331 0
M  V30 10839 O 1031.85 -1.58019 1.12887 0
M  V30 10840 C 1028.98 -2.56396 2.34261 0
M  V30 10841 C 1027.94 -2.46756 3.49708 0
M  V30 10842 C 1027.26 -3.85235 3.70807 0
M  V30 10843 C 1028.56 -1.97838 4.83381 0
M  V30 10844 H 1030.26 -0.871848 2.86425 0
M  V30 10845 H 1027.8 -0.417948 1.37801 0
M  V30 10846 H 1029.76 -3.29695 2.62448 0
M  V30 10847 H 1028.48 -2.93327 1.43621 0
M  V30 10848 H 1027.14 -1.75912 3.21637 0
M  V30 10849 H 1026.79 -4.19547 2.7747 0
M  V30 10850 H 1026.49 -3.79655 4.48481 0
M  V30 10851 H 1028.01 -4.60131 4.01387 0
M  V30 10852 H 1029.43 -2.60906 5.10491 0
M  V30 10853 H 1027.82 -2.03223 5.64642 0
M  V30 10854 H 1028.89 -0.932339 4.75852 0
M  V30 10855 N 1030.24 -1.51135 -0.446768 0
M  V30 10856 C 1031.15 -1.74595 -1.56696 0
M  V30 10857 C 1032.16 -0.629816 -1.62201 0
M  V30 10858 O 1033.34 -0.910987 -1.79619 0
M  V30 10859 C 1030.4 -1.85738 -2.9275 0
M  V30 10860 C 1029.46 -3.09564 -2.97437 0
M  V30 10861 C 1028.7 -3.20165 -4.27001 0
M  V30 10862 O 1028.92 -2.36939 -5.1886 0
M  V30 10863 O 1027.85 -4.13077 -4.3778 0
M  V30 10864 H 1031.68 -2.69601 -1.39817 0
M  V30 10865 H 1029.26 -1.35523 -0.628805 0
M  V30 10866 H 1031.15 -1.95107 -3.73512 0
M  V30 10867 H 1029.82 -0.939184 -3.09776 0
M  V30 10868 H 1028.73 -3.05679 -2.15664 0
M  V30 10869 H 1030.06 -4.01041 -2.85353 0
M  V30 10870 N 1031.71 0.701592 -1.41122 0
M  V30 10871 C 1032.96 1.45871 -1.39879 0
M  V30 10872 C 1033.28 1.94999 -0.00668769 0
M  V30 10873 O 1032.55 1.71298 0.95047 0
M  V30 10874 H 1031.13 0.541231 -0.514857 0
M  V30 10875 H 1033.79 0.830803 -1.76306 0
M  V30 10876 H 1032.89 2.32479 -2.0823 0
M  V30 10877 N 1033.19 1.2685 0.935242 0
M  V30 10878 C 1034.42 1.15371 1.71386 0
M  V30 10879 C 1034.83 -0.293048 1.86917 0
M  V30 10880 O 1034.17 -1.212 1.38044 0
M  V30 10881 C 1034.23 1.75652 3.13666 0
M  V30 10882 C 1033.9 3.24788 3.215 0
M  V30 10883 C 1034.9 4.21525 3.04323 0
M  V30 10884 C 1032.58 3.65359 3.447 0
M  V30 10885 C 1034.57 5.56812 3.10224 0
M  V30 10886 C 1032.26 5.00778 3.50235 0
M  V30 10887 C 1033.26 5.96314 3.33014 0
M  V30 10888 O 1032.95 7.29266 3.38269 0
M  V30 10889 H 1032.68 0.40234 0.54323 0
M  V30 10890 H 1035.23 1.68083 1.18056 0
M  V30 10891 H 1033.46 1.17408 3.68446 0
M  V30 10892 H 1035.15 1.58994 3.73465 0
M  V30 10893 H 1035.92 3.91519 2.86249 0
M  V30 10894 H 1031.8 2.91479 3.57157 0
M  V30 10895 H 1035.34 6.3136 2.967 0
M  V30 10896 H 1031.24 5.30444 3.67831 0
M  V30 10897 H 1032.01 7.37616 3.54774 0
M  V30 10898 N 1034.67 -1.14067 1.0875 0
M  V30 10899 C 1036.08 -1.66747 0.839778 0
M  V30 10900 C 1036.43 -1.85711 -0.632909 0
M  V30 10901 O 1035.56 -1.57084 -1.48841 0
M  V30 10902 C 1036.15 -3.02896 1.51787 0
M  V30 10903 C 1034.71 -3.52596 1.3173 0
M  V30 10904 C 1033.86 -2.27994 1.57841 0
M  V30 10905 H 1036.81 -0.980838 1.24761 0
M  V30 10906 H 1036.83 -3.68526 0.947057 0
M  V30 10907 H 1036.34 -2.89062 2.58969 0
M  V30 10908 H 1034.44 -3.71647 0.266339 0
M  V30 10909 H 1034.56 -4.33151 2.04736 0
M  V30 10910 H 1032.92 -2.34241 1.00015 0
M  V30 10911 H 1033.7 -2.16732 2.66237 0
M  V30 10912 N 1036.15 -0.873678 -1.31166 0
M  V30 10913 C 1037.1 -0.321349 -2.3037 0
M  V30 10914 C 1038.09 0.565568 -1.5968 0
M  V30 10915 O 1039.3 0.451257 -1.74252 0
M  V30 10916 H 1035.67 -0.0852425 -0.747153 0
M  V30 10917 H 1037.64 -1.17191 -2.74425 0
M  V30 10918 C 1036.39 0.459016 -3.44657 0
M  V30 10919 H 1035.71 -0.214185 -3.99226 0
M  V30 10920 H 1037.15 0.810758 -4.16176 0
M  V30 10921 C 1035.61 1.65173 -2.93632 0
M  V30 10922 O 1036.14 2.75105 -2.92711 0
M  V30 10923 N 1034.35 1.4851 -2.49786 0
M  V30 10924 H 1033.9 0.590785 -2.50734 0
M  V30 10925 H 1033.85 2.28452 -2.16002 0
M  V30 10926 N 1037.63 1.44308 -0.633487 0
M  V30 10927 C 1039.04 1.56768 -0.29931 0
M  V30 10928 C 1039.24 1.62061 1.19743 0
M  V30 10929 O 1038.3 1.56492 1.98158 0
M  V30 10930 C 1039.61 2.8382 -0.993307 0
M  V30 10931 C 1041.16 2.97536 -0.971674 0
M  V30 10932 C 1041.63 4.27393 -1.64618 0
M  V30 10933 N 1043.13 4.34212 -1.61288 0
M  V30 10934 C 1043.86 5.33415 -2.1037 0
M  V30 10935 N 1043.36 6.3901 -2.67653 0
M  V30 10936 N 1045.15 5.24939 -2.00985 0
M  V30 10937 H 1037.3 1.39115 -1.60501 0
M  V30 10938 H 1039.56 0.666804 -0.673852 0
M  V30 10939 H 1039.27 2.85902 -2.04823 0
M  V30 10940 H 1039.14 3.73422 -0.532537 0
M  V30 10941 H 1041.53 2.95005 0.0747854 0
M  V30 10942 H 1041.61 2.09276 -1.47096 0
M  V30 10943 H 1041.26 4.30683 -2.6921 0
M  V30 10944 H 1041.19 5.14515 -1.12171 0
M  V30 10945 H 1043.68 3.58519 -1.19468 0
M  V30 10946 H 1043.99 7.10994 -3.02831 0
M  V30 10947 H 1042.33 6.39689 -2.71705 0
M  V30 10948 H 1045.53 4.41357 -1.55953 0
M  V30 10949 H 1045.7 6.02097 -2.39547 0
M  V30 10950 N 1039.1 0.374177 1.53094 0
M  V30 10951 C 1040.38 -0.269632 1.93733 0
M  V30 10952 C 1040.76 -1.6566 1.30843 0
M  V30 10953 O 1040.11 -2.23598 0.470759 0
M  V30 10954 C 1040.32 -0.311204 3.4761 0
M  V30 10955 C 1041.67 -0.547432 4.21056 0
M  V30 10956 O 1042.69 -0.392053 3.54036 0
M  V30 10957 O 1041.55 -0.850645 5.39839 0
M  V30 10958 H 1038.64 -0.163723 0.810632 0
M  V30 10959 H 1041.19 0.427586 1.64225 0
M  V30 10960 H 1039.96 0.660897 3.85678 0
M  V30 10961 H 1039.59 -1.05397 3.83376 0
M  V30 10962 N 1040.58 -1.57259 0.103575 0
M  V30 10963 C 1041.81 -1.99424 -0.569638 0
M  V30 10964 C 1042.23 -0.982475 -1.60403 0
M  V30 10965 O 1041.59 0.0479231 -1.81237 0
M  V30 10966 C 1041.64 -3.40527 -1.18633 0
M  V30 10967 O 1040.74 -3.42167 -2.30208 0
M  V30 10968 H 1040.08 -0.648251 -0.143759 0
M  V30 10969 H 1042.61 -2.03739 0.187493 0
M  V30 10970 H 1042.62 -3.78404 -1.5256 0
M  V30 10971 H 1041.3 -4.13686 -0.428582 0
M  V30 10972 H 1039.88 -3.16093 -1.97837 0
M  V30 10973 N 1042.06 0.170153 -1.56679 0
M  V30 10974 C 1043.29 0.902134 -1.86197 0
M  V30 10975 C 1043.7 1.75775 -0.689098 0
M  V30 10976 O 1043.06 1.79271 0.341763 0
M  V30 10977 C 1043.11 1.77792 -3.14757 0
M  V30 10978 O 1042.83 0.956817 -4.27524 0
M  V30 10979 C 1044.33 2.61947 -3.57629 0
M  V30 10980 H 1041.55 0.262026 -0.617724 0
M  V30 10981 H 1044.1 0.169899 -2.03793 0
M  V30 10982 H 1042.25 2.46348 -2.98984 0
M  V30 10983 H 1042.67 1.5559 -5.00891 0
M  V30 10984 H 1044.14 3.19011 -4.50484 0
M  V30 10985 H 1044.62 3.36873 -2.81803 0
M  V30 10986 H 1045.22 1.98721 -3.76019 0
M  V30 10987 N 1043.54 1.5137 0.438746 0
M  V30 10988 C 1044.49 1.72582 1.53245 0
M  V30 10989 C 1045.46 0.567488 1.56105 0
M  V30 10990 O 1046.64 0.80176 1.73137 0
M  V30 10991 C 1043.78 1.85551 2.90972 0
M  V30 10992 C 1042.89 3.13094 2.97652 0
M  V30 10993 C 1042.03 3.16666 4.26493 0
M  V30 10994 C 1041.07 4.38529 4.27035 0
M  V30 10995 N 1040.2 4.39659 5.47398 0
M  V30 10996 H 1045.04 2.65941 1.3446 0
M  V30 10997 H 1042.58 1.31801 0.653206 0
M  V30 10998 H 1044.54 1.91053 3.70884 0
M  V30 10999 H 1043.17 0.956025 3.08318 0
M  V30 11000 H 1042.22 3.16909 2.10412 0
M  V30 11001 H 1043.53 4.03009 2.93914 0
M  V30 11002 H 1042.69 3.21075 5.14777 0
M  V30 11003 H 1041.43 2.24637 4.32885 0
M  V30 11004 H 1040.43 4.34297 3.37144 0
M  V30 11005 H 1041.66 5.31821 4.22307 0
M  V30 11006 H 1039.6 3.50499 5.54514 0
M  V30 11007 H 1039.52 5.23382 5.45534 0
M  V30 11008 H 1040.79 4.48259 6.37718 0
M  V30 11009 N 1045.02 -0.694098 1.41492 0
M  V30 11010 C 1046.25 -1.48071 1.44078 0
M  V30 11011 C 1046.65 -1.89147 0.0448984 0
M  V30 11012 O 1046 -1.57441 -0.946464 0
M  V30 11013 C 1046.06 -2.77324 2.28761 0
M  V30 11014 C 1045.72 -2.58443 3.76904 0
M  V30 11015 C 1046.72 -2.24294 4.69029 0
M  V30 11016 C 1044.41 -2.74037 4.20962 0
M  V30 11017 C 1046.4 -2.0598 6.03201 0
M  V30 11018 C 1044.09 -2.5534 5.55198 0
M  V30 11019 C 1045.08 -2.21362 6.46133 0
M  V30 11020 O 1044.77 -2.02829 7.77892 0
M  V30 11021 H 1044.5 -0.462794 0.492745 0
M  V30 11022 H 1047.06 -0.861968 1.86438 0
M  V30 11023 H 1045.29 -3.4161 1.81217 0
M  V30 11024 H 1046.98 -3.39134 2.23031 0
M  V30 11025 H 1047.74 -2.11859 4.36281 0
M  V30 11026 H 1043.62 -2.99467 3.50486 0
M  V30 11027 H 1047.17 -1.79382 6.74142 0
M  V30 11028 H 1043.06 -2.67366 5.87525 0
M  V30 11029 H 1043.83 -2.17581 7.89051 0
M  V30 11030 N 1046.49 -1.27344 -0.928501 0
M  V30 11031 C 1047.46 -1.10043 -2.01055 0
M  V30 11032 C 1048.46 -0.0446793 -1.60738 0
M  V30 11033 O 1049.65 -0.289202 -1.71783 0
M  V30 11034 C 1046.78 -0.676559 -3.34119 0
M  V30 11035 H 1047.97 -2.06126 -2.17835 0
M  V30 11036 H 1045.53 -1.10121 -1.10919 0
M  V30 11037 H 1046.26 0.285697 -3.23039 0
M  V30 11038 H 1046.05 -1.43903 -3.64739 0
M  V30 11039 H 1047.54 -0.577725 -4.13584 0
M  V30 11040 N 1047.97 1.13488 -1.09353 0
M  V30 11041 C 1048.88 2.2248 -0.744307 0
M  V30 11042 C 1049.9 1.72145 0.253404 0
M  V30 11043 O 1051.07 2.01176 0.0949339 0
M  V30 11044 C 1048.14 3.46286 -0.16928 0
M  V30 11045 C 1047.2 4.11516 -1.22284 0
M  V30 11046 C 1046.43 5.29412 -0.675161 0
M  V30 11047 O 1046.66 5.68185 0.502182 0
M  V30 11048 O 1045.59 5.8467 -1.42983 0
M  V30 11049 H 1049.42 2.54723 -1.65378 0
M  V30 11050 H 1047 1.21607 -0.867879 0
M  V30 11051 H 1048.88 4.2114 0.14811 0
M  V30 11052 H 1047.56 3.15745 0.713214 0
M  V30 11053 H 1046.47 3.38492 -1.59292 0
M  V30 11054 H 1047.8 4.46186 -2.07796 0
M  V30 11055 N 1049.45 0.880621 1.30701 0
M  V30 11056 C 1050.7 0.492957 1.95583 0
M  V30 11057 C 1051.01 -0.961863 1.70316 0
M  V30 11058 O 1052.22 -1.45617 2.29146 0
M  V30 11059 C 1050.68 0.830656 3.50183 0
M  V30 11060 C 1050.28 2.30295 3.84276 0
M  V30 11061 C 1052.03 0.511979 4.21401 0
M  V30 11062 C 1049.93 2.58251 5.32034 0
M  V30 11063 H 1048.86 0.18062 0.732047 0
M  V30 11064 H 1051.52 1.075 1.48715 0
M  V30 11065 H 1049.9 0.177752 3.95601 0
M  V30 11066 H 1051.07 2.99981 3.49783 0
M  V30 11067 H 1049.39 2.58873 3.2615 0
M  V30 11068 H 1051.98 0.697935 5.30125 0
M  V30 11069 H 1052.33 -0.548327 4.12673 0
M  V30 11070 H 1052.86 1.12189 3.81652 0
M  V30 11071 H 1049.6 3.63005 5.45809 0
M  V30 11072 H 1049.12 1.9317 5.67843 0
M  V30 11073 H 1050.8 2.43527 5.99419 0
M  V30 11074 N 1050.93 -1.4397 0.641131 0
M  V30 11075 C 1052.16 -2.06004 0.156779 0
M  V30 11076 C 1052.57 -1.48059 -1.17793 0
M  V30 11077 O 1051.91 -0.601788 -1.73563 0
M  V30 11078 C 1051.97 -3.59493 -0.0217203 0
M  V30 11079 C 1051.64 -4.39957 1.23639 0
M  V30 11080 C 1052.63 -4.72797 2.16239 0
M  V30 11081 C 1050.32 -4.80168 1.4746 0
M  V30 11082 C 1052.31 -5.44741 3.30962 0
M  V30 11083 C 1050 -5.51859 2.62478 0
M  V30 11084 C 1051 -5.84067 3.54055 0
M  V30 11085 O 1050.69 -6.54296 4.67067 0
M  V30 11086 H 1050.42 -0.671061 0.0815685 0
M  V30 11087 H 1052.97 -1.85664 0.878517 0
M  V30 11088 H 1051.2 -3.78362 -0.798707 0
M  V30 11089 H 1052.89 -4.03263 -0.461893 0
M  V30 11090 H 1053.66 -4.42261 1.99073 0
M  V30 11091 H 1049.54 -4.54513 0.770652 0
M  V30 11092 H 1053.08 -5.69798 4.02462 0
M  V30 11093 H 1048.98 -5.81811 2.79583 0
M  V30 11094 H 1049.74 -6.72772 4.66177 0
M  V30 11095 N 1052.41 -0.382291 -1.52893 0
M  V30 11096 C 1053.66 0.201734 -2.01091 0
M  V30 11097 C 1053.98 1.47905 -1.2708 0
M  V30 11098 O 1053.25 1.92002 -0.38883 0
M  V30 11099 H 1051.83 0.0775373 -0.742965 0
M  V30 11100 H 1054.49 -0.512369 -1.88045 0
M  V30 11101 H 1053.58 0.416919 -3.09303 0
M  V30 11102 N 1053.89 1.57202 -0.111913 0
M  V30 11103 C 1055.13 1.94125 0.547573 0
M  V30 11104 C 1055.45 0.997026 1.68282 0
M  V30 11105 O 1056.65 1.26063 2.40459 0
M  V30 11106 C 1055.11 3.44982 1.02545 0
M  V30 11107 C 1054.72 4.47927 -0.0809529 0
M  V30 11108 C 1056.46 3.90837 1.65671 0
M  V30 11109 C 1054.37 5.89955 0.413224 0
M  V30 11110 H 1053.3 0.724651 0.208321 0
M  V30 11111 H 1055.95 1.82507 -0.190625 0
M  V30 11112 H 1054.33 3.5181 1.81785 0
M  V30 11113 H 1055.51 4.52761 -0.857003 0
M  V30 11114 H 1053.82 4.11782 -0.618434 0
M  V30 11115 H 1056.42 4.9436 2.03746 0
M  V30 11116 H 1056.76 3.30417 2.53239 0
M  V30 11117 H 1057.29 3.8678 0.929844 0
M  V30 11118 H 1054.03 6.54113 -0.426238 0
M  V30 11119 H 1053.55 5.88557 1.15591 0
M  V30 11120 H 1055.23 6.41032 0.876756 0
M  V30 11121 N 1055.36 -0.161842 1.56767 0
M  V30 11122 C 1056.59 -0.896274 1.87034 0
M  V30 11123 C 1057.01 -1.74617 0.699314 0
M  V30 11124 O 1056.37 -1.77861 -0.351435 0
M  V30 11125 C 1056.42 -1.74105 3.15784 0
M  V30 11126 O 1055.52 -2.84372 2.98674 0
M  V30 11127 H 1054.86 -0.250523 0.614926 0
M  V30 11128 H 1057.39 -0.157127 2.03996 0
M  V30 11129 H 1057.4 -2.13907 3.4743 0
M  V30 11130 H 1056.08 -1.11684 4.00624 0
M  V30 11131 H 1054.66 -2.48084 2.78404 0
M  V30 11132 N 1056.84 -1.516 -0.430713 0
M  V30 11133 C 1058.07 -1.687 -1.20644 0
M  V30 11134 C 1058.49 -0.386555 -1.84085 0
M  V30 11135 O 1057.85 0.653952 -1.69095 0
M  V30 11136 C 1057.9 -2.80887 -2.2613 0
M  V30 11137 O 1057 -2.44952 -3.31772 0
M  V30 11138 H 1056.34 -0.562289 -0.353167 0
M  V30 11139 H 1058.87 -1.98198 -0.507807 0
M  V30 11140 H 1058.88 -3.05167 -2.70809 0
M  V30 11141 H 1057.56 -3.75249 -1.79334 0
M  V30 11142 H 1056.13 -2.31267 -2.92523 0
M  V30 11143 N 1058.32 0.686584 -1.41858 0
M  V30 11144 C 1059.28 1.78214 -1.44126 0
M  V30 11145 C 1060.28 1.57366 -0.330541 0
M  V30 11146 O 1061.47 1.63874 -0.590837 0
M  V30 11147 C 1058.6 3.16704 -1.26142 0
M  V30 11148 H 1059.8 1.77594 -2.41661 0
M  V30 11149 H 1057.35 0.895085 -1.28132 0
M  V30 11150 H 1058.09 3.22957 -0.294823 0
M  V30 11151 H 1057.87 3.33238 -2.06627 0
M  V30 11152 H 1059.36 3.96658 -1.30584 0
M  V30 11153 N 1059.8 1.27835 0.921735 0
M  V30 11154 C 1060.75 1.07723 2.00947 0
M  V30 11155 C 1061.73 0.00336676 1.609 0
M  V30 11156 O 1062.92 0.222593 1.75595 0
M  V30 11157 C 1060.05 0.732732 3.35389 0
M  V30 11158 C 1059.14 1.84504 3.81863 0
M  V30 11159 N 1059.53 3.08551 4.00787 0
M  V30 11160 C 1057.83 1.73308 4.10951 0
M  V30 11161 C 1058.53 3.80974 4.39584 0
M  V30 11162 N 1057.5 3.08773 4.47393 0
M  V30 11163 H 1061.31 2.01854 2.13617 0
M  V30 11164 H 1058.82 1.18637 1.109 0
M  V30 11165 H 1060.82 0.56975 4.12988 0
M  V30 11166 H 1059.48 -0.200885 3.24078 0
M  V30 11167 H 1060.49 3.44248 3.86928 0
M  V30 11168 H 1057.17 0.870698 4.0832 0
M  V30 11169 H 1058.56 4.87617 4.62255 0
M  V30 11170 N 1061.28 -1.12907 1.09954 0
M  V30 11171 C 1062.5 -1.88138 0.860905 0
M  V30 11172 C 1062.92 -1.79402 -0.588256 0
M  V30 11173 O 1062.28 -1.16442 -1.40526 0
M  V30 11174 C 1062.33 -3.37537 1.29425 0
M  V30 11175 O 1062.05 -3.46056 2.68658 0
M  V30 11176 C 1063.55 -4.29721 1.08879 0
M  V30 11177 H 1060.77 -0.595437 0.309347 0
M  V30 11178 H 1063.31 -1.42894 1.46292 0
M  V30 11179 H 1061.47 -3.80344 0.736009 0
M  V30 11180 H 1061.88 -4.38969 2.87065 0
M  V30 11181 H 1063.36 -5.32854 1.4412 0
M  V30 11182 H 1063.83 -4.39192 0.0270053 0
M  V30 11183 H 1064.44 -3.9269 1.63325 0
M  V30 11184 N 1062.75 -0.88754 -1.30232 0
M  V30 11185 C 1063.68 -0.372481 -2.3051 0
M  V30 11186 C 1064.66 0.546037 -1.61098 0
M  V30 11187 O 1065.85 0.459345 -1.88689 0
M  V30 11188 C 1062.98 0.411605 -3.44852 0
M  V30 11189 C 1061.93 -0.415383 -4.2598 0
M  V30 11190 C 1061.26 0.495463 -5.324 0
M  V30 11191 C 1062.56 -1.65886 -4.95257 0
M  V30 11192 H 1064.25 -1.21045 -2.7384 0
M  V30 11193 H 1061.8 -0.583498 -1.31648 0
M  V30 11194 H 1063.75 0.782584 -4.1407 0
M  V30 11195 H 1062.48 1.28325 -3.00334 0
M  V30 11196 H 1061.14 -0.768534 -3.58454 0
M  V30 11197 H 1060.78 1.36489 -4.84128 0
M  V30 11198 H 1060.48 -0.0540885 -5.87575 0
M  V30 11199 H 1062.01 0.862901 -6.04472 0
M  V30 11200 H 1063.42 -1.35832 -5.56976 0
M  V30 11201 H 1061.82 -2.14881 -5.60309 0
M  V30 11202 H 1062.89 -2.40181 -4.21237 0
M  V30 11203 N 1064.23 1.43628 -0.648757 0
M  V30 11204 C 1065.16 2.33478 0.0320785 0
M  V30 11205 C 1066.14 1.49217 0.816605 0
M  V30 11206 O 1067.33 1.77892 0.778974 0
M  V30 11207 C 1064.46 3.32525 1.00222 0
M  V30 11208 C 1063.41 4.2674 0.328119 0
M  V30 11209 C 1062.74 5.15791 1.4094 0
M  V30 11210 C 1064.04 5.16493 -0.776701 0
M  V30 11211 H 1065.73 2.90657 -0.718257 0
M  V30 11212 H 1063.28 1.3976 -0.346852 0
M  V30 11213 H 1065.23 3.94277 1.4874 0
M  V30 11214 H 1063.96 2.73593 1.78366 0
M  V30 11215 H 1062.61 3.66346 -0.136569 0
M  V30 11216 H 1062.26 4.53201 2.18216 0
M  V30 11217 H 1061.96 5.79645 0.963631 0
M  V30 11218 H 1063.49 5.80416 1.89603 0
M  V30 11219 H 1064.9 5.7208 -0.373878 0
M  V30 11220 H 1063.3 5.89043 -1.14667 0
M  V30 11221 H 1064.37 4.56448 -1.63654 0
M  V30 11222 N 1065.71 0.390394 1.52688 0
M  V30 11223 C 1067.13 0.0404028 1.59549 0
M  V30 11224 C 1067.33 -1.44503 1.40432 0
M  V30 11225 O 1066.38 -2.20968 1.22187 0
M  V30 11226 C 1067.7 0.518561 2.96195 0
M  V30 11227 C 1069.24 0.474913 3.09376 0
M  V30 11228 C 1069.72 0.929278 4.48473 0
M  V30 11229 N 1071.21 0.885335 4.5466 0
M  V30 11230 C 1071.94 1.2083 5.60524 0
M  V30 11231 N 1071.44 1.6018 6.74028 0
M  V30 11232 N 1073.23 1.12949 5.50635 0
M  V30 11233 H 1065.38 1.35743 1.63363 0
M  V30 11234 H 1067.65 0.556453 0.767505 0
M  V30 11235 H 1067.35 1.55606 3.15404 0
M  V30 11236 H 1067.23 -0.081779 3.77111 0
M  V30 11237 H 1069.61 -0.553503 2.89863 0
M  V30 11238 H 1069.7 1.11107 2.3041 0
M  V30 11239 H 1069.34 1.95593 4.68728 0
M  V30 11240 H 1069.27 0.270121 5.25907 0
M  V30 11241 H 1071.76 0.595787 3.73174 0
M  V30 11242 H 1072.07 1.83184 7.50775 0
M  V30 11243 H 1070.42 1.64067 6.75357 0
M  V30 11244 H 1073.61 0.821074 4.60843 0
M  V30 11245 H 1073.78 1.3845 6.33037 0
M  V30 11246 N 1067.19 -1.57141 0.120249 0
M  V30 11247 C 1068.44 -1.94852 -0.536387 0
M  V30 11248 C 1068.76 -1.00452 -1.67136 0
M  V30 11249 O 1068.03 -0.061053 -1.95805 0
M  V30 11250 H 1066.61 -0.719411 -0.201138 0
M  V30 11251 H 1069.27 -1.93977 0.189482 0
M  V30 11252 H 1068.37 -2.97917 -0.930145 0
M  V30 11253 N 1068.67 0.153526 -1.5685 0
M  V30 11254 C 1069.89 0.882335 -1.87143 0
M  V30 11255 C 1070.31 1.75034 -0.707702 0
M  V30 11256 O 1069.67 1.79624 0.32273 0
M  V30 11257 C 1069.72 1.74444 -3.16625 0
M  V30 11258 O 1069.44 0.911419 -4.28515 0
M  V30 11259 C 1070.94 2.58139 -3.60388 0
M  V30 11260 H 1068.16 0.25546 -0.620469 0
M  V30 11261 H 1070.7 0.148275 -2.03962 0
M  V30 11262 H 1068.86 2.43163 -3.0158 0
M  V30 11263 H 1069.27 1.50268 -5.02513 0
M  V30 11264 H 1070.75 3.14215 -4.53842 0
M  V30 11265 H 1071.22 3.33865 -2.85361 0
M  V30 11266 H 1071.83 1.94721 -3.78105 0
M  V30 11267 N 1070.14 1.51827 0.422667 0
M  V30 11268 C 1071.07 1.77152 1.52117 0
M  V30 11269 C 1072.06 0.621895 1.58324 0
M  V30 11270 O 1073.24 0.866118 1.73816 0
M  V30 11271 C 1070.37 1.90991 2.90068 0
M  V30 11272 C 1069.32 3.06516 2.98717 0
M  V30 11273 C 1068.65 3.05559 4.38791 0
M  V30 11274 C 1069.95 4.46223 2.71445 0
M  V30 11275 H 1071.64 2.69135 1.31175 0
M  V30 11276 H 1069.19 1.29507 0.629607 0
M  V30 11277 H 1071.14 2.07291 3.6689 0
M  V30 11278 H 1069.87 0.956688 3.12274 0
M  V30 11279 H 1068.53 2.89945 2.24338 0
M  V30 11280 H 1068.17 2.07985 4.57986 0
M  V30 11281 H 1067.87 3.83144 4.45505 0
M  V30 11282 H 1069.4 3.23971 5.17566 0
M  V30 11283 H 1070.81 4.63069 3.37994 0
M  V30 11284 H 1069.21 5.25623 2.89552 0
M  V30 11285 H 1070.28 4.5525 1.6696 0
M  V30 11286 N 1071.62 -0.679052 1.4222 0
M  V30 11287 C 1073.04 -0.991665 1.25053 0
M  V30 11288 C 1073.24 -2.00928 0.151665 0
M  V30 11289 O 1072.29 -2.47925 -0.478507 0
M  V30 11290 C 1073.61 -1.50053 2.60585 0
M  V30 11291 C 1075.16 -1.61852 2.67905 0
M  V30 11292 C 1075.63 -2.16135 4.03794 0
M  V30 11293 N 1077.12 -2.23474 4.05726 0
M  V30 11294 C 1077.86 -2.66541 5.07685 0
M  V30 11295 N 1077.35 -3.09092 6.20028 0
M  V30 11296 N 1079.15 -2.66252 4.95042 0
M  V30 11297 H 1071.3 -0.00521851 2.12399 0
M  V30 11298 H 1073.56 -0.0648465 0.94578 0
M  V30 11299 H 1073.27 -0.82731 3.41831 0
M  V30 11300 H 1073.14 -2.47998 2.84213 0
M  V30 11301 H 1075.53 -2.28281 1.87008 0
M  V30 11302 H 1075.61 -0.624074 2.4807 0
M  V30 11303 H 1075.25 -1.50316 4.85147 0
M  V30 11304 H 1075.18 -3.16363 4.20978 0
M  V30 11305 H 1077.67 -1.93467 3.24621 0
M  V30 11306 H 1077.99 -3.40627 6.93681 0
M  V30 11307 H 1076.33 -3.06959 6.23539 0
M  V30 11308 H 1079.52 -2.32369 4.06352 0
M  V30 11309 H 1079.69 -2.99496 5.74636 0
M  V30 11310 N 1073.1 -1.28322 -0.914942 0
M  V30 11311 C 1074.33 -1.18083 -1.69529 0
M  V30 11312 C 1074.74 0.263274 -1.87359 0
M  V30 11313 O 1074.08 1.18988 -1.39955 0
M  V30 11314 C 1074.14 -1.8062 -3.10832 0
M  V30 11315 C 1073.81 -3.29861 -3.16292 0
M  V30 11316 C 1074.8 -4.26313 -2.97578 0
M  V30 11317 C 1072.49 -3.70797 -3.38843 0
M  V30 11318 C 1074.48 -5.61677 -3.01326 0
M  V30 11319 C 1072.17 -5.06287 -3.42223 0
M  V30 11320 C 1073.17 -6.01537 -3.23485 0
M  V30 11321 O 1072.86 -7.34556 -3.26624 0
M  V30 11322 H 1072.59 -0.410931 -0.53676 0
M  V30 11323 H 1075.14 -1.6994 -1.15367 0
M  V30 11324 H 1073.37 -1.23255 -3.66531 0
M  V30 11325 H 1075.06 -1.64915 -3.70888 0
M  V30 11326 H 1075.83 -3.96023 -2.79984 0
M  V30 11327 H 1071.71 -2.97124 -3.52475 0
M  V30 11328 H 1075.25 -6.36 -2.86618 0
M  V30 11329 H 1071.15 -5.36228 -3.59346 0
M  V30 11330 H 1071.92 -7.43167 -3.42994 0
M  V30 11331 N 1074.58 1.12322 -1.10551 0
M  V30 11332 C 1075.53 2.18087 -0.755424 0
M  V30 11333 C 1076.5 1.6391 0.268805 0
M  V30 11334 O 1077.68 1.90227 0.147813 0
M  V30 11335 C 1074.82 3.4455 -0.194713 0
M  V30 11336 C 1073.93 4.12775 -1.27439 0
M  V30 11337 C 1073.07 5.26891 -0.675194 0
M  V30 11338 C 1072.11 5.86985 -1.73536 0
M  V30 11339 N 1071.24 6.92512 -1.15635 0
M  V30 11340 H 1076.08 2.47379 -1.66155 0
M  V30 11341 H 1073.62 1.21452 -0.829924 0
M  V30 11342 H 1075.58 4.16936 0.148275 0
M  V30 11343 H 1074.21 3.15671 0.674638 0
M  V30 11344 H 1073.26 3.38556 -1.73448 0
M  V30 11345 H 1074.57 4.53506 -2.07687 0
M  V30 11346 H 1073.73 6.06046 -0.281723 0
M  V30 11347 H 1072.47 4.87442 0.158708 0
M  V30 11348 H 1071.47 5.06517 -2.13825 0
M  V30 11349 H 1072.7 6.28505 -2.57213 0
M  V30 11350 H 1070.64 6.55098 -0.343928 0
M  V30 11351 H 1070.56 7.31848 -1.89565 0
M  V30 11352 H 1071.83 7.75492 -0.789463 0
M  V30 11353 N 1076.06 0.894434 1.2976 0
M  V30 11354 C 1077.3 0.516646 1.95385 0
M  V30 11355 C 1077.63 -0.939141 1.70895 0
M  V30 11356 O 1076.9 -1.66153 1.03778 0
M  V30 11357 H 1075.48 0.188072 0.722937 0
M  V30 11358 H 1078.14 1.13958 1.58113 0
M  V30 11359 H 1077.23 0.694819 3.04267 0
M  V30 11360 N 1077.53 -1.43282 0.656365 0
M  V30 11361 C 1078.76 -2.05826 0.178619 0
M  V30 11362 C 1079.17 -1.493 -1.16216 0
M  V30 11363 O 1078.52 -0.620163 -1.72915 0
M  V30 11364 C 1078.58 -3.59496 0.0164101 0
M  V30 11365 C 1078.24 -4.38621 1.28298 0
M  V30 11366 C 1079.24 -4.70477 2.21241 0
M  V30 11367 C 1076.92 -4.78577 1.52544 0
M  V30 11368 C 1078.92 -5.412 3.36721 0
M  V30 11369 C 1076.6 -5.49044 2.68316 0
M  V30 11370 C 1077.6 -5.80279 3.6023 0
M  V30 11371 O 1077.29 -6.49306 4.7398 0
M  V30 11372 H 1077.02 -0.670158 0.0886814 0
M  V30 11373 H 1079.58 -1.84722 0.89816 0
M  V30 11374 H 1077.81 -3.79188 -0.758532 0
M  V30 11375 H 1079.5 -4.03731 -0.419096 0
M  V30 11376 H 1080.26 -4.40125 2.03753 0
M  V30 11377 H 1076.14 -4.5367 0.818816 0
M  V30 11378 H 1079.68 -5.65497 4.08483 0
M  V30 11379 H 1075.58 -5.78813 2.85738 0
M  V30 11380 H 1076.35 -6.67789 4.73286 0
M  V30 11381 N 1079.01 -0.398486 -1.52479 0
M  V30 11382 C 1079.95 0.476551 -2.23169 0
M  V30 11383 C 1080.92 1.05665 -1.23587 0
M  V30 11384 O 1082.11 1.10654 -1.52604 0
M  V30 11385 C 1079.24 1.66048 -2.95204 0
M  V30 11386 C 1078.28 1.20478 -4.0913 0
M  V30 11387 S 1079.11 0.178711 -5.35202 0
M  V30 11388 C 1080.27 1.36821 -6.10762 0
M  V30 11389 H 1080.5 -0.123704 -2.97043 0
M  V30 11390 H 1078.04 -0.182722 -1.53315 0
M  V30 11391 H 1079.99 2.33942 -3.37315 0
M  V30 11392 H 1078.66 2.23206 -2.20993 0
M  V30 11393 H 1077.85 2.08901 -4.58668 0
M  V30 11394 H 1077.45 0.604632 -3.6908 0
M  V30 11395 H 1079.74 2.2937 -6.37492 0
M  V30 11396 H 1080.69 0.913579 -7.02182 0
M  V30 11397 H 1081.09 1.58919 -5.41669 0
M  V30 11398 N 1080.49 1.57075 -0.12858 0
M  V30 11399 C 1081.44 2.15816 0.818064 0
M  V30 11400 C 1082.41 1.08581 1.25696 0
M  V30 11401 O 1083.59 1.36535 1.33277 0
M  V30 11402 C 1080.73 2.76943 2.05905 0
M  V30 11403 C 1079.85 3.98514 1.66764 0
M  V30 11404 C 1078.98 4.47698 2.85902 0
M  V30 11405 C 1078.02 5.61778 2.43047 0
M  V30 11406 N 1077.16 6.05662 3.5513 0
M  V30 11407 H 1082 2.9638 0.310318 0
M  V30 11408 H 1079.53 1.46418 0.141472 0
M  V30 11409 H 1081.49 3.10519 2.78629 0
M  V30 11410 H 1080.12 1.99053 2.54122 0
M  V30 11411 H 1079.17 3.71038 0.838766 0
M  V30 11412 H 1080.49 4.81215 1.31277 0
M  V30 11413 H 1079.64 4.83233 3.66839 0
M  V30 11414 H 1078.38 3.63967 3.24622 0
M  V30 11415 H 1077.38 5.25838 1.60544 0
M  V30 11416 H 1078.61 6.47282 2.05433 0
M  V30 11417 H 1076.56 5.2487 3.93506 0
M  V30 11418 H 1076.47 6.83242 3.23598 0
M  V30 11419 H 1077.74 6.45838 4.36479 0
M  V30 11420 N 1081.97 -0.145205 1.5693 0
M  V30 11421 C 1082.93 -1.16316 1.97492 0
M  V30 11422 C 1083.93 -1.35764 0.861668 0
M  V30 11423 O 1085.12 -1.32726 1.12825 0
M  V30 11424 C 1082.25 -2.52311 2.29242 0
M  V30 11425 H 1083.45 -0.815138 2.8861 0
M  V30 11426 H 1081 -0.38861 1.51392 0
M  V30 11427 H 1081.74 -2.92081 1.40922 0
M  V30 11428 H 1081.52 -2.39555 3.10412 0
M  V30 11429 H 1083.01 -3.25624 2.61456 0
M  V30 11430 N 1083.45 -1.52049 -0.414609 0
M  V30 11431 C 1084.38 -1.77956 -1.51175 0
M  V30 11432 C 1085.36 -0.630282 -1.57992 0
M  V30 11433 O 1086.54 -0.875324 -1.73354 0
M  V30 11434 C 1083.67 -1.92527 -2.89051 0
M  V30 11435 C 1082.63 -3.08096 -2.97087 0
M  V30 11436 C 1081.95 -3.07882 -4.37164 0
M  V30 11437 C 1083.25 -4.47656 -2.69075 0
M  V30 11438 H 1084.95 -2.69827 -1.29746 0
M  V30 11439 H 1082.49 -1.29839 -0.62273 0
M  V30 11440 H 1084.45 -2.09234 -3.65786 0
M  V30 11441 H 1083.17 -0.973235 -3.11762 0
M  V30 11442 H 1081.83 -2.91131 -2.22797 0
M  V30 11443 H 1081.48 -2.10411 -4.56877 0
M  V30 11444 H 1081.18 -3.85501 -4.43467 0
M  V30 11445 H 1082.7 -3.26712 -5.15841 0
M  V30 11446 H 1084.12 -4.64855 -3.35534 0
M  V30 11447 H 1082.51 -5.27151 -2.8676 0
M  V30 11448 H 1083.58 -4.56129 -1.64544 0
M  V30 11449 N 1084.93 0.6715 -1.42579 0
M  V30 11450 C 1085.87 1.80623 -1.46554 0
M  V30 11451 C 1086.87 1.65934 -0.340932 0
M  V30 11452 O 1088.07 1.72502 -0.514098 0
M  V30 11453 H 1084.45 0.595619 -0.459067 0
M  V30 11454 H 1086.42 1.74388 -2.42139 0
M  V30 11455 C 1085.17 3.18794 -1.38801 0
M  V30 11456 H 1084.49 3.30725 -2.24635 0
M  V30 11457 H 1085.93 3.98201 -1.45645 0
M  V30 11458 C 1084.39 3.36742 -0.103219 0
M  V30 11459 O 1084.92 3.92761 0.842715 0
M  V30 11460 N 1083.13 2.90594 -0.0193034 0
M  V30 11461 H 1082.67 2.45192 -0.78986 0
M  V30 11462 H 1082.63 3.0298 0.839686 0
M  V30 11463 N 1086.4 1.28806 0.908124 0
M  V30 11464 C 1087.65 1.16058 1.65454 0
M  V30 11465 C 1087.97 -0.290057 1.92831 0
M  V30 11466 O 1087.24 -1.20001 1.54843 0
M  V30 11467 H 1085.82 0.426522 0.61326 0
M  V30 11468 H 1088.48 1.61614 1.08936 0
M  V30 11469 H 1087.58 1.70437 2.61453 0
M  V30 11470 N 1087.88 -1.11734 1.11145 0
M  V30 11471 C 1089.13 -1.83405 0.858413 0
M  V30 11472 C 1089.46 -1.84488 -0.615975 0
M  V30 11473 O 1088.71 -1.29123 -1.47057 0
M  V30 11474 C 1089.01 -3.3046 1.36129 0
M  V30 11475 C 1088.68 -3.4954 2.84837 0
M  V30 11476 C 1087.34 -3.54456 3.25445 0
M  V30 11477 C 1089.69 -3.56048 3.8063 0
M  V30 11478 C 1087.02 -3.63431 4.60581 0
M  V30 11479 C 1089.37 -3.66554 5.15579 0
M  V30 11480 C 1088.03 -3.69728 5.55749 0
M  V30 11481 H 1087.3 -0.671128 0.314115 0
M  V30 11482 H 1089.95 -1.31795 1.38933 0
M  V30 11483 H 1088.26 -3.84544 0.750547 0
M  V30 11484 H 1089.95 -3.84398 1.14188 0
M  V30 11485 H 1086.54 -3.46382 2.52423 0
M  V30 11486 H 1090.73 -3.51513 3.5036 0
M  V30 11487 H 1085.98 -3.64164 4.91116 0
M  V30 11488 H 1090.16 -3.70532 5.89643 0
M  V30 11489 H 1087.78 -3.76435 6.60455 0
M  V30 11490 N 1089.36 -0.901303 -1.29284 0
M  V30 11491 C 1090.61 -0.528826 -1.95784 0
M  V30 11492 C 1090.94 0.922833 -1.70873 0
M  V30 11493 O 1090.21 1.65448 -1.0226 0
M  V30 11494 C 1090.5 -0.823793 -3.50551 0
M  V30 11495 C 1090.35 -2.32727 -3.84913 0
M  V30 11496 C 1091.67 -0.311382 -4.38997 0
M  V30 11497 H 1088.79 -0.193604 -0.711116 0
M  V30 11498 H 1091.43 -1.12828 -1.52872 0
M  V30 11499 H 1089.58 -0.313612 -3.87232 0
M  V30 11500 H 1091.25 -2.90712 -3.58168 0
M  V30 11501 H 1089.49 -2.78735 -3.32399 0
M  V30 11502 H 1090.17 -2.48423 -4.9294 0
M  V30 11503 H 1092.64 -0.748265 -4.09317 0
M  V30 11504 H 1091.52 -0.546957 -5.46168 0
M  V30 11505 H 1091.78 0.787959 -4.35021 0
M  V30 11506 N 1090.84 1.42931 -0.663954 0
M  V30 11507 C 1091.78 2.3079 0.0210764 0
M  V30 11508 C 1092.75 1.45356 0.803796 0
M  V30 11509 O 1093.94 1.74207 0.778237 0
M  V30 11510 C 1091.08 3.31069 0.974023 0
M  V30 11511 C 1090.19 4.31598 0.186273 0
M  V30 11512 C 1089.33 5.18955 1.13399 0
M  V30 11513 C 1088.37 6.1117 0.337292 0
M  V30 11514 N 1087.5 6.91114 1.23715 0
M  V30 11515 H 1092.34 2.88819 -0.733995 0
M  V30 11516 H 1089.88 1.42274 -0.373711 0
M  V30 11517 H 1091.84 3.87727 1.54024 0
M  V30 11518 H 1090.47 2.74665 1.69585 0
M  V30 11519 H 1089.52 3.77147 -0.496402 0
M  V30 11520 H 1090.83 4.96919 -0.432753 0
M  V30 11521 H 1089.99 5.80292 1.77049 0
M  V30 11522 H 1088.73 4.53785 1.78691 0
M  V30 11523 H 1087.73 5.48911 -0.312492 0
M  V30 11524 H 1088.96 6.78386 -0.31138 0
M  V30 11525 H 1086.9 6.28583 1.87668 0
M  V30 11526 H 1086.82 7.52999 0.672946 0
M  V30 11527 H 1088.09 7.56948 1.86146 0
M  V30 11528 N 1092.32 0.406567 1.52266 0
M  V30 11529 C 1093.25 -0.411314 2.29849 0
M  V30 11530 C 1094.23 -1.04838 1.33952 0
M  V30 11531 O 1095.41 -1.05788 1.62857 0
M  V30 11532 C 1092.54 -1.52961 3.11802 0
M  V30 11533 C 1091.5 -1.01768 4.15725 0
M  V30 11534 C 1090.82 -2.22938 4.86007 0
M  V30 11535 C 1092.12 -0.073515 5.22248 0
M  V30 11536 H 1093.82 0.236054 2.98468 0
M  V30 11537 H 1091.36 0.114968 1.4354 0
M  V30 11538 H 1093.31 -2.10874 3.64843 0
M  V30 11539 H 1092.04 -2.20482 2.40947 0
M  V30 11540 H 1090.7 -0.46097 3.6369 0
M  V30 11541 H 1090.35 -2.89007 4.11684 0
M  V30 11542 H 1090.05 -1.89338 5.5626 0
M  V30 11543 H 1091.57 -2.81462 5.41859 0
M  V30 11544 H 1092.98 -0.561367 5.70545 0
M  V30 11545 H 1091.38 0.173551 5.99849 0
M  V30 11546 H 1092.45 0.872524 4.76985 0
M  V30 11547 N 1093.79 -1.57004 0.136909 0
M  V30 11548 C 1095.04 -1.9541 -0.51569 0
M  V30 11549 C 1095.36 -1.02219 -1.66061 0
M  V30 11550 O 1094.63 -0.0818172 -1.95729 0
M  V30 11551 H 1093.21 -0.721504 -0.193497 0
M  V30 11552 H 1095.88 -1.93765 0.210046 0
M  V30 11553 H 1094.97 -2.98887 -0.898494 0
M  V30 11554 N 1095.27 0.136881 -1.57004 0
M  V30 11555 C 1096.2 1.17026 -2.02057 0
M  V30 11556 C 1097.18 1.44223 -0.901866 0
M  V30 11557 O 1098.37 1.54971 -1.17037 0
M  V30 11558 C 1095.5 2.50095 -2.40977 0
M  V30 11559 C 1094.45 2.37398 -3.56127 0
M  V30 11560 C 1093.78 3.75268 -3.80891 0
M  V30 11561 C 1095.08 1.84952 -4.88457 0
M  V30 11562 H 1096.77 0.795601 -2.88636 0
M  V30 11563 H 1094.32 0.381266 -1.38861 0
M  V30 11564 H 1096.27 3.22621 -2.71097 0
M  V30 11565 H 1095 2.89416 -1.51348 0
M  V30 11566 H 1093.65 1.67322 -3.26188 0
M  V30 11567 H 1093.3 4.12043 -2.88496 0
M  V30 11568 H 1093 3.67631 -4.5839 0
M  V30 11569 H 1094.53 4.49327 -4.13446 0
M  V30 11570 H 1095.94 2.4728 -5.17229 0
M  V30 11571 H 1094.34 1.88181 -5.69832 0
M  V30 11572 H 1095.41 0.805848 -4.78157 0
M  V30 11573 N 1096.75 1.52266 0.40654 0
M  V30 11574 C 1098 1.6568 1.15035 0
M  V30 11575 C 1098.31 0.394135 1.91588 0
M  V30 11576 O 1099.52 0.408113 2.68415 0
M  V30 11577 C 1097.97 2.92725 2.0938 0
M  V30 11578 C 1097.58 4.26108 1.38332 0
M  V30 11579 C 1099.33 3.15502 2.84004 0
M  V30 11580 C 1097.23 5.44275 2.3134 0
M  V30 11581 H 1096.16 0.61719 0.43312 0
M  V30 11582 H 1098.81 1.78755 0.414598 0
M  V30 11583 H 1097.2 2.73355 2.86519 0
M  V30 11584 H 1098.37 4.55971 0.665396 0
M  V30 11585 H 1096.69 4.09454 0.757384 0
M  V30 11586 H 1099.28 4.00964 3.5374 0
M  V30 11587 H 1099.63 2.29842 3.471 0
M  V30 11588 H 1100.16 3.35357 2.13964 0
M  V30 11589 H 1096.9 6.3229 1.72887 0
M  V30 11590 H 1096.42 5.18749 3.01098 0
M  V30 11591 H 1098.1 5.77457 2.91809 0
M  V30 11592 N 1098.23 -0.663929 1.42933 0
M  V30 11593 C 1099.18 -1.79843 1.4751 0
M  V30 11594 C 1100.17 -1.65751 0.349727 0
M  V30 11595 O 1101.38 -1.72227 0.523239 0
M  V30 11596 H 1097.75 -0.593176 0.462219 0
M  V30 11597 H 1099.72 -1.73102 2.4306 0
M  V30 11598 C 1098.47 -3.18053 1.4049 0
M  V30 11599 H 1097.79 -3.29529 2.26386 0
M  V30 11600 H 1099.23 -3.97423 1.47754 0
M  V30 11601 C 1097.69 -3.36682 0.121076 0
M  V30 11602 O 1098.22 -3.93202 -0.821874 0
M  V30 11603 N 1096.43 -2.90579 0.0347141 0
M  V30 11604 H 1095.98 -2.44769 0.802852 0
M  V30 11605 H 1095.93 -3.03421 -0.823607 0
M  V30 11606 N 1099.71 -1.29285 -0.901281 0
M  V30 11607 C 1101.12 -1.07263 -1.18182 0
M  V30 11608 C 1101.32 0.177087 -2.0072 0
M  V30 11609 O 1100.38 0.875292 -2.36844 0
M  V30 11610 C 1101.69 -2.32717 -1.9043 0
M  V30 11611 C 1103.24 -2.3802 -2.03262 0
M  V30 11612 C 1103.71 -3.63273 -2.7892 0
M  V30 11613 N 1105.21 -3.63986 -2.86475 0
M  V30 11614 C 1105.94 -4.57585 -3.45549 0
M  V30 11615 N 1105.44 -5.61513 -4.05801 0
M  V30 11616 N 1107.23 -4.45157 -3.43208 0
M  V30 11617 H 1099.38 -2.09487 -0.350536 0
M  V30 11618 H 1101.64 -0.922647 -0.217778 0
M  V30 11619 H 1101.35 -3.23828 -1.37216 0
M  V30 11620 H 1101.22 -2.40102 -2.90913 0
M  V30 11621 H 1103.61 -1.47398 -2.55652 0
M  V30 11622 H 1103.69 -2.3462 -1.01916 0
M  V30 11623 H 1103.34 -4.54246 -2.27206 0
M  V30 11624 H 1103.27 -3.6393 -3.80608 0
M  V30 11625 H 1105.76 -2.8884 -2.43679 0
M  V30 11626 H 1106.07 -6.29058 -4.48894 0
M  V30 11627 H 1104.41 -5.65325 -4.04268 0
M  V30 11628 H 1107.61 -3.63158 -2.95354 0
M  V30 11629 H 1107.78 -5.18286 -3.88952 0
M  V30 11630 N 1101.18 1.11143 -1.11736 0
M  V30 11631 C 1102.09 2.20851 -0.791331 0
M  V30 11632 C 1103.11 1.72644 0.216833 0
M  V30 11633 O 1104.29 2.01332 0.0522401 0
M  V30 11634 C 1101.35 3.4585 -0.242694 0
M  V30 11635 C 1100.41 4.08829 -1.30986 0
M  V30 11636 C 1099.65 5.27861 -0.787305 0
M  V30 11637 O 1099.87 5.69122 0.381549 0
M  V30 11638 O 1098.8 5.81506 -1.55352 0
M  V30 11639 H 1102.63 2.51158 -1.70744 0
M  V30 11640 H 1100.21 1.19739 -0.893478 0
M  V30 11641 H 1102.1 4.21359 0.0587472 0
M  V30 11642 H 1100.77 3.17187 0.646079 0
M  V30 11643 H 1099.68 3.35037 -1.66436 0
M  V30 11644 H 1101.01 4.41678 -2.17213 0
M  V30 11645 N 1102.66 0.908147 1.28804 0
M  V30 11646 C 1103.63 0.397058 2.25735 0
M  V30 11647 C 1104.63 -0.473483 1.53671 0
M  V30 11648 O 1105.82 -0.277335 1.71978 0
M  V30 11649 C 1102.95 -0.431392 3.38159 0
M  V30 11650 H 1104.14 1.25323 2.72459 0
M  V30 11651 H 1101.69 0.687041 1.4039 0
M  V30 11652 H 1102.43 -1.3072 2.96787 0
M  V30 11653 H 1102.21 0.192502 3.91627 0
M  V30 11654 H 1103.7 -0.78 4.10251 0
M  V30 11655 N 1104.14 -1.42577 0.671525 0
M  V30 11656 C 1105.07 -2.33499 0.00506984 0
M  V30 11657 C 1106.05 -1.50497 -0.792763 0
M  V30 11658 O 1107.24 -1.79109 -0.750574 0
M  V30 11659 C 1104.37 -3.34077 -0.949194 0
M  V30 11660 C 1103.32 -4.27208 -0.260187 0
M  V30 11661 C 1102.65 -5.17968 -1.32716 0
M  V30 11662 C 1103.95 -5.15192 0.858772 0
M  V30 11663 H 1105.64 -2.89477 0.764407 0
M  V30 11664 H 1103.19 -1.39191 0.369043 0
M  V30 11665 H 1105.14 -3.96594 -1.42448 0
M  V30 11666 H 1103.86 -2.76396 -1.73991 0
M  V30 11667 H 1102.52 -3.66082 0.194834 0
M  V30 11668 H 1102.17 -4.56615 -2.10979 0
M  V30 11669 H 1101.87 -5.81104 -0.871293 0
M  V30 11670 H 1103.39 -5.83359 -1.80345 0
M  V30 11671 H 1104.81 -5.71412 0.464844 0
M  V30 11672 H 1103.21 -5.87144 1.24023 0
M  V30 11673 H 1104.28 -4.53787 1.70895 0
M  V30 11674 N 1105.62 -0.414636 -1.52048 0
M  V30 11675 C 1107.03 0.0537107 -1.86623 0
M  V30 11676 C 1107.38 1.43955 -1.3331 0
M  V30 11677 O 1106.51 2.05616 -0.674606 0
M  V30 11678 C 1107.1 0.104241 -3.3864 0
M  V30 11679 C 1105.66 0.516936 -3.72833 0
M  V30 11680 C 1104.81 -0.305042 -2.75617 0
M  V30 11681 H 1107.76 -0.631469 -1.45596 0
M  V30 11682 H 1107.78 0.918395 -3.6925 0
M  V30 11683 H 1107.29 -0.904523 -3.77412 0
M  V30 11684 H 1105.39 1.53214 -3.39641 0
M  V30 11685 H 1105.5 0.2575 -4.78408 0
M  V30 11686 H 1103.87 0.233416 -2.53628 0
M  V30 11687 H 1104.65 -1.31226 -3.1723 0
M  V30 11688 N 1107.1 1.56929 -0.145233 0
M  V30 11689 C 1108.06 2.15483 0.781002 0
M  V30 11690 C 1109.06 1.09617 1.17647 0
M  V30 11691 O 1110.25 1.35265 1.09768 0
M  V30 11692 C 1107.38 2.7165 2.05959 0
M  V30 11693 H 1108.57 2.98667 0.271685 0
M  V30 11694 H 1106.13 1.55952 0.1042 0
M  V30 11695 H 1106.86 1.92127 2.61262 0
M  V30 11696 H 1106.65 3.491 1.78526 0
M  V30 11697 H 1108.14 3.16769 2.72116 0
M  V30 11698 N 1108.58 -0.128553 1.57075 0
M  V30 11699 C 1109.82 -0.83801 1.84347 0
M  V30 11700 C 1110.15 -1.80325 0.728906 0
M  V30 11701 O 1109.41 -1.93678 -0.280571 0
M  V30 11702 C 1109.7 -1.63027 3.18052 0
M  V30 11703 C 1109.37 -0.810171 4.43562 0
M  V30 11704 C 1108.03 -0.583984 4.77643 0
M  V30 11705 C 1110.38 -0.237896 5.20657 0
M  V30 11706 C 1107.71 0.224887 5.86269 0
M  V30 11707 C 1110.06 0.558114 6.30133 0
M  V30 11708 C 1108.73 0.794706 6.62752 0
M  V30 11709 H 1108 -0.30665 0.674572 0
M  V30 11710 H 1110.65 -0.100797 1.91235 0
M  V30 11711 H 1108.95 -2.43812 3.06697 0
M  V30 11712 H 1110.65 -2.183 3.36372 0
M  V30 11713 H 1107.24 -0.996547 4.16854 0
M  V30 11714 H 1111.42 -0.399881 4.94686 0
M  V30 11715 H 1106.68 0.417507 6.09973 0
M  V30 11716 H 1110.85 1.00859 6.89058 0
M  V30 11717 H 1108.48 1.42331 7.46757 0
M  V30 11718 N 1110.05 -1.5248 -0.398459 0
M  V30 11719 C 1111.47 -1.4152 -0.737854 0
M  V30 11720 C 1111.67 -0.528122 -1.94456 0
M  V30 11721 O 1110.73 0.00203799 -2.525 0
M  V30 11722 C 1112.04 -2.8422 -0.9818 0
M  V30 11723 C 1113.59 -2.93635 -1.08386 0
M  V30 11724 C 1114.06 -4.37327 -1.3605 0
M  V30 11725 N 1115.55 -4.40609 -1.42892 0
M  V30 11726 C 1116.29 -5.48863 -1.65944 0
M  V30 11727 N 1115.78 -6.67217 -1.86529 0
M  V30 11728 N 1117.58 -5.36393 -1.68046 0
M  V30 11729 H 1109.73 -2.08681 0.395705 0
M  V30 11730 H 1111.99 -0.941023 0.114801 0
M  V30 11731 H 1111.7 -3.51302 -0.167358 0
M  V30 11732 H 1111.57 -3.25907 -1.89907 0
M  V30 11733 H 1113.96 -2.26728 -1.88888 0
M  V30 11734 H 1114.04 -2.5539 -0.144714 0
M  V30 11735 H 1113.68 -5.04797 -0.56061 0
M  V30 11736 H 1113.61 -4.73116 -2.31233 0
M  V30 11737 H 1116.1 -3.55298 -1.2873 0
M  V30 11738 H 1116.42 -7.45498 -2.03599 0
M  V30 11739 H 1114.76 -6.70263 -1.83773 0
M  V30 11740 H 1117.95 -4.42903 -1.51509 0
M  V30 11741 H 1118.13 -6.2083 -1.85672 0
M  V30 11742 N 1111.53 0.65634 -1.43283 0
M  V30 11743 C 1112.94 1.23744 -1.39801 0
M  V30 11744 C 1113.29 1.95942 -0.100507 0
M  V30 11745 O 1112.42 2.01063 0.800161 0
M  V30 11746 C 1113.01 2.25062 -2.53244 0
M  V30 11747 C 1111.57 2.78657 -2.53036 0
M  V30 11748 C 1110.72 1.53251 -2.31105 0
M  V30 11749 H 1113.67 0.448553 -1.52229 0
M  V30 11750 H 1113.69 3.07174 -2.24553 0
M  V30 11751 H 1113.2 1.72487 -3.47664 0
M  V30 11752 H 1111.3 3.35304 -1.62487 0
M  V30 11753 H 1111.42 3.26414 -3.507 0
M  V30 11754 H 1109.78 1.80487 -1.79713 0
M  V30 11755 H 1110.56 1.02615 -3.27605 0
M  V30 11756 N 1113.01 1.29761 0.894412 0
M  V30 11757 C 1113.92 1.1724 2.03204 0
M  V30 11758 C 1114.94 0.0944452 1.73743 0
M  V30 11759 O 1116.11 0.307549 1.99038 0
M  V30 11760 C 1113.18 0.855416 3.35981 0
M  V30 11761 C 1112.24 2.01777 3.78926 0
M  V30 11762 C 1111.47 1.71581 5.05367 0
M  V30 11763 O 1111.69 0.639245 5.66807 0
M  V30 11764 O 1110.63 2.56539 5.44492 0
M  V30 11765 H 1114.45 2.12787 2.16692 0
M  V30 11766 H 1112.04 1.09264 1.0189 0
M  V30 11767 H 1113.92 0.693429 4.15656 0
M  V30 11768 H 1112.6 -0.0702195 3.23624 0
M  V30 11769 H 1111.5 2.23502 2.99996 0
M  V30 11770 H 1112.84 2.92479 3.95875 0
M  V30 11771 N 1114.49 -1.10549 1.12324 0
M  V30 11772 C 1115.45 -2.15039 0.793156 0
M  V30 11773 C 1116.45 -1.59651 -0.19192 0
M  V30 11774 O 1117.64 -1.74167 0.0337262 0
M  V30 11775 C 1114.77 -3.40433 0.17842 0
M  V30 11776 H 1115.97 -2.4575 1.71892 0
M  V30 11777 H 1113.52 -1.25892 0.926333 0
M  V30 11778 H 1114.25 -3.15338 -0.757122 0
M  V30 11779 H 1114.04 -3.81921 0.887645 0
M  V30 11780 H 1115.53 -4.17584 -0.0360724 0
M  V30 11781 N 1115.97 -0.914965 -1.28321 0
M  V30 11782 C 1116.91 -0.394477 -2.29231 0
M  V30 11783 C 1117.91 0.514481 -1.61398 0
M  V30 11784 O 1119.11 0.395591 -1.75599 0
M  V30 11785 H 1115.49 -0.108969 -0.744063 0
M  V30 11786 H 1117.46 -1.25862 -2.70557 0
M  V30 11787 C 1116.21 0.349134 -3.45943 0
M  V30 11788 H 1115.53 -0.341087 -3.98342 0
M  V30 11789 H 1116.97 0.677944 -4.18545 0
M  V30 11790 C 1115.43 1.55747 -2.98738 0
M  V30 11791 O 1115.96 2.65654 -3.01315 0
M  V30 11792 N 1114.17 1.40488 -2.54384 0
M  V30 11793 H 1113.71 0.510716 -2.52487 0
M  V30 11794 H 1113.67 2.21464 -2.23161 0
M  V30 11795 N 1117.44 1.42219 -0.679077 0
M  V30 11796 C 1118.85 1.8459 -0.279877 0
M  V30 11797 C 1119.21 1.56839 1.17881 0
M  V30 11798 O 1118.33 1.03039 1.90294 0
M  V30 11799 C 1118.93 3.35072 -0.501185 0
M  V30 11800 C 1117.48 3.76076 -0.156065 0
M  V30 11801 C 1116.63 2.65763 -0.791549 0
M  V30 11802 H 1119.58 1.32005 -0.880932 0
M  V30 11803 H 1119.6 3.79708 0.245349 0
M  V30 11804 H 1119.12 3.55239 -1.56291 0
M  V30 11805 H 1117.22 3.61516 0.90205 0
M  V30 11806 H 1117.33 4.75334 -0.599572 0
M  V30 11807 H 1115.69 2.53726 -0.222514 0
M  V30 11808 H 1116.48 2.88751 -1.85682 0
M  V30 11809 N 1118.92 0.422693 1.51826 0
M  V30 11810 C 1119.85 -0.386913 2.30272 0
M  V30 11811 C 1120.83 -1.03411 1.35056 0
M  V30 11812 O 1122.02 -1.04055 1.6397 0
M  V30 11813 C 1119.15 -1.49645 3.13407 0
M  V30 11814 C 1118.1 -0.973532 4.16781 0
M  V30 11815 C 1117.43 -2.1777 4.88344 0
M  V30 11816 C 1118.73 -0.0181194 5.22297 0
M  V30 11817 H 1120.42 0.267697 2.98201 0
M  V30 11818 H 1117.97 0.130186 1.4341 0
M  V30 11819 H 1119.92 -2.06993 3.67059 0
M  V30 11820 H 1118.64 -2.17914 2.43272 0
M  V30 11821 H 1117.3 -0.42237 3.64159 0
M  V30 11822 H 1116.95 -2.84625 4.14726 0
M  V30 11823 H 1116.65 -1.83427 5.58237 0
M  V30 11824 H 1118.18 -2.75699 5.44814 0
M  V30 11825 H 1119.59 -0.500822 5.71108 0
M  V30 11826 H 1117.99 0.237163 5.99631 0
M  V30 11827 H 1119.06 0.923065 4.76033 0
M  V30 11828 N 1120.4 -1.5685 0.153553 0
M  V30 11829 C 1121.63 -2.00701 -0.502678 0
M  V30 11830 C 1122.04 -1.0337 -1.57988 0
M  V30 11831 O 1121.4 -0.0317233 -1.82472 0
M  V30 11832 C 1121.45 -3.44443 -1.09732 0
M  V30 11833 O 1121.17 -4.38054 -0.0631405 0
M  V30 11834 C 1122.67 -4.03605 -1.83352 0
M  V30 11835 H 1119.89 -0.658229 -0.130289 0
M  V30 11836 H 1122.44 -2.02965 0.250063 0
M  V30 11837 H 1120.59 -3.43009 -1.80065 0
M  V30 11838 H 1121.01 -5.22114 -0.499681 0
M  V30 11839 H 1122.48 -5.0616 -2.20241 0
M  V30 11840 H 1122.96 -3.44687 -2.7219 0
M  V30 11841 H 1123.56 -4.08688 -1.17703 0
M  V30 11842 N 1121.88 0.120221 -1.57141 0
M  V30 11843 C 1123.12 0.824472 -1.85941 0
M  V30 11844 C 1123.48 1.77552 -0.741152 0
M  V30 11845 O 1122.77 1.89842 0.258939 0
M  V30 11846 C 1122.97 1.61338 -3.18912 0
M  V30 11847 C 1122.79 0.740224 -4.43566 0
M  V30 11848 C 1121.56 0.39553 -5.0375 0
M  V30 11849 C 1123.76 0.0584053 -5.14267 0
M  V30 11850 N 1121.74 -0.488415 -6.11954 0
M  V30 11851 C 1123.12 -0.684591 -6.16209 0
M  V30 11852 C 1125.17 -0.0181409 -4.97897 0
M  V30 11853 C 1123.87 -1.49694 -7.03551 0
M  V30 11854 C 1125.9 -0.817313 -5.85725 0
M  V30 11855 C 1125.26 -1.54851 -6.87169 0
M  V30 11856 H 1121.36 0.278664 -0.730664 0
M  V30 11857 H 1123.94 0.0882789 -1.945 0
M  V30 11858 H 1122.12 2.32062 -3.11451 0
M  V30 11859 H 1123.85 2.26287 -3.35524 0
M  V30 11860 H 1120.6 0.737491 -4.67823 0
M  V30 11861 H 1121.03 -0.9222 -6.7069 0
M  V30 11862 H 1125.67 0.532815 -4.19429 0
M  V30 11863 H 1123.39 -2.05906 -7.81427 0
M  V30 11864 H 1126.97 -0.878884 -5.75123 0
M  V30 11865 H 1125.85 -2.15696 -7.53953 0
M  V30 11866 N 1123.36 1.52689 0.390367 0
M  V30 11867 C 1124.3 1.7737 1.47677 0
M  V30 11868 C 1125.27 0.616864 1.54221 0
M  V30 11869 O 1126.46 0.856437 1.70499 0
M  V30 11870 C 1123.6 1.94715 2.84921 0
M  V30 11871 C 1122.71 3.22405 2.8754 0
M  V30 11872 C 1121.85 3.30074 4.16202 0
M  V30 11873 C 1120.89 4.51893 4.12867 0
M  V30 11874 N 1120.02 4.56851 5.33134 0
M  V30 11875 H 1124.86 2.70084 1.25932 0
M  V30 11876 H 1122.4 1.33813 0.610943 0
M  V30 11877 H 1124.36 2.02755 3.64618 0
M  V30 11878 H 1122.99 1.05363 3.0512 0
M  V30 11879 H 1122.04 3.23442 2.00223 0
M  V30 11880 H 1123.35 4.12156 2.80943 0
M  V30 11881 H 1122.51 3.3729 5.04302 0
M  V30 11882 H 1121.24 2.38295 4.25519 0
M  V30 11883 H 1120.25 4.44803 3.23156 0
M  V30 11884 H 1121.47 5.44987 4.05174 0
M  V30 11885 H 1119.42 3.67963 5.43083 0
M  V30 11886 H 1119.34 5.40472 5.28607 0
M  V30 11887 H 1120.61 4.6832 6.23134 0
M  V30 11888 N 1124.83 -0.648732 1.43629 0
M  V30 11889 C 1125.77 -1.77417 1.45107 0
M  V30 11890 C 1126.78 -1.59067 0.346618 0
M  V30 11891 O 1127.97 -1.67705 0.611322 0
M  V30 11892 C 1125.07 -3.14906 1.25249 0
M  V30 11893 C 1124.24 -3.59874 2.48616 0
M  V30 11894 C 1123.3 -4.76181 2.23916 0
M  V30 11895 O 1122.33 -4.8539 2.97296 0
M  V30 11896 N 1123.53 -5.66691 1.25862 0
M  V30 11897 H 1126.29 -1.76626 2.42123 0
M  V30 11898 H 1123.85 -0.832725 1.38843 0
M  V30 11899 H 1125.85 -3.90408 1.06601 0
M  V30 11900 H 1124.42 -3.10443 0.366623 0
M  V30 11901 H 1123.64 -2.74768 2.82659 0
M  V30 11902 H 1124.92 -3.86665 3.30708 0
M  V30 11903 H 1124.32 -5.61927 0.652227 0
M  V30 11904 H 1122.88 -6.41895 1.13196 0
M  V30 11905 N 1126.31 -1.30234 -0.887518 0
M  V30 11906 C 1127.24 -1.18969 -2.00919 0
M  V30 11907 C 1128.22 -0.080952 -1.69907 0
M  V30 11908 O 1129.41 -0.262546 -1.92417 0
M  V30 11909 C 1126.54 -0.878094 -3.36016 0
M  V30 11910 C 1125.49 -1.94449 -3.81279 0
M  V30 11911 C 1124.82 -1.48594 -5.13638 0
M  V30 11912 C 1126.12 -3.35519 -4.00281 0
M  V30 11913 H 1127.81 -2.12808 -2.10602 0
M  V30 11914 H 1125.36 -1.02454 -1.01189 0
M  V30 11915 H 1127.31 -0.785954 -4.14006 0
M  V30 11916 H 1126.04 0.0959779 -3.26459 0
M  V30 11917 H 1124.69 -2.02622 -3.05516 0
M  V30 11918 H 1124.34 -0.500204 -5.00507 0
M  V30 11919 H 1124.04 -2.19921 -5.44893 0
M  V30 11920 H 1125.57 -1.40754 -5.94156 0
M  V30 11921 H 1126.98 -3.30119 -4.68716 0
M  V30 11922 H 1125.38 -4.0491 -4.42909 0
M  V30 11923 H 1126.45 -3.77597 -3.04218 0
M  V30 11924 N 1127.79 1.09952 -1.12909 0
M  V30 11925 C 1128.72 2.18477 -0.824014 0
M  V30 11926 C 1129.7 1.68744 0.214324 0
M  V30 11927 O 1130.89 1.94057 0.0744281 0
M  V30 11928 C 1128.02 3.46143 -0.283308 0
M  V30 11929 C 1126.97 4.09178 -1.25528 0
M  V30 11930 C 1126.3 5.31604 -0.574574 0
M  V30 11931 C 1127.6 4.52308 -2.6118 0
M  V30 11932 H 1129.29 2.44254 -1.73148 0
M  V30 11933 H 1126.84 1.17394 -0.833952 0
M  V30 11934 H 1128.79 4.21361 -0.057583 0
M  V30 11935 H 1127.51 3.19872 0.659525 0
M  V30 11936 H 1126.17 3.35973 -1.4669 0
M  V30 11937 H 1125.82 5.01611 0.37356 0
M  V30 11938 H 1125.52 5.74732 -1.22299 0
M  V30 11939 H 1127.04 6.0955 -0.358004 0
M  V30 11940 H 1128.46 5.18776 -2.44017 0
M  V30 11941 H 1126.86 5.06302 -3.22147 0
M  V30 11942 H 1127.93 3.64977 -3.19249 0
M  V30 11943 N 1129.27 0.921757 1.27833 0
M  V30 11944 C 1130.51 0.566288 1.96399 0
M  V30 11945 C 1130.87 -0.875149 1.70895 0
M  V30 11946 O 1132.07 -1.3386 2.33099 0
M  V30 11947 C 1130.34 0.876329 3.4649 0
M  V30 11948 S 1131.9 0.628481 4.34276 0
M  V30 11949 H 1128.72 0.209246 0.679512 0
M  V30 11950 H 1131.32 1.18892 1.55193 0
M  V30 11951 H 1130.03 1.92319 3.62549 0
M  V30 11952 H 1129.56 0.242658 3.92651 0
M  V30 11953 H 1131.57 -0.516493 4.93505 0
M  V30 11954 N 1130.75 -1.41857 0.686609 0
M  V30 11955 C 1132.02 -1.95082 0.142228 0
M  V30 11956 C 1132.4 -1.62646 -1.34572 0
M  V30 11957 O 1131.75 -0.928757 -2.08773 0
M  V30 11958 C 1131.96 -3.46415 0.423955 0
M  V30 11959 C 1133.31 -4.23181 0.346842 0
M  V30 11960 O 1134.33 -3.54393 0.358363 0
M  V30 11961 O 1133.19 -5.4568 0.299211 0
M  V30 11962 H 1130.29 -0.826943 0.00974 0
M  V30 11963 H 1132.83 -1.51622 0.762153 0
M  V30 11964 H 1131.6 -3.63273 1.45424 0
M  V30 11965 H 1131.23 -3.96949 -0.227391 0
M  V30 11966 N 1132.22 -0.430739 -1.51599 0
M  V30 11967 C 1133.15 0.374695 -2.30474 0
M  V30 11968 C 1134.14 1.02694 -1.35602 0
M  V30 11969 O 1135.32 1.03184 -1.6452 0
M  V30 11970 C 1132.45 1.47981 -3.14196 0
M  V30 11971 C 1131.4 0.951415 -4.17291 0
M  V30 11972 C 1130.73 2.15177 -4.89492 0
M  V30 11973 C 1132.03 -0.00957951 -5.22299 0
M  V30 11974 H 1133.72 -0.283508 -2.98055 0
M  V30 11975 H 1131.27 -0.13779 -1.43339 0
M  V30 11976 H 1133.22 2.05043 -3.68151 0
M  V30 11977 H 1131.95 2.16621 -2.44424 0
M  V30 11978 H 1130.61 0.403052 -3.64378 0
M  V30 11979 H 1130.25 2.82421 -4.1623 0
M  V30 11980 H 1129.95 1.80464 -5.59202 0
M  V30 11981 H 1131.48 2.72806 -5.46269 0
M  V30 11982 H 1132.89 0.470527 -5.71366 0
M  V30 11983 H 1131.29 -0.268959 -5.99497 0
M  V30 11984 H 1132.36 -0.948297 -4.75537 0
M  V30 11985 N 1133.7 1.56767 -0.161869 0
M  V30 11986 C 1134.95 1.96885 0.486215 0
M  V30 11987 C 1135.28 1.04745 1.6353 0
M  V30 11988 O 1134.56 0.0927156 1.94279 0
M  V30 11989 C 1134.84 3.46559 0.97822 0
M  V30 11990 C 1134.69 4.49477 -0.17039 0
M  V30 11991 C 1136.01 3.99093 1.85506 0
M  V30 11992 H 1133.13 0.715857 0.175265 0
M  V30 11993 H 1135.77 1.88399 -0.246098 0
M  V30 11994 H 1133.92 3.53921 1.60225 0
M  V30 11995 H 1135.59 4.54183 -0.807205 0
M  V30 11996 H 1133.84 4.25838 -0.827322 0
M  V30 11997 H 1134.51 5.51578 0.21583 0
M  V30 11998 H 1136.98 3.94303 1.32908 0
M  V30 11999 H 1135.86 5.04255 2.16837 0
M  V30 12000 H 1136.12 3.4234 2.79742 0
M  V30 12001 N 1135.18 -0.111886 1.57202 0
M  V30 12002 C 1136.43 -0.816794 1.84859 0
M  V30 12003 C 1136.75 -1.80079 0.748113 0
M  V30 12004 O 1136.02 -1.94578 -0.227235 0
M  V30 12005 H 1134.6 -0.304633 0.682061 0
M  V30 12006 H 1137.26 -0.097513 1.94656 0
M  V30 12007 H 1136.36 -1.35768 2.81022 0
M  V30 12008 N 1136.66 -1.52894 -0.382264 0
M  V30 12009 C 1137.91 -1.67489 -1.12385 0
M  V30 12010 C 1138.22 -0.424565 -1.90937 0
M  V30 12011 O 1139.43 -0.450763 -2.67732 0
M  V30 12012 C 1137.88 -2.96019 -2.04697 0
M  V30 12013 C 1137.49 -4.28255 -1.31535 0
M  V30 12014 C 1139.23 -3.19981 -2.78949 0
M  V30 12015 C 1137.14 -5.47887 -2.22652 0
M  V30 12016 H 1136.07 -0.624002 -0.423246 0
M  V30 12017 H 1138.72 -1.79392 -0.386107 0
M  V30 12018 H 1137.1 -2.77878 -2.82134 0
M  V30 12019 H 1138.28 -4.56971 -0.592771 0
M  V30 12020 H 1136.59 -4.10607 -0.692148 0
M  V30 12021 H 1139.19 -4.06541 -3.47316 0
M  V30 12022 H 1139.53 -2.35335 -3.43399 0
M  V30 12023 H 1140.07 -3.38718 -2.08602 0
M  V30 12024 H 1136.81 -6.3496 -1.62806 0
M  V30 12025 H 1136.33 -5.23473 -2.92807 0
M  V30 12026 H 1138 -5.82026 -2.82586 0
M  V30 12027 N 1138.14 0.641106 -1.43971 0
M  V30 12028 C 1139.36 1.43324 -1.4991 0
M  V30 12029 C 1139.79 1.87705 -0.121908 0
M  V30 12030 O 1139.15 1.58127 0.886875 0
M  V30 12031 C 1139.19 2.63637 -2.46025 0
M  V30 12032 O 1138.3 3.63123 -1.95488 0
M  V30 12033 H 1137.64 0.429252 -0.506595 0
M  V30 12034 H 1140.17 0.783427 -1.89007 0
M  V30 12035 H 1140.18 3.11304 -2.63731 0
M  V30 12036 H 1138.85 2.30678 -3.46064 0
M  V30 12037 H 1137.43 3.22332 -1.87501 0
M  V30 12038 N 1139.62 1.30703 0.880598 0
M  V30 12039 C 1141.03 1.17818 1.4483 0
M  V30 12040 C 1141.38 -0.219456 1.94969 0
M  V30 12041 O 1140.5 -1.11646 1.85375 0
M  V30 12042 C 1141.1 2.13275 2.63247 0
M  V30 12043 C 1139.66 2.04356 3.16094 0
M  V30 12044 C 1138.8 2.03108 1.88792 0
M  V30 12045 H 1141.75 1.42909 0.690125 0
M  V30 12046 H 1141.78 1.71615 3.39601 0
M  V30 12047 H 1141.29 3.14988 2.26725 0
M  V30 12048 H 1139.39 1.058 3.57263 0
M  V30 12049 H 1139.5 2.92953 3.79098 0
M  V30 12050 H 1137.87 1.47971 2.07308 0
M  V30 12051 H 1138.65 3.06558 1.54521 0
M  V30 12052 N 1141.09 -1.09351 1.1349 0
M  V30 12053 C 1142.32 -1.85844 0.92069 0
M  V30 12054 C 1142.74 -1.80616 -0.525303 0
M  V30 12055 O 1142.1 -1.1842 -1.37282 0
M  V30 12056 C 1142.15 -3.31716 1.4141 0
M  V30 12057 O 1141.25 -4.08014 0.599838 0
M  V30 12058 H 1140.59 -0.576242 0.32991 0
M  V30 12059 H 1143.12 -1.38084 1.50976 0
M  V30 12060 H 1143.13 -3.82564 1.41805 0
M  V30 12061 H 1141.81 -3.34837 2.46692 0
M  V30 12062 H 1140.39 -3.66944 0.663816 0
M  V30 12063 N 1142.57 -0.928524 -1.27343 0
M  V30 12064 C 1143.8 -0.58516 -1.98974 0
M  V30 12065 C 1144.22 0.829964 -1.68799 0
M  V30 12066 O 1143.58 1.55705 -0.928738 0
M  V30 12067 C 1143.63 -0.818662 -3.51184 0
M  V30 12068 O 1142.73 0.115355 -4.12239 0
M  V30 12069 H 1142.07 -0.225203 -0.624644 0
M  V30 12070 H 1144.6 -1.248 -1.6213 0
M  V30 12071 H 1144.61 -0.734554 -4.01333 0
M  V30 12072 H 1143.29 -1.8502 -3.72479 0
M  V30 12073 H 1141.86 -0.0187371 -3.72895 0
M  V30 12074 N 1144.05 1.41491 -0.694123 0
M  V30 12075 C 1144.96 2.34583 -0.0283414 0
M  V30 12076 C 1145.98 1.5615 0.767662 0
M  V30 12077 O 1147.15 1.88637 0.705556 0
M  V30 12078 C 1144.22 3.34876 0.897726 0
M  V30 12079 C 1143.28 4.29197 0.0940905 0
M  V30 12080 C 1142.51 5.24699 0.976051 0
M  V30 12081 O 1142.73 5.25613 2.21556 0
M  V30 12082 O 1141.67 6.00387 0.426503 0
M  V30 12083 H 1145.49 2.93092 -0.795656 0
M  V30 12084 H 1143.08 1.4232 -0.45445 0
M  V30 12085 H 1144.96 3.96438 1.4288 0
M  V30 12086 H 1143.64 2.78812 1.64456 0
M  V30 12087 H 1142.54 3.70988 -0.481552 0
M  V30 12088 H 1143.88 4.88355 -0.614045 0
M  V30 12089 N 1145.53 0.438773 1.51369 0
M  V30 12090 C 1146.48 -0.389921 2.24641 0
M  V30 12091 C 1147.46 -0.988871 1.26926 0
M  V30 12092 O 1148.65 -0.906774 1.52009 0
M  V30 12093 C 1145.78 -1.48972 3.09293 0
M  V30 12094 C 1144.87 -0.900093 4.14438 0
M  V30 12095 N 1145.26 -0.0397688 5.05784 0
M  V30 12096 C 1143.56 -1.16752 4.30447 0
M  V30 12097 C 1144.26 0.291527 5.80969 0
M  V30 12098 N 1143.23 -0.325219 5.42626 0
M  V30 12099 H 1147.04 0.273335 2.92626 0
M  V30 12100 H 1144.55 0.250934 1.6045 0
M  V30 12101 H 1146.55 -2.09627 3.60364 0
M  V30 12102 H 1145.21 -2.1553 2.42852 0
M  V30 12103 H 1146.22 0.326771 5.16868 0
M  V30 12104 H 1142.9 -1.83049 3.75232 0
M  V30 12105 H 1144.29 0.991699 6.64541 0
M  V30 12106 N 1147.01 -1.56678 0.170181 0
M  V30 12107 C 1148.28 -1.88524 -0.521362 0
M  V30 12108 C 1148.66 -1.07989 -1.81388 0
M  V30 12109 O 1148.01 -0.17347 -2.27841 0
M  V30 12110 C 1148.22 -3.40527 -0.764367 0
M  V30 12111 C 1149.57 -4.10241 -1.09487 0
M  V30 12112 O 1150.59 -3.45837 -0.852945 0
M  V30 12113 O 1149.45 -5.24022 -1.55124 0
M  V30 12114 H 1146.55 -0.782161 -0.268614 0
M  V30 12115 H 1149.09 -1.68414 0.208531 0
M  V30 12116 H 1147.86 -3.91015 0.149416 0
M  V30 12117 H 1147.49 -3.66244 -1.54762 0
M  V30 12118 N 1148.48 0.103547 -1.57259 0
M  V30 12119 C 1149.73 0.809774 -1.85931 0
M  V30 12120 C 1150.06 1.78791 -0.758122 0
M  V30 12121 O 1149.34 1.93079 0.234682 0
M  V30 12122 C 1149.62 1.54601 -3.25224 0
M  V30 12123 C 1149.47 0.586439 -4.45961 0
M  V30 12124 C 1150.79 2.4986 -3.62296 0
M  V30 12125 H 1147.91 0.29293 -0.676285 0
M  V30 12126 H 1150.55 0.0736065 -1.89857 0
M  V30 12127 H 1148.7 2.17355 -3.22008 0
M  V30 12128 H 1150.38 -0.0334441 -4.61288 0
M  V30 12129 H 1148.62 -0.10085 -4.33683 0
M  V30 12130 H 1149.29 1.13855 -5.40131 0
M  V30 12131 H 1151.77 1.97203 -3.66402 0
M  V30 12132 H 1150.64 2.98396 -4.60707 0
M  V30 12133 H 1150.9 3.33233 -2.90531 0
M  V30 12134 N 1149.96 1.53094 0.37415 0
M  V30 12135 C 1150.89 1.81901 1.46404 0
M  V30 12136 C 1151.87 0.671949 1.56265 0
M  V30 12137 O 1153.06 0.920978 1.70973 0
M  V30 12138 C 1150.19 2.00123 2.83845 0
M  V30 12139 C 1149.14 3.15864 2.88814 0
M  V30 12140 C 1148.47 3.19364 4.28848 0
M  V30 12141 C 1149.77 4.54633 2.57112 0
M  V30 12142 H 1151.46 2.73172 1.22546 0
M  V30 12143 H 1149.01 1.31444 0.588087 0
M  V30 12144 H 1150.96 2.18859 3.6011 0
M  V30 12145 H 1149.68 1.05555 3.09072 0
M  V30 12146 H 1148.34 2.96935 2.15 0
M  V30 12147 H 1147.99 2.2245 4.51137 0
M  V30 12148 H 1147.69 3.97123 4.3309 0
M  V30 12149 H 1149.22 3.40273 5.06997 0
M  V30 12150 H 1150.63 4.73587 3.23091 0
M  V30 12151 H 1149.03 5.34569 2.72683 0
M  V30 12152 H 1150.1 4.60331 1.52392 0
M  V30 12153 N 1151.44 -0.633461 1.44309 0
M  V30 12154 C 1152.39 -1.74554 1.50995 0
M  V30 12155 C 1153.36 -1.62199 0.357873 0
M  V30 12156 O 1154.54 -1.82156 0.567787 0
M  V30 12157 C 1151.68 -3.12792 1.45791 0
M  V30 12158 C 1150.79 -3.3614 2.71356 0
M  V30 12159 C 1149.93 -4.64337 2.58002 0
M  V30 12160 C 1148.97 -4.80855 3.78741 0
M  V30 12161 N 1148.11 -6.00327 3.64077 0
M  V30 12162 H 1152.95 -1.68174 2.46011 0
M  V30 12163 H 1150.48 -0.820407 1.22097 0
M  V30 12164 H 1152.44 -3.92735 1.40765 0
M  V30 12165 H 1151.07 -3.18193 0.543445 0
M  V30 12166 H 1150.12 -2.50154 2.86579 0
M  V30 12167 H 1151.43 -3.44226 3.60985 0
M  V30 12168 H 1150.59 -5.52437 2.50795 0
M  V30 12169 H 1149.33 -4.58605 1.65929 0
M  V30 12170 H 1148.33 -3.91185 3.86334 0
M  V30 12171 H 1149.56 -4.88403 4.71847 0
M  V30 12172 H 1147.5 -5.9569 2.74754 0
M  V30 12173 H 1147.42 -6.09459 4.47321 0
M  V30 12174 H 1148.69 -6.90995 3.60758 0
M  V30 12175 N 1152.92 -1.31168 -0.873655 0
M  V30 12176 C 1153.83 -1.20458 -2.01313 0
M  V30 12177 C 1154.84 -0.122074 -1.73571 0
M  V30 12178 O 1156.02 -0.339176 -1.98523 0
M  V30 12179 C 1153.09 -0.90876 -3.34578 0
M  V30 12180 C 1152.15 -2.07779 -3.75668 0
M  V30 12181 C 1151.38 -1.79599 -5.02573 0
M  V30 12182 O 1151.6 -0.729338 -5.65718 0
M  V30 12183 O 1150.54 -2.65169 -5.40341 0
M  V30 12184 H 1154.36 -2.16207 -2.13279 0
M  V30 12185 H 1151.95 -1.10871 -1.00139 0
M  V30 12186 H 1153.83 -0.759469 -4.145 0
M  V30 12187 H 1152.5 0.0187249 -3.23695 0
M  V30 12188 H 1151.41 -2.28247 -2.96402 0
M  V30 12189 H 1152.74 -2.9874 -3.91172 0
M  V30 12190 N 1154.4 1.08748 -1.14068 0
M  V30 12191 C 1155.36 2.1375 -0.827266 0
M  V30 12192 C 1156.36 1.59936 0.166496 0
M  V30 12193 O 1157.55 1.74092 -0.0614305 0
M  V30 12194 C 1154.68 3.40106 -0.232557 0
M  V30 12195 H 1155.87 2.42985 -1.7578 0
M  V30 12196 H 1153.43 1.24402 -0.946244 0
M  V30 12197 H 1154.16 3.16503 0.706859 0
M  V30 12198 H 1153.95 3.8046 -0.948293 0
M  V30 12199 H 1155.44 4.17589 -0.0303662 0
M  V30 12200 N 1155.87 0.935264 1.26849 0
M  V30 12201 C 1157.12 0.580548 1.94313 0
M  V30 12202 C 1157.45 -0.877205 1.73259 0
M  V30 12203 O 1156.73 -1.62679 1.06611 0
M  V30 12204 C 1157.01 0.916445 3.48243 0
M  V30 12205 C 1156.86 2.42851 3.78607 0
M  V30 12206 C 1158.18 0.427665 4.38017 0
M  V30 12207 H 1155.3 0.21239 0.705733 0
M  V30 12208 H 1157.94 1.16841 1.49827 0
M  V30 12209 H 1156.09 0.416169 3.86265 0
M  V30 12210 H 1157.77 3.00106 3.50335 0
M  V30 12211 H 1156.01 2.8745 3.24892 0
M  V30 12212 H 1156.68 2.61405 4.8618 0
M  V30 12213 H 1159.16 0.856525 4.07189 0
M  V30 12214 H 1158.03 0.691571 5.44526 0
M  V30 12215 H 1158.29 -0.672344 4.36958 0
M  V30 12216 N 1157.35 -1.41121 0.701616 0
M  V30 12217 C 1158.28 -2.33436 0.0545974 0
M  V30 12218 C 1159.26 -1.52144 -0.760662 0
M  V30 12219 O 1160.45 -1.80661 -0.712414 0
M  V30 12220 C 1157.58 -3.36015 -0.878117 0
M  V30 12221 C 1156.53 -4.27664 -0.169511 0
M  V30 12222 C 1155.86 -5.20666 -1.21699 0
M  V30 12223 C 1157.16 -5.13254 0.967859 0
M  V30 12224 H 1158.85 -2.87791 0.825637 0
M  V30 12225 H 1156.4 -1.38377 0.398484 0
M  V30 12226 H 1158.35 -3.99526 -1.34004 0
M  V30 12227 H 1157.08 -2.80024 -1.68089 0
M  V30 12228 H 1155.73 -3.65586 0.272441 0
M  V30 12229 H 1155.38 -4.60987 -2.01246 0
M  V30 12230 H 1155.08 -5.82822 -0.747836 0
M  V30 12231 H 1156.61 -5.87053 -1.6793 0
M  V30 12232 H 1158.02 -5.70298 0.585944 0
M  V30 12233 H 1156.42 -5.84381 1.3645 0
M  V30 12234 H 1157.49 -4.5006 1.80483 0
M  V30 12235 N 1158.83 -0.446794 -1.51134 0
M  V30 12236 C 1159.78 0.359865 -2.27977 0
M  V30 12237 C 1160.75 1.0086 -1.31972 0
M  V30 12238 O 1161.93 1.02569 -1.60886 0
M  V30 12239 C 1159.07 1.44978 -3.1317 0
M  V30 12240 C 1158.19 0.818243 -4.2418 0
M  V30 12241 C 1157.32 1.884 -4.96668 0
M  V30 12242 C 1156.36 1.2314 -5.99586 0
M  V30 12243 N 1155.5 2.23894 -6.65444 0
M  V30 12244 H 1160.34 -0.301775 -2.96468 0
M  V30 12245 H 1157.87 -0.160666 -1.4622 0
M  V30 12246 H 1159.83 2.09308 -3.60896 0
M  V30 12247 H 1158.46 2.08092 -2.46775 0
M  V30 12248 H 1157.51 0.0629889 -3.80348 0
M  V30 12249 H 1158.83 0.301885 -4.97886 0
M  V30 12250 H 1157.98 2.6037 -5.4799 0
M  V30 12251 H 1156.72 2.43411 -4.22614 0
M  V30 12252 H 1155.72 0.497215 -5.47547 0
M  V30 12253 H 1156.95 0.688505 -6.75601 0
M  V30 12254 H 1154.89 2.77967 -5.94197 0
M  V30 12255 H 1154.81 1.77176 -7.34945 0
M  V30 12256 H 1156.08 2.95318 -7.21393 0
M  V30 12257 N 1160.31 1.56586 -0.178487 0
M  V30 12258 C 1161.26 2.18309 0.74899 0
M  V30 12259 C 1162.23 1.12525 1.22178 0
M  V30 12260 O 1163.41 1.40706 1.28866 0
M  V30 12261 C 1160.55 2.83353 1.9699 0
M  V30 12262 C 1159.66 4.03618 1.54002 0
M  V30 12263 C 1158.8 4.56567 2.71514 0
M  V30 12264 C 1157.84 5.69226 2.25051 0
M  V30 12265 N 1156.97 6.16654 3.35682 0
M  V30 12266 H 1161.81 2.97217 0.21587 0
M  V30 12267 H 1159.35 1.46794 0.0948182 0
M  V30 12268 H 1161.31 3.19226 2.68609 0
M  V30 12269 H 1159.94 2.07037 2.4766 0
M  V30 12270 H 1158.99 3.73518 0.720298 0
M  V30 12271 H 1160.3 4.85148 1.15901 0
M  V30 12272 H 1159.46 4.94659 3.5128 0
M  V30 12273 H 1158.2 3.7411 3.12879 0
M  V30 12274 H 1157.2 5.30679 1.43734 0
M  V30 12275 H 1158.43 6.5349 1.84736 0
M  V30 12276 H 1156.37 5.37124 3.76609 0
M  V30 12277 H 1156.29 6.93192 3.01697 0
M  V30 12278 H 1157.56 6.59397 4.15711 0
M  V30 12279 N 1161.79 -0.095206 1.57312 0
M  V30 12280 C 1162.72 -1.11627 2.05089 0
M  V30 12281 C 1163.7 -1.41782 0.939787 0
M  V30 12282 O 1164.88 -1.51813 1.21105 0
M  V30 12283 C 1162.01 -2.43618 2.47523 0
M  V30 12284 C 1160.97 -2.27872 3.62296 0
M  V30 12285 C 1160.29 -3.65038 3.90706 0
M  V30 12286 C 1161.59 -1.71936 4.93189 0
M  V30 12287 H 1163.29 -0.718795 2.90644 0
M  V30 12288 H 1160.83 -0.344315 1.39823 0
M  V30 12289 H 1162.79 -3.1532 2.79556 0
M  V30 12290 H 1161.51 -2.85301 1.58968 0
M  V30 12291 H 1160.17 -1.58615 3.3051 0
M  V30 12292 H 1159.82 -4.04249 2.99319 0
M  V30 12293 H 1159.52 -3.55349 4.67976 0
M  V30 12294 H 1161.04 -4.38208 4.25213 0
M  V30 12295 H 1162.45 -2.33479 5.23603 0
M  V30 12296 H 1160.85 -1.73006 5.74621 0
M  V30 12297 H 1161.92 -0.678789 4.80125 0
M  V30 12298 N 1163.26 -1.53291 -0.366026 0
M  V30 12299 C 1164.51 -1.69117 -1.10653 0
M  V30 12300 C 1164.83 -0.445327 -1.89847 0
M  V30 12301 O 1164.1 0.540616 -1.88293 0
M  V30 12302 H 1162.68 -0.623446 -0.41149 0
M  V30 12303 H 1165.35 -1.90479 -0.412749 0
M  V30 12304 H 1164.44 -2.55205 -1.79658 0
M  V30 12305 N 1164.74 0.6258 -1.44643 0
M  V30 12306 C 1165.99 1.38251 -1.47414 0
M  V30 12307 C 1166.31 1.94689 -0.110043 0
M  V30 12308 O 1165.58 1.76095 0.858333 0
M  V30 12309 H 1164.16 0.513179 -0.542823 0
M  V30 12310 H 1166.82 0.736179 -1.80462 0
M  V30 12311 H 1165.92 2.21115 -2.2026 0
M  V30 12312 N 1166.22 1.31629 0.866686 0
M  V30 12313 C 1167.5 1.12136 1.60265 0
M  V30 12314 C 1167.88 -0.322729 2.08618 0
M  V30 12315 O 1167.23 -1.31738 1.86701 0
M  V30 12316 C 1167.44 2.13845 2.7581 0
M  V30 12317 C 1168.78 2.46541 3.45692 0
M  V30 12318 O 1169.81 2.12298 2.86021 0
M  V30 12319 O 1168.67 3.05194 4.53342 0
M  V30 12320 H 1165.76 0.431923 0.705246 0
M  V30 12321 H 1168.31 1.43119 0.911863 0
M  V30 12322 H 1167.08 3.10967 2.37518 0
M  V30 12323 H 1166.7 1.83786 3.52574 0
M  V30 12324 N 1167.7 -1.08142 1.14644 0
M  V30 12325 C 1168.65 -2.17229 0.831513 0
M  V30 12326 C 1169.64 -1.68311 -0.19173 0
M  V30 12327 O 1170.85 -1.79937 -0.0475596 0
M  V30 12328 H 1167.22 -0.708807 0.25119 0
M  V30 12329 H 1169.19 -2.41014 1.75939 0
M  V30 12330 C 1167.94 -3.46146 0.328347 0
M  V30 12331 H 1167.27 -3.84166 1.10708 0
M  V30 12332 H 1168.71 -4.23747 0.146568 0
M  V30 12333 C 1167.16 -3.2327 -0.948594 0
M  V30 12334 O 1167.69 -3.47111 -2.0218 0
M  V30 12335 N 1165.9 -2.76799 -0.884909 0
M  V30 12336 H 1165.45 -2.57597 -0.011399 0
M  V30 12337 H 1165.41 -2.61871 -1.73985 0
M  V30 12338 N 1169.18 -0.941978 -1.26351 0
M  V30 12339 C 1170.41 -0.606748 -1.97803 0
M  V30 12340 C 1170.82 0.818441 -1.70138 0
M  V30 12341 O 1170.18 1.54583 -0.970076 0
M  V30 12342 C 1170.23 -0.840431 -3.51595 0
M  V30 12343 O 1169.95 -2.20957 -3.78299 0
M  V30 12344 C 1171.45 -0.515855 -4.40288 0
M  V30 12345 H 1168.67 -0.228591 -0.630862 0
M  V30 12346 H 1171.21 -1.2629 -1.60845 0
M  V30 12347 H 1169.37 -0.230875 -3.86711 0
M  V30 12348 H 1169.78 -2.2702 -4.72824 0
M  V30 12349 H 1171.26 -0.72998 -5.47152 0
M  V30 12350 H 1171.73 0.549178 -4.35753 0
M  V30 12351 H 1172.34 -1.10417 -4.10717 0
M  V30 12352 N 1170.66 1.40747 -0.709091 0
M  V30 12353 C 1171.59 2.29196 -0.0130359 0
M  V30 12354 C 1172.6 1.45491 0.730487 0
M  V30 12355 O 1173.79 1.6885 0.578944 0
M  V30 12356 C 1170.89 3.23632 1.00577 0
M  V30 12357 C 1170.06 4.3616 0.329105 0
M  V30 12358 C 1169.12 5.11079 1.25239 0
M  V30 12359 O 1168.15 5.64374 0.739641 0
M  V30 12360 N 1169.35 5.1982 2.58394 0
M  V30 12361 H 1172.11 2.89574 -0.772462 0
M  V30 12362 H 1169.68 1.52046 -0.556197 0
M  V30 12363 H 1171.67 3.70622 1.62546 0
M  V30 12364 H 1170.24 2.64467 1.66661 0
M  V30 12365 H 1169.46 3.9138 -0.470683 0
M  V30 12366 H 1170.75 5.08605 -0.140856 0
M  V30 12367 H 1170.14 4.77992 3.02556 0
M  V30 12368 H 1168.7 5.7034 3.15524 0
M  V30 12369 N 1172.13 0.454803 1.50895 0
M  V30 12370 C 1173.06 -0.337982 2.31041 0
M  V30 12371 C 1174.04 -1.00523 1.37219 0
M  V30 12372 O 1175.23 -1.00553 1.66141 0
M  V30 12373 C 1172.36 -1.42964 3.1651 0
M  V30 12374 C 1171.31 -0.884907 4.18752 0
M  V30 12375 C 1170.64 -2.07363 4.92854 0
M  V30 12376 C 1171.94 0.0926716 5.22218 0
M  V30 12377 H 1173.63 0.33089 2.97566 0
M  V30 12378 H 1171.18 0.160577 1.43102 0
M  V30 12379 H 1173.13 -1.9916 3.71367 0
M  V30 12380 H 1171.86 -2.12705 2.47839 0
M  V30 12381 H 1170.52 -0.345031 3.64973 0
M  V30 12382 H 1170.16 -2.75764 4.2067 0
M  V30 12383 H 1169.86 -1.71545 5.62002 0
M  V30 12384 H 1171.39 -2.6408 5.5054 0
M  V30 12385 H 1172.8 -0.379568 5.72042 0
M  V30 12386 H 1171.2 0.3643 5.98993 0
M  V30 12387 H 1172.27 1.02383 4.73968 0
M  V30 12388 N 1173.61 -1.56489 0.186789 0
M  V30 12389 C 1174.52 -2.22304 -0.749543 0
M  V30 12390 C 1175.54 -1.21949 -1.24115 0
M  V30 12391 O 1176.71 -1.5466 -1.29005 0
M  V30 12392 C 1173.78 -2.863 -1.95533 0
M  V30 12393 C 1172.84 -4.01901 -1.5091 0
M  V30 12394 C 1172.07 -4.62837 -2.6574 0
M  V30 12395 O 1172.3 -4.22681 -3.8301 0
M  V30 12396 O 1171.23 -5.52446 -2.38929 0
M  V30 12397 H 1175.06 -3.02909 -0.21908 0
M  V30 12398 H 1172.64 -1.49341 -0.0421249 0
M  V30 12399 H 1174.52 -3.2682 -2.6602 0
M  V30 12400 H 1173.2 -2.08681 -2.47455 0
M  V30 12401 H 1172.1 -3.66021 -0.773261 0
M  V30 12402 H 1173.44 -4.8116 -1.03663 0
M  V30 12403 N 1175.09 0.086862 -1.5736 0
M  V30 12404 C 1176.05 1.08906 -2.01673 0
M  V30 12405 C 1177.05 1.32473 -0.911463 0
M  V30 12406 O 1178.24 1.28447 -1.17673 0
M  V30 12407 C 1175.37 2.43629 -2.38449 0
M  V30 12408 H 1176.57 0.707461 -2.91436 0
M  V30 12409 H 1174.12 0.332154 -1.5273 0
M  V30 12410 H 1174.86 2.8665 -1.51665 0
M  V30 12411 H 1174.64 2.2787 -3.19089 0
M  V30 12412 H 1176.13 3.15695 -2.73361 0
M  V30 12413 N 1176.57 1.53483 0.357892 0
M  V30 12414 C 1177.53 1.79782 1.42166 0
M  V30 12415 C 1178.53 0.668441 1.46248 0
M  V30 12416 O 1179.72 0.936677 1.46874 0
M  V30 12417 C 1176.85 1.92686 2.8122 0
M  V30 12418 H 1178.05 2.74794 1.20117 0
M  V30 12419 H 1175.6 1.44677 0.591468 0
M  V30 12420 H 1176.33 0.997669 3.08573 0
M  V30 12421 H 1176.12 2.74837 2.79655 0
M  V30 12422 H 1177.61 2.14599 3.58242 0
M  V30 12423 N 1178.05 -0.61812 1.44973 0
M  V30 12424 C 1178.96 -1.7579 1.55355 0
M  V30 12425 C 1179.97 -1.68384 0.438512 0
M  V30 12426 O 1181.15 -1.88928 0.697715 0
M  V30 12427 C 1178.21 -3.1222 1.50729 0
M  V30 12428 C 1177.27 -3.3116 2.73188 0
M  V30 12429 C 1176.51 -4.61082 2.68774 0
M  V30 12430 O 1176.73 -5.42728 1.75507 0
M  V30 12431 O 1175.66 -4.82506 3.59821 0
M  V30 12432 H 1179.49 -1.69983 2.51674 0
M  V30 12433 H 1177.07 -0.780934 1.27365 0
M  V30 12434 H 1178.96 -3.93524 1.5072 0
M  V30 12435 H 1177.63 -3.18541 0.575587 0
M  V30 12436 H 1176.54 -2.49485 2.78762 0
M  V30 12437 H 1177.87 -3.29709 3.65449 0
M  V30 12438 N 1179.52 -1.32087 -0.859693 0
M  V30 12439 C 1180.77 -1.23551 -1.61575 0
M  V30 12440 C 1181.12 0.20199 -1.91337 0
M  V30 12441 O 1180.42 1.13834 -1.54118 0
M  V30 12442 C 1180.61 -2.0234 -2.94607 0
M  V30 12443 C 1180.44 -3.53606 -2.77836 0
M  V30 12444 C 1179.21 -4.22948 -2.76483 0
M  V30 12445 C 1181.41 -4.48356 -2.51955 0
M  V30 12446 N 1179.39 -5.60301 -2.5087 0
M  V30 12447 C 1180.76 -5.7345 -2.35702 0
M  V30 12448 C 1182.82 -4.37669 -2.37383 0
M  V30 12449 C 1181.52 -6.89064 -2.06357 0
M  V30 12450 C 1183.55 -5.53077 -2.09427 0
M  V30 12451 C 1182.91 -6.77167 -1.93971 0
M  V30 12452 H 1179.01 -0.507252 -0.595164 0
M  V30 12453 H 1181.59 -1.66395 -1.01098 0
M  V30 12454 H 1179.76 -1.6185 -3.53071 0
M  V30 12455 H 1181.49 -1.8574 -3.59559 0
M  V30 12456 H 1178.25 -3.75017 -2.89239 0
M  V30 12457 H 1178.67 -6.32649 -2.41006 0
M  V30 12458 H 1183.31 -3.42386 -2.48056 0
M  V30 12459 H 1181.03 -7.84363 -1.94421 0
M  V30 12460 H 1184.62 -5.46731 -1.98937 0
M  V30 12461 H 1183.5 -7.64959 -1.72646 0
M  V30 12462 N 1181 1.07532 -1.15215 0
M  V30 12463 C 1181.93 2.1668 -0.870171 0
M  V30 12464 C 1182.91 1.69161 0.178483 0
M  V30 12465 O 1184.1 1.94172 0.0332489 0
M  V30 12466 C 1181.23 3.45464 -0.356666 0
M  V30 12467 C 1180.18 4.06424 -1.34179 0
M  V30 12468 C 1179.51 5.30266 -0.687206 0
M  V30 12469 C 1180.81 4.46666 -2.70715 0
M  V30 12470 H 1182.5 2.40526 -1.7829 0
M  V30 12471 H 1180.05 1.15598 -0.858665 0
M  V30 12472 H 1182 4.21144 -0.146947 0
M  V30 12473 H 1180.72 3.21199 0.591527 0
M  V30 12474 H 1179.38 3.32786 -1.53783 0
M  V30 12475 H 1179.03 5.0229 0.267077 0
M  V30 12476 H 1178.73 5.72009 -1.34462 0
M  V30 12477 H 1180.26 6.08653 -0.487218 0
M  V30 12478 H 1181.67 5.13483 -2.54966 0
M  V30 12479 H 1180.07 4.99355 -3.32813 0
M  V30 12480 H 1181.14 3.58123 -3.26919 0
M  V30 12481 N 1182.48 0.948665 1.2585 0
M  V30 12482 C 1183.73 0.59905 1.93018 0
M  V30 12483 C 1184.05 -0.865813 1.74725 0
M  V30 12484 O 1183.32 -1.61602 1.10732 0
M  V30 12485 H 1181.9 0.218565 0.71431 0
M  V30 12486 H 1184.56 1.20561 1.53137 0
M  V30 12487 H 1183.66 0.823244 3.01047 0
M  V30 12488 N 1183.96 -1.40369 0.716545 0
M  V30 12489 C 1184.89 -2.33365 0.0793533 0
M  V30 12490 C 1185.87 -1.52943 -0.744482 0
M  V30 12491 O 1187.05 -1.81406 -0.693212 0
M  V30 12492 C 1184.18 -3.36928 -0.842429 0
M  V30 12493 C 1183.14 -4.2782 -0.124142 0
M  V30 12494 C 1182.46 -5.21928 -1.1617 0
M  V30 12495 C 1183.76 -5.12199 1.02224 0
M  V30 12496 H 1185.46 -2.86899 0.856115 0
M  V30 12497 H 1183 -1.37946 0.413138 0
M  V30 12498 H 1184.96 -4.00925 -1.29759 0
M  V30 12499 H 1183.68 -2.81791 -1.6511 0
M  V30 12500 H 1182.34 -3.65277 0.311201 0
M  V30 12501 H 1181.99 -4.63096 -1.96345 0
M  V30 12502 H 1181.69 -5.83582 -0.685978 0
M  V30 12503 H 1183.21 -5.88802 -1.61694 0
M  V30 12504 H 1184.63 -5.69644 0.646399 0
M  V30 12505 H 1183.02 -5.82901 1.4264 0
M  V30 12506 H 1184.09 -4.4812 1.85246 0
M  V30 12507 N 1185.44 -0.462799 -1.50652 0
M  V30 12508 C 1186.37 0.325724 -2.31217 0
M  V30 12509 C 1187.35 0.997942 -1.3775 0
M  V30 12510 O 1188.53 0.996707 -1.66671 0
M  V30 12511 C 1185.66 1.41283 -3.17264 0
M  V30 12512 C 1184.62 0.862687 -4.19216 0
M  V30 12513 C 1183.94 2.04746 -4.93946 0
M  V30 12514 C 1185.24 -0.120365 -5.22161 0
M  V30 12515 H 1186.94 -0.346666 -2.97386 0
M  V30 12516 H 1184.48 -0.168163 -1.43015 0
M  V30 12517 H 1186.44 1.97188 -3.72418 0
M  V30 12518 H 1185.16 2.11387 -2.48964 0
M  V30 12519 H 1183.82 0.325671 -3.65151 0
M  V30 12520 H 1183.47 2.73529 -4.22127 0
M  V30 12521 H 1183.17 1.68562 -5.62904 0
M  V30 12522 H 1184.69 2.61157 -5.51932 0
M  V30 12523 H 1186.1 0.349226 -5.72235 0
M  V30 12524 H 1184.5 -0.396061 -5.98792 0
M  V30 12525 H 1185.57 -1.04895 -4.73418 0
M  V30 12526 N 1186.91 1.56388 -0.195085 0
M  V30 12527 C 1188.16 1.97189 0.44281 0
M  V30 12528 C 1188.48 1.08312 1.62153 0
M  V30 12529 O 1187.75 0.154404 1.95291 0
M  V30 12530 H 1186.33 0.728188 0.166585 0
M  V30 12531 H 1189 1.92852 -0.281815 0
M  V30 12532 H 1188.09 3.02016 0.786945 0
M  V30 12533 N 1188.39 -0.0785156 1.57404 0
M  V30 12534 C 1189.67 -0.811557 1.77969 0
M  V30 12535 C 1190.05 -1.96123 0.780966 0
M  V30 12536 O 1189.4 -2.27731 -0.18726 0
M  V30 12537 C 1189.61 -1.29075 3.24254 0
M  V30 12538 C 1190.96 -1.72685 3.87898 0
M  V30 12539 O 1191.98 -1.38658 3.28104 0
M  V30 12540 O 1190.84 -2.3566 4.93079 0
M  V30 12541 H 1187.93 -0.388361 0.73014 0
M  V30 12542 H 1190.48 -0.0591118 1.69597 0
M  V30 12543 H 1189.25 -0.467813 3.88494 0
M  V30 12544 H 1188.87 -2.10472 3.37324 0
M  V30 12545 N 1189.87 -1.5367 -0.349747 0
M  V30 12546 C 1190.78 -1.84207 -1.45275 0
M  V30 12547 C 1191.8 -0.731695 -1.57868 0
M  V30 12548 O 1192.97 -1.02337 -1.73462 0
M  V30 12549 C 1190.04 -2.0398 -2.80345 0
M  V30 12550 C 1189.1 -3.27853 -2.77148 0
M  V30 12551 C 1188.33 -3.46673 -4.05775 0
M  V30 12552 O 1188.55 -2.69457 -5.02741 0
M  V30 12553 O 1187.49 -4.40082 -4.10623 0
M  V30 12554 H 1191.31 -2.77947 -1.22389 0
M  V30 12555 H 1188.9 -1.39247 -0.541345 0
M  V30 12556 H 1190.78 -2.18466 -3.60348 0
M  V30 12557 H 1189.46 -1.13429 -3.03176 0
M  V30 12558 H 1188.36 -3.18776 -1.95787 0
M  V30 12559 H 1189.7 -4.18377 -2.59271 0
M  V30 12560 N 1191.35 0.610423 -1.45298 0
M  V30 12561 C 1192.28 1.73507 -1.4976 0
M  V30 12562 C 1193.29 1.58092 -0.38867 0
M  V30 12563 O 1194.48 1.66026 -0.655571 0
M  V30 12564 C 1191.58 3.11475 -1.33554 0
M  V30 12565 C 1190.76 3.53156 -2.5807 0
M  V30 12566 C 1189.81 4.70076 -2.36463 0
M  V30 12567 O 1188.84 4.77337 -3.10061 0
M  V30 12568 N 1190.04 5.63155 -1.40843 0
M  V30 12569 H 1192.81 1.70144 -2.46721 0
M  V30 12570 H 1190.37 0.79562 -1.41002 0
M  V30 12571 H 1192.36 3.87444 -1.16914 0
M  V30 12572 H 1190.93 3.09361 -0.448803 0
M  V30 12573 H 1190.15 2.67178 -2.89844 0
M  V30 12574 H 1191.44 3.77761 -3.40843 0
M  V30 12575 H 1190.84 5.60001 -0.800982 0
M  V30 12576 H 1189.39 6.38669 -1.30175 0
M  V30 12577 N 1192.83 1.32541 0.852676 0
M  V30 12578 C 1194.07 1.23397 1.60938 0
M  V30 12579 C 1194.41 -0.203294 1.93133 0
M  V30 12580 O 1193.68 -1.14097 1.57519 0
M  V30 12581 C 1193.96 2.0956 2.92842 0
M  V30 12582 C 1193.82 3.61675 2.67416 0
M  V30 12583 C 1195.14 1.95825 3.94133 0
M  V30 12584 H 1192.25 0.449608 0.583971 0
M  V30 12585 H 1194.9 1.62507 0.98446 0
M  V30 12586 H 1193.05 1.76336 3.46176 0
M  V30 12587 H 1194.72 4.05122 2.20621 0
M  V30 12588 H 1192.96 3.84242 2.01347 0
M  V30 12589 H 1193.63 4.17292 3.61347 0
M  V30 12590 H 1196.11 2.24935 3.50062 0
M  V30 12591 H 1194.98 2.58387 4.8428 0
M  V30 12592 H 1195.25 0.926466 4.32284 0
M  V30 12593 N 1194.3 -1.0692 1.15784 0
M  V30 12594 C 1195.72 -1.61069 0.944123 0
M  V30 12595 C 1196.07 -1.8936 -0.513522 0
M  V30 12596 O 1195.19 -1.66232 -1.38549 0
M  V30 12597 C 1195.79 -2.9263 1.70743 0
M  V30 12598 C 1194.35 -3.43505 1.53887 0
M  V30 12599 C 1193.49 -2.17495 1.72021 0
M  V30 12600 H 1196.44 -0.89951 1.30746 0
M  V30 12601 H 1196.46 -3.61757 1.17951 0
M  V30 12602 H 1195.98 -2.72007 2.76828 0
M  V30 12603 H 1194.08 -3.69201 0.502153 0
M  V30 12604 H 1194.19 -4.19254 2.31868 0
M  V30 12605 H 1192.55 -2.27407 1.1471 0
M  V30 12606 H 1193.34 -1.99362 2.79481 0
M  V30 12607 N 1195.78 -0.955326 -1.25345 0
M  V30 12608 C 1196.71 -0.4334 -2.25065 0
M  V30 12609 C 1197.73 0.451099 -1.56425 0
M  V30 12610 O 1198.92 0.259265 -1.76607 0
M  V30 12611 C 1196.02 0.394809 -3.36592 0
M  V30 12612 C 1195.19 -0.476856 -4.34793 0
M  V30 12613 C 1194.25 0.293269 -5.25382 0
M  V30 12614 O 1193.27 -0.30857 -5.68363 0
M  V30 12615 N 1194.48 1.58617 -5.58409 0
M  V30 12616 H 1197.24 -1.29073 -2.70482 0
M  V30 12617 H 1194.8 -0.825764 -1.39258 0
M  V30 12618 H 1196.79 0.917747 -3.94157 0
M  V30 12619 H 1195.36 1.153 -2.90559 0
M  V30 12620 H 1194.58 -1.18089 -3.76097 0
M  V30 12621 H 1195.87 -1.07178 -4.97384 0
M  V30 12622 H 1195.27 2.09705 -5.25395 0
M  V30 12623 H 1193.83 2.05506 -6.18555 0
M  V30 12624 N 1197.26 1.39987 -0.723979 0
M  V30 12625 C 1198.22 2.29041 -0.0854583 0
M  V30 12626 C 1199.22 1.45777 0.678657 0
M  V30 12627 O 1200.41 1.66588 0.509311 0
M  V30 12628 C 1197.55 3.29115 0.88859 0
M  V30 12629 H 1198.74 2.87006 -0.869903 0
M  V30 12630 H 1196.29 1.48449 -0.489136 0
M  V30 12631 H 1197.03 2.76184 1.69979 0
M  V30 12632 H 1196.81 3.90593 0.343454 0
M  V30 12633 H 1198.3 3.95778 1.33227 0
M  V30 12634 N 1198.74 0.470782 1.50404 0
M  V30 12635 C 1199.65 -0.328877 2.32283 0
M  V30 12636 C 1200.67 -0.99629 1.42654 0
M  V30 12637 O 1201.84 -0.984331 1.75707 0
M  V30 12638 C 1198.91 -1.39675 3.1732 0
M  V30 12639 C 1197.97 -0.745965 4.22769 0
M  V30 12640 C 1197.2 -1.76295 5.03742 0
M  V30 12641 O 1197.42 -2.98943 4.85788 0
M  V30 12642 O 1196.36 -1.33495 5.86909 0
M  V30 12643 H 1200.18 0.340491 3.01785 0
M  V30 12644 H 1197.77 0.232637 1.47578 0
M  V30 12645 H 1199.65 -2.0153 3.70086 0
M  V30 12646 H 1198.33 -2.04959 2.50546 0
M  V30 12647 H 1197.23 -0.0884647 3.73995 0
M  V30 12648 H 1198.57 -0.136074 4.92012 0
M  V30 12649 N 1200.22 -1.56282 0.203376 0
M  V30 12650 C 1201.44 -2.02643 -0.441658 0
M  V30 12651 C 1201.87 -1.0825 -1.5383 0
M  V30 12652 O 1201.23 -0.0674337 -1.81175 0
M  V30 12653 C 1201.27 -3.47382 -0.967369 0
M  V30 12654 O 1200.38 -3.56115 -2.07981 0
M  V30 12655 H 1199.72 -0.656081 -0.102242 0
M  V30 12656 H 1202.25 -2.02134 0.316684 0
M  V30 12657 H 1202.26 -3.8734 -1.28186 0
M  V30 12658 H 1200.93 -4.15574 -0.164625 0
M  V30 12659 H 1199.51 -3.28035 -1.77334 0
M  V30 12660 N 1201.7 0.070167 -1.57444 0
M  V30 12661 C 1202.94 0.767842 -1.86513 0
M  V30 12662 C 1203.26 1.78659 -0.796257 0
M  V30 12663 O 1204.46 2.53395 -0.974845 0
M  V30 12664 C 1202.92 1.41654 -3.30851 0
M  V30 12665 C 1202.53 0.436273 -4.45871 0
M  V30 12666 C 1204.27 2.09649 -3.69117 0
M  V30 12667 C 1202.18 1.09098 -5.8125 0
M  V30 12668 H 1201.11 0.290519 -0.695784 0
M  V30 12669 H 1203.76 0.0211697 -1.83488 0
M  V30 12670 H 1202.14 2.21153 -3.28493 0
M  V30 12671 H 1203.32 -0.329022 -4.59624 0
M  V30 12672 H 1201.63 -0.139314 -4.16167 0
M  V30 12673 H 1204.23 2.59411 -4.67558 0
M  V30 12674 H 1204.57 2.89663 -2.99 0
M  V30 12675 H 1205.1 1.36979 -3.73472 0
M  V30 12676 H 1201.84 0.331128 -6.54663 0
M  V30 12677 H 1201.36 1.8271 -5.71294 0
M  V30 12678 H 1203.04 1.61034 -6.2664 0
M  V30 12679 N 1203.17 1.53854 0.341593 0
M  V30 12680 C 1204.1 1.84966 1.42513 0
M  V30 12681 C 1205.08 0.704944 1.54805 0
M  V30 12682 O 1206.27 0.957036 1.68981 0
M  V30 12683 C 1203.4 2.06099 2.79536 0
M  V30 12684 C 1202.35 3.21919 2.82049 0
M  V30 12685 C 1201.68 3.28389 4.21977 0
M  V30 12686 C 1202.98 4.59984 2.4741 0
M  V30 12687 H 1204.67 2.7571 1.16724 0
M  V30 12688 H 1202.22 1.32662 0.560073 0
M  V30 12689 H 1204.17 2.26448 3.55386 0
M  V30 12690 H 1202.9 1.12087 3.06764 0
M  V30 12691 H 1201.56 3.01429 2.08653 0
M  V30 12692 H 1201.2 2.3197 4.46317 0
M  V30 12693 H 1200.9 4.0622 4.24569 0
M  V30 12694 H 1202.43 3.50951 4.99666 0
M  V30 12695 H 1203.84 4.80334 3.12973 0
M  V30 12696 H 1202.24 5.40233 2.61282 0
M  V30 12697 H 1203.31 4.6346 1.42594 0
M  V30 12698 N 1204.65 -0.602709 1.4562 0
M  V30 12699 C 1205.93 -1.36224 1.40366 0
M  V30 12700 C 1206.31 -2.1096 0.0767645 0
M  V30 12701 O 1205.66 -2.08207 -0.941378 0
M  V30 12702 C 1205.87 -2.30499 2.62052 0
M  V30 12703 C 1207.21 -2.92954 3.07348 0
M  V30 12704 O 1208.24 -2.40818 2.62459 0
M  V30 12705 O 1207.1 -3.87601 3.85263 0
M  V30 12706 H 1204.19 -0.611064 0.557253 0
M  V30 12707 H 1206.74 -0.625391 1.57756 0
M  V30 12708 H 1205.51 -1.74566 3.50203 0
M  V30 12709 H 1205.13 -3.11556 2.4702 0
M  V30 12710 N 1206.13 -1.32992 -0.845635 0
M  V30 12711 C 1207.09 -1.22607 -1.9365 0
M  V30 12712 C 1208.09 -0.146812 -1.60128 0
M  V30 12713 O 1209.28 -0.397863 -1.69596 0
M  V30 12714 C 1206.41 -0.887677 -3.2914 0
M  V30 12715 H 1207.61 -2.19563 -2.04285 0
M  V30 12716 H 1205.16 -1.16952 -1.03691 0
M  V30 12717 H 1205.9 0.0796777 -3.24202 0
M  V30 12718 H 1205.68 -1.66808 -3.54849 0
M  V30 12719 H 1207.17 -0.83958 -4.09073 0
M  V30 12720 N 1207.61 1.06304 -1.1635 0
M  V30 12721 C 1208.54 2.15745 -0.893103 0
M  V30 12722 C 1209.52 1.69341 0.160531 0
M  V30 12723 O 1210.7 1.94196 0.0126526 0
M  V30 12724 C 1207.83 3.45066 -0.393287 0
M  V30 12725 C 1206.79 4.04978 -1.38482 0
M  V30 12726 C 1206.11 5.29507 -0.743409 0
M  V30 12727 C 1207.41 4.4377 -2.75438 0
M  V30 12728 H 1209.11 2.38622 -1.80831 0
M  V30 12729 H 1206.65 1.14681 -0.870878 0
M  V30 12730 H 1208.61 4.20964 -0.191607 0
M  V30 12731 H 1207.33 3.21808 0.557426 0
M  V30 12732 H 1205.99 3.31136 -1.57304 0
M  V30 12733 H 1205.64 5.02545 0.213787 0
M  V30 12734 H 1205.34 5.7055 -1.40521 0
M  V30 12735 H 1206.86 6.08102 -0.551746 0
M  V30 12736 H 1208.28 5.1075 -2.60398 0
M  V30 12737 H 1206.67 4.95797 -3.38091 0
M  V30 12738 H 1207.74 3.54636 -3.30699 0
M  V30 12739 N 1209.09 0.96196 1.24836 0
M  V30 12740 C 1210.31 0.637709 1.97353 0
M  V30 12741 C 1210.74 -0.784919 1.7094 0
M  V30 12742 O 1210.09 -1.53188 0.969694 0
M  V30 12743 C 1210.14 0.911485 3.4889 0
M  V30 12744 O 1209.25 -0.00601668 4.124 0
M  V30 12745 H 1208.59 0.241685 0.618453 0
M  V30 12746 H 1211.12 1.29055 1.58764 0
M  V30 12747 H 1211.13 0.840702 3.99245 0
M  V30 12748 H 1209.8 1.9483 3.67442 0
M  V30 12749 H 1208.38 0.117597 3.72715 0
M  V30 12750 N 1210.56 -1.39601 0.731392 0
M  V30 12751 C 1211.51 -2.30628 0.0890606 0
M  V30 12752 C 1212.48 -1.49025 -0.73353 0
M  V30 12753 O 1213.67 -1.77722 -0.694234 0
M  V30 12754 C 1210.81 -3.35339 -0.814956 0
M  V30 12755 C 1209.92 -4.31995 0.0198606 0
M  V30 12756 C 1209.05 -5.23774 -0.885095 0
M  V30 12757 C 1208.09 -6.12083 -0.045311 0
M  V30 12758 N 1207.23 -6.9623 -0.906002 0
M  V30 12759 H 1212.07 -2.84988 0.870958 0
M  V30 12760 H 1209.61 -1.40329 0.441166 0
M  V30 12761 H 1211.56 -3.94634 -1.3535 0
M  V30 12762 H 1210.19 -2.82443 -1.56287 0
M  V30 12763 H 1209.25 -3.74349 0.675778 0
M  V30 12764 H 1210.56 -4.94289 0.669346 0
M  V30 12765 H 1209.71 -5.88078 -1.49161 0
M  V30 12766 H 1208.45 -4.61794 -1.56837 0
M  V30 12767 H 1207.46 -5.46795 0.574028 0
M  V30 12768 H 1208.68 -6.76128 0.634692 0
M  V30 12769 H 1206.63 -6.36821 -1.57463 0
M  V30 12770 H 1206.54 -7.55352 -0.312914 0
M  V30 12771 H 1207.81 -7.64967 -1.49819 0
M  V30 12772 N 1212.04 -0.478751 -1.50152 0
M  V30 12773 C 1212.99 0.330224 -2.25596 0
M  V30 12774 C 1213.98 0.954871 -1.29503 0
M  V30 12775 O 1215.17 0.866153 -1.54359 0
M  V30 12776 C 1212.3 1.40719 -3.13134 0
M  V30 12777 C 1211.38 0.789896 -4.16679 0
M  V30 12778 N 1211.77 -0.094345 -5.05712 0
M  V30 12779 C 1210.07 1.05299 -4.33391 0
M  V30 12780 C 1210.77 -0.445458 -5.79992 0
M  V30 12781 N 1209.75 0.181237 -5.43298 0
M  V30 12782 H 1213.55 -0.350824 -2.91799 0
M  V30 12783 H 1211.07 -0.293386 -1.59728 0
M  V30 12784 H 1213.06 1.99999 -3.65795 0
M  V30 12785 H 1211.72 2.09015 -2.48481 0
M  V30 12786 H 1212.73 -0.463695 -5.1582 0
M  V30 12787 H 1209.41 1.73036 -3.79954 0
M  V30 12788 H 1210.8 -1.16754 -6.61678 0
M  V30 12789 N 1213.52 1.56172 -0.211661 0
M  V30 12790 C 1214.45 2.22843 0.697375 0
M  V30 12791 C 1215.43 1.19689 1.20866 0
M  V30 12792 O 1216.62 1.48245 1.25447 0
M  V30 12793 C 1213.75 2.90067 1.90993 0
M  V30 12794 C 1212.7 3.99608 1.5329 0
M  V30 12795 C 1212.03 4.54078 2.82343 0
M  V30 12796 C 1213.33 5.17169 0.730333 0
M  V30 12797 H 1215.02 2.99065 0.141533 0
M  V30 12798 H 1212.57 1.43846 0.0666337 0
M  V30 12799 H 1214.52 3.35396 2.55123 0
M  V30 12800 H 1213.24 2.11276 2.49058 0
M  V30 12801 H 1211.9 3.54995 0.915115 0
M  V30 12802 H 1211.55 3.72029 3.38531 0
M  V30 12803 H 1211.25 5.28001 2.57853 0
M  V30 12804 H 1212.77 5.02119 3.47432 0
M  V30 12805 H 1214.19 5.5894 1.2751 0
M  V30 12806 H 1212.59 5.97262 0.582916 0
M  V30 12807 H 1213.66 4.84174 -0.265157 0
M  V30 12808 N 1215 -0.0618163 1.57479 0
M  V30 12809 C 1216.24 -0.760193 1.88013 0
M  V30 12810 C 1216.58 -1.76718 0.805258 0
M  V30 12811 O 1215.85 -1.93633 -0.183408 0
M  V30 12812 C 1216.14 -1.45924 3.29208 0
M  V30 12813 C 1215.99 -0.467994 4.47359 0
M  V30 12814 C 1217.31 -2.40166 3.68793 0
M  V30 12815 H 1214.43 -0.274896 0.683814 0
M  V30 12816 H 1217.07 -0.0232433 1.89986 0
M  V30 12817 H 1215.22 -2.08741 3.27657 0
M  V30 12818 H 1216.89 0.155735 4.61037 0
M  V30 12819 H 1215.13 0.215797 4.33263 0
M  V30 12820 H 1215.8 -0.994942 5.42959 0
M  V30 12821 H 1218.28 -1.87419 3.71501 0
M  V30 12822 H 1217.16 -2.86076 4.68457 0
M  V30 12823 H 1217.42 -3.25413 2.99264 0
M  V30 12824 N 1216.48 -1.54033 -0.333429 0
M  V30 12825 C 1217.41 -1.7756 -1.43345 0
M  V30 12826 C 1218.39 -0.625126 -1.50103 0
M  V30 12827 O 1219.57 -0.861444 -1.67665 0
M  V30 12828 C 1216.7 -1.88332 -2.81511 0
M  V30 12829 C 1215.74 -3.10556 -2.92331 0
M  V30 12830 S 1216.58 -4.69385 -2.57755 0
M  V30 12831 C 1217.73 -4.8305 -3.98011 0
M  V30 12832 H 1217.97 -2.70584 -1.23172 0
M  V30 12833 H 1215.5 -1.4503 -0.529691 0
M  V30 12834 H 1217.46 -1.95224 -3.61106 0
M  V30 12835 H 1216.12 -0.963031 -2.98972 0
M  V30 12836 H 1215.31 -3.14798 -3.93596 0
M  V30 12837 H 1214.91 -3.01943 -2.20696 0
M  V30 12838 H 1217.21 -4.65081 -4.92652 0
M  V30 12839 H 1218.15 -5.85148 -3.98757 0
M  V30 12840 H 1218.56 -4.11427 -3.86507 0
M  V30 12841 N 1217.95 0.594978 -1.45938 0
M  V30 12842 C 1218.9 1.70489 -1.5557 0
M  V30 12843 C 1219.87 1.61193 -0.400751 0
M  V30 12844 O 1221.06 1.80587 -0.615882 0
M  V30 12845 C 1218.2 3.08817 -1.54033 0
M  V30 12846 C 1217.31 3.28827 -2.80173 0
M  V30 12847 C 1216.44 4.57333 -2.70222 0
M  V30 12848 C 1215.48 4.70644 -3.91357 0
M  V30 12849 N 1214.62 5.90463 -3.79865 0
M  V30 12850 H 1219.46 1.61593 -2.50383 0
M  V30 12851 H 1217 0.787747 -1.24229 0
M  V30 12852 H 1218.96 3.88865 -1.51129 0
M  V30 12853 H 1217.59 3.1664 -0.627617 0
M  V30 12854 H 1216.64 2.42467 -2.9311 0
M  V30 12855 H 1217.95 3.34534 -3.69985 0
M  V30 12856 H 1217.1 5.45593 -2.65354 0
M  V30 12857 H 1215.84 4.54045 -1.7803 0
M  V30 12858 H 1214.85 3.80805 -3.9657 0
M  V30 12859 H 1216.07 4.75721 -4.8463 0
M  V30 12860 H 1214.02 5.88196 -2.90451 0
M  V30 12861 H 1213.94 5.97385 -4.63322 0
M  V30 12862 H 1215.2 6.81187 -3.78952 0
M  V30 12863 N 1219.43 1.33438 0.838571 0
M  V30 12864 C 1220.36 1.26344 1.96365 0
M  V30 12865 C 1221.34 0.143956 1.6949 0
M  V30 12866 O 1222.53 0.333779 1.9131 0
M  V30 12867 C 1219.66 1.0022 3.32526 0
M  V30 12868 C 1218.61 2.08466 3.73799 0
M  V30 12869 C 1217.94 1.67555 5.07769 0
M  V30 12870 C 1219.24 3.50144 3.87552 0
M  V30 12871 H 1220.93 2.20478 2.02558 0
M  V30 12872 H 1218.48 1.06139 0.973168 0
M  V30 12873 H 1220.43 0.939068 4.10803 0
M  V30 12874 H 1219.16 0.0252514 3.2659 0
M  V30 12875 H 1217.81 2.13822 2.97785 0
M  V30 12876 H 1217.46 0.685619 4.98305 0
M  V30 12877 H 1217.16 2.39993 5.36356 0
M  V30 12878 H 1218.69 1.62708 5.88522 0
M  V30 12879 H 1220.1 3.47287 4.56141 0
M  V30 12880 H 1218.5 4.21069 4.27575 0
M  V30 12881 H 1219.57 3.88628 2.89994 0
M  V30 12882 N 1220.91 -1.05686 1.16912 0
M  V30 12883 C 1222.14 -1.82821 0.979348 0
M  V30 12884 C 1222.56 -1.82196 -0.467575 0
M  V30 12885 O 1221.92 -1.22727 -1.33445 0
M  V30 12886 C 1221.97 -3.2705 1.51891 0
M  V30 12887 O 1221.07 -4.05899 0.729341 0
M  V30 12888 H 1220.41 -0.565455 0.348076 0
M  V30 12889 H 1222.94 -1.33211 1.55293 0
M  V30 12890 H 1222.95 -3.77859 1.53904 0
M  V30 12891 H 1221.63 -3.26819 2.5722 0
M  V30 12892 H 1220.2 -3.64646 0.780221 0
M  V30 12893 N 1222.39 -0.968567 -1.24324 0
M  V30 12894 C 1223.62 -0.647628 -1.96187 0
M  V30 12895 C 1224.03 0.787267 -1.72043 0
M  V30 12896 O 1223.37 1.53996 -1.00155 0
M  V30 12897 C 1223.43 -0.843517 -3.49464 0
M  V30 12898 C 1223.1 -2.25822 -3.97308 0
M  V30 12899 C 1224.09 -3.23602 -4.06913 0
M  V30 12900 C 1221.78 -2.58614 -4.30609 0
M  V30 12901 C 1223.77 -4.5226 -4.49154 0
M  V30 12902 C 1221.46 -3.87499 -4.72534 0
M  V30 12903 C 1222.46 -4.84134 -4.81771 0
M  V30 12904 O 1222.14 -6.10719 -5.2276 0
M  V30 12905 H 1221.88 -0.240568 -0.631746 0
M  V30 12906 H 1224.43 -1.29926 -1.59086 0
M  V30 12907 H 1222.66 -0.134716 -3.86465 0
M  V30 12908 H 1224.35 -0.521533 -4.02536 0
M  V30 12909 H 1225.12 -2.99596 -3.81402 0
M  V30 12910 H 1220.99 -1.84116 -4.22637 0
M  V30 12911 H 1224.54 -5.27689 -4.56279 0
M  V30 12912 H 1220.44 -4.11305 -4.97492 0
M  V30 12913 H 1221.2 -6.14298 -5.40906 0
M  V30 12914 N 1223.87 1.39211 -0.738786 0
M  V30 12915 C 1225.11 2.0004 -0.28782 0
M  V30 12916 C 1225.44 1.58921 1.13 0
M  V30 12917 O 1224.71 0.839193 1.77015 0
M  V30 12918 H 1223.29 0.739805 -0.103425 0
M  V30 12919 H 1225.95 1.70202 -0.949587 0
M  V30 12920 H 1225.04 3.10251 -0.339208 0
M  V30 12921 N 1225.34 0.486708 1.49896 0
M  V30 12922 C 1226.76 0.0353906 1.86666 0
M  V30 12923 C 1227.11 -1.3743 1.40026 0
M  V30 12924 O 1226.23 -2.02163 0.77194 0
M  V30 12925 C 1226.83 0.0574475 3.38751 0
M  V30 12926 C 1225.39 -0.338464 3.74875 0
M  V30 12927 C 1224.53 0.436196 2.73848 0
M  V30 12928 H 1227.48 0.700215 1.42417 0
M  V30 12929 H 1227.5 -0.741175 3.73212 0
M  V30 12930 H 1227.02 1.08356 3.72667 0
M  V30 12931 H 1225.12 -1.36835 3.46565 0
M  V30 12932 H 1225.23 -0.0289519 4.79091 0
M  V30 12933 H 1223.59 -0.112141 2.54453 0
M  V30 12934 H 1224.38 1.46212 3.10608 0
M  V30 12935 N 1226.82 -1.56058 0.219941 0
M  V30 12936 C 1227.73 -2.23844 -0.70222 0
M  V30 12937 C 1228.75 -1.24554 -1.215 0
M  V30 12938 O 1229.93 -1.57362 -1.25695 0
M  V30 12939 C 1226.99 -2.90384 -1.89416 0
M  V30 12940 C 1226.05 -4.05012 -1.42351 0
M  V30 12941 C 1225.28 -4.68369 -2.55863 0
M  V30 12942 O 1225.51 -4.3071 -3.73958 0
M  V30 12943 O 1224.44 -5.5739 -2.27157 0
M  V30 12944 H 1228.27 -3.03305 -0.15478 0
M  V30 12945 H 1225.85 -1.49396 -0.010438 0
M  V30 12946 H 1227.73 -3.32389 -2.59028 0
M  V30 12947 H 1226.41 -2.13883 -2.42973 0
M  V30 12948 H 1225.32 -3.67579 -0.695448 0
M  V30 12949 H 1226.65 -4.83251 -0.934332 0
M  V30 12950 N 1228.3 0.053464 -1.57509 0
M  V30 12951 C 1229.21 1.07902 -2.08313 0
M  V30 12952 C 1230.23 1.41223 -1.01647 0
M  V30 12953 O 1231.4 1.51032 -1.33233 0
M  V30 12954 C 1228.47 2.36813 -2.5322 0
M  V30 12955 C 1227.53 2.10297 -3.74264 0
M  V30 12956 C 1226.76 3.33062 -4.1702 0
M  V30 12957 O 1226.99 4.42857 -3.59491 0
M  V30 12958 O 1225.92 3.20195 -5.09665 0
M  V30 12959 H 1229.75 0.677368 -2.9605 0
M  V30 12960 H 1227.33 0.268838 -1.46961 0
M  V30 12961 H 1229.21 3.12645 -2.82544 0
M  V30 12962 H 1227.89 2.76323 -1.68605 0
M  V30 12963 H 1226.79 1.32111 -3.49996 0
M  V30 12964 H 1228.13 1.75658 -4.59788 0
M  V30 12965 N 1229.78 1.54207 0.325255 0
M  V30 12966 C 1230.73 1.83474 1.40021 0
M  V30 12967 C 1231.7 0.681719 1.51466 0
M  V30 12968 O 1232.88 0.92798 1.66713 0
M  V30 12969 C 1230.02 2.06624 2.76407 0
M  V30 12970 C 1229.13 3.3431 2.73607 0
M  V30 12971 C 1228.27 3.4743 4.01828 0
M  V30 12972 C 1227.31 4.68997 3.93329 0
M  V30 12973 N 1226.45 4.79052 5.13277 0
M  V30 12974 H 1231.29 2.75182 1.14363 0
M  V30 12975 H 1228.82 1.36284 0.553639 0
M  V30 12976 H 1230.78 2.18037 3.5569 0
M  V30 12977 H 1229.41 1.18209 3.00377 0
M  V30 12978 H 1228.46 3.31643 1.86324 0
M  V30 12979 H 1229.77 4.237 2.6321 0
M  V30 12980 H 1228.93 3.58376 4.89542 0
M  V30 12981 H 1227.67 2.56128 4.1503 0
M  V30 12982 H 1226.67 4.58109 3.04 0
M  V30 12983 H 1227.9 5.61681 3.81695 0
M  V30 12984 H 1225.84 3.90666 5.26988 0
M  V30 12985 H 1225.76 5.62406 5.05208 0
M  V30 12986 H 1227.03 4.94328 6.02711 0
M  V30 12987 N 1231.26 -0.58723 1.46251 0
M  V30 12988 C 1232.53 -1.34727 1.41802 0
M  V30 12989 C 1232.91 -2.10867 0.0991354 0
M  V30 12990 O 1232.26 -2.09194 -0.919242 0
M  V30 12991 C 1232.47 -2.27706 2.64482 0
M  V30 12992 C 1233.82 -2.89678 3.10438 0
M  V30 12993 O 1234.84 -2.38021 2.64999 0
M  V30 12994 O 1233.7 -3.83493 3.89352 0
M  V30 12995 H 1230.8 -0.605119 0.563702 0
M  V30 12996 H 1233.34 -0.608623 1.5841 0
M  V30 12997 H 1232.12 -1.70842 3.52035 0
M  V30 12998 H 1231.74 -3.08918 2.50311 0
M  V30 12999 N 1232.74 -1.33881 -0.831482 0
M  V30 13000 C 1233.67 -1.19089 -1.94661 0
M  V30 13001 C 1234.65 -0.0845706 -1.6238 0
M  V30 13002 O 1235.83 -0.248163 -1.86859 0
M  V30 13003 C 1232.96 -0.828223 -3.28418 0
M  V30 13004 C 1232 -1.94309 -3.79666 0
M  V30 13005 S 1232.84 -3.55524 -4.00454 0
M  V30 13006 C 1233.99 -3.21279 -5.3715 0
M  V30 13007 H 1234.23 -2.13484 -2.0691 0
M  V30 13008 H 1231.76 -1.18809 -0.986098 0
M  V30 13009 H 1233.72 -0.625759 -4.05702 0
M  V30 13010 H 1232.38 0.0972457 -3.13949 0
M  V30 13011 H 1231.57 -1.64288 -4.76472 0
M  V30 13012 H 1231.17 -2.1026 -3.093 0
M  V30 13013 H 1233.46 -2.72563 -6.20255 0
M  V30 13014 H 1234.41 -4.17193 -5.7215 0
M  V30 13015 H 1234.82 -2.57683 -5.02255 0
M  V30 13016 N 1234.21 1.05064 -1.1747 0
M  V30 13017 C 1235.46 1.77481 -0.958301 0
M  V30 13018 C 1235.78 1.88725 0.51401 0
M  V30 13019 O 1236.98 2.57895 0.848657 0
M  V30 13020 C 1235.44 3.19048 -1.66543 0
M  V30 13021 C 1235.05 3.1593 -3.17636 0
M  V30 13022 C 1236.79 3.95912 -1.53146 0
M  V30 13023 C 1234.7 4.52293 -3.81032 0
M  V30 13024 H 1233.63 0.665247 -0.354913 0
M  V30 13025 H 1236.28 1.17751 -1.40737 0
M  V30 13026 H 1234.66 3.79113 -1.1441 0
M  V30 13027 H 1235.83 2.65375 -3.76713 0
M  V30 13028 H 1234.15 2.52564 -3.31059 0
M  V30 13029 H 1236.75 4.96737 -1.9788 0
M  V30 13030 H 1237.09 4.13498 -0.482203 0
M  V30 13031 H 1237.62 3.42399 -2.02504 0
M  V30 13032 H 1234.36 4.39913 -4.8596 0
M  V30 13033 H 1233.88 5.02991 -3.26741 0
M  V30 13034 H 1235.56 5.2123 -3.83312 0
M  V30 13035 N 1235.69 0.975146 1.23809 0
M  V30 13036 C 1236.94 0.642074 1.92367 0
M  V30 13037 C 1237.27 -0.82164 1.75962 0
M  V30 13038 O 1236.55 -1.59205 1.11732 0
M  V30 13039 C 1236.83 1.02677 3.45151 0
M  V30 13040 C 1236.68 2.54773 3.7069 0
M  V30 13041 C 1238 0.5668 4.36435 0
M  V30 13042 H 1235.12 0.234735 0.698619 0
M  V30 13043 H 1237.76 1.21549 1.46034 0
M  V30 13044 H 1235.91 0.538846 3.84745 0
M  V30 13045 H 1237.58 3.11099 3.4061 0
M  V30 13046 H 1235.83 2.97641 3.15583 0
M  V30 13047 H 1236.5 2.7674 4.77618 0
M  V30 13048 H 1238.97 0.985635 4.04258 0
M  V30 13049 H 1237.85 0.864458 5.4205 0
M  V30 13050 H 1238.11 -0.532989 4.38875 0
M  V30 13051 N 1237.17 -1.38817 0.746158 0
M  V30 13052 C 1238.1 -2.28116 0.0620717 0
M  V30 13053 C 1239.08 -1.44984 -0.736097 0
M  V30 13054 O 1240.26 -1.7436 -0.7163 0
M  V30 13055 C 1237.39 -3.25992 -0.919065 0
M  V30 13056 C 1236.44 -4.25992 -0.208033 0
M  V30 13057 S 1237.27 -5.24374 1.08593 0
M  V30 13058 C 1238.43 -6.25807 0.107674 0
M  V30 13059 H 1238.66 -2.85787 0.819331 0
M  V30 13060 H 1236.19 -1.44708 0.538422 0
M  V30 13061 H 1238.15 -3.82899 -1.47982 0
M  V30 13062 H 1236.81 -2.67318 -1.64924 0
M  V30 13063 H 1236 -4.9495 -0.95084 0
M  V30 13064 H 1235.61 -3.72943 0.280998 0
M  V30 13065 H 1237.9 -6.73568 -0.728905 0
M  V30 13066 H 1238.84 -7.03959 0.764698 0
M  V30 13067 H 1239.25 -5.63855 -0.269706 0
M  V30 13068 N 1238.65 -0.49465 -1.49636 0
M  V30 13069 C 1240.06 -0.150217 -1.58892 0
M  V30 13070 C 1240.26 1.34485 -1.50053 0
M  V30 13071 O 1239.32 2.12026 -1.37118 0
M  V30 13072 C 1240.63 -0.721372 -2.91919 0
M  V30 13073 C 1242.18 -0.686908 -3.0537 0
M  V30 13074 C 1242.66 -1.23601 -4.41006 0
M  V30 13075 N 1244.15 -1.19644 -4.47481 0
M  V30 13076 C 1244.88 -1.59157 -5.50869 0
M  V30 13077 N 1244.38 -2.06232 -6.61393 0
M  V30 13078 N 1246.17 -1.50612 -5.41546 0
M  V30 13079 H 1238.32 -1.46675 -1.53624 0
M  V30 13080 H 1240.58 -0.608003 -0.727349 0
M  V30 13081 H 1240.29 -1.76964 -3.03935 0
M  V30 13082 H 1240.16 -0.178199 -3.76779 0
M  V30 13083 H 1242.55 0.352508 -2.92987 0
M  V30 13084 H 1242.63 -1.26716 -2.22209 0
M  V30 13085 H 1242.28 -2.27418 -4.5414 0
M  V30 13086 H 1242.21 -0.631765 -5.22797 0
M  V30 13087 H 1244.7 -0.851443 -3.68183 0
M  V30 13088 H 1245.01 -2.34469 -7.36372 0
M  V30 13089 H 1243.36 -2.10202 -6.6245 0
M  V30 13090 H 1246.55 -1.13659 -4.54092 0
M  V30 13091 H 1246.72 -1.8173 -6.21995 0
M  V30 13092 N 1240.13 1.55939 -0.228214 0
M  V30 13093 C 1241.4 1.90329 0.451033 0
M  V30 13094 C 1241.78 1.14646 1.77255 0
M  V30 13095 O 1241.13 0.257912 2.2704 0
M  V30 13096 C 1241.34 3.43129 0.637456 0
M  V30 13097 C 1242.69 4.14022 0.94186 0
M  V30 13098 O 1243.71 3.48764 0.724002 0
M  V30 13099 O 1242.57 5.29418 1.35568 0
M  V30 13100 H 1239.67 0.791591 0.2394 0
M  V30 13101 H 1242.21 1.67524 -0.270893 0
M  V30 13102 H 1240.98 3.90191 -0.294435 0
M  V30 13103 H 1240.61 3.71735 1.41062 0
M  V30 13104 N 1241.6 -0.0451101 1.57535 0
M  V30 13105 C 1242.83 -0.755068 1.93167 0
M  V30 13106 C 1243.25 -1.68949 0.826915 0
M  V30 13107 O 1242.61 -1.79978 -0.218534 0
M  V30 13108 C 1242.66 -1.50201 3.27829 0
M  V30 13109 O 1241.76 -2.61434 3.18945 0
M  V30 13110 H 1241.11 -0.204219 0.631815 0
M  V30 13111 H 1243.64 -0.00537504 2.04599 0
M  V30 13112 H 1243.65 -1.87547 3.6234 0
M  V30 13113 H 1242.32 -0.816591 4.07805 0
M  V30 13114 H 1240.9 -2.26749 2.96039 0
M  V30 13115 N 1243.08 -1.54377 -0.317073 0
M  V30 13116 C 1244.33 -1.72893 -1.05424 0
M  V30 13117 C 1244.66 -0.506082 -1.87801 0
M  V30 13118 O 1243.91 0.51213 -1.8888 0
M  V30 13119 C 1244.21 -2.96066 -2.00199 0
M  V30 13120 C 1243.88 -4.30551 -1.33927 0
M  V30 13121 C 1242.54 -4.67112 -1.15584 0
M  V30 13122 C 1244.89 -5.13986 -0.864158 0
M  V30 13123 C 1242.22 -5.84701 -0.483892 0
M  V30 13124 C 1244.57 -6.32264 -0.206006 0
M  V30 13125 C 1243.24 -6.67499 -0.0104849 0
M  V30 13126 H 1242.51 -0.63266 -0.385776 0
M  V30 13127 H 1245.15 -1.88623 -0.330722 0
M  V30 13128 H 1243.46 -2.7505 -2.79024 0
M  V30 13129 H 1245.15 -3.07586 -2.57278 0
M  V30 13130 H 1241.74 -4.0179 -1.49207 0
M  V30 13131 H 1245.93 -4.86252 -0.993635 0
M  V30 13132 H 1241.18 -6.10555 -0.32127 0
M  V30 13133 H 1245.36 -6.96192 0.170108 0
M  V30 13134 H 1242.99 -7.58472 0.512209 0
M  V30 13135 N 1244.56 0.579466 -1.4656 0
M  V30 13136 C 1245.81 1.33492 -1.51738 0
M  V30 13137 C 1246.13 1.94241 -0.171926 0
M  V30 13138 O 1245.4 1.78737 0.801875 0
M  V30 13139 H 1243.98 0.49565 -0.558874 0
M  V30 13140 H 1246.64 0.678394 -1.82712 0
M  V30 13141 H 1245.74 2.13995 -2.27183 0
M  V30 13142 N 1246.04 1.3432 0.824371 0
M  V30 13143 C 1247.29 1.25938 1.57552 0
M  V30 13144 C 1247.6 -0.169298 1.94866 0
M  V30 13145 O 1248.81 -0.375262 2.68894 0
M  V30 13146 C 1247.26 2.20757 2.84244 0
M  V30 13147 C 1246.87 3.68873 2.54237 0
M  V30 13148 C 1248.61 2.21279 3.62265 0
M  V30 13149 C 1246.52 4.55566 3.77113 0
M  V30 13150 H 1245.45 0.467832 0.591311 0
M  V30 13151 H 1248.1 1.59476 0.907724 0
M  V30 13152 H 1246.48 1.80168 3.52641 0
M  V30 13153 H 1247.66 4.17991 1.93959 0
M  V30 13154 H 1245.97 3.70784 1.89494 0
M  V30 13155 H 1248.57 2.83272 4.53499 0
M  V30 13156 H 1248.91 1.2117 3.98276 0
M  V30 13157 H 1249.45 2.60305 3.00809 0
M  V30 13158 H 1246.19 5.56605 3.46223 0
M  V30 13159 H 1245.71 4.11184 4.36678 0
M  V30 13160 H 1247.38 4.701 4.44539 0
M  V30 13161 N 1247.52 -1.0444 1.18026 0
M  V30 13162 C 1248.93 -1.29766 0.929143 0
M  V30 13163 C 1249.13 -1.97338 -0.407436 0
M  V30 13164 O 1248.19 -2.25166 -1.14265 0
M  V30 13165 C 1249.5 -2.16002 2.09197 0
M  V30 13166 C 1251.05 -2.29361 2.12985 0
M  V30 13167 C 1251.52 -3.18962 3.28675 0
M  V30 13168 N 1253.02 -3.26549 3.28512 0
M  V30 13169 C 1253.75 -3.96025 4.14671 0
M  V30 13170 N 1253.25 -4.67863 5.10956 0
M  V30 13171 N 1255.04 -3.92266 4.02597 0
M  V30 13172 H 1247.19 -0.58984 2.04046 0
M  V30 13173 H 1249.45 -0.322752 0.891367 0
M  V30 13174 H 1249.16 -1.73653 3.05839 0
M  V30 13175 H 1249.03 -3.16667 2.04943 0
M  V30 13176 H 1251.42 -2.70948 1.16924 0
M  V30 13177 H 1251.5 -1.28299 2.21298 0
M  V30 13178 H 1251.15 -2.78087 4.25006 0
M  V30 13179 H 1251.08 -4.20047 3.17598 0
M  V30 13180 H 1253.57 -2.75371 2.58804 0
M  V30 13181 H 1253.88 -5.1846 5.73079 0
M  V30 13182 H 1252.22 -4.6678 5.14919 0
M  V30 13183 H 1255.42 -3.35273 3.26665 0
M  V30 13184 H 1255.59 -4.4614 4.69961 0
M  V30 13185 N 1248.99 -0.981699 -1.2329 0
M  V30 13186 C 1249.94 -0.494116 -2.22581 0
M  V30 13187 C 1250.93 0.431573 -1.55004 0
M  V30 13188 O 1252.12 0.260215 -1.75077 0
M  V30 13189 C 1249.25 0.200884 -3.42712 0
M  V30 13190 C 1248.34 -0.744451 -4.17515 0
M  V30 13191 N 1248.73 -1.88762 -4.69257 0
M  V30 13192 C 1247.02 -0.558044 -4.42495 0
M  V30 13193 C 1247.73 -2.48006 -5.26182 0
M  V30 13194 N 1246.7 -1.76382 -5.14189 0
M  V30 13195 H 1250.5 -1.36616 -2.60218 0
M  V30 13196 H 1248.02 -0.842537 -1.38835 0
M  V30 13197 H 1250.01 0.567506 -4.13019 0
M  V30 13198 H 1248.67 1.0692 -3.06591 0
M  V30 13199 H 1249.69 -2.26877 -4.65561 0
M  V30 13200 H 1246.36 0.265139 -4.16657 0
M  V30 13201 H 1247.75 -3.44555 -5.76829 0
M  V30 13202 N 1250.47 1.3842 -0.753509 0
M  V30 13203 C 1251.88 1.82847 -0.377331 0
M  V30 13204 C 1252.23 1.62867 1.09401 0
M  V30 13205 O 1251.36 1.12981 1.84565 0
M  V30 13206 C 1251.95 3.31945 -0.678095 0
M  V30 13207 C 1250.51 3.7472 -0.355196 0
M  V30 13208 C 1249.66 2.61193 -0.931311 0
M  V30 13209 H 1252.61 1.2715 -0.949667 0
M  V30 13210 H 1252.63 3.80475 0.0437292 0
M  V30 13211 H 1252.14 3.46455 -1.74902 0
M  V30 13212 H 1250.25 3.65789 0.70915 0
M  V30 13213 H 1250.36 4.71487 -0.850693 0
M  V30 13214 H 1248.72 2.5219 -0.356695 0
M  V30 13215 H 1249.51 2.78503 -2.00727 0
M  V30 13216 N 1251.95 0.502579 1.49372 0
M  V30 13217 C 1253.18 -0.0403087 2.07361 0
M  V30 13218 C 1253.6 -1.29918 1.36026 0
M  V30 13219 O 1252.96 -1.76428 0.417488 0
M  V30 13220 C 1253.01 -0.275362 3.59547 0
M  V30 13221 O 1252.11 -1.34975 3.89686 0
M  V30 13222 H 1251.45 0.0269268 0.663454 0
M  V30 13223 H 1253.98 0.702652 1.92156 0
M  V30 13224 H 1253.99 -0.506392 4.04845 0
M  V30 13225 H 1252.67 0.644382 4.10878 0
M  V30 13226 H 1251.24 -1.10355 3.56197 0
M  V30 13227 N 1253.43 -1.55816 0.23648 0
M  V30 13228 C 1254.68 -1.98294 -0.390373 0
M  V30 13229 C 1255 -1.12573 -1.59224 0
M  V30 13230 O 1254.27 -0.206128 -1.94813 0
M  V30 13231 H 1252.85 -0.732349 -0.14722 0
M  V30 13232 H 1255.51 -1.92037 0.332848 0
M  V30 13233 H 1254.61 -3.03996 -0.706595 0
M  V30 13234 N 1254.91 0.036755 -1.57557 0
M  V30 13235 C 1255.86 1.04744 -2.02516 0
M  V30 13236 C 1256.84 1.3248 -0.913116 0
M  V30 13237 O 1258.03 1.32194 -1.17702 0
M  V30 13238 C 1255.16 2.3509 -2.50175 0
M  V30 13239 C 1254.25 2.10478 -3.68185 0
M  V30 13240 N 1254.64 1.55899 -4.81175 0
M  V30 13241 C 1252.94 2.40797 -3.7541 0
M  V30 13242 C 1253.64 1.46913 -5.62842 0
M  V30 13243 N 1252.61 1.94202 -5.07727 0
M  V30 13244 H 1256.42 0.619342 -2.873 0
M  V30 13245 H 1253.93 0.243208 -1.60569 0
M  V30 13246 H 1255.93 3.08297 -2.8064 0
M  V30 13247 H 1254.59 2.78586 -1.66793 0
M  V30 13248 H 1255.6 1.24275 -5.02769 0
M  V30 13249 H 1252.27 2.8742 -3.02813 0
M  V30 13250 H 1253.66 1.0527 -6.63602 0
M  V30 13251 N 1256.39 1.54543 0.308881 0
M  V30 13252 C 1257.32 1.87947 1.38557 0
M  V30 13253 C 1258.3 0.737622 1.53275 0
M  V30 13254 O 1259.48 0.992664 1.66913 0
M  V30 13255 C 1256.61 2.11982 2.75102 0
M  V30 13256 C 1255.57 3.2783 2.75158 0
M  V30 13257 C 1254.89 3.37266 4.14917 0
M  V30 13258 C 1256.19 4.65129 2.37598 0
M  V30 13259 H 1257.89 2.78123 1.1085 0
M  V30 13260 H 1255.43 1.3382 0.531808 0
M  V30 13261 H 1257.38 2.33935 3.50503 0
M  V30 13262 H 1256.11 1.18569 3.04317 0
M  V30 13263 H 1254.77 3.05787 2.02212 0
M  V30 13264 H 1254.42 2.41384 4.41296 0
M  V30 13265 H 1254.12 4.15135 4.15857 0
M  V30 13266 H 1255.64 3.61471 4.92109 0
M  V30 13267 H 1257.05 4.86865 3.02714 0
M  V30 13268 H 1255.45 5.45653 2.49765 0
M  V30 13269 H 1256.52 4.6638 1.32731 0
M  V30 13270 N 1257.86 -0.571685 1.46866 0
M  V30 13271 C 1258.77 -1.70758 1.60869 0
M  V30 13272 C 1259.79 -1.66903 0.49186 0
M  V30 13273 O 1260.97 -1.86613 0.757468 0
M  V30 13274 C 1258.03 -3.07267 1.60586 0
M  V30 13275 C 1257.09 -3.22301 2.83585 0
M  V30 13276 C 1256.32 -4.52298 2.83306 0
M  V30 13277 O 1256.55 -5.36869 1.92685 0
M  V30 13278 O 1255.48 -4.70814 3.7499 0
M  V30 13279 H 1259.31 -1.6189 2.56954 0
M  V30 13280 H 1256.89 -0.740018 1.29785 0
M  V30 13281 H 1258.77 -3.8853 1.63163 0
M  V30 13282 H 1257.45 -3.16549 0.676637 0
M  V30 13283 H 1256.36 -2.4049 2.86558 0
M  V30 13284 H 1257.69 -3.17916 3.75753 0
M  V30 13285 N 1259.34 -1.34755 -0.817236 0
M  V30 13286 C 1260.29 -1.23351 -1.91751 0
M  V30 13287 C 1261.28 -0.131215 -1.60364 0
M  V30 13288 O 1262.47 -0.361425 -1.73271 0
M  V30 13289 C 1259.6 -0.996932 -3.28506 0
M  V30 13290 C 1258.68 -2.14265 -3.65993 0
M  V30 13291 N 1259.07 -3.39424 -3.75 0
M  V30 13292 C 1257.37 -2.05416 -3.95879 0
M  V30 13293 C 1258.07 -4.14701 -4.07919 0
M  V30 13294 N 1257.05 -3.43349 -4.21441 0
M  V30 13295 H 1260.85 -2.18191 -1.96901 0
M  V30 13296 H 1258.36 -1.27075 -1.01122 0
M  V30 13297 H 1260.36 -0.89613 -4.07155 0
M  V30 13298 H 1259.02 -0.0572789 -3.24649 0
M  V30 13299 H 1260.03 -3.73907 -3.58349 0
M  V30 13300 H 1256.71 -1.19242 -4.0011 0
M  V30 13301 H 1258.1 -5.22808 -4.22044 0
M  V30 13302 N 1260.82 1.03812 -1.18578 0
M  V30 13303 C 1261.77 2.11883 -0.915115 0
M  V30 13304 C 1262.74 1.65453 0.146479 0
M  V30 13305 O 1263.92 1.90799 0.00630058 0
M  V30 13306 C 1261.06 3.42157 -0.449755 0
M  V30 13307 C 1260.17 4.02185 -1.57706 0
M  V30 13308 C 1259.31 5.20431 -1.06417 0
M  V30 13309 C 1258.35 5.72496 -2.16599 0
M  V30 13310 N 1257.49 6.82027 -1.66685 0
M  V30 13311 H 1262.33 2.34373 -1.84047 0
M  V30 13312 H 1259.86 1.14962 -0.917728 0
M  V30 13313 H 1261.82 4.16888 -0.161407 0
M  V30 13314 H 1260.45 3.19806 0.438622 0
M  V30 13315 H 1259.5 3.24757 -1.98083 0
M  V30 13316 H 1260.81 4.36851 -2.40754 0
M  V30 13317 H 1259.97 6.02286 -0.730497 0
M  V30 13318 H 1258.71 4.87276 -0.203301 0
M  V30 13319 H 1257.71 4.8926 -2.50808 0
M  V30 13320 H 1258.94 6.07694 -3.03126 0
M  V30 13321 H 1256.88 6.50742 -0.828916 0
M  V30 13322 H 1256.8 7.1577 -2.43329 0
M  V30 13323 H 1258.07 7.67499 -1.36253 0
M  V30 13324 N 1262.3 0.988223 1.22768 0
M  V30 13325 C 1263.53 0.679743 1.95415 0
M  V30 13326 C 1263.94 -0.754731 1.73059 0
M  V30 13327 O 1263.3 -1.50876 1.02678 0
M  V30 13328 C 1263.35 0.970344 3.48234 0
M  V30 13329 O 1263.07 2.34845 3.69837 0
M  V30 13330 C 1264.57 0.67891 4.3807 0
M  V30 13331 H 1261.79 0.251847 0.621944 0
M  V30 13332 H 1264.33 1.32173 1.56047 0
M  V30 13333 H 1262.49 0.374241 3.85588 0
M  V30 13334 H 1262.9 2.44412 4.64072 0
M  V30 13335 H 1264.38 0.932549 5.44066 0
M  V30 13336 H 1264.85 -0.387073 4.37491 0
M  V30 13337 H 1265.46 1.25585 4.06335 0
M  V30 13338 N 1263.78 -1.38018 0.760839 0
M  V30 13339 C 1265.02 -1.99194 0.316984 0
M  V30 13340 C 1265.34 -1.61083 -1.10958 0
M  V30 13341 O 1266.54 -2.15281 -1.65428 0
M  V30 13342 C 1265 -3.56185 0.515792 0
M  V30 13343 C 1264.61 -4.03242 1.95191 0
M  V30 13344 C 1266.35 -4.24285 0.135013 0
M  V30 13345 C 1264.26 -5.52902 2.0989 0
M  V30 13346 H 1263.19 -0.745214 0.114771 0
M  V30 13347 H 1265.84 -1.5769 0.938415 0
M  V30 13348 H 1264.22 -3.95613 -0.174934 0
M  V30 13349 H 1265.4 -3.75086 2.6767 0
M  V30 13350 H 1263.71 -3.47889 2.28827 0
M  V30 13351 H 1266.31 -5.34233 0.223495 0
M  V30 13352 H 1266.65 -4.06158 -0.913322 0
M  V30 13353 H 1267.18 -3.90121 0.777868 0
M  V30 13354 H 1263.92 -5.75942 3.13003 0
M  V30 13355 H 1263.44 -5.82778 1.41881 0
M  V30 13356 H 1265.12 -6.18709 1.89229 0
M  V30 13357 N 1265.25 -0.510493 -1.49103 0
M  V30 13358 C 1266.53 0.0941122 -1.95373 0
M  V30 13359 C 1266.91 1.53207 -1.45227 0
M  V30 13360 O 1266.26 2.18452 -0.670161 0
M  V30 13361 C 1266.47 -0.00302507 -3.49 0
M  V30 13362 C 1267.82 0.166117 -4.24275 0
M  V30 13363 O 1268.84 0.0717097 -3.56128 0
M  V30 13364 O 1267.7 0.361155 -5.45305 0
M  V30 13365 H 1264.79 0.0900741 -0.82208 0
M  V30 13366 H 1267.34 -0.573707 -1.59708 0
M  V30 13367 H 1266.11 -1.00545 -3.78162 0
M  V30 13368 H 1265.73 0.704518 -3.91308 0
M  V30 13369 N 1266.73 1.55688 -0.24474 0
M  V30 13370 C 1267.66 2.24272 0.64995 0
M  V30 13371 C 1268.64 1.22226 1.183 0
M  V30 13372 O 1269.83 1.50873 1.22274 0
M  V30 13373 C 1266.96 2.94053 1.84798 0
M  V30 13374 C 1265.91 4.02769 1.44779 0
M  V30 13375 C 1265.24 4.59965 2.72647 0
M  V30 13376 C 1266.54 5.18601 0.62047 0
M  V30 13377 H 1268.23 2.99298 0.0780654 0
M  V30 13378 H 1265.78 1.43955 0.0361069 0
M  V30 13379 H 1267.73 3.40732 2.47951 0
M  V30 13380 H 1266.45 2.16511 2.44521 0
M  V30 13381 H 1265.11 3.56856 0.839609 0
M  V30 13382 H 1264.76 3.79126 3.30564 0
M  V30 13383 H 1264.46 5.33352 2.46596 0
M  V30 13384 H 1265.99 5.09376 3.36703 0
M  V30 13385 H 1267.4 5.61519 1.15625 0
M  V30 13386 H 1265.8 5.98364 0.456097 0
M  V30 13387 H 1266.87 4.83503 -0.367798 0
M  V30 13388 N 1268.21 -0.0283989 1.57574 0
M  V30 13389 C 1269.46 -0.720142 1.89583 0
M  V30 13390 C 1269.79 -1.7497 0.842562 0
M  V30 13391 O 1269.06 -1.93979 -0.142294 0
M  V30 13392 C 1269.35 -1.38909 3.32229 0
M  V30 13393 C 1269.2 -0.372998 4.48251 0
M  V30 13394 C 1270.52 -2.32289 3.73804 0
M  V30 13395 H 1267.64 -0.26033 0.689491 0
M  V30 13396 H 1270.28 0.0170607 1.89992 0
M  V30 13397 H 1268.43 -2.01744 3.32011 0
M  V30 13398 H 1270.1 0.253492 4.60603 0
M  V30 13399 H 1268.34 0.30765 4.32708 0
M  V30 13400 H 1269.02 -0.879549 5.44948 0
M  V30 13401 H 1271.49 -1.79497 3.75393 0
M  V30 13402 H 1270.37 -2.76075 4.74419 0
M  V30 13403 H 1270.63 -3.18992 3.06099 0
M  V30 13404 N 1269.69 -1.54705 -0.300681 0
M  V30 13405 C 1270.65 -1.84934 -1.35395 0
M  V30 13406 C 1271.65 -0.72226 -1.43666 0
M  V30 13407 O 1272.84 -0.990543 -1.43296 0
M  V30 13408 C 1269.97 -2.02991 -2.73875 0
M  V30 13409 H 1271.17 -2.79063 -1.09835 0
M  V30 13410 H 1268.72 -1.46772 -0.537365 0
M  V30 13411 H 1269.45 -1.11151 -3.04657 0
M  V30 13412 H 1269.24 -2.85027 -2.69262 0
M  V30 13413 H 1270.73 -2.27747 -3.5003 0
M  V30 13414 N 1271.17 0.563888 -1.47167 0
M  V30 13415 C 1272.4 1.34498 -1.56825 0
M  V30 13416 C 1272.8 1.87974 -0.215011 0
M  V30 13417 O 1272.15 1.65323 0.80087 0
M  V30 13418 C 1272.21 2.55602 -2.528 0
M  V30 13419 C 1271.87 2.23459 -3.98642 0
M  V30 13420 C 1272.87 1.81155 -4.87318 0
M  V30 13421 C 1270.56 2.35024 -4.43925 0
M  V30 13422 C 1272.55 1.50835 -6.19296 0
M  V30 13423 C 1270.24 2.04317 -5.75932 0
M  V30 13424 C 1271.23 1.6229 -6.63439 0
M  V30 13425 O 1270.92 1.31969 -7.92994 0
M  V30 13426 H 1270.65 0.416551 -0.532411 0
M  V30 13427 H 1273.21 0.690611 -1.93442 0
M  V30 13428 H 1271.44 3.23907 -2.11237 0
M  V30 13429 H 1273.13 3.17677 -2.52659 0
M  V30 13430 H 1273.89 1.71719 -4.53583 0
M  V30 13431 H 1269.77 2.66696 -3.76024 0
M  V30 13432 H 1273.32 1.17958 -6.87555 0
M  V30 13433 H 1269.21 2.13383 -6.09211 0
M  V30 13434 H 1269.98 1.45656 -8.05436 0
M  V30 13435 N 1272.64 1.35187 0.810078 0
M  V30 13436 C 1273.89 1.28011 1.56389 0
M  V30 13437 C 1274.21 -0.14622 1.94451 0
M  V30 13438 O 1273.48 -1.08185 1.63318 0
M  V30 13439 H 1272.06 0.470837 0.579932 0
M  V30 13440 H 1274.73 1.69249 0.966476 0
M  V30 13441 H 1273.82 1.89362 2.4809 0
M  V30 13442 N 1274.12 -1.03182 1.19127 0
M  V30 13443 C 1275.4 -1.73586 0.901507 0
M  V30 13444 C 1275.78 -2.02585 -0.593521 0
M  V30 13445 O 1275.13 -1.67813 -1.55084 0
M  V30 13446 C 1275.34 -3.01472 1.75829 0
M  V30 13447 C 1276.69 -3.75037 1.99078 0
M  V30 13448 O 1277.71 -3.11392 1.72956 0
M  V30 13449 O 1276.57 -4.8945 2.43108 0
M  V30 13450 H 1273.66 -0.755797 0.335708 0
M  V30 13451 H 1276.21 -1.09167 1.29925 0
M  V30 13452 H 1274.98 -2.76247 2.77134 0
M  V30 13453 H 1274.6 -3.73631 1.35963 0
M  V30 13454 N 1275.6 -0.99472 -1.22242 0
M  V30 13455 C 1276.85 -0.667045 -1.90351 0
M  V30 13456 C 1277.16 0.804615 -1.78284 0
M  V30 13457 O 1278.37 1.24395 -2.41326 0
M  V30 13458 C 1276.82 -1.14256 -3.41282 0
M  V30 13459 C 1276.43 -2.63958 -3.61981 0
M  V30 13460 C 1278.18 -0.889302 -4.1508 0
M  V30 13461 C 1276.08 -3.05103 -5.06622 0
M  V30 13462 H 1275.01 -0.245795 -0.712812 0
M  V30 13463 H 1277.66 -1.20452 -1.38432 0
M  V30 13464 H 1276.05 -0.533203 -3.92394 0
M  V30 13465 H 1277.22 -3.30255 -3.21354 0
M  V30 13466 H 1275.54 -2.87186 -3.01518 0
M  V30 13467 H 1278.13 -1.17239 -5.21689 0
M  V30 13468 H 1278.48 0.174556 -4.15934 0
M  V30 13469 H 1279.01 -1.46095 -3.70002 0
M  V30 13470 H 1275.75 -4.10672 -5.1091 0
M  V30 13471 H 1275.27 -2.4351 -5.48145 0
M  V30 13472 H 1276.95 -2.96506 -5.75059 0
M  V30 13473 N 1277.08 1.37613 -0.768148 0
M  V30 13474 C 1278.03 2.3218 -0.13974 0
M  V30 13475 C 1279.02 1.54754 0.689023 0
M  V30 13476 O 1280.23 1.70177 0.586489 0
M  V30 13477 H 1276.6 0.751536 -0.0264001 0
M  V30 13478 H 1278.57 2.82768 -0.953139 0
M  V30 13479 C 1277.32 3.39997 0.727829 0
M  V30 13480 H 1276.64 3.99676 0.0994851 0
M  V30 13481 H 1278.08 4.08538 1.13456 0
M  V30 13482 C 1276.54 2.79778 1.87686 0
M  V30 13483 O 1277.07 2.70241 2.97208 0
M  V30 13484 N 1275.28 2.37373 1.67637 0
M  V30 13485 H 1274.83 2.4533 0.785552 0
M  V30 13486 H 1274.78 1.97426 2.44684 0
M  V30 13487 N 1278.56 0.518393 1.4883 0
M  V30 13488 C 1279.8 -0.019866 2.0209 0
M  V30 13489 C 1280.13 -1.35863 1.3988 0
M  V30 13490 O 1279.4 -1.87722 0.560117 0
M  V30 13491 H 1277.98 -0.0103306 0.746929 0
M  V30 13492 H 1280.64 0.679591 1.82668 0
M  V30 13493 H 1279.73 -0.136749 3.118 0
M  V30 13494 N 1280.03 -1.55556 0.252993 0
M  V30 13495 C 1281.28 -1.9909 -0.37005 0
M  V30 13496 C 1281.61 -1.1412 -1.57502 0
M  V30 13497 O 1280.86 -0.193471 -1.94741 0
M  V30 13498 C 1281.16 -3.47925 -0.817484 0
M  V30 13499 C 1280.83 -4.50027 0.280398 0
M  V30 13500 C 1279.49 -4.77669 0.581914 0
M  V30 13501 C 1281.84 -5.11096 1.02129 0
M  V30 13502 C 1279.17 -5.63652 1.62829 0
M  V30 13503 C 1281.52 -5.98215 2.05723 0
M  V30 13504 C 1280.19 -6.24186 2.36533 0
M  V30 13505 H 1279.46 -0.728522 -0.135411 0
M  V30 13506 H 1282.1 -1.88046 0.36209 0
M  V30 13507 H 1280.41 -3.56333 -1.62893 0
M  V30 13508 H 1282.11 -3.79001 -1.30993 0
M  V30 13509 H 1278.7 -4.28585 0.0352579 0
M  V30 13510 H 1282.88 -4.89784 0.801603 0
M  V30 13511 H 1278.14 -5.82028 1.87227 0
M  V30 13512 H 1282.31 -6.44575 2.6362 0
M  V30 13513 H 1279.94 -6.90607 3.17752 0
M  V30 13514 N 1281.51 0.0200419 -1.57587 0
M  V30 13515 C 1282.74 0.724241 -1.94344 0
M  V30 13516 C 1283.16 1.67612 -0.853688 0
M  V30 13517 O 1282.52 1.80303 0.189873 0
M  V30 13518 C 1282.57 1.44967 -3.30177 0
M  V30 13519 O 1281.67 2.56326 -3.23064 0
M  V30 13520 H 1281.01 0.194142 -0.634984 0
M  V30 13521 H 1283.54 -0.0271756 -2.04582 0
M  V30 13522 H 1283.55 1.81758 -3.65278 0
M  V30 13523 H 1282.23 0.75161 -4.09052 0
M  V30 13524 H 1280.81 2.22011 -2.99609 0
M  V30 13525 N 1282.99 1.54862 0.292472 0
M  V30 13526 C 1283.95 1.8565 1.34413 0
M  V30 13527 C 1284.95 0.729868 1.43281 0
M  V30 13528 O 1286.14 0.998128 1.42769 0
M  V30 13529 C 1283.28 2.0444 2.72795 0
M  V30 13530 H 1284.47 2.79642 1.08354 0
M  V30 13531 H 1282.02 1.47055 0.529574 0
M  V30 13532 H 1282.76 1.12765 3.04063 0
M  V30 13533 H 1282.54 2.86451 2.67747 0
M  V30 13534 H 1284.03 2.296 3.48817 0
M  V30 13535 N 1284.47 -0.556076 1.47464 0
M  V30 13536 C 1285.4 -1.67872 1.54578 0
M  V30 13537 C 1286.38 -1.57658 0.397853 0
M  V30 13538 O 1287.56 -1.785 0.605811 0
M  V30 13539 C 1284.69 -3.06122 1.44937 0
M  V30 13540 C 1283.74 -3.34778 2.64246 0
M  V30 13541 S 1284.57 -3.23909 4.26431 0
M  V30 13542 C 1285.73 -4.64651 4.19345 0
M  V30 13543 H 1285.96 -1.61583 2.49556 0
M  V30 13544 H 1283.49 -0.736985 1.35676 0
M  V30 13545 H 1285.45 -3.85866 1.40062 0
M  V30 13546 H 1284.11 -3.09876 0.513412 0
M  V30 13547 H 1283.3 -4.35569 2.53567 0
M  V30 13548 H 1282.91 -2.62655 2.66248 0
M  V30 13549 H 1285.2 -5.55625 3.87669 0
M  V30 13550 H 1286.14 -4.80386 5.20225 0
M  V30 13551 H 1286.55 -4.42751 3.50189 0
M  V30 13552 N 1285.95 -1.35615 -0.802897 0
M  V30 13553 C 1286.91 -1.28705 -1.89651 0
M  V30 13554 C 1287.91 -0.197681 -1.5958 0
M  V30 13555 O 1289.1 -0.451618 -1.68244 0
M  V30 13556 C 1286.23 -0.991941 -3.26149 0
M  V30 13557 H 1287.43 -2.25951 -1.97196 0
M  V30 13558 H 1284.98 -1.20192 -0.999179 0
M  V30 13559 H 1285.71 -0.0235051 -3.24291 0
M  V30 13560 H 1285.5 -1.78013 -3.49362 0
M  V30 13561 H 1286.99 -0.969298 -4.06195 0
M  V30 13562 N 1287.43 1.02549 -1.19673 0
M  V30 13563 C 1288.37 2.109 -0.937536 0
M  V30 13564 C 1289.34 1.65599 0.128923 0
M  V30 13565 O 1290.53 1.90795 -0.0139366 0
M  V30 13566 C 1287.67 3.4166 -0.48602 0
M  V30 13567 C 1286.78 4.0049 -1.61963 0
M  V30 13568 C 1285.92 5.19273 -1.11931 0
M  V30 13569 C 1284.95 5.70166 -2.22659 0
M  V30 13570 N 1284.09 6.80221 -1.73909 0
M  V30 13571 H 1288.93 2.32408 -1.86523 0
M  V30 13572 H 1286.47 1.13982 -0.929869 0
M  V30 13573 H 1288.43 4.16693 -0.205614 0
M  V30 13574 H 1287.06 3.20253 0.404678 0
M  V30 13575 H 1286.11 3.22638 -2.01516 0
M  V30 13576 H 1287.42 4.34273 -2.45374 0
M  V30 13577 H 1286.57 6.01478 -0.794336 0
M  V30 13578 H 1285.31 4.87033 -0.254972 0
M  V30 13579 H 1284.32 4.86572 -2.55983 0
M  V30 13580 H 1285.54 6.04444 -3.09554 0
M  V30 13581 H 1283.49 6.49826 -0.897889 0
M  V30 13582 H 1283.41 7.13149 -2.50907 0
M  V30 13583 H 1284.67 7.66011 -1.44386 0
M  V30 13584 N 1288.9 1.00119 1.21713 0
M  V30 13585 C 1290.13 0.700431 1.94683 0
M  V30 13586 C 1290.55 -0.736333 1.73849 0
M  V30 13587 O 1289.9 -1.49778 1.04272 0
M  V30 13588 C 1289.95 1.00722 3.47185 0
M  V30 13589 O 1289.68 2.38754 3.67326 0
M  V30 13590 C 1291.18 0.725335 4.37326 0
M  V30 13591 H 1288.4 0.25843 0.619238 0
M  V30 13592 H 1290.94 1.3382 1.54636 0
M  V30 13593 H 1289.1 0.415117 3.85169 0
M  V30 13594 H 1289.51 2.49321 4.61454 0
M  V30 13595 H 1290.98 0.990202 5.43046 0
M  V30 13596 H 1291.46 -0.340649 4.37877 0
M  V30 13597 H 1292.07 1.29888 4.04981 0
M  V30 13598 N 1290.38 -1.37203 0.775435 0
M  V30 13599 C 1291.63 -1.99897 0.341936 0
M  V30 13600 C 1291.96 -1.61414 -1.07978 0
M  V30 13601 O 1291.24 -0.862108 -1.7435 0
M  V30 13602 C 1291.52 -3.56755 0.489715 0
M  V30 13603 C 1291.37 -4.05135 1.95411 0
M  V30 13604 C 1292.69 -4.39978 -0.103779 0
M  V30 13605 H 1289.81 -0.726199 0.125717 0
M  V30 13606 H 1292.45 -1.62826 0.979167 0
M  V30 13607 H 1290.6 -3.88464 -0.0527684 0
M  V30 13608 H 1292.27 -3.83975 2.55658 0
M  V30 13609 H 1290.52 -3.57192 2.46164 0
M  V30 13610 H 1291.19 -5.14161 2.00855 0
M  V30 13611 H 1293.66 -4.14547 0.359134 0
M  V30 13612 H 1292.54 -5.48892 0.0297337 0
M  V30 13613 H 1292.8 -4.25658 -1.19448 0
M  V30 13614 N 1291.86 -0.526279 -1.48553 0
M  V30 13615 C 1293.11 0.00914839 -2.02098 0
M  V30 13616 C 1293.43 1.35119 -1.40598 0
M  V30 13617 O 1292.7 1.87422 -0.570065 0
M  V30 13618 H 1291.28 0.00636935 -0.746973 0
M  V30 13619 H 1293.94 -0.689269 -1.82305 0
M  V30 13620 H 1293.04 0.120212 -3.11868 0
M  V30 13621 N 1293.34 1.5542 -0.261239 0
M  V30 13622 C 1294.27 2.24949 0.626126 0
M  V30 13623 C 1295.25 1.23474 1.16997 0
M  V30 13624 O 1296.43 1.52161 1.20667 0
M  V30 13625 C 1293.56 2.95996 1.81669 0
M  V30 13626 C 1292.52 4.04282 1.40499 0
M  V30 13627 C 1291.84 4.62831 2.67753 0
M  V30 13628 C 1293.14 5.1923 0.56543 0
M  V30 13629 H 1294.84 2.99364 0.0463164 0
M  V30 13630 H 1292.38 1.43985 0.0208366 0
M  V30 13631 H 1294.34 3.43343 2.44323 0
M  V30 13632 H 1293.06 2.19093 2.42211 0
M  V30 13633 H 1291.72 3.57726 0.801712 0
M  V30 13634 H 1291.37 3.82611 3.26524 0
M  V30 13635 H 1291.07 5.35938 2.40925 0
M  V30 13636 H 1292.59 5.12918 3.31281 0
M  V30 13637 H 1294.01 5.62714 1.09663 0
M  V30 13638 H 1292.4 5.98814 0.392607 0
M  V30 13639 H 1293.47 4.83086 -0.419059 0
M  V30 13640 N 1294.82 -0.0116844 1.57596 0
M  V30 13641 C 1296.23 -0.55604 1.78228 0
M  V30 13642 C 1296.58 -1.74624 0.894474 0
M  V30 13643 O 1295.7 -2.16196 0.0938498 0
M  V30 13644 C 1296.3 -1.0155 3.23223 0
M  V30 13645 C 1294.86 -1.50525 3.44992 0
M  V30 13646 C 1294 -0.451133 2.73606 0
M  V30 13647 H 1296.95 0.214516 1.57243 0
M  V30 13648 H 1296.98 -1.88208 3.30693 0
M  V30 13649 H 1296.49 -0.149048 3.87814 0
M  V30 13650 H 1294.59 -2.39298 2.856 0
M  V30 13651 H 1294.7 -1.54076 4.53649 0
M  V30 13652 H 1293.07 -0.910135 2.37884 0
M  V30 13653 H 1293.85 0.406152 3.40889 0
M  V30 13654 N 1296.29 -1.55015 -0.284256 0
M  V30 13655 C 1297.52 -1.79102 -1.03586 0
M  V30 13656 C 1297.94 -0.558733 -1.80343 0
M  V30 13657 O 1297.29 0.471925 -1.76293 0
M  V30 13658 C 1297.34 -3.00915 -2.0033 0
M  V30 13659 O 1297.07 -4.19384 -1.26685 0
M  V30 13660 C 1298.57 -3.3752 -2.87394 0
M  V30 13661 H 1295.79 -0.596912 -0.306491 0
M  V30 13662 H 1298.33 -2.02005 -0.31845 0
M  V30 13663 H 1296.49 -2.80171 -2.67549 0
M  V30 13664 H 1296.9 -4.88175 -1.91796 0
M  V30 13665 H 1298.37 -4.25953 -3.51095 0
M  V30 13666 H 1298.85 -2.56418 -3.56576 0
M  V30 13667 H 1299.46 -3.60483 -2.25682 0
M  V30 13668 N 1297.77 0.548248 -1.47757 0
M  V30 13669 C 1298.73 1.63666 -1.60456 0
M  V30 13670 C 1299.73 1.53499 -0.479028 0
M  V30 13671 O 1300.92 1.57497 -0.744342 0
M  V30 13672 C 1298.06 3.03239 -1.55754 0
M  V30 13673 H 1299.25 1.53752 -2.57488 0
M  V30 13674 H 1296.8 0.768881 -1.36081 0
M  V30 13675 H 1297.54 3.18677 -0.601303 0
M  V30 13676 H 1297.32 3.12027 -2.37448 0
M  V30 13677 H 1298.81 3.82406 -1.67797 0
M  V30 13678 N 1299.25 1.36039 0.795694 0
M  V30 13679 C 1300.18 1.24209 1.91435 0
M  V30 13680 C 1301.16 0.127593 1.62099 0
M  V30 13681 O 1302.34 0.297619 1.86136 0
M  V30 13682 C 1299.47 0.915006 3.26106 0
M  V30 13683 C 1298.52 2.04307 3.74381 0
M  V30 13684 S 1299.35 3.66016 3.90887 0
M  V30 13685 C 1300.51 3.35408 5.28443 0
M  V30 13686 H 1300.74 2.18895 2.01177 0
M  V30 13687 H 1298.27 1.21381 0.954251 0
M  V30 13688 H 1300.23 0.733104 4.03901 0
M  V30 13689 H 1298.89 -0.0139734 3.14097 0
M  V30 13690 H 1298.08 1.76863 4.71949 0
M  V30 13691 H 1297.69 2.18387 3.03617 0
M  V30 13692 H 1299.98 2.88912 6.1281 0
M  V30 13693 H 1300.92 4.32216 5.60887 0
M  V30 13694 H 1301.33 2.70909 4.95246 0
M  V30 13695 N 1300.73 -1.01913 1.20215 0
M  V30 13696 C 1301.69 -2.08563 0.950481 0
M  V30 13697 C 1302.69 -1.60634 -0.0729659 0
M  V30 13698 O 1303.88 -1.73437 0.162826 0
M  V30 13699 C 1301.01 -3.38171 0.430453 0
M  V30 13700 H 1302.21 -2.32323 1.89647 0
M  V30 13701 H 1299.76 -1.18674 1.01716 0
M  V30 13702 H 1300.49 -3.20086 -0.521126 0
M  V30 13703 H 1300.28 -3.74284 1.1685 0
M  V30 13704 H 1301.77 -4.16702 0.273781 0
M  V30 13705 N 1302.21 -1.00763 -1.2118 0
M  V30 13706 C 1303.17 -0.575183 -2.21865 0
M  V30 13707 C 1304.17 0.349871 -1.56948 0
M  V30 13708 O 1305.36 0.139795 -1.73638 0
M  V30 13709 C 1302.49 0.161308 -3.40518 0
M  V30 13710 H 1303.68 -1.46578 -2.61639 0
M  V30 13711 H 1301.24 -0.79643 -1.34487 0
M  V30 13712 H 1301.97 1.06723 -3.06236 0
M  V30 13713 H 1301.76 -0.503101 -3.88859 0
M  V30 13714 H 1303.25 0.451527 -4.15152 0
M  V30 13715 N 1303.68 1.3679 -0.7827 0
M  V30 13716 C 1304.63 2.30139 -0.174595 0
M  V30 13717 C 1305.6 1.51645 0.677714 0
M  V30 13718 O 1306.79 1.80176 0.627796 0
M  V30 13719 C 1303.93 3.38133 0.689936 0
M  V30 13720 C 1303.04 4.31624 -0.180179 0
M  V30 13721 C 1302.17 5.26698 0.69009 0
M  V30 13722 C 1301.21 6.1183 -0.181891 0
M  V30 13723 N 1300.35 6.99113 0.646977 0
M  V30 13724 H 1305.19 2.81559 -0.97613 0
M  V30 13725 H 1302.73 1.38595 -0.492944 0
M  V30 13726 H 1304.69 3.99386 1.2061 0
M  V30 13727 H 1303.32 2.88049 1.45696 0
M  V30 13728 H 1302.37 3.71583 -0.81425 0
M  V30 13729 H 1303.68 4.91464 -0.852337 0
M  V30 13730 H 1302.83 5.93209 1.27232 0
M  V30 13731 H 1301.57 4.67297 1.3959 0
M  V30 13732 H 1300.58 5.44288 -0.776572 0
M  V30 13733 H 1301.8 6.73306 -0.885195 0
M  V30 13734 H 1299.75 6.42227 1.3372 0
M  V30 13735 H 1299.67 7.55993 0.0323547 0
M  V30 13736 H 1300.93 7.7 1.21325 0
M  V30 13737 N 1305.16 0.53415 1.48272 0
M  V30 13738 C 1306.1 -0.273689 2.26553 0
M  V30 13739 C 1307.07 -0.941085 1.32598 0
M  V30 13740 O 1308.26 -0.964653 1.61947 0
M  V30 13741 C 1305.38 -1.38796 3.08955 0
M  V30 13742 C 1304.43 -0.831533 4.18315 0
M  V30 13743 S 1305.26 0.303875 5.34637 0
M  V30 13744 C 1306.42 -0.812767 6.206 0
M  V30 13745 H 1306.65 0.390639 2.94722 0
M  V30 13746 H 1304.19 0.320014 1.51047 0
M  V30 13747 H 1306.14 -2.02622 3.57008 0
M  V30 13748 H 1304.8 -2.02402 2.40192 0
M  V30 13749 H 1304 -1.66758 4.75613 0
M  V30 13750 H 1303.6 -0.269881 3.73025 0
M  V30 13751 H 1305.89 -1.71043 6.55554 0
M  V30 13752 H 1306.83 -0.27767 7.07555 0
M  V30 13753 H 1307.24 -1.09505 5.53777 0
M  V30 13754 N 1306.64 -1.55279 0.269478 0
M  V30 13755 C 1307.57 -2.25278 -0.614188 0
M  V30 13756 C 1308.55 -1.24092 -1.1634 0
M  V30 13757 O 1309.74 -1.52799 -1.19858 0
M  V30 13758 C 1306.87 -2.96956 -1.80096 0
M  V30 13759 C 1305.82 -4.05021 -1.38353 0
M  V30 13760 C 1305.15 -4.64244 -2.65295 0
M  V30 13761 C 1306.45 -5.19523 -0.537886 0
M  V30 13762 H 1308.14 -2.99385 -0.0304397 0
M  V30 13763 H 1305.69 -1.43994 -0.0132004 0
M  V30 13764 H 1307.64 -3.44633 -2.42499 0
M  V30 13765 H 1306.36 -2.20374 -2.41045 0
M  V30 13766 H 1305.02 -3.58146 -0.78273 0
M  V30 13767 H 1304.67 -3.84337 -3.2449 0
M  V30 13768 H 1304.37 -5.37208 -2.38079 0
M  V30 13769 H 1305.89 -5.14668 -3.28557 0
M  V30 13770 H 1307.31 -5.63287 -1.06677 0
M  V30 13771 H 1305.71 -5.99014 -0.360845 0
M  V30 13772 H 1306.78 -4.82857 0.444672 0
M  V30 13773 N 1308.12 0.00332656 -1.576 0
M  V30 13774 C 1309.05 0.994803 -2.11248 0
M  V30 13775 C 1310.03 1.36061 -1.02085 0
M  V30 13776 O 1311.21 1.44494 -1.2975 0
M  V30 13777 C 1308.34 2.28772 -2.61306 0
M  V30 13778 C 1307.3 2.06362 -3.74965 0
M  V30 13779 C 1306.62 3.41638 -4.11324 0
M  V30 13780 C 1307.92 1.4289 -5.02374 0
M  V30 13781 H 1309.62 0.548119 -2.9434 0
M  V30 13782 H 1307.16 0.262208 -1.41593 0
M  V30 13783 H 1309.12 2.98485 -2.97464 0
M  V30 13784 H 1307.84 2.75547 -1.75332 0
M  V30 13785 H 1306.5 1.39076 -3.39195 0
M  V30 13786 H 1306.15 3.8611 -3.22379 0
M  V30 13787 H 1305.85 3.2746 -4.87897 0
M  V30 13788 H 1307.37 4.12671 -4.50039 0
M  V30 13789 H 1308.79 2.02555 -5.36325 0
M  V30 13790 H 1307.18 1.3921 -5.8373 0
M  V30 13791 H 1308.25 0.397708 -4.83266 0
M  V30 13792 N 1309.6 1.55164 0.276031 0
M  V30 13793 C 1310.87 1.66338 1.02913 0
M  V30 13794 C 1311.25 0.527876 2.04393 0
M  V30 13795 O 1310.6 -0.472437 2.23563 0
M  V30 13796 C 1310.81 3.05427 1.68865 0
M  V30 13797 C 1312.16 3.63075 2.2014 0
M  V30 13798 O 1313.18 3.0804 1.78857 0
M  V30 13799 O 1312.04 4.59492 2.95854 0
M  V30 13800 H 1309.14 0.675446 0.477181 0
M  V30 13801 H 1311.68 1.67504 0.272129 0
M  V30 13802 H 1310.45 3.79514 0.953125 0
M  V30 13803 H 1310.08 3.08147 2.5126 0
M  V30 13804 N 1311.07 -0.540404 1.48045 0
M  V30 13805 C 1312.32 -1.29422 1.55224 0
M  V30 13806 C 1312.64 -1.93716 0.223365 0
M  V30 13807 O 1311.91 -1.808 -0.754204 0
M  V30 13808 H 1310.49 -0.480658 0.571819 0
M  V30 13809 H 1313.16 -0.629712 1.84447 0
M  V30 13810 H 1312.25 -2.07897 2.32777 0
M  V30 13811 N 1312.55 -1.36459 -0.788468 0
M  V30 13812 C 1313.46 -1.33017 -1.93245 0
M  V30 13813 C 1314.48 -0.232212 -1.72444 0
M  V30 13814 O 1315.65 -0.464743 -1.95965 0
M  V30 13815 C 1312.72 -1.1197 -3.28121 0
M  V30 13816 C 1311.78 -2.3125 -3.61693 0
M  V30 13817 C 1311.01 -2.11197 -4.90134 0
M  V30 13818 O 1311.24 -1.08764 -5.59934 0
M  V30 13819 O 1310.17 -2.98996 -5.22384 0
M  V30 13820 H 1314 -2.29333 -1.99098 0
M  V30 13821 H 1311.58 -1.17016 -0.928856 0
M  V30 13822 H 1313.46 -1.02154 -4.08831 0
M  V30 13823 H 1312.14 -0.187171 -3.23158 0
M  V30 13824 H 1311.05 -2.46635 -2.81286 0
M  V30 13825 H 1312.38 -3.23012 -3.71381 0
M  V30 13826 N 1314.03 1.01274 -1.20754 0
M  V30 13827 C 1315.28 1.74342 -1.01428 0
M  V30 13828 C 1315.59 1.90265 0.453708 0
M  V30 13829 O 1316.8 2.60465 0.76618 0
M  V30 13830 C 1315.25 3.13588 -1.76609 0
M  V30 13831 C 1314.86 3.05664 -3.27526 0
M  V30 13832 C 1316.61 3.9084 -1.65664 0
M  V30 13833 C 1314.51 4.39942 -3.95228 0
M  V30 13834 H 1313.44 0.653619 -0.375897 0
M  V30 13835 H 1316.09 1.13214 -1.44412 0
M  V30 13836 H 1314.48 3.75281 -1.26413 0
M  V30 13837 H 1315.65 2.53256 -3.84965 0
M  V30 13838 H 1313.97 2.41904 -3.38927 0
M  V30 13839 H 1316.56 4.9019 -2.13583 0
M  V30 13840 H 1316.91 4.11754 -0.61351 0
M  V30 13841 H 1317.44 3.35783 -2.13294 0
M  V30 13842 H 1314.18 4.24229 -4.9971 0
M  V30 13843 H 1313.7 4.92342 -3.42578 0
M  V30 13844 H 1315.38 5.08771 -3.99701 0
M  V30 13845 N 1315.51 1.01404 1.20644 0
M  V30 13846 C 1316.76 0.700523 1.89571 0
M  V30 13847 C 1317.08 -0.771978 1.79068 0
M  V30 13848 O 1316.35 -1.55506 1.19142 0
M  V30 13849 H 1314.93 0.256122 0.70172 0
M  V30 13850 H 1317.59 1.28509 1.46531 0
M  V30 13851 H 1316.69 0.981665 2.9626 0
M  V30 13852 N 1316.99 -1.36373 0.789944 0
M  V30 13853 C 1317.95 -2.28372 0.194639 0
M  V30 13854 C 1318.95 -1.48849 -0.608332 0
M  V30 13855 O 1320.14 -1.68829 -0.42925 0
M  V30 13856 C 1317.27 -3.3298 -0.730553 0
M  V30 13857 H 1318.47 -2.82529 1.00585 0
M  V30 13858 H 1316.02 -1.45946 0.559406 0
M  V30 13859 H 1316.75 -2.8398 -1.56608 0
M  V30 13860 H 1316.54 -3.91787 -0.156706 0
M  V30 13861 H 1318.03 -4.01684 -1.14192 0
M  V30 13862 N 1318.47 -0.542005 -1.47987 0
M  V30 13863 C 1319.41 0.214151 -2.29804 0
M  V30 13864 C 1320.38 0.922625 -1.38119 0
M  V30 13865 O 1321.57 0.921301 -1.67083 0
M  V30 13866 C 1318.71 1.24768 -3.21756 0
M  V30 13867 C 1317.82 0.546824 -4.28525 0
M  V30 13868 C 1316.96 1.56432 -5.07644 0
M  V30 13869 C 1315.99 0.847598 -6.06203 0
M  V30 13870 N 1315.13 1.81121 -6.78336 0
M  V30 13871 H 1319.97 -0.489707 -2.93949 0
M  V30 13872 H 1317.51 -0.253331 -1.44902 0
M  V30 13873 H 1319.47 1.85933 -3.73477 0
M  V30 13874 H 1318.1 1.91976 -2.59509 0
M  V30 13875 H 1317.15 -0.179026 -3.79978 0
M  V30 13876 H 1318.46 -0.0153623 -4.98798 0
M  V30 13877 H 1317.61 2.24992 -5.63439 0
M  V30 13878 H 1316.35 2.16041 -4.37238 0
M  V30 13879 H 1315.36 0.147989 -5.49601 0
M  V30 13880 H 1316.58 0.257454 -6.78612 0
M  V30 13881 H 1314.53 2.39615 -6.10672 0
M  V30 13882 H 1314.45 1.30077 -7.44725 0
M  V30 13883 H 1315.71 2.48842 -7.38714 0
M  V30 13884 N 1319.94 1.55134 -0.277709 0
M  V30 13885 C 1321.19 1.99259 0.337662 0
M  V30 13886 C 1321.51 1.16755 1.56183 0
M  V30 13887 O 1320.78 0.257707 1.94198 0
M  V30 13888 H 1319.36 0.735995 0.127751 0
M  V30 13889 H 1322.02 1.91087 -0.383646 0
M  V30 13890 H 1321.12 3.05763 0.625747 0
M  V30 13891 N 1321.42 0.00503138 1.57599 0
M  V30 13892 C 1322.35 -0.983586 2.11773 0
M  V30 13893 C 1323.33 -1.35518 1.02805 0
M  V30 13894 O 1324.52 -1.43804 1.30514 0
M  V30 13895 C 1321.65 -2.27383 2.62515 0
M  V30 13896 C 1320.6 -2.0437 3.76054 0
M  V30 13897 C 1319.93 -3.39451 4.1313 0
M  V30 13898 C 1321.23 -1.40223 5.03125 0
M  V30 13899 H 1322.92 -0.532501 2.94627 0
M  V30 13900 H 1320.47 -0.254696 1.4173 0
M  V30 13901 H 1322.42 -2.96903 2.99043 0
M  V30 13902 H 1321.14 -2.74614 1.7679 0
M  V30 13903 H 1319.8 -1.37275 3.39928 0
M  V30 13904 H 1319.45 -3.84395 3.24422 0
M  V30 13905 H 1319.15 -3.24868 4.89627 0
M  V30 13906 H 1320.68 -4.10279 4.52221 0
M  V30 13907 H 1322.09 -1.99708 5.37392 0
M  V30 13908 H 1320.49 -1.36112 5.8446 0
M  V30 13909 H 1321.56 -0.372073 4.8347 0
M  V30 13910 N 1322.9 -1.55308 -0.267798 0
M  V30 13911 C 1323.83 -1.8348 -1.35685 0
M  V30 13912 C 1324.81 -0.688228 -1.47317 0
M  V30 13913 O 1325.99 -0.931781 -1.6386 0
M  V30 13914 C 1323.12 -2.00103 -2.7327 0
M  V30 13915 C 1322.17 -3.22675 -2.78896 0
M  V30 13916 S 1323 -4.79895 -2.37615 0
M  V30 13917 C 1324.16 -4.99497 -3.77165 0
M  V30 13918 H 1324.39 -2.75565 -1.11585 0
M  V30 13919 H 1321.92 -1.47146 -0.467703 0
M  V30 13920 H 1323.88 -2.10364 -3.52501 0
M  V30 13921 H 1322.54 -1.08897 -2.94619 0
M  V30 13922 H 1321.73 -3.31209 -3.7989 0
M  V30 13923 H 1321.34 -3.11031 -2.07691 0
M  V30 13924 H 1323.63 -4.85558 -4.72483 0
M  V30 13925 H 1324.57 -6.01534 -3.73581 0
M  V30 13926 H 1324.98 -4.2745 -3.68709 0
M  V30 13927 N 1324.38 0.532545 -1.4833 0
M  V30 13928 C 1325.63 1.28597 -1.55908 0
M  V30 13929 C 1325.95 1.93595 -0.233635 0
M  V30 13930 O 1325.22 1.81197 0.744605 0
M  V30 13931 H 1323.8 0.477619 -0.57436 0
M  V30 13932 H 1326.46 0.619922 -1.84778 0
M  V30 13933 H 1325.55 2.0666 -2.33877 0
M  V30 13934 N 1325.86 1.36875 0.78122 0
M  V30 13935 C 1327.27 1.28236 1.35692 0
M  V30 13936 C 1327.62 -0.0742286 1.9606 0
M  V30 13937 O 1326.74 -0.97588 1.93146 0
M  V30 13938 C 1327.34 2.32215 2.46702 0
M  V30 13939 C 1325.9 2.2724 3.00065 0
M  V30 13940 C 1325.04 2.16553 1.73206 0
M  V30 13941 H 1327.99 1.47634 0.582217 0
M  V30 13942 H 1328.02 1.96333 3.25935 0
M  V30 13943 H 1327.53 3.30938 2.02735 0
M  V30 13944 H 1325.63 1.3201 3.48431 0
M  V30 13945 H 1325.74 3.20267 3.56323 0
M  V30 13946 H 1324.11 1.62941 1.95761 0
M  V30 13947 H 1324.89 3.17176 1.31356 0
M  V30 13948 N 1327.33 -1.00632 1.21289 0
M  V30 13949 C 1328.58 -1.74388 1.02932 0
M  V30 13950 C 1328.91 -1.8952 -0.437327 0
M  V30 13951 O 1328.16 -1.42551 -1.3408 0
M  V30 13952 C 1328.46 -3.1598 1.67007 0
M  V30 13953 C 1328.13 -3.208 3.16857 0
M  V30 13954 C 1326.79 -3.21823 3.57748 0
M  V30 13955 C 1329.14 -3.18147 4.12834 0
M  V30 13956 C 1326.47 -3.17877 4.93124 0
M  V30 13957 C 1328.82 -3.15743 5.48169 0
M  V30 13958 C 1327.49 -3.15074 5.88459 0
M  V30 13959 H 1326.76 -0.638133 0.376653 0
M  V30 13960 H 1329.4 -1.17953 1.50862 0
M  V30 13961 H 1327.71 -3.75639 1.11365 0
M  V30 13962 H 1329.41 -3.71764 1.50307 0
M  V30 13963 H 1326 -3.20746 2.84289 0
M  V30 13964 H 1330.18 -3.16519 3.82269 0
M  V30 13965 H 1325.44 -3.15696 5.2359 0
M  V30 13966 H 1329.61 -3.12644 6.22275 0
M  V30 13967 H 1327.24 -3.11771 6.93327 0
M  V30 13968 N 1328.81 -1.02043 -1.20104 0
M  V30 13969 C 1330.04 -0.731142 -1.94085 0
M  V30 13970 C 1330.46 0.702467 -1.74491 0
M  V30 13971 O 1329.82 1.48387 -1.04168 0
M  V30 13972 C 1329.87 -1.07691 -3.44144 0
M  V30 13973 O 1328.97 -0.190751 -4.11959 0
M  V30 13974 H 1328.31 -0.270917 -0.606218 0
M  V30 13975 H 1330.84 -1.36483 -1.52426 0
M  V30 13976 H 1330.85 -1.03023 -3.94779 0
M  V30 13977 H 1329.53 -2.1214 -3.57728 0
M  V30 13978 H 1328.1 -0.29529 -3.71729 0
M  V30 13979 N 1330.29 1.35952 -0.797165 0
M  V30 13980 C 1331.24 2.29941 -0.198995 0
M  V30 13981 C 1332.21 1.52355 0.661592 0
M  V30 13982 O 1333.39 1.80832 0.60865 0
M  V30 13983 C 1330.53 3.38846 0.654033 0
M  V30 13984 C 1329.65 4.31409 -0.225949 0
M  V30 13985 C 1328.78 5.27401 0.634188 0
M  V30 13986 C 1327.82 6.11602 -0.246773 0
M  V30 13987 N 1326.96 6.9976 0.57279 0
M  V30 13988 H 1331.8 2.80508 -1.00594 0
M  V30 13989 H 1329.33 1.38064 -0.507617 0
M  V30 13990 H 1331.29 4.00643 1.16367 0
M  V30 13991 H 1329.92 2.89578 1.42633 0
M  V30 13992 H 1328.97 3.70699 -0.853616 0
M  V30 13993 H 1330.29 4.90532 -0.904416 0
M  V30 13994 H 1329.44 5.94525 1.20933 0
M  V30 13995 H 1328.18 4.68751 1.34625 0
M  V30 13996 H 1327.18 5.43434 -0.834258 0
M  V30 13997 H 1328.41 6.72329 -0.956559 0
M  V30 13998 H 1326.35 6.43609 1.26901 0
M  V30 13999 H 1326.27 7.55985 -0.0478303 0
M  V30 14000 H 1327.54 7.71244 1.13151 0
M  V30 14001 N 1331.77 0.549846 1.47697 0
M  V30 14002 C 1332.68 -0.205286 2.337 0
M  V30 14003 C 1333.69 -0.919271 1.47734 0
M  V30 14004 O 1334.87 -0.889808 1.80678 0
M  V30 14005 C 1331.94 -1.22658 3.24278 0
M  V30 14006 C 1331 -0.520815 4.26129 0
M  V30 14007 C 1330.23 -1.49345 5.12378 0
M  V30 14008 O 1330.45 -2.72772 5.00951 0
M  V30 14009 O 1329.39 -1.02197 5.93161 0
M  V30 14010 H 1333.21 0.499982 2.99556 0
M  V30 14011 H 1330.8 0.310538 1.46137 0
M  V30 14012 H 1332.68 -1.8163 3.80248 0
M  V30 14013 H 1331.35 -1.9139 2.61059 0
M  V30 14014 H 1330.26 0.109906 3.73939 0
M  V30 14015 H 1331.59 0.124922 4.92041 0
M  V30 14016 N 1333.25 -1.54984 0.285932 0
M  V30 14017 C 1334.5 -1.99008 -0.328433 0
M  V30 14018 C 1334.81 -1.17787 -1.56158 0
M  V30 14019 O 1336.01 -1.52006 -2.24959 0
M  V30 14020 C 1334.47 -3.54241 -0.635688 0
M  V30 14021 C 1334.08 -4.44252 0.578271 0
M  V30 14022 C 1335.82 -4.06828 -1.21208 0
M  V30 14023 C 1333.73 -5.90892 0.245003 0
M  V30 14024 H 1332.66 -0.743314 -0.126494 0
M  V30 14025 H 1335.31 -1.79258 0.39228 0
M  V30 14026 H 1333.69 -3.69834 -1.41559 0
M  V30 14027 H 1334.87 -4.40431 1.35489 0
M  V30 14028 H 1333.18 -4.02358 1.07225 0
M  V30 14029 H 1335.78 -5.13941 -1.47542 0
M  V30 14030 H 1336.12 -3.56515 -2.14948 0
M  V30 14031 H 1336.65 -3.94718 -0.494222 0
M  V30 14032 H 1333.39 -6.45323 1.15057 0
M  V30 14033 H 1332.91 -5.97757 -0.494636 0
M  V30 14034 H 1334.59 -6.46805 -0.158891 0
M  V30 14035 N 1334.72 -0.0133892 -1.57594 0
M  V30 14036 C 1335.95 0.67827 -1.95149 0
M  V30 14037 C 1336.36 1.67089 -0.887572 0
M  V30 14038 O 1335.71 1.8316 0.140774 0
M  V30 14039 C 1335.77 1.45441 -3.28766 0
M  V30 14040 C 1335.43 0.621889 -4.52749 0
M  V30 14041 C 1336.43 -0.0961541 -5.19811 0
M  V30 14042 C 1334.11 0.563917 -4.99124 0
M  V30 14043 C 1336.11 -0.86101 -6.31558 0
M  V30 14044 C 1333.79 -0.204654 -6.10757 0
M  V30 14045 C 1334.79 -0.915839 -6.76832 0
M  V30 14046 O 1334.48 -1.67184 -7.86323 0
M  V30 14047 H 1334.21 0.192983 -0.647869 0
M  V30 14048 H 1336.77 -0.0646816 -2.05298 0
M  V30 14049 H 1335 2.24215 -3.15063 0
M  V30 14050 H 1336.69 2.03268 -3.51336 0
M  V30 14051 H 1337.45 -0.0606029 -4.84962 0
M  V30 14052 H 1333.33 1.10702 -4.47511 0
M  V30 14053 H 1336.87 -1.41664 -6.83064 0
M  V30 14054 H 1332.77 -0.241979 -6.45046 0
M  V30 14055 H 1333.54 -1.58996 -8.02909 0
M  V30 14056 N 1336.2 1.55448 0.259558 0
M  V30 14057 C 1337.45 1.76337 0.987396 0
M  V30 14058 C 1337.77 0.57505 1.86328 0
M  V30 14059 O 1337.04 -0.409621 1.9157 0
M  V30 14060 H 1335.62 0.650312 0.367565 0
M  V30 14061 H 1338.28 1.9287 0.280551 0
M  V30 14062 H 1337.38 2.66975 1.61651 0
M  V30 14063 N 1337.68 -0.524672 1.4861 0
M  V30 14064 C 1339.09 -1.10655 1.50374 0
M  V30 14065 C 1339.44 -1.94242 0.276512 0
M  V30 14066 O 1338.57 -2.07451 -0.615887 0
M  V30 14067 C 1339.16 -2.01348 2.72478 0
M  V30 14068 C 1337.72 -2.54743 2.77097 0
M  V30 14069 C 1336.87 -1.31822 2.43964 0
M  V30 14070 H 1339.82 -0.309674 1.55649 0
M  V30 14071 H 1339.84 -2.85709 2.51297 0
M  V30 14072 H 1339.35 -1.40485 3.61781 0
M  V30 14073 H 1337.45 -3.19313 1.92016 0
M  V30 14074 H 1337.57 -2.93514 3.78664 0
M  V30 14075 H 1335.93 -1.63574 1.95233 0
M  V30 14076 H 1336.71 -0.727026 3.35513 0
M  V30 14077 N 1339.16 -1.37287 -0.77395 0
M  V30 14078 C 1340.41 -1.31698 -1.52769 0
M  V30 14079 C 1340.72 0.0968585 -1.9536 0
M  V30 14080 O 1341.93 0.275205 -2.70102 0
M  V30 14081 C 1340.38 -2.31154 -2.75854 0
M  V30 14082 C 1339.99 -3.78055 -2.40371 0
M  V30 14083 C 1341.73 -2.34572 -3.53803 0
M  V30 14084 C 1339.64 -4.69248 -3.59945 0
M  V30 14085 H 1338.57 -0.489456 -0.573541 0
M  V30 14086 H 1341.22 -1.62735 -0.84791 0
M  V30 14087 H 1339.6 -1.93132 -3.45711 0
M  V30 14088 H 1340.78 -4.24902 -1.78312 0
M  V30 14089 H 1339.09 -3.77562 -1.75602 0
M  V30 14090 H 1341.69 -2.99908 -4.42673 0
M  V30 14091 H 1342.03 -1.35868 -3.93504 0
M  V30 14092 H 1342.57 -2.7129 -2.90941 0
M  V30 14093 H 1339.31 -5.69072 -3.25327 0
M  V30 14094 H 1338.83 -4.27108 -4.21117 0
M  V30 14095 H 1340.5 -4.86275 -4.26785 0
M  V30 14096 N 1340.64 0.999871 -1.21821 0
M  V30 14097 C 1341.57 2.10708 -1.00621 0
M  V30 14098 C 1342.55 1.69954 0.0705417 0
M  V30 14099 O 1343.73 1.9399 -0.0903042 0
M  V30 14100 C 1340.86 3.42496 -0.575646 0
M  V30 14101 C 1339.82 3.97068 -1.59754 0
M  V30 14102 C 1339.14 5.24822 -1.02304 0
M  V30 14103 C 1340.44 4.28545 -2.98574 0
M  V30 14104 H 1342.14 2.28701 -1.93226 0
M  V30 14105 H 1339.68 1.09903 -0.930443 0
M  V30 14106 H 1341.64 4.19357 -0.414481 0
M  V30 14107 H 1340.36 3.2431 0.386059 0
M  V30 14108 H 1339.02 3.22332 -1.74636 0
M  V30 14109 H 1338.67 5.02972 -0.0529016 0
M  V30 14110 H 1338.37 5.62299 -1.70567 0
M  V30 14111 H 1339.89 6.04322 -0.873312 0
M  V30 14112 H 1341.3 4.96229 -2.87106 0
M  V30 14113 H 1339.7 4.77178 -3.63897 0
M  V30 14114 H 1340.77 3.36607 -3.49032 0
M  V30 14115 N 1342.11 1.02678 1.19562 0
M  V30 14116 C 1343.02 0.615738 2.26375 0
M  V30 14117 C 1344.04 -0.351525 1.70412 0
M  V30 14118 O 1345.22 -0.209932 2.00303 0
M  V30 14119 C 1342.28 -0.0292135 3.46688 0
M  V30 14120 C 1341.34 0.985284 4.1784 0
M  V30 14121 C 1340.58 0.371016 5.32409 0
M  V30 14122 O 1340.8 -0.826591 5.64379 0
M  V30 14123 O 1339.73 1.09282 5.91896 0
M  V30 14124 H 1343.56 1.50526 2.63772 0
M  V30 14125 H 1341.14 0.796847 1.26375 0
M  V30 14126 H 1343.03 -0.38893 4.19601 0
M  V30 14127 H 1341.7 -0.892778 3.11145 0
M  V30 14128 H 1340.61 1.39655 3.47055 0
M  V30 14129 H 1341.94 1.81915 4.57349 0
M  V30 14130 N 1343.59 -1.35528 0.804364 0
M  V30 14131 C 1345.01 -1.51962 0.487831 0
M  V30 14132 C 1345.21 -1.75426 -0.991353 0
M  V30 14133 O 1344.26 -1.7944 -1.77644 0
M  V30 14134 C 1345.58 -2.69626 1.33126 0
M  V30 14135 C 1347.13 -2.83502 1.32648 0
M  V30 14136 C 1347.6 -4.04188 2.15397 0
M  V30 14137 N 1349.09 -4.11362 2.12922 0
M  V30 14138 C 1349.83 -5.03856 2.73709 0
M  V30 14139 N 1349.32 -6.01696 3.43415 0
M  V30 14140 N 1351.12 -4.96585 2.63363 0
M  V30 14141 H 1343.27 -1.18553 1.76235 0
M  V30 14142 H 1345.53 -0.57986 0.749977 0
M  V30 14143 H 1345.24 -2.58857 2.38088 0
M  V30 14144 H 1345.11 -3.64168 0.982934 0
M  V30 14145 H 1347.5 -2.93723 0.284712 0
M  V30 14146 H 1347.58 -1.89824 1.71466 0
M  V30 14147 H 1347.22 -3.94728 3.19613 0
M  V30 14148 H 1347.15 -4.97044 1.7394 0
M  V30 14149 H 1349.64 -3.41319 1.62203 0
M  V30 14150 H 1349.96 -6.68866 3.8709 0
M  V30 14151 H 1348.3 -6.01877 3.47519 0
M  V30 14152 H 1351.49 -4.19103 2.08496 0
M  V30 14153 H 1351.66 -5.68478 3.11026 0
M  V30 14154 N 1345.07 -0.557671 -1.47404 0
M  V30 14155 C 1346.32 -0.0316382 -2.01675 0
M  V30 14156 C 1346.63 1.32656 -1.43742 0
M  V30 14157 O 1347.84 1.94253 -1.89678 0
M  V30 14158 C 1346.3 -0.00606931 -3.59899 0
M  V30 14159 C 1345.9 -1.36106 -4.26825 0
M  V30 14160 C 1347.65 0.467332 -4.2192 0
M  V30 14161 C 1345.55 -1.29457 -5.77057 0
M  V30 14162 H 1344.48 -0.00805738 -0.753957 0
M  V30 14163 H 1347.14 -0.705592 -1.69392 0
M  V30 14164 H 1345.52 0.733541 -3.89147 0
M  V30 14165 H 1346.69 -2.11842 -4.09218 0
M  V30 14166 H 1345.01 -1.77243 -3.76794 0
M  V30 14167 H 1347.6 0.535478 -5.32012 0
M  V30 14168 H 1347.95 1.47942 -3.89126 0
M  V30 14169 H 1348.48 -0.217434 -3.97205 0
M  V30 14170 H 1345.22 -2.28267 -6.14471 0
M  V30 14171 H 1344.74 -0.579022 -5.96999 0
M  V30 14172 H 1346.42 -0.996834 -6.39275 0
M  V30 14173 N 1346.55 1.54831 -0.294147 0
M  V30 14174 C 1347.5 2.23263 0.58499 0
M  V30 14175 C 1348.47 1.21278 1.13494 0
M  V30 14176 O 1349.65 1.49878 1.18073 0
M  V30 14177 C 1346.79 2.97185 1.75429 0
M  V30 14178 C 1345.9 4.1393 1.23638 0
M  V30 14179 C 1345.04 4.7545 2.36899 0
M  V30 14180 C 1344.08 5.84352 1.82207 0
M  V30 14181 N 1343.22 6.39855 2.89015 0
M  V30 14182 H 1348.06 2.98 -0.00519329 0
M  V30 14183 H 1345.59 1.47093 -0.0143313 0
M  V30 14184 H 1347.55 3.38271 2.4419 0
M  V30 14185 H 1346.18 2.24837 2.3162 0
M  V30 14186 H 1345.23 3.77832 0.441247 0
M  V30 14187 H 1346.54 4.92409 0.795946 0
M  V30 14188 H 1345.7 5.19353 3.1362 0
M  V30 14189 H 1344.44 3.96288 2.84266 0
M  V30 14190 H 1343.44 5.39879 1.03974 0
M  V30 14191 H 1344.67 6.65393 1.35753 0
M  V30 14192 H 1342.61 5.6358 3.35729 0
M  V30 14193 H 1342.53 7.13661 2.49447 0
M  V30 14194 H 1343.8 6.88417 3.65654 0
M  V30 14195 N 1348.03 0.0217466 1.57585 0
M  V30 14196 C 1348.99 -0.947546 2.08696 0
M  V30 14197 C 1349.99 -1.25879 1.00055 0
M  V30 14198 O 1351.18 -1.20035 1.26242 0
M  V30 14199 C 1348.31 -2.26624 2.54665 0
M  V30 14200 H 1349.51 -0.505016 2.95617 0
M  V30 14201 H 1347.06 -0.226152 1.54655 0
M  V30 14202 H 1347.79 -2.75521 1.71052 0
M  V30 14203 H 1347.58 -2.05347 3.34028 0
M  V30 14204 H 1349.07 -2.96114 2.94459 0
M  V30 14205 N 1349.51 -1.55583 -0.251311 0
M  V30 14206 C 1350.42 -1.93073 -1.33266 0
M  V30 14207 C 1351.43 -0.830612 -1.52895 0
M  V30 14208 O 1352.61 -1.13162 -1.66602 0
M  V30 14209 C 1349.67 -2.21396 -2.66805 0
M  V30 14210 C 1348.73 -3.44815 -2.55737 0
M  V30 14211 C 1347.97 -3.71777 -3.82907 0
M  V30 14212 O 1348.19 -3.00884 -4.84587 0
M  V30 14213 O 1347.12 -4.65305 -3.81805 0
M  V30 14214 H 1350.95 -2.85168 -1.04465 0
M  V30 14215 H 1348.53 -1.42408 -0.451693 0
M  V30 14216 H 1350.42 -2.4094 -3.45725 0
M  V30 14217 H 1349.09 -1.3248 -2.95348 0
M  V30 14218 H 1348 -3.30582 -1.75118 0
M  V30 14219 H 1349.33 -4.34019 -2.32139 0
M  V30 14220 N 1350.98 0.516783 -1.48886 0
M  V30 14221 C 1352.23 1.26936 -1.57263 0
M  V30 14222 C 1352.55 1.93337 -0.254156 0
M  V30 14223 O 1351.82 1.81977 0.725345 0
M  V30 14224 H 1350.4 0.4715 -0.579393 0
M  V30 14225 H 1353.06 0.600289 -1.85425 0
M  V30 14226 H 1352.16 2.04167 -2.36055 0
M  V30 14227 N 1352.46 1.37696 0.766659 0
M  V30 14228 C 1353.71 1.32507 1.52069 0
M  V30 14229 C 1354.02 -0.0864967 1.95409 0
M  V30 14230 O 1355.23 -0.260877 2.70244 0
M  V30 14231 C 1353.69 2.32614 2.74625 0
M  V30 14232 C 1353.29 3.79325 2.38363 0
M  V30 14233 C 1355.04 2.36445 3.52554 0
M  V30 14234 C 1352.94 4.7115 3.57451 0
M  V30 14235 H 1351.87 0.492491 0.570937 0
M  V30 14236 H 1354.53 1.63183 0.839268 0
M  V30 14237 H 1352.91 1.94963 3.44682 0
M  V30 14238 H 1354.08 4.25841 1.76056 0
M  V30 14239 H 1352.4 3.78488 1.73597 0
M  V30 14240 H 1354.99 3.02252 4.41076 0
M  V30 14241 H 1355.34 1.37953 3.92778 0
M  V30 14242 H 1355.87 2.72829 2.89498 0
M  V30 14243 H 1352.61 5.70789 3.22304 0
M  V30 14244 H 1352.13 4.29335 4.18846 0
M  V30 14245 H 1353.81 4.88532 4.242 0
M  V30 14246 N 1353.94 -0.993397 1.22349 0
M  V30 14247 C 1355.19 -1.72707 1.04189 0
M  V30 14248 C 1355.5 -1.90963 -0.423381 0
M  V30 14249 O 1356.71 -2.61651 -0.724645 0
M  V30 14250 C 1355.16 -3.10739 1.81575 0
M  V30 14251 C 1354.77 -3.00415 3.32347 0
M  V30 14252 C 1356.52 -3.88155 1.71861 0
M  V30 14253 C 1354.42 -4.33598 4.02177 0
M  V30 14254 H 1353.35 -0.647556 0.386248 0
M  V30 14255 H 1356 -1.10902 1.46195 0
M  V30 14256 H 1354.39 -3.73222 1.32367 0
M  V30 14257 H 1355.56 -2.47099 3.88946 0
M  V30 14258 H 1353.87 -2.36482 3.42732 0
M  V30 14259 H 1356.47 -4.8673 2.21354 0
M  V30 14260 H 1356.81 -4.10726 0.678939 0
M  V30 14261 H 1357.35 -3.32347 2.18609 0
M  V30 14262 H 1354.09 -4.16226 5.06395 0
M  V30 14263 H 1353.61 -4.86829 3.50367 0
M  V30 14264 H 1355.29 -5.02348 4.07744 0
M  V30 14265 N 1355.42 -1.03311 -1.19015 0
M  V30 14266 C 1356.65 -0.750712 -1.92478 0
M  V30 14267 C 1357.06 0.694964 -1.75974 0
M  V30 14268 O 1356.4 1.4847 -1.08177 0
M  V30 14269 C 1356.46 -1.02757 -3.44501 0
M  V30 14270 C 1356.12 -2.46565 -3.84779 0
M  V30 14271 C 1357.12 -3.44716 -3.89187 0
M  V30 14272 C 1354.81 -2.81076 -4.16295 0
M  V30 14273 C 1356.8 -4.75433 -4.24549 0
M  V30 14274 C 1354.49 -4.12002 -4.51329 0
M  V30 14275 C 1355.49 -5.08991 -4.55431 0
M  V30 14276 O 1355.17 -6.37571 -4.89652 0
M  V30 14277 H 1354.91 -0.273717 -0.618106 0
M  V30 14278 H 1357.46 -1.38176 -1.51975 0
M  V30 14279 H 1355.69 -0.339383 -3.85208 0
M  V30 14280 H 1357.38 -0.734175 -3.99205 0
M  V30 14281 H 1358.14 -3.19392 -3.64985 0
M  V30 14282 H 1354.02 -2.0626 -4.12284 0
M  V30 14283 H 1357.57 -5.51133 -4.27666 0
M  V30 14284 H 1353.46 -4.37098 -4.7499 0
M  V30 14285 H 1354.23 -6.42107 -5.07583 0
M  V30 14286 N 1356.9 1.35099 -0.81154 0
M  V30 14287 C 1358.12 2.0286 -0.406855 0
M  V30 14288 C 1358.54 1.61147 0.98372 0
M  V30 14289 O 1357.9 0.811398 1.6347 0
M  V30 14290 C 1357.95 3.58214 -0.486305 0
M  V30 14291 O 1357.67 3.98412 -1.82206 0
M  V30 14292 C 1359.17 4.43236 -0.0750619 0
M  V30 14293 H 1356.39 0.650482 -0.164664 0
M  V30 14294 H 1358.93 1.72616 -1.09654 0
M  V30 14295 H 1357.09 3.87089 0.155177 0
M  V30 14296 H 1357.5 4.93072 -1.78831 0
M  V30 14297 H 1358.98 5.51701 -0.181759 0
M  V30 14298 H 1359.45 4.28123 0.980169 0
M  V30 14299 H 1360.06 4.19667 -0.689894 0
M  V30 14300 N 1358.37 0.56548 1.47106 0
M  V30 14301 C 1359.6 0.0496298 2.0684 0
M  V30 14302 C 1360.02 -1.24777 1.4169 0
M  V30 14303 O 1359.37 -1.75046 0.516239 0
M  V30 14304 C 1359.42 -0.140987 3.61225 0
M  V30 14305 O 1359.15 1.10504 4.23934 0
M  V30 14306 C 1360.65 -0.693171 4.37847 0
M  V30 14307 H 1357.87 0.0496018 0.669164 0
M  V30 14308 H 1360.41 0.781247 1.88989 0
M  V30 14309 H 1358.57 -0.822762 3.78562 0
M  V30 14310 H 1358.98 0.907978 5.16581 0
M  V30 14311 H 1360.45 -0.7758 5.46521 0
M  V30 14312 H 1360.93 -1.70632 4.04699 0
M  V30 14313 H 1361.54 -0.046826 4.25274 0
M  V30 14314 N 1359.85 -1.54672 0.302354 0
M  V30 14315 C 1360.78 -2.21021 -0.606828 0
M  V30 14316 C 1361.8 -1.20337 -1.09648 0
M  V30 14317 O 1362.99 -1.46923 -1.0137 0
M  V30 14318 C 1360.09 -2.84411 -1.84293 0
M  V30 14319 C 1359.26 -4.11038 -1.49554 0
M  V30 14320 C 1358.32 -4.58219 -2.58693 0
M  V30 14321 O 1357.34 -5.23387 -2.23728 0
M  V30 14322 N 1358.55 -4.30651 -3.89256 0
M  V30 14323 H 1361.31 -2.99675 -0.0388221 0
M  V30 14324 H 1358.87 -1.6142 0.124614 0
M  V30 14325 H 1360.86 -3.12906 -2.56655 0
M  V30 14326 H 1359.43 -2.09589 -2.31929 0
M  V30 14327 H 1358.65 -3.89538 -0.604492 0
M  V30 14328 H 1359.94 -4.93488 -1.23884 0
M  V30 14329 H 1359.34 -3.78445 -4.20471 0
M  V30 14330 H 1357.9 -4.63853 -4.57913 0
M  V30 14331 N 1361.33 -0.0301034 -1.57571 0
M  V30 14332 C 1362.56 0.662045 -1.9655 0
M  V30 14333 C 1362.98 1.64811 -0.906581 0
M  V30 14334 O 1362.34 1.80816 0.132415 0
M  V30 14335 C 1362.39 1.34389 -3.34622 0
M  V30 14336 O 1361.49 2.45919 -3.31056 0
M  V30 14337 H 1360.83 0.173842 -0.640839 0
M  V30 14338 H 1363.36 -0.092248 -2.04392 0
M  V30 14339 H 1363.37 1.70045 -3.70875 0
M  V30 14340 H 1362.05 0.621092 -4.11236 0
M  V30 14341 H 1360.62 2.12367 -3.06521 0
M  V30 14342 N 1362.81 1.55714 0.243056 0
M  V30 14343 C 1364.04 1.81786 0.98801 0
M  V30 14344 C 1364.45 0.606352 1.78798 0
M  V30 14345 O 1363.81 -0.425018 1.77482 0
M  V30 14346 C 1363.86 3.06121 1.92281 0
M  V30 14347 O 1363.58 4.22595 1.15521 0
M  V30 14348 C 1365.08 3.45021 2.78344 0
M  V30 14349 H 1362.3 0.604829 0.290557 0
M  V30 14350 H 1364.85 2.02779 0.26478 0
M  V30 14351 H 1363 2.87167 2.60027 0
M  V30 14352 H 1363.41 4.93088 1.78786 0
M  V30 14353 H 1364.89 4.35112 3.39678 0
M  V30 14354 H 1365.37 2.65782 3.49652 0
M  V30 14355 H 1365.97 3.66339 2.16045 0
M  V30 14356 N 1364.29 -0.50888 1.49158 0
M  V30 14357 C 1365.54 -1.26008 1.57496 0
M  V30 14358 C 1365.85 -1.9382 0.263281 0
M  V30 14359 O 1367.05 -2.70565 0.225117 0
M  V30 14360 C 1365.51 -2.28752 2.7785 0
M  V30 14361 C 1365.12 -1.66915 4.15744 0
M  V30 14362 C 1366.86 -3.0475 2.95513 0
M  V30 14363 C 1364.77 -2.67724 5.27331 0
M  V30 14364 H 1363.7 -0.473984 0.586392 0
M  V30 14365 H 1366.35 -0.534886 1.75531 0
M  V30 14366 H 1364.73 -3.044 2.53292 0
M  V30 14367 H 1365.91 -0.973131 4.50407 0
M  V30 14368 H 1364.22 -1.03336 4.03374 0
M  V30 14369 H 1366.82 -3.80121 3.76048 0
M  V30 14370 H 1367.16 -3.6189 2.05771 0
M  V30 14371 H 1367.69 -2.36217 3.20072 0
M  V30 14372 H 1364.43 -2.15375 6.19107 0
M  V30 14373 H 1363.95 -3.35589 4.97132 0
M  V30 14374 H 1365.63 -3.30304 5.56335 0
M  V30 14375 N 1365.76 -1.381 -0.759346 0
M  V30 14376 C 1366.71 -1.34866 -1.87296 0
M  V30 14377 C 1367.68 -0.212139 -1.6474 0
M  V30 14378 O 1368.87 -0.403464 -1.86485 0
M  V30 14379 C 1366.01 -1.17383 -3.24523 0
M  V30 14380 C 1365.12 -2.40372 -3.5895 0
M  V30 14381 C 1364.25 -2.15665 -4.8545 0
M  V30 14382 C 1363.29 -3.34455 -5.12646 0
M  V30 14383 N 1362.43 -3.0922 -6.30339 0
M  V30 14384 H 1367.27 -2.30072 -1.89396 0
M  V30 14385 H 1364.81 -1.14314 -0.925788 0
M  V30 14386 H 1366.77 -1.05264 -4.03702 0
M  V30 14387 H 1365.4 -0.258182 -3.21766 0
M  V30 14388 H 1364.45 -2.63185 -2.74659 0
M  V30 14389 H 1365.76 -3.28926 -3.74978 0
M  V30 14390 H 1364.91 -2.00649 -5.7256 0
M  V30 14391 H 1363.65 -1.24467 -4.7155 0
M  V30 14392 H 1362.66 -3.49997 -4.24007 0
M  V30 14393 H 1363.88 -4.26521 -5.28448 0
M  V30 14394 H 1361.83 -2.20664 -6.17773 0
M  V30 14395 H 1361.75 -3.91321 -6.46841 0
M  V30 14396 H 1363.01 -2.97847 -7.20352 0
M  V30 14397 N 1367.24 0.986894 -1.22875 0
M  V30 14398 C 1368.65 1.54182 -1.05284 0
M  V30 14399 C 1369 1.92448 0.381856 0
M  V30 14400 O 1368.13 1.75381 1.26769 0
M  V30 14401 C 1368.72 2.80173 -1.90496 0
M  V30 14402 C 1367.28 3.32088 -1.77185 0
M  V30 14403 C 1366.43 2.05128 -1.86596 0
M  V30 14404 H 1369.38 0.807304 -1.36632 0
M  V30 14405 H 1369.4 3.52772 -1.42591 0
M  V30 14406 H 1368.91 2.52291 -2.94908 0
M  V30 14407 H 1367.02 3.64864 -0.755295 0
M  V30 14408 H 1367.13 4.02285 -2.60199 0
M  V30 14409 H 1365.49 2.18964 -1.30103 0
M  V30 14410 H 1366.28 1.79635 -2.92551 0
M  V30 14411 O 1368.76 1.16517 1.1183 0
M  V30 14412 H 1369.45 0.897764 1.71639 0
M  V30 END ATOM
M  V30 BEGIN BOND
M  V30 END BOND
M  V30 END CTAB
M  END
$$$$
