drugbank_target|Q9UDX4 SEC14-like protein 3 (DB00163; DB14001; DB14002)
 OpenBabel12092119293D

  0  0  0     0  0            999 V3000
M  V30 BEGIN CTAB
M  V30 COUNTS 6474 6552 0 0 0
M  V30 BEGIN ATOM
M  V30 1 H -0.908 1.98254 -0.117106 0
M  V30 2 N 0 1.576 0 0
M  V30 3 C 0.933 2.03868 1.02534 0
M  V30 4 C 1.911 0.928543 1.3348 0
M  V30 5 O 3.095 1.19667 1.45644 0
M  V30 6 C 0.222 2.43627 2.35294 0
M  V30 7 C -0.732 3.65373 2.2001 0
M  V30 8 S 0.101 5.13292 1.52614 0
M  V30 9 C 1.257 5.56322 2.86805 0
M  V30 10 H 1.49 2.90518 0.631377 0
M  V30 11 H -0.977 1.52953 0.210867 0
M  V30 12 H 0.981 2.67203 3.11629 0
M  V30 13 H -0.358 1.57376 2.7183 0
M  V30 14 H -1.165 3.90944 3.18086 0
M  V30 15 H -1.563 3.418 1.51819 0
M  V30 16 H 0.729 5.58782 3.83104 0
M  V30 17 H 1.672 6.56266 2.65933 0
M  V30 18 H 2.08 4.83886 2.90714 0
M  V30 19 N 1.4781 -0.272755 1.55222 0
M  V30 20 C 2.7031 -1.02683 1.80197 0
M  V30 21 C 3.1281 -1.79142 0.573551 0
M  V30 22 O 2.4861 -1.74917 -0.476849 0
M  V30 23 C 2.5341 -1.9609 3.02624 0
M  V30 24 O 1.6381 -3.04863 2.77727 0
M  V30 25 H 0.9791 -0.293557 0.595584 0
M  V30 26 H 3.5091 -0.30159 2.02365 0
M  V30 27 H 3.5191 -2.38039 3.31363 0
M  V30 28 H 2.1941 -1.39851 3.91682 0
M  V30 29 H 0.7711 -2.67228 2.60084 0
M  V30 30 N 2.9562 -1.48159 -0.537278 0
M  V30 31 C 4.2042 -1.55497 -1.29094 0
M  V30 32 C 4.5252 -0.227454 -1.93669 0
M  V30 33 O 3.7952 0.750386 -1.80959 0
M  V30 34 H 2.3752 -0.572832 -0.47945 0
M  V30 35 H 5.0372 -1.84579 -0.625818 0
M  V30 36 H 4.1332 -2.33216 -2.07405 0
M  V30 37 N 4.4343 0.785586 -1.36625 0
M  V30 38 C 5.8503 1.08419 -1.17122 0
M  V30 39 C 6.0503 2.015 0.00208491 0
M  V30 40 O 5.1063 2.43551 0.666278 0
M  V30 41 C 6.4193 1.69498 -2.48377 0
M  V30 42 C 7.9673 1.81821 -2.54775 0
M  V30 43 C 8.4423 2.46315 -3.86126 0
M  V30 44 N 9.9333 2.53779 -3.87492 0
M  V30 45 C 10.6683 3.045 -4.85868 0
M  V30 46 N 10.1643 3.55499 -5.94637 0
M  V30 47 N 11.9573 3.03247 -4.73284 0
M  V30 48 H 4.1083 0.167264 -2.1174 0
M  V30 49 H 6.3713 0.13682 -0.938075 0
M  V30 50 H 6.0773 1.08571 -3.34522 0
M  V30 51 H 5.9513 2.6896 -2.64462 0
M  V30 52 H 8.3383 2.41884 -1.69045 0
M  V30 53 H 8.4193 0.811532 -2.42586 0
M  V30 54 H 8.0633 1.86895 -4.72263 0
M  V30 55 H 7.9933 3.47561 -3.95612 0
M  V30 56 H 10.4843 2.17672 -3.08913 0
M  V30 57 H 10.7973 3.92562 -6.65669 0
M  V30 58 H 9.1423 3.5364 -5.98301 0
M  V30 59 H 12.3333 2.62696 -3.87438 0
M  V30 60 H 12.5063 3.42467 -5.50109 0
M  V30 61 N 5.9124 1.20967 1.01018 0
M  V30 62 C 7.1584 1.02526 1.74975 0
M  V30 63 C 7.4914 -0.4408 1.89131 0
M  V30 64 O 6.7664 -1.32718 1.42184 0
M  V30 65 C 7.0494 1.71699 3.1653 0
M  V30 66 C 6.9024 3.25791 3.10129 0
M  V30 67 C 8.2214 1.45531 4.15342 0
M  V30 68 H 5.3404 0.373863 0.635134 0
M  V30 69 H 7.9824 1.49071 1.17805 0
M  V30 70 H 6.1324 1.32128 3.65341 0
M  V30 71 H 7.8044 3.74697 2.69072 0
M  V30 72 H 6.0474 3.56363 2.47362 0
M  V30 73 H 6.7184 3.69353 4.10222 0
M  V30 74 H 9.1944 1.79872 3.75213 0
M  V30 75 H 8.0704 1.96453 5.1254 0
M  V30 76 H 8.3314 0.384237 4.40427 0
M  V30 77 N 7.3905 -1.2043 1.01659 0
M  V30 78 C 8.6385 -1.89423 0.704522 0
M  V30 79 C 8.9595 -1.79231 -0.768197 0
M  V30 80 O 8.2295 -1.1947 -1.55254 0
M  V30 81 H 6.8095 -0.701178 0.257602 0
M  V30 82 H 9.4715 -1.4626 1.28818 0
M  V30 83 H 8.5675 -2.96052 0.987916 0
M  V30 84 N 8.8686 -0.792821 -1.36206 0
M  V30 85 C 10.1456 -0.290627 -1.93429 0
M  V30 86 C 10.5256 1.21773 -1.72437 0
M  V30 87 O 9.8736 2.0108 -1.08531 0
M  V30 88 C 10.0836 -0.686973 -3.42172 0
M  V30 89 C 11.4316 -0.668643 -4.19302 0
M  V30 90 O 12.4556 -0.627658 -3.50626 0
M  V30 91 O 11.3146 -0.714597 -5.41808 0
M  V30 92 H 8.4086 -0.0727927 -0.82379 0
M  V30 93 H 10.9546 -0.875593 -1.45367 0
M  V30 94 H 9.7266 -1.72711 -3.51122 0
M  V30 95 H 9.3496 -0.0760733 -3.97527 0
M  V30 96 N 10.3467 1.47872 -0.545128 0
M  V30 97 C 11.2767 2.32661 0.197793 0
M  V30 98 C 12.2577 1.43041 0.920504 0
M  V30 99 O 13.4427 1.71912 0.90333 0
M  V30 100 C 10.5727 3.24569 1.23582 0
M  V30 101 C 9.5267 4.23333 0.630323 0
M  V30 102 C 8.8527 5.0448 1.77211 0
M  V30 103 C 10.1527 5.20704 -0.407974 0
M  V30 104 H 11.8467 2.95024 -0.510045 0
M  V30 105 H 9.3927 1.4187 -0.246731 0
M  V30 106 H 11.3457 3.8272 1.76362 0
M  V30 107 H 10.0697 2.60236 1.97344 0
M  V30 108 H 8.7287 3.6639 0.123922 0
M  V30 109 H 8.3767 4.36561 2.49847 0
M  V30 110 H 8.0767 5.71339 1.37281 0
M  V30 111 H 9.6007 5.65487 2.3034 0
M  V30 112 H 11.0147 5.7329 0.033305 0
M  V30 113 H 9.4117 5.95699 -0.725486 0
M  V30 114 H 10.4817 4.66917 -1.30828 0
M  V30 115 N 11.8248 0.280983 1.55075 0
M  V30 116 C 13.0498 -0.340154 2.04592 0
M  V30 117 C 13.4748 -1.48246 1.15779 0
M  V30 118 O 12.8328 -1.80614 0.15761 0
M  V30 119 C 12.8808 -0.793104 3.5177 0
M  V30 120 O 11.9848 -1.89981 3.66034 0
M  V30 121 H 11.3258 -0.0694289 0.66036 0
M  V30 122 H 13.8558 0.416993 2.00306 0
M  V30 123 H 13.8658 -1.08729 3.93245 0
M  V30 124 H 12.5408 0.0426163 4.15878 0
M  V30 125 H 11.1178 -1.60771 3.36463 0
M  V30 126 N 13.3029 -1.57598 0.00835791 0
M  V30 127 C 14.7139 -1.7892 -0.53333 0
M  V30 128 C 15.0649 -0.916609 -1.73473 0
M  V30 129 O 14.1899 -0.121336 -2.1606 0
M  V30 130 C 14.7849 -3.24488 -0.974313 0
M  V30 131 C 13.3439 -3.46878 -1.46125 0
M  V30 132 C 12.4909 -2.74157 -0.416302 0
M  V30 133 H 15.4419 -1.56958 0.234495 0
M  V30 134 H 15.4629 -3.3306 -1.83988 0
M  V30 135 H 14.9749 -3.87972 -0.099718 0
M  V30 136 H 13.0759 -2.8862 -2.35646 0
M  V30 137 H 13.1889 -4.55572 -1.48295 0
M  V30 138 H 11.5529 -2.39022 -0.87981 0
M  V30 139 H 12.3359 -3.40345 0.44947 0
M  V30 140 N 14.781 0.264519 -1.55364 0
M  V30 141 C 15.728 1.32717 -1.88825 0
M  V30 142 C 16.698 1.48675 -0.740605 0
M  V30 143 O 17.883 1.62945 -0.992657 0
M  V30 144 C 15.023 2.68089 -2.17307 0
M  V30 145 C 14.136 2.60284 -3.44785 0
M  V30 146 C 13.271 3.87892 -3.62924 0
M  V30 147 C 12.31 3.74631 -4.84064 0
M  V30 148 N 11.447 4.94092 -4.98816 0
M  V30 149 H 16.287 1.03481 -2.79456 0
M  V30 150 H 13.824 0.499757 -1.3835 0
M  V30 151 H 15.782 3.46864 -2.31821 0
M  V30 152 H 14.412 2.95509 -1.299 0
M  V30 153 H 13.464 1.73173 -3.38697 0
M  V30 154 H 14.776 2.46388 -4.33698 0
M  V30 155 H 13.93 4.75109 -3.77302 0
M  V30 156 H 12.669 4.04664 -2.7221 0
M  V30 157 H 11.674 2.85797 -4.69681 0
M  V30 158 H 12.899 3.5937 -5.76221 0
M  V30 159 H 10.845 5.11259 -4.11036 0
M  V30 160 H 10.762 4.8276 -5.81789 0
M  V30 161 H 12.03 5.82857 -5.17588 0
M  V30 162 N 16.2591 1.48442 0.529413 0
M  V30 163 C 17.1911 1.59095 1.64989 0
M  V30 164 C 18.2041 0.475212 1.5571 0
M  V30 165 O 19.3931 0.746081 1.6216 0
M  V30 166 C 16.4931 1.50518 3.0364 0
M  V30 167 C 15.6661 2.77142 3.38395 0
M  V30 168 C 14.7251 2.62012 4.56329 0
M  V30 169 O 13.7511 3.35898 4.59522 0
M  V30 170 N 14.9531 1.71667 5.54536 0
M  V30 171 H 17.7181 2.55723 1.56287 0
M  V30 172 H 15.2791 1.45173 0.716697 0
M  V30 173 H 17.2711 1.38091 3.80412 0
M  V30 174 H 15.8411 0.618627 3.06418 0
M  V30 175 H 15.0611 3.0413 2.50796 0
M  V30 176 H 16.3491 3.61146 3.58401 0
M  V30 177 H 15.7471 1.10841 5.54735 0
M  V30 178 H 14.3041 1.65178 6.30523 0
M  V30 179 N 17.7372 -0.778329 1.37039 0
M  V30 180 C 18.7002 -1.87301 1.32102 0
M  V30 181 C 19.7002 -1.59198 0.226405 0
M  V30 182 O 20.8902 -1.67403 0.481861 0
M  V30 183 C 18.0222 -3.24309 1.05055 0
M  V30 184 H 19.2152 -1.93093 2.29467 0
M  V30 185 H 16.7682 -0.977358 1.21973 0
M  V30 186 H 17.5032 -3.24196 0.0819373 0
M  V30 187 H 17.2882 -3.46098 1.84279 0
M  V30 188 H 18.7782 -4.04382 1.04234 0
M  V30 189 N 19.2153 -1.21501 -1.00376 0
M  V30 190 C 20.1253 -0.991447 -2.12621 0
M  V30 191 C 21.1413 0.0568446 -1.73907 0
M  V30 192 O 22.3173 -0.13348 -2.00957 0
M  V30 193 C 19.3823 -0.560312 -3.42142 0
M  V30 194 C 18.4433 -1.68096 -3.95022 0
M  V30 195 C 17.6763 -1.2703 -5.18362 0
M  V30 196 O 17.8993 -0.144438 -5.70217 0
M  V30 197 O 16.8333 -2.08269 -5.64719 0
M  V30 198 H 20.6593 -1.93158 -2.34358 0
M  V30 199 H 18.2443 -0.999999 -1.10997 0
M  V30 200 H 20.1263 -0.329724 -4.20108 0
M  V30 201 H 18.8013 0.351089 -3.2179 0
M  V30 202 H 17.7083 -1.96597 -3.18278 0
M  V30 203 H 19.0413 -2.56983 -4.19786 0
M  V30 204 N 20.6934 1.19889 -1.02296 0
M  V30 205 C 21.9214 1.9339 -0.735399 0
M  V30 206 C 22.3364 1.75148 0.704887 0
M  V30 207 O 21.6934 1.06954 1.47875 0
M  V30 208 C 21.7444 3.45313 -1.06962 0
M  V30 209 O 21.4654 3.62964 -2.45334 0
M  V30 210 C 22.9664 4.35948 -0.804021 0
M  V30 211 H 20.1864 0.61448 -0.269546 0
M  V30 212 H 22.7304 1.522 -1.36585 0
M  V30 213 H 20.8854 3.84359 -0.484455 0
M  V30 214 H 21.2994 4.56886 -2.57595 0
M  V30 215 H 22.7734 5.41174 -1.0879 0
M  V30 216 H 23.2504 4.3842 0.261691 0
M  V30 217 H 23.8564 4.02574 -1.37164 0
M  V30 218 N 22.1715 0.800033 1.35784 0
M  V30 219 C 23.1015 0.220184 2.3246 0
M  V30 220 C 24.0825 -0.65073 1.57161 0
M  V30 221 O 25.2675 -0.582359 1.85263 0
M  V30 222 C 22.3975 -0.637353 3.41402 0
M  V30 223 C 21.3515 0.134531 4.27789 0
M  V30 224 C 20.6775 -0.844285 5.27992 0
M  V30 225 C 21.9775 1.32979 5.05088 0
M  V30 226 H 23.6715 1.02787 2.81203 0
M  V30 227 H 21.2175 0.495717 1.35199 0
M  V30 228 H 23.1705 -1.05302 4.08031 0
M  V30 229 H 21.8945 -1.47785 2.91251 0
M  V30 230 H 20.5535 0.531296 3.6273 0
M  V30 231 H 20.2015 -1.68011 4.74111 0
M  V30 232 H 19.9015 -0.332184 5.8666 0
M  V30 233 H 21.4255 -1.2583 5.97494 0
M  V30 234 H 22.8395 0.98934 5.64699 0
M  V30 235 H 21.2365 1.77593 5.7322 0
M  V30 236 H 22.3065 2.11978 4.36111 0
M  V30 237 N 23.6496 -1.47581 0.552962 0
M  V30 238 C 24.6126 -2.28439 -0.186605 0
M  V30 239 C 25.6126 -1.36706 -0.84665 0
M  V30 240 O 26.8026 -1.59378 -0.703164 0
M  V30 241 C 23.9346 -3.16264 -1.2724 0
M  V30 242 H 25.1276 -2.95294 0.523609 0
M  V30 243 H 22.6806 -1.532 0.309745 0
M  V30 244 H 23.4156 -2.54091 -2.01514 0
M  V30 245 H 23.2006 -3.83769 -0.803968 0
M  V30 246 H 24.6906 -3.77198 -1.79196 0
M  V30 247 N 25.1277 -0.289203 -1.54924 0
M  V30 248 C 26.0747 0.592115 -2.23075 0
M  V30 249 C 27.0447 1.13881 -1.20915 0
M  V30 250 O 28.2297 1.18551 -1.495 0
M  V30 251 C 25.3697 1.76376 -2.96623 0
M  V30 252 C 24.4827 1.24959 -4.13533 0
M  V30 253 C 23.6177 2.38416 -4.74691 0
M  V30 254 C 22.6567 1.84072 -5.83767 0
M  V30 255 N 21.7937 2.91057 -6.38929 0
M  V30 256 H 26.6337 0.00432038 -2.98 0
M  V30 257 H 24.1707 -0.00963529 -1.47097 0
M  V30 258 H 26.1287 2.45268 -3.3749 0
M  V30 259 H 24.7587 2.32337 -2.24097 0
M  V30 260 H 23.8107 0.453307 -3.77689 0
M  V30 261 H 25.1227 0.811662 -4.92152 0
M  V30 262 H 24.2767 3.15276 -5.18349 0
M  V30 263 H 23.0157 2.8553 -3.95378 0
M  V30 264 H 22.0207 1.05697 -5.39545 0
M  V30 265 H 23.2457 1.37877 -6.64956 0
M  V30 266 H 21.1917 3.37526 -5.62505 0
M  V30 267 H 21.1087 2.51724 -7.12861 0
M  V30 268 H 22.3767 3.6785 -6.87246 0
M  V30 269 N 26.6058 1.57591 -0.0167156 0
M  V30 270 C 27.8528 1.91283 0.664597 0
M  V30 271 C 28.1808 0.891949 1.72842 0
M  V30 272 O 27.4358 -0.100931 1.9544 0
M  V30 273 C 27.7348 3.3172 1.33029 0
M  V30 274 C 27.4008 4.4914 0.398047 0
M  V30 275 C 26.0628 4.80992 0.141421 0
M  V30 276 C 28.4148 5.20634 -0.242825 0
M  V30 277 C 25.7428 5.81703 -0.764092 0
M  V30 278 C 28.0948 6.22311 -1.13632 0
M  V30 279 C 26.7588 6.52611 -1.40196 0
M  V30 280 H 26.0288 0.699956 0.243193 0
M  V30 281 H 28.6758 1.9135 -0.0758267 0
M  V30 282 H 26.9808 3.27856 2.14517 0
M  V30 283 H 28.6778 3.55055 1.86379 0
M  V30 284 H 25.2678 4.24262 0.608238 0
M  V30 285 H 29.4518 4.96267 -0.0576019 0
M  V30 286 H 24.7078 6.03532 -0.977732 0
M  V30 287 H 28.8818 6.76834 -1.63917 0
M  V30 288 H 26.5088 7.30467 -2.10529 0
M  V30 289 N 28.0839 -0.256276 1.55502 0
M  V30 290 C 29.4999 -0.604325 1.47716 0
M  V30 291 C 29.6999 -1.88763 0.705039 0
M  V30 292 O 28.7559 -2.51445 0.230613 0
M  V30 293 C 30.0689 -0.715756 2.92057 0
M  V30 294 C 31.6169 -0.808706 3.02372 0
M  V30 295 C 32.0919 -0.951777 4.48001 0
M  V30 296 N 33.5829 -1.01688 4.519 0
M  V30 297 C 34.3179 -1.14668 5.61817 0
M  V30 298 N 33.8139 -1.24261 6.81565 0
M  V30 299 N 35.6069 -1.1791 5.49594 0
M  V30 300 H 27.7579 0.586291 2.04148 0
M  V30 301 H 30.0209 0.201015 0.926443 0
M  V30 302 H 29.7269 0.157027 3.51349 0
M  V30 303 H 29.6009 -1.59071 3.42018 0
M  V30 304 H 31.9879 -1.67195 2.43166 0
M  V30 305 H 32.0689 0.0912063 2.55637 0
M  V30 306 H 31.7129 -0.0931291 5.07815 0
M  V30 307 H 31.6429 -1.86659 4.92408 0
M  V30 308 H 34.1339 -0.954468 3.65648 0
M  V30 309 H 34.4469 -1.34046 7.61086 0
M  V30 310 H 32.7919 -1.21236 6.84344 0
M  V30 311 H 35.9829 -1.10057 4.54978 0
M  V30 312 H 36.1559 -1.27681 6.35296 0
M  V30 313 N 29.562 -1.4872 -0.521534 0
M  V30 314 C 30.472 -1.66569 -1.65203 0
M  V30 315 C 31.488 -0.548197 -1.65139 0
M  V30 316 O 32.664 -0.820339 -1.83936 0
M  V30 317 C 29.729 -1.70917 -3.01642 0
M  V30 318 C 28.79 -2.94356 -3.12495 0
M  V30 319 C 28.023 -2.98487 -4.42426 0
M  V30 320 O 28.246 -2.10786 -5.30024 0
M  V30 321 O 27.18 -3.90746 -4.57822 0
M  V30 322 H 31.006 -2.62298 -1.5308 0
M  V30 323 H 28.591 -1.3222 -0.695565 0
M  V30 324 H 30.473 -1.7625 -3.82771 0
M  V30 325 H 29.148 -0.783633 -3.14071 0
M  V30 326 H 28.055 -2.94552 -2.3063 0
M  V30 327 H 29.388 -3.86322 -3.04986 0
M  V30 328 N 31.0401 0.771051 -1.3745 0
M  V30 329 C 31.9881 1.90574 -1.33358 0
M  V30 330 C 32.9821 1.67936 -0.22224 0
M  V30 331 O 34.1881 1.75717 -0.390304 0
M  V30 332 H 30.5631 0.626714 -0.415612 0
M  V30 333 H 32.5341 1.91142 -2.29144 0
M  V30 334 C 31.2831 3.27845 -1.15813 0
M  V30 335 H 30.6061 3.45842 -2.00583 0
M  V30 336 H 32.0461 4.07538 -1.17 0
M  V30 337 C 30.5051 3.36625 0.136165 0
M  V30 338 O 31.0351 3.85785 1.11949 0
M  V30 339 N 29.2411 2.89997 0.187099 0
M  V30 340 H 28.7881 2.50182 -0.613753 0
M  V30 341 H 28.7461 2.96252 1.05272 0
M  V30 342 N 32.5182 1.22032 0.997298 0
M  V30 343 C 33.7642 1.04376 1.73878 0
M  V30 344 C 34.0972 -0.420716 1.89588 0
M  V30 345 O 33.3722 -1.31202 1.43583 0
M  V30 346 C 33.6552 1.75047 3.14691 0
M  V30 347 C 33.5082 3.29062 3.06656 0
M  V30 348 C 34.8272 1.49928 4.13775 0
M  V30 349 H 31.9462 0.380578 0.631133 0
M  V30 350 H 34.5882 1.50312 1.16217 0
M  V30 351 H 32.7382 1.35996 3.63919 0
M  V30 352 H 34.4102 3.7753 2.65083 0
M  V30 353 H 32.6532 3.58967 2.43568 0
M  V30 354 H 33.3242 3.73683 4.06282 0
M  V30 355 H 35.8002 1.83842 3.73285 0
M  V30 356 H 34.6762 2.01878 5.10428 0
M  V30 357 H 34.9372 0.430929 4.39995 0
M  V30 358 N 33.9963 -1.19345 1.0293 0
M  V30 359 C 34.9283 -2.22036 0.56857 0
M  V30 360 C 35.9413 -1.58865 -0.355779 0
M  V30 361 O 37.1303 -1.77851 -0.152103 0
M  V30 362 C 34.2303 -3.38363 -0.190752 0
M  V30 363 C 33.4033 -4.31118 0.738643 0
M  V30 364 C 32.4623 -5.26194 0.0246497 0
M  V30 365 O 31.4883 -5.65461 0.651354 0
M  V30 366 N 32.6903 -5.66971 -1.24594 0
M  V30 367 H 35.4553 -2.6219 1.45177 0
M  V30 368 H 33.0163 -1.34015 0.908381 0
M  V30 369 H 35.0083 -3.98981 -0.677961 0
M  V30 370 H 33.5783 -2.96994 -0.975366 0
M  V30 371 H 32.7983 -3.68276 1.40593 0
M  V30 372 H 34.0863 -4.90001 1.37029 0
M  V30 373 H 33.4843 -5.37104 -1.77583 0
M  V30 374 H 32.0413 -6.2984 -1.67764 0
M  V30 375 N 35.4744 -0.807222 -1.35358 0
M  V30 376 C 36.7514 -0.311126 -1.9311 0
M  V30 377 C 37.1314 1.19937 -1.73719 0
M  V30 378 O 36.4794 1.99918 -1.10657 0
M  V30 379 C 36.6894 -0.723226 -3.41424 0
M  V30 380 C 38.0374 -0.713078 -4.18569 0
M  V30 381 O 39.0614 -0.664811 -3.49941 0
M  V30 382 O 37.9204 -0.772022 -5.41019 0
M  V30 383 H 35.0144 -0.081526 -0.822972 0
M  V30 384 H 37.5604 -0.890962 -1.4443 0
M  V30 385 H 36.3324 -1.76426 -3.4927 0
M  V30 386 H 35.9554 -0.118232 -3.97424 0
M  V30 387 N 36.9525 1.47285 -0.560781 0
M  V30 388 C 38.1985 2.02764 -0.0381184 0
M  V30 389 C 38.5315 1.43384 1.30976 0
M  V30 390 O 37.8065 0.590733 1.85312 0
M  V30 391 C 38.0895 3.60064 0.0511427 0
M  V30 392 C 37.9425 4.2987 -1.32408 0
M  V30 393 C 39.2615 4.33439 0.762795 0
M  V30 394 H 36.3805 0.736841 -0.0153264 0
M  V30 395 H 39.0225 1.75675 -0.723759 0
M  V30 396 H 37.1725 3.83274 0.635065 0
M  V30 397 H 38.8445 4.17989 -1.95148 0
M  V30 398 H 37.0875 3.90085 -1.8978 0
M  V30 399 H 37.7585 5.38478 -1.21431 0
M  V30 400 H 40.2345 4.15243 0.266965 0
M  V30 401 H 39.1105 5.43124 0.794221 0
M  V30 402 H 39.3715 4.02915 1.81966 0
M  V30 403 N 38.4306 0.297415 1.54768 0
M  V30 404 C 39.3606 -0.573494 2.26348 0
M  V30 405 C 40.3416 -1.14085 1.26169 0
M  V30 406 O 41.5266 -1.17086 1.54934 0
M  V30 407 C 38.6566 -1.74716 3.00153 0
M  V30 408 C 37.6106 -1.31032 4.07449 0
M  V30 409 C 36.9366 -2.56887 4.68949 0
M  V30 410 C 38.2366 -0.444183 5.20408 0
M  V30 411 H 39.9306 0.0235131 2.99391 0
M  V30 412 H 37.4766 0.0127488 1.43994 0
M  V30 413 H 39.4296 -2.3625 3.48947 0
M  V30 414 H 38.1536 -2.37035 2.24682 0
M  V30 415 H 36.8126 -0.718066 3.59499 0
M  V30 416 H 36.4606 -3.17512 3.90122 0
M  V30 417 H 36.1606 -2.2836 5.41411 0
M  V30 418 H 37.6846 -3.19229 5.20505 0
M  V30 419 H 39.0986 -0.9651 5.65118 0
M  V30 420 H 37.4956 -0.252846 5.99567 0
M  V30 421 H 38.5656 0.531609 4.81977 0
M  V30 422 N 39.9087 -1.5758 0.0250728 0
M  V30 423 C 41.3197 -1.79476 -0.514323 0
M  V30 424 C 41.6707 -0.934956 -1.72491 0
M  V30 425 O 40.7957 -0.144245 -2.15919 0
M  V30 426 C 41.3907 -3.25503 -0.939842 0
M  V30 427 C 39.9497 -3.48408 -1.42438 0
M  V30 428 C 39.0967 -2.74583 -0.387201 0
M  V30 429 H 42.0477 -1.567 0.25113 0
M  V30 430 H 42.0687 -3.34992 -1.80445 0
M  V30 431 H 41.5807 -3.88056 -0.0585628 0
M  V30 432 H 39.6817 -2.91103 -2.32572 0
M  V30 433 H 39.7947 -4.57119 -1.43455 0
M  V30 434 H 38.1587 -2.39942 -0.854409 0
M  V30 435 H 38.9417 -3.39849 0.485543 0
M  V30 436 N 41.3868 0.248026 -1.55636 0
M  V30 437 C 42.3498 1.29044 -1.89421 0
M  V30 438 C 43.3498 1.41134 -0.770581 0
M  V30 439 O 44.5398 1.39854 -1.03858 0
M  V30 440 C 41.6718 2.66831 -2.12165 0
M  V30 441 H 42.8648 1.00305 -2.82629 0
M  V30 442 H 40.4178 0.487265 -1.48511 0
M  V30 443 H 41.1528 3.00711 -1.21422 0
M  V30 444 H 40.9378 2.59438 -2.93997 0
M  V30 445 H 42.4278 3.42103 -2.3949 0
M  V30 446 N 42.8649 1.48995 0.513639 0
M  V30 447 C 43.7949 1.67636 1.62544 0
M  V30 448 C 44.7759 0.525087 1.61793 0
M  V30 449 O 45.9609 0.759502 1.78732 0
M  V30 450 C 43.0909 1.73114 3.01079 0
M  V30 451 C 42.0449 2.87905 3.16693 0
M  V30 452 C 41.3709 2.78486 4.56453 0
M  V30 453 C 42.6709 4.29005 2.97913 0
M  V30 454 H 44.3649 2.60716 1.47198 0
M  V30 455 H 41.9109 1.25465 0.706714 0
M  V30 456 H 43.8639 1.84742 3.78746 0
M  V30 457 H 42.5879 0.766241 3.17484 0
M  V30 458 H 41.2469 2.75859 2.41448 0
M  V30 459 H 40.8949 1.7993 4.69717 0
M  V30 460 H 40.5949 3.55523 4.67843 0
M  V30 461 H 42.1189 2.92104 5.36197 0
M  V30 462 H 43.5329 4.41798 3.65359 0
M  V30 463 H 41.9299 5.07166 3.20785 0
M  V30 464 H 42.9999 4.44329 1.94165 0
M  V30 465 N 44.343 -0.763751 1.37857 0
M  V30 466 C 45.754 -1.3405 1.29952 0
M  V30 467 C 46.105 -1.96138 -0.0492898 0
M  V30 468 O 45.23 -1.94372 -0.951239 0
M  V30 469 C 45.825 -2.43729 2.35333 0
M  V30 470 C 44.384 -2.97151 2.31037 0
M  V30 471 C 43.531 -1.70438 2.18738 0
M  V30 472 H 46.482 -0.563396 1.48363 0
M  V30 473 H 46.503 -3.23412 2.00462 0
M  V30 474 H 46.015 -1.9851 3.33489 0
M  V30 475 H 44.116 -3.46724 1.3643 0
M  V30 476 H 44.229 -3.52221 3.24772 0
M  V30 477 H 42.593 -1.93673 1.65418 0
M  V30 478 H 43.376 -1.27312 3.18821 0
M  V30 479 N 45.8211 -1.22559 -0.990812 0
M  V30 480 C 46.7691 -0.994798 -2.10253 0
M  V30 481 C 47.7631 0.0627798 -1.69284 0
M  V30 482 O 48.9691 -0.0898392 -1.79776 0
M  V30 483 H 45.3441 -0.304527 -0.687581 0
M  V30 484 H 47.3151 -1.93812 -2.26891 0
M  V30 485 C 46.0641 -0.591439 -3.42633 0
M  V30 486 H 45.3871 -1.3969 -3.74602 0
M  V30 487 H 46.8271 -0.469385 -4.21394 0
M  V30 488 C 45.2861 0.699232 -3.29564 0
M  V30 489 O 45.8161 1.75112 -3.61523 0
M  V30 490 N 44.0221 0.671182 -2.82743 0
M  V30 491 H 43.5691 -0.185136 -2.56934 0
M  V30 492 H 43.5271 1.53502 -2.7438 0
M  V30 493 N 47.2992 1.18797 -1.03562 0
M  V30 494 C 48.7102 1.70322 -0.764676 0
M  V30 495 C 49.0612 1.82708 0.714996 0
M  V30 496 O 48.1862 1.50299 1.55689 0
M  V30 497 C 48.7812 3.09356 -1.38145 0
M  V30 498 C 47.3402 3.58114 -1.15895 0
M  V30 499 C 46.4872 2.34798 -1.4753 0
M  V30 500 H 49.4382 1.03543 -1.20268 0
M  V30 501 H 49.4592 3.72378 -0.781977 0
M  V30 502 H 48.9712 3.00309 -2.45837 0
M  V30 503 H 47.0722 3.72464 -0.100544 0
M  V30 504 H 47.1852 4.4184 -1.8524 0
M  V30 505 H 45.5492 2.38464 -0.894829 0
M  V30 506 H 46.3322 2.28375 -2.56319 0
M  V30 507 N 48.7773 0.814389 1.34928 0
M  V30 508 C 50.0543 0.321363 1.92942 0
M  V30 509 C 50.4343 -1.19014 1.74353 0
M  V30 510 O 49.7823 -1.99328 1.11716 0
M  V30 511 C 49.9923 0.741323 3.41036 0
M  V30 512 C 51.3403 0.735266 4.18185 0
M  V30 513 O 52.3643 0.68336 3.49584 0
M  V30 514 O 51.2233 0.800703 5.40602 0
M  V30 515 H 48.3173 0.0858893 0.822528 0
M  V30 516 H 50.8633 0.898609 1.43955 0
M  V30 517 H 49.6353 1.78276 3.4833 0
M  V30 518 H 49.2583 0.139307 3.97356 0
M  V30 519 N 50.2554 -1.46986 0.568584 0
M  V30 520 C 51.5324 -1.95592 -0.0174074 0
M  V30 521 C 51.9124 -1.51124 -1.47393 0
M  V30 522 O 51.2604 -0.755329 -2.15655 0
M  V30 523 C 51.4704 -3.48719 0.139913 0
M  V30 524 C 52.8184 -4.246 0.000426376 0
M  V30 525 O 53.8424 -3.56135 0.0680316 0
M  V30 526 O 52.7014 -5.46302 -0.146988 0
M  V30 527 H 49.7954 -0.82498 -0.0577599 0
M  V30 528 H 52.3414 -1.57335 0.635909 0
M  V30 529 H 51.1134 -3.73927 1.15301 0
M  V30 530 H 50.7364 -3.93771 -0.550491 0
M  V30 531 N 51.7335 -0.305618 -1.54608 0
M  V30 532 C 52.9635 0.304333 -2.04346 0
M  V30 533 C 53.3715 1.47715 -1.18224 0
M  V30 534 O 52.7145 1.82591 -0.201577 0
M  V30 535 C 52.7765 0.819031 -3.50046 0
M  V30 536 C 52.4405 -0.22912 -4.56425 0
M  V30 537 C 53.4375 -1.05914 -5.08997 0
M  V30 538 C 51.1225 -0.372148 -5.0092 0
M  V30 539 C 53.1165 -2.01809 -6.04609 0
M  V30 540 C 50.8035 -1.33454 -5.9635 0
M  V30 541 C 51.8015 -2.15599 -6.48079 0
M  V30 542 O 51.4895 -3.10205 -7.41639 0
M  V30 543 H 51.2215 0.0693996 -0.672428 0
M  V30 544 H 53.7755 -0.444548 -2.00532 0
M  V30 545 H 52.0055 1.61852 -3.51199 0
M  V30 546 H 53.6945 1.34537 -3.82955 0
M  V30 547 H 54.4605 -0.959538 -4.75413 0
M  V30 548 H 50.3395 0.257304 -4.60281 0
M  V30 549 H 53.8835 -2.65966 -6.44909 0
M  V30 550 H 49.7805 -1.43485 -6.29351 0
M  V30 551 H 50.5485 -3.05237 -7.59455 0
M  V30 552 N 53.2116 1.57565 -0.0334293 0
M  V30 553 C 54.4586 1.91978 0.644272 0
M  V30 554 C 54.7866 0.910231 1.71887 0
M  V30 555 O 54.0416 -0.0801961 1.95536 0
M  V30 556 C 54.3406 3.33112 1.29504 0
M  V30 557 C 54.0066 4.49537 0.350388 0
M  V30 558 C 52.6686 4.81115 0.0903974 0
M  V30 559 C 55.0206 5.20347 -0.298032 0
M  V30 560 C 52.3486 5.8086 -0.825746 0
M  V30 561 C 54.7006 6.2107 -1.20226 0
M  V30 562 C 53.3646 6.51088 -1.4711 0
M  V30 563 H 52.6346 0.702496 0.235756 0
M  V30 564 H 55.2816 1.91259 -0.0961176 0
M  V30 565 H 53.5866 3.30113 2.11028 0
M  V30 566 H 55.2836 3.57011 1.82603 0
M  V30 567 H 51.8736 4.24883 0.563205 0
M  V30 568 H 56.0576 4.96178 -0.110234 0
M  V30 569 H 51.3136 6.02461 -1.04169 0
M  V30 570 H 55.4876 6.75057 -1.71086 0
M  V30 571 H 53.1146 7.28193 -2.18264 0
M  V30 572 N 54.6897 -0.239769 1.55765 0
M  V30 573 C 55.6197 -1.30052 1.9393 0
M  V30 574 C 56.6007 -1.49839 0.805132 0
M  V30 575 O 57.7857 -1.62328 1.06599 0
M  V30 576 C 54.9157 -2.65391 2.2402 0
M  V30 577 C 53.8697 -2.60289 3.39755 0
M  V30 578 C 53.1957 -3.99489 3.55405 0
M  V30 579 C 54.4957 -2.16654 4.75246 0
M  V30 580 H 56.1897 -0.983573 2.82783 0
M  V30 581 H 53.7357 -0.471701 1.36055 0
M  V30 582 H 55.6887 -3.3974 2.49308 0
M  V30 583 H 54.4127 -2.98736 1.32 0
M  V30 584 H 53.0717 -1.88398 3.14487 0
M  V30 585 H 52.7197 -4.30112 2.60793 0
M  V30 586 H 52.4197 -3.96962 4.33238 0
M  V30 587 H 53.9437 -4.75528 3.83022 0
M  V30 588 H 55.3577 -2.80737 4.99859 0
M  V30 589 H 53.7547 -2.25223 5.56232 0
M  V30 590 H 54.8247 -1.11835 4.71827 0
M  V30 591 N 56.1678 -1.49265 -0.50573 0
M  V30 592 C 57.0978 -1.68495 -1.61653 0
M  V30 593 C 58.0788 -0.53366 -1.61512 0
M  V30 594 O 59.2638 -0.76897 -1.78327 0
M  V30 595 C 56.3938 -1.74709 -3.00157 0
M  V30 596 C 55.3478 -2.89581 -3.15162 0
M  V30 597 C 54.6738 -2.80903 -4.5497 0
M  V30 598 C 55.9738 -4.30578 -2.95634 0
M  V30 599 H 57.6678 -2.61493 -1.45814 0
M  V30 600 H 55.2138 -1.25838 -0.70005 0
M  V30 601 H 57.1668 -1.86748 -3.77761 0
M  V30 602 H 55.8908 -0.783067 -3.17074 0
M  V30 603 H 54.5498 -2.77136 -2.39982 0
M  V30 604 H 54.1978 -1.82419 -4.68756 0
M  V30 605 H 53.8978 -3.57999 -4.65951 0
M  V30 606 H 55.4218 -2.94944 -5.34641 0
M  V30 607 H 56.8358 -4.4373 -3.63011 0
M  V30 608 H 55.2328 -5.0886 -3.18091 0
M  V30 609 H 56.3028 -4.45352 -1.91806 0
M  V30 610 N 57.6459 0.756429 -1.3826 0
M  V30 611 C 59.0619 1.0591 -1.19395 0
M  V30 612 C 59.2619 2.01459 -0.0406567 0
M  V30 613 O 58.3179 2.44909 0.614467 0
M  V30 614 C 59.6309 1.64191 -2.51916 0
M  V30 615 C 61.1789 1.76376 -2.58574 0
M  V30 616 C 61.6539 2.38069 -3.91264 0
M  V30 617 N 63.1449 2.45503 -3.92788 0
M  V30 618 C 63.8799 2.94126 -4.92217 0
M  V30 619 N 63.3759 3.42805 -6.02043 0
M  V30 620 N 65.1689 2.9314 -4.7961 0
M  V30 621 H 57.3199 0.122313 -2.12048 0
M  V30 622 H 59.5829 0.116892 -0.940766 0
M  V30 623 H 59.2889 1.01451 -3.3675 0
M  V30 624 H 59.1629 2.6329 -2.70108 0
M  V30 625 H 61.5499 2.38244 -1.74137 0
M  V30 626 H 61.6309 0.759894 -2.44252 0
M  V30 627 H 61.2749 1.76835 -4.76121 0
M  V30 628 H 61.2049 3.39091 -4.02895 0
M  V30 629 H 63.6959 2.1107 -3.13461 0
M  V30 630 H 64.0089 3.78354 -6.73846 0
M  V30 631 H 62.3539 3.4087 -6.05667 0
M  V30 632 H 65.5449 2.54419 -3.92923 0
M  V30 633 H 65.7179 3.30721 -5.5725 0
M  V30 634 N 59.124 1.23083 0.984299 0
M  V30 635 C 60.37 1.07221 1.72845 0
M  V30 636 C 60.725 -0.387453 1.88458 0
M  V30 637 O 60.018 -1.28309 1.42293 0
M  V30 638 C 60.212 1.72673 3.1292 0
M  V30 639 C 60.041 3.24853 3.10967 0
M  V30 640 C 58.811 3.93998 3.16376 0
M  V30 641 C 61.009 4.21674 2.94441 0
M  V30 642 N 58.991 5.33192 3.04268 0
M  V30 643 C 60.362 5.47756 2.90453 0
M  V30 644 C 62.417 4.12457 2.78897 0
M  V30 645 C 61.12 6.6568 2.72512 0
M  V30 646 C 63.146 5.3004 2.62319 0
M  V30 647 C 62.508 6.55046 2.59026 0
M  V30 648 H 58.607 0.44685 0.641755 0
M  V30 649 H 61.191 1.55753 1.16829 0
M  V30 650 H 59.362 1.26679 3.67161 0
M  V30 651 H 61.094 1.49824 3.75945 0
M  V30 652 H 57.849 3.45052 3.24401 0
M  V30 653 H 58.273 6.06157 3.015 0
M  V30 654 H 62.915 3.16588 2.80235 0
M  V30 655 H 60.633 7.61689 2.69919 0
M  V30 656 H 64.219 5.24747 2.5126 0
M  V30 657 H 63.099 7.44498 2.46357 0
M  V30 658 N 60.6021 -1.18246 1.0419 0
M  V30 659 C 61.5321 -2.24127 0.654914 0
M  V30 660 C 62.5131 -1.66617 -0.342451 0
M  V30 661 O 63.6981 -1.92924 -0.222277 0
M  V30 662 C 60.8281 -3.47295 0.0183757 0
M  V30 663 C 59.7821 -4.17563 0.939414 0
M  V30 664 C 59.1081 -5.34438 0.167286 0
M  V30 665 C 60.4081 -4.70917 2.25908 0
M  V30 666 H 62.1021 -2.56753 1.54007 0
M  V30 667 H 59.6481 -1.23414 0.74195 0
M  V30 668 H 61.6011 -4.20572 -0.264082 0
M  V30 669 H 60.3251 -3.13907 -0.901664 0
M  V30 670 H 58.9841 -3.46186 1.20628 0
M  V30 671 H 58.6321 -4.97298 -0.7552 0
M  V30 672 H 58.3321 -5.82388 0.780901 0
M  V30 673 H 59.8561 -6.10504 -0.108125 0
M  V30 674 H 61.2701 -5.35882 2.03724 0
M  V30 675 H 59.6671 -5.29406 2.82577 0
M  V30 676 H 60.7371 -3.88272 2.9047 0
M  V30 677 N 62.0802 -0.821533 -1.34494 0
M  V30 678 C 63.4962 -0.507117 -1.51329 0
M  V30 679 C 63.6962 0.968964 -1.76673 0
M  V30 680 O 62.7522 1.75348 -1.81685 0
M  V30 681 C 64.0652 -1.36544 -2.67911 0
M  V30 682 C 65.6132 -1.36242 -2.81793 0
M  V30 683 C 66.0882 -2.2052 -4.01416 0
M  V30 684 N 67.5792 -2.18136 -4.08621 0
M  V30 685 C 68.3142 -2.80095 -5.00334 0
M  V30 686 N 67.8102 -3.51039 -5.9728 0
M  V30 687 N 69.6032 -2.69656 -4.93196 0
M  V30 688 H 61.7542 -1.77729 -1.16302 0
M  V30 689 H 64.0172 -0.757291 -0.570276 0
M  V30 690 H 63.7232 -2.41361 -2.55808 0
M  V30 691 H 63.5972 -1.02917 -3.62888 0
M  V30 692 H 65.9842 -0.322041 -2.93338 0
M  V30 693 H 66.0652 -1.73866 -1.87628 0
M  V30 694 H 65.7092 -3.24607 -3.90631 0
M  V30 695 H 65.6392 -1.80247 -4.94791 0
M  V30 696 H 68.1302 -1.6653 -3.39229 0
M  V30 697 H 68.4432 -3.95565 -6.63889 0
M  V30 698 H 66.7882 -3.55145 -5.97409 0
M  V30 699 H 69.9792 -2.13808 -4.16418 0
M  V30 700 H 70.1522 -3.1823 -5.64476 0
M  V30 701 N 63.5583 1.46682 -0.576371 0
M  V30 702 C 64.5213 2.28707 0.150239 0
M  V30 703 C 65.5213 1.38035 0.824794 0
M  V30 704 O 66.7113 1.60476 0.677719 0
M  V30 705 C 63.8433 3.18248 1.22192 0
M  V30 706 H 65.0363 2.94423 -0.570521 0
M  V30 707 H 62.5893 1.52688 -0.334078 0
M  V30 708 H 63.3243 2.57265 1.97447 0
M  V30 709 H 63.1093 3.85 0.742812 0
M  V30 710 H 64.5993 3.80001 1.73172 0
M  V30 711 N 65.0364 0.313813 1.54444 0
M  V30 712 C 66.4524 -0.0391619 1.59552 0
M  V30 713 C 66.6524 -1.51322 1.33056 0
M  V30 714 O 65.7084 -2.26782 1.11022 0
M  V30 715 C 67.0214 0.370302 2.98411 0
M  V30 716 C 68.5694 0.320139 3.11358 0
M  V30 717 C 69.0444 0.704617 4.52547 0
M  V30 718 N 70.5354 0.657645 4.58508 0
M  V30 719 C 71.2704 0.927453 5.6585 0
M  V30 720 N 70.7664 1.26389 6.81174 0
M  V30 721 N 72.5594 0.853662 5.5558 0
M  V30 722 H 64.7104 1.27433 1.69925 0
M  V30 723 H 66.9734 0.517511 0.794284 0
M  V30 724 H 66.6794 1.39694 3.22767 0
M  V30 725 H 66.5534 -0.269619 3.76235 0
M  V30 726 H 68.9404 -0.697275 2.86744 0
M  V30 727 H 69.0214 0.99486 2.35661 0
M  V30 728 H 68.6654 1.7199 4.77893 0
M  V30 729 H 68.5954 0.00768843 5.26599 0
M  V30 730 H 71.0864 0.409067 3.75679 0
M  V30 731 H 71.3994 1.4554 7.58972 0
M  V30 732 H 69.7444 1.30206 6.82694 0
M  V30 733 H 72.9354 0.590383 4.64362 0
M  V30 734 H 73.1084 1.0673 6.3915 0
M  V30 735 N 66.5145 -1.57545 0.0417849 0
M  V30 736 C 67.4625 -2.12148 -0.953723 0
M  V30 737 C 68.4565 -1.05104 -1.32852 0
M  V30 738 O 69.6625 -1.23524 -1.30927 0
M  V30 739 H 66.0375 -0.677957 -0.325389 0
M  V30 740 H 68.0085 -2.94707 -0.467991 0
M  V30 741 C 66.7575 -2.6739 -2.22257 0
M  V30 742 H 66.0805 -3.49413 -1.94295 0
M  V30 743 H 67.5205 -3.09227 -2.90094 0
M  V30 744 C 65.9795 -1.60723 -2.96091 0
M  V30 745 O 66.5095 -1.01449 -3.88679 0
M  V30 746 N 64.7155 -1.32466 -2.58652 0
M  V30 747 H 64.2625 -1.80856 -1.83437 0
M  V30 748 H 64.2205 -0.61325 -3.08361 0
M  V30 749 N 67.9926 0.231505 -1.5589 0
M  V30 750 C 69.2396 0.957352 -1.78441 0
M  V30 751 C 69.5676 1.84726 -0.60882 0
M  V30 752 O 68.8226 1.91416 0.40725 0
M  V30 753 C 69.1216 1.83577 -3.0665 0
M  V30 754 C 68.7876 1.09993 -4.37278 0
M  V30 755 C 67.4496 0.896629 -4.72773 0
M  V30 756 C 69.8016 0.579558 -5.17968 0
M  V30 757 C 67.1296 0.160896 -5.86479 0
M  V30 758 C 69.4816 -0.142783 -6.32439 0
M  V30 759 C 68.1456 -0.357427 -6.66542 0
M  V30 760 H 67.4156 0.35032 -0.65296 0
M  V30 761 H 70.0626 0.226259 -1.90159 0
M  V30 762 H 68.3676 2.63441 -2.90011 0
M  V30 763 H 70.0646 2.39934 -3.21298 0
M  V30 764 H 66.6546 1.26835 -4.09403 0
M  V30 765 H 70.8386 0.724125 -4.90989 0
M  V30 766 H 66.0946 -0.0157293 -6.11398 0
M  V30 767 H 70.2686 -0.553559 -6.94196 0
M  V30 768 H 67.8956 -0.929466 -7.54497 0
M  V30 769 N 69.4707 1.49531 0.497807 0
M  V30 770 C 70.7477 1.49682 1.25915 0
M  V30 771 C 71.1277 0.226339 2.09883 0
M  V30 772 O 70.4757 -0.791189 2.14365 0
M  V30 773 C 70.6857 2.77755 2.11313 0
M  V30 774 C 72.0337 3.27371 2.70395 0
M  V30 775 O 73.0577 2.78894 2.21578 0
M  V30 776 O 71.9167 4.11808 3.59272 0
M  V30 777 H 69.0107 0.599228 0.56996 0
M  V30 778 H 71.5567 1.61798 0.511816 0
M  V30 779 H 70.3287 3.61713 1.49264 0
M  V30 780 H 69.9517 2.68515 2.93233 0
M  V30 781 N 70.9488 -0.749086 1.3866 0
M  V30 782 C 71.8788 -1.8764 1.38973 0
M  V30 783 C 72.8598 -1.68178 0.255004 0
M  V30 784 O 74.0448 -1.88704 0.458754 0
M  V30 785 C 71.1748 -3.25222 1.21851 0
M  V30 786 C 70.1288 -3.59295 2.32575 0
M  V30 787 C 69.4548 -4.95663 2.00555 0
M  V30 788 C 70.7548 -3.63709 3.7485 0
M  V30 789 H 72.4488 -1.87635 2.3331 0
M  V30 790 H 69.9948 -0.901329 1.12303 0
M  V30 791 H 71.9478 -4.03746 1.20695 0
M  V30 792 H 70.6718 -3.25719 0.239775 0
M  V30 793 H 69.3308 -2.83093 2.32925 0
M  V30 794 H 68.9788 -4.92724 1.01154 0
M  V30 795 H 68.6788 -5.19429 2.74714 0
M  V30 796 H 70.2028 -5.7656 2.01024 0
M  V30 797 H 71.6168 -4.32338 3.76506 0
M  V30 798 H 70.0138 -3.98986 4.48252 0
M  V30 799 H 71.0838 -2.63834 4.06841 0
M  V30 800 N 72.4269 -1.23603 -0.977757 0
M  V30 801 C 73.3589 -0.977369 -2.07317 0
M  V30 802 C 74.3719 0.0495845 -1.62724 0
M  V30 803 O 75.5609 -0.186261 -1.77526 0
M  V30 804 C 72.6609 -0.451216 -3.35883 0
M  V30 805 C 71.8339 -1.53896 -4.09432 0
M  V30 806 C 70.8929 -1.01721 -5.16274 0
M  V30 807 O 69.9189 -1.70676 -5.43009 0
M  V30 808 N 71.1209 0.153594 -5.80297 0
M  V30 809 H 73.8859 -1.92047 -2.30082 0
M  V30 810 H 71.4469 -1.14497 -1.14465 0
M  V30 811 H 73.4389 -0.0871574 -4.04606 0
M  V30 812 H 72.0089 0.397368 -3.10064 0
M  V30 813 H 71.2289 -2.07566 -3.35127 0
M  V30 814 H 72.5169 -2.27037 -4.55337 0
M  V30 815 H 71.9149 0.730323 -5.60966 0
M  V30 816 H 70.4719 0.458892 -6.50183 0
M  V30 817 N 73.905 1.17692 -1.04816 0
M  V30 818 C 74.852 2.21581 -0.645797 0
M  V30 819 C 75.822 1.62367 0.350159 0
M  V30 820 O 77.007 1.89254 0.242433 0
M  V30 821 C 74.147 3.45092 -0.0227568 0
M  V30 822 C 73.26 4.18613 -1.06709 0
M  V30 823 C 72.395 5.29602 -0.411767 0
M  V30 824 C 71.434 5.94904 -1.44067 0
M  V30 825 N 70.571 6.97414 -0.809781 0
M  V30 826 H 75.411 2.55353 -1.5362 0
M  V30 827 H 72.948 1.25438 -0.768364 0
M  V30 828 H 74.906 4.15679 0.35588 0
M  V30 829 H 73.536 3.11917 0.831122 0
M  V30 830 H 72.588 3.46779 -1.5636 0
M  V30 831 H 73.9 4.63293 -1.84827 0
M  V30 832 H 73.054 6.06696 0.0206623 0
M  V30 833 H 71.793 4.86045 0.401438 0
M  V30 834 H 70.798 5.16544 -1.88316 0
M  V30 835 H 72.023 6.40542 -2.25571 0
M  V30 836 H 69.969 6.55998 -0.0170186 0
M  V30 837 H 69.886 7.40386 -1.52856 0
M  V30 838 H 71.154 7.78463 -0.401999 0
M  V30 839 N 75.3831 0.828654 1.34056 0
M  V30 840 C 76.6081 0.431637 2.02859 0
M  V30 841 C 77.0331 -0.956339 1.61975 0
M  V30 842 O 76.3911 -1.62338 0.807228 0
M  V30 843 C 76.4391 0.548323 3.56407 0
M  V30 844 O 75.5431 -0.429556 4.10157 0
M  V30 845 H 74.8841 0.176886 0.640006 0
M  V30 846 H 77.4141 1.12066 1.71179 0
M  V30 847 H 77.4241 0.426196 4.05768 0
M  V30 848 H 76.0991 1.5606 3.8551 0
M  V30 849 H 74.6761 -0.265836 3.71951 0
M  V30 850 N 76.8612 -1.46375 0.584142 0
M  V30 851 C 77.7712 -2.34115 -0.150728 0
M  V30 852 C 78.7872 -1.49838 -0.884567 0
M  V30 853 O 79.9632 -1.82704 -0.847429 0
M  V30 854 C 77.0282 -3.2705 -1.15062 0
M  V30 855 C 76.0892 -4.27228 -0.421293 0
M  V30 856 C 75.3222 -5.15722 -1.37355 0
M  V30 857 O 75.5452 -5.07176 -2.61014 0
M  V30 858 O 74.4792 -5.95383 -0.883355 0
M  V30 859 H 78.3052 -2.98309 0.569708 0
M  V30 860 H 75.8902 -1.45373 0.344535 0
M  V30 861 H 77.7722 -3.84381 -1.72712 0
M  V30 862 H 76.4472 -2.65451 -1.8525 0
M  V30 863 H 75.3542 -3.7358 0.197085 0
M  V30 864 H 76.6872 -4.91616 0.239641 0
M  V30 865 N 78.3393 -0.321999 -1.54275 0
M  V30 866 C 79.3023 0.531975 -2.22941 0
M  V30 867 C 80.3023 1.04478 -1.22234 0
M  V30 868 O 81.4923 0.937452 -1.46825 0
M  V30 869 C 78.6243 1.73874 -2.93224 0
M  V30 870 H 79.8173 -0.0682612 -2.99822 0
M  V30 871 H 77.3703 -0.0730644 -1.56129 0
M  V30 872 H 78.1053 2.37825 -2.20476 0
M  V30 873 H 77.8903 1.37847 -3.6707 0
M  V30 874 H 79.3803 2.34496 -3.45545 0
M  V30 875 N 79.8174 1.5752 -0.0501392 0
M  V30 876 C 80.7474 2.14502 0.922566 0
M  V30 877 C 81.7284 1.06642 1.3252 0
M  V30 878 O 82.9134 1.34577 1.4001 0
M  V30 879 C 80.0434 2.68916 2.19776 0
M  V30 880 C 78.9974 3.8175 1.93523 0
M  V30 881 C 78.3234 4.22677 3.27487 0
M  V30 882 C 79.6234 5.06932 1.25765 0
M  V30 883 H 81.3174 2.9603 0.447952 0
M  V30 884 H 78.8634 1.42401 0.214024 0
M  V30 885 H 80.8164 3.07419 2.88222 0
M  V30 886 H 79.5404 1.84578 2.69441 0
M  V30 887 H 78.1994 3.43718 1.27489 0
M  V30 888 H 77.8474 3.35291 3.74952 0
M  V30 889 H 77.5474 4.98725 3.1072 0
M  V30 890 H 79.0714 4.63779 3.97166 0
M  V30 891 H 80.4854 5.42888 1.84244 0
M  V30 892 H 78.8824 5.88116 1.19328 0
M  V30 893 H 79.9524 4.84337 0.233536 0
M  V30 894 N 81.2955 -0.223234 1.56011 0
M  V30 895 C 82.2255 -1.27988 1.95298 0
M  V30 896 C 83.2065 -1.48976 0.820979 0
M  V30 897 O 84.3915 -1.61188 1.08315 0
M  V30 898 C 81.5215 -2.63 2.26822 0
M  V30 899 C 80.4755 -2.56671 3.42497 0
M  V30 900 C 79.8015 -3.95697 3.59622 0
M  V30 901 C 81.1015 -2.11601 4.77517 0
M  V30 902 H 82.7955 -0.953525 2.8381 0
M  V30 903 H 80.3415 -0.457244 1.36548 0
M  V30 904 H 82.2945 -3.37077 2.52898 0
M  V30 905 H 81.0185 -2.9732 1.35161 0
M  V30 906 H 79.6775 -1.85051 3.16467 0
M  V30 907 H 79.3255 -4.27322 2.6534 0
M  V30 908 H 79.0255 -3.92345 4.37424 0
M  V30 909 H 80.5495 -4.71438 3.88044 0
M  V30 910 H 81.9635 -2.7542 5.02809 0
M  V30 911 H 80.3605 -2.19311 5.5859 0
M  V30 912 H 81.4305 -1.06824 4.72987 0
M  V30 913 N 82.7736 -1.49793 -0.48987 0
M  V30 914 C 84.1896 -1.36803 -0.822022 0
M  V30 915 C 84.3896 -0.409652 -1.97292 0
M  V30 916 O 83.4456 0.154614 -2.52026 0
M  V30 917 C 84.7586 -2.77768 -1.15175 0
M  V30 918 C 86.3066 -2.86549 -1.25931 0
M  V30 919 C 86.7816 -4.28306 -1.62228 0
M  V30 920 N 88.2726 -4.31169 -1.69256 0
M  V30 921 C 89.0076 -5.37832 -1.98807 0
M  V30 922 N 88.5036 -6.54726 -2.26507 0
M  V30 923 N 90.2966 -5.25258 -2.00152 0
M  V30 924 H 82.4476 -2.10691 0.268881 0
M  V30 925 H 84.7106 -0.946241 0.057728 0
M  V30 926 H 84.4166 -3.49648 -0.379335 0
M  V30 927 H 84.2906 -3.13836 -2.09253 0
M  V30 928 H 86.6776 -2.14899 -2.02243 0
M  V30 929 H 86.7586 -2.54049 -0.298776 0
M  V30 930 H 86.4026 -5.00486 -0.864622 0
M  V30 931 H 86.3326 -4.58279 -2.594 0
M  V30 932 H 88.8236 -3.4687 -1.49965 0
M  V30 933 H 89.1366 -7.31833 -2.48276 0
M  V30 934 H 87.4816 -6.57933 -2.23939 0
M  V30 935 H 90.6726 -4.32938 -1.77996 0
M  V30 936 H 90.8456 -6.08476 -2.22848 0
M  V30 937 N 84.2517 0.741722 -1.39055 0
M  V30 938 C 85.1987 1.85566 -1.37237 0
M  V30 939 C 86.1687 1.64457 -0.233072 0
M  V30 940 O 87.3537 1.85957 -0.427147 0
M  V30 941 C 84.4937 3.23004 -1.215 0
M  V30 942 C 83.6067 3.55864 -2.44918 0
M  V30 943 C 82.7417 4.82669 -2.21821 0
M  V30 944 C 81.7807 5.08351 -3.40948 0
M  V30 945 N 80.9177 6.26356 -3.17211 0
M  V30 946 H 85.7577 1.86455 -2.32462 0
M  V30 947 H 83.2947 0.911176 -1.15482 0
M  V30 948 H 85.2527 4.02331 -1.10389 0
M  V30 949 H 83.8827 3.21411 -0.29908 0
M  V30 950 H 82.9347 2.7129 -2.66657 0
M  V30 951 H 84.2467 3.70765 -3.33668 0
M  V30 952 H 83.4007 5.69962 -2.07914 0
M  V30 953 H 82.1397 4.69929 -1.30454 0
M  V30 954 H 81.1447 4.19522 -3.55361 0
M  V30 955 H 82.3697 5.22981 -4.33207 0
M  V30 956 H 80.3157 6.14917 -2.28502 0
M  V30 957 H 80.2327 6.41813 -3.99515 0
M  V30 958 H 81.5007 7.16506 -3.06984 0
M  V30 959 N 85.7298 1.2412 0.971189 0
M  V30 960 C 86.9598 1.10415 1.7462 0
M  V30 961 C 87.3678 -0.346462 1.86001 0
M  V30 962 O 86.7108 -1.25104 1.34517 0
M  V30 963 C 86.7728 1.66596 3.18568 0
M  V30 964 C 86.4368 3.15446 3.3067 0
M  V30 965 C 87.4338 4.12636 3.16271 0
M  V30 966 C 85.1188 3.55337 3.55022 0
M  V30 967 C 87.1128 5.47699 3.26044 0
M  V30 968 C 84.7998 4.90542 3.64434 0
M  V30 969 C 85.7978 5.86532 3.49956 0
M  V30 970 O 85.4858 7.19279 3.59017 0
M  V30 971 H 85.2178 0.386616 0.55453 0
M  V30 972 H 87.7718 1.64633 1.22821 0
M  V30 973 H 86.0018 1.06808 3.71657 0
M  V30 974 H 87.6908 1.48232 3.77865 0
M  V30 975 H 88.4568 3.8316 2.97344 0
M  V30 976 H 84.3358 2.8113 3.65359 0
M  V30 977 H 87.8798 6.22603 3.14661 0
M  V30 978 H 83.7768 5.19691 3.82873 0
M  V30 979 H 84.5448 7.27153 3.75754 0
M  V30 980 N 87.2079 -1.17134 1.05439 0
M  V30 981 C 88.1409 -2.2012 0.601855 0
M  V30 982 C 89.1189 -1.58314 -0.370854 0
M  V30 983 O 90.3029 -1.8638 -0.281882 0
M  V30 984 C 87.4299 -3.38491 -0.118868 0
M  V30 985 C 86.4759 -4.18752 0.809242 0
M  V30 986 S 87.3089 -4.83602 2.29977 0
M  V30 987 C 88.4649 -6.0536 1.59029 0
M  V30 988 H 88.6979 -2.58165 1.47438 0
M  V30 989 H 86.2309 -1.27788 0.866573 0
M  V30 990 H 88.1889 -4.07084 -0.528495 0
M  V30 991 H 86.8499 -2.98829 -0.967465 0
M  V30 992 H 86.0429 -5.03373 0.251379 0
M  V30 993 H 85.6449 -3.5561 1.15835 0
M  V30 994 H 87.9369 -6.71615 0.891017 0
M  V30 995 H 88.8799 -6.65679 2.41407 0
M  V30 996 H 89.2879 -5.54138 1.07663 0
M  V30 997 N 88.686 -0.835752 -1.33615 0
M  V30 998 C 89.596 -0.269088 -2.33052 0
M  V30 999 C 90.612 0.603251 -1.63208 0
M  V30 1000 O 91.788 0.508112 -1.94885 0
M  V30 1001 C 88.853 0.549091 -3.42324 0
M  V30 1002 C 87.914 -0.347156 -4.27894 0
M  V30 1003 C 87.147 0.43207 -5.31948 0
M  V30 1004 O 87.37 1.66409 -5.45586 0
M  V30 1005 O 86.304 -0.192298 -6.01593 0
M  V30 1006 H 90.13 -1.09243 -2.83372 0
M  V30 1007 H 87.715 -0.598198 -1.36901 0
M  V30 1008 H 89.597 1.01414 -4.09015 0
M  V30 1009 H 88.272 1.34955 -2.94226 0
M  V30 1010 H 87.179 -0.859979 -3.64081 0
M  V30 1011 H 88.512 -1.1123 -4.79467 0
M  V30 1012 N 90.1641 1.46063 -0.591896 0
M  V30 1013 C 91.4111 2.02338 -0.0809991 0
M  V30 1014 C 91.7391 1.46228 1.28249 0
M  V30 1015 O 90.9941 0.620818 1.85592 0
M  V30 1016 C 91.2931 3.57391 0.0249813 0
M  V30 1017 C 90.9591 4.32583 -1.27211 0
M  V30 1018 C 89.6211 4.52844 -1.62745 0
M  V30 1019 C 91.9731 4.75687 -2.13005 0
M  V30 1020 C 89.3011 5.13462 -2.83855 0
M  V30 1021 C 91.6531 5.37644 -3.3335 0
M  V30 1022 C 90.3171 5.5613 -3.69155 0
M  V30 1023 H 89.5871 0.740407 -0.0296397 0
M  V30 1024 H 92.2341 1.75321 -0.770374 0
M  V30 1025 H 90.5391 3.83597 0.797537 0
M  V30 1026 H 92.2361 3.98621 0.436184 0
M  V30 1027 H 88.8261 4.17116 -0.985499 0
M  V30 1028 H 93.0101 4.59782 -1.86855 0
M  V30 1029 H 88.2661 5.25965 -3.11722 0
M  V30 1030 H 92.4401 5.7 -4.00092 0
M  V30 1031 H 90.0671 6.0287 -4.63089 0
M  V30 1032 N 91.6422 0.330177 1.54103 0
M  V30 1033 C 93.0582 -0.0222371 1.59585 0
M  V30 1034 C 93.2582 -1.49902 1.34654 0
M  V30 1035 O 92.3142 -2.25592 1.13421 0
M  V30 1036 C 93.6272 0.401932 2.98002 0
M  V30 1037 C 95.1752 0.353145 3.11001 0
M  V30 1038 C 95.6502 0.752576 4.51775 0
M  V30 1039 N 97.1412 0.706239 4.57784 0
M  V30 1040 C 97.8762 0.987417 5.64834 0
M  V30 1041 N 97.3722 1.33607 6.79795 0
M  V30 1042 N 99.1652 0.91254 5.54643 0
M  V30 1043 H 91.3162 1.29228 1.68564 0
M  V30 1044 H 93.5792 0.525906 0.78875 0
M  V30 1045 H 93.2852 1.4311 3.21267 0
M  V30 1046 H 93.1592 -0.229699 3.765 0
M  V30 1047 H 95.5462 -0.666822 2.87467 0
M  V30 1048 H 95.6272 1.0198 2.34593 0
M  V30 1049 H 95.2712 1.77049 4.76042 0
M  V30 1050 H 95.2012 0.0635409 5.26562 0
M  V30 1051 H 97.6922 0.44889 3.75224 0
M  V30 1052 H 98.0052 1.53582 7.57385 0
M  V30 1053 H 96.3502 1.37439 6.81275 0
M  V30 1054 H 99.5412 0.639601 4.6371 0
M  V30 1055 H 99.7142 1.13503 6.37982 0
M  V30 1056 N 93.1203 -1.57491 0.0584922 0
M  V30 1057 C 94.0673 -2.11958 -0.913376 0
M  V30 1058 C 95.0373 -1.02875 -1.30407 0
M  V30 1059 O 96.2223 -1.30464 -1.39226 0
M  V30 1060 C 93.3623 -2.67497 -2.18035 0
M  V30 1061 C 92.4753 -3.90691 -1.84349 0
M  V30 1062 C 91.6103 -4.3452 -3.05559 0
M  V30 1063 C 90.6493 -5.50395 -2.67827 0
M  V30 1064 N 89.7863 -5.89244 -3.81754 0
M  V30 1065 H 94.6263 -2.94704 -0.442017 0
M  V30 1066 H 92.1633 -1.45643 -0.206545 0
M  V30 1067 H 94.1213 -2.978 -2.92183 0
M  V30 1068 H 92.7513 -1.87537 -2.62735 0
M  V30 1069 H 91.8033 -3.66934 -1.00319 0
M  V30 1070 H 93.1153 -4.7489 -1.5258 0
M  V30 1071 H 92.2693 -4.66414 -3.87998 0
M  V30 1072 H 91.0083 -3.49147 -3.40511 0
M  V30 1073 H 90.0133 -5.18165 -1.83806 0
M  V30 1074 H 91.2383 -6.3749 -2.34059 0
M  V30 1075 H 89.1843 -5.06823 -4.16493 0
M  V30 1076 H 89.1013 -6.68151 -3.53708 0
M  V30 1077 H 90.3693 -6.25756 -4.64811 0
M  V30 1078 N 94.5984 0.214957 -1.56127 0
M  V30 1079 C 95.8264 0.955092 -1.83536 0
M  V30 1080 C 96.2414 1.77677 -0.638472 0
M  V30 1081 O 95.5984 1.78219 0.392968 0
M  V30 1082 C 95.6494 1.86734 -3.09536 0
M  V30 1083 O 95.3704 1.07887 -4.24608 0
M  V30 1084 C 96.8714 2.72082 -3.4998 0
M  V30 1085 H 94.0914 0.279611 -0.609966 0
M  V30 1086 H 96.6354 0.228197 -2.03223 0
M  V30 1087 H 94.7904 2.5481 -2.91806 0
M  V30 1088 H 95.2044 1.69872 -4.9623 0
M  V30 1089 H 96.6784 3.31782 -4.41163 0
M  V30 1090 H 97.1554 3.44806 -2.7204 0
M  V30 1091 H 97.7614 2.09409 -3.70173 0
M  V30 1092 N 96.0765 1.50051 0.48192 0
M  V30 1093 C 97.0095 1.62749 1.59963 0
M  V30 1094 C 97.9875 0.475903 1.5548 0
M  V30 1095 O 99.1715 0.693986 1.7526 0
M  V30 1096 C 96.2985 1.60008 2.98522 0
M  V30 1097 C 95.3445 2.80596 3.21198 0
M  V30 1098 S 96.1775 4.42038 3.02262 0
M  V30 1099 C 97.3335 4.41973 4.43182 0
M  V30 1100 H 97.5665 2.57296 1.4895 0
M  V30 1101 H 95.0995 1.39179 0.668477 0
M  V30 1102 H 97.0575 1.59112 3.78409 0
M  V30 1103 H 95.7185 0.667153 3.06933 0
M  V30 1104 H 94.9115 2.74952 4.22395 0
M  V30 1105 H 94.5135 2.79003 2.49065 0
M  V30 1106 H 96.8055 4.14868 5.35622 0
M  V30 1107 H 97.7485 5.43512 4.53873 0
M  V30 1108 H 98.1565 3.71812 4.24755 0
M  V30 1109 N 97.5546 -0.734337 1.39446 0
M  V30 1110 C 98.8316 -1.48579 1.27215 0
M  V30 1111 C 99.2116 -2.1077 -0.117968 0
M  V30 1112 O 98.5596 -1.98646 -1.12924 0
M  V30 1113 C 98.7696 -2.53667 2.39696 0
M  V30 1114 C 100.118 -3.20031 2.79044 0
M  V30 1115 O 101.142 -2.6398 2.39151 0
M  V30 1116 O 100.001 -4.21455 3.47905 0
M  V30 1117 H 97.0946 -0.659816 0.49857 0
M  V30 1118 H 99.6406 -0.768106 1.51322 0
M  V30 1119 H 98.4126 -2.06096 3.32626 0
M  V30 1120 H 98.0356 -3.32994 2.17258 0
M  V30 1121 N 99.0327 -1.24633 -0.964593 0
M  V30 1122 C 100.282 -1.08188 -1.7023 0
M  V30 1123 C 100.595 0.37873 -1.91898 0
M  V30 1124 O 101.801 0.663427 -2.6327 0
M  V30 1125 C 100.257 -1.88773 -3.06419 0
M  V30 1126 C 99.8647 -3.39263 -2.92582 0
M  V30 1127 C 101.609 -1.80867 -3.84041 0
M  V30 1128 C 99.5157 -4.1218 -4.24101 0
M  V30 1129 H 98.4457 -0.401245 -0.638372 0
M  V30 1130 H 101.097 -1.48742 -1.07462 0
M  V30 1131 H 99.4787 -1.41035 -3.70034 0
M  V30 1132 H 100.653 -3.94603 -2.37961 0
M  V30 1133 H 98.9677 -3.48154 -2.28424 0
M  V30 1134 H 101.565 -2.32646 -4.81435 0
M  V30 1135 H 101.908 -0.774543 -4.09031 0
M  V30 1136 H 102.441 -2.26301 -3.27159 0
M  V30 1137 H 99.1797 -5.15965 -4.04303 0
M  V30 1138 H 98.6997 -3.61626 -4.78526 0
M  V30 1139 H 100.379 -4.19349 -4.92702 0
M  V30 1140 N 100.511 1.16574 -1.06058 0
M  V30 1141 C 101.788 1.83048 -0.689416 0
M  V30 1142 C 102.168 1.94122 0.829443 0
M  V30 1143 O 101.516 1.48249 1.7388 0
M  V30 1144 C 101.726 3.20186 -1.38859 0
M  V30 1145 C 103.074 3.95989 -1.53226 0
M  V30 1146 O 104.098 3.29696 -1.3483 0
M  V30 1147 O 102.957 5.14813 -1.83384 0
M  V30 1148 H 100.051 0.790258 -0.243764 0
M  V30 1149 H 102.597 1.23797 -1.16071 0
M  V30 1150 H 101.369 3.07146 -2.4244 0
M  V30 1151 H 100.992 3.87112 -0.907216 0
M  V30 1152 N 101.989 0.842826 1.3317 0
M  V30 1153 C 102.939 0.250877 2.26616 0
M  V30 1154 C 103.923 -0.596427 1.49437 0
M  V30 1155 O 105.115 -0.447747 1.71243 0
M  V30 1156 C 102.244 -0.569779 3.38539 0
M  V30 1157 C 101.33 0.289254 4.23112 0
M  V30 1158 N 101.721 1.36987 4.86897 0
M  V30 1159 C 100.019 0.0769631 4.45934 0
M  V30 1160 C 100.72 1.89737 5.49886 0
M  V30 1161 N 99.6959 1.19827 5.30229 0
M  V30 1162 H 103.498 1.07718 2.73448 0
M  V30 1163 H 101.012 0.687693 1.47121 0
M  V30 1164 H 103.009 -1.01018 4.04476 0
M  V30 1165 H 101.669 -1.39401 2.93253 0
M  V30 1166 H 102.68 1.75277 4.87338 0
M  V30 1167 H 99.3569 -0.713507 4.11358 0
M  V30 1168 H 100.747 2.80253 6.10662 0
M  V30 1169 N 103.467 -1.45747 0.599634 0
M  V30 1170 C 104.716 -2.01502 0.0893511 0
M  V30 1171 C 105.029 -1.4748 -1.28488 0
M  V30 1172 O 106.235 -1.95161 -1.88745 0
M  V30 1173 C 104.691 -3.59735 0.109082 0
M  V30 1174 C 104.299 -4.22754 1.48267 0
M  V30 1175 C 106.043 -4.23085 -0.346374 0
M  V30 1176 C 103.95 -5.73115 1.45921 0
M  V30 1177 H 102.88 -0.753417 0.0296347 0
M  V30 1178 H 105.531 -1.67303 0.753788 0
M  V30 1179 H 103.913 -3.91087 -0.621854 0
M  V30 1180 H 105.087 -4.02987 2.23468 0
M  V30 1181 H 103.402 -3.71567 1.87955 0
M  V30 1182 H 105.999 -5.33327 -0.38298 0
M  V30 1183 H 106.342 -3.93201 -1.36743 0
M  V30 1184 H 106.875 -3.9642 0.331038 0
M  V30 1185 H 103.614 -6.07685 2.45762 0
M  V30 1186 H 103.134 -5.95097 0.749665 0
M  V30 1187 H 104.813 -6.3616 1.17941 0
M  V30 1188 N 104.945 -0.338344 -1.53925 0
M  V30 1189 C 105.875 0.51328 -2.27789 0
M  V30 1190 C 106.856 1.107 -1.29149 0
M  V30 1191 O 108.041 1.12937 -1.57984 0
M  V30 1192 C 105.171 1.66697 -3.04679 0
M  V30 1193 C 104.125 1.20183 -4.1078 0
M  V30 1194 C 103.451 2.44363 -4.75595 0
M  V30 1195 C 104.751 0.30605 -5.21403 0
M  V30 1196 H 106.445 -0.102883 -2.99223 0
M  V30 1197 H 103.991 -0.0509219 -1.4391 0
M  V30 1198 H 105.944 2.26915 -3.55088 0
M  V30 1199 H 104.668 2.30995 -2.30887 0
M  V30 1200 H 103.327 0.622499 -3.61276 0
M  V30 1201 H 102.975 3.07057 -3.98403 0
M  V30 1202 H 102.675 2.13925 -5.47275 0
M  V30 1203 H 104.199 3.05317 -5.28786 0
M  V30 1204 H 105.613 0.814929 -5.67478 0
M  V30 1205 H 104.01 0.0937929 -6.00027 0
M  V30 1206 H 105.08 -0.65921 -4.80398 0
M  V30 1207 N 106.423 1.57458 -0.0668435 0
M  V30 1208 C 107.7 1.8469 0.644132 0
M  V30 1209 C 108.08 0.958343 1.88093 0
M  V30 1210 O 107.428 0.0233579 2.28488 0
M  V30 1211 C 107.638 3.34767 0.986509 0
M  V30 1212 C 108.986 4.02159 1.36212 0
M  V30 1213 O 110.01 3.39484 1.07839 0
M  V30 1214 O 108.869 5.12694 1.89227 0
M  V30 1215 H 105.963 0.762816 0.319437 0
M  V30 1216 H 108.509 1.6942 -0.0973986 0
M  V30 1217 H 107.281 3.91151 0.107883 0
M  V30 1218 H 106.904 3.55281 1.78497 0
M  V30 1219 N 107.901 -0.206675 1.56239 0
M  V30 1220 C 109.147 -0.925733 1.81113 0
M  V30 1221 C 109.502 -1.81368 0.642135 0
M  V30 1222 O 108.795 -1.88126 -0.363211 0
M  V30 1223 C 108.989 -1.78675 3.09532 0
M  V30 1224 C 108.818 -0.98365 4.3881 0
M  V30 1225 C 107.588 -0.672661 5.00803 0
M  V30 1226 C 109.786 -0.341847 5.13163 0
M  V30 1227 N 107.768 0.150283 6.13716 0
M  V30 1228 C 109.139 0.343815 6.19046 0
M  V30 1229 C 111.194 -0.256392 4.97239 0
M  V30 1230 C 109.897 1.10678 7.10734 0
M  V30 1231 C 111.923 0.493142 5.8934 0
M  V30 1232 C 111.285 1.16729 6.94661 0
M  V30 1233 H 107.384 -0.318524 0.714189 0
M  V30 1234 H 109.968 -0.195378 1.93717 0
M  V30 1235 H 108.139 -2.4888 2.98183 0
M  V30 1236 H 109.871 -2.44441 3.22538 0
M  V30 1237 H 106.626 -0.994294 4.63045 0
M  V30 1238 H 107.05 0.551026 6.74754 0
M  V30 1239 H 111.692 -0.763249 4.15854 0
M  V30 1240 H 109.41 1.6251 7.91591 0
M  V30 1241 H 112.996 0.560465 5.79094 0
M  V30 1242 H 111.876 1.738 7.64698 0
M  V30 1243 N 109.379 -1.50304 -0.473955 0
M  V30 1244 C 110.311 -1.65109 -1.58971 0
M  V30 1245 C 111.324 -0.532676 -1.53839 0
M  V30 1246 O 112.513 -0.805751 -1.59279 0
M  V30 1247 C 109.613 -1.61684 -2.97845 0
M  V30 1248 C 108.786 -2.8951 -3.27876 0
M  V30 1249 C 107.845 -2.78768 -4.4629 0
M  V30 1250 O 106.871 -3.52722 -4.46739 0
M  V30 1251 N 108.073 -1.9213 -5.47783 0
M  V30 1252 H 110.838 -2.61347 -1.46689 0
M  V30 1253 H 108.399 -1.47732 -0.662324 0
M  V30 1254 H 110.391 -1.52114 -3.75024 0
M  V30 1255 H 108.961 -0.731925 -3.03911 0
M  V30 1256 H 108.181 -3.13228 -2.39336 0
M  V30 1257 H 109.469 -3.74199 -3.4475 0
M  V30 1258 H 108.867 -1.31353 -5.50239 0
M  V30 1259 H 107.424 -1.88466 -6.23958 0
M  V30 1260 N 110.857 0.726932 -1.39834 0
M  V30 1261 C 112.268 1.30558 -1.3346 0
M  V30 1262 C 112.619 1.962 -0.00273003 0
M  V30 1263 O 111.744 1.96826 0.899371 0
M  V30 1264 C 112.339 2.37404 -2.41713 0
M  V30 1265 C 110.898 2.90921 -2.38835 0
M  V30 1266 C 110.045 1.64578 -2.2318 0
M  V30 1267 H 112.996 0.523862 -1.49804 0
M  V30 1268 H 113.017 3.17984 -2.08966 0
M  V30 1269 H 112.529 1.89599 -3.38635 0
M  V30 1270 H 110.63 3.42985 -1.45575 0
M  V30 1271 H 110.743 3.43487 -3.33997 0
M  V30 1272 H 109.107 1.89219 -1.70494 0
M  V30 1273 H 109.89 1.18814 -3.22084 0
M  V30 1274 N 112.336 1.25143 0.95797 0
M  V30 1275 C 113.747 1.08851 1.51685 0
M  V30 1276 C 114.098 -0.33687 1.93286 0
M  V30 1277 O 113.223 -1.22644 1.7829 0
M  V30 1278 C 113.818 1.96978 2.75654 0
M  V30 1279 C 112.377 1.84881 3.27866 0
M  V30 1280 C 111.524 1.91329 2.0072 0
M  V30 1281 H 114.475 1.38478 0.77522 0
M  V30 1282 H 114.496 1.5078 3.4935 0
M  V30 1283 H 114.008 3.00712 2.45345 0
M  V30 1284 H 112.109 0.840182 3.63004 0
M  V30 1285 H 112.222 2.6951 3.96107 0
M  V30 1286 H 110.586 1.35174 2.15871 0
M  V30 1287 H 111.369 2.96661 1.72764 0
M  V30 1288 N 113.814 -1.1601 1.06675 0
M  V30 1289 C 114.724 -2.24156 0.692179 0
M  V30 1290 C 115.74 -1.71507 -0.293513 0
M  V30 1291 O 116.916 -2.009 -0.141861 0
M  V30 1292 C 113.981 -3.46587 0.0884131 0
M  V30 1293 C 113.042 -4.14257 1.12646 0
M  V30 1294 C 112.275 -5.30844 0.551416 0
M  V30 1295 O 112.498 -5.66858 -0.634656 0
M  V30 1296 O 111.432 -5.87848 1.29298 0
M  V30 1297 H 115.258 -2.58513 1.59388 0
M  V30 1298 H 112.843 -1.23599 0.83926 0
M  V30 1299 H 114.725 -4.20679 -0.246361 0
M  V30 1300 H 113.4 -3.13994 -0.786712 0
M  V30 1301 H 112.307 -3.42118 1.51348 0
M  V30 1302 H 113.64 -4.50914 1.97325 0
M  V30 1303 N 115.292 -0.849877 -1.32721 0
M  V30 1304 C 116.538 -0.451591 -1.97708 0
M  V30 1305 C 116.871 0.989175 -1.6712 0
M  V30 1306 O 116.146 1.69334 -0.956891 0
M  V30 1307 C 116.429 -0.685598 -3.53513 0
M  V30 1308 C 116.282 -2.17444 -3.93749 0
M  V30 1309 C 117.601 -0.138874 -4.39881 0
M  V30 1310 H 114.72 -0.16555 -0.718166 0
M  V30 1311 H 117.362 -1.06742 -1.57182 0
M  V30 1312 H 115.512 -0.161416 -3.88165 0
M  V30 1313 H 117.184 -2.76433 -3.693 0
M  V30 1314 H 115.427 -2.65476 -3.43081 0
M  V30 1315 H 116.098 -2.28888 -5.02309 0
M  V30 1316 H 118.574 -0.587068 -4.11938 0
M  V30 1317 H 117.45 -0.332213 -5.47894 0
M  V30 1318 H 117.711 0.95806 -4.31594 0
M  V30 1319 N 116.77 1.45427 -0.607355 0
M  V30 1320 C 118.019 2.01452 -0.100036 0
M  V30 1321 C 118.332 1.48159 1.27704 0
M  V30 1322 O 119.538 1.96159 1.87707 0
M  V30 1323 C 117.994 3.59672 -0.128158 0
M  V30 1324 C 117.602 4.21962 -1.50507 0
M  V30 1325 C 119.346 4.23262 0.323932 0
M  V30 1326 C 117.253 5.72333 -1.48959 0
M  V30 1327 H 116.183 0.75325 -0.0336299 0
M  V30 1328 H 118.834 1.66901 -0.76265 0
M  V30 1329 H 117.216 3.91411 0.601105 0
M  V30 1330 H 118.39 4.01796 -2.25602 0
M  V30 1331 H 116.705 3.70565 -1.89923 0
M  V30 1332 H 119.302 5.33522 0.354691 0
M  V30 1333 H 119.645 3.93921 1.34656 0
M  V30 1334 H 120.178 3.96239 -0.352056 0
M  V30 1335 H 116.917 6.06373 -2.48981 0
M  V30 1336 H 116.437 5.94691 -0.781214 0
M  V30 1337 H 118.116 6.35525 -1.21313 0
M  V30 1338 N 118.248 0.346503 1.53744 0
M  V30 1339 C 119.18 -0.543316 2.22667 0
M  V30 1340 C 120.193 -1.06159 1.23427 0
M  V30 1341 O 121.382 -0.971235 1.49764 0
M  V30 1342 C 118.482 -1.76076 2.89569 0
M  V30 1343 C 117.655 -1.37727 4.15151 0
M  V30 1344 C 116.714 -2.45471 4.65436 0
M  V30 1345 O 115.74 -2.08655 5.29577 0
M  V30 1346 N 116.942 -3.7677 4.41616 0
M  V30 1347 H 119.707 0.0469703 2.99663 0
M  V30 1348 H 117.268 0.170766 1.60997 0
M  V30 1349 H 119.26 -2.47593 3.20125 0
M  V30 1350 H 117.83 -2.25835 2.16142 0
M  V30 1351 H 117.05 -0.492746 3.91108 0
M  V30 1352 H 118.338 -1.09708 4.96832 0
M  V30 1353 H 117.736 -4.09467 3.90325 0
M  V30 1354 H 116.293 -4.44448 4.7677 0
M  V30 1355 N 119.726 -1.57421 0.075193 0
M  V30 1356 C 120.673 -2.12915 -0.890843 0
M  V30 1357 C 121.643 -1.04252 -1.29309 0
M  V30 1358 O 122.828 -1.31933 -1.37834 0
M  V30 1359 C 119.968 -2.69795 -2.15186 0
M  V30 1360 C 119.081 -3.92624 -1.80194 0
M  V30 1361 C 118.216 -4.37736 -3.00933 0
M  V30 1362 C 117.255 -5.53205 -2.61974 0
M  V30 1363 N 116.392 -5.9326 -3.75483 0
M  V30 1364 H 121.232 -2.95156 -0.410735 0
M  V30 1365 H 118.769 -1.45854 -0.191086 0
M  V30 1366 H 120.727 -3.00883 -2.89008 0
M  V30 1367 H 119.357 -1.90313 -2.60731 0
M  V30 1368 H 118.409 -3.67977 -0.964218 0
M  V30 1369 H 119.721 -4.76482 -1.47534 0
M  V30 1370 H 118.875 -4.70503 -3.8303 0
M  V30 1371 H 117.614 -3.52739 -3.36789 0
M  V30 1372 H 116.619 -5.20086 -1.783 0
M  V30 1373 H 117.844 -6.39936 -2.27284 0
M  V30 1374 H 115.79 -5.11212 -4.11094 0
M  V30 1375 H 115.707 -6.71865 -3.46602 0
M  V30 1376 H 116.975 -6.30651 -4.58148 0
M  V30 1377 N 121.204 0.198386 -1.56346 0
M  V30 1378 C 122.434 0.934215 -1.84271 0
M  V30 1379 C 122.842 1.77496 -0.655125 0
M  V30 1380 O 122.185 1.7961 0.385488 0
M  V30 1381 C 122.247 1.88278 -3.06254 0
M  V30 1382 C 121.911 1.22431 -4.40295 0
M  V30 1383 C 122.908 0.602839 -5.16393 0
M  V30 1384 C 120.593 1.22915 -4.87029 0
M  V30 1385 C 122.587 -0.0050083 -6.374 0
M  V30 1386 C 120.274 0.617465 -6.07973 0
M  V30 1387 C 121.272 0.00146341 -6.83 0
M  V30 1388 O 120.96 -0.600642 -8.01653 0
M  V30 1389 H 120.692 0.278245 -0.616081 0
M  V30 1390 H 123.246 0.211626 -2.04307 0
M  V30 1391 H 121.476 2.64498 -2.82095 0
M  V30 1392 H 123.165 2.48612 -3.20853 0
M  V30 1393 H 123.931 0.591265 -4.81382 0
M  V30 1394 H 119.81 1.69801 -4.28589 0
M  V30 1395 H 123.354 -0.48643 -6.95902 0
M  V30 1396 H 119.251 0.62653 -6.42452 0
M  V30 1397 H 120.019 -0.497225 -8.16988 0
M  V30 1398 N 122.682 1.50554 0.465978 0
M  V30 1399 C 123.615 1.64436 1.58227 0
M  V30 1400 C 124.593 0.492367 1.54966 0
M  V30 1401 O 125.777 0.712536 1.74514 0
M  V30 1402 C 122.904 1.63165 2.96808 0
M  V30 1403 C 121.95 2.83987 3.18204 0
M  V30 1404 S 122.783 4.45219 2.97557 0
M  V30 1405 C 123.939 4.46649 4.3847 0
M  V30 1406 H 124.172 2.58861 1.46213 0
M  V30 1407 H 121.705 1.3988 0.653678 0
M  V30 1408 H 123.663 1.63116 3.76701 0
M  V30 1409 H 122.324 0.69967 3.06208 0
M  V30 1410 H 121.517 2.79416 4.19455 0
M  V30 1411 H 121.119 2.81629 2.46092 0
M  V30 1412 H 123.411 4.20526 5.31191 0
M  V30 1413 H 124.354 5.48295 4.48082 0
M  V30 1414 H 124.762 3.76296 4.20787 0
M  V30 1415 N 124.16 -0.719506 1.40217 0
M  V30 1416 C 125.571 -1.29848 1.34151 0
M  V30 1417 C 125.922 -1.96196 0.0131349 0
M  V30 1418 O 125.047 -1.973 -0.88892 0
M  V30 1419 C 125.642 -2.36118 2.42968 0
M  V30 1420 C 124.201 -2.8965 2.40374 0
M  V30 1421 C 123.348 -1.63393 2.24049 0
M  V30 1422 H 126.299 -0.51591 1.5008 0
M  V30 1423 H 126.32 -3.16871 2.10649 0
M  V30 1424 H 125.832 -1.878 3.39636 0
M  V30 1425 H 123.933 -3.42208 1.47392 0
M  V30 1426 H 124.046 -3.4171 3.35814 0
M  V30 1427 H 122.41 -1.88312 1.71495 0
M  V30 1428 H 123.193 -1.17104 3.2271 0
M  V30 1429 N 125.638 -1.25649 -0.95132 0
M  V30 1430 C 126.886 -1.10375 -1.69298 0
M  V30 1431 C 127.207 0.355339 -1.91735 0
M  V30 1432 O 126.477 1.25188 -1.50681 0
M  V30 1433 H 125.057 -0.405461 -0.627384 0
M  V30 1434 H 127.719 -1.57823 -1.14358 0
M  V30 1435 H 126.815 -1.61465 -2.67087 0
M  V30 1436 N 127.117 1.15442 -1.07289 0
M  V30 1437 C 128.365 1.85845 -0.794096 0
M  V30 1438 C 128.686 1.82692 0.681809 0
M  V30 1439 O 127.956 1.26741 1.49377 0
M  V30 1440 H 126.536 0.688089 -0.290763 0
M  V30 1441 H 129.198 1.39947 -1.3565 0
M  V30 1442 H 128.294 2.91001 -1.12804 0
M  V30 1443 N 128.595 0.856903 1.32268 0
M  V30 1444 C 129.525 0.31858 2.31316 0
M  V30 1445 C 130.506 -0.583487 1.59779 0
M  V30 1446 O 131.691 -0.503259 1.87566 0
M  V30 1447 C 128.821 -0.491979 3.43798 0
M  V30 1448 C 127.775 0.315849 4.26833 0
M  V30 1449 C 127.101 -0.619586 5.31098 0
M  V30 1450 C 128.401 1.54282 4.98993 0
M  V30 1451 H 130.095 1.14621 2.76591 0
M  V30 1452 H 127.641 0.552613 1.32974 0
M  V30 1453 H 129.594 -0.879012 4.1213 0
M  V30 1454 H 128.318 -1.35299 2.97257 0
M  V30 1455 H 126.977 0.684664 3.6015 0
M  V30 1456 H 126.625 -1.47751 4.8081 0
M  V30 1457 H 126.325 -0.0830621 5.87541 0
M  V30 1458 H 127.849 -1.00375 6.02293 0
M  V30 1459 H 129.263 1.22796 5.59995 0
M  V30 1460 H 127.66 2.01745 5.65172 0
M  V30 1461 H 128.73 2.30285 4.26728 0
M  V30 1462 N 130.073 -1.45103 0.615059 0
M  V30 1463 C 131.313 -2.04069 0.116282 0
M  V30 1464 C 131.677 -1.4721 -1.2326 0
M  V30 1465 O 132.878 -1.97577 -1.82255 0
M  V30 1466 C 131.149 -3.57298 0.085482 0
M  V30 1467 S 132.708 -4.37394 -0.351015 0
M  V30 1468 H 129.526 -0.709006 0.0532183 0
M  V30 1469 H 132.128 -1.77709 0.81484 0
M  V30 1470 H 130.832 -3.9619 1.0706 0
M  V30 1471 H 130.363 -3.88244 -0.634835 0
M  V30 1472 H 132.378 -4.69734 -1.59889 0
M  V30 1473 N 131.551 -0.354651 -1.53558 0
M  V30 1474 C 132.799 0.237972 -2.00694 0
M  V30 1475 C 133.12 1.50173 -1.24391 0
M  V30 1476 O 132.39 1.92673 -0.354135 0
M  V30 1477 H 130.97 0.0909256 -0.741446 0
M  V30 1478 H 133.632 -0.478368 -1.88938 0
M  V30 1479 H 132.728 0.47264 -3.085 0
M  V30 1480 N 133.029 1.57378 -0.0835403 0
M  V30 1481 C 134.259 1.97975 0.590713 0
M  V30 1482 C 134.667 0.961083 1.62972 0
M  V30 1483 O 134.01 -0.0590879 1.83605 0
M  V30 1484 C 134.072 3.34915 1.3066 0
M  V30 1485 C 133.736 4.55069 0.419698 0
M  V30 1486 C 134.733 5.18868 -0.32749 0
M  V30 1487 C 132.418 5.0114 0.341137 0
M  V30 1488 C 134.412 6.27098 -1.14134 0
M  V30 1489 C 132.099 6.0924 -0.476374 0
M  V30 1490 C 133.097 6.72083 -1.21627 0
M  V30 1491 O 132.785 7.781 -2.02028 0
M  V30 1492 H 132.517 0.655818 0.163947 0
M  V30 1493 H 135.071 2.04807 -0.156021 0
M  V30 1494 H 133.301 3.24733 2.09966 0
M  V30 1495 H 134.99 3.60037 1.87424 0
M  V30 1496 H 135.756 4.84211 -0.276459 0
M  V30 1497 H 131.635 4.51996 0.90668 0
M  V30 1498 H 135.179 6.7608 -1.71935 0
M  V30 1499 H 131.076 6.43329 -0.528927 0
M  V30 1500 H 131.844 7.95034 -1.94586 0
M  V30 1501 N 134.507 -0.190092 1.56449 0
M  V30 1502 C 135.784 -0.935886 1.71757 0
M  V30 1503 C 136.164 -2.01173 0.639726 0
M  V30 1504 O 135.512 -2.25827 -0.348502 0
M  V30 1505 C 135.722 -1.51775 3.1427 0
M  V30 1506 C 137.07 -1.99794 3.74656 0
M  V30 1507 O 138.094 -1.61607 3.1743 0
M  V30 1508 O 136.953 -2.70079 4.751 0
M  V30 1509 H 134.047 -0.439229 0.700719 0
M  V30 1510 H 136.593 -0.179395 1.68749 0
M  V30 1511 H 135.365 -0.742505 3.84191 0
M  V30 1512 H 134.988 -2.33894 3.21527 0
M  V30 1513 N 135.985 -1.50799 -0.457987 0
M  V30 1514 C 137.401 -1.38515 -0.792819 0
M  V30 1515 C 137.601 -0.451409 -1.96379 0
M  V30 1516 O 136.657 0.10112 -2.52297 0
M  V30 1517 C 137.97 -2.80149 -1.09258 0
M  V30 1518 C 139.518 -2.89156 -1.19825 0
M  V30 1519 C 139.993 -4.31651 -1.53106 0
M  V30 1520 N 141.484 -4.34662 -1.60072 0
M  V30 1521 C 142.219 -5.41928 -1.87354 0
M  V30 1522 N 141.715 -6.59384 -2.12568 0
M  V30 1523 N 143.508 -5.29385 -1.88965 0
M  V30 1524 H 135.659 -2.10073 0.313511 0
M  V30 1525 H 137.922 -0.944803 0.0777862 0
M  V30 1526 H 137.628 -3.50374 -0.305084 0
M  V30 1527 H 137.502 -3.18204 -2.02549 0
M  V30 1528 H 139.889 -2.19141 -1.97639 0
M  V30 1529 H 139.97 -2.54626 -0.244821 0
M  V30 1530 H 139.614 -5.02208 -0.758266 0
M  V30 1531 H 139.544 -4.63678 -2.49621 0
M  V30 1532 H 142.035 -3.49973 -1.42573 0
M  V30 1533 H 142.348 -7.36934 -2.32696 0
M  V30 1534 H 140.693 -6.62535 -2.09933 0
M  V30 1535 H 143.884 -4.36616 -1.68772 0
M  V30 1536 H 144.057 -6.13066 -2.09891 0
M  V30 1537 N 137.463 0.71206 -1.40597 0
M  V30 1538 C 138.74 1.46536 -1.29563 0
M  V30 1539 C 139.12 2.10931 0.0844217 0
M  V30 1540 O 138.468 2.00418 1.0975 0
M  V30 1541 C 138.678 2.49821 -2.43701 0
M  V30 1542 C 140.026 3.15551 -2.841 0
M  V30 1543 O 141.05 2.60142 -2.4332 0
M  V30 1544 O 139.909 4.15867 -3.54566 0
M  V30 1545 H 137.003 0.651801 -0.509004 0
M  V30 1546 H 139.549 0.743935 -1.52524 0
M  V30 1547 H 138.321 2.00778 -3.35863 0
M  V30 1548 H 137.944 3.29495 -2.22528 0
M  V30 1549 N 138.941 1.26152 0.944643 0
M  V30 1550 C 140.189 1.11271 1.6871 0
M  V30 1551 C 140.51 -0.345166 1.91921 0
M  V30 1552 O 139.78 -1.24387 1.51343 0
M  V30 1553 H 138.36 0.408783 0.625224 0
M  V30 1554 H 141.022 1.58427 1.1352 0
M  V30 1555 H 140.118 1.62879 2.66227 0
M  V30 1556 N 140.419 -1.14872 1.07899 0
M  V30 1557 C 141.659 -1.8745 0.814965 0
M  V30 1558 C 142.023 -1.80758 -0.64733 0
M  V30 1559 O 143.224 -2.48422 -1.02664 0
M  V30 1560 C 141.495 -3.32286 1.31607 0
M  V30 1561 S 143.054 -4.22537 1.18357 0
M  V30 1562 H 139.872 -0.646833 0.295174 0
M  V30 1563 H 142.474 -1.38555 1.37923 0
M  V30 1564 H 141.178 -3.34703 2.37491 0
M  V30 1565 H 140.709 -3.86238 0.747261 0
M  V30 1566 H 142.724 -4.96044 0.124586 0
M  V30 1567 N 141.898 -0.863906 -1.31812 0
M  V30 1568 C 143.309 -0.52522 -1.7916 0
M  V30 1569 C 143.66 0.957518 -1.71248 0
M  V30 1570 O 142.785 1.74734 -1.27659 0
M  V30 1571 C 143.38 -0.9466 -3.25307 0
M  V30 1572 C 141.939 -0.659668 -3.70574 0
M  V30 1573 C 141.086 -1.14126 -2.52726 0
M  V30 1574 H 144.037 -1.05022 -1.1898 0
M  V30 1575 H 144.058 -0.266766 -3.79564 0
M  V30 1576 H 143.57 -2.02579 -3.31034 0
M  V30 1577 H 141.671 0.408416 -3.70355 0
M  V30 1578 H 141.784 -1.23245 -4.62977 0
M  V30 1579 H 140.148 -0.561216 -2.4844 0
M  V30 1580 H 140.931 -2.22775 -2.61201 0
M  V30 1581 N 143.376 1.44774 -0.622745 0
M  V30 1582 C 144.622 2.0242 -0.124083 0
M  V30 1583 C 144.955 1.4881 1.24777 0
M  V30 1584 O 144.23 0.668799 1.8264 0
M  V30 1585 C 144.513 3.59957 -0.101619 0
M  V30 1586 C 144.366 4.23867 -1.50521 0
M  V30 1587 C 145.685 4.36284 0.578272 0
M  V30 1588 H 142.804 0.735528 -0.0465645 0
M  V30 1589 H 145.446 1.72447 -0.797617 0
M  V30 1590 H 143.596 3.85623 0.471934 0
M  V30 1591 H 145.268 4.09336 -2.12701 0
M  V30 1592 H 143.511 3.81684 -2.06154 0
M  V30 1593 H 144.182 5.32843 -1.4416 0
M  V30 1594 H 146.658 4.16001 0.0906057 0
M  V30 1595 H 145.534 5.46004 0.563149 0
M  V30 1596 H 145.795 4.10271 1.64713 0
M  V30 1597 N 144.854 0.36279 1.53368 0
M  V30 1598 C 146.1 -0.220702 2.02199 0
M  V30 1599 C 146.455 -1.46649 1.24546 0
M  V30 1600 O 145.748 -1.88737 0.32996 0
M  V30 1601 C 145.942 -0.568417 3.52851 0
M  V30 1602 C 145.771 0.642126 4.45092 0
M  V30 1603 C 144.541 1.15335 4.91961 0
M  V30 1604 C 146.739 1.50649 4.91741 0
M  V30 1605 N 144.721 2.3242 5.68202 0
M  V30 1606 C 146.092 2.52404 5.66297 0
M  V30 1607 C 148.147 1.52969 4.73819 0
M  V30 1608 C 146.85 3.56331 6.24836 0
M  V30 1609 C 148.876 2.55789 5.33222 0
M  V30 1610 C 148.238 3.56268 6.07662 0
M  V30 1611 H 144.337 -0.0435508 0.780786 0
M  V30 1612 H 146.921 0.506704 1.87991 0
M  V30 1613 H 145.092 -1.2649 3.67226 0
M  V30 1614 H 146.824 -1.13676 3.88407 0
M  V30 1615 H 143.579 0.718412 4.68119 0
M  V30 1616 H 144.003 2.91591 6.10986 0
M  V30 1617 H 148.645 0.766418 4.15795 0
M  V30 1618 H 146.363 4.33543 6.81958 0
M  V30 1619 H 149.949 2.58435 5.21251 0
M  V30 1620 H 148.829 4.34524 6.52808 0
M  V30 1621 N 146.332 -1.57332 0.0918853 0
M  V30 1622 C 147.562 -1.98286 -0.580205 0
M  V30 1623 C 147.97 -0.969713 -1.6246 0
M  V30 1624 O 147.313 0.0493501 -1.83634 0
M  V30 1625 C 147.375 -3.35603 -1.28882 0
M  V30 1626 C 147.039 -4.55285 -0.395559 0
M  V30 1627 C 148.036 -5.18687 0.355002 0
M  V30 1628 C 145.721 -5.01314 -0.314556 0
M  V30 1629 C 147.715 -6.26484 1.17458 0
M  V30 1630 C 145.402 -6.08979 0.508677 0
M  V30 1631 C 146.4 -6.71429 1.2519 0
M  V30 1632 O 146.088 -7.77018 2.06151 0
M  V30 1633 H 145.82 -0.656678 -0.160466 0
M  V30 1634 H 148.374 -2.04721 0.16688 0
M  V30 1635 H 146.604 -3.25842 -2.08241 0
M  V30 1636 H 148.293 -3.61026 -1.85512 0
M  V30 1637 H 149.059 -4.84058 0.302134 0
M  V30 1638 H 144.938 -4.5247 -0.882697 0
M  V30 1639 H 148.482 -6.75159 1.75518 0
M  V30 1640 H 144.379 -6.4304 0.563037 0
M  V30 1641 H 145.147 -7.93991 1.98799 0
M  V30 1642 N 147.81 0.181792 -1.56548 0
M  V30 1643 C 149.087 0.926765 -1.72251 0
M  V30 1644 C 149.467 2.00831 -0.650386 0
M  V30 1645 O 148.815 2.26008 0.336521 0
M  V30 1646 C 149.025 1.50106 -3.1507 0
M  V30 1647 C 150.373 1.97805 -3.75711 0
M  V30 1648 O 151.397 1.59922 -3.18282 0
M  V30 1649 O 150.256 2.67555 -4.76525 0
M  V30 1650 H 147.35 0.435506 -0.703039 0
M  V30 1651 H 149.896 0.170443 -1.68842 0
M  V30 1652 H 148.668 0.72212 -3.84579 0
M  V30 1653 H 148.291 2.32186 -3.22763 0
M  V30 1654 N 149.288 1.51039 0.449983 0
M  V30 1655 C 150.537 1.62317 1.19733 0
M  V30 1656 C 150.85 0.339101 1.92638 0
M  V30 1657 O 152.056 0.331069 2.69474 0
M  V30 1658 C 150.512 2.86608 2.17678 0
M  V30 1659 C 150.12 4.21972 1.50479 0
M  V30 1660 C 151.864 3.07239 2.92924 0
M  V30 1661 C 149.771 5.37426 2.46834 0
M  V30 1662 H 148.701 0.604532 0.450619 0
M  V30 1663 H 151.352 1.77494 0.465625 0
M  V30 1664 H 149.734 2.65037 2.94231 0
M  V30 1665 H 150.908 4.53878 0.795716 0
M  V30 1666 H 149.223 4.07117 0.874344 0
M  V30 1667 H 151.82 3.90668 3.65079 0
M  V30 1668 H 152.163 2.19807 3.5354 0
M  V30 1669 H 152.696 3.29091 2.23481 0
M  V30 1670 H 149.435 6.27079 1.90926 0
M  V30 1671 H 148.955 5.09912 3.15832 0
M  V30 1672 H 150.634 5.68862 3.08228 0
M  V30 1673 N 150.766 -0.704594 1.40972 0
M  V30 1674 C 152.015 -1.46018 1.39146 0
M  V30 1675 C 152.328 -1.956 0.000589254 0
M  V30 1676 O 153.534 -2.71137 -0.1403 0
M  V30 1677 C 151.99 -2.63996 2.4461 0
M  V30 1678 C 151.598 -2.21238 3.89561 0
M  V30 1679 C 153.342 -3.41677 2.51907 0
M  V30 1680 C 151.249 -3.3612 4.86598 0
M  V30 1681 H 150.179 -0.548444 0.517422 0
M  V30 1682 H 152.83 -0.765784 1.66757 0
M  V30 1683 H 151.212 -3.3566 2.10115 0
M  V30 1684 H 152.386 -1.56923 4.33257 0
M  V30 1685 H 150.701 -1.56574 3.85841 0
M  V30 1686 H 153.298 -4.27182 3.2159 0
M  V30 1687 H 153.641 -3.86247 1.55303 0
M  V30 1688 H 154.174 -2.77064 2.85448 0
M  V30 1689 H 150.913 -2.96572 5.84573 0
M  V30 1690 H 150.433 -3.99315 4.47557 0
M  V30 1691 H 152.112 -4.02029 5.06934 0
M  V30 1692 N 152.244 -1.26651 -0.937939 0
M  V30 1693 C 153.492 -1.12165 -1.68118 0
M  V30 1694 C 153.813 0.334983 -1.92101 0
M  V30 1695 O 153.083 1.23583 -1.52 0
M  V30 1696 H 151.663 -0.412093 -0.623048 0
M  V30 1697 H 154.325 -1.59027 -1.12678 0
M  V30 1698 H 153.421 -1.64289 -2.6536 0
M  V30 1699 N 153.722 1.14298 -1.08507 0
M  V30 1700 C 155.133 1.66926 -0.836227 0
M  V30 1701 C 155.484 1.85576 0.63686 0
M  V30 1702 O 154.609 1.56767 1.49175 0
M  V30 1703 C 155.204 3.03219 -1.51142 0
M  V30 1704 C 153.763 3.52876 -1.30979 0
M  V30 1705 C 152.91 2.2833 -1.57356 0
M  V30 1706 H 155.861 0.983491 -1.24552 0
M  V30 1707 H 155.882 3.68726 -0.939211 0
M  V30 1708 H 155.394 2.89612 -2.58353 0
M  V30 1709 H 153.495 3.71703 -0.258429 0
M  V30 1710 H 153.608 4.33586 -2.03814 0
M  V30 1711 H 151.972 2.34454 -0.995164 0
M  V30 1712 H 152.755 2.17298 -2.65775 0
M  V30 1713 N 155.201 0.870884 1.31352 0
M  V30 1714 C 156.131 0.343096 2.30966 0
M  V30 1715 C 157.112 -0.566507 1.60389 0
M  V30 1716 O 158.297 -0.483336 1.88089 0
M  V30 1717 C 155.427 -0.455487 3.443 0
M  V30 1718 C 154.381 0.361103 4.26474 0
M  V30 1719 C 153.707 -0.563221 5.31725 0
M  V30 1720 C 155.007 1.59566 4.97329 0
M  V30 1721 H 156.701 1.17548 2.75359 0
M  V30 1722 H 154.247 0.566686 1.32381 0
M  V30 1723 H 156.2 -0.83525 4.13039 0
M  V30 1724 H 154.924 -1.32139 2.98675 0
M  V30 1725 H 153.583 0.722825 3.59403 0
M  V30 1726 H 153.231 -1.42643 4.82351 0
M  V30 1727 H 152.931 -0.0207409 5.87596 0
M  V30 1728 H 154.455 -0.939808 6.03324 0
M  V30 1729 H 155.869 1.28728 5.58661 0
M  V30 1730 H 154.266 2.07728 5.63 0
M  V30 1731 H 155.336 2.34798 4.24262 0
M  V30 1732 N 156.679 -1.44442 0.630414 0
M  V30 1733 C 157.956 -1.9549 0.0655657 0
M  V30 1734 C 158.336 -1.5724 -1.40851 0
M  V30 1735 O 157.684 -0.846116 -2.12257 0
M  V30 1736 C 157.894 -3.47812 0.287691 0
M  V30 1737 C 159.242 -4.24216 0.180513 0
M  V30 1738 O 160.266 -3.55526 0.219019 0
M  V30 1739 O 159.125 -5.46434 0.0848493 0
M  V30 1740 H 156.219 -0.826688 -0.0227177 0
M  V30 1741 H 158.765 -1.54496 0.702068 0
M  V30 1742 H 157.537 -3.687 1.31056 0
M  V30 1743 H 157.16 -3.95751 -0.382984 0
M  V30 1744 N 158.157 -0.370918 -1.53173 0
M  V30 1745 C 159.568 0.107139 -1.86392 0
M  V30 1746 C 159.919 1.47714 -1.29132 0
M  V30 1747 O 159.044 2.07464 -0.615439 0
M  V30 1748 C 159.639 0.201187 -3.38202 0
M  V30 1749 C 158.198 0.623507 -3.712 0
M  V30 1750 C 157.345 -0.225978 -2.76378 0
M  V30 1751 H 160.296 -0.58951 -1.47345 0
M  V30 1752 H 160.317 1.02377 -3.66468 0
M  V30 1753 H 159.829 -0.796058 -3.79848 0
M  V30 1754 H 157.93 1.62879 -3.35114 0
M  V30 1755 H 158.043 0.394414 -4.77474 0
M  V30 1756 H 156.407 0.305962 -2.52856 0
M  V30 1757 H 157.19 -1.22086 -3.20858 0
M  V30 1758 N 159.635 1.57281 -0.100228 0
M  V30 1759 C 160.582 2.14305 0.856858 0
M  V30 1760 C 161.552 1.06296 1.27634 0
M  V30 1761 O 162.737 1.34109 1.35718 0
M  V30 1762 C 159.877 2.73184 2.10866 0
M  V30 1763 C 158.99 3.95442 1.73925 0
M  V30 1764 C 158.125 4.42468 2.93931 0
M  V30 1765 C 157.164 5.57303 2.5314 0
M  V30 1766 N 156.301 5.99158 3.65997 0
M  V30 1767 H 161.141 2.95772 0.363726 0
M  V30 1768 H 158.678 1.46139 0.167858 0
M  V30 1769 H 160.636 3.05442 2.84185 0
M  V30 1770 H 159.266 1.94437 2.57671 0
M  V30 1771 H 158.318 3.69464 0.905554 0
M  V30 1772 H 159.63 4.78769 1.39935 0
M  V30 1773 H 158.784 4.76537 3.75496 0
M  V30 1774 H 157.523 3.58052 3.31134 0
M  V30 1775 H 156.528 5.22857 1.70003 0
M  V30 1776 H 157.753 6.43471 2.17075 0
M  V30 1777 H 155.699 5.17687 4.02909 0
M  V30 1778 H 155.616 6.77295 3.35869 0
M  V30 1779 H 156.884 6.3786 4.48057 0
M  V30 1780 N 161.113 -0.173488 1.56642 0
M  V30 1781 C 162.361 -0.888706 1.81512 0
M  V30 1782 C 162.682 -1.82875 0.676872 0
M  V30 1783 O 161.952 -1.93536 -0.303414 0
M  V30 1784 H 160.532 -0.331164 0.669582 0
M  V30 1785 H 163.194 -0.173823 1.94123 0
M  V30 1786 H 162.29 -1.46691 2.75478 0
M  V30 1787 N 162.591 -1.51276 -0.441967 0
M  V30 1788 C 163.521 -1.752 -1.54361 0
M  V30 1789 C 164.502 -0.601682 -1.59103 0
M  V30 1790 O 165.687 -0.843913 -1.74905 0
M  V30 1791 C 162.817 -1.87282 -2.92477 0
M  V30 1792 C 161.771 -3.02687 -3.02596 0
M  V30 1793 C 161.097 -2.99947 -4.42647 0
M  V30 1794 C 162.397 -4.4273 -2.77106 0
M  V30 1795 H 164.091 -2.67442 -1.34592 0
M  V30 1796 H 161.637 -1.28694 -0.646048 0
M  V30 1797 H 163.59 -2.02602 -3.695 0
M  V30 1798 H 162.314 -0.916844 -3.13467 0
M  V30 1799 H 160.973 -2.87065 -2.28012 0
M  V30 1800 H 160.621 -2.02136 -4.60597 0
M  V30 1801 H 160.321 -3.77439 -4.50348 0
M  V30 1802 H 161.845 -3.17354 -5.2165 0
M  V30 1803 H 163.259 -4.58727 -3.43864 0
M  V30 1804 H 161.656 -5.21893 -2.96222 0
M  V30 1805 H 162.726 -4.53087 -1.72744 0
M  V30 1806 N 164.069 0.697108 -1.41344 0
M  V30 1807 C 164.999 1.82353 -1.45841 0
M  V30 1808 C 165.98 1.67115 -0.317247 0
M  V30 1809 O 167.165 1.86871 -0.528474 0
M  V30 1810 C 164.295 3.20476 -1.33838 0
M  V30 1811 C 163.249 3.50415 -2.4575 0
M  V30 1812 C 162.575 4.87878 -2.18813 0
M  V30 1813 C 163.875 3.49546 -3.88091 0
M  V30 1814 H 165.569 1.78846 -2.40113 0
M  V30 1815 H 163.115 0.859028 -1.15571 0
M  V30 1816 H 165.068 3.98988 -1.35596 0
M  V30 1817 H 163.792 3.24604 -0.360498 0
M  V30 1818 H 162.451 2.74253 -2.43271 0
M  V30 1819 H 162.099 4.8863 -1.19371 0
M  V30 1820 H 161.799 5.08875 -2.93803 0
M  V30 1821 H 163.323 5.68702 -2.22284 0
M  V30 1822 H 164.737 4.18066 -3.92293 0
M  V30 1823 H 163.134 3.82075 -4.62751 0
M  V30 1824 H 164.204 2.48552 -4.16353 0
M  V30 1825 N 165.547 1.27147 0.931209 0
M  V30 1826 C 166.794 1.13278 1.67852 0
M  V30 1827 C 167.122 -0.32204 1.91815 0
M  V30 1828 O 166.377 -1.25224 1.50391 0
M  V30 1829 C 166.676 1.8579 3.05314 0
M  V30 1830 C 166.342 3.35657 3.01073 0
M  V30 1831 C 165.004 3.76536 2.99623 0
M  V30 1832 C 167.356 4.31299 2.92627 0
M  V30 1833 C 164.684 5.11426 2.87506 0
M  V30 1834 C 167.036 5.66242 2.82051 0
M  V30 1835 C 165.7 6.06418 2.7895 0
M  V30 1836 H 164.97 0.414515 0.614214 0
M  V30 1837 H 167.617 1.57712 1.08624 0
M  V30 1838 H 165.922 1.33854 3.68226 0
M  V30 1839 H 167.619 1.72491 3.62005 0
M  V30 1840 H 164.209 3.03146 3.02986 0
M  V30 1841 H 168.393 4.00692 2.92848 0
M  V30 1842 H 163.649 5.41705 2.83489 0
M  V30 1843 H 167.823 6.40026 2.74481 0
M  V30 1844 H 165.45 7.10895 2.69318 0
M  V30 1845 N 167.025 -1.13721 1.09112 0
M  V30 1846 C 168.25 -1.89314 0.847053 0
M  V30 1847 C 168.675 -1.78416 -0.595774 0
M  V30 1848 O 168.033 -1.12942 -1.41823 0
M  V30 1849 C 168.081 -3.3701 1.28284 0
M  V30 1850 O 167.185 -4.10054 0.439267 0
M  V30 1851 H 166.526 -0.588745 0.307044 0
M  V30 1852 H 169.056 -1.43902 1.45442 0
M  V30 1853 H 169.066 -3.87834 1.26683 0
M  V30 1854 H 167.741 -3.4426 2.33363 0
M  V30 1855 H 166.318 -3.69266 0.519312 0
M  V30 1856 N 168.503 -0.877838 -1.30888 0
M  V30 1857 C 169.749 -0.493426 -1.96706 0
M  V30 1858 C 170.082 0.953504 -1.6918 0
M  V30 1859 O 169.357 1.67266 -0.992594 0
M  V30 1860 C 169.64 -0.760429 -3.51979 0
M  V30 1861 C 169.493 -2.25747 -3.89048 0
M  V30 1862 C 170.812 -0.232148 -4.39487 0
M  V30 1863 H 167.931 -0.180746 -0.714493 0
M  V30 1864 H 170.573 -1.10052 -1.54882 0
M  V30 1865 H 168.723 -0.243715 -3.87735 0
M  V30 1866 H 170.395 -2.84204 -3.63354 0
M  V30 1867 H 168.638 -2.72694 -3.37373 0
M  V30 1868 H 169.309 -2.39491 -4.97341 0
M  V30 1869 H 171.785 -0.674314 -4.106 0
M  V30 1870 H 170.661 -0.448355 -5.47066 0
M  V30 1871 H 170.922 0.866297 -4.33529 0
M  V30 1872 N 169.982 1.44106 -0.638065 0
M  V30 1873 C 171.21 2.06336 -0.152615 0
M  V30 1874 C 171.625 1.47731 1.17563 0
M  V30 1875 O 170.982 0.602806 1.72257 0
M  V30 1876 C 171.033 3.61479 -0.0391491 0
M  V30 1877 O 170.754 4.17903 -1.31487 0
M  V30 1878 C 172.255 4.40757 0.474176 0
M  V30 1879 H 169.475 0.665862 -0.0828776 0
M  V30 1880 H 172.019 1.84862 -0.87443 0
M  V30 1881 H 170.174 3.82191 0.633142 0
M  V30 1882 H 170.588 5.11416 -1.16421 0
M  V30 1883 H 172.062 5.49707 0.502562 0
M  V30 1884 H 172.539 4.12697 1.50258 0
M  V30 1885 H 173.145 4.24979 -0.165102 0
M  V30 1886 N 171.46 0.379036 1.52974 0
M  V30 1887 C 172.407 -0.461048 2.26148 0
M  V30 1888 C 173.377 -1.06637 1.27349 0
M  V30 1889 O 174.562 -1.09633 1.56157 0
M  V30 1890 C 171.702 -1.58782 3.06402 0
M  V30 1891 C 170.815 -1.00636 4.20115 0
M  V30 1892 C 169.95 -2.10334 4.87784 0
M  V30 1893 C 168.989 -1.49724 5.93506 0
M  V30 1894 N 168.126 -2.5331 6.54812 0
M  V30 1895 H 172.966 0.169429 2.97518 0
M  V30 1896 H 170.503 0.0953806 1.4679 0
M  V30 1897 H 172.461 -2.25174 3.51215 0
M  V30 1898 H 171.091 -2.18876 2.37261 0
M  V30 1899 H 170.143 -0.232332 3.7969 0
M  V30 1900 H 171.455 -0.523343 4.96047 0
M  V30 1901 H 170.609 -2.84519 5.35849 0
M  V30 1902 H 169.348 -2.61992 4.11353 0
M  V30 1903 H 168.353 -0.740598 5.44789 0
M  V30 1904 H 169.578 -0.988732 6.71864 0
M  V30 1905 H 167.524 -3.04156 5.81227 0
M  V30 1906 H 167.441 -2.09734 7.26325 0
M  V30 1907 H 168.709 -3.27155 7.07524 0
M  V30 1908 N 172.938 -1.57226 0.108567 0
M  V30 1909 C 173.87 -2.11809 -0.875752 0
M  V30 1910 C 174.883 -1.05839 -1.23701 0
M  V30 1911 O 176.072 -1.33245 -1.18778 0
M  V30 1912 C 173.172 -2.59411 -2.18081 0
M  V30 1913 C 172.345 -3.89364 -1.99284 0
M  V30 1914 C 171.404 -4.22672 -3.13424 0
M  V30 1915 O 170.43 -4.91668 -2.86795 0
M  V30 1916 N 171.632 -3.79154 -4.3957 0
M  V30 1917 H 174.397 -2.9689 -0.409477 0
M  V30 1918 H 171.958 -1.61721 -0.076158 0
M  V30 1919 H 173.95 -2.7873 -2.93414 0
M  V30 1920 H 172.52 -1.79268 -2.5609 0
M  V30 1921 H 171.74 -3.79059 -1.08203 0
M  V30 1922 H 173.028 -4.74358 -1.84017 0
M  V30 1923 H 172.426 -3.23486 -4.64083 0
M  V30 1924 H 170.983 -4.03602 -5.11809 0
M  V30 1925 N 174.416 0.165178 -1.56732 0
M  V30 1926 C 175.693 0.908443 -1.73224 0
M  V30 1927 C 176.073 2.0013 -0.67165 0
M  V30 1928 O 175.421 2.26353 0.31253 0
M  V30 1929 C 175.631 1.46756 -3.16644 0
M  V30 1930 C 176.979 1.93809 -3.77787 0
M  V30 1931 O 178.003 1.56537 -3.1996 0
M  V30 1932 O 176.862 2.62486 -4.79336 0
M  V30 1933 H 173.956 0.428025 -0.707618 0
M  V30 1934 H 176.502 0.152526 -1.69013 0
M  V30 1935 H 175.274 0.68129 -3.85323 0
M  V30 1936 H 174.897 2.28749 -3.25207 0
M  V30 1937 N 175.894 1.51508 0.433938 0
M  V30 1938 C 176.824 1.76016 1.53429 0
M  V30 1939 C 177.805 0.610112 1.58782 0
M  V30 1940 O 178.99 0.853177 1.74455 0
M  V30 1941 C 176.12 1.88831 2.9148 0
M  V30 1942 C 175.074 3.04288 3.00987 0
M  V30 1943 C 174.4 3.0229 4.4105 0
M  V30 1944 C 175.7 4.44193 2.74754 0
M  V30 1945 H 177.394 2.68152 1.33171 0
M  V30 1946 H 174.94 1.29035 0.639214 0
M  V30 1947 H 176.893 2.04559 3.6842 0
M  V30 1948 H 175.617 0.933455 3.12976 0
M  V30 1949 H 174.276 2.8827 2.26486 0
M  V30 1950 H 173.924 2.04576 4.59519 0
M  V30 1951 H 173.624 3.79822 4.4834 0
M  V30 1952 H 175.148 3.20116 5.1996 0
M  V30 1953 H 176.562 4.60544 3.41426 0
M  V30 1954 H 174.959 5.23457 2.9345 0
M  V30 1955 H 176.029 4.53996 1.70339 0
M  V30 1956 N 177.372 -0.689602 1.41712 0
M  V30 1957 C 178.302 -1.81577 1.46806 0
M  V30 1958 C 179.283 -1.66945 0.326105 0
M  V30 1959 O 180.468 -1.86588 0.538377 0
M  V30 1960 C 177.598 -3.19762 1.35535 0
M  V30 1961 C 176.552 -3.49107 2.47605 0
M  V30 1962 C 175.878 -4.86711 2.21397 0
M  V30 1963 C 177.178 -3.47483 3.89939 0
M  V30 1964 H 178.872 -1.7757 2.41058 0
M  V30 1965 H 176.418 -0.852887 1.16025 0
M  V30 1966 H 178.371 -3.98263 1.3771 0
M  V30 1967 H 177.095 -3.24409 0.377708 0
M  V30 1968 H 175.754 -2.72959 2.44722 0
M  V30 1969 H 175.402 -4.8799 1.21961 0
M  V30 1970 H 175.102 -5.0731 2.96497 0
M  V30 1971 H 176.626 -5.67515 2.25297 0
M  V30 1972 H 178.04 -4.1598 3.94505 0
M  V30 1973 H 176.437 -3.79615 4.64771 0
M  V30 1974 H 177.507 -2.46341 4.17665 0
M  V30 1975 N 178.85 -1.27639 -0.924453 0
M  V30 1976 C 179.797 -1.10644 -2.0255 0
M  V30 1977 C 180.767 -0.00658438 -1.66099 0
M  V30 1978 O 181.952 -0.16952 -1.90045 0
M  V30 1979 C 179.092 -0.76309 -3.36557 0
M  V30 1980 C 178.205 -1.94091 -3.85944 0
M  V30 1981 C 177.34 -1.53914 -5.08413 0
M  V30 1982 C 176.379 -2.68425 -5.50104 0
M  V30 1983 N 175.516 -2.28815 -6.63768 0
M  V30 1984 H 180.356 -2.04858 -2.16419 0
M  V30 1985 H 177.893 -1.01974 -1.06017 0
M  V30 1986 H 179.851 -0.544822 -4.13627 0
M  V30 1987 H 178.481 0.142102 -3.22487 0
M  V30 1988 H 177.533 -2.27162 -3.05125 0
M  V30 1989 H 178.845 -2.7998 -4.12811 0
M  V30 1990 H 177.999 -1.28231 -5.92994 0
M  V30 1991 H 176.738 -0.651391 -4.8333 0
M  V30 1992 H 175.743 -2.94819 -4.64071 0
M  V30 1993 H 176.968 -3.57826 -5.7718 0
M  V30 1994 H 174.914 -1.42495 -6.40337 0
M  V30 1995 H 174.831 -3.08242 -6.90306 0
M  V30 1996 H 176.099 -2.06387 -7.51681 0
M  V30 1997 N 180.328 1.1314 -1.09713 0
M  V30 1998 C 181.556 1.88321 -0.856898 0
M  V30 1999 C 181.971 1.79276 0.592073 0
M  V30 2000 O 181.328 1.16142 1.40774 0
M  V30 2001 C 181.379 3.37812 -1.28706 0
M  V30 2002 O 181.1 3.46627 -2.67921 0
M  V30 2003 C 182.601 4.29952 -1.07964 0
M  V30 2004 H 179.821 0.596094 -0.308079 0
M  V30 2005 H 182.365 1.43205 -1.45988 0
M  V30 2006 H 180.52 3.805 -0.727912 0
M  V30 2007 H 180.934 4.39579 -2.8613 0
M  V30 2008 H 182.408 5.33159 -1.42986 0
M  V30 2009 H 182.885 4.39196 -0.0176577 0
M  V30 2010 H 183.491 3.93036 -1.62489 0
M  V30 2011 N 181.806 0.884767 1.30421 0
M  V30 2012 C 182.753 0.349642 2.28136 0
M  V30 2013 C 183.723 -0.560061 1.56373 0
M  V30 2014 O 184.908 -0.488524 1.8444 0
M  V30 2015 C 182.048 -0.42999 3.42411 0
M  V30 2016 C 181.161 0.508907 4.28992 0
M  V30 2017 C 180.296 -0.286301 5.30428 0
M  V30 2018 C 179.335 0.648079 6.08659 0
M  V30 2019 N 178.472 -0.111792 7.02011 0
M  V30 2020 H 183.312 1.18807 2.73293 0
M  V30 2021 H 180.849 0.597231 1.3443 0
M  V30 2022 H 182.807 -0.897923 4.07423 0
M  V30 2023 H 181.437 -1.23299 2.98324 0
M  V30 2024 H 180.489 1.09533 3.64289 0
M  V30 2025 H 181.801 1.22475 4.8353 0
M  V30 2026 H 180.955 -0.816098 6.01186 0
M  V30 2027 H 179.694 -1.03536 4.76583 0
M  V30 2028 H 178.699 1.18951 5.36778 0
M  V30 2029 H 179.924 1.39623 6.64592 0
M  V30 2030 H 177.87 -0.843395 6.50556 0
M  V30 2031 H 177.787 0.544429 7.54037 0
M  V30 2032 H 179.055 -0.622339 7.77012 0
M  V30 2033 N 183.284 -1.43765 0.645699 0
M  V30 2034 C 184.217 -2.2798 -0.100072 0
M  V30 2035 C 185.195 -1.39391 -0.837194 0
M  V30 2036 O 186.379 -1.68833 -0.838306 0
M  V30 2037 C 183.506 -3.18643 -1.14823 0
M  V30 2038 C 182.552 -4.2344 -0.510009 0
M  V30 2039 S 183.385 -5.30761 0.710824 0
M  V30 2040 C 184.541 -6.24992 -0.33699 0
M  V30 2041 H 184.774 -2.90884 0.614322 0
M  V30 2042 H 182.307 -1.48166 0.434304 0
M  V30 2043 H 184.265 -3.71424 -1.74799 0
M  V30 2044 H 182.926 -2.54932 -1.8349 0
M  V30 2045 H 182.119 -4.86948 -1.29991 0
M  V30 2046 H 181.721 -3.73997 0.0154577 0
M  V30 2047 H 184.013 -6.66691 -1.20537 0
M  V30 2048 H 184.956 -7.07612 0.262879 0
M  V30 2049 H 185.364 -5.60517 -0.669425 0
M  V30 2050 N 184.763 -0.387143 -1.52771 0
M  V30 2051 C 186.179 -0.037007 -1.59557 0
M  V30 2052 C 186.379 1.44801 -1.40124 0
M  V30 2053 O 185.435 2.21227 -1.21716 0
M  V30 2054 C 186.748 -0.512256 -2.96305 0
M  V30 2055 C 188.296 -0.468328 -3.09476 0
M  V30 2056 C 188.771 -0.919731 -4.4867 0
M  V30 2057 N 190.262 -0.875656 -4.54848 0
M  V30 2058 C 190.997 -1.19637 -5.6078 0
M  V30 2059 N 190.493 -1.58745 -6.74368 0
M  V30 2060 N 192.286 -1.11776 -5.50874 0
M  V30 2061 H 184.437 -1.35395 -1.63652 0
M  V30 2062 H 186.7 -0.554818 -0.768688 0
M  V30 2063 H 186.406 -1.54935 -3.15734 0
M  V30 2064 H 186.28 0.089805 -3.77093 0
M  V30 2065 H 188.667 0.559671 -2.89744 0
M  V30 2066 H 188.748 -1.10616 -2.30646 0
M  V30 2067 H 188.392 -1.94595 -4.69143 0
M  V30 2068 H 188.322 -0.258927 -5.25963 0
M  V30 2069 H 190.813 -0.587843 -3.733 0
M  V30 2070 H 191.126 -1.81586 -7.51163 0
M  V30 2071 H 189.471 -1.6263 -6.75705 0
M  V30 2072 H 192.662 -0.811264 -4.61016 0
M  V30 2073 H 192.835 -1.37103 -6.3333 0
M  V30 2074 N 186.241 1.57166 -0.116904 0
M  V30 2075 C 187.518 1.86645 0.585049 0
M  V30 2076 C 187.898 1.0177 1.84949 0
M  V30 2077 O 187.246 0.0960379 2.28298 0
M  V30 2078 C 187.456 3.37736 0.879507 0
M  V30 2079 C 188.804 4.06289 1.23348 0
M  V30 2080 O 189.828 3.42743 0.969836 0
M  V30 2081 O 188.687 5.18455 1.7282 0
M  V30 2082 H 185.781 0.772593 0.295007 0
M  V30 2083 H 188.327 1.69025 -0.151249 0
M  V30 2084 H 187.099 3.91296 -0.0166136 0
M  V30 2085 H 186.722 3.6078 1.67103 0
M  V30 2086 N 187.719 -0.156864 1.56817 0
M  V30 2087 C 188.959 -0.877453 1.84608 0
M  V30 2088 C 189.323 -1.78791 0.699845 0
M  V30 2089 O 190.524 -2.5472 0.858553 0
M  V30 2090 C 188.795 -1.63992 3.17555 0
M  V30 2091 S 190.354 -2.40729 3.66872 0
M  V30 2092 H 187.172 -0.293612 0.647544 0
M  V30 2093 H 189.774 -0.138099 1.95012 0
M  V30 2094 H 188.478 -0.962363 3.98957 0
M  V30 2095 H 188.009 -2.42038 3.10131 0
M  V30 2096 H 190.024 -3.65725 3.3535 0
M  V30 2097 N 189.197 -1.51736 -0.425897 0
M  V30 2098 C 190.107 -1.76738 -1.54275 0
M  V30 2099 C 191.123 -0.65211 -1.61318 0
M  V30 2100 O 192.299 -0.935654 -1.78346 0
M  V30 2101 C 189.364 -1.89755 -2.90162 0
M  V30 2102 C 188.425 -3.13633 -2.93143 0
M  V30 2103 C 187.658 -3.2602 -4.22548 0
M  V30 2104 O 187.881 -2.44067 -5.15546 0
M  V30 2105 O 186.815 -4.19071 -4.32046 0
M  V30 2106 H 190.641 -2.71502 -1.36089 0
M  V30 2107 H 188.226 -1.36376 -0.610069 0
M  V30 2108 H 190.108 -2.00236 -3.70788 0
M  V30 2109 H 188.783 -0.981785 -3.08452 0
M  V30 2110 H 187.69 -3.08622 -2.11431 0
M  V30 2111 H 189.023 -4.04936 -2.798 0
M  V30 2112 N 190.675 0.682077 -1.42076 0
M  V30 2113 C 192.091 0.994324 -1.24841 0
M  V30 2114 C 192.291 2.0096 -0.147389 0
M  V30 2115 O 191.347 2.47822 0.483782 0
M  V30 2116 C 192.66 1.50607 -2.60265 0
M  V30 2117 C 194.208 1.62421 -2.6756 0
M  V30 2118 C 194.683 2.16994 -4.03333 0
M  V30 2119 N 196.174 2.24337 -4.0525 0
M  V30 2120 C 196.909 2.67621 -5.07116 0
M  V30 2121 N 196.405 3.1041 -6.19368 0
M  V30 2122 N 198.198 2.67305 -4.94474 0
M  V30 2123 H 190.349 0.00973908 -2.12398 0
M  V30 2124 H 192.612 0.0668593 -0.945639 0
M  V30 2125 H 192.318 0.834583 -3.41654 0
M  V30 2126 H 192.192 2.48602 -2.83684 0
M  V30 2127 H 194.579 2.28678 -1.86521 0
M  V30 2128 H 194.66 0.629352 -2.47937 0
M  V30 2129 H 194.304 1.51349 -4.84826 0
M  V30 2130 H 194.234 3.17258 -4.20304 0
M  V30 2131 H 196.725 1.94158 -3.24209 0
M  V30 2132 H 197.038 3.42103 -6.92954 0
M  V30 2133 H 195.383 3.08286 -6.22884 0
M  V30 2134 H 198.574 2.33233 -4.05857 0
M  V30 2135 H 198.747 3.00718 -5.73997 0
M  V30 2136 N 192.153 1.28127 0.917671 0
M  V30 2137 C 193.402 1.14432 1.66097 0
M  V30 2138 C 193.715 -0.307247 1.93172 0
M  V30 2139 O 194.921 -0.565259 2.65551 0
M  V30 2140 C 193.377 2.00015 2.99202 0
M  V30 2141 C 192.985 3.49889 2.79789 0
M  V30 2142 C 194.729 1.94996 3.77064 0
M  V30 2143 C 192.636 4.27636 4.08511 0
M  V30 2144 H 191.566 0.424662 0.62304 0
M  V30 2145 H 194.217 1.52628 1.01868 0
M  V30 2146 H 192.599 1.54672 3.64544 0
M  V30 2147 H 193.773 4.03162 2.23152 0
M  V30 2148 H 192.088 3.56392 2.15345 0
M  V30 2149 H 194.685 2.50354 4.72469 0
M  V30 2150 H 195.028 0.925819 4.05875 0
M  V30 2151 H 195.561 2.38287 3.18534 0
M  V30 2152 H 192.3 5.30615 3.84874 0
M  V30 2153 H 191.82 3.79137 4.64774 0
M  V30 2154 H 193.499 4.37346 4.76799 0
M  V30 2155 N 193.631 -1.12557 1.10312 0
M  V30 2156 C 194.561 -2.20341 0.772798 0
M  V30 2157 C 195.542 -1.68198 -0.25365 0
M  V30 2158 O 196.727 -1.93831 -0.119699 0
M  V30 2159 C 193.857 -3.46709 0.202443 0
M  V30 2160 C 192.811 -4.11996 1.15943 0
M  V30 2161 C 192.137 -5.328 0.450345 0
M  V30 2162 C 193.437 -4.5828 2.50552 0
M  V30 2163 H 195.131 -2.48229 1.674 0
M  V30 2164 H 192.677 -1.19308 0.806326 0
M  V30 2165 H 194.63 -4.2138 -0.0407752 0
M  V30 2166 H 193.354 -3.18245 -0.734001 0
M  V30 2167 H 192.013 -3.39305 1.38808 0
M  V30 2168 H 191.661 -5.00602 -0.490531 0
M  V30 2169 H 191.361 -5.7743 1.08851 0
M  V30 2170 H 192.885 -6.10219 0.215642 0
M  V30 2171 H 194.299 -5.2433 2.31843 0
M  V30 2172 H 192.696 -5.13683 3.10242 0
M  V30 2173 H 193.766 -3.72329 3.10643 0
M  V30 2174 N 195.109 -0.891671 -1.2995 0
M  V30 2175 C 196.059 -0.334811 -2.25528 0
M  V30 2176 C 197.043 0.540553 -1.51548 0
M  V30 2177 O 198.235 0.383882 -1.72787 0
M  V30 2178 C 195.364 0.44374 -3.4042 0
M  V30 2179 C 194.45 -0.44609 -4.21747 0
M  V30 2180 N 194.841 -1.54963 -4.81477 0
M  V30 2181 C 193.139 -0.242415 -4.45341 0
M  V30 2182 C 193.84 -2.10015 -5.42465 0
M  V30 2183 N 192.816 -1.39423 -5.25416 0
M  V30 2184 H 196.618 -1.17792 -2.69262 0
M  V30 2185 H 194.132 -0.741822 -1.44467 0
M  V30 2186 H 196.129 0.859362 -4.07947 0
M  V30 2187 H 194.789 1.28421 -2.98225 0
M  V30 2188 H 195.8 -1.93244 -4.80497 0
M  V30 2189 H 192.477 0.560342 -4.13723 0
M  V30 2190 H 193.867 -3.02724 -5.9984 0
M  V30 2191 N 196.587 1.43421 -0.653314 0
M  V30 2192 C 197.497 2.34568 0.0388565 0
M  V30 2193 C 198.513 1.53888 0.81207 0
M  V30 2194 O 199.689 1.86539 0.759294 0
M  V30 2195 C 196.754 3.32167 0.993269 0
M  V30 2196 C 195.815 4.28751 0.216977 0
M  V30 2197 C 195.048 5.21688 1.12593 0
M  V30 2198 O 195.271 5.19052 2.36519 0
M  V30 2199 O 194.205 5.98919 0.598284 0
M  V30 2200 H 198.031 2.95251 -0.711386 0
M  V30 2201 H 195.616 1.43564 -0.413502 0
M  V30 2202 H 197.498 3.92183 1.54176 0
M  V30 2203 H 196.173 2.73987 1.72374 0
M  V30 2204 H 195.08 3.72215 -0.375101 0
M  V30 2205 H 196.413 4.89913 -0.473924 0
M  V30 2206 N 198.065 0.39524 1.52563 0
M  V30 2207 C 199.305 -0.184744 2.03563 0
M  V30 2208 C 199.669 -1.43548 1.27507 0
M  V30 2209 O 200.87 -2.093 1.68662 0
M  V30 2210 C 199.141 -0.440294 3.54678 0
M  V30 2211 S 200.7 -0.989712 4.27493 0
M  V30 2212 H 197.518 -0.0515075 0.709132 0
M  V30 2213 H 200.12 0.544957 1.87751 0
M  V30 2214 H 198.824 0.477005 4.07618 0
M  V30 2215 H 198.355 -1.19825 3.74707 0
M  V30 2216 H 200.37 -2.27155 4.41152 0
M  V30 2217 N 199.544 -1.57102 0.125237 0
M  V30 2218 C 200.821 -1.86953 -0.575142 0
M  V30 2219 C 201.201 -1.02749 -1.84407 0
M  V30 2220 O 200.549 -0.108144 -2.28244 0
M  V30 2221 C 200.759 -3.38198 -0.861583 0
M  V30 2222 C 202.107 -4.06937 -1.21192 0
M  V30 2223 O 203.131 -3.43252 -0.951645 0
M  V30 2224 O 201.99 -5.19364 -1.70068 0
M  V30 2225 H 199.084 -0.774147 -0.290906 0
M  V30 2226 H 201.63 -1.68942 0.160211 0
M  V30 2227 H 200.402 -3.91282 0.0373647 0
M  V30 2228 H 200.025 -3.61661 -1.65188 0
M  V30 2229 N 201.022 0.148545 -1.56898 0
M  V30 2230 C 201.952 1.18524 -2.01182 0
M  V30 2231 C 202.933 1.4489 -0.891123 0
M  V30 2232 O 204.118 1.55836 -1.15882 0
M  V30 2233 C 201.248 2.51879 -2.39112 0
M  V30 2234 C 200.202 2.40038 -3.54353 0
M  V30 2235 C 199.528 3.78089 -3.78091 0
M  V30 2236 C 200.828 1.88577 -4.87069 0
M  V30 2237 H 202.522 0.817029 -2.88036 0
M  V30 2238 H 200.068 0.391575 -1.38574 0
M  V30 2239 H 202.021 3.24627 -2.68692 0
M  V30 2240 H 200.745 2.90532 -1.49193 0
M  V30 2241 H 199.404 1.69742 -3.24936 0
M  V30 2242 H 199.052 4.14175 -2.85426 0
M  V30 2243 H 198.752 3.71028 -4.55645 0
M  V30 2244 H 200.276 4.52387 -4.10095 0
M  V30 2245 H 201.69 2.51117 -5.15377 0
M  V30 2246 H 200.087 1.9241 -5.68417 0
M  V30 2247 H 201.157 0.84136 -4.77545 0
M  V30 2248 N 202.5 1.5196 0.417844 0
M  V30 2249 C 203.432 1.70895 1.52733 0
M  V30 2250 C 204.445 0.589405 1.51756 0
M  V30 2251 O 205.634 0.864312 1.56179 0
M  V30 2252 C 202.734 1.72627 2.91639 0
M  V30 2253 C 201.907 3.01479 3.16905 0
M  V30 2254 C 200.966 2.95139 4.35637 0
M  V30 2255 O 199.992 3.69059 4.3334 0
M  V30 2256 N 201.194 2.12328 5.40275 0
M  V30 2257 H 203.959 2.66612 1.36888 0
M  V30 2258 H 201.52 1.50089 0.607037 0
M  V30 2259 H 203.512 1.65928 3.6912 0
M  V30 2260 H 202.082 0.844216 3.00985 0
M  V30 2261 H 201.302 3.21895 2.27546 0
M  V30 2262 H 202.59 3.86736 3.30625 0
M  V30 2263 H 201.988 1.51685 5.44985 0
M  V30 2264 H 200.545 2.11494 6.16534 0
M  V30 2265 N 203.978 -0.674533 1.42435 0
M  V30 2266 C 205.206 -1.46283 1.46317 0
M  V30 2267 C 205.621 -1.88653 0.0745836 0
M  V30 2268 O 204.978 -1.58151 -0.91074 0
M  V30 2269 C 205.029 -2.71178 2.3905 0
M  V30 2270 O 204.75 -2.30586 3.72507 0
M  V30 2271 C 206.251 -3.64738 2.51955 0
M  V30 2272 H 203.471 -0.450104 0.497642 0
M  V30 2273 H 206.015 -0.828792 1.86953 0
M  V30 2274 H 204.17 -3.3077 2.01667 0
M  V30 2275 H 204.584 -3.11241 4.22172 0
M  V30 2276 H 206.058 -4.49096 3.20962 0
M  V30 2277 H 206.535 -4.10656 1.55752 0
M  V30 2278 H 207.141 -3.11038 2.90061 0
M  V30 2279 N 205.456 -1.28612 -0.910864 0
M  V30 2280 C 206.366 -1.14643 -2.0468 0
M  V30 2281 C 207.382 -0.0723121 -1.7385 0
M  V30 2282 O 208.558 -0.282178 -1.99413 0
M  V30 2283 C 205.623 -0.812561 -3.37044 0
M  V30 2284 C 204.684 -1.96935 -3.81465 0
M  V30 2285 C 203.917 -1.65131 -5.07511 0
M  V30 2286 O 204.14 -0.567013 -5.67575 0
M  V30 2287 O 203.074 -2.49585 -5.47714 0
M  V30 2288 H 206.9 -2.1001 -2.19384 0
M  V30 2289 H 204.485 -1.07958 -1.03274 0
M  V30 2290 H 206.367 -0.640441 -4.16505 0
M  V30 2291 H 205.042 0.111426 -3.23508 0
M  V30 2292 H 203.949 -2.19664 -3.02818 0
M  V30 2293 H 205.282 -2.87414 -3.99567 0
M  V30 2294 N 206.934 1.1197 -1.10907 0
M  V30 2295 C 208.35 1.35591 -0.841852 0
M  V30 2296 C 208.55 1.94233 0.536246 0
M  V30 2297 O 207.606 2.1717 1.28816 0
M  V30 2298 C 208.919 2.29284 -1.94549 0
M  V30 2299 C 210.467 2.42862 -1.97451 0
M  V30 2300 C 210.942 3.39873 -3.07002 0
M  V30 2301 N 212.433 3.47433 -3.06341 0
M  V30 2302 C 213.168 4.22421 -3.87748 0
M  V30 2303 N 212.664 5.00432 -4.79103 0
M  V30 2304 N 214.457 4.17876 -3.75946 0
M  V30 2305 H 206.608 0.722664 -1.99728 0
M  V30 2306 H 208.871 0.380635 -0.868229 0
M  V30 2307 H 208.577 1.93378 -2.93765 0
M  V30 2308 H 208.451 3.29452 -1.83688 0
M  V30 2309 H 210.838 2.78046 -0.988645 0
M  V30 2310 H 210.919 1.42566 -2.12388 0
M  V30 2311 H 210.563 3.05417 -4.05811 0
M  V30 2312 H 210.493 4.40011 -2.89306 0
M  V30 2313 H 212.984 2.91784 -2.40147 0
M  V30 2314 H 213.297 5.55002 -5.37766 0
M  V30 2315 H 211.642 4.99612 -4.83128 0
M  V30 2316 H 214.833 3.56016 -3.03924 0
M  V30 2317 H 215.006 4.76061 -4.39624 0
M  V30 2318 N 208.412 0.89855 1.29475 0
M  V30 2319 C 209.342 0.39201 2.30186 0
M  V30 2320 C 210.323 -0.532359 1.61555 0
M  V30 2321 O 211.508 -0.443331 1.89072 0
M  V30 2322 C 208.638 -0.382353 3.45189 0
M  V30 2323 C 207.592 0.451483 4.25612 0
M  V30 2324 C 206.918 -0.450307 5.328 0
M  V30 2325 C 208.218 1.70079 4.93832 0
M  V30 2326 H 209.912 1.23362 2.72804 0
M  V30 2327 H 207.458 0.594638 1.31149 0
M  V30 2328 H 209.411 -0.747451 4.14718 0
M  V30 2329 H 208.135 -1.25774 3.01411 0
M  V30 2330 H 206.794 0.798897 3.57789 0
M  V30 2331 H 206.442 -1.32379 4.85268 0
M  V30 2332 H 206.142 0.103902 5.87508 0
M  V30 2333 H 207.666 -0.811623 6.05182 0
M  V30 2334 H 209.08 1.40549 5.55805 0
M  V30 2335 H 207.477 2.19623 5.58467 0
M  V30 2336 H 208.547 2.43744 4.19186 0
M  V30 2337 N 209.89 -1.43072 0.660911 0
M  V30 2338 C 211.138 -2.01323 0.177094 0
M  V30 2339 C 211.459 -1.5245 -1.2159 0
M  V30 2340 O 210.729 -0.740322 -1.81373 0
M  V30 2341 H 209.309 -0.744382 0.0624804 0
M  V30 2342 H 211.971 -1.75179 0.854305 0
M  V30 2343 H 211.067 -3.11649 0.167641 0
M  V30 2344 N 211.368 -0.403325 -1.52352 0
M  V30 2345 C 212.315 0.425011 -2.26853 0
M  V30 2346 C 213.285 1.04598 -1.29029 0
M  V30 2347 O 214.47 1.07135 -1.57882 0
M  V30 2348 C 211.61 1.53888 -3.08889 0
M  V30 2349 C 210.723 0.939396 -4.21663 0
M  V30 2350 C 209.858 2.02547 -4.91068 0
M  V30 2351 C 208.897 1.40263 -5.95813 0
M  V30 2352 N 208.034 2.4286 -6.58759 0
M  V30 2353 H 212.874 -0.21674 -2.97211 0
M  V30 2354 H 210.411 -0.118722 -1.4662 0
M  V30 2355 H 212.369 2.19558 -3.54753 0
M  V30 2356 H 210.999 2.15074 -2.40714 0
M  V30 2357 H 210.051 0.171898 -3.80011 0
M  V30 2358 H 211.363 0.44436 -4.96817 0
M  V30 2359 H 210.517 2.75958 -5.40308 0
M  V30 2360 H 209.256 2.55415 -4.15469 0
M  V30 2361 H 208.261 0.653833 -5.45898 0
M  V30 2362 H 209.486 0.881719 -6.73352 0
M  V30 2363 H 207.432 2.94871 -5.85992 0
M  V30 2364 H 207.349 1.98152 -7.2957 0
M  V30 2365 H 208.617 3.15858 -7.12639 0
M  V30 2366 N 212.846 1.57033 -0.133567 0
M  V30 2367 C 213.793 2.16074 0.811208 0
M  V30 2368 C 214.763 1.08979 1.2535 0
M  V30 2369 O 215.948 1.36958 1.32843 0
M  V30 2370 C 213.088 2.77595 2.05024 0
M  V30 2371 C 212.201 3.99042 1.65498 0
M  V30 2372 C 211.336 4.48603 2.84479 0
M  V30 2373 C 210.375 5.62547 2.41262 0
M  V30 2374 N 209.512 6.06787 3.53206 0
M  V30 2375 H 214.352 2.96477 0.300906 0
M  V30 2376 H 211.889 1.46462 0.136822 0
M  V30 2377 H 213.847 3.11402 2.77642 0
M  V30 2378 H 212.477 1.99859 2.53488 0
M  V30 2379 H 211.529 3.71302 0.826981 0
M  V30 2380 H 212.841 4.81629 1.29748 0
M  V30 2381 H 211.995 4.84395 3.65303 0
M  V30 2382 H 210.734 3.64995 3.23465 0
M  V30 2383 H 209.739 5.26345 1.58874 0
M  V30 2384 H 210.964 6.47931 2.03377 0
M  V30 2385 H 208.91 5.26117 3.91838 0
M  V30 2386 H 208.827 6.84266 3.21427 0
M  V30 2387 H 210.095 6.4722 4.34427 0
M  V30 2388 N 214.325 -0.140222 1.56975 0
M  V30 2389 C 215.574 -0.850152 1.82908 0
M  V30 2390 C 215.887 -1.82028 0.715892 0
M  V30 2391 O 217.093 -2.57485 0.861016 0
M  V30 2392 C 215.549 -1.5625 3.24213 0
M  V30 2393 C 215.157 -0.63443 4.43485 0
M  V30 2394 C 216.901 -2.25881 3.59413 0
M  V30 2395 C 214.808 -1.34879 5.75814 0
M  V30 2396 H 213.738 -0.321221 0.682153 0
M  V30 2397 H 216.389 -0.102874 1.83211 0
M  V30 2398 H 214.771 -2.35565 3.18316 0
M  V30 2399 H 215.945 0.12398 4.60633 0
M  V30 2400 H 214.26 -0.0461836 4.16374 0
M  V30 2401 H 216.857 -2.79978 4.5554 0
M  V30 2402 H 217.2 -3.02693 2.85802 0
M  V30 2403 H 217.733 -1.53477 3.67001 0
M  V30 2404 H 214.472 -0.622385 6.52539 0
M  V30 2405 H 213.992 -2.07974 5.6259 0
M  V30 2406 H 215.671 -1.88784 6.18845 0
M  V30 2407 N 215.803 -1.52179 -0.40978 0
M  V30 2408 C 216.713 -1.78364 -1.52392 0
M  V30 2409 C 217.729 -0.669183 -1.60617 0
M  V30 2410 O 218.905 -0.954518 -1.77344 0
M  V30 2411 C 215.97 -1.92822 -2.88133 0
M  V30 2412 C 215.031 -3.16725 -2.898 0
M  V30 2413 C 214.264 -3.30483 -4.19067 0
M  V30 2414 O 214.487 -2.49522 -5.12928 0
M  V30 2415 O 213.421 -4.2363 -4.27576 0
M  V30 2416 H 217.247 -2.72931 -1.33201 0
M  V30 2417 H 214.832 -1.37016 -0.59557 0
M  V30 2418 H 216.714 -2.04157 -3.68643 0
M  V30 2419 H 215.389 -1.01444 -3.07393 0
M  V30 2420 H 214.296 -3.10848 -2.08146 0
M  V30 2421 H 215.629 -4.07881 -2.75489 0
M  V30 2422 N 217.281 0.66697 -1.42791 0
M  V30 2423 C 218.509 1.45505 -1.47091 0
M  V30 2424 C 218.924 1.8861 -0.0845873 0
M  V30 2425 O 218.281 1.58632 0.90234 0
M  V30 2426 C 218.332 2.69906 -2.40485 0
M  V30 2427 O 218.053 2.28608 -3.73725 0
M  V30 2428 C 219.554 3.63396 -2.53886 0
M  V30 2429 H 216.774 0.447459 -0.500022 0
M  V30 2430 H 219.318 0.818866 -1.8739 0
M  V30 2431 H 217.473 3.29696 -2.03419 0
M  V30 2432 H 217.887 3.08997 -4.23817 0
M  V30 2433 H 219.361 4.47387 -3.2334 0
M  V30 2434 H 219.838 4.09824 -1.57927 0
M  V30 2435 H 220.444 3.09495 -2.91706 0
M  V30 2436 N 218.759 1.29093 0.90403 0
M  V30 2437 C 220.008 1.16187 1.64874 0
M  V30 2438 C 220.321 -0.286742 1.93487 0
M  V30 2439 O 221.527 -0.537062 2.66135 0
M  V30 2440 C 219.983 2.03177 2.97064 0
M  V30 2441 C 219.591 3.52836 2.76062 0
M  V30 2442 C 221.335 1.98984 3.74974 0
M  V30 2443 C 219.242 4.31945 4.03952 0
M  V30 2444 H 218.172 0.431246 0.618501 0
M  V30 2445 H 220.823 1.53699 1.00243 0
M  V30 2446 H 219.205 1.5853 3.62883 0
M  V30 2447 H 220.379 4.05507 2.18863 0
M  V30 2448 H 218.694 3.58656 2.11553 0
M  V30 2449 H 221.291 2.55351 4.69787 0
M  V30 2450 H 221.634 0.968815 4.0487 0
M  V30 2451 H 222.167 2.41652 3.15989 0
M  V30 2452 H 218.906 5.34667 3.79225 0
M  V30 2453 H 218.426 3.84045 4.60727 0
M  V30 2454 H 220.105 4.42379 4.72133 0
M  V30 2455 N 220.237 -1.11381 1.11499 0
M  V30 2456 C 221.483 -1.83403 0.865512 0
M  V30 2457 C 221.816 -1.84459 -0.607329 0
M  V30 2458 O 221.091 -1.29811 -1.44842 0
M  V30 2459 C 221.374 -3.30552 1.42855 0
M  V30 2460 C 221.227 -3.37886 2.96906 0
M  V30 2461 C 222.546 -4.26643 1.08 0
M  V30 2462 H 219.665 -0.665879 0.31587 0
M  V30 2463 H 222.307 -1.30601 1.37998 0
M  V30 2464 H 220.457 -3.75648 0.990985 0
M  V30 2465 H 222.129 -3.01343 3.49271 0
M  V30 2466 H 220.372 -2.78088 3.32941 0
M  V30 2467 H 221.043 -4.41458 3.31389 0
M  V30 2468 H 223.519 -3.89729 1.45775 0
M  V30 2469 H 222.395 -5.27986 1.50072 0
M  V30 2470 H 222.656 -4.42099 -0.00915037 0
M  V30 2471 N 221.715 -0.905404 -1.28997 0
M  V30 2472 C 222.648 -0.331959 -2.25773 0
M  V30 2473 C 223.626 0.559099 -1.52685 0
M  V30 2474 O 224.81 0.50463 -1.8162 0
M  V30 2475 C 221.937 0.526276 -3.34586 0
M  V30 2476 C 220.983 -0.298249 -4.25456 0
M  V30 2477 S 221.816 -1.69968 -5.0781 0
M  V30 2478 C 222.972 -0.848519 -6.20122 0
M  V30 2479 H 223.205 -1.15222 -2.74064 0
M  V30 2480 H 220.738 -0.706112 -1.37308 0
M  V30 2481 H 222.696 1.01565 -3.97737 0
M  V30 2482 H 221.357 1.32084 -2.84978 0
M  V30 2483 H 220.55 0.357607 -5.0273 0
M  V30 2484 H 220.152 -0.720968 -3.66985 0
M  V30 2485 H 222.444 -0.0744325 -6.77459 0
M  V30 2486 H 223.387 -1.59353 -6.89937 0
M  V30 2487 H 223.795 -0.400383 -5.63078 0
M  V30 2488 N 223.193 1.4272 -0.668489 0
M  V30 2489 C 224.442 2.00846 -0.185389 0
M  V30 2490 C 224.755 1.53442 1.21305 0
M  V30 2491 O 225.961 2.03944 1.79218 0
M  V30 2492 C 224.417 3.58805 -0.280591 0
M  V30 2493 C 224.025 4.15198 -1.68268 0
M  V30 2494 C 225.769 4.24255 0.14412 0
M  V30 2495 C 223.676 5.655 -1.73099 0
M  V30 2496 H 222.606 0.751145 -0.0655475 0
M  V30 2497 H 225.257 1.63516 -0.832752 0
M  V30 2498 H 223.639 3.93608 0.434553 0
M  V30 2499 H 224.813 3.91866 -2.42441 0
M  V30 2500 H 223.128 3.62176 -2.05469 0
M  V30 2501 H 225.725 5.34547 0.128086 0
M  V30 2502 H 226.068 3.99277 1.17827 0
M  V30 2503 H 226.601 3.94389 -0.519798 0
M  V30 2504 H 223.34 5.95268 -2.74475 0
M  V30 2505 H 222.86 5.90842 -1.03274 0
M  V30 2506 H 224.539 6.29808 -1.48158 0
M  V30 2507 N 224.671 0.411399 1.52136 0
M  V30 2508 C 225.918 -0.163645 2.01838 0
M  V30 2509 C 226.246 -1.4495 1.29691 0
M  V30 2510 O 225.501 -1.91725 0.392431 0
M  V30 2511 C 225.8 -0.455872 3.54481 0
M  V30 2512 C 225.466 0.741055 4.44769 0
M  V30 2513 C 224.128 1.06936 4.69167 0
M  V30 2514 C 226.48 1.54075 4.97906 0
M  V30 2515 C 223.808 2.19851 5.43951 0
M  V30 2516 C 226.16 2.66067 5.73926 0
M  V30 2517 C 224.824 2.99381 5.96596 0
M  V30 2518 H 224.094 -0.0598821 0.738576 0
M  V30 2519 H 226.741 0.553283 1.83333 0
M  V30 2520 H 225.046 -1.2544 3.71177 0
M  V30 2521 H 226.743 -0.913802 3.90449 0
M  V30 2522 H 223.333 0.475192 4.25958 0
M  V30 2523 H 227.517 1.30033 4.78963 0
M  V30 2524 H 222.773 2.46006 5.59724 0
M  V30 2525 H 226.947 3.28419 6.14096 0
M  V30 2526 H 224.574 3.86992 6.54325 0
M  V30 2527 N 226.149 -1.5696 0.141893 0
M  V30 2528 C 227.426 -1.87553 -0.555281 0
M  V30 2529 C 227.806 -1.04699 -1.83306 0
M  V30 2530 O 227.154 -0.132346 -2.28116 0
M  V30 2531 C 227.364 -3.39093 -0.825664 0
M  V30 2532 C 228.712 -4.08199 -1.16869 0
M  V30 2533 O 229.736 -3.44242 -0.915185 0
M  V30 2534 O 228.595 -5.21139 -1.6455 0
M  V30 2535 H 225.689 -0.777188 -0.282679 0
M  V30 2536 H 228.235 -1.68763 0.17812 0
M  V30 2537 H 227.007 -3.91221 0.0788633 0
M  V30 2538 H 226.63 -3.63393 -1.61343 0
M  V30 2539 N 227.627 0.131896 -1.57047 0
M  V30 2540 C 228.867 0.847972 -1.85981 0
M  V30 2541 C 229.231 1.77655 -0.7282 0
M  V30 2542 O 230.432 2.53322 -0.898968 0
M  V30 2543 C 228.703 1.58919 -3.20124 0
M  V30 2544 S 230.262 2.34862 -3.70655 0
M  V30 2545 H 227.08 0.283273 -0.652133 0
M  V30 2546 H 229.682 0.107057 -1.95207 0
M  V30 2547 H 228.386 0.898771 -4.00438 0
M  V30 2548 H 227.917 2.37073 -3.13942 0
M  V30 2549 H 229.932 3.60344 -3.41126 0
M  V30 2550 N 229.106 1.52395 0.401703 0
M  V30 2551 C 230.016 1.7917 1.51444 0
M  V30 2552 C 231.032 0.677691 1.6026 0
M  V30 2553 O 232.208 0.963909 1.76835 0
M  V30 2554 C 229.273 1.94347 2.87107 0
M  V30 2555 C 228.334 3.18257 2.88116 0
M  V30 2556 C 227.567 3.32701 4.17308 0
M  V30 2557 O 227.79 2.52238 5.11598 0
M  V30 2558 O 226.724 4.25891 4.25324 0
M  V30 2559 H 230.55 2.73633 1.31752 0
M  V30 2560 H 228.135 1.3733 0.588296 0
M  V30 2561 H 230.017 2.06109 3.67555 0
M  V30 2562 H 228.692 1.03073 3.06851 0
M  V30 2563 H 227.599 3.11947 2.06494 0
M  V30 2564 H 228.932 4.09336 2.73322 0
M  V30 2565 N 230.584 -0.659388 1.43143 0
M  V30 2566 C 231.832 -1.41654 1.44147 0
M  V30 2567 C 232.153 -1.94893 0.0645739 0
M  V30 2568 O 231.423 -1.74044 -0.899198 0
M  V30 2569 H 230.003 -0.525708 0.530697 0
M  V30 2570 H 232.665 -0.778097 1.78694 0
M  V30 2571 H 231.761 -2.26195 2.1504 0
M  V30 2572 N 232.062 -1.29571 -0.897171 0
M  V30 2573 C 232.992 -1.17473 -2.01798 0
M  V30 2574 C 233.973 -0.068323 -1.69963 0
M  V30 2575 O 235.158 -0.248239 -1.92607 0
M  V30 2576 C 232.288 -0.853099 -3.36659 0
M  V30 2577 C 231.242 -1.9161 -3.82713 0
M  V30 2578 C 230.568 -1.44773 -5.14728 0
M  V30 2579 C 231.868 -3.32535 -4.02763 0
M  V30 2580 H 233.562 -2.11237 -2.12177 0
M  V30 2581 H 231.108 -1.01699 -1.01948 0
M  V30 2582 H 233.061 -0.755165 -4.14578 0
M  V30 2583 H 231.785 0.120236 -3.26379 0
M  V30 2584 H 230.444 -2.00346 -3.07013 0
M  V30 2585 H 230.092 -0.462995 -5.00865 0
M  V30 2586 H 229.792 -2.15865 -5.46513 0
M  V30 2587 H 231.316 -1.36334 -5.95185 0
M  V30 2588 H 232.73 -3.26626 -4.71156 0
M  V30 2589 H 231.127 -4.01607 -4.45905 0
M  V30 2590 H 232.197 -3.75326 -3.07016 0
M  V30 2591 N 233.54 1.10788 -1.12088 0
M  V30 2592 C 234.788 1.8231 -0.872205 0
M  V30 2593 C 235.109 1.85419 0.603709 0
M  V30 2594 O 234.379 1.32963 1.43867 0
M  V30 2595 H 232.959 0.675137 -0.319686 0
M  V30 2596 H 235.621 1.34068 -1.41463 0
M  V30 2597 H 234.717 2.85955 -1.25045 0
M  V30 2598 N 235.018 0.912232 1.28515 0
M  V30 2599 C 235.948 0.416403 2.29757 0
M  V30 2600 C 236.929 -0.515194 1.6211 0
M  V30 2601 O 238.114 -0.423253 1.89532 0
M  V30 2602 C 235.244 -0.34572 3.45575 0
M  V30 2603 C 234.198 0.496599 4.25109 0
M  V30 2604 C 233.524 -0.393771 5.33248 0
M  V30 2605 C 234.824 1.75307 4.92001 0
M  V30 2606 H 236.518 1.26249 2.7148 0
M  V30 2607 H 234.064 0.608515 1.30511 0
M  V30 2608 H 236.017 -0.703422 4.15488 0
M  V30 2609 H 234.741 -1.2257 3.02728 0
M  V30 2610 H 233.4 0.8368 3.56922 0
M  V30 2611 H 233.048 -1.27225 4.86644 0
M  V30 2612 H 232.748 0.166209 5.87365 0
M  V30 2613 H 234.272 -0.747389 6.06009 0
M  V30 2614 H 235.686 1.46437 5.54283 0
M  V30 2615 H 234.083 2.25534 5.56106 0
M  V30 2616 H 235.153 2.48176 4.16577 0
M  V30 2617 N 236.496 -1.42363 0.676048 0
M  V30 2618 C 237.443 -2.308 -0.00150904 0
M  V30 2619 C 238.413 -1.46032 -0.791444 0
M  V30 2620 O 239.598 -1.74861 -0.76344 0
M  V30 2621 C 236.738 -3.31883 -0.945919 0
M  V30 2622 C 235.851 -4.31741 -0.149675 0
M  V30 2623 C 234.986 -5.19898 -1.08995 0
M  V30 2624 C 234.025 -6.11434 -0.285465 0
M  V30 2625 N 233.162 -6.92138 -1.17851 0
M  V30 2626 H 238.002 -2.88187 0.758455 0
M  V30 2627 H 235.539 -1.41952 0.38576 0
M  V30 2628 H 237.497 -3.89019 -1.50731 0
M  V30 2629 H 236.127 -2.76093 -1.6725 0
M  V30 2630 H 235.179 -3.76713 0.528359 0
M  V30 2631 H 236.491 -4.96534 0.474866 0
M  V30 2632 H 235.645 -5.81772 -1.72123 0
M  V30 2633 H 234.384 -4.55284 -1.74837 0
M  V30 2634 H 233.389 -5.48627 0.359018 0
M  V30 2635 H 234.614 -6.78097 0.368883 0
M  V30 2636 H 232.56 -6.30152 -1.82332 0
M  V30 2637 H 232.477 -7.53542 -0.609082 0
M  V30 2638 H 233.745 -7.58499 -1.79722 0
M  V30 2639 N 237.974 -0.419461 -1.51915 0
M  V30 2640 C 238.924 0.418496 -2.24126 0
M  V30 2641 C 239.908 1.00495 -1.25656 0
M  V30 2642 O 241.1 0.926058 -1.50842 0
M  V30 2643 C 238.229 1.52899 -3.07371 0
M  V30 2644 C 237.315 0.952797 -4.13258 0
M  V30 2645 N 237.706 0.104175 -5.05693 0
M  V30 2646 C 236.004 1.22224 -4.28926 0
M  V30 2647 C 236.705 -0.21752 -5.81293 0
M  V30 2648 N 235.681 0.394293 -5.42168 0
M  V30 2649 H 239.483 -0.236048 -2.92951 0
M  V30 2650 H 236.997 -0.230481 -1.60756 0
M  V30 2651 H 238.994 2.14199 -3.57665 0
M  V30 2652 H 237.654 2.18605 -2.40088 0
M  V30 2653 H 238.665 -0.260924 -5.17242 0
M  V30 2654 H 235.342 1.87812 -3.72871 0
M  V30 2655 H 236.732 -0.906992 -6.6575 0
M  V30 2656 N 239.452 1.56882 -0.150215 0
M  V30 2657 C 240.699 1.96228 0.500093 0
M  V30 2658 C 241.027 1.03522 1.64661 0
M  V30 2659 O 240.282 0.0650683 1.95592 0
M  V30 2660 C 240.581 3.41801 1.04437 0
M  V30 2661 C 240.247 4.50897 0.0159671 0
M  V30 2662 C 238.909 4.8046 -0.266731 0
M  V30 2663 C 241.261 5.16703 -0.683192 0
M  V30 2664 C 238.589 5.73135 -1.25434 0
M  V30 2665 C 240.941 6.10441 -1.65964 0
M  V30 2666 C 239.605 6.38382 -1.95 0
M  V30 2667 H 238.875 0.718048 0.182997 0
M  V30 2668 H 241.522 1.90019 -0.237724 0
M  V30 2669 H 239.827 3.44857 1.85959 0
M  V30 2670 H 241.524 3.69573 1.55618 0
M  V30 2671 H 238.114 4.27891 0.246485 0
M  V30 2672 H 242.298 4.93993 -0.477983 0
M  V30 2673 H 237.554 5.93074 -1.48571 0
M  V30 2674 H 241.728 6.60507 -2.20689 0
M  V30 2675 H 239.355 7.09996 -2.71679 0
M  V30 2676 N 240.93 -0.123565 1.57115 0
M  V30 2677 C 242.176 -0.828428 1.85765 0
M  V30 2678 C 242.531 -1.77709 0.737371 0
M  V30 2679 O 241.824 -1.89787 -0.262978 0
M  V30 2680 C 242.018 -1.62016 3.18568 0
M  V30 2681 C 241.847 -0.749663 4.43407 0
M  V30 2682 C 240.617 -0.406251 5.03664 0
M  V30 2683 C 242.815 -0.0693505 5.14253 0
M  V30 2684 N 240.797 0.475389 6.12057 0
M  V30 2685 C 242.168 0.671474 6.16353 0
M  V30 2686 C 244.223 0.00754393 4.97899 0
M  V30 2687 C 242.926 1.48197 7.03868 0
M  V30 2688 C 244.952 0.804845 5.85898 0
M  V30 2689 C 244.314 1.53388 6.87497 0
M  V30 2690 H 240.413 -0.280219 0.73007 0
M  V30 2691 H 242.997 -0.0924183 1.94481 0
M  V30 2692 H 241.168 -2.32724 3.10957 0
M  V30 2693 H 242.9 -2.27 3.35042 0
M  V30 2694 H 239.655 -0.747446 4.67665 0
M  V30 2695 H 240.079 0.907924 6.70884 0
M  V30 2696 H 244.721 -0.541741 4.19315 0
M  V30 2697 H 242.439 2.04242 7.81864 0
M  V30 2698 H 246.025 0.866642 5.75309 0
M  V30 2699 H 244.905 2.1409 7.5441 0
M  V30 2700 N 242.408 -1.52605 -0.393616 0
M  V30 2701 C 243.355 -1.77055 -1.48054 0
M  V30 2702 C 244.325 -0.61358 -1.54352 0
M  V30 2703 O 245.51 -0.852806 -1.70681 0
M  V30 2704 C 242.65 -1.94108 -2.85335 0
M  V30 2705 C 241.763 -3.21792 -2.88226 0
M  V30 2706 C 240.898 -3.29188 -4.16904 0
M  V30 2707 C 239.937 -4.51013 -4.13828 0
M  V30 2708 N 239.074 -4.55716 -5.34105 0
M  V30 2709 H 243.914 -2.69815 -1.26506 0
M  V30 2710 H 241.451 -1.33683 -0.61379 0
M  V30 2711 H 243.409 -2.01979 -3.65049 0
M  V30 2712 H 242.039 -1.04713 -3.05344 0
M  V30 2713 H 241.091 -3.23015 -2.00911 0
M  V30 2714 H 242.403 -4.11557 -2.8182 0
M  V30 2715 H 241.557 -3.36216 -5.05018 0
M  V30 2716 H 240.296 -2.37389 -4.26026 0
M  V30 2717 H 239.301 -4.44115 -3.24102 0
M  V30 2718 H 240.526 -5.44123 -4.06333 0
M  V30 2719 H 238.472 -3.66807 -5.43865 0
M  V30 2720 H 238.389 -5.39346 -5.29756 0
M  V30 2721 H 239.657 -4.66993 -6.2413 0
M  V30 2722 N 243.887 0.651787 -1.4349 0
M  V30 2723 C 245.298 1.233 -1.40193 0
M  V30 2724 C 245.649 1.9591 -0.106727 0
M  V30 2725 O 244.774 2.01316 0.793773 0
M  V30 2726 C 245.369 2.24257 -2.53957 0
M  V30 2727 C 243.928 2.77852 -2.5392 0
M  V30 2728 C 243.075 1.52517 -2.3159 0
M  V30 2729 H 246.026 0.443717 -1.52371 0
M  V30 2730 H 246.047 3.0646 -2.25528 0
M  V30 2731 H 245.559 1.71382 -3.4821 0
M  V30 2732 H 243.66 3.34786 -1.63551 0
M  V30 2733 H 243.773 3.25299 -3.51735 0
M  V30 2734 H 242.137 1.79915 -1.80285 0
M  V30 2735 H 242.92 1.01574 -3.27929 0
M  V30 2736 N 245.365 1.30045 0.890287 0
M  V30 2737 C 246.295 1.18541 2.01172 0
M  V30 2738 C 247.276 0.0773356 1.69924 0
M  V30 2739 O 248.461 0.25845 1.92473 0
M  V30 2740 C 245.591 0.870941 3.36202 0
M  V30 2741 C 244.545 1.93637 3.81692 0
M  V30 2742 C 243.871 1.475 5.13953 0
M  V30 2743 C 245.171 3.34666 4.00994 0
M  V30 2744 H 246.865 2.12359 2.11054 0
M  V30 2745 H 244.411 1.02238 1.01407 0
M  V30 2746 H 246.364 0.777141 4.14172 0
M  V30 2747 H 245.088 -0.102926 3.26438 0
M  V30 2748 H 243.747 2.01972 3.05946 0
M  V30 2749 H 243.395 0.489551 5.00612 0
M  V30 2750 H 243.095 2.1876 5.4536 0
M  V30 2751 H 244.619 1.39489 5.94454 0
M  V30 2752 H 246.033 3.2912 4.69417 0
M  V30 2753 H 244.43 4.03966 4.43769 0
M  V30 2754 H 245.5 3.76949 3.05021 0
M  V30 2755 N 246.843 -1.10192 1.12674 0
M  V30 2756 C 248.089 -1.82475 0.884915 0
M  V30 2757 C 248.422 -1.85093 -0.58773 0
M  V30 2758 O 247.697 -1.3134 -1.43457 0
M  V30 2759 C 247.98 -3.29018 1.46353 0
M  V30 2760 C 247.833 -3.34718 3.00473 0
M  V30 2761 C 249.152 -4.25473 1.12519 0
M  V30 2762 H 246.271 -0.662492 0.322915 0
M  V30 2763 H 248.913 -1.2913 1.39375 0
M  V30 2764 H 247.063 -3.74576 1.03077 0
M  V30 2765 H 248.735 -2.97622 3.52447 0
M  V30 2766 H 246.978 -2.74541 3.35872 0
M  V30 2767 H 247.649 -4.37918 3.36053 0
M  V30 2768 H 250.125 -3.88161 1.499 0
M  V30 2769 H 249.001 -5.26365 1.55663 0
M  V30 2770 H 249.262 -4.42084 0.0377407 0
M  V30 2771 N 248.321 -0.919034 -1.28029 0
M  V30 2772 C 249.231 -0.416756 -2.30869 0
M  V30 2773 C 250.247 0.498235 -1.66714 0
M  V30 2774 O 251.423 0.383144 -1.97722 0
M  V30 2775 C 248.488 0.330274 -3.45123 0
M  V30 2776 C 247.549 -0.618578 -4.2482 0
M  V30 2777 C 246.782 0.0928959 -5.33619 0
M  V30 2778 O 247.005 1.31375 -5.55065 0
M  V30 2779 O 245.939 -0.574499 -5.99152 0
M  V30 2780 H 249.765 -1.27043 -2.75851 0
M  V30 2781 H 247.35 -0.684052 -1.3282 0
M  V30 2782 H 249.232 0.751972 -4.14636 0
M  V30 2783 H 247.907 1.1597 -3.02213 0
M  V30 2784 H 246.814 -1.08978 -3.57875 0
M  V30 2785 H 248.147 -1.41497 -4.71423 0
M  V30 2786 N 249.799 1.42003 -0.683588 0
M  V30 2787 C 251.045 2.01712 -0.209825 0
M  V30 2788 C 251.378 1.53968 1.18353 0
M  V30 2789 O 250.653 0.745661 1.79639 0
M  V30 2790 C 250.936 3.59202 -0.254197 0
M  V30 2791 C 250.789 4.17102 -1.68363 0
M  V30 2792 C 252.108 4.38344 0.392709 0
M  V30 2793 H 249.227 0.732891 -0.0777189 0
M  V30 2794 H 251.869 1.68909 -0.87004 0
M  V30 2795 H 250.019 3.87278 0.307954 0
M  V30 2796 H 251.691 3.99946 -2.29871 0
M  V30 2797 H 249.934 3.72597 -2.22157 0
M  V30 2798 H 250.605 5.26249 -1.6663 0
M  V30 2799 H 253.081 4.16011 -0.0859162 0
M  V30 2800 H 251.957 5.47901 0.331063 0
M  V30 2801 H 252.218 4.16887 1.47164 0
M  V30 2802 N 251.277 0.427512 1.51691 0
M  V30 2803 C 252.507 -0.140986 2.06118 0
M  V30 2804 C 252.915 -1.37854 1.29588 0
M  V30 2805 O 252.258 -1.80411 0.346036 0
M  V30 2806 C 252.32 -0.538276 3.55447 0
M  V30 2807 C 251.984 0.591095 4.53161 0
M  V30 2808 C 252.981 1.46027 4.98971 0
M  V30 2809 C 250.666 0.769028 4.96378 0
M  V30 2810 C 252.66 2.49216 5.8666 0
M  V30 2811 C 250.347 1.80421 5.83859 0
M  V30 2812 C 251.345 2.66417 6.28897 0
M  V30 2813 O 251.033 3.68159 7.14643 0
M  V30 2814 H 250.765 -0.0157455 0.675817 0
M  V30 2815 H 253.319 0.602495 1.96365 0
M  V30 2816 H 251.549 -1.33432 3.6295 0
M  V30 2817 H 253.238 -1.0368 3.92435 0
M  V30 2818 H 254.004 1.33429 4.66285 0
M  V30 2819 H 249.883 0.109273 4.6087 0
M  V30 2820 H 253.427 3.16372 6.21735 0
M  V30 2821 H 249.324 1.93042 6.15959 0
M  V30 2822 H 250.092 3.64622 7.32798 0
M  V30 2823 N 252.755 -1.56801 0.158532 0
M  V30 2824 C 253.687 -2.14488 -0.807923 0
M  V30 2825 C 254.7 -1.09721 -1.20271 0
M  V30 2826 O 255.889 -1.36956 -1.14478 0
M  V30 2827 C 252.989 -2.66217 -2.09718 0
M  V30 2828 C 252.162 -3.95507 -1.86796 0
M  V30 2829 C 251.221 -4.3243 -2.99818 0
M  V30 2830 O 250.247 -5.00543 -2.71008 0
M  V30 2831 N 251.449 -3.92947 -4.27285 0
M  V30 2832 H 254.214 -2.98042 -0.314816 0
M  V30 2833 H 251.775 -1.61881 -0.0246692 0
M  V30 2834 H 253.767 -2.87924 -2.84398 0
M  V30 2835 H 252.337 -1.87324 -2.50257 0
M  V30 2836 H 251.557 -3.82309 -0.96089 0
M  V30 2837 H 252.845 -4.79972 -1.68833 0
M  V30 2838 H 252.243 -3.38087 -4.53557 0
M  V30 2839 H 250.8 -4.19681 -4.9871 0
M  V30 2840 N 254.233 0.115231 -1.57178 0
M  V30 2841 C 255.143 1.15994 -2.03918 0
M  V30 2842 C 256.159 1.45103 -0.960268 0
M  V30 2843 O 257.335 1.56144 -1.27204 0
M  V30 2844 C 254.4 2.46568 -2.43732 0
M  V30 2845 C 253.461 2.24822 -3.65723 0
M  V30 2846 C 252.694 3.4917 -4.03629 0
M  V30 2847 O 252.917 4.56623 -3.41835 0
M  V30 2848 O 251.851 3.39949 -4.96708 0
M  V30 2849 H 255.677 0.793019 -2.93164 0
M  V30 2850 H 253.262 0.3263 -1.45793 0
M  V30 2851 H 255.144 3.23492 -2.70057 0
M  V30 2852 H 253.819 2.82726 -1.57631 0
M  V30 2853 H 252.726 1.45744 -3.44542 0
M  V30 2854 H 254.059 1.93566 -4.52541 0
M  V30 2855 N 255.711 1.52812 0.385517 0
M  V30 2856 C 256.958 1.68026 1.1302 0
M  V30 2857 C 257.286 0.421934 1.89868 0
M  V30 2858 O 256.541 -0.595749 1.86412 0
M  V30 2859 C 256.84 2.86856 2.13187 0
M  V30 2860 C 256.506 4.24159 1.5297 0
M  V30 2861 C 255.168 4.61501 1.36274 0
M  V30 2862 C 257.52 5.09627 1.09223 0
M  V30 2863 C 254.848 5.81966 0.743837 0
M  V30 2864 C 257.2 6.30719 0.487411 0
M  V30 2865 C 255.864 6.6679 0.307777 0
M  V30 2866 H 255.134 0.614849 0.413571 0
M  V30 2867 H 257.781 1.86962 0.414405 0
M  V30 2868 H 256.086 2.6235 2.90998 0
M  V30 2869 H 257.783 2.95821 2.70722 0
M  V30 2870 H 254.373 3.94746 1.66954 0
M  V30 2871 H 258.557 4.81343 1.20922 0
M  V30 2872 H 253.813 6.08519 0.592891 0
M  V30 2873 H 257.987 6.96259 0.140143 0
M  V30 2874 H 255.614 7.60001 -0.173879 0
M  V30 2875 N 257.189 -0.644168 1.43834 0
M  V30 2876 C 258.436 -1.40395 1.4593 0
M  V30 2877 C 258.764 -1.94305 0.0869658 0
M  V30 2878 O 258.019 -1.73288 -0.909378 0
M  V30 2879 C 258.318 -2.59615 2.45631 0
M  V30 2880 C 257.984 -2.2407 3.91284 0
M  V30 2881 C 256.646 -2.14089 4.30952 0
M  V30 2882 C 258.998 -1.95775 4.83034 0
M  V30 2883 C 256.326 -1.73981 5.6031 0
M  V30 2884 C 258.678 -1.57163 6.12766 0
M  V30 2885 C 257.342 -1.45713 6.51402 0
M  V30 2886 H 256.612 -0.513741 0.533995 0
M  V30 2887 H 259.259 -0.731724 1.76969 0
M  V30 2888 H 257.564 -3.32011 2.08028 0
M  V30 2889 H 259.261 -3.17834 2.44504 0
M  V30 2890 H 255.851 -2.32753 3.59895 0
M  V30 2891 H 260.035 -2.02403 4.53152 0
M  V30 2892 H 255.291 -1.63709 5.89075 0
M  V30 2893 H 259.465 -1.34303 6.83327 0
M  V30 2894 H 257.092 -1.14406 7.51542 0
M  V30 2895 N 258.668 -1.30515 -0.883378 0
M  V30 2896 C 259.916 -1.19194 -1.63209 0
M  V30 2897 C 260.237 0.253205 -1.93349 0
M  V30 2898 O 259.507 1.17025 -1.57105 0
M  V30 2899 H 258.087 -0.438148 -0.605009 0
M  V30 2900 H 260.749 -1.63663 -1.05832 0
M  V30 2901 H 259.845 -1.75396 -2.58153 0
M  V30 2902 N 260.146 1.09593 -1.13257 0
M  V30 2903 C 261.076 2.18214 -0.830946 0
M  V30 2904 C 262.057 1.68812 0.208966 0
M  V30 2905 O 263.242 1.9408 0.0682666 0
M  V30 2906 C 260.372 3.46051 -0.294296 0
M  V30 2907 C 259.326 4.08778 -1.26826 0
M  V30 2908 C 258.652 5.31419 -0.591449 0
M  V30 2909 C 259.952 4.51476 -2.62615 0
M  V30 2910 H 261.646 2.43703 -1.73923 0
M  V30 2911 H 259.192 1.17128 -0.837675 0
M  V30 2912 H 261.145 4.2134 -0.0709606 0
M  V30 2913 H 259.869 3.20079 0.649366 0
M  V30 2914 H 258.528 3.35505 -1.47756 0
M  V30 2915 H 258.176 5.01727 0.357633 0
M  V30 2916 H 257.876 5.74341 -1.24123 0
M  V30 2917 H 259.4 6.09433 -0.377355 0
M  V30 2918 H 260.814 5.17999 -2.45663 0
M  V30 2919 H 259.211 5.05277 -3.23752 0
M  V30 2920 H 260.281 3.63962 -3.20406 0
M  V30 2921 N 261.624 0.925811 1.2754 0
M  V30 2922 C 262.554 0.440748 2.29303 0
M  V30 2923 C 263.535 -0.497971 1.62648 0
M  V30 2924 O 264.72 -0.403126 1.8997 0
M  V30 2925 C 261.85 -0.309048 3.45922 0
M  V30 2926 C 260.804 0.54166 4.24559 0
M  V30 2927 C 260.13 -0.337191 5.33636 0
M  V30 2928 C 261.43 1.80516 4.90114 0
M  V30 2929 H 263.124 1.29121 2.70126 0
M  V30 2930 H 260.67 0.622323 1.29858 0
M  V30 2931 H 262.623 -0.659315 4.1621 0
M  V30 2932 H 261.347 -1.19352 3.04011 0
M  V30 2933 H 260.006 0.874609 3.56014 0
M  V30 2934 H 259.654 -1.22056 4.87966 0
M  V30 2935 H 259.354 0.228497 5.87156 0
M  V30 2936 H 260.878 -0.683072 6.06767 0
M  V30 2937 H 262.292 1.52307 5.52698 0
M  V30 2938 H 260.689 2.3142 5.53683 0
M  V30 2939 H 261.759 2.52581 4.13921 0
M  V30 2940 N 263.102 -1.41638 0.69111 0
M  V30 2941 C 264.012 -2.34588 0.0233487 0
M  V30 2942 C 265.028 -1.55987 -0.770984 0
M  V30 2943 O 266.204 -1.88486 -0.709569 0
M  V30 2944 C 263.269 -3.34684 -0.904851 0
M  V30 2945 C 262.33 -4.29176 -0.103225 0
M  V30 2946 C 261.563 -5.2449 -0.987216 0
M  V30 2947 O 261.786 -5.2514 -2.22674 0
M  V30 2948 O 260.72 -6.00295 -0.439281 0
M  V30 2949 H 264.546 -2.93261 0.789416 0
M  V30 2950 H 262.131 -1.42417 0.45142 0
M  V30 2951 H 264.013 -3.96133 -1.43724 0
M  V30 2952 H 262.688 -2.78461 -1.65049 0
M  V30 2953 H 261.595 -3.71089 0.473655 0
M  V30 2954 H 262.928 -4.88484 0.60365 0
M  V30 2955 N 264.58 -0.43555 -1.51462 0
M  V30 2956 C 265.49 0.383001 -2.31453 0
M  V30 2957 C 266.506 1.02931 -1.4029 0
M  V30 2958 O 267.682 1.02507 -1.73362 0
M  V30 2959 C 264.747 1.47043 -3.13973 0
M  V30 2960 C 263.808 0.844433 -4.20913 0
M  V30 2961 C 263.041 1.88004 -4.9949 0
M  V30 2962 O 263.264 3.10199 -4.78678 0
M  V30 2963 O 262.198 1.47157 -5.83634 0
M  V30 2964 H 266.024 -0.269964 -3.02498 0
M  V30 2965 H 263.609 -0.19813 -1.4808 0
M  V30 2966 H 265.491 2.10113 -3.65281 0
M  V30 2967 H 264.166 2.10751 -2.45695 0
M  V30 2968 H 263.073 0.175729 -3.73687 0
M  V30 2969 H 264.406 0.250869 -4.9156 0
M  V30 2970 N 266.058 1.56714 -0.166846 0
M  V30 2971 C 267.006 2.19056 0.782123 0
M  V30 2972 C 268 1.15328 1.24079 0
M  V30 2973 O 269.206 1.33537 1.20697 0
M  V30 2974 H 265.581 0.70167 0.270486 0
M  V30 2975 H 267.552 2.97494 0.232322 0
M  V30 2976 C 266.301 2.84206 2.00306 0
M  V30 2977 H 265.624 3.63748 1.65914 0
M  V30 2978 H 267.064 3.31302 2.64604 0
M  V30 2979 C 265.523 1.83744 2.82382 0
M  V30 2980 O 266.053 1.32014 3.79388 0
M  V30 2981 N 264.259 1.52601 2.47308 0
M  V30 2982 H 263.806 1.9486 1.68485 0
M  V30 2983 H 263.764 0.856351 3.02513 0
M  V30 2984 N 267.536 -0.106894 1.57237 0
M  V30 2985 C 268.766 -0.825191 1.89405 0
M  V30 2986 C 269.174 -1.73374 0.757496 0
M  V30 2987 O 268.517 -1.81552 -0.280115 0
M  V30 2988 C 268.579 -1.70102 3.1671 0
M  V30 2989 C 268.243 -0.965523 4.46684 0
M  V30 2990 C 269.24 -0.300741 5.19029 0
M  V30 2991 C 266.925 -0.943105 4.93367 0
M  V30 2992 C 268.919 0.376622 6.36286 0
M  V30 2993 C 266.606 -0.261949 6.10538 0
M  V30 2994 C 267.604 0.396748 6.81847 0
M  V30 2995 O 267.292 1.06701 7.96787 0
M  V30 2996 H 267.024 -0.241852 0.631255 0
M  V30 2997 H 269.578 -0.0921491 2.05193 0
M  V30 2998 H 267.808 -2.47601 2.97036 0
M  V30 2999 H 269.497 -2.29483 3.34802 0
M  V30 3000 H 270.263 -0.309599 4.84011 0
M  V30 3001 H 266.142 -1.44524 4.3776 0
M  V30 3002 H 269.686 0.891334 6.91882 0
M  V30 3003 H 265.583 -0.250896 6.45012 0
M  V30 3004 H 266.351 0.972707 8.127 0
M  V30 3005 N 269.014 -1.53014 -0.377408 0
M  V30 3006 C 270.425 -1.60438 -0.954798 0
M  V30 3007 C 270.776 -0.464418 -1.90624 0
M  V30 3008 O 269.901 0.41087 -2.12464 0
M  V30 3009 C 270.496 -2.90797 -1.73847 0
M  V30 3010 C 269.055 -3.00595 -2.26538 0
M  V30 3011 C 268.202 -2.55645 -1.07429 0
M  V30 3012 H 271.153 -1.57926 -0.156575 0
M  V30 3013 H 271.174 -2.77935 -2.5987 0
M  V30 3014 H 270.686 -3.73746 -1.04574 0
M  V30 3015 H 268.787 -2.22208 -2.99089 0
M  V30 3016 H 268.9 -4.05456 -2.5523 0
M  V30 3017 H 267.264 -2.10239 -1.43777 0
M  V30 3018 H 268.047 -3.41 -0.396728 0
M  V30 3019 N 270.492 0.636531 -1.44174 0
M  V30 3020 C 271.402 1.77754 -1.53103 0
M  V30 3021 C 272.418 1.68928 -0.417034 0
M  V30 3022 O 273.594 1.89801 -0.6736 0
M  V30 3023 C 270.659 3.14115 -1.46741 0
M  V30 3024 C 269.72 3.34612 -2.68948 0
M  V30 3025 C 268.953 4.64467 -2.6288 0
M  V30 3026 O 269.176 5.44919 -1.68581 0
M  V30 3027 O 268.11 4.87049 -3.53648 0
M  V30 3028 H 271.936 1.73174 -2.49489 0
M  V30 3029 H 269.521 0.79709 -1.2636 0
M  V30 3030 H 271.403 3.95412 -1.45696 0
M  V30 3031 H 270.078 3.19249 -0.534975 0
M  V30 3032 H 268.985 2.53014 -2.75562 0
M  V30 3033 H 270.318 3.34336 -3.61221 0
M  V30 3034 N 271.97 1.30982 0.876444 0
M  V30 3035 C 273.198 1.23242 1.6619 0
M  V30 3036 C 273.613 -0.203345 1.87702 0
M  V30 3037 O 272.97 -1.13317 1.43057 0
M  V30 3038 C 273.021 1.96623 3.03351 0
M  V30 3039 O 272.742 3.34594 2.82804 0
M  V30 3040 C 274.243 1.95644 3.97792 0
M  V30 3041 H 271.463 0.426126 0.518322 0
M  V30 3042 H 274.007 1.7275 1.09442 0
M  V30 3043 H 272.162 1.50892 3.56806 0
M  V30 3044 H 272.576 3.71873 3.69879 0
M  V30 3045 H 274.05 2.51511 4.91372 0
M  V30 3046 H 274.527 0.937395 4.2908 0
M  V30 3047 H 275.133 2.41225 3.50272 0
M  V30 3048 N 273.449 -1.08991 1.13837 0
M  V30 3049 C 274.379 -2.17771 0.842507 0
M  V30 3050 C 275.36 -1.6892 -0.20001 0
M  V30 3051 O 276.545 -1.94113 -0.0579731 0
M  V30 3052 C 273.675 -3.4589 0.312644 0
M  V30 3053 C 272.629 -4.08099 1.28992 0
M  V30 3054 C 271.955 -5.31098 0.619623 0
M  V30 3055 C 273.255 -4.50077 2.65005 0
M  V30 3056 H 274.949 -2.42777 1.75213 0
M  V30 3057 H 272.495 -1.16682 0.843875 0
M  V30 3058 H 274.448 -4.21297 0.0933043 0
M  V30 3059 H 273.172 -3.20419 -0.632382 0
M  V30 3060 H 271.831 -3.34717 1.49533 0
M  V30 3061 H 271.479 -5.0191 -0.33102 0
M  V30 3062 H 271.179 -5.73674 1.27167 0
M  V30 3063 H 272.703 -6.09224 0.409669 0
M  V30 3064 H 274.117 -5.16688 2.48407 0
M  V30 3065 H 272.514 -5.03553 3.26427 0
M  V30 3066 H 273.584 -3.62257 3.22332 0
M  V30 3067 N 274.927 -0.932562 -1.27047 0
M  V30 3068 C 275.874 -0.434072 -2.26681 0
M  V30 3069 C 276.844 0.501639 -1.58344 0
M  V30 3070 O 278.029 0.419734 -1.86126 0
M  V30 3071 C 275.169 0.30261 -3.43771 0
M  V30 3072 C 274.282 -0.667774 -4.26808 0
M  V30 3073 C 273.417 0.0892393 -5.31125 0
M  V30 3074 C 272.456 -0.873532 -6.05835 0
M  V30 3075 N 271.593 -0.148832 -7.01942 0
M  V30 3076 H 276.433 -1.28868 -2.68695 0
M  V30 3077 H 273.97 -0.646713 -1.32121 0
M  V30 3078 H 275.928 0.746092 -4.10474 0
M  V30 3079 H 274.558 1.12142 -3.02695 0
M  V30 3080 H 273.61 -1.22978 -3.59973 0
M  V30 3081 H 274.922 -1.40337 -4.78651 0
M  V30 3082 H 274.076 0.592409 -6.03801 0
M  V30 3083 H 272.815 0.85777 -4.80097 0
M  V30 3084 H 271.82 -1.38791 -5.31994 0
M  V30 3085 H 273.045 -1.64193 -6.58952 0
M  V30 3086 H 270.991 0.601365 -6.53238 0
M  V30 3087 H 270.908 -0.82391 -7.51497 0
M  V30 3088 H 272.176 0.333527 -7.78786 0
M  V30 3089 N 276.405 1.4127 -0.698611 0
M  V30 3090 C 277.652 2.0118 -0.230865 0
M  V30 3091 C 277.98 1.55338 1.17049 0
M  V30 3092 O 277.235 0.756775 1.80475 0
M  V30 3093 C 277.534 3.56592 -0.240192 0
M  V30 3094 C 277.2 4.21955 -1.58948 0
M  V30 3095 C 275.862 4.39524 -1.95887 0
M  V30 3096 C 278.214 4.58576 -2.47704 0
M  V30 3097 C 275.542 4.90992 -3.2116 0
M  V30 3098 C 277.894 5.11435 -3.72313 0
M  V30 3099 C 276.558 5.27215 -4.0939 0
M  V30 3100 H 275.828 0.736169 -0.0844796 0
M  V30 3101 H 278.475 1.69124 -0.8983 0
M  V30 3102 H 276.78 3.88456 0.510797 0
M  V30 3103 H 278.477 4.00758 0.139296 0
M  V30 3104 H 275.067 4.08657 -1.29219 0
M  V30 3105 H 279.251 4.44654 -2.20445 0
M  V30 3106 H 274.507 5.01393 -3.49878 0
M  V30 3107 H 278.681 5.38752 -4.4127 0
M  V30 3108 H 276.308 5.66859 -5.06533 0
M  V30 3109 N 277.883 0.443576 1.51229 0
M  V30 3110 C 278.816 -0.410089 2.24485 0
M  V30 3111 C 279.794 -1.01949 1.26669 0
M  V30 3112 O 280.978 -1.06075 1.55821 0
M  V30 3113 C 278.105 -1.57211 3.00004 0
M  V30 3114 C 277.151 -1.08279 4.12526 0
M  V30 3115 S 277.984 -0.0197476 5.35496 0
M  V30 3116 C 279.14 -1.18629 6.14555 0
M  V30 3117 H 279.373 0.211832 2.96544 0
M  V30 3118 H 276.906 0.228156 1.52705 0
M  V30 3119 H 278.864 -2.23825 3.44111 0
M  V30 3120 H 277.525 -2.16547 2.27522 0
M  V30 3121 H 276.718 -1.95193 4.64667 0
M  V30 3122 H 276.32 -0.494797 3.70713 0
M  V30 3123 H 278.612 -2.10344 6.4402 0
M  V30 3124 H 279.555 -0.70472 7.04584 0
M  V30 3125 H 279.963 -1.42768 5.46148 0
M  V30 3126 N 279.361 -1.56624 0.175154 0
M  V30 3127 C 280.291 -2.21155 -0.749195 0
M  V30 3128 C 281.272 -1.16836 -1.23626 0
M  V30 3129 O 282.457 -1.45277 -1.28873 0
M  V30 3130 C 279.587 -2.8553 -1.97711 0
M  V30 3131 C 278.541 -3.95921 -1.62575 0
M  V30 3132 C 277.867 -4.47365 -2.92864 0
M  V30 3133 C 279.167 -5.15323 -0.850838 0
M  V30 3134 H 280.861 -2.98653 -0.211295 0
M  V30 3135 H 278.407 -1.43651 -0.100188 0
M  V30 3136 H 280.36 -3.2935 -2.62881 0
M  V30 3137 H 279.084 -2.05406 -2.53921 0
M  V30 3138 H 277.743 -3.52762 -0.997719 0
M  V30 3139 H 277.391 -3.64027 -3.47122 0
M  V30 3140 H 277.091 -5.21839 -2.70106 0
M  V30 3141 H 278.615 -4.93873 -3.59056 0
M  V30 3142 H 280.029 -5.55812 -1.40521 0
M  V30 3143 H 278.426 -5.95739 -0.722154 0
M  V30 3144 H 279.496 -4.84661 0.152082 0
M  V30 3145 N 280.839 0.0985539 -1.57292 0
M  V30 3146 C 282.088 0.801358 -1.85098 0
M  V30 3147 C 282.401 1.80066 -0.763902 0
M  V30 3148 O 283.607 2.55112 -0.928981 0
M  V30 3149 C 282.063 1.47599 -3.28242 0
M  V30 3150 C 281.671 0.516624 -4.45011 0
M  V30 3151 C 283.415 2.16272 -3.65276 0
M  V30 3152 C 281.322 1.19564 -5.79188 0
M  V30 3153 H 280.252 0.303022 -0.69043 0
M  V30 3154 H 282.903 0.0542623 -1.8342 0
M  V30 3155 H 281.285 2.27042 -3.2445 0
M  V30 3156 H 282.459 -0.246065 -4.60143 0
M  V30 3157 H 280.774 -0.064227 -4.1635 0
M  V30 3158 H 283.371 2.67802 -4.62803 0
M  V30 3159 H 283.714 2.95009 -2.93727 0
M  V30 3160 H 284.247 1.43693 -3.70941 0
M  V30 3161 H 280.986 0.449157 -6.53959 0
M  V30 3162 H 280.506 1.92984 -5.67906 0
M  V30 3163 H 282.185 1.7231 -6.23633 0
M  V30 3164 N 282.317 1.53212 0.369288 0
M  V30 3165 C 283.563 1.69466 1.11397 0
M  V30 3166 C 283.896 0.443257 1.89074 0
M  V30 3167 O 283.171 -0.559386 1.86282 0
M  V30 3168 C 283.454 2.9422 2.07621 0
M  V30 3169 C 283.307 4.29508 1.33577 0
M  V30 3170 C 284.626 3.14565 3.07794 0
M  V30 3171 H 281.745 0.616667 0.403597 0
M  V30 3172 H 284.387 1.85845 0.395179 0
M  V30 3173 H 282.537 2.80387 2.68916 0
M  V30 3174 H 284.209 4.55147 0.750955 0
M  V30 3175 H 282.452 4.29088 0.637618 0
M  V30 3176 H 283.123 5.12926 2.03989 0
M  V30 3177 H 285.599 3.2756 2.56601 0
M  V30 3178 H 284.475 4.03297 3.72348 0
M  V30 3179 H 284.736 2.29675 3.77759 0
M  V30 3180 N 283.795 -0.628877 1.44509 0
M  V30 3181 C 284.742 -1.74074 1.51549 0
M  V30 3182 C 285.712 -1.62084 0.363021 0
M  V30 3183 O 286.897 -1.81975 0.573567 0
M  V30 3184 C 284.037 -3.12328 1.46784 0
M  V30 3185 C 283.15 -3.35277 2.72422 0
M  V30 3186 C 282.285 -4.63515 2.59475 0
M  V30 3187 C 281.324 -4.7965 3.80266 0
M  V30 3188 N 280.461 -5.99168 3.65981 0
M  V30 3189 H 285.301 -1.67392 2.46544 0
M  V30 3190 H 282.838 -0.816527 1.22357 0
M  V30 3191 H 284.796 -3.92286 1.42012 0
M  V30 3192 H 283.426 -3.18018 0.553544 0
M  V30 3193 H 282.478 -2.49242 2.87372 0
M  V30 3194 H 283.79 -3.43078 3.62076 0
M  V30 3195 H 282.944 -5.51638 2.52548 0
M  V30 3196 H 281.683 -4.58076 1.67384 0
M  V30 3197 H 280.688 -3.89957 3.87574 0
M  V30 3198 H 281.913 -4.86902 4.73395 0
M  V30 3199 H 279.859 -5.94814 2.76644 0
M  V30 3200 H 279.776 -6.08035 4.49254 0
M  V30 3201 H 281.044 -6.89846 3.6295 0
M  V30 3202 N 285.273 -1.31445 -0.869486 0
M  V30 3203 C 286.236 -1.19094 -1.9583 0
M  V30 3204 C 287.236 -0.117906 -1.60367 0
M  V30 3205 O 288.426 -0.367208 -1.70286 0
M  V30 3206 C 285.558 -0.828165 -3.30688 0
M  V30 3207 H 286.751 -2.15842 -2.08212 0
M  V30 3208 H 284.304 -1.15063 -1.05784 0
M  V30 3209 H 285.039 0.138142 -3.24006 0
M  V30 3210 H 284.824 -1.6038 -3.578 0
M  V30 3211 H 286.314 -0.765658 -4.10521 0
M  V30 3212 N 286.751 1.08385 -1.14413 0
M  V30 3213 C 287.979 1.84517 -0.936001 0
M  V30 3214 C 288.394 1.81626 0.515503 0
M  V30 3215 O 287.751 1.22008 1.35721 0
M  V30 3216 C 287.802 3.32049 -1.42918 0
M  V30 3217 O 287.523 3.34951 -2.82381 0
M  V30 3218 C 289.024 4.24986 -1.26103 0
M  V30 3219 H 286.244 0.582491 -0.333084 0
M  V30 3220 H 288.788 1.36885 -1.5193 0
M  V30 3221 H 286.943 3.7707 -0.888641 0
M  V30 3222 H 287.357 4.27048 -3.04517 0
M  V30 3223 H 288.831 5.26615 -1.6547 0
M  V30 3224 H 289.308 4.38726 -0.20392 0
M  V30 3225 H 289.914 3.85791 -1.79012 0
M  V30 3226 N 288.23 0.939286 1.26551 0
M  V30 3227 C 289.177 0.446088 2.26448 0
M  V30 3228 C 290.147 -0.493234 1.58608 0
M  V30 3229 O 291.332 -0.409857 1.86346 0
M  V30 3230 C 288.472 -0.284375 3.43926 0
M  V30 3231 C 287.585 0.690399 4.26448 0
M  V30 3232 C 286.72 -0.0610712 5.31165 0
M  V30 3233 C 285.759 0.905649 6.05363 0
M  V30 3234 N 284.896 0.186055 7.01853 0
M  V30 3235 H 289.736 1.30291 2.68008 0
M  V30 3236 H 287.273 0.65371 1.31776 0
M  V30 3237 H 289.231 -0.724313 4.10864 0
M  V30 3238 H 287.861 -1.10535 3.03285 0
M  V30 3239 H 286.913 1.24885 3.59316 0
M  V30 3240 H 288.225 1.42873 4.779 0
M  V30 3241 H 287.379 -0.56038 6.04106 0
M  V30 3242 H 286.118 -0.832297 4.80546 0
M  V30 3243 H 285.123 1.4161 5.3125 0
M  V30 3244 H 286.348 1.67685 6.58072 0
M  V30 3245 H 284.294 -0.566714 6.53548 0
M  V30 3246 H 284.211 0.863752 7.51049 0
M  V30 3247 H 285.479 -0.292221 7.78952 0
M  V30 3248 N 289.708 -1.40897 0.706093 0
M  V30 3249 C 290.638 -2.33418 0.0620085 0
M  V30 3250 C 291.619 -1.52385 -0.755827 0
M  V30 3251 O 292.804 -1.80886 -0.706674 0
M  V30 3252 C 289.934 -3.36293 -0.867445 0
M  V30 3253 C 288.888 -4.27716 -0.155932 0
M  V30 3254 C 288.214 -5.2105 -1.20046 0
M  V30 3255 C 289.514 -5.12944 0.984149 0
M  V30 3256 H 291.208 -2.87527 0.83477 0
M  V30 3257 H 288.754 -1.38249 0.402875 0
M  V30 3258 H 290.707 -3.99949 -1.32735 0
M  V30 3259 H 289.431 -2.80556 -1.67199 0
M  V30 3260 H 288.09 -3.65498 0.284047 0
M  V30 3261 H 287.738 -4.61624 -1.99781 0
M  V30 3262 H 287.438 -5.83056 -0.729328 0
M  V30 3263 H 288.962 -5.87584 -1.66066 0
M  V30 3264 H 290.376 -5.70109 0.604048 0
M  V30 3265 H 288.773 -5.83945 1.38304 0
M  V30 3266 H 289.843 -4.49485 1.81911 0
M  V30 3267 N 291.186 -0.45159 -1.50991 0
M  V30 3268 C 292.433 0.110074 -2.02201 0
M  V30 3269 C 292.761 1.4146 -1.33489 0
M  V30 3270 O 292.016 1.90617 -0.443125 0
M  V30 3271 C 292.315 0.361728 -3.55565 0
M  V30 3272 C 291.981 -0.858717 -4.42648 0
M  V30 3273 C 290.643 -1.19338 -4.66167 0
M  V30 3274 C 292.995 -1.67221 -4.93646 0
M  V30 3275 C 290.323 -2.34195 -5.37931 0
M  V30 3276 C 292.675 -2.8119 -5.6667 0
M  V30 3277 C 291.339 -3.15094 -5.88449 0
M  V30 3278 H 290.609 0.040279 -0.739904 0
M  V30 3279 H 293.256 -0.601696 -1.81802 0
M  V30 3280 H 291.561 1.15554 -3.74372 0
M  V30 3281 H 293.258 0.80996 -3.92735 0
M  V30 3282 H 289.848 -0.58796 -4.24548 0
M  V30 3283 H 294.032 -1.42686 -4.75347 0
M  V30 3284 H 289.288 -2.6076 -5.53005 0
M  V30 3285 H 293.462 -3.44585 -6.05173 0
M  V30 3286 H 291.089 -4.04204 -6.43835 0
M  V30 3287 N 292.664 1.56529 -0.183458 0
M  V30 3288 C 294.075 1.83739 0.331177 0
M  V30 3289 C 294.426 1.10373 1.62211 0
M  V30 3290 O 293.551 0.36071 2.13373 0
M  V30 3291 C 294.146 3.33306 0.607646 0
M  V30 3292 C 292.705 3.60969 1.06668 0
M  V30 3293 C 291.852 2.77086 0.109029 0
M  V30 3294 H 294.803 1.53379 -0.407484 0
M  V30 3295 H 294.824 3.51444 1.45832 0
M  V30 3296 H 294.336 3.86677 -0.332086 0
M  V30 3297 H 292.437 3.13021 2.0211 0
M  V30 3298 H 292.55 4.69231 0.967447 0
M  V30 3299 H 290.914 2.47319 0.608714 0
M  V30 3300 H 291.697 3.33241 -0.82494 0
M  V30 3301 N 294.142 -0.090211 1.57342 0
M  V30 3302 C 295.388 -0.793982 1.86611 0
M  V30 3303 C 295.721 -1.78142 0.773252 0
M  V30 3304 O 294.996 -1.93271 -0.218304 0
M  V30 3305 C 295.279 -1.51839 3.26523 0
M  V30 3306 C 295.132 -0.548609 4.46442 0
M  V30 3307 C 296.451 -2.46779 3.64401 0
M  V30 3308 H 293.57 -0.287186 0.678744 0
M  V30 3309 H 296.212 -0.0575076 1.89913 0
M  V30 3310 H 294.362 -2.14617 3.23839 0
M  V30 3311 H 296.034 0.0725513 4.61243 0
M  V30 3312 H 294.277 0.137614 4.33582 0
M  V30 3313 H 294.948 -1.09271 5.41076 0
M  V30 3314 H 297.424 -1.94089 3.68061 0
M  V30 3315 H 296.3 -2.94479 4.63221 0
M  V30 3316 H 296.561 -3.30758 2.93346 0
M  V30 3317 N 295.62 -1.53406 -0.361157 0
M  V30 3318 C 296.868 -1.69467 -1.10115 0
M  V30 3319 C 297.189 -0.451352 -1.89705 0
M  V30 3320 O 296.459 0.534636 -1.88463 0
M  V30 3321 H 295.039 -0.624749 -0.409508 0
M  V30 3322 H 297.701 -1.90609 -0.406699 0
M  V30 3323 H 296.797 -2.55774 -1.78847 0
M  V30 3324 N 297.098 0.621204 -1.44841 0
M  V30 3325 C 298.328 1.40548 -1.51426 0
M  V30 3326 C 298.736 1.88673 -0.141083 0
M  V30 3327 O 298.079 1.62053 0.865128 0
M  V30 3328 C 298.141 2.65325 -2.42576 0
M  V30 3329 C 297.805 2.3893 -3.89566 0
M  V30 3330 C 298.802 2.00138 -4.79834 0
M  V30 3331 C 296.487 2.52263 -4.3436 0
M  V30 3332 C 298.481 1.75021 -6.129 0
M  V30 3333 C 296.168 2.2676 -5.67471 0
M  V30 3334 C 297.166 1.88199 -6.56559 0
M  V30 3335 O 296.854 1.62986 -7.87204 0
M  V30 3336 H 296.586 0.437122 -0.515655 0
M  V30 3337 H 299.14 0.765987 -1.90583 0
M  V30 3338 H 297.37 3.31947 -1.98364 0
M  V30 3339 H 299.059 3.27347 -2.39998 0
M  V30 3340 H 299.825 1.89386 -4.46495 0
M  V30 3341 H 295.704 2.81246 -3.65269 0
M  V30 3342 H 299.248 1.44848 -6.82396 0
M  V30 3343 H 295.145 2.37125 -6.00368 0
M  V30 3344 H 295.913 1.7715 -7.991 0
M  V30 3345 N 298.576 1.31904 0.862503 0
M  V30 3346 C 299.524 1.20125 1.9918 0
M  V30 3347 C 300.518 0.107824 1.69056 0
M  V30 3348 O 301.724 0.270223 1.7796 0
M  V30 3349 H 298.099 0.372148 0.65346 0
M  V30 3350 H 300.07 2.15652 2.06244 0
M  V30 3351 C 298.819 0.933099 3.34946 0
M  V30 3352 H 298.142 1.76664 3.5865 0
M  V30 3353 H 299.582 0.890892 4.14535 0
M  V30 3354 C 298.041 -0.364172 3.34926 0
M  V30 3355 O 298.571 -1.37858 3.77304 0
M  V30 3356 N 296.777 -0.383362 2.8806 0
M  V30 3357 H 296.324 0.442651 2.53768 0
M  V30 3358 H 296.282 -1.25123 2.8843 0
M  V30 3359 N 300.054 -1.07777 1.14986 0
M  V30 3360 C 300.984 -2.16865 0.865557 0
M  V30 3361 C 301.965 -1.69123 -0.182083 0
M  V30 3362 O 303.15 -1.94164 -0.0373815 0
M  V30 3363 C 300.28 -3.45539 0.349313 0
M  V30 3364 C 299.234 -4.06708 1.33313 0
M  V30 3365 C 298.56 -5.30411 0.675918 0
M  V30 3366 C 299.86 -4.47241 2.69764 0
M  V30 3367 H 301.554 -2.40905 1.77778 0
M  V30 3368 H 299.1 -1.15781 0.856203 0
M  V30 3369 H 301.053 -4.21174 0.137983 0
M  V30 3370 H 299.777 -3.21072 -0.598362 0
M  V30 3371 H 298.436 -3.33112 1.53075 0
M  V30 3372 H 298.084 -5.02232 -0.277767 0
M  V30 3373 H 297.784 -5.72293 1.33244 0
M  V30 3374 H 299.308 -6.08755 0.474262 0
M  V30 3375 H 300.722 -5.14025 2.53873 0
M  V30 3376 H 299.119 -5.00062 3.3175 0
M  V30 3377 H 300.189 -3.58818 3.26156 0
M  V30 3378 N 301.532 -0.945985 -1.26051 0
M  V30 3379 C 302.465 -0.403619 -2.24602 0
M  V30 3380 C 303.443 0.510241 -1.54387 0
M  V30 3381 O 304.627 0.446593 -1.83133 0
M  V30 3382 C 301.754 0.419564 -3.36091 0
M  V30 3383 C 300.8 -0.433454 -4.24292 0
M  V30 3384 S 301.633 -1.86037 -5.02146 0
M  V30 3385 C 302.789 -1.04538 -6.17108 0
M  V30 3386 H 303.022 -1.23883 -2.7026 0
M  V30 3387 H 300.555 -0.749438 -1.34992 0
M  V30 3388 H 302.513 0.888595 -4.00767 0
M  V30 3389 H 301.174 1.22951 -2.89036 0
M  V30 3390 H 300.367 0.197486 -5.03613 0
M  V30 3391 H 299.969 -0.837357 -3.64506 0
M  V30 3392 H 302.261 -0.289923 -6.76879 0
M  V30 3393 H 303.204 -1.81222 -6.84518 0
M  V30 3394 H 303.612 -0.579319 -5.61519 0
M  V30 3395 N 303.011 1.40521 -0.713556 0
M  V30 3396 C 303.958 2.30723 -0.059684 0
M  V30 3397 C 304.928 1.48079 0.752448 0
M  V30 3398 O 306.113 1.76823 0.71681 0
M  V30 3399 C 303.253 3.34274 0.857594 0
M  V30 3400 C 302.366 4.31986 0.0351536 0
M  V30 3401 C 301.501 5.22605 0.951724 0
M  V30 3402 C 300.54 6.11976 0.123253 0
M  V30 3403 N 299.677 6.9502 0.99459 0
M  V30 3404 H 304.517 2.86074 -0.834596 0
M  V30 3405 H 302.054 1.40879 -0.42326 0
M  V30 3406 H 304.012 3.92879 1.40364 0
M  V30 3407 H 302.642 2.8043 1.59871 0
M  V30 3408 H 301.694 3.7518 -0.628052 0
M  V30 3409 H 303.006 4.95101 -0.606347 0
M  V30 3410 H 302.16 5.86131 1.56638 0
M  V30 3411 H 300.899 4.59759 1.62705 0
M  V30 3412 H 299.904 5.47482 -0.50435 0
M  V30 3413 H 301.129 6.76881 -0.548539 0
M  V30 3414 H 299.075 6.34764 1.6556 0
M  V30 3415 H 298.992 7.54892 0.40908 0
M  V30 3416 H 300.26 7.62997 1.59549 0
M  V30 3417 N 304.489 0.459591 1.5075 0
M  V30 3418 C 305.9 0.00171547 1.867 0
M  V30 3419 C 306.251 -1.39934 1.37525 0
M  V30 3420 O 305.376 -2.03523 0.735349 0
M  V30 3421 C 305.971 -0.00366298 3.388 0
M  V30 3422 C 304.53 -0.406026 3.74204 0
M  V30 3423 C 303.677 0.38673 2.7459 0
M  V30 3424 H 306.628 0.674413 1.43657 0
M  V30 3425 H 306.649 -0.808371 3.71814 0
M  V30 3426 H 306.161 1.01617 3.74561 0
M  V30 3427 H 304.262 -1.43063 3.4404 0
M  V30 3428 H 304.375 -0.115362 4.78961 0
M  V30 3429 H 302.739 -0.158019 2.54209 0
M  V30 3430 H 303.522 1.40585 3.13194 0
M  V30 3431 N 305.967 -1.56429 0.191757 0
M  V30 3432 C 307.214 -1.97485 -0.447891 0
M  V30 3433 C 307.542 -1.07852 -1.61859 0
M  V30 3434 O 306.797 -0.116903 -1.95351 0
M  V30 3435 C 307.096 -3.44449 -0.953384 0
M  V30 3436 C 306.762 -4.50781 0.103586 0
M  V30 3437 C 305.424 -4.79584 0.394023 0
M  V30 3438 C 307.776 -5.1471 0.819946 0
M  V30 3439 C 305.104 -5.69607 1.40585 0
M  V30 3440 C 307.456 -6.05827 1.8209 0
M  V30 3441 C 306.12 -6.32987 2.11857 0
M  V30 3442 H 305.39 -0.722648 -0.163895 0
M  V30 3443 H 308.037 -1.89322 0.28802 0
M  V30 3444 H 306.342 -3.49666 -1.76751 0
M  V30 3445 H 308.039 -3.73569 -1.45765 0
M  V30 3446 H 304.629 -4.28394 -0.132951 0
M  V30 3447 H 308.813 -4.92552 0.608789 0
M  V30 3448 H 304.069 -5.88926 1.64243 0
M  V30 3449 H 308.243 -6.54424 2.38123 0
M  V30 3450 H 305.87 -7.02544 2.90407 0
M  V30 3451 N 307.445 0.0818655 -1.57387 0
M  V30 3452 C 308.375 1.09885 -2.06028 0
M  V30 3453 C 309.356 1.4098 -0.951774 0
M  V30 3454 O 310.541 1.50781 -1.22387 0
M  V30 3455 C 307.671 2.4151 -2.4958 0
M  V30 3456 C 306.625 2.24792 -3.64215 0
M  V30 3457 C 305.951 3.61712 -3.93787 0
M  V30 3458 C 307.251 1.67749 -4.94629 0
M  V30 3459 H 308.945 0.694128 -2.91243 0
M  V30 3460 H 306.491 0.332448 -1.4011 0
M  V30 3461 H 308.444 3.12939 -2.82219 0
M  V30 3462 H 307.168 2.83943 -1.61381 0
M  V30 3463 H 305.827 1.55807 -3.31843 0
M  V30 3464 H 305.475 4.01697 -3.02735 0
M  V30 3465 H 305.175 3.51368 -4.70971 0
M  V30 3466 H 306.699 4.34587 -4.28913 0
M  V30 3467 H 308.113 2.29032 -5.25564 0
M  V30 3468 H 306.51 1.68128 -5.76067 0
M  V30 3469 H 307.58 0.638059 -4.80684 0
M  V30 3470 N 308.923 1.53595 0.353017 0
M  V30 3471 C 310.148 1.7462 1.11904 0
M  V30 3472 C 310.573 0.479721 1.8188 0
M  V30 3473 O 309.931 -0.567066 1.72204 0
M  V30 3474 C 309.979 2.92029 2.11545 0
M  V30 3475 O 309.083 2.61516 3.18878 0
M  V30 3476 H 308.424 0.579531 0.324099 0
M  V30 3477 H 310.954 2.00525 0.406301 0
M  V30 3478 H 310.964 3.18551 2.5493 0
M  V30 3479 H 309.639 3.83888 1.60008 0
M  V30 3480 H 308.216 2.45852 2.80377 0
M  V30 3481 N 310.401 -0.613514 1.45168 0
M  V30 3482 C 311.311 -1.75296 1.55912 0
M  V30 3483 C 312.327 -1.68244 0.443856 0
M  V30 3484 O 313.503 -1.88706 0.70371 0
M  V30 3485 C 310.568 -3.1174 1.5172 0
M  V30 3486 C 309.629 -3.30291 2.74238 0
M  V30 3487 C 308.862 -4.60226 2.70236 0
M  V30 3488 O 309.085 -5.42168 1.77229 0
M  V30 3489 O 308.019 -4.81361 3.61352 0
M  V30 3490 H 311.845 -1.69183 2.52212 0
M  V30 3491 H 309.43 -0.776886 1.27612 0
M  V30 3492 H 311.312 -3.93044 1.51968 0
M  V30 3493 H 309.987 -3.18357 0.585697 0
M  V30 3494 H 308.894 -2.48598 2.79553 0
M  V30 3495 H 310.227 -3.28547 3.66494 0
M  V30 3496 N 311.879 -1.3236 -0.855495 0
M  V30 3497 C 313.156 -1.13491 -1.59309 0
M  V30 3498 C 313.536 0.30503 -2.08885 0
M  V30 3499 O 312.884 1.30151 -1.87811 0
M  V30 3500 C 313.094 -2.16176 -2.73987 0
M  V30 3501 C 314.442 -2.49463 -3.43589 0
M  V30 3502 O 315.466 -2.14715 -2.84211 0
M  V30 3503 O 314.325 -3.09027 -4.50738 0
M  V30 3504 H 311.419 -0.437887 -0.701559 0
M  V30 3505 H 313.965 -1.43887 -0.899696 0
M  V30 3506 H 312.737 -3.1297 -2.34873 0
M  V30 3507 H 312.36 -1.86769 -3.51003 0
M  V30 3508 N 313.357 1.07166 -1.15556 0
M  V30 3509 C 314.585 1.83514 -0.955519 0
M  V30 3510 C 315 1.82163 0.49621 0
M  V30 3511 O 314.357 1.23441 1.34419 0
M  V30 3512 C 314.408 3.30515 -1.46432 0
M  V30 3513 O 314.129 3.31937 -2.85918 0
M  V30 3514 C 315.63 4.23625 -1.30603 0
M  V30 3515 H 312.85 0.578926 -0.339244 0
M  V30 3516 H 315.394 1.35265 -1.53374 0
M  V30 3517 H 313.549 3.76106 -0.928584 0
M  V30 3518 H 313.963 4.23794 -3.09029 0
M  V30 3519 H 315.437 5.24831 -1.71047 0
M  V30 3520 H 315.914 4.38485 -0.250441 0
M  V30 3521 H 316.52 3.83871 -1.83094 0
M  V30 3522 N 314.835 0.952656 1.25548 0
M  V30 3523 C 316.251 0.656769 1.4546 0
M  V30 3524 C 316.451 -0.78633 1.85524 0
M  V30 3525 O 315.507 -1.56183 1.98402 0
M  V30 3526 C 316.82 1.62801 2.52817 0
M  V30 3527 C 318.368 1.63897 2.66659 0
M  V30 3528 C 318.843 2.5978 3.77198 0
M  V30 3529 N 320.334 2.58133 3.84606 0
M  V30 3530 C 321.069 3.29003 4.69621 0
M  V30 3531 N 320.565 4.09339 5.58939 0
M  V30 3532 N 322.358 3.179 4.63569 0
M  V30 3533 H 314.509 1.88526 0.978344 0
M  V30 3534 H 316.772 0.810815 0.491206 0
M  V30 3535 H 316.478 2.65869 2.30232 0
M  V30 3536 H 316.352 1.38898 3.50695 0
M  V30 3537 H 318.739 0.615481 2.8861 0
M  V30 3538 H 318.82 1.91858 1.69187 0
M  V30 3539 H 318.464 3.62254 3.55997 0
M  V30 3540 H 318.394 2.29105 4.7415 0
M  V30 3541 H 320.885 1.99809 3.20757 0
M  V30 3542 H 321.198 4.6034 6.20731 0
M  V30 3543 H 319.543 4.13438 5.58654 0
M  V30 3544 H 322.734 2.54612 3.92798 0
M  V30 3545 H 322.907 3.73398 5.29602 0
M  V30 3546 N 316.313 -1.40141 0.720998 0
M  V30 3547 C 317.729 -1.54632 0.395113 0
M  V30 3548 C 317.929 -1.69115 -1.09555 0
M  V30 3549 O 316.985 -1.68377 -1.88163 0
M  V30 3550 C 318.298 -2.77177 1.1659 0
M  V30 3551 C 319.846 -2.91 1.15274 0
M  V30 3552 C 320.321 -4.16465 1.90579 0
M  V30 3553 N 321.812 -4.23476 1.87675 0
M  V30 3554 C 322.547 -5.19475 2.42762 0
M  V30 3555 N 322.043 -6.21348 3.06428 0
M  V30 3556 N 323.836 -5.11592 2.32874 0
M  V30 3557 H 315.987 -1.28986 1.68749 0
M  V30 3558 H 318.25 -0.62412 0.713567 0
M  V30 3559 H 317.956 -2.72771 2.22011 0
M  V30 3560 H 317.83 -3.69442 0.76108 0
M  V30 3561 H 320.217 -2.94907 0.106702 0
M  V30 3562 H 320.298 -1.99838 1.59682 0
M  V30 3563 H 319.942 -4.1332 2.95176 0
M  V30 3564 H 319.872 -5.06646 1.43587 0
M  V30 3565 H 322.363 -3.50497 1.41281 0
M  V30 3566 H 322.676 -6.91034 3.45965 0
M  V30 3567 H 321.021 -6.21777 3.10514 0
M  V30 3568 H 324.212 -4.30936 1.82789 0
M  V30 3569 H 324.385 -5.86233 2.76106 0
M  V30 3570 N 317.792 -0.46758 -1.50504 0
M  V30 3571 C 318.739 0.328413 -2.28452 0
M  V30 3572 C 319.709 0.990313 -1.33349 0
M  V30 3573 O 320.894 1.00343 -1.62284 0
M  V30 3574 C 318.034 1.40648 -3.15138 0
M  V30 3575 C 317.147 0.759709 -4.25267 0
M  V30 3576 C 316.282 1.81537 -4.99217 0
M  V30 3577 C 315.321 1.14866 -6.01226 0
M  V30 3578 N 314.458 2.14702 -6.68467 0
M  V30 3579 H 319.298 -0.342603 -2.96024 0
M  V30 3580 H 316.835 -0.180801 -1.45985 0
M  V30 3581 H 318.793 2.04315 -3.63746 0
M  V30 3582 H 317.423 2.04671 -2.49619 0
M  V30 3583 H 316.475 0.0105671 -3.80399 0
M  V30 3584 H 317.787 0.233243 -4.98254 0
M  V30 3585 H 316.941 2.52793 -5.51526 0
M  V30 3586 H 315.68 2.37564 -4.25928 0
M  V30 3587 H 314.685 0.42171 -5.4818 0
M  V30 3588 H 315.91 0.595334 -6.76485 0
M  V30 3589 H 313.856 2.69752 -5.97972 0
M  V30 3590 H 313.773 1.6703 -7.37317 0
M  V30 3591 H 315.041 2.85348 -7.25394 0
M  V30 3592 N 319.27 1.56325 -0.20005 0
M  V30 3593 C 320.519 1.96895 0.437652 0
M  V30 3594 C 320.832 1.08999 1.62415 0
M  V30 3595 O 322.038 1.39372 2.32997 0
M  V30 3596 C 320.494 3.50198 0.830025 0
M  V30 3597 C 320.102 4.46765 -0.332461 0
M  V30 3598 C 321.846 3.99526 1.43453 0
M  V30 3599 C 319.753 5.91344 0.0811468 0
M  V30 3600 H 318.683 0.735209 0.167282 0
M  V30 3601 H 321.334 1.81148 -0.292853 0
M  V30 3602 H 319.716 3.61467 1.61734 0
M  V30 3603 H 320.89 4.47231 -1.11 0
M  V30 3604 H 319.205 4.07657 -0.848789 0
M  V30 3605 H 321.802 5.05025 1.75652 0
M  V30 3606 H 322.145 3.44122 2.34277 0
M  V30 3607 H 322.678 3.91393 0.71109 0
M  V30 3608 H 319.417 6.50685 -0.793033 0
M  V30 3609 H 318.937 5.94121 0.823445 0
M  V30 3610 H 320.616 6.44945 0.515252 0
M  V30 3611 N 320.748 -0.0735177 1.57428 0
M  V30 3612 C 321.997 -0.771809 1.86349 0
M  V30 3613 C 322.31 -1.78828 0.792452 0
M  V30 3614 O 323.516 -2.53602 0.96945 0
M  V30 3615 C 321.972 -1.42358 3.30548 0
M  V30 3616 C 321.58 -0.445761 4.45777 0
M  V30 3617 C 323.324 -2.10434 3.6867 0
M  V30 3618 C 321.231 -1.10335 5.81016 0
M  V30 3619 H 320.161 -0.291999 0.695164 0
M  V30 3620 H 322.812 -0.0250749 1.83483 0
M  V30 3621 H 321.194 -2.21852 3.28021 0
M  V30 3622 H 322.368 0.319239 4.59693 0
M  V30 3623 H 320.683 0.130457 4.16196 0
M  V30 3624 H 323.28 -2.60405 4.67004 0
M  V30 3625 H 323.623 -2.90298 2.98383 0
M  V30 3626 H 324.156 -1.37773 3.7318 0
M  V30 3627 H 320.895 -0.345061 6.54591 0
M  V30 3628 H 320.415 -1.83925 5.70904 0
M  V30 3629 H 322.094 -1.62367 6.26295 0
M  V30 3630 N 322.226 -1.5378 -0.344866 0
M  V30 3631 C 323.472 -1.71216 -1.08687 0
M  V30 3632 C 323.805 -0.473281 -1.88345 0
M  V30 3633 O 323.08 0.52968 -1.87149 0
M  V30 3634 C 323.363 -2.97486 -2.02914 0
M  V30 3635 C 323.216 -4.31579 -1.26727 0
M  V30 3636 C 324.535 -3.19422 -3.0275 0
M  V30 3637 H 321.654 -0.62301 -0.393735 0
M  V30 3638 H 324.296 -1.8645 -0.365563 0
M  V30 3639 H 322.446 -2.84629 -2.64421 0
M  V30 3640 H 324.118 -4.56284 -0.67845 0
M  V30 3641 H 322.361 -4.30049 -0.569273 0
M  V30 3642 H 323.032 -5.16106 -1.95803 0
M  V30 3643 H 325.508 -3.316 -2.51357 0
M  V30 3644 H 324.384 -4.09169 -3.65885 0
M  V30 3645 H 324.645 -2.35656 -3.74057 0
M  V30 3646 N 323.704 0.605807 -1.45491 0
M  V30 3647 C 324.634 1.72709 -1.57143 0
M  V30 3648 C 325.615 1.6476 -0.422884 0
M  V30 3649 O 326.8 1.83132 -0.646247 0
M  V30 3650 C 323.93 3.11316 -1.53948 0
M  V30 3651 C 322.884 3.34077 -2.67537 0
M  V30 3652 C 322.21 4.72975 -2.49397 0
M  V30 3653 C 323.51 3.24158 -4.09535 0
M  V30 3654 H 325.204 1.63214 -2.51001 0
M  V30 3655 H 322.75 0.78379 -1.208 0
M  V30 3656 H 324.703 3.89557 -1.60696 0
M  V30 3657 H 323.427 3.21655 -0.566205 0
M  V30 3658 H 322.086 2.58227 -2.6022 0
M  V30 3659 H 321.734 4.8005 -1.50205 0
M  V30 3660 H 321.434 4.8916 -3.25571 0
M  V30 3661 H 322.958 5.53414 -2.58002 0
M  V30 3662 H 324.372 3.92271 -4.18086 0
M  V30 3663 H 322.769 3.51872 -4.86113 0
M  V30 3664 H 323.839 2.2157 -4.31317 0
M  V30 3665 N 325.182 1.32811 0.848464 0
M  V30 3666 C 326.43 1.23479 1.59991 0
M  V30 3667 C 326.751 -0.201853 1.93952 0
M  V30 3668 O 326.021 -1.12818 1.60153 0
M  V30 3669 H 324.601 0.454034 0.593179 0
M  V30 3670 H 327.263 1.66412 1.01455 0
M  V30 3671 H 326.359 1.82178 2.53412 0
M  V30 3672 N 326.66 -1.06551 1.16123 0
M  V30 3673 C 327.608 -2.16063 0.861371 0
M  V30 3674 C 328.602 -1.6856 -0.168517 0
M  V30 3675 O 329.808 -1.79986 -0.0227579 0
M  V30 3676 H 326.183 -0.705278 0.260934 0
M  V30 3677 H 328.154 -2.38567 1.79244 0
M  V30 3678 C 326.903 -3.45661 0.376018 0
M  V30 3679 H 326.226 -3.82604 1.15992 0
M  V30 3680 H 327.666 -4.23504 0.204951 0
M  V30 3681 C 326.125 -3.24546 -0.903954 0
M  V30 3682 O 326.655 -3.49865 -1.97377 0
M  V30 3683 N 324.861 -2.77992 -0.846679 0
M  V30 3684 H 324.408 -2.57589 0.0241017 0
M  V30 3685 H 324.366 -2.64244 -1.70359 0
M  V30 3686 N 328.138 -0.959301 -1.25041 0
M  V30 3687 C 329.086 -0.474437 -2.2771 0
M  V30 3688 C 330.08 0.457697 -1.631 0
M  V30 3689 O 331.286 0.333912 -1.76876 0
M  V30 3690 H 327.661 -0.134936 -0.739795 0
M  V30 3691 H 329.632 -1.35251 -2.65988 0
M  V30 3692 C 328.381 0.227884 -3.46952 0
M  V30 3693 H 327.704 -0.480248 -3.96905 0
M  V30 3694 H 329.144 0.531091 -4.20661 0
M  V30 3695 C 327.603 1.452 -3.04004 0
M  V30 3696 O 328.133 2.54949 -3.10426 0
M  V30 3697 N 326.339 1.31502 -2.59144 0
M  V30 3698 H 325.886 0.422065 -2.54119 0
M  V30 3699 H 325.844 2.13521 -2.30773 0
M  V30 3700 N 329.616 1.39756 -0.72842 0
M  V30 3701 C 330.862 2.01425 -0.282761 0
M  V30 3702 C 331.217 1.56754 1.11561 0
M  V30 3703 O 330.51 0.783482 1.74849 0
M  V30 3704 C 330.704 3.56002 -0.315776 0
M  V30 3705 C 330.533 4.1568 -1.71582 0
M  V30 3706 C 329.303 4.48555 -2.32651 0
M  V30 3707 C 331.501 4.39667 -2.66829 0
M  V30 3708 N 329.483 4.93698 -3.64877 0
M  V30 3709 C 330.854 4.86942 -3.8378 0
M  V30 3710 C 332.909 4.21724 -2.64675 0
M  V30 3711 C 331.612 5.18158 -4.98904 0
M  V30 3712 C 333.638 4.54049 -3.78937 0
M  V30 3713 C 333 5.01525 -4.94623 0
M  V30 3714 H 329.099 0.76756 -0.149583 0
M  V30 3715 H 331.683 1.69784 -0.952976 0
M  V30 3716 H 329.854 3.87046 0.324057 0
M  V30 3717 H 331.586 4.0443 0.147808 0
M  V30 3718 H 328.341 4.36128 -1.84633 0
M  V30 3719 H 328.765 5.20635 -4.32744 0
M  V30 3720 H 333.407 3.84228 -1.76433 0
M  V30 3721 H 331.125 5.54562 -5.87781 0
M  V30 3722 H 334.711 4.41795 -3.78561 0
M  V30 3723 H 333.591 5.26065 -5.81572 0
M  V30 3724 N 331.094 0.475555 1.50254 0
M  V30 3725 C 332.041 -0.316293 2.28622 0
M  V30 3726 C 333.011 -0.983227 1.33873 0
M  V30 3727 O 334.196 -0.994805 1.62814 0
M  V30 3728 C 331.336 -1.38975 3.1588 0
M  V30 3729 C 330.449 -0.737146 4.25664 0
M  V30 3730 C 329.584 -1.78887 5.00173 0
M  V30 3731 C 328.623 -1.11676 6.01826 0
M  V30 3732 N 327.76 -2.11154 6.69596 0
M  V30 3733 H 332.6 0.358297 2.95838 0
M  V30 3734 H 330.137 0.188541 1.45887 0
M  V30 3735 H 332.095 -2.02383 3.64825 0
M  V30 3736 H 330.725 -2.03344 2.50701 0
M  V30 3737 H 329.777 0.0096065 3.80399 0
M  V30 3738 H 331.089 -0.206816 4.98371 0
M  V30 3739 H 330.243 -2.49865 5.52859 0
M  V30 3740 H 328.982 -2.35302 4.27182 0
M  V30 3741 H 327.987 -0.392633 5.48396 0
M  V30 3742 H 329.212 -0.55945 6.76792 0
M  V30 3743 H 327.158 -2.66577 5.99394 0
M  V30 3744 H 327.075 -1.63118 7.38193 0
M  V30 3745 H 328.343 -2.81497 7.26897 0
M  V30 3746 N 332.573 -1.56217 0.208337 0
M  V30 3747 C 333.483 -2.23316 -0.718836 0
M  V30 3748 C 334.499 -1.23648 -1.22422 0
M  V30 3749 O 335.675 -1.56423 -1.26861 0
M  V30 3750 C 332.74 -2.88968 -1.91568 0
M  V30 3751 C 331.801 -4.03943 -1.45357 0
M  V30 3752 C 331.034 -4.66455 -2.59337 0
M  V30 3753 O 331.257 -4.27919 -3.77149 0
M  V30 3754 O 330.191 -5.55686 -2.31293 0
M  V30 3755 H 334.017 -3.03182 -0.177315 0
M  V30 3756 H 331.602 -1.49384 -0.0215402 0
M  V30 3757 H 333.484 -3.30455 -2.61491 0
M  V30 3758 H 332.159 -2.12071 -2.44556 0
M  V30 3759 H 331.066 -3.67052 -0.722746 0
M  V30 3760 H 332.399 -4.82543 -0.970219 0
M  V30 3761 N 334.051 0.0651679 -1.57465 0
M  V30 3762 C 335.299 0.761555 -1.87202 0
M  V30 3763 C 335.62 1.77778 -0.801243 0
M  V30 3764 O 334.89 1.95166 0.16937 0
M  V30 3765 H 333.47 0.284251 -0.690804 0
M  V30 3766 H 336.132 0.0396827 -1.9486 0
M  V30 3767 H 335.228 1.27365 -2.84929 0
M  V30 3768 N 335.529 1.53961 0.336706 0
M  V30 3769 C 336.459 1.85417 1.41925 0
M  V30 3770 C 337.44 0.709856 1.5458 0
M  V30 3771 O 338.625 0.962396 1.68676 0
M  V30 3772 C 335.755 2.06985 2.78881 0
M  V30 3773 C 334.709 3.22813 2.81026 0
M  V30 3774 C 334.035 3.29727 4.20932 0
M  V30 3775 C 335.335 4.60767 2.45949 0
M  V30 3776 H 337.029 2.76079 1.15848 0
M  V30 3777 H 334.575 1.32839 0.555859 0
M  V30 3778 H 336.528 2.27575 3.54665 0
M  V30 3779 H 335.252 1.13061 3.06406 0
M  V30 3780 H 333.911 3.0209 2.07695 0
M  V30 3781 H 333.559 2.33385 4.45579 0
M  V30 3782 H 333.259 4.07566 4.23277 0
M  V30 3783 H 334.783 3.52536 4.98549 0
M  V30 3784 H 336.197 4.81325 3.11446 0
M  V30 3785 H 334.594 5.4106 2.59566 0
M  V30 3786 H 335.664 4.6391 1.41122 0
M  V30 3787 N 337.007 -0.598083 1.45811 0
M  V30 3788 C 337.937 -1.71873 1.58057 0
M  V30 3789 C 338.918 -1.64533 0.431615 0
M  V30 3790 O 340.103 -1.82787 0.65595 0
M  V30 3791 C 337.233 -3.10495 1.55597 0
M  V30 3792 C 336.187 -3.32654 2.69305 0
M  V30 3793 C 335.513 -4.71646 2.51902 0
M  V30 3794 C 336.813 -3.21981 4.11248 0
M  V30 3795 H 338.507 -1.61881 2.51863 0
M  V30 3796 H 336.053 -0.777372 1.21214 0
M  V30 3797 H 338.006 -3.88699 1.6276 0
M  V30 3798 H 336.73 -3.2135 0.583255 0
M  V30 3799 H 335.389 -2.56843 2.61586 0
M  V30 3800 H 335.037 -4.79246 1.52748 0
M  V30 3801 H 334.737 -4.87426 3.2816 0
M  V30 3802 H 336.261 -5.52038 2.60933 0
M  V30 3803 H 337.675 -3.90049 4.20161 0
M  V30 3804 H 336.072 -3.49289 4.87972 0
M  V30 3805 H 337.142 -2.1928 4.32486 0
M  V30 3806 N 338.485 -1.33259 -0.841409 0
M  V30 3807 C 339.432 -1.23302 -1.95103 0
M  V30 3808 C 340.402 -0.112204 -1.65721 0
M  V30 3809 O 341.587 -0.290038 -1.88583 0
M  V30 3810 C 338.727 -0.975583 -3.31023 0
M  V30 3811 C 337.84 -2.18243 -3.72819 0
M  V30 3812 C 336.975 -1.85936 -4.97595 0
M  V30 3813 C 336.014 -3.02866 -5.3192 0
M  V30 3814 N 335.151 -2.70565 -6.47873 0
M  V30 3815 H 339.991 -2.18207 -2.02952 0
M  V30 3816 H 337.528 -1.0851 -0.993173 0
M  V30 3817 H 339.486 -0.80677 -4.09325 0
M  V30 3818 H 338.116 -0.0632755 -3.22738 0
M  V30 3819 H 337.168 -2.46107 -2.90061 0
M  V30 3820 H 338.48 -3.05666 -3.94169 0
M  V30 3821 H 337.634 -1.65684 -5.83638 0
M  V30 3822 H 336.373 -0.957452 -4.78209 0
M  V30 3823 H 335.378 -3.23736 -4.44382 0
M  V30 3824 H 336.603 -3.93809 -5.53255 0
M  V30 3825 H 334.549 -1.8293 -6.29978 0
M  V30 3826 H 334.466 -3.51519 -6.69306 0
M  V30 3827 H 335.734 -2.53774 -7.37034 0
M  V30 3828 N 339.963 1.05934 -1.16686 0
M  V30 3829 C 340.893 2.1546 -0.899949 0
M  V30 3830 C 341.874 1.69391 0.155154 0
M  V30 3831 O 343.059 1.94199 0.00648693 0
M  V30 3832 C 340.189 3.44939 -0.404241 0
M  V30 3833 C 339.143 4.04536 -1.39767 0
M  V30 3834 C 338.469 5.29268 -0.760216 0
M  V30 3835 C 339.769 4.42893 -2.76845 0
M  V30 3836 H 341.463 2.38046 -1.81588 0
M  V30 3837 H 339.009 1.14404 -0.874514 0
M  V30 3838 H 340.962 4.20901 -0.204971 0
M  V30 3839 H 339.686 3.21983 0.547206 0
M  V30 3840 H 338.345 3.30635 -1.58355 0
M  V30 3841 H 337.993 5.02611 0.197831 0
M  V30 3842 H 337.693 5.70101 -1.42332 0
M  V30 3843 H 339.217 6.07924 -0.57105 0
M  V30 3844 H 340.631 5.09921 -2.62019 0
M  V30 3845 H 339.028 4.94721 -3.39663 0
M  V30 3846 H 340.098 3.53584 -3.31823 0
M  V30 3847 N 341.441 0.965919 1.2453 0
M  V30 3848 C 342.69 0.622437 1.91856 0
M  V30 3849 C 343.003 -0.846006 1.76358 0
M  V30 3850 O 344.209 -1.29993 2.38357 0
M  V30 3851 C 342.665 1.0626 3.43856 0
M  V30 3852 C 342.273 2.55437 3.68043 0
M  V30 3853 C 344.017 0.792183 4.17043 0
M  V30 3854 C 341.924 2.93196 5.13605 0
M  V30 3855 H 340.854 0.229092 0.718354 0
M  V30 3856 H 343.505 1.17189 1.41206 0
M  V30 3857 H 341.887 0.441476 3.93531 0
M  V30 3858 H 343.061 3.22665 3.28974 0
M  V30 3859 H 341.376 2.8007 3.08139 0
M  V30 3860 H 343.973 1.05031 5.24283 0
M  V30 3861 H 344.316 -0.271584 4.15413 0
M  V30 3862 H 344.849 1.37419 3.73311 0
M  V30 3863 H 341.588 3.98636 5.20355 0
M  V30 3864 H 341.108 2.30651 5.53679 0
M  V30 3865 H 342.787 2.83004 5.81823 0
M  V30 3866 N 342.919 -1.39368 0.735821 0
M  V30 3867 C 344.144 -2.05319 0.293052 0
M  V30 3868 C 344.569 -1.55115 -1.064 0
M  V30 3869 O 343.927 -0.695261 -1.67439 0
M  V30 3870 C 343.975 -3.59305 0.305323 0
M  V30 3871 O 343.079 -4.06299 -0.706761 0
M  V30 3872 H 342.42 -0.650529 0.13307 0
M  V30 3873 H 344.95 -1.78386 1.00197 0
M  V30 3874 H 344.96 -4.07724 0.149997 0
M  V30 3875 H 343.635 -3.95207 1.29553 0
M  V30 3876 H 342.212 -3.69292 -0.517504 0
M  V30 3877 N 344.397 -0.483516 -1.5 0
M  V30 3878 C 345.808 -0.0314176 -1.86674 0
M  V30 3879 C 346.159 1.37728 -1.39733 0
M  V30 3880 O 345.284 2.02327 -0.767635 0
M  V30 3881 C 345.879 -0.0502376 -3.38763 0
M  V30 3882 C 344.438 0.346442 -3.74802 0
M  V30 3883 C 343.585 -0.430366 -2.7394 0
M  V30 3884 H 346.536 -0.697182 -1.42566 0
M  V30 3885 H 346.557 0.749116 -3.73053 0
M  V30 3886 H 346.069 -1.07563 -3.72897 0
M  V30 3887 H 344.17 1.37572 -3.46273 0
M  V30 3888 H 344.283 0.0391486 -4.79084 0
M  V30 3889 H 342.647 0.117557 -2.54429 0
M  V30 3890 H 343.43 -1.4555 -3.10918 0
M  V30 3891 N 345.875 1.56104 -0.216619 0
M  V30 3892 C 346.785 2.23694 0.706982 0
M  V30 3893 C 347.801 1.24295 1.21765 0
M  V30 3894 O 348.977 1.57094 1.2603 0
M  V30 3895 C 346.042 2.8998 1.90033 0
M  V30 3896 C 345.103 4.04708 1.43213 0
M  V30 3897 C 344.336 4.67824 2.56859 0
M  V30 3898 O 344.559 4.29913 3.74874 0
M  V30 3899 O 343.493 5.56905 2.28343 0
M  V30 3900 H 347.319 3.03272 0.161235 0
M  V30 3901 H 344.904 1.49394 0.0136177 0
M  V30 3902 H 346.786 3.31837 2.59735 0
M  V30 3903 H 345.461 2.13365 2.43428 0
M  V30 3904 H 344.368 3.6743 0.70327 0
M  V30 3905 H 345.701 4.83051 0.944615 0
M  V30 3906 N 347.353 -0.0568162 1.57498 0
M  V30 3907 C 348.263 -1.08346 2.08083 0
M  V30 3908 C 349.279 -1.41439 1.01346 0
M  V30 3909 O 350.455 -1.51316 1.32912 0
M  V30 3910 C 347.52 -2.37352 2.52715 0
M  V30 3911 C 346.581 -2.11093 3.73816 0
M  V30 3912 C 345.814 -3.33949 4.1631 0
M  V30 3913 O 346.037 -4.43622 3.58547 0
M  V30 3914 O 344.971 -3.21279 5.08983 0
M  V30 3915 H 348.797 -0.683667 2.95905 0
M  V30 3916 H 346.382 -0.271965 1.46904 0
M  V30 3917 H 348.264 -3.13246 2.81877 0
M  V30 3918 H 346.939 -2.76681 1.68016 0
M  V30 3919 H 345.846 -1.32856 3.49714 0
M  V30 3920 H 347.179 -1.76637 4.59413 0
M  V30 3921 N 348.832 -1.54138 -0.328536 0
M  V30 3922 C 349.762 -1.86167 -1.40939 0
M  V30 3923 C 350.743 -0.718044 -1.54202 0
M  V30 3924 O 351.928 -0.971328 -1.68163 0
M  V30 3925 C 349.058 -2.08461 -2.77779 0
M  V30 3926 C 348.012 -3.24299 -2.7931 0
M  V30 3927 C 347.338 -3.31955 -4.19178 0
M  V30 3928 C 348.638 -4.62065 -2.43502 0
M  V30 3929 H 350.332 -2.76689 -1.14383 0
M  V30 3930 H 347.878 -1.33132 -0.548806 0
M  V30 3931 H 349.831 -2.29453 -3.53454 0
M  V30 3932 H 348.555 -1.14684 -3.05802 0
M  V30 3933 H 347.214 -3.03187 -2.0609 0
M  V30 3934 H 346.862 -2.35745 -4.44335 0
M  V30 3935 H 346.562 -4.09805 -4.2111 0
M  V30 3936 H 348.086 -3.55175 -4.96672 0
M  V30 3937 H 349.5 -4.8297 -3.08889 0
M  V30 3938 H 347.897 -5.42429 -2.56693 0
M  V30 3939 H 348.967 -4.64652 -1.38659 0
M  V30 3940 N 350.31 0.590341 -1.46126 0
M  V30 3941 C 351.721 1.17243 -1.45296 0
M  V30 3942 C 352.072 1.95281 -0.189723 0
M  V30 3943 O 351.197 2.04502 0.707674 0
M  V30 3944 C 351.792 2.13284 -2.6324 0
M  V30 3945 C 350.351 2.66832 -2.65476 0
M  V30 3946 C 349.498 1.42557 -2.3785 0
M  V30 3947 H 352.449 0.378692 -1.54116 0
M  V30 3948 H 352.47 2.96619 -2.38323 0
M  V30 3949 H 351.982 1.56459 -3.55165 0
M  V30 3950 H 350.083 3.27548 -1.77603 0
M  V30 3951 H 350.196 3.10088 -3.65215 0
M  V30 3952 H 348.56 1.72107 -1.87753 0
M  V30 3953 H 349.343 0.875741 -3.31942 0
M  V30 3954 N 351.788 1.33704 0.83433 0
M  V30 3955 C 352.751 1.24244 1.92603 0
M  V30 3956 C 353.751 0.160383 1.59998 0
M  V30 3957 O 354.941 0.412228 1.69252 0
M  V30 3958 C 352.073 0.91555 3.28376 0
M  V30 3959 H 353.266 2.21287 2.02416 0
M  V30 3960 H 350.819 1.17827 1.02696 0
M  V30 3961 H 351.554 -0.0521886 3.24258 0
M  V30 3962 H 351.339 1.69811 3.53422 0
M  V30 3963 H 352.829 0.874231 4.08347 0
M  V30 3964 N 353.266 -1.05314 1.17247 0
M  V30 3965 C 354.198 -2.13023 0.845812 0
M  V30 3966 C 355.211 -1.62096 -0.151246 0
M  V30 3967 O 356.4 -1.78343 0.0748818 0
M  V30 3968 C 353.5 -3.38047 0.240292 0
M  V30 3969 C 352.673 -4.18255 1.27991 0
M  V30 3970 C 351.732 -5.21625 0.692375 0
M  V30 3971 O 350.758 -5.52619 1.36385 0
M  V30 3972 N 351.96 -5.78201 -0.516178 0
M  V30 3973 H 354.725 -2.41642 1.77283 0
M  V30 3974 H 352.286 -1.21401 1.07115 0
M  V30 3975 H 354.278 -4.04359 -0.16603 0
M  V30 3976 H 352.848 -3.06972 -0.590487 0
M  V30 3977 H 352.068 -3.47451 1.86203 0
M  V30 3978 H 353.356 -4.68643 1.98119 0
M  V30 3979 H 352.754 -5.55301 -1.07969 0
M  V30 3980 H 351.311 -6.4604 -0.86458 0
M  V30 3981 N 354.744 -0.972509 -1.24016 0
M  V30 3982 C 355.991 -0.637034 -1.92219 0
M  V30 3983 C 356.319 0.828418 -1.75976 0
M  V30 3984 O 355.574 1.61206 -1.10955 0
M  V30 3985 C 355.873 -0.963694 -3.44162 0
M  V30 3986 C 355.539 -2.41807 -3.80579 0
M  V30 3987 C 354.201 -2.81556 -3.9023 0
M  V30 3988 C 356.553 -3.36172 -3.98293 0
M  V30 3989 C 353.881 -4.14702 -4.15017 0
M  V30 3990 C 356.233 -4.68952 -4.24578 0
M  V30 3991 C 354.897 -5.08472 -4.32449 0
M  V30 3992 H 354.167 -0.233107 -0.703379 0
M  V30 3993 H 356.814 -1.2249 -1.47202 0
M  V30 3994 H 355.119 -0.29365 -3.90698 0
M  V30 3995 H 356.816 -0.682449 -3.9515 0
M  V30 3996 H 353.406 -2.09988 -3.73635 0
M  V30 3997 H 357.59 -3.06644 -3.90234 0
M  V30 3998 H 352.846 -4.4494 -4.19331 0
M  V30 3999 H 357.02 -5.42037 -4.37229 0
M  V30 4000 H 354.647 -6.11665 -4.51409 0
M  V30 4001 N 356.222 1.38976 -0.743202 0
M  V30 4002 C 357.47 1.99948 -0.29417 0
M  V30 4003 C 357.791 1.59279 1.12495 0
M  V30 4004 O 357.061 0.844808 1.76748 0
M  V30 4005 H 355.641 0.739473 -0.105774 0
M  V30 4006 H 358.303 1.699 -0.954986 0
M  V30 4007 H 357.399 3.10142 -0.349056 0
M  V30 4008 N 357.7 0.491464 1.49741 0
M  V30 4009 C 358.948 -0.0563141 2.02022 0
M  V30 4010 C 359.269 -1.38363 1.37407 0
M  V30 4011 O 358.539 -1.88702 0.526166 0
M  V30 4012 H 357.119 -0.0238014 0.746621 0
M  V30 4013 H 359.781 0.646533 1.83864 0
M  V30 4014 H 358.877 -0.192967 3.11503 0
M  V30 4015 N 359.178 -1.55987 0.224894 0
M  V30 4016 C 360.406 -2.02784 -0.410665 0
M  V30 4017 C 360.821 -1.10464 -1.53112 0
M  V30 4018 O 360.178 -0.114871 -1.82138 0
M  V30 4019 C 360.229 -3.49087 -0.939165 0
M  V30 4020 O 359.95 -4.37887 0.136614 0
M  V30 4021 C 361.451 -4.11543 -1.64763 0
M  V30 4022 H 358.671 -0.663484 -0.100148 0
M  V30 4023 H 361.215 -2.01614 0.342326 0
M  V30 4024 H 359.37 -3.50861 -1.64242 0
M  V30 4025 H 359.784 -5.23849 -0.261155 0
M  V30 4026 H 361.258 -5.15673 -1.96939 0
M  V30 4027 H 361.735 -3.56736 -2.56195 0
M  V30 4028 H 362.341 -4.13629 -0.989503 0
M  V30 4029 N 360.656 0.0484629 -1.57525 0
M  V30 4030 C 361.586 1.0549 -2.08313 0
M  V30 4031 C 362.567 1.38929 -0.981463 0
M  V30 4032 O 363.752 1.48151 -1.25558 0
M  V30 4033 C 360.882 2.36162 -2.54646 0
M  V30 4034 C 359.836 2.17016 -3.68901 0
M  V30 4035 C 359.162 3.53278 -4.01371 0
M  V30 4036 C 360.462 1.57219 -4.98076 0
M  V30 4037 H 362.156 0.632195 -2.92649 0
M  V30 4038 H 359.702 0.302654 -1.40784 0
M  V30 4039 H 361.655 3.06882 -2.88793 0
M  V30 4040 H 360.379 2.80456 -1.67368 0
M  V30 4041 H 359.038 1.48733 -3.35073 0
M  V30 4042 H 358.686 3.95185 -3.11188 0
M  V30 4043 H 358.386 3.41299 -4.78318 0
M  V30 4044 H 359.91 4.25391 -4.38035 0
M  V30 4045 H 361.324 2.17832 -5.30304 0
M  V30 4046 H 359.721 1.55871 -5.79503 0
M  V30 4047 H 360.791 0.535956 -4.81929 0
M  V30 4048 N 362.134 1.5431 0.320358 0
M  V30 4049 C 363.362 1.76636 1.07738 0
M  V30 4050 C 363.777 0.51649 1.81598 0
M  V30 4051 O 363.134 -0.512942 1.75143 0
M  V30 4052 C 363.185 2.96158 2.07299 0
M  V30 4053 O 362.906 4.16313 1.36438 0
M  V30 4054 C 364.407 3.3072 2.95193 0
M  V30 4055 H 361.627 0.589597 0.320339 0
M  V30 4056 H 364.171 2.01207 0.36551 0
M  V30 4057 H 362.326 2.73851 2.74016 0
M  V30 4058 H 362.74 4.83565 2.03138 0
M  V30 4059 H 364.214 4.17643 3.60941 0
M  V30 4060 H 364.691 2.48026 3.62463 0
M  V30 4061 H 365.297 3.55117 2.34034 0
M  V30 4062 N 363.613 -0.582584 1.46437 0
M  V30 4063 C 364.89 -1.34276 1.4223 0
M  V30 4064 C 365.27 -2.10835 0.10583 0
M  V30 4065 O 364.618 -2.09485 -0.912596 0
M  V30 4066 C 364.828 -2.26865 2.65204 0
M  V30 4067 C 366.176 -2.88691 3.11356 0
M  V30 4068 O 367.2 -2.37178 2.65753 0
M  V30 4069 O 366.059 -3.82255 3.90568 0
M  V30 4070 H 363.153 -0.603326 0.565621 0
M  V30 4071 H 365.699 -0.603591 1.58603 0
M  V30 4072 H 364.471 -1.69724 3.52576 0
M  V30 4073 H 364.094 -3.08122 2.5129 0
M  V30 4074 N 365.091 -1.34144 -0.827227 0
M  V30 4075 C 366.502 -1.23557 -1.39966 0
M  V30 4076 C 366.853 0.140731 -1.95695 0
M  V30 4077 O 365.978 1.04087 -1.89723 0
M  V30 4078 C 366.573 -2.23708 -2.54441 0
M  V30 4079 C 365.132 -2.16924 -3.07605 0
M  V30 4080 C 364.279 -2.10549 -1.80456 0
M  V30 4081 H 367.23 -1.45573 -0.631991 0
M  V30 4082 H 367.251 -1.85157 -3.32411 0
M  V30 4083 H 366.763 -3.23866 -2.13851 0
M  V30 4084 H 364.864 -1.20107 -3.52711 0
M  V30 4085 H 364.977 -3.07988 -3.66988 0
M  V30 4086 H 363.341 -1.56203 -2.01178 0
M  V30 4087 H 364.124 -3.12535 -1.42046 0
M  V30 4088 N 366.569 1.04691 -1.17803 0
M  V30 4089 C 367.846 1.7472 -0.879328 0
M  V30 4090 C 368.226 2.01812 0.619271 0
M  V30 4091 O 367.574 1.65824 1.57209 0
M  V30 4092 C 367.784 3.03686 -1.71976 0
M  V30 4093 C 369.132 3.77542 -1.94286 0
M  V30 4094 O 370.156 3.13569 -1.68976 0
M  V30 4095 O 369.015 4.92506 -2.36855 0
M  V30 4096 H 366.109 0.760011 -0.326056 0
M  V30 4097 H 368.655 1.10813 -1.28525 0
M  V30 4098 H 367.427 2.79754 -2.73594 0
M  V30 4099 H 367.05 3.75332 -1.31194 0
M  V30 4100 N 368.047 0.979072 1.23499 0
M  V30 4101 C 369.295 0.645941 1.91499 0
M  V30 4102 C 369.616 -0.822948 1.76784 0
M  V30 4103 O 368.886 -1.58854 1.14639 0
M  V30 4104 H 367.466 0.235919 0.708767 0
M  V30 4105 H 370.128 1.2426 1.50152 0
M  V30 4106 H 369.224 0.896411 2.9895 0
M  V30 4107 N 369.525 -1.3858 0.750561 0
M  V30 4108 C 370.473 -2.32339 0.110162 0
M  V30 4109 C 371.467 -1.53864 -0.708674 0
M  V30 4110 O 372.673 -1.69417 -0.608112 0
M  V30 4111 H 369.048 -0.751812 0.0168275 0
M  V30 4112 H 371.019 -2.83959 0.917053 0
M  V30 4113 C 369.768 -3.39043 -0.771067 0
M  V30 4114 H 369.091 -3.99517 -0.150374 0
M  V30 4115 H 370.531 -4.07061 -1.1865 0
M  V30 4116 C 368.99 -2.77365 -1.91234 0
M  V30 4117 O 369.52 -2.66434 -3.00626 0
M  V30 4118 N 367.726 -2.35219 -1.70646 0
M  V30 4119 H 367.273 -2.4431 -0.81673 0
M  V30 4120 H 367.231 -1.94294 -2.47178 0
M  V30 4121 N 371.003 -0.499398 -1.49478 0
M  V30 4122 C 372.414 -0.051215 -1.8663 0
M  V30 4123 C 372.765 1.36238 -1.41186 0
M  V30 4124 O 371.89 2.01502 -0.789051 0
M  V30 4125 C 372.485 -0.0861651 -3.3869 0
M  V30 4126 C 371.044 0.30667 -3.75149 0
M  V30 4127 C 370.191 -0.459397 -2.73468 0
M  V30 4128 H 373.142 -0.712264 -1.41818 0
M  V30 4129 H 373.163 0.709507 -3.73826 0
M  V30 4130 H 372.675 -1.11512 -3.71735 0
M  V30 4131 H 370.776 1.33892 -3.47712 0
M  V30 4132 H 370.889 -0.0116669 -4.79099 0
M  V30 4133 H 369.253 0.0905645 -2.54539 0
M  V30 4134 H 370.036 -1.4884 -3.09357 0
M  V30 4135 N 372.481 1.55866 -0.233164 0
M  V30 4136 C 373.428 2.20796 0.67215 0
M  V30 4137 C 374.398 1.16731 1.18166 0
M  V30 4138 O 375.583 1.45129 1.23864 0
M  V30 4139 C 372.723 2.90072 1.86955 0
M  V30 4140 C 371.836 4.08759 1.39786 0
M  V30 4141 C 370.971 4.65787 2.55374 0
M  V30 4142 C 370.01 5.76752 2.04998 0
M  V30 4143 N 369.147 6.28021 3.13901 0
M  V30 4144 H 373.987 2.9779 0.111749 0
M  V30 4145 H 371.524 1.47036 0.0434007 0
M  V30 4146 H 373.482 3.28428 2.57276 0
M  V30 4147 H 372.112 2.15575 2.40265 0
M  V30 4148 H 371.164 3.7581 0.589173 0
M  V30 4149 H 372.476 4.88906 0.98856 0
M  V30 4150 H 371.63 5.06646 3.33758 0
M  V30 4151 H 370.369 3.84828 2.99598 0
M  V30 4152 H 369.374 5.35383 1.25079 0
M  V30 4153 H 370.599 6.59553 1.61759 0
M  V30 4154 H 368.545 5.49971 3.57586 0
M  V30 4155 H 368.462 7.03323 2.7726 0
M  V30 4156 H 369.73 6.73538 3.92386 0
M  V30 4157 N 373.959 -0.0401083 1.57549 0
M  V30 4158 C 375.199 -0.738098 1.90608 0
M  V30 4159 C 375.563 -1.73107 0.830539 0
M  V30 4160 O 376.764 -2.4765 1.04513 0
M  V30 4161 C 375.035 -1.39985 3.28845 0
M  V30 4162 S 376.594 -2.12852 3.83718 0
M  V30 4163 H 373.412 -0.24477 0.667539 0
M  V30 4164 H 376.014 0.00693599 1.95499 0
M  V30 4165 H 374.718 -0.663775 4.04997 0
M  V30 4166 H 374.249 -2.18366 3.2723 0
M  V30 4167 H 376.264 -3.39842 3.61555 0
M  V30 4168 N 375.437 -1.54477 -0.31217 0
M  V30 4169 C 376.367 -1.87652 -1.38957 0
M  V30 4170 C 377.348 -0.734358 -1.53431 0
M  V30 4171 O 378.533 -0.98911 -1.67123 0
M  V30 4172 C 375.663 -2.11396 -2.75552 0
M  V30 4173 C 374.617 -3.27243 -2.75855 0
M  V30 4174 C 373.943 -3.36382 -4.15633 0
M  V30 4175 C 375.243 -4.64622 -2.38587 0
M  V30 4176 H 376.937 -2.77887 -1.11442 0
M  V30 4177 H 374.483 -1.33707 -0.534655 0
M  V30 4178 H 376.436 -2.33189 -3.51 0
M  V30 4179 H 375.16 -1.17921 -3.04569 0
M  V30 4180 H 373.819 -3.05356 -2.02863 0
M  V30 4181 H 373.467 -2.40445 -4.41809 0
M  V30 4182 H 373.167 -4.14249 -4.1674 0
M  V30 4183 H 374.691 -3.60422 -4.92877 0
M  V30 4184 H 376.105 -4.86219 -3.03749 0
M  V30 4185 H 374.502 -5.45121 -2.50925 0
M  V30 4186 H 375.572 -4.66097 -1.33723 0
M  V30 4187 N 376.915 0.57481 -1.46744 0
M  V30 4188 C 378.143 1.35856 -1.56047 0
M  V30 4189 C 378.558 1.87691 -0.204365 0
M  V30 4190 O 377.915 1.64049 0.79963 0
M  V30 4191 C 377.966 2.54066 -2.57163 0
M  V30 4192 O 377.687 2.04377 -3.87507 0
M  V30 4193 C 379.188 3.46514 -2.76483 0
M  V30 4194 H 376.408 0.414754 -0.527466 0
M  V30 4195 H 378.952 0.698035 -1.92218 0
M  V30 4196 H 377.107 3.16092 -2.23974 0
M  V30 4197 H 377.521 2.81419 -4.4261 0
M  V30 4198 H 378.995 4.25919 -3.51137 0
M  V30 4199 H 379.472 3.98951 -1.83671 0
M  V30 4200 H 380.078 2.90318 -3.10799 0
M  V30 4201 N 378.394 1.34581 0.820102 0
M  V30 4202 C 379.341 1.2639 1.93117 0
M  V30 4203 C 380.311 0.138554 1.65521 0
M  V30 4204 O 381.496 0.320004 1.88097 0
M  V30 4205 C 378.636 1.02812 3.29429 0
M  V30 4206 C 377.749 2.24146 3.693 0
M  V30 4207 C 376.884 1.93829 4.94574 0
M  V30 4208 C 375.923 3.1129 5.27034 0
M  V30 4209 N 375.06 2.80838 6.43486 0
M  V30 4210 H 379.9 2.21408 1.99455 0
M  V30 4211 H 377.437 1.10077 0.975784 0
M  V30 4212 H 379.395 0.871788 4.0799 0
M  V30 4213 H 378.025 0.114612 3.22596 0
M  V30 4214 H 377.077 2.50691 2.86109 0
M  V30 4215 H 378.389 3.11899 3.89257 0
M  V30 4216 H 377.543 1.74948 5.80929 0
M  V30 4217 H 376.282 1.03341 4.76626 0
M  V30 4218 H 375.287 3.30764 4.39175 0
M  V30 4219 H 376.512 4.02561 5.4692 0
M  V30 4220 H 374.458 1.92929 6.26988 0
M  V30 4221 H 374.375 3.62123 6.63629 0
M  V30 4222 H 375.643 2.65467 7.32903 0
M  V30 4223 N 379.872 -1.04064 1.18357 0
M  V30 4224 C 381.121 -1.76662 0.973313 0
M  V30 4225 C 381.434 -1.89154 -0.497991 0
M  V30 4226 O 382.64 -2.58606 -0.826762 0
M  V30 4227 C 381.096 -3.17624 1.69242 0
M  V30 4228 C 380.704 -3.13225 3.20303 0
M  V30 4229 C 382.448 -3.946 1.56497 0
M  V30 4230 C 380.355 -4.49046 3.84853 0
M  V30 4231 H 379.285 -0.662214 0.36054 0
M  V30 4232 H 381.936 -1.16553 1.41731 0
M  V30 4233 H 380.318 -3.78129 1.1762 0
M  V30 4234 H 381.492 -2.62172 3.78949 0
M  V30 4235 H 379.807 -2.49749 3.33189 0
M  V30 4236 H 382.404 -4.95042 2.02084 0
M  V30 4237 H 382.747 -4.13074 0.517243 0
M  V30 4238 H 383.28 -3.4067 2.05399 0
M  V30 4239 H 380.019 -4.35777 4.89672 0
M  V30 4240 H 379.539 -5.00203 3.30994 0
M  V30 4241 H 381.218 -5.17961 3.87718 0
M  V30 4242 N 381.35 -0.985608 -1.22978 0
M  V30 4243 C 382.298 -0.522631 -2.26652 0
M  V30 4244 C 383.292 0.422998 -1.64034 0
M  V30 4245 O 384.498 0.296319 -1.77544 0
M  V30 4246 H 380.873 -0.150597 -0.736766 0
M  V30 4247 H 382.844 -1.40863 -2.63059 0
M  V30 4248 C 381.593 0.154238 -3.47358 0
M  V30 4249 H 380.916 -0.564329 -3.95797 0
M  V30 4250 H 382.356 0.441744 -4.21693 0
M  V30 4251 C 380.815 1.38719 -3.07016 0
M  V30 4252 O 381.345 2.48307 -3.15764 0
M  V30 4253 N 379.551 1.25975 -2.61875 0
M  V30 4254 H 379.098 0.368068 -2.54957 0
M  V30 4255 H 379.056 2.08578 -2.3525 0
M  V30 4256 N 382.828 1.3818 -0.7579 0
M  V30 4257 C 384.058 2.04004 -0.326463 0
M  V30 4258 C 384.466 1.57286 1.05156 0
M  V30 4259 O 383.809 0.743144 1.67997 0
M  V30 4260 C 383.871 3.58444 -0.275402 0
M  V30 4261 C 383.535 4.28237 -1.59569 0
M  V30 4262 C 384.532 4.53312 -2.54566 0
M  V30 4263 C 382.217 4.66341 -1.86631 0
M  V30 4264 C 384.211 5.15531 -3.74842 0
M  V30 4265 C 381.898 5.28283 -3.0718 0
M  V30 4266 C 382.896 5.52814 -4.01106 0
M  V30 4267 O 382.584 6.13465 -5.19534 0
M  V30 4268 H 382.316 0.662026 -0.136739 0
M  V30 4269 H 384.87 1.7777 -1.02893 0
M  V30 4270 H 383.1 3.83667 0.483337 0
M  V30 4271 H 384.789 4.05701 0.127099 0
M  V30 4272 H 385.555 4.24299 -2.34936 0
M  V30 4273 H 381.434 4.46591 -1.14358 0
M  V30 4274 H 384.978 5.34594 -4.48168 0
M  V30 4275 H 380.875 5.56719 -3.26702 0
M  V30 4276 H 381.643 6.31951 -5.20173 0
M  V30 4277 N 384.306 0.507319 1.49211 0
M  V30 4278 C 385.554 -0.0348839 2.0207 0
M  V30 4279 C 385.875 -1.36898 1.38866 0
M  V30 4280 O 385.145 -1.88133 0.546151 0
M  V30 4281 H 383.725 -0.0158812 0.746831 0
M  V30 4282 H 386.387 0.665998 1.83168 0
M  V30 4283 H 385.483 -0.159917 3.1169 0
M  V30 4284 N 385.784 -1.5574 0.241426 0
M  V30 4285 C 387.032 -1.98417 -0.384075 0
M  V30 4286 C 387.353 -1.13078 -1.58866 0
M  V30 4287 O 386.623 -0.212312 -1.94746 0
M  V30 4288 H 385.203 -0.732813 -0.144894 0
M  V30 4289 H 387.865 -1.9193 0.338943 0
M  V30 4290 H 386.961 -3.04219 -0.696939 0
M  V30 4291 N 387.262 0.0317525 -1.57568 0
M  V30 4292 C 388.172 1.05021 -2.0978 0
M  V30 4293 C 389.188 1.39809 -1.03583 0
M  V30 4294 O 390.364 1.49182 -1.35302 0
M  V30 4295 C 387.429 2.33301 -2.56459 0
M  V30 4296 C 386.49 2.0512 -3.77127 0
M  V30 4297 C 385.723 3.27283 -4.2157 0
M  V30 4298 O 385.946 4.37861 -3.65559 0
M  V30 4299 O 384.88 3.13141 -5.14029 0
M  V30 4300 H 388.706 0.636505 -2.96955 0
M  V30 4301 H 386.291 0.248559 -1.47318 0
M  V30 4302 H 388.173 3.08722 -2.86825 0
M  V30 4303 H 386.848 2.73973 -1.72397 0
M  V30 4304 H 385.755 1.27276 -3.51784 0
M  V30 4305 H 387.088 1.69305 -4.62165 0
M  V30 4306 N 388.74 1.54641 0.303973 0
M  V30 4307 C 389.989 1.7299 1.03717 0
M  V30 4308 C 390.302 0.521168 1.88529 0
M  V30 4309 O 391.508 0.586408 2.65092 0
M  V30 4310 C 389.964 3.06051 1.89369 0
M  V30 4311 C 389.572 4.34393 1.09574 0
M  V30 4312 C 391.316 3.3376 2.62306 0
M  V30 4313 C 389.223 5.58506 1.94486 0
M  V30 4314 H 388.153 0.64473 0.390947 0
M  V30 4315 H 390.804 1.81124 0.294328 0
M  V30 4316 H 389.186 2.91874 2.67629 0
M  V30 4317 H 390.36 4.59396 0.359485 0
M  V30 4318 H 388.675 4.13597 0.482324 0
M  V30 4319 H 391.272 4.23687 3.26181 0
M  V30 4320 H 391.615 2.52503 3.3098 0
M  V30 4321 H 392.148 3.48894 1.91097 0
M  V30 4322 H 388.887 6.42422 1.30287 0
M  V30 4323 H 388.407 5.37694 2.65792 0
M  V30 4324 H 390.086 5.95651 2.52605 0
M  V30 4325 N 390.218 -0.567019 1.47046 0
M  V30 4326 C 391.629 -1.14916 1.47143 0
M  V30 4327 C 391.98 -1.94954 0.220767 0
M  V30 4328 O 391.105 -2.05602 -0.67505 0
M  V30 4329 C 391.7 -2.09069 2.666 0
M  V30 4330 C 390.259 -2.62575 2.69687 0
M  V30 4331 C 389.406 -1.38755 2.40088 0
M  V30 4332 H 392.357 -0.354126 1.54699 0
M  V30 4333 H 392.378 -2.92789 2.43011 0
M  V30 4334 H 391.89 -1.50789 3.57609 0
M  V30 4335 H 389.991 -3.24681 1.82792 0
M  V30 4336 H 390.104 -3.04239 3.70102 0
M  V30 4337 H 388.468 -1.69098 1.90468 0
M  V30 4338 H 389.251 -0.822822 3.33293 0
M  V30 4339 N 391.696 -1.35014 -0.812953 0
M  V30 4340 C 392.643 -1.27412 -1.92444 0
M  V30 4341 C 393.613 -0.14733 -1.65445 0
M  V30 4342 O 394.798 -0.329974 -1.87925 0
M  V30 4343 C 391.938 -1.04558 -3.28879 0
M  V30 4344 C 391.051 -2.26101 -3.68106 0
M  V30 4345 C 390.186 -1.96449 -4.9354 0
M  V30 4346 C 389.225 -3.14081 -5.25376 0
M  V30 4347 N 388.362 -2.84246 -6.41988 0
M  V30 4348 H 393.202 -2.22463 -1.98278 0
M  V30 4349 H 390.739 -1.10593 -0.969933 0
M  V30 4350 H 392.697 -0.893413 -4.07522 0
M  V30 4351 H 391.327 -0.131719 -3.22531 0
M  V30 4352 H 390.379 -2.52204 -2.84775 0
M  V30 4353 H 391.691 -3.13959 -3.87597 0
M  V30 4354 H 390.845 -1.78026 -5.79993 0
M  V30 4355 H 389.584 -1.05867 -4.76071 0
M  V30 4356 H 388.589 -3.33089 -4.37415 0
M  V30 4357 H 389.814 -4.05455 -5.44778 0
M  V30 4358 H 387.76 -1.96252 -6.25956 0
M  V30 4359 H 387.677 -3.65637 -6.61699 0
M  V30 4360 H 388.945 -2.6935 -7.31485 0
M  V30 4361 N 393.175 1.03435 -1.18907 0
M  V30 4362 C 394.4 1.80919 -1.01406 0
M  V30 4363 C 394.825 1.83055 0.432721 0
M  V30 4364 O 394.183 1.25252 1.31079 0
M  V30 4365 C 394.231 3.24091 -1.58105 0
M  V30 4366 O 393.335 4.04434 -0.806669 0
M  V30 4367 H 392.676 0.558709 -0.358803 0
M  V30 4368 H 395.206 1.30223 -1.57807 0
M  V30 4369 H 395.216 3.74853 -1.61087 0
M  V30 4370 H 393.891 3.21851 -2.6341 0
M  V30 4371 H 392.468 3.63091 -0.849666 0
M  V30 4372 N 394.653 0.992116 1.22453 0
M  V30 4373 C 395.586 0.486701 2.22949 0
M  V30 4374 C 396.564 -0.45259 1.56174 0
M  V30 4375 O 397.748 -0.378317 1.84665 0
M  V30 4376 C 394.875 -0.294537 3.37417 0
M  V30 4377 C 393.921 0.590628 4.22391 0
M  V30 4378 S 394.754 2.04546 4.94895 0
M  V30 4379 C 395.91 1.27369 6.12803 0
M  V30 4380 H 396.143 1.33828 2.65475 0
M  V30 4381 H 393.676 0.799023 1.32117 0
M  V30 4382 H 395.634 -0.739241 4.03789 0
M  V30 4383 H 394.295 -1.12139 2.934 0
M  V30 4384 H 393.488 -0.0104375 5.03999 0
M  V30 4385 H 393.09 0.972064 3.61147 0
M  V30 4386 H 395.382 0.540943 6.75337 0
M  V30 4387 H 396.325 2.06502 6.7732 0
M  V30 4388 H 396.733 0.787324 5.58983 0
M  V30 4389 N 396.131 -1.37776 0.765217 0
M  V30 4390 C 397.361 -2.03828 0.337277 0
M  V30 4391 C 397.769 -1.57841 -1.04321 0
M  V30 4392 O 397.112 -0.752043 -1.67601 0
M  V30 4393 C 397.174 -3.58292 0.294407 0
M  V30 4394 C 396.838 -4.27384 1.61838 0
M  V30 4395 C 397.835 -4.51956 2.56967 0
M  V30 4396 C 395.52 -4.65345 1.89102 0
M  V30 4397 C 397.514 -5.13536 3.77571 0
M  V30 4398 C 395.201 -5.26647 3.09978 0
M  V30 4399 C 396.199 -5.50679 4.04032 0
M  V30 4400 O 395.887 -6.10702 5.2278 0
M  V30 4401 H 395.619 -0.661292 0.140248 0
M  V30 4402 H 398.173 -1.77222 1.03834 0
M  V30 4403 H 396.403 -3.83918 -0.462983 0
M  V30 4404 H 398.092 -4.05763 -0.105581 0
M  V30 4405 H 398.858 -4.23048 2.37183 0
M  V30 4406 H 394.737 -4.45978 1.16725 0
M  V30 4407 H 398.281 -5.3221 4.50997 0
M  V30 4408 H 394.178 -5.54979 3.29649 0
M  V30 4409 H 394.946 -6.29183 5.23517 0
M  V30 4410 N 397.609 -0.515225 -1.4894 0
M  V30 4411 C 398.855 0.0242508 -2.02785 0
M  V30 4412 C 399.188 1.35323 -1.39289 0
M  V30 4413 O 398.463 1.87041 -0.533469 0
M  V30 4414 C 398.746 0.16184 -3.59736 0
M  V30 4415 C 398.599 -1.19127 -4.33738 0
M  V30 4416 C 399.918 0.895719 -4.30888 0
M  V30 4417 H 397.037 0.00733914 -0.736963 0
M  V30 4418 H 399.679 -0.669395 -1.77818 0
M  V30 4419 H 397.829 0.752624 -3.8114 0
M  V30 4420 H 399.501 -1.82202 -4.23792 0
M  V30 4421 H 397.744 -1.77695 -3.95736 0
M  V30 4422 H 398.415 -1.04815 -5.41957 0
M  V30 4423 H 400.891 0.394528 -4.14225 0
M  V30 4424 H 399.767 0.960859 -5.40425 0
M  V30 4425 H 400.028 1.9427 -3.97129 0
M  V30 4426 N 399.087 1.5561 -0.249682 0
M  V30 4427 C 400.503 1.59254 0.105103 0
M  V30 4428 C 400.703 1.26685 1.56694 0
M  V30 4429 O 399.759 1.0155 2.31179 0
M  V30 4430 C 401.072 2.99687 -0.246592 0
M  V30 4431 C 402.62 3.12416 -0.191118 0
M  V30 4432 C 403.095 4.55074 -0.516885 0
M  V30 4433 N 404.586 4.60835 -0.467489 0
M  V30 4434 C 405.321 5.69201 -0.69268 0
M  V30 4435 N 404.817 6.85817 -0.981146 0
M  V30 4436 N 406.61 5.58635 -0.623198 0
M  V30 4437 H 398.761 1.75049 -1.20298 0
M  V30 4438 H 401.024 0.815003 -0.484225 0
M  V30 4439 H 400.73 3.28267 -1.26228 0
M  V30 4440 H 400.604 3.74798 0.424962 0
M  V30 4441 H 402.991 2.83615 0.815247 0
M  V30 4442 H 403.072 2.39573 -0.896563 0
M  V30 4443 H 402.716 4.84596 -1.52082 0
M  V30 4444 H 402.646 5.26181 0.210068 0
M  V30 4445 H 405.137 3.7705 -0.253373 0
M  V30 4446 H 405.45 7.64341 -1.14032 0
M  V30 4447 H 403.795 6.87494 -1.01865 0
M  V30 4448 H 406.986 4.66406 -0.397863 0
M  V30 4449 H 407.159 6.43017 -0.802093 0
M  V30 4450 N 400.565 -0.0233959 1.57583 0
M  V30 4451 C 401.842 -0.748794 1.807 0
M  V30 4452 C 402.222 -1.9327 0.849106 0
M  V30 4453 O 401.57 -2.28247 -0.107468 0
M  V30 4454 C 401.78 -1.17651 3.28571 0
M  V30 4455 C 403.128 -1.59008 3.93702 0
M  V30 4456 O 404.152 -1.27094 3.32755 0
M  V30 4457 O 403.011 -2.18264 5.01022 0
M  V30 4458 H 400.105 -0.362578 0.743281 0
M  V30 4459 H 402.651 0.000261958 1.697 0
M  V30 4460 H 401.423 -0.331603 3.89892 0
M  V30 4461 H 401.046 -1.98541 3.44481 0
M  V30 4462 N 402.043 -1.548 -0.295768 0
M  V30 4463 C 402.975 -1.82492 -1.3867 0
M  V30 4464 C 403.988 -0.708134 -1.46592 0
M  V30 4465 O 405.177 -0.985686 -1.48817 0
M  V30 4466 C 402.277 -1.95256 -2.76999 0
M  V30 4467 C 401.45 -3.25709 -2.91946 0
M  V30 4468 C 400.509 -3.28824 -4.10806 0
M  V30 4469 O 399.535 -4.02328 -4.02643 0
M  V30 4470 N 400.737 -2.5459 -5.21694 0
M  V30 4471 H 403.502 -2.76646 -1.15269 0
M  V30 4472 H 401.063 -1.54438 -0.485849 0
M  V30 4473 H 403.055 -1.94736 -3.54768 0
M  V30 4474 H 401.625 -1.08072 -2.93324 0
M  V30 4475 H 400.845 -3.38959 -2.01247 0
M  V30 4476 H 402.133 -4.11786 -2.98847 0
M  V30 4477 H 401.531 -1.94512 -5.31208 0
M  V30 4478 H 400.088 -2.59818 -5.97778 0
M  V30 4479 N 403.521 0.559213 -1.47345 0
M  V30 4480 C 404.767 1.31843 -1.54095 0
M  V30 4481 C 405.1 1.93149 -0.201726 0
M  V30 4482 O 404.375 1.77759 0.789428 0
M  V30 4483 C 404.658 2.43006 -2.65744 0
M  V30 4484 C 404.511 1.86581 -4.09277 0
M  V30 4485 C 405.83 3.44943 -2.73318 0
M  V30 4486 H 402.949 0.478012 -0.560957 0
M  V30 4487 H 405.591 0.625977 -1.79392 0
M  V30 4488 H 403.741 3.02072 -2.44305 0
M  V30 4489 H 405.413 1.31792 -4.42073 0
M  V30 4490 H 403.656 1.17268 -4.17649 0
M  V30 4491 H 404.327 2.66933 -4.83168 0
M  V30 4492 H 406.803 2.95793 -2.92653 0
M  V30 4493 H 405.679 4.20153 -3.53218 0
M  V30 4494 H 405.94 4.03665 -1.80296 0
M  V30 4495 N 404.999 1.35443 0.805782 0
M  V30 4496 C 405.946 1.28431 1.91766 0
M  V30 4497 C 406.916 0.156102 1.65365 0
M  V30 4498 O 408.101 0.339936 1.87747 0
M  V30 4499 C 405.241 1.06301 3.2832 0
M  V30 4500 C 404.354 2.2805 3.66902 0
M  V30 4501 C 403.489 1.99064 4.92491 0
M  V30 4502 C 402.528 3.16863 5.23703 0
M  V30 4503 N 401.665 2.87647 6.40471 0
M  V30 4504 H 406.505 2.23511 1.97096 0
M  V30 4505 H 404.042 1.11105 0.964054 0
M  V30 4506 H 406 0.915012 4.07042 0
M  V30 4507 H 404.63 0.148822 3.22457 0
M  V30 4508 H 403.682 2.53711 2.83434 0
M  V30 4509 H 404.994 3.1601 3.85927 0
M  V30 4510 H 404.148 1.81099 5.7904 0
M  V30 4511 H 402.887 1.0839 4.75503 0
M  V30 4512 H 401.892 3.35404 4.35642 0
M  V30 4513 H 403.117 4.08339 5.4262 0
M  V30 4514 H 401.063 1.99568 6.24907 0
M  V30 4515 H 400.98 3.69141 6.59751 0
M  V30 4516 H 402.248 2.73226 7.30047 0
M  V30 4517 N 406.477 -1.02803 1.19454 0
M  V30 4518 C 407.705 -1.79841 1.02297 0
M  V30 4519 C 408.12 -1.83879 -0.428259 0
M  V30 4520 O 407.477 -1.28345 -1.29745 0
M  V30 4521 C 407.528 -3.24852 1.58598 0
M  V30 4522 O 407.249 -3.21097 2.98041 0
M  V30 4523 C 408.75 -4.18485 1.46236 0
M  V30 4524 H 405.97 -0.565936 0.360496 0
M  V30 4525 H 408.514 -1.2948 1.58288 0
M  V30 4526 H 406.669 -3.72401 1.06753 0
M  V30 4527 H 407.083 -4.12033 3.24545 0
M  V30 4528 H 408.557 -5.18121 1.90407 0
M  V30 4529 H 409.034 -4.37254 0.41301 0
M  V30 4530 H 409.64 -3.76811 1.97215 0
M  V30 4531 N 407.956 -0.998596 -1.21925 0
M  V30 4532 C 408.888 -0.511879 -2.23411 0
M  V30 4533 C 409.901 0.396094 -1.57908 0
M  V30 4534 O 411.09 0.197316 -1.77406 0
M  V30 4535 C 408.19 0.276802 -3.37768 0
M  V30 4536 C 407.363 -0.628687 -4.32858 0
M  V30 4537 C 406.422 0.109272 -5.26087 0
M  V30 4538 O 405.448 -0.507237 -5.66935 0
M  V30 4539 N 406.65 1.38983 -5.63617 0
M  V30 4540 H 409.415 -1.38457 -2.658 0
M  V30 4541 H 406.976 -0.873981 -1.36283 0
M  V30 4542 H 408.968 0.77928 -3.97126 0
M  V30 4543 H 407.538 1.05063 -2.94415 0
M  V30 4544 H 406.758 -1.31175 -3.71735 0
M  V30 4545 H 408.046 -1.24514 -4.93329 0
M  V30 4546 H 407.444 1.91194 -5.32411 0
M  V30 4547 H 406.001 1.83739 -6.25367 0
M  V30 4548 N 409.434 1.37368 -0.772513 0
M  V30 4549 C 410.664 2.03647 -0.348082 0
M  V30 4550 C 411.072 1.58392 1.03482 0
M  V30 4551 O 410.415 0.760921 1.672 0
M  V30 4552 C 410.477 3.58131 -0.313404 0
M  V30 4553 C 410.141 4.2652 -1.64102 0
M  V30 4554 C 411.138 4.50587 -2.5936 0
M  V30 4555 C 408.823 4.64335 -1.91567 0
M  V30 4556 C 410.817 5.11526 -3.80289 0
M  V30 4557 C 408.504 5.24996 -3.12766 0
M  V30 4558 C 409.502 5.48529 -4.06946 0
M  V30 4559 O 409.19 6.07921 -5.26011 0
M  V30 4560 H 408.922 0.660538 -0.143753 0
M  V30 4561 H 411.476 1.76669 -1.04772 0
M  V30 4562 H 409.706 3.84159 0.442617 0
M  V30 4563 H 411.395 4.05813 0.0840613 0
M  V30 4564 H 412.161 4.21784 -2.39423 0
M  V30 4565 H 408.04 4.45353 -1.19088 0
M  V30 4566 H 411.584 5.29811 -4.53813 0
M  V30 4567 H 407.481 5.53223 -3.32588 0
M  V30 4568 H 408.249 6.26398 -5.26847 0
M  V30 4569 N 410.912 0.523116 1.48665 0
M  V30 4570 C 411.822 -0.247406 2.33292 0
M  V30 4571 C 412.838 -0.945769 1.46052 0
M  V30 4572 O 414.014 -0.922253 1.79043 0
M  V30 4573 C 411.079 -1.28487 3.22012 0
M  V30 4574 C 410.14 -0.597592 4.2512 0
M  V30 4575 C 409.373 -1.58563 5.09601 0
M  V30 4576 O 409.596 -2.81763 4.95949 0
M  V30 4577 O 408.53 -1.12879 5.91221 0
M  V30 4578 H 412.356 0.445869 3.00409 0
M  V30 4579 H 409.941 0.284128 1.46673 0
M  V30 4580 H 411.823 -1.88459 3.7691 0
M  V30 4581 H 410.498 -1.96068 2.57564 0
M  V30 4582 H 409.405 0.0424407 3.74076 0
M  V30 4583 H 410.738 0.0361517 4.92187 0
M  V30 4584 N 412.39 -1.55475 0.257931 0
M  V30 4585 C 413.34 -2.18506 -0.651094 0
M  V30 4586 C 414.324 -1.14431 -1.13112 0
M  V30 4587 O 415.516 -1.40305 -1.07905 0
M  V30 4588 C 412.645 -2.89653 -1.84272 0
M  V30 4589 C 411.731 -4.00996 -1.38068 0
M  V30 4590 N 412.122 -5.01816 -0.633609 0
M  V30 4591 C 410.42 -4.13753 -1.66506 0
M  V30 4592 C 411.121 -5.80371 -0.392922 0
M  V30 4593 N 410.097 -5.3505 -0.960359 0
M  V30 4594 H 413.899 -2.93811 -0.0722883 0
M  V30 4595 H 411.413 -1.62286 0.0607256 0
M  V30 4596 H 413.41 -3.33245 -2.50506 0
M  V30 4597 H 412.07 -2.15854 -2.42564 0
M  V30 4598 H 413.081 -5.17128 -0.282626 0
M  V30 4599 H 409.758 -3.51133 -2.25858 0
M  V30 4600 H 411.148 -6.7159 0.204235 0
M  V30 4601 N 413.868 0.0150385 -1.57593 0
M  V30 4602 C 415.093 0.718067 -1.94573 0
M  V30 4603 C 415.518 1.6734 -0.859005 0
M  V30 4604 O 414.876 1.80362 0.184147 0
M  V30 4605 C 414.924 1.43918 -3.30636 0
M  V30 4606 O 414.028 2.55299 -3.23876 0
M  V30 4607 H 413.369 0.192125 -0.635597 0
M  V30 4608 H 415.899 -0.0336708 -2.04572 0
M  V30 4609 H 415.909 1.80598 -3.65853 0
M  V30 4610 H 414.584 0.738619 -4.09289 0
M  V30 4611 H 413.161 2.21058 -3.00312 0
M  V30 4612 N 415.346 1.54954 0.287554 0
M  V30 4613 C 416.592 1.75132 1.02257 0
M  V30 4614 C 416.925 0.542858 1.86458 0
M  V30 4615 O 416.2 -0.459856 1.88986 0
M  V30 4616 C 416.483 3.04812 1.91733 0
M  V30 4617 C 416.336 4.35985 1.10622 0
M  V30 4618 C 417.655 3.30438 2.90687 0
M  V30 4619 H 414.774 0.637194 0.370341 0
M  V30 4620 H 417.416 1.87678 0.296111 0
M  V30 4621 H 415.566 2.94247 2.53675 0
M  V30 4622 H 417.238 4.58487 0.508636 0
M  V30 4623 H 415.481 4.31865 0.409271 0
M  V30 4624 H 416.152 5.23017 1.76513 0
M  V30 4625 H 418.628 3.40701 2.38877 0
M  V30 4626 H 417.504 4.22467 3.50447 0
M  V30 4627 H 417.765 2.49377 3.65053 0
M  V30 4628 N 416.824 -0.551391 1.4764 0
M  V30 4629 C 417.756 -1.67333 1.56628 0
M  V30 4630 C 418.769 -1.56398 0.452045 0
M  V30 4631 O 419.958 -1.6325 0.721926 0
M  V30 4632 C 417.058 -3.05841 1.45994 0
M  V30 4633 C 416.231 -3.42472 2.72088 0
M  V30 4634 C 415.29 -4.60168 2.55209 0
M  V30 4635 O 414.316 -4.64458 3.2904 0
M  V30 4636 N 415.518 -5.57024 1.63416 0
M  V30 4637 H 418.283 -1.60066 2.53375 0
M  V30 4638 H 415.844 -0.738169 1.44093 0
M  V30 4639 H 417.836 -3.8242 1.32428 0
M  V30 4640 H 416.406 -3.07302 0.573071 0
M  V30 4641 H 415.626 -2.55284 3.00373 0
M  V30 4642 H 416.914 -3.63723 3.55785 0
M  V30 4643 H 416.312 -5.56319 1.02594 0
M  V30 4644 H 414.869 -6.32906 1.558 0
M  V30 4645 N 418.302 -1.35869 -0.798587 0
M  V30 4646 C 419.551 -1.28921 -1.5512 0
M  V30 4647 C 419.864 0.13208 -1.95154 0
M  V30 4648 O 421.07 0.323879 -2.69561 0
M  V30 4649 C 419.526 -2.26141 -2.79979 0
M  V30 4650 C 419.134 -3.73658 -2.47151 0
M  V30 4651 C 420.878 -2.28152 -3.57976 0
M  V30 4652 C 418.785 -4.62679 -3.6835 0
M  V30 4653 H 417.715 -0.479031 -0.582276 0
M  V30 4654 H 420.366 -1.61179 -0.877125 0
M  V30 4655 H 418.748 -1.86865 -3.49138 0
M  V30 4656 H 419.922 -4.21616 -1.85947 0
M  V30 4657 H 418.237 -3.74333 -1.82383 0
M  V30 4658 H 420.834 -2.91875 -4.4801 0
M  V30 4659 H 421.177 -1.28748 -3.95891 0
M  V30 4660 H 421.71 -2.65998 -2.95787 0
M  V30 4661 H 418.449 -5.63111 -3.35538 0
M  V30 4662 H 417.969 -4.19442 -4.28752 0
M  V30 4663 H 419.648 -4.78498 -4.35487 0
M  V30 4664 N 419.78 1.02168 -1.19998 0
M  V30 4665 C 420.728 2.12717 -0.940967 0
M  V30 4666 C 421.722 1.69069 0.105841 0
M  V30 4667 O 422.928 1.79946 -0.0440583 0
M  V30 4668 H 419.303 0.695108 -0.28693 0
M  V30 4669 H 421.274 2.3175 -1.87975 0
M  V30 4670 C 420.023 3.44027 -0.504049 0
M  V30 4671 H 419.346 3.78036 -1.30112 0
M  V30 4672 H 420.786 4.22452 -0.361991 0
M  V30 4673 C 419.245 3.27678 0.782878 0
M  V30 4674 O 419.775 3.56949 1.84256 0
M  V30 4675 N 417.981 2.80943 0.742921 0
M  V30 4676 H 417.528 2.57322 -0.119687 0
M  V30 4677 H 417.486 2.70385 1.60435 0
M  V30 4678 N 421.258 1.00505 1.21394 0
M  V30 4679 C 422.674 0.717873 1.42544 0
M  V30 4680 C 422.874 -0.706936 1.88692 0
M  V30 4681 O 421.93 -1.47627 2.04847 0
M  V30 4682 C 423.243 1.73377 2.45684 0
M  V30 4683 C 424.791 1.75059 2.59467 0
M  V30 4684 C 425.266 2.75545 3.6584 0
M  V30 4685 N 426.757 2.74213 3.73311 0
M  V30 4686 C 427.492 3.48626 4.55245 0
M  V30 4687 N 426.988 4.32678 5.41075 0
M  V30 4688 N 428.781 3.37276 4.49668 0
M  V30 4689 H 420.932 1.92506 0.897503 0
M  V30 4690 H 423.195 0.830919 0.456375 0
M  V30 4691 H 422.901 2.75395 2.18748 0
M  V30 4692 H 422.775 1.53647 3.44489 0
M  V30 4693 H 425.162 0.737337 2.8574 0
M  V30 4694 H 425.243 1.98861 1.60897 0
M  V30 4695 H 424.887 3.77028 3.40313 0
M  V30 4696 H 424.817 2.49009 4.64007 0
M  V30 4697 H 427.308 2.13234 3.11993 0
M  V30 4698 H 427.621 4.86253 6.00648 0
M  V30 4699 H 425.966 4.3676 5.40616 0
M  V30 4700 H 429.157 2.71043 3.81646 0
M  V30 4701 H 429.33 3.95524 5.13288 0
M  V30 4702 N 422.737 -1.36956 0.779787 0
M  V30 4703 C 423.985 -1.99097 0.347079 0
M  V30 4704 C 424.306 -1.62206 -1.08232 0
M  V30 4705 O 423.576 -0.891373 -1.74446 0
M  V30 4706 H 422.156 -0.736409 0.125342 0
M  V30 4707 H 424.818 -1.67308 0.999696 0
M  V30 4708 H 423.914 -3.09107 0.431162 0
M  V30 4709 N 424.215 -0.530993 -1.48385 0
M  V30 4710 C 425.44 0.000729535 -2.074 0
M  V30 4711 C 425.865 1.27298 -1.3848 0
M  V30 4712 O 425.223 1.75599 -0.451081 0
M  V30 4713 C 425.271 0.206697 -3.60007 0
M  V30 4714 O 424.375 1.27514 -3.92191 0
M  V30 4715 H 423.716 -0.039583 -0.662819 0
M  V30 4716 H 426.246 -0.739194 -1.9078 0
M  V30 4717 H 426.256 0.42904 -4.05738 0
M  V30 4718 H 424.931 -0.722675 -4.09573 0
M  V30 4719 H 423.508 1.03537 -3.58238 0
M  V30 4720 N 425.693 1.55336 -0.266172 0
M  V30 4721 C 426.918 2.04258 0.359661 0
M  V30 4722 C 427.343 1.14359 1.49344 0
M  V30 4723 O 426.701 0.140369 1.80756 0
M  V30 4724 C 426.749 3.50997 0.826635 0
M  V30 4725 O 425.853 3.64204 1.93466 0
M  V30 4726 H 425.194 0.659668 0.075727 0
M  V30 4727 H 427.724 2.00694 -0.39786 0
M  V30 4728 H 427.734 3.9219 1.12477 0
M  V30 4729 H 426.409 4.159 -0.00293032 0
M  V30 4730 H 424.986 3.34913 1.63974 0
M  V30 4731 N 427.171 -0.0066808 1.57599 0
M  V30 4732 C 428.121 -1.0086 2.04478 0
M  V30 4733 C 429.105 -1.30714 0.938231 0
M  V30 4734 O 430.297 -1.29924 1.20203 0
M  V30 4735 C 427.426 -2.30273 2.54615 0
M  V30 4736 C 426.512 -2.03413 3.72134 0
M  V30 4737 N 426.903 -1.46688 4.84062 0
M  V30 4738 C 425.201 -2.33589 3.79937 0
M  V30 4739 C 425.902 -1.36146 5.65543 0
M  V30 4740 N 424.878 -1.84477 5.1134 0
M  V30 4741 H 428.68 -0.564402 2.8843 0
M  V30 4742 H 426.194 -0.212521 1.61003 0
M  V30 4743 H 428.191 -3.02885 2.86472 0
M  V30 4744 H 426.851 -2.75352 1.72079 0
M  V30 4745 H 427.862 -1.14658 5.05049 0
M  V30 4746 H 424.539 -2.81589 3.08243 0
M  V30 4747 H 425.929 -0.925873 6.6549 0
M  V30 4748 N 428.649 -1.55105 -0.279332 0
M  V30 4749 C 429.581 -1.83952 -1.36727 0
M  V30 4750 C 430.594 -0.723642 -1.45833 0
M  V30 4751 O 431.783 -1.00141 -1.47763 0
M  V30 4752 C 428.883 -1.98183 -2.74912 0
M  V30 4753 C 428.056 -3.28787 -2.88475 0
M  V30 4754 C 427.115 -3.33162 -4.07295 0
M  V30 4755 O 426.141 -4.06576 -3.98353 0
M  V30 4756 N 427.343 -2.60109 -5.18964 0
M  V30 4757 H 430.108 -2.77853 -1.12328 0
M  V30 4758 H 427.669 -1.54945 -0.469442 0
M  V30 4759 H 429.661 -1.98488 -3.52682 0
M  V30 4760 H 428.231 -1.11177 -2.92162 0
M  V30 4761 H 427.451 -3.41075 -1.97641 0
M  V30 4762 H 428.739 -4.14933 -2.94463 0
M  V30 4763 H 428.137 -2.00136 -5.29115 0
M  V30 4764 H 426.694 -2.66143 -5.94988 0
M  V30 4765 N 430.127 0.543554 -1.4793 0
M  V30 4766 C 431.373 1.30201 -1.55485 0
M  V30 4767 C 431.706 1.92925 -0.222201 0
M  V30 4768 O 430.981 1.78586 0.77053 0
M  V30 4769 C 431.264 2.40174 -2.68307 0
M  V30 4770 C 431.117 1.8223 -4.11233 0
M  V30 4771 C 432.436 3.42024 -2.76961 0
M  V30 4772 H 429.555 0.472036 -0.565996 0
M  V30 4773 H 432.197 0.606914 -1.80046 0
M  V30 4774 H 430.347 2.99463 -2.47495 0
M  V30 4775 H 432.019 1.27096 -4.43446 0
M  V30 4776 H 430.262 1.12832 -4.18869 0
M  V30 4777 H 430.933 2.61793 -4.85972 0
M  V30 4778 H 433.409 2.92672 -2.95774 0
M  V30 4779 H 432.285 4.16383 -3.57654 0
M  V30 4780 H 432.546 4.0173 -1.84568 0
M  V30 4781 N 431.605 1.3629 0.791371 0
M  V30 4782 C 432.515 1.32606 1.93527 0
M  V30 4783 C 433.531 0.228541 1.72493 0
M  V30 4784 O 434.707 0.460571 1.96063 0
M  V30 4785 C 431.772 1.11271 3.28359 0
M  V30 4786 C 430.833 2.3048 3.62185 0
M  V30 4787 C 430.066 2.10154 4.90583 0
M  V30 4788 O 430.289 1.07572 5.60165 0
M  V30 4789 O 429.223 2.97884 5.23019 0
M  V30 4790 H 433.049 2.28909 1.99585 0
M  V30 4791 H 430.634 1.16818 0.931344 0
M  V30 4792 H 432.516 1.01283 4.09047 0
M  V30 4793 H 431.191 0.180292 3.23198 0
M  V30 4794 H 430.098 2.46036 2.81811 0
M  V30 4795 H 431.431 3.22221 3.72068 0
M  V30 4796 N 433.083 -1.0153 1.20538 0
M  V30 4797 C 434.313 -1.78487 1.04048 0
M  V30 4798 C 434.721 -1.84631 -0.413292 0
M  V30 4799 O 434.064 -1.29919 -1.29872 0
M  V30 4800 C 434.126 -3.24367 1.55003 0
M  V30 4801 C 433.79 -3.41827 3.0332 0
M  V30 4802 C 434.787 -3.30941 4.00966 0
M  V30 4803 C 432.472 -3.67602 3.42307 0
M  V30 4804 C 434.466 -3.45577 5.35589 0
M  V30 4805 C 432.153 -3.81881 4.77085 0
M  V30 4806 C 433.151 -3.70874 5.73534 0
M  V30 4807 O 432.839 -3.84714 7.05868 0
M  V30 4808 H 432.571 -0.568108 0.366373 0
M  V30 4809 H 435.125 -1.28677 1.60098 0
M  V30 4810 H 433.355 -3.75266 0.933397 0
M  V30 4811 H 435.044 -3.82963 1.34514 0
M  V30 4812 H 435.81 -3.10964 3.72191 0
M  V30 4813 H 431.689 -3.75256 2.67776 0
M  V30 4814 H 435.233 -3.36902 6.10854 0
M  V30 4815 H 431.13 -4.01359 5.0555 0
M  V30 4816 H 431.898 -4.01724 7.13134 0
M  V30 4817 N 434.561 -1.01147 -1.20859 0
M  V30 4818 C 435.471 -0.58686 -2.27141 0
M  V30 4819 C 436.487 0.373198 -1.69951 0
M  V30 4820 O 437.663 0.235423 -2.00019 0
M  V30 4821 C 434.728 0.0733602 -3.46622 0
M  V30 4822 C 433.789 -0.931995 -4.19061 0
M  V30 4823 C 433.022 -0.303186 -5.32838 0
M  V30 4824 O 433.245 0.898395 -5.63281 0
M  V30 4825 O 432.179 -1.01735 -5.9324 0
M  V30 4826 H 436.005 -1.47155 -2.65667 0
M  V30 4827 H 433.59 -0.780689 -1.2738 0
M  V30 4828 H 435.472 0.442333 -4.19072 0
M  V30 4829 H 434.147 0.932329 -3.09983 0
M  V30 4830 H 433.054 -1.35224 -3.48805 0
M  V30 4831 H 434.387 -1.76076 -4.59628 0
M  V30 4832 N 436.039 1.36541 -0.78704 0
M  V30 4833 C 437.288 1.98552 -0.35494 0
M  V30 4834 C 437.601 1.63171 1.07864 0
M  V30 4835 O 438.807 2.18399 1.61289 0
M  V30 4836 C 437.263 3.55136 -0.583671 0
M  V30 4837 C 436.871 3.99444 -2.02851 0
M  V30 4838 C 438.615 4.2395 -0.215957 0
M  V30 4839 C 436.522 5.48796 -2.20403 0
M  V30 4840 H 435.452 0.742888 -0.128972 0
M  V30 4841 H 438.103 1.5587 -0.968337 0
M  V30 4842 H 436.485 3.95875 0.0994046 0
M  V30 4843 H 437.659 3.6991 -2.74779 0
M  V30 4844 H 435.974 3.43459 -2.35425 0
M  V30 4845 H 438.571 5.33709 -0.325405 0
M  V30 4846 H 438.914 4.07827 0.835646 0
M  V30 4847 H 439.447 3.88565 -0.852175 0
M  V30 4848 H 436.186 5.69864 -3.23937 0
M  V30 4849 H 435.706 5.79964 -1.52977 0
M  V30 4850 H 437.385 6.14986 -2.01002 0
M  V30 4851 N 437.518 0.538854 1.48102 0
M  V30 4852 C 438.448 -0.207654 2.32575 0
M  V30 4853 C 439.429 -0.926559 1.4265 0
M  V30 4854 O 440.614 -0.91061 1.71527 0
M  V30 4855 C 437.744 -1.24957 3.24042 0
M  V30 4856 C 436.698 -0.648263 4.23062 0
M  V30 4857 C 436.024 -1.79348 5.03725 0
M  V30 4858 C 437.324 0.385897 5.20872 0
M  V30 4859 H 439.018 0.497534 2.95237 0
M  V30 4860 H 436.564 0.240715 1.41974 0
M  V30 4861 H 438.517 -1.77983 3.81969 0
M  V30 4862 H 437.241 -1.98446 2.59397 0
M  V30 4863 H 435.9 -0.139452 3.66335 0
M  V30 4864 H 435.548 -2.51696 4.35498 0
M  V30 4865 H 435.248 -1.39702 5.70751 0
M  V30 4866 H 436.772 -2.32735 5.64506 0
M  V30 4867 H 438.186 -0.057607 5.73271 0
M  V30 4868 H 436.583 0.700227 5.96001 0
M  V30 4869 H 437.653 1.28848 4.67468 0
M  V30 4870 N 438.996 -1.55193 0.274407 0
M  V30 4871 C 440.243 -1.99581 -0.342579 0
M  V30 4872 C 440.571 -1.1628 -1.55914 0
M  V30 4873 O 439.826 -0.22029 -1.94456 0
M  V30 4874 C 440.125 -3.49019 -0.769458 0
M  V30 4875 C 439.791 -4.49598 0.342389 0
M  V30 4876 C 438.453 -4.76821 0.647686 0
M  V30 4877 C 440.805 -5.0964 1.09163 0
M  V30 4878 C 438.133 -5.61354 1.70581 0
M  V30 4879 C 440.485 -5.95323 2.13948 0
M  V30 4880 C 439.149 -6.20867 2.45113 0
M  V30 4881 H 438.419 -0.730319 -0.125358 0
M  V30 4882 H 441.066 -1.87529 0.387971 0
M  V30 4883 H 439.371 -3.58544 -1.57967 0
M  V30 4884 H 441.068 -3.8077 -1.25757 0
M  V30 4885 H 437.658 -4.28496 0.094318 0
M  V30 4886 H 441.842 -4.88632 0.869024 0
M  V30 4887 H 437.098 -5.79392 1.9523 0
M  V30 4888 H 441.272 -6.40881 2.72478 0
M  V30 4889 H 438.899 -6.86162 3.27239 0
M  V30 4890 N 440.474 -0.00167713 -1.576 0
M  V30 4891 C 441.885 0.54091 -1.78693 0
M  V30 4892 C 442.236 1.7386 -0.909247 0
M  V30 4893 O 441.361 2.16109 -0.112176 0
M  V30 4894 C 441.956 0.98806 -3.24072 0
M  V30 4895 C 440.515 1.47594 -3.46256 0
M  V30 4896 C 439.662 0.42792 -2.73978 0
M  V30 4897 H 442.613 -0.22784 -1.57056 0
M  V30 4898 H 442.634 1.85398 -3.32277 0
M  V30 4899 H 442.146 0.116164 -3.87926 0
M  V30 4900 H 440.247 2.36868 -2.87618 0
M  V30 4901 H 440.36 1.50225 -4.54939 0
M  V30 4902 H 438.724 0.889934 -2.38647 0
M  V30 4903 H 439.507 -0.435038 -3.40532 0
M  V30 4904 N 441.952 1.55251 0.271103 0
M  V30 4905 C 443.2 1.75599 1.00047 0
M  V30 4906 C 443.521 0.561188 1.8675 0
M  V30 4907 O 442.791 -0.423846 1.9126 0
M  V30 4908 H 441.371 0.647562 0.372387 0
M  V30 4909 H 444.033 1.92656 0.294876 0
M  V30 4910 H 443.129 2.65766 1.6363 0
M  V30 4911 N 443.43 -0.535701 1.48216 0
M  V30 4912 C 444.67 -1.30238 1.57536 0
M  V30 4913 C 445.034 -1.90479 0.241229 0
M  V30 4914 O 446.235 -2.67983 0.20938 0
M  V30 4915 C 444.506 -2.3669 2.67792 0
M  V30 4916 S 446.065 -3.23159 2.9684 0
M  V30 4917 H 442.883 -0.443093 0.556048 0
M  V30 4918 H 445.485 -0.610937 1.85709 0
M  V30 4919 H 444.189 -1.90905 3.63296 0
M  V30 4920 H 443.72 -3.10548 2.41502 0
M  V30 4921 H 445.735 -4.36647 2.35699 0
M  V30 4922 N 444.908 -1.36708 -0.784132 0
M  V30 4923 C 446.154 -1.31426 -1.54451 0
M  V30 4924 C 446.487 0.10476 -1.93917 0
M  V30 4925 O 445.762 1.05934 -1.6312 0
M  V30 4926 C 446.045 -2.24189 -2.818 0
M  V30 4927 C 445.898 -3.74813 -2.48667 0
M  V30 4928 C 447.217 -2.15626 -3.83658 0
M  V30 4929 H 444.336 -0.478739 -0.560337 0
M  V30 4930 H 446.978 -1.67305 -0.900498 0
M  V30 4931 H 445.128 -1.93722 -3.36755 0
M  V30 4932 H 446.8 -4.15823 -1.99722 0
M  V30 4933 H 445.043 -3.93989 -1.81535 0
M  V30 4934 H 445.714 -4.35138 -3.39646 0
M  V30 4935 H 448.19 -2.42456 -3.38163 0
M  V30 4936 H 447.066 -2.82694 -4.70506 0
M  V30 4937 H 447.327 -1.14522 -4.27009 0
M  V30 4938 N 446.386 1.0089 -1.21074 0
M  V30 4939 C 447.316 2.1145 -0.990523 0
M  V30 4940 C 448.297 1.69897 0.0831699 0
M  V30 4941 O 449.482 1.94052 -0.0758853 0
M  V30 4942 C 446.612 3.42914 -0.550177 0
M  V30 4943 C 445.566 3.98244 -1.56799 0
M  V30 4944 C 444.892 5.25568 -0.984013 0
M  V30 4945 C 446.192 4.30752 -2.95381 0
M  V30 4946 H 447.886 2.3013 -1.91521 0
M  V30 4947 H 445.432 1.10592 -0.92225 0
M  V30 4948 H 447.385 4.19653 -0.383305 0
M  V30 4949 H 446.109 3.24014 0.41015 0
M  V30 4950 H 444.768 3.23621 -1.72236 0
M  V30 4951 H 444.416 5.02998 -0.0155216 0
M  V30 4952 H 444.116 5.63551 -1.66384 0
M  V30 4953 H 445.64 6.04955 -0.828378 0
M  V30 4954 H 447.054 4.98349 -2.8341 0
M  V30 4955 H 445.451 4.79869 -3.60341 0
M  V30 4956 H 446.521 3.39192 -3.46521 0
M  V30 4957 N 447.864 1.01787 1.20321 0
M  V30 4958 C 449.28 0.732951 1.41774 0
M  V30 4959 C 449.48 -0.686883 1.89431 0
M  V30 4960 O 448.536 -1.45446 2.06402 0
M  V30 4961 C 449.849 1.75973 2.43832 0
M  V30 4962 C 451.397 1.77802 2.57596 0
M  V30 4963 C 451.872 2.7941 3.62897 0
M  V30 4964 N 453.363 2.78157 3.70382 0
M  V30 4965 C 454.098 3.53434 4.51521 0
M  V30 4966 N 453.594 4.38392 5.36455 0
M  V30 4967 N 455.387 3.42026 4.46066 0
M  V30 4968 H 447.538 1.93447 0.877035 0
M  V30 4969 H 449.801 0.835712 0.447536 0
M  V30 4970 H 449.507 2.77699 2.15815 0
M  V30 4971 H 449.381 1.57292 3.4284 0
M  V30 4972 H 451.768 0.767602 2.84942 0
M  V30 4973 H 451.849 2.00557 1.58779 0
M  V30 4974 H 451.493 3.80616 3.36295 0
M  V30 4975 H 451.423 2.53916 4.61339 0
M  V30 4976 H 453.914 2.16531 3.09714 0
M  V30 4977 H 454.227 4.92596 5.95457 0
M  V30 4978 H 452.572 4.4247 5.35953 0
M  V30 4979 H 455.763 2.75075 3.78749 0
M  V30 4980 H 455.936 4.00946 5.09064 0
M  V30 4981 N 449.342 -1.36122 0.79427 0
M  V30 4982 C 450.588 -1.99846 0.378542 0
M  V30 4983 C 450.943 -1.61898 -1.03955 0
M  V30 4984 O 450.236 -0.866013 -1.70912 0
M  V30 4985 C 450.43 -3.5409 0.48527 0
M  V30 4986 C 450.259 -4.0702 1.91219 0
M  V30 4987 C 449.029 -4.36944 2.53787 0
M  V30 4988 C 451.227 -4.26435 2.87502 0
M  V30 4989 N 449.209 -4.75727 3.88017 0
M  V30 4990 C 450.58 -4.68077 4.06576 0
M  V30 4991 C 452.635 -4.08616 2.84495 0
M  V30 4992 C 451.338 -4.93765 5.23057 0
M  V30 4993 C 453.364 -4.35453 4.00169 0
M  V30 4994 C 452.726 -4.77355 5.17988 0
M  V30 4995 H 448.825 -0.759549 0.186034 0
M  V30 4996 H 451.409 -1.65043 1.0329 0
M  V30 4997 H 449.58 -3.88151 -0.139023 0
M  V30 4998 H 451.312 -4.04675 0.0453192 0
M  V30 4999 H 448.067 -4.26822 2.05231 0
M  V30 5000 H 448.491 -4.99396 4.57092 0
M  V30 5001 H 453.133 -3.75373 1.94564 0
M  V30 5002 H 450.851 -5.25887 6.1357 0
M  V30 5003 H 454.437 -4.2323 3.99208 0
M  V30 5004 H 453.317 -4.97718 6.06008 0
M  V30 5005 N 450.82 -0.546701 -1.47814 0
M  V30 5006 C 451.752 0.244196 -2.27895 0
M  V30 5007 C 452.765 0.88911 -1.36377 0
M  V30 5008 O 453.954 0.764733 -1.61289 0
M  V30 5009 C 451.054 1.36252 -3.10304 0
M  V30 5010 C 450.227 0.816382 -4.29714 0
M  V30 5011 C 449.286 1.81789 -4.93801 0
M  V30 5012 O 448.312 1.36818 -5.52512 0
M  V30 5013 N 449.514 3.15085 -4.87547 0
M  V30 5014 H 452.279 -0.442694 -2.96412 0
M  V30 5015 H 449.84 -0.382095 -1.57327 0
M  V30 5016 H 451.832 2.03102 -3.50045 0
M  V30 5017 H 450.402 1.95281 -2.44099 0
M  V30 5018 H 449.622 -0.0285981 -3.9419 0
M  V30 5019 H 450.91 0.430668 -5.06974 0
M  V30 5020 H 450.308 3.54275 -4.41028 0
M  V30 5021 H 448.865 3.77522 -5.31339 0
M  V30 5022 N 452.299 1.55045 -0.282633 0
M  V30 5023 C 453.546 1.9976 0.33199 0
M  V30 5024 C 453.874 1.17105 1.55295 0
M  V30 5025 O 453.129 0.230599 1.94337 0
M  V30 5026 C 453.428 3.49422 0.750938 0
M  V30 5027 C 453.094 4.4941 -0.366228 0
M  V30 5028 C 451.756 4.76471 -0.672964 0
M  V30 5029 C 454.108 5.09054 -1.11864 0
M  V30 5030 C 451.436 5.60442 -1.73556 0
M  V30 5031 C 453.788 5.9418 -2.17102 0
M  V30 5032 C 452.452 6.19558 -2.48402 0
M  V30 5033 H 451.722 0.730974 0.121484 0
M  V30 5034 H 454.369 1.8732 -0.39791 0
M  V30 5035 H 452.674 3.59377 1.56063 0
M  V30 5036 H 454.371 3.81432 1.23736 0
M  V30 5037 H 450.961 4.2844 -0.117041 0
M  V30 5038 H 455.145 4.88165 -0.894925 0
M  V30 5039 H 450.401 5.78349 -1.983 0
M  V30 5040 H 454.575 6.39427 -2.75873 0
M  V30 5041 H 452.202 6.84417 -3.30874 0
M  V30 5042 N 453.777 0.010035 1.57597 0
M  V30 5043 C 455.002 -0.687021 1.95691 0
M  V30 5044 C 455.427 -1.65952 0.885519 0
M  V30 5045 O 454.785 -1.80633 -0.15543 0
M  V30 5046 C 454.833 -1.3864 3.32884 0
M  V30 5047 O 453.937 -2.50115 3.27897 0
M  V30 5048 H 453.278 -0.181989 0.638573 0
M  V30 5049 H 455.808 0.0662122 2.04493 0
M  V30 5050 H 455.818 -1.74754 3.6868 0
M  V30 5051 H 454.493 -0.673411 4.10412 0
M  V30 5052 H 453.07 -2.16253 3.03791 0
M  V30 5053 N 455.255 -1.55392 -0.262866 0
M  V30 5054 C 456.48 -1.80847 -1.01533 0
M  V30 5055 C 456.905 -0.584946 -1.78774 0
M  V30 5056 O 456.263 0.465701 -1.75217 0
M  V30 5057 C 456.311 -3.03866 -1.94159 0
M  V30 5058 O 455.415 -2.79662 -3.03089 0
M  V30 5059 H 454.756 -0.597441 -0.289759 0
M  V30 5060 H 457.286 -2.02553 -0.288698 0
M  V30 5061 H 457.296 -3.32872 -2.35924 0
M  V30 5062 H 455.971 -3.92564 -1.37354 0
M  V30 5063 H 454.548 -2.61781 -2.65566 0
M  V30 5064 N 456.733 0.527833 -1.48498 0
M  V30 5065 C 458.01 1.28905 -1.47115 0
M  V30 5066 C 458.39 2.10297 -0.184007 0
M  V30 5067 O 457.738 2.12728 0.834218 0
M  V30 5068 C 457.948 2.16866 -2.73441 0
M  V30 5069 C 459.296 2.76936 -3.21857 0
M  V30 5070 O 460.32 2.27152 -2.74373 0
M  V30 5071 O 459.179 3.67496 -4.04486 0
M  V30 5072 H 456.273 0.581918 -0.587623 0
M  V30 5073 H 458.819 0.544311 -1.60734 0
M  V30 5074 H 457.591 1.56521 -3.58632 0
M  V30 5075 H 457.214 2.98583 -2.62553 0
M  V30 5076 N 458.211 1.37122 0.776871 0
M  V30 5077 C 459.459 1.31787 1.53221 0
M  V30 5078 C 459.78 -0.0987589 1.9475 0
M  V30 5079 O 459.05 -1.0417 1.65908 0
M  V30 5080 H 457.63 0.484839 0.568278 0
M  V30 5081 H 460.292 1.71556 0.924917 0
M  V30 5082 H 459.388 1.95355 2.43398 0
M  V30 5083 N 459.689 -1.00246 1.21608 0
M  V30 5084 C 460.652 -2.07233 0.979133 0
M  V30 5085 C 461.652 -1.6072 -0.0508219 0
M  V30 5086 O 462.842 -1.73196 0.186712 0
M  V30 5087 C 459.974 -3.37546 0.477016 0
M  V30 5088 H 461.167 -2.29687 1.92831 0
M  V30 5089 H 458.72 -1.17261 1.03342 0
M  V30 5090 H 459.455 -3.20773 -0.476966 0
M  V30 5091 H 459.24 -3.72638 1.21997 0
M  V30 5092 H 460.73 -4.16285 0.331181 0
M  V30 5093 N 461.167 -1.02423 -1.1978 0
M  V30 5094 C 462.444 -0.632802 -1.85081 0
M  V30 5095 C 462.824 0.888745 -1.9148 0
M  V30 5096 O 462.172 1.78357 -1.42832 0
M  V30 5097 C 462.382 -1.28947 -3.24305 0
M  V30 5098 C 463.73 -1.40976 -4.00513 0
M  V30 5099 O 464.754 -1.24628 -3.33686 0
M  V30 5100 O 463.613 -1.67467 -5.20209 0
M  V30 5101 H 460.707 -0.219348 -0.79738 0
M  V30 5102 H 463.253 -1.12209 -1.27307 0
M  V30 5103 H 462.025 -2.3288 -3.14456 0
M  V30 5104 H 461.648 -0.787748 -3.89718 0
M  V30 5105 N 462.645 1.35699 -0.801477 0
M  V30 5106 C 463.894 1.98165 -0.375979 0
M  V30 5107 C 464.207 1.64306 1.06127 0
M  V30 5108 O 465.413 2.20097 1.58964 0
M  V30 5109 C 463.869 3.54497 -0.621305 0
M  V30 5110 C 463.477 3.9727 -2.07076 0
M  V30 5111 C 465.221 4.23697 -0.26091 0
M  V30 5112 C 463.128 5.46427 -2.26211 0
M  V30 5113 H 462.058 0.741478 -0.136844 0
M  V30 5114 H 464.709 1.54834 -0.984814 0
M  V30 5115 H 463.091 3.95958 0.0574112 0
M  V30 5116 H 464.265 3.66974 -2.78687 0
M  V30 5117 H 462.58 3.40943 -2.39054 0
M  V30 5118 H 465.177 5.33334 -0.381994 0
M  V30 5119 H 465.52 4.0869 0.792344 0
M  V30 5120 H 466.053 3.87639 -0.893339 0
M  V30 5121 H 462.792 5.66396 -3.29963 0
M  V30 5122 H 462.312 5.78309 -1.59119 0
M  V30 5123 H 463.991 6.12819 -2.07513 0
M  V30 5124 N 464.123 0.554532 1.47522 0
M  V30 5125 C 465.371 0.0294208 2.02079 0
M  V30 5126 C 465.692 -1.32411 1.43151 0
M  V30 5127 O 464.962 -1.863 0.605728 0
M  V30 5128 H 463.542 0.00788672 0.746958 0
M  V30 5129 H 466.204 0.723934 1.80956 0
M  V30 5130 H 465.3 -0.0606745 3.12041 0
M  V30 5131 N 465.601 -1.54893 0.290851 0
M  V30 5132 C 466.848 -1.99933 -0.321391 0
M  V30 5133 C 467.176 -1.17927 -1.54672 0
M  V30 5134 O 466.431 -0.240902 -1.94212 0
M  V30 5135 C 466.73 -3.49815 -0.732397 0
M  V30 5136 C 466.396 -4.4921 0.390056 0
M  V30 5137 C 465.058 -4.76107 0.698223 0
M  V30 5138 C 467.41 -5.08453 1.14562 0
M  V30 5139 C 464.738 -5.59514 1.76526 0
M  V30 5140 C 467.09 -5.9302 2.2025 0
M  V30 5141 C 465.754 -6.18232 2.51684 0
M  V30 5142 H 465.024 -0.731608 -0.117605 0
M  V30 5143 H 467.671 -1.87107 0.407839 0
M  V30 5144 H 465.976 -3.60199 -1.54155 0
M  V30 5145 H 467.673 -3.82083 -1.21712 0
M  V30 5146 H 464.263 -4.28372 0.13976 0
M  V30 5147 H 468.447 -4.87683 0.920801 0
M  V30 5148 H 463.703 -5.77289 2.01364 0
M  V30 5149 H 467.877 -6.37955 2.7926 0
M  V30 5150 H 465.504 -6.82653 3.34499 0
M  V30 5151 N 467.08 -0.0183926 -1.57589 0
M  V30 5152 C 468.328 0.661253 -1.90976 0
M  V30 5153 C 468.649 1.73281 -0.894353 0
M  V30 5154 O 467.919 1.9579 0.0656788 0
M  V30 5155 H 466.499 0.247233 -0.704901 0
M  V30 5156 H 469.161 -0.0636639 -1.94796 0
M  V30 5157 H 468.257 1.12083 -2.9128 0
M  V30 5158 N 468.558 1.5553 0.254621 0
M  V30 5159 C 469.804 1.77262 0.985193 0
M  V30 5160 C 470.137 0.582286 1.85265 0
M  V30 5161 O 469.412 -0.419666 1.89919 0
M  V30 5162 C 469.695 3.0881 1.85225 0
M  V30 5163 C 469.548 4.38233 1.0135 0
M  V30 5164 C 470.867 3.3653 2.83612 0
M  V30 5165 H 467.986 0.644906 0.356742 0
M  V30 5166 H 470.628 1.88264 0.256236 0
M  V30 5167 H 468.778 2.99562 2.47376 0
M  V30 5168 H 470.45 4.59463 0.411269 0
M  V30 5169 H 468.693 4.32636 0.317574 0
M  V30 5170 H 469.364 5.26644 1.65379 0
M  V30 5171 H 471.84 3.45691 2.31596 0
M  V30 5172 H 470.716 4.29805 3.41407 0
M  V30 5173 H 470.977 2.57064 3.59681 0
M  V30 5174 N 470.036 -0.519951 1.48776 0
M  V30 5175 C 471.283 -1.27522 1.57303 0
M  V30 5176 C 471.611 -1.92869 0.251328 0
M  V30 5177 O 470.866 -1.80372 -0.759243 0
M  V30 5178 C 471.165 -2.37864 2.6675 0
M  V30 5179 C 470.831 -1.90103 4.08867 0
M  V30 5180 C 469.493 -1.76795 4.47546 0
M  V30 5181 C 471.845 -1.54133 4.97888 0
M  V30 5182 C 469.173 -1.25868 5.73039 0
M  V30 5183 C 471.525 -1.04665 6.23881 0
M  V30 5184 C 470.189 -0.899823 6.61407 0
M  V30 5185 H 469.459 -0.466636 0.575614 0
M  V30 5186 H 472.106 -0.579109 1.82534 0
M  V30 5187 H 470.411 -3.13186 2.35418 0
M  V30 5188 H 472.108 -2.95969 2.70561 0
M  V30 5189 H 468.698 -2.01414 3.78326 0
M  V30 5190 H 472.882 -1.6327 4.68675 0
M  V30 5191 H 468.138 -1.13196 6.0083 0
M  V30 5192 H 472.312 -0.759074 6.92251 0
M  V30 5193 H 469.939 -0.503011 7.58534 0
M  V30 5194 N 471.514 -1.37532 -0.769588 0
M  V30 5195 C 472.444 -1.36172 -1.89682 0
M  V30 5196 C 473.425 -0.23001 -1.68538 0
M  V30 5197 O 474.61 -0.43069 -1.89364 0
M  V30 5198 C 471.74 -1.1701 -3.26995 0
M  V30 5199 C 470.694 -2.27216 -3.62708 0
M  V30 5200 C 470.02 -1.93174 -4.98586 0
M  V30 5201 C 471.32 -3.6941 -3.69234 0
M  V30 5202 H 473.014 -2.30499 -1.91078 0
M  V30 5203 H 470.56 -1.10953 -0.917902 0
M  V30 5204 H 472.513 -1.14688 -4.05493 0
M  V30 5205 H 471.237 -0.191395 -3.26039 0
M  V30 5206 H 469.896 -2.28697 -2.86519 0
M  V30 5207 H 469.544 -0.938281 -4.94171 0
M  V30 5208 H 469.244 -2.66973 -5.23449 0
M  V30 5209 H 470.768 -1.92443 -5.79481 0
M  V30 5210 H 472.182 -3.70047 -4.37879 0
M  V30 5211 H 470.579 -4.4228 -4.05597 0
M  V30 5212 H 471.649 -4.0288 -2.69844 0
M  V30 5213 N 472.992 0.995999 -1.22138 0
M  V30 5214 C 473.939 2.08551 -0.988687 0
M  V30 5215 C 474.909 1.65864 0.0885021 0
M  V30 5216 O 476.094 1.90704 -0.0604589 0
M  V30 5217 C 473.234 3.40374 -0.569191 0
M  V30 5218 C 472.347 3.96421 -1.71681 0
M  V30 5219 C 471.482 5.1639 -1.2456 0
M  V30 5220 C 470.521 5.64567 -2.36497 0
M  V30 5221 N 469.658 6.75777 -1.90445 0
M  V30 5222 H 474.498 2.2779 -1.92135 0
M  V30 5223 H 472.035 1.1168 -0.957388 0
M  V30 5224 H 473.993 4.16068 -0.307166 0
M  V30 5225 H 472.623 3.21145 0.326462 0
M  V30 5226 H 471.675 3.17628 -2.09324 0
M  V30 5227 H 472.987 4.2816 -2.55891 0
M  V30 5228 H 472.141 5.99362 -0.940774 0
M  V30 5229 H 470.88 4.86266 -0.373662 0
M  V30 5230 H 469.885 4.80185 -2.67772 0
M  V30 5231 H 471.11 5.96716 -3.24202 0
M  V30 5232 H 469.056 6.47443 -1.05609 0
M  V30 5233 H 468.973 7.06818 -2.68223 0
M  V30 5234 H 470.241 7.62262 -1.63022 0
M  V30 5235 N 474.47 1.03057 1.19235 0
M  V30 5236 C 475.698 0.747697 1.92917 0
M  V30 5237 C 476.113 -0.69372 1.75593 0
M  V30 5238 O 475.47 -1.47191 1.07894 0
M  V30 5239 C 475.521 1.09159 3.44625 0
M  V30 5240 O 475.242 2.47641 3.61394 0
M  V30 5241 C 476.743 0.831763 4.35427 0
M  V30 5242 H 473.963 0.273453 0.612751 0
M  V30 5243 H 476.507 1.37552 1.51327 0
M  V30 5244 H 474.662 0.508919 3.84043 0
M  V30 5245 H 475.076 2.60499 4.55237 0
M  V30 5246 H 476.55 1.12233 5.4047 0
M  V30 5247 H 477.027 -0.233769 4.38577 0
M  V30 5248 H 477.633 1.39725 4.01693 0
M  V30 5249 N 475.948 -1.35272 0.808662 0
M  V30 5250 C 476.895 -2.29764 0.218482 0
M  V30 5251 C 477.865 -1.52911 -0.648652 0
M  V30 5252 O 479.05 -1.81341 -0.593297 0
M  V30 5253 C 476.19 -3.39388 -0.625282 0
M  V30 5254 C 475.303 -4.31202 0.262516 0
M  V30 5255 C 474.438 -5.27919 -0.589451 0
M  V30 5256 C 473.477 -6.11371 0.298617 0
M  V30 5257 N 472.614 -7.0022 -0.513443 0
M  V30 5258 H 477.454 -2.79645 1.02968 0
M  V30 5259 H 474.991 -1.37629 0.519303 0
M  V30 5260 H 476.949 -4.01615 -1.12966 0
M  V30 5261 H 475.579 -2.90777 -1.40173 0
M  V30 5262 H 474.631 -3.69962 0.885013 0
M  V30 5263 H 475.943 -4.89748 0.945971 0
M  V30 5264 H 475.097 -5.95529 -1.15888 0
M  V30 5265 H 473.836 -4.69875 -1.30647 0
M  V30 5266 H 472.841 -5.42707 0.880301 0
M  V30 5267 H 474.066 -6.71494 1.01352 0
M  V30 5268 H 472.012 -6.44662 -1.21439 0
M  V30 5269 H 471.929 -7.55917 0.111922 0
M  V30 5270 H 473.197 -7.72175 -1.06608 0
M  V30 5271 N 477.426 -0.562348 -1.47226 0
M  V30 5272 C 478.359 0.230405 -2.27034 0
M  V30 5273 C 479.337 0.915609 -1.3437 0
M  V30 5274 O 480.521 0.933573 -1.63758 0
M  V30 5275 C 477.648 1.32874 -3.11548 0
M  V30 5276 C 476.694 0.751552 -4.19826 0
M  V30 5277 S 477.527 -0.405848 -5.3396 0
M  V30 5278 C 478.683 0.694186 -6.22038 0
M  V30 5279 H 478.916 -0.446811 -2.93923 0
M  V30 5280 H 476.449 -0.348781 -1.50409 0
M  V30 5281 H 478.407 1.95773 -3.60809 0
M  V30 5282 H 477.068 1.97782 -2.44011 0
M  V30 5283 H 476.261 1.57651 -4.78709 0
M  V30 5284 H 475.863 0.198645 -3.73472 0
M  V30 5285 H 478.155 1.58501 -6.58698 0
M  V30 5286 H 479.098 0.142592 -7.07956 0
M  V30 5287 H 479.506 0.989169 -5.55766 0
M  V30 5288 N 478.904 1.54736 -0.299062 0
M  V30 5289 C 480.152 1.99706 0.31017 0
M  V30 5290 C 480.473 1.18896 1.54559 0
M  V30 5291 O 479.743 0.284445 1.93824 0
M  V30 5292 H 478.323 0.737686 0.117596 0
M  V30 5293 H 480.985 1.9054 -0.409943 0
M  V30 5294 H 480.081 3.06596 0.58355 0
M  V30 5295 N 480.382 0.0267497 1.57577 0
M  V30 5296 C 481.292 -0.971633 2.13533 0
M  V30 5297 C 482.308 -1.35868 1.08701 0
M  V30 5298 O 483.484 -1.44058 1.40746 0
M  V30 5299 C 480.549 -2.23622 2.64941 0
M  V30 5300 C 479.61 -1.90982 3.8448 0
M  V30 5301 C 478.843 -3.11411 4.33427 0
M  V30 5302 O 479.066 -4.23992 3.81558 0
M  V30 5303 O 478 -2.93848 5.25297 0
M  V30 5304 H 481.826 -0.525853 2.99113 0
M  V30 5305 H 479.411 -0.193712 1.48139 0
M  V30 5306 H 481.293 -2.97864 2.98086 0
M  V30 5307 H 479.968 -2.67386 1.82446 0
M  V30 5308 H 478.875 -1.14132 3.56265 0
M  V30 5309 H 480.208 -1.52036 4.6813 0
M  V30 5310 N 481.861 -1.55662 -0.24637 0
M  V30 5311 C 483.277 -1.48098 -0.594907 0
M  V30 5312 C 483.477 -0.717044 -1.8831 0
M  V30 5313 O 482.533 -0.246618 -2.51293 0
M  V30 5314 C 483.846 -2.92507 -0.697146 0
M  V30 5315 C 485.394 -3.02881 -0.789436 0
M  V30 5316 C 485.869 -4.48598 -0.923232 0
M  V30 5317 N 487.36 -4.52538 -0.988088 0
M  V30 5318 C 488.095 -5.62536 -1.11089 0
M  V30 5319 N 487.591 -6.82342 -1.19919 0
M  V30 5320 N 489.384 -5.50334 -1.14408 0
M  V30 5321 H 481.535 -2.0377 0.599278 0
M  V30 5322 H 483.798 -0.925145 0.20691 0
M  V30 5323 H 483.504 -3.51242 0.179396 0
M  V30 5324 H 483.378 -3.43024 -1.5689 0
M  V30 5325 H 485.765 -2.44226 -1.65643 0
M  V30 5326 H 485.846 -2.55574 0.107482 0
M  V30 5327 H 485.49 -5.07864 -0.0607927 0
M  V30 5328 H 485.42 -4.93587 -1.8352 0
M  V30 5329 H 487.911 -3.66248 -0.931167 0
M  V30 5330 H 488.224 -7.61924 -1.29197 0
M  V30 5331 H 486.569 -6.85102 -1.16876 0
M  V30 5332 H 489.76 -4.5567 -1.07158 0
M  V30 5333 H 489.933 -6.36096 -1.23634 0
M  V30 5334 N 483.339 0.512053 -1.4905 0
M  V30 5335 C 484.271 1.63121 -1.6101 0
M  V30 5336 C 485.284 1.55145 -0.493352 0
M  V30 5337 O 486.473 1.61278 -0.764955 0
M  V30 5338 C 483.573 3.01863 -1.54052 0
M  V30 5339 C 482.746 3.35138 -2.81072 0
M  V30 5340 C 481.805 4.5324 -2.67319 0
M  V30 5341 O 480.831 4.55571 -3.41238 0
M  V30 5342 N 482.033 5.52495 -1.78127 0
M  V30 5343 H 484.798 1.53292 -2.5753 0
M  V30 5344 H 482.359 0.699706 -1.45999 0
M  V30 5345 H 484.351 3.78774 -1.42521 0
M  V30 5346 H 482.921 3.05675 -0.654345 0
M  V30 5347 H 482.141 2.4723 -3.07036 0
M  V30 5348 H 483.429 3.54162 -3.65304 0
M  V30 5349 H 482.827 5.53403 -1.17308 0
M  V30 5350 H 481.384 6.28553 -1.72525 0
M  V30 5351 N 484.817 1.37938 0.762283 0
M  V30 5352 C 486.233 1.18945 1.06415 0
M  V30 5353 C 486.433 0.0321163 2.01474 0
M  V30 5354 O 485.489 -0.624844 2.44647 0
M  V30 5355 C 486.802 2.51218 1.65258 0
M  V30 5356 C 488.35 2.57824 1.7747 0
M  V30 5357 C 488.825 3.90251 2.39725 0
M  V30 5358 N 490.316 3.91744 2.47166 0
M  V30 5359 C 491.051 4.90966 2.96209 0
M  V30 5360 N 490.547 6.00585 3.45354 0
M  V30 5361 N 492.34 4.78363 2.9517 0
M  V30 5362 H 484.491 2.11994 0.131301 0
M  V30 5363 H 486.754 0.940262 0.120879 0
M  V30 5364 H 486.46 3.36317 1.02878 0
M  V30 5365 H 486.334 2.68989 2.64433 0
M  V30 5366 H 488.721 1.73126 2.3898 0
M  V30 5367 H 488.802 2.43928 0.770241 0
M  V30 5368 H 488.446 4.75368 1.78852 0
M  V30 5369 H 488.376 4.01454 3.40796 0
M  V30 5370 H 490.867 3.12563 2.12397 0
M  V30 5371 H 491.18 6.72236 3.81207 0
M  V30 5372 H 489.525 6.04217 3.43434 0
M  V30 5373 H 492.716 3.91841 2.56082 0
M  V30 5374 H 492.889 5.55843 3.33081 0
M  V30 5375 N 486.295 -0.989507 1.22664 0
M  V30 5376 C 487.258 -2.06183 1.00106 0
M  V30 5377 C 488.258 -1.60765 -0.0337726 0
M  V30 5378 O 489.448 -1.72989 0.205072 0
M  V30 5379 C 486.58 -3.37021 0.51279 0
M  V30 5380 H 487.773 -2.27629 1.95256 0
M  V30 5381 H 485.326 -1.16158 1.0458 0
M  V30 5382 H 486.061 -3.21261 -0.442917 0
M  V30 5383 H 485.846 -3.71323 1.25942 0
M  V30 5384 H 487.336 -4.1591 0.375315 0
M  V30 5385 N 487.773 -1.03688 -1.18687 0
M  V30 5386 C 489.021 -0.736572 -1.88199 0
M  V30 5387 C 489.342 0.737665 -1.80509 0
M  V30 5388 O 488.612 1.53204 -1.22088 0
M  V30 5389 H 487.192 -0.269466 -0.696704 0
M  V30 5390 H 489.854 -1.31282 -1.44052 0
M  V30 5391 H 488.95 -1.03802 -2.94332 0
M  V30 5392 N 489.251 1.34841 -0.815825 0
M  V30 5393 C 490.161 2.33425 -0.234462 0
M  V30 5394 C 491.177 1.62295 0.627413 0
M  V30 5395 O 492.353 1.94109 0.536987 0
M  V30 5396 C 489.418 3.41471 0.599849 0
M  V30 5397 C 488.479 4.28362 -0.283596 0
M  V30 5398 C 487.712 5.31248 0.51099 0
M  V30 5399 O 487.935 5.43056 1.7449 0
M  V30 5400 O 486.869 6.01812 -0.10297 0
M  V30 5401 H 490.695 2.84962 -1.05024 0
M  V30 5402 H 488.28 1.37774 -0.577809 0
M  V30 5403 H 490.162 4.07464 1.07475 0
M  V30 5404 H 488.837 2.9219 1.39308 0
M  V30 5405 H 487.744 3.65318 -0.805836 0
M  V30 5406 H 489.077 4.81066 -1.041 0
M  V30 5407 N 490.729 0.570148 1.46925 0
M  V30 5408 C 491.662 -0.218362 2.27153 0
M  V30 5409 C 492.64 -0.90847 1.34854 0
M  V30 5410 O 493.824 -0.924875 1.64251 0
M  V30 5411 C 490.951 -1.3122 3.12248 0
M  V30 5412 C 489.997 -0.729277 4.20219 0
M  V30 5413 S 490.83 0.434159 5.33737 0
M  V30 5414 C 491.986 -0.661188 6.22398 0
M  V30 5415 H 492.219 0.462393 2.93682 0
M  V30 5416 H 489.752 0.356753 1.50222 0
M  V30 5417 H 491.71 -1.93856 3.61842 0
M  V30 5418 H 490.371 -1.96485 2.45056 0
M  V30 5419 H 489.564 -1.5511 4.79538 0
M  V30 5420 H 489.166 -0.178836 3.73572 0
M  V30 5421 H 491.458 -1.55006 6.5953 0
M  V30 5422 H 492.401 -0.105046 7.08022 0
M  V30 5423 H 492.809 -0.959682 5.56283 0
M  V30 5424 N 492.207 -1.54576 0.307264 0
M  V30 5425 C 493.435 -2.04675 -0.302597 0
M  V30 5426 C 493.85 -1.18425 -1.47041 0
M  V30 5427 O 493.207 -0.211257 -1.81273 0
M  V30 5428 C 493.258 -3.53575 -0.752801 0
M  V30 5429 O 492.979 -4.36547 0.368536 0
M  V30 5430 C 494.48 -4.19699 -1.42717 0
M  V30 5431 H 491.7 -0.66786 -0.0648374 0
M  V30 5432 H 494.244 -1.99516 0.448716 0
M  V30 5433 H 492.399 -3.59074 -1.45412 0
M  V30 5434 H 492.813 -5.24497 0.0168937 0
M  V30 5435 H 494.287 -5.25388 -1.69327 0
M  V30 5436 H 494.764 -3.69815 -2.36925 0
M  V30 5437 H 495.37 -4.18293 -0.768856 0
M  V30 5438 N 493.685 -0.035106 -1.57561 0
M  V30 5439 C 494.962 0.681212 -1.83354 0
M  V30 5440 C 495.342 1.89986 -0.920252 0
M  V30 5441 O 494.69 2.28489 0.0226815 0
M  V30 5442 C 494.9 1.05376 -3.32712 0
M  V30 5443 C 496.248 1.44286 -3.99333 0
M  V30 5444 O 497.272 1.14656 -3.37242 0
M  V30 5445 O 496.131 1.99518 -5.08778 0
M  V30 5446 H 493.225 0.334741 -0.756226 0
M  V30 5447 H 495.771 -0.0632448 -1.69582 0
M  V30 5448 H 494.543 0.186668 -3.90854 0
M  V30 5449 H 494.166 1.85619 -3.51613 0
M  V30 5450 N 495.163 1.55791 0.238111 0
M  V30 5451 C 496.409 1.78297 0.966337 0
M  V30 5452 C 496.742 0.601903 1.84637 0
M  V30 5453 O 496.017 -0.399499 1.90353 0
M  V30 5454 C 496.3 3.10758 1.81939 0
M  V30 5455 C 496.153 4.39283 0.966958 0
M  V30 5456 C 497.472 3.39519 2.80027 0
M  V30 5457 H 494.591 0.648654 0.349882 0
M  V30 5458 H 497.233 1.88525 0.236253 0
M  V30 5459 H 495.383 3.02168 2.44185 0
M  V30 5460 H 497.055 4.59873 0.362514 0
M  V30 5461 H 495.298 4.32948 0.271669 0
M  V30 5462 H 495.969 5.28368 1.59784 0
M  V30 5463 H 498.445 3.48128 2.27917 0
M  V30 5464 H 497.321 4.33402 3.36829 0
M  V30 5465 H 497.582 2.60864 3.56934 0
M  V30 5466 N 496.642 -0.504142 1.49319 0
M  V30 5467 C 497.572 -1.61473 1.68667 0
M  V30 5468 C 498.553 -1.61455 0.535378 0
M  V30 5469 O 499.738 -1.78245 0.770868 0
M  V30 5470 C 496.868 -2.99971 1.75028 0
M  V30 5471 C 495.822 -3.14854 2.89916 0
M  V30 5472 C 495.148 -4.54671 2.81387 0
M  V30 5473 C 496.448 -2.95176 4.30893 0
M  V30 5474 H 498.142 -1.45535 2.61648 0
M  V30 5475 H 495.688 -0.698711 1.25913 0
M  V30 5476 H 497.641 -3.77562 1.8715 0
M  V30 5477 H 496.365 -3.1699 0.786441 0
M  V30 5478 H 495.024 -2.39687 2.77391 0
M  V30 5479 H 494.672 -4.68562 1.82917 0
M  V30 5480 H 494.372 -4.6557 3.58494 0
M  V30 5481 H 495.896 -5.34327 2.95512 0
M  V30 5482 H 497.31 -3.62538 4.44116 0
M  V30 5483 H 495.707 -3.17549 5.09198 0
M  V30 5484 H 496.777 -1.91332 4.45556 0
M  V30 5485 N 498.12 -1.38341 -0.754957 0
M  V30 5486 C 499.531 -1.30803 -1.3322 0
M  V30 5487 C 499.882 0.0368 -1.96165 0
M  V30 5488 O 499.007 0.938844 -1.94974 0
M  V30 5489 C 499.602 -2.3688 -2.42225 0
M  V30 5490 C 498.161 -2.32925 -2.95674 0
M  V30 5491 C 497.308 -2.19819 -1.69042 0
M  V30 5492 H 500.259 -1.48719 -0.553937 0
M  V30 5493 H 500.28 -2.02517 -3.22129 0
M  V30 5494 H 499.792 -3.34747 -1.96383 0
M  V30 5495 H 497.893 -1.38635 -3.45848 0
M  V30 5496 H 498.006 -3.27008 -3.50146 0
M  V30 5497 H 496.37 -1.66648 -1.92615 0
M  V30 5498 H 497.153 -3.19625 -1.25279 0
M  V30 5499 N 499.598 0.982988 -1.23187 0
M  V30 5500 C 500.823 1.76455 -1.08988 0
M  V30 5501 C 501.248 1.84726 0.354691 0
M  V30 5502 O 500.606 1.30699 1.25649 0
M  V30 5503 C 500.654 3.17094 -1.71708 0
M  V30 5504 O 499.758 4.00648 -0.977477 0
M  V30 5505 H 499.099 0.542988 -0.382177 0
M  V30 5506 H 501.629 1.23413 -1.63188 0
M  V30 5507 H 501.639 3.67684 -1.76841 0
M  V30 5508 H 500.314 3.10389 -2.76823 0
M  V30 5509 H 498.891 3.59161 -1.0029 0
M  V30 5510 N 501.076 1.04316 1.18135 0
M  V30 5511 C 502.008 0.594444 2.21357 0
M  V30 5512 C 503.021 -0.337215 1.59269 0
M  V30 5513 O 504.21 -0.131337 1.78016 0
M  V30 5514 C 501.31 -0.151251 3.38562 0
M  V30 5515 C 500.483 0.788907 4.30227 0
M  V30 5516 C 499.542 0.0860572 5.2613 0
M  V30 5517 O 498.568 0.717302 5.64662 0
M  V30 5518 N 499.77 -1.17969 5.68387 0
M  V30 5519 H 502.535 1.48227 2.60478 0
M  V30 5520 H 500.096 0.92396 1.32946 0
M  V30 5521 H 502.088 -0.631352 3.99745 0
M  V30 5522 H 500.658 -0.940639 2.98112 0
M  V30 5523 H 499.878 1.44882 3.6661 0
M  V30 5524 H 501.166 1.42738 4.88368 0
M  V30 5525 H 500.564 -1.71302 5.3914 0
M  V30 5526 H 499.121 -1.60402 6.31755 0
M  V30 5527 N 502.554 -1.34406 0.822964 0
M  V30 5528 C 503.97 -1.51275 0.508727 0
M  V30 5529 C 504.17 -1.76776 -0.967083 0
M  V30 5530 O 503.226 -1.81871 -1.75155 0
M  V30 5531 C 504.539 -2.67765 1.36829 0
M  V30 5532 C 506.087 -2.81647 1.36542 0
M  V30 5533 C 506.562 -4.01181 2.20947 0
M  V30 5534 N 508.053 -4.08388 2.18571 0
M  V30 5535 C 508.788 -5.00036 2.80627 0
M  V30 5536 N 508.284 -5.96906 3.51674 0
M  V30 5537 N 510.077 -4.92908 2.70181 0
M  V30 5538 H 502.228 -1.16113 1.77852 0
M  V30 5539 H 504.491 -0.56947 0.757897 0
M  V30 5540 H 504.197 -2.55551 2.41633 0
M  V30 5541 H 504.071 -3.62779 1.03303 0
M  V30 5542 H 506.458 -2.93303 0.325163 0
M  V30 5543 H 506.539 -1.87443 1.74066 0
M  V30 5544 H 506.183 -3.90286 3.25022 0
M  V30 5545 H 506.113 -4.94599 1.80774 0
M  V30 5546 H 508.604 -3.39051 1.66891 0
M  V30 5547 H 508.917 -6.63468 3.96271 0
M  V30 5548 H 507.262 -5.9703 3.5578 0
M  V30 5549 H 510.453 -4.1619 2.14251 0
M  V30 5550 H 510.626 -5.64137 3.18831 0
M  V30 5551 N 504.032 -0.577932 -1.46621 0
M  V30 5552 C 505.262 -0.0670668 -2.06491 0
M  V30 5553 C 505.67 1.24119 -1.42798 0
M  V30 5554 O 505.013 1.76016 -0.525759 0
M  V30 5555 C 505.075 0.177995 -3.59059 0
M  V30 5556 C 504.739 -1.04394 -4.44917 0
M  V30 5557 C 505.736 -1.95479 -4.81751 0
M  V30 5558 C 503.421 -1.26444 -4.86125 0
M  V30 5559 C 505.415 -3.06965 -5.58615 0
M  V30 5560 C 503.102 -2.38237 -5.62749 0
M  V30 5561 C 504.1 -3.28327 -5.98908 0
M  V30 5562 O 503.788 -4.38179 -6.73984 0
M  V30 5563 H 503.52 -0.0523159 -0.673973 0
M  V30 5564 H 506.074 -0.796966 -1.89308 0
M  V30 5565 H 504.304 0.962451 -3.74531 0
M  V30 5566 H 505.993 0.636782 -4.00874 0
M  V30 5567 H 506.759 -1.79657 -4.50498 0
M  V30 5568 H 502.638 -0.572316 -4.57434 0
M  V30 5569 H 506.182 -3.77309 -5.86757 0
M  V30 5570 H 502.079 -2.54023 -5.93416 0
M  V30 5571 H 502.847 -4.36486 -6.92403 0
M  V30 5572 N 505.51 1.54411 -0.315457 0
M  V30 5573 C 506.458 2.25514 0.569771 0
M  V30 5574 C 507.452 1.2663 1.12522 0
M  V30 5575 O 508.658 1.44434 1.07419 0
M  V30 5576 H 505.033 0.724257 0.202376 0
M  V30 5577 H 507.004 2.98354 -0.0522895 0
M  V30 5578 C 505.753 3.02004 1.72305 0
M  V30 5579 H 505.076 3.77906 1.30488 0
M  V30 5580 H 506.516 3.55014 2.31821 0
M  V30 5581 C 504.975 2.09822 2.63583 0
M  V30 5582 O 505.505 1.67574 3.65078 0
M  V30 5583 N 503.711 1.75478 2.31637 0
M  V30 5584 H 503.258 2.10032 1.49145 0
M  V30 5585 H 503.216 1.14079 2.92973 0
M  V30 5586 N 506.988 0.0434614 1.5754 0
M  V30 5587 C 507.951 -0.918696 2.09982 0
M  V30 5588 C 508.951 -1.24488 1.01781 0
M  V30 5589 O 510.141 -1.18284 1.27885 0
M  V30 5590 C 507.273 -2.23093 2.57764 0
M  V30 5591 H 508.466 -0.464229 2.96285 0
M  V30 5592 H 506.019 -0.204818 1.54952 0
M  V30 5593 H 506.754 -2.73137 1.74832 0
M  V30 5594 H 506.539 -2.00724 3.36827 0
M  V30 5595 H 508.029 -2.92028 2.98512 0
M  V30 5596 N 508.466 -1.55915 -0.229846 0
M  V30 5597 C 509.416 -1.8813 -1.28807 0
M  V30 5598 C 510.4 -0.743621 -1.42685 0
M  V30 5599 O 511.592 -1.00588 -1.4564 0
M  V30 5600 C 508.721 -2.19431 -2.64017 0
M  V30 5601 C 507.807 -3.39569 -2.54074 0
M  V30 5602 N 508.198 -4.58404 -2.13774 0
M  V30 5603 C 506.496 -3.43019 -2.85051 0
M  V30 5604 C 507.197 -5.40557 -2.1488 0
M  V30 5605 N 506.173 -4.80054 -2.55047 0
M  V30 5606 H 509.975 -2.77527 -0.967261 0
M  V30 5607 H 507.489 -1.5637 -0.438433 0
M  V30 5608 H 509.486 -2.40681 -3.40409 0
M  V30 5609 H 508.146 -1.31341 -2.9695 0
M  V30 5610 H 509.157 -4.83716 -1.8504 0
M  V30 5611 H 505.834 -2.65249 -3.22411 0
M  V30 5612 H 507.224 -6.45666 -1.85918 0
M  V30 5613 N 509.944 0.496216 -1.49584 0
M  V30 5614 C 510.877 1.61508 -1.61215 0
M  V30 5615 C 511.855 1.55927 -0.461045 0
M  V30 5616 O 513.039 1.75914 -0.677231 0
M  V30 5617 C 510.166 3.00035 -1.57152 0
M  V30 5618 C 509.212 3.23861 -2.77518 0
M  V30 5619 S 510.045 3.06466 -4.39134 0
M  V30 5620 C 511.201 4.4738 -4.37724 0
M  V30 5621 H 511.434 1.51398 -2.55863 0
M  V30 5622 H 508.967 0.681727 -1.38535 0
M  V30 5623 H 510.925 3.7991 -1.55494 0
M  V30 5624 H 509.586 3.07556 -0.637834 0
M  V30 5625 H 508.779 4.25 -2.70908 0
M  V30 5626 H 508.381 2.51716 -2.76614 0
M  V30 5627 H 510.673 5.39556 -4.09738 0
M  V30 5628 H 511.616 4.59038 -5.39156 0
M  V30 5629 H 512.024 4.28283 -3.67742 0
M  V30 5630 N 511.423 1.38739 0.74761 0
M  V30 5631 C 512.669 1.35475 1.50912 0
M  V30 5632 C 513.002 -0.0533093 1.94127 0
M  V30 5633 O 512.277 -1.01572 1.65871 0
M  V30 5634 C 512.56 2.31582 2.75757 0
M  V30 5635 C 512.413 3.81274 2.38642 0
M  V30 5636 C 513.732 2.25722 3.77806 0
M  V30 5637 H 510.851 0.493427 0.547447 0
M  V30 5638 H 513.493 1.69634 0.855823 0
M  V30 5639 H 511.643 2.02582 3.31501 0
M  V30 5640 H 513.315 4.20972 1.88626 0
M  V30 5641 H 511.558 3.98664 1.71025 0
M  V30 5642 H 512.229 4.4399 3.27989 0
M  V30 5643 H 514.705 2.51336 3.31616 0
M  V30 5644 H 513.581 2.95069 4.62845 0
M  V30 5645 H 513.842 1.25803 4.23823 0
M  V30 5646 N 512.901 -0.976442 1.23707 0
M  V30 5647 C 514.312 -1.53284 1.06587 0
M  V30 5648 C 514.663 -1.92765 -0.365526 0
M  V30 5649 O 513.788 -1.7645 -1.25277 0
M  V30 5650 C 514.383 -2.78548 1.92864 0
M  V30 5651 C 512.942 -3.30574 1.79994 0
M  V30 5652 C 512.089 -2.03538 1.88328 0
M  V30 5653 H 515.04 -0.795692 1.37311 0
M  V30 5654 H 515.061 -3.5155 1.45577 0
M  V30 5655 H 514.573 -2.49782 2.97037 0
M  V30 5656 H 512.674 -3.64211 0.786202 0
M  V30 5657 H 512.787 -4.00065 2.636 0
M  V30 5658 H 511.151 -2.17853 1.31954 0
M  V30 5659 H 511.934 -1.77149 2.94063 0
M  V30 5660 N 514.379 -1.04941 -1.1758 0
M  V30 5661 C 515.289 -0.658826 -2.25159 0
M  V30 5662 C 516.305 0.318941 -1.71052 0
M  V30 5663 O 517.481 0.171669 -2.00667 0
M  V30 5664 C 514.546 -0.0369522 -3.4668 0
M  V30 5665 C 513.607 -1.06484 -4.15884 0
M  V30 5666 C 512.84 -0.472551 -5.31604 0
M  V30 5667 O 513.063 0.718736 -5.65854 0
M  V30 5668 O 511.997 -1.20557 -5.89703 0
M  V30 5669 H 515.823 -1.55533 -2.60851 0
M  V30 5670 H 513.408 -0.820819 -1.24832 0
M  V30 5671 H 515.29 0.308784 -4.20267 0
M  V30 5672 H 513.965 0.833238 -3.12792 0
M  V30 5673 H 512.872 -1.46253 -3.44327 0
M  V30 5674 H 514.205 -1.9061 -4.53794 0
M  V30 5675 N 515.857 1.33968 -0.830081 0
M  V30 5676 C 517.134 1.92554 -0.343858 0
M  V30 5677 C 517.514 1.7573 1.16971 0
M  V30 5678 O 516.862 1.14035 1.98011 0
M  V30 5679 C 517.072 3.40147 -0.781073 0
M  V30 5680 C 518.42 4.17299 -0.78402 0
M  V30 5681 O 519.444 3.48762 -0.724112 0
M  V30 5682 O 518.303 5.39631 -0.863739 0
M  V30 5683 H 515.397 0.821469 -0.0954827 0
M  V30 5684 H 517.943 1.42897 -0.915348 0
M  V30 5685 H 516.715 3.46225 -1.82329 0
M  V30 5686 H 516.338 3.97166 -0.18567 0
M  V30 5687 N 517.335 0.585699 1.46312 0
M  V30 5688 C 518.583 0.072278 2.01971 0
M  V30 5689 C 518.904 -1.29345 1.45928 0
M  V30 5690 O 518.174 -1.84973 0.645109 0
M  V30 5691 H 516.754 0.023729 0.746623 0
M  V30 5692 H 519.416 0.762155 1.7938 0
M  V30 5693 H 518.512 0.00552767 3.121 0
M  V30 5694 N 518.813 -1.54241 0.323641 0
M  V30 5695 C 519.761 -2.25813 -0.557804 0
M  V30 5696 C 520.755 -1.27225 -1.11849 0
M  V30 5697 O 521.961 -1.45001 -1.06652 0
M  V30 5698 H 518.336 -0.72532 -0.198532 0
M  V30 5699 H 520.307 -2.98322 0.0681112 0
M  V30 5700 C 519.056 -3.02913 -1.70701 0
M  V30 5701 H 518.379 -3.78593 -1.28482 0
M  V30 5702 H 519.819 -3.56238 -2.29935 0
M  V30 5703 C 518.278 -2.11217 -2.62467 0
M  V30 5704 O 518.808 -1.69508 -3.64184 0
M  V30 5705 N 517.014 -1.76704 -2.30703 0
M  V30 5706 H 516.561 -2.1082 -1.48029 0
M  V30 5707 H 516.519 -1.15631 -2.92364 0
M  V30 5708 N 520.291 -0.0518155 -1.57515 0
M  V30 5709 C 521.221 0.920283 -2.146 0
M  V30 5710 C 522.202 1.32406 -1.06783 0
M  V30 5711 O 523.387 1.39866 -1.34726 0
M  V30 5712 C 520.517 2.1949 -2.6915 0
M  V30 5713 C 519.471 1.93116 -3.81956 0
M  V30 5714 C 518.797 3.27037 -4.23026 0
M  V30 5715 C 520.097 1.25225 -5.07066 0
M  V30 5716 H 521.791 0.444801 -2.96077 0
M  V30 5717 H 519.337 0.212508 -1.42423 0
M  V30 5718 H 521.29 2.87894 -3.07725 0
M  V30 5719 H 520.014 2.69244 -1.84865 0
M  V30 5720 H 518.673 1.27123 -3.43854 0
M  V30 5721 H 518.321 3.74595 -3.3569 0
M  V30 5722 H 518.021 3.10189 -4.99056 0
M  V30 5723 H 519.545 3.96673 -4.64202 0
M  V30 5724 H 520.959 1.83666 -5.43083 0
M  V30 5725 H 519.356 1.18702 -5.88243 0
M  V30 5726 H 520.426 0.228382 -4.84362 0
M  V30 5727 N 521.769 1.56035 0.221574 0
M  V30 5728 C 522.997 1.8313 0.962864 0
M  V30 5729 C 523.412 0.630934 1.77946 0
M  V30 5730 O 522.769 -0.400519 1.78051 0
M  V30 5731 C 522.82 3.08742 1.88045 0
M  V30 5732 O 522.541 4.24147 1.09686 0
M  V30 5733 C 524.042 3.48824 2.73563 0
M  V30 5734 H 521.262 0.608775 0.282194 0
M  V30 5735 H 523.806 2.03124 0.23681 0
M  V30 5736 H 521.961 2.90723 2.56045 0
M  V30 5737 H 522.375 4.95505 1.71974 0
M  V30 5738 H 523.849 4.39752 3.3365 0
M  V30 5739 H 524.326 2.70575 3.45956 0
M  V30 5740 H 524.932 3.69282 2.10976 0
M  V30 5741 N 523.247 -0.488276 1.49845 0
M  V30 5742 C 524.487 -1.2516 1.61599 0
M  V30 5743 C 524.851 -1.89615 0.301706 0
M  V30 5744 O 526.052 -2.67182 0.29453 0
M  V30 5745 C 524.323 -2.2805 2.75187 0
M  V30 5746 S 525.882 -3.13552 3.0697 0
M  V30 5747 H 522.7 -0.425178 0.569864 0
M  V30 5748 H 525.302 -0.551545 1.87559 0
M  V30 5749 H 524.006 -1.7925 3.69185 0
M  V30 5750 H 523.537 -3.02708 2.5126 0
M  V30 5751 H 525.552 -4.28927 2.49471 0
M  V30 5752 N 524.725 -1.39134 -0.740242 0
M  V30 5753 C 525.95 -1.39518 -1.53459 0
M  V30 5754 C 526.375 0.00968883 -1.88098 0
M  V30 5755 O 525.733 0.995312 -1.51536 0
M  V30 5756 C 525.781 -2.26981 -2.802 0
M  V30 5757 O 524.885 -1.69609 -3.75908 0
M  V30 5758 H 524.226 -0.475328 -0.463637 0
M  V30 5759 H 526.756 -1.83064 -0.913717 0
M  V30 5760 H 526.766 -2.41309 -3.28989 0
M  V30 5761 H 525.441 -3.29081 -2.5432 0
M  V30 5762 H 524.018 -1.64495 -3.34658 0
M  V30 5763 N 526.204 0.969867 -1.24223 0
M  V30 5764 C 527.114 2.09806 -1.0497 0
M  V30 5765 C 528.13 1.73998 0.00886455 0
M  V30 5766 O 529.306 2.00513 -0.188848 0
M  V30 5767 C 526.371 3.40467 -0.654452 0
M  V30 5768 C 525.432 3.90236 -1.78926 0
M  V30 5769 C 524.665 5.14662 -1.41277 0
M  V30 5770 O 524.888 5.69602 -0.301632 0
M  V30 5771 O 523.822 5.58761 -2.23763 0
M  V30 5772 H 527.648 2.28942 -1.99548 0
M  V30 5773 H 525.233 1.08197 -1.03023 0
M  V30 5774 H 527.115 4.19039 -0.445452 0
M  V30 5775 H 525.79 3.22636 0.262216 0
M  V30 5776 H 524.697 3.12735 -2.05299 0
M  V30 5777 H 526.03 4.1254 -2.68462 0
M  V30 5778 N 527.682 1.05563 1.17022 0
M  V30 5779 C 528.645 0.664098 2.19368 0
M  V30 5780 C 529.645 -0.286358 1.5823 0
M  V30 5781 O 530.835 -0.069728 1.7406 0
M  V30 5782 C 527.967 -0.0239932 3.40892 0
M  V30 5783 H 529.16 1.57 2.55521 0
M  V30 5784 H 526.713 0.849964 1.31169 0
M  V30 5785 H 527.448 -0.942988 3.10287 0
M  V30 5786 H 527.233 0.659351 3.86516 0
M  V30 5787 H 528.723 -0.283909 4.16634 0
M  V30 5788 N 529.16 -1.33526 0.837174 0
M  V30 5789 C 530.408 -1.97446 0.431211 0
M  V30 5790 C 530.729 -1.6665 -1.01255 0
M  V30 5791 O 529.999 -0.964559 -1.70508 0
M  V30 5792 H 528.579 -0.73043 0.156463 0
M  V30 5793 H 531.241 -1.62918 1.06976 0
M  V30 5794 H 530.337 -3.07001 0.561877 0
M  V30 5795 N 530.638 -0.59345 -1.46 0
M  V30 5796 C 531.884 -0.0832754 -2.02629 0
M  V30 5797 C 532.217 1.27749 -1.46266 0
M  V30 5798 O 531.492 1.8395 -0.631866 0
M  V30 5799 C 531.775 -0.0290756 -3.60088 0
M  V30 5800 C 531.628 -1.41951 -4.26814 0
M  V30 5801 C 532.947 0.666055 -4.35031 0
M  V30 5802 H 530.066 -0.031736 -0.736316 0
M  V30 5803 H 532.708 -0.762711 -1.74019 0
M  V30 5804 H 530.858 0.549532 -3.84594 0
M  V30 5805 H 532.53 -2.04411 -4.13538 0
M  V30 5806 H 530.773 -1.98422 -3.8576 0
M  V30 5807 H 531.444 -1.33395 -5.3564 0
M  V30 5808 H 533.92 0.174401 -4.15734 0
M  V30 5809 H 532.796 0.673041 -5.44758 0
M  V30 5810 H 533.057 1.72946 -4.06869 0
M  V30 5811 N 532.116 1.54067 -0.331816 0
M  V30 5812 C 533.346 2.04833 0.269605 0
M  V30 5813 C 533.754 1.20714 1.45687 0
M  V30 5814 O 533.097 0.232539 1.82222 0
M  V30 5815 C 533.159 3.51386 0.759499 0
M  V30 5816 C 532.823 4.55971 -0.306557 0
M  V30 5817 C 533.82 5.07126 -1.14538 0
M  V30 5818 C 531.505 5.00216 -0.457116 0
M  V30 5819 C 533.499 6.01096 -2.12042 0
M  V30 5820 C 531.186 5.93999 -1.43556 0
M  V30 5821 C 532.184 6.44326 -2.26568 0
M  V30 5822 O 531.872 7.36267 -3.22749 0
M  V30 5823 H 531.604 0.673509 0.0579763 0
M  V30 5824 H 534.158 1.99748 -0.478521 0
M  V30 5825 H 532.388 3.53896 1.55867 0
M  V30 5826 H 534.077 3.85184 1.28017 0
M  V30 5827 H 534.843 4.73716 -1.04009 0
M  V30 5828 H 530.722 4.60652 0.179142 0
M  V30 5829 H 534.266 6.40302 -2.76873 0
M  V30 5830 H 530.163 6.26825 -1.54146 0
M  V30 5831 H 530.931 7.54165 -3.18083 0
M  V30 5832 N 533.594 0.0601682 1.57485 0
M  V30 5833 C 534.84 -0.612501 1.93329 0
M  V30 5834 C 535.173 -1.6996 0.939526 0
M  V30 5835 O 534.448 -1.94472 -0.0330957 0
M  V30 5836 C 534.731 -1.20025 3.39508 0
M  V30 5837 C 534.584 -0.12059 4.49638 0
M  V30 5838 C 535.903 -2.10923 3.86264 0
M  V30 5839 H 533.022 -0.221185 0.703027 0
M  V30 5840 H 535.664 0.123768 1.89596 0
M  V30 5841 H 533.814 -1.82774 3.42821 0
M  V30 5842 H 535.486 0.51185 4.58452 0
M  V30 5843 H 533.729 0.550251 4.30296 0
M  V30 5844 H 534.4 -0.572019 5.49028 0
M  V30 5845 H 536.876 -1.58124 3.84884 0
M  V30 5846 H 535.752 -2.48987 4.8918 0
M  V30 5847 H 536.013 -3.01292 3.23536 0
M  V30 5848 N 535.072 -1.5615 -0.213296 0
M  V30 5849 C 536.002 -1.96109 -1.26742 0
M  V30 5850 C 536.983 -0.830448 -1.48451 0
M  V30 5851 O 538.168 -1.09339 -1.60495 0
M  V30 5852 C 535.298 -2.28492 -2.61551 0
M  V30 5853 C 534.252 -3.44124 -2.54485 0
M  V30 5854 C 533.578 -3.62134 -3.93399 0
M  V30 5855 C 534.878 -4.78855 -2.08556 0
M  V30 5856 H 536.572 -2.84412 -0.935434 0
M  V30 5857 H 534.118 -1.36836 -0.44854 0
M  V30 5858 H 536.071 -2.55039 -3.3546 0
M  V30 5859 H 534.795 -1.37052 -2.96453 0
M  V30 5860 H 533.454 -3.17639 -1.83033 0
M  V30 5861 H 533.102 -2.68055 -4.25623 0
M  V30 5862 H 532.802 -4.39913 -3.89551 0
M  V30 5863 H 534.326 -3.91038 -4.68958 0
M  V30 5864 H 535.74 -5.04552 -2.72213 0
M  V30 5865 H 534.137 -5.59975 -2.1575 0
M  V30 5866 H 535.207 -4.73657 -1.03811 0
M  V30 5867 N 536.55 0.480323 -1.50102 0
M  V30 5868 C 537.966 0.813295 -1.37323 0
M  V30 5869 C 538.166 1.97027 -0.422206 0
M  V30 5870 O 537.222 2.5212 0.138563 0
M  V30 5871 C 538.535 1.13404 -2.78496 0
M  V30 5872 C 540.083 1.24104 -2.87345 0
M  V30 5873 C 540.558 1.59497 -4.29331 0
M  V30 5874 N 542.049 1.66507 -4.32238 0
M  V30 5875 C 542.784 1.95378 -5.39087 0
M  V30 5876 N 542.28 2.22333 -6.56155 0
M  V30 5877 N 544.073 1.96803 -5.26522 0
M  V30 5878 H 536.224 -0.282291 -2.10516 0
M  V30 5879 H 538.487 -0.063752 -0.945854 0
M  V30 5880 H 538.193 0.357064 -3.49883 0
M  V30 5881 H 538.067 2.07251 -3.15162 0
M  V30 5882 H 540.454 2.00871 -2.16183 0
M  V30 5883 H 540.535 0.282593 -2.54234 0
M  V30 5884 H 540.179 0.832736 -5.01027 0
M  V30 5885 H 540.109 2.56477 -4.59921 0
M  V30 5886 H 542.6 1.47753 -3.47818 0
M  V30 5887 H 542.913 2.43611 -7.33399 0
M  V30 5888 H 541.258 2.19745 -6.59346 0
M  V30 5889 H 544.449 1.75235 -4.34062 0
M  V30 5890 H 544.622 2.18969 -6.09883 0
M  V30 5891 N 538.028 1.39524 0.732853 0
M  V30 5892 C 539.275 1.36865 1.49246 0
M  V30 5893 C 539.603 -0.0347118 1.94469 0
M  V30 5894 O 538.858 -1.01596 1.67262 0
M  V30 5895 C 539.157 2.28916 2.74468 0
M  V30 5896 C 538.823 3.76506 2.481 0
M  V30 5897 C 537.485 4.16721 2.40619 0
M  V30 5898 C 539.837 4.69846 2.25598 0
M  V30 5899 C 537.165 5.48334 2.08679 0
M  V30 5900 C 539.517 6.01739 1.95174 0
M  V30 5901 C 538.181 6.41015 1.86163 0
M  V30 5902 H 537.451 0.500824 0.546129 0
M  V30 5903 H 540.098 1.72047 0.840958 0
M  V30 5904 H 538.403 1.86859 3.4437 0
M  V30 5905 H 540.1 2.2415 3.32502 0
M  V30 5906 H 536.69 3.44635 2.54803 0
M  V30 5907 H 540.874 4.39608 2.30344 0
M  V30 5908 H 536.13 5.77685 2.00226 0
M  V30 5909 H 540.304 6.73591 1.76771 0
M  V30 5910 H 537.931 7.42917 1.61179 0
M  V30 5911 N 539.506 -0.963266 1.24736 0
M  V30 5912 C 540.783 -1.68248 0.9976 0
M  V30 5913 C 541.163 -2.05599 -0.478776 0
M  V30 5914 O 540.511 -1.7626 -1.45412 0
M  V30 5915 C 540.721 -2.91118 1.92487 0
M  V30 5916 C 542.069 -3.63261 2.19833 0
M  V30 5917 O 543.093 -3.01184 1.90176 0
M  V30 5918 O 541.952 -4.75019 2.7022 0
M  V30 5919 H 539.046 -0.735744 0.377637 0
M  V30 5920 H 541.592 -1.01696 1.35853 0
M  V30 5921 H 540.364 -2.60242 2.92215 0
M  V30 5922 H 539.987 -3.65402 1.56738 0
M  V30 5923 N 540.985 -1.06182 -1.16461 0
M  V30 5924 C 541.933 -0.665716 -2.2287 0
M  V30 5925 C 542.927 0.317822 -1.66392 0
M  V30 5926 O 544.133 0.182807 -1.79069 0
M  V30 5927 H 540.508 -0.197148 -0.725697 0
M  V30 5928 H 542.479 -1.57307 -2.53569 0
M  V30 5929 C 541.228 -0.0669803 -3.47635 0
M  V30 5930 H 540.551 -0.814899 -3.91407 0
M  V30 5931 H 541.991 0.172669 -4.23648 0
M  V30 5932 C 540.45 1.18913 -3.15216 0
M  V30 5933 O 540.98 2.27723 -3.30916 0
M  V30 5934 N 539.186 1.09066 -2.69357 0
M  V30 5935 H 538.733 0.20518 -2.56782 0
M  V30 5936 H 538.691 1.93195 -2.48039 0
M  V30 5937 N 542.463 1.3308 -0.844243 0
M  V30 5938 C 543.691 2.01808 -0.456203 0
M  V30 5939 C 544.106 1.63498 0.944131 0
M  V30 5940 O 543.463 0.85102 1.61443 0
M  V30 5941 C 543.514 3.56922 -0.573513 0
M  V30 5942 O 543.235 3.93851 -1.91868 0
M  V30 5943 C 544.736 4.42922 -0.183125 0
M  V30 5944 H 541.956 0.646273 -0.180477 0
M  V30 5945 H 544.5 1.69891 -1.1383 0
M  V30 5946 H 542.655 3.87352 0.0607367 0
M  V30 5947 H 543.069 4.88564 -1.90802 0
M  V30 5948 H 544.543 5.51093 -0.316241 0
M  V30 5949 H 545.02 4.30386 0.875477 0
M  V30 5950 H 545.626 4.1786 -0.792027 0
M  V30 5951 N 543.941 0.601185 1.45683 0
M  V30 5952 C 545.171 0.0999093 2.06358 0
M  V30 5953 C 545.579 -1.21831 1.44754 0
M  V30 5954 O 544.922 -1.75157 0.553695 0
M  V30 5955 C 544.984 -0.12085 3.59297 0
M  V30 5956 C 544.648 1.11459 4.432 0
M  V30 5957 C 545.645 2.03118 4.7858 0
M  V30 5958 C 543.33 1.34162 4.84051 0
M  V30 5959 C 545.324 3.15814 5.53661 0
M  V30 5960 C 543.011 2.4716 5.58888 0
M  V30 5961 C 544.009 3.37814 5.93608 0
M  V30 5962 O 543.697 4.48846 6.66928 0
M  V30 5963 H 543.429 0.0630316 0.673055 0
M  V30 5964 H 545.983 0.826982 1.88016 0
M  V30 5965 H 544.213 -0.902744 3.76015 0
M  V30 5966 H 545.902 -0.572925 4.01836 0
M  V30 5967 H 546.668 1.86801 4.47583 0
M  V30 5968 H 542.547 0.645018 4.56465 0
M  V30 5969 H 546.091 3.86596 5.8068 0
M  V30 5970 H 541.988 2.63432 5.89299 0
M  V30 5971 H 542.756 4.47446 6.85371 0
M  V30 5972 N 545.419 -1.53889 0.339982 0
M  V30 5973 C 546.644 -2.05741 -0.261798 0
M  V30 5974 C 547.069 -1.21354 -1.43718 0
M  V30 5975 O 546.427 -0.22645 -1.7988 0
M  V30 5976 C 546.475 -3.54542 -0.658228 0
M  V30 5977 O 545.579 -3.7302 -1.75869 0
M  V30 5978 H 544.92 -0.662529 -0.0441672 0
M  V30 5979 H 547.45 -1.98568 0.493161 0
M  V30 5980 H 547.46 -3.9711 -0.936368 0
M  V30 5981 H 546.135 -4.15412 0.201358 0
M  V30 5982 H 544.712 -3.42355 -1.47809 0
M  V30 5983 N 546.897 -0.0685191 -1.57451 0
M  V30 5984 C 548.144 0.601348 -1.93365 0
M  V30 5985 C 548.472 1.69816 -0.948294 0
M  V30 5986 O 547.727 1.95666 0.0366199 0
M  V30 5987 C 548.026 1.22051 -3.35914 0
M  V30 5988 C 547.692 0.250165 -4.50205 0
M  V30 5989 C 546.354 -0.0167954 -4.81197 0
M  V30 5990 C 548.706 -0.413867 -5.19554 0
M  V30 5991 C 546.034 -0.95493 -5.78876 0
M  V30 5992 C 548.386 -1.3403 -6.18238 0
M  V30 5993 C 547.05 -1.61576 -6.47649 0
M  V30 5994 H 546.32 0.220049 -0.707573 0
M  V30 5995 H 548.967 -0.138697 -1.90997 0
M  V30 5996 H 547.272 2.03622 -3.34732 0
M  V30 5997 H 548.969 1.74605 -3.6099 0
M  V30 5998 H 545.559 0.468421 -4.26033 0
M  V30 5999 H 549.743 -0.220733 -4.95809 0
M  V30 6000 H 544.999 -1.17563 -5.99991 0
M  V30 6001 H 549.173 -1.86081 -6.71079 0
M  V30 6002 H 546.8 -2.34431 -7.2315 0
M  V30 6003 N 548.375 1.56261 0.205012 0
M  V30 6004 C 549.621 1.80306 0.9283 0
M  V30 6005 C 549.954 0.640932 1.83319 0
M  V30 6006 O 549.229 -0.359032 1.91158 0
M  V30 6007 C 549.512 3.14547 1.75306 0
M  V30 6008 C 549.365 4.41236 0.873562 0
M  V30 6009 C 550.684 3.45382 2.72762 0
M  V30 6010 H 547.803 0.655929 0.336044 0
M  V30 6011 H 550.445 1.88984 0.196211 0
M  V30 6012 H 548.595 3.0728 2.37721 0
M  V30 6013 H 550.267 4.60539 0.264887 0
M  V30 6014 H 548.51 4.33427 0.179773 0
M  V30 6015 H 549.181 5.31639 1.48541 0
M  V30 6016 H 551.657 3.52884 2.20481 0
M  V30 6017 H 550.533 4.40449 3.2756 0
M  V30 6018 H 550.794 2.68377 3.51321 0
M  V30 6019 N 549.853 -0.472356 1.50355 0
M  V30 6020 C 550.803 -1.56809 1.65514 0
M  V30 6021 C 551.787 -1.5261 0.509801 0
M  V30 6022 O 552.979 -1.59655 0.764145 0
M  V30 6023 C 550.108 -2.9526 1.75146 0
M  V30 6024 C 549.194 -3.04348 2.95353 0
M  V30 6025 N 549.585 -2.83253 4.19048 0
M  V30 6026 C 547.883 -3.35482 2.93884 0
M  V30 6027 C 548.584 -2.97273 5.00003 0
M  V30 6028 N 547.56 -3.27418 4.33934 0
M  V30 6029 H 551.362 -1.39197 2.58846 0
M  V30 6030 H 548.876 -0.67906 1.47521 0
M  V30 6031 H 550.873 -3.74044 1.8411 0
M  V30 6032 H 549.533 -3.1392 0.829717 0
M  V30 6033 H 550.544 -2.5886 4.48567 0
M  V30 6034 H 547.221 -3.60138 2.11204 0
M  V30 6035 H 548.611 -2.85214 6.08361 0
M  V30 6036 N 551.331 -1.39911 -0.725443 0
M  V30 6037 C 552.294 -1.39156 -1.82121 0
M  V30 6038 C 553.294 -0.287018 -1.58218 0
M  V30 6039 O 554.484 -0.545421 -1.65441 0
M  V30 6040 C 551.616 -1.1736 -3.20062 0
M  V30 6041 H 552.809 -2.36672 -1.84191 0
M  V30 6042 H 550.362 -1.25615 -0.930079 0
M  V30 6043 H 551.097 -0.205648 -3.23647 0
M  V30 6044 H 550.882 -1.97358 -3.3881 0
M  V30 6045 H 552.372 -1.19596 -4.00108 0
M  V30 6046 N 552.809 0.956637 -1.25245 0
M  V30 6047 C 553.756 2.053 -1.05454 0
M  V30 6048 C 554.726 1.66062 0.0356889 0
M  V30 6049 O 555.911 1.90415 -0.121099 0
M  V30 6050 C 553.051 3.38391 -0.677191 0
M  V30 6051 C 552.164 3.90758 -1.84206 0
M  V30 6052 C 551.299 5.12165 -1.40926 0
M  V30 6053 C 550.338 5.56757 -2.54338 0
M  V30 6054 N 549.475 6.69376 -2.11848 0
M  V30 6055 H 554.315 2.21562 -1.99284 0
M  V30 6056 H 551.852 1.08578 -0.992434 0
M  V30 6057 H 553.81 4.1488 -0.43938 0
M  V30 6058 H 552.44 3.22021 0.224127 0
M  V30 6059 H 551.492 3.10808 -2.19323 0
M  V30 6060 H 552.804 4.19802 -2.69383 0
M  V30 6061 H 551.958 5.96065 -1.13098 0
M  V30 6062 H 550.697 4.84832 -0.528175 0
M  V30 6063 H 549.702 4.71423 -2.82913 0
M  V30 6064 H 550.927 5.861 -3.43022 0
M  V30 6065 H 548.873 6.43756 -1.26153 0
M  V30 6066 H 548.79 6.97927 -2.90574 0
M  V30 6067 H 550.058 7.5669 -1.87191 0
M  V30 6068 N 554.287 1.06798 1.15896 0
M  V30 6069 C 555.234 0.683314 2.20453 0
M  V30 6070 C 556.204 -0.32255 1.62938 0
M  V30 6071 O 557.389 -0.210276 1.89638 0
M  V30 6072 C 554.529 0.0813266 3.45004 0
M  V30 6073 C 553.642 1.13799 4.16742 0
M  V30 6074 C 552.777 0.501598 5.28826 0
M  V30 6075 C 551.816 1.54144 5.92373 0
M  V30 6076 N 550.953 0.928038 6.9594 0
M  V30 6077 H 555.793 1.57932 2.52708 0
M  V30 6078 H 553.33 0.789544 1.24115 0
M  V30 6079 H 555.288 -0.285274 4.16224 0
M  V30 6080 H 553.918 -0.77806 3.13283 0
M  V30 6081 H 552.97 1.62223 3.44075 0
M  V30 6082 H 554.282 1.92664 4.60089 0
M  V30 6083 H 553.436 0.0823162 6.06644 0
M  V30 6084 H 552.175 -0.318883 4.86656 0
M  V30 6085 H 551.18 1.97056 5.13273 0
M  V30 6086 H 552.405 2.3641 6.36621 0
M  V30 6087 H 550.351 0.12836 6.55874 0
M  V30 6088 H 550.268 1.65401 7.37685 0
M  V30 6089 H 551.536 0.534071 7.77668 0
M  V30 6090 N 555.766 -1.3263 0.851289 0
M  V30 6091 C 557.012 -1.9766 0.453694 0
M  V30 6092 C 557.345 -1.67225 -0.987396 0
M  V30 6093 O 556.62 -0.958693 -1.69232 0
M  V30 6094 C 556.903 -3.5344 0.68936 0
M  V30 6095 C 556.756 -3.93517 2.17862 0
M  V30 6096 C 558.075 -4.39866 0.143555 0
M  V30 6097 H 555.194 -0.717989 0.166314 0
M  V30 6098 H 557.836 -1.57068 1.06909 0
M  V30 6099 H 555.986 -3.88147 0.165546 0
M  V30 6100 H 557.658 -3.69006 2.76826 0
M  V30 6101 H 555.901 -3.42798 2.65841 0
M  V30 6102 H 556.572 -5.02065 2.29422 0
M  V30 6103 H 559.048 -4.11875 0.591451 0
M  V30 6104 H 557.924 -5.47858 0.338043 0
M  V30 6105 H 558.185 -4.31696 -0.953466 0
M  V30 6106 N 557.244 -0.608902 -1.45362 0
M  V30 6107 C 558.469 -0.10921 -2.07112 0
M  V30 6108 C 558.894 1.19779 -1.45033 0
M  V30 6109 O 558.252 1.72961 -0.543527 0
M  V30 6110 C 558.3 0.0155745 -3.60597 0
M  V30 6111 O 557.404 1.06546 -3.98399 0
M  V30 6112 H 556.745 -0.0746619 -0.659789 0
M  V30 6113 H 559.275 -0.839283 -1.86594 0
M  V30 6114 H 559.285 0.213364 -4.07442 0
M  V30 6115 H 557.96 -0.938765 -4.05167 0
M  V30 6116 H 556.537 0.844024 -3.63223 0
M  V30 6117 N 558.722 1.53707 -0.348139 0
M  V30 6118 C 559.969 2.00988 0.246966 0
M  V30 6119 C 560.297 1.23586 1.50189 0
M  V30 6120 O 559.552 0.312817 1.93184 0
M  V30 6121 C 559.851 3.52292 0.602061 0
M  V30 6122 C 559.517 4.47453 -0.556509 0
M  V30 6123 C 558.179 4.73188 -0.874446 0
M  V30 6124 C 560.531 5.03851 -1.33354 0
M  V30 6125 C 557.859 5.52577 -1.9717 0
M  V30 6126 C 560.211 5.84437 -2.42108 0
M  V30 6127 C 558.875 6.08465 -2.74456 0
M  V30 6128 H 558.145 0.735469 0.0903712 0
M  V30 6129 H 560.792 1.85464 -0.477001 0
M  V30 6130 H 559.097 3.65672 1.40681 0
M  V30 6131 H 560.794 3.86337 1.07447 0
M  V30 6132 H 557.384 4.27558 -0.298652 0
M  V30 6133 H 561.568 4.8393 -1.10117 0
M  V30 6134 H 556.824 5.69418 -2.22651 0
M  V30 6135 H 560.998 6.27151 -3.02745 0
M  V30 6136 H 558.625 6.69768 -3.59604 0
M  V30 6137 N 560.2 0.0768682 1.57412 0
M  V30 6138 C 561.428 -0.59997 1.9801 0
M  V30 6139 C 561.843 -1.62842 0.955408 0
M  V30 6140 O 561.2 -1.8241 -0.057314 0
M  V30 6141 C 561.251 -1.26401 3.38681 0
M  V30 6142 O 560.972 -0.276723 4.37225 0
M  V30 6143 C 562.473 -2.0282 3.94182 0
M  V30 6144 H 559.693 -0.162239 0.651091 0
M  V30 6145 H 562.237 0.150771 2.03943 0
M  V30 6146 H 560.392 -1.96581 3.33819 0
M  V30 6147 H 560.806 -0.753744 5.19056 0
M  V30 6148 H 562.28 -2.44667 4.94815 0
M  V30 6149 H 562.757 -2.88678 3.31001 0
M  V30 6150 H 563.363 -1.37496 4.02461 0
M  V30 6151 N 561.678 -1.56367 -0.196722 0
M  V30 6152 C 562.924 -1.80796 -0.918725 0
M  V30 6153 C 563.257 -0.650645 -1.82976 0
M  V30 6154 O 562.532 0.348889 -1.91345 0
M  V30 6155 C 562.815 -3.15472 -1.73636 0
M  V30 6156 C 562.668 -4.41693 -0.85015 0
M  V30 6157 C 563.987 -3.46824 -2.70927 0
M  V30 6158 H 561.106 -0.657702 -0.332561 0
M  V30 6159 H 563.748 -1.89086 -0.186186 0
M  V30 6160 H 561.898 -3.08536 -2.36088 0
M  V30 6161 H 563.57 -4.60673 -0.240459 0
M  V30 6162 H 561.813 -4.33517 -0.156785 0
M  V30 6163 H 562.484 -5.32419 -1.45719 0
M  V30 6164 H 564.96 -3.54049 -2.18607 0
M  V30 6165 H 563.836 -4.4218 -3.25219 0
M  V30 6166 H 564.097 -2.70236 -3.49893 0
M  V30 6167 N 563.156 0.464375 -1.50603 0
M  V30 6168 C 564.066 1.58723 -1.72754 0
M  V30 6169 C 565.082 1.62925 -0.610844 0
M  V30 6170 O 566.258 1.8067 -0.889963 0
M  V30 6171 C 563.323 2.94897 -1.82309 0
M  V30 6172 C 562.384 3.0103 -3.06071 0
M  V30 6173 C 561.617 4.30708 -3.1516 0
M  V30 6174 O 561.84 5.2159 -2.30868 0
M  V30 6175 O 560.774 4.42571 -4.0794 0
M  V30 6176 H 564.6 1.42954 -2.67951 0
M  V30 6177 H 562.185 0.644579 -1.3478 0
M  V30 6178 H 564.067 3.75764 -1.90735 0
M  V30 6179 H 562.742 3.10851 -0.902967 0
M  V30 6180 H 561.649 2.19217 -3.03142 0
M  V30 6181 H 562.982 2.90014 -3.97684 0
M  V30 6182 N 564.634 1.40294 0.718013 0
M  V30 6183 C 565.88 1.38645 1.48005 0
M  V30 6184 C 566.213 -0.0121202 1.94196 0
M  V30 6185 O 565.488 -0.980309 1.67989 0
M  V30 6186 C 565.771 2.37379 2.70782 0
M  V30 6187 C 565.624 3.8625 2.30501 0
M  V30 6188 C 566.943 2.33685 3.72933 0
M  V30 6189 H 564.062 0.504928 0.536858 0
M  V30 6190 H 566.704 1.71411 0.819649 0
M  V30 6191 H 564.854 2.09568 3.27129 0
M  V30 6192 H 566.526 4.24879 1.79655 0
M  V30 6193 H 564.769 4.02202 1.6253 0
M  V30 6194 H 565.44 4.50847 3.18498 0
M  V30 6195 H 567.916 2.58314 3.2621 0
M  V30 6196 H 566.792 3.0482 4.56482 0
M  V30 6197 H 567.053 1.34765 4.21059 0
M  V30 6198 N 566.112 -0.949982 1.2575 0
M  V30 6199 C 567.042 -2.06483 1.09028 0
M  V30 6200 C 568.023 -1.701 -0.00201532 0
M  V30 6201 O 569.208 -1.93469 0.168383 0
M  V30 6202 C 566.338 -3.39899 0.71316 0
M  V30 6203 C 565.292 -3.90309 1.75621 0
M  V30 6204 C 564.618 -5.20274 1.23365 0
M  V30 6205 C 565.918 -4.16169 3.15596 0
M  V30 6206 H 567.612 -2.20731 2.02283 0
M  V30 6207 H 565.158 -1.06066 0.973964 0
M  V30 6208 H 567.111 -4.17346 0.58309 0
M  V30 6209 H 565.835 -3.25602 -0.255091 0
M  V30 6210 H 564.494 -3.15035 1.8748 0
M  V30 6211 H 564.142 -5.02351 0.255491 0
M  V30 6212 H 563.842 -5.54971 1.93082 0
M  V30 6213 H 565.366 -6.00314 1.11607 0
M  V30 6214 H 566.78 -4.84259 3.06864 0
M  V30 6215 H 565.177 -4.62131 3.82825 0
M  V30 6216 H 566.247 -3.22273 3.6231 0
M  V30 6217 N 567.59 -1.07411 -1.15328 0
M  V30 6218 C 568.52 -0.716472 -2.22236 0
M  V30 6219 C 569.501 0.296373 -1.67498 0
M  V30 6220 O 570.686 0.168989 -1.93463 0
M  V30 6221 C 567.816 -0.114142 -3.47112 0
M  V30 6222 C 566.77 -1.05421 -4.14814 0
M  V30 6223 C 566.096 -0.314604 -5.33774 0
M  V30 6224 C 567.396 -2.38808 -4.64508 0
M  V30 6225 H 569.09 -1.61029 -2.52408 0
M  V30 6226 H 566.636 -0.775702 -1.21321 0
M  V30 6227 H 568.589 0.148001 -4.2114 0
M  V30 6228 H 567.313 0.814755 -3.16274 0
M  V30 6229 H 565.972 -1.30128 -3.42728 0
M  V30 6230 H 565.62 0.617772 -4.99192 0
M  V30 6231 H 565.32 -0.941209 -5.80013 0
M  V30 6232 H 566.844 -0.0602747 -6.1057 0
M  V30 6233 H 568.258 -2.18424 -5.3006 0
M  V30 6234 H 566.655 -2.97069 -5.21412 0
M  V30 6235 H 567.725 -3.01067 -3.80114 0
M  V30 6236 N 569.068 1.32177 -0.85831 0
M  V30 6237 C 570.479 1.79381 -0.517621 0
M  V30 6238 C 570.83 1.70841 0.964769 0
M  V30 6239 O 569.955 1.26917 1.75274 0
M  V30 6240 C 570.55 3.25706 -0.932801 0
M  V30 6241 C 569.109 3.70851 -0.643953 0
M  V30 6242 C 568.256 2.53208 -1.13054 0
M  V30 6243 H 571.207 1.19424 -1.04516 0
M  V30 6244 H 571.228 3.79673 -0.250674 0
M  V30 6245 H 570.74 3.31889 -2.01174 0
M  V30 6246 H 568.841 3.70178 0.424112 0
M  V30 6247 H 568.954 4.63495 -1.21281 0
M  V30 6248 H 567.318 2.48676 -0.550679 0
M  V30 6249 H 568.101 2.62143 -2.21666 0
M  V30 6250 N 570.547 0.616602 1.45037 0
M  V30 6251 C 571.824 0.0469086 1.95544 0
M  V30 6252 C 572.204 -1.42345 1.55888 0
M  V30 6253 O 571.552 -2.13055 0.825824 0
M  V30 6254 C 571.762 0.254489 3.48071 0
M  V30 6255 C 573.11 0.140025 4.24369 0
M  V30 6256 O 574.134 0.185084 3.55719 0
M  V30 6257 O 572.993 0.0327034 5.4649 0
M  V30 6258 H 570.087 -0.0306051 0.826433 0
M  V30 6259 H 572.633 0.687293 1.55159 0
M  V30 6260 H 571.405 1.27532 3.69934 0
M  V30 6261 H 571.028 -0.42073 3.95368 0
M  V30 6262 N 572.025 -1.5352 0.356285 0
M  V30 6263 C 572.935 -2.29151 -0.502712 0
M  V30 6264 C 573.951 -1.34753 -1.1008 0
M  V30 6265 O 575.127 -1.67803 -1.11374 0
M  V30 6266 C 572.192 -3.05911 -1.63154 0
M  V30 6267 C 571.253 -4.15958 -1.06194 0
M  V30 6268 C 570.486 -4.8905 -2.13696 0
M  V30 6269 O 570.709 -4.61919 -3.34645 0
M  V30 6270 O 569.643 -5.75202 -1.77275 0
M  V30 6271 H 573.469 -3.03492 0.112466 0
M  V30 6272 H 571.054 -1.4891 0.120942 0
M  V30 6273 H 572.936 -3.53874 -2.28804 0
M  V30 6274 H 571.611 -2.34415 -2.23229 0
M  V30 6275 H 570.518 -3.7227 -0.369603 0
M  V30 6276 H 571.851 -4.89593 -0.505872 0
M  V30 6277 N 573.503 -0.0852151 -1.57369 0
M  V30 6278 C 574.751 0.579658 -1.93609 0
M  V30 6279 C 575.072 1.69332 -0.967043 0
M  V30 6280 O 574.342 1.95892 -0.0174215 0
M  V30 6281 H 572.922 0.217113 -0.714752 0
M  V30 6282 H 575.584 -0.146226 -1.94351 0
M  V30 6283 H 574.68 0.996276 -2.95771 0
M  V30 6284 N 574.981 1.5647 0.188427 0
M  V30 6285 C 575.914 1.90146 1.26173 0
M  V30 6286 C 576.892 0.762294 1.43624 0
M  V30 6287 O 578.076 1.01395 1.58907 0
M  V30 6288 C 575.203 2.13748 2.62735 0
M  V30 6289 C 574.249 3.36448 2.62116 0
M  V30 6290 S 575.082 4.91364 2.12889 0
M  V30 6291 C 576.238 5.18041 3.51261 0
M  V30 6292 H 576.471 2.80886 0.974192 0
M  V30 6293 H 574.004 1.49335 0.392226 0
M  V30 6294 H 575.962 2.28028 3.41341 0
M  V30 6295 H 574.623 1.23747 2.88696 0
M  V30 6296 H 573.816 3.50109 3.62546 0
M  V30 6297 H 573.418 3.21196 1.91596 0
M  V30 6298 H 575.71 5.0897 4.47164 0
M  V30 6299 H 576.653 6.19764 3.42489 0
M  V30 6300 H 577.061 4.45657 3.46482 0
M  V30 6301 N 576.459 -0.456382 1.50847 0
M  V30 6302 C 577.391 -1.57033 1.66953 0
M  V30 6303 C 578.404 -1.53207 0.550593 0
M  V30 6304 O 579.593 -1.58328 0.824285 0
M  V30 6305 C 576.693 -2.95937 1.65149 0
M  V30 6306 C 575.866 -3.24475 2.93317 0
M  V30 6307 C 574.925 -4.43007 2.83957 0
M  V30 6308 O 573.951 -4.42592 3.57912 0
M  V30 6309 N 575.153 -5.45503 1.9851 0
M  V30 6310 H 577.918 -1.43629 2.63042 0
M  V30 6311 H 575.479 -0.645037 1.48495 0
M  V30 6312 H 577.471 -3.73224 1.56481 0
M  V30 6313 H 576.041 -3.03036 0.767343 0
M  V30 6314 H 575.261 -2.35664 3.16 0
M  V30 6315 H 576.549 -3.4036 3.78196 0
M  V30 6316 H 575.947 -5.48668 1.37766 0
M  V30 6317 H 574.504 -6.21716 1.95735 0
M  V30 6318 N 577.937 -1.40673 -0.710563 0
M  V30 6319 C 578.884 -1.41336 -1.82463 0
M  V30 6320 C 579.854 -0.269648 -1.63897 0
M  V30 6321 O 581.039 -0.468463 -1.8496 0
M  V30 6322 C 578.179 -1.28665 -3.20218 0
M  V30 6323 C 577.292 -2.52784 -3.5032 0
M  V30 6324 C 576.427 -2.32517 -4.77608 0
M  V30 6325 C 575.466 -3.52187 -5.0063 0
M  V30 6326 N 574.603 -3.31084 -6.19135 0
M  V30 6327 H 579.443 -2.36558 -1.8123 0
M  V30 6328 H 576.98 -1.17483 -0.885226 0
M  V30 6329 H 578.938 -1.19324 -3.99772 0
M  V30 6330 H 577.568 -0.370602 -3.20666 0
M  V30 6331 H 576.62 -2.72634 -2.65283 0
M  V30 6332 H 577.932 -3.41845 -3.63241 0
M  V30 6333 H 577.086 -2.20558 -5.65189 0
M  V30 6334 H 575.825 -1.40889 -4.66906 0
M  V30 6335 H 574.83 -3.64617 -4.11502 0
M  V30 6336 H 576.055 -4.44749 -5.13201 0
M  V30 6337 H 574.001 -2.42143 -6.09674 0
M  V30 6338 H 573.918 -4.13713 -6.32754 0
M  V30 6339 H 575.186 -3.22868 -7.0949 0
M  V30 6340 N 579.415 0.9433 -1.26252 0
M  V30 6341 C 580.645 1.72117 -1.14277 0
M  V30 6342 C 581.053 1.86726 0.304944 0
M  V30 6343 O 580.396 1.3727 1.22076 0
M  V30 6344 C 580.458 3.14778 -1.73651 0
M  V30 6345 C 580.122 3.23561 -3.22734 0
M  V30 6346 C 581.119 3.07001 -4.19579 0
M  V30 6347 C 578.804 3.47019 -3.63157 0
M  V30 6348 C 580.798 3.13763 -5.54826 0
M  V30 6349 C 578.485 3.53416 -4.98538 0
M  V30 6350 C 579.483 3.36804 -5.94182 0
M  V30 6351 O 579.171 3.42906 -7.27098 0
M  V30 6352 H 578.903 0.545781 -0.398873 0
M  V30 6353 H 581.457 1.19123 -1.67328 0
M  V30 6354 H 579.687 3.69186 -1.1506 0
M  V30 6355 H 581.376 3.74469 -1.56613 0
M  V30 6356 H 582.142 2.88736 -3.89688 0
M  V30 6357 H 578.021 3.59006 -2.89199 0
M  V30 6358 H 581.565 3.00714 -6.29458 0
M  V30 6359 H 577.462 3.71201 -5.28091 0
M  V30 6360 H 578.23 3.59463 -7.35342 0
M  V30 6361 N 580.893 1.08022 1.14757 0
M  V30 6362 C 582.17 0.720386 1.81851 0
M  V30 6363 C 582.55 -0.796375 1.95502 0
M  V30 6364 O 581.898 -1.71339 1.51179 0
M  V30 6365 C 582.108 1.44273 3.17783 0
M  V30 6366 C 583.456 1.59925 3.93331 0
M  V30 6367 O 584.48 1.40407 3.2736 0
M  V30 6368 O 583.339 1.92096 5.11626 0
M  V30 6369 H 580.433 0.257142 0.786007 0
M  V30 6370 H 582.979 1.18155 1.21809 0
M  V30 6371 H 581.751 2.47618 3.02987 0
M  V30 6372 H 581.374 0.97279 3.85516 0
M  V30 6373 N 582.371 -1.3172 0.865308 0
M  V30 6374 C 583.318 -2.2863 0.315736 0
M  V30 6375 C 584.288 -1.55524 -0.583213 0
M  V30 6376 O 585.473 -1.83694 -0.51585 0
M  V30 6377 C 582.613 -3.41735 -0.480773 0
M  V30 6378 C 581.726 -4.297 0.445167 0
M  V30 6379 C 580.861 -5.29944 -0.365012 0
M  V30 6380 C 579.9 -6.09554 0.557651 0
M  V30 6381 N 579.037 -7.01768 -0.215994 0
M  V30 6382 H 583.877 -2.75026 1.14736 0
M  V30 6383 H 581.414 -1.35302 0.577209 0
M  V30 6384 H 583.372 -4.06045 -0.958306 0
M  V30 6385 H 582.002 -2.96461 -1.27714 0
M  V30 6386 H 581.054 -3.65875 1.04113 0
M  V30 6387 H 582.366 -4.85295 1.15284 0
M  V30 6388 H 581.52 -5.99908 -0.905255 0
M  V30 6389 H 580.259 -4.74994 -1.106 0
M  V30 6390 H 579.264 -5.38485 1.10969 0
M  V30 6391 H 580.489 -6.66591 1.29742 0
M  V30 6392 H 578.435 -6.49232 -0.939878 0
M  V30 6393 H 578.352 -7.54762 0.432431 0
M  V30 6394 H 579.62 -7.76002 -0.737618 0
M  V30 6395 N 583.85 -0.624285 -1.44708 0
M  V30 6396 C 584.76 0.0861083 -2.34442 0
M  V30 6397 C 585.776 0.84291 -1.5222 0
M  V30 6398 O 586.952 0.796723 -1.84971 0
M  V30 6399 C 584.017 1.05999 -3.30099 0
M  V30 6400 C 583.077 0.303316 -4.28227 0
M  V30 6401 C 582.311 1.23081 -5.19314 0
M  V30 6402 O 582.534 2.46929 -5.14181 0
M  V30 6403 O 581.468 0.71883 -5.97592 0
M  V30 6404 H 585.293 -0.651756 -2.96624 0
M  V30 6405 H 582.879 -0.384493 -1.44368 0
M  V30 6406 H 584.76 1.62046 -3.88997 0
M  V30 6407 H 583.436 1.77859 -2.70459 0
M  V30 6408 H 582.343 -0.300033 -3.72895 0
M  V30 6409 H 583.676 -0.375123 -4.90768 0
M  V30 6410 N 585.328 1.53329 -0.364422 0
M  V30 6411 C 586.258 2.28627 0.474543 0
M  V30 6412 C 587.239 1.31009 1.08492 0
M  V30 6413 O 588.424 1.59878 1.10239 0
M  V30 6414 C 585.554 3.07465 1.61501 0
M  V30 6415 C 584.508 4.1276 1.13194 0
M  V30 6416 C 583.834 4.79674 2.36255 0
M  V30 6417 C 585.134 5.21847 0.217507 0
M  V30 6418 H 586.828 2.99005 -0.153656 0
M  V30 6419 H 584.374 1.43803 -0.0753406 0
M  V30 6420 H 586.327 3.58889 2.20855 0
M  V30 6421 H 585.051 2.34775 2.27042 0
M  V30 6422 H 583.71 3.62281 0.56109 0
M  V30 6423 H 583.358 4.03557 3.00251 0
M  V30 6424 H 583.058 5.50827 2.04606 0
M  V30 6425 H 584.582 5.33892 2.96297 0
M  V30 6426 H 585.996 5.6878 0.718493 0
M  V30 6427 H 584.393 6.00099 -0.00806408 0
M  V30 6428 H 585.463 4.7921 -0.740653 0
M  V30 6429 N 586.806 0.0935595 1.57322 0
M  V30 6430 C 588.034 -0.578934 1.98635 0
M  V30 6431 C 588.449 -1.61819 0.972626 0
M  V30 6432 O 587.806 -1.82461 -0.0379638 0
M  V30 6433 C 587.857 -1.22802 3.40003 0
M  V30 6434 O 587.578 -0.230334 4.37494 0
M  V30 6435 C 589.079 -1.98627 3.96311 0
M  V30 6436 H 586.299 -0.155324 0.652775 0
M  V30 6437 H 588.843 0.172393 2.03772 0
M  V30 6438 H 586.998 -1.93029 3.35885 0
M  V30 6439 H 587.412 -0.698649 5.19826 0
M  V30 6440 H 588.886 -2.39405 4.97382 0
M  V30 6441 H 589.363 -2.85151 3.34044 0
M  V30 6442 H 589.969 -1.3322 4.03897 0
M  V30 6443 N 588.284 -1.56567 -0.180126 0
M  V30 6444 C 589.695 -1.7126 -0.743422 0
M  V30 6445 C 590.046 -0.70263 -1.83187 0
M  V30 6446 O 589.171 0.137856 -2.1596 0
M  V30 6447 C 589.766 -3.10512 -1.35528 0
M  V30 6448 C 588.325 -3.26919 -1.8655 0
M  V30 6449 C 587.472 -2.67213 -0.741099 0
M  V30 6450 H 590.423 -1.58636 0.0451543 0
M  V30 6451 H 590.444 -3.08673 -2.22489 0
M  V30 6452 H 589.956 -3.83997 -0.562862 0
M  V30 6453 H 588.057 -2.58376 -2.68464 0
M  V30 6454 H 588.17 -4.34574 -2.01699 0
M  V30 6455 H 586.534 -2.26788 -1.15927 0
M  V30 6456 H 587.317 -3.43277 0.0393291 0
M  V30 6457 N 589.762 0.448376 -1.51087 0
M  V30 6458 C 591.008 1.20049 -1.6345 0
M  V30 6459 C 591.341 1.91121 -0.344444 0
M  V30 6460 O 590.616 1.83125 0.655396 0
M  V30 6461 C 590.899 2.22624 -2.83038 0
M  V30 6462 C 590.752 1.55708 -4.21989 0
M  V30 6463 C 592.071 3.23718 -2.98152 0
M  V30 6464 H 589.19 0.435085 -0.59487 0
M  V30 6465 H 591.832 0.491183 -1.83541 0
M  V30 6466 H 589.982 2.83117 -2.66039 0
M  V30 6467 H 591.654 0.986367 -4.50631 0
M  V30 6468 H 589.897 0.859647 -4.25197 0
M  V30 6469 H 590.568 2.30357 -5.01637 0
M  V30 6470 H 593.044 2.73269 -3.13788 0
M  V30 6471 H 591.92 3.92795 -3.83411 0
M  V30 6472 H 592.181 3.89179 -2.09743 0
M  V30 6473 O 591.279 1.50177 0.59407 0
M  V30 6474 H 591.97 1.48064 1.24887 0
M  V30 END ATOM
M  V30 BEGIN BOND
M  V30 END BOND
M  V30 END CTAB
M  END
$$$$
