drugbank_target|Q9UEW8 STE20/SPS1-related proline-alanine-rich protein kinase (DB12010)
 OpenBabel12092121133D

  0  0  0     0  0            999 V3000
M  V30 BEGIN CTAB
M  V30 COUNTS 8378 8458 0 0 0
M  V30 BEGIN ATOM
M  V30 1 H -0.908 1.98254 -0.117106 0
M  V30 2 N 0 1.576 0 0
M  V30 3 C 0.933 2.03868 1.02534 0
M  V30 4 C 1.911 0.928543 1.3348 0
M  V30 5 O 3.095 1.19667 1.45644 0
M  V30 6 C 0.222 2.43627 2.35294 0
M  V30 7 C -0.732 3.65373 2.2001 0
M  V30 8 S 0.101 5.13292 1.52614 0
M  V30 9 C 1.257 5.56322 2.86805 0
M  V30 10 H 1.49 2.90518 0.631377 0
M  V30 11 H -0.977 1.52953 0.210867 0
M  V30 12 H 0.981 2.67203 3.11629 0
M  V30 13 H -0.358 1.57376 2.7183 0
M  V30 14 H -1.165 3.90944 3.18086 0
M  V30 15 H -1.563 3.418 1.51819 0
M  V30 16 H 0.729 5.58782 3.83104 0
M  V30 17 H 1.672 6.56266 2.65933 0
M  V30 18 H 2.08 4.83886 2.90714 0
M  V30 19 N 1.4781 -0.272755 1.55222 0
M  V30 20 C 2.4411 -1.32041 1.87344 0
M  V30 21 C 3.4411 -1.42342 0.74803 0
M  V30 22 O 4.6311 -1.41488 1.0162 0
M  V30 23 C 1.7631 -2.70173 2.07893 0
M  V30 24 H 2.9561 -1.04789 2.80997 0
M  V30 25 H 0.5091 -0.51083 1.47717 0
M  V30 26 H 1.2441 -3.02605 1.16622 0
M  V30 27 H 1.0291 -2.64082 2.89833 0
M  V30 28 H 2.5191 -3.45869 2.34017 0
M  V30 29 N 2.9562 -1.48159 -0.537278 0
M  V30 30 C 3.8662 -1.64807 -1.6696 0
M  V30 31 C 4.8822 -0.530651 -1.65711 0
M  V30 32 O 6.0582 -0.800784 -1.84796 0
M  V30 33 C 3.1232 -1.67708 -3.03438 0
M  V30 34 C 2.1842 -2.91025 -3.156 0
M  V30 35 C 1.4172 -2.93778 -4.45567 0
M  V30 36 O 1.6402 -2.05153 -5.3223 0
M  V30 37 O 0.5742 -3.85868 -4.61941 0
M  V30 38 H 4.4002 -2.6066 -1.55853 0
M  V30 39 H 1.9852 -1.31475 -0.709549 0
M  V30 40 H 3.8672 -1.7218 -3.84619 0
M  V30 41 H 2.5422 -0.750278 -3.14885 0
M  V30 42 H 1.4492 -2.92089 -2.33741 0
M  V30 43 H 2.7822 -3.83065 -3.09066 0
M  V30 44 N 4.4343 0.785586 -1.36625 0
M  V30 45 C 5.8453 1.36101 -1.27803 0
M  V30 46 C 6.1963 1.96035 0.0804875 0
M  V30 47 O 5.3213 1.92834 0.982042 0
M  V30 48 C 5.9163 2.47442 -2.31426 0
M  V30 49 C 4.4753 3.00789 -2.26281 0
M  V30 50 C 3.6223 1.73896 -2.15999 0
M  V30 51 H 6.5733 0.586928 -1.47448 0
M  V30 52 H 6.5943 3.2656 -1.95291 0
M  V30 53 H 6.1063 2.03791 -3.30289 0
M  V30 54 H 4.2073 3.48851 -1.30896 0
M  V30 55 H 4.3203 3.57343 -3.19128 0
M  V30 56 H 2.6843 1.9628 -1.62316 0
M  V30 57 H 3.4673 1.32368 -3.16755 0
M  V30 58 N 5.9124 1.20967 1.01018 0
M  V30 59 C 7.1374 1.0503 1.78839 0
M  V30 60 C 7.5624 -0.395752 1.8389 0
M  V30 61 O 6.9204 -1.28529 1.27867 0
M  V30 62 C 6.9684 1.64602 3.2084 0
M  V30 63 O 6.0724 0.887988 4.02726 0
M  V30 64 H 5.4134 0.369987 0.551367 0
M  V30 65 H 7.9434 1.60399 1.27018 0
M  V30 66 H 7.9534 1.68607 3.71532 0
M  V30 67 H 6.6284 2.69841 3.16479 0
M  V30 68 H 5.2054 0.922648 3.61305 0
M  V30 69 N 7.3905 -1.2043 1.01659 0
M  V30 70 C 8.6385 -1.89423 0.704522 0
M  V30 71 C 8.9595 -1.79231 -0.768197 0
M  V30 72 O 8.2295 -1.1947 -1.55254 0
M  V30 73 H 6.8095 -0.701178 0.257602 0
M  V30 74 H 9.4715 -1.4626 1.28818 0
M  V30 75 H 8.5675 -2.96052 0.987916 0
M  V30 76 N 8.8686 -0.792821 -1.36206 0
M  V30 77 C 10.0936 -0.377701 -2.03932 0
M  V30 78 C 10.5186 0.998947 -1.59382 0
M  V30 79 O 9.8766 1.64421 -0.763903 0
M  V30 80 C 9.9246 -0.453635 -3.57735 0
M  V30 81 O 9.0286 0.538151 -4.08874 0
M  V30 82 H 8.3696 -0.159855 -0.644471 0
M  V30 83 H 10.8996 -1.07488 -1.7409 0
M  V30 84 H 10.9096 -0.318464 -4.06755 0
M  V30 85 H 9.5846 -1.45784 -3.89512 0
M  V30 86 H 8.1616 0.364359 -3.71116 0
M  V30 87 N 10.3467 1.47872 -0.545128 0
M  V30 88 C 11.7577 1.86384 -0.108581 0
M  V30 89 C 12.1087 1.45309 1.31832 0
M  V30 90 O 11.2337 0.850641 1.9898 0
M  V30 91 C 11.8287 3.38265 -0.190274 0
M  V30 92 C 10.3877 3.75914 0.191164 0
M  V30 93 C 9.5347 2.71926 -0.543273 0
M  V30 94 H 12.4857 1.39561 -0.755537 0
M  V30 95 H 12.5067 3.75831 0.594217 0
M  V30 96 H 12.0187 3.6813 -1.2289 0
M  V30 97 H 10.1197 3.51665 1.23136 0
M  V30 98 H 10.2327 4.78836 -0.158987 0
M  V30 99 H 8.5967 2.54697 0.0122495 0
M  V30 100 H 9.3797 3.04634 -1.58282 0
M  V30 101 N 11.8248 0.280983 1.55075 0
M  V30 102 C 13.0708 -0.33461 2.00021 0
M  V30 103 C 13.4038 -1.55063 1.16915 0
M  V30 104 O 12.6788 -1.93006 0.240646 0
M  V30 105 C 12.9618 -0.711007 3.53011 0
M  V30 106 C 12.8148 0.512766 4.46868 0
M  V30 107 C 14.1338 -1.54522 4.12081 0
M  V30 108 H 11.2528 -0.120147 0.727141 0
M  V30 109 H 13.8948 0.389097 1.85973 0
M  V30 110 H 12.0448 -1.32761 3.65112 0
M  V30 111 H 13.7168 1.15131 4.46702 0
M  V30 112 H 11.9598 1.14975 4.18286 0
M  V30 113 H 12.6308 0.205556 5.51617 0
M  V30 114 H 15.1068 -1.02442 4.03293 0
M  V30 115 H 13.9828 -1.77739 5.19327 0
M  V30 116 H 14.2438 -2.52813 3.62682 0
M  V30 117 N 13.3029 -1.57598 0.00835791 0
M  V30 118 C 14.2529 -2.05431 -0.989045 0
M  V30 119 C 15.2369 -0.950662 -1.29812 0
M  V30 120 O 16.4289 -1.21438 -1.28771 0
M  V30 121 C 13.5579 -2.56801 -2.27833 0
M  V30 122 C 12.6439 -3.74058 -1.99853 0
M  V30 123 N 13.0349 -4.8544 -1.42062 0
M  V30 124 C 11.3329 -3.82148 -2.29953 0
M  V30 125 C 12.0339 -5.66817 -1.30743 0
M  V30 126 N 11.0099 -5.13077 -1.7959 0
M  V30 127 H 14.8119 -2.88955 -0.536853 0
M  V30 128 H 12.3259 -1.61199 -0.197148 0
M  V30 129 H 14.3229 -2.89349 -3.00137 0
M  V30 130 H 12.9829 -1.74699 -2.73698 0
M  V30 131 H 13.9939 -5.0612 -1.09833 0
M  V30 132 H 10.6709 -3.10916 -2.78635 0
M  V30 133 H 12.0609 -6.66343 -0.862328 0
M  V30 134 N 14.781 0.264519 -1.55364 0
M  V30 135 C 16.027 0.99646 -1.76631 0
M  V30 136 C 16.36 1.85632 -0.570478 0
M  V30 137 O 15.635 1.89647 0.43175 0
M  V30 138 C 15.918 1.87187 -3.07625 0
M  V30 139 C 15.771 1.04138 -4.37579 0
M  V30 140 C 17.09 2.85749 -3.34717 0
M  V30 141 H 14.209 0.360841 -0.642622 0
M  V30 142 H 16.851 0.268218 -1.88097 0
M  V30 143 H 15.001 2.49279 -2.9798 0
M  V30 144 H 16.673 0.440517 -4.59192 0
M  V30 145 H 14.916 0.345115 -4.32425 0
M  V30 146 H 15.587 1.68729 -5.2558 0
M  V30 147 H 18.063 2.33793 -3.4421 0
M  V30 148 H 16.939 3.44136 -4.27623 0
M  V30 149 H 17.2 3.61311 -2.54768 0
M  V30 150 N 16.2591 1.48442 0.529413 0
M  V30 151 C 17.1911 1.59095 1.64989 0
M  V30 152 C 18.2041 0.475212 1.5571 0
M  V30 153 O 19.3931 0.746081 1.6216 0
M  V30 154 C 16.4931 1.50518 3.0364 0
M  V30 155 C 15.6661 2.77142 3.38395 0
M  V30 156 C 14.7251 2.62012 4.56329 0
M  V30 157 O 13.7511 3.35898 4.59522 0
M  V30 158 N 14.9531 1.71667 5.54536 0
M  V30 159 H 17.7181 2.55723 1.56287 0
M  V30 160 H 15.2791 1.45173 0.716697 0
M  V30 161 H 17.2711 1.38091 3.80412 0
M  V30 162 H 15.8411 0.618627 3.06418 0
M  V30 163 H 15.0611 3.0413 2.50796 0
M  V30 164 H 16.3491 3.61146 3.58401 0
M  V30 165 H 15.7471 1.10841 5.54735 0
M  V30 166 H 14.3041 1.65178 6.30523 0
M  V30 167 N 17.7372 -0.778329 1.37039 0
M  V30 168 C 18.6672 -1.90546 1.34962 0
M  V30 169 C 19.6482 -1.68681 0.219274 0
M  V30 170 O 20.8332 -1.89634 0.418624 0
M  V30 171 C 17.9632 -3.27734 1.14925 0
M  V30 172 C 16.9172 -3.64147 2.24902 0
M  V30 173 C 16.2432 -4.99806 1.89996 0
M  V30 174 C 17.5432 -3.71579 3.67051 0
M  V30 175 H 19.2372 -1.92541 2.29277 0
M  V30 176 H 16.7832 -0.924948 1.10366 0
M  V30 177 H 18.7362 -4.06215 1.12104 0
M  V30 178 H 17.4602 -3.26154 0.170631 0
M  V30 179 H 16.1192 -2.8797 2.26868 0
M  V30 180 H 15.7672 -4.94759 0.906796 0
M  V30 181 H 15.4672 -5.25139 2.63634 0
M  V30 182 H 16.9912 -5.80694 1.88749 0
M  V30 183 H 18.4052 -4.40227 3.67251 0
M  V30 184 H 16.8022 -4.08405 4.39688 0
M  V30 185 H 17.8722 -2.72404 4.01154 0
M  V30 186 N 19.2153 -1.21501 -1.00376 0
M  V30 187 C 20.6263 -1.03146 -1.55621 0
M  V30 188 C 20.9773 0.408375 -1.91903 0
M  V30 189 O 20.1023 1.29177 -1.73616 0
M  V30 190 C 20.6973 -1.86612 -2.82775 0
M  V30 191 C 19.2563 -1.72586 -3.34501 0
M  V30 192 C 18.4033 -1.83747 -2.07683 0
M  V30 193 H 21.3543 -1.35505 -0.826081 0
M  V30 194 H 21.3753 -1.3771 -3.54706 0
M  V30 195 H 20.8873 -2.91399 -2.56336 0
M  V30 196 H 18.9883 -0.704877 -3.65872 0
M  V30 197 H 19.1013 -2.54623 -4.05837 0
M  V30 198 H 17.4653 -1.27069 -2.20739 0
M  V30 199 H 18.2483 -2.90044 -1.83655 0
M  V30 200 N 20.6934 1.19889 -1.02296 0
M  V30 201 C 21.6254 2.22334 -0.556787 0
M  V30 202 C 22.6384 1.58674 0.364199 0
M  V30 203 O 23.8274 1.77768 0.161533 0
M  V30 204 C 20.9274 3.38257 0.208694 0
M  V30 205 C 20.1004 4.31504 -0.71577 0
M  V30 206 C 19.1594 5.262 0.00325597 0
M  V30 207 O 18.1854 5.65798 -0.621357 0
M  V30 208 N 19.3874 5.66303 1.27599 0
M  V30 209 H 22.1524 2.62957 -1.43784 0
M  V30 210 H 19.7134 1.34495 -0.901261 0
M  V30 211 H 21.7054 3.98616 0.699111 0
M  V30 212 H 20.2754 2.96472 0.991102 0
M  V30 213 H 19.4954 3.69016 -1.38638 0
M  V30 214 H 20.7834 4.9072 -1.34428 0
M  V30 215 H 20.1814 5.36155 1.80429 0
M  V30 216 H 18.7384 6.28942 1.71102 0
M  V30 217 N 22.1715 0.800033 1.35784 0
M  V30 218 C 23.1035 0.163596 2.28615 0
M  V30 219 C 24.1165 -0.633317 1.49976 0
M  V30 220 O 25.3055 -0.466754 1.72289 0
M  V30 221 C 22.4055 -0.790958 3.29541 0
M  V30 222 C 21.5785 -0.0418255 4.3738 0
M  V30 223 C 20.6375 -0.91389 5.18203 0
M  V30 224 O 19.6635 -0.367234 5.68014 0
M  V30 225 N 20.8655 -2.23682 5.35674 0
M  V30 226 H 23.6305 0.96105 2.83873 0
M  V30 227 H 21.1915 0.654894 1.48063 0
M  V30 228 H 23.1835 -1.37844 3.80501 0
M  V30 229 H 21.7535 -1.48925 2.74846 0
M  V30 230 H 20.9735 0.726813 3.87442 0
M  V30 231 H 22.2615 0.474719 5.06581 0
M  V30 232 H 21.6595 -2.70497 4.96838 0
M  V30 233 H 20.2165 -2.77369 5.89839 0
M  V30 234 N 23.6496 -1.47581 0.552962 0
M  V30 235 C 24.6126 -2.28439 -0.186605 0
M  V30 236 C 25.6126 -1.36706 -0.84665 0
M  V30 237 O 26.8026 -1.59378 -0.703164 0
M  V30 238 C 23.9346 -3.16264 -1.2724 0
M  V30 239 H 25.1276 -2.95294 0.523609 0
M  V30 240 H 22.6806 -1.532 0.309745 0
M  V30 241 H 23.4156 -2.54091 -2.01514 0
M  V30 242 H 23.2006 -3.83769 -0.803968 0
M  V30 243 H 24.6906 -3.77198 -1.79196 0
M  V30 244 N 25.1277 -0.289203 -1.54924 0
M  V30 245 C 26.0907 0.579144 -2.21762 0
M  V30 246 C 27.0907 1.07047 -1.1999 0
M  V30 247 O 28.2807 0.968384 -1.44803 0
M  V30 248 C 25.4127 1.80055 -2.8947 0
M  V30 249 H 26.6057 -0.00464908 -2.999 0
M  V30 250 H 24.1587 -0.0399306 -1.56249 0
M  V30 251 H 24.8937 2.42449 -2.15381 0
M  V30 252 H 24.6787 1.45602 -3.64064 0
M  V30 253 H 26.1687 2.41773 -3.40493 0
M  V30 254 N 26.6058 1.57591 -0.0167156 0
M  V30 255 C 28.0168 1.79201 0.523834 0
M  V30 256 C 28.3678 0.925796 1.72984 0
M  V30 257 O 27.4928 0.132792 2.15992 0
M  V30 258 C 28.0878 3.25 0.957091 0
M  V30 259 C 26.6468 3.47648 1.44283 0
M  V30 260 C 25.7938 2.74374 0.401757 0
M  V30 261 H 28.7448 1.56831 -0.242816 0
M  V30 262 H 28.7658 3.34031 1.82219 0
M  V30 263 H 28.2778 3.88019 0.0791415 0
M  V30 264 H 26.3788 2.89866 2.34113 0
M  V30 265 H 26.4918 4.56352 1.45877 0
M  V30 266 H 24.8558 2.39485 0.867121 0
M  V30 267 H 25.6388 3.40102 -0.467513 0
M  V30 268 N 28.0839 -0.256276 1.55502 0
M  V30 269 C 29.3299 -0.987079 1.77157 0
M  V30 270 C 29.6629 -1.85327 0.580315 0
M  V30 271 O 28.9379 -1.89874 -0.421686 0
M  V30 272 C 29.2209 -1.85553 3.08613 0
M  V30 273 C 29.0739 -1.01816 4.38125 0
M  V30 274 C 30.3929 -2.8397 3.36228 0
M  V30 275 H 27.5119 -0.357428 0.644526 0
M  V30 276 H 30.1539 -0.258239 1.88237 0
M  V30 277 H 28.3039 -2.47695 2.99298 0
M  V30 278 H 29.9759 -0.416159 4.59419 0
M  V30 279 H 28.2189 -0.322178 4.32602 0
M  V30 280 H 28.8899 -1.65939 5.26468 0
M  V30 281 H 31.3659 -2.31964 3.45445 0
M  V30 282 H 30.2419 -3.41864 4.29442 0
M  V30 283 H 30.5029 -3.59955 2.56681 0
M  V30 284 N 29.562 -1.4872 -0.521534 0
M  V30 285 C 30.79 -1.60843 -1.30142 0
M  V30 286 C 31.205 -0.271897 -1.86832 0
M  V30 287 O 30.562 0.739969 -1.66825 0
M  V30 288 C 30.613 -2.66155 -2.4463 0
M  V30 289 O 30.334 -3.94623 -1.90275 0
M  V30 290 C 31.835 -2.88795 -3.36322 0
M  V30 291 H 29.055 -0.542075 -0.395468 0
M  V30 292 H 31.599 -1.94609 -0.628285 0
M  V30 293 H 29.754 -2.35224 -3.07812 0
M  V30 294 H 30.168 -4.52468 -2.65279 0
M  V30 295 H 31.642 -3.66264 -4.12983 0
M  V30 296 H 32.119 -1.97934 -3.9207 0
M  V30 297 H 32.725 -3.21063 -2.78924 0
M  V30 298 N 31.0401 0.771051 -1.3745 0
M  V30 299 C 32.0031 1.86598 -1.33093 0
M  V30 300 C 33.0031 1.59076 -0.234845 0
M  V30 301 O 34.1931 1.67145 -0.490732 0
M  V30 302 C 31.3251 3.23747 -1.06773 0
M  V30 303 H 32.5181 1.91873 -2.30488 0
M  V30 304 H 30.0711 0.970876 -1.2249 0
M  V30 305 H 30.8061 3.24148 -0.099129 0
M  V30 306 H 30.5911 3.45115 -1.86112 0
M  V30 307 H 32.0811 4.03824 -1.06377 0
M  V30 308 N 32.5182 1.22032 0.997298 0
M  V30 309 C 33.4812 0.987909 2.06816 0
M  V30 310 C 34.4812 -0.0440084 1.6074 0
M  V30 311 O 35.6712 0.194053 1.73116 0
M  V30 312 C 32.8032 0.49132 3.37341 0
M  V30 313 H 33.9962 1.93803 2.28868 0
M  V30 314 H 31.5492 1.03838 1.16822 0
M  V30 315 H 32.2842 -0.463364 3.20973 0
M  V30 316 H 32.0692 1.23575 3.72118 0
M  V30 317 H 33.5592 0.348824 4.16141 0
M  V30 318 N 33.9963 -1.19345 1.0293 0
M  V30 319 C 34.9593 -2.20793 0.615069 0
M  V30 320 C 35.9593 -1.57553 -0.321533 0
M  V30 321 O 37.1493 -1.73862 -0.108483 0
M  V30 322 C 34.2813 -3.40754 -0.0999222 0
M  V30 323 H 35.4743 -2.58955 1.51269 0
M  V30 324 H 33.0273 -1.3303 0.820534 0
M  V30 325 H 33.7623 -3.0811 -1.01187 0
M  V30 326 H 33.5473 -3.87889 0.57309 0
M  V30 327 H 35.0373 -4.15898 -0.376645 0
M  V30 328 N 35.4744 -0.807222 -1.35358 0
M  V30 329 C 36.4374 -0.223665 -2.28106 0
M  V30 330 C 37.4374 0.589354 -1.4961 0
M  V30 331 O 38.6274 0.407745 -1.69361 0
M  V30 332 C 35.7594 0.688149 -3.33882 0
M  V30 333 H 36.9524 -1.04169 -2.81227 0
M  V30 334 H 34.5054 -0.577921 -1.45223 0
M  V30 335 H 35.2404 1.52984 -2.85948 0
M  V30 336 H 35.0254 0.10687 -3.91954 0
M  V30 337 H 36.5154 1.09075 -4.03104 0
M  V30 338 N 36.9525 1.47285 -0.560781 0
M  V30 339 C 37.9155 2.28535 0.174488 0
M  V30 340 C 38.9155 1.37153 0.839388 0
M  V30 341 O 40.1055 1.59748 0.694702 0
M  V30 342 C 37.2375 3.16934 1.25561 0
M  V30 343 H 38.4305 2.95012 -0.539262 0
M  V30 344 H 35.9835 1.53034 -0.317865 0
M  V30 345 H 36.7185 2.55157 2.00164 0
M  V30 346 H 36.5035 3.8419 0.783604 0
M  V30 347 H 37.9935 3.78143 1.77193 0
M  V30 348 N 38.4306 0.297415 1.54768 0
M  V30 349 C 39.3936 -0.567375 2.22066 0
M  V30 350 C 40.3936 -1.06409 1.20556 0
M  V30 351 O 41.5836 -0.960691 1.45315 0
M  V30 352 C 38.7156 -1.78517 2.90421 0
M  V30 353 H 39.9086 0.0205534 2.99893 0
M  V30 354 H 37.4616 0.0482163 1.56226 0
M  V30 355 H 38.1966 -2.41303 2.16664 0
M  V30 356 H 37.9816 -1.43669 3.64831 0
M  V30 357 H 39.4716 -2.39964 3.41771 0
M  V30 358 N 39.9087 -1.5758 0.0250728 0
M  V30 359 C 41.3197 -1.79476 -0.514323 0
M  V30 360 C 41.6707 -0.934956 -1.72491 0
M  V30 361 O 40.7957 -0.144245 -2.15919 0
M  V30 362 C 41.3907 -3.25503 -0.939842 0
M  V30 363 C 39.9497 -3.48408 -1.42438 0
M  V30 364 C 39.0967 -2.74583 -0.387201 0
M  V30 365 H 42.0477 -1.567 0.25113 0
M  V30 366 H 42.0687 -3.34992 -1.80445 0
M  V30 367 H 41.5807 -3.88056 -0.0585628 0
M  V30 368 H 39.6817 -2.91103 -2.32572 0
M  V30 369 H 39.7947 -4.57119 -1.43455 0
M  V30 370 H 38.1587 -2.39942 -0.854409 0
M  V30 371 H 38.9417 -3.39849 0.485543 0
M  V30 372 N 41.3868 0.248026 -1.55636 0
M  V30 373 C 42.3498 1.29044 -1.89421 0
M  V30 374 C 43.3498 1.41134 -0.770581 0
M  V30 375 O 44.5398 1.39854 -1.03858 0
M  V30 376 C 41.6718 2.66831 -2.12165 0
M  V30 377 H 42.8648 1.00305 -2.82629 0
M  V30 378 H 40.4178 0.487265 -1.48511 0
M  V30 379 H 41.1528 3.00711 -1.21422 0
M  V30 380 H 40.9378 2.59438 -2.93997 0
M  V30 381 H 42.4278 3.42103 -2.3949 0
M  V30 382 N 42.8649 1.48995 0.513639 0
M  V30 383 C 43.8279 1.64229 1.59879 0
M  V30 384 C 44.8279 0.514696 1.5234 0
M  V30 385 O 46.0179 0.78087 1.55718 0
M  V30 386 C 43.1499 1.62783 2.99524 0
M  V30 387 H 44.3429 2.61004 1.47705 0
M  V30 388 H 41.8959 1.37837 0.736936 0
M  V30 389 H 42.6309 0.675461 3.17188 0
M  V30 390 H 42.4159 2.4466 3.06404 0
M  V30 391 H 43.9059 1.76669 3.78388 0
M  V30 392 N 44.343 -0.763751 1.37857 0
M  V30 393 C 45.306 -1.85889 1.34081 0
M  V30 394 C 46.306 -1.58949 0.243277 0
M  V30 395 O 47.496 -1.66882 0.499589 0
M  V30 396 C 44.628 -3.23176 1.08489 0
M  V30 397 H 45.821 -1.90648 2.31502 0
M  V30 398 H 43.374 -0.964367 1.23003 0
M  V30 399 H 44.109 -3.24091 0.116318 0
M  V30 400 H 43.894 -3.44124 1.8794 0
M  V30 401 H 45.384 -4.03254 1.08517 0
M  V30 402 N 45.8211 -1.22559 -0.990812 0
M  V30 403 C 47.0491 -1.07779 -1.76611 0
M  V30 404 C 47.4641 0.371513 -1.85109 0
M  V30 405 O 46.8211 1.25737 -1.32274 0
M  V30 406 C 46.8721 -1.68512 -3.19822 0
M  V30 407 O 46.5931 -3.07774 -3.1178 0
M  V30 408 C 48.0941 -1.59035 -4.13791 0
M  V30 409 H 45.3141 -0.377729 -0.554583 0
M  V30 410 H 47.8581 -1.62195 -1.24551 0
M  V30 411 H 46.0131 -1.18154 -3.68942 0
M  V30 412 H 46.4271 -3.37062 -4.01858 0
M  V30 413 H 47.9011 -2.0625 -5.1202 0
M  V30 414 H 48.3781 -0.547273 -4.35777 0
M  V30 415 H 48.9841 -2.08709 -3.70568 0
M  V30 416 N 47.2992 1.18797 -1.03562 0
M  V30 417 C 48.2622 2.20464 -0.626769 0
M  V30 418 C 49.2622 1.57721 0.313173 0
M  V30 419 O 50.4522 1.73917 0.0992615 0
M  V30 420 C 47.5842 3.40802 0.0818498 0
M  V30 421 H 48.7772 2.58149 -1.5264 0
M  V30 422 H 46.3302 1.32593 -0.827578 0
M  V30 423 H 47.0652 3.08642 0.995518 0
M  V30 424 H 46.8502 3.8758 -0.593652 0
M  V30 425 H 48.3402 4.16092 0.354584 0
M  V30 426 N 48.7773 0.814389 1.34928 0
M  V30 427 C 49.7403 0.235759 2.27984 0
M  V30 428 C 50.7403 -0.581412 1.49921 0
M  V30 429 O 51.9303 -0.398758 1.69575 0
M  V30 430 C 49.0623 -0.670433 3.34242 0
M  V30 431 H 50.2553 1.05659 2.80671 0
M  V30 432 H 47.8083 0.585614 1.44915 0
M  V30 433 H 48.5433 -1.51466 2.86755 0
M  V30 434 H 48.3283 -0.0860822 3.92005 0
M  V30 435 H 49.8183 -1.06935 4.03676 0
M  V30 436 N 50.2554 -1.46986 0.568584 0
M  V30 437 C 51.6664 -1.86188 0.138219 0
M  V30 438 C 52.0174 -1.47388 -1.29504 0
M  V30 439 O 51.1424 -0.88219 -1.97602 0
M  V30 440 C 51.7374 -3.3792 0.244065 0
M  V30 441 C 50.2964 -3.76171 -0.131335 0
M  V30 442 C 49.4434 -2.71027 0.586465 0
M  V30 443 H 52.3944 -1.38342 0.777645 0
M  V30 444 H 52.4154 -3.76729 -0.534351 0
M  V30 445 H 51.9274 -3.66128 1.28731 0
M  V30 446 H 50.0284 -3.5358 -1.17526 0
M  V30 447 H 50.1414 -4.78523 0.235146 0
M  V30 448 H 48.5054 -2.54684 0.0282722 0
M  V30 449 H 49.2884 -3.02077 1.63109 0
M  V30 450 N 51.7335 -0.305618 -1.54608 0
M  V30 451 C 52.6965 0.555591 -2.22364 0
M  V30 452 C 53.6965 1.05768 -1.21119 0
M  V30 453 O 54.8865 0.952972 -1.45822 0
M  V30 454 C 52.0185 1.76974 -2.91364 0
M  V30 455 H 53.2115 -0.0364572 -2.99878 0
M  V30 456 H 50.7645 -0.0565007 -1.56198 0
M  V30 457 H 51.4995 2.40151 -2.17941 0
M  V30 458 H 51.2845 1.41732 -3.65588 0
M  V30 459 H 52.7745 2.38148 -3.43038 0
M  V30 460 N 53.2116 1.57565 -0.0334293 0
M  V30 461 C 54.6226 1.79746 0.504798 0
M  V30 462 C 54.9736 0.944091 1.71992 0
M  V30 463 O 54.0986 0.155694 2.15839 0
M  V30 464 C 54.6936 3.25997 0.922567 0
M  V30 465 C 53.2526 3.49159 1.40588 0
M  V30 466 C 52.3996 2.74785 0.372633 0
M  V30 467 H 55.3506 1.56565 -0.259436 0
M  V30 468 H 55.3716 3.35945 1.78666 0
M  V30 469 H 54.8836 3.88081 0.0379825 0
M  V30 470 H 52.9846 2.92332 2.31025 0
M  V30 471 H 53.0976 4.57873 1.41028 0
M  V30 472 H 51.4616 2.40391 0.841672 0
M  V30 473 H 52.2446 3.39587 -0.503559 0
M  V30 474 N 54.6897 -0.239769 1.55765 0
M  V30 475 C 55.6527 -1.28038 1.90103 0
M  V30 476 C 56.6527 -1.40723 0.778055 0
M  V30 477 O 57.8427 -1.39301 1.04599 0
M  V30 478 C 54.9747 -2.65702 2.13577 0
M  V30 479 H 56.1677 -0.988048 2.83157 0
M  V30 480 H 53.7207 -0.479382 1.48767 0
M  V30 481 H 54.4557 -3.00063 1.23015 0
M  V30 482 H 54.2407 -2.57875 2.95369 0
M  V30 483 H 55.7307 -3.40828 2.41301 0
M  V30 484 N 56.1678 -1.49265 -0.50573 0
M  V30 485 C 57.1308 -1.65075 -1.59006 0
M  V30 486 C 58.1308 -0.522768 -1.52065 0
M  V30 487 O 59.3208 -0.789117 -1.55302 0
M  V30 488 C 56.4528 -1.64369 -2.98656 0
M  V30 489 H 57.6458 -2.61784 -1.46319 0
M  V30 490 H 55.1988 -1.38226 -0.729616 0
M  V30 491 H 55.9338 -0.692272 -3.16825 0
M  V30 492 H 55.7188 -2.46282 -3.05103 0
M  V30 493 H 57.2088 -1.78674 -3.77446 0
M  V30 494 N 57.6459 0.756429 -1.3826 0
M  V30 495 C 59.0569 1.33359 -1.30661 0
M  V30 496 C 59.4079 1.96161 0.0388875 0
M  V30 497 O 58.5329 1.94874 0.940918 0
M  V30 498 C 59.1279 2.42477 -2.36622 0
M  V30 499 C 57.6869 2.95922 -2.3261 0
M  V30 500 C 56.8339 1.69275 -2.19639 0
M  V30 501 H 59.7849 0.55552 -1.4866 0
M  V30 502 H 59.8059 3.22345 -2.02174 0
M  V30 503 H 59.3179 1.96739 -3.34538 0
M  V30 504 H 57.4189 3.45996 -1.38267 0
M  V30 505 H 57.5319 3.50494 -3.26636 0
M  V30 506 H 55.8959 1.92793 -1.66442 0
M  V30 507 H 56.6789 1.25619 -3.19491 0
M  V30 508 N 59.124 1.23083 0.984299 0
M  V30 509 C 60.087 1.00979 2.05757 0
M  V30 510 C 61.087 -0.0269573 1.60777 0
M  V30 511 O 62.277 0.212403 1.729 0
M  V30 512 C 59.409 0.527072 3.36801 0
M  V30 513 H 60.602 1.9622 2.26799 0
M  V30 514 H 58.155 1.05072 1.15714 0
M  V30 515 H 58.89 -0.429294 3.21446 0
M  V30 516 H 58.675 1.27515 3.70786 0
M  V30 517 H 60.165 0.392942 4.15747 0
M  V30 518 N 60.6021 -1.18246 1.0419 0
M  V30 519 C 61.5651 -2.20128 0.638452 0
M  V30 520 C 62.5651 -1.57885 -0.304805 0
M  V30 521 O 63.7551 -1.73967 -0.0900369 0
M  V30 522 C 60.8871 -3.4084 -0.0637751 0
M  V30 523 H 62.0801 -2.57336 1.54007 0
M  V30 524 H 59.6331 -1.32152 0.834598 0
M  V30 525 H 60.3681 -3.09166 -0.979136 0
M  V30 526 H 60.1531 -3.8726 0.614198 0
M  V30 527 H 61.6431 -4.16274 -0.332512 0
M  V30 528 N 62.0802 -0.821533 -1.34494 0
M  V30 529 C 63.4912 -0.467956 -1.8074 0
M  V30 530 C 63.8422 1.01151 -1.68116 0
M  V30 531 O 62.9672 1.78707 -1.22036 0
M  V30 532 C 63.5622 -0.842627 -3.28154 0
M  V30 533 C 62.1212 -0.541439 -3.72485 0
M  V30 534 C 61.2682 -1.06028 -2.56229 0
M  V30 535 H 64.2192 -1.01183 -1.22261 0
M  V30 536 H 64.2402 -0.145876 -3.8022 0
M  V30 537 H 63.7522 -1.91945 -3.37311 0
M  V30 538 H 61.8532 0.526034 -3.68868 0
M  V30 539 H 61.9662 -1.08453 -4.66663 0
M  V30 540 H 60.3302 -0.481892 -2.501 0
M  V30 541 H 61.1132 -2.14352 -2.68157 0
M  V30 542 N 63.5583 1.46682 -0.576371 0
M  V30 543 C 64.5213 2.28707 0.150239 0
M  V30 544 C 65.5213 1.38035 0.824794 0
M  V30 545 O 66.7113 1.60476 0.677719 0
M  V30 546 C 63.8433 3.18248 1.22192 0
M  V30 547 H 65.0363 2.94423 -0.570521 0
M  V30 548 H 62.5893 1.52688 -0.334078 0
M  V30 549 H 63.3243 2.57265 1.97447 0
M  V30 550 H 63.1093 3.85 0.742812 0
M  V30 551 H 64.5993 3.80001 1.73172 0
M  V30 552 N 65.0364 0.313813 1.54444 0
M  V30 553 C 66.4474 -0.176243 1.85866 0
M  V30 554 C 66.7984 -1.52405 1.23561 0
M  V30 555 O 65.9234 -2.09605 0.538016 0
M  V30 556 C 66.5184 -0.32657 3.37222 0
M  V30 557 C 65.0774 -0.760846 3.6863 0
M  V30 558 C 64.2244 0.123247 2.77026 0
M  V30 559 H 67.1754 0.534418 1.49431 0
M  V30 560 H 67.1964 -1.15908 3.62416 0
M  V30 561 H 66.7084 0.654531 3.82541 0
M  V30 562 H 64.8094 -1.75204 3.28838 0
M  V30 563 H 64.9224 -0.571353 4.75681 0
M  V30 564 H 63.2864 -0.399597 2.51546 0
M  V30 565 H 64.0694 1.10094 3.25168 0
M  V30 566 N 66.5145 -1.57545 0.0417849 0
M  V30 567 C 67.4775 -2.09885 -0.92093 0
M  V30 568 C 68.4775 -1.01648 -1.24596 0
M  V30 569 O 69.6675 -1.27759 -1.1842 0
M  V30 570 C 66.7995 -2.57527 -2.23367 0
M  V30 571 H 67.9925 -2.96236 -0.467382 0
M  V30 572 H 65.5455 -1.5493 -0.206467 0
M  V30 573 H 66.2805 -1.74542 -2.73323 0
M  V30 574 H 66.0655 -3.36613 -2.01083 0
M  V30 575 H 67.5555 -2.98201 -2.92346 0
M  V30 576 N 67.9926 0.231505 -1.5589 0
M  V30 577 C 69.4036 0.799327 -1.68724 0
M  V30 578 C 69.7546 1.85398 -0.642022 0
M  V30 579 O 68.8796 2.1539 0.208784 0
M  V30 580 C 69.4746 1.45664 -3.05888 0
M  V30 581 C 68.0336 1.97197 -3.20609 0
M  V30 582 C 67.1806 0.828552 -2.64632 0
M  V30 583 H 70.1316 0.00702616 -1.58698 0
M  V30 584 H 70.1526 2.32517 -3.01191 0
M  V30 585 H 69.6646 0.688808 -3.81939 0
M  V30 586 H 67.7656 2.76813 -2.4941 0
M  V30 587 H 67.8786 2.15878 -4.27707 0
M  V30 588 H 66.2426 1.23321 -2.22854 0
M  V30 589 H 67.0256 0.0735544 -3.43221 0
M  V30 590 N 69.4707 1.49531 0.497807 0
M  V30 591 C 70.4337 1.65916 1.58128 0
M  V30 592 C 71.4337 0.530825 1.51786 0
M  V30 593 O 72.6237 0.797342 1.54881 0
M  V30 594 C 69.7557 1.65951 2.9778 0
M  V30 595 H 70.9487 2.62556 1.44929 0
M  V30 596 H 68.5017 1.38611 0.722275 0
M  V30 597 H 69.2367 0.709065 3.16453 0
M  V30 598 H 69.0217 2.47897 3.03792 0
M  V30 599 H 70.5117 1.80673 3.76493 0
M  V30 600 N 70.9488 -0.749086 1.3866 0
M  V30 601 C 72.3598 -1.32664 1.31366 0
M  V30 602 C 72.7108 -1.96179 -0.028484 0
M  V30 603 O 71.8358 -1.9537 -0.93057 0
M  V30 604 C 72.4308 -2.41219 2.37905 0
M  V30 605 C 70.9898 -2.94684 2.34176 0
M  V30 606 C 70.1368 -1.68108 2.20533 0
M  V30 607 H 73.0878 -0.547628 1.48952 0
M  V30 608 H 73.1088 -3.21268 2.0388 0
M  V30 609 H 72.6208 -1.94962 3.35576 0
M  V30 610 H 70.7218 -3.45258 1.401 0
M  V30 611 H 70.8348 -3.48757 3.2849 0
M  V30 612 H 69.1988 -1.91907 1.67463 0
M  V30 613 H 69.9818 -1.23923 3.20153 0
M  V30 614 N 72.4269 -1.23603 -0.977757 0
M  V30 615 C 73.3899 -1.02069 -2.05218 0
M  V30 616 C 74.3899 0.0184305 -1.60789 0
M  V30 617 O 75.5799 -0.221569 -1.72785 0
M  V30 618 C 72.7119 -0.544926 -3.36517 0
M  V30 619 H 73.9049 -1.9742 -2.25755 0
M  V30 620 H 71.4579 -1.05684 -1.15155 0
M  V30 621 H 72.1929 0.412241 -3.21669 0
M  V30 622 H 71.9779 -1.2948 -3.70105 0
M  V30 623 H 73.4679 -0.414985 -4.15533 0
M  V30 624 N 73.905 1.17692 -1.04816 0
M  V30 625 C 74.868 2.19787 -0.650117 0
M  V30 626 C 75.868 1.58044 0.296427 0
M  V30 627 O 77.058 1.74012 0.0808097 0
M  V30 628 C 74.19 3.40869 0.0456987 0
M  V30 629 H 75.383 2.56516 -1.5537 0
M  V30 630 H 72.936 1.31708 -0.841594 0
M  V30 631 H 73.671 3.09681 0.962726 0
M  V30 632 H 73.456 3.86928 -0.634727 0
M  V30 633 H 74.946 4.16445 0.310432 0
M  V30 634 N 75.3831 0.828654 1.34056 0
M  V30 635 C 76.3151 0.212052 2.28217 0
M  V30 636 C 77.3281 -0.601362 1.51286 0
M  V30 637 O 78.5171 -0.430104 1.73241 0
M  V30 638 C 75.6171 -0.72088 3.31144 0
M  V30 639 C 74.7901 0.0509587 4.3737 0
M  V30 640 C 73.8491 -0.803766 5.20025 0
M  V30 641 O 72.8751 -0.246667 5.68665 0
M  V30 642 N 74.0771 -2.1227 5.40298 0
M  V30 643 H 76.8421 1.02105 2.81771 0
M  V30 644 H 74.4031 0.686153 1.46641 0
M  V30 645 H 76.3951 -1.29742 3.8334 0
M  V30 646 H 74.9651 -1.43061 2.77943 0
M  V30 647 H 74.1851 0.808831 3.85813 0
M  V30 648 H 75.4731 0.582065 5.0546 0
M  V30 649 H 74.8711 -2.59898 5.02464 0
M  V30 650 H 73.4281 -2.64796 5.95589 0
M  V30 651 N 76.8612 -1.46375 0.584142 0
M  V30 652 C 77.8242 -2.28784 -0.138108 0
M  V30 653 C 78.8242 -1.38471 -0.817462 0
M  V30 654 O 80.0142 -1.60833 -0.669199 0
M  V30 655 C 77.1462 -3.18892 -1.20503 0
M  V30 656 H 78.3392 -2.94117 0.586127 0
M  V30 657 H 75.8922 -1.52509 0.342171 0
M  V30 658 H 76.6272 -2.58309 -1.96079 0
M  V30 659 H 76.4122 -3.85388 -0.722384 0
M  V30 660 H 77.9022 -3.80914 -1.71155 0
M  V30 661 N 78.3393 -0.321999 -1.54275 0
M  V30 662 C 79.5853 0.281461 -2.00837 0
M  V30 663 C 79.9183 1.51909 -1.20985 0
M  V30 664 O 79.1933 1.923 -0.291733 0
M  V30 665 C 79.4763 0.617162 -3.54772 0
M  V30 666 C 79.3293 -0.631064 -4.45351 0
M  V30 667 C 80.6483 1.43542 -4.16033 0
M  V30 668 H 77.7673 0.100826 -0.730071 0
M  V30 669 H 80.4093 -0.438268 -1.84876 0
M  V30 670 H 78.5593 1.23034 -3.68504 0
M  V30 671 H 80.2313 -1.26934 -4.43492 0
M  V30 672 H 78.4743 -1.26025 -4.15091 0
M  V30 673 H 79.1453 -0.351735 -5.50878 0
M  V30 674 H 81.6213 0.917134 -4.05867 0
M  V30 675 H 80.4973 1.63907 -5.23856 0
M  V30 676 H 80.7583 2.43108 -3.69257 0
M  V30 677 N 79.8174 1.5752 -0.0501392 0
M  V30 678 C 81.0654 1.9227 0.622642 0
M  V30 679 C 81.3864 0.929083 1.71444 0
M  V30 680 O 80.6564 -0.0262186 1.95882 0
M  V30 681 H 79.2364 0.709739 0.232981 0
M  V30 682 H 81.8984 1.94628 -0.102898 0
M  V30 683 H 80.9944 2.93479 1.06191 0
M  V30 684 N 81.2955 -0.223234 1.56011 0
M  V30 685 C 82.5415 -0.944891 1.8012 0
M  V30 686 C 82.8965 -1.82039 0.622862 0
M  V30 687 O 82.1895 -1.8773 -0.383143 0
M  V30 688 C 82.3835 -1.81948 3.0762 0
M  V30 689 C 82.2125 -1.03014 4.37742 0
M  V30 690 C 80.9825 -0.72574 5.00061 0
M  V30 691 C 83.1805 -0.396256 5.12771 0
M  V30 692 N 81.1625 0.0851816 6.13841 0
M  V30 693 C 82.5335 0.278137 6.19376 0
M  V30 694 C 84.5885 -0.309117 4.9694 0
M  V30 695 C 83.2915 1.03133 7.11868 0
M  V30 696 C 85.3175 0.430607 5.8983 0
M  V30 697 C 84.6795 1.09355 6.9586 0
M  V30 698 H 80.7785 -0.326081 0.710771 0
M  V30 699 H 83.3625 -0.215914 1.93499 0
M  V30 700 H 81.5335 -2.52029 2.95527 0
M  V30 701 H 83.2655 -2.47848 3.19927 0
M  V30 702 H 80.0205 -1.04335 4.61964 0
M  V30 703 H 80.4445 0.479428 6.753 0
M  V30 704 H 85.0865 -0.807313 4.15021 0
M  V30 705 H 82.8045 1.54105 7.9327 0
M  V30 706 H 86.3905 0.499012 5.79656 0
M  V30 707 H 85.2705 1.65679 7.66499 0
M  V30 708 N 82.7736 -1.49793 -0.48987 0
M  V30 709 C 84.1846 -1.52914 -1.07118 0
M  V30 710 C 84.5356 -0.321738 -1.93544 0
M  V30 711 O 83.6606 0.567338 -2.08831 0
M  V30 712 C 84.2556 -2.771 -1.94938 0
M  V30 713 C 82.8146 -2.82963 -2.48212 0
M  V30 714 C 81.9616 -2.46972 -1.26096 0
M  V30 715 H 84.9126 -1.56329 -0.273289 0
M  V30 716 H 84.9336 -2.57892 -2.79771 0
M  V30 717 H 84.4456 -3.64959 -1.32009 0
M  V30 718 H 82.5466 -1.99411 -3.14748 0
M  V30 719 H 82.6596 -3.85406 -2.84603 0
M  V30 720 H 81.0236 -1.98994 -1.58976 0
M  V30 721 H 81.8066 -3.37118 -0.648581 0
M  V30 722 N 84.2517 0.741722 -1.39055 0
M  V30 723 C 85.5007 1.49656 -1.35225 0
M  V30 724 C 85.8137 1.95533 0.0512708 0
M  V30 725 O 87.0197 2.7067 0.212138 0
M  V30 726 C 85.4757 2.70389 -2.37525 0
M  V30 727 C 85.0837 2.31489 -3.83558 0
M  V30 728 C 86.8277 3.48236 -2.42759 0
M  V30 729 C 84.7347 3.48903 -4.77515 0
M  V30 730 H 83.6647 0.56197 -0.502699 0
M  V30 731 H 86.3157 0.809727 -1.64668 0
M  V30 732 H 84.6977 3.41113 -2.01142 0
M  V30 733 H 85.8717 1.68354 -4.28945 0
M  V30 734 H 84.1867 1.66749 -3.81554 0
M  V30 735 H 86.7837 4.35558 -3.1015 0
M  V30 736 H 87.1267 3.90229 -1.45008 0
M  V30 737 H 87.6597 2.84535 -2.78002 0
M  V30 738 H 84.3987 3.11966 -5.76504 0
M  V30 739 H 83.9187 4.11041 -4.36813 0
M  V30 740 H 85.5977 4.15328 -4.96096 0
M  V30 741 N 85.7298 1.2412 0.971189 0
M  V30 742 C 86.9698 1.09066 1.7287 0
M  V30 743 C 87.3338 -0.364794 1.88503 0
M  V30 744 O 88.5348 -0.636748 2.61149 0
M  V30 745 C 86.8058 1.80629 3.08396 0
M  V30 746 S 88.3648 1.81263 3.99611 0
M  V30 747 H 85.1828 0.390145 0.594397 0
M  V30 748 H 87.7848 1.57397 1.15959 0
M  V30 749 H 86.4888 2.85647 2.94676 0
M  V30 750 H 86.0198 1.32617 3.70373 0
M  V30 751 H 88.0348 0.877804 4.88374 0
M  V30 752 N 87.2079 -1.17134 1.05439 0
M  V30 753 C 88.6239 -1.39454 0.776201 0
M  V30 754 C 88.8239 -1.91454 -0.628307 0
M  V30 755 O 87.8799 -2.10777 -1.39031 0
M  V30 756 C 89.1929 -2.38305 1.83388 0
M  V30 757 C 90.7409 -2.52006 1.85639 0
M  V30 758 C 91.2159 -3.54133 2.90437 0
M  V30 759 N 92.7069 -3.61653 2.89415 0
M  V30 760 C 93.4419 -4.4044 3.67152 0
M  V30 761 N 92.9379 -5.22721 4.54681 0
M  V30 762 N 94.7309 -4.35337 3.55581 0
M  V30 763 H 86.8819 -0.817134 1.96053 0
M  V30 764 H 89.1449 -0.421626 0.849079 0
M  V30 765 H 88.8509 -2.07173 2.84204 0
M  V30 766 H 88.7249 -3.37841 1.67761 0
M  V30 767 H 91.1119 -2.82447 0.85486 0
M  V30 768 H 91.1929 -1.52537 2.05344 0
M  V30 769 H 90.8369 -3.24431 3.90777 0
M  V30 770 H 90.7669 -4.53313 2.67983 0
M  V30 771 H 93.2579 -3.02909 2.25952 0
M  V30 772 H 93.5709 -5.80027 5.10674 0
M  V30 773 H 91.9159 -5.22093 4.58741 0
M  V30 774 H 95.1069 -3.70112 2.86592 0
M  V30 775 H 95.2799 -4.96494 4.1641 0
M  V30 776 N 88.686 -0.835752 -1.33615 0
M  V30 777 C 89.963 -0.352017 -1.92406 0
M  V30 778 C 90.343 1.16225 -1.76224 0
M  V30 779 O 89.691 1.97526 -1.14873 0
M  V30 780 C 89.901 -0.795485 -3.39813 0
M  V30 781 C 91.249 -0.801703 -4.16963 0
M  V30 782 O 92.273 -0.738889 -3.48452 0
M  V30 783 O 91.132 -0.886607 -5.3926 0
M  V30 784 H 88.226 -0.0989641 -0.821057 0
M  V30 785 H 90.772 -0.921397 -1.42507 0
M  V30 786 H 89.544 -1.83795 -3.45449 0
M  V30 787 H 89.167 -0.202505 -3.97084 0
M  V30 788 N 90.1641 1.46063 -0.591896 0
M  V30 789 C 91.1271 2.28854 0.125973 0
M  V30 790 C 92.1271 1.38903 0.810107 0
M  V30 791 O 93.3171 1.61186 0.66066 0
M  V30 792 C 90.4491 3.19526 1.1881 0
M  V30 793 H 91.6421 2.93802 -0.601717 0
M  V30 794 H 89.1951 1.52325 -0.350254 0
M  V30 795 H 89.9301 2.59345 1.94707 0
M  V30 796 H 89.7151 3.85766 0.701936 0
M  V30 797 H 91.2051 3.81817 1.69132 0
M  V30 798 N 91.6422 0.330177 1.54103 0
M  V30 799 C 92.8722 -0.271784 2.04805 0
M  V30 800 C 93.2802 -1.45816 1.20559 0
M  V30 801 O 92.6232 -1.82247 0.2306 0
M  V30 802 C 92.6852 -0.763238 3.51305 0
M  V30 803 C 92.3492 0.301705 4.56003 0
M  V30 804 C 93.3462 1.13999 5.07248 0
M  V30 805 C 91.0312 0.451793 5.00264 0
M  V30 806 C 93.0252 2.11402 6.01322 0
M  V30 807 C 90.7122 1.42924 5.94151 0
M  V30 808 C 91.7102 2.25882 6.44567 0
M  V30 809 O 91.3982 3.21965 7.3661 0
M  V30 810 H 91.1302 -0.058693 0.673447 0
M  V30 811 H 93.6842 0.476395 1.99799 0
M  V30 812 H 91.9142 -1.56244 3.5373 0
M  V30 813 H 93.6032 -1.28427 3.85047 0
M  V30 814 H 94.3692 1.03505 4.73827 0
M  V30 815 H 90.2482 -0.184044 4.60632 0
M  V30 816 H 93.7922 2.76192 6.40596 0
M  V30 817 H 89.6892 1.53479 6.26988 0
M  V30 818 H 90.4572 3.17281 7.54503 0
M  V30 819 N 93.1203 -1.57491 0.0584922 0
M  V30 820 C 94.0303 -2.15448 -0.928414 0
M  V30 821 C 95.0463 -1.11416 -1.3365 0
M  V30 822 O 96.2223 -1.4362 -1.41193 0
M  V30 823 C 93.2873 -2.69393 -2.18239 0
M  V30 824 C 92.3483 -3.88249 -1.83196 0
M  V30 825 C 91.5813 -4.39613 -3.02616 0
M  V30 826 O 91.8043 -3.90023 -4.16219 0
M  V30 827 O 90.7383 -5.31111 -2.83204 0
M  V30 828 H 94.5643 -3.00112 -0.465483 0
M  V30 829 H 92.1493 -1.48499 -0.163826 0
M  V30 830 H 94.0313 -3.04026 -2.91798 0
M  V30 831 H 92.7063 -1.87796 -2.63656 0
M  V30 832 H 91.6133 -3.58492 -1.06931 0
M  V30 833 H 92.9463 -4.71098 -1.42573 0
M  V30 834 N 94.5984 0.214957 -1.56127 0
M  V30 835 C 95.5284 1.2695 -1.95974 0
M  V30 836 C 96.5094 1.48539 -0.828868 0
M  V30 837 O 97.6944 1.60611 -1.09168 0
M  V30 838 C 94.8244 2.61794 -2.28214 0
M  V30 839 C 93.7784 2.54851 -3.43853 0
M  V30 840 C 93.1044 3.93785 -3.61715 0
M  V30 841 C 94.4044 2.09065 -4.78632 0
M  V30 842 H 96.0984 0.93846 -2.84312 0
M  V30 843 H 93.6444 0.449996 -1.36788 0
M  V30 844 H 95.5974 3.35731 -2.54682 0
M  V30 845 H 94.3214 2.96599 -1.36736 0
M  V30 846 H 92.9804 1.8337 -3.17444 0
M  V30 847 H 92.6284 4.25908 -2.67602 0
M  V30 848 H 92.3284 3.90019 -4.39498 0
M  V30 849 H 93.8524 4.69374 -3.90539 0
M  V30 850 H 95.2664 2.7275 -5.04262 0
M  V30 851 H 93.6634 2.16346 -5.59745 0
M  V30 852 H 94.7334 1.04315 -4.73547 0
M  V30 853 N 96.0765 1.50051 0.48192 0
M  V30 854 C 97.0085 1.64263 1.59844 0
M  V30 855 C 98.0215 0.52451 1.54119 0
M  V30 856 O 99.2105 0.797293 1.59704 0
M  V30 857 C 96.3105 1.60102 2.98698 0
M  V30 858 C 95.4835 2.87767 3.29407 0
M  V30 859 C 94.5425 2.76397 4.47762 0
M  V30 860 O 93.5685 3.50348 4.48603 0
M  V30 861 N 94.7705 1.89222 5.48794 0
M  V30 862 H 97.5355 2.60566 1.48073 0
M  V30 863 H 95.0965 1.47379 0.670149 0
M  V30 864 H 97.0885 1.50123 3.75826 0
M  V30 865 H 95.6585 0.715798 3.04294 0
M  V30 866 H 94.8785 3.11954 2.40994 0
M  V30 867 H 96.1665 3.72365 3.4673 0
M  V30 868 H 95.5645 1.28434 5.50928 0
M  V30 869 H 94.1215 1.85154 6.24949 0
M  V30 870 N 97.5546 -0.734337 1.39446 0
M  V30 871 C 98.4646 -1.87879 1.40495 0
M  V30 872 C 99.4806 -1.714 0.299672 0
M  V30 873 O 100.657 -1.93991 0.541249 0
M  V30 874 C 97.7216 -3.23477 1.24754 0
M  V30 875 C 96.7826 -3.52344 2.45259 0
M  V30 876 C 96.0156 -4.81473 2.30259 0
M  V30 877 O 96.2386 -5.55237 1.30643 0
M  V30 878 O 95.1726 -5.10254 3.19256 0
M  V30 879 H 98.9986 -1.89949 2.36966 0
M  V30 880 H 96.5836 -0.882243 1.20569 0
M  V30 881 H 98.4656 -4.04509 1.18111 0
M  V30 882 H 97.1406 -3.22176 0.313781 0
M  V30 883 H 96.0476 -2.71396 2.57478 0
M  V30 884 H 97.3806 -3.58426 3.37331 0
M  V30 885 N 99.0327 -1.24633 -0.964593 0
M  V30 886 C 100.279 -1.08949 -1.71049 0
M  V30 887 C 100.612 0.370302 -1.90637 0
M  V30 888 O 99.8867 1.27349 -1.47011 0
M  V30 889 C 100.17 -1.83329 -3.0994 0
M  V30 890 C 100.023 -3.37077 -2.97824 0
M  V30 891 C 101.342 -1.60846 -4.09654 0
M  V30 892 H 98.4607 -0.397178 -0.620821 0
M  V30 893 H 101.103 -1.5334 -1.12191 0
M  V30 894 H 99.2527 -1.45597 -3.60186 0
M  V30 895 H 100.925 -3.84425 -2.5498 0
M  V30 896 H 99.1677 -3.65298 -2.33965 0
M  V30 897 H 99.8387 -3.84324 -3.96231 0
M  V30 898 H 102.315 -1.93674 -3.68279 0
M  V30 899 H 101.191 -2.1534 -5.04896 0
M  V30 900 H 101.452 -0.547434 -4.38698 0
M  V30 901 N 100.511 1.16574 -1.06058 0
M  V30 902 C 101.76 1.86385 -0.770944 0
M  V30 903 C 102.073 1.82448 0.705129 0
M  V30 904 O 103.279 2.47815 1.10905 0
M  V30 905 C 101.735 3.34466 -1.32893 0
M  V30 906 C 101.343 3.46883 -2.83507 0
M  V30 907 C 103.087 4.09548 -1.11672 0
M  V30 908 C 100.994 4.89036 -3.32562 0
M  V30 909 H 99.9238 0.698181 -0.284709 0
M  V30 910 H 102.575 1.31583 -1.27899 0
M  V30 911 H 100.957 3.88859 -0.748662 0
M  V30 912 H 102.131 3.02663 -3.47465 0
M  V30 913 H 100.446 2.85232 -3.03368 0
M  V30 914 H 103.043 5.14434 -1.45814 0
M  V30 915 H 103.386 4.16264 -0.0549535 0
M  V30 916 H 103.919 3.61387 -1.66265 0
M  V30 917 H 100.658 4.87499 -4.38207 0
M  V30 918 H 100.178 5.3389 -2.73351 0
M  V30 919 H 101.857 5.57843 -3.2775 0
M  V30 920 N 101.989 0.842826 1.3317 0
M  V30 921 C 103.237 0.439577 1.97262 0
M  V30 922 C 103.558 -1.00548 1.67078 0
M  V30 923 O 102.828 -1.70098 0.971779 0
M  V30 924 H 101.408 0.159558 0.72976 0
M  V30 925 H 104.07 1.07665 1.62463 0
M  V30 926 H 103.166 0.574886 3.0676 0
M  V30 927 N 103.467 -1.45747 0.599634 0
M  V30 928 C 104.692 -2.07178 0.0960198 0
M  V30 929 C 105.117 -1.44268 -1.207 0
M  V30 930 O 104.475 -0.532503 -1.73303 0
M  V30 931 C 104.523 -3.60579 -0.0385348 0
M  V30 932 O 103.627 -3.97713 -1.0908 0
M  V30 933 H 102.968 -0.660251 0.0704593 0
M  V30 934 H 105.498 -1.87124 0.827385 0
M  V30 935 H 105.508 -4.07298 -0.239304 0
M  V30 936 H 104.183 -4.05756 0.912947 0
M  V30 937 H 102.76 -3.62678 -0.867135 0
M  V30 938 N 104.945 -0.338344 -1.53925 0
M  V30 939 C 106.193 0.259245 -2.0043 0
M  V30 940 C 106.514 1.51484 -1.22791 0
M  V30 941 O 105.784 1.93037 -0.33368 0
M  V30 942 H 104.364 0.0987845 -0.740439 0
M  V30 943 H 107.026 -0.458302 -1.89435 0
M  V30 944 H 106.122 0.505334 -3.07982 0
M  V30 945 N 106.423 1.57458 -0.0668435 0
M  V30 946 C 107.386 2.11323 0.887422 0
M  V30 947 C 108.386 1.03618 1.22964 0
M  V30 948 O 109.576 1.29626 1.16373 0
M  V30 949 C 106.708 2.61048 2.19242 0
M  V30 950 H 107.901 2.96942 0.420194 0
M  V30 951 H 105.454 1.55239 0.181793 0
M  V30 952 H 106.189 1.78868 2.70512 0
M  V30 953 H 105.974 3.39769 1.95702 0
M  V30 954 H 107.464 3.02814 2.87565 0
M  V30 955 N 107.901 -0.206675 1.56239 0
M  V30 956 C 109.129 -0.945345 1.8404 0
M  V30 957 C 109.544 -1.77336 0.647885 0
M  V30 958 O 108.901 -1.78425 -0.383511 0
M  V30 959 C 108.952 -1.8509 3.10522 0
M  V30 960 O 108.673 -1.05634 4.25174 0
M  V30 961 C 110.174 -2.70222 3.51418 0
M  V30 962 H 107.394 -0.276372 0.61144 0
M  V30 963 H 109.938 -0.217417 2.03341 0
M  V30 964 H 108.093 -2.53259 2.93153 0
M  V30 965 H 108.507 -1.67238 4.97124 0
M  V30 966 H 109.981 -3.29438 4.42916 0
M  V30 967 H 110.458 -3.43358 2.73864 0
M  V30 968 H 111.064 -2.07443 3.71278 0
M  V30 969 N 109.379 -1.50304 -0.473955 0
M  V30 970 C 110.342 -1.6841 -1.55469 0
M  V30 971 C 111.342 -0.554905 -1.50922 0
M  V30 972 O 112.532 -0.821882 -1.53593 0
M  V30 973 C 109.664 -1.70667 -2.95102 0
M  V30 974 H 110.857 -2.64828 -1.40733 0
M  V30 975 H 108.41 -1.39742 -0.700132 0
M  V30 976 H 109.145 -0.75932 -3.15285 0
M  V30 977 H 108.93 -2.52698 -2.9981 0
M  V30 978 H 110.42 -1.8664 -3.73571 0
M  V30 979 N 110.857 0.726932 -1.39834 0
M  V30 980 C 112.103 1.48884 -1.377 0
M  V30 981 C 112.436 1.94185 0.0244852 0
M  V30 982 O 111.711 1.67361 0.990986 0
M  V30 983 C 111.994 2.72288 -2.3565 0
M  V30 984 C 111.847 2.32956 -3.84775 0
M  V30 985 C 113.166 3.74414 -2.31306 0
M  V30 986 H 110.285 0.540062 -0.5015 0
M  V30 987 H 112.927 0.830547 -1.70886 0
M  V30 988 H 111.077 3.28457 -2.07481 0
M  V30 989 H 112.749 1.82356 -4.23726 0
M  V30 990 H 110.992 1.65088 -4.01159 0
M  V30 991 H 111.663 3.21362 -4.4881 0
M  V30 992 H 114.139 3.27849 -2.56231 0
M  V30 993 H 113.015 4.58414 -3.01907 0
M  V30 994 H 113.276 4.21909 -1.32081 0
M  V30 995 N 112.336 1.25143 0.95797 0
M  V30 996 C 113.582 1.09855 1.70469 0
M  V30 997 C 113.915 -0.360187 1.90831 0
M  V30 998 O 113.19 -1.26568 1.47685 0
M  V30 999 C 113.473 1.8497 3.08963 0
M  V30 1000 C 113.326 3.38652 2.96032 0
M  V30 1001 C 114.645 1.63016 4.08795 0
M  V30 1002 H 111.764 0.400465 0.618706 0
M  V30 1003 H 114.406 1.53933 1.11376 0
M  V30 1004 H 112.556 1.47505 3.59409 0
M  V30 1005 H 114.228 3.85772 2.52938 0
M  V30 1006 H 112.471 3.66534 2.32025 0
M  V30 1007 H 113.142 3.8642 3.94187 0
M  V30 1008 H 115.618 1.95625 3.67247 0
M  V30 1009 H 114.494 2.18015 5.03747 0
M  V30 1010 H 114.755 0.570692 4.38401 0
M  V30 1011 N 113.814 -1.1601 1.06675 0
M  V30 1012 C 114.746 -2.20115 0.638921 0
M  V30 1013 C 115.759 -1.59916 -0.305057 0
M  V30 1014 O 116.948 -1.78245 -0.0954446 0
M  V30 1015 C 114.048 -3.38798 -0.0830083 0
M  V30 1016 C 113.221 -4.2855 0.875426 0
M  V30 1017 C 112.28 -5.25849 0.192042 0
M  V30 1018 O 111.306 -5.63102 0.830921 0
M  V30 1019 N 112.508 -5.70648 -1.06493 0
M  V30 1020 H 115.273 -2.57439 1.53444 0
M  V30 1021 H 112.834 -1.31057 0.950557 0
M  V30 1022 H 114.826 -4.00936 -0.550685 0
M  V30 1023 H 113.396 -2.99947 -0.880386 0
M  V30 1024 H 112.616 -3.63617 1.52238 0
M  V30 1025 H 113.904 -4.85393 1.52548 0
M  V30 1026 H 113.302 -5.42482 -1.60405 0
M  V30 1027 H 111.859 -6.34859 -1.47641 0
M  V30 1028 N 115.292 -0.849877 -1.32721 0
M  V30 1029 C 116.255 -0.296122 -2.27279 0
M  V30 1030 C 117.255 0.541458 -1.5141 0
M  V30 1031 O 118.445 0.353658 -1.70572 0
M  V30 1032 C 115.577 0.581579 -3.35902 0
M  V30 1033 H 116.77 -1.13064 -2.77771 0
M  V30 1034 H 114.323 -0.62383 -1.43311 0
M  V30 1035 H 115.058 1.43809 -2.9067 0
M  V30 1036 H 114.843 -0.0178814 -3.92096 0
M  V30 1037 H 116.333 0.961951 -4.0637 0
M  V30 1038 N 116.77 1.45427 -0.607355 0
M  V30 1039 C 117.733 2.28974 0.101693 0
M  V30 1040 C 118.733 1.39754 0.795329 0
M  V30 1041 O 119.923 1.61878 0.643527 0
M  V30 1042 C 117.055 3.20768 1.15414 0
M  V30 1043 H 118.248 2.93147 -0.632844 0
M  V30 1044 H 115.801 1.51945 -0.366391 0
M  V30 1045 H 116.536 2.61395 1.91945 0
M  V30 1046 H 116.321 3.86489 0.66098 0
M  V30 1047 H 117.811 3.83589 1.65073 0
M  V30 1048 N 118.248 0.346503 1.53744 0
M  V30 1049 C 119.178 -0.501193 2.28058 0
M  V30 1050 C 120.159 -1.10014 1.29734 0
M  V30 1051 O 121.344 -1.12097 1.58581 0
M  V30 1052 C 118.474 -1.65078 3.05559 0
M  V30 1053 C 117.428 -1.18003 4.11411 0
M  V30 1054 C 116.754 -2.41837 4.76884 0
M  V30 1055 C 118.054 -0.278394 5.21558 0
M  V30 1056 H 119.748 0.11875 2.99164 0
M  V30 1057 H 117.294 0.0585531 1.43881 0
M  V30 1058 H 119.247 -2.25028 3.56287 0
M  V30 1059 H 117.971 -2.29767 2.32109 0
M  V30 1060 H 116.63 -0.603331 3.61601 0
M  V30 1061 H 116.278 -3.0494 4.00026 0
M  V30 1062 H 115.978 -2.1102 5.48402 0
M  V30 1063 H 117.502 -3.02508 5.30397 0
M  V30 1064 H 118.916 -0.784823 5.67903 0
M  V30 1065 H 117.313 -0.0619707 6.00068 0
M  V30 1066 H 118.383 0.684677 4.80042 0
M  V30 1067 N 119.726 -1.57421 0.075193 0
M  V30 1068 C 120.966 -1.95495 -0.596757 0
M  V30 1069 C 121.33 -0.954886 -1.66571 0
M  V30 1070 O 122.531 -1.22341 -2.39345 0
M  V30 1071 C 120.802 -3.382 -1.15566 0
M  V30 1072 S 122.361 -3.98254 -1.84226 0
M  V30 1073 H 119.179 -0.683649 -0.195307 0
M  V30 1074 H 121.781 -1.94925 0.149859 0
M  V30 1075 H 120.485 -4.08766 -0.36588 0
M  V30 1076 H 120.016 -3.42321 -1.93856 0
M  V30 1077 H 122.031 -3.85435 -3.12497 0
M  V30 1078 N 121.204 0.198386 -1.56346 0
M  V30 1079 C 122.151 1.24589 -1.94284 0
M  V30 1080 C 123.121 1.454 -0.802997 0
M  V30 1081 O 124.306 1.58588 -1.06087 0
M  V30 1082 C 121.446 2.58631 -2.28482 0
M  V30 1083 C 120.559 2.45426 -3.55514 0
M  V30 1084 C 119.694 3.7215 -3.79049 0
M  V30 1085 C 118.733 3.53763 -4.99518 0
M  V30 1086 N 117.87 4.72491 -5.19323 0
M  V30 1087 H 122.71 0.915356 -2.83593 0
M  V30 1088 H 120.247 0.440629 -1.40346 0
M  V30 1089 H 122.205 3.3672 -2.46324 0
M  V30 1090 H 120.835 2.89734 -1.42317 0
M  V30 1091 H 119.887 1.58652 -3.45737 0
M  V30 1092 H 121.199 2.27772 -4.43758 0
M  V30 1093 H 120.353 4.58679 -3.97113 0
M  V30 1094 H 119.092 3.92754 -2.89129 0
M  V30 1095 H 118.097 2.65619 -4.8138 0
M  V30 1096 H 119.322 3.34607 -5.90944 0
M  V30 1097 H 117.268 4.93365 -4.3235 0
M  V30 1098 H 117.185 4.5765 -6.01741 0
M  V30 1099 H 118.453 5.6038 -5.41843 0
M  V30 1100 N 122.682 1.50554 0.465978 0
M  V30 1101 C 124.093 1.54599 1.04671 0
M  V30 1102 C 124.444 0.352488 1.93008 0
M  V30 1103 O 123.569 -0.534044 2.09707 0
M  V30 1104 C 124.164 2.80166 1.90505 0
M  V30 1105 C 122.723 2.86876 2.43678 0
M  V30 1106 C 121.87 2.48947 1.22151 0
M  V30 1107 H 124.821 1.56744 0.248384 0
M  V30 1108 H 124.842 2.62311 2.75633 0
M  V30 1109 H 124.354 3.67013 1.26186 0
M  V30 1110 H 122.455 2.04393 3.11536 0
M  V30 1111 H 122.568 3.89885 2.78436 0
M  V30 1112 H 120.932 2.01498 1.5579 0
M  V30 1113 H 121.715 3.38107 0.594866 0
M  V30 1114 N 124.16 -0.719506 1.40217 0
M  V30 1115 C 125.576 -1.02707 1.22161 0
M  V30 1116 C 125.776 -2.0128 0.0940557 0
M  V30 1117 O 124.832 -2.46452 -0.549318 0
M  V30 1118 C 126.145 -1.57454 2.56181 0
M  V30 1119 C 127.693 -1.69458 2.63159 0
M  V30 1120 C 128.168 -2.27611 3.97438 0
M  V30 1121 N 129.659 -2.35002 3.99159 0
M  V30 1122 C 130.394 -2.80972 4.99842 0
M  V30 1123 N 129.89 -3.26723 6.10921 0
M  V30 1124 N 131.683 -2.80321 4.87213 0
M  V30 1125 H 123.834 -0.0660492 2.12297 0
M  V30 1126 H 126.097 -0.0919077 0.943534 0
M  V30 1127 H 125.803 -0.924873 3.39321 0
M  V30 1128 H 125.677 -2.56036 2.76993 0
M  V30 1129 H 128.064 -2.33543 1.80393 0
M  V30 1130 H 128.145 -0.694867 2.46181 0
M  V30 1131 H 127.789 -1.6415 4.80643 0
M  V30 1132 H 127.719 -3.2829 4.11744 0
M  V30 1133 H 130.21 -2.02685 3.18947 0
M  V30 1134 H 130.523 -3.60355 6.8364 0
M  V30 1135 H 128.868 -3.24692 6.14492 0
M  V30 1136 H 132.059 -2.43912 3.9953 0
M  V30 1137 H 132.232 -3.15831 5.65822 0
M  V30 1138 N 125.638 -1.25649 -0.95132 0
M  V30 1139 C 126.57 -1.02112 -2.05197 0
M  V30 1140 C 127.583 0.0150571 -1.62793 0
M  V30 1141 O 128.772 -0.223874 -1.77091 0
M  V30 1142 C 125.872 -0.522361 -3.3485 0
M  V30 1143 C 125.045 -1.62546 -4.06076 0
M  V30 1144 C 124.104 -1.12649 -5.14001 0
M  V30 1145 O 123.13 -1.82156 -5.39266 0
M  V30 1146 N 124.332 0.03047 -5.80492 0
M  V30 1147 H 127.097 -1.96885 -2.25957 0
M  V30 1148 H 124.658 -1.16899 -1.1201 0
M  V30 1149 H 126.65 -0.172961 -4.0433 0
M  V30 1150 H 125.22 0.33151 -3.10837 0
M  V30 1151 H 124.44 -2.14628 -3.30649 0
M  V30 1152 H 125.728 -2.36644 -4.50419 0
M  V30 1153 H 125.126 0.611169 -5.62389 0
M  V30 1154 H 123.683 0.320875 -6.5101 0
M  V30 1155 N 127.117 1.15442 -1.07289 0
M  V30 1156 C 128.027 2.23786 -0.704057 0
M  V30 1157 C 129.043 1.7166 0.284413 0
M  V30 1158 O 130.219 2.00972 0.131205 0
M  V30 1159 C 127.284 3.46535 -0.106792 0
M  V30 1160 C 126.345 4.13654 -1.14842 0
M  V30 1161 C 125.578 5.30544 -0.57956 0
M  V30 1162 O 125.801 5.67187 0.604585 0
M  V30 1163 O 124.735 5.87154 -1.32414 0
M  V30 1164 H 128.561 2.57664 -1.60757 0
M  V30 1165 H 126.146 1.23152 -0.845803 0
M  V30 1166 H 128.028 4.20804 0.224048 0
M  V30 1167 H 126.703 3.14407 0.770049 0
M  V30 1168 H 125.61 3.4131 -1.5316 0
M  V30 1169 H 126.943 4.49861 -1.99714 0
M  V30 1170 N 128.595 0.856903 1.32268 0
M  V30 1171 C 130.011 0.547061 1.49931 0
M  V30 1172 C 130.211 -0.921781 1.7918 0
M  V30 1173 O 129.267 -1.70469 1.8627 0
M  V30 1174 C 130.58 1.43599 2.64196 0
M  V30 1175 C 132.128 1.43665 2.78081 0
M  V30 1176 C 132.603 2.31085 3.95428 0
M  V30 1177 N 134.094 2.28893 4.02694 0
M  V30 1178 C 134.829 2.93262 4.92732 0
M  V30 1179 N 134.325 3.66751 5.87763 0
M  V30 1180 N 136.118 2.82638 4.85873 0
M  V30 1181 H 128.269 1.8075 1.11549 0
M  V30 1182 H 130.532 0.772144 0.549997 0
M  V30 1183 H 130.238 2.48058 2.49319 0
M  V30 1184 H 130.112 1.12502 3.60032 0
M  V30 1185 H 132.499 0.399701 2.92381 0
M  V30 1186 H 132.58 1.7878 1.82952 0
M  V30 1187 H 132.224 3.34849 3.81888 0
M  V30 1188 H 132.154 1.93302 4.89839 0
M  V30 1189 H 134.645 1.75466 3.34694 0
M  V30 1190 H 134.958 4.13027 6.53168 0
M  V30 1191 H 133.303 3.70859 5.87783 0
M  V30 1192 H 136.494 2.24774 4.10602 0
M  V30 1193 H 136.667 3.33084 5.55841 0
M  V30 1194 N 130.073 -1.45103 0.615059 0
M  V30 1195 C 131.319 -2.02483 0.113347 0
M  V30 1196 C 131.652 -1.48146 -1.25564 0
M  V30 1197 O 130.927 -0.659104 -1.82992 0
M  V30 1198 C 131.21 -3.60005 0.0825278 0
M  V30 1199 C 131.063 -4.2466 1.48271 0
M  V30 1200 C 132.382 -4.35972 -0.601401 0
M  V30 1201 H 129.501 -0.735764 0.0426632 0
M  V30 1202 H 132.143 -1.72868 0.788461 0
M  V30 1203 H 130.293 -3.85367 -0.492378 0
M  V30 1204 H 131.965 -4.10458 2.10527 0
M  V30 1205 H 130.208 -3.82772 2.04127 0
M  V30 1206 H 130.879 -5.336 1.41332 0
M  V30 1207 H 133.355 -4.15947 -0.112666 0
M  V30 1208 H 132.231 -5.45697 -0.592097 0
M  V30 1209 H 132.492 -4.09391 -1.66887 0
M  V30 1210 N 131.551 -0.354651 -1.53558 0
M  V30 1211 C 132.514 0.484566 -2.24019 0
M  V30 1212 C 133.514 1.01861 -1.24422 0
M  V30 1213 O 134.704 0.906097 -1.4878 0
M  V30 1214 C 131.836 1.67615 -2.96847 0
M  V30 1215 H 133.029 -0.131843 -2.9961 0
M  V30 1216 H 130.582 -0.106165 -1.55939 0
M  V30 1217 H 131.317 2.33095 -2.25471 0
M  V30 1218 H 131.102 1.30029 -3.69912 0
M  V30 1219 H 132.592 2.27114 -3.50441 0
M  V30 1220 N 133.029 1.57378 -0.0835403 0
M  V30 1221 C 134.278 1.93106 0.582498 0
M  V30 1222 C 134.591 0.96651 1.70053 0
M  V30 1223 O 135.797 1.21705 2.42693 0
M  V30 1224 C 134.253 3.43076 1.08751 0
M  V30 1225 C 133.861 4.48 -0.000146404 0
M  V30 1226 C 135.605 3.87785 1.72694 0
M  V30 1227 C 133.512 5.89113 0.519568 0
M  V30 1228 H 132.442 0.720775 0.221358 0
M  V30 1229 H 135.093 1.82821 -0.157675 0
M  V30 1230 H 133.475 3.48474 1.88101 0
M  V30 1231 H 134.649 4.54233 -0.775199 0
M  V30 1232 H 132.964 4.1283 -0.54406 0
M  V30 1233 H 135.561 4.90604 2.1263 0
M  V30 1234 H 135.904 3.25796 2.59158 0
M  V30 1235 H 136.437 3.8504 0.999457 0
M  V30 1236 H 133.176 6.54775 -0.308186 0
M  V30 1237 H 132.696 5.86376 1.26188 0
M  V30 1238 H 134.375 6.39346 0.992237 0
M  V30 1239 N 134.507 -0.190092 1.56449 0
M  V30 1240 C 135.454 -1.23557 1.94942 0
M  V30 1241 C 136.424 -1.44972 0.810696 0
M  V30 1242 O 137.609 -1.58023 1.06927 0
M  V30 1243 C 134.749 -2.57416 2.2985 0
M  V30 1244 C 133.862 -2.43537 3.5681 0
M  V30 1245 C 132.997 -3.70134 3.81017 0
M  V30 1246 C 132.036 -3.51109 5.01387 0
M  V30 1247 N 131.173 -4.6973 5.21822 0
M  V30 1248 H 136.013 -0.900304 2.84075 0
M  V30 1249 H 133.55 -0.43318 1.40577 0
M  V30 1250 H 135.508 -3.35409 2.48106 0
M  V30 1251 H 134.138 -2.88975 1.43852 0
M  V30 1252 H 133.19 -1.56816 3.46573 0
M  V30 1253 H 134.502 -2.25415 4.4496 0
M  V30 1254 H 133.656 -4.56566 3.9954 0
M  V30 1255 H 132.395 -3.91215 2.91207 0
M  V30 1256 H 131.4 -2.63063 4.82782 0
M  V30 1257 H 132.625 -3.31468 5.9271 0
M  V30 1258 H 130.571 -4.91065 4.34961 0
M  V30 1259 H 130.488 -4.54452 6.0416 0
M  V30 1260 H 131.756 -5.57499 5.44808 0
M  V30 1261 N 135.985 -1.50799 -0.457987 0
M  V30 1262 C 137.401 -1.38515 -0.792819 0
M  V30 1263 C 137.601 -0.451409 -1.96379 0
M  V30 1264 O 136.657 0.10112 -2.52297 0
M  V30 1265 C 137.97 -2.80149 -1.09258 0
M  V30 1266 C 139.518 -2.89156 -1.19825 0
M  V30 1267 C 139.993 -4.31651 -1.53106 0
M  V30 1268 N 141.484 -4.34662 -1.60072 0
M  V30 1269 C 142.219 -5.41928 -1.87354 0
M  V30 1270 N 141.715 -6.59384 -2.12568 0
M  V30 1271 N 143.508 -5.29385 -1.88965 0
M  V30 1272 H 135.659 -2.10073 0.313511 0
M  V30 1273 H 137.922 -0.944803 0.0777862 0
M  V30 1274 H 137.628 -3.50374 -0.305084 0
M  V30 1275 H 137.502 -3.18204 -2.02549 0
M  V30 1276 H 139.889 -2.19141 -1.97639 0
M  V30 1277 H 139.97 -2.54626 -0.244821 0
M  V30 1278 H 139.614 -5.02208 -0.758266 0
M  V30 1279 H 139.544 -4.63678 -2.49621 0
M  V30 1280 H 142.035 -3.49973 -1.42573 0
M  V30 1281 H 142.348 -7.36934 -2.32696 0
M  V30 1282 H 140.693 -6.62535 -2.09933 0
M  V30 1283 H 143.884 -4.36616 -1.68772 0
M  V30 1284 H 144.057 -6.13066 -2.09891 0
M  V30 1285 N 137.463 0.71206 -1.40597 0
M  V30 1286 C 138.712 1.46754 -1.38369 0
M  V30 1287 C 139.025 1.95598 0.0097839 0
M  V30 1288 O 140.231 2.71059 0.154677 0
M  V30 1289 C 138.687 2.65289 -2.43207 0
M  V30 1290 C 138.295 2.23301 -3.88382 0
M  V30 1291 C 140.039 3.43008 -2.50091 0
M  V30 1292 C 137.946 3.38696 -4.84808 0
M  V30 1293 H 136.876 0.55118 -0.514506 0
M  V30 1294 H 139.527 0.774616 -1.66349 0
M  V30 1295 H 137.909 3.36769 -2.08332 0
M  V30 1296 H 139.083 1.59218 -4.32419 0
M  V30 1297 H 137.398 1.58618 -3.85006 0
M  V30 1298 H 139.995 4.28881 -3.1932 0
M  V30 1299 H 140.338 3.87065 -1.53253 0
M  V30 1300 H 140.871 2.78574 -2.83974 0
M  V30 1301 H 137.61 2.99668 -5.82992 0
M  V30 1302 H 137.13 4.01683 -4.45433 0
M  V30 1303 H 138.809 4.04712 -5.04794 0
M  V30 1304 N 138.941 1.26152 0.944643 0
M  V30 1305 C 139.889 1.07215 2.06417 0
M  V30 1306 C 140.883 9.2007e-05 1.694 0
M  V30 1307 O 142.089 0.1565 1.79318 0
M  V30 1308 H 138.464 0.329837 0.675805 0
M  V30 1309 H 140.435 2.02099 2.19541 0
M  V30 1310 C 139.184 0.718197 3.40202 0
M  V30 1311 H 138.507 1.53497 3.69159 0
M  V30 1312 H 139.947 0.625459 4.19361 0
M  V30 1313 C 138.406 -0.576435 3.31932 0
M  V30 1314 O 138.936 -1.61574 3.67773 0
M  V30 1315 N 137.142 -0.565781 2.85039 0
M  V30 1316 H 136.689 0.280367 2.5607 0
M  V30 1317 H 136.647 -1.43213 2.79888 0
M  V30 1318 N 140.419 -1.14872 1.07899 0
M  V30 1319 C 141.349 -2.2193 0.725887 0
M  V30 1320 C 142.33 -1.67622 -0.28927 0
M  V30 1321 O 143.515 -1.93533 -0.160787 0
M  V30 1322 C 140.645 -3.47061 0.128856 0
M  V30 1323 C 139.599 -4.14363 1.07178 0
M  V30 1324 C 138.925 -5.33636 0.337229 0
M  V30 1325 C 140.225 -4.63492 2.40775 0
M  V30 1326 H 141.919 -2.51724 1.62097 0
M  V30 1327 H 139.465 -1.20991 0.780838 0
M  V30 1328 H 141.418 -4.21199 -0.130147 0
M  V30 1329 H 140.142 -3.16617 -0.80134 0
M  V30 1330 H 138.801 -3.42173 1.3158 0
M  V30 1331 H 138.449 -4.99449 -0.596606 0
M  V30 1332 H 138.149 -5.79609 0.965788 0
M  V30 1333 H 139.673 -6.10539 0.0861567 0
M  V30 1334 H 141.087 -5.2913 2.20669 0
M  V30 1335 H 139.484 -5.20148 2.99276 0
M  V30 1336 H 140.554 -3.78834 3.02676 0
M  V30 1337 N 141.898 -0.863906 -1.31812 0
M  V30 1338 C 142.808 -0.318461 -2.32428 0
M  V30 1339 C 143.824 0.568496 -1.64451 0
M  V30 1340 O 145 0.46666 -1.95919 0
M  V30 1341 C 142.065 0.476355 -3.43412 0
M  V30 1342 C 141.126 -0.43784 -4.27061 0
M  V30 1343 C 140.359 0.319138 -5.32745 0
M  V30 1344 O 140.582 1.54799 -5.48993 0
M  V30 1345 O 139.516 -0.319861 -6.01049 0
M  V30 1346 H 143.342 -1.15229 -2.80991 0
M  V30 1347 H 140.927 -0.627103 -1.35602 0
M  V30 1348 H 142.809 0.927156 -4.11074 0
M  V30 1349 H 141.484 1.28683 -2.97022 0
M  V30 1350 H 140.391 -0.937013 -3.62175 0
M  V30 1351 H 141.724 -1.21375 -4.77 0
M  V30 1352 N 143.376 1.44774 -0.622745 0
M  V30 1353 C 144.323 2.30635 0.0871679 0
M  V30 1354 C 145.293 1.42994 0.845097 0
M  V30 1355 O 146.478 1.71907 0.827812 0
M  V30 1356 C 143.618 3.28144 1.06844 0
M  V30 1357 C 142.731 4.30888 0.309809 0
M  V30 1358 C 141.866 5.15494 1.28215 0
M  V30 1359 C 140.905 6.09953 0.512198 0
M  V30 1360 N 140.042 6.87287 1.43458 0
M  V30 1361 H 144.882 2.90803 -0.650974 0
M  V30 1362 H 142.419 1.43286 -0.33281 0
M  V30 1363 H 144.377 3.83157 1.65066 0
M  V30 1364 H 143.007 2.69695 1.77382 0
M  V30 1365 H 142.059 3.78414 -0.388181 0
M  V30 1366 H 143.371 4.97955 -0.290254 0
M  V30 1367 H 142.525 5.74983 1.93596 0
M  V30 1368 H 141.264 4.48481 1.91614 0
M  V30 1369 H 140.269 5.49581 -0.155151 0
M  V30 1370 H 141.494 6.78999 -0.116958 0
M  V30 1371 H 139.44 6.2295 2.05594 0
M  V30 1372 H 139.357 7.50763 0.888335 0
M  V30 1373 H 140.625 7.51306 2.07749 0
M  V30 1374 N 144.854 0.36279 1.53368 0
M  V30 1375 C 146.094 -0.227882 2.03126 0
M  V30 1376 C 146.458 -1.4622 1.24434 0
M  V30 1377 O 147.659 -2.12831 1.64184 0
M  V30 1378 C 145.93 -0.515427 3.53664 0
M  V30 1379 S 147.489 -1.08017 4.25297 0
M  V30 1380 H 144.307 -0.0665377 0.70788 0
M  V30 1381 H 146.909 0.50501 1.88865 0
M  V30 1382 H 145.613 0.390436 4.08539 0
M  V30 1383 H 145.144 -1.27747 3.72081 0
M  V30 1384 H 147.159 -2.36462 4.36234 0
M  V30 1385 N 146.332 -1.57332 0.0918853 0
M  V30 1386 C 147.264 -2.10869 -0.898168 0
M  V30 1387 C 148.277 -1.04521 -1.24817 0
M  V30 1388 O 149.466 -1.31977 -1.20184 0
M  V30 1389 C 146.566 -2.57083 -2.2082 0
M  V30 1390 C 145.739 -3.87229 -2.03402 0
M  V30 1391 C 144.798 -4.19324 -3.17889 0
M  V30 1392 O 143.824 -4.88598 -2.91994 0
M  V30 1393 N 145.026 -3.74471 -4.43567 0
M  V30 1394 H 147.791 -2.96439 -0.440943 0
M  V30 1395 H 145.352 -1.61631 -0.0933064 0
M  V30 1396 H 147.344 -2.75602 -2.96354 0
M  V30 1397 H 145.914 -1.76541 -2.57977 0
M  V30 1398 H 145.134 -3.7789 -1.12218 0
M  V30 1399 H 146.422 -4.72379 -1.89038 0
M  V30 1400 H 145.82 -3.18546 -4.67488 0
M  V30 1401 H 144.377 -3.98151 -5.16061 0
M  V30 1402 N 147.81 0.181792 -1.56548 0
M  V30 1403 C 149.038 0.915947 -1.85521 0
M  V30 1404 C 149.453 1.76282 -0.676016 0
M  V30 1405 O 148.81 1.79012 0.355077 0
M  V30 1406 C 148.861 1.80126 -3.13427 0
M  V30 1407 O 148.582 0.988562 -4.26801 0
M  V30 1408 C 150.083 2.64597 -3.55673 0
M  V30 1409 H 147.303 0.26661 -0.61576 0
M  V30 1410 H 149.847 0.185039 -2.03661 0
M  V30 1411 H 148.002 2.48563 -2.97145 0
M  V30 1412 H 148.416 1.59308 -4.99721 0
M  V30 1413 H 149.89 3.2235 -4.48101 0
M  V30 1414 H 150.367 3.38958 -2.79292 0
M  V30 1415 H 150.973 2.0151 -3.74532 0
M  V30 1416 N 149.288 1.51039 0.449983 0
M  V30 1417 C 150.513 1.6715 1.22783 0
M  V30 1418 C 150.938 0.363081 1.84563 0
M  V30 1419 O 150.296 -0.675433 1.68249 0
M  V30 1420 C 150.344 2.77985 2.29689 0
M  V30 1421 O 149.448 2.40707 3.34864 0
M  V30 1422 H 148.789 0.557746 0.360299 0
M  V30 1423 H 151.319 1.97535 0.533005 0
M  V30 1424 H 151.329 3.01693 2.74673 0
M  V30 1425 H 150.004 3.72935 1.84098 0
M  V30 1426 H 148.581 2.27523 2.95445 0
M  V30 1427 N 150.766 -0.704594 1.40972 0
M  V30 1428 C 151.699 -1.82861 1.36518 0
M  V30 1429 C 152.677 -1.6091 0.23382 0
M  V30 1430 O 153.861 -1.83778 0.419271 0
M  V30 1431 C 150.988 -3.1939 1.12729 0
M  V30 1432 C 150.034 -3.60148 2.28463 0
M  V30 1433 S 150.867 -3.65994 3.90907 0
M  V30 1434 C 152.023 -5.05264 3.69403 0
M  V30 1435 H 152.256 -1.86361 2.3164 0
M  V30 1436 H 149.789 -0.872439 1.27389 0
M  V30 1437 H 151.747 -3.98211 0.996893 0
M  V30 1438 H 150.408 -3.1351 0.192427 0
M  V30 1439 H 149.601 -4.59309 2.07489 0
M  V30 1440 H 149.203 -2.88612 2.37863 0
M  V30 1441 H 151.495 -5.92504 3.28551 0
M  V30 1442 H 152.438 -5.31278 4.68134 0
M  V30 1443 H 152.846 -4.76377 3.02862 0
M  V30 1444 N 152.244 -1.26651 -0.937939 0
M  V30 1445 C 153.521 -1.0313 -1.66204 0
M  V30 1446 C 153.901 0.437256 -2.06522 0
M  V30 1447 O 153.249 1.41831 -1.79154 0
M  V30 1448 C 153.459 -1.98314 -2.87181 0
M  V30 1449 C 154.807 -2.27107 -3.58758 0
M  V30 1450 O 155.831 -1.96205 -2.97291 0
M  V30 1451 O 154.69 -2.79736 -4.69479 0
M  V30 1452 H 151.784 -0.392384 -0.727986 0
M  V30 1453 H 154.33 -1.37874 -0.989382 0
M  V30 1454 H 153.102 -2.97399 -2.54302 0
M  V30 1455 H 152.725 -1.64068 -3.6217 0
M  V30 1456 N 153.722 1.14298 -1.08507 0
M  V30 1457 C 154.632 2.23027 -0.727753 0
M  V30 1458 C 155.648 1.71952 0.26619 0
M  V30 1459 O 156.824 2.011 0.109882 0
M  V30 1460 C 153.889 3.46403 -0.143541 0
M  V30 1461 C 152.95 4.12413 -1.19223 0
M  V30 1462 C 152.183 5.29899 -0.635798 0
M  V30 1463 O 152.406 5.67796 0.544393 0
M  V30 1464 O 151.34 5.85717 -1.38634 0
M  V30 1465 H 155.166 2.55945 -1.63481 0
M  V30 1466 H 152.751 1.22248 -0.858817 0
M  V30 1467 H 154.633 4.21018 0.179404 0
M  V30 1468 H 153.308 3.15206 0.736659 0
M  V30 1469 H 152.215 3.39667 -1.56772 0
M  V30 1470 H 153.548 4.47718 -2.04474 0
M  V30 1471 N 155.201 0.870884 1.31352 0
M  V30 1472 C 156.131 0.343096 2.30966 0
M  V30 1473 C 157.112 -0.566507 1.60389 0
M  V30 1474 O 158.297 -0.483336 1.88089 0
M  V30 1475 C 155.427 -0.455487 3.443 0
M  V30 1476 C 154.381 0.361103 4.26474 0
M  V30 1477 C 153.707 -0.563221 5.31725 0
M  V30 1478 C 155.007 1.59566 4.97329 0
M  V30 1479 H 156.701 1.17548 2.75359 0
M  V30 1480 H 154.247 0.566686 1.32381 0
M  V30 1481 H 156.2 -0.83525 4.13039 0
M  V30 1482 H 154.924 -1.32139 2.98675 0
M  V30 1483 H 153.583 0.722825 3.59403 0
M  V30 1484 H 153.231 -1.42643 4.82351 0
M  V30 1485 H 152.931 -0.0207409 5.87596 0
M  V30 1486 H 154.455 -0.939808 6.03324 0
M  V30 1487 H 155.869 1.28728 5.58661 0
M  V30 1488 H 154.266 2.07728 5.63 0
M  V30 1489 H 155.336 2.34798 4.24262 0
M  V30 1490 N 156.679 -1.44442 0.630414 0
M  V30 1491 C 157.609 -2.33418 -0.0618083 0
M  V30 1492 C 158.59 -1.48165 -0.835541 0
M  V30 1493 O 159.775 -1.76886 -0.801564 0
M  V30 1494 C 156.905 -3.31222 -1.04449 0
M  V30 1495 C 155.859 -4.26288 -0.382436 0
M  V30 1496 C 155.185 -5.13954 -1.47497 0
M  V30 1497 C 156.485 -5.1744 0.710865 0
M  V30 1498 H 158.179 -2.91548 0.681184 0
M  V30 1499 H 155.725 -1.40191 0.329026 0
M  V30 1500 H 157.678 -3.92351 -1.53748 0
M  V30 1501 H 156.402 -2.71299 -1.81836 0
M  V30 1502 H 155.061 -3.6649 0.0899054 0
M  V30 1503 H 154.709 -4.50385 -2.2397 0
M  V30 1504 H 154.409 -5.7837 -1.03737 0
M  V30 1505 H 155.933 -5.77955 -1.96979 0
M  V30 1506 H 157.347 -5.72509 0.300996 0
M  V30 1507 H 155.744 -5.90455 1.07156 0
M  V30 1508 H 156.814 -4.58496 1.57829 0
M  V30 1509 N 158.157 -0.370918 -1.53173 0
M  V30 1510 C 159.104 0.473035 -2.259 0
M  V30 1511 C 160.074 1.07311 -1.26781 0
M  V30 1512 O 161.259 1.1046 -1.55574 0
M  V30 1513 C 158.399 1.60405 -3.05556 0
M  V30 1514 C 157.512 1.02863 -4.19575 0
M  V30 1515 C 156.647 2.12918 -4.86661 0
M  V30 1516 C 155.686 1.52869 -5.92704 0
M  V30 1517 N 154.823 2.56779 -6.53459 0
M  V30 1518 H 159.663 -0.153649 -2.97604 0
M  V30 1519 H 157.2 -0.0875946 -1.46839 0
M  V30 1520 H 159.158 2.27034 -3.50016 0
M  V30 1521 H 157.788 2.20131 -2.36097 0
M  V30 1522 H 156.84 0.252465 -3.79561 0
M  V30 1523 H 158.152 0.549642 -4.95762 0
M  V30 1524 H 157.306 2.87356 -5.34333 0
M  V30 1525 H 156.045 2.6417 -4.09958 0
M  V30 1526 H 155.05 0.769479 -5.44389 0
M  V30 1527 H 156.275 1.02435 -6.7133 0
M  V30 1528 H 154.221 3.07235 -5.79606 0
M  V30 1529 H 154.138 2.13583 -7.25202 0
M  V30 1530 H 155.406 3.30903 -7.05779 0
M  V30 1531 N 159.635 1.57281 -0.100228 0
M  V30 1532 C 160.545 2.17833 0.870965 0
M  V30 1533 C 161.561 1.14921 1.30649 0
M  V30 1534 O 162.737 1.47313 1.37335 0
M  V30 1535 C 159.802 2.75085 2.1102 0
M  V30 1536 C 158.863 3.9297 1.72838 0
M  V30 1537 C 158.096 4.47482 2.90854 0
M  V30 1538 O 158.319 4.00922 4.05731 0
M  V30 1539 O 157.253 5.38433 2.69023 0
M  V30 1540 H 161.079 3.0124 0.38575 0
M  V30 1541 H 158.664 1.48881 0.124397 0
M  V30 1542 H 160.546 3.11656 2.83634 0
M  V30 1543 H 159.221 1.94721 2.58584 0
M  V30 1544 H 158.128 3.61201 0.973883 0
M  V30 1545 H 159.461 4.74713 1.30033 0
M  V30 1546 N 161.113 -0.173488 1.56642 0
M  V30 1547 C 162.362 -0.888758 1.81063 0
M  V30 1548 C 162.675 -1.83506 0.67712 0
M  V30 1549 O 163.881 -2.59254 0.806206 0
M  V30 1550 C 162.337 -1.63091 3.20826 0
M  V30 1551 C 161.945 -0.728357 4.4204 0
M  V30 1552 C 163.689 -2.33454 3.54541 0
M  V30 1553 C 161.596 -1.47062 5.72823 0
M  V30 1554 H 160.526 -0.335618 0.675186 0
M  V30 1555 H 163.177 -0.141712 1.82952 0
M  V30 1556 H 161.559 -2.42263 3.13248 0
M  V30 1557 H 162.733 0.0262449 4.60793 0
M  V30 1558 H 161.048 -0.134492 4.16183 0
M  V30 1559 H 163.645 -2.89578 4.49498 0
M  V30 1560 H 163.988 -3.08687 2.79317 0
M  V30 1561 H 164.521 -1.61227 3.63663 0
M  V30 1562 H 161.26 -0.760658 6.51072 0
M  V30 1563 H 160.78 -2.1986 5.58052 0
M  V30 1564 H 162.459 -2.01868 6.14702 0
M  V30 1565 N 162.591 -1.51276 -0.441967 0
M  V30 1566 C 163.523 -1.68444 -1.55433 0
M  V30 1567 C 164.536 -0.565187 -1.52674 0
M  V30 1568 O 165.725 -0.839356 -1.57534 0
M  V30 1569 C 162.825 -1.67966 -2.94348 0
M  V30 1570 C 161.998 -2.964 -3.21661 0
M  V30 1571 C 161.057 -2.88171 -4.40277 0
M  V30 1572 O 160.083 -3.62119 -4.39157 0
M  V30 1573 N 161.285 -2.03706 -5.43584 0
M  V30 1574 H 164.05 -2.644 -1.41112 0
M  V30 1575 H 161.611 -1.49104 -0.630838 0
M  V30 1576 H 163.603 -1.60035 -3.71713 0
M  V30 1577 H 162.173 -0.796225 -3.0229 0
M  V30 1578 H 161.393 -3.18234 -2.32638 0
M  V30 1579 H 162.681 -3.81427 -3.36736 0
M  V30 1580 H 162.079 -1.42995 -5.47329 0
M  V30 1581 H 160.636 -2.01658 -6.1982 0
M  V30 1582 N 164.069 0.697108 -1.41344 0
M  V30 1583 C 165.032 1.79281 -1.42797 0
M  V30 1584 C 166.032 1.57607 -0.318837 0
M  V30 1585 O 167.222 1.64309 -0.578642 0
M  V30 1586 C 164.354 3.17632 -1.23785 0
M  V30 1587 H 165.547 1.79385 -2.40335 0
M  V30 1588 H 163.1 0.904582 -1.27464 0
M  V30 1589 H 163.835 3.23167 -0.270814 0
M  V30 1590 H 163.62 3.34765 -2.04144 0
M  V30 1591 H 165.11 3.97617 -1.27633 0
M  V30 1592 N 165.547 1.27147 0.931209 0
M  V30 1593 C 166.48 1.0389 2.0318 0
M  V30 1594 C 167.458 -0.0395716 1.62552 0
M  V30 1595 O 168.642 0.104867 1.88208 0
M  V30 1596 C 165.769 0.575227 3.3378 0
M  V30 1597 C 164.815 1.64774 3.93385 0
M  V30 1598 S 165.648 3.23933 4.26413 0
M  V30 1599 C 166.804 2.79358 5.60098 0
M  V30 1600 H 167.037 1.97075 2.22596 0
M  V30 1601 H 164.57 1.10938 1.07387 0
M  V30 1602 H 166.528 0.314385 4.09294 0
M  V30 1603 H 165.189 -0.336505 3.12292 0
M  V30 1604 H 164.382 1.27454 4.87618 0
M  V30 1605 H 163.984 1.86048 3.24441 0
M  V30 1606 H 166.276 2.24443 6.39243 0
M  V30 1607 H 167.219 3.72322 6.02314 0
M  V30 1608 H 167.627 2.1861 5.20452 0
M  V30 1609 N 167.025 -1.13721 1.09112 0
M  V30 1610 C 168.25 -1.89314 0.847053 0
M  V30 1611 C 168.675 -1.78416 -0.595774 0
M  V30 1612 O 168.033 -1.12942 -1.41823 0
M  V30 1613 C 168.081 -3.3701 1.28284 0
M  V30 1614 O 167.185 -4.10054 0.439267 0
M  V30 1615 H 166.526 -0.588745 0.307044 0
M  V30 1616 H 169.056 -1.43902 1.45442 0
M  V30 1617 H 169.066 -3.87834 1.26683 0
M  V30 1618 H 167.741 -3.4426 2.33363 0
M  V30 1619 H 166.318 -3.69266 0.519312 0
M  V30 1620 N 168.503 -0.877838 -1.30888 0
M  V30 1621 C 169.435 -0.296607 -2.27273 0
M  V30 1622 C 170.448 0.544799 -1.53414 0
M  V30 1623 O 171.637 0.365511 -1.74718 0
M  V30 1624 C 168.737 0.597481 -3.33592 0
M  V30 1625 C 167.91 -0.213251 -4.3688 0
M  V30 1626 C 166.969 0.610208 -5.2265 0
M  V30 1627 O 165.995 0.035441 -5.69189 0
M  V30 1628 N 167.197 1.92071 -5.47804 0
M  V30 1629 H 169.962 -1.12492 -2.77787 0
M  V30 1630 H 167.523 -0.740105 -1.43993 0
M  V30 1631 H 169.515 1.15425 -3.87891 0
M  V30 1632 H 168.085 1.32647 -2.83061 0
M  V30 1633 H 167.305 -0.951466 -3.82545 0
M  V30 1634 H 168.593 -0.769262 -5.02951 0
M  V30 1635 H 167.991 2.4107 -5.11763 0
M  V30 1636 H 166.548 2.42508 -6.05007 0
M  V30 1637 N 169.982 1.44106 -0.638065 0
M  V30 1638 C 171.222 2.03858 -0.148733 0
M  V30 1639 C 171.586 1.49153 1.20903 0
M  V30 1640 O 172.787 2.00452 1.79088 0
M  V30 1641 C 171.058 3.57117 -0.142314 0
M  V30 1642 S 172.617 4.37897 0.281385 0
M  V30 1643 H 169.435 0.708069 -0.0644912 0
M  V30 1644 H 172.037 1.7639 -0.843009 0
M  V30 1645 H 170.741 3.94436 -1.13349 0
M  V30 1646 H 170.272 3.89205 0.572988 0
M  V30 1647 H 172.287 4.72218 1.52395 0
M  V30 1648 N 171.46 0.379036 1.52974 0
M  V30 1649 C 172.685 -0.209353 2.06341 0
M  V30 1650 C 173.11 -1.40583 1.24972 0
M  V30 1651 O 172.468 -1.79246 0.272155 0
M  V30 1652 C 172.516 -0.567786 3.56102 0
M  V30 1653 O 171.62 -1.66318 3.77375 0
M  V30 1654 H 170.961 -0.0272919 0.663439 0
M  V30 1655 H 173.491 0.543536 1.97248 0
M  V30 1656 H 173.501 -0.835003 3.99364 0
M  V30 1657 H 172.176 0.307013 4.14765 0
M  V30 1658 H 170.753 -1.39048 3.46006 0
M  V30 1659 N 172.938 -1.57226 0.108567 0
M  V30 1660 C 173.888 -2.11305 -0.856396 0
M  V30 1661 C 174.872 -1.03129 -1.23504 0
M  V30 1662 O 176.064 -1.29381 -1.20787 0
M  V30 1663 C 173.193 -2.70771 -2.11041 0
M  V30 1664 C 172.279 -3.86011 -1.7566 0
M  V30 1665 N 172.67 -4.93492 -1.10902 0
M  V30 1666 C 170.968 -3.95999 -2.05185 0
M  V30 1667 C 171.669 -5.73984 -0.944308 0
M  V30 1668 N 170.645 -5.2346 -1.46596 0
M  V30 1669 H 174.447 -2.91784 -0.352002 0
M  V30 1670 H 171.961 -1.62126 -0.0942324 0
M  V30 1671 H 173.958 -3.07851 -2.81128 0
M  V30 1672 H 172.618 -1.91751 -2.62034 0
M  V30 1673 H 173.629 -5.1208 -0.774235 0
M  V30 1674 H 170.306 -3.28007 -2.58298 0
M  V30 1675 H 171.696 -6.70479 -0.436813 0
M  V30 1676 N 174.416 0.165178 -1.56732 0
M  V30 1677 C 175.827 0.727046 -1.71962 0
M  V30 1678 C 176.178 1.82508 -0.720078 0
M  V30 1679 O 175.303 2.16082 0.117242 0
M  V30 1680 C 175.898 1.32559 -3.11791 0
M  V30 1681 C 174.457 1.83422 -3.28684 0
M  V30 1682 C 173.604 0.715567 -2.67908 0
M  V30 1683 H 176.555 -0.0602896 -1.58585 0
M  V30 1684 H 176.576 2.19533 -3.10782 0
M  V30 1685 H 176.088 0.526195 -3.84516 0
M  V30 1686 H 174.189 2.65986 -2.60926 0
M  V30 1687 H 174.302 1.97543 -4.36478 0
M  V30 1688 H 172.666 1.13758 -2.27884 0
M  V30 1689 H 173.449 -0.0720836 -3.43224 0
M  V30 1690 N 175.894 1.51508 0.433938 0
M  V30 1691 C 176.842 1.73646 1.54757 0
M  V30 1692 C 177.836 0.602854 1.5831 0
M  V30 1693 O 179.042 0.784318 1.62014 0
M  V30 1694 H 175.417 0.548718 0.51421 0
M  V30 1695 H 177.388 2.66991 1.33261 0
M  V30 1696 C 176.137 1.88172 2.92381 0
M  V30 1697 H 175.46 2.74808 2.90381 0
M  V30 1698 H 176.9 2.07672 3.6966 0
M  V30 1699 C 175.359 0.64239 3.30719 0
M  V30 1700 O 175.889 -0.201362 4.01195 0
M  V30 1701 N 174.095 0.485489 2.86516 0
M  V30 1702 H 173.642 1.17318 2.29334 0
M  V30 1703 H 173.6 -0.342482 3.12529 0
M  V30 1704 N 177.372 -0.689602 1.41712 0
M  V30 1705 C 178.618 -1.45181 1.41599 0
M  V30 1706 C 178.951 -1.94181 0.0270081 0
M  V30 1707 O 178.226 -1.6993 -0.946265 0
M  V30 1708 C 178.509 -2.65945 2.42787 0
M  V30 1709 C 178.362 -2.22672 3.90816 0
M  V30 1710 C 179.681 -3.68149 2.41151 0
M  V30 1711 H 176.8 -0.526576 0.515642 0
M  V30 1712 H 179.442 -0.784947 1.73028 0
M  V30 1713 H 177.592 -3.2284 2.16116 0
M  V30 1714 H 179.264 -1.71058 4.28412 0
M  V30 1715 H 177.507 -1.54394 4.05395 0
M  V30 1716 H 178.178 -3.0935 4.57172 0
M  V30 1717 H 180.654 -3.2094 2.64834 0
M  V30 1718 H 179.53 -4.50248 3.13955 0
M  V30 1719 H 179.791 -4.18259 1.43221 0
M  V30 1720 N 178.85 -1.27639 -0.924453 0
M  V30 1721 C 180.096 -1.14336 -1.67497 0
M  V30 1722 C 180.429 0.309465 -1.91718 0
M  V30 1723 O 179.704 1.22608 -1.50989 0
M  V30 1724 C 179.987 -1.93096 -3.0395 0
M  V30 1725 C 179.84 -3.46381 -2.8695 0
M  V30 1726 C 181.159 -1.73798 -4.0433 0
M  V30 1727 H 178.278 -0.416728 -0.607871 0
M  V30 1728 H 180.92 -1.56832 -1.07256 0
M  V30 1729 H 179.07 -1.56982 -3.55372 0
M  V30 1730 H 180.742 -3.92343 -2.42621 0
M  V30 1731 H 178.985 -3.72557 -2.22225 0
M  V30 1732 H 179.656 -3.96735 -3.83804 0
M  V30 1733 H 182.132 -2.05293 -3.61931 0
M  V30 1734 H 181.008 -2.31294 -4.97789 0
M  V30 1735 H 181.269 -0.686725 -4.36734 0
M  V30 1736 N 180.328 1.1314 -1.09713 0
M  V30 1737 C 181.556 1.88321 -0.856898 0
M  V30 1738 C 181.971 1.79276 0.592073 0
M  V30 1739 O 181.328 1.16142 1.40774 0
M  V30 1740 C 181.379 3.37812 -1.28706 0
M  V30 1741 O 181.1 3.46627 -2.67921 0
M  V30 1742 C 182.601 4.29952 -1.07964 0
M  V30 1743 H 179.821 0.596094 -0.308079 0
M  V30 1744 H 182.365 1.43205 -1.45988 0
M  V30 1745 H 180.52 3.805 -0.727912 0
M  V30 1746 H 180.934 4.39579 -2.8613 0
M  V30 1747 H 182.408 5.33159 -1.42986 0
M  V30 1748 H 182.885 4.39196 -0.0176577 0
M  V30 1749 H 183.491 3.93036 -1.62489 0
M  V30 1750 N 181.806 0.884767 1.30421 0
M  V30 1751 C 183.036 0.517293 2.00019 0
M  V30 1752 C 183.444 -0.898632 1.66497 0
M  V30 1753 O 182.787 -1.60245 0.898181 0
M  V30 1754 C 182.849 0.612025 3.54252 0
M  V30 1755 C 182.513 1.99222 4.1129 0
M  V30 1756 C 183.51 2.9616 4.273 0
M  V30 1757 C 181.195 2.29755 4.46674 0
M  V30 1758 C 183.189 4.21764 4.77906 0
M  V30 1759 C 180.876 3.55606 4.96979 0
M  V30 1760 C 181.874 4.51425 5.12547 0
M  V30 1761 O 181.562 5.75043 5.61766 0
M  V30 1762 H 181.294 0.198529 0.64619 0
M  V30 1763 H 183.848 1.1919 1.67281 0
M  V30 1764 H 182.078 -0.119561 3.86515 0
M  V30 1765 H 183.767 0.255859 4.05093 0
M  V30 1766 H 184.533 2.73882 4.00267 0
M  V30 1767 H 180.412 1.55942 4.33824 0
M  V30 1768 H 183.956 4.96561 4.89972 0
M  V30 1769 H 179.853 3.7772 5.23448 0
M  V30 1770 H 180.621 5.77422 5.80109 0
M  V30 1771 N 183.284 -1.43765 0.645699 0
M  V30 1772 C 184.514 -2.05953 0.163318 0
M  V30 1773 C 184.922 -1.48432 -1.17322 0
M  V30 1774 O 184.265 -0.607295 -1.73371 0
M  V30 1775 C 184.327 -3.59499 -0.0103065 0
M  V30 1776 C 183.991 -4.39563 1.25035 0
M  V30 1777 C 184.988 -4.72108 2.17739 0
M  V30 1778 C 182.673 -4.79697 1.48983 0
M  V30 1779 C 184.667 -5.43688 3.3269 0
M  V30 1780 C 182.354 -5.51023 2.64229 0
M  V30 1781 C 183.352 -5.8294 3.55908 0
M  V30 1782 O 183.04 -6.5281 4.69142 0
M  V30 1783 H 182.772 -0.670798 0.0836986 0
M  V30 1784 H 185.326 -1.85384 0.884407 0
M  V30 1785 H 183.556 -3.78613 -0.78669 0
M  V30 1786 H 185.245 -4.03408 -0.449087 0
M  V30 1787 H 186.011 -4.41627 2.00476 0
M  V30 1788 H 181.89 -4.54266 0.785078 0
M  V30 1789 H 185.434 -5.68517 4.04269 0
M  V30 1790 H 181.331 -5.8092 2.81429 0
M  V30 1791 H 182.099 -6.71288 4.6831 0
M  V30 1792 N 184.763 -0.387143 -1.52771 0
M  V30 1793 C 185.991 0.195869 -2.05971 0
M  V30 1794 C 186.406 1.40691 -1.25903 0
M  V30 1795 O 185.763 1.79931 -0.305134 0
M  V30 1796 C 185.814 0.56812 -3.57008 0
M  V30 1797 O 185.535 -0.594803 -4.34043 0
M  V30 1798 C 187.036 1.20723 -4.26545 0
M  V30 1799 H 184.256 0.0300578 -0.670326 0
M  V30 1800 H 186.8 -0.551749 -1.96916 0
M  V30 1801 H 184.955 1.26564 -3.66143 0
M  V30 1802 H 185.369 -0.289322 -5.23701 0
M  V30 1803 H 186.843 1.41807 -5.33474 0
M  V30 1804 H 187.32 2.17395 -3.81623 0
M  V30 1805 H 187.926 0.550535 -4.21722 0
M  V30 1806 N 186.241 1.57166 -0.116904 0
M  V30 1807 C 187.466 1.999 0.55271 0
M  V30 1808 C 187.891 0.996039 1.59564 0
M  V30 1809 O 187.249 -0.032556 1.81271 0
M  V30 1810 C 187.297 3.4152 1.15742 0
M  V30 1811 O 186.401 3.44106 2.27299 0
M  V30 1812 H 185.742 0.649447 0.138258 0
M  V30 1813 H 188.272 2.03573 -0.204759 0
M  V30 1814 H 188.282 3.79684 1.49346 0
M  V30 1815 H 186.957 4.14034 0.393493 0
M  V30 1816 H 185.534 3.17759 1.9515 0
M  V30 1817 N 187.719 -0.156864 1.56817 0
M  V30 1818 C 188.966 -0.871125 1.82805 0
M  V30 1819 C 189.294 -1.81611 0.696262 0
M  V30 1820 O 188.549 -1.93141 -0.315459 0
M  V30 1821 C 188.848 -1.68737 3.1506 0
M  V30 1822 C 188.514 -0.890045 4.42028 0
M  V30 1823 C 187.176 -0.670042 4.76512 0
M  V30 1824 C 189.528 -0.331769 5.20143 0
M  V30 1825 C 186.856 0.119104 5.86579 0
M  V30 1826 C 189.208 0.444365 6.31037 0
M  V30 1827 C 187.872 0.675035 6.64078 0
M  V30 1828 H 187.142 -0.318767 0.668931 0
M  V30 1829 H 189.789 -0.135274 1.91022 0
M  V30 1830 H 188.094 -2.49304 3.0225 0
M  V30 1831 H 189.791 -2.24331 3.3238 0
M  V30 1832 H 186.381 -1.07157 4.14988 0
M  V30 1833 H 190.565 -0.489043 4.93885 0
M  V30 1834 H 185.821 0.307417 6.10627 0
M  V30 1835 H 189.995 0.884139 6.90765 0
M  V30 1836 H 187.622 1.28839 7.49203 0
M  V30 1837 N 189.197 -1.51736 -0.425897 0
M  V30 1838 C 190.443 -1.65214 -1.1761 0
M  V30 1839 C 190.776 -0.372778 -1.90589 0
M  V30 1840 O 190.051 0.628139 -1.84078 0
M  V30 1841 C 190.334 -2.86312 -2.18398 0
M  V30 1842 C 190.187 -4.24254 -1.49426 0
M  V30 1843 C 191.506 -3.02925 -3.19256 0
M  V30 1844 H 188.625 -0.601263 -0.426206 0
M  V30 1845 H 191.267 -1.8425 -0.463882 0
M  V30 1846 H 189.417 -2.70213 -2.79137 0
M  V30 1847 H 191.089 -4.52046 -0.919362 0
M  V30 1848 H 189.332 -4.26426 -0.796432 0
M  V30 1849 H 190.003 -5.05001 -2.22885 0
M  V30 1850 H 192.479 -3.1781 -2.68581 0
M  V30 1851 H 191.355 -3.89199 -3.8706 0
M  V30 1852 H 191.616 -2.15497 -3.86023 0
M  V30 1853 N 190.675 0.682077 -1.42076 0
M  V30 1854 C 191.921 1.44428 -1.42367 0
M  V30 1855 C 192.254 1.94164 -0.0373056 0
M  V30 1856 O 191.529 1.70429 0.937239 0
M  V30 1857 C 191.812 2.64654 -2.44194 0
M  V30 1858 C 191.665 2.20596 -3.91991 0
M  V30 1859 C 192.984 3.66865 -2.431 0
M  V30 1860 H 190.103 0.523834 -0.518428 0
M  V30 1861 H 192.745 0.77576 -1.73442 0
M  V30 1862 H 190.895 3.2169 -2.17826 0
M  V30 1863 H 192.567 1.68783 -4.29313 0
M  V30 1864 H 190.81 1.52242 -4.06208 0
M  V30 1865 H 191.481 3.06921 -4.58807 0
M  V30 1866 H 193.957 3.19531 -2.66532 0
M  V30 1867 H 192.833 4.48577 -3.16339 0
M  V30 1868 H 193.094 4.17493 -1.45437 0
M  V30 1869 N 192.153 1.28127 0.917671 0
M  V30 1870 C 193.1 1.11717 2.0196 0
M  V30 1871 C 194.07 0.0153929 1.66093 0
M  V30 1872 O 195.255 0.179596 1.89953 0
M  V30 1873 C 192.395 0.780927 3.36148 0
M  V30 1874 C 191.508 1.96135 3.84909 0
M  V30 1875 C 190.643 1.56609 5.0759 0
M  V30 1876 C 189.682 2.71339 5.48673 0
M  V30 1877 N 188.819 2.32332 6.62545 0
M  V30 1878 H 193.659 2.06003 2.15329 0
M  V30 1879 H 191.196 1.02535 1.05475 0
M  V30 1880 H 193.154 0.56675 4.13333 0
M  V30 1881 H 191.784 -0.124998 3.22558 0
M  V30 1882 H 190.836 2.28777 3.03916 0
M  V30 1883 H 192.148 2.82165 4.1132 0
M  V30 1884 H 191.302 1.31374 5.92305 0
M  V30 1885 H 190.041 0.677014 4.82978 0
M  V30 1886 H 189.046 2.97276 4.62501 0
M  V30 1887 H 190.271 3.60882 5.75274 0
M  V30 1888 H 188.217 1.45889 6.39572 0
M  V30 1889 H 188.134 3.11899 6.88662 0
M  V30 1890 H 189.402 2.10371 7.50576 0
M  V30 1891 N 193.631 -1.12557 1.10312 0
M  V30 1892 C 194.908 -1.80363 0.756878 0
M  V30 1893 C 195.288 -1.97067 -0.756824 0
M  V30 1894 O 194.636 -1.54601 -1.68259 0
M  V30 1895 C 194.846 -3.14812 1.50647 0
M  V30 1896 C 196.194 -3.90029 1.67817 0
M  V30 1897 O 197.218 -3.24464 1.46974 0
M  V30 1898 O 196.077 -5.07652 2.02365 0
M  V30 1899 H 193.171 -0.780667 0.272926 0
M  V30 1900 H 195.717 -1.19404 1.20586 0
M  V30 1901 H 194.489 -2.97936 2.53672 0
M  V30 1902 H 194.112 -3.83478 1.05026 0
M  V30 1903 N 195.109 -0.891671 -1.2995 0
M  V30 1904 C 196.019 -0.367691 -2.31701 0
M  V30 1905 C 197.035 0.533486 -1.6562 0
M  V30 1906 O 198.211 0.424997 -1.96865 0
M  V30 1907 C 195.276 0.403406 -3.44345 0
M  V30 1908 C 194.337 -0.528328 -4.26037 0
M  V30 1909 C 193.57 0.206063 -5.33302 0
M  V30 1910 O 193.793 1.43119 -5.52153 0
M  V30 1911 O 192.727 -0.447281 -6.00236 0
M  V30 1912 H 196.553 -1.21163 -2.78484 0
M  V30 1913 H 194.138 -0.655725 -1.34241 0
M  V30 1914 H 196.02 0.839753 -4.12948 0
M  V30 1915 H 194.695 1.22354 -2.99685 0
M  V30 1916 H 193.602 -1.01362 -3.60106 0
M  V30 1917 H 194.935 -1.31465 -4.74318 0
M  V30 1918 N 196.587 1.43421 -0.653314 0
M  V30 1919 C 197.517 2.33487 0.0246656 0
M  V30 1920 C 198.498 1.49475 0.811863 0
M  V30 1921 O 199.683 1.78139 0.773322 0
M  V30 1922 C 196.813 3.32841 0.99166 0
M  V30 1923 C 195.767 4.26842 0.314568 0
M  V30 1924 C 195.093 5.16236 1.39302 0
M  V30 1925 C 196.393 5.16243 -0.793095 0
M  V30 1926 H 198.087 2.90427 -0.727481 0
M  V30 1927 H 195.633 1.39649 -0.351287 0
M  V30 1928 H 197.586 3.94747 1.47487 0
M  V30 1929 H 196.31 2.74158 1.77497 0
M  V30 1930 H 194.969 3.663 -0.148199 0
M  V30 1931 H 194.617 4.53891 2.16776 0
M  V30 1932 H 194.317 5.79948 0.945223 0
M  V30 1933 H 195.841 5.81015 1.87759 0
M  V30 1934 H 197.255 5.71958 -0.392039 0
M  V30 1935 H 195.652 5.88676 -1.16536 0
M  V30 1936 H 196.722 4.55927 -1.65103 0
M  V30 1937 N 198.065 0.39524 1.52563 0
M  V30 1938 C 199.311 -0.177763 2.02622 0
M  V30 1939 C 199.666 -1.43974 1.27629 0
M  V30 1940 O 198.959 -1.87995 0.36992 0
M  V30 1941 C 199.153 -0.493444 3.53977 0
M  V30 1942 C 198.982 0.736392 4.4363 0
M  V30 1943 C 197.752 1.25744 4.89404 0
M  V30 1944 C 199.95 1.61046 4.88435 0
M  V30 1945 N 197.932 2.44421 5.63145 0
M  V30 1946 C 199.303 2.64359 5.60816 0
M  V30 1947 C 201.358 1.62985 4.70468 0
M  V30 1948 C 200.061 3.69505 6.17137 0
M  V30 1949 C 202.087 2.67042 5.27677 0
M  V30 1950 C 201.449 3.69077 5.99968 0
M  V30 1951 H 197.548 -0.0269794 0.781534 0
M  V30 1952 H 200.132 0.546466 1.86874 0
M  V30 1953 H 198.303 -1.18672 3.69826 0
M  V30 1954 H 200.035 -1.05412 3.90731 0
M  V30 1955 H 196.79 0.817546 4.6649 0
M  V30 1956 H 197.214 3.04485 6.04663 0
M  V30 1957 H 201.856 0.854442 4.14076 0
M  V30 1958 H 199.574 4.4791 6.72608 0
M  V30 1959 H 203.16 2.69433 5.15652 0
M  V30 1960 H 202.04 4.48273 6.43444 0
M  V30 1961 N 199.544 -1.57102 0.125237 0
M  V30 1962 C 200.474 -2.18659 -0.819174 0
M  V30 1963 C 201.455 -1.12843 -1.27281 0
M  V30 1964 O 202.64 -1.41104 -1.33429 0
M  V30 1965 C 199.77 -2.79096 -2.06695 0
M  V30 1966 C 198.724 -3.90548 -1.75088 0
M  V30 1967 C 198.05 -4.37821 -3.06948 0
M  V30 1968 C 199.35 -5.12356 -1.01435 0
M  V30 1969 H 201.044 -2.9783 -0.306202 0
M  V30 1970 H 198.59 -1.4326 -0.145839 0
M  V30 1971 H 200.543 -3.2082 -2.73226 0
M  V30 1972 H 199.267 -1.97223 -2.60328 0
M  V30 1973 H 197.926 -3.49409 -1.10944 0
M  V30 1974 H 197.574 -3.52799 -3.58527 0
M  V30 1975 H 197.274 -5.12982 -2.86571 0
M  V30 1976 H 198.798 -4.822 -3.74587 0
M  V30 1977 H 200.212 -5.5106 -1.58132 0
M  V30 1978 H 198.609 -5.9314 -0.911319 0
M  V30 1979 H 199.679 -4.849 -0.00218681 0
M  V30 1980 N 201.022 0.148545 -1.56898 0
M  V30 1981 C 202.268 0.862694 -1.83536 0
M  V30 1982 C 202.601 1.80889 -0.706604 0
M  V30 1983 O 201.876 1.92328 0.289885 0
M  V30 1984 C 202.159 1.63853 -3.20662 0
M  V30 1985 C 202.012 0.713925 -4.44098 0
M  V30 1986 C 203.331 2.60133 -3.54991 0
M  V30 1987 H 200.45 0.312179 -0.667618 0
M  V30 1988 H 203.092 0.127953 -1.89569 0
M  V30 1989 H 201.242 2.26489 -3.1565 0
M  V30 1990 H 202.914 0.098686 -4.61194 0
M  V30 1991 H 201.157 0.0234019 -4.33794 0
M  V30 1992 H 201.828 1.29278 -5.36648 0
M  V30 1993 H 204.304 2.07616 -3.60603 0
M  V30 1994 H 203.18 3.11468 -4.51972 0
M  V30 1995 H 203.441 3.41417 -2.80868 0
M  V30 1996 N 202.5 1.5196 0.417844 0
M  V30 1997 C 203.433 1.69387 1.52916 0
M  V30 1998 C 204.411 0.541419 1.53321 0
M  V30 1999 O 205.595 0.767695 1.72159 0
M  V30 2000 C 202.722 1.72525 2.91467 0
M  V30 2001 C 201.768 2.93967 3.09008 0
M  V30 2002 S 202.601 4.54461 2.83242 0
M  V30 2003 C 203.757 4.60372 4.24038 0
M  V30 2004 H 203.99 2.63382 1.37903 0
M  V30 2005 H 201.523 1.41889 0.608845 0
M  V30 2006 H 203.481 1.75018 3.7132 0
M  V30 2007 H 202.142 0.796733 3.03827 0
M  V30 2008 H 201.335 2.92619 4.10353 0
M  V30 2009 H 200.937 2.89316 2.37007 0
M  V30 2010 H 203.229 4.37213 5.17544 0
M  V30 2011 H 204.172 5.62273 4.30412 0
M  V30 2012 H 204.58 3.89492 4.08602 0
M  V30 2013 N 203.978 -0.674533 1.42435 0
M  V30 2014 C 204.925 -1.78807 1.45934 0
M  V30 2015 C 205.895 -1.63157 0.311271 0
M  V30 2016 O 207.08 -1.83707 0.515383 0
M  V30 2017 C 204.22 -3.16839 1.36773 0
M  V30 2018 C 203.333 -3.43774 2.61617 0
M  V30 2019 C 202.468 -4.71536 2.44597 0
M  V30 2020 C 201.507 -4.91505 3.64814 0
M  V30 2021 N 200.644 -6.10508 3.46734 0
M  V30 2022 H 205.484 -1.75151 2.41093 0
M  V30 2023 H 203.021 -0.85504 1.19697 0
M  V30 2024 H 204.979 -3.96606 1.29459 0
M  V30 2025 H 203.609 -3.19619 0.452089 0
M  V30 2026 H 202.661 -2.58259 2.79297 0
M  V30 2027 H 203.973 -3.54423 3.50978 0
M  V30 2028 H 203.127 -5.59393 2.3487 0
M  V30 2029 H 201.866 -4.6317 1.52726 0
M  V30 2030 H 200.871 -4.0209 3.74972 0
M  V30 2031 H 202.096 -5.01716 4.57665 0
M  V30 2032 H 200.042 -6.03315 2.5758 0
M  V30 2033 H 199.959 -6.2202 4.29682 0
M  V30 2034 H 201.227 -7.01044 3.40819 0
M  V30 2035 N 205.456 -1.28612 -0.910864 0
M  V30 2036 C 206.386 -1.15326 -2.03032 0
M  V30 2037 C 207.367 -0.0502924 -1.70026 0
M  V30 2038 O 208.552 -0.227797 -1.92859 0
M  V30 2039 C 205.682 -0.817343 -3.37545 0
M  V30 2040 C 204.636 -1.8754 -3.84724 0
M  V30 2041 C 203.962 -1.39305 -5.16235 0
M  V30 2042 C 205.262 -3.28244 -4.06267 0
M  V30 2043 H 206.956 -2.08975 -2.14406 0
M  V30 2044 H 204.502 -1.00612 -1.03021 0
M  V30 2045 H 206.455 -0.711151 -4.15356 0
M  V30 2046 H 205.179 0.154846 -3.26233 0
M  V30 2047 H 203.838 -1.97079 -3.09121 0
M  V30 2048 H 203.486 -0.409846 -5.01328 0
M  V30 2049 H 203.186 -2.10057 -5.48771 0
M  V30 2050 H 204.71 -1.30014 -5.96598 0
M  V30 2051 H 206.124 -3.21611 -4.74594 0
M  V30 2052 H 204.521 -3.96855 -4.5014 0
M  V30 2053 H 205.591 -3.72048 -3.10979 0
M  V30 2054 N 206.934 1.1197 -1.10907 0
M  V30 2055 C 207.864 2.19928 -0.784473 0
M  V30 2056 C 208.845 1.6833 0.244726 0
M  V30 2057 O 210.03 1.93892 0.109418 0
M  V30 2058 C 207.16 3.46597 -0.220827 0
M  V30 2059 C 206.114 4.11376 -1.18127 0
M  V30 2060 C 205.44 5.32554 -0.478594 0
M  V30 2061 C 206.74 4.56945 -2.52979 0
M  V30 2062 H 208.434 2.47337 -1.68715 0
M  V30 2063 H 205.98 1.18879 -0.812642 0
M  V30 2064 H 207.933 4.21396 0.0184278 0
M  V30 2065 H 206.657 3.1863 0.717113 0
M  V30 2066 H 205.316 3.38564 -1.40606 0
M  V30 2067 H 204.964 5.00856 0.463976 0
M  V30 2068 H 204.664 5.76844 -1.11912 0
M  V30 2069 H 206.188 6.10096 -0.248 0
M  V30 2070 H 207.602 5.23093 -2.3462 0
M  V30 2071 H 205.999 5.1203 -3.12962 0
M  V30 2072 H 207.069 3.70676 -3.12614 0
M  V30 2073 N 208.412 0.89855 1.29475 0
M  V30 2074 C 209.637 0.538561 2.00285 0
M  V30 2075 C 210.062 -0.869135 1.66816 0
M  V30 2076 O 209.42 -1.57831 0.892145 0
M  V30 2077 C 209.468 0.736475 3.52999 0
M  V30 2078 O 208.572 -0.211537 4.11857 0
M  V30 2079 H 207.913 0.210563 0.62973 0
M  V30 2080 H 210.443 1.20982 1.64998 0
M  V30 2081 H 210.453 0.640685 4.02938 0
M  V30 2082 H 209.128 1.76276 3.76696 0
M  V30 2083 H 207.705 -0.0682991 3.72837 0
M  V30 2084 N 209.89 -1.43072 0.660911 0
M  V30 2085 C 211.138 -2.01323 0.177094 0
M  V30 2086 C 211.459 -1.5245 -1.2159 0
M  V30 2087 O 210.729 -0.740322 -1.81373 0
M  V30 2088 H 209.309 -0.744382 0.0624804 0
M  V30 2089 H 211.971 -1.75179 0.854305 0
M  V30 2090 H 211.067 -3.11649 0.167641 0
M  V30 2091 N 211.368 -0.403325 -1.52352 0
M  V30 2092 C 212.616 0.174003 -2.0135 0
M  V30 2093 C 212.937 1.46139 -1.29106 0
M  V30 2094 O 212.207 1.91448 -0.415253 0
M  V30 2095 H 210.787 0.0672911 -0.743963 0
M  V30 2096 H 213.449 -0.538235 -1.87321 0
M  V30 2097 H 212.545 0.374254 -3.09848 0
M  V30 2098 N 212.846 1.57033 -0.133567 0
M  V30 2099 C 214.071 2.00475 0.531477 0
M  V30 2100 C 214.496 1.01291 1.58499 0
M  V30 2101 O 213.854 -0.0133279 1.81295 0
M  V30 2102 C 213.902 3.42729 1.12113 0
M  V30 2103 O 213.006 3.46498 2.23636 0
M  V30 2104 H 212.347 0.650876 0.131362 0
M  V30 2105 H 214.877 2.03344 -0.22634 0
M  V30 2106 H 214.887 3.81246 1.4531 0
M  V30 2107 H 213.562 4.14428 0.349557 0
M  V30 2108 H 212.139 3.19811 1.91769 0
M  V30 2109 N 214.325 -0.140222 1.56975 0
M  V30 2110 C 215.258 -1.20266 1.93936 0
M  V30 2111 C 216.236 -1.41212 0.806099 0
M  V30 2112 O 217.42 -1.55713 1.06234 0
M  V30 2113 C 214.547 -2.56037 2.21726 0
M  V30 2114 C 213.593 -2.51646 3.44349 0
M  V30 2115 S 214.426 -1.97678 4.97678 0
M  V30 2116 C 215.582 -3.35165 5.28597 0
M  V30 2117 H 215.815 -0.887358 2.83749 0
M  V30 2118 H 213.348 -0.346119 1.50471 0
M  V30 2119 H 215.306 -3.34167 2.38416 0
M  V30 2120 H 213.967 -2.84755 1.32566 0
M  V30 2121 H 213.16 -3.51608 3.61092 0
M  V30 2122 H 212.762 -1.81628 3.26936 0
M  V30 2123 H 215.054 -4.31302 5.2248 0
M  V30 2124 H 215.997 -3.23269 6.30002 0
M  V30 2125 H 216.405 -3.32614 4.56101 0
M  V30 2126 N 215.803 -1.52179 -0.40978 0
M  V30 2127 C 216.733 -1.78435 -1.5061 0
M  V30 2128 C 217.714 -0.635295 -1.57791 0
M  V30 2129 O 218.899 -0.880823 -1.73076 0
M  V30 2130 C 216.029 -1.93444 -2.88439 0
M  V30 2131 C 214.983 -3.09038 -2.96108 0
M  V30 2132 C 214.309 -3.09268 -4.36185 0
M  V30 2133 C 215.609 -4.48508 -2.67652 0
M  V30 2134 H 217.303 -2.70237 -1.28889 0
M  V30 2135 H 214.849 -1.30036 -0.618605 0
M  V30 2136 H 216.802 -2.10394 -3.65119 0
M  V30 2137 H 215.526 -0.983129 -3.11452 0
M  V30 2138 H 214.185 -2.91837 -2.21872 0
M  V30 2139 H 213.833 -2.11861 -4.56206 0
M  V30 2140 H 213.533 -3.86907 -4.42241 0
M  V30 2141 H 215.057 -3.28348 -5.14801 0
M  V30 2142 H 216.471 -4.65918 -3.34056 0
M  V30 2143 H 214.868 -5.28059 -2.85085 0
M  V30 2144 H 215.938 -4.56649 -1.63095 0
M  V30 2145 N 217.281 0.66697 -1.42791 0
M  V30 2146 C 218.558 1.4234 -1.34159 0
M  V30 2147 C 218.938 2.11093 0.0172729 0
M  V30 2148 O 218.286 2.03808 1.03318 0
M  V30 2149 C 218.496 2.41942 -2.51526 0
M  V30 2150 C 219.844 3.06353 -2.93995 0
M  V30 2151 O 220.868 2.52269 -2.51473 0
M  V30 2152 O 219.727 4.04376 -3.67617 0
M  V30 2153 H 216.821 0.635277 -0.529483 0
M  V30 2154 H 219.367 0.695034 -1.54814 0
M  V30 2155 H 218.139 1.89991 -3.42081 0
M  V30 2156 H 217.762 3.22249 -2.32898 0
M  V30 2157 N 218.759 1.29093 0.90403 0
M  V30 2158 C 220.008 1.16187 1.64874 0
M  V30 2159 C 220.321 -0.286742 1.93487 0
M  V30 2160 O 221.527 -0.537062 2.66135 0
M  V30 2161 C 219.983 2.03177 2.97064 0
M  V30 2162 C 219.591 3.52836 2.76062 0
M  V30 2163 C 221.335 1.98984 3.74974 0
M  V30 2164 C 219.242 4.31945 4.03952 0
M  V30 2165 H 218.172 0.431246 0.618501 0
M  V30 2166 H 220.823 1.53699 1.00243 0
M  V30 2167 H 219.205 1.5853 3.62883 0
M  V30 2168 H 220.379 4.05507 2.18863 0
M  V30 2169 H 218.694 3.58656 2.11553 0
M  V30 2170 H 221.291 2.55351 4.69787 0
M  V30 2171 H 221.634 0.968815 4.0487 0
M  V30 2172 H 222.167 2.41652 3.15989 0
M  V30 2173 H 218.906 5.34667 3.79225 0
M  V30 2174 H 218.426 3.84045 4.60727 0
M  V30 2175 H 220.105 4.42379 4.72133 0
M  V30 2176 N 220.237 -1.11381 1.11499 0
M  V30 2177 C 221.486 -1.82494 0.858993 0
M  V30 2178 C 221.799 -1.85605 -0.617278 0
M  V30 2179 O 223.005 -2.52824 -0.989552 0
M  V30 2180 C 221.461 -3.27745 1.48699 0
M  V30 2181 C 221.069 -3.32961 2.99735 0
M  V30 2182 C 222.813 -4.03754 1.31085 0
M  V30 2183 C 220.72 -4.72612 3.55516 0
M  V30 2184 H 219.65 -0.683802 0.317696 0
M  V30 2185 H 222.301 -1.25331 1.34031 0
M  V30 2186 H 220.683 -3.84844 0.933339 0
M  V30 2187 H 221.857 -2.85741 3.61509 0
M  V30 2188 H 220.172 -2.70433 3.16631 0
M  V30 2189 H 222.769 -5.06891 1.70192 0
M  V30 2190 H 223.112 -4.15527 0.253496 0
M  V30 2191 H 223.645 -3.53043 1.83318 0
M  V30 2192 H 220.384 -4.66036 4.60967 0
M  V30 2193 H 219.904 -5.2024 2.98513 0
M  V30 2194 H 221.583 -5.4157 3.53992 0
M  V30 2195 N 221.715 -0.905404 -1.28997 0
M  V30 2196 C 222.662 -0.385892 -2.27551 0
M  V30 2197 C 223.632 0.535113 -1.57244 0
M  V30 2198 O 224.817 0.459119 -1.85194 0
M  V30 2199 C 221.957 0.375461 -3.43051 0
M  V30 2200 C 221.07 -0.577092 -4.28128 0
M  V30 2201 C 220.205 0.201879 -5.30816 0
M  V30 2202 C 219.244 -0.744829 -6.07551 0
M  V30 2203 N 218.381 9.42587e-05 -7.021 0
M  V30 2204 H 223.221 -1.23139 -2.71368 0
M  V30 2205 H 220.758 -0.618542 -1.33463 0
M  V30 2206 H 222.716 0.832992 -4.088 0
M  V30 2207 H 221.346 1.18537 -3.00248 0
M  V30 2208 H 220.398 -1.15315 -3.62501 0
M  V30 2209 H 221.71 -1.30152 -4.8152 0
M  V30 2210 H 220.864 0.720351 -6.02408 0
M  V30 2211 H 219.603 0.959413 -4.7817 0
M  V30 2212 H 218.608 -1.27475 -5.34818 0
M  V30 2213 H 219.833 -1.50178 -6.62286 0
M  V30 2214 H 217.779 0.739791 -6.51815 0
M  V30 2215 H 217.696 -0.664321 -7.53076 0
M  V30 2216 H 218.964 0.498644 -7.77903 0
M  V30 2217 N 223.193 1.4272 -0.668489 0
M  V30 2218 C 224.423 2.05668 -0.196063 0
M  V30 2219 C 224.831 1.5028 1.14946 0
M  V30 2220 O 224.174 0.6348 1.72383 0
M  V30 2221 C 224.236 3.59469 -0.0468879 0
M  V30 2222 C 223.9 4.37518 -1.32012 0
M  V30 2223 C 224.897 4.68584 -2.25222 0
M  V30 2224 C 222.582 4.77266 -1.56596 0
M  V30 2225 C 224.576 5.38326 -3.41297 0
M  V30 2226 C 222.263 5.4675 -2.72962 0
M  V30 2227 C 223.261 5.77204 -3.65137 0
M  V30 2228 O 222.949 6.45264 -4.79468 0
M  V30 2229 H 222.681 0.669382 -0.0943599 0
M  V30 2230 H 225.235 1.83954 -0.913788 0
M  V30 2231 H 223.465 3.79817 0.726357 0
M  V30 2232 H 225.154 4.04071 0.384852 0
M  V30 2233 H 225.92 4.38382 -2.07477 0
M  V30 2234 H 221.799 4.52959 -0.857249 0
M  V30 2235 H 225.343 5.62014 -4.13263 0
M  V30 2236 H 221.24 5.76369 -2.90635 0
M  V30 2237 H 222.008 6.63753 -4.78931 0
M  V30 2238 N 224.671 0.411399 1.52136 0
M  V30 2239 C 225.92 -0.165009 2.01024 0
M  V30 2240 C 226.233 -1.4603 1.30133 0
M  V30 2241 O 227.439 -2.1181 1.69849 0
M  V30 2242 C 225.895 -0.344618 3.58246 0
M  V30 2243 C 225.503 0.938716 4.38055 0
M  V30 2244 C 227.247 -0.876195 4.15359 0
M  V30 2245 C 225.154 0.726172 5.86925 0
M  V30 2246 H 224.084 -0.0654407 0.751155 0
M  V30 2247 H 226.735 0.537192 1.75461 0
M  V30 2248 H 225.117 -1.10921 3.80148 0
M  V30 2249 H 226.291 1.70963 4.27912 0
M  V30 2250 H 224.606 1.39688 3.92271 0
M  V30 2251 H 227.203 -1.05128 5.24263 0
M  V30 2252 H 227.546 -1.85152 3.7286 0
M  V30 2253 H 228.079 -0.170607 3.97434 0
M  V30 2254 H 224.818 1.67312 6.33788 0
M  V30 2255 H 224.338 -0.00540283 5.998 0
M  V30 2256 H 226.017 0.369231 6.45946 0
M  V30 2257 N 226.149 -1.5696 0.141893 0
M  V30 2258 C 227.395 -1.9625 -0.511248 0
M  V30 2259 C 227.728 -1.02654 -1.64851 0
M  V30 2260 O 227.003 -0.0679676 -1.94381 0
M  V30 2261 C 227.286 -3.45285 -1.02227 0
M  V30 2262 C 227.139 -4.49658 0.113138 0
M  V30 2263 C 228.458 -3.96698 -1.90574 0
M  V30 2264 H 225.577 -0.713567 -0.184367 0
M  V30 2265 H 228.219 -1.88698 0.222087 0
M  V30 2266 H 226.369 -3.51852 -1.64719 0
M  V30 2267 H 228.041 -4.55174 0.749302 0
M  V30 2268 H 226.284 -4.26857 0.773026 0
M  V30 2269 H 226.955 -5.51258 -0.286053 0
M  V30 2270 H 229.431 -3.92578 -1.37918 0
M  V30 2271 H 228.307 -5.01453 -2.2324 0
M  V30 2272 H 228.568 -3.3875 -2.84079 0
M  V30 2273 N 227.627 0.131896 -1.57047 0
M  V30 2274 C 228.575 1.18146 -2.0036 0
M  V30 2275 C 229.569 1.43614 -0.898406 0
M  V30 2276 O 230.775 1.43729 -1.08361 0
M  V30 2277 H 227.15 0.398042 -0.638018 0
M  V30 2278 H 229.121 0.789564 -2.87765 0
M  V30 2279 C 227.87 2.50341 -2.41298 0
M  V30 2280 H 227.193 2.31578 -3.25902 0
M  V30 2281 H 228.633 3.22371 -2.75414 0
M  V30 2282 C 227.092 3.11984 -1.27153 0
M  V30 2283 O 227.622 3.97484 -0.580459 0
M  V30 2284 N 225.828 2.71662 -1.03189 0
M  V30 2285 H 225.375 2.02231 -1.59564 0
M  V30 2286 H 225.333 3.13238 -0.270077 0
M  V30 2287 N 229.106 1.52395 0.401703 0
M  V30 2288 C 230.522 1.41363 0.740864 0
M  V30 2289 C 230.722 0.523982 1.94568 0
M  V30 2290 O 229.778 -0.00741204 2.52499 0
M  V30 2291 C 231.091 2.84011 0.987847 0
M  V30 2292 C 232.639 2.93404 1.09011 0
M  V30 2293 C 233.114 4.37036 1.3698 0
M  V30 2294 N 234.605 4.40304 1.43829 0
M  V30 2295 C 235.34 5.48508 1.67112 0
M  V30 2296 N 234.836 6.66819 1.87949 0
M  V30 2297 N 236.629 5.36034 1.69187 0
M  V30 2298 H 228.78 2.08765 -0.391262 0
M  V30 2299 H 231.043 0.941265 -0.112798 0
M  V30 2300 H 230.749 3.51265 0.174835 0
M  V30 2301 H 230.623 3.25502 1.906 0
M  V30 2302 H 233.01 2.26325 1.8937 0
M  V30 2303 H 233.091 2.55359 0.15015 0
M  V30 2304 H 232.735 5.04676 0.571353 0
M  V30 2305 H 232.665 4.72623 2.3224 0
M  V30 2306 H 235.156 3.55024 1.29486 0
M  V30 2307 H 235.469 7.45063 2.05185 0
M  V30 2308 H 233.814 6.6987 1.85199 0
M  V30 2309 H 237.005 4.42579 1.52451 0
M  V30 2310 H 237.178 6.20434 1.86993 0
M  V30 2311 N 230.584 -0.659388 1.43143 0
M  V30 2312 C 231.832 -1.41654 1.44147 0
M  V30 2313 C 232.153 -1.94893 0.0645739 0
M  V30 2314 O 231.423 -1.74044 -0.899198 0
M  V30 2315 H 230.003 -0.525708 0.530697 0
M  V30 2316 H 232.665 -0.778097 1.78694 0
M  V30 2317 H 231.761 -2.26195 2.1504 0
M  V30 2318 N 232.062 -1.29571 -0.897171 0
M  V30 2319 C 232.972 -1.16808 -2.03453 0
M  V30 2320 C 233.988 -0.0907471 -1.73763 0
M  V30 2321 O 235.164 -0.303312 -1.99103 0
M  V30 2322 C 232.229 -0.848264 -3.36163 0
M  V30 2323 C 231.29 -2.0097 -3.79354 0
M  V30 2324 C 230.523 -1.70505 -5.05731 0
M  V30 2325 O 230.746 -0.62718 -5.66941 0
M  V30 2326 O 229.68 -2.5538 -5.45036 0
M  V30 2327 H 233.506 -2.12325 -2.17144 0
M  V30 2328 H 231.091 -1.09047 -1.02123 0
M  V30 2329 H 232.973 -0.684581 -4.15802 0
M  V30 2330 H 231.648 0.0771071 -3.23608 0
M  V30 2331 H 230.555 -2.22863 -3.00471 0
M  V30 2332 H 231.888 -2.91636 -3.96496 0
M  V30 2333 N 233.54 1.10788 -1.12088 0
M  V30 2334 C 234.49 2.15158 -0.754401 0
M  V30 2335 C 235.474 1.59026 0.244846 0
M  V30 2336 O 236.666 1.76927 0.0509097 0
M  V30 2337 C 233.795 3.42677 -0.206657 0
M  V30 2338 C 232.881 4.05751 -1.23398 0
M  V30 2339 N 233.272 4.43582 -2.43041 0
M  V30 2340 C 231.57 4.32764 -1.07848 0
M  V30 2341 C 232.271 4.93085 -3.08613 0
M  V30 2342 N 231.247 4.89664 -2.36072 0
M  V30 2343 H 235.049 2.42195 -1.6649 0
M  V30 2344 H 232.563 1.27872 -1.00112 0
M  V30 2345 H 234.56 4.16834 0.0740646 0
M  V30 2346 H 233.22 3.17101 0.698342 0
M  V30 2347 H 234.231 4.35395 -2.80449 0
M  V30 2348 H 230.908 4.16863 -0.230483 0
M  V30 2349 H 232.298 5.31933 -4.10483 0
M  V30 2350 N 235.018 0.912232 1.28515 0
M  V30 2351 C 235.965 0.397954 2.27343 0
M  V30 2352 C 236.935 -0.526766 1.57526 0
M  V30 2353 O 238.12 -0.449292 1.85435 0
M  V30 2354 C 235.26 -0.357263 3.43246 0
M  V30 2355 C 234.373 0.599788 4.27816 0
M  V30 2356 C 233.508 -0.173725 5.30916 0
M  V30 2357 C 232.547 0.777039 6.07148 0
M  V30 2358 N 231.684 0.0371398 7.0209 0
M  V30 2359 H 236.524 1.24577 2.70711 0
M  V30 2360 H 234.061 0.625612 1.33133 0
M  V30 2361 H 236.019 -0.8113 4.09236 0
M  V30 2362 H 234.649 -1.16943 3.00872 0
M  V30 2363 H 233.701 1.17235 3.61884 0
M  V30 2364 H 235.013 1.32704 4.80823 0
M  V30 2365 H 234.167 -0.688394 6.02782 0
M  V30 2366 H 232.906 -0.934041 4.78672 0
M  V30 2367 H 231.911 1.3031 5.34134 0
M  V30 2368 H 233.136 1.53689 6.61481 0
M  V30 2369 H 231.082 -0.705213 6.52198 0
M  V30 2370 H 230.999 0.704249 7.52713 0
M  V30 2371 H 232.267 -0.457383 7.78157 0
M  V30 2372 N 236.496 -1.42363 0.676048 0
M  V30 2373 C 237.444 -2.32596 -0.0131507 0
M  V30 2374 C 238.438 -1.49891 -0.789238 0
M  V30 2375 O 239.644 -1.65955 -0.697061 0
M  V30 2376 H 236.019 -0.751647 -0.0230481 0
M  V30 2377 H 237.99 -2.88421 0.765243 0
M  V30 2378 C 236.739 -3.34479 -0.949702 0
M  V30 2379 H 236.062 -3.98158 -0.361938 0
M  V30 2380 H 237.502 -4.00199 -1.4006 0
M  V30 2381 C 235.961 -2.66838 -2.05667 0
M  V30 2382 O 236.491 -2.50124 -3.14326 0
M  V30 2383 N 234.697 -2.25843 -1.82875 0
M  V30 2384 H 234.244 -2.39637 -0.945085 0
M  V30 2385 H 234.202 -1.80918 -2.5713 0
M  V30 2386 N 237.974 -0.419461 -1.51915 0
M  V30 2387 C 239.222 0.152637 -2.01523 0
M  V30 2388 C 239.543 1.44762 -1.30649 0
M  V30 2389 O 238.813 1.90997 -0.435535 0
M  V30 2390 H 237.393 0.0593966 -0.744635 0
M  V30 2391 H 240.055 -0.558073 -1.86739 0
M  V30 2392 H 239.151 0.341369 -3.10227 0
M  V30 2393 N 239.452 1.56882 -0.150215 0
M  V30 2394 C 240.698 1.96518 0.500834 0
M  V30 2395 C 241.031 1.03527 1.64304 0
M  V30 2396 O 240.306 0.0782751 1.94342 0
M  V30 2397 C 240.589 3.45822 1.00395 0
M  V30 2398 C 240.442 4.49591 -0.136983 0
M  V30 2399 C 241.761 3.97704 1.88467 0
M  V30 2400 H 238.88 0.714535 0.18058 0
M  V30 2401 H 241.522 1.88577 -0.232091 0
M  V30 2402 H 239.672 3.5272 1.62851 0
M  V30 2403 H 241.344 4.5477 -0.77343 0
M  V30 2404 H 239.587 4.26441 -0.795652 0
M  V30 2405 H 240.258 5.51402 0.256815 0
M  V30 2406 H 242.734 3.93304 1.35834 0
M  V30 2407 H 241.61 5.0263 2.20578 0
M  V30 2408 H 241.871 3.40252 2.82279 0
M  V30 2409 N 240.93 -0.123565 1.57115 0
M  V30 2410 C 241.86 -1.15309 2.03042 0
M  V30 2411 C 242.841 -1.43454 0.914061 0
M  V30 2412 O 244.026 -1.53973 1.18347 0
M  V30 2413 C 241.156 -2.48043 2.43089 0
M  V30 2414 C 240.11 -2.3437 3.58127 0
M  V30 2415 C 239.436 -3.72026 3.84059 0
M  V30 2416 C 240.736 -1.80804 4.90007 0
M  V30 2417 H 242.43 -0.771102 2.893 0
M  V30 2418 H 239.976 -0.369479 1.39179 0
M  V30 2419 H 241.929 -3.20311 2.73823 0
M  V30 2420 H 240.653 -2.88122 1.53796 0
M  V30 2421 H 239.312 -1.64551 3.27595 0
M  V30 2422 H 238.96 -4.09582 2.91979 0
M  V30 2423 H 238.66 -3.63732 4.6149 0
M  V30 2424 H 240.184 -4.45806 4.1724 0
M  V30 2425 H 241.598 -2.42886 5.19307 0
M  V30 2426 H 239.995 -1.83343 5.71407 0
M  V30 2427 H 241.065 -0.76528 4.78823 0
M  V30 2428 N 242.408 -1.52605 -0.393616 0
M  V30 2429 C 243.318 -1.79971 -1.50492 0
M  V30 2430 C 244.334 -0.686181 -1.59899 0
M  V30 2431 O 245.51 -0.973274 -1.76322 0
M  V30 2432 C 242.575 -1.95867 -2.86072 0
M  V30 2433 C 241.636 -3.19781 -2.86424 0
M  V30 2434 C 240.869 -3.34909 -4.15538 0
M  V30 2435 O 241.092 -2.54948 -5.10253 0
M  V30 2436 O 240.026 -4.28141 -4.23059 0
M  V30 2437 H 243.852 -2.74328 -1.30299 0
M  V30 2438 H 241.437 -1.3764 -0.581005 0
M  V30 2439 H 243.319 -2.08056 -3.66457 0
M  V30 2440 H 241.994 -1.04699 -3.063 0
M  V30 2441 H 240.901 -3.13038 -2.04837 0
M  V30 2442 H 242.234 -4.1078 -2.71147 0
M  V30 2443 N 243.887 0.651787 -1.4349 0
M  V30 2444 C 244.797 1.79368 -1.5121 0
M  V30 2445 C 245.813 1.69361 -0.399093 0
M  V30 2446 O 246.989 1.90505 -0.653431 0
M  V30 2447 C 244.054 3.15653 -1.43401 0
M  V30 2448 C 243.115 3.37446 -2.65384 0
M  V30 2449 C 242.348 4.67229 -2.57939 0
M  V30 2450 O 242.571 5.46676 -1.62792 0
M  V30 2451 O 241.505 4.90773 -3.48462 0
M  V30 2452 H 245.331 1.7581 -2.47638 0
M  V30 2453 H 242.916 0.810447 -1.25507 0
M  V30 2454 H 244.798 3.96935 -1.41494 0
M  V30 2455 H 243.473 3.19798 -0.501085 0
M  V30 2456 H 242.38 2.55923 -2.72863 0
M  V30 2457 H 243.713 3.38148 -3.57654 0
M  V30 2458 N 245.365 1.30045 0.890287 0
M  V30 2459 C 246.328 1.15963 1.977 0
M  V30 2460 C 247.328 0.0923777 1.60534 0
M  V30 2461 O 248.518 0.340071 1.70848 0
M  V30 2462 C 245.65 0.775451 3.31963 0
M  V30 2463 H 246.843 2.12502 2.11619 0
M  V30 2464 H 244.396 1.13366 1.07601 0
M  V30 2465 H 245.131 -0.189671 3.23745 0
M  V30 2466 H 244.916 1.54668 3.60306 0
M  V30 2467 H 246.406 0.700251 4.11687 0
M  V30 2468 N 246.843 -1.10192 1.12674 0
M  V30 2469 C 248.092 -1.81573 0.8783 0
M  V30 2470 C 248.405 -1.86249 -0.597557 0
M  V30 2471 O 249.611 -2.5386 -0.962681 0
M  V30 2472 C 248.067 -3.26149 1.52167 0
M  V30 2473 C 247.675 -3.29763 3.03249 0
M  V30 2474 C 249.419 -4.0234 1.3536 0
M  V30 2475 C 247.326 -4.68815 3.60508 0
M  V30 2476 H 246.256 -0.680394 0.324931 0
M  V30 2477 H 248.907 -1.23902 1.35353 0
M  V30 2478 H 247.289 -3.83832 0.974104 0
M  V30 2479 H 248.463 -2.8189 3.6452 0
M  V30 2480 H 246.778 -2.67059 3.19481 0
M  V30 2481 H 249.375 -5.05058 1.75559 0
M  V30 2482 H 249.718 -4.15235 0.297554 0
M  V30 2483 H 250.251 -3.51079 1.87052 0
M  V30 2484 H 246.99 -4.61121 4.65884 0
M  V30 2485 H 246.51 -5.17045 3.04014 0
M  V30 2486 H 248.189 -5.37785 3.59717 0
M  V30 2487 N 248.321 -0.919034 -1.28029 0
M  V30 2488 C 249.57 -0.550802 -1.94034 0
M  V30 2489 C 249.883 0.910877 -1.73096 0
M  V30 2490 O 251.089 1.3875 -2.33368 0
M  V30 2491 C 249.545 -0.934249 -3.47563 0
M  V30 2492 C 249.153 -2.41602 -3.7727 0
M  V30 2493 C 250.897 -0.636854 -4.19696 0
M  V30 2494 C 248.804 -2.73932 -5.24133 0
M  V30 2495 H 247.734 -0.202273 -0.726362 0
M  V30 2496 H 250.385 -1.11867 -1.45458 0
M  V30 2497 H 248.767 -0.295115 -3.94899 0
M  V30 2498 H 249.941 -3.10233 -3.40723 0
M  V30 2499 H 248.256 -2.68441 -3.18321 0
M  V30 2500 H 250.853 -0.855005 -5.2782 0
M  V30 2501 H 251.196 0.425575 -4.14119 0
M  V30 2502 H 251.729 -1.23469 -3.78154 0
M  V30 2503 H 248.468 -3.79049 -5.34792 0
M  V30 2504 H 247.988 -2.09942 -5.61858 0
M  V30 2505 H 249.667 -2.61215 -5.91925 0
M  V30 2506 N 249.799 1.42003 -0.683588 0
M  V30 2507 C 250.762 2.29191 -0.0198243 0
M  V30 2508 C 251.762 1.43773 0.72013 0
M  V30 2509 O 252.952 1.65061 0.556815 0
M  V30 2510 C 250.084 3.26435 0.982487 0
M  V30 2511 H 251.277 2.8938 -0.787345 0
M  V30 2512 H 248.83 1.49789 -0.446418 0
M  V30 2513 H 249.565 2.71203 1.77819 0
M  V30 2514 H 249.35 3.89449 0.455182 0
M  V30 2515 H 250.84 3.918 1.44508 0
M  V30 2516 N 251.277 0.427512 1.51691 0
M  V30 2517 C 252.505 -0.141191 2.06418 0
M  V30 2518 C 252.92 -1.37303 1.29589 0
M  V30 2519 O 252.277 -1.79059 0.352732 0
M  V30 2520 C 252.328 -0.473266 3.58389 0
M  V30 2521 O 252.049 0.709673 4.32314 0
M  V30 2522 C 253.55 -1.09371 4.29596 0
M  V30 2523 H 250.77 -0.0122747 0.670888 0
M  V30 2524 H 253.314 0.603764 1.95384 0
M  V30 2525 H 251.469 -1.16812 3.69369 0
M  V30 2526 H 251.883 0.42807 5.2275 0
M  V30 2527 H 253.357 -1.27613 5.37046 0
M  V30 2528 H 253.834 -2.072 3.87253 0
M  V30 2529 H 254.44 -0.43853 4.23033 0
M  V30 2530 N 252.755 -1.56801 0.158532 0
M  V30 2531 C 254.004 -1.95665 -0.489702 0
M  V30 2532 C 254.317 -1.04654 -1.65248 0
M  V30 2533 O 255.523 -1.33146 -2.3661 0
M  V30 2534 C 253.979 -3.47874 -0.922582 0
M  V30 2535 C 253.587 -4.47489 0.213893 0
M  V30 2536 C 255.331 -3.95583 -1.53996 0
M  V30 2537 C 253.238 -5.90921 -0.237903 0
M  V30 2538 H 252.168 -0.730516 -0.186716 0
M  V30 2539 H 254.819 -1.81861 0.244722 0
M  V30 2540 H 253.201 -3.57051 -1.71261 0
M  V30 2541 H 254.375 -4.50017 0.991036 0
M  V30 2542 H 252.69 -4.09764 0.740407 0
M  V30 2543 H 255.287 -5.0019 -1.8898 0
M  V30 2544 H 255.63 -3.37789 -2.43319 0
M  V30 2545 H 256.163 -3.8937 -0.814611 0
M  V30 2546 H 252.902 -6.52559 0.620236 0
M  V30 2547 H 252.422 -5.91729 -0.980676 0
M  V30 2548 H 254.101 -6.43352 -0.686067 0
M  V30 2549 N 254.233 0.115231 -1.57178 0
M  V30 2550 C 255.163 1.1423 -2.03651 0
M  V30 2551 C 256.144 1.42967 -0.921655 0
M  V30 2552 O 257.329 1.53343 -1.19162 0
M  V30 2553 C 254.459 2.4675 -2.44401 0
M  V30 2554 C 253.413 2.32467 -3.59365 0
M  V30 2555 C 252.739 3.69984 -3.86026 0
M  V30 2556 C 254.039 1.78203 -4.90959 0
M  V30 2557 H 255.733 0.755749 -2.89705 0
M  V30 2558 H 253.279 0.362093 -1.39373 0
M  V30 2559 H 255.232 3.18854 -2.75517 0
M  V30 2560 H 253.956 2.87302 -1.55322 0
M  V30 2561 H 252.615 1.62811 -3.28463 0
M  V30 2562 H 252.263 4.08028 -2.94147 0
M  V30 2563 H 251.963 3.61279 -4.63412 0
M  V30 2564 H 253.487 4.43587 -4.19599 0
M  V30 2565 H 254.901 2.40128 -5.20587 0
M  V30 2566 H 253.298 1.8031 -5.72371 0
M  V30 2567 H 254.368 0.739876 -4.79222 0
M  V30 2568 N 255.711 1.52812 0.385517 0
M  V30 2569 C 256.658 1.77838 1.47113 0
M  V30 2570 C 257.628 0.621757 1.54024 0
M  V30 2571 O 258.813 0.861846 1.70226 0
M  V30 2572 C 255.953 1.95618 2.84302 0
M  V30 2573 C 255.066 3.23316 2.86515 0
M  V30 2574 C 254.201 3.31394 4.15152 0
M  V30 2575 C 253.24 4.53201 4.1143 0
M  V30 2576 N 252.377 4.58542 5.3168 0
M  V30 2577 H 257.217 2.70482 1.25073 0
M  V30 2578 H 254.754 1.34006 0.606692 0
M  V30 2579 H 256.712 2.03912 3.63972 0
M  V30 2580 H 255.342 1.06331 3.04784 0
M  V30 2581 H 254.394 3.24076 1.99195 0
M  V30 2582 H 255.706 4.13045 2.79634 0
M  V30 2583 H 254.86 3.3889 5.03228 0
M  V30 2584 H 253.599 2.39645 4.24761 0
M  V30 2585 H 252.604 4.45827 3.21742 0
M  V30 2586 H 253.829 5.46271 4.03442 0
M  V30 2587 H 251.775 3.69686 5.41912 0
M  V30 2588 H 251.692 5.42148 5.26889 0
M  V30 2589 H 252.96 4.70296 6.21644 0
M  V30 2590 N 257.189 -0.644168 1.43834 0
M  V30 2591 C 258.099 -1.78563 1.52159 0
M  V30 2592 C 259.115 -1.69147 0.408069 0
M  V30 2593 O 260.291 -1.90156 0.663524 0
M  V30 2594 C 257.356 -3.14888 1.45073 0
M  V30 2595 C 256.417 -3.36034 2.6717 0
M  V30 2596 C 255.65 -4.65855 2.60413 0
M  V30 2597 O 255.873 -5.45805 1.65689 0
M  V30 2598 O 254.807 -4.88918 3.5106 0
M  V30 2599 H 258.633 -1.74494 2.48567 0
M  V30 2600 H 256.218 -0.80378 1.25935 0
M  V30 2601 H 258.1 -3.96179 1.43597 0
M  V30 2602 H 256.775 -3.19528 0.518037 0
M  V30 2603 H 255.682 -2.54472 2.74217 0
M  V30 2604 H 257.015 -3.36247 3.59442 0
M  V30 2605 N 258.668 -1.30515 -0.883378 0
M  V30 2606 C 259.914 -1.19607 -1.63774 0
M  V30 2607 C 260.247 0.248314 -1.92606 0
M  V30 2608 O 259.522 1.17742 -1.54813 0
M  V30 2609 C 259.805 -2.02669 -2.97653 0
M  V30 2610 C 259.658 -3.55335 -2.75784 0
M  V30 2611 C 260.977 -1.86573 -3.98596 0
M  V30 2612 H 258.096 -0.435856 -0.594305 0
M  V30 2613 H 260.738 -1.60165 -1.02212 0
M  V30 2614 H 258.888 -1.68208 -3.50197 0
M  V30 2615 H 260.56 -3.99863 -2.30016 0
M  V30 2616 H 258.803 -3.79438 -2.1026 0
M  V30 2617 H 259.474 -4.08745 -3.70988 0
M  V30 2618 H 261.95 -2.16703 -3.55217 0
M  V30 2619 H 260.826 -2.47014 -4.90179 0
M  V30 2620 H 261.087 -0.825321 -4.34328 0
M  V30 2621 N 260.146 1.09593 -1.13257 0
M  V30 2622 C 261.076 2.18214 -0.830946 0
M  V30 2623 C 262.057 1.68812 0.208966 0
M  V30 2624 O 263.242 1.9408 0.0682666 0
M  V30 2625 C 260.372 3.46051 -0.294296 0
M  V30 2626 C 259.326 4.08778 -1.26826 0
M  V30 2627 C 258.652 5.31419 -0.591449 0
M  V30 2628 C 259.952 4.51476 -2.62615 0
M  V30 2629 H 261.646 2.43703 -1.73923 0
M  V30 2630 H 259.192 1.17128 -0.837675 0
M  V30 2631 H 261.145 4.2134 -0.0709606 0
M  V30 2632 H 259.869 3.20079 0.649366 0
M  V30 2633 H 258.528 3.35505 -1.47756 0
M  V30 2634 H 258.176 5.01727 0.357633 0
M  V30 2635 H 257.876 5.74341 -1.24123 0
M  V30 2636 H 259.4 6.09433 -0.377355 0
M  V30 2637 H 260.814 5.17999 -2.45663 0
M  V30 2638 H 259.211 5.05277 -3.23752 0
M  V30 2639 H 260.281 3.63962 -3.20406 0
M  V30 2640 N 261.624 0.925811 1.2754 0
M  V30 2641 C 262.534 0.428993 2.30644 0
M  V30 2642 C 263.55 -0.489387 1.66976 0
M  V30 2643 O 264.726 -0.372653 1.97922 0
M  V30 2644 C 261.791 -0.311967 3.45294 0
M  V30 2645 C 260.852 0.641098 4.24486 0
M  V30 2646 C 260.085 -0.0645955 5.33661 0
M  V30 2647 O 260.308 -1.28429 5.55754 0
M  V30 2648 O 259.242 0.606265 5.98839 0
M  V30 2649 H 263.068 1.28504 2.75173 0
M  V30 2650 H 260.653 0.691086 1.32455 0
M  V30 2651 H 262.535 -0.729972 4.15029 0
M  V30 2652 H 261.21 -1.14365 3.02824 0
M  V30 2653 H 260.117 1.10874 3.57292 0
M  V30 2654 H 261.45 1.43995 4.70666 0
M  V30 2655 N 263.102 -1.41638 0.69111 0
M  V30 2656 C 264.35 -2.00902 0.219758 0
M  V30 2657 C 264.671 -1.54994 -1.18329 0
M  V30 2658 O 263.941 -0.778628 -1.79762 0
M  V30 2659 H 262.521 -0.74289 0.0782558 0
M  V30 2660 H 265.183 -1.73327 0.891271 0
M  V30 2661 H 264.279 -3.11224 0.233708 0
M  V30 2662 N 264.58 -0.43555 -1.51462 0
M  V30 2663 C 265.51 0.367376 -2.30592 0
M  V30 2664 C 266.491 1.02263 -1.35928 0
M  V30 2665 O 267.676 1.02661 -1.64847 0
M  V30 2666 C 264.806 1.46983 -3.14664 0
M  V30 2667 C 263.76 0.938161 -4.17591 0
M  V30 2668 C 263.086 2.13622 -4.90173 0
M  V30 2669 C 264.386 -0.0261621 -5.22293 0
M  V30 2670 H 266.08 -0.292969 -2.97963 0
M  V30 2671 H 263.626 -0.14234 -1.43295 0
M  V30 2672 H 265.579 2.03873 -3.688 0
M  V30 2673 H 264.303 2.15843 -2.4511 0
M  V30 2674 H 262.962 0.391481 -3.64504 0
M  V30 2675 H 262.61 2.81098 -4.17124 0
M  V30 2676 H 262.31 1.78688 -5.59772 0
M  V30 2677 H 263.834 2.7107 -5.47132 0
M  V30 2678 H 265.248 0.452384 -5.71512 0
M  V30 2679 H 263.645 -0.287992 -5.99409 0
M  V30 2680 H 264.715 -0.963391 -4.75233 0
M  V30 2681 N 266.058 1.56714 -0.166846 0
M  V30 2682 C 267.335 1.88412 0.525373 0
M  V30 2683 C 267.715 1.07602 1.81618 0
M  V30 2684 O 267.063 0.168621 2.27877 0
M  V30 2685 C 267.273 3.40363 0.771613 0
M  V30 2686 C 268.621 4.10007 1.1036 0
M  V30 2687 O 269.645 3.45655 0.860304 0
M  V30 2688 O 268.504 5.2369 1.56239 0
M  V30 2689 H 265.598 0.781587 0.270278 0
M  V30 2690 H 268.144 1.68458 -0.204946 0
M  V30 2691 H 266.916 3.91046 -0.141093 0
M  V30 2692 H 266.539 3.65914 1.55541 0
M  V30 2693 N 267.536 -0.106894 1.57237 0
M  V30 2694 C 268.766 -0.825191 1.89405 0
M  V30 2695 C 269.174 -1.73374 0.757496 0
M  V30 2696 O 268.517 -1.81552 -0.280115 0
M  V30 2697 C 268.579 -1.70102 3.1671 0
M  V30 2698 C 268.243 -0.965523 4.46684 0
M  V30 2699 C 269.24 -0.300741 5.19029 0
M  V30 2700 C 266.925 -0.943105 4.93367 0
M  V30 2701 C 268.919 0.376622 6.36286 0
M  V30 2702 C 266.606 -0.261949 6.10538 0
M  V30 2703 C 267.604 0.396748 6.81847 0
M  V30 2704 O 267.292 1.06701 7.96787 0
M  V30 2705 H 267.024 -0.241852 0.631255 0
M  V30 2706 H 269.578 -0.0921491 2.05193 0
M  V30 2707 H 267.808 -2.47601 2.97036 0
M  V30 2708 H 269.497 -2.29483 3.34802 0
M  V30 2709 H 270.263 -0.309599 4.84011 0
M  V30 2710 H 266.142 -1.44524 4.3776 0
M  V30 2711 H 269.686 0.891334 6.91882 0
M  V30 2712 H 265.583 -0.250896 6.45012 0
M  V30 2713 H 266.351 0.972707 8.127 0
M  V30 2714 N 269.014 -1.53014 -0.377408 0
M  V30 2715 C 269.944 -1.81589 -1.46791 0
M  V30 2716 C 270.925 -0.668622 -1.56408 0
M  V30 2717 O 272.11 -0.917337 -1.71168 0
M  V30 2718 C 269.24 -1.99519 -2.8427 0
M  V30 2719 C 268.194 -3.15249 -2.89486 0
M  V30 2720 C 267.52 -3.18451 -4.29527 0
M  V30 2721 C 268.82 -4.54084 -2.58079 0
M  V30 2722 H 270.514 -2.7291 -1.23127 0
M  V30 2723 H 268.06 -1.31319 -0.590883 0
M  V30 2724 H 270.013 -2.18092 -3.60575 0
M  V30 2725 H 268.737 -1.04897 -3.09296 0
M  V30 2726 H 267.396 -2.96477 -2.15631 0
M  V30 2727 H 267.044 -2.2149 -4.5161 0
M  V30 2728 H 266.744 -3.962 -4.33934 0
M  V30 2729 H 268.268 -3.39193 -5.07721 0
M  V30 2730 H 269.682 -4.72899 -3.24098 0
M  V30 2731 H 268.079 -5.33987 -2.7382 0
M  V30 2732 H 269.149 -4.60006 -1.53372 0
M  V30 2733 N 270.492 0.636531 -1.44174 0
M  V30 2734 C 271.442 1.74233 -1.47061 0
M  V30 2735 C 272.426 1.57331 -0.337034 0
M  V30 2736 O 273.618 1.67159 -0.581973 0
M  V30 2737 C 270.747 3.12897 -1.41246 0
M  V30 2738 C 269.833 3.35288 -2.59698 0
M  V30 2739 N 270.224 3.2807 -3.84972 0
M  V30 2740 C 268.522 3.66065 -2.54778 0
M  V30 2741 C 269.223 3.51001 -4.63867 0
M  V30 2742 N 268.199 3.73616 -3.94857 0
M  V30 2743 H 272.001 1.67103 -2.41773 0
M  V30 2744 H 269.515 0.838806 -1.3906 0
M  V30 2745 H 271.512 3.92189 -1.41398 0
M  V30 2746 H 270.172 3.21197 -0.47569 0
M  V30 2747 H 271.183 3.07109 -4.17019 0
M  V30 2748 H 267.86 3.81379 -1.6987 0
M  V30 2749 H 269.25 3.51059 -5.72894 0
M  V30 2750 N 271.97 1.30982 0.876444 0
M  V30 2751 C 273.386 1.09498 1.16113 0
M  V30 2752 C 273.586 -0.13875 2.01022 0
M  V30 2753 O 272.642 -0.829935 2.38471 0
M  V30 2754 C 273.955 2.36308 1.85954 0
M  V30 2755 C 275.503 2.41856 1.98683 0
M  V30 2756 C 275.978 3.6853 2.71937 0
M  V30 2757 N 277.469 3.69387 2.79477 0
M  V30 2758 C 278.204 4.64096 3.36753 0
M  V30 2759 N 277.7 5.69155 3.95012 0
M  V30 2760 N 279.493 4.51626 3.3465 0
M  V30 2761 H 271.644 2.10118 0.310494 0
M  V30 2762 H 273.907 0.926634 0.200131 0
M  V30 2763 H 273.613 3.26388 1.31011 0
M  V30 2764 H 273.487 2.4561 2.86278 0
M  V30 2765 H 275.874 1.52249 2.52793 0
M  V30 2766 H 275.955 2.36523 0.9742 0
M  V30 2767 H 275.599 4.58499 2.18496 0
M  V30 2768 H 275.529 3.71127 3.73593 0
M  V30 2769 H 278.02 2.93438 2.38123 0
M  V30 2770 H 278.333 6.3751 4.36808 0
M  V30 2771 H 276.678 5.72937 3.93406 0
M  V30 2772 H 279.869 3.68728 2.8837 0
M  V30 2773 H 280.042 5.25614 3.7899 0
M  V30 2774 N 273.449 -1.08991 1.13837 0
M  V30 2775 C 274.397 -2.17841 0.815347 0
M  V30 2776 C 275.391 -1.68164 -0.204233 0
M  V30 2777 O 276.597 -1.79897 -0.0609304 0
M  V30 2778 H 272.972 -0.710654 0.245915 0
M  V30 2779 H 274.943 -2.42315 1.74143 0
M  V30 2780 C 273.692 -3.46381 0.302614 0
M  V30 2781 H 273.015 -3.84979 1.0785 0
M  V30 2782 H 274.455 -4.23844 0.115074 0
M  V30 2783 C 272.914 -3.22556 -0.972591 0
M  V30 2784 O 273.444 -3.45599 -2.04754 0
M  V30 2785 N 271.65 -2.76134 -0.905455 0
M  V30 2786 H 271.197 -2.57582 -0.0305421 0
M  V30 2787 H 271.155 -2.60571 -1.75926 0
M  V30 2788 N 274.927 -0.932562 -1.27047 0
M  V30 2789 C 276.175 -0.574422 -1.93765 0
M  V30 2790 C 276.496 0.887993 -1.73608 0
M  V30 2791 O 275.766 1.62999 -1.08665 0
M  V30 2792 H 274.346 -0.209451 -0.717035 0
M  V30 2793 H 277.008 -1.18601 -1.5466 0
M  V30 2794 H 276.104 -0.784841 -3.02071 0
M  V30 2795 N 276.405 1.4127 -0.698611 0
M  V30 2796 C 277.337 2.292 0.00399731 0
M  V30 2797 C 278.35 1.44944 0.741279 0
M  V30 2798 O 279.539 1.68416 0.591477 0
M  V30 2799 C 276.639 3.22875 1.02979 0
M  V30 2800 C 275.812 4.35904 0.36151 0
M  V30 2801 C 274.871 5.10134 1.29033 0
M  V30 2802 O 273.897 5.63809 0.781562 0
M  V30 2803 N 275.099 5.17885 2.6225 0
M  V30 2804 H 277.864 2.9014 -0.750921 0
M  V30 2805 H 275.425 1.52455 -0.544882 0
M  V30 2806 H 277.417 3.69404 1.65296 0
M  V30 2807 H 275.987 2.63221 1.68622 0
M  V30 2808 H 275.207 3.91719 -0.441584 0
M  V30 2809 H 276.495 5.08696 -0.103055 0
M  V30 2810 H 275.893 4.7573 3.061 0
M  V30 2811 H 274.45 5.6798 3.19754 0
M  V30 2812 N 277.883 0.443576 1.51229 0
M  V30 2813 C 279.132 -0.122332 2.01329 0
M  V30 2814 C 279.445 -1.43237 1.33201 0
M  V30 2815 O 280.651 -2.0816 1.74304 0
M  V30 2816 C 279.107 -0.268551 3.58897 0
M  V30 2817 C 278.715 1.03142 4.35965 0
M  V30 2818 C 280.459 -0.787894 4.17124 0
M  V30 2819 C 278.366 0.850504 5.85252 0
M  V30 2820 H 277.296 -0.0494929 0.752374 0
M  V30 2821 H 279.947 0.574289 1.74282 0
M  V30 2822 H 278.329 -1.02832 3.82415 0
M  V30 2823 H 279.503 1.80001 4.24189 0
M  V30 2824 H 277.818 1.47977 3.89219 0
M  V30 2825 H 280.415 -0.939841 5.26375 0
M  V30 2826 H 280.758 -1.77201 3.76703 0
M  V30 2827 H 281.291 -0.0862669 3.97706 0
M  V30 2828 H 278.03 1.80718 6.30096 0
M  V30 2829 H 277.55 0.121825 5.99676 0
M  V30 2830 H 279.229 0.506163 6.45017 0
M  V30 2831 N 279.361 -1.56624 0.175154 0
M  V30 2832 C 280.311 -2.14747 -0.766004 0
M  V30 2833 C 281.295 -1.08275 -1.19018 0
M  V30 2834 O 282.487 -1.34388 -1.15191 0
M  V30 2835 C 279.616 -2.79478 -1.99366 0
M  V30 2836 C 278.702 -3.93114 -1.5913 0
M  V30 2837 N 279.093 -4.97752 -0.89872 0
M  V30 2838 C 277.391 -4.04345 -1.88204 0
M  V30 2839 C 278.092 -5.77473 -0.700012 0
M  V30 2840 N 277.068 -5.29207 -1.24263 0
M  V30 2841 H 280.87 -2.93015 -0.22793 0
M  V30 2842 H 278.384 -1.6238 -0.0253843 0
M  V30 2843 H 280.381 -3.19498 -2.67818 0
M  V30 2844 H 279.041 -2.02692 -2.53665 0
M  V30 2845 H 280.052 -5.14903 -0.556347 0
M  V30 2846 H 276.729 -3.38667 -2.44153 0
M  V30 2847 H 278.119 -6.71728 -0.152047 0
M  V30 2848 N 280.839 0.0985539 -1.57292 0
M  V30 2849 C 282.255 0.45267 -1.53046 0
M  V30 2850 C 282.455 1.80713 -0.891342 0
M  V30 2851 O 281.511 2.4785 -0.482375 0
M  V30 2852 C 282.824 0.418341 -2.97776 0
M  V30 2853 C 284.372 0.500443 -3.08973 0
M  V30 2854 C 284.847 0.496297 -4.55303 0
M  V30 2855 N 286.338 0.557151 -4.59837 0
M  V30 2856 C 287.073 0.575726 -5.70502 0
M  V30 2857 N 286.569 0.550714 -6.90608 0
M  V30 2858 N 288.362 0.620277 -5.58667 0
M  V30 2859 H 280.513 -0.788673 -1.97215 0
M  V30 2860 H 282.776 -0.293188 -0.901524 0
M  V30 2861 H 282.482 -0.509659 -3.47988 0
M  V30 2862 H 282.356 1.2386 -3.56284 0
M  V30 2863 H 284.743 1.41886 -2.58751 0
M  V30 2864 H 284.824 -0.347894 -2.53423 0
M  V30 2865 H 284.468 -0.418162 -5.06176 0
M  V30 2866 H 284.398 1.3618 -5.08687 0
M  V30 2867 H 286.889 0.581816 -3.73394 0
M  V30 2868 H 287.202 0.568075 -7.70709 0
M  V30 2869 H 285.547 0.517816 -6.93068 0
M  V30 2870 H 288.738 0.637322 -4.63741 0
M  V30 2871 H 288.911 0.631283 -6.44918 0
M  V30 2872 N 282.317 1.53212 0.369288 0
M  V30 2873 C 283.594 1.59815 1.12776 0
M  V30 2874 C 283.974 0.403402 2.0721 0
M  V30 2875 O 283.322 -0.606667 2.20299 0
M  V30 2876 C 283.532 2.94664 1.87013 0
M  V30 2877 C 284.88 3.49109 2.41677 0
M  V30 2878 O 285.904 2.96669 1.97144 0
M  V30 2879 O 284.763 4.40775 3.23079 0
M  V30 2880 H 281.857 0.645376 0.517125 0
M  V30 2881 H 284.403 1.65553 0.37285 0
M  V30 2882 H 283.175 3.73061 1.18071 0
M  V30 2883 H 282.798 2.92401 2.69421 0
M  V30 2884 N 283.795 -0.628877 1.44509 0
M  V30 2885 C 284.725 -1.75187 1.54376 0
M  V30 2886 C 285.706 -1.65411 0.396618 0
M  V30 2887 O 286.891 -1.84137 0.617031 0
M  V30 2888 C 284.021 -3.13725 1.48976 0
M  V30 2889 C 282.975 -3.38291 2.62189 0
M  V30 2890 C 282.301 -4.76883 2.41841 0
M  V30 2891 C 283.601 -3.30632 4.04326 0
M  V30 2892 H 285.295 -1.67187 2.48373 0
M  V30 2893 H 282.841 -0.802909 1.19538 0
M  V30 2894 H 284.794 -3.92064 1.54478 0
M  V30 2895 H 283.518 -3.22515 0.514961 0
M  V30 2896 H 282.177 -2.62334 2.56079 0
M  V30 2897 H 281.825 -4.82378 1.42548 0
M  V30 2898 H 281.525 -4.94278 3.17747 0
M  V30 2899 H 283.049 -5.57449 2.49165 0
M  V30 2900 H 284.463 -3.98873 4.11793 0
M  V30 2901 H 282.86 -3.59561 4.80454 0
M  V30 2902 H 283.93 -2.28404 4.27738 0
M  V30 2903 N 285.273 -1.31445 -0.869486 0
M  V30 2904 C 286.22 -1.19135 -1.97675 0
M  V30 2905 C 287.19 -0.0770266 -1.65921 0
M  V30 2906 O 288.375 -0.249972 -1.89155 0
M  V30 2907 C 285.515 -0.905149 -3.33018 0
M  V30 2908 C 284.628 -2.10285 -3.77365 0
M  V30 2909 C 283.763 -1.75339 -5.01427 0
M  V30 2910 C 282.802 -2.91515 -5.38224 0
M  V30 2911 N 281.939 -2.56762 -6.53466 0
M  V30 2912 H 286.779 -2.13853 -2.07535 0
M  V30 2913 H 284.316 -1.06379 -1.01597 0
M  V30 2914 H 286.274 -0.719765 -4.10944 0
M  V30 2915 H 284.904 0.00519624 -3.228 0
M  V30 2916 H 283.956 -2.39899 -2.95216 0
M  V30 2917 H 285.268 -2.97237 -4.00564 0
M  V30 2918 H 284.422 -1.53266 -5.87022 0
M  V30 2919 H 283.161 -0.855801 -4.80133 0
M  V30 2920 H 282.166 -3.14237 -4.51149 0
M  V30 2921 H 283.391 -3.81985 -5.61484 0
M  V30 2922 H 281.337 -1.69526 -6.33717 0
M  V30 2923 H 281.254 -3.37243 -6.76612 0
M  V30 2924 H 282.522 -2.38083 -7.42251 0
M  V30 2925 N 286.751 1.08385 -1.14413 0
M  V30 2926 C 287.714 2.13486 -0.834048 0
M  V30 2927 C 288.714 1.59988 0.161418 0
M  V30 2928 O 289.904 1.74071 -0.0669575 0
M  V30 2929 C 287.036 3.4003 -0.243354 0
M  V30 2930 H 288.229 2.42425 -1.7655 0
M  V30 2931 H 285.782 1.24101 -0.950189 0
M  V30 2932 H 286.517 3.16726 0.696807 0
M  V30 2933 H 286.302 3.80157 -0.960367 0
M  V30 2934 H 287.792 4.17577 -0.0436242 0
M  V30 2935 N 288.23 0.939286 1.26551 0
M  V30 2936 C 289.478 0.58469 1.93457 0
M  V30 2937 C 289.799 -0.878774 1.74076 0
M  V30 2938 O 289.069 -1.62421 1.09528 0
M  V30 2939 H 287.649 0.21325 0.715914 0
M  V30 2940 H 290.311 1.1942 1.54029 0
M  V30 2941 H 289.407 0.800849 3.0165 0
M  V30 2942 N 289.708 -1.40897 0.706093 0
M  V30 2943 C 290.656 -2.32572 0.0361893 0
M  V30 2944 C 291.65 -1.51532 -0.757266 0
M  V30 2945 O 292.856 -1.67396 -0.661703 0
M  V30 2946 H 289.231 -0.751966 -0.00709935 0
M  V30 2947 H 291.202 -2.86733 0.826249 0
M  V30 2948 C 289.951 -3.36418 -0.87854 0
M  V30 2949 H 289.274 -3.98836 -0.277401 0
M  V30 2950 H 290.714 -4.0308 -1.3154 0
M  V30 2951 C 289.173 -2.71141 -1.99961 0
M  V30 2952 O 289.703 -2.56735 -3.0895 0
M  V30 2953 N 287.909 -2.29671 -1.78043 0
M  V30 2954 H 287.456 -2.41588 -0.894042 0
M  V30 2955 H 287.414 -1.86332 -2.53235 0
M  V30 2956 N 291.186 -0.45159 -1.50991 0
M  V30 2957 C 292.435 0.111653 -2.01391 0
M  V30 2958 C 292.748 1.42529 -1.33959 0
M  V30 2959 O 293.954 2.07232 -1.75405 0
M  V30 2960 C 292.41 0.249514 -3.59034 0
M  V30 2961 C 292.018 -1.05453 -4.35412 0
M  V30 2962 C 293.762 0.765762 -4.17536 0
M  V30 2963 C 291.669 -0.881529 -5.84793 0
M  V30 2964 H 290.599 0.0455022 -0.752626 0
M  V30 2965 H 293.25 -0.583524 -1.73975 0
M  V30 2966 H 291.632 1.00803 -3.82955 0
M  V30 2967 H 292.806 -1.82248 -4.23229 0
M  V30 2968 H 291.121 -1.50039 -3.88429 0
M  V30 2969 H 293.718 0.911913 -5.26866 0
M  V30 2970 H 294.061 1.75201 -3.77638 0
M  V30 2971 H 294.594 0.0651744 -3.97747 0
M  V30 2972 H 291.333 -1.84057 -6.29129 0
M  V30 2973 H 290.853 -0.153625 -5.99603 0
M  V30 2974 H 292.532 -0.540363 -6.4474 0
M  V30 2975 N 292.664 1.56529 -0.183458 0
M  V30 2976 C 293.594 2.21549 0.737456 0
M  V30 2977 C 294.575 1.17489 1.23005 0
M  V30 2978 O 295.76 1.45959 1.281 0
M  V30 2979 C 292.89 2.86575 1.96194 0
M  V30 2980 C 291.844 3.96778 1.60473 0
M  V30 2981 C 291.17 4.48911 2.90487 0
M  V30 2982 C 292.47 5.15767 0.823497 0
M  V30 2983 H 294.164 2.98761 0.195453 0
M  V30 2984 H 291.71 1.43702 0.0925686 0
M  V30 2985 H 293.663 3.30739 2.61131 0
M  V30 2986 H 292.387 2.06749 2.52828 0
M  V30 2987 H 291.046 3.53286 0.978997 0
M  V30 2988 H 290.694 3.65862 3.45186 0
M  V30 2989 H 290.394 5.23265 2.67335 0
M  V30 2990 H 291.918 4.95771 3.56432 0
M  V30 2991 H 293.332 5.56549 1.37571 0
M  V30 2992 H 291.729 5.96114 0.690551 0
M  V30 2993 H 292.799 4.84574 -0.177782 0
M  V30 2994 N 294.142 -0.090211 1.57342 0
M  V30 2995 C 295.072 -1.10976 2.05443 0
M  V30 2996 C 296.053 -1.41482 0.944284 0
M  V30 2997 O 297.238 -1.51428 1.21586 0
M  V30 2998 C 294.368 -2.42831 2.48295 0
M  V30 2999 C 293.322 -2.26721 3.63018 0
M  V30 3000 C 292.648 -3.63796 3.91863 0
M  V30 3001 C 293.948 -1.7037 4.93732 0
M  V30 3002 H 295.642 -0.709564 2.9087 0
M  V30 3003 H 293.188 -0.339874 1.39932 0
M  V30 3004 H 295.141 -3.14431 2.80555 0
M  V30 3005 H 293.865 -2.84795 1.59873 0
M  V30 3006 H 292.524 -1.57565 3.31012 0
M  V30 3007 H 292.172 -4.03297 3.00601 0
M  V30 3008 H 291.872 -3.53861 4.69101 0
M  V30 3009 H 293.396 -4.36855 4.26603 0
M  V30 3010 H 294.81 -2.31816 5.24342 0
M  V30 3011 H 293.207 -1.71181 5.75167 0
M  V30 3012 H 294.277 -0.663542 4.80339 0
M  V30 3013 N 295.62 -1.53406 -0.361157 0
M  V30 3014 C 296.868 -1.69467 -1.10115 0
M  V30 3015 C 297.189 -0.451352 -1.89705 0
M  V30 3016 O 296.459 0.534636 -1.88463 0
M  V30 3017 H 295.039 -0.624749 -0.409508 0
M  V30 3018 H 297.701 -1.90609 -0.406699 0
M  V30 3019 H 296.797 -2.55774 -1.78847 0
M  V30 3020 N 297.098 0.621204 -1.44841 0
M  V30 3021 C 298.008 1.7612 -1.5498 0
M  V30 3022 C 299.024 1.68477 -0.434927 0
M  V30 3023 O 300.2 1.89076 -0.693693 0
M  V30 3024 C 297.265 3.1254 -1.50065 0
M  V30 3025 C 296.326 3.31741 -2.72482 0
M  V30 3026 C 295.559 4.61653 -2.67792 0
M  V30 3027 O 295.782 5.431 -1.74352 0
M  V30 3028 O 294.716 4.83271 -3.58794 0
M  V30 3029 H 298.542 1.70518 -2.51311 0
M  V30 3030 H 296.127 0.783643 -1.27198 0
M  V30 3031 H 298.009 3.93844 -1.49882 0
M  V30 3032 H 296.684 3.18663 -0.568806 0
M  V30 3033 H 295.591 2.50077 -2.7823 0
M  V30 3034 H 296.924 3.30486 -3.64746 0
M  V30 3035 N 298.576 1.31904 0.862503 0
M  V30 3036 C 299.853 1.12644 1.59908 0
M  V30 3037 C 300.233 -0.316104 2.0872 0
M  V30 3038 O 299.581 -1.31145 1.87118 0
M  V30 3039 C 299.791 2.1472 2.7513 0
M  V30 3040 C 301.139 2.47637 3.44907 0
M  V30 3041 O 302.163 2.13205 2.85346 0
M  V30 3042 O 301.022 3.06632 4.52371 0
M  V30 3043 H 298.116 0.43416 0.703871 0
M  V30 3044 H 300.662 1.43408 0.907314 0
M  V30 3045 H 299.434 3.1172 2.3653 0
M  V30 3046 H 299.057 1.84905 3.51989 0
M  V30 3047 N 300.054 -1.07777 1.14986 0
M  V30 3048 C 301.302 -1.79934 0.920235 0
M  V30 3049 C 301.623 -1.86955 -0.554336 0
M  V30 3050 O 300.893 -1.36731 -1.40291 0
M  V30 3051 H 299.473 -0.666424 0.337473 0
M  V30 3052 H 302.135 -1.3027 1.44968 0
M  V30 3053 H 301.231 -2.82539 1.32583 0
M  V30 3054 N 301.532 -0.945985 -1.26051 0
M  V30 3055 C 302.757 -0.612525 -1.98149 0
M  V30 3056 C 303.182 0.806623 -1.69927 0
M  V30 3057 O 302.54 1.54411 -0.950108 0
M  V30 3058 C 302.588 -0.866981 -3.50023 0
M  V30 3059 O 301.692 0.0585333 -4.12358 0
M  V30 3060 H 301.033 -0.23379 -0.621481 0
M  V30 3061 H 303.563 -1.27023 -1.60395 0
M  V30 3062 H 303.573 -0.789792 -4.00283 0
M  V30 3063 H 302.248 -1.90135 -3.69894 0
M  V30 3064 H 300.825 -0.0701241 -3.72834 0
M  V30 3065 N 303.011 1.40521 -0.713556 0
M  V30 3066 C 304.257 2.01221 -0.252564 0
M  V30 3067 C 304.59 1.56444 1.1506 0
M  V30 3068 O 303.865 0.783597 1.78017 0
M  V30 3069 C 304.148 3.58582 -0.330332 0
M  V30 3070 C 304.001 4.13437 -1.77173 0
M  V30 3071 C 305.32 4.39079 0.299641 0
M  V30 3072 H 302.439 0.731077 -0.0932471 0
M  V30 3073 H 305.081 1.67026 -0.905673 0
M  V30 3074 H 303.231 3.87844 0.225737 0
M  V30 3075 H 304.903 3.9498 -2.38303 0
M  V30 3076 H 303.146 3.67801 -2.3001 0
M  V30 3077 H 303.817 5.22597 -1.77755 0
M  V30 3078 H 306.293 4.15735 -0.174139 0
M  V30 3079 H 305.169 5.4848 0.214771 0
M  V30 3080 H 305.43 4.19915 1.38288 0
M  V30 3081 N 304.489 0.459591 1.5075 0
M  V30 3082 C 305.421 -0.37665 2.26084 0
M  V30 3083 C 306.434 -0.967109 1.30961 0
M  V30 3084 O 307.623 -0.857468 1.56556 0
M  V30 3085 C 304.723 -1.54112 3.01832 0
M  V30 3086 C 303.896 -1.06553 4.24223 0
M  V30 3087 C 302.955 -2.1027 4.82362 0
M  V30 3088 O 301.981 -1.68798 5.43595 0
M  V30 3089 N 303.183 -3.42974 4.68347 0
M  V30 3090 H 305.948 0.269124 2.98489 0
M  V30 3091 H 303.509 0.28972 1.59287 0
M  V30 3092 H 305.501 -2.23165 3.37608 0
M  V30 3093 H 304.071 -2.0918 2.32298 0
M  V30 3094 H 303.291 -0.201274 3.93686 0
M  V30 3095 H 304.579 -0.725516 5.03601 0
M  V30 3096 H 303.977 -3.79385 4.19623 0
M  V30 3097 H 302.534 -4.07858 5.08424 0
M  V30 3098 N 305.967 -1.56429 0.191757 0
M  V30 3099 C 307.216 -1.9666 -0.448088 0
M  V30 3100 C 307.529 -1.08136 -1.62991 0
M  V30 3101 O 308.735 -1.38135 -2.33733 0
M  V30 3102 C 307.191 -3.49753 -0.848585 0
M  V30 3103 C 306.799 -4.46935 0.308764 0
M  V30 3104 C 308.543 -3.9876 -1.4557 0
M  V30 3105 C 306.45 -5.91293 -0.112506 0
M  V30 3106 H 305.38 -0.734312 -0.171179 0
M  V30 3107 H 308.031 -1.81301 0.283242 0
M  V30 3108 H 306.413 -3.60604 -1.63649 0
M  V30 3109 H 307.587 -4.47813 1.08627 0
M  V30 3110 H 305.902 -4.08102 0.827158 0
M  V30 3111 H 308.499 -5.04086 -1.78328 0
M  V30 3112 H 308.842 -3.42875 -2.36099 0
M  V30 3113 H 309.375 -3.9101 -0.731836 0
M  V30 3114 H 306.114 -6.51097 0.758514 0
M  V30 3115 H 305.634 -5.93676 -0.854941 0
M  V30 3116 H 307.313 -6.44663 -0.549448 0
M  V30 3117 N 307.445 0.0818655 -1.57387 0
M  V30 3118 C 308.408 1.08265 -2.02018 0
M  V30 3119 C 309.408 1.32183 -0.915664 0
M  V30 3120 O 310.598 1.28073 -1.18081 0
M  V30 3121 C 307.73 2.42871 -2.39221 0
M  V30 3122 H 308.923 0.698204 -2.91659 0
M  V30 3123 H 306.476 0.327303 -1.52835 0
M  V30 3124 H 307.211 2.86167 -1.52575 0
M  V30 3125 H 306.996 2.26855 -3.19811 0
M  V30 3126 H 308.486 3.14826 -2.74362 0
M  V30 3127 N 308.923 1.53595 0.353017 0
M  V30 3128 C 310.2 1.61002 1.11075 0
M  V30 3129 C 310.58 0.425356 2.0677 0
M  V30 3130 O 309.928 -0.583267 2.2093 0
M  V30 3131 C 310.138 2.96631 1.83877 0
M  V30 3132 C 311.486 3.51653 2.37961 0
M  V30 3133 O 312.51 2.98743 1.93987 0
M  V30 3134 O 311.369 4.44177 3.18386 0
M  V30 3135 H 308.463 0.650825 0.510251 0
M  V30 3136 H 311.009 1.6594 0.35527 0
M  V30 3137 H 309.781 3.74293 1.14108 0
M  V30 3138 H 309.404 2.95242 2.66304 0
M  V30 3139 N 310.401 -0.613514 1.45168 0
M  V30 3140 C 311.648 -1.37268 1.48875 0
M  V30 3141 C 311.976 -1.94077 0.128161 0
M  V30 3142 O 311.231 -1.75178 -0.872416 0
M  V30 3143 C 311.53 -2.54347 2.51083 0
M  V30 3144 C 311.196 -2.1572 3.95949 0
M  V30 3145 C 309.858 -2.04899 4.35396 0
M  V30 3146 C 312.21 -1.85485 4.87078 0
M  V30 3147 C 309.538 -1.62057 5.63875 0
M  V30 3148 C 311.89 -1.4413 6.15962 0
M  V30 3149 C 310.554 -1.31863 6.54346 0
M  V30 3150 H 309.824 -0.502299 0.544773 0
M  V30 3151 H 312.471 -0.694021 1.78481 0
M  V30 3152 H 310.776 -3.27524 2.15024 0
M  V30 3153 H 312.473 -3.12577 2.51191 0
M  V30 3154 H 309.063 -2.25066 3.64751 0
M  V30 3155 H 313.247 -1.92745 4.57343 0
M  V30 3156 H 308.503 -1.51177 5.92415 0
M  V30 3157 H 312.677 -1.19778 6.86022 0
M  V30 3158 H 310.304 -0.984392 7.538 0
M  V30 3159 N 311.879 -1.3236 -0.855495 0
M  V30 3160 C 313.127 -1.22629 -1.60644 0
M  V30 3161 C 313.448 0.212136 -1.93843 0
M  V30 3162 O 312.718 1.13666 -1.59552 0
M  V30 3163 H 311.298 -0.450882 -0.595579 0
M  V30 3164 H 313.96 -1.65871 -1.02337 0
M  V30 3165 H 313.056 -1.80832 -2.54374 0
M  V30 3166 N 313.357 1.07166 -1.15556 0
M  V30 3167 C 314.603 1.80065 -0.932984 0
M  V30 3168 C 314.936 1.86586 0.53845 0
M  V30 3169 O 314.211 1.35098 1.39924 0
M  V30 3170 C 314.494 3.25022 -1.55025 0
M  V30 3171 C 314.347 3.26634 -3.09242 0
M  V30 3172 C 315.666 4.22341 -1.2376 0
M  V30 3173 H 312.785 0.653697 -0.340366 0
M  V30 3174 H 315.427 1.25389 -1.4275 0
M  V30 3175 H 313.577 3.71712 -1.12972 0
M  V30 3176 H 315.249 2.88173 -3.60214 0
M  V30 3177 H 313.492 2.65539 -3.43033 0
M  V30 3178 H 314.163 4.28854 -3.47546 0
M  V30 3179 H 316.639 3.8405 -1.60139 0
M  V30 3180 H 315.515 5.22053 -1.69564 0
M  V30 3181 H 315.776 4.41828 -0.154938 0
M  V30 3182 N 314.835 0.952656 1.25548 0
M  V30 3183 C 316.06 0.623025 1.97821 0
M  V30 3184 C 316.485 -0.7976 1.70352 0
M  V30 3185 O 315.843 -1.53905 0.958283 0
M  V30 3186 C 315.891 0.885532 3.49558 0
M  V30 3187 O 314.995 -0.0366641 4.12384 0
M  V30 3188 H 314.336 0.237082 0.620232 0
M  V30 3189 H 316.866 1.27871 1.59719 0
M  V30 3190 H 316.876 0.811009 3.99858 0
M  V30 3191 H 315.551 1.92094 3.6888 0
M  V30 3192 H 314.128 0.0898954 3.72792 0
M  V30 3193 N 316.313 -1.40141 0.720998 0
M  V30 3194 C 317.276 -2.29058 0.0805834 0
M  V30 3195 C 318.276 -1.45632 -0.681758 0
M  V30 3196 O 319.466 -1.6648 -0.512856 0
M  V30 3197 C 316.598 -3.28925 -0.895593 0
M  V30 3198 H 317.791 -2.87191 0.863793 0
M  V30 3199 H 315.344 -1.48553 0.485975 0
M  V30 3200 H 316.079 -2.75822 -1.70566 0
M  V30 3201 H 315.864 -3.90519 -0.351766 0
M  V30 3202 H 317.354 -3.95494 -1.34069 0
M  V30 3203 N 317.792 -0.46758 -1.50504 0
M  V30 3204 C 319.039 0.0886219 -2.02306 0
M  V30 3205 C 319.367 1.40037 -1.34981 0
M  V30 3206 O 318.622 1.90136 -0.463318 0
M  V30 3207 C 318.921 0.323995 -3.55928 0
M  V30 3208 C 318.587 -0.905618 -4.41712 0
M  V30 3209 C 317.249 -1.24275 -4.64875 0
M  V30 3210 C 319.601 -1.72448 -4.91845 0
M  V30 3211 C 316.929 -2.39888 -5.35417 0
M  V30 3212 C 319.281 -2.87185 -5.63656 0
M  V30 3213 C 317.945 -3.21317 -5.85074 0
M  V30 3214 H 317.215 0.0324291 -0.74029 0
M  V30 3215 H 319.862 -0.620945 -1.81153 0
M  V30 3216 H 318.167 1.11577 -3.75577 0
M  V30 3217 H 319.864 0.76826 -3.93572 0
M  V30 3218 H 316.454 -0.632956 -4.239 0
M  V30 3219 H 320.638 -1.4772 -4.73806 0
M  V30 3220 H 315.894 -2.66611 -5.50208 0
M  V30 3221 H 320.068 -3.50985 -6.01484 0
M  V30 3222 H 317.695 -4.1101 -6.39511 0
M  V30 3223 N 319.27 1.56325 -0.20005 0
M  V30 3224 C 320.2 2.22318 0.713916 0
M  V30 3225 C 321.181 1.18788 1.21752 0
M  V30 3226 O 322.366 1.47309 1.26545 0
M  V30 3227 C 319.496 2.88639 1.93144 0
M  V30 3228 C 318.45 3.98457 1.56255 0
M  V30 3229 C 317.776 4.51967 2.85709 0
M  V30 3230 C 319.076 5.16612 0.768747 0
M  V30 3231 H 320.77 2.98952 0.163755 0
M  V30 3232 H 318.316 1.43792 0.0773219 0
M  V30 3233 H 320.269 3.33491 2.57608 0
M  V30 3234 H 318.993 2.09419 2.50621 0
M  V30 3235 H 317.652 3.54305 0.941471 0
M  V30 3236 H 317.3 3.69503 3.41287 0
M  V30 3237 H 317 5.26071 2.6177 0
M  V30 3238 H 318.524 4.99523 3.51154 0
M  V30 3239 H 319.938 5.57977 1.3166 0
M  V30 3240 H 318.335 5.96812 0.627286 0
M  V30 3241 H 319.405 4.84358 -0.229168 0
M  V30 3242 N 320.748 -0.0735177 1.57428 0
M  V30 3243 C 321.711 -1.07192 2.02589 0
M  V30 3244 C 322.711 -1.31695 0.922661 0
M  V30 3245 O 323.901 -1.27445 1.18758 0
M  V30 3246 C 321.033 -2.41599 2.40506 0
M  V30 3247 H 322.226 -0.682727 2.92025 0
M  V30 3248 H 319.779 -0.319193 1.53006 0
M  V30 3249 H 320.514 -2.85354 1.5409 0
M  V30 3250 H 320.299 -2.25156 3.21009 0
M  V30 3251 H 321.789 -3.13367 2.76027 0
M  V30 3252 N 322.226 -1.5378 -0.344866 0
M  V30 3253 C 323.454 -1.74899 -1.10534 0
M  V30 3254 C 323.869 -0.487534 -1.82397 0
M  V30 3255 O 323.226 0.540741 -1.74305 0
M  V30 3256 C 323.277 -2.92822 -2.11984 0
M  V30 3257 O 322.998 -4.14089 -1.43044 0
M  V30 3258 C 324.499 -3.25982 -3.00417 0
M  V30 3259 H 321.719 -0.584426 -0.329678 0
M  V30 3260 H 324.263 -2.006 -0.397474 0
M  V30 3261 H 322.418 -2.69457 -2.78338 0
M  V30 3262 H 322.832 -4.80272 -2.10805 0
M  V30 3263 H 324.306 -4.11848 -3.67539 0
M  V30 3264 H 324.783 -2.42228 -3.66363 0
M  V30 3265 H 325.389 -3.51349 -2.39654 0
M  V30 3266 N 323.704 0.605807 -1.45491 0
M  V30 3267 C 324.952 1.36207 -1.49305 0
M  V30 3268 C 325.273 1.94519 -0.136863 0
M  V30 3269 O 324.543 1.77261 0.833983 0
M  V30 3270 H 323.123 0.50565 -0.549843 0
M  V30 3271 H 325.785 0.711239 -1.81459 0
M  V30 3272 H 324.881 2.18058 -2.23287 0
M  V30 3273 N 325.182 1.32811 0.848464 0
M  V30 3274 C 326.43 1.23479 1.59991 0
M  V30 3275 C 326.751 -0.201853 1.93952 0
M  V30 3276 O 326.021 -1.12818 1.60153 0
M  V30 3277 H 324.601 0.454034 0.593179 0
M  V30 3278 H 327.263 1.66412 1.01455 0
M  V30 3279 H 326.359 1.82178 2.53412 0
M  V30 3280 N 326.66 -1.06551 1.16123 0
M  V30 3281 C 327.937 -1.76097 0.85142 0
M  V30 3282 C 328.317 -2.00802 -0.6513 0
M  V30 3283 O 327.665 -1.63302 -1.59827 0
M  V30 3284 C 327.875 -3.06384 1.67122 0
M  V30 3285 C 329.223 -3.80585 1.88255 0
M  V30 3286 O 330.247 -3.16218 1.63966 0
M  V30 3287 O 329.106 -4.96212 2.2899 0
M  V30 3288 H 326.2 -0.765102 0.313923 0
M  V30 3289 H 328.746 -1.12844 1.26745 0
M  V30 3290 H 327.518 -2.84071 2.69108 0
M  V30 3291 H 327.141 -3.77371 1.25206 0
M  V30 3292 N 328.138 -0.959301 -1.25041 0
M  V30 3293 C 329.384 -0.617525 -1.9317 0
M  V30 3294 C 329.717 0.843981 -1.74902 0
M  V30 3295 O 328.992 1.60615 -1.09696 0
M  V30 3296 C 329.275 -0.982736 -3.46431 0
M  V30 3297 C 329.128 -2.50032 -3.73904 0
M  V30 3298 C 330.447 -0.511176 -4.37121 0
M  V30 3299 H 327.566 -0.22582 -0.701552 0
M  V30 3300 H 330.208 -1.19679 -1.4757 0
M  V30 3301 H 328.358 -0.489806 -3.854 0
M  V30 3302 H 330.03 -3.06737 -3.44544 0
M  V30 3303 H 328.273 -2.93598 -3.19348 0
M  V30 3304 H 328.944 -2.70635 -4.81103 0
M  V30 3305 H 331.42 -0.934075 -4.0548 0
M  V30 3306 H 330.296 -0.795361 -5.43107 0
M  V30 3307 H 330.557 0.588834 -4.38161 0
M  V30 3308 N 329.616 1.39756 -0.72842 0
M  V30 3309 C 330.844 2.04948 -0.283528 0
M  V30 3310 C 331.259 1.54908 1.0793 0
M  V30 3311 O 330.616 0.711135 1.68075 0
M  V30 3312 C 330.667 3.60498 -0.268957 0
M  V30 3313 O 330.388 4.08695 -1.57798 0
M  V30 3314 C 331.889 4.4288 0.192912 0
M  V30 3315 H 329.109 0.659243 -0.125056 0
M  V30 3316 H 331.653 1.78927 -0.990226 0
M  V30 3317 H 329.808 3.85444 0.388801 0
M  V30 3318 H 330.222 5.02977 -1.48709 0
M  V30 3319 H 331.696 5.51791 0.151952 0
M  V30 3320 H 332.173 4.21418 1.23708 0
M  V30 3321 H 332.779 4.23069 -0.435039 0
M  V30 3322 N 331.094 0.475555 1.50254 0
M  V30 3323 C 332.51 0.12997 1.5907 0
M  V30 3324 C 332.71 -1.36385 1.48328 0
M  V30 3325 O 331.766 -2.13754 1.34407 0
M  V30 3326 C 333.079 0.684139 2.92814 0
M  V30 3327 C 334.627 0.647965 3.0622 0
M  V30 3328 C 335.102 1.17975 4.42545 0
M  V30 3329 N 336.593 1.13936 4.48969 0
M  V30 3330 C 337.328 1.52129 5.52851 0
M  V30 3331 N 336.824 1.97793 6.63965 0
M  V30 3332 N 338.617 1.43704 5.4342 0
M  V30 3333 H 330.768 1.44706 1.55479 0
M  V30 3334 H 333.031 0.598691 0.735033 0
M  V30 3335 H 332.737 1.73079 3.06164 0
M  V30 3336 H 332.611 0.130204 3.76975 0
M  V30 3337 H 334.998 -0.38979 2.92514 0
M  V30 3338 H 335.079 1.23876 2.23805 0
M  V30 3339 H 334.723 2.21616 4.57 0
M  V30 3340 H 334.653 0.565138 5.23559 0
M  V30 3341 H 337.144 0.804488 3.69238 0
M  V30 3342 H 337.457 2.25072 7.39299 0
M  V30 3343 H 335.802 2.01749 6.65073 0
M  V30 3344 H 338.993 1.07867 4.55502 0
M  V30 3345 H 339.166 1.73794 6.24259 0
M  V30 3346 N 332.573 -1.56217 0.208337 0
M  V30 3347 C 333.521 -2.21053 -0.723769 0
M  V30 3348 C 334.515 -1.18578 -1.20978 0
M  V30 3349 O 335.721 -1.36691 -1.17114 0
M  V30 3350 H 332.096 -0.708595 -0.251788 0
M  V30 3351 H 334.067 -2.98006 -0.153365 0
M  V30 3352 C 332.816 -2.89417 -1.927 0
M  V30 3353 H 332.139 -3.68019 -1.56212 0
M  V30 3354 H 333.579 -3.38201 -2.55727 0
M  V30 3355 C 332.038 -1.91166 -2.77411 0
M  V30 3356 O 332.568 -1.42026 -3.75754 0
M  V30 3357 N 330.774 -1.59105 -2.43175 0
M  V30 3358 H 330.321 -1.99259 -1.63259 0
M  V30 3359 H 330.279 -0.936255 -3.00136 0
M  V30 3360 N 334.051 0.0651679 -1.57465 0
M  V30 3361 C 334.998 1.07675 -2.04144 0
M  V30 3362 C 335.968 1.38071 -0.923335 0
M  V30 3363 O 337.153 1.49026 -1.19146 0
M  V30 3364 C 334.293 2.38337 -2.49579 0
M  V30 3365 C 333.406 2.14413 -3.75035 0
M  V30 3366 C 332.541 3.38686 -4.09225 0
M  V30 3367 C 331.58 3.10156 -5.27702 0
M  V30 3368 N 330.717 4.26778 -5.57499 0
M  V30 3369 H 335.557 0.671716 -2.90331 0
M  V30 3370 H 333.094 0.3201 -1.43575 0
M  V30 3371 H 335.052 3.14632 -2.73975 0
M  V30 3372 H 333.682 2.7663 -1.6636 0
M  V30 3373 H 332.734 1.2878 -3.57939 0
M  V30 3374 H 334.046 1.89344 -4.61466 0
M  V30 3375 H 333.2 4.23373 -4.34558 0
M  V30 3376 H 331.939 3.66837 -3.21374 0
M  V30 3377 H 330.944 2.23866 -5.02159 0
M  V30 3378 H 332.169 2.8332 -6.17176 0
M  V30 3379 H 330.115 4.54948 -4.72608 0
M  V30 3380 H 330.032 4.05005 -6.38362 0
M  V30 3381 H 331.3 5.12443 -5.87386 0
M  V30 3382 N 335.529 1.53961 0.336706 0
M  V30 3383 C 336.775 1.7179 1.07777 0
M  V30 3384 C 337.108 0.483263 1.88091 0
M  V30 3385 O 336.383 -0.519747 1.87427 0
M  V30 3386 C 336.666 2.98558 2.01334 0
M  V30 3387 C 336.519 4.32245 1.24437 0
M  V30 3388 C 337.838 3.21023 3.01052 0
M  V30 3389 H 334.957 0.625089 0.390426 0
M  V30 3390 H 337.599 1.86641 0.35567 0
M  V30 3391 H 335.749 2.86028 2.62908 0
M  V30 3392 H 337.421 4.56637 0.654243 0
M  V30 3393 H 335.664 4.30344 0.546458 0
M  V30 3394 H 336.335 5.17137 1.93063 0
M  V30 3395 H 338.811 3.32929 2.49595 0
M  V30 3396 H 337.687 4.11104 3.6371 0
M  V30 3397 H 337.948 2.37637 3.72802 0
M  V30 3398 N 337.007 -0.598083 1.45811 0
M  V30 3399 C 338.423 -0.919847 1.30426 0
M  V30 3400 C 338.623 -1.99759 0.264303 0
M  V30 3401 O 337.679 -2.50221 -0.338472 0
M  V30 3402 C 338.992 -1.35176 2.68603 0
M  V30 3403 C 340.54 -1.46546 2.76574 0
M  V30 3404 C 341.015 -1.9311 4.15298 0
M  V30 3405 N 342.506 -2.00328 4.1764 0
M  V30 3406 C 343.241 -2.37599 5.21856 0
M  V30 3407 N 342.737 -2.73771 6.36413 0
M  V30 3408 N 344.53 -2.38021 5.09218 0
M  V30 3409 H 336.681 0.114111 2.12093 0
M  V30 3410 H 338.944 -0.0116121 0.947929 0
M  V30 3411 H 338.65 -0.633969 3.45939 0
M  V30 3412 H 338.524 -2.3164 2.97696 0
M  V30 3413 H 340.911 -2.17415 1.99537 0
M  V30 3414 H 340.992 -0.483727 2.51185 0
M  V30 3415 H 340.636 -1.22824 4.92825 0
M  V30 3416 H 340.566 -2.92213 4.38086 0
M  V30 3417 H 343.057 -1.74925 3.34977 0
M  V30 3418 H 343.37 -3.0112 7.11721 0
M  V30 3419 H 341.715 -2.71445 6.39799 0
M  V30 3420 H 344.906 -2.09174 4.18765 0
M  V30 3421 H 345.079 -2.66741 5.90554 0
M  V30 3422 N 338.485 -1.33259 -0.841409 0
M  V30 3423 C 339.432 -1.23302 -1.95103 0
M  V30 3424 C 340.402 -0.112204 -1.65721 0
M  V30 3425 O 341.587 -0.290038 -1.88583 0
M  V30 3426 C 338.727 -0.975583 -3.31023 0
M  V30 3427 C 337.84 -2.18243 -3.72819 0
M  V30 3428 C 336.975 -1.85936 -4.97595 0
M  V30 3429 C 336.014 -3.02866 -5.3192 0
M  V30 3430 N 335.151 -2.70565 -6.47873 0
M  V30 3431 H 339.991 -2.18207 -2.02952 0
M  V30 3432 H 337.528 -1.0851 -0.993173 0
M  V30 3433 H 339.486 -0.80677 -4.09325 0
M  V30 3434 H 338.116 -0.0632755 -3.22738 0
M  V30 3435 H 337.168 -2.46107 -2.90061 0
M  V30 3436 H 338.48 -3.05666 -3.94169 0
M  V30 3437 H 337.634 -1.65684 -5.83638 0
M  V30 3438 H 336.373 -0.957452 -4.78209 0
M  V30 3439 H 335.378 -3.23736 -4.44382 0
M  V30 3440 H 336.603 -3.93809 -5.53255 0
M  V30 3441 H 334.549 -1.8293 -6.29978 0
M  V30 3442 H 334.466 -3.51519 -6.69306 0
M  V30 3443 H 335.734 -2.53774 -7.37034 0
M  V30 3444 N 339.963 1.05934 -1.16686 0
M  V30 3445 C 341.191 1.8249 -0.974929 0
M  V30 3446 C 341.606 1.82679 0.476861 0
M  V30 3447 O 340.963 1.2486 1.33103 0
M  V30 3448 C 341.014 3.28943 -1.49929 0
M  V30 3449 O 340.735 3.28886 -2.89423 0
M  V30 3450 C 342.236 4.22215 -1.35089 0
M  V30 3451 H 339.456 0.575295 -0.345365 0
M  V30 3452 H 342 1.33631 -1.548 0
M  V30 3453 H 340.155 3.751 -0.968423 0
M  V30 3454 H 340.569 4.20493 -3.13506 0
M  V30 3455 H 342.043 5.22987 -1.76603 0
M  V30 3456 H 342.52 4.38195 -0.296935 0
M  V30 3457 H 343.126 3.81907 -1.87155 0
M  V30 3458 N 341.441 0.965919 1.2453 0
M  V30 3459 C 342.688 0.626831 1.92554 0
M  V30 3460 C 343.016 -0.837739 1.75534 0
M  V30 3461 O 342.271 -1.61793 1.10098 0
M  V30 3462 C 342.57 0.945428 3.44669 0
M  V30 3463 C 342.236 2.39785 3.81856 0
M  V30 3464 C 340.898 2.79483 3.91718 0
M  V30 3465 C 343.25 3.34055 4.00071 0
M  V30 3466 C 340.578 4.12496 4.1721 0
M  V30 3467 C 342.93 4.66694 4.27059 0
M  V30 3468 C 341.594 5.06172 4.3514 0
M  V30 3469 H 340.864 0.229374 0.704605 0
M  V30 3470 H 343.511 1.21707 1.4785 0
M  V30 3471 H 341.816 0.272926 3.90848 0
M  V30 3472 H 343.513 0.661484 3.95507 0
M  V30 3473 H 340.103 2.08003 3.74743 0
M  V30 3474 H 344.287 3.04571 3.91855 0
M  V30 3475 H 339.543 4.42709 4.21685 0
M  V30 3476 H 343.717 5.3971 4.40097 0
M  V30 3477 H 341.344 6.09262 4.54646 0
M  V30 3478 N 342.919 -1.39368 0.735821 0
M  V30 3479 C 344.165 -2.00794 0.284544 0
M  V30 3480 C 344.498 -1.58255 -1.12557 0
M  V30 3481 O 343.773 -0.811819 -1.76748 0
M  V30 3482 C 344.056 -3.58011 0.387337 0
M  V30 3483 C 343.909 -4.10566 1.83728 0
M  V30 3484 C 345.228 -4.395 -0.22975 0
M  V30 3485 H 342.347 -0.729501 0.104866 0
M  V30 3486 H 344.989 -1.65564 0.93213 0
M  V30 3487 H 343.139 -3.88154 -0.164006 0
M  V30 3488 H 344.811 -3.91139 2.44556 0
M  V30 3489 H 343.054 -3.64095 2.35833 0
M  V30 3490 H 343.725 -5.19702 1.86047 0
M  V30 3491 H 346.201 -4.15406 0.240257 0
M  V30 3492 H 345.077 -5.48752 -0.127485 0
M  V30 3493 H 345.338 -4.22062 -1.3159 0
M  V30 3494 N 344.397 -0.483516 -1.5 0
M  V30 3495 C 345.645 0.067027 -2.01989 0
M  V30 3496 C 345.966 1.3909 -1.36671 0
M  V30 3497 O 345.236 1.88978 -0.516152 0
M  V30 3498 H 343.816 0.0277606 -0.746484 0
M  V30 3499 H 346.478 -0.636773 -1.84204 0
M  V30 3500 H 345.574 0.209484 -3.11396 0
M  V30 3501 N 345.875 1.56104 -0.216619 0
M  V30 3502 C 347.103 2.02563 0.421413 0
M  V30 3503 C 347.518 1.0965 1.53695 0
M  V30 3504 O 346.875 0.10521 1.82196 0
M  V30 3505 C 346.926 3.48584 0.957665 0
M  V30 3506 O 346.647 4.37953 -0.113389 0
M  V30 3507 C 348.148 4.10664 1.66943 0
M  V30 3508 H 345.368 0.662944 0.103665 0
M  V30 3509 H 347.912 2.01793 -0.331629 0
M  V30 3510 H 346.067 3.49985 1.661 0
M  V30 3511 H 346.481 5.23704 0.288932 0
M  V30 3512 H 347.955 5.14622 1.99671 0
M  V30 3513 H 348.432 3.55373 2.58083 0
M  V30 3514 H 349.038 4.13098 1.01142 0
M  V30 3515 N 347.353 -0.0568162 1.57498 0
M  V30 3516 C 348.764 -0.606858 1.76562 0
M  V30 3517 C 349.115 -1.77114 0.844094 0
M  V30 3518 O 348.24 -2.16376 0.0318911 0
M  V30 3519 C 348.835 -1.10766 3.20182 0
M  V30 3520 C 347.394 -1.60344 3.40539 0
M  V30 3521 C 346.541 -0.529311 2.72201 0
M  V30 3522 H 349.492 0.169393 1.57793 0
M  V30 3523 H 349.513 -1.97602 3.25167 0
M  V30 3524 H 349.025 -0.26006 3.87228 0
M  V30 3525 H 347.126 -2.47379 2.78629 0
M  V30 3526 H 347.239 -1.67006 4.4905 0
M  V30 3527 H 345.603 -0.977893 2.35179 0
M  V30 3528 H 346.386 0.308352 3.41912 0
M  V30 3529 N 348.832 -1.54138 -0.328536 0
M  V30 3530 C 350.072 -1.73827 -1.07534 0
M  V30 3531 C 350.436 -0.498777 -1.85408 0
M  V30 3532 O 351.637 -0.572937 -2.62623 0
M  V30 3533 C 349.908 -2.97573 -1.97952 0
M  V30 3534 S 351.467 -3.38143 -2.79652 0
M  V30 3535 H 348.285 -0.611287 -0.36311 0
M  V30 3536 H 350.887 -1.92306 -0.351931 0
M  V30 3537 H 349.591 -3.85939 -1.39569 0
M  V30 3538 H 349.122 -2.81603 -2.74706 0
M  V30 3539 H 351.137 -2.93052 -4.00418 0
M  V30 3540 N 350.31 0.590341 -1.46126 0
M  V30 3541 C 351.556 1.34874 -1.52252 0
M  V30 3542 C 351.911 1.91658 -0.168807 0
M  V30 3543 O 351.204 1.73093 0.821556 0
M  V30 3544 C 351.398 2.5032 -2.55097 0
M  V30 3545 C 351.227 2.04843 -4.00337 0
M  V30 3546 C 349.997 1.90213 -4.68132 0
M  V30 3547 C 352.195 1.61267 -4.88362 0
M  V30 3548 N 350.177 1.38727 -5.9802 0
M  V30 3549 C 351.548 1.21319 -6.08015 0
M  V30 3550 C 353.603 1.49015 -4.75078 0
M  V30 3551 C 352.306 0.7034 -7.15852 0
M  V30 3552 C 354.332 0.994401 -5.8298 0
M  V30 3553 C 353.694 0.604659 -7.018 0
M  V30 3554 H 349.793 0.486803 -0.612002 0
M  V30 3555 H 352.377 0.673007 -1.82698 0
M  V30 3556 H 350.548 3.15466 -2.26574 0
M  V30 3557 H 352.28 3.1725 -2.51266 0
M  V30 3558 H 349.035 2.11927 -4.23537 0
M  V30 3559 H 349.459 1.15168 -6.67132 0
M  V30 3560 H 354.101 1.77768 -3.83612 0
M  V30 3561 H 351.819 0.403446 -8.07092 0
M  V30 3562 H 355.405 0.903621 -5.7474 0
M  V30 3563 H 354.285 0.226963 -7.83871 0
M  V30 3564 N 351.788 1.33704 0.83433 0
M  V30 3565 C 352.721 1.18675 1.94914 0
M  V30 3566 C 353.699 0.0811145 1.62398 0
M  V30 3567 O 354.883 0.244186 1.86912 0
M  V30 3568 C 352.01 0.821231 3.28593 0
M  V30 3569 C 351.056 1.93501 3.80079 0
M  V30 3570 S 351.889 3.54671 4.01209 0
M  V30 3571 C 353.045 3.20136 5.37833 0
M  V30 3572 H 353.278 2.13043 2.07364 0
M  V30 3573 H 350.811 1.18598 0.988624 0
M  V30 3574 H 352.769 0.617123 4.05835 0
M  V30 3575 H 351.43 -0.103927 3.13928 0
M  V30 3576 H 350.623 1.63273 4.76821 0
M  V30 3577 H 350.225 2.09601 3.09747 0
M  V30 3578 H 352.517 2.71242 6.20833 0
M  V30 3579 H 353.46 4.15975 5.73036 0
M  V30 3580 H 353.868 2.56613 5.02802 0
M  V30 3581 N 353.266 -1.05314 1.17247 0
M  V30 3582 C 354.229 -2.112 0.890357 0
M  V30 3583 C 355.229 -1.60359 -0.118943 0
M  V30 3584 O 356.419 -1.73833 0.113086 0
M  V30 3585 C 353.551 -3.39266 0.333422 0
M  V30 3586 H 354.744 -2.37659 1.82916 0
M  V30 3587 H 352.297 -1.21538 0.982758 0
M  V30 3588 H 353.032 -3.18462 -0.612587 0
M  V30 3589 H 352.817 -3.77477 1.06082 0
M  V30 3590 H 354.307 -4.17315 0.154322 0
M  V30 3591 N 354.744 -0.972509 -1.24016 0
M  V30 3592 C 356.155 -0.67517 -1.74064 0
M  V30 3593 C 356.506 0.808939 -1.78747 0
M  V30 3594 O 355.631 1.63286 -1.42009 0
M  V30 3595 C 356.226 -1.21889 -3.16115 0
M  V30 3596 C 354.785 -0.971358 -3.6365 0
M  V30 3597 C 353.932 -1.35134 -2.42145 0
M  V30 3598 H 356.883 -1.14727 -1.09651 0
M  V30 3599 H 356.904 -0.587489 -3.75937 0
M  V30 3600 H 356.416 -2.29906 -3.12674 0
M  V30 3601 H 354.517 0.0930686 -3.72484 0
M  V30 3602 H 354.63 -1.62039 -4.50866 0
M  V30 3603 H 352.994 -0.769751 -2.4279 0
M  V30 3604 H 353.777 -2.4411 -2.41381 0
M  V30 3605 N 356.222 1.38976 -0.743202 0
M  V30 3606 C 357.132 2.3434 -0.110399 0
M  V30 3607 C 358.148 1.58741 0.712559 0
M  V30 3608 O 359.324 1.9099 0.639125 0
M  V30 3609 C 356.389 3.37812 0.780012 0
M  V30 3610 C 355.45 4.29263 -0.0561319 0
M  V30 3611 C 354.683 5.27793 0.791875 0
M  V30 3612 O 354.906 5.33043 2.03031 0
M  V30 3613 O 353.84 6.01512 0.216183 0
M  V30 3614 H 357.666 2.90129 -0.897714 0
M  V30 3615 H 355.251 1.40643 -0.503966 0
M  V30 3616 H 357.133 4.01194 1.28923 0
M  V30 3617 H 355.808 2.84395 1.546 0
M  V30 3618 H 354.715 3.69076 -0.611056 0
M  V30 3619 H 356.048 4.85907 -0.784531 0
M  V30 3620 N 357.7 0.491464 1.49741 0
M  V30 3621 C 358.946 -0.0565092 2.02721 0
M  V30 3622 C 359.279 -1.37522 1.37118 0
M  V30 3623 O 358.554 -1.87866 0.503645 0
M  V30 3624 C 358.837 -0.219051 3.59433 0
M  V30 3625 C 358.69 1.12211 4.35579 0
M  V30 3626 C 360.009 -0.964157 4.29409 0
M  V30 3627 H 357.128 -0.0190627 0.736753 0
M  V30 3628 H 359.77 0.641021 1.7886 0
M  V30 3629 H 357.92 -0.813165 3.79895 0
M  V30 3630 H 359.592 1.75437 4.26637 0
M  V30 3631 H 357.835 1.71377 3.98513 0
M  V30 3632 H 358.506 0.961794 5.43556 0
M  V30 3633 H 360.982 -0.460378 4.13545 0
M  V30 3634 H 359.858 -1.04671 5.38828 0
M  V30 3635 H 360.119 -2.00563 3.93988 0
M  V30 3636 N 359.178 -1.55987 0.224894 0
M  V30 3637 C 360.111 -2.16413 -0.723929 0
M  V30 3638 C 361.089 -1.10952 -1.18863 0
M  V30 3639 O 362.273 -1.39225 -1.27077 0
M  V30 3640 C 359.4 -2.74711 -1.98121 0
M  V30 3641 C 358.446 -3.9303 -1.6562 0
M  V30 3642 S 359.279 -5.29817 -0.778058 0
M  V30 3643 C 360.435 -5.91555 -2.04483 0
M  V30 3644 H 360.668 -2.96555 -0.210347 0
M  V30 3645 H 358.201 -1.54397 0.00955457 0
M  V30 3646 H 360.159 -3.08938 -2.70311 0
M  V30 3647 H 358.82 -1.94555 -2.46591 0
M  V30 3648 H 358.013 -4.32334 -2.59043 0
M  V30 3649 H 357.615 -3.59966 -1.01491 0
M  V30 3650 H 359.907 -6.07732 -2.99446 0
M  V30 3651 H 360.85 -6.87498 -1.69563 0
M  V30 3652 H 361.258 -5.20419 -2.18688 0
M  V30 3653 N 360.656 0.0484629 -1.57525 0
M  V30 3654 C 361.566 1.07241 -2.08654 0
M  V30 3655 C 362.582 1.409 -1.02095 0
M  V30 3656 O 363.758 1.50609 -1.33712 0
M  V30 3657 C 360.823 2.36008 -2.5397 0
M  V30 3658 C 359.884 2.09108 -3.7493 0
M  V30 3659 C 359.117 3.31736 -4.18075 0
M  V30 3660 O 359.34 4.41714 -3.60895 0
M  V30 3661 O 358.274 3.18576 -5.10679 0
M  V30 3662 H 362.1 0.667965 -2.96263 0
M  V30 3663 H 359.685 0.26417 -1.47046 0
M  V30 3664 H 361.567 3.11747 -2.83535 0
M  V30 3665 H 360.242 2.75786 -1.69481 0
M  V30 3666 H 359.149 1.31 -3.50414 0
M  V30 3667 H 360.482 1.74198 -4.60343 0
M  V30 3668 N 362.134 1.5431 0.320358 0
M  V30 3669 C 363.066 1.80262 1.41556 0
M  V30 3670 C 364.079 0.684723 1.477 0
M  V30 3671 O 365.268 0.961886 1.50366 0
M  V30 3672 C 362.368 1.90825 2.8007 0
M  V30 3673 C 361.541 3.21023 2.97091 0
M  V30 3674 C 360.6 3.22247 4.15985 0
M  V30 3675 O 359.626 3.95871 4.08992 0
M  V30 3676 N 360.828 2.46258 5.25678 0
M  V30 3677 H 363.593 2.74778 1.19655 0
M  V30 3678 H 361.154 1.53646 0.510358 0
M  V30 3679 H 363.146 1.89067 3.57821 0
M  V30 3680 H 361.716 1.03392 2.95006 0
M  V30 3681 H 360.936 3.35715 2.06614 0
M  V30 3682 H 362.224 4.0698 3.05361 0
M  V30 3683 H 361.622 1.86037 5.34235 0
M  V30 3684 H 360.179 2.50275 6.01835 0
M  V30 3685 N 363.613 -0.582584 1.46437 0
M  V30 3686 C 364.859 -1.34278 1.51978 0
M  V30 3687 C 365.192 -1.93446 0.170973 0
M  V30 3688 O 364.467 -1.76481 -0.817608 0
M  V30 3689 C 364.75 -2.47203 2.61845 0
M  V30 3690 C 364.603 -1.93069 4.06257 0
M  V30 3691 C 365.922 -3.49247 2.67795 0
M  V30 3692 H 363.041 -0.486876 0.553282 0
M  V30 3693 H 365.683 -0.654437 1.78374 0
M  V30 3694 H 363.833 -3.0592 2.39469 0
M  V30 3695 H 365.505 -1.38808 4.3992 0
M  V30 3696 H 363.748 -1.23898 4.1573 0
M  V30 3697 H 364.419 -2.74586 4.7886 0
M  V30 3698 H 366.895 -3.00411 2.8791 0
M  V30 3699 H 365.771 -4.25719 3.46489 0
M  V30 3700 H 366.032 -4.06482 1.73852 0
M  V30 3701 N 365.091 -1.34144 -0.827227 0
M  V30 3702 C 366.507 -1.13732 -1.11969 0
M  V30 3703 C 366.707 0.0640463 -2.01398 0
M  V30 3704 O 365.763 0.740856 -2.41387 0
M  V30 3705 C 367.076 -2.43047 -1.77055 0
M  V30 3706 C 368.624 -2.49063 -1.89569 0
M  V30 3707 C 369.099 -3.78369 -2.58072 0
M  V30 3708 N 370.59 -3.79505 -2.65575 0
M  V30 3709 C 371.325 -4.76274 -3.19297 0
M  V30 3710 N 370.821 -5.83424 -3.73616 0
M  V30 3711 N 372.614 -4.63735 -3.17658 0
M  V30 3712 H 364.765 -2.11126 -0.232296 0
M  V30 3713 H 367.028 -0.933424 -0.165602 0
M  V30 3714 H 366.734 -3.31025 -1.18807 0
M  V30 3715 H 366.608 -2.56066 -2.76966 0
M  V30 3716 H 368.995 -1.61527 -2.46968 0
M  V30 3717 H 369.076 -2.39975 -0.885745 0
M  V30 3718 H 368.72 -4.66293 -2.01329 0
M  V30 3719 H 368.65 -3.84737 -3.59562 0
M  V30 3720 H 371.141 -3.02074 -2.27068 0
M  V30 3721 H 371.454 -6.53282 -4.12846 0
M  V30 3722 H 369.799 -5.87143 -3.71871 0
M  V30 3723 H 372.99 -3.79177 -2.74486 0
M  V30 3724 H 373.163 -5.39318 -3.59221 0
M  V30 3725 N 366.569 1.04691 -1.17803 0
M  V30 3726 C 367.817 1.7743 -0.967617 0
M  V30 3727 C 368.138 1.88359 0.504574 0
M  V30 3728 O 367.408 1.40402 1.36617 0
M  V30 3729 H 365.988 0.657242 -0.355024 0
M  V30 3730 H 368.65 1.2638 -1.48371 0
M  V30 3731 H 367.746 2.78924 -1.40027 0
M  V30 3732 N 368.047 0.979072 1.23499 0
M  V30 3733 C 369.277 0.664237 1.95631 0
M  V30 3734 C 369.685 -0.772653 1.72704 0
M  V30 3735 O 369.028 -1.53141 1.01457 0
M  V30 3736 C 369.09 0.873115 3.48736 0
M  V30 3737 C 368.754 2.29182 3.95379 0
M  V30 3738 C 369.751 3.2704 4.04155 0
M  V30 3739 C 367.436 2.62256 4.28401 0
M  V30 3740 C 369.43 4.56052 4.45304 0
M  V30 3741 C 367.117 3.91491 4.69231 0
M  V30 3742 C 368.115 4.88201 4.77649 0
M  V30 3743 O 367.803 6.15129 5.17563 0
M  V30 3744 H 367.535 0.245915 0.629684 0
M  V30 3745 H 370.089 1.3127 1.57979 0
M  V30 3746 H 368.319 0.167476 3.86337 0
M  V30 3747 H 370.008 0.555642 4.02079 0
M  V30 3748 H 370.774 3.02819 3.78848 0
M  V30 3749 H 366.653 1.87692 4.21061 0
M  V30 3750 H 370.197 5.31538 4.51789 0
M  V30 3751 H 366.094 4.15508 4.93987 0
M  V30 3752 H 366.862 6.18862 5.35679 0
M  V30 3753 N 369.525 -1.3858 0.750561 0
M  V30 3754 C 370.802 -1.94231 0.231009 0
M  V30 3755 C 371.182 -1.68611 -1.27018 0
M  V30 3756 O 370.53 -1.02296 -2.04323 0
M  V30 3757 C 370.74 -3.44123 0.581428 0
M  V30 3758 C 372.088 -4.2116 0.539389 0
M  V30 3759 O 373.112 -3.52391 0.519541 0
M  V30 3760 O 371.971 -5.43749 0.54765 0
M  V30 3761 H 369.065 -0.825639 0.0474263 0
M  V30 3762 H 371.611 -1.4799 0.830478 0
M  V30 3763 H 370.383 -3.56267 1.61833 0
M  V30 3764 H 370.006 -3.97573 -0.0462047 0
M  V30 3765 N 371.003 -0.499398 -1.49478 0
M  V30 3766 C 372.25 0.0456899 -2.02448 0
M  V30 3767 C 372.578 1.37142 -1.37921 0
M  V30 3768 O 371.833 1.89111 -0.503544 0
M  V30 3769 C 372.132 0.248424 -3.56536 0
M  V30 3770 C 371.798 -0.999107 -4.39692 0
M  V30 3771 C 370.46 -1.34108 -4.62135 0
M  V30 3772 C 372.812 -1.82842 -4.88076 0
M  V30 3773 C 370.14 -2.51191 -5.30208 0
M  V30 3774 C 372.492 -2.99076 -5.57437 0
M  V30 3775 C 371.156 -3.33655 -5.78127 0
M  V30 3776 H 370.426 0.0167191 -0.740811 0
M  V30 3777 H 373.073 -0.65923 -1.79795 0
M  V30 3778 H 371.378 1.03586 -3.77859 0
M  V30 3779 H 373.075 0.684605 -3.95113 0
M  V30 3780 H 369.665 -0.722729 -4.22463 0
M  V30 3781 H 373.849 -1.57737 -4.70566 0
M  V30 3782 H 369.105 -2.78221 -5.44429 0
M  V30 3783 H 373.279 -3.63664 -5.93904 0
M  V30 3784 H 370.906 -4.24483 -6.30649 0
M  V30 3785 N 372.481 1.55866 -0.233164 0
M  V30 3786 C 373.428 2.20796 0.67215 0
M  V30 3787 C 374.398 1.16731 1.18166 0
M  V30 3788 O 375.583 1.45129 1.23864 0
M  V30 3789 C 372.723 2.90072 1.86955 0
M  V30 3790 C 371.836 4.08759 1.39786 0
M  V30 3791 C 370.971 4.65787 2.55374 0
M  V30 3792 C 370.01 5.76752 2.04998 0
M  V30 3793 N 369.147 6.28021 3.13901 0
M  V30 3794 H 373.987 2.9779 0.111749 0
M  V30 3795 H 371.524 1.47036 0.0434007 0
M  V30 3796 H 373.482 3.28428 2.57276 0
M  V30 3797 H 372.112 2.15575 2.40265 0
M  V30 3798 H 371.164 3.7581 0.589173 0
M  V30 3799 H 372.476 4.88906 0.98856 0
M  V30 3800 H 371.63 5.06646 3.33758 0
M  V30 3801 H 370.369 3.84828 2.99598 0
M  V30 3802 H 369.374 5.35383 1.25079 0
M  V30 3803 H 370.599 6.59553 1.61759 0
M  V30 3804 H 368.545 5.49971 3.57586 0
M  V30 3805 H 368.462 7.03323 2.7726 0
M  V30 3806 H 369.73 6.73538 3.92386 0
M  V30 3807 N 373.959 -0.0401083 1.57549 0
M  V30 3808 C 374.922 -1.02871 2.04817 0
M  V30 3809 C 375.922 -1.29708 0.950388 0
M  V30 3810 O 377.112 -1.24897 1.21435 0
M  V30 3811 C 374.244 -2.36443 2.45576 0
M  V30 3812 H 375.437 -0.620631 2.93408 0
M  V30 3813 H 372.99 -0.286667 1.53649 0
M  V30 3814 H 373.725 -2.82021 1.60108 0
M  V30 3815 H 373.51 -2.18296 3.25713 0
M  V30 3816 H 375 -3.07441 2.82612 0
M  V30 3817 N 375.437 -1.54477 -0.31217 0
M  V30 3818 C 376.714 -1.63891 -1.06767 0
M  V30 3819 C 377.094 -0.480028 -2.0557 0
M  V30 3820 O 376.442 0.524487 -2.22399 0
M  V30 3821 C 376.652 -3.01402 -1.75948 0
M  V30 3822 C 378 -3.57838 -2.28554 0
M  V30 3823 O 379.024 -3.03782 -1.85998 0
M  V30 3824 O 377.883 -4.52462 -3.06497 0
M  V30 3825 H 374.977 -0.664125 -0.492816 0
M  V30 3826 H 377.523 -1.66823 -0.311149 0
M  V30 3827 H 376.295 -3.77187 -1.04144 0
M  V30 3828 H 375.918 -3.02199 -2.58383 0
M  V30 3829 N 376.915 0.57481 -1.46744 0
M  V30 3830 C 377.848 1.69827 -1.52427 0
M  V30 3831 C 378.826 1.58151 -0.377744 0
M  V30 3832 O 380.01 1.79257 -0.58303 0
M  V30 3833 C 377.137 3.07943 -1.41027 0
M  V30 3834 C 376.183 3.38116 -2.59961 0
M  V30 3835 S 377.016 3.29313 -4.22272 0
M  V30 3836 C 378.172 4.69953 -4.13394 0
M  V30 3837 H 378.405 1.64748 -2.47478 0
M  V30 3838 H 375.938 0.754203 -1.34726 0
M  V30 3839 H 377.896 3.87619 -1.35137 0
M  V30 3840 H 376.557 3.10504 -0.473909 0
M  V30 3841 H 375.75 4.38762 -2.47999 0
M  V30 3842 H 375.352 2.66024 -2.62882 0
M  V30 3843 H 377.644 5.60517 -3.80562 0
M  V30 3844 H 378.587 4.86972 -5.14066 0
M  V30 3845 H 378.995 4.47174 -3.44522 0
M  V30 3846 N 378.394 1.34581 0.820102 0
M  V30 3847 C 379.64 1.28294 1.57836 0
M  V30 3848 C 379.995 -0.145099 1.91852 0
M  V30 3849 O 379.288 -1.09209 1.57429 0
M  V30 3850 C 379.482 2.10997 2.8847 0
M  V30 3851 C 379.311 3.61698 2.67216 0
M  V30 3852 C 378.081 4.3097 2.63805 0
M  V30 3853 C 380.279 4.55638 2.38534 0
M  V30 3854 N 378.261 5.67502 2.34126 0
M  V30 3855 C 379.632 5.80194 2.18574 0
M  V30 3856 C 381.687 4.44523 2.24285 0
M  V30 3857 C 380.39 6.94886 1.8581 0
M  V30 3858 C 382.416 5.5905 1.92916 0
M  V30 3859 C 381.778 6.82627 1.73782 0
M  V30 3860 H 377.877 0.524697 0.579842 0
M  V30 3861 H 380.461 1.69323 0.961139 0
M  V30 3862 H 378.632 1.7226 3.48111 0
M  V30 3863 H 380.364 1.96333 3.53886 0
M  V30 3864 H 377.119 3.83438 2.77978 0
M  V30 3865 H 377.543 6.39525 2.22118 0
M  V30 3866 H 382.185 3.49599 2.37782 0
M  V30 3867 H 379.903 7.89789 1.7105 0
M  V30 3868 H 383.489 5.52396 1.82619 0
M  V30 3869 H 382.369 7.69748 1.49861 0
M  V30 3870 N 379.872 -1.04064 1.18357 0
M  V30 3871 C 381.097 -1.81454 1.00445 0
M  V30 3872 C 381.522 -1.82823 -0.442423 0
M  V30 3873 O 380.88 -1.24555 -1.31741 0
M  V30 3874 C 380.928 -3.24925 1.56384 0
M  V30 3875 O 380.032 -4.04856 0.785209 0
M  V30 3876 H 379.373 -0.560604 0.355835 0
M  V30 3877 H 381.903 -1.31059 1.57114 0
M  V30 3878 H 381.913 -3.75702 1.59097 0
M  V30 3879 H 380.588 -3.23244 2.61699 0
M  V30 3880 H 379.165 -3.63537 0.830399 0
M  V30 3881 N 381.35 -0.985608 -1.22978 0
M  V30 3882 C 382.597 -0.657386 -1.91532 0
M  V30 3883 C 382.925 0.809707 -1.76845 0
M  V30 3884 O 382.18 1.60021 -1.12658 0
M  V30 3885 C 382.479 -1.00014 -3.43121 0
M  V30 3886 C 382.145 -2.4583 -3.77993 0
M  V30 3887 C 380.807 -2.85679 -3.87222 0
M  V30 3888 C 383.159 -3.40378 -3.94705 0
M  V30 3889 C 380.487 -4.19081 -4.10595 0
M  V30 3890 C 382.839 -4.73429 -4.1958 0
M  V30 3891 C 381.503 -5.1303 -4.27032 0
M  V30 3892 H 380.773 -0.240555 -0.700867 0
M  V30 3893 H 383.42 -1.24044 -1.45895 0
M  V30 3894 H 381.725 -0.335072 -3.90365 0
M  V30 3895 H 383.422 -0.724322 -3.94404 0
M  V30 3896 H 380.012 -2.13939 -3.71387 0
M  V30 3897 H 384.196 -3.10766 -3.8696 0
M  V30 3898 H 379.452 -4.49362 -4.14589 0
M  V30 3899 H 383.626 -5.46644 -4.31455 0
M  V30 3900 H 381.253 -6.16418 -4.44896 0
M  V30 3901 N 382.828 1.3818 -0.7579 0
M  V30 3902 C 384.076 1.99624 -0.315361 0
M  V30 3903 C 384.397 1.60464 1.10799 0
M  V30 3904 O 383.667 0.863507 1.75842 0
M  V30 3905 H 382.247 0.73831 -0.113611 0
M  V30 3906 H 384.909 1.68878 -0.972952 0
M  V30 3907 H 384.005 3.09754 -0.381931 0
M  V30 3908 N 384.306 0.507319 1.49211 0
M  V30 3909 C 385.555 -0.0368315 2.01666 0
M  V30 3910 C 385.868 -1.37459 1.39156 0
M  V30 3911 O 387.074 -2.00579 1.82976 0
M  V30 3912 C 385.53 -0.116089 3.59713 0
M  V30 3913 C 385.138 1.2154 4.31198 0
M  V30 3914 C 386.882 -0.610268 4.2009 0
M  V30 3915 C 384.789 1.09796 5.81119 0
M  V30 3916 H 383.719 -0.0175376 0.753796 0
M  V30 3917 H 386.37 0.647691 1.71689 0
M  V30 3918 H 384.752 -0.8652 3.86433 0
M  V30 3919 H 385.926 1.9783 4.16173 0
M  V30 3920 H 384.241 1.64352 3.82593 0
M  V30 3921 H 386.838 -0.715742 5.29888 0
M  V30 3922 H 387.181 -1.61064 3.8388 0
M  V30 3923 H 387.714 0.0824916 3.97714 0
M  V30 3924 H 384.453 2.0728 6.21864 0
M  V30 3925 H 383.973 0.376058 5.9862 0
M  V30 3926 H 385.652 0.779281 6.4229 0
M  V30 3927 N 385.784 -1.5574 0.241426 0
M  V30 3928 C 387.012 -2.03208 -0.389134 0
M  V30 3929 C 387.427 -1.12082 -1.51931 0
M  V30 3930 O 386.784 -0.134183 -1.82006 0
M  V30 3931 C 386.835 -3.50064 -0.902087 0
M  V30 3932 O 386.556 -4.37717 0.18305 0
M  V30 3933 C 388.057 -4.13268 -1.60389 0
M  V30 3934 H 385.277 -0.664509 -0.0931053 0
M  V30 3935 H 387.821 -2.0124 0.36369 0
M  V30 3936 H 385.976 -3.52583 -1.60511 0
M  V30 3937 H 386.39 -5.24097 -0.205579 0
M  V30 3938 H 387.864 -5.17733 -1.91458 0
M  V30 3939 H 388.341 -3.59434 -2.52397 0
M  V30 3940 H 388.947 -4.14655 -0.945576 0
M  V30 3941 N 387.262 0.0317525 -1.57568 0
M  V30 3942 C 388.225 1.01783 -2.0536 0
M  V30 3943 C 389.225 1.29203 -0.957253 0
M  V30 3944 O 390.415 1.24251 -1.22095 0
M  V30 3945 C 387.547 2.35137 -2.46827 0
M  V30 3946 H 388.74 0.605062 -2.93733 0
M  V30 3947 H 386.293 0.278514 -1.53799 0
M  V30 3948 H 387.028 2.81168 -1.61602 0
M  V30 3949 H 386.813 2.16566 -3.26866 0
M  V30 3950 H 388.303 3.05938 -2.84239 0
M  V30 3951 N 388.74 1.54641 0.303973 0
M  V30 3952 C 389.989 1.7299 1.03717 0
M  V30 3953 C 390.302 0.521168 1.88529 0
M  V30 3954 O 391.508 0.586408 2.65092 0
M  V30 3955 C 389.964 3.06051 1.89369 0
M  V30 3956 C 389.572 4.34393 1.09574 0
M  V30 3957 C 391.316 3.3376 2.62306 0
M  V30 3958 C 389.223 5.58506 1.94486 0
M  V30 3959 H 388.153 0.64473 0.390947 0
M  V30 3960 H 390.804 1.81124 0.294328 0
M  V30 3961 H 389.186 2.91874 2.67629 0
M  V30 3962 H 390.36 4.59396 0.359485 0
M  V30 3963 H 388.675 4.13597 0.482324 0
M  V30 3964 H 391.272 4.23687 3.26181 0
M  V30 3965 H 391.615 2.52503 3.3098 0
M  V30 3966 H 392.148 3.48894 1.91097 0
M  V30 3967 H 388.887 6.42422 1.30287 0
M  V30 3968 H 388.407 5.37694 2.65792 0
M  V30 3969 H 390.086 5.95651 2.52605 0
M  V30 3970 N 390.218 -0.567019 1.47046 0
M  V30 3971 C 391.128 -1.70247 1.6141 0
M  V30 3972 C 392.144 -1.66746 0.497157 0
M  V30 3973 O 393.32 -1.86371 0.763389 0
M  V30 3974 C 390.385 -3.06756 1.61561 0
M  V30 3975 C 389.446 -3.21399 2.84607 0
M  V30 3976 C 388.679 -4.51396 2.84741 0
M  V30 3977 O 388.902 -5.36255 1.94388 0
M  V30 3978 O 387.836 -4.69621 3.76483 0
M  V30 3979 H 391.662 -1.61073 2.57467 0
M  V30 3980 H 389.247 -0.735894 1.30019 0
M  V30 3981 H 391.129 -3.8801 1.64396 0
M  V30 3982 H 389.804 -3.16333 0.686684 0
M  V30 3983 H 388.711 -2.39579 2.8732 0
M  V30 3984 H 390.044 -3.16721 3.76761 0
M  V30 3985 N 391.696 -1.35014 -0.812953 0
M  V30 3986 C 392.626 -1.30069 -1.93919 0
M  V30 3987 C 393.607 -0.176275 -1.69184 0
M  V30 3988 O 394.792 -0.370227 -1.90638 0
M  V30 3989 C 391.922 -1.06547 -3.30552 0
M  V30 3990 C 390.876 -2.15561 -3.69753 0
M  V30 3991 C 390.202 -1.77214 -5.04479 0
M  V30 3992 C 391.502 -3.57476 -3.808 0
M  V30 3993 H 393.196 -2.24303 -1.98314 0
M  V30 3994 H 390.742 -1.07977 -0.952736 0
M  V30 3995 H 392.695 -1.01729 -4.08937 0
M  V30 3996 H 391.419 -0.0875719 -3.26483 0
M  V30 3997 H 390.078 -2.19466 -2.9365 0
M  V30 3998 H 389.726 -0.780589 -4.96906 0
M  V30 3999 H 389.426 -2.50184 -5.31678 0
M  V30 4000 H 390.95 -1.7391 -5.8531 0
M  V30 4001 H 392.364 -3.55929 -4.4943 0
M  V30 4002 H 390.761 -4.29152 -4.19462 0
M  V30 4003 H 391.831 -3.94091 -2.82525 0
M  V30 4004 N 393.175 1.03435 -1.18907 0
M  V30 4005 C 394.138 2.09756 -0.923844 0
M  V30 4006 C 395.138 1.60528 0.093416 0
M  V30 4007 O 396.328 1.73631 -0.140727 0
M  V30 4008 C 393.46 3.38692 -0.387354 0
M  V30 4009 H 394.653 2.34719 -1.86674 0
M  V30 4010 H 392.206 1.19959 -1.00197 0
M  V30 4011 H 392.941 3.19396 0.561845 0
M  V30 4012 H 392.726 3.75742 -1.12074 0
M  V30 4013 H 394.216 4.17016 -0.220694 0
M  V30 4014 N 394.653 0.992116 1.22453 0
M  V30 4015 C 395.881 0.685944 1.95198 0
M  V30 4016 C 396.296 -0.749233 1.73297 0
M  V30 4017 O 395.653 -1.50549 1.03156 0
M  V30 4018 C 395.704 0.981395 3.47924 0
M  V30 4019 O 395.425 2.36018 3.6909 0
M  V30 4020 C 396.926 0.692815 4.37853 0
M  V30 4021 H 394.146 0.253821 0.621141 0
M  V30 4022 H 396.69 1.32668 1.55626 0
M  V30 4023 H 394.845 0.386481 3.85467 0
M  V30 4024 H 395.259 2.45884 4.63294 0
M  V30 4025 H 396.733 0.949818 5.43767 0
M  V30 4026 H 397.21 -0.373181 4.37612 0
M  V30 4027 H 397.816 1.26874 4.05935 0
M  V30 4028 N 396.131 -1.37776 0.765217 0
M  V30 4029 C 397.379 -1.99454 0.325943 0
M  V30 4030 C 397.7 -1.61049 -1.09947 0
M  V30 4031 O 396.97 -0.872821 -1.75381 0
M  V30 4032 H 395.55 -0.737697 0.117525 0
M  V30 4033 H 398.212 -1.68359 0.981895 0
M  V30 4034 H 397.308 -3.09547 0.398353 0
M  V30 4035 N 397.609 -0.515225 -1.4894 0
M  V30 4036 C 398.572 0.244681 -2.2789 0
M  V30 4037 C 399.572 0.881166 -1.34507 0
M  V30 4038 O 400.762 0.743497 -1.57537 0
M  V30 4039 C 397.894 1.35247 -3.12923 0
M  V30 4040 H 399.087 -0.448289 -2.96531 0
M  V30 4041 H 396.64 -0.270656 -1.53939 0
M  V30 4042 H 397.375 2.07916 -2.48881 0
M  V30 4043 H 397.16 0.901374 -3.81599 0
M  V30 4044 H 398.65 1.88737 -3.72516 0
M  V30 4045 N 399.087 1.5561 -0.249682 0
M  V30 4046 C 400.05 2.20217 0.635394 0
M  V30 4047 C 401.05 1.17227 1.10066 0
M  V30 4048 O 402.24 1.42292 1.00492 0
M  V30 4049 C 399.372 2.84794 1.87363 0
M  V30 4050 H 400.565 2.99814 0.0716752 0
M  V30 4051 H 398.118 1.563 -0.000153234 0
M  V30 4052 H 398.853 2.09142 2.47851 0
M  V30 4053 H 398.638 3.60241 1.5482 0
M  V30 4054 H 400.128 3.3423 2.5036 0
M  V30 4055 N 400.565 -0.0233959 1.57583 0
M  V30 4056 C 401.976 -0.56927 1.77809 0
M  V30 4057 C 402.327 -1.75284 0.881472 0
M  V30 4058 O 401.452 -2.1626 0.0777805 0
M  V30 4059 C 402.047 -1.03949 3.22459 0
M  V30 4060 C 400.606 -1.53084 3.43864 0
M  V30 4061 C 399.753 -0.471454 2.73263 0
M  V30 4062 H 402.704 0.202825 1.57399 0
M  V30 4063 H 402.725 -1.90661 3.29285 0
M  V30 4064 H 402.237 -0.177865 3.87692 0
M  V30 4065 H 400.338 -2.41414 2.83814 0
M  V30 4066 H 400.451 -1.57443 4.52491 0
M  V30 4067 H 398.815 -0.927788 2.37201 0
M  V30 4068 H 399.598 0.380808 3.41181 0
M  V30 4069 N 402.043 -1.548 -0.295768 0
M  V30 4070 C 403.273 -1.78069 -1.04762 0
M  V30 4071 C 403.681 -0.542847 -1.81245 0
M  V30 4072 O 403.024 0.497051 -1.76848 0
M  V30 4073 C 403.086 -2.93881 -2.07061 0
M  V30 4074 C 402.75 -4.31777 -1.49725 0
M  V30 4075 C 403.747 -5.11613 -0.924581 0
M  V30 4076 C 401.432 -4.78389 -1.5313 0
M  V30 4077 C 403.426 -6.36184 -0.393594 0
M  V30 4078 C 401.113 -6.02921 -0.996447 0
M  V30 4079 C 402.111 -6.81654 -0.428569 0
M  V30 4080 O 401.799 -8.0384 0.0981593 0
M  V30 4081 H 401.531 -0.597475 -0.316226 0
M  V30 4082 H 404.085 -2.02584 -0.338973 0
M  V30 4083 H 402.315 -2.65003 -2.81621 0
M  V30 4084 H 404.004 -3.04679 -2.6819 0
M  V30 4085 H 404.77 -4.76743 -0.891136 0
M  V30 4086 H 400.649 -4.17132 -1.9627 0
M  V30 4087 H 404.193 -6.97582 0.0503014 0
M  V30 4088 H 400.09 -6.37277 -1.02706 0
M  V30 4089 H 400.858 -8.18499 -0.0146455 0
M  V30 4090 N 403.521 0.559213 -1.47345 0
M  V30 4091 C 404.471 1.66192 -1.5609 0
M  V30 4092 C 405.455 1.55323 -0.419957 0
M  V30 4093 O 406.647 1.63839 -0.669762 0
M  V30 4094 C 403.776 3.0497 -1.57634 0
M  V30 4095 C 402.862 3.2105 -2.77106 0
M  V30 4096 N 403.253 3.07203 -4.01821 0
M  V30 4097 C 401.551 3.52046 -2.73825 0
M  V30 4098 C 402.252 3.25919 -4.81821 0
M  V30 4099 N 401.228 3.52161 -4.14106 0
M  V30 4100 H 405.03 1.54052 -2.5029 0
M  V30 4101 H 402.544 0.763914 -1.43311 0
M  V30 4102 H 404.541 3.84142 -1.61989 0
M  V30 4103 H 403.201 3.18224 -0.645281 0
M  V30 4104 H 404.212 2.84572 -4.32711 0
M  V30 4105 H 400.889 3.71839 -1.89848 0
M  V30 4106 H 402.279 3.20198 -5.90697 0
M  V30 4107 N 404.999 1.35443 0.805782 0
M  V30 4108 C 405.946 1.28431 1.91766 0
M  V30 4109 C 406.916 0.156102 1.65365 0
M  V30 4110 O 408.101 0.339936 1.87747 0
M  V30 4111 C 405.241 1.06301 3.2832 0
M  V30 4112 C 404.354 2.2805 3.66902 0
M  V30 4113 C 403.489 1.99064 4.92491 0
M  V30 4114 C 402.528 3.16863 5.23703 0
M  V30 4115 N 401.665 2.87647 6.40471 0
M  V30 4116 H 406.505 2.23511 1.97096 0
M  V30 4117 H 404.042 1.11105 0.964054 0
M  V30 4118 H 406 0.915012 4.07042 0
M  V30 4119 H 404.63 0.148822 3.22457 0
M  V30 4120 H 403.682 2.53711 2.83434 0
M  V30 4121 H 404.994 3.1601 3.85927 0
M  V30 4122 H 404.148 1.81099 5.7904 0
M  V30 4123 H 402.887 1.0839 4.75503 0
M  V30 4124 H 401.892 3.35404 4.35642 0
M  V30 4125 H 403.117 4.08339 5.4262 0
M  V30 4126 H 401.063 1.99568 6.24907 0
M  V30 4127 H 400.98 3.69141 6.59751 0
M  V30 4128 H 402.248 2.73226 7.30047 0
M  V30 4129 N 406.477 -1.02803 1.19454 0
M  V30 4130 C 407.707 -1.79581 1.02149 0
M  V30 4131 C 408.115 -1.84182 -0.432851 0
M  V30 4132 O 407.458 -1.28534 -1.31243 0
M  V30 4133 C 407.52 -3.25993 1.51554 0
M  V30 4134 C 407.184 -3.45025 2.99678 0
M  V30 4135 C 408.181 -3.35175 3.97434 0
M  V30 4136 C 405.866 -3.71212 3.38389 0
M  V30 4137 C 407.86 -3.51238 5.31893 0
M  V30 4138 C 405.547 -3.8692 4.73008 0
M  V30 4139 C 406.545 -3.76936 5.69569 0
M  V30 4140 O 406.233 -3.92179 7.01748 0
M  V30 4141 H 405.965 -0.571962 0.360327 0
M  V30 4142 H 408.519 -1.30367 1.58725 0
M  V30 4143 H 406.749 -3.76235 0.893543 0
M  V30 4144 H 408.438 -3.84368 1.30444 0
M  V30 4145 H 409.204 -3.14895 3.68872 0
M  V30 4146 H 405.083 -3.78075 2.6378 0
M  V30 4147 H 408.627 -3.43362 6.07247 0
M  V30 4148 H 404.524 -4.06699 5.01265 0
M  V30 4149 H 405.292 -4.09265 7.08833 0
M  V30 4150 N 407.956 -0.998596 -1.21925 0
M  V30 4151 C 409.367 -0.711939 -1.72593 0
M  V30 4152 C 409.718 0.770842 -1.80423 0
M  V30 4153 O 408.843 1.60237 -1.4544 0
M  V30 4154 C 409.438 -1.28567 -3.13458 0
M  V30 4155 C 407.997 -1.04828 -3.61508 0
M  V30 4156 C 407.144 -1.4024 -2.39224 0
M  V30 4157 H 410.095 -1.17027 -1.07193 0
M  V30 4158 H 410.116 -0.667098 -3.74607 0
M  V30 4159 H 409.628 -2.36486 -3.07727 0
M  V30 4160 H 407.729 0.0140383 -3.72597 0
M  V30 4161 H 407.842 -1.71566 -4.47328 0
M  V30 4162 H 406.206 -0.821077 -2.41103 0
M  V30 4163 H 406.989 -2.49176 -2.36149 0
M  V30 4164 N 409.434 1.37368 -0.772513 0
M  V30 4165 C 410.845 1.8231 -0.402493 0
M  V30 4166 C 411.196 1.6436 1.07146 0
M  V30 4167 O 410.321 1.15514 1.82991 0
M  V30 4168 C 410.916 3.30979 -0.723776 0
M  V30 4169 C 409.475 3.74195 -0.406802 0
M  V30 4170 C 408.622 2.59885 -0.967218 0
M  V30 4171 H 411.573 1.25829 -0.967099 0
M  V30 4172 H 411.594 3.80499 -0.00870832 0
M  V30 4173 H 411.106 3.44011 -1.7966 0
M  V30 4174 H 409.207 3.66732 0.658673 0
M  V30 4175 H 409.32 4.7027 -0.915588 0
M  V30 4176 H 407.684 2.51674 -0.391416 0
M  V30 4177 H 408.467 2.7571 -2.04546 0
M  V30 4178 N 410.912 0.523116 1.48665 0
M  V30 4179 C 411.845 -0.290518 2.26343 0
M  V30 4180 C 412.823 -0.950913 1.31895 0
M  V30 4181 O 414.007 -0.976662 1.61225 0
M  V30 4182 C 411.134 -1.41088 3.07915 0
M  V30 4183 C 410.18 -0.862597 4.17686 0
M  V30 4184 S 411.013 0.264135 5.34848 0
M  V30 4185 C 412.169 -0.858864 6.19979 0
M  V30 4186 H 412.402 0.368726 2.95005 0
M  V30 4187 H 409.935 0.30878 1.51281 0
M  V30 4188 H 411.893 -2.0527 3.55492 0
M  V30 4189 H 410.554 -2.04182 2.38681 0
M  V30 4190 H 409.747 -1.70287 4.74361 0
M  V30 4191 H 409.349 -0.297595 3.72814 0
M  V30 4192 H 411.641 -1.7591 6.54264 0
M  V30 4193 H 412.584 -0.330244 7.07329 0
M  V30 4194 H 412.992 -1.13617 5.52948 0
M  V30 4195 N 412.39 -1.55475 0.257931 0
M  V30 4196 C 413.337 -2.21837 -0.636939 0
M  V30 4197 C 414.307 -1.18596 -1.16294 0
M  V30 4198 O 415.492 -1.47081 -1.21539 0
M  V30 4199 C 412.632 -2.9301 -1.82317 0
M  V30 4200 C 411.745 -4.10931 -1.33265 0
M  V30 4201 C 410.88 -4.69791 -2.47931 0
M  V30 4202 C 409.919 -5.7994 -1.95796 0
M  V30 4203 N 409.056 -6.32935 -3.0387 0
M  V30 4204 H 413.896 -2.9793 -0.0643591 0
M  V30 4205 H 411.433 -1.47086 -0.0200031 0
M  V30 4206 H 413.391 -3.3248 -2.52018 0
M  V30 4207 H 412.021 -2.1937 -2.36805 0
M  V30 4208 H 411.073 -3.76699 -0.52931 0
M  V30 4209 H 412.385 -4.90417 -0.910654 0
M  V30 4210 H 411.539 -5.11892 -3.25656 0
M  V30 4211 H 410.278 -3.89545 -2.93438 0
M  V30 4212 H 409.283 -5.37305 -1.16546 0
M  V30 4213 H 410.508 -6.62043 -1.51246 0
M  V30 4214 H 408.454 -5.55591 -3.48791 0
M  V30 4215 H 408.371 -7.07645 -2.66035 0
M  V30 4216 H 409.639 -6.79695 -3.81621 0
M  V30 4217 N 413.868 0.0150385 -1.57593 0
M  V30 4218 C 415.114 0.704043 -1.90187 0
M  V30 4219 C 415.447 1.74249 -0.857366 0
M  V30 4220 O 414.722 1.94092 0.125843 0
M  V30 4221 C 415.005 1.36087 -3.33395 0
M  V30 4222 C 414.858 0.334981 -4.48551 0
M  V30 4223 C 416.177 2.29112 -3.7576 0
M  V30 4224 H 413.296 0.254475 -0.691673 0
M  V30 4225 H 415.938 -0.0331678 -1.89971 0
M  V30 4226 H 414.088 1.98922 -3.3371 0
M  V30 4227 H 415.76 -0.292534 -4.60372 0
M  V30 4228 H 414.003 -0.344325 -4.32431 0
M  V30 4229 H 414.674 0.833316 -5.45674 0
M  V30 4230 H 417.15 1.76308 -3.76902 0
M  V30 4231 H 416.026 2.72043 -4.76743 0
M  V30 4232 H 416.287 3.16385 -3.08793 0
M  V30 4233 N 415.346 1.54954 0.287554 0
M  V30 4234 C 416.276 1.89839 1.35954 0
M  V30 4235 C 417.257 0.758675 1.52244 0
M  V30 4236 O 418.442 1.01557 1.65529 0
M  V30 4237 C 415.572 2.15753 2.72154 0
M  V30 4238 C 414.526 3.3159 2.70614 0
M  V30 4239 C 413.852 3.42952 4.10229 0
M  V30 4240 C 415.152 4.68359 2.31165 0
M  V30 4241 H 416.846 2.79625 1.07007 0
M  V30 4242 H 414.392 1.3454 0.513316 0
M  V30 4243 H 416.345 2.38743 3.47246 0
M  V30 4244 H 415.069 1.22752 3.02654 0
M  V30 4245 H 413.728 3.08545 1.97979 0
M  V30 4246 H 413.376 2.47443 4.37928 0
M  V30 4247 H 413.076 4.20826 4.10097 0
M  V30 4248 H 414.6 3.68218 4.87081 0
M  V30 4249 H 416.014 4.9099 2.95976 0
M  V30 4250 H 414.411 5.49044 2.42221 0
M  V30 4251 H 415.481 4.68165 1.26291 0
M  V30 4252 N 416.824 -0.551391 1.4764 0
M  V30 4253 C 417.757 -1.6738 1.5511 0
M  V30 4254 C 418.735 -1.5753 0.402856 0
M  V30 4255 O 419.919 -1.78307 0.611475 0
M  V30 4256 C 417.046 -3.05661 1.45908 0
M  V30 4257 C 416.092 -3.33938 2.65307 0
M  V30 4258 S 416.925 -3.22553 4.27457 0
M  V30 4259 C 418.081 -4.63317 4.20818 0
M  V30 4260 H 418.314 -1.6079 2.50068 0
M  V30 4261 H 415.847 -0.732674 1.35909 0
M  V30 4262 H 417.805 -3.8542 1.41286 0
M  V30 4263 H 416.466 -3.09711 0.523248 0
M  V30 4264 H 415.659 -4.34761 2.54948 0
M  V30 4265 H 415.261 -2.61809 2.67081 0
M  V30 4266 H 417.553 -5.54391 3.89431 0
M  V30 4267 H 418.496 -4.78732 5.21748 0
M  V30 4268 H 418.904 -4.41636 3.51593 0
M  V30 4269 N 418.302 -1.35869 -0.798587 0
M  V30 4270 C 419.232 -1.32118 -1.92528 0
M  V30 4271 C 420.213 -0.194209 -1.68988 0
M  V30 4272 O 421.398 -0.390426 -1.90235 0
M  V30 4273 C 418.528 -1.10047 -3.29404 0
M  V30 4274 C 417.482 -2.19471 -3.67446 0
M  V30 4275 C 416.808 -1.82555 -5.02571 0
M  V30 4276 C 418.108 -3.61495 -3.76987 0
M  V30 4277 H 419.802 -2.26394 -1.95924 0
M  V30 4278 H 417.348 -1.08981 -0.94123 0
M  V30 4279 H 419.301 -1.06061 -4.07835 0
M  V30 4280 H 418.025 -0.122195 -3.26371 0
M  V30 4281 H 416.684 -2.22568 -2.91306 0
M  V30 4282 H 416.332 -0.833249 -4.9605 0
M  V30 4283 H 416.032 -2.5581 -5.28995 0
M  V30 4284 H 417.556 -1.80108 -5.83432 0
M  V30 4285 H 418.97 -3.60676 -4.4563 0
M  V30 4286 H 417.367 -4.33577 -4.14887 0
M  V30 4287 H 418.437 -3.97065 -2.78329 0
M  V30 4288 N 419.78 1.02168 -1.19998 0
M  V30 4289 C 421.008 1.79296 -1.03249 0
M  V30 4290 C 421.423 1.84103 0.418502 0
M  V30 4291 O 420.78 1.29031 1.29063 0
M  V30 4292 C 420.831 3.24007 -1.60319 0
M  V30 4293 O 420.552 3.19512 -2.99739 0
M  V30 4294 C 422.053 4.17704 -1.48453 0
M  V30 4295 H 419.273 0.564016 -0.363493 0
M  V30 4296 H 421.817 1.28639 -1.58973 0
M  V30 4297 H 419.972 3.7183 -1.08727 0
M  V30 4298 H 420.386 4.10306 -3.26725 0
M  V30 4299 H 421.86 5.17104 -1.93153 0
M  V30 4300 H 422.337 4.37029 -0.436193 0
M  V30 4301 H 422.943 3.7576 -1.99211 0
M  V30 4302 N 421.258 1.00505 1.21394 0
M  V30 4303 C 422.188 0.585684 2.26035 0
M  V30 4304 C 423.169 -0.393525 1.65485 0
M  V30 4305 O 424.354 -0.281497 1.92149 0
M  V30 4306 C 421.484 -0.0884283 3.47187 0
M  V30 4307 C 420.438 0.810567 4.20254 0
M  V30 4308 C 419.764 0.00286382 5.347 0
M  V30 4309 C 421.064 2.1132 4.77641 0
M  V30 4310 H 422.758 1.46039 2.61368 0
M  V30 4311 H 420.304 0.703648 1.25638 0
M  V30 4312 H 422.257 -0.393286 4.19561 0
M  V30 4313 H 420.981 -0.997766 3.10986 0
M  V30 4314 H 419.64 1.09925 3.49731 0
M  V30 4315 H 419.288 -0.907765 4.94741 0
M  V30 4316 H 418.988 0.601444 5.84514 0
M  V30 4317 H 420.512 -0.295808 6.09883 0
M  V30 4318 H 421.926 1.87148 5.41893 0
M  V30 4319 H 420.323 2.66164 5.37845 0
M  V30 4320 H 421.393 2.78393 3.9702 0
M  V30 4321 N 422.737 -1.36956 0.779787 0
M  V30 4322 C 423.669 -2.28833 0.129639 0
M  V30 4323 C 424.682 -1.4902 -0.655511 0
M  V30 4324 O 425.871 -1.71578 -0.492279 0
M  V30 4325 C 422.971 -3.2833 -0.839792 0
M  V30 4326 C 422.144 -4.3727 -0.10675 0
M  V30 4327 C 421.203 -5.16789 -0.990717 0
M  V30 4328 O 420.229 -5.67406 -0.451516 0
M  V30 4329 N 421.431 -5.32294 -2.3161 0
M  V30 4330 H 424.196 -2.85268 0.918803 0
M  V30 4331 H 421.757 -1.49019 0.632841 0
M  V30 4332 H 423.749 -3.78413 -1.43477 0
M  V30 4333 H 422.319 -2.72605 -1.52988 0
M  V30 4334 H 421.539 -3.88478 0.669216 0
M  V30 4335 H 422.827 -5.07229 0.399464 0
M  V30 4336 H 422.225 -4.92768 -2.77843 0
M  V30 4337 H 420.782 -5.85656 -2.86095 0
M  V30 4338 N 424.215 -0.530993 -1.48385 0
M  V30 4339 C 425.163 0.244595 -2.3131 0
M  V30 4340 C 426.157 0.93451 -1.41291 0
M  V30 4341 O 427.363 0.85878 -1.58193 0
M  V30 4342 H 423.738 0.0977472 -0.74562 0
M  V30 4343 H 425.709 -0.474369 -2.94605 0
M  V30 4344 C 424.458 1.2779 -3.23365 0
M  V30 4345 H 423.781 0.756439 -3.92579 0
M  V30 4346 H 425.221 1.79198 -3.84271 0
M  V30 4347 C 423.68 2.31205 -2.45042 0
M  V30 4348 O 424.21 3.37661 -2.17596 0
M  V30 4349 N 422.416 2.04446 -2.0652 0
M  V30 4350 H 421.963 1.17891 -2.2904 0
M  V30 4351 H 421.921 2.73861 -1.54427 0
M  V30 4352 N 425.693 1.55336 -0.266172 0
M  V30 4353 C 426.97 1.91372 0.404486 0
M  V30 4354 C 427.35 1.18935 1.74407 0
M  V30 4355 O 426.698 0.3132 2.26343 0
M  V30 4356 C 426.908 3.44581 0.553593 0
M  V30 4357 C 428.256 4.16196 0.840618 0
M  V30 4358 O 429.28 3.50426 0.638739 0
M  V30 4359 O 428.139 5.32567 1.22618 0
M  V30 4360 H 425.233 0.797194 0.220025 0
M  V30 4361 H 427.779 1.66813 -0.311664 0
M  V30 4362 H 426.551 3.89357 -0.389498 0
M  V30 4363 H 426.174 3.75065 1.31955 0
M  V30 4364 N 427.171 -0.0066808 1.57599 0
M  V30 4365 C 428.582 -0.550379 1.78403 0
M  V30 4366 C 428.933 -1.74339 0.900014 0
M  V30 4367 O 428.058 -2.16166 0.100713 0
M  V30 4368 C 428.653 -1.00523 3.23544 0
M  V30 4369 C 427.212 -1.49428 3.45468 0
M  V30 4370 C 426.359 -0.442444 2.73748 0
M  V30 4371 H 429.31 0.219508 1.57175 0
M  V30 4372 H 429.331 -1.87157 3.31289 0
M  V30 4373 H 428.843 -0.136735 3.87859 0
M  V30 4374 H 426.944 -2.3839 2.86358 0
M  V30 4375 H 427.057 -1.52635 4.54136 0
M  V30 4376 H 425.421 -0.902578 2.38171 0
M  V30 4377 H 426.204 0.416973 3.40758 0
M  V30 4378 N 428.649 -1.55105 -0.279332 0
M  V30 4379 C 430.06 -1.66186 -0.850832 0
M  V30 4380 C 430.411 -0.584707 -1.87285 0
M  V30 4381 O 429.536 0.274919 -2.14647 0
M  V30 4382 C 430.131 -3.01264 -1.55001 0
M  V30 4383 C 428.69 -3.14394 -2.06963 0
M  V30 4384 C 427.837 -2.61959 -0.909536 0
M  V30 4385 H 430.788 -1.58602 -0.0558235 0
M  V30 4386 H 430.809 -2.93899 -2.41669 0
M  V30 4387 H 430.321 -3.7964 -0.805931 0
M  V30 4388 H 428.422 -2.4078 -2.84352 0
M  V30 4389 H 428.535 -4.20867 -2.28928 0
M  V30 4390 H 426.899 -2.18957 -1.30116 0
M  V30 4391 H 427.682 -3.42833 -0.179062 0
M  V30 4392 N 430.127 0.543554 -1.4793 0
M  V30 4393 C 431.355 1.32516 -1.58894 0
M  V30 4394 C 431.77 1.87215 -0.244131 0
M  V30 4395 O 431.127 1.65709 0.764652 0
M  V30 4396 C 431.178 2.48554 -2.62494 0
M  V30 4397 O 430.899 1.96112 -3.91755 0
M  V30 4398 C 432.4 3.40572 -2.8377 0
M  V30 4399 H 429.62 0.403472 -0.536145 0
M  V30 4400 H 432.164 0.657106 -1.93655 0
M  V30 4401 H 430.319 3.1127 -2.30629 0
M  V30 4402 H 430.733 2.71967 -4.4848 0
M  V30 4403 H 432.207 4.18375 -3.60093 0
M  V30 4404 H 432.684 3.94965 -1.92092 0
M  V30 4405 H 433.29 2.8366 -3.16887 0
M  V30 4406 N 431.605 1.3629 0.791371 0
M  V30 4407 C 432.535 1.33137 1.91825 0
M  V30 4408 C 433.516 0.203168 1.68882 0
M  V30 4409 O 434.701 0.400509 1.90025 0
M  V30 4410 C 431.831 1.11793 3.28816 0
M  V30 4411 C 430.785 2.21417 3.66277 0
M  V30 4412 C 430.111 1.85218 5.01596 0
M  V30 4413 C 431.411 3.63489 3.75064 0
M  V30 4414 H 433.105 2.2743 1.9472 0
M  V30 4415 H 430.651 1.09479 0.935437 0
M  V30 4416 H 432.604 1.08222 4.07266 0
M  V30 4417 H 431.328 0.139501 3.26302 0
M  V30 4418 H 429.987 2.2411 2.90121 0
M  V30 4419 H 429.635 0.859544 4.95602 0
M  V30 4420 H 429.335 2.58611 5.27631 0
M  V30 4421 H 430.859 1.832 5.82469 0
M  V30 4422 H 432.273 3.63034 4.43711 0
M  V30 4423 H 430.67 4.35771 4.12582 0
M  V30 4424 H 431.74 3.98536 2.76219 0
M  V30 4425 N 433.083 -1.0153 1.20538 0
M  V30 4426 C 433.993 -2.13557 0.971113 0
M  V30 4427 C 435.009 -1.73845 -0.0734366 0
M  V30 4428 O 436.185 -2.01075 0.114299 0
M  V30 4429 C 433.25 -3.42661 0.527639 0
M  V30 4430 C 432.311 -3.96608 1.64319 0
M  V30 4431 C 431.544 -5.1955 1.22078 0
M  V30 4432 O 431.767 -5.70329 0.0900198 0
M  V30 4433 O 430.701 -5.66681 2.02871 0
M  V30 4434 H 434.527 -2.3619 1.90913 0
M  V30 4435 H 432.112 -1.11946 0.989362 0
M  V30 4436 H 433.994 -4.20404 0.289621 0
M  V30 4437 H 432.669 -3.21441 -0.381779 0
M  V30 4438 H 431.576 -3.20139 1.93551 0
M  V30 4439 H 432.909 -4.22219 2.52966 0
M  V30 4440 N 434.561 -1.01147 -1.20859 0
M  V30 4441 C 435.789 -0.716911 -1.94082 0
M  V30 4442 C 436.204 0.721568 -1.74467 0
M  V30 4443 O 435.561 1.48889 -1.05539 0
M  V30 4444 C 435.612 -1.03662 -3.46318 0
M  V30 4445 O 435.333 -2.4186 -3.65288 0
M  V30 4446 C 436.834 -0.762386 -4.36695 0
M  V30 4447 H 434.054 -0.26367 -0.617024 0
M  V30 4448 H 436.598 -1.35127 -1.53496 0
M  V30 4449 H 434.753 -0.447757 -3.84804 0
M  V30 4450 H 435.167 -2.53224 -4.59323 0
M  V30 4451 H 436.641 -1.03621 -5.42187 0
M  V30 4452 H 437.118 0.303514 -4.3815 0
M  V30 4453 H 437.724 -1.33316 -4.03865 0
M  V30 4454 N 436.039 1.36541 -0.78704 0
M  V30 4455 C 437.287 1.98911 -0.357633 0
M  V30 4456 C 437.608 1.62778 1.07371 0
M  V30 4457 O 436.878 0.900612 1.73971 0
M  V30 4458 H 435.458 0.735734 -0.129246 0
M  V30 4459 H 438.12 1.66776 -1.00855 0
M  V30 4460 H 437.216 3.08874 -0.447549 0
M  V30 4461 N 437.518 0.538854 1.48102 0
M  V30 4462 C 438.764 0.00801365 2.02798 0
M  V30 4463 C 439.097 -1.3309 1.41424 0
M  V30 4464 O 438.372 -1.86169 0.563158 0
M  V30 4465 C 438.655 -0.104589 3.59948 0
M  V30 4466 C 438.508 1.26012 4.31788 0
M  V30 4467 C 439.827 -0.827055 4.32259 0
M  V30 4468 H 436.946 0.00438624 0.736987 0
M  V30 4469 H 439.588 0.6976 1.7673 0
M  V30 4470 H 437.738 -0.691893 3.82289 0
M  V30 4471 H 439.41 1.88922 4.2084 0
M  V30 4472 H 437.653 1.83968 3.92859 0
M  V30 4473 H 438.324 1.13424 5.40221 0
M  V30 4474 H 440.8 -0.328578 4.14801 0
M  V30 4475 H 439.676 -0.87476 5.41885 0
M  V30 4476 H 439.937 -1.87927 4.0017 0
M  V30 4477 N 438.996 -1.55193 0.274407 0
M  V30 4478 C 439.906 -2.26164 -0.623473 0
M  V30 4479 C 440.922 -1.28729 -1.17068 0
M  V30 4480 O 442.098 -1.61663 -1.20112 0
M  V30 4481 C 439.163 -2.96833 -1.7914 0
M  V30 4482 C 438.224 -4.09745 -1.28093 0
M  V30 4483 C 437.457 -4.77034 -2.3932 0
M  V30 4484 O 437.68 -4.4353 -3.5866 0
M  V30 4485 O 436.614 -5.64996 -2.07516 0
M  V30 4486 H 440.44 -3.03661 -0.0485661 0
M  V30 4487 H 438.025 -1.49341 0.0418382 0
M  V30 4488 H 439.907 -3.41248 -2.4724 0
M  V30 4489 H 438.582 -2.22253 -2.35341 0
M  V30 4490 H 437.489 -3.69787 -0.566416 0
M  V30 4491 H 438.822 -4.86224 -0.764683 0
M  V30 4492 N 440.474 -0.00167713 -1.576 0
M  V30 4493 C 441.751 0.719951 -1.81868 0
M  V30 4494 C 442.131 1.91895 -0.879747 0
M  V30 4495 O 441.479 2.28389 0.0711423 0
M  V30 4496 C 441.689 1.12409 -3.30402 0
M  V30 4497 C 443.037 1.52724 -3.96182 0
M  V30 4498 O 444.061 1.21784 -3.34734 0
M  V30 4499 O 442.92 2.10265 -5.04431 0
M  V30 4500 H 440.014 0.350707 -0.748955 0
M  V30 4501 H 442.56 -0.0272597 -1.69678 0
M  V30 4502 H 441.332 0.269532 -3.90371 0
M  V30 4503 H 440.955 1.93035 -3.47596 0
M  V30 4504 N 441.952 1.55251 0.271103 0
M  V30 4505 C 442.899 1.88261 1.33516 0
M  V30 4506 C 443.869 0.734296 1.48988 0
M  V30 4507 O 445.054 0.985741 1.63364 0
M  V30 4508 C 442.194 2.16168 2.69008 0
M  V30 4509 C 441.307 3.43678 2.61743 0
M  V30 4510 C 440.442 3.61276 3.89427 0
M  V30 4511 C 439.481 4.82472 3.7668 0
M  V30 4512 N 438.618 4.96717 4.96202 0
M  V30 4513 H 443.458 2.79015 1.04665 0
M  V30 4514 H 440.995 1.38137 0.505618 0
M  V30 4515 H 442.953 2.30349 3.47844 0
M  V30 4516 H 441.583 1.28646 2.96057 0
M  V30 4517 H 440.635 3.37959 1.74607 0
M  V30 4518 H 441.947 4.3265 2.48224 0
M  V30 4519 H 441.101 3.75284 4.76704 0
M  V30 4520 H 439.84 2.70492 4.05814 0
M  V30 4521 H 438.845 4.68465 2.87786 0
M  V30 4522 H 440.07 5.74692 3.61809 0
M  V30 4523 H 438.016 4.08865 5.12997 0
M  V30 4524 H 437.933 5.79738 4.85222 0
M  V30 4525 H 439.201 5.15113 5.85046 0
M  V30 4526 N 443.43 -0.535701 1.48216 0
M  V30 4527 C 444.34 -1.66785 1.64985 0
M  V30 4528 C 445.356 -1.65654 0.532414 0
M  V30 4529 O 446.532 -1.8471 0.80275 0
M  V30 4530 C 443.597 -3.0326 1.68031 0
M  V30 4531 C 442.658 -3.1529 2.9136 0
M  V30 4532 C 441.891 -4.45255 2.94252 0
M  V30 4533 O 442.114 -5.32011 2.05719 0
M  V30 4534 O 441.048 -4.6153 3.86359 0
M  V30 4535 H 444.874 -1.55576 2.60825 0
M  V30 4536 H 442.459 -0.70815 1.31551 0
M  V30 4537 H 444.341 -3.84436 1.72589 0
M  V30 4538 H 443.016 -3.14805 0.753628 0
M  V30 4539 H 441.923 -2.3343 2.92337 0
M  V30 4540 H 443.256 -3.08658 3.83394 0
M  V30 4541 N 444.908 -1.36708 -0.784132 0
M  V30 4542 C 445.841 -1.25827 -1.90375 0
M  V30 4543 C 446.819 -0.141331 -1.61985 0
M  V30 4544 O 448.003 -0.313389 -1.85877 0
M  V30 4545 C 445.13 -0.942621 -3.25319 0
M  V30 4546 C 444.176 -2.07474 -3.72635 0
M  V30 4547 S 445.009 -3.69317 -3.8777 0
M  V30 4548 C 446.165 -3.39876 -5.25581 0
M  V30 4549 H 446.398 -2.20593 -1.99314 0
M  V30 4550 H 443.931 -1.22186 -0.943926 0
M  V30 4551 H 445.889 -0.767321 -4.03265 0
M  V30 4552 H 444.55 -0.0126566 -3.14097 0
M  V30 4553 H 443.743 -1.80858 -4.70432 0
M  V30 4554 H 443.345 -2.20953 -3.01754 0
M  V30 4555 H 445.637 -2.94097 -6.10339 0
M  V30 4556 H 446.58 -4.36956 -5.57203 0
M  V30 4557 H 446.988 -2.75098 -4.92931 0
M  V30 4558 N 446.386 1.0089 -1.21074 0
M  V30 4559 C 447.319 2.09279 -0.909806 0
M  V30 4560 C 448.297 1.61986 0.141145 0
M  V30 4561 O 449.481 1.88495 0.0130332 0
M  V30 4562 C 446.608 3.36723 -0.365374 0
M  V30 4563 C 445.654 4.02919 -1.39852 0
M  V30 4564 S 446.487 4.45835 -2.96633 0
M  V30 4565 C 447.643 5.76471 -2.43786 0
M  V30 4566 H 447.876 2.34484 -1.82769 0
M  V30 4567 H 445.409 1.14115 -1.04006 0
M  V30 4568 H 447.367 4.10459 -0.0578203 0
M  V30 4569 H 446.028 3.09577 0.531136 0
M  V30 4570 H 445.221 4.94634 -0.967117 0
M  V30 4571 H 444.823 3.35441 -1.65395 0
M  V30 4572 H 447.115 6.52027 -1.84029 0
M  V30 4573 H 448.058 6.24418 -3.33928 0
M  V30 4574 H 448.466 5.33104 -1.85636 0
M  V30 4575 N 447.864 1.01787 1.20321 0
M  V30 4576 C 448.811 0.589197 2.23153 0
M  V30 4577 C 449.781 -0.391367 1.61423 0
M  V30 4578 O 450.966 -0.290518 1.88575 0
M  V30 4579 C 448.106 -0.0650747 3.45039 0
M  V30 4580 C 447.219 0.960207 4.21194 0
M  V30 4581 C 446.354 0.276854 5.30478 0
M  V30 4582 C 445.393 1.2888 5.98378 0
M  V30 4583 N 444.53 0.632031 6.99249 0
M  V30 4584 H 449.37 1.47071 2.59179 0
M  V30 4585 H 446.907 0.736192 1.27352 0
M  V30 4586 H 448.865 -0.461552 4.14639 0
M  V30 4587 H 447.495 -0.910233 3.09701 0
M  V30 4588 H 446.547 1.47484 3.50646 0
M  V30 4589 H 447.859 1.72977 4.67847 0
M  V30 4590 H 447.013 -0.175056 6.06447 0
M  V30 4591 H 445.752 -0.525004 4.84866 0
M  V30 4592 H 444.757 1.75109 5.21169 0
M  V30 4593 H 445.982 2.09196 6.46076 0
M  V30 4594 H 443.928 -0.149935 6.55829 0
M  V30 4595 H 443.845 1.33964 7.44036 0
M  V30 4596 H 445.113 0.203755 7.79234 0
M  V30 4597 N 449.342 -1.36122 0.79427 0
M  V30 4598 C 450.289 -2.29982 0.194101 0
M  V30 4599 C 451.259 -1.52214 -0.664833 0
M  V30 4600 O 452.444 -1.80702 -0.612498 0
M  V30 4601 C 449.584 -3.38706 -0.661244 0
M  V30 4602 C 448.697 -4.31456 0.216766 0
M  V30 4603 C 447.832 -5.27265 -0.645411 0
M  V30 4604 C 446.871 -6.11653 0.233756 0
M  V30 4605 N 446.008 -6.99636 -0.587682 0
M  V30 4606 H 450.848 -2.80722 0.999965 0
M  V30 4607 H 448.385 -1.38172 0.504677 0
M  V30 4608 H 450.343 -4.00394 -1.17219 0
M  V30 4609 H 448.973 -2.89274 -1.43249 0
M  V30 4610 H 448.025 -3.7088 0.845724 0
M  V30 4611 H 449.337 -4.90724 0.893973 0
M  V30 4612 H 448.491 -5.94266 -1.22198 0
M  V30 4613 H 447.23 -4.68463 -1.35623 0
M  V30 4614 H 446.235 -5.4361 0.82269 0
M  V30 4615 H 447.46 -6.72531 0.942247 0
M  V30 4616 H 445.406 -6.43337 -1.2827 0
M  V30 4617 H 445.323 -7.55993 0.0317402 0
M  V30 4618 H 446.591 -7.71001 -1.14792 0
M  V30 4619 N 450.82 -0.546701 -1.47814 0
M  V30 4620 C 452.05 -0.0232519 -2.06587 0
M  V30 4621 C 452.458 1.2712 -1.40133 0
M  V30 4622 O 451.801 1.77091 -0.488305 0
M  V30 4623 C 451.863 0.254117 -3.58601 0
M  V30 4624 C 451.527 -0.949331 -4.47031 0
M  V30 4625 C 452.524 -1.85216 -4.85789 0
M  V30 4626 C 450.209 -1.16104 -4.88697 0
M  V30 4627 C 452.203 -2.95047 -5.65001 0
M  V30 4628 C 449.89 -2.26247 -5.67676 0
M  V30 4629 C 450.888 -3.1555 -6.05737 0
M  V30 4630 O 450.576 -4.23784 -6.83127 0
M  V30 4631 H 450.308 -0.0380082 -0.674931 0
M  V30 4632 H 452.862 -0.756631 -1.90956 0
M  V30 4633 H 451.092 1.04168 -3.72406 0
M  V30 4634 H 452.781 0.72167 -3.99433 0
M  V30 4635 H 453.547 -1.70061 -4.54207 0
M  V30 4636 H 449.426 -0.475159 -4.58545 0
M  V30 4637 H 452.97 -3.64778 -5.94628 0
M  V30 4638 H 448.867 -2.41379 -5.98671 0
M  V30 4639 H 449.635 -4.21701 -7.01506 0
M  V30 4640 N 452.299 1.55045 -0.282633 0
M  V30 4641 C 453.547 1.99365 0.331334 0
M  V30 4642 C 453.868 1.1725 1.55812 0
M  V30 4643 O 453.138 0.263871 1.94115 0
M  V30 4644 H 451.718 0.736397 0.125414 0
M  V30 4645 H 454.38 1.90964 -0.389711 0
M  V30 4646 H 453.476 3.0596 0.616036 0
M  V30 4647 N 453.777 0.010035 1.57597 0
M  V30 4648 C 454.724 -0.978122 2.09049 0
M  V30 4649 C 455.694 -1.33509 0.988159 0
M  V30 4650 O 456.879 -1.43172 1.26121 0
M  V30 4651 C 454.019 -2.26158 2.60666 0
M  V30 4652 C 453.132 -1.96275 3.84838 0
M  V30 4653 C 452.267 -3.18776 4.24918 0
M  V30 4654 C 451.306 -2.84625 5.41899 0
M  V30 4655 N 450.443 -3.99693 5.77226 0
M  V30 4656 H 455.283 -0.532431 2.93205 0
M  V30 4657 H 452.82 -0.251234 1.44939 0
M  V30 4658 H 454.778 -3.01202 2.88675 0
M  V30 4659 H 453.408 -2.68378 1.79369 0
M  V30 4660 H 452.46 -1.11555 3.63675 0
M  V30 4661 H 453.772 -1.67111 4.69974 0
M  V30 4662 H 452.926 -4.02157 4.54262 0
M  V30 4663 H 451.665 -3.51087 3.38511 0
M  V30 4664 H 450.67 -1.99653 5.12268 0
M  V30 4665 H 451.895 -2.53551 6.29991 0
M  V30 4666 H 449.841 -4.31882 4.93776 0
M  V30 4667 H 449.758 -3.74087 6.56959 0
M  V30 4668 H 451.026 -4.83834 6.11167 0
M  V30 4669 N 455.255 -1.55392 -0.262866 0
M  V30 4670 C 456.48 -1.80847 -1.01533 0
M  V30 4671 C 456.905 -0.584946 -1.78774 0
M  V30 4672 O 456.263 0.465701 -1.75217 0
M  V30 4673 C 456.311 -3.03866 -1.94159 0
M  V30 4674 O 455.415 -2.79662 -3.03089 0
M  V30 4675 H 454.756 -0.597441 -0.289759 0
M  V30 4676 H 457.286 -2.02553 -0.288698 0
M  V30 4677 H 457.296 -3.32872 -2.35924 0
M  V30 4678 H 455.971 -3.92564 -1.37354 0
M  V30 4679 H 454.548 -2.61781 -2.65566 0
M  V30 4680 N 456.733 0.527833 -1.48498 0
M  V30 4681 C 457.98 1.28354 -1.56625 0
M  V30 4682 C 458.308 1.93 -0.241096 0
M  V30 4683 O 457.563 1.79967 0.768798 0
M  V30 4684 C 457.862 2.39275 -2.65485 0
M  V30 4685 C 457.528 1.92268 -4.07853 0
M  V30 4686 C 456.19 1.79166 -4.46602 0
M  V30 4687 C 458.542 1.56771 -4.97064 0
M  V30 4688 C 455.87 1.28905 -5.72364 0
M  V30 4689 C 458.222 1.07972 -6.23318 0
M  V30 4690 C 456.886 0.934887 -6.60921 0
M  V30 4691 H 456.156 0.469682 -0.573131 0
M  V30 4692 H 458.803 0.588781 -1.82224 0
M  V30 4693 H 457.108 3.1443 -2.33754 0
M  V30 4694 H 458.805 2.974 -2.68988 0
M  V30 4695 H 455.395 2.03417 -3.77252 0
M  V30 4696 H 459.579 1.65753 -4.67803 0
M  V30 4697 H 454.835 1.16381 -6.00221 0
M  V30 4698 H 459.009 0.795775 -6.91838 0
M  V30 4699 H 456.636 0.543231 -7.58257 0
M  V30 4700 N 458.211 1.37122 0.776871 0
M  V30 4701 C 459.627 1.1781 1.07671 0
M  V30 4702 C 459.827 0.0107454 2.01497 0
M  V30 4703 O 458.883 -0.650756 2.4397 0
M  V30 4704 C 460.196 2.49451 1.67913 0
M  V30 4705 C 461.744 2.55927 1.80195 0
M  V30 4706 C 462.219 3.87686 2.43851 0
M  V30 4707 N 463.71 3.891 2.51307 0
M  V30 4708 C 464.445 4.87797 3.014 0
M  V30 4709 N 463.941 5.96888 3.51705 0
M  V30 4710 N 465.734 4.75205 3.00227 0
M  V30 4711 H 457.885 2.11843 0.153778 0
M  V30 4712 H 460.148 0.938927 0.130844 0
M  V30 4713 H 459.854 3.35207 1.06439 0
M  V30 4714 H 459.728 2.66169 2.67271 0
M  V30 4715 H 462.115 1.70582 2.40803 0
M  V30 4716 H 462.196 2.43097 0.796069 0
M  V30 4717 H 461.84 4.73444 1.83884 0
M  V30 4718 H 461.77 3.97817 3.45035 0
M  V30 4719 H 464.261 3.10293 2.157 0
M  V30 4720 H 464.574 6.68155 3.88316 0
M  V30 4721 H 462.919 6.0054 3.49824 0
M  V30 4722 H 466.11 3.89103 2.60224 0
M  V30 4723 H 466.283 5.52279 3.38957 0
M  V30 4724 N 459.689 -1.00246 1.21608 0
M  V30 4725 C 460.636 -2.09073 0.977613 0
M  V30 4726 C 461.606 -1.65815 -0.097297 0
M  V30 4727 O 462.791 -1.90734 0.0503445 0
M  V30 4728 C 459.931 -3.40671 0.551133 0
M  V30 4729 C 459.044 -3.97326 1.69576 0
M  V30 4730 C 458.179 -5.17043 1.2182 0
M  V30 4731 C 457.218 -5.65813 2.335 0
M  V30 4732 N 456.355 -6.76778 1.86859 0
M  V30 4733 H 461.195 -2.28806 1.90924 0
M  V30 4734 H 458.732 -1.12186 0.951452 0
M  V30 4735 H 460.69 -4.16225 0.285097 0
M  V30 4736 H 459.32 -3.20967 -0.343489 0
M  V30 4737 H 458.372 -3.18734 2.07637 0
M  V30 4738 H 459.684 -4.29511 2.53617 0
M  V30 4739 H 458.838 -5.99852 0.908975 0
M  V30 4740 H 457.577 -4.86458 0.347869 0
M  V30 4741 H 456.582 -4.81599 2.65222 0
M  V30 4742 H 457.807 -5.98427 3.21033 0
M  V30 4743 H 455.753 -6.47994 1.02174 0
M  V30 4744 H 455.67 -7.08231 2.64471 0
M  V30 4745 H 456.938 -7.63116 1.58978 0
M  V30 4746 N 461.167 -1.02423 -1.1978 0
M  V30 4747 C 462.097 -0.62157 -2.25075 0
M  V30 4748 C 463.078 0.367148 -1.6609 0
M  V30 4749 O 464.263 0.250892 -1.92573 0
M  V30 4750 C 461.393 0.0331826 -3.47284 0
M  V30 4751 C 460.347 -0.877323 -4.18912 0
M  V30 4752 C 459.673 -0.0879296 -5.34628 0
M  V30 4753 C 460.973 -2.18892 -4.74219 0
M  V30 4754 H 462.667 -1.50179 -2.59011 0
M  V30 4755 H 460.213 -0.723547 -1.24502 0
M  V30 4756 H 462.166 0.326488 -4.20133 0
M  V30 4757 H 460.89 0.948164 -3.12534 0
M  V30 4758 H 459.549 -1.15475 -3.47938 0
M  V30 4759 H 459.197 0.828941 -4.96123 0
M  V30 4760 H 458.897 -0.694359 -5.83483 0
M  V30 4761 H 460.421 0.198743 -6.10276 0
M  V30 4762 H 461.835 -1.95746 -5.38847 0
M  V30 4763 H 460.232 -2.74686 -5.33542 0
M  V30 4764 H 461.302 -2.84674 -3.92541 0
M  V30 4765 N 462.645 1.35699 -0.801477 0
M  V30 4766 C 463.575 2.32436 -0.222658 0
M  V30 4767 C 464.556 1.5723 0.649057 0
M  V30 4768 O 465.741 1.85324 0.580387 0
M  V30 4769 C 462.871 3.41469 0.633719 0
M  V30 4770 C 461.825 4.27774 -0.139083 0
M  V30 4771 C 461.151 5.28082 0.838666 0
M  V30 4772 C 462.451 5.04946 -1.33517 0
M  V30 4773 H 464.145 2.81094 -1.03086 0
M  V30 4774 H 461.691 1.35146 -0.497155 0
M  V30 4775 H 463.644 4.08143 1.04868 0
M  V30 4776 H 462.368 2.91408 1.47475 0
M  V30 4777 H 461.027 3.62673 -0.535156 0
M  V30 4778 H 460.675 4.7429 1.67506 0
M  V30 4779 H 460.375 5.86695 0.32594 0
M  V30 4780 H 461.899 5.97628 1.25194 0
M  V30 4781 H 463.313 5.64593 -0.995349 0
M  V30 4782 H 461.71 5.7303 -1.78202 0
M  V30 4783 H 462.78 4.35886 -2.12442 0
M  V30 4784 N 464.123 0.554532 1.47522 0
M  V30 4785 C 465.348 0.0322661 2.07375 0
M  V30 4786 C 465.773 -1.25079 1.40488 0
M  V30 4787 O 465.131 -1.74859 0.47896 0
M  V30 4788 C 465.179 -0.149397 3.6029 0
M  V30 4789 O 464.283 -1.21259 3.9417 0
M  V30 4790 H 463.624 0.0501228 0.662106 0
M  V30 4791 H 466.154 0.769452 1.8958 0
M  V30 4792 H 466.164 -0.364437 4.06369 0
M  V30 4793 H 464.839 0.787743 4.08372 0
M  V30 4794 H 463.416 -0.97825 3.5984 0
M  V30 4795 N 465.601 -1.54893 0.290851 0
M  V30 4796 C 466.531 -2.26103 -0.583084 0
M  V30 4797 C 467.512 -1.25684 -1.14619 0
M  V30 4798 O 468.697 -1.54436 -1.17741 0
M  V30 4799 C 465.827 -2.99409 -1.75987 0
M  V30 4800 C 464.781 -4.0689 -1.32758 0
M  V30 4801 C 464.107 -4.67856 -2.58872 0
M  V30 4802 C 465.407 -5.20215 -0.46624 0
M  V30 4803 H 467.101 -2.99398 0.0108214 0
M  V30 4804 H 464.647 -1.43998 0.00664468 0
M  V30 4805 H 466.6 -3.47943 -2.37727 0
M  V30 4806 H 465.324 -2.23675 -2.37985 0
M  V30 4807 H 463.983 -3.59191 -0.733299 0
M  V30 4808 H 463.631 -3.88772 -3.19163 0
M  V30 4809 H 463.331 -5.40438 -2.30653 0
M  V30 4810 H 464.855 -5.19147 -3.21433 0
M  V30 4811 H 466.269 -5.64704 -0.989047 0
M  V30 4812 H 464.666 -5.99455 -0.27826 0
M  V30 4813 H 465.736 -4.82198 0.511173 0
M  V30 4814 N 467.08 -0.0183926 -1.57589 0
M  V30 4815 C 468.32 0.666846 -1.93216 0
M  V30 4816 C 468.684 1.69905 -0.894215 0
M  V30 4817 O 469.885 2.436 -1.13633 0
M  V30 4818 C 468.156 1.27684 -3.33814 0
M  V30 4819 S 469.715 1.98464 -3.91353 0
M  V30 4820 H 466.533 0.219826 -0.676164 0
M  V30 4821 H 469.135 -0.0794893 -1.95338 0
M  V30 4822 H 467.839 0.513006 -4.07181 0
M  V30 4823 H 467.37 2.06071 -3.3511 0
M  V30 4824 H 469.385 3.26189 -3.73918 0
M  V30 4825 N 468.558 1.5553 0.254621 0
M  V30 4826 C 469.488 1.9268 1.31897 0
M  V30 4827 C 470.469 0.790797 1.506 0
M  V30 4828 O 471.654 1.05045 1.63337 0
M  V30 4829 C 468.784 2.21477 2.67517 0
M  V30 4830 C 467.738 3.37256 2.63519 0
M  V30 4831 C 467.064 3.51576 4.02862 0
M  V30 4832 C 468.364 4.73157 2.21179 0
M  V30 4833 H 470.058 2.81832 1.01051 0
M  V30 4834 H 467.604 1.35599 0.484662 0
M  V30 4835 H 469.557 2.46055 3.42104 0
M  V30 4836 H 468.281 1.29144 2.99982 0
M  V30 4837 H 466.94 3.12675 1.9139 0
M  V30 4838 H 466.588 2.56676 4.32581 0
M  V30 4839 H 466.288 4.2943 4.01078 0
M  V30 4840 H 467.812 3.78467 4.79161 0
M  V30 4841 H 469.226 4.97158 2.85494 0
M  V30 4842 H 467.623 5.54058 2.30521 0
M  V30 4843 H 468.693 4.70739 1.16332 0
M  V30 4844 N 470.036 -0.519951 1.48776 0
M  V30 4845 C 470.968 -1.63973 1.60142 0
M  V30 4846 C 471.981 -1.55404 0.485117 0
M  V30 4847 O 473.17 -1.61682 0.756391 0
M  V30 4848 C 470.27 -3.02676 1.52449 0
M  V30 4849 C 469.443 -3.36624 2.79291 0
M  V30 4850 C 468.502 -4.54652 2.64912 0
M  V30 4851 O 467.528 -4.57374 3.38818 0
M  V30 4852 N 468.73 -5.53432 1.75195 0
M  V30 4853 H 471.495 -1.54656 2.56713 0
M  V30 4854 H 469.056 -0.707439 1.45626 0
M  V30 4855 H 471.048 -3.79525 1.4051 0
M  V30 4856 H 469.618 -3.06018 0.638125 0
M  V30 4857 H 468.838 -2.48855 3.0572 0
M  V30 4858 H 470.126 -3.56094 3.6342 0
M  V30 4859 H 469.524 -5.54018 1.14371 0
M  V30 4860 H 468.081 -6.29459 1.69189 0
M  V30 4861 N 471.514 -1.37532 -0.769588 0
M  V30 4862 C 472.461 -1.3347 -1.88293 0
M  V30 4863 C 473.431 -0.199891 -1.64893 0
M  V30 4864 O 474.616 -0.389594 -1.8678 0
M  V30 4865 C 471.756 -1.14968 -3.25387 0
M  V30 4866 C 470.869 -2.37698 -3.60727 0
M  V30 4867 C 470.004 -2.12051 -4.8704 0
M  V30 4868 C 469.043 -3.30636 -5.15117 0
M  V30 4869 N 468.18 -3.04527 -6.3262 0
M  V30 4870 H 473.02 -2.28658 -1.911 0
M  V30 4871 H 470.557 -1.13622 -0.934257 0
M  V30 4872 H 472.515 -1.02261 -4.04473 0
M  V30 4873 H 471.145 -0.234263 -3.21949 0
M  V30 4874 H 470.197 -2.61137 -2.76608 0
M  V30 4875 H 471.509 -3.26131 -3.77413 0
M  V30 4876 H 470.663 -1.96388 -5.74035 0
M  V30 4877 H 469.402 -1.20959 -4.72462 0
M  V30 4878 H 468.407 -3.46836 -4.26597 0
M  V30 4879 H 469.632 -4.22582 -5.31603 0
M  V30 4880 H 467.578 -2.16067 -6.19396 0
M  V30 4881 H 467.495 -3.86503 -6.49732 0
M  V30 4882 H 468.763 -2.92485 -7.22546 0
M  V30 4883 N 472.992 0.995999 -1.22138 0
M  V30 4884 C 474.269 1.70834 -0.952642 0
M  V30 4885 C 474.649 2.04257 0.533119 0
M  V30 4886 O 473.997 1.72343 1.50034 0
M  V30 4887 C 474.207 2.96119 -1.84701 0
M  V30 4888 C 475.555 3.68962 -2.10124 0
M  V30 4889 O 476.579 3.0612 -1.82124 0
M  V30 4890 O 475.438 4.82017 -2.57531 0
M  V30 4891 H 472.532 0.745498 -0.357997 0
M  V30 4892 H 475.078 1.05262 -1.33109 0
M  V30 4893 H 473.85 2.67898 -2.85213 0
M  V30 4894 H 473.473 3.6943 -1.46995 0
M  V30 4895 N 474.47 1.03057 1.19235 0
M  V30 4896 C 475.881 0.757449 1.70645 0
M  V30 4897 C 476.232 -0.722735 1.82403 0
M  V30 4898 O 475.357 -1.56325 1.49638 0
M  V30 4899 C 475.952 1.36833 3.09939 0
M  V30 4900 C 474.511 1.14375 3.58602 0
M  V30 4901 C 473.658 1.46533 2.35422 0
M  V30 4902 H 476.609 1.19828 1.04052 0
M  V30 4903 H 476.63 0.766184 3.72706 0
M  V30 4904 H 476.142 2.44562 3.01349 0
M  V30 4905 H 474.243 0.0847542 3.72504 0
M  V30 4906 H 474.356 1.83366 4.42622 0
M  V30 4907 H 472.72 0.884712 2.38841 0
M  V30 4908 H 473.503 2.55349 2.2946 0
M  V30 4909 N 475.948 -1.35272 0.808662 0
M  V30 4910 C 477.173 -2.03477 0.401475 0
M  V30 4911 C 477.598 -1.60537 -0.980279 0
M  V30 4912 O 476.956 -0.78304 -1.63518 0
M  V30 4913 C 477.004 -3.57181 0.495354 0
M  V30 4914 O 476.108 -4.09474 -0.490397 0
M  V30 4915 H 475.449 -0.642561 0.167366 0
M  V30 4916 H 477.979 -1.72824 1.09512 0
M  V30 4917 H 477.989 -4.06356 0.365912 0
M  V30 4918 H 476.664 -3.87784 1.5032 0
M  V30 4919 H 475.241 -3.71516 -0.321023 0
M  V30 4920 N 477.426 -0.562348 -1.47226 0
M  V30 4921 C 478.373 0.182461 -2.30078 0
M  V30 4922 C 479.343 0.903503 -1.39377 0
M  V30 4923 O 480.528 0.898188 -1.68337 0
M  V30 4924 C 477.668 1.20322 -3.23445 0
M  V30 4925 C 476.781 0.487717 -4.29238 0
M  V30 4926 C 475.916 1.49422 -5.09752 0
M  V30 4927 C 474.955 0.763976 -6.07314 0
M  V30 4928 N 474.092 1.71755 -6.80768 0
M  V30 4929 H 478.932 -0.530169 -2.93246 0
M  V30 4930 H 476.469 -0.273276 -1.44539 0
M  V30 4931 H 478.427 1.80768 -3.76004 0
M  V30 4932 H 477.057 1.88382 -2.6213 0
M  V30 4933 H 476.109 -0.231374 -3.79696 0
M  V30 4934 H 477.421 -0.0841003 -4.98729 0
M  V30 4935 H 476.575 2.17206 -5.66486 0
M  V30 4936 H 475.314 2.09995 -4.40174 0
M  V30 4937 H 474.319 0.0722344 -5.49753 0
M  V30 4938 H 475.544 0.16391 -6.78902 0
M  V30 4939 H 473.49 2.31177 -6.13916 0
M  V30 4940 H 473.407 1.19802 -7.46447 0
M  V30 4941 H 474.675 2.38638 -7.42073 0
M  V30 4942 N 478.904 1.54736 -0.299062 0
M  V30 4943 C 480.32 1.59507 0.0543849 0
M  V30 4944 C 480.52 1.31606 1.52585 0
M  V30 4945 O 479.576 1.08853 2.27832 0
M  V30 4946 C 480.889 2.98751 -0.34181 0
M  V30 4947 C 482.437 3.1165 -0.290414 0
M  V30 4948 C 482.912 4.53199 -0.661402 0
M  V30 4949 N 484.403 4.59114 -0.613863 0
M  V30 4950 C 485.138 5.66709 -0.873417 0
M  V30 4951 N 484.634 6.82349 -1.19884 0
M  V30 4952 N 486.427 5.56369 -0.800608 0
M  V30 4953 H 478.578 1.71133 -1.25806 0
M  V30 4954 H 480.841 0.799186 -0.509908 0
M  V30 4955 H 480.547 3.24085 -1.36608 0
M  V30 4956 H 480.421 3.75961 0.305508 0
M  V30 4957 H 482.808 2.86066 0.724605 0
M  V30 4958 H 482.889 2.366 -0.972327 0
M  V30 4959 H 482.533 4.79513 -1.67422 0
M  V30 4960 H 482.463 5.26583 0.0425612 0
M  V30 4961 H 484.954 3.76053 -0.3732 0
M  V30 4962 H 485.267 7.60326 -1.38291 0
M  V30 4963 H 483.612 6.83906 -1.23685 0
M  V30 4964 H 486.803 4.64904 -0.546045 0
M  V30 4965 H 486.976 6.40139 -1.00626 0
M  V30 4966 N 480.382 0.0267497 1.57577 0
M  V30 4967 C 481.793 -0.512413 1.79531 0
M  V30 4968 C 482.144 -1.72391 0.936791 0
M  V30 4969 O 481.269 -2.15903 0.146543 0
M  V30 4970 C 481.864 -0.936378 3.25603 0
M  V30 4971 C 480.423 -1.42067 3.4856 0
M  V30 4972 C 479.57 -0.384278 2.74624 0
M  V30 4973 H 482.521 0.252797 1.56674 0
M  V30 4974 H 482.542 -1.80088 3.35184 0
M  V30 4975 H 482.054 -0.0544332 3.88062 0
M  V30 4976 H 480.155 -2.32262 2.9135 0
M  V30 4977 H 480.268 -1.42968 4.57271 0
M  V30 4978 H 478.632 -0.851855 2.40032 0
M  V30 4979 H 479.415 0.489159 3.39797 0
M  V30 4980 N 481.861 -1.55662 -0.24637 0
M  V30 4981 C 483.089 -1.81575 -0.991876 0
M  V30 4982 C 483.504 -0.602545 -1.78927 0
M  V30 4983 O 482.861 0.428795 -1.77391 0
M  V30 4984 C 482.912 -3.05711 -1.92933 0
M  V30 4985 O 482.633 -4.22348 -1.1642 0
M  V30 4986 C 484.134 -3.44428 -2.79078 0
M  V30 4987 H 481.354 -0.604209 -0.291844 0
M  V30 4988 H 483.898 -2.02722 -0.269095 0
M  V30 4989 H 482.053 -2.86612 -2.60638 0
M  V30 4990 H 482.467 -4.92706 -1.79835 0
M  V30 4991 H 483.941 -4.34388 -3.40603 0
M  V30 4992 H 484.418 -2.65037 -3.50217 0
M  V30 4993 H 485.024 -3.65879 -2.16824 0
M  V30 4994 N 483.339 0.512053 -1.4905 0
M  V30 4995 C 484.302 1.59704 -1.64399 0
M  V30 4996 C 485.302 1.52285 -0.516317 0
M  V30 4997 O 486.492 1.55635 -0.782527 0
M  V30 4998 C 483.624 2.9935 -1.63102 0
M  V30 4999 H 484.817 1.47428 -2.61161 0
M  V30 5000 H 482.37 0.735469 -1.37915 0
M  V30 5001 H 483.105 3.17116 -0.678836 0
M  V30 5002 H 482.89 3.06144 -2.44986 0
M  V30 5003 H 484.38 3.782 -1.77072 0
M  V30 5004 N 484.817 1.37938 0.762283 0
M  V30 5005 C 485.78 1.34279 1.85747 0
M  V30 5006 C 486.78 0.244969 1.58923 0
M  V30 5007 O 487.97 0.501365 1.66829 0
M  V30 5008 C 485.102 1.08833 3.23061 0
M  V30 5009 H 486.295 2.31705 1.90401 0
M  V30 5010 H 483.848 1.23105 0.963057 0
M  V30 5011 H 484.583 0.119767 3.24079 0
M  V30 5012 H 484.368 1.88306 3.43923 0
M  V30 5013 H 485.858 1.08946 4.03138 0
M  V30 5014 N 486.295 -0.989507 1.22664 0
M  V30 5015 C 487.205 -2.11449 1.01619 0
M  V30 5016 C 488.221 -1.73962 -0.036545 0
M  V30 5017 O 489.397 -2.00788 0.156924 0
M  V30 5018 C 486.462 -3.41465 0.600204 0
M  V30 5019 C 485.523 -3.93033 1.72695 0
M  V30 5020 C 484.756 -5.16844 1.33071 0
M  V30 5021 O 484.979 -5.7001 0.210975 0
M  V30 5022 O 483.913 -5.6225 2.14845 0
M  V30 5023 H 487.739 -2.32088 1.9588 0
M  V30 5024 H 485.324 -1.09823 1.01289 0
M  V30 5025 H 487.206 -4.19695 0.37873 0
M  V30 5026 H 485.881 -3.22178 -0.313511 0
M  V30 5027 H 484.788 -3.15961 2.00298 0
M  V30 5028 H 486.121 -4.16758 2.61865 0
M  V30 5029 N 487.773 -1.03688 -1.18687 0
M  V30 5030 C 488.703 -0.645407 -2.24403 0
M  V30 5031 C 489.684 0.349511 -1.66471 0
M  V30 5032 O 490.869 0.230453 -1.92828 0
M  V30 5033 C 487.999 -0.00365337 -3.473 0
M  V30 5034 C 486.953 -0.921705 -4.17958 0
M  V30 5035 C 486.279 -0.144629 -5.34504 0
M  V30 5036 C 487.579 -2.23909 -4.71871 0
M  V30 5037 H 489.273 -1.52917 -2.57404 0
M  V30 5038 H 486.819 -0.736711 -1.23728 0
M  V30 5039 H 488.772 0.281908 -4.20456 0
M  V30 5040 H 487.496 0.914963 -3.13522 0
M  V30 5041 H 486.155 -1.19159 -3.46694 0
M  V30 5042 H 485.803 0.776274 -4.96974 0
M  V30 5043 H 485.503 -0.756206 -5.82714 0
M  V30 5044 H 487.027 0.134004 -6.10453 0
M  V30 5045 H 488.441 -2.0145 -5.36741 0
M  V30 5046 H 486.838 -2.8033 -5.30599 0
M  V30 5047 H 487.908 -2.88822 -3.895 0
M  V30 5048 N 489.251 1.34841 -0.815825 0
M  V30 5049 C 490.181 2.32187 -0.247298 0
M  V30 5050 C 491.162 1.5791 0.632344 0
M  V30 5051 O 492.347 1.8593 0.560698 0
M  V30 5052 C 489.477 3.42122 0.597466 0
M  V30 5053 C 488.431 4.27602 -0.184446 0
M  V30 5054 C 487.757 5.28942 0.782609 0
M  V30 5055 C 489.057 5.03502 -1.38865 0
M  V30 5056 H 490.751 2.79985 -1.06061 0
M  V30 5057 H 488.297 1.34611 -0.511461 0
M  V30 5058 H 490.25 4.09232 1.00533 0
M  V30 5059 H 488.974 2.92956 1.44376 0
M  V30 5060 H 487.633 3.62085 -0.573592 0
M  V30 5061 H 487.281 4.7604 1.62466 0
M  V30 5062 H 486.981 5.87008 0.263695 0
M  V30 5063 H 488.505 5.98922 1.18848 0
M  V30 5064 H 489.919 5.63506 -1.05518 0
M  V30 5065 H 488.316 5.71108 -1.8427 0
M  V30 5066 H 489.386 4.33608 -2.17054 0
M  V30 5067 N 490.729 0.570148 1.46925 0
M  V30 5068 C 491.676 -0.170257 2.30171 0
M  V30 5069 C 492.646 -0.896099 1.39855 0
M  V30 5070 O 493.831 -0.889248 1.68811 0
M  V30 5071 C 490.971 -1.18605 3.24079 0
M  V30 5072 C 490.084 -0.464947 4.29491 0
M  V30 5073 C 489.219 -1.46716 5.10537 0
M  V30 5074 C 488.258 -0.731758 6.0771 0
M  V30 5075 N 487.395 -1.68142 6.81669 0
M  V30 5076 H 492.235 0.545713 2.92961 0
M  V30 5077 H 489.772 0.280938 1.44392 0
M  V30 5078 H 491.73 -1.78771 3.76957 0
M  V30 5079 H 490.36 -1.86989 2.63125 0
M  V30 5080 H 489.412 0.251506 3.79568 0
M  V30 5081 H 490.724 0.110548 4.98677 0
M  V30 5082 H 489.878 -2.14199 5.6763 0
M  V30 5083 H 488.617 -2.07658 4.41282 0
M  V30 5084 H 487.622 -0.0430787 5.49783 0
M  V30 5085 H 488.847 -0.127904 6.7898 0
M  V30 5086 H 486.793 -2.27918 6.15134 0
M  V30 5087 H 486.71 -1.15841 7.47072 0
M  V30 5088 H 487.978 -2.347 7.43328 0
M  V30 5089 N 492.207 -1.54576 0.307264 0
M  V30 5090 C 493.447 -2.02172 -0.300962 0
M  V30 5091 C 493.811 -1.19081 -1.50611 0
M  V30 5092 O 495.012 -1.56405 -2.18612 0
M  V30 5093 C 493.283 -3.51576 -0.642591 0
M  V30 5094 S 494.842 -4.21127 -1.23279 0
M  V30 5095 H 491.66 -0.705021 -0.0920141 0
M  V30 5096 H 494.262 -1.90563 0.436594 0
M  V30 5097 H 492.966 -4.09681 0.242901 0
M  V30 5098 H 492.497 -3.67234 -1.41077 0
M  V30 5099 H 494.512 -4.27426 -2.52034 0
M  V30 5100 N 493.685 -0.035106 -1.57561 0
M  V30 5101 C 494.632 0.94474 -2.10578 0
M  V30 5102 C 495.602 1.3192 -1.00927 0
M  V30 5103 O 496.787 1.41147 -1.28382 0
M  V30 5104 C 493.927 2.21982 -2.64231 0
M  V30 5105 C 493.04 1.90128 -3.87911 0
M  V30 5106 C 492.175 3.11975 -4.29936 0
M  V30 5107 C 491.214 2.75968 -5.46359 0
M  V30 5108 N 490.351 3.90459 -5.83512 0
M  V30 5109 H 495.191 0.485717 -2.94015 0
M  V30 5110 H 492.728 0.228143 -1.4532 0
M  V30 5111 H 494.686 2.96572 -2.9343 0
M  V30 5112 H 493.316 2.6549 -1.83616 0
M  V30 5113 H 492.368 1.05755 -3.65404 0
M  V30 5114 H 493.68 1.59613 -4.72573 0
M  V30 5115 H 492.834 3.9488 -4.60603 0
M  V30 5116 H 491.573 3.45657 -3.44053 0
M  V30 5117 H 490.578 1.91478 -5.1538 0
M  V30 5118 H 491.803 2.43497 -6.33945 0
M  V30 5119 H 489.749 4.23971 -5.00584 0
M  V30 5120 H 489.666 3.63588 -6.62827 0
M  V30 5121 H 490.934 4.7405 -6.18787 0
M  V30 5122 N 495.163 1.55791 0.238111 0
M  V30 5123 C 496.41 1.78033 0.964907 0
M  V30 5124 C 496.738 0.600984 1.84982 0
M  V30 5125 O 495.993 -0.41536 1.91241 0
M  V30 5126 C 496.292 3.05869 1.84875 0
M  V30 5127 C 495.958 4.36808 1.11846 0
M  V30 5128 C 494.62 4.72388 0.916662 0
M  V30 5129 C 496.972 5.17717 0.60151 0
M  V30 5130 C 494.3 5.86406 0.185756 0
M  V30 5131 C 496.652 6.32494 -0.115972 0
M  V30 5132 C 495.316 6.66688 -0.329168 0
M  V30 5133 H 494.586 0.651469 0.353085 0
M  V30 5134 H 497.233 1.90061 0.234318 0
M  V30 5135 H 495.538 2.88891 2.64668 0
M  V30 5136 H 497.235 3.20278 2.41294 0
M  V30 5137 H 493.825 4.08862 1.28569 0
M  V30 5138 H 498.009 4.90678 0.744932 0
M  V30 5139 H 493.265 6.11399 0.0101886 0
M  V30 5140 H 497.439 6.94425 -0.524127 0
M  V30 5141 H 495.066 7.54884 -0.897474 0
M  V30 5142 N 496.642 -0.504142 1.49319 0
M  V30 5143 C 497.889 -1.25846 1.58647 0
M  V30 5144 C 498.217 -1.92592 0.27177 0
M  V30 5145 O 497.472 -1.81167 -0.74007 0
M  V30 5146 C 497.771 -2.35021 2.69258 0
M  V30 5147 C 497.437 -1.85755 4.1086 0
M  V30 5148 C 496.099 -1.72038 4.49395 0
M  V30 5149 C 498.451 -1.48844 4.99495 0
M  V30 5150 C 495.779 -1.19783 5.74342 0
M  V30 5151 C 498.131 -0.980422 6.24956 0
M  V30 5152 C 496.795 -0.829622 6.62324 0
M  V30 5153 H 496.065 -0.460505 0.580531 0
M  V30 5154 H 498.712 -0.559716 1.83138 0
M  V30 5155 H 497.017 -3.10672 2.38726 0
M  V30 5156 H 498.714 -2.93083 2.73685 0
M  V30 5157 H 495.304 -1.9739 3.80441 0
M  V30 5158 H 499.488 -1.5829 4.70381 0
M  V30 5159 H 494.744 -1.06817 6.01997 0
M  V30 5160 H 498.918 -0.685608 6.93017 0
M  V30 5161 H 496.545 -0.42253 7.59025 0
M  V30 5162 N 498.12 -1.38341 -0.754957 0
M  V30 5163 C 499.052 -1.31347 -1.87831 0
M  V30 5164 C 500.065 -0.225955 -1.61224 0
M  V30 5165 O 501.254 -0.48341 -1.7183 0
M  V30 5166 C 498.354 -1.01201 -3.23437 0
M  V30 5167 C 497.527 -2.20834 -3.77559 0
M  V30 5168 C 496.586 -1.87454 -4.91678 0
M  V30 5169 O 495.612 -2.59934 -5.06382 0
M  V30 5170 N 496.814 -0.828682 -5.74555 0
M  V30 5171 H 499.579 -2.28147 -1.94342 0
M  V30 5172 H 497.14 -1.32184 -0.934828 0
M  V30 5173 H 499.132 -0.769249 -3.97322 0
M  V30 5174 H 497.702 -0.132011 -3.12321 0
M  V30 5175 H 496.922 -2.61184 -2.95256 0
M  V30 5176 H 498.21 -3.00678 -4.10451 0
M  V30 5177 H 497.608 -0.227591 -5.65242 0
M  V30 5178 H 496.165 -0.645802 -6.48593 0
M  V30 5179 N 499.598 0.982988 -1.23187 0
M  V30 5180 C 500.545 2.07491 -1.01075 0
M  V30 5181 C 501.515 1.65949 0.070905 0
M  V30 5182 O 502.7 1.90629 -0.0806822 0
M  V30 5183 C 499.84 3.39751 -0.605261 0
M  V30 5184 C 498.953 3.94578 -1.75876 0
M  V30 5185 C 498.088 5.15039 -1.3003 0
M  V30 5186 C 497.127 5.62027 -2.42472 0
M  V30 5187 N 496.264 6.73719 -1.97602 0
M  V30 5188 H 501.104 2.25739 -1.9454 0
M  V30 5189 H 498.641 1.10659 -0.969179 0
M  V30 5190 H 500.599 4.15719 -0.351279 0
M  V30 5191 H 499.229 3.21473 0.292382 0
M  V30 5192 H 498.281 3.1539 -2.12681 0
M  V30 5193 H 499.593 4.25422 -2.60418 0
M  V30 5194 H 498.747 5.9833 -1.00429 0
M  V30 5195 H 497.486 4.85843 -0.425216 0
M  V30 5196 H 496.491 4.77318 -2.7285 0
M  V30 5197 H 497.716 5.93244 -3.30512 0
M  V30 5198 H 495.662 6.46287 -1.1247 0
M  V30 5199 H 495.579 7.03934 -2.75705 0
M  V30 5200 H 496.847 7.6049 -1.71098 0
M  V30 5201 N 501.076 1.04316 1.18135 0
M  V30 5202 C 502.039 0.640794 2.2006 0
M  V30 5203 C 503.039 -0.303124 1.57917 0
M  V30 5204 O 504.229 -0.0881855 1.73977 0
M  V30 5205 C 501.361 -0.060148 3.40847 0
M  V30 5206 H 502.554 1.54281 2.57172 0
M  V30 5207 H 500.107 0.836004 1.32063 0
M  V30 5208 H 500.842 -0.975845 3.0927 0
M  V30 5209 H 500.627 0.618319 3.87194 0
M  V30 5210 H 502.117 -0.328082 4.16309 0
M  V30 5211 N 502.554 -1.34406 0.822964 0
M  V30 5212 C 503.501 -2.29519 0.24284 0
M  V30 5213 C 504.471 -1.5359 -0.632397 0
M  V30 5214 O 505.656 -1.8196 -0.57403 0
M  V30 5215 C 502.796 -3.40032 -0.58925 0
M  V30 5216 C 501.909 -4.30899 0.308236 0
M  V30 5217 C 501.044 -5.28515 -0.533425 0
M  V30 5218 C 500.083 -6.1102 0.363444 0
M  V30 5219 N 499.22 -7.00725 -0.439147 0
M  V30 5220 H 504.06 -2.78537 1.05929 0
M  V30 5221 H 501.597 -1.3707 0.533872 0
M  V30 5222 H 503.555 -4.0279 -1.087 0
M  V30 5223 H 502.185 -2.92248 -1.37081 0
M  V30 5224 H 501.237 -3.69002 0.924203 0
M  V30 5225 H 502.549 -4.88717 0.997862 0
M  V30 5226 H 501.703 -5.96725 -1.09565 0
M  V30 5227 H 500.442 -4.71235 -1.25656 0
M  V30 5228 H 499.447 -5.41743 0.937812 0
M  V30 5229 H 500.672 -6.70381 1.08469 0
M  V30 5230 H 498.618 -6.45913 -1.14595 0
M  V30 5231 H 498.535 -7.55756 0.19209 0
M  V30 5232 H 499.803 -7.73263 -0.984124 0
M  V30 5233 N 504.032 -0.577932 -1.46621 0
M  V30 5234 C 504.98 0.170882 -2.31971 0
M  V30 5235 C 505.974 0.889086 -1.44193 0
M  V30 5236 O 507.18 0.808017 -1.60845 0
M  V30 5237 H 503.555 0.0739763 -0.748353 0
M  V30 5238 H 505.526 -0.567856 -2.92947 0
M  V30 5239 C 504.275 1.17438 -3.27267 0
M  V30 5240 H 503.598 0.63116 -3.94787 0
M  V30 5241 H 505.038 1.66882 -3.89778 0
M  V30 5242 C 503.497 2.23292 -2.52274 0
M  V30 5243 O 504.027 3.30567 -2.28229 0
M  V30 5244 N 502.233 1.97772 -2.12919 0
M  V30 5245 H 501.78 1.10545 -2.32675 0
M  V30 5246 H 501.738 2.68809 -1.63062 0
M  V30 5247 N 505.51 1.54411 -0.315457 0
M  V30 5248 C 506.926 1.59556 0.037464 0
M  V30 5249 C 507.126 1.33217 1.5118 0
M  V30 5250 O 506.182 1.11264 2.26664 0
M  V30 5251 C 507.495 2.98372 -0.373477 0
M  V30 5252 C 509.043 3.11324 -0.323452 0
M  V30 5253 C 509.518 4.52472 -0.709433 0
M  V30 5254 N 511.009 4.58437 -0.662524 0
M  V30 5255 C 511.744 5.65751 -0.933474 0
M  V30 5256 N 511.24 6.81039 -1.27114 0
M  V30 5257 N 513.033 5.55489 -0.859573 0
M  V30 5258 H 505.184 1.6979 -1.27614 0
M  V30 5259 H 507.447 0.793732 -0.518356 0
M  V30 5260 H 507.153 3.22618 -1.40037 0
M  V30 5261 H 507.027 3.76264 0.265615 0
M  V30 5262 H 509.414 2.86818 0.694223 0
M  V30 5263 H 509.495 2.35555 -0.997367 0
M  V30 5264 H 509.139 4.7771 -1.72498 0
M  V30 5265 H 509.069 5.26598 -0.0132923 0
M  V30 5266 H 511.56 3.75636 -0.413065 0
M  V30 5267 H 511.873 7.58816 -1.46348 0
M  V30 5268 H 510.218 6.82555 -1.30932 0
M  V30 5269 H 513.409 4.64299 -0.595324 0
M  V30 5270 H 513.582 6.39036 -1.0741 0
M  V30 5271 N 506.988 0.0434614 1.5754 0
M  V30 5272 C 507.898 -0.94893 2.14552 0
M  V30 5273 C 508.914 -1.34707 1.10136 0
M  V30 5274 O 510.09 -1.42557 1.42266 0
M  V30 5275 C 507.155 -2.208 2.67298 0
M  V30 5276 C 506.216 -1.86893 3.86484 0
M  V30 5277 C 505.449 -3.06797 4.36705 0
M  V30 5278 O 505.672 -4.19921 3.86034 0
M  V30 5279 O 504.606 -2.8826 5.28384 0
M  V30 5280 H 508.432 -0.494099 2.99654 0
M  V30 5281 H 506.017 -0.177989 1.48336 0
M  V30 5282 H 507.899 -2.94686 3.01228 0
M  V30 5283 H 506.574 -2.65436 1.85272 0
M  V30 5284 H 505.481 -1.10347 3.57455 0
M  V30 5285 H 506.814 -1.47062 4.69716 0
M  V30 5286 N 508.466 -1.55915 -0.229846 0
M  V30 5287 C 509.696 -1.82352 -0.971152 0
M  V30 5288 C 510.104 -0.619231 -1.7878 0
M  V30 5289 O 509.447 0.421597 -1.78797 0
M  V30 5290 C 509.509 -3.02399 -1.9441 0
M  V30 5291 C 509.173 -4.37739 -1.31277 0
M  V30 5292 C 510.17 -5.15074 -0.706757 0
M  V30 5293 C 507.855 -4.84454 -1.32702 0
M  V30 5294 C 509.849 -6.37281 -0.123413 0
M  V30 5295 C 507.536 -6.06605 -0.739831 0
M  V30 5296 C 508.534 -6.82858 -0.139071 0
M  V30 5297 O 508.222 -8.027 0.439007 0
M  V30 5298 H 507.954 -0.61035 -0.290601 0
M  V30 5299 H 510.508 -2.03839 -0.252746 0
M  V30 5300 H 508.738 -2.76709 -2.70128 0
M  V30 5301 H 510.427 -3.15779 -2.55026 0
M  V30 5302 H 511.193 -4.80093 -0.688131 0
M  V30 5303 H 507.072 -4.25081 -1.78402 0
M  V30 5304 H 510.616 -6.96741 0.346124 0
M  V30 5305 H 506.513 -6.4106 -0.755841 0
M  V30 5306 H 507.281 -8.17824 0.332521 0
M  V30 5307 N 509.944 0.496216 -1.49584 0
M  V30 5308 C 510.874 1.60576 -1.69521 0
M  V30 5309 C 511.855 1.61169 -0.543933 0
M  V30 5310 O 513.04 1.77834 -0.78031 0
M  V30 5311 C 510.17 2.99038 -1.76616 0
M  V30 5312 C 509.124 3.13312 -2.91581 0
M  V30 5313 C 508.45 4.53172 -2.83794 0
M  V30 5314 C 509.75 2.92886 -4.32452 0
M  V30 5315 H 511.444 1.44146 -2.62416 0
M  V30 5316 H 508.99 0.692024 -1.26282 0
M  V30 5317 H 510.943 3.76564 -1.8915 0
M  V30 5318 H 509.667 3.16568 -0.80324 0
M  V30 5319 H 508.326 2.38213 -2.78658 0
M  V30 5320 H 507.974 4.67585 -1.854 0
M  V30 5321 H 507.674 4.63662 -3.60958 0
M  V30 5322 H 509.198 5.32752 -2.98342 0
M  V30 5323 H 510.612 3.60178 -4.46032 0
M  V30 5324 H 509.009 3.14844 -5.10875 0
M  V30 5325 H 510.079 1.88966 -4.46565 0
M  V30 5326 N 511.423 1.38739 0.74761 0
M  V30 5327 C 512.672 1.3459 1.50228 0
M  V30 5328 C 512.985 -0.0595592 1.95509 0
M  V30 5329 O 514.191 -0.22361 2.70578 0
M  V30 5330 C 512.647 2.36377 2.71393 0
M  V30 5331 C 512.255 3.82573 2.33113 0
M  V30 5332 C 513.999 2.41281 3.49262 0
M  V30 5333 C 511.906 4.76032 3.50924 0
M  V30 5334 H 510.836 0.500312 0.564096 0
M  V30 5335 H 513.487 1.64324 0.8167 0
M  V30 5336 H 511.869 1.99694 3.41962 0
M  V30 5337 H 513.043 4.28227 1.70171 0
M  V30 5338 H 511.358 3.80844 1.68365 0
M  V30 5339 H 513.955 3.08301 4.36869 0
M  V30 5340 H 514.298 1.43353 3.9084 0
M  V30 5341 H 514.831 2.76793 2.85711 0
M  V30 5342 H 511.57 5.75177 3.14408 0
M  V30 5343 H 511.09 4.35066 4.12889 0
M  V30 5344 H 512.769 4.94331 4.17427 0
M  V30 5345 N 512.901 -0.976442 1.23707 0
M  V30 5346 C 513.811 -2.10359 1.03856 0
M  V30 5347 C 514.827 -1.73991 -0.0180919 0
M  V30 5348 O 516.003 -2.0061 0.178211 0
M  V30 5349 C 513.068 -3.40809 0.636387 0
M  V30 5350 C 512.129 -3.91179 1.76854 0
M  V30 5351 C 511.362 -5.15404 1.38546 0
M  V30 5352 O 511.585 -5.69754 0.27142 0
M  V30 5353 O 510.519 -5.5994 2.20797 0
M  V30 5354 H 514.345 -2.29997 1.98331 0
M  V30 5355 H 511.93 -1.08742 1.02448 0
M  V30 5356 H 513.812 -4.19269 0.423223 0
M  V30 5357 H 512.487 -3.22493 -0.279322 0
M  V30 5358 H 511.394 -3.13819 2.03638 0
M  V30 5359 H 512.727 -4.13958 2.6627 0
M  V30 5360 N 514.379 -1.04941 -1.1758 0
M  V30 5361 C 515.326 -0.648155 -2.21512 0
M  V30 5362 C 516.296 0.348431 -1.62404 0
M  V30 5363 O 517.481 0.240419 -1.89279 0
M  V30 5364 C 514.621 -0.0264291 -3.4509 0
M  V30 5365 C 513.734 -1.07154 -4.185 0
M  V30 5366 C 512.869 -0.417403 -5.29558 0
M  V30 5367 C 511.908 -1.447 -5.94751 0
M  V30 5368 N 511.045 -0.817203 -6.97328 0
M  V30 5369 H 515.885 -1.53891 -2.55189 0
M  V30 5370 H 513.422 -0.769699 -1.25356 0
M  V30 5371 H 515.38 0.351456 -4.15717 0
M  V30 5372 H 514.01 0.827802 -3.12005 0
M  V30 5373 H 513.062 -1.56728 -3.46613 0
M  V30 5374 H 514.374 -1.8532 -4.63096 0
M  V30 5375 H 513.528 0.0142061 -6.06698 0
M  V30 5376 H 512.267 0.396265 -4.86087 0
M  V30 5377 H 511.272 -1.88865 -5.16343 0
M  V30 5378 H 512.497 -2.26252 -6.40302 0
M  V30 5379 H 510.443 -0.0239995 -6.55996 0
M  V30 5380 H 510.36 -1.53644 -7.40223 0
M  V30 5381 H 511.628 -0.410283 -7.7842 0
M  V30 5382 N 515.857 1.33968 -0.830081 0
M  V30 5383 C 516.787 2.31911 -0.271911 0
M  V30 5384 C 517.768 1.58571 0.61556 0
M  V30 5385 O 518.953 1.86514 0.540946 0
M  V30 5386 C 516.083 3.42737 0.561146 0
M  V30 5387 C 515.037 4.27383 -0.229789 0
M  V30 5388 C 514.363 5.29742 0.726463 0
M  V30 5389 C 515.663 5.02 -1.44197 0
M  V30 5390 H 517.357 2.78844 -1.09025 0
M  V30 5391 H 514.903 1.34061 -0.52571 0
M  V30 5392 H 516.856 4.10276 0.961867 0
M  V30 5393 H 515.58 2.94471 1.41261 0
M  V30 5394 H 514.239 3.61456 -0.611964 0
M  V30 5395 H 513.887 4.77736 1.57408 0
M  V30 5396 H 513.587 5.87255 0.20142 0
M  V30 5397 H 515.111 6.00149 1.12489 0
M  V30 5398 H 516.525 5.62355 -1.11488 0
M  V30 5399 H 514.922 5.69122 -1.90317 0
M  V30 5400 H 515.992 4.31281 -2.2164 0
M  V30 5401 N 517.335 0.585699 1.46312 0
M  V30 5402 C 518.265 -0.133556 2.33118 0
M  V30 5403 C 519.246 -0.880707 1.45525 0
M  V30 5404 O 520.431 -0.855579 1.74337 0
M  V30 5405 C 517.561 -1.14585 3.27853 0
M  V30 5406 C 516.515 -0.513341 4.2491 0
M  V30 5407 C 515.841 -1.63231 5.09175 0
M  V30 5408 C 517.141 0.551413 5.19381 0
M  V30 5409 H 518.835 0.59121 2.93505 0
M  V30 5410 H 516.381 0.285761 1.41136 0
M  V30 5411 H 518.334 -1.65741 3.87438 0
M  V30 5412 H 517.058 -1.90093 2.65579 0
M  V30 5413 H 515.717 -0.0228349 3.66593 0
M  V30 5414 H 515.365 -2.37713 4.43285 0
M  V30 5415 H 515.065 -1.21473 5.74907 0
M  V30 5416 H 516.589 -2.14658 5.71624 0
M  V30 5417 H 518.003 0.124804 5.73164 0
M  V30 5418 H 516.4 0.889486 5.93471 0
M  V30 5419 H 517.47 1.43655 4.63132 0
M  V30 5420 N 518.813 -1.54241 0.323641 0
M  V30 5421 C 520.041 -2.04985 -0.280871 0
M  V30 5422 C 520.456 -1.19978 -1.45777 0
M  V30 5423 O 519.813 -0.230471 -1.81039 0
M  V30 5424 C 519.864 -3.54353 -0.715258 0
M  V30 5425 O 519.585 -4.36132 0.414817 0
M  V30 5426 C 521.086 -4.21189 -1.38257 0
M  V30 5427 H 518.306 -0.66851 -0.0577502 0
M  V30 5428 H 520.85 -1.99029 0.469852 0
M  V30 5429 H 519.005 -3.60596 -1.41596 0
M  V30 5430 H 519.419 -5.2445 0.0725227 0
M  V30 5431 H 520.893 -5.27154 -1.63745 0
M  V30 5432 H 521.37 -3.72307 -2.32989 0
M  V30 5433 H 521.976 -4.19085 -0.724447 0
M  V30 5434 N 520.291 -0.0518155 -1.57515 0
M  V30 5435 C 521.707 0.304735 -1.56664 0
M  V30 5436 C 521.907 1.71395 -1.05953 0
M  V30 5437 O 520.963 2.42123 -0.716414 0
M  V30 5438 C 522.276 0.132614 -3.00407 0
M  V30 5439 C 523.824 0.20367 -3.12337 0
M  V30 5440 C 524.299 0.0600706 -4.57961 0
M  V30 5441 N 525.79 0.116326 -4.63054 0
M  V30 5442 C 526.525 0.0293363 -5.73392 0
M  V30 5443 N 526.021 -0.110038 -6.92713 0
M  V30 5444 N 527.814 0.0849651 -5.62036 0
M  V30 5445 H 519.965 -0.973056 -1.888 0
M  V30 5446 H 522.228 -0.377781 -0.869474 0
M  V30 5447 H 521.934 -0.839019 -3.41546 0
M  V30 5448 H 521.808 0.893376 -3.66468 0
M  V30 5449 H 524.195 1.16578 -2.71097 0
M  V30 5450 H 524.276 -0.587857 -2.48954 0
M  V30 5451 H 523.92 -0.898715 -4.99886 0
M  V30 5452 H 523.85 0.87075 -5.19351 0
M  V30 5453 H 526.341 0.22327 -3.7724 0
M  V30 5454 H 526.654 -0.169104 -7.72615 0
M  V30 5455 H 524.999 -0.145132 -6.94848 0
M  V30 5456 H 528.19 0.192411 -4.67704 0
M  V30 5457 H 528.363 0.0137131 -6.47999 0
M  V30 5458 N 521.769 1.56035 0.221574 0
M  V30 5459 C 522.997 1.8313 0.962864 0
M  V30 5460 C 523.412 0.630934 1.77946 0
M  V30 5461 O 522.769 -0.400519 1.78051 0
M  V30 5462 C 522.82 3.08742 1.88045 0
M  V30 5463 O 522.541 4.24147 1.09686 0
M  V30 5464 C 524.042 3.48824 2.73563 0
M  V30 5465 H 521.262 0.608775 0.282194 0
M  V30 5466 H 523.806 2.03124 0.23681 0
M  V30 5467 H 521.961 2.90723 2.56045 0
M  V30 5468 H 522.375 4.95505 1.71974 0
M  V30 5469 H 523.849 4.39752 3.3365 0
M  V30 5470 H 524.326 2.70575 3.45956 0
M  V30 5471 H 524.932 3.69282 2.10976 0
M  V30 5472 N 523.247 -0.488276 1.49845 0
M  V30 5473 C 524.658 -1.06955 1.53028 0
M  V30 5474 C 525.009 -1.9351 0.323797 0
M  V30 5475 O 524.134 -2.08891 -0.565116 0
M  V30 5476 C 524.729 -1.94643 2.77307 0
M  V30 5477 C 523.288 -2.4791 2.83227 0
M  V30 5478 C 522.435 -1.25833 2.47106 0
M  V30 5479 H 525.386 -0.271626 1.56358 0
M  V30 5480 H 525.407 -2.79496 2.5819 0
M  V30 5481 H 524.919 -1.31621 3.65099 0
M  V30 5482 H 523.02 -3.14535 1.99745 0
M  V30 5483 H 523.133 -2.84193 3.85709 0
M  V30 5484 H 521.497 -1.58764 1.99163 0
M  V30 5485 H 522.28 -0.644993 3.37186 0
M  V30 5486 N 524.725 -1.39134 -0.740242 0
M  V30 5487 C 526.002 -1.26584 -1.49117 0
M  V30 5488 C 526.382 0.126902 -2.10718 0
M  V30 5489 O 525.73 1.13765 -1.98166 0
M  V30 5490 C 525.94 -2.38619 -2.54681 0
M  V30 5491 C 527.288 -2.77685 -3.21211 0
M  V30 5492 O 528.312 -2.38029 -2.64991 0
M  V30 5493 O 527.171 -3.46115 -4.22926 0
M  V30 5494 H 524.265 -0.495769 -0.661923 0
M  V30 5495 H 526.811 -1.50995 -0.774514 0
M  V30 5496 H 525.583 -3.3175 -2.07504 0
M  V30 5497 H 525.206 -2.15845 -3.33911 0
M  V30 5498 N 526.204 0.969867 -1.24223 0
M  V30 5499 C 527.453 1.70687 -1.07466 0
M  V30 5500 C 527.766 1.91736 0.386861 0
M  V30 5501 O 528.972 2.62986 0.674581 0
M  V30 5502 C 527.428 3.07217 -1.87472 0
M  V30 5503 C 527.036 2.94018 -3.3802 0
M  V30 5504 C 528.78 3.84804 -1.79237 0
M  V30 5505 C 526.687 4.25844 -4.10379 0
M  V30 5506 H 525.617 0.640067 -0.398536 0
M  V30 5507 H 528.268 1.08092 -1.48285 0
M  V30 5508 H 526.65 3.70628 -1.39466 0
M  V30 5509 H 527.824 2.39632 -3.9359 0
M  V30 5510 H 526.139 2.29898 -3.47183 0
M  V30 5511 H 528.736 4.82417 -2.30603 0
M  V30 5512 H 529.079 4.09356 -0.757197 0
M  V30 5513 H 529.612 3.28115 -2.24912 0
M  V30 5514 H 526.351 4.06486 -5.14246 0
M  V30 5515 H 525.871 4.80054 -3.59594 0
M  V30 5516 H 527.55 4.94475 -4.17257 0
M  V30 5517 N 527.682 1.05563 1.17022 0
M  V30 5518 C 528.645 0.664098 2.19368 0
M  V30 5519 C 529.645 -0.286358 1.5823 0
M  V30 5520 O 530.835 -0.069728 1.7406 0
M  V30 5521 C 527.967 -0.0239932 3.40892 0
M  V30 5522 H 529.16 1.57 2.55521 0
M  V30 5523 H 526.713 0.849964 1.31169 0
M  V30 5524 H 527.448 -0.942988 3.10287 0
M  V30 5525 H 527.233 0.659351 3.86516 0
M  V30 5526 H 528.723 -0.283909 4.16634 0
M  V30 5527 N 529.16 -1.33526 0.837174 0
M  V30 5528 C 530.092 -2.28077 0.226579 0
M  V30 5529 C 531.105 -1.51666 -0.591717 0
M  V30 5530 O 532.294 -1.73511 -0.419064 0
M  V30 5531 C 529.394 -3.31597 -0.69978 0
M  V30 5532 C 528.567 -4.37329 0.0788067 0
M  V30 5533 C 527.626 -5.20526 -0.770637 0
M  V30 5534 O 526.652 -5.68811 -0.210453 0
M  V30 5535 N 527.854 -5.41639 -2.08825 0
M  V30 5536 H 530.619 -2.81115 1.03897 0
M  V30 5537 H 528.18 -1.46201 0.695476 0
M  V30 5538 H 530.172 -3.84158 -1.27298 0
M  V30 5539 H 528.742 -2.78848 -1.41288 0
M  V30 5540 H 527.962 -3.8529 0.833381 0
M  V30 5541 H 529.25 -5.05079 0.614238 0
M  V30 5542 H 528.648 -5.04108 -2.56693 0
M  V30 5543 H 527.205 -5.97263 -2.60998 0
M  V30 5544 N 530.638 -0.59345 -1.46 0
M  V30 5545 C 532.054 -0.255965 -1.57534 0
M  V30 5546 C 532.254 1.24167 -1.58697 0
M  V30 5547 O 531.31 2.02398 -1.50968 0
M  V30 5548 C 532.623 -0.91466 -2.86451 0
M  V30 5549 C 534.171 -0.889253 -3.00102 0
M  V30 5550 C 534.646 -1.52769 -4.3177 0
M  V30 5551 N 536.137 -1.49253 -4.38495 0
M  V30 5552 C 536.872 -1.9558 -5.39014 0
M  V30 5553 N 536.368 -2.49929 -6.46148 0
M  V30 5554 N 538.161 -1.86432 -5.30282 0
M  V30 5555 H 530.312 -1.56604 -1.43489 0
M  V30 5556 H 532.575 -0.655207 -0.685133 0
M  V30 5557 H 532.281 -1.96861 -2.91442 0
M  V30 5558 H 532.155 -0.429356 -3.74748 0
M  V30 5559 H 534.542 0.156111 -2.94687 0
M  V30 5560 H 534.623 -1.41268 -2.13253 0
M  V30 5561 H 534.267 -2.57231 -4.37944 0
M  V30 5562 H 534.197 -0.979398 -5.17412 0
M  V30 5563 H 536.688 -1.09536 -3.61677 0
M  V30 5564 H 537.001 -2.83109 -7.19075 0
M  V30 5565 H 535.346 -2.53961 -6.46938 0
M  V30 5566 H 538.537 -1.43722 -4.4549 0
M  V30 5567 H 538.71 -2.22852 -6.08474 0
M  V30 5568 N 532.116 1.54067 -0.331816 0
M  V30 5569 C 533.079 2.23275 0.517768 0
M  V30 5570 C 534.079 1.22897 1.03697 0
M  V30 5571 O 535.269 1.47419 0.928084 0
M  V30 5572 C 532.401 2.94326 1.72004 0
M  V30 5573 H 533.594 2.99773 -0.0873507 0
M  V30 5574 H 531.147 1.56079 -0.0830042 0
M  V30 5575 H 531.882 2.21986 2.36417 0
M  V30 5576 H 531.667 3.67941 1.35507 0
M  V30 5577 H 533.157 3.47031 2.32291 0
M  V30 5578 N 533.594 0.0601682 1.57485 0
M  V30 5579 C 534.541 -0.91112 2.12055 0
M  V30 5580 C 535.511 -1.30298 1.03013 0
M  V30 5581 O 536.696 -1.39087 1.30612 0
M  V30 5582 C 533.836 -2.1775 2.67729 0
M  V30 5583 C 532.949 -1.83933 3.90887 0
M  V30 5584 C 532.084 -3.05096 4.34845 0
M  V30 5585 C 531.123 -2.67241 5.5068 0
M  V30 5586 N 530.26 -3.81127 5.8965 0
M  V30 5587 H 535.1 -0.43888 2.9475 0
M  V30 5588 H 532.637 -0.204995 1.45665 0
M  V30 5589 H 534.595 -2.91866 2.98111 0
M  V30 5590 H 533.225 -2.62535 1.87816 0
M  V30 5591 H 532.277 -0.999287 3.6704 0
M  V30 5592 H 533.589 -1.52074 4.75052 0
M  V30 5593 H 532.743 -3.87502 4.66827 0
M  V30 5594 H 531.482 -3.40139 3.49509 0
M  V30 5595 H 530.487 -1.83254 5.18361 0
M  V30 5596 H 531.712 -2.3338 6.37738 0
M  V30 5597 H 529.658 -4.15954 5.07266 0
M  V30 5598 H 529.575 -3.52997 6.68528 0
M  V30 5599 H 530.843 -4.64145 6.2625 0
M  V30 5600 N 535.072 -1.5615 -0.213296 0
M  V30 5601 C 536.019 -1.93086 -1.26437 0
M  V30 5602 C 536.989 -0.789086 -1.4616 0
M  V30 5603 O 538.174 -1.04569 -1.59593 0
M  V30 5604 C 535.314 -2.26003 -2.608 0
M  V30 5605 C 534.427 -3.53156 -2.48807 0
M  V30 5606 C 533.562 -3.7548 -3.7575 0
M  V30 5607 C 532.601 -4.96119 -3.58514 0
M  V30 5608 N 531.738 -5.14791 -4.77425 0
M  V30 5609 H 536.578 -2.82707 -0.942376 0
M  V30 5610 H 534.115 -1.39919 -0.454001 0
M  V30 5611 H 536.073 -2.431 -3.39055 0
M  V30 5612 H 534.703 -1.39546 -2.91079 0
M  V30 5613 H 533.755 -3.44207 -1.61944 0
M  V30 5614 H 535.067 -4.41565 -2.31996 0
M  V30 5615 H 534.221 -3.92718 -4.62447 0
M  V30 5616 H 532.96 -2.85368 -3.95495 0
M  V30 5617 H 531.965 -4.78823 -2.70201 0
M  V30 5618 H 533.19 -5.87724 -3.40231 0
M  V30 5619 H 531.136 -4.27623 -4.97468 0
M  V30 5620 H 531.053 -5.97347 -4.63371 0
M  V30 5621 H 532.321 -5.36471 -5.65525 0
M  V30 5622 N 536.55 0.480323 -1.50102 0
M  V30 5623 C 537.796 1.23489 -1.60867 0
M  V30 5624 C 538.129 1.91809 -0.303827 0
M  V30 5625 O 537.404 1.81694 0.694092 0
M  V30 5626 C 537.687 2.28578 -2.78252 0
M  V30 5627 C 537.54 1.64624 -4.18592 0
M  V30 5628 C 538.859 3.2997 -2.91218 0
M  V30 5629 H 535.978 0.447605 -0.585507 0
M  V30 5630 H 538.62 0.530005 -1.82458 0
M  V30 5631 H 536.77 2.88697 -2.59974 0
M  V30 5632 H 538.442 1.08173 -4.48438 0
M  V30 5633 H 536.685 0.949645 -4.23278 0
M  V30 5634 H 537.356 2.40946 -4.96638 0
M  V30 5635 H 539.832 2.79864 -3.07921 0
M  V30 5636 H 538.708 4.00839 -3.74993 0
M  V30 5637 H 538.969 3.93541 -2.0144 0
M  V30 5638 N 538.028 1.39524 0.732853 0
M  V30 5639 C 539.444 1.21176 1.03868 0
M  V30 5640 C 539.644 0.0748448 2.01361 0
M  V30 5641 O 538.7 -0.57281 2.45917 0
M  V30 5642 C 540.013 2.54667 1.59892 0
M  V30 5643 C 541.561 2.6153 1.71962 0
M  V30 5644 C 542.036 3.95248 2.31394 0
M  V30 5645 N 543.527 3.96899 2.38801 0
M  V30 5646 C 544.262 4.97138 2.85729 0
M  V30 5647 N 543.758 6.07775 3.32537 0
M  V30 5648 N 545.551 4.84516 2.84957 0
M  V30 5649 H 537.702 2.12225 0.086304 0
M  V30 5650 H 539.965 0.942614 0.100907 0
M  V30 5651 H 539.671 3.38423 0.95721 0
M  V30 5652 H 539.545 2.74538 2.58668 0
M  V30 5653 H 541.932 1.78156 2.35254 0
M  V30 5654 H 542.013 2.45507 0.718327 0
M  V30 5655 H 541.657 4.79054 1.68729 0
M  V30 5656 H 541.587 4.08593 3.32204 0
M  V30 5657 H 544.078 3.16998 2.05719 0
M  V30 5658 H 544.391 6.8017 3.66862 0
M  V30 5659 H 542.736 6.11366 3.30541 0
M  V30 5660 H 545.927 3.97185 2.47713 0
M  V30 5661 H 546.1 5.62783 3.21215 0
M  V30 5662 N 539.506 -0.963266 1.24736 0
M  V30 5663 C 540.922 -1.23273 1.01371 0
M  V30 5664 C 541.122 -1.99618 -0.274776 0
M  V30 5665 O 540.178 -2.32293 -0.989769 0
M  V30 5666 C 541.491 -2.01554 2.23152 0
M  V30 5667 C 543.039 -2.14629 2.27823 0
M  V30 5668 C 543.514 -2.96307 3.49237 0
M  V30 5669 N 545.005 -3.03887 3.49581 0
M  V30 5670 C 545.74 -3.67456 4.40186 0
M  V30 5671 N 545.236 -4.32706 5.41052 0
M  V30 5672 N 547.029 -3.64511 4.27888 0
M  V30 5673 H 539.18 -0.452294 2.07528 0
M  V30 5674 H 541.443 -0.262521 0.910926 0
M  V30 5675 H 541.149 -1.52847 3.1675 0
M  V30 5676 H 541.023 -3.02278 2.25628 0
M  V30 5677 H 543.41 -2.62537 1.34753 0
M  V30 5678 H 543.491 -1.13238 2.2937 0
M  V30 5679 H 543.135 -2.49091 4.42624 0
M  V30 5680 H 543.065 -3.97905 3.44933 0
M  V30 5681 H 545.556 -2.57477 2.76611 0
M  V30 5682 H 545.869 -4.79042 6.06415 0
M  V30 5683 H 544.214 -4.31361 5.44934 0
M  V30 5684 H 547.405 -3.12715 3.4832 0
M  V30 5685 H 547.578 -4.13768 4.98698 0
M  V30 5686 N 540.985 -1.06182 -1.16461 0
M  V30 5687 C 542.231 -0.779015 -1.87241 0
M  V30 5688 C 542.564 0.692715 -1.81425 0
M  V30 5689 O 541.839 1.5074 -1.22913 0
M  V30 5690 C 542.122 -1.2728 -3.36856 0
M  V30 5691 C 541.975 -2.80821 -3.51368 0
M  V30 5692 C 543.294 -0.879799 -4.31216 0
M  V30 5693 H 540.413 -0.284464 -0.679889 0
M  V30 5694 H 543.055 -1.31755 -1.36896 0
M  V30 5695 H 541.205 -0.814673 -3.79862 0
M  V30 5696 H 542.877 -3.34833 -3.17308 0
M  V30 5697 H 541.12 -3.19606 -2.93316 0
M  V30 5698 H 541.791 -3.10435 -4.56436 0
M  V30 5699 H 544.267 -1.27436 -3.96105 0
M  V30 5700 H 543.143 -1.25278 -5.34412 0
M  V30 5701 H 543.404 0.215372 -4.41575 0
M  V30 5702 N 542.463 1.3308 -0.844243 0
M  V30 5703 C 543.874 1.7992 -0.498566 0
M  V30 5704 C 544.225 1.69808 0.982834 0
M  V30 5705 O 543.35 1.25051 1.7661 0
M  V30 5706 C 543.945 3.26677 -0.898204 0
M  V30 5707 C 542.504 3.71513 -0.604583 0
M  V30 5708 C 541.651 2.54393 -1.10362 0
M  V30 5709 H 544.602 1.20526 -1.03244 0
M  V30 5710 H 544.623 3.79918 -0.21039 0
M  V30 5711 H 544.135 3.34004 -1.97643 0
M  V30 5712 H 542.236 3.69708 0.46335 0
M  V30 5713 H 542.349 4.64755 -1.16358 0
M  V30 5714 H 540.713 2.49246 -0.524273 0
M  V30 5715 H 541.496 2.6448 -2.18873 0
M  V30 5716 N 543.941 0.601185 1.45683 0
M  V30 5717 C 545.189 0.0936957 2.01883 0
M  V30 5718 C 545.51 -1.2779 1.47291 0
M  V30 5719 O 544.78 -1.84279 0.664691 0
M  V30 5720 H 543.36 0.0316466 0.746329 0
M  V30 5721 H 546.022 0.781137 1.78562 0
M  V30 5722 H 545.118 0.0386297 3.12076 0
M  V30 5723 N 545.419 -1.53889 0.339982 0
M  V30 5724 C 546.644 -2.05741 -0.261798 0
M  V30 5725 C 547.069 -1.21354 -1.43718 0
M  V30 5726 O 546.427 -0.22645 -1.7988 0
M  V30 5727 C 546.475 -3.54542 -0.658228 0
M  V30 5728 O 545.579 -3.7302 -1.75869 0
M  V30 5729 H 544.92 -0.662529 -0.0441672 0
M  V30 5730 H 547.45 -1.98568 0.493161 0
M  V30 5731 H 547.46 -3.9711 -0.936368 0
M  V30 5732 H 546.135 -4.15412 0.201358 0
M  V30 5733 H 544.712 -3.42355 -1.47809 0
M  V30 5734 N 546.897 -0.0685191 -1.57451 0
M  V30 5735 C 548.122 0.613919 -1.98106 0
M  V30 5736 C 548.547 1.62551 -0.946501 0
M  V30 5737 O 547.905 1.81085 0.0882824 0
M  V30 5738 C 547.953 1.26189 -3.378 0
M  V30 5739 O 547.057 2.37773 -3.36954 0
M  V30 5740 H 546.398 0.158163 -0.644888 0
M  V30 5741 H 548.928 -0.142063 -2.04106 0
M  V30 5742 H 548.938 1.60951 -3.74912 0
M  V30 5743 H 547.613 0.520625 -4.12629 0
M  V30 5744 H 546.19 2.04829 -3.11608 0
M  V30 5745 N 548.375 1.56261 0.205012 0
M  V30 5746 C 549.623 1.79684 0.925096 0
M  V30 5747 C 549.944 0.63989 1.84202 0
M  V30 5748 O 549.214 -0.342345 1.92885 0
M  V30 5749 H 547.794 0.662774 0.344587 0
M  V30 5750 H 550.456 1.93734 0.212899 0
M  V30 5751 H 549.552 2.72467 1.52211 0
M  V30 5752 N 549.853 -0.472356 1.50355 0
M  V30 5753 C 550.803 -1.56809 1.65514 0
M  V30 5754 C 551.787 -1.5261 0.509801 0
M  V30 5755 O 552.979 -1.59655 0.764145 0
M  V30 5756 C 550.108 -2.9526 1.75146 0
M  V30 5757 C 549.194 -3.04348 2.95353 0
M  V30 5758 N 549.585 -2.83253 4.19048 0
M  V30 5759 C 547.883 -3.35482 2.93884 0
M  V30 5760 C 548.584 -2.97273 5.00003 0
M  V30 5761 N 547.56 -3.27418 4.33934 0
M  V30 5762 H 551.362 -1.39197 2.58846 0
M  V30 5763 H 548.876 -0.67906 1.47521 0
M  V30 5764 H 550.873 -3.74044 1.8411 0
M  V30 5765 H 549.533 -3.1392 0.829717 0
M  V30 5766 H 550.544 -2.5886 4.48567 0
M  V30 5767 H 547.221 -3.60138 2.11204 0
M  V30 5768 H 548.611 -2.85214 6.08361 0
M  V30 5769 N 551.331 -1.39911 -0.725443 0
M  V30 5770 C 552.261 -1.42138 -1.85254 0
M  V30 5771 C 553.242 -0.283513 -1.67721 0
M  V30 5772 O 554.427 -0.490717 -1.87898 0
M  V30 5773 C 551.557 -1.27354 -3.23107 0
M  V30 5774 C 550.511 -2.3864 -3.55296 0
M  V30 5775 C 549.837 -2.08939 -4.92188 0
M  V30 5776 C 551.137 -3.8097 -3.57295 0
M  V30 5777 H 552.831 -2.36461 -1.83648 0
M  V30 5778 H 550.377 -1.13817 -0.882138 0
M  V30 5779 H 552.33 -1.2753 -4.01639 0
M  V30 5780 H 551.054 -0.295025 -3.25265 0
M  V30 5781 H 549.713 -2.37696 -2.79099 0
M  V30 5782 H 549.361 -1.09502 -4.90936 0
M  V30 5783 H 549.061 -2.83491 -5.14691 0
M  V30 5784 H 550.585 -2.10781 -5.73065 0
M  V30 5785 H 551.999 -3.8379 -4.25885 0
M  V30 5786 H 550.396 -4.5496 -3.9132 0
M  V30 5787 H 551.466 -4.11261 -2.5689 0
M  V30 5788 N 552.809 0.956637 -1.25245 0
M  V30 5789 C 553.759 2.03841 -1.02141 0
M  V30 5790 C 554.743 1.60848 0.0410058 0
M  V30 5791 O 555.935 1.76142 -0.174084 0
M  V30 5792 C 553.064 3.37282 -0.639963 0
M  V30 5793 C 552.15 3.86805 -1.73903 0
M  V30 5794 N 552.541 4.09143 -2.97381 0
M  V30 5795 C 550.839 4.15574 -1.61909 0
M  V30 5796 C 551.54 4.49923 -3.68707 0
M  V30 5797 N 550.516 4.55737 -2.96318 0
M  V30 5798 H 554.318 2.19102 -1.95886 0
M  V30 5799 H 551.832 1.1413 -1.15534 0
M  V30 5800 H 553.829 4.14403 -0.455643 0
M  V30 5801 H 552.489 3.23401 0.29018 0
M  V30 5802 H 553.5 3.96275 -3.33447 0
M  V30 5803 H 550.177 4.10566 -0.757764 0
M  V30 5804 H 551.567 4.75526 -4.74684 0
M  V30 5805 N 554.287 1.06798 1.15896 0
M  V30 5806 C 555.234 0.683314 2.20453 0
M  V30 5807 C 556.204 -0.32255 1.62938 0
M  V30 5808 O 557.389 -0.210276 1.89638 0
M  V30 5809 C 554.529 0.0813266 3.45004 0
M  V30 5810 C 553.642 1.13799 4.16742 0
M  V30 5811 C 552.777 0.501598 5.28826 0
M  V30 5812 C 551.816 1.54144 5.92373 0
M  V30 5813 N 550.953 0.928038 6.9594 0
M  V30 5814 H 555.793 1.57932 2.52708 0
M  V30 5815 H 553.33 0.789544 1.24115 0
M  V30 5816 H 555.288 -0.285274 4.16224 0
M  V30 5817 H 553.918 -0.77806 3.13283 0
M  V30 5818 H 552.97 1.62223 3.44075 0
M  V30 5819 H 554.282 1.92664 4.60089 0
M  V30 5820 H 553.436 0.0823162 6.06644 0
M  V30 5821 H 552.175 -0.318883 4.86656 0
M  V30 5822 H 551.18 1.97056 5.13273 0
M  V30 5823 H 552.405 2.3641 6.36621 0
M  V30 5824 H 550.351 0.12836 6.55874 0
M  V30 5825 H 550.268 1.65401 7.37685 0
M  V30 5826 H 551.536 0.534071 7.77668 0
M  V30 5827 N 555.766 -1.3263 0.851289 0
M  V30 5828 C 556.994 -2.01563 0.466899 0
M  V30 5829 C 557.409 -1.63996 -0.935447 0
M  V30 5830 O 556.766 -0.85957 -1.6099 0
M  V30 5831 C 556.817 -3.56613 0.592433 0
M  V30 5832 O 556.538 -3.92828 1.93954 0
M  V30 5833 C 558.039 -4.42818 0.206612 0
M  V30 5834 H 555.259 -0.645307 0.183902 0
M  V30 5835 H 557.803 -1.69285 1.1473 0
M  V30 5836 H 555.958 -3.87379 -0.0401936 0
M  V30 5837 H 556.372 -4.87545 1.9339 0
M  V30 5838 H 557.846 -5.50918 0.345462 0
M  V30 5839 H 558.323 -4.30844 -0.85264 0
M  V30 5840 H 558.929 -4.17434 0.814176 0
M  V30 5841 N 557.244 -0.608902 -1.45362 0
M  V30 5842 C 558.154 0.110969 -2.34337 0
M  V30 5843 C 559.17 0.859007 -1.51318 0
M  V30 5844 O 560.346 0.816296 -1.84116 0
M  V30 5845 C 557.411 1.09494 -3.28956 0
M  V30 5846 C 556.472 0.348718 -4.27881 0
M  V30 5847 C 555.705 1.28582 -5.17979 0
M  V30 5848 O 555.928 2.52369 -5.11533 0
M  V30 5849 O 554.862 0.782172 -5.96796 0
M  V30 5850 H 558.688 -0.620258 -2.97299 0
M  V30 5851 H 556.273 -0.36916 -1.44767 0
M  V30 5852 H 558.155 1.66163 -3.87257 0
M  V30 5853 H 556.83 1.80717 -2.68557 0
M  V30 5854 H 555.737 -0.260465 -3.73192 0
M  V30 5855 H 557.07 -0.323049 -4.91139 0
M  V30 5856 N 558.722 1.53707 -0.348139 0
M  V30 5857 C 559.999 1.93247 0.302475 0
M  V30 5858 C 560.379 1.28012 1.67857 0
M  V30 5859 O 559.727 0.43274 2.24365 0
M  V30 5860 C 559.937 3.47031 0.370159 0
M  V30 5861 C 561.285 4.20066 0.61882 0
M  V30 5862 O 562.309 3.53319 0.452087 0
M  V30 5863 O 561.168 5.38318 0.94215 0
M  V30 5864 H 558.262 0.807736 0.177458 0
M  V30 5865 H 560.808 1.64927 -0.399651 0
M  V30 5866 H 559.58 3.86745 -0.59534 0
M  V30 5867 H 559.203 3.81532 1.11888 0
M  V30 5868 N 560.2 0.0768682 1.57412 0
M  V30 5869 C 561.448 -0.589918 1.93299 0
M  V30 5870 C 561.769 -1.69842 0.958049 0
M  V30 5871 O 561.039 -1.95899 0.00703261 0
M  V30 5872 H 559.619 -0.220901 0.713591 0
M  V30 5873 H 562.281 0.135917 1.94425 0
M  V30 5874 H 561.377 -1.01195 2.95239 0
M  V30 5875 N 561.678 -1.56367 -0.196722 0
M  V30 5876 C 562.955 -1.71359 -0.943159 0
M  V30 5877 C 563.335 -0.631192 -2.01443 0
M  V30 5878 O 562.683 0.358071 -2.25677 0
M  V30 5879 C 562.893 -3.13623 -1.53106 0
M  V30 5880 C 564.241 -3.73806 -2.01381 0
M  V30 5881 O 565.265 -3.16742 -1.62951 0
M  V30 5882 O 564.124 -4.73951 -2.7209 0
M  V30 5883 H 561.218 -0.698851 -0.442195 0
M  V30 5884 H 563.764 -1.68672 -0.186547 0
M  V30 5885 H 562.536 -3.83873 -0.758785 0
M  V30 5886 H 562.159 -3.20532 -2.35255 0
M  V30 5887 N 563.156 0.464375 -1.50603 0
M  V30 5888 C 564.402 1.21485 -1.63135 0
M  V30 5889 C 564.757 1.89538 -0.33063 0
M  V30 5890 O 564.05 1.79432 0.671903 0
M  V30 5891 C 564.244 2.278 -2.75394 0
M  V30 5892 C 564.073 1.70178 -4.16257 0
M  V30 5893 C 562.843 1.49854 -4.82568 0
M  V30 5894 C 565.041 1.19298 -5.00272 0
M  V30 5895 N 563.023 0.875458 -6.07626 0
M  V30 5896 C 564.394 0.693527 -6.16109 0
M  V30 5897 C 566.449 1.08216 -4.85998 0
M  V30 5898 C 565.152 0.0941808 -7.19238 0
M  V30 5899 C 567.178 0.496745 -5.8931 0
M  V30 5900 C 566.54 0.00770448 -7.044 0
M  V30 5901 H 562.639 0.433184 -0.651057 0
M  V30 5902 H 565.223 0.515748 -1.87745 0
M  V30 5903 H 563.394 2.95129 -2.52495 0
M  V30 5904 H 565.126 2.94814 -2.77249 0
M  V30 5905 H 561.881 1.75269 -4.39975 0
M  V30 5906 H 562.305 0.582135 -6.74493 0
M  V30 5907 H 566.947 1.44617 -3.97298 0
M  V30 5908 H 564.665 -0.28202 -8.07608 0
M  V30 5909 H 568.251 0.413275 -5.8033 0
M  V30 5910 H 567.131 -0.438188 -7.82975 0
M  V30 5911 N 564.634 1.40294 0.718013 0
M  V30 5912 C 565.544 1.42678 1.86226 0
M  V30 5913 C 566.56 0.319655 1.71039 0
M  V30 5914 O 567.736 0.563852 1.93346 0
M  V30 5915 C 564.801 1.2852 3.21999 0
M  V30 5916 C 563.862 2.49354 3.49458 0
M  V30 5917 C 563.095 2.35863 4.78753 0
M  V30 5918 O 563.318 1.37114 5.53675 0
M  V30 5919 O 562.252 3.25189 5.06494 0
M  V30 5920 H 566.078 2.39167 1.87171 0
M  V30 5921 H 563.663 1.2159 0.868112 0
M  V30 5922 H 565.545 1.22824 4.03103 0
M  V30 5923 H 564.22 0.351359 3.21787 0
M  V30 5924 H 563.127 2.60628 2.68373 0
M  V30 5925 H 564.46 3.41491 3.54464 0
M  V30 5926 N 566.112 -0.949982 1.2575 0
M  V30 5927 C 567.358 -1.69822 1.11947 0
M  V30 5928 C 567.713 -1.89455 -0.335334 0
M  V30 5929 O 567.006 -1.45778 -1.24336 0
M  V30 5930 C 567.2 -3.08039 1.81237 0
M  V30 5931 C 567.029 -3.0189 3.33305 0
M  V30 5932 C 565.799 -3.05391 4.02573 0
M  V30 5933 C 567.997 -2.827 4.29634 0
M  V30 5934 N 565.979 -2.89449 5.4138 0
M  V30 5935 C 567.35 -2.75237 5.55558 0
M  V30 5936 C 569.405 -2.67416 4.19992 0
M  V30 5937 C 568.108 -2.54051 6.72942 0
M  V30 5938 C 570.134 -2.47602 5.37073 0
M  V30 5939 C 569.496 -2.40863 6.6194 0
M  V30 5940 H 565.595 -0.629188 0.464378 0
M  V30 5941 H 568.179 -1.1249 1.58916 0
M  V30 5942 H 566.35 -3.63528 1.36756 0
M  V30 5943 H 568.082 -3.71671 1.60134 0
M  V30 5944 H 564.837 -3.14763 3.53866 0
M  V30 5945 H 565.261 -2.84669 6.14241 0
M  V30 5946 H 569.903 -2.71398 3.24196 0
M  V30 5947 H 567.621 -2.48811 7.68842 0
M  V30 5948 H 571.207 -2.36694 5.31477 0
M  V30 5949 H 570.087 -2.25732 7.51009 0
M  V30 5950 N 567.59 -1.07411 -1.15328 0
M  V30 5951 C 568.815 -0.818856 -1.90551 0
M  V30 5952 C 569.24 0.622194 -1.77512 0
M  V30 5953 O 568.598 1.43484 -1.10824 0
M  V30 5954 C 568.646 -1.23267 -3.38877 0
M  V30 5955 O 567.75 -0.378345 -4.10661 0
M  V30 5956 H 567.091 -0.29827 -0.593238 0
M  V30 5957 H 569.621 -1.43289 -1.46046 0
M  V30 5958 H 569.631 -1.20912 -3.89672 0
M  V30 5959 H 568.306 -2.28226 -3.47686 0
M  V30 5960 H 566.883 -0.464437 -3.69996 0
M  V30 5961 N 569.068 1.32177 -0.85831 0
M  V30 5962 C 570.345 1.91781 -0.384624 0
M  V30 5963 C 570.725 1.78171 1.13217 0
M  V30 5964 O 570.073 1.18209 1.95548 0
M  V30 5965 C 570.283 3.38414 -0.853047 0
M  V30 5966 C 571.631 4.15542 -0.872359 0
M  V30 5967 O 572.655 3.47148 -0.797926 0
M  V30 5968 O 571.514 5.37678 -0.978009 0
M  V30 5969 H 568.608 0.819259 -0.112886 0
M  V30 5970 H 571.154 1.40923 -0.945453 0
M  V30 5971 H 569.926 3.4228 -1.89632 0
M  V30 5972 H 569.549 3.96683 -0.269874 0
M  V30 5973 N 570.547 0.616602 1.45037 0
M  V30 5974 C 571.824 0.0469086 1.95544 0
M  V30 5975 C 572.204 -1.42345 1.55888 0
M  V30 5976 O 571.552 -2.13055 0.825824 0
M  V30 5977 C 571.762 0.254489 3.48071 0
M  V30 5978 C 573.11 0.140025 4.24369 0
M  V30 5979 O 574.134 0.185084 3.55719 0
M  V30 5980 O 572.993 0.0327034 5.4649 0
M  V30 5981 H 570.087 -0.0306051 0.826433 0
M  V30 5982 H 572.633 0.687293 1.55159 0
M  V30 5983 H 571.405 1.27532 3.69934 0
M  V30 5984 H 571.028 -0.42073 3.95368 0
M  V30 5985 N 572.025 -1.5352 0.356285 0
M  V30 5986 C 572.935 -2.29151 -0.502712 0
M  V30 5987 C 573.951 -1.34753 -1.1008 0
M  V30 5988 O 575.127 -1.67803 -1.11374 0
M  V30 5989 C 572.192 -3.05911 -1.63154 0
M  V30 5990 C 571.253 -4.15958 -1.06194 0
M  V30 5991 C 570.486 -4.8905 -2.13696 0
M  V30 5992 O 570.709 -4.61919 -3.34645 0
M  V30 5993 O 569.643 -5.75202 -1.77275 0
M  V30 5994 H 573.469 -3.03492 0.112466 0
M  V30 5995 H 571.054 -1.4891 0.120942 0
M  V30 5996 H 572.936 -3.53874 -2.28804 0
M  V30 5997 H 571.611 -2.34415 -2.23229 0
M  V30 5998 H 570.518 -3.7227 -0.369603 0
M  V30 5999 H 571.851 -4.89593 -0.505872 0
M  V30 6000 N 573.503 -0.0852151 -1.57369 0
M  V30 6001 C 574.436 0.913608 -2.09113 0
M  V30 6002 C 575.414 1.28264 -0.999358 0
M  V30 6003 O 576.598 1.3896 -1.27367 0
M  V30 6004 C 573.725 2.21777 -2.55993 0
M  V30 6005 C 572.771 1.99932 -3.76735 0
M  V30 6006 S 573.604 1.24637 -5.20794 0
M  V30 6007 C 574.76 2.56304 -5.71016 0
M  V30 6008 H 574.993 0.473369 -2.93507 0
M  V30 6009 H 572.526 0.127856 -1.5387 0
M  V30 6010 H 574.484 2.96726 -2.83662 0
M  V30 6011 H 573.145 2.62923 -1.71843 0
M  V30 6012 H 572.338 2.96482 -4.07571 0
M  V30 6013 H 571.94 1.33116 -3.49509 0
M  V30 6014 H 574.232 3.5233 -5.78679 0
M  V30 6015 H 575.175 2.3006 -6.69685 0
M  V30 6016 H 575.583 2.64125 -4.98897 0
M  V30 6017 N 574.981 1.5647 0.188427 0
M  V30 6018 C 576.258 1.71857 0.934058 0
M  V30 6019 C 576.638 0.641867 2.01105 0
M  V30 6020 O 575.986 -0.346098 2.25864 0
M  V30 6021 C 576.196 3.14431 1.5144 0
M  V30 6022 C 577.544 3.74869 1.99396 0
M  V30 6023 O 578.568 3.17601 1.61269 0
M  V30 6024 O 577.427 4.75387 2.69573 0
M  V30 6025 H 574.521 0.701186 0.438483 0
M  V30 6026 H 577.067 1.68768 0.177599 0
M  V30 6027 H 575.839 3.8427 0.738416 0
M  V30 6028 H 575.462 3.21775 2.33552 0
M  V30 6029 N 576.459 -0.456382 1.50847 0
M  V30 6030 C 577.369 -1.57805 1.73594 0
M  V30 6031 C 578.385 -1.62599 0.619476 0
M  V30 6032 O 579.561 -1.80195 0.899532 0
M  V30 6033 C 576.626 -2.93926 1.8387 0
M  V30 6034 C 575.687 -2.99402 3.07663 0
M  V30 6035 C 574.92 -4.29031 3.1744 0
M  V30 6036 O 575.143 -5.20358 2.33631 0
M  V30 6037 O 574.077 -4.40401 4.10281 0
M  V30 6038 H 577.903 -1.41531 2.68705 0
M  V30 6039 H 575.488 -0.637422 1.3512 0
M  V30 6040 H 577.37 -3.74747 1.92725 0
M  V30 6041 H 576.045 -3.10368 0.91944 0
M  V30 6042 H 574.952 -2.17606 3.043 0
M  V30 6043 H 576.285 -2.87901 3.99216 0
M  V30 6044 N 577.937 -1.40673 -0.710563 0
M  V30 6045 C 578.884 -1.41336 -1.82463 0
M  V30 6046 C 579.854 -0.269648 -1.63897 0
M  V30 6047 O 581.039 -0.468463 -1.8496 0
M  V30 6048 C 578.179 -1.28665 -3.20218 0
M  V30 6049 C 577.292 -2.52784 -3.5032 0
M  V30 6050 C 576.427 -2.32517 -4.77608 0
M  V30 6051 C 575.466 -3.52187 -5.0063 0
M  V30 6052 N 574.603 -3.31084 -6.19135 0
M  V30 6053 H 579.443 -2.36558 -1.8123 0
M  V30 6054 H 576.98 -1.17483 -0.885226 0
M  V30 6055 H 578.938 -1.19324 -3.99772 0
M  V30 6056 H 577.568 -0.370602 -3.20666 0
M  V30 6057 H 576.62 -2.72634 -2.65283 0
M  V30 6058 H 577.932 -3.41845 -3.63241 0
M  V30 6059 H 577.086 -2.20558 -5.65189 0
M  V30 6060 H 575.825 -1.40889 -4.66906 0
M  V30 6061 H 574.83 -3.64617 -4.11502 0
M  V30 6062 H 576.055 -4.44749 -5.13201 0
M  V30 6063 H 574.001 -2.42143 -6.09674 0
M  V30 6064 H 573.918 -4.13713 -6.32754 0
M  V30 6065 H 575.186 -3.22868 -7.0949 0
M  V30 6066 N 579.415 0.9433 -1.26252 0
M  V30 6067 C 580.64 1.72898 -1.14547 0
M  V30 6068 C 581.065 1.85761 0.295743 0
M  V30 6069 O 580.423 1.3463 1.21427 0
M  V30 6070 C 580.471 3.11471 -1.8171 0
M  V30 6071 O 579.575 3.97336 -1.10445 0
M  V30 6072 H 578.916 0.530555 -0.399259 0
M  V30 6073 H 581.446 1.18159 -1.67032 0
M  V30 6074 H 581.456 3.61872 -1.88449 0
M  V30 6075 H 580.131 3.01425 -2.86558 0
M  V30 6076 H 578.708 3.55788 -1.11666 0
M  V30 6077 N 580.893 1.08022 1.14757 0
M  V30 6078 C 581.803 0.718292 2.23333 0
M  V30 6079 C 582.819 -0.273477 1.71837 0
M  V30 6080 O 583.995 -0.118406 2.01052 0
M  V30 6081 C 581.06 0.128855 3.4646 0
M  V30 6082 C 580.121 1.17473 4.12915 0
M  V30 6083 C 579.354 0.61333 5.30164 0
M  V30 6084 O 579.577 -0.568458 5.6756 0
M  V30 6085 O 578.511 1.3615 5.86299 0
M  V30 6086 H 582.337 1.62394 2.56636 0
M  V30 6087 H 579.922 0.853628 1.22611 0
M  V30 6088 H 581.804 -0.197249 4.20938 0
M  V30 6089 H 580.479 -0.750014 3.14891 0
M  V30 6090 H 579.386 1.5533 3.40328 0
M  V30 6091 H 580.719 2.02574 4.48581 0
M  V30 6092 N 582.371 -1.3172 0.865308 0
M  V30 6093 C 583.281 -2.32394 0.320935 0
M  V30 6094 C 584.297 -1.64511 -0.566746 0
M  V30 6095 O 585.473 -1.95969 -0.464575 0
M  V30 6096 C 582.538 -3.43462 -0.472701 0
M  V30 6097 C 581.599 -4.27015 0.442385 0
M  V30 6098 C 580.832 -5.32779 -0.313469 0
M  V30 6099 O 581.055 -5.49158 -1.54214 0
M  V30 6100 O 579.989 -6.01015 0.326257 0
M  V30 6101 H 583.815 -2.80868 1.15528 0
M  V30 6102 H 581.4 -1.35535 0.628545 0
M  V30 6103 H 583.282 -4.11172 -0.922781 0
M  V30 6104 H 581.957 -2.97159 -1.28367 0
M  V30 6105 H 580.864 -3.62075 0.940866 0
M  V30 6106 H 582.197 -4.76871 1.21882 0
M  V30 6107 N 583.85 -0.624285 -1.44708 0
M  V30 6108 C 585.098 -0.125802 -2.01708 0
M  V30 6109 C 585.418 1.2543 -1.49306 0
M  V30 6110 O 584.689 1.83198 -0.693924 0
M  V30 6111 H 583.269 -0.0435161 -0.745731 0
M  V30 6112 H 585.931 -0.809446 -1.77296 0
M  V30 6113 H 585.027 -0.0882734 -3.11975 0
M  V30 6114 N 585.328 1.53329 -0.364422 0
M  V30 6115 C 586.275 2.25698 0.482607 0
M  V30 6116 C 587.245 1.26325 1.07848 0
M  V30 6117 O 588.43 1.55104 1.11119 0
M  V30 6118 C 585.57 3.04873 1.61699 0
M  V30 6119 C 584.683 4.19135 1.0464 0
M  V30 6120 C 583.818 4.85754 2.14979 0
M  V30 6121 C 582.857 5.9205 1.5538 0
M  V30 6122 N 581.994 6.52365 2.59547 0
M  V30 6123 H 586.834 2.97666 -0.141032 0
M  V30 6124 H 584.371 1.46875 -0.0813692 0
M  V30 6125 H 586.329 3.49051 2.28516 0
M  V30 6126 H 584.959 2.35162 2.2113 0
M  V30 6127 H 584.011 3.79451 0.268553 0
M  V30 6128 H 585.323 4.95525 0.570653 0
M  V30 6129 H 584.477 5.3311 2.89619 0
M  V30 6130 H 583.216 4.08834 2.65906 0
M  V30 6131 H 582.221 5.44058 0.792549 0
M  V30 6132 H 583.446 6.7089 1.0528 0
M  V30 6133 H 581.392 5.78298 3.09689 0
M  V30 6134 H 581.309 7.2429 2.16655 0
M  V30 6135 H 582.577 7.0437 3.33892 0
M  V30 6136 N 586.806 0.0935595 1.57322 0
M  V30 6137 C 587.769 -0.851426 2.12799 0
M  V30 6138 C 588.769 -1.21187 1.0569 0
M  V30 6139 O 589.959 -1.14156 1.31583 0
M  V30 6140 C 587.091 -2.14779 2.64731 0
M  V30 6141 H 588.284 -0.369733 2.97612 0
M  V30 6142 H 585.837 -0.155417 1.55525 0
M  V30 6143 H 586.572 -2.67437 1.83434 0
M  V30 6144 H 586.357 -1.89907 3.43042 0
M  V30 6145 H 587.847 -2.82383 3.07651 0
M  V30 6146 N 588.284 -1.56567 -0.180126 0
M  V30 6147 C 589.247 -1.94852 -1.20686 0
M  V30 6148 C 590.247 -0.831212 -1.3765 0
M  V30 6149 O 591.437 -1.09841 -1.35206 0
M  V30 6150 C 588.569 -2.23565 -2.57355 0
M  V30 6151 H 589.762 -2.86722 -0.879225 0
M  V30 6152 H 587.315 -1.50489 -0.422237 0
M  V30 6153 H 588.05 -1.34381 -2.95148 0
M  V30 6154 H 587.835 -3.04999 -2.46411 0
M  V30 6155 H 589.325 -2.54137 -3.31367 0
M  V30 6156 N 589.762 0.448376 -1.51087 0
M  V30 6157 C 591.009 1.19872 -1.63209 0
M  V30 6158 C 591.337 1.91451 -0.343062 0
M  V30 6159 O 590.592 1.83789 0.672321 0
M  V30 6160 C 590.891 2.24866 -2.77795 0
M  V30 6161 C 590.557 1.70378 -4.17471 0
M  V30 6162 C 589.219 1.55241 -4.55471 0
M  V30 6163 C 591.571 1.30203 -5.04675 0
M  V30 6164 C 588.899 0.983844 -5.78392 0
M  V30 6165 C 591.251 0.747798 -6.28165 0
M  V30 6166 C 589.915 0.583233 -6.64947 0
M  V30 6167 H 589.185 0.438642 -0.597222 0
M  V30 6168 H 591.832 0.49136 -1.85089 0
M  V30 6169 H 590.137 3.01598 -2.50092 0
M  V30 6170 H 591.834 2.82723 -2.84374 0
M  V30 6171 H 588.424 1.83134 -3.87505 0
M  V30 6172 H 592.608 1.40723 -4.75932 0
M  V30 6173 H 587.864 0.844007 -6.05546 0
M  V30 6174 H 592.038 0.427927 -6.95084 0
M  V30 6175 H 589.665 0.140532 -7.6007 0
M  V30 6176 N 591.24 1.41047 0.703093 0
M  V30 6177 C 592.465 1.43537 1.49706 0
M  V30 6178 C 592.89 0.0401853 1.88057 0
M  V30 6179 O 592.248 -0.954785 1.54122 0
M  V30 6180 C 592.296 2.3433 2.74084 0
M  V30 6181 O 591.4 1.79515 3.71279 0
M  V30 6182 H 590.741 0.487454 0.450871 0
M  V30 6183 H 593.271 1.85422 0.86486 0
M  V30 6184 H 593.281 2.49947 3.22476 0
M  V30 6185 H 591.956 3.35708 2.45506 0
M  V30 6186 H 590.533 1.7331 3.30179 0
M  V30 6187 N 592.718 -0.936591 1.26751 0
M  V30 6188 C 593.65 -2.03991 1.045 0
M  V30 6189 C 594.663 -1.628 0.00394261 0
M  V30 6190 O 595.852 -1.76817 0.244526 0
M  V30 6191 C 592.952 -3.34218 0.561403 0
M  V30 6192 C 592.125 -4.04151 1.67274 0
M  V30 6193 C 591.184 -5.12651 1.1864 0
M  V30 6194 O 590.21 -5.37104 1.88437 0
M  V30 6195 N 591.412 -5.80488 0.037278 0
M  V30 6196 H 594.177 -2.23644 1.99508 0
M  V30 6197 H 591.738 -1.10638 1.18198 0
M  V30 6198 H 593.73 -4.04101 0.220136 0
M  V30 6199 H 592.3 -3.11203 -0.295211 0
M  V30 6200 H 591.52 -3.28121 2.18472 0
M  V30 6201 H 592.808 -4.47626 2.41885 0
M  V30 6202 H 592.206 -5.63064 -0.545494 0
M  V30 6203 H 590.763 -6.5134 -0.244877 0
M  V30 6204 N 594.196 -1.08629 -1.14182 0
M  V30 6205 C 595.106 -0.730126 -2.22949 0
M  V30 6206 C 596.122 0.26436 -1.7198 0
M  V30 6207 O 597.298 0.107742 -2.01112 0
M  V30 6208 C 594.363 -0.147227 -3.46387 0
M  V30 6209 C 593.424 -1.19662 -4.12286 0
M  V30 6210 C 592.657 -0.641437 -5.29831 0
M  V30 6211 O 592.88 0.538351 -5.67854 0
M  V30 6212 O 591.814 -1.39257 -5.85569 0
M  V30 6213 H 595.64 -1.63753 -2.55771 0
M  V30 6214 H 593.225 -0.860118 -1.22157 0
M  V30 6215 H 595.107 0.174923 -4.21037 0
M  V30 6216 H 593.782 0.733304 -3.15285 0
M  V30 6217 H 592.689 -1.57133 -3.395 0
M  V30 6218 H 594.022 -2.0495 -4.475 0
M  V30 6219 N 595.674 1.31259 -0.872281 0
M  V30 6220 C 596.621 2.28459 -0.327857 0
M  V30 6221 C 597.591 1.55831 0.574957 0
M  V30 6222 O 598.776 1.83965 0.506101 0
M  V30 6223 C 595.916 3.41985 0.462644 0
M  V30 6224 C 595.029 4.29458 -0.467949 0
M  V30 6225 C 594.164 5.30131 0.336903 0
M  V30 6226 C 593.203 6.0925 -0.58997 0
M  V30 6227 N 592.34 7.01872 0.178775 0
M  V30 6228 H 597.18 2.74414 -1.16193 0
M  V30 6229 H 594.717 1.34994 -0.584376 0
M  V30 6230 H 596.675 4.06547 0.936759 0
M  V30 6231 H 595.305 2.97134 1.2614 0
M  V30 6232 H 594.357 3.65318 -1.06052 0
M  V30 6233 H 595.669 4.84677 -1.17856 0
M  V30 6234 H 594.823 6.0038 0.873427 0
M  V30 6235 H 593.562 4.75573 1.08079 0
M  V30 6236 H 592.567 5.37889 -1.13823 0
M  V30 6237 H 593.792 6.65894 -1.33275 0
M  V30 6238 H 591.738 6.49721 0.905435 0
M  V30 6239 H 591.655 7.54522 -0.472452 0
M  V30 6240 H 592.923 7.76382 0.696454 0
M  V30 6241 N 597.152 0.631951 1.44375 0
M  V30 6242 C 598.377 0.142146 2.06912 0
M  V30 6243 C 598.802 -1.17456 1.4692 0
M  V30 6244 O 598.16 -1.72074 0.570975 0
M  V30 6245 C 598.208 0.0417952 3.60576 0
M  V30 6246 O 597.312 -1.00194 4.00044 0
M  V30 6247 H 596.653 0.0851491 0.658518 0
M  V30 6248 H 599.183 0.868863 1.85235 0
M  V30 6249 H 599.193 -0.148517 4.0773 0
M  V30 6250 H 597.868 1.0031 4.03622 0
M  V30 6251 H 596.445 -0.786131 3.64519 0
M  V30 6252 N 598.631 -1.53133 0.372548 0
M  V30 6253 C 600.047 -1.59585 0.02178 0
M  V30 6254 C 600.247 -1.38736 -1.46132 0
M  V30 6255 O 599.303 -1.19599 -2.22379 0
M  V30 6256 C 600.616 -2.9678 0.483959 0
M  V30 6257 C 602.164 -3.09909 0.438775 0
M  V30 6258 C 602.639 -4.49527 0.876876 0
M  V30 6259 N 604.13 -4.55663 0.832214 0
M  V30 6260 C 604.865 -5.61896 1.14281 0
M  V30 6261 N 604.361 -6.75852 1.52303 0
M  V30 6262 N 606.154 -5.51916 1.06515 0
M  V30 6263 H 598.305 -1.64936 1.33827 0
M  V30 6264 H 600.568 -0.773947 0.547458 0
M  V30 6265 H 600.274 -3.17198 1.51915 0
M  V30 6266 H 600.148 -3.7699 -0.125784 0
M  V30 6267 H 602.535 -2.89197 -0.587294 0
M  V30 6268 H 602.616 -2.31691 1.0841 0
M  V30 6269 H 602.26 -4.70979 1.90109 0
M  V30 6270 H 602.19 -5.26186 0.208727 0
M  V30 6271 H 604.681 -3.73844 0.552195 0
M  V30 6272 H 604.994 -7.52862 1.7441 0
M  V30 6273 H 603.339 -6.77226 1.56175 0
M  V30 6274 H 606.53 -4.6177 0.767235 0
M  V30 6275 H 606.703 -6.34609 1.31053 0
M  V30 6276 N 600.109 -0.101901 -1.5727 0
M  V30 6277 C 601.525 0.254739 -1.57554 0
M  V30 6278 C 601.725 1.67937 -1.11352 0
M  V30 6279 O 600.781 2.39722 -0.793081 0
M  V30 6280 C 602.094 0.036975 -3.00677 0
M  V30 6281 C 603.642 0.104199 -3.12827 0
M  V30 6282 C 604.117 -0.0856565 -4.5792 0
M  V30 6283 N 605.608 -0.0310498 -4.6319 0
M  V30 6284 C 606.343 -0.153099 -5.73196 0
M  V30 6285 N 605.839 -0.330364 -6.92012 0
M  V30 6286 N 607.632 -0.0938854 -5.62022 0
M  V30 6287 H 599.783 -1.03263 -1.85609 0
M  V30 6288 H 602.046 -0.405251 -0.857016 0
M  V30 6289 H 601.752 -0.947254 -3.38703 0
M  V30 6290 H 601.626 0.776335 -3.69124 0
M  V30 6291 H 604.013 1.07894 -2.74669 0
M  V30 6292 H 604.094 -0.666762 -2.46957 0
M  V30 6293 H 603.738 -1.05729 -4.96773 0
M  V30 6294 H 603.668 0.705082 -5.21858 0
M  V30 6295 H 606.159 0.103141 -3.77759 0
M  V30 6296 H 606.472 -0.41482 -7.71686 0
M  V30 6297 H 604.817 -0.366119 -6.94035 0
M  V30 6298 H 608.008 0.0435168 -4.6808 0
M  V30 6299 H 608.181 -0.19245 -6.47714 0
M  V30 6300 N 601.587 1.56661 0.17182 0
M  V30 6301 C 602.833 1.82235 0.889845 0
M  V30 6302 C 603.166 0.679673 1.81918 0
M  V30 6303 O 602.441 -0.318404 1.91876 0
M  V30 6304 C 602.724 3.18195 1.68595 0
M  V30 6305 C 602.577 4.42989 0.779773 0
M  V30 6306 C 603.896 3.5109 2.65375 0
M  V30 6307 H 601.015 0.66291 0.322056 0
M  V30 6308 H 603.657 1.89358 0.15608 0
M  V30 6309 H 601.807 3.12253 2.3115 0
M  V30 6310 H 603.479 4.60997 0.16714 0
M  V30 6311 H 601.722 4.33711 0.0877964 0
M  V30 6312 H 602.393 5.3467 1.3723 0
M  V30 6313 H 604.869 3.57482 2.12946 0
M  V30 6314 H 603.745 4.47298 3.18144 0
M  V30 6315 H 604.006 2.75768 3.45549 0
M  V30 6316 N 603.065 -0.440357 1.51323 0
M  V30 6317 C 604.012 -1.53429 1.72419 0
M  V30 6318 C 604.982 -1.56165 0.565826 0
M  V30 6319 O 606.167 -1.73222 0.799917 0
M  V30 6320 C 603.307 -2.91169 1.85242 0
M  V30 6321 C 602.42 -2.97985 3.12777 0
M  V30 6322 C 601.555 -4.26829 3.16212 0
M  V30 6323 C 600.594 -4.27501 4.38074 0
M  V30 6324 N 599.731 -5.47866 4.39076 0
M  V30 6325 H 604.571 -1.34743 2.65797 0
M  V30 6326 H 602.108 -0.654608 1.31732 0
M  V30 6327 H 604.066 -3.71087 1.90658 0
M  V30 6328 H 602.696 -3.0842 0.952744 0
M  V30 6329 H 601.748 -2.10749 3.16685 0
M  V30 6330 H 603.06 -2.94342 4.02696 0
M  V30 6331 H 602.214 -5.15118 3.20527 0
M  V30 6332 H 600.953 -4.33124 2.24176 0
M  V30 6333 H 599.958 -3.37606 4.33938 0
M  V30 6334 H 601.183 -4.22873 5.31371 0
M  V30 6335 H 599.129 -5.54887 3.49909 0
M  V30 6336 H 599.046 -5.46091 5.22801 0
M  V30 6337 H 600.314 -6.38195 4.4758 0
M  V30 6338 N 604.543 -1.41418 -0.695603 0
M  V30 6339 C 605.453 -1.45622 -1.83933 0
M  V30 6340 C 606.469 -0.346825 -1.70508 0
M  V30 6341 O 607.645 -0.59454 -1.92424 0
M  V30 6342 C 604.71 -1.33627 -3.19914 0
M  V30 6343 C 603.771 -2.54882 -3.45447 0
M  V30 6344 C 603.004 -2.43449 -4.7494 0
M  V30 6345 O 603.227 -1.45905 -5.51424 0
M  V30 6346 O 602.161 -3.33206 -5.01256 0
M  V30 6347 H 605.987 -2.42114 -1.83342 0
M  V30 6348 H 603.572 -1.22956 -0.848658 0
M  V30 6349 H 605.454 -1.29221 -4.01098 0
M  V30 6350 H 604.129 -0.402508 -3.21188 0
M  V30 6351 H 603.036 -2.64865 -2.64192 0
M  V30 6352 H 604.369 -3.47087 -3.48987 0
M  V30 6353 N 606.021 0.929856 -1.27246 0
M  V30 6354 C 606.931 2.0636 -1.11592 0
M  V30 6355 C 607.947 1.73938 -0.046496 0
M  V30 6356 O 609.123 1.9981 -0.252544 0
M  V30 6357 C 606.188 3.38213 -0.762437 0
M  V30 6358 C 605.249 3.84346 -1.9125 0
M  V30 6359 C 604.482 5.09906 -1.57579 0
M  V30 6360 O 604.705 5.68354 -0.482694 0
M  V30 6361 O 603.639 5.51359 -2.41426 0
M  V30 6362 H 607.465 2.22478 -2.0673 0
M  V30 6363 H 605.05 1.04865 -1.06413 0
M  V30 6364 H 606.932 4.1741 -0.57854 0
M  V30 6365 H 605.607 3.23307 0.159439 0
M  V30 6366 H 604.514 3.06045 -2.15144 0
M  V30 6367 H 605.847 4.0379 -2.81451 0
M  V30 6368 N 607.499 1.09233 1.13605 0
M  V30 6369 C 608.447 0.724572 2.21027 0
M  V30 6370 C 609.441 -0.273595 1.67176 0
M  V30 6371 O 610.647 -0.135266 1.79491 0
M  V30 6372 H 607.022 0.216319 0.720215 0
M  V30 6373 H 608.993 1.63975 2.49309 0
M  V30 6374 C 607.742 0.159126 3.47336 0
M  V30 6375 H 607.065 0.918387 3.89109 0
M  V30 6376 H 608.505 -0.0602851 4.23957 0
M  V30 6377 C 606.964 -1.10514 3.18258 0
M  V30 6378 O 607.494 -2.18869 3.36837 0
M  V30 6379 N 605.7 -1.01886 2.72154 0
M  V30 6380 H 605.247 -0.137027 2.57235 0
M  V30 6381 H 605.205 -1.8655 2.53074 0
M  V30 6382 N 608.977 -1.30795 0.87923 0
M  V30 6383 C 610.388 -1.78535 0.546093 0
M  V30 6384 C 610.739 -1.72354 -0.937467 0
M  V30 6385 O 609.864 -1.2969 -1.73233 0
M  V30 6386 C 610.459 -3.24181 0.9845 0
M  V30 6387 C 609.018 -3.69779 0.702871 0
M  V30 6388 C 608.165 -2.51377 1.17068 0
M  V30 6389 H 611.116 -1.17746 1.06403 0
M  V30 6390 H 611.137 -3.79227 0.311045 0
M  V30 6391 H 610.649 -3.28647 2.06429 0
M  V30 6392 H 608.75 -3.70806 -0.365166 0
M  V30 6393 H 608.863 -4.61507 1.28639 0
M  V30 6394 H 607.227 -2.47768 0.590172 0
M  V30 6395 H 608.01 -2.58584 2.25808 0
M  V30 6396 N 610.455 -0.639598 -1.44038 0
M  V30 6397 C 611.365 0.0612377 -2.3452 0
M  V30 6398 C 612.381 0.826717 -1.53106 0
M  V30 6399 O 613.557 0.777059 -1.85806 0
M  V30 6400 C 610.622 1.02492 -3.31204 0
M  V30 6401 C 609.683 0.25788 -4.28525 0
M  V30 6402 C 608.916 1.17566 -5.2059 0
M  V30 6403 O 609.139 2.41461 -5.16771 0
M  V30 6404 O 608.073 0.655407 -5.98321 0
M  V30 6405 H 611.899 -0.68318 -2.95916 0
M  V30 6406 H 609.484 -0.399784 -1.43952 0
M  V30 6407 H 611.366 1.57911 -3.90694 0
M  V30 6408 H 610.041 1.7498 -2.7233 0
M  V30 6409 H 608.948 -0.339566 -3.72556 0
M  V30 6410 H 610.281 -0.427154 -4.90343 0
M  V30 6411 N 611.933 1.52934 -0.380664 0
M  V30 6412 C 613.182 2.00651 0.205477 0
M  V30 6413 C 613.495 1.27164 1.48623 0
M  V30 6414 O 614.701 1.65547 2.15189 0
M  V30 6415 C 613.157 3.57479 0.416726 0
M  V30 6416 C 612.765 4.39857 -0.850268 0
M  V30 6417 C 614.509 4.13509 0.959702 0
M  V30 6418 C 612.416 5.88269 -0.607773 0
M  V30 6419 H 611.346 0.749684 0.0805614 0
M  V30 6420 H 613.997 1.76508 -0.501732 0
M  V30 6421 H 612.379 3.77836 1.18557 0
M  V30 6422 H 613.553 4.31269 -1.62307 0
M  V30 6423 H 611.868 3.95005 -1.31756 0
M  V30 6424 H 614.465 5.22039 1.15669 0
M  V30 6425 H 614.808 3.69054 1.92626 0
M  V30 6426 H 615.341 3.9701 0.250645 0
M  V30 6427 H 612.08 6.3703 -1.54509 0
M  V30 6428 H 611.6 5.99667 0.126247 0
M  V30 6429 H 613.279 6.46558 -0.239014 0
M  V30 6430 N 613.412 0.11024 1.57214 0
M  V30 6431 C 614.375 -0.828808 2.1369 0
M  V30 6432 C 615.375 -1.20059 1.06969 0
M  V30 6433 O 616.565 -1.12754 1.32786 0
M  V30 6434 C 613.697 -2.11959 2.66994 0
M  V30 6435 H 614.89 -0.338146 2.97988 0
M  V30 6436 H 612.443 -0.138913 1.55681 0
M  V30 6437 H 613.178 -2.65476 1.8626 0
M  V30 6438 H 612.963 -1.86258 3.45037 0
M  V30 6439 H 614.453 -2.79105 3.10629 0
M  V30 6440 N 614.89 -1.56749 -0.16351 0
M  V30 6441 C 616.136 -1.82704 -0.880168 0
M  V30 6442 C 616.469 -0.689311 -1.81555 0
M  V30 6443 O 615.744 0.308224 -1.92042 0
M  V30 6444 C 616.027 -3.19084 -1.66905 0
M  V30 6445 C 615.88 -4.43397 -0.756269 0
M  V30 6446 C 617.199 -3.52493 -2.63509 0
M  V30 6447 H 614.318 -0.664608 -0.318535 0
M  V30 6448 H 616.96 -1.89438 -0.146036 0
M  V30 6449 H 615.11 -3.13475 -2.2949 0
M  V30 6450 H 616.782 -4.61079 -0.14269 0
M  V30 6451 H 615.025 -4.33752 -0.0647944 0
M  V30 6452 H 615.696 -5.3539 -1.34393 0
M  V30 6453 H 618.172 -3.58606 -2.11047 0
M  V30 6454 H 617.048 -4.48979 -3.15767 0
M  V30 6455 H 617.309 -2.77597 -3.44082 0
M  V30 6456 N 616.368 0.432326 -1.51554 0
M  V30 6457 C 617.593 1.20824 -1.68571 0
M  V30 6458 C 618.018 1.84126 -0.384596 0
M  V30 6459 O 617.376 1.69025 0.655751 0
M  V30 6460 C 617.424 2.26429 -2.80646 0
M  V30 6461 O 616.528 3.32032 -2.44598 0
M  V30 6462 H 615.869 0.353765 -0.561913 0
M  V30 6463 H 618.399 0.509916 -1.98144 0
M  V30 6464 H 618.409 2.71133 -3.04878 0
M  V30 6465 H 617.084 1.79733 -3.75058 0
M  V30 6466 H 615.661 2.92769 -2.30956 0
M  V30 6467 N 617.846 1.41785 0.688094 0
M  V30 6468 C 618.809 1.43936 1.78368 0
M  V30 6469 C 619.809 0.328866 1.57401 0
M  V30 6470 O 620.999 0.589093 1.63937 0
M  V30 6471 C 618.131 1.25804 3.16838 0
M  V30 6472 H 619.324 2.41472 1.77852 0
M  V30 6473 H 616.877 1.28037 0.896448 0
M  V30 6474 H 617.612 0.291386 3.22988 0
M  V30 6475 H 617.397 2.06272 3.33458 0
M  V30 6476 H 618.887 1.30162 3.96797 0
M  V30 6477 N 619.324 -0.923095 1.27737 0
M  V30 6478 C 620.549 -1.71054 1.17283 0
M  V30 6479 C 620.974 -1.86208 -0.266153 0
M  V30 6480 O 620.332 -1.36545 -1.1927 0
M  V30 6481 C 620.38 -3.0854 1.86642 0
M  V30 6482 O 619.484 -3.95528 1.16752 0
M  V30 6483 H 618.825 -0.524136 0.407649 0
M  V30 6484 H 621.355 -1.15487 1.6889 0
M  V30 6485 H 621.365 -3.58828 1.94182 0
M  V30 6486 H 620.04 -2.96828 2.91317 0
M  V30 6487 H 618.617 -3.53967 1.17312 0
M  V30 6488 N 620.802 -1.09834 -1.13024 0
M  V30 6489 C 622.03 -0.858902 -1.8823 0
M  V30 6490 C 622.445 0.590164 -1.79339 0
M  V30 6491 O 621.802 1.4065 -1.16292 0
M  V30 6492 C 621.853 -1.29066 -3.37675 0
M  V30 6493 O 621.574 -2.6829 -3.46341 0
M  V30 6494 C 623.075 -1.08421 -4.29837 0
M  V30 6495 H 620.295 -0.308713 -0.595766 0
M  V30 6496 H 622.839 -1.4614 -1.4305 0
M  V30 6497 H 620.994 -0.731961 -3.80422 0
M  V30 6498 H 621.408 -2.86598 -4.39274 0
M  V30 6499 H 622.882 -1.43553 -5.33007 0
M  V30 6500 H 623.359 -0.0223315 -4.39194 0
M  V30 6501 H 623.965 -1.62907 -3.92863 0
M  V30 6502 N 622.28 1.30327 -0.886154 0
M  V30 6503 C 623.529 1.95373 -0.501243 0
M  V30 6504 C 623.842 1.70722 0.954634 0
M  V30 6505 O 625.048 2.29761 1.44644 0
M  V30 6506 C 623.504 3.49828 -0.845493 0
M  V30 6507 C 623.112 3.83296 -2.31922 0
M  V30 6508 C 624.856 4.2118 -0.529838 0
M  V30 6509 C 622.763 5.30935 -2.60504 0
M  V30 6510 H 621.693 0.731274 -0.183722 0
M  V30 6511 H 624.344 1.48258 -1.08129 0
M  V30 6512 H 622.726 3.95522 -0.19452 0
M  V30 6513 H 623.9 3.48508 -3.01461 0
M  V30 6514 H 622.215 3.2505 -2.60253 0
M  V30 6515 H 624.812 5.29825 -0.720401 0
M  V30 6516 H 625.155 4.12902 0.530828 0
M  V30 6517 H 625.688 3.81173 -1.13806 0
M  V30 6518 H 622.427 5.44265 -3.65316 0
M  V30 6519 H 621.947 5.67019 -1.95575 0
M  V30 6520 H 623.626 5.98381 -2.46066 0
M  V30 6521 N 623.758 0.647228 1.43697 0
M  V30 6522 C 625.169 0.238689 1.85168 0
M  V30 6523 C 625.52 -1.21345 1.54175 0
M  V30 6524 O 624.645 -1.92542 0.987743 0
M  V30 6525 C 625.24 0.426422 3.36106 0
M  V30 6526 C 623.799 0.0722541 3.76331 0
M  V30 6527 C 622.946 0.732153 2.6746 0
M  V30 6528 H 625.897 0.851309 1.33934 0
M  V30 6529 H 625.918 -0.32987 3.79067 0
M  V30 6530 H 625.43 1.48339 3.58632 0
M  V30 6531 H 623.531 -0.982355 3.59417 0
M  V30 6532 H 623.644 0.493541 4.76551 0
M  V30 6533 H 622.008 0.16594 2.54159 0
M  V30 6534 H 622.791 1.79204 2.92816 0
M  V30 6535 N 625.236 -1.5273 0.388769 0
M  V30 6536 C 626.146 -2.30165 -0.453993 0
M  V30 6537 C 627.162 -1.37058 -1.07197 0
M  V30 6538 O 628.338 -1.70127 -1.0779 0
M  V30 6539 C 625.403 -3.09303 -1.56628 0
M  V30 6540 C 624.464 -4.18117 -0.973467 0
M  V30 6541 C 623.697 -4.93472 -2.03275 0
M  V30 6542 O 623.92 -4.68913 -3.24772 0
M  V30 6543 O 622.854 -5.78833 -1.65034 0
M  V30 6544 H 626.68 -3.03185 0.176816 0
M  V30 6545 H 624.265 -1.4862 0.152501 0
M  V30 6546 H 626.147 -3.58648 -2.21246 0
M  V30 6547 H 624.822 -2.39098 -2.18206 0
M  V30 6548 H 623.729 -3.7297 -0.290556 0
M  V30 6549 H 625.062 -4.90556 -0.401908 0
M  V30 6550 N 626.714 -0.118576 -1.57153 0
M  V30 6551 C 627.646 0.862247 -2.12363 0
M  V30 6552 C 628.659 1.23025 -1.06625 0
M  V30 6553 O 629.848 1.17927 -1.33998 0
M  V30 6554 C 626.948 2.16425 -2.60794 0
M  V30 6555 C 626.121 1.96801 -3.90626 0
M  V30 6556 C 625.18 3.10726 -4.2466 0
M  V30 6557 O 624.206 2.83659 -4.93484 0
M  V30 6558 N 625.408 4.37147 -3.81946 0
M  V30 6559 H 628.173 0.390564 -2.97144 0
M  V30 6560 H 625.734 0.0658591 -1.61766 0
M  V30 6561 H 627.726 2.91633 -2.80593 0
M  V30 6562 H 626.296 2.54943 -1.80895 0
M  V30 6563 H 625.516 1.05787 -3.7974 0
M  V30 6564 H 626.804 1.80993 -4.7552 0
M  V30 6565 H 626.202 4.62014 -3.26435 0
M  V30 6566 H 624.759 5.09229 -4.06853 0
M  V30 6567 N 628.193 1.56834 0.155195 0
M  V30 6568 C 629.442 1.82088 0.867567 0
M  V30 6569 C 629.755 0.69849 1.82703 0
M  V30 6570 O 630.961 0.836407 2.58295 0
M  V30 6571 C 629.417 3.22707 1.59336 0
M  V30 6572 C 629.025 4.42859 0.676719 0
M  V30 6573 C 630.769 3.57242 2.293 0
M  V30 6574 C 628.676 5.74501 1.40367 0
M  V30 6575 H 627.606 0.679057 0.327715 0
M  V30 6576 H 630.257 1.83105 0.120351 0
M  V30 6577 H 628.639 3.16054 2.38591 0
M  V30 6578 H 629.813 4.60731 -0.0800196 0
M  V30 6579 H 628.128 4.16311 0.0859129 0
M  V30 6580 H 630.725 4.52847 2.84312 0
M  V30 6581 H 631.068 2.82901 3.05406 0
M  V30 6582 H 631.601 3.6552 1.56972 0
M  V30 6583 H 628.34 6.51915 0.684623 0
M  V30 6584 H 627.86 5.60579 2.13332 0
M  V30 6585 H 629.539 6.17016 1.94681 0
M  V30 6586 N 629.671 -0.424282 1.51781 0
M  V30 6587 C 630.603 -1.53457 1.70246 0
M  V30 6588 C 631.616 -1.52004 0.582967 0
M  V30 6589 O 632.805 -1.56544 0.857683 0
M  V30 6590 C 629.905 -2.92368 1.71389 0
M  V30 6591 C 629.078 -3.1818 3.00133 0
M  V30 6592 C 628.137 -4.36884 2.9329 0
M  V30 6593 O 627.163 -4.34901 3.67219 0
M  V30 6594 N 628.365 -5.4117 2.10036 0
M  V30 6595 H 631.13 -1.38017 2.66029 0
M  V30 6596 H 628.691 -0.613394 1.4983 0
M  V30 6597 H 630.683 -3.6982 1.64362 0
M  V30 6598 H 629.253 -3.0134 0.831449 0
M  V30 6599 H 628.473 -2.28908 3.20928 0
M  V30 6600 H 629.761 -3.32261 3.85331 0
M  V30 6601 H 629.159 -5.45623 1.49373 0
M  V30 6602 H 627.716 -6.17425 2.08878 0
M  V30 6603 N 631.149 -1.42148 -0.680565 0
M  V30 6604 C 632.374 -1.45901 -1.47403 0
M  V30 6605 C 632.799 -0.0700985 -1.87969 0
M  V30 6606 O 632.157 0.930145 -1.55621 0
M  V30 6607 C 632.205 -2.38661 -2.70321 0
M  V30 6608 O 631.309 -1.85399 -3.68376 0
M  V30 6609 H 630.65 -0.494565 -0.443059 0
M  V30 6610 H 633.18 -1.86774 -0.835251 0
M  V30 6611 H 633.19 -2.55046 -3.18458 0
M  V30 6612 H 631.865 -3.39571 -2.40134 0
M  V30 6613 H 630.442 -1.78541 -3.2738 0
M  V30 6614 N 632.627 0.916307 -1.28225 0
M  V30 6615 C 633.557 2.0352 -1.14464 0
M  V30 6616 C 634.538 1.70045 -0.0430844 0
M  V30 6617 O 635.723 1.92954 -0.219619 0
M  V30 6618 C 632.853 3.37889 -0.803027 0
M  V30 6619 C 631.807 3.85516 -1.85908 0
M  V30 6620 C 631.133 5.1682 -1.37116 0
M  V30 6621 C 632.433 4.07655 -3.26519 0
M  V30 6622 H 634.127 2.1529 -2.08064 0
M  V30 6623 H 631.673 1.03446 -1.00174 0
M  V30 6624 H 633.626 4.15654 -0.693537 0
M  V30 6625 H 632.35 3.26164 0.168674 0
M  V30 6626 H 631.009 3.09953 -1.95767 0
M  V30 6627 H 630.657 5.01497 -0.38859 0
M  V30 6628 H 630.357 5.49657 -2.07728 0
M  V30 6629 H 631.881 5.97143 -1.27484 0
M  V30 6630 H 633.295 4.75953 -3.19596 0
M  V30 6631 H 631.692 4.51818 -3.94943 0
M  V30 6632 H 632.762 3.12553 -3.70727 0
M  V30 6633 N 634.105 1.10431 1.1244 0
M  V30 6634 C 635.33 0.869089 1.88313 0
M  V30 6635 C 635.755 -0.574912 1.79099 0
M  V30 6636 O 635.113 -1.40496 1.14589 0
M  V30 6637 C 635.161 1.32208 3.3549 0
M  V30 6638 O 634.265 0.487092 4.09513 0
M  V30 6639 H 633.606 0.313894 0.585121 0
M  V30 6640 H 636.136 1.47111 1.42195 0
M  V30 6641 H 636.146 1.31201 3.86329 0
M  V30 6642 H 634.821 2.37364 3.41513 0
M  V30 6643 H 633.398 0.562372 3.68635 0
M  V30 6644 N 635.583 -1.29855 0.893053 0
M  V30 6645 C 636.829 -1.96116 0.516349 0
M  V30 6646 C 637.162 -1.70281 -0.933695 0
M  V30 6647 O 636.437 -1.01205 -1.66096 0
M  V30 6648 C 636.72 -3.51068 0.801455 0
M  V30 6649 C 636.573 -3.86387 2.30272 0
M  V30 6650 C 637.892 -4.39186 0.283423 0
M  V30 6651 H 635.011 -0.712335 0.189072 0
M  V30 6652 H 637.653 -1.53587 1.11852 0
M  V30 6653 H 635.803 -3.87424 0.288949 0
M  V30 6654 H 637.475 -3.60012 2.88425 0
M  V30 6655 H 635.718 -3.34167 2.76613 0
M  V30 6656 H 636.389 -4.94512 2.45279 0
M  V30 6657 H 638.865 -4.09785 0.722187 0
M  V30 6658 H 637.741 -5.46505 0.512169 0
M  V30 6659 H 638.002 -4.34511 -0.815643 0
M  V30 6660 N 637.061 -0.65484 -1.43351 0
M  V30 6661 C 638.011 0.0581325 -2.27926 0
M  V30 6662 C 638.995 0.793188 -1.3999 0
M  V30 6663 O 640.187 0.675387 -1.63608 0
M  V30 6664 C 637.316 1.02272 -3.27712 0
M  V30 6665 C 636.402 0.286048 -4.23134 0
M  V30 6666 N 636.793 -0.698298 -5.00957 0
M  V30 6667 C 635.091 0.527272 -4.42872 0
M  V30 6668 C 635.792 -1.1357 -5.70506 0
M  V30 6669 N 634.768 -0.469631 -5.41568 0
M  V30 6670 H 638.57 -0.697182 -2.85511 0
M  V30 6671 H 636.084 -0.482252 -1.55074 0
M  V30 6672 H 638.081 1.5483 -3.87083 0
M  V30 6673 H 636.741 1.77807 -2.71688 0
M  V30 6674 H 637.752 -1.07708 -5.06576 0
M  V30 6675 H 634.429 1.26367 -3.97916 0
M  V30 6676 H 635.819 -1.95027 -6.42973 0
M  V30 6677 N 638.539 1.52521 -0.396863 0
M  V30 6678 C 639.816 1.94112 0.240842 0
M  V30 6679 C 640.196 1.33288 1.637 0
M  V30 6680 O 639.544 0.503901 2.22875 0
M  V30 6681 C 639.754 3.48033 0.259567 0
M  V30 6682 C 641.102 4.21822 0.484866 0
M  V30 6683 O 642.126 3.54579 0.339453 0
M  V30 6684 O 640.985 5.41042 0.770412 0
M  V30 6685 H 638.079 0.812973 0.151671 0
M  V30 6686 H 640.625 1.63572 -0.451918 0
M  V30 6687 H 639.397 3.84655 -0.718078 0
M  V30 6688 H 639.02 3.84899 0.996937 0
M  V30 6689 N 640.017 0.126909 1.57088 0
M  V30 6690 C 641.242 -0.53997 2.00248 0
M  V30 6691 C 641.667 -1.58927 1.00618 0
M  V30 6692 O 641.025 -1.81288 -0.0210131 0
M  V30 6693 C 641.073 -1.13565 3.4225 0
M  V30 6694 O 640.177 -2.25103 3.45547 0
M  V30 6695 H 639.518 -0.13412 0.650314 0
M  V30 6696 H 642.048 0.217718 2.03438 0
M  V30 6697 H 642.058 -1.46925 3.80627 0
M  V30 6698 H 640.733 -0.367122 4.14277 0
M  V30 6699 H 639.31 -1.93123 3.18995 0
M  V30 6700 N 641.495 -1.56914 -0.146875 0
M  V30 6701 C 642.427 -1.94878 -1.20645 0
M  V30 6702 C 643.44 -0.844633 -1.39175 0
M  V30 6703 O 644.629 -1.12304 -1.38744 0
M  V30 6704 C 641.729 -2.20769 -2.57127 0
M  V30 6705 C 640.902 -3.52053 -2.59572 0
M  V30 6706 C 639.961 -3.66482 -3.77594 0
M  V30 6707 O 638.987 -4.38873 -3.62462 0
M  V30 6708 N 640.189 -3.03156 -4.95052 0
M  V30 6709 H 642.954 -2.86374 -0.883757 0
M  V30 6710 H 640.515 -1.58366 -0.336436 0
M  V30 6711 H 642.507 -2.27664 -3.34591 0
M  V30 6712 H 641.077 -1.35538 -2.81688 0
M  V30 6713 H 640.297 -3.56598 -1.68023 0
M  V30 6714 H 641.585 -4.38396 -2.58238 0
M  V30 6715 H 640.983 -2.44258 -5.10249 0
M  V30 6716 H 639.54 -3.15611 -5.70292 0
M  V30 6717 N 642.974 0.416227 -1.52004 0
M  V30 6718 C 644.222 1.16153 -1.65387 0
M  V30 6719 C 644.543 1.91208 -0.382669 0
M  V30 6720 O 643.813 1.86413 0.602231 0
M  V30 6721 H 642.393 0.431765 -0.60958 0
M  V30 6722 H 645.055 0.475151 -1.89019 0
M  V30 6723 H 644.151 1.87952 -2.4916 0
M  V30 6724 N 644.452 1.42507 0.673017 0
M  V30 6725 C 645.863 1.38347 1.25367 0
M  V30 6726 C 646.214 0.0776327 1.96046 0
M  V30 6727 O 645.339 -0.823571 2.00116 0
M  V30 6728 C 645.934 2.506 2.28002 0
M  V30 6729 C 644.493 2.49767 2.81591 0
M  V30 6730 C 643.64 2.293 1.55938 0
M  V30 6731 H 646.591 1.51695 0.466288 0
M  V30 6732 H 646.612 2.20953 3.09774 0
M  V30 6733 H 646.124 3.45627 1.76532 0
M  V30 6734 H 644.225 1.58563 3.37177 0
M  V30 6735 H 644.338 3.46867 3.30485 0
M  V30 6736 H 642.702 1.77594 1.82572 0
M  V30 6737 H 643.485 3.26385 1.06431 0
M  V30 6738 N 645.93 -0.909495 1.28709 0
M  V30 6739 C 647.341 -1.47419 1.14563 0
M  V30 6740 C 647.692 -1.94432 -0.262832 0
M  V30 6741 O 646.817 -1.82842 -1.15748 0
M  V30 6742 C 647.412 -2.67933 2.07358 0
M  V30 6743 C 645.971 -3.20568 1.97264 0
M  V30 6744 C 645.118 -1.93269 1.98852 0
M  V30 6745 H 648.069 -0.721787 1.41336 0
M  V30 6746 H 648.09 -3.43339 1.64007 0
M  V30 6747 H 647.602 -2.33685 3.09859 0
M  V30 6748 H 645.703 -3.59531 0.978157 0
M  V30 6749 H 645.816 -3.85529 2.84436 0
M  V30 6750 H 644.18 -2.10553 1.43317 0
M  V30 6751 H 644.963 -1.61312 3.0304 0
M  V30 6752 N 647.408 -1.11026 -1.11852 0
M  V30 6753 C 648.356 -0.759643 -2.19846 0
M  V30 6754 C 649.35 0.246964 -1.6759 0
M  V30 6755 O 650.556 0.106693 -1.79684 0
M  V30 6756 H 646.931 -0.22775 -0.716683 0
M  V30 6757 H 648.902 -1.6792 -2.46669 0
M  V30 6758 C 647.651 -0.214364 -3.47039 0
M  V30 6759 H 646.974 -0.980175 -3.87599 0
M  V30 6760 H 648.414 -0.00717047 -4.23999 0
M  V30 6761 C 646.873 1.05436 -3.19976 0
M  V30 6762 O 647.403 2.13483 -3.40276 0
M  V30 6763 N 645.609 0.975436 -2.7374 0
M  V30 6764 H 645.156 0.0960853 -2.57421 0
M  V30 6765 H 645.114 1.82501 -2.5601 0
M  V30 6766 N 648.886 1.2938 -0.899927 0
M  V30 6767 C 649.849 2.25983 -0.382677 0
M  V30 6768 C 650.849 1.53366 0.483259 0
M  V30 6769 O 652.039 1.71798 0.28828 0
M  V30 6770 C 649.171 3.37878 0.452915 0
M  V30 6771 H 650.364 2.73252 -1.23586 0
M  V30 6772 H 647.917 1.40825 -0.678088 0
M  V30 6773 H 648.652 2.95949 1.32608 0
M  V30 6774 H 648.437 3.91742 -0.167562 0
M  V30 6775 H 649.927 4.09746 0.806107 0
M  V30 6776 N 650.364 0.662433 1.43002 0
M  V30 6777 C 651.312 -0.035345 2.32573 0
M  V30 6778 C 652.306 -0.803505 1.49131 0
M  V30 6779 O 653.512 -0.712865 1.65282 0
M  V30 6780 H 649.887 -0.0302194 0.751393 0
M  V30 6781 H 651.858 0.737686 2.89138 0
M  V30 6782 C 650.607 -0.981575 3.33557 0
M  V30 6783 H 649.93 -0.399914 3.97795 0
M  V30 6784 H 651.37 -1.43873 3.98844 0
M  V30 6785 C 649.829 -2.08204 2.64863 0
M  V30 6786 O 650.359 -3.16698 2.47113 0
M  V30 6787 N 648.565 -1.85022 2.24088 0
M  V30 6788 H 648.112 -0.967909 2.38724 0
M  V30 6789 H 648.07 -2.58845 1.78457 0
M  V30 6790 N 651.842 -1.52309 0.404946 0
M  V30 6791 C 652.752 -2.30634 -0.429555 0
M  V30 6792 C 653.768 -1.38187 -1.05737 0
M  V30 6793 O 654.944 -1.71261 -1.05979 0
M  V30 6794 C 652.009 -3.10947 -1.53339 0
M  V30 6795 C 651.07 -4.19126 -0.929065 0
M  V30 6796 C 650.303 -4.95601 -1.9803 0
M  V30 6797 O 650.526 -4.72331 -3.1978 0
M  V30 6798 O 649.46 -5.80551 -1.58886 0
M  V30 6799 H 653.286 -3.0298 0.208963 0
M  V30 6800 H 650.871 -1.4845 0.168255 0
M  V30 6801 H 652.753 -3.60974 -2.1743 0
M  V30 6802 H 651.428 -2.41399 -2.15658 0
M  V30 6803 H 650.335 -3.73257 -0.250982 0
M  V30 6804 H 651.668 -4.90955 -0.349855 0
M  V30 6805 N 653.32 -0.135238 -1.57019 0
M  V30 6806 C 654.597 0.563227 -1.87316 0
M  V30 6807 C 654.977 1.83749 -1.03921 0
M  V30 6808 O 654.325 2.2817 -0.122675 0
M  V30 6809 C 654.535 0.840031 -3.3874 0
M  V30 6810 C 655.883 1.18598 -4.077 0
M  V30 6811 O 656.907 0.92977 -3.43851 0
M  V30 6812 O 655.766 1.66758 -5.20436 0
M  V30 6813 H 652.86 0.285971 -0.775983 0
M  V30 6814 H 655.406 -0.170965 -1.68837 0
M  V30 6815 H 654.178 -0.0622785 -3.9125 0
M  V30 6816 H 653.801 1.62882 -3.62706 0
M  V30 6817 N 654.798 1.5699 0.138552 0
M  V30 6818 C 656.028 1.87704 0.863184 0
M  V30 6819 C 656.436 0.722411 1.74865 0
M  V30 6820 O 655.779 -0.316636 1.80951 0
M  V30 6821 C 655.841 3.13219 1.76449 0
M  V30 6822 C 655.505 4.44648 1.05532 0
M  V30 6823 C 656.502 5.18318 0.405252 0
M  V30 6824 C 654.187 4.91367 1.04231 0
M  V30 6825 C 656.181 6.36916 -0.24835 0
M  V30 6826 C 653.868 6.09887 0.384904 0
M  V30 6827 C 654.866 6.82508 -0.259292 0
M  V30 6828 O 654.554 7.98775 -0.906258 0
M  V30 6829 H 654.286 0.626255 0.254521 0
M  V30 6830 H 656.84 2.04966 0.133472 0
M  V30 6831 H 655.07 2.91988 2.53535 0
M  V30 6832 H 656.759 3.30111 2.36181 0
M  V30 6833 H 657.525 4.83289 0.407053 0
M  V30 6834 H 653.404 4.34759 1.53315 0
M  V30 6835 H 656.948 6.93538 -0.751755 0
M  V30 6836 H 652.845 6.44376 0.380799 0
M  V30 6837 H 653.613 8.14494 -0.80877 0
M  V30 6838 N 656.276 -0.40816 1.52223 0
M  V30 6839 C 657.692 -0.74685 1.41047 0
M  V30 6840 C 657.892 -1.94788 0.51573 0
M  V30 6841 O 656.948 -2.52494 -0.0181156 0
M  V30 6842 C 658.261 -0.999878 2.83589 0
M  V30 6843 C 659.809 -1.10253 2.92939 0
M  V30 6844 C 660.284 -1.38832 4.36451 0
M  V30 6845 N 661.775 -1.45694 4.3969 0
M  V30 6846 C 662.51 -1.69435 5.47795 0
M  V30 6847 N 662.006 -1.90774 6.66016 0
M  V30 6848 N 663.799 -1.71458 5.35312 0
M  V30 6849 H 655.95 0.382409 2.08929 0
M  V30 6850 H 658.213 0.108807 0.941735 0
M  V30 6851 H 657.919 -0.189723 3.51188 0
M  V30 6852 H 657.793 -1.91978 3.24691 0
M  V30 6853 H 660.18 -1.90328 2.2552 0
M  V30 6854 H 660.261 -0.160973 2.55293 0
M  V30 6855 H 659.905 -0.592741 5.04429 0
M  V30 6856 H 659.835 -2.34241 4.71634 0
M  V30 6857 H 662.326 -1.3099 3.54472 0
M  V30 6858 H 662.639 -2.08342 7.44186 0
M  V30 6859 H 660.984 -1.88037 6.69079 0
M  V30 6860 H 664.175 -1.54326 4.41929 0
M  V30 6861 H 664.348 -1.89621 6.19635 0
M  V30 6862 N 657.755 -1.42862 -0.66545 0
M  V30 6863 C 658.665 -1.49491 -1.80803 0
M  V30 6864 C 659.681 -0.382914 -1.69734 0
M  V30 6865 O 660.857 -0.635223 -1.9112 0
M  V30 6866 C 657.922 -1.40383 -3.17007 0
M  V30 6867 C 656.983 -2.62152 -3.39963 0
M  V30 6868 C 656.216 -2.53469 -4.69669 0
M  V30 6869 O 656.439 -1.57568 -5.48205 0
M  V30 6870 O 655.373 -3.43763 -4.94075 0
M  V30 6871 H 659.199 -2.45949 -1.78165 0
M  V30 6872 H 656.784 -1.24728 -0.822387 0
M  V30 6873 H 658.666 -1.377 -3.98267 0
M  V30 6874 H 657.341 -0.470546 -3.20262 0
M  V30 6875 H 656.248 -2.70409 -2.58515 0
M  V30 6876 H 657.581 -3.54411 -3.41546 0
M  V30 6877 N 659.233 0.902656 -1.29189 0
M  V30 6878 C 660.196 1.98797 -1.14071 0
M  V30 6879 C 661.196 1.60615 -0.0770549 0
M  V30 6880 O 662.386 1.71165 -0.323753 0
M  V30 6881 C 659.518 3.32688 -0.743739 0
M  V30 6882 H 660.711 2.13637 -2.10473 0
M  V30 6883 H 658.264 1.08678 -1.12334 0
M  V30 6884 H 658.999 3.23549 0.220554 0
M  V30 6885 H 658.784 3.61765 -1.51223 0
M  V30 6886 H 660.274 4.12337 -0.660935 0
M  V30 6887 N 660.711 1.11618 1.11262 0
M  V30 6888 C 661.936 0.889013 1.8738 0
M  V30 6889 C 662.361 -0.555884 1.79698 0
M  V30 6890 O 661.719 -1.39272 1.16073 0
M  V30 6891 C 661.767 1.35759 3.34069 0
M  V30 6892 O 660.871 0.530499 4.08974 0
M  V30 6893 H 660.212 0.320082 0.581759 0
M  V30 6894 H 662.742 1.48611 1.40627 0
M  V30 6895 H 662.752 1.35291 3.84916 0
M  V30 6896 H 661.427 2.40973 3.38976 0
M  V30 6897 H 660.004 0.601439 3.68018 0
M  V30 6898 N 662.189 -1.289 0.906776 0
M  V30 6899 C 663.414 -1.99939 0.551303 0
M  V30 6900 C 663.839 -1.67366 -0.858496 0
M  V30 6901 O 663.197 -0.902176 -1.57259 0
M  V30 6902 C 663.245 -3.52523 0.758937 0
M  V30 6903 O 662.349 -4.11983 -0.185308 0
M  V30 6904 H 661.69 -0.628376 0.214568 0
M  V30 6905 H 664.22 -1.64225 1.2203 0
M  V30 6906 H 664.23 -4.02522 0.666329 0
M  V30 6907 H 662.905 -3.75566 1.78671 0
M  V30 6908 H 661.482 -3.72873 -0.0445577 0
M  V30 6909 N 663.667 -0.670007 -1.42649 0
M  V30 6910 C 664.907 -0.194106 -2.03476 0
M  V30 6911 C 665.271 1.1755 -1.51809 0
M  V30 6912 O 666.472 1.74579 -2.04391 0
M  V30 6913 C 664.743 -0.221828 -3.56711 0
M  V30 6914 S 666.302 0.183772 -4.38415 0
M  V30 6915 H 663.12 -0.0802478 -0.706457 0
M  V30 6916 H 665.722 -0.882092 -1.74469 0
M  V30 6917 H 664.426 -1.22107 -3.91814 0
M  V30 6918 H 663.957 0.486149 -3.90385 0
M  V30 6919 H 665.972 1.41839 -4.75496 0
M  V30 6920 N 665.145 1.52092 -0.413018 0
M  V30 6921 C 666.108 2.25706 0.398687 0
M  V30 6922 C 667.108 1.28221 0.970368 0
M  V30 6923 O 668.298 1.52131 0.848635 0
M  V30 6924 C 665.43 3.03029 1.5616 0
M  V30 6925 H 666.623 2.98888 -0.246131 0
M  V30 6926 H 664.176 1.5542 -0.165622 0
M  V30 6927 H 664.911 2.34205 2.24317 0
M  V30 6928 H 664.696 3.74606 1.15812 0
M  V30 6929 H 666.186 3.58857 2.13569 0
M  V30 6930 N 666.623 0.143563 1.56945 0
M  V30 6931 C 667.869 -0.50916 1.96304 0
M  V30 6932 C 668.202 -1.64741 1.0283 0
M  V30 6933 O 667.477 -1.94374 0.0700361 0
M  V30 6934 C 667.76 -1.0186 3.45393 0
M  V30 6935 C 667.613 0.117923 4.49645 0
M  V30 6936 C 668.932 -1.90151 3.96901 0
M  V30 6937 H 666.051 -0.183608 0.713763 0
M  V30 6938 H 668.693 0.224095 1.88674 0
M  V30 6939 H 666.843 -1.64345 3.52027 0
M  V30 6940 H 668.515 0.754145 4.55094 0
M  V30 6941 H 666.758 0.777568 4.26774 0
M  V30 6942 H 667.429 -0.280187 5.51288 0
M  V30 6943 H 669.905 -1.375 3.92725 0
M  V30 6944 H 668.781 -2.22707 5.0169 0
M  V30 6945 H 669.042 -2.83718 3.39052 0
M  V30 6946 N 668.101 -1.57061 -0.130224 0
M  V30 6947 C 669.049 -2.00486 -1.17933 0
M  V30 6948 C 670.043 -0.899933 -1.43519 0
M  V30 6949 O 671.249 -1.08514 -1.43613 0
M  V30 6950 H 667.624 -0.638441 -0.397363 0
M  V30 6951 H 669.595 -2.87848 -0.786501 0
M  V30 6952 C 668.344 -2.41565 -2.50084 0
M  V30 6953 H 667.667 -3.26148 -2.31231 0
M  V30 6954 H 669.107 -2.75757 -3.22078 0
M  V30 6955 C 667.566 -1.27485 -3.11848 0
M  V30 6956 O 668.096 -0.584688 -3.97422 0
M  V30 6957 N 666.302 -1.03478 -2.71552 0
M  V30 6958 H 665.849 -1.59779 -2.02061 0
M  V30 6959 H 665.807 -0.27341 -3.13209 0
M  V30 6960 N 669.579 0.400081 -1.52437 0
M  V30 6961 C 670.509 1.4947 -1.7939 0
M  V30 6962 C 671.49 1.57383 -0.645329 0
M  V30 6963 O 672.675 1.72511 -0.891826 0
M  V30 6964 C 669.805 2.87201 -1.95276 0
M  V30 6965 C 668.759 2.94134 -3.10917 0
M  V30 6966 C 668.085 4.34207 -3.1204 0
M  V30 6967 C 669.385 2.64791 -4.50203 0
M  V30 6968 H 671.079 1.27165 -2.71052 0
M  V30 6969 H 668.625 0.610312 -1.30427 0
M  V30 6970 H 670.578 3.63772 -2.12715 0
M  V30 6971 H 669.302 3.10819 -1.00294 0
M  V30 6972 H 667.961 2.20009 -2.93243 0
M  V30 6973 H 667.609 4.54848 -2.14761 0
M  V30 6974 H 667.309 4.39768 -3.89715 0
M  V30 6975 H 668.833 5.127 -3.31619 0
M  V30 6976 H 670.247 3.31083 -4.68035 0
M  V30 6977 H 668.644 2.81717 -5.29864 0
M  V30 6978 H 669.714 1.60184 -4.57678 0
M  V30 6979 N 671.057 1.43213 0.657864 0
M  V30 6980 C 672.303 1.44798 1.41991 0
M  V30 6981 C 672.636 0.070256 1.94073 0
M  V30 6982 O 671.911 -0.908177 1.71995 0
M  V30 6983 C 672.194 2.4865 2.60471 0
M  V30 6984 C 672.047 3.95679 2.13911 0
M  V30 6985 C 673.366 2.49292 3.62686 0
M  V30 6986 H 670.485 0.527244 0.514959 0
M  V30 6987 H 673.127 1.74733 0.74621 0
M  V30 6988 H 671.277 2.23254 3.17946 0
M  V30 6989 H 672.949 4.32116 1.61472 0
M  V30 6990 H 671.192 4.08733 1.45325 0
M  V30 6991 H 671.863 4.6395 2.99089 0
M  V30 6992 H 674.339 2.71917 3.14961 0
M  V30 6993 H 673.215 3.23907 4.43143 0
M  V30 6994 H 673.476 1.52502 4.14964 0
M  V30 6995 N 672.536 -0.895792 1.29666 0
M  V30 6996 C 673.466 -2.01673 1.17688 0
M  V30 6997 C 674.447 -1.69955 0.0701317 0
M  V30 6998 O 675.632 -1.9258 0.250289 0
M  V30 6999 C 672.762 -3.36568 0.856681 0
M  V30 7000 C 671.716 -3.82509 1.92017 0
M  V30 7001 C 671.042 -5.14574 1.4532 0
M  V30 7002 C 672.342 -4.02409 3.32963 0
M  V30 7003 H 674.036 -2.11953 2.11463 0
M  V30 7004 H 671.582 -1.01839 1.01807 0
M  V30 7005 H 673.535 -4.14498 0.759577 0
M  V30 7006 H 672.259 -3.26391 -0.116763 0
M  V30 7007 H 670.918 -3.068 2.00673 0
M  V30 7008 H 670.566 -5.00815 0.468325 0
M  V30 7009 H 670.266 -5.46283 2.16447 0
M  V30 7010 H 671.79 -5.9504 1.36968 0
M  V30 7011 H 673.204 -4.70808 3.27127 0
M  V30 7012 H 671.601 -4.45478 4.02082 0
M  V30 7013 H 672.671 -3.06616 3.75652 0
M  V30 7014 N 674.014 -1.12206 -1.10668 0
M  V30 7015 C 675.43 -0.857619 -1.346 0
M  V30 7016 C 675.63 0.513542 -1.94846 0
M  V30 7017 O 674.686 1.26273 -2.18658 0
M  V30 7018 C 675.999 -1.97212 -2.26998 0
M  V30 7019 C 677.547 -2.00272 -2.40542 0
M  V30 7020 C 678.022 -3.10948 -3.36267 0
M  V30 7021 N 679.513 -3.10375 -3.43834 0
M  V30 7022 C 680.248 -3.92651 -4.17867 0
M  V30 7023 N 679.744 -4.84911 -4.94807 0
M  V30 7024 N 681.537 -3.80798 -4.1346 0
M  V30 7025 H 673.688 -2.00558 -0.699306 0
M  V30 7026 H 675.951 -0.872612 -0.370477 0
M  V30 7027 H 675.657 -2.96002 -1.89936 0
M  V30 7028 H 675.531 -1.87521 -3.27286 0
M  V30 7029 H 677.918 -1.02103 -2.76874 0
M  V30 7030 H 677.999 -2.14037 -1.40077 0
M  V30 7031 H 677.643 -4.09348 -3.00661 0
M  V30 7032 H 677.573 -2.94421 -4.36605 0
M  V30 7033 H 680.064 -2.43536 -2.88961 0
M  V30 7034 H 680.377 -5.44207 -5.48688 0
M  V30 7035 H 678.722 -4.88926 -4.93939 0
M  V30 7036 H 681.913 -3.08058 -3.52445 0
M  V30 7037 H 682.086 -4.4515 -4.70898 0
M  V30 7038 N 675.492 1.28418 -0.913599 0
M  V30 7039 C 676.422 2.29713 -0.418847 0
M  V30 7040 C 677.403 1.62165 0.513469 0
M  V30 7041 O 678.588 1.89576 0.421235 0
M  V30 7042 C 675.718 3.45612 0.342042 0
M  V30 7043 C 674.672 4.25056 -0.501123 0
M  V30 7044 C 673.998 5.3329 0.388097 0
M  V30 7045 C 675.298 4.91814 -1.75831 0
M  V30 7046 H 676.992 2.71346 -1.26538 0
M  V30 7047 H 674.538 1.30446 -0.609903 0
M  V30 7048 H 676.491 4.15562 0.699 0
M  V30 7049 H 675.215 3.02858 1.22248 0
M  V30 7050 H 673.874 3.56833 -0.840598 0
M  V30 7051 H 673.522 4.8678 1.26707 0
M  V30 7052 H 673.222 5.87347 -0.172459 0
M  V30 7053 H 674.746 6.06088 0.74094 0
M  V30 7054 H 676.16 5.54126 -1.47026 0
M  V30 7055 H 674.557 5.55866 -2.26126 0
M  V30 7056 H 675.627 4.16313 -2.4862 0
M  V30 7057 N 676.97 0.677563 1.42291 0
M  V30 7058 C 678.386 0.347376 1.55774 0
M  V30 7059 C 678.586 -1.14703 1.65667 0
M  V30 7060 O 677.642 -1.93252 1.62512 0
M  V30 7061 C 678.955 1.08011 2.80631 0
M  V30 7062 C 680.503 1.06271 2.94407 0
M  V30 7063 C 680.978 1.77683 4.22129 0
M  V30 7064 N 682.469 1.74564 4.29047 0
M  V30 7065 C 683.204 2.26673 5.26694 0
M  V30 7066 N 682.7 2.87176 6.30477 0
M  V30 7067 N 684.493 2.17032 5.18511 0
M  V30 7068 H 676.644 1.64703 1.34114 0
M  V30 7069 H 678.907 0.694038 0.645768 0
M  V30 7070 H 678.613 2.13518 2.79469 0
M  V30 7071 H 678.487 0.647115 3.71608 0
M  V30 7072 H 680.874 0.0159658 2.95096 0
M  V30 7073 H 680.955 1.53461 2.04654 0
M  V30 7074 H 680.599 2.82327 4.22201 0
M  V30 7075 H 680.529 1.2794 5.10822 0
M  V30 7076 H 683.02 1.30436 3.54676 0
M  V30 7077 H 683.333 3.24551 7.01346 0
M  V30 7078 H 681.678 2.91247 6.31031 0
M  V30 7079 H 684.869 1.69451 4.36353 0
M  V30 7080 H 685.042 2.57948 5.94446 0
M  V30 7081 N 678.448 -1.51871 0.421078 0
M  V30 7082 C 679.396 -2.28903 -0.413066 0
M  V30 7083 C 680.39 -1.3408 -1.03532 0
M  V30 7084 O 681.596 -1.5149 -0.972146 0
M  V30 7085 H 677.971 -0.736478 -0.152003 0
M  V30 7086 H 679.942 -2.97285 0.257695 0
M  V30 7087 C 678.691 -3.13156 -1.51091 0
M  V30 7088 H 678.014 -3.85997 -1.04145 0
M  V30 7089 H 679.454 -3.7014 -2.06814 0
M  V30 7090 C 677.913 -2.27482 -2.48503 0
M  V30 7091 O 678.443 -1.92325 -3.52667 0
M  V30 7092 N 676.649 -1.91019 -2.18998 0
M  V30 7093 H 676.196 -2.19808 -1.34322 0
M  V30 7094 H 676.154 -1.3399 -2.84419 0
M  V30 7095 N 679.926 -0.151884 -1.56866 0
M  V30 7096 C 681.151 0.508044 -2.01081 0
M  V30 7097 C 681.576 1.57306 -1.03134 0
M  V30 7098 O 680.934 1.81298 -0.0078309 0
M  V30 7099 C 680.982 1.08106 -3.44014 0
M  V30 7100 O 680.086 2.19577 -3.49084 0
M  V30 7101 H 679.427 0.123757 -0.652365 0
M  V30 7102 H 681.957 -0.250055 -2.03066 0
M  V30 7103 H 681.967 1.40851 -3.82916 0
M  V30 7104 H 680.642 0.301168 -4.14808 0
M  V30 7105 H 679.219 1.88023 -3.22027 0
M  V30 7106 N 681.404 1.57128 0.121893 0
M  V30 7107 C 682.82 1.52357 0.47534 0
M  V30 7108 C 683.02 0.864417 1.82017 0
M  V30 7109 O 682.076 0.445529 2.48538 0
M  V30 7110 C 683.389 2.97122 0.4625 0
M  V30 7111 C 684.937 3.08196 0.546255 0
M  V30 7112 C 685.412 4.54516 0.563833 0
M  V30 7113 N 686.903 4.58959 0.625353 0
M  V30 7114 C 687.638 5.69585 0.660354 0
M  V30 7115 N 687.134 6.89714 0.653175 0
M  V30 7116 N 688.927 5.57685 0.703143 0
M  V30 7117 H 681.078 1.98364 -0.75931 0
M  V30 7118 H 683.341 0.905777 -0.279772 0
M  V30 7119 H 683.047 3.48706 -0.457943 0
M  V30 7120 H 682.921 3.54406 1.29136 0
M  V30 7121 H 685.308 2.56617 1.45712 0
M  V30 7122 H 685.389 2.53912 -0.310234 0
M  V30 7123 H 685.033 5.06741 -0.342974 0
M  V30 7124 H 684.963 5.06609 1.43716 0
M  V30 7125 H 687.454 3.72489 0.637182 0
M  V30 7126 H 687.767 7.69781 0.682425 0
M  V30 7127 H 686.112 6.92223 0.620646 0
M  V30 7128 H 689.303 4.62744 0.706095 0
M  V30 7129 H 689.476 6.43909 0.726952 0
M  V30 7130 N 682.882 -0.391992 1.52647 0
M  V30 7131 C 683.829 -1.47866 1.77213 0
M  V30 7132 C 684.799 -1.54286 0.615223 0
M  V30 7133 O 685.984 -1.7059 0.854622 0
M  V30 7134 C 683.124 -2.85129 1.94411 0
M  V30 7135 C 682.237 -2.87883 3.22098 0
M  V30 7136 C 681.372 -4.16553 3.29631 0
M  V30 7137 C 680.411 -4.13348 4.51453 0
M  V30 7138 N 679.548 -5.33619 4.56284 0
M  V30 7139 H 684.388 -1.26219 2.6995 0
M  V30 7140 H 681.925 -0.612367 1.33748 0
M  V30 7141 H 683.883 -3.64833 2.02367 0
M  V30 7142 H 682.513 -3.05232 1.05038 0
M  V30 7143 H 681.565 -2.00567 3.23229 0
M  V30 7144 H 682.877 -2.81382 4.11856 0
M  V30 7145 H 682.031 -5.0466 3.36753 0
M  V30 7146 H 680.77 -4.25773 2.37842 0
M  V30 7147 H 679.775 -3.23629 4.44459 0
M  V30 7148 H 681 -4.05754 5.44555 0
M  V30 7149 H 678.946 -5.43474 3.67385 0
M  V30 7150 H 678.863 -5.29182 5.3991 0
M  V30 7151 H 680.131 -6.23632 4.67657 0
M  V30 7152 N 684.36 -1.4356 -0.65026 0
M  V30 7153 C 685.27 -1.514 -1.79207 0
M  V30 7154 C 686.286 -0.400895 -1.69319 0
M  V30 7155 O 687.462 -0.655458 -1.90436 0
M  V30 7156 C 684.527 -1.43737 -3.155 0
M  V30 7157 C 683.588 -2.65743 -3.37163 0
M  V30 7158 C 682.821 -2.58436 -4.66954 0
M  V30 7159 O 683.044 -1.63374 -5.46503 0
M  V30 7160 O 681.978 -3.48984 -4.90402 0
M  V30 7161 H 685.804 -2.47825 -1.75547 0
M  V30 7162 H 683.389 -1.25594 -0.809111 0
M  V30 7163 H 685.271 -1.41916 -3.96784 0
M  V30 7164 H 683.946 -0.504488 -3.19745 0
M  V30 7165 H 682.853 -2.73136 -2.55632 0
M  V30 7166 H 684.186 -3.58014 -3.37768 0
M  V30 7167 N 685.838 0.888903 -1.30139 0
M  V30 7168 C 686.768 2.01046 -1.18755 0
M  V30 7169 C 687.749 1.69916 -0.0791438 0
M  V30 7170 O 688.934 1.92445 -0.260498 0
M  V30 7171 C 686.064 3.36109 -0.874518 0
M  V30 7172 C 685.018 3.81486 -1.94043 0
M  V30 7173 C 684.344 5.13796 -1.48047 0
M  V30 7174 C 685.644 4.00637 -3.35093 0
M  V30 7175 H 687.338 2.10828 -2.12584 0
M  V30 7176 H 684.884 1.01298 -1.02346 0
M  V30 7177 H 686.837 4.14089 -0.781548 0
M  V30 7178 H 685.561 3.26449 0.0994519 0
M  V30 7179 H 684.22 3.05731 -2.02297 0
M  V30 7180 H 683.868 5.0056 -0.494878 0
M  V30 7181 H 683.568 5.45127 -2.19341 0
M  V30 7182 H 685.092 5.94305 -1.40121 0
M  V30 7183 H 686.506 4.69067 -3.2962 0
M  V30 7184 H 684.903 4.43339 -4.04438 0
M  V30 7185 H 685.973 3.0462 -3.77273 0
M  V30 7186 N 687.317 1.12792 1.10072 0
M  V30 7187 C 688.265 0.794523 2.18609 0
M  V30 7188 C 689.259 -0.220271 1.67962 0
M  V30 7189 O 690.465 -0.0780938 1.79831 0
M  V30 7190 H 686.84 0.239123 0.712969 0
M  V30 7191 H 688.811 1.71823 2.43966 0
M  V30 7192 C 687.56 0.269548 3.46654 0
M  V30 7193 H 686.883 1.04171 3.8599 0
M  V30 7194 H 688.323 0.0746242 4.23934 0
M  V30 7195 C 686.782 -1.00333 3.21613 0
M  V30 7196 O 687.312 -2.08042 3.4363 0
M  V30 7197 N 685.518 -0.931763 2.75257 0
M  V30 7198 H 685.065 -0.0551197 2.57541 0
M  V30 7199 H 685.023 -1.78405 2.58881 0
M  V30 7200 N 688.795 -1.27931 0.920396 0
M  V30 7201 C 690.072 -1.89728 0.475687 0
M  V30 7202 C 690.452 -1.8337 -1.04588 0
M  V30 7203 O 689.8 -1.27404 -1.89685 0
M  V30 7204 C 690.01 -3.33959 1.01354 0
M  V30 7205 C 691.358 -4.10907 1.06963 0
M  V30 7206 O 692.382 -3.42945 0.962646 0
M  V30 7207 O 691.241 -5.32399 1.23343 0
M  V30 7208 H 688.335 -0.81294 0.151845 0
M  V30 7209 H 690.881 -1.36252 1.01161 0
M  V30 7210 H 689.653 -3.32843 2.05746 0
M  V30 7211 H 689.276 -3.94944 0.458829 0
M  V30 7212 N 690.273 -0.685099 -1.4193 0
M  V30 7213 C 691.522 -0.208816 -2.00616 0
M  V30 7214 C 691.835 1.19506 -1.54847 0
M  V30 7215 O 693.041 1.76826 -2.06021 0
M  V30 7216 C 691.497 -0.322446 -3.58453 0
M  V30 7217 C 691.105 -1.73102 -4.13206 0
M  V30 7218 C 692.849 0.0945979 -4.24395 0
M  V30 7219 C 690.756 -1.79687 -5.63442 0
M  V30 7220 H 689.686 -0.0743092 -0.750329 0
M  V30 7221 H 692.337 -0.851778 -1.62533 0
M  V30 7222 H 690.719 0.388588 -3.94089 0
M  V30 7223 H 691.893 -2.46997 -3.8901 0
M  V30 7224 H 690.208 -2.09682 -3.59753 0
M  V30 7225 H 692.805 0.0656937 -5.3466 0
M  V30 7226 H 693.148 1.1316 -4.00625 0
M  V30 7227 H 693.681 -0.56579 -3.93756 0
M  V30 7228 H 690.42 -2.81404 -5.92024 0
M  V30 7229 H 689.94 -1.10162 -5.89597 0
M  V30 7230 H 691.619 -1.55498 -6.28036 0
M  V30 7231 N 691.751 1.51645 -0.429126 0
M  V30 7232 C 693.167 1.59394 -0.080994 0
M  V30 7233 C 693.367 1.44064 1.40882 0
M  V30 7234 O 692.423 1.27771 2.17786 0
M  V30 7235 C 693.736 2.94779 -0.593773 0
M  V30 7236 C 695.284 3.08067 -0.553494 0
M  V30 7237 C 695.759 4.45963 -1.04311 0
M  V30 7238 N 697.25 4.5226 -1.00076 0
M  V30 7239 C 697.985 5.57268 -1.35056 0
M  V30 7240 N 697.481 6.69734 -1.77282 0
M  V30 7241 N 699.274 5.47582 -1.26925 0
M  V30 7242 H 691.425 1.59856 -1.39857 0
M  V30 7243 H 693.688 0.753095 -0.575805 0
M  V30 7244 H 693.394 3.11342 -1.63583 0
M  V30 7245 H 693.268 3.77197 -0.0142202 0
M  V30 7246 H 695.655 2.91177 0.479556 0
M  V30 7247 H 695.736 2.27508 -1.16935 0
M  V30 7248 H 695.38 4.63598 -2.07459 0
M  V30 7249 H 695.31 5.25049 -0.403873 0
M  V30 7250 H 697.801 3.71537 -0.690564 0
M  V30 7251 H 698.114 7.4587 -2.02232 0
M  V30 7252 H 696.459 6.70963 -1.81202 0
M  V30 7253 H 699.65 4.58604 -0.93809 0
M  V30 7254 H 699.823 6.29308 -1.54516 0
M  V30 7255 N 693.229 0.160201 1.56784 0
M  V30 7256 C 694.476 -0.487588 1.96542 0
M  V30 7257 C 694.804 -1.63999 1.04569 0
M  V30 7258 O 694.059 -1.95546 0.0775211 0
M  V30 7259 C 694.358 -1.02259 3.42459 0
M  V30 7260 C 694.024 0.0127436 4.50898 0
M  V30 7261 C 692.686 0.297318 4.80281 0
M  V30 7262 C 695.038 0.716078 5.16257 0
M  V30 7263 C 692.366 1.29081 5.72324 0
M  V30 7264 C 694.718 1.69847 6.09372 0
M  V30 7265 C 693.382 1.99061 6.37127 0
M  V30 7266 H 692.652 -0.178421 0.719199 0
M  V30 7267 H 695.299 0.249818 1.89864 0
M  V30 7268 H 693.604 -1.8376 3.46034 0
M  V30 7269 H 695.301 -1.53261 3.70556 0
M  V30 7270 H 691.891 -0.219235 4.28039 0
M  V30 7271 H 696.075 0.509428 4.93679 0
M  V30 7272 H 691.331 1.52344 5.92116 0
M  V30 7273 H 695.505 2.2489 6.59088 0
M  V30 7274 H 693.132 2.76194 7.08252 0
M  V30 7275 N 694.707 -1.5719 -0.113559 0
M  V30 7276 C 695.617 -2.04041 -1.15777 0
M  V30 7277 C 696.633 -0.961812 -1.45001 0
M  V30 7278 O 697.809 -1.2737 -1.56009 0
M  V30 7279 C 694.874 -2.43994 -2.46308 0
M  V30 7280 C 693.935 -3.65962 -2.24433 0
M  V30 7281 C 693.168 -4.04 -3.4874 0
M  V30 7282 O 693.391 -3.42321 -4.56259 0
M  V30 7283 O 692.325 -4.97069 -3.3942 0
M  V30 7284 H 696.151 -2.93248 -0.789899 0
M  V30 7285 H 693.736 -1.45828 -0.324748 0
M  V30 7286 H 695.618 -2.70401 -3.23204 0
M  V30 7287 H 694.293 -1.57932 -2.82558 0
M  V30 7288 H 693.2 -3.44697 -1.45377 0
M  V30 7289 H 694.533 -4.52746 -1.93084 0
M  V30 7290 N 696.185 0.383891 -1.52853 0
M  V30 7291 C 697.432 1.12842 -1.68146 0
M  V30 7292 C 697.76 1.89823 -0.423954 0
M  V30 7293 O 697.015 1.86475 0.593765 0
M  V30 7294 C 697.314 2.12881 -2.87082 0
M  V30 7295 C 696.98 1.52519 -4.24322 0
M  V30 7296 C 695.642 1.35783 -4.61645 0
M  V30 7297 C 697.994 1.0868 -5.09743 0
M  V30 7298 C 695.322 0.737643 -5.82044 0
M  V30 7299 C 697.674 0.480699 -6.30771 0
M  V30 7300 C 696.338 0.300681 -6.66822 0
M  V30 7301 H 695.608 0.412917 -0.615289 0
M  V30 7302 H 698.255 0.412416 -1.87006 0
M  V30 7303 H 696.56 2.90719 -2.62659 0
M  V30 7304 H 698.257 2.70408 -2.96109 0
M  V30 7305 H 694.847 1.66534 -3.94923 0
M  V30 7306 H 699.031 1.2041 -4.81472 0
M  V30 7307 H 694.287 0.586415 -6.08581 0
M  V30 7308 H 698.461 0.132733 -6.96273 0
M  V30 7309 H 696.088 -0.181966 -7.59982 0
M  V30 7310 N 697.663 1.43903 0.642637 0
M  V30 7311 C 698.891 1.4954 1.42988 0
M  V30 7312 C 699.306 0.116588 1.8844 0
M  V30 7313 O 698.663 -0.875285 1.60141 0
M  V30 7314 C 698.714 2.45031 2.65785 0
M  V30 7315 O 698.435 3.77551 2.22232 0
M  V30 7316 C 699.936 2.60017 3.59035 0
M  V30 7317 H 697.156 0.507544 0.438907 0
M  V30 7318 H 699.7 1.88752 0.786942 0
M  V30 7319 H 697.855 2.08985 3.26196 0
M  V30 7320 H 698.269 4.29001 3.01759 0
M  V30 7321 H 699.743 3.30887 4.41835 0
M  V30 7322 H 700.22 1.64861 4.07084 0
M  V30 7323 H 700.826 2.96918 3.045 0
M  V30 7324 N 699.141 -0.881989 1.30609 0
M  V30 7325 C 700.552 -1.44956 1.17664 0
M  V30 7326 C 700.903 -1.94945 -0.221531 0
M  V30 7327 O 700.028 -1.85257 -1.11844 0
M  V30 7328 C 700.623 -2.63474 2.12995 0
M  V30 7329 C 699.182 -3.16312 2.04019 0
M  V30 7330 C 698.329 -1.89008 2.02907 0
M  V30 7331 H 701.28 -0.691645 1.42835 0
M  V30 7332 H 701.301 -3.39783 1.71253 0
M  V30 7333 H 700.813 -2.2706 3.14746 0
M  V30 7334 H 698.914 -3.57376 1.0542 0
M  V30 7335 H 699.027 -3.79409 2.9255 0
M  V30 7336 H 697.391 -2.07465 1.47751 0
M  V30 7337 H 698.174 -1.54848 3.06394 0
M  V30 7338 N 700.619 -1.13374 -1.09472 0
M  V30 7339 C 701.867 -0.893422 -1.8128 0
M  V30 7340 C 702.188 0.582029 -1.86111 0
M  V30 7341 O 701.458 1.42305 -1.34633 0
M  V30 7342 H 700.038 -0.327543 -0.67136 0
M  V30 7343 H 702.7 -1.43018 -1.32408 0
M  V30 7344 H 701.796 -1.28374 -2.84476 0
M  V30 7345 N 702.098 1.27442 -0.927168 0
M  V30 7346 C 703.514 1.46754 -0.627329 0
M  V30 7347 C 703.714 1.83902 0.823549 0
M  V30 7348 O 702.77 1.95215 1.60148 0
M  V30 7349 C 704.083 2.56045 -1.57674 0
M  V30 7350 C 705.631 2.69906 -1.58491 0
M  V30 7351 C 706.106 3.82355 -2.52128 0
M  V30 7352 N 707.597 3.89728 -2.50332 0
M  V30 7353 C 708.332 4.76155 -3.19475 0
M  V30 7354 N 707.828 5.67073 -3.97995 0
M  V30 7355 N 709.621 4.6988 -3.08496 0
M  V30 7356 H 701.772 1.01613 -1.86517 0
M  V30 7357 H 704.035 0.507443 -0.800753 0
M  V30 7358 H 703.741 2.35542 -2.61176 0
M  V30 7359 H 703.615 3.53423 -1.31804 0
M  V30 7360 H 706.002 2.89792 -0.557208 0
M  V30 7361 H 706.083 1.73018 -1.8841 0
M  V30 7362 H 705.727 3.63224 -3.55008 0
M  V30 7363 H 705.657 4.7867 -2.19505 0
M  V30 7364 H 708.148 3.24717 -1.93306 0
M  V30 7365 H 708.461 6.2988 -4.4774 0
M  V30 7366 H 706.806 5.6687 -4.02098 0
M  V30 7367 H 709.997 3.97848 -2.46646 0
M  V30 7368 H 710.17 5.37017 -3.62652 0
M  V30 7369 N 703.576 0.692616 1.41565 0
M  V30 7370 C 704.853 0.150496 1.9502 0
M  V30 7371 C 705.233 -1.33881 1.63215 0
M  V30 7372 O 704.581 -2.08378 0.937598 0
M  V30 7373 C 704.791 0.438636 3.46233 0
M  V30 7374 C 706.139 0.364777 4.2303 0
M  V30 7375 O 707.163 0.373383 3.54238 0
M  V30 7376 O 706.022 0.32234 5.45549 0
M  V30 7377 H 703.116 0.0132454 0.826894 0
M  V30 7378 H 705.662 0.768574 1.51298 0
M  V30 7379 H 704.434 1.46962 3.62654 0
M  V30 7380 H 704.057 -0.210562 3.97042 0
M  V30 7381 N 705.054 -1.51416 0.437162 0
M  V30 7382 C 706.282 -2.06503 -0.128045 0
M  V30 7383 C 706.697 -1.30461 -1.36475 0
M  V30 7384 O 706.054 -0.364127 -1.78831 0
M  V30 7385 C 706.105 -3.58683 -0.450437 0
M  V30 7386 O 705.826 -4.31853 0.737186 0
M  V30 7387 C 707.327 -4.30284 -1.06633 0
M  V30 7388 H 704.547 -0.670952 -0.00800269 0
M  V30 7389 H 707.091 -1.94996 0.616193 0
M  V30 7390 H 705.246 -3.70106 -1.14457 0
M  V30 7391 H 705.66 -5.22467 0.461347 0
M  V30 7392 H 707.134 -5.37848 -1.24191 0
M  V30 7393 H 707.611 -3.88564 -2.0473 0
M  V30 7394 H 708.217 -4.23304 -0.411585 0
M  V30 7395 N 706.532 -0.168513 -1.56696 0
M  V30 7396 C 707.495 0.748928 -2.16619 0
M  V30 7397 C 708.495 1.16007 -1.11351 0
M  V30 7398 O 709.685 1.07748 -1.3688 0
M  V30 7399 C 706.817 2.01904 -2.74677 0
M  V30 7400 H 708.01 0.227317 -2.99037 0
M  V30 7401 H 705.563 0.0810372 -1.5609 0
M  V30 7402 H 706.298 2.58381 -1.95985 0
M  V30 7403 H 706.083 1.73323 -3.51712 0
M  V30 7404 H 707.573 2.67383 -3.20774 0
M  V30 7405 N 708.01 1.57248 0.105221 0
M  V30 7406 C 709.287 1.76566 0.841647 0
M  V30 7407 C 709.667 0.747566 1.9742 0
M  V30 7408 O 709.015 -0.225886 2.27381 0
M  V30 7409 C 709.225 3.22016 1.3456 0
M  V30 7410 C 710.573 3.84911 1.79244 0
M  V30 7411 O 711.597 3.25703 1.44207 0
M  V30 7412 O 710.456 4.89008 2.43995 0
M  V30 7413 H 707.55 0.723443 0.400698 0
M  V30 7414 H 710.096 1.69472 0.0878893 0
M  V30 7415 H 708.868 3.87644 0.533685 0
M  V30 7416 H 708.491 3.33703 2.16167 0
M  V30 7417 N 709.488 -0.375779 1.53054 0
M  V30 7418 C 710.736 -1.11727 1.68409 0
M  V30 7419 C 711.057 -1.90127 0.43323 0
M  V30 7420 O 710.327 -1.87945 -0.552595 0
M  V30 7421 H 708.907 -0.415451 0.620813 0
M  V30 7422 H 711.569 -0.424869 1.90213 0
M  V30 7423 H 710.665 -1.8128 2.54055 0
M  V30 7424 N 710.966 -1.44241 -0.634997 0
M  V30 7425 C 712.212 -1.47038 -1.39669 0
M  V30 7426 C 712.545 -0.101122 -1.93937 0
M  V30 7427 O 711.82 0.880699 -1.73418 0
M  V30 7428 C 712.103 -2.52763 -2.56482 0
M  V30 7429 C 711.956 -3.99032 -2.07589 0
M  V30 7430 C 713.275 -2.55031 -3.58674 0
M  V30 7431 H 710.394 -0.53537 -0.506506 0
M  V30 7432 H 713.036 -1.75898 -0.718317 0
M  V30 7433 H 711.186 -2.28284 -3.14354 0
M  V30 7434 H 712.858 -4.3463 -1.54577 0
M  V30 7435 H 711.101 -4.10994 -1.38804 0
M  V30 7436 H 711.772 -4.68649 -2.91671 0
M  V30 7437 H 714.248 -2.76893 -3.10595 0
M  V30 7438 H 713.124 -3.30916 -4.37934 0
M  V30 7439 H 713.385 -1.59085 -4.12486 0
M  V30 7440 N 712.444 0.87505 -1.31075 0
M  V30 7441 C 713.669 1.66583 -1.23551 0
M  V30 7442 C 714.094 1.87067 0.19686 0
M  V30 7443 O 713.452 1.40877 1.1412 0
M  V30 7444 C 713.5 3.01401 -1.97965 0
M  V30 7445 O 712.604 3.90923 -1.31351 0
M  V30 7446 H 711.945 0.508645 -0.426821 0
M  V30 7447 H 714.475 1.09139 -1.7306 0
M  V30 7448 H 714.485 3.51374 -2.07366 0
M  V30 7449 H 713.16 2.85812 -3.02133 0
M  V30 7450 H 711.737 3.49369 -1.30368 0
M  V30 7451 N 713.922 1.13953 1.08869 0
M  V30 7452 C 714.854 0.779906 2.15523 0
M  V30 7453 C 715.867 -0.20102 1.61554 0
M  V30 7454 O 717.056 0.0200049 1.78489 0
M  V30 7455 C 714.156 0.136226 3.38626 0
M  V30 7456 C 713.329 1.15069 4.21993 0
M  V30 7457 C 712.388 0.531645 5.23507 0
M  V30 7458 O 711.414 1.19327 5.56552 0
M  V30 7459 N 712.616 -0.693734 5.7634 0
M  V30 7460 H 715.381 1.69769 2.46979 0
M  V30 7461 H 712.942 1.03331 1.24637 0
M  V30 7462 H 714.934 -0.290295 4.03658 0
M  V30 7463 H 713.504 -0.684603 3.05011 0
M  V30 7464 H 712.724 1.75431 3.53012 0
M  V30 7465 H 714.012 1.83614 4.74514 0
M  V30 7466 H 713.41 -1.24994 5.51718 0
M  V30 7467 H 711.967 -1.06283 6.43076 0
M  V30 7468 N 715.4 -1.26948 0.933913 0
M  V30 7469 C 716.31 -2.30366 0.443671 0
M  V30 7470 C 717.326 -1.67284 -0.478745 0
M  V30 7471 O 718.502 -1.98156 -0.360043 0
M  V30 7472 C 715.567 -3.45485 -0.289974 0
M  V30 7473 C 714.628 -4.24069 0.668114 0
M  V30 7474 C 713.861 -5.33691 -0.0306138 0
M  V30 7475 O 714.084 -5.5656 -1.24888 0
M  V30 7476 O 713.018 -5.98441 0.644384 0
M  V30 7477 H 716.844 -2.74349 1.30254 0
M  V30 7478 H 714.429 -1.32012 0.699506 0
M  V30 7479 H 716.311 -4.15486 -0.70353 0
M  V30 7480 H 714.986 -3.03546 -1.12435 0
M  V30 7481 H 713.893 -3.56579 1.13147 0
M  V30 7482 H 715.226 -4.69739 1.46989 0
M  V30 7483 N 716.879 -0.700114 -1.41195 0
M  V30 7484 C 717.809 -0.0521132 -2.33442 0
M  V30 7485 C 718.79 0.76228 -1.52063 0
M  V30 7486 O 719.975 0.714336 -1.80585 0
M  V30 7487 C 717.105 0.881693 -3.35922 0
M  V30 7488 C 716.059 0.174062 -4.27646 0
M  V30 7489 C 715.385 1.22254 -5.20536 0
M  V30 7490 C 716.685 -0.962396 -5.13357 0
M  V30 7491 H 718.379 -0.822574 -2.87879 0
M  V30 7492 H 715.925 -0.397011 -1.38419 0
M  V30 7493 H 717.878 1.34429 -3.99383 0
M  V30 7494 H 716.602 1.68387 -2.79845 0
M  V30 7495 H 715.261 -0.268551 -3.65615 0
M  V30 7496 H 714.909 2.01736 -4.60773 0
M  V30 7497 H 714.609 0.754038 -5.82742 0
M  V30 7498 H 716.133 1.68555 -5.86874 0
M  V30 7499 H 717.547 -0.579875 -5.7036 0
M  V30 7500 H 715.944 -1.35828 -5.84526 0
M  V30 7501 H 717.014 -1.80003 -4.50252 0
M  V30 7502 N 718.357 1.51182 -0.445186 0
M  V30 7503 C 719.604 2.02152 0.118645 0
M  V30 7504 C 719.932 1.32888 1.42025 0
M  V30 7505 O 719.187 0.435041 1.90803 0
M  V30 7506 C 719.486 3.55408 0.376797 0
M  V30 7507 C 719.152 4.43008 -0.839945 0
M  V30 7508 C 717.814 4.66669 -1.17361 0
M  V30 7509 C 720.166 4.9435 -1.65127 0
M  V30 7510 C 717.494 5.38919 -2.31913 0
M  V30 7511 C 719.846 5.67857 -2.78786 0
M  V30 7512 C 718.51 5.89779 -3.12597 0
M  V30 7513 H 717.78 0.739727 0.0434152 0
M  V30 7514 H 720.427 1.82055 -0.593984 0
M  V30 7515 H 718.732 3.73879 1.1714 0
M  V30 7516 H 720.429 3.92388 0.826602 0
M  V30 7517 H 717.019 4.24793 -0.569958 0
M  V30 7518 H 721.203 4.75947 -1.4067 0
M  V30 7519 H 716.459 5.54105 -2.58413 0
M  V30 7520 H 720.633 6.06628 -3.42017 0
M  V30 7521 H 718.26 6.45542 -4.01471 0
M  V30 7522 N 719.835 0.176821 1.56605 0
M  V30 7523 C 721.06 -0.47599 2.01864 0
M  V30 7524 C 721.485 -1.55645 1.05623 0
M  V30 7525 O 720.843 -1.81263 0.0366729 0
M  V30 7526 C 720.891 -1.02619 3.4569 0
M  V30 7527 O 719.995 -2.13996 3.52533 0
M  V30 7528 H 719.336 -0.113363 0.654251 0
M  V30 7529 H 721.866 0.28233 2.02643 0
M  V30 7530 H 721.876 -1.34742 3.85109 0
M  V30 7531 H 720.551 -0.235138 4.15235 0
M  V30 7532 H 719.128 -1.82876 3.24978 0
M  V30 7533 N 721.313 -1.57302 -0.09688 0
M  V30 7534 C 722.276 -2.00976 -1.10188 0
M  V30 7535 C 723.276 -0.903009 -1.3305 0
M  V30 7536 O 724.466 -1.16853 -1.29194 0
M  V30 7537 C 721.598 -2.36893 -2.45142 0
M  V30 7538 H 722.791 -2.9098 -0.726003 0
M  V30 7539 H 720.344 -1.52515 -0.341872 0
M  V30 7540 H 721.079 -1.49837 -2.8761 0
M  V30 7541 H 720.864 -3.17632 -2.29897 0
M  V30 7542 H 722.354 -2.71345 -3.1743 0
M  V30 7543 N 722.791 0.367657 -1.53252 0
M  V30 7544 C 724.039 1.10832 -1.68999 0
M  V30 7545 C 724.36 1.89894 -0.443306 0
M  V30 7546 O 723.63 1.88235 0.54262 0
M  V30 7547 H 722.21 0.412153 -0.623008 0
M  V30 7548 H 724.872 0.414775 -1.90435 0
M  V30 7549 H 723.968 1.7993 -2.55013 0
M  V30 7550 N 724.269 1.44576 0.627338 0
M  V30 7551 C 725.199 1.54562 1.75022 0
M  V30 7552 C 726.18 0.398378 1.65369 0
M  V30 7553 O 727.365 0.61899 1.84071 0
M  V30 7554 C 724.495 1.49309 3.13567 0
M  V30 7555 C 723.449 2.62549 3.38012 0
M  V30 7556 C 722.775 2.42348 4.76625 0
M  V30 7557 C 724.075 4.04678 3.30202 0
M  V30 7558 H 725.769 2.4855 1.66922 0
M  V30 7559 H 723.315 1.19624 0.801636 0
M  V30 7560 H 725.268 1.54895 3.919 0
M  V30 7561 H 723.992 0.518392 3.2246 0
M  V30 7562 H 722.651 2.56358 2.62061 0
M  V30 7563 H 722.299 1.43062 4.82226 0
M  V30 7564 H 721.999 3.18273 4.93939 0
M  V30 7565 H 723.523 2.49758 5.57183 0
M  V30 7566 H 724.937 4.12217 3.98435 0
M  V30 7567 H 723.334 4.80836 3.5905 0
M  V30 7568 H 724.404 4.2798 2.27949 0
M  V30 7569 N 725.747 -0.868086 1.31537 0
M  V30 7570 C 726.993 -1.62367 1.2151 0
M  V30 7571 C 727.326 -1.92883 -0.225819 0
M  V30 7572 O 726.601 -1.56176 -1.15927 0
M  V30 7573 C 726.884 -2.95268 2.06129 0
M  V30 7574 C 726.737 -2.71619 3.58529 0
M  V30 7575 C 728.056 -3.96391 1.91212 0
M  V30 7576 H 725.175 -0.589178 0.442762 0
M  V30 7577 H 727.817 -1.00336 1.61347 0
M  V30 7578 H 725.967 -3.4821 1.72284 0
M  V30 7579 H 727.639 -2.25334 4.0252 0
M  V30 7580 H 725.882 -2.05817 3.81866 0
M  V30 7581 H 726.553 -3.66192 4.13047 0
M  V30 7582 H 729.029 -3.52663 2.20834 0
M  V30 7583 H 727.905 -4.87263 2.52718 0
M  V30 7584 H 728.166 -4.33335 0.875953 0
M  V30 7585 N 727.225 -1.14528 -1.08264 0
M  V30 7586 C 728.502 -0.825185 -1.77342 0
M  V30 7587 C 728.882 0.681037 -1.99813 0
M  V30 7588 O 728.23 1.62234 -1.60912 0
M  V30 7589 C 728.44 -1.62556 -3.08831 0
M  V30 7590 C 729.788 -1.82585 -3.83338 0
M  V30 7591 O 730.812 -1.59254 -3.18617 0
M  V30 7592 O 729.671 -2.21598 -4.99556 0
M  V30 7593 H 726.765 -0.302531 -0.769678 0
M  V30 7594 H 729.311 -1.25056 -1.14713 0
M  V30 7595 H 728.083 -2.64862 -2.88035 0
M  V30 7596 H 727.706 -1.1959 -3.79189 0
M  V30 7597 N 728.703 1.26451 -0.940633 0
M  V30 7598 C 729.951 1.93395 -0.586748 0
M  V30 7599 C 730.272 1.7417 0.876921 0
M  V30 7600 O 729.542 1.097 1.62304 0
M  V30 7601 H 728.122 0.715687 -0.214012 0
M  V30 7602 H 730.784 1.53902 -1.19584 0
M  V30 7603 H 729.88 3.01565 -0.804059 0
M  V30 7604 N 730.181 0.707592 1.40822 0
M  V30 7605 C 731.131 0.0265008 2.27985 0
M  V30 7606 C 732.115 -0.740685 1.42838 0
M  V30 7607 O 733.307 -0.6142 1.66002 0
M  V30 7608 C 730.436 -0.900382 3.31282 0
M  V30 7609 C 729.522 -0.128807 4.23904 0
M  V30 7610 N 729.913 0.883744 4.9802 0
M  V30 7611 C 728.211 -0.362539 4.44524 0
M  V30 7612 C 728.912 1.34666 5.65898 0
M  V30 7613 N 727.888 0.670306 5.39451 0
M  V30 7614 H 731.69 0.802667 2.82727 0
M  V30 7615 H 729.204 0.539475 1.53178 0
M  V30 7616 H 731.201 -1.40357 3.92563 0
M  V30 7617 H 729.861 -1.67601 2.781 0
M  V30 7618 H 730.872 1.26435 5.0223 0
M  V30 7619 H 727.549 -1.11512 4.02332 0
M  V30 7620 H 728.939 2.18756 6.35292 0
M  V30 7621 N 731.66 -1.50943 0.453197 0
M  V30 7622 C 732.937 -1.94872 -0.168633 0
M  V30 7623 C 733.317 -1.39272 -1.5864 0
M  V30 7624 O 732.665 -0.586272 -2.20851 0
M  V30 7625 C 732.875 -3.48757 -0.130217 0
M  V30 7626 C 734.223 -4.23331 -0.327975 0
M  V30 7627 O 735.247 -3.55594 -0.207619 0
M  V30 7628 O 734.106 -5.43529 -0.569077 0
M  V30 7629 H 731.2 -0.818042 -0.121394 0
M  V30 7630 H 733.746 -1.61782 0.512316 0
M  V30 7631 H 732.518 -3.81725 0.860346 0
M  V30 7632 H 732.141 -3.88333 -0.853397 0
M  V30 7633 N 733.138 -0.185124 -1.56509 0
M  V30 7634 C 734.384 0.456934 -1.97585 0
M  V30 7635 C 734.717 1.61957 -1.07161 0
M  V30 7636 O 733.992 1.9412 -0.121546 0
M  V30 7637 C 734.275 0.926666 -3.47973 0
M  V30 7638 C 734.128 -0.237097 -4.49175 0
M  V30 7639 C 735.447 1.79561 -4.01803 0
M  V30 7640 H 732.566 0.164619 -0.71838 0
M  V30 7641 H 735.208 -0.274039 -1.88013 0
M  V30 7642 H 733.358 1.54954 -3.56261 0
M  V30 7643 H 735.03 -0.87454 -4.52934 0
M  V30 7644 H 733.273 -0.890446 -4.24563 0
M  V30 7645 H 733.944 0.133924 -5.51838 0
M  V30 7646 H 736.42 1.27039 -3.96232 0
M  V30 7647 H 735.296 2.09327 -5.07418 0
M  V30 7648 H 735.557 2.74629 -3.46455 0
M  V30 7649 N 734.616 1.57351 0.0885366 0
M  V30 7650 C 735.862 1.86696 0.791996 0
M  V30 7651 C 736.195 0.775148 1.78059 0
M  V30 7652 O 735.47 -0.216247 1.93294 0
M  V30 7653 C 735.753 3.26684 1.51491 0
M  V30 7654 C 735.606 4.465 0.543858 0
M  V30 7655 C 736.925 3.64664 2.46391 0
M  V30 7656 H 734.044 0.679049 0.286463 0
M  V30 7657 H 736.686 1.89919 0.0554866 0
M  V30 7658 H 734.836 3.24067 2.14273 0
M  V30 7659 H 736.508 4.61235 -0.0774597 0
M  V30 7660 H 734.751 4.33567 -0.142228 0
M  V30 7661 H 735.422 5.41192 1.08696 0
M  V30 7662 H 737.898 3.68267 1.93698 0
M  V30 7663 H 736.774 4.63534 2.93986 0
M  V30 7664 H 737.035 2.93698 3.30445 0
M  V30 7665 N 736.094 -0.359525 1.53444 0
M  V30 7666 C 737.343 -1.09886 1.69139 0
M  V30 7667 C 737.656 -1.90285 0.452863 0
M  V30 7668 O 738.862 -2.67033 0.490459 0
M  V30 7669 C 737.318 -2.0028 2.99025 0
M  V30 7670 C 736.926 -1.25164 4.30161 0
M  V30 7671 C 738.67 -2.74168 3.24086 0
M  V30 7672 C 736.577 -2.14494 5.51132 0
M  V30 7673 H 735.507 -0.413936 0.630217 0
M  V30 7674 H 738.158 -0.359434 1.79945 0
M  V30 7675 H 736.54 -2.77978 2.82036 0
M  V30 7676 H 737.714 -0.524867 4.57801 0
M  V30 7677 H 736.029 -0.631116 4.11589 0
M  V30 7678 H 738.626 -3.41243 4.11652 0
M  V30 7679 H 738.969 -3.39868 2.40407 0
M  V30 7680 H 739.502 -2.0355 3.41778 0
M  V30 7681 H 736.241 -1.53362 6.37307 0
M  V30 7682 H 735.761 -2.85004 5.27762 0
M  V30 7683 H 737.44 -2.73914 5.86157 0
M  V30 7684 N 737.572 -1.44907 -0.619662 0
M  V30 7685 C 738.818 -1.48512 -1.38102 0
M  V30 7686 C 739.151 -0.121686 -1.93818 0
M  V30 7687 O 738.426 0.862256 -1.74343 0
M  V30 7688 C 738.709 -2.55469 -2.53787 0
M  V30 7689 C 738.562 -4.01212 -2.03345 0
M  V30 7690 C 739.881 -2.58821 -3.55949 0
M  V30 7691 H 737 -0.540712 -0.500799 0
M  V30 7692 H 739.642 -1.7665 -0.69962 0
M  V30 7693 H 737.792 -2.31606 -3.11915 0
M  V30 7694 H 739.464 -4.36245 -1.49959 0
M  V30 7695 H 737.707 -4.12443 -1.34438 0
M  V30 7696 H 738.378 -4.71717 -2.86683 0
M  V30 7697 H 740.854 -2.80172 -3.07641 0
M  V30 7698 H 739.73 -3.35542 -4.34399 0
M  V30 7699 H 739.991 -1.63451 -4.10775 0
M  V30 7700 N 739.05 0.861098 -1.31996 0
M  V30 7701 C 740.013 1.95068 -1.20338 0
M  V30 7702 C 741.013 1.60289 -0.128114 0
M  V30 7703 O 742.203 1.70048 -0.378044 0
M  V30 7704 C 739.335 3.30153 -0.849205 0
M  V30 7705 H 740.528 2.06833 -2.17164 0
M  V30 7706 H 738.081 1.05049 -1.15734 0
M  V30 7707 H 738.816 3.24087 0.117508 0
M  V30 7708 H 738.601 3.56771 -1.62655 0
M  V30 7709 H 740.091 4.10025 -0.791782 0
M  V30 7710 N 740.528 1.15101 1.07655 0
M  V30 7711 C 741.491 0.847625 2.12951 0
M  V30 7712 C 742.491 -0.151227 1.60087 0
M  V30 7713 O 743.681 0.0780399 1.74025 0
M  V30 7714 C 740.813 0.265 3.39868 0
M  V30 7715 H 742.006 1.7809 2.41296 0
M  V30 7716 H 739.559 0.958072 1.23494 0
M  V30 7717 H 740.294 -0.676625 3.17163 0
M  V30 7718 H 740.079 0.984554 3.79538 0
M  V30 7719 H 741.569 0.0702121 4.17541 0
M  V30 7720 N 742.006 -1.2595 0.947325 0
M  V30 7721 C 742.954 -2.28152 0.452687 0
M  V30 7722 C 743.948 -1.62655 -0.473239 0
M  V30 7723 O 745.154 -1.76549 -0.350774 0
M  V30 7724 H 741.529 -0.741049 0.12787 0
M  V30 7725 H 743.5 -2.67267 1.32707 0
M  V30 7726 C 742.249 -3.46719 -0.26098 0
M  V30 7727 H 741.572 -3.97345 0.442352 0
M  V30 7728 H 743.012 -4.20135 -0.571208 0
M  V30 7729 C 741.471 -3.02605 -1.48094 0
M  V30 7730 O 742.001 -3.07979 -2.57899 0
M  V30 7731 N 740.207 -2.57877 -1.33969 0
M  V30 7732 H 739.754 -2.53704 -0.446295 0
M  V30 7733 H 739.712 -2.28725 -2.15713 0
M  V30 7734 N 743.484 -0.715051 -1.40445 0
M  V30 7735 C 744.414 -0.0768699 -2.33373 0
M  V30 7736 C 745.395 0.746109 -1.52863 0
M  V30 7737 O 746.58 0.695142 -1.81332 0
M  V30 7738 C 743.71 0.846014 -3.36838 0
M  V30 7739 C 742.664 0.128694 -4.27806 0
M  V30 7740 C 741.99 1.16726 -5.21804 0
M  V30 7741 C 743.29 -1.01679 -5.12307 0
M  V30 7742 H 744.984 -0.853061 -2.8699 0
M  V30 7743 H 742.53 -0.41167 -1.3799 0
M  V30 7744 H 744.483 1.30185 -4.00786 0
M  V30 7745 H 743.207 1.6541 -2.81615 0
M  V30 7746 H 741.866 -0.307314 -3.6531 0
M  V30 7747 H 741.514 1.96838 -4.62887 0
M  V30 7748 H 741.214 0.692188 -5.83509 0
M  V30 7749 H 742.738 1.62321 -5.88629 0
M  V30 7750 H 744.152 -0.640337 -5.69713 0
M  V30 7751 H 742.549 -1.4202 -5.83053 0
M  V30 7752 H 743.619 -1.84769 -4.48317 0
M  V30 7753 N 744.962 1.50701 -0.461195 0
M  V30 7754 C 745.894 2.26124 0.374244 0
M  V30 7755 C 746.907 1.31064 0.965715 0
M  V30 7756 O 748.096 1.56647 0.855801 0
M  V30 7757 C 745.196 3.01996 1.5379 0
M  V30 7758 C 744.369 4.24336 1.06101 0
M  V30 7759 C 743.428 4.82585 2.09756 0
M  V30 7760 O 742.454 5.43775 1.68219 0
M  V30 7761 N 743.656 4.68712 3.42475 0
M  V30 7762 H 746.421 2.9846 -0.2723 0
M  V30 7763 H 743.982 1.59256 -0.291415 0
M  V30 7764 H 745.974 3.37846 2.22806 0
M  V30 7765 H 744.544 2.32521 2.08933 0
M  V30 7766 H 743.764 3.93707 0.197085 0
M  V30 7767 H 745.052 5.03678 0.720156 0
M  V30 7768 H 744.45 4.20026 3.78938 0
M  V30 7769 H 743.007 5.08858 4.07317 0
M  V30 7770 N 746.441 0.193421 1.56409 0
M  V30 7771 C 747.388 -0.728124 2.19014 0
M  V30 7772 C 748.358 -1.21098 1.13686 0
M  V30 7773 O 749.543 -1.27517 1.4193 0
M  V30 7774 C 746.683 -1.94277 2.8522 0
M  V30 7775 C 745.796 -1.50143 4.05069 0
M  V30 7776 C 744.931 -2.67145 4.59137 0
M  V30 7777 C 743.97 -2.19609 5.71348 0
M  V30 7778 N 743.107 -3.29782 6.19829 0
M  V30 7779 H 747.947 -0.187499 2.9741 0
M  V30 7780 H 745.484 -0.0808064 1.46878 0
M  V30 7781 H 747.442 -2.65551 3.21774 0
M  V30 7782 H 746.072 -2.45673 2.09391 0
M  V30 7783 H 745.124 -0.684624 3.74189 0
M  V30 7784 H 746.436 -1.11266 4.86232 0
M  V30 7785 H 745.59 -3.46544 4.97988 0
M  V30 7786 H 744.329 -3.09295 3.77078 0
M  V30 7787 H 743.334 -1.38664 5.32027 0
M  V30 7788 H 744.559 -1.78492 6.55223 0
M  V30 7789 H 742.505 -3.71466 5.40693 0
M  V30 7790 H 742.422 -2.95069 6.96039 0
M  V30 7791 H 743.69 -4.094 6.63334 0
M  V30 7792 N 747.919 -1.57396 -0.0801906 0
M  V30 7793 C 749.168 -1.8602 -0.779702 0
M  V30 7794 C 749.481 -0.784864 -1.79163 0
M  V30 7795 O 750.687 -0.958691 -2.54011 0
M  V30 7796 C 749.143 -3.29942 -1.43758 0
M  V30 7797 C 748.751 -4.45584 -0.464654 0
M  V30 7798 C 750.495 -3.67775 -2.11995 0
M  V30 7799 C 748.402 -5.80544 -1.12797 0
M  V30 7800 H 747.332 -0.69392 -0.294943 0
M  V30 7801 H 749.983 -1.83471 -0.0328527 0
M  V30 7802 H 748.365 -3.27078 -2.2324 0
M  V30 7803 H 749.539 -4.59824 0.299749 0
M  V30 7804 H 747.854 -4.16247 0.112813 0
M  V30 7805 H 750.451 -4.65896 -2.62383 0
M  V30 7806 H 750.794 -2.9715 -2.91561 0
M  V30 7807 H 751.327 -3.72593 -1.39354 0
M  V30 7808 H 748.066 -6.54439 -0.372807 0
M  V30 7809 H 747.586 -5.70119 -1.86344 0
M  V30 7810 H 749.265 -6.25602 -1.6502 0
M  V30 7811 N 749.397 0.351382 -1.53633 0
M  V30 7812 C 750.643 1.09411 -1.70754 0
M  V30 7813 C 750.976 1.88544 -0.465293 0
M  V30 7814 O 750.251 1.86923 0.537608 0
M  V30 7815 C 750.534 2.04173 -2.96623 0
M  V30 7816 C 750.387 1.28556 -4.31038 0
M  V30 7817 C 751.706 3.04102 -3.18136 0
M  V30 7818 H 748.825 0.396373 -0.621335 0
M  V30 7819 H 751.467 0.373464 -1.86293 0
M  V30 7820 H 749.617 2.65625 -2.83506 0
M  V30 7821 H 751.289 0.697786 -4.55992 0
M  V30 7822 H 749.532 0.587498 -4.29803 0
M  V30 7823 H 750.203 1.97989 -5.15271 0
M  V30 7824 H 752.679 2.5276 -3.30532 0
M  V30 7825 H 751.555 3.67616 -4.07615 0
M  V30 7826 H 751.816 3.75053 -2.34068 0
M  V30 7827 N 750.875 1.45233 0.611969 0
M  V30 7828 C 752.152 1.39495 1.37115 0
M  V30 7829 C 752.532 0.0633303 2.11005 0
M  V30 7830 O 751.88 -0.954617 2.07604 0
M  V30 7831 C 752.09 2.60579 2.32163 0
M  V30 7832 C 753.438 3.05477 2.94905 0
M  V30 7833 O 754.462 2.60921 2.42485 0
M  V30 7834 O 753.321 3.82787 3.90047 0
M  V30 7835 H 750.415 0.55335 0.614599 0
M  V30 7836 H 752.961 1.57355 0.635423 0
M  V30 7837 H 751.733 3.49085 1.76793 0
M  V30 7838 H 751.356 2.45031 3.13122 0
M  V30 7839 N 752.353 -0.854086 1.3245 0
M  V30 7840 C 753.63 -1.59188 1.1366 0
M  V30 7841 C 754.01 -2.08917 -0.302807 0
M  V30 7842 O 753.358 -1.8795 -1.29951 0
M  V30 7843 C 753.568 -2.73757 2.16467 0
M  V30 7844 C 754.916 -3.43323 2.49829 0
M  V30 7845 O 755.94 -2.83983 2.15017 0
M  V30 7846 O 754.799 -4.50409 3.09506 0
M  V30 7847 H 751.893 -0.701092 0.438633 0
M  V30 7848 H 754.439 -0.898165 1.43983 0
M  V30 7849 H 753.211 -2.3454 3.1322 0
M  V30 7850 H 752.834 -3.50804 1.87142 0
M  V30 7851 N 753.831 -1.1567 -1.07043 0
M  V30 7852 C 755.242 -0.942408 -1.61169 0
M  V30 7853 C 755.593 0.515537 -1.89306 0
M  V30 7854 O 754.718 1.38726 -1.66084 0
M  V30 7855 C 755.313 -1.70431 -2.92812 0
M  V30 7856 C 753.872 -1.53521 -3.43669 0
M  V30 7857 C 753.019 -1.7179 -2.17678 0
M  V30 7858 H 755.97 -1.3065 -0.9009 0
M  V30 7859 H 755.991 -1.17566 -3.61882 0
M  V30 7860 H 755.503 -2.76538 -2.72302 0
M  V30 7861 H 753.604 -0.498224 -3.69254 0
M  V30 7862 H 753.717 -2.31422 -4.19501 0
M  V30 7863 H 752.081 -1.14468 -2.27529 0
M  V30 7864 H 752.864 -2.79269 -1.99659 0
M  V30 7865 N 755.309 1.25446 -0.953992 0
M  V30 7866 C 756.256 2.25912 -0.472485 0
M  V30 7867 C 757.226 1.59173 0.47469 0
M  V30 7868 O 758.411 1.86812 0.388082 0
M  V30 7869 C 755.551 3.44235 0.244218 0
M  V30 7870 C 754.664 4.25613 -0.740121 0
M  V30 7871 C 753.799 5.312 -0.000922267 0
M  V30 7872 C 752.838 6.04265 -0.976236 0
M  V30 7873 N 751.975 7.01589 -0.267952 0
M  V30 7874 H 756.815 2.66469 -1.3341 0
M  V30 7875 H 754.352 1.31005 -0.669045 0
M  V30 7876 H 756.31 4.11682 0.676314 0
M  V30 7877 H 754.94 3.04554 1.06988 0
M  V30 7878 H 753.992 3.57834 -1.2907 0
M  V30 7879 H 755.304 4.762 -1.48441 0
M  V30 7880 H 754.458 6.04719 0.48984 0
M  V30 7881 H 753.197 4.81484 0.776159 0
M  V30 7882 H 752.202 5.29561 -1.478 0
M  V30 7883 H 753.427 6.5607 -1.75354 0
M  V30 7884 H 751.373 6.54164 0.490403 0
M  V30 7885 H 751.29 7.4999 -0.951344 0
M  V30 7886 H 752.558 7.7924 0.201294 0
M  V30 7887 N 756.787 0.722489 1.40064 0
M  V30 7888 C 757.75 0.0830209 2.2905 0
M  V30 7889 C 758.75 -0.680208 1.45705 0
M  V30 7890 O 759.94 -0.511084 1.66534 0
M  V30 7891 C 757.072 -0.892092 3.29021 0
M  V30 7892 H 758.265 0.866848 2.87099 0
M  V30 7893 H 755.818 0.487556 1.48501 0
M  V30 7894 H 756.553 -1.70273 2.76003 0
M  V30 7895 H 756.338 -0.34761 3.90556 0
M  V30 7896 H 757.828 -1.33648 3.95636 0
M  V30 7897 N 758.265 -1.50454 0.469181 0
M  V30 7898 C 759.195 -2.31353 -0.31592 0
M  V30 7899 C 760.176 -1.38172 -0.992094 0
M  V30 7900 O 761.361 -1.67093 -0.989633 0
M  V30 7901 C 758.491 -3.1786 -1.39937 0
M  V30 7902 C 757.445 -4.19578 -0.844909 0
M  V30 7903 C 756.771 -4.9481 -2.0265 0
M  V30 7904 C 758.071 -5.22106 0.142499 0
M  V30 7905 H 759.765 -2.97237 0.359269 0
M  V30 7906 H 757.311 -1.42942 0.174224 0
M  V30 7907 H 759.264 -3.7325 -1.95607 0
M  V30 7908 H 757.988 -2.49858 -2.1033 0
M  V30 7909 H 756.647 -3.65285 -0.310189 0
M  V30 7910 H 756.295 -4.23282 -2.71737 0
M  V30 7911 H 755.995 -5.63613 -1.66174 0
M  V30 7912 H 757.519 -5.53035 -2.58815 0
M  V30 7913 H 758.933 -5.72378 -0.324966 0
M  V30 7914 H 757.33 -5.98618 0.421441 0
M  V30 7915 H 758.4 -4.7297 1.06901 0
M  V30 7916 N 759.743 -0.201713 -1.56304 0
M  V30 7917 C 760.69 0.716499 -2.19397 0
M  V30 7918 C 761.66 1.20494 -1.14326 0
M  V30 7919 O 762.845 1.26763 -1.42604 0
M  V30 7920 C 759.985 1.92762 -2.86246 0
M  V30 7921 C 759.098 1.47993 -4.0586 0
M  V30 7922 C 758.233 2.64706 -4.60547 0
M  V30 7923 C 757.272 2.16576 -5.72504 0
M  V30 7924 N 756.409 3.26491 -6.21569 0
M  V30 7925 H 761.249 0.171724 -2.97505 0
M  V30 7926 H 758.786 0.073016 -1.46919 0
M  V30 7927 H 760.744 2.6384 -3.23178 0
M  V30 7928 H 759.374 2.44559 -2.10691 0
M  V30 7929 H 758.426 0.66477 -3.74546 0
M  V30 7930 H 759.738 1.08686 -4.86815 0
M  V30 7931 H 758.892 3.43898 -4.99819 0
M  V30 7932 H 757.631 3.0729 -3.78713 0
M  V30 7933 H 756.636 1.3584 -5.32755 0
M  V30 7934 H 757.861 1.75015 -6.56161 0
M  V30 7935 H 755.807 3.68594 -5.42655 0
M  V30 7936 H 755.724 2.91374 -6.97594 0
M  V30 7937 H 756.992 4.05877 -6.65495 0
M  V30 7938 N 761.222 1.57436 0.0718424 0
M  V30 7939 C 762.45 1.91474 0.783932 0
M  V30 7940 C 762.865 0.797669 1.71122 0
M  V30 7941 O 762.222 -0.228989 1.81058 0
M  V30 7942 C 762.273 3.25259 1.57761 0
M  V30 7943 O 761.994 4.3267 0.687596 0
M  V30 7944 C 763.495 3.7331 2.3907 0
M  V30 7945 H 760.715 0.632901 0.222885 0
M  V30 7946 H 763.259 2.04457 0.0421262 0
M  V30 7947 H 761.414 3.13804 2.27169 0
M  V30 7948 H 761.828 5.09641 1.23962 0
M  V30 7949 H 763.302 4.69551 2.90216 0
M  V30 7950 H 763.779 3.02318 3.18591 0
M  V30 7951 H 764.385 3.8771 1.74818 0
M  V30 7952 N 762.7 -0.34323 1.53817 0
M  V30 7953 C 763.63 -1.42709 1.84814 0
M  V30 7954 C 764.611 -1.5488 0.703297 0
M  V30 7955 O 765.796 -1.69082 0.955237 0
M  V30 7956 C 762.926 -2.79756 2.05801 0
M  V30 7957 C 761.88 -2.82392 3.21619 0
M  V30 7958 C 761.206 -4.22326 3.2794 0
M  V30 7959 C 762.506 -2.479 4.59721 0
M  V30 7960 H 764.2 -1.17018 2.75585 0
M  V30 7961 H 761.746 -0.561485 1.32602 0
M  V30 7962 H 763.699 -3.55627 2.26069 0
M  V30 7963 H 762.423 -3.06883 1.11761 0
M  V30 7964 H 761.082 -2.08974 3.01207 0
M  V30 7965 H 760.73 -4.46564 2.31494 0
M  V30 7966 H 760.43 -4.25001 4.05768 0
M  V30 7967 H 761.954 -5.00039 3.50419 0
M  V30 7968 H 763.368 -3.13484 4.80001 0
M  V30 7969 H 761.765 -2.61857 5.39954 0
M  V30 7970 H 762.835 -1.43087 4.63308 0
M  V30 7971 N 764.178 -1.45556 -0.604258 0
M  V30 7972 C 765.406 -1.53278 -1.38973 0
M  V30 7973 C 765.821 -0.166509 -1.88064 0
M  V30 7974 O 765.178 0.832519 -1.62405 0
M  V30 7975 C 765.229 -2.51992 -2.59195 0
M  V30 7976 O 764.95 -3.8331 -2.12143 0
M  V30 7977 C 766.451 -2.69445 -3.52015 0
M  V30 7978 H 763.671 -0.519003 -0.425297 0
M  V30 7979 H 766.215 -1.90773 -0.736621 0
M  V30 7980 H 764.37 -2.17561 -3.2054 0
M  V30 7981 H 764.784 -4.3685 -2.90279 0
M  V30 7982 H 766.258 -3.42485 -4.32907 0
M  V30 7983 H 766.735 -1.75596 -4.0257 0
M  V30 7984 H 767.341 -3.04886 -2.9652 0
M  V30 7985 N 765.656 0.84705 -1.32902 0
M  V30 7986 C 766.903 1.60176 -1.23894 0
M  V30 7987 C 767.231 1.93496 0.197341 0
M  V30 7988 O 766.486 1.58173 1.15238 0
M  V30 7989 C 766.785 2.92663 -2.05142 0
M  V30 7990 C 766.451 2.7874 -3.54422 0
M  V30 7991 C 765.113 2.7465 -3.95121 0
M  V30 7992 C 767.465 2.64128 -4.49317 0
M  V30 7993 C 764.793 2.53837 -5.28946 0
M  V30 7994 C 767.145 2.44849 -5.83294 0
M  V30 7995 C 765.809 2.39156 -6.23186 0
M  V30 7996 H 765.079 0.586127 -0.453361 0
M  V30 7997 H 767.726 0.981994 -1.64405 0
M  V30 7998 H 766.031 3.588 -1.57383 0
M  V30 7999 H 767.728 3.50095 -1.95537 0
M  V30 8000 H 764.318 2.82751 -3.22102 0
M  V30 8001 H 768.502 2.66327 -4.18788 0
M  V30 8002 H 763.758 2.4787 -5.58901 0
M  V30 8003 H 767.932 2.32524 -6.56434 0
M  V30 8004 H 765.559 2.22789 -7.26821 0
M  V30 8005 N 767.134 1.16236 1.06428 0
M  V30 8006 C 768.081 0.86769 2.13869 0
M  V30 8007 C 769.051 -0.183298 1.65086 0
M  V30 8008 O 770.236 -0.0488002 1.90738 0
M  V30 8009 C 767.376 0.373427 3.43074 0
M  V30 8010 C 766.489 1.48708 4.05598 0
M  V30 8011 C 765.624 0.947977 5.22673 0
M  V30 8012 C 764.663 2.03793 5.77178 0
M  V30 8013 N 763.8 1.51451 6.85571 0
M  V30 8014 H 768.64 1.78781 2.38414 0
M  V30 8015 H 766.177 0.891892 1.16977 0
M  V30 8016 H 768.135 0.0685035 4.17144 0
M  V30 8017 H 766.765 -0.509752 3.1875 0
M  V30 8018 H 765.817 1.908 3.29089 0
M  V30 8019 H 767.129 2.30964 4.42105 0
M  V30 8020 H 766.283 0.596154 6.03764 0
M  V30 8021 H 765.022 0.0947081 4.87608 0
M  V30 8022 H 764.027 2.39847 4.94726 0
M  V30 8023 H 765.252 2.89514 6.14295 0
M  V30 8024 H 763.198 0.683755 6.52427 0
M  V30 8025 H 763.115 2.27325 7.21013 0
M  V30 8026 H 764.383 1.19123 7.70344 0
M  V30 8027 N 768.612 -1.24939 0.960631 0
M  V30 8028 C 769.542 -2.28 0.503815 0
M  V30 8029 C 770.523 -1.63959 -0.452928 0
M  V30 8030 O 771.708 -1.91009 -0.350585 0
M  V30 8031 C 768.838 -3.46643 -0.213535 0
M  V30 8032 C 767.792 -4.22903 0.658535 0
M  V30 8033 C 767.118 -5.34363 -0.189902 0
M  V30 8034 C 768.418 -4.84949 1.93963 0
M  V30 8035 H 770.112 -2.66462 1.36521 0
M  V30 8036 H 767.658 -1.28093 0.657897 0
M  V30 8037 H 769.611 -4.1787 -0.544286 0
M  V30 8038 H 768.335 -3.07187 -1.10923 0
M  V30 8039 H 766.994 -3.53467 0.972455 0
M  V30 8040 H 766.642 -4.91147 -1.08553 0
M  V30 8041 H 766.342 -5.86302 0.390331 0
M  V30 8042 H 767.866 -6.0842 -0.515484 0
M  V30 8043 H 769.28 -5.48288 1.67491 0
M  V30 8044 H 767.677 -5.47091 2.46601 0
M  V30 8045 H 768.747 -4.06799 2.639 0
M  V30 8046 N 770.09 -0.729906 -1.39679 0
M  V30 8047 C 771.053 -0.0951668 -2.29002 0
M  V30 8048 C 772.053 0.672471 -1.46063 0
M  V30 8049 O 773.243 0.502245 -1.66803 0
M  V30 8050 C 770.375 0.874631 -3.29489 0
M  V30 8051 H 771.568 -0.882062 -2.86635 0
M  V30 8052 H 769.121 -0.495424 -1.4824 0
M  V30 8053 H 769.856 1.68807 -2.76902 0
M  V30 8054 H 769.641 0.326893 -3.90735 0
M  V30 8055 H 771.131 1.31548 -3.96339 0
M  V30 8056 N 771.568 1.50203 -0.477153 0
M  V30 8057 C 772.793 2.07263 0.0754986 0
M  V30 8058 C 773.218 1.33801 1.32208 0
M  V30 8059 O 772.576 0.387482 1.77111 0
M  V30 8060 C 772.624 3.59028 0.336348 0
M  V30 8061 O 771.728 3.87339 1.4157 0
M  V30 8062 H 771.069 0.663815 -0.015662 0
M  V30 8063 H 773.599 1.93321 -0.669936 0
M  V30 8064 H 773.609 4.03927 0.575034 0
M  V30 8065 H 772.284 4.11912 -0.574551 0
M  V30 8066 H 770.861 3.54272 1.16385 0
M  V30 8067 N 773.046 0.209999 1.56195 0
M  V30 8068 C 774.294 -0.423974 1.97603 0
M  V30 8069 C 774.615 -1.61112 1.09854 0
M  V30 8070 O 773.885 -1.95134 0.173032 0
M  V30 8071 H 772.465 -0.159629 0.729745 0
M  V30 8072 H 775.127 0.300205 1.92574 0
M  V30 8073 H 774.223 -0.75809 3.02753 0
M  V30 8074 N 774.524 -1.57472 -0.0634922 0
M  V30 8075 C 775.764 -1.89491 -0.766312 0
M  V30 8076 C 776.128 -0.80475 -1.74321 0
M  V30 8077 O 777.329 -1.00825 -2.49174 0
M  V30 8078 C 775.6 -3.26731 -1.44851 0
M  V30 8079 S 777.159 -3.80516 -2.18525 0
M  V30 8080 H 773.977 -0.663832 -0.254653 0
M  V30 8081 H 776.579 -1.95488 -0.0220867 0
M  V30 8082 H 775.283 -4.03967 -0.723824 0
M  V30 8083 H 774.814 -3.23953 -2.232 0
M  V30 8084 H 776.829 -3.5647 -3.45172 0
M  V30 8085 N 776.003 0.335068 -1.53997 0
M  V30 8086 C 777.28 1.09188 -1.62288 0
M  V30 8087 C 777.66 2.0626 -0.449458 0
M  V30 8088 O 777.008 2.21596 0.557444 0
M  V30 8089 C 777.218 1.80403 -2.98757 0
M  V30 8090 C 778.566 2.33841 -3.54406 0
M  V30 8091 O 779.59 1.90487 -3.00987 0
M  V30 8092 O 778.449 3.1318 -4.47862 0
M  V30 8093 H 775.543 0.502621 -0.656736 0
M  V30 8094 H 778.089 0.33588 -1.66343 0
M  V30 8095 H 776.861 1.09732 -3.75599 0
M  V30 8096 H 776.484 2.62841 -2.9833 0
M  V30 8097 N 777.481 1.45874 0.596531 0
M  V30 8098 C 778.729 1.5017 1.35253 0
M  V30 8099 C 779.05 0.149246 1.94428 0
M  V30 8100 O 778.32 -0.82268 1.77789 0
M  V30 8101 H 776.9 0.553052 0.502138 0
M  V30 8102 H 779.562 1.81908 0.699671 0
M  V30 8103 H 778.658 2.24671 2.16632 0
M  V30 8104 N 778.959 -0.83999 1.33349 0
M  V30 8105 C 780.184 -1.63249 1.27924 0
M  V30 8106 C 780.609 -1.87523 -0.147193 0
M  V30 8107 O 779.967 -1.43853 -1.10345 0
M  V30 8108 C 780.015 -2.96046 2.05886 0
M  V30 8109 O 779.119 -3.87303 1.4167 0
M  V30 8110 H 778.46 -0.49715 0.440157 0
M  V30 8111 H 780.99 -1.04512 1.75893 0
M  V30 8112 H 781 -3.45752 2.16609 0
M  V30 8113 H 779.675 -2.77701 3.09605 0
M  V30 8114 H 778.252 -3.45789 1.39585 0
M  V30 8115 N 780.437 -1.16799 -1.0581 0
M  V30 8116 C 781.347 -0.893492 -2.16919 0
M  V30 8117 C 782.363 0.136061 -1.73467 0
M  V30 8118 O 783.539 -0.0417348 -2.01357 0
M  V30 8119 C 780.604 -0.403763 -3.44341 0
M  V30 8120 C 779.665 -1.49914 -4.02274 0
M  V30 8121 C 778.898 -1.03269 -5.23614 0
M  V30 8122 O 779.121 0.115647 -5.70283 0
M  V30 8123 O 778.055 -1.8231 -5.73626 0
M  V30 8124 H 781.881 -1.82274 -2.42919 0
M  V30 8125 H 779.466 -0.948361 -1.1544 0
M  V30 8126 H 781.348 -0.137874 -4.21174 0
M  V30 8127 H 780.023 0.497413 -3.19855 0
M  V30 8128 H 778.93 -1.81883 -3.26909 0
M  V30 8129 H 780.263 -2.3758 -4.31064 0
M  V30 8130 N 781.915 1.24427 -0.967243 0
M  V30 8131 C 783.164 1.91789 -0.624478 0
M  V30 8132 C 783.477 1.76448 0.844129 0
M  V30 8133 O 784.683 2.38495 1.2974 0
M  V30 8134 C 783.139 3.43743 -1.06626 0
M  V30 8135 C 782.747 3.67771 -2.55829 0
M  V30 8136 C 784.491 4.16958 -0.79662 0
M  V30 8137 C 782.398 5.13293 -2.93742 0
M  V30 8138 H 781.328 0.71811 -0.229856 0
M  V30 8139 H 783.979 1.41081 -1.17339 0
M  V30 8140 H 782.361 3.93484 -0.445663 0
M  V30 8141 H 783.535 3.28631 -3.23015 0
M  V30 8142 H 781.85 3.07841 -2.80398 0
M  V30 8143 H 784.447 5.24171 -1.05589 0
M  V30 8144 H 784.79 4.15442 0.267163 0
M  V30 8145 H 785.323 3.73164 -1.37816 0
M  V30 8146 H 782.062 5.19931 -3.9919 0
M  V30 8147 H 781.582 5.53433 -2.3124 0
M  V30 8148 H 783.261 5.81521 -2.83623 0
M  V30 8149 N 783.393 0.737304 1.3929 0
M  V30 8150 C 784.804 0.355966 1.83275 0
M  V30 8151 C 785.155 -1.11295 1.6158 0
M  V30 8152 O 784.28 -1.85871 1.10819 0
M  V30 8153 C 784.875 0.63931 3.32713 0
M  V30 8154 C 783.434 0.31144 3.75109 0
M  V30 8155 C 782.581 0.900765 2.62262 0
M  V30 8156 H 785.532 0.934763 1.28249 0
M  V30 8157 H 785.553 -0.0881293 3.80398 0
M  V30 8158 H 785.065 1.70847 3.48472 0
M  V30 8159 H 783.166 -0.751791 3.64937 0
M  V30 8160 H 783.279 0.795611 4.72448 0
M  V30 8161 H 781.643 0.327239 2.52589 0
M  V30 8162 H 782.426 1.97463 2.80826 0
M  V30 8163 N 784.871 -1.49948 0.485112 0
M  V30 8164 C 786.148 -1.95186 -0.12726 0
M  V30 8165 C 786.528 -1.42605 -1.5565 0
M  V30 8166 O 785.876 -0.632986 -2.19558 0
M  V30 8167 C 786.086 -3.48955 -0.0562117 0
M  V30 8168 C 787.434 -4.23932 -0.238106 0
M  V30 8169 O 788.458 -3.55955 -0.132145 0
M  V30 8170 O 787.317 -5.44614 -0.453658 0
M  V30 8171 H 784.411 -0.820433 -0.104014 0
M  V30 8172 H 786.957 -1.60659 0.546517 0
M  V30 8173 H 785.729 -3.79814 0.941122 0
M  V30 8174 H 785.352 -3.90056 -0.770834 0
M  V30 8175 N 786.349 -0.21828 -1.56081 0
M  V30 8176 C 787.259 0.704602 -2.23769 0
M  V30 8177 C 788.275 1.21633 -1.24425 0
M  V30 8178 O 789.451 1.25862 -1.57228 0
M  V30 8179 C 786.516 1.89725 -2.90182 0
M  V30 8180 C 785.577 1.42782 -4.0486 0
M  V30 8181 C 784.81 2.56361 -4.68097 0
M  V30 8182 O 785.033 3.74417 -4.30312 0
M  V30 8183 O 783.967 2.2775 -5.57148 0
M  V30 8184 H 787.793 0.158007 -3.03289 0
M  V30 8185 H 785.378 0.0120279 -1.49395 0
M  V30 8186 H 787.26 2.59382 -3.32113 0
M  V30 8187 H 785.935 2.432 -2.13624 0
M  V30 8188 H 784.842 0.699359 -3.67505 0
M  V30 8189 H 786.175 0.939474 -4.83151 0
M  V30 8190 N 787.827 1.57504 0.0551401 0
M  V30 8191 C 789.073 1.88334 0.752216 0
M  V30 8192 C 789.406 0.812742 1.76375 0
M  V30 8193 O 788.681 -0.175198 1.93709 0
M  V30 8194 C 788.964 3.29824 1.44528 0
M  V30 8195 C 788.817 4.47553 0.449026 0
M  V30 8196 C 790.136 3.69808 2.38601 0
M  V30 8197 H 787.255 0.684973 0.271995 0
M  V30 8198 H 789.897 1.89994 0.0151895 0
M  V30 8199 H 788.047 3.28539 2.07351 0
M  V30 8200 H 789.719 4.60967 -0.175277 0
M  V30 8201 H 787.962 4.33168 -0.234162 0
M  V30 8202 H 788.633 5.43376 0.971917 0
M  V30 8203 H 791.109 3.72293 1.85842 0
M  V30 8204 H 789.985 4.69665 2.84088 0
M  V30 8205 H 790.246 3.00641 3.24141 0
M  V30 8206 N 789.305 -0.326896 1.54172 0
M  V30 8207 C 790.252 -1.40216 1.83325 0
M  V30 8208 C 791.222 -1.51538 0.680107 0
M  V30 8209 O 792.407 -1.66811 0.926206 0
M  V30 8210 C 789.547 -2.76626 2.0633 0
M  V30 8211 C 788.66 -2.73963 3.34019 0
M  V30 8212 C 787.795 -4.02198 3.47002 0
M  V30 8213 C 786.834 -3.93828 4.68578 0
M  V30 8214 N 785.971 -5.13787 4.78506 0
M  V30 8215 H 790.811 -1.14656 2.7506 0
M  V30 8216 H 788.348 -0.555089 1.36225 0
M  V30 8217 H 790.306 -3.55922 2.17659 0
M  V30 8218 H 788.936 -3.00503 1.1789 0
M  V30 8219 H 787.988 -1.86677 3.31445 0
M  V30 8220 H 789.3 -2.6366 4.2342 0
M  V30 8221 H 788.454 -4.89923 3.57855 0
M  V30 8222 H 787.193 -4.15302 2.55687 0
M  V30 8223 H 786.198 -3.04487 4.57786 0
M  V30 8224 H 787.423 -3.82292 5.61275 0
M  V30 8225 H 785.369 -5.27403 3.90105 0
M  V30 8226 H 785.286 -5.05807 5.61868 0
M  V30 8227 H 786.554 -6.03236 4.93686 0
M  V30 8228 N 790.784 -1.46188 -0.588786 0
M  V30 8229 C 791.714 -1.59148 -1.70863 0
M  V30 8230 C 792.695 -0.442083 -1.64255 0
M  V30 8231 O 793.88 -0.667575 -1.82365 0
M  V30 8232 C 791.01 -1.5757 -3.09498 0
M  V30 8233 C 789.964 -2.71418 -3.30932 0
M  V30 8234 C 789.29 -2.549 -4.70032 0
M  V30 8235 C 790.59 -4.1329 -3.19356 0
M  V30 8236 H 792.284 -2.52889 -1.60274 0
M  V30 8237 H 789.83 -1.21707 -0.769638 0
M  V30 8238 H 791.783 -1.65231 -3.87655 0
M  V30 8239 H 790.507 -0.603705 -3.20972 0
M  V30 8240 H 789.166 -2.63216 -2.55172 0
M  V30 8241 H 788.814 -1.55797 -4.78264 0
M  V30 8242 H 788.514 -3.31257 -4.85327 0
M  V30 8243 H 790.038 -2.64443 -5.50366 0
M  V30 8244 H 791.452 -4.22636 -3.87365 0
M  V30 8245 H 789.849 -4.90187 -3.46175 0
M  V30 8246 H 790.919 -4.33874 -2.16522 0
M  V30 8247 N 792.262 0.832906 -1.33792 0
M  V30 8248 C 793.511 1.58351 -1.24932 0
M  V30 8249 C 793.824 1.94754 0.181703 0
M  V30 8250 O 795.03 2.6865 0.392375 0
M  V30 8251 C 793.486 2.85643 -2.18943 0
M  V30 8252 C 793.094 2.56581 -3.67247 0
M  V30 8253 C 794.838 3.63667 -2.18968 0
M  V30 8254 C 792.745 3.80006 -4.53155 0
M  V30 8255 H 791.675 0.594278 -0.464058 0
M  V30 8256 H 794.326 0.91786 -1.58895 0
M  V30 8257 H 792.708 3.53781 -1.77919 0
M  V30 8258 H 793.882 1.96617 -4.16747 0
M  V30 8259 H 792.197 1.91851 -3.6957 0
M  V30 8260 H 794.794 4.55293 -2.80379 0
M  V30 8261 H 795.137 3.99039 -1.18631 0
M  V30 8262 H 795.67 3.0246 -2.58384 0
M  V30 8263 H 792.409 3.4976 -5.5439 0
M  V30 8264 H 791.929 4.39288 -4.08395 0
M  V30 8265 H 793.608 4.47523 -4.6726 0
M  V30 8266 N 793.74 1.17359 1.05189 0
M  V30 8267 C 794.988 0.960087 1.77839 0
M  V30 8268 C 795.309 -0.512554 1.88143 0
M  V30 8269 O 794.579 -1.3721 1.39822 0
M  V30 8270 H 793.159 0.352234 0.658741 0
M  V30 8271 H 795.821 1.47834 1.27008 0
M  V30 8272 H 794.917 1.38843 2.79516 0
M  V30 8273 N 795.218 -1.23913 0.973828 0
M  V30 8274 C 796.465 -1.92151 0.639079 0
M  V30 8275 C 796.793 -1.76064 -0.826545 0
M  V30 8276 O 796.048 -1.11126 -1.61088 0
M  V30 8277 C 796.347 -3.4406 0.967356 0
M  V30 8278 C 796.013 -3.80321 2.42212 0
M  V30 8279 C 794.675 -3.8993 2.81971 0
M  V30 8280 C 797.027 -3.97935 3.36596 0
M  V30 8281 C 794.355 -4.14575 4.15144 0
M  V30 8282 C 796.707 -4.24079 4.69404 0
M  V30 8283 C 795.371 -4.31908 5.08932 0
M  V30 8284 H 794.641 -0.70313 0.233856 0
M  V30 8285 H 797.288 -1.47072 1.22646 0
M  V30 8286 H 795.593 -3.90667 0.297807 0
M  V30 8287 H 797.29 -3.95077 0.686654 0
M  V30 8288 H 793.88 -3.73411 2.10385 0
M  V30 8289 H 798.064 -3.89908 3.07059 0
M  V30 8290 H 793.32 -4.18858 4.45385 0
M  V30 8291 H 797.494 -4.36652 5.42502 0
M  V30 8292 H 795.121 -4.50758 6.12145 0
M  V30 8293 N 796.696 -0.74468 -1.38897 0
M  V30 8294 C 797.659 -0.11945 -2.28889 0
M  V30 8295 C 798.659 0.656942 -1.46768 0
M  V30 8296 O 799.849 0.484525 -1.67326 0
M  V30 8297 C 796.981 0.839635 -3.30398 0
M  V30 8298 H 798.174 -0.912414 -2.85683 0
M  V30 8299 H 795.727 -0.511119 -1.47707 0
M  V30 8300 H 796.462 1.6586 -2.78677 0
M  V30 8301 H 796.247 0.285432 -3.9106 0
M  V30 8302 H 797.737 1.27337 -3.97712 0
M  V30 8303 N 798.174 1.49689 -0.493057 0
M  V30 8304 C 799.106 2.26867 0.326195 0
M  V30 8305 C 800.119 1.33083 0.937697 0
M  V30 8306 O 801.308 1.58427 0.822382 0
M  V30 8307 C 798.408 3.0519 1.4735 0
M  V30 8308 C 797.581 4.26491 0.970767 0
M  V30 8309 C 796.64 4.86926 1.99473 0
M  V30 8310 O 795.666 5.47221 1.56647 0
M  V30 8311 N 796.868 4.75871 3.32456 0
M  V30 8312 H 799.633 2.97816 -0.335547 0
M  V30 8313 H 797.194 1.58602 -0.325129 0
M  V30 8314 H 799.186 3.42496 2.15589 0
M  V30 8315 H 797.756 2.369 2.03954 0
M  V30 8316 H 796.976 3.94036 0.113529 0
M  V30 8317 H 798.264 5.05092 0.613156 0
M  V30 8318 H 797.662 4.2797 3.69944 0
M  V30 8319 H 796.219 5.17383 3.96431 0
M  V30 8320 N 799.652 0.226554 1.55963 0
M  V30 8321 C 800.582 -0.676079 2.23498 0
M  V30 8322 C 801.563 -1.19718 1.20837 0
M  V30 8323 O 802.748 -1.24027 1.49436 0
M  V30 8324 C 799.878 -1.88217 2.91876 0
M  V30 8325 C 798.832 -1.4947 4.01052 0
M  V30 8326 C 798.158 -2.77997 4.56751 0
M  V30 8327 C 799.458 -0.680951 5.17842 0
M  V30 8328 H 801.152 -0.112989 2.99187 0
M  V30 8329 H 798.698 -0.0529046 1.43903 0
M  V30 8330 H 800.651 -2.51911 3.37815 0
M  V30 8331 H 799.375 -2.47031 2.13643 0
M  V30 8332 H 798.034 -0.881199 3.55852 0
M  V30 8333 H 797.682 -3.34966 3.75243 0
M  V30 8334 H 797.382 -2.52803 5.30438 0
M  V30 8335 H 798.906 -3.42625 5.05411 0
M  V30 8336 H 800.32 -1.22171 5.60131 0
M  V30 8337 H 798.717 -0.525898 5.97791 0
M  V30 8338 H 799.787 0.311346 4.83899 0
M  V30 8339 N 801.13 -1.57531 -0.0467866 0
M  V30 8340 C 802.355 -1.93087 -0.757123 0
M  V30 8341 C 802.78 -0.825116 -1.69037 0
M  V30 8342 O 802.138 0.220449 -1.79955 0
M  V30 8343 C 802.186 -3.27669 -1.5055 0
M  V30 8344 O 801.29 -3.18667 -2.61773 0
M  V30 8345 H 800.631 -0.631597 -0.204892 0
M  V30 8346 H 803.161 -2.04599 -0.00755232 0
M  V30 8347 H 803.171 -3.6214 -1.87932 0
M  V30 8348 H 801.846 -4.07717 -0.820931 0
M  V30 8349 H 800.423 -2.95798 -2.27064 0
M  V30 8350 N 802.608 0.318715 -1.54344 0
M  V30 8351 C 803.854 1.05765 -1.73037 0
M  V30 8352 C 804.187 1.87514 -0.505181 0
M  V30 8353 O 803.462 1.88021 0.497838 0
M  V30 8354 C 803.745 1.97836 -3.00887 0
M  V30 8355 C 803.598 1.19384 -4.33668 0
M  V30 8356 C 804.917 2.97285 -3.24514 0
M  V30 8357 H 802.036 0.383104 -0.629603 0
M  V30 8358 H 804.678 0.333864 -1.87044 0
M  V30 8359 H 802.828 2.59552 -2.89076 0
M  V30 8360 H 804.5 0.600906 -4.57369 0
M  V30 8361 H 802.743 0.496198 -4.30953 0
M  V30 8362 H 803.414 1.87014 -5.19355 0
M  V30 8363 H 805.89 2.45693 -3.35819 0
M  V30 8364 H 804.766 3.58887 -4.15321 0
M  V30 8365 H 805.027 3.70003 -2.41971 0
M  V30 8366 N 804.086 1.46499 0.581025 0
M  V30 8367 C 805.311 1.55708 1.37002 0
M  V30 8368 C 805.736 0.19942 1.8704 0
M  V30 8369 O 805.094 -0.820731 1.61659 0
M  V30 8370 C 805.142 2.56716 2.53238 0
M  V30 8371 O 804.246 2.10336 3.54729 0
M  V30 8372 H 803.587 0.523912 0.407937 0
M  V30 8373 H 806.117 1.92085 0.704602 0
M  V30 8374 H 806.127 2.76378 3.00132 0
M  V30 8375 H 804.802 3.55307 2.16171 0
M  V30 8376 H 803.379 2.00669 3.14303 0
M  V30 8377 O 805.603 -0.725332 1.44295 0
M  V30 8378 H 806.294 -1.37566 1.36365 0
M  V30 END ATOM
M  V30 BEGIN BOND
M  V30 END BOND
M  V30 END CTAB
M  END
$$$$
