drugbank_target|Q9UEW3 Macrophage receptor MARCO (DB09536; DB11132)
 OpenBabel12092121063D

  0  0  0     0  0            999 V3000
M  V30 BEGIN CTAB
M  V30 COUNTS 7332 7413 0 0 0
M  V30 BEGIN ATOM
M  V30 1 H -0.908 1.98254 -0.117106 0
M  V30 2 N 0 1.576 0 0
M  V30 3 C 0.933 2.03868 1.02534 0
M  V30 4 C 1.911 0.928543 1.3348 0
M  V30 5 O 3.095 1.19667 1.45644 0
M  V30 6 C 0.222 2.43627 2.35294 0
M  V30 7 C -0.732 3.65373 2.2001 0
M  V30 8 S 0.101 5.13292 1.52614 0
M  V30 9 C 1.257 5.56322 2.86805 0
M  V30 10 H 1.49 2.90518 0.631377 0
M  V30 11 H -0.977 1.52953 0.210867 0
M  V30 12 H 0.981 2.67203 3.11629 0
M  V30 13 H -0.358 1.57376 2.7183 0
M  V30 14 H -1.165 3.90944 3.18086 0
M  V30 15 H -1.563 3.418 1.51819 0
M  V30 16 H 0.729 5.58782 3.83104 0
M  V30 17 H 1.672 6.56266 2.65933 0
M  V30 18 H 2.08 4.83886 2.90714 0
M  V30 19 N 1.4781 -0.272755 1.55222 0
M  V30 20 C 2.8941 -0.619959 1.47067 0
M  V30 21 C 3.0941 -1.895 0.684978 0
M  V30 22 O 2.1501 -2.51675 0.203931 0
M  V30 23 C 3.4631 -0.746693 2.91282 0
M  V30 24 C 5.0111 -0.840731 3.01497 0
M  V30 25 C 5.4861 -0.99924 4.46967 0
M  V30 26 N 6.9771 -1.06476 4.50796 0
M  V30 27 C 7.7121 -1.20621 5.6057 0
M  V30 28 N 7.2081 -1.31483 6.80209 0
M  V30 29 N 9.0011 -1.23733 5.48312 0
M  V30 30 H 1.1521 0.564606 2.04758 0
M  V30 31 H 3.4151 0.191177 0.928523 0
M  V30 32 H 3.1211 0.119753 3.51496 0
M  V30 33 H 2.9951 -1.6269 3.40311 0
M  V30 34 H 5.3821 -1.69764 2.41379 0
M  V30 35 H 5.4631 0.0640874 2.5572 0
M  V30 36 H 5.1071 -0.146984 5.07687 0
M  V30 37 H 5.0371 -1.91871 4.90401 0
M  V30 38 H 7.5281 -0.993196 3.64615 0
M  V30 39 H 7.8411 -1.42111 7.59621 0
M  V30 40 H 6.1861 -1.28487 6.8302 0
M  V30 41 H 9.3771 -1.14877 4.53785 0
M  V30 42 H 9.5501 -1.34412 6.33906 0
M  V30 43 N 2.9562 -1.48159 -0.537278 0
M  V30 44 C 3.9042 -1.62573 -1.66352 0
M  V30 45 C 4.8982 -0.492366 -1.62087 0
M  V30 46 O 6.1042 -0.670847 -1.67032 0
M  V30 47 H 2.4792 -0.511992 -0.550789 0
M  V30 48 H 4.4502 -2.57176 -1.51337 0
M  V30 49 C 3.1992 -1.67583 -3.04649 0
M  V30 50 H 2.5222 -2.54151 -3.08622 0
M  V30 51 H 3.9622 -1.81713 -3.83088 0
M  V30 52 C 2.4212 -0.413039 -3.34358 0
M  V30 53 O 2.9512 0.477259 -3.98855 0
M  V30 54 N 1.1572 -0.286961 -2.8918 0
M  V30 55 H 0.7042 -1.01241 -2.36871 0
M  V30 56 H 0.6622 0.556963 -3.09427 0
M  V30 57 N 4.4343 0.785586 -1.36625 0
M  V30 58 C 5.3813 1.89838 -1.31264 0
M  V30 59 C 6.3513 1.65115 -0.180633 0
M  V30 60 O 7.5363 1.87222 -0.36777 0
M  V30 61 C 4.6763 3.26706 -1.11163 0
M  V30 62 C 3.7893 3.63476 -2.33472 0
M  V30 63 C 2.9243 4.89481 -2.06353 0
M  V30 64 C 1.9633 5.18941 -3.24602 0
M  V30 65 N 1.1003 6.36131 -2.97123 0
M  V30 66 H 5.9403 1.93756 -2.26413 0
M  V30 67 H 3.4773 0.947454 -1.12524 0
M  V30 68 H 5.4353 4.05639 -0.975337 0
M  V30 69 H 4.0653 3.222 -0.196674 0
M  V30 70 H 3.1173 2.79636 -2.57891 0
M  V30 71 H 4.4293 3.81193 -3.21704 0
M  V30 72 H 3.5833 5.76288 -1.89675 0
M  V30 73 H 2.3223 4.73841 -1.15437 0
M  V30 74 H 1.3273 4.30615 -3.41834 0
M  V30 75 H 2.5523 5.36498 -4.16349 0
M  V30 76 H 0.4983 6.21875 -2.08823 0
M  V30 77 H 0.4153 6.54198 -3.78894 0
M  V30 78 H 1.6833 7.2591 -2.84033 0
M  V30 79 N 5.9124 1.20967 1.01018 0
M  V30 80 C 6.8594 0.964281 2.09691 0
M  V30 81 C 7.8294 -0.107853 1.65749 0
M  V30 82 O 9.0144 0.0381987 1.90762 0
M  V30 83 C 6.1544 0.52943 3.41015 0
M  V30 84 C 5.2674 1.67043 3.98398 0
M  V30 85 C 4.4024 1.18525 5.17808 0
M  V30 86 C 3.4414 2.29892 5.67288 0
M  V30 87 N 2.5784 1.82546 6.77954 0
M  V30 88 H 7.4184 1.89463 2.30017 0
M  V30 89 H 4.9554 0.944289 1.1279 0
M  V30 90 H 6.9134 0.258588 4.16398 0
M  V30 91 H 5.5434 -0.363919 3.20742 0
M  V30 92 H 4.5954 2.05603 3.20049 0
M  V30 93 H 5.9074 2.50877 4.31117 0
M  V30 94 H 5.0614 0.870762 6.00419 0
M  V30 95 H 3.8004 0.316887 4.86669 0
M  V30 96 H 2.8054 2.6215 4.83278 0
M  V30 97 H 4.0304 3.17216 6.00459 0
M  V30 98 H 1.9764 0.980454 6.48632 0
M  V30 99 H 1.8934 2.59956 7.09901 0
M  V30 100 H 3.1614 1.54115 7.64113 0
M  V30 101 N 7.3905 -1.2043 1.01659 0
M  V30 102 C 8.6395 -1.89118 0.701237 0
M  V30 103 C 8.9525 -1.79705 -0.772358 0
M  V30 104 O 10.1585 -2.43528 -1.20026 0
M  V30 105 C 8.6145 -3.39168 1.20388 0
M  V30 106 C 8.2225 -3.57166 2.70438 0
M  V30 107 C 9.9665 -4.1341 0.963953 0
M  V30 108 C 7.8735 -5.01042 3.14183 0
M  V30 109 H 6.8035 -0.708267 0.2586 0
M  V30 110 H 9.4545 -1.36239 1.22927 0
M  V30 111 H 7.8365 -3.91369 0.603824 0
M  V30 112 H 9.0105 -3.15351 3.35992 0
M  V30 113 H 7.3255 -2.96294 2.92572 0
M  V30 114 H 9.9225 -5.19491 1.26621 0
M  V30 115 H 10.2655 -4.16181 -0.099578 0
M  V30 116 H 10.7985 -3.67309 1.52738 0
M  V30 117 H 7.5375 -5.03426 4.19812 0
M  V30 118 H 7.0575 -5.43668 2.53348 0
M  V30 119 H 8.7365 -5.69623 3.0682 0
M  V30 120 N 8.8686 -0.792821 -1.36206 0
M  V30 121 C 9.7986 -0.207853 -2.32573 0
M  V30 122 C 10.7796 0.659055 -1.56813 0
M  V30 123 O 11.9646 0.592176 -1.84951 0
M  V30 124 C 9.0946 0.655449 -3.41059 0
M  V30 125 C 8.0486 -0.111842 -4.27854 0
M  V30 126 C 7.3746 0.872274 -5.27537 0
M  V30 127 C 8.6746 -1.30299 -5.05786 0
M  V30 128 H 10.3686 -1.01294 -2.81744 0
M  V30 129 H 7.9146 -0.48854 -1.3546 0
M  V30 130 H 9.8676 1.07464 -4.07467 0
M  V30 131 H 8.5916 1.49328 -2.90463 0
M  V30 132 H 7.2506 -0.512053 -3.63006 0
M  V30 133 H 6.8986 1.70523 -4.73214 0
M  V30 134 H 6.5986 0.363291 -5.86476 0
M  V30 135 H 8.1226 1.28996 -5.96818 0
M  V30 136 H 9.5366 -0.959379 -5.65216 0
M  V30 137 H 7.9336 -1.7455 -5.74154 0
M  V30 138 H 9.0036 -2.09663 -4.37229 0
M  V30 139 N 10.3467 1.47872 -0.545128 0
M  V30 140 C 11.2937 2.29849 0.2093 0
M  V30 141 C 12.2637 1.38313 0.919707 0
M  V30 142 O 13.4487 1.67277 0.917772 0
M  V30 143 C 10.5887 3.22019 1.24088 0
M  V30 144 C 9.7017 4.2864 0.537778 0
M  V30 145 C 8.8367 5.07973 1.5536 0
M  V30 146 C 7.8757 6.06381 0.8348 0
M  V30 147 N 7.0127 6.78717 1.79688 0
M  V30 148 H 11.8527 2.93845 -0.49591 0
M  V30 149 H 9.3897 1.44848 -0.256389 0
M  V30 150 H 11.3477 3.73868 1.85144 0
M  V30 151 H 9.9777 2.59914 1.91428 0
M  V30 152 H 9.0297 3.7994 -0.187046 0
M  V30 153 H 10.3417 4.98793 -0.0258907 0
M  V30 154 H 9.4957 5.63912 2.23803 0
M  V30 155 H 8.2347 4.37693 2.15118 0
M  V30 156 H 7.2397 5.49631 0.136388 0
M  V30 157 H 8.4647 6.78665 0.24313 0
M  V30 158 H 6.4107 6.11177 2.38326 0
M  V30 159 H 6.3277 7.44998 1.28505 0
M  V30 160 H 7.5957 7.39237 2.47282 0
M  V30 161 N 11.8248 0.280983 1.55075 0
M  V30 162 C 12.7348 -0.61388 2.26426 0
M  V30 163 C 13.7508 -1.16521 1.29224 0
M  V30 164 O 14.9268 -1.19426 1.62171 0
M  V30 165 C 11.9918 -1.7788 2.9759 0
M  V30 166 C 11.0528 -1.26355 4.10284 0
M  V30 167 C 10.2858 -2.37295 4.78045 0
M  V30 168 O 10.5088 -3.56777 4.45047 0
M  V30 169 O 9.4428 -2.05119 5.65871 0
M  V30 170 H 13.2688 -0.0356932 3.03679 0
M  V30 171 H 10.8538 0.0481686 1.49322 0
M  V30 172 H 12.7358 -2.45791 3.42293 0
M  V30 173 H 11.4108 -2.34397 2.23249 0
M  V30 174 H 10.3178 -0.550735 3.70024 0
M  V30 175 H 11.6508 -0.744065 4.86543 0
M  V30 176 N 13.3029 -1.57598 0.00835791 0
M  V30 177 C 14.5799 -1.82172 -0.712235 0
M  V30 178 C 14.9599 -0.887873 -1.9152 0
M  V30 179 O 14.3079 0.06146 -2.28417 0
M  V30 180 C 14.5179 -3.30875 -1.11008 0
M  V30 181 C 15.8659 -3.96826 -1.51044 0
M  V30 182 O 16.8899 -3.35248 -1.20364 0
M  V30 183 O 15.7489 -5.05318 -2.08125 0
M  V30 184 H 12.8429 -0.750435 -0.347529 0
M  V30 185 H 15.3889 -1.69665 0.0344523 0
M  V30 186 H 14.1609 -3.90481 -0.252982 0
M  V30 187 H 13.7839 -3.48412 -1.9156 0
M  V30 188 N 14.781 0.264519 -1.55364 0
M  V30 189 C 15.691 1.34902 -1.91934 0
M  V30 190 C 16.707 1.53595 -0.817593 0
M  V30 191 O 17.883 1.67558 -1.11742 0
M  V30 192 C 14.948 2.68676 -2.19121 0
M  V30 193 C 14.009 2.58657 -3.4263 0
M  V30 194 C 13.242 3.86051 -3.68511 0
M  V30 195 O 13.465 4.87126 -2.96757 0
M  V30 196 O 12.399 3.85744 -4.62045 0
M  V30 197 H 16.225 1.06883 -2.8427 0
M  V30 198 H 13.81 0.463775 -1.42019 0
M  V30 199 H 15.692 3.47759 -2.37995 0
M  V30 200 H 14.367 2.96463 -1.29966 0
M  V30 201 H 13.274 1.7792 -3.29082 0
M  V30 202 H 14.607 2.35818 -4.32031 0
M  V30 203 N 16.2591 1.48442 0.529413 0
M  V30 204 C 17.1891 1.65902 1.64313 0
M  V30 205 C 18.1701 0.507897 1.6234 0
M  V30 206 O 19.3551 0.740503 1.79528 0
M  V30 207 C 16.4851 1.69911 3.02898 0
M  V30 208 C 15.4391 2.8453 3.19729 0
M  V30 209 C 14.7651 2.73629 4.59381 0
M  V30 210 C 16.0651 4.25821 3.02447 0
M  V30 211 H 17.7591 2.5914 1.49955 0
M  V30 212 H 15.3051 1.24709 0.719982 0
M  V30 213 H 17.2581 1.80715 3.80684 0
M  V30 214 H 15.9821 0.732524 3.18279 0
M  V30 215 H 14.6411 2.73283 2.44361 0
M  V30 216 H 14.2891 1.74938 4.71599 0
M  V30 217 H 13.9891 3.50541 4.71588 0
M  V30 218 H 15.5131 2.86401 5.39265 0
M  V30 219 H 16.9271 4.37898 3.70024 0
M  V30 220 H 15.3241 5.03735 3.26146 0
M  V30 221 H 16.3941 4.42244 1.98867 0
M  V30 222 N 17.7372 -0.778329 1.37039 0
M  V30 223 C 18.6672 -1.90546 1.34962 0
M  V30 224 C 19.6482 -1.68681 0.219274 0
M  V30 225 O 20.8332 -1.89634 0.418624 0
M  V30 226 C 17.9632 -3.27734 1.14925 0
M  V30 227 C 16.9172 -3.64147 2.24902 0
M  V30 228 C 16.2432 -4.99806 1.89996 0
M  V30 229 C 17.5432 -3.71579 3.67051 0
M  V30 230 H 19.2372 -1.92541 2.29277 0
M  V30 231 H 16.7832 -0.924948 1.10366 0
M  V30 232 H 18.7362 -4.06215 1.12104 0
M  V30 233 H 17.4602 -3.26154 0.170631 0
M  V30 234 H 16.1192 -2.8797 2.26868 0
M  V30 235 H 15.7672 -4.94759 0.906796 0
M  V30 236 H 15.4672 -5.25139 2.63634 0
M  V30 237 H 16.9912 -5.80694 1.88749 0
M  V30 238 H 18.4052 -4.40227 3.67251 0
M  V30 239 H 16.8022 -4.08405 4.39688 0
M  V30 240 H 17.8722 -2.72404 4.01154 0
M  V30 241 N 19.2153 -1.21501 -1.00376 0
M  V30 242 C 20.4403 -1.05977 -1.78279 0
M  V30 243 C 20.8653 0.385994 -1.84097 0
M  V30 244 O 20.2233 1.27849 -1.28547 0
M  V30 245 C 20.2713 -1.66302 -3.19963 0
M  V30 246 O 19.3753 -0.909333 -4.0225 0
M  V30 247 H 18.7163 -0.372906 -0.549397 0
M  V30 248 H 21.2463 -1.6107 -1.26165 0
M  V30 249 H 21.2563 -1.70574 -3.70632 0
M  V30 250 H 19.9313 -2.71515 -3.15043 0
M  V30 251 H 18.5083 -0.941795 -3.60811 0
M  V30 252 N 20.6934 1.19889 -1.02296 0
M  V30 253 C 21.6034 2.26571 -0.608508 0
M  V30 254 C 22.6194 1.70299 0.356964 0
M  V30 255 O 23.7954 2.00235 0.216326 0
M  V30 256 C 20.8604 3.46677 0.0402814 0
M  V30 257 C 19.9214 4.18153 -0.97194 0
M  V30 258 C 19.1544 5.32525 -0.354016 0
M  V30 259 O 19.3774 5.64112 0.844604 0
M  V30 260 O 18.3114 5.92242 -1.07391 0
M  V30 261 H 22.1374 2.64251 -1.49684 0
M  V30 262 H 19.7224 1.26629 -0.792809 0
M  V30 263 H 21.6044 4.19475 0.402324 0
M  V30 264 H 20.2794 3.10858 0.902707 0
M  V30 265 H 19.1864 3.47499 -1.38546 0
M  V30 266 H 20.5194 4.57927 -1.80454 0
M  V30 267 N 22.1715 0.800033 1.35784 0
M  V30 268 C 23.3995 0.389606 2.03199 0
M  V30 269 C 23.8145 -0.997375 1.60306 0
M  V30 270 O 23.1715 -1.64154 0.797481 0
M  V30 271 C 23.2225 0.455855 3.58614 0
M  V30 272 O 22.9435 1.78815 3.99946 0
M  V30 273 C 24.4445 0.0374032 4.43284 0
M  V30 274 H 21.6645 0.159132 0.651857 0
M  V30 275 H 24.2085 1.08183 1.73541 0
M  V30 276 H 22.3635 -0.188057 3.86943 0
M  V30 277 H 22.7775 1.74636 4.94573 0
M  V30 278 H 24.2515 0.134882 5.51835 0
M  V30 279 H 24.7285 -1.01651 4.27275 0
M  V30 280 H 25.3345 0.654215 4.20238 0
M  V30 281 N 23.6496 -1.47581 0.552962 0
M  V30 282 C 24.5816 -2.27997 -0.234533 0
M  V30 283 C 25.5946 -1.36753 -0.883321 0
M  V30 284 O 26.7836 -1.61612 -0.757889 0
M  V30 285 C 23.8836 -3.10879 -1.34935 0
M  V30 286 C 23.0566 -4.30056 -0.798158 0
M  V30 287 C 22.1156 -4.94567 -1.79694 0
M  V30 288 O 21.1416 -5.53087 -1.34474 0
M  V30 289 N 22.3436 -4.88878 -3.13015 0
M  V30 290 H 25.1086 -2.96222 0.455255 0
M  V30 291 H 22.6696 -1.57163 0.388761 0
M  V30 292 H 24.6616 -3.50903 -2.01616 0
M  V30 293 H 23.2316 -2.44924 -1.94244 0
M  V30 294 H 22.4516 -3.94174 0.0453079 0
M  V30 295 H 23.7396 -5.07152 -0.409173 0
M  V30 296 H 23.1376 -4.42526 -3.52402 0
M  V30 297 H 21.6946 -5.32934 -3.75266 0
M  V30 298 N 25.1277 -0.289203 -1.54924 0
M  V30 299 C 26.0597 0.625583 -2.20497 0
M  V30 300 C 27.0727 1.10667 -1.19402 0
M  V30 301 O 28.2617 1.02615 -1.46056 0
M  V30 302 C 25.3617 1.86702 -2.82835 0
M  V30 303 C 24.5347 1.5304 -4.09753 0
M  V30 304 C 23.5937 2.62576 -4.56005 0
M  V30 305 O 22.6197 2.28167 -5.21468 0
M  V30 306 N 23.8217 3.92901 -4.27328 0
M  V30 307 H 26.5867 0.0642801 -2.99631 0
M  V30 308 H 24.1477 -0.110896 -1.6152 0
M  V30 309 H 26.1397 2.59304 -3.10715 0
M  V30 310 H 24.7097 2.33702 -2.07611 0
M  V30 311 H 23.9297 0.637564 -3.8901 0
M  V30 312 H 25.2177 1.28072 -4.92418 0
M  V30 313 H 24.6157 4.23671 -3.74859 0
M  V30 314 H 23.1727 4.61837 -4.59946 0
M  V30 315 N 26.6058 1.57591 -0.0167156 0
M  V30 316 C 27.5688 2.08393 0.954204 0
M  V30 317 C 28.5688 0.996531 1.26198 0
M  V30 318 O 29.7588 1.25858 1.20438 0
M  V30 319 C 26.8908 2.5394 2.27436 0
M  V30 320 H 28.0838 2.95455 0.514451 0
M  V30 321 H 25.6368 1.54582 0.231089 0
M  V30 322 H 26.3718 1.70171 2.76066 0
M  V30 323 H 26.1568 3.33371 2.06412 0
M  V30 324 H 27.6468 2.93512 2.97053 0
M  V30 325 N 28.0839 -0.256276 1.55502 0
M  V30 326 C 29.0469 -1.30047 1.88734 0
M  V30 327 C 30.0469 -1.4154 0.763086 0
M  V30 328 O 31.2369 -1.40403 1.03115 0
M  V30 329 C 28.3689 -2.67953 2.10747 0
M  V30 330 H 29.5619 -1.01802 2.82093 0
M  V30 331 H 27.1149 -0.495134 1.4825 0
M  V30 332 H 27.8499 -3.01351 1.19825 0
M  V30 333 H 27.6349 -2.60993 2.92617 0
M  V30 334 H 29.1249 -3.43368 2.37673 0
M  V30 335 N 29.562 -1.4872 -0.521534 0
M  V30 336 C 30.809 -1.57168 -1.27689 0
M  V30 337 C 31.137 -0.249275 -1.92896 0
M  V30 338 O 30.392 0.761162 -1.80291 0
M  V30 339 C 30.691 -2.66497 -2.38148 0
M  V30 340 C 30.357 -4.08664 -1.90538 0
M  V30 341 C 29.019 -4.47357 -1.77271 0
M  V30 342 C 31.371 -4.97724 -1.54663 0
M  V30 343 C 28.699 -5.72905 -1.26478 0
M  V30 344 C 31.051 -6.2377 -1.05329 0
M  V30 345 C 29.715 -6.61311 -0.906861 0
M  V30 346 H 28.985 -0.575117 -0.467249 0
M  V30 347 H 31.632 -1.82472 -0.581051 0
M  V30 348 H 29.937 -2.35085 -3.13437 0
M  V30 349 H 31.634 -2.70246 -2.96257 0
M  V30 350 H 28.224 -3.78111 -2.01816 0
M  V30 351 H 32.408 -4.68501 -1.63768 0
M  V30 352 H 27.664 -6.00709 -1.13835 0
M  V30 353 H 31.838 -6.9217 -0.76644 0
M  V30 354 H 29.465 -7.5848 -0.511083 0
M  V30 355 N 31.0401 0.771051 -1.3745 0
M  V30 356 C 31.9901 1.87456 -1.29785 0
M  V30 357 C 32.9741 1.59827 -0.185541 0
M  V30 358 O 34.1661 1.71945 -0.419997 0
M  V30 359 C 31.2951 3.24935 -1.1078 0
M  V30 360 C 30.3811 3.58514 -2.26558 0
M  V30 361 N 30.7721 3.6327 -3.5195 0
M  V30 362 C 29.0701 3.88683 -2.18727 0
M  V30 363 C 29.7711 3.93616 -4.283 0
M  V30 364 N 28.7471 4.09551 -3.57448 0
M  V30 365 H 32.5491 1.89386 -2.24745 0
M  V30 366 H 30.0631 0.967531 -1.30432 0
M  V30 367 H 32.0601 4.03881 -1.03374 0
M  V30 368 H 30.7201 3.24268 -0.16738 0
M  V30 369 H 31.7311 3.45458 -3.85848 0
M  V30 370 H 28.4081 3.95834 -1.32746 0
M  V30 371 H 29.7981 4.04066 -5.36824 0
M  V30 372 N 32.5182 1.22032 0.997298 0
M  V30 373 C 33.4502 0.944263 2.08845 0
M  V30 374 C 34.4632 -0.0754663 1.62625 0
M  V30 375 O 35.6522 0.157994 1.77799 0
M  V30 376 C 32.7522 0.397723 3.36558 0
M  V30 377 C 31.9252 1.47362 4.11829 0
M  V30 378 C 30.9842 0.934951 5.17827 0
M  V30 379 O 30.0102 1.62016 5.45655 0
M  V30 380 N 31.2122 -0.245895 5.79979 0
M  V30 381 H 33.9772 1.88363 2.33109 0
M  V30 382 H 31.5382 1.12661 1.16272 0
M  V30 383 H 33.5302 0.0227771 4.04694 0
M  V30 384 H 32.1002 -0.446646 3.09393 0
M  V30 385 H 31.3202 2.02208 3.38386 0
M  V30 386 H 32.6082 2.19764 4.58891 0
M  V30 387 H 32.0062 -0.819475 5.59733 0
M  V30 388 H 30.5632 -0.562272 6.4937 0
M  V30 389 N 33.9963 -1.19345 1.0293 0
M  V30 390 C 35.2453 -1.88363 0.721256 0
M  V30 391 C 35.5583 -1.80514 -0.753254 0
M  V30 392 O 36.7643 -2.44788 -1.17436 0
M  V30 393 C 35.2203 -3.37872 1.23978 0
M  V30 394 C 34.8283 -3.54278 2.74211 0
M  V30 395 C 36.5723 -4.12365 1.00775 0
M  V30 396 C 34.4793 -4.97682 3.19479 0
M  V30 397 H 33.4093 -0.705484 0.266098 0
M  V30 398 H 36.0603 -1.34928 1.24365 0
M  V30 399 H 34.4423 -3.90707 0.6453 0
M  V30 400 H 35.6163 -3.11769 3.39318 0
M  V30 401 H 33.9313 -2.93174 2.95699 0
M  V30 402 H 36.5283 -5.18119 1.32123 0
M  V30 403 H 36.8713 -4.16263 -0.0554308 0
M  V30 404 H 37.4043 -3.65668 1.56625 0
M  V30 405 H 34.1433 -4.98945 4.25128 0
M  V30 406 H 33.6633 -5.4095 2.591 0
M  V30 407 H 35.3423 -5.66337 3.12845 0
M  V30 408 N 35.4744 -0.807222 -1.35358 0
M  V30 409 C 36.4374 -0.223665 -2.28106 0
M  V30 410 C 37.4374 0.589354 -1.4961 0
M  V30 411 O 38.6274 0.407745 -1.69361 0
M  V30 412 C 35.7594 0.688149 -3.33882 0
M  V30 413 H 36.9524 -1.04169 -2.81227 0
M  V30 414 H 34.5054 -0.577921 -1.45223 0
M  V30 415 H 35.2404 1.52984 -2.85948 0
M  V30 416 H 35.0254 0.10687 -3.91954 0
M  V30 417 H 36.5154 1.09075 -4.03104 0
M  V30 418 N 36.9525 1.47285 -0.560781 0
M  V30 419 C 37.8855 2.27009 0.232821 0
M  V30 420 C 38.8635 1.34273 0.917039 0
M  V30 421 O 40.0475 1.63659 0.935315 0
M  V30 422 C 37.1745 3.11406 1.33206 0
M  V30 423 C 36.2205 4.19746 0.756019 0
M  V30 424 S 37.0535 5.34003 -0.400165 0
M  V30 425 C 38.2095 6.21964 0.700805 0
M  V30 426 H 38.4425 2.93971 -0.443683 0
M  V30 427 H 35.9755 1.50446 -0.347181 0
M  V30 428 H 37.9335 3.60601 1.96156 0
M  V30 429 H 36.5945 2.438 1.98041 0
M  V30 430 H 35.7875 4.78541 1.5816 0
M  V30 431 H 35.3895 3.73451 0.202619 0
M  V30 432 H 37.6815 6.58529 1.59202 0
M  V30 433 H 38.6245 7.07941 0.150126 0
M  V30 434 H 39.0325 5.5566 0.995083 0
M  V30 435 N 38.4306 0.297415 1.54768 0
M  V30 436 C 39.3406 -0.58983 2.27064 0
M  V30 437 C 40.3566 -1.15144 1.30453 0
M  V30 438 O 41.5326 -1.17699 1.63428 0
M  V30 439 C 38.5976 -1.74714 2.9946 0
M  V30 440 C 37.6586 -1.21997 4.11601 0
M  V30 441 C 36.8916 -2.32212 4.80535 0
M  V30 442 O 37.1146 -3.52036 4.48806 0
M  V30 443 O 36.0486 -1.99106 5.68014 0
M  V30 444 H 39.8746 -0.00348199 3.037 0
M  V30 445 H 37.4596 0.0640035 1.49263 0
M  V30 446 H 39.3416 -2.42147 3.44881 0
M  V30 447 H 38.0166 -2.32016 2.25722 0
M  V30 448 H 36.9236 -0.511458 3.70587 0
M  V30 449 H 38.2566 -0.692419 4.87305 0
M  V30 450 N 39.9087 -1.5758 0.0250728 0
M  V30 451 C 41.3197 -1.79476 -0.514323 0
M  V30 452 C 41.6707 -0.934956 -1.72491 0
M  V30 453 O 40.7957 -0.144245 -2.15919 0
M  V30 454 C 41.3907 -3.25503 -0.939842 0
M  V30 455 C 39.9497 -3.48408 -1.42438 0
M  V30 456 C 39.0967 -2.74583 -0.387201 0
M  V30 457 H 42.0477 -1.567 0.25113 0
M  V30 458 H 42.0687 -3.34992 -1.80445 0
M  V30 459 H 41.5807 -3.88056 -0.0585628 0
M  V30 460 H 39.6817 -2.91103 -2.32572 0
M  V30 461 H 39.7947 -4.57119 -1.43455 0
M  V30 462 H 38.1587 -2.39942 -0.854409 0
M  V30 463 H 38.9417 -3.39849 0.485543 0
M  V30 464 N 41.3868 0.248026 -1.55636 0
M  V30 465 C 42.6338 0.976224 -1.77415 0
M  V30 466 C 42.9618 1.85361 -0.589193 0
M  V30 467 O 42.2168 1.90973 0.427529 0
M  V30 468 C 42.5158 1.86819 -3.04686 0
M  V30 469 C 42.1818 1.14625 -4.36087 0
M  V30 470 C 40.8438 0.946723 -4.71795 0
M  V30 471 C 43.1958 0.634463 -5.17324 0
M  V30 472 C 40.5238 0.223091 -5.86276 0
M  V30 473 C 42.8758 -0.0756959 -6.32555 0
M  V30 474 C 41.5398 -0.286711 -6.66884 0
M  V30 475 H 40.8098 0.357226 -0.649208 0
M  V30 476 H 43.4568 0.246415 -1.89908 0
M  V30 477 H 41.7618 2.66502 -2.872 0
M  V30 478 H 43.4588 2.43329 -3.18735 0
M  V30 479 H 40.0488 1.3117 -4.08035 0
M  V30 480 H 44.2328 0.77616 -4.90193 0
M  V30 481 H 39.4888 0.0491185 -6.1138 0
M  V30 482 H 43.6628 -0.479899 -6.94745 0
M  V30 483 H 41.2898 -0.849389 -7.5544 0
M  V30 484 N 42.8649 1.48995 0.513639 0
M  V30 485 C 43.7749 1.67443 1.64317 0
M  V30 486 C 44.7909 0.556947 1.64846 0
M  V30 487 O 45.9669 0.830082 1.83498 0
M  V30 488 C 43.0319 1.72515 3.00732 0
M  V30 489 C 42.0929 2.96009 3.1093 0
M  V30 490 C 41.3259 3.00829 4.40837 0
M  V30 491 O 41.5489 2.13594 5.28898 0
M  V30 492 O 40.4829 3.93168 4.55744 0
M  V30 493 H 44.3089 2.63106 1.51687 0
M  V30 494 H 41.8939 1.32588 0.688543 0
M  V30 495 H 43.7759 1.78277 3.81831 0
M  V30 496 H 42.4509 0.800278 3.13651 0
M  V30 497 H 41.3579 2.9577 2.29065 0
M  V30 498 H 42.6909 3.87934 3.02933 0
M  V30 499 N 44.343 -0.763751 1.37857 0
M  V30 500 C 45.592 -1.51789 1.32827 0
M  V30 501 C 45.905 -1.95426 -0.0823719 0
M  V30 502 O 47.111 -2.70298 -0.255172 0
M  V30 503 C 45.567 -2.74133 2.33193 0
M  V30 504 C 45.175 -2.37562 3.79827 0
M  V30 505 C 46.919 -3.52054 2.37188 0
M  V30 506 C 44.826 -3.56456 4.71904 0
M  V30 507 H 43.756 -0.569896 0.493695 0
M  V30 508 H 46.407 -0.835822 1.63359 0
M  V30 509 H 44.789 -3.4427 1.9569 0
M  V30 510 H 45.963 -1.75157 4.26212 0
M  V30 511 H 44.278 -1.72798 3.78853 0
M  V30 512 H 46.875 -4.40437 3.03182 0
M  V30 513 H 47.218 -3.92486 1.38782 0
M  V30 514 H 47.751 -2.88921 2.7344 0
M  V30 515 H 44.49 -3.21099 5.71468 0
M  V30 516 H 44.01 -4.17938 4.30218 0
M  V30 517 H 45.689 -4.23168 4.89426 0
M  V30 518 N 45.8211 -1.22559 -0.990812 0
M  V30 519 C 46.7691 -0.994798 -2.10253 0
M  V30 520 C 47.7631 0.0627798 -1.69284 0
M  V30 521 O 48.9691 -0.0898392 -1.79776 0
M  V30 522 H 45.3441 -0.304527 -0.687581 0
M  V30 523 H 47.3151 -1.93812 -2.26891 0
M  V30 524 C 46.0641 -0.591439 -3.42633 0
M  V30 525 H 45.3871 -1.3969 -3.74602 0
M  V30 526 H 46.8271 -0.469385 -4.21394 0
M  V30 527 C 45.2861 0.699232 -3.29564 0
M  V30 528 O 45.8161 1.75112 -3.61523 0
M  V30 529 N 44.0221 0.671182 -2.82743 0
M  V30 530 H 43.5691 -0.185136 -2.56934 0
M  V30 531 H 43.5271 1.53502 -2.7438 0
M  V30 532 N 47.2992 1.18797 -1.03562 0
M  V30 533 C 48.5452 1.8893 -0.737113 0
M  V30 534 C 48.8782 1.79837 0.732956 0
M  V30 535 O 48.1532 1.19525 1.5344 0
M  V30 536 C 48.4362 3.39607 -1.19745 0
M  V30 537 C 48.2892 3.57537 -2.72924 0
M  V30 538 C 49.6082 4.33069 -0.783526 0
M  V30 539 H 46.7272 0.686057 -0.269249 0
M  V30 540 H 49.3692 1.39797 -1.28673 0
M  V30 541 H 47.5192 3.81583 -0.729855 0
M  V30 542 H 49.1912 3.24688 -3.27682 0
M  V30 543 H 47.4342 3.00363 -3.12993 0
M  V30 544 H 48.1052 4.63238 -3.00191 0
M  V30 545 H 50.5812 3.98846 -1.18581 0
M  V30 546 H 49.4572 5.3707 -1.13343 0
M  V30 547 H 49.7182 4.40986 0.313681 0
M  V30 548 N 48.7773 0.814389 1.34928 0
M  V30 549 C 50.1883 0.458364 1.80986 0
M  V30 550 C 50.5393 -1.02042 1.67577 0
M  V30 551 O 49.6643 -1.79352 1.21086 0
M  V30 552 C 50.2593 0.825212 3.28597 0
M  V30 553 C 48.8183 0.521677 3.72767 0
M  V30 554 C 47.9653 1.04668 2.56788 0
M  V30 555 H 50.9163 1.00533 1.22795 0
M  V30 556 H 50.9373 0.12571 3.80292 0
M  V30 557 H 50.4493 1.90154 3.38324 0
M  V30 558 H 48.5503 -0.545589 3.68584 0
M  V30 559 H 48.6633 1.05977 4.67232 0
M  V30 560 H 47.0273 0.468622 2.50352 0
M  V30 561 H 47.8103 2.12927 2.6929 0
M  V30 562 N 50.2554 -1.46986 0.568584 0
M  V30 563 C 51.2024 -2.30153 -0.172707 0
M  V30 564 C 52.1724 -1.39759 -0.897586 0
M  V30 565 O 53.3574 -1.68716 -0.891044 0
M  V30 566 C 50.4974 -3.23952 -1.1895 0
M  V30 567 C 49.6104 -4.29441 -0.469517 0
M  V30 568 C 48.7454 -5.1038 -1.47259 0
M  V30 569 C 47.7844 -6.07632 -0.738225 0
M  V30 570 N 46.9214 -6.8149 -1.68868 0
M  V30 571 H 51.7614 -2.93019 0.542596 0
M  V30 572 H 49.2984 -1.44422 0.279401 0
M  V30 573 H 51.2564 -3.76767 -1.79173 0
M  V30 574 H 49.8864 -2.62926 -1.87269 0
M  V30 575 H 48.9384 -3.79594 0.247467 0
M  V30 576 H 50.2504 -4.98689 0.105241 0
M  V30 577 H 49.4044 -5.67402 -2.14803 0
M  V30 578 H 48.1434 -4.4106 -2.08128 0
M  V30 579 H 47.1484 -5.49778 -0.0489293 0
M  V30 580 H 48.3734 -6.78966 -0.135129 0
M  V30 581 H 46.3194 -6.14891 -2.28573 0
M  V30 582 H 46.2364 -7.46948 -1.16636 0
M  V30 583 H 47.5044 -7.43078 -2.3549 0
M  V30 584 N 51.7335 -0.305618 -1.54608 0
M  V30 585 C 53.1445 0.186098 -1.8577 0
M  V30 586 C 53.4955 1.53058 -1.22751 0
M  V30 587 O 52.6205 2.09888 -0.526893 0
M  V30 588 C 53.2155 0.344449 -3.37044 0
M  V30 589 C 51.7745 0.780384 -3.68221 0
M  V30 590 C 50.9215 -0.108554 -2.77087 0
M  V30 591 H 53.8725 -0.526485 -1.49712 0
M  V30 592 H 53.8935 1.17828 -3.61796 0
M  V30 593 H 53.4055 -0.634235 -3.82883 0
M  V30 594 H 51.5065 1.76945 -3.27904 0
M  V30 595 H 51.6195 0.596572 -4.75371 0
M  V30 596 H 49.9835 0.412931 -2.5133 0
M  V30 597 H 50.7665 -1.08368 -3.25747 0
M  V30 598 N 53.2116 1.57565 -0.0334293 0
M  V30 599 C 54.1586 2.10478 0.946981 0
M  V30 600 C 55.1286 1.00787 1.32027 0
M  V30 601 O 56.3136 1.28232 1.41284 0
M  V30 602 C 53.4536 2.63994 2.22263 0
M  V30 603 C 52.5666 3.87709 1.90541 0
M  V30 604 C 51.7016 4.29604 3.12433 0
M  V30 605 C 50.7406 5.46065 2.76549 0
M  V30 606 N 49.8776 5.83096 3.9108 0
M  V30 607 H 54.7176 2.93963 0.488846 0
M  V30 608 H 52.2546 1.45296 0.22969 0
M  V30 609 H 54.2126 2.93114 2.96884 0
M  V30 610 H 52.8426 1.83333 2.65685 0
M  V30 611 H 51.8946 3.65291 1.06144 0
M  V30 612 H 53.2066 4.72403 1.60116 0
M  V30 613 H 52.3606 4.60182 3.9537 0
M  V30 614 H 51.0996 3.43685 3.46023 0
M  V30 615 H 50.1046 5.15176 1.92026 0
M  V30 616 H 51.3296 6.33685 2.44171 0
M  V30 617 H 49.2756 5.00132 4.24504 0
M  V30 618 H 49.1926 6.6244 3.64293 0
M  V30 619 H 50.4606 6.18282 4.74708 0
M  V30 620 N 54.6897 -0.239769 1.55765 0
M  V30 621 C 56.1057 -0.588624 1.48349 0
M  V30 622 C 56.3057 -1.88005 0.72502 0
M  V30 623 O 55.3617 -2.51186 0.257269 0
M  V30 624 C 56.6747 -0.68474 2.928 0
M  V30 625 C 58.2227 -0.77659 3.03213 0
M  V30 626 C 58.6977 -0.904207 4.48986 0
M  V30 627 N 60.1887 -0.968896 4.52953 0
M  V30 628 C 60.9237 -1.08703 5.63002 0
M  V30 629 N 60.4197 -1.17026 6.82845 0
M  V30 630 N 62.2127 -1.12074 5.50814 0
M  V30 631 H 54.3637 0.607911 2.03515 0
M  V30 632 H 56.6267 0.21083 0.924259 0
M  V30 633 H 56.3327 0.194284 3.51163 0
M  V30 634 H 56.2067 -1.55435 3.43686 0
M  V30 635 H 58.5937 -1.64606 2.44926 0
M  V30 636 H 58.6747 0.118315 2.55526 0
M  V30 637 H 58.3187 -0.0392633 5.07885 0
M  V30 638 H 58.2487 -1.81426 4.9436 0
M  V30 639 H 60.7397 -0.915633 3.6664 0
M  V30 640 H 61.0527 -1.25966 7.62465 0
M  V30 641 H 59.3977 -1.13971 6.85591 0
M  V30 642 H 62.5887 -1.05226 4.5612 0
M  V30 643 H 62.7617 -1.20936 6.36615 0
M  V30 644 N 56.1678 -1.49265 -0.50573 0
M  V30 645 C 57.5838 -1.35923 -0.836486 0
M  V30 646 C 57.7838 -0.388704 -1.97715 0
M  V30 647 O 56.8398 0.181336 -2.51848 0
M  V30 648 C 58.1528 -2.76531 -1.18115 0
M  V30 649 C 59.7008 -2.85197 -1.28964 0
M  V30 650 C 60.1758 -4.26561 -1.66761 0
M  V30 651 N 61.6668 -4.2935 -1.73819 0
M  V30 652 C 62.4018 -5.35693 -2.045 0
M  V30 653 N 61.8978 -6.52287 -2.33438 0
M  V30 654 N 63.6908 -5.23105 -2.05711 0
M  V30 655 H 55.8418 -2.10965 0.246519 0
M  V30 656 H 58.1048 -0.9468 0.0476887 0
M  V30 657 H 57.8108 -3.49226 -0.416398 0
M  V30 658 H 57.6848 -3.11599 -2.1257 0
M  V30 659 H 60.0718 -2.12742 -2.04511 0
M  V30 660 H 60.1528 -2.53718 -0.325704 0
M  V30 661 H 59.7968 -4.99541 -0.917656 0
M  V30 662 H 59.7268 -4.55502 -2.64246 0
M  V30 663 H 62.2178 -3.4526 -1.53635 0
M  V30 664 H 62.5308 -7.29158 -2.56024 0
M  V30 665 H 60.8758 -6.55521 -2.30905 0
M  V30 666 H 64.0668 -4.31026 -1.82577 0
M  V30 667 H 64.2398 -6.06078 -2.29289 0
M  V30 668 N 57.6459 0.756429 -1.3826 0
M  V30 669 C 58.5939 1.89149 -1.35372 0
M  V30 670 C 59.5879 1.67691 -0.24004 0
M  V30 671 O 60.7939 1.75294 -0.408919 0
M  V30 672 H 57.1689 0.622271 -0.422236 0
M  V30 673 H 59.1399 1.88701 -2.31159 0
M  V30 674 C 57.8889 3.26599 -1.19284 0
M  V30 675 H 57.2119 3.43695 -2.0424 0
M  V30 676 H 58.6519 4.06274 -1.21316 0
M  V30 677 C 57.1109 3.3675 0.100454 0
M  V30 678 O 57.6409 3.86951 1.07851 0
M  V30 679 N 55.8469 2.90179 0.15633 0
M  V30 680 H 55.3939 2.49517 -0.640253 0
M  V30 681 H 55.3519 2.97352 1.02123 0
M  V30 682 N 59.124 1.23083 0.984299 0
M  V30 683 C 60.372 1.05848 1.72165 0
M  V30 684 C 60.693 -0.406049 1.90726 0
M  V30 685 O 59.963 -1.29139 1.47309 0
M  V30 686 H 58.543 0.388685 0.637913 0
M  V30 687 H 61.205 1.54736 1.18503 0
M  V30 688 H 60.301 1.54327 2.71274 0
M  V30 689 N 60.6021 -1.18246 1.0419 0
M  V30 690 C 61.8481 -1.88536 0.747122 0
M  V30 691 C 62.1811 -1.80223 -0.723409 0
M  V30 692 O 61.4561 -1.20337 -1.52804 0
M  V30 693 C 61.7391 -3.38968 1.21544 0
M  V30 694 C 61.5921 -3.56084 2.74816 0
M  V30 695 C 62.9111 -4.32648 0.806482 0
M  V30 696 H 60.0301 -0.684619 0.272883 0
M  V30 697 H 62.6721 -1.39113 1.29413 0
M  V30 698 H 60.8221 -3.8119 0.750081 0
M  V30 699 H 62.4941 -3.22946 3.29399 0
M  V30 700 H 60.7371 -2.98699 3.14582 0
M  V30 701 H 61.4081 -4.61639 3.02644 0
M  V30 702 H 63.8841 -3.98211 1.20695 0
M  V30 703 H 62.7601 -5.36462 1.1619 0
M  V30 704 H 63.0211 -4.41146 -0.29029 0
M  V30 705 N 62.0802 -0.821533 -1.34494 0
M  V30 706 C 63.0282 -0.230702 -2.31453 0
M  V30 707 C 64.0222 0.627793 -1.57338 0
M  V30 708 O 65.2282 0.519288 -1.72347 0
M  V30 709 H 61.6032 -0.0558577 -0.749923 0
M  V30 710 H 63.5742 -1.06332 -2.78812 0
M  V30 711 C 62.3232 0.59391 -3.4259 0
M  V30 712 H 61.6462 -0.0573588 -3.99759 0
M  V30 713 H 63.0862 0.973446 -4.12674 0
M  V30 714 C 61.5452 1.76568 -2.86924 0
M  V30 715 O 62.0752 2.8638 -2.81691 0
M  V30 716 N 60.2812 1.58198 -2.43766 0
M  V30 717 H 59.8282 0.68872 -2.48222 0
M  V30 718 H 59.7862 2.36752 -2.06871 0
M  V30 719 N 63.5583 1.46682 -0.576371 0
M  V30 720 C 64.8053 2.02412 -0.0595339 0
M  V30 721 C 65.1333 1.44859 1.29793 0
M  V30 722 O 64.3883 0.601099 1.8624 0
M  V30 723 C 64.6873 3.57345 0.062886 0
M  V30 724 C 64.3533 4.33908 -1.22616 0
M  V30 725 C 63.0153 4.54544 -1.57933 0
M  V30 726 C 65.3673 4.77919 -2.07948 0
M  V30 727 C 62.6953 5.16444 -2.78393 0
M  V30 728 C 65.0473 5.41149 -3.27629 0
M  V30 729 C 63.7113 5.60014 -3.63236 0
M  V30 730 H 62.9813 0.74068 -0.021785 0
M  V30 731 H 65.6283 1.76128 -0.751735 0
M  V30 732 H 63.9333 3.82729 0.838178 0
M  V30 733 H 65.6303 3.98136 0.478439 0
M  V30 734 H 62.2203 4.18138 -0.941202 0
M  V30 735 H 66.4043 4.61738 -1.81967 0
M  V30 736 H 61.6603 5.29242 -3.06126 0
M  V30 737 H 65.8343 5.74211 -3.94023 0
M  V30 738 H 63.4613 6.07748 -4.56669 0
M  V30 739 N 65.0364 0.313813 1.54444 0
M  V30 740 C 66.2614 -0.296681 2.05267 0
M  V30 741 C 66.6864 -1.45757 1.18897 0
M  V30 742 O 66.0444 -1.80239 0.195886 0
M  V30 743 C 66.0924 -0.71831 3.53373 0
M  V30 744 O 65.1964 -1.82175 3.69981 0
M  V30 745 H 64.5374 -0.0554061 0.661684 0
M  V30 746 H 67.0674 0.459387 1.99376 0
M  V30 747 H 67.0774 -1.00364 3.95463 0
M  V30 748 H 65.7524 0.130821 4.15694 0
M  V30 749 H 64.3294 -1.53598 3.39797 0
M  V30 750 N 66.5145 -1.57545 0.0417849 0
M  V30 751 C 67.4445 -2.14009 -0.933929 0
M  V30 752 C 68.4255 -1.05938 -1.33083 0
M  V30 753 O 69.6105 -1.33833 -1.40721 0
M  V30 754 C 66.7405 -2.67747 -2.21199 0
M  V30 755 C 65.6945 -3.80718 -1.95544 0
M  V30 756 C 65.0205 -4.20935 -3.29724 0
M  V30 757 C 66.3205 -5.06258 -1.28452 0
M  V30 758 H 68.0145 -2.95788 -0.463645 0
M  V30 759 H 65.5605 -1.42285 -0.221573 0
M  V30 760 H 67.5135 -3.05886 -2.89848 0
M  V30 761 H 66.2375 -1.83147 -2.70416 0
M  V30 762 H 64.8965 -3.43037 -1.2931 0
M  V30 763 H 64.5445 -3.33298 -3.76724 0
M  V30 764 H 64.2445 -4.9707 -3.13361 0
M  V30 765 H 65.7685 -4.61666 -3.9962 0
M  V30 766 H 67.1825 -5.41903 -1.8712 0
M  V30 767 H 65.5795 -5.87475 -1.22445 0
M  V30 768 H 66.6495 -4.84207 -0.259219 0
M  V30 769 N 67.9926 0.231505 -1.5589 0
M  V30 770 C 68.9556 1.27028 -1.90779 0
M  V30 771 C 69.9556 1.40308 -0.785507 0
M  V30 772 O 71.1456 1.38744 -1.05336 0
M  V30 773 C 68.2776 2.64566 -2.14983 0
M  V30 774 H 69.4706 0.973017 -2.83677 0
M  V30 775 H 67.0236 0.471486 -1.49019 0
M  V30 776 H 67.7586 2.99406 -1.24604 0
M  V30 777 H 67.5436 2.56305 -2.96732 0
M  V30 778 H 69.0336 3.39543 -2.43105 0
M  V30 779 N 69.4707 1.49531 0.497807 0
M  V30 780 C 70.7167 1.59415 1.25358 0
M  V30 781 C 71.0497 0.281422 1.9215 0
M  V30 782 O 70.3247 -0.715249 1.80871 0
M  V30 783 C 70.6077 2.75566 2.3181 0
M  V30 784 C 70.4607 4.16642 1.69498 0
M  V30 785 C 71.7797 2.87347 3.33346 0
M  V30 786 H 68.8987 0.580244 0.454408 0
M  V30 787 H 71.5407 1.81827 0.551262 0
M  V30 788 H 69.6907 2.56587 2.91711 0
M  V30 789 H 71.3627 4.47145 1.13399 0
M  V30 790 H 69.6057 4.22141 0.998978 0
M  V30 791 H 70.2767 4.93792 2.46725 0
M  V30 792 H 72.7527 3.04634 2.83438 0
M  V30 793 H 71.6287 3.70289 4.05188 0
M  V30 794 H 71.8897 1.96834 3.95865 0
M  V30 795 N 70.9488 -0.749086 1.3866 0
M  V30 796 C 72.1948 -1.51056 1.35314 0
M  V30 797 C 72.5278 -1.94121 -0.0553751 0
M  V30 798 O 71.8028 -1.65763 -1.01749 0
M  V30 799 C 72.0858 -2.76003 2.31288 0
M  V30 800 C 71.9388 -2.39047 3.8102 0
M  V30 801 C 73.2578 -3.78046 2.2532 0
M  V30 802 H 70.3768 -0.547972 0.492844 0
M  V30 803 H 73.0188 -0.857628 1.69543 0
M  V30 804 H 71.1688 -3.31716 2.02229 0
M  V30 805 H 72.8408 -1.89074 4.20771 0
M  V30 806 H 71.0838 -1.71449 3.98482 0
M  V30 807 H 71.7548 -3.28462 4.4364 0
M  V30 808 H 74.2308 -3.31884 2.50983 0
M  V30 809 H 73.1068 -4.63159 2.94576 0
M  V30 810 H 73.3678 -4.23957 1.25352 0
M  V30 811 N 72.4269 -1.23603 -0.977757 0
M  V30 812 C 73.6729 -1.07129 -1.72195 0
M  V30 813 C 74.0059 0.390501 -1.90233 0
M  V30 814 O 73.2809 1.28902 -1.45653 0
M  V30 815 C 73.5639 -1.80031 -3.11867 0
M  V30 816 C 73.4169 -3.33899 -3.01383 0
M  V30 817 C 74.7359 -1.56492 -4.11337 0
M  V30 818 H 71.8549 -0.390571 -0.624999 0
M  V30 819 H 74.4969 -1.52142 -1.13811 0
M  V30 820 H 72.6469 -1.41768 -3.6171 0
M  V30 821 H 74.3189 -3.81699 -2.59043 0
M  V30 822 H 72.5619 -3.62796 -2.37827 0
M  V30 823 H 73.2329 -3.801 -4.00285 0
M  V30 824 H 75.7089 -1.89757 -3.70313 0
M  V30 825 H 74.5849 -2.09973 -5.07151 0
M  V30 826 H 74.8459 -0.500874 -4.39254 0
M  V30 827 N 73.905 1.17692 -1.04816 0
M  V30 828 C 75.154 1.87192 -0.751132 0
M  V30 829 C 75.467 1.8169 0.724441 0
M  V30 830 O 76.673 2.46625 1.13527 0
M  V30 831 C 75.129 3.35857 -1.29338 0
M  V30 832 C 74.737 3.4987 -2.79812 0
M  V30 833 C 76.481 4.10709 -1.07322 0
M  V30 834 C 74.388 4.92536 -3.27356 0
M  V30 835 H 73.318 0.701162 -0.277288 0
M  V30 836 H 75.969 1.32932 -1.26496 0
M  V30 837 H 74.351 3.89631 -0.707376 0
M  V30 838 H 75.525 3.06332 -3.44235 0
M  V30 839 H 73.84 2.88433 -3.00325 0
M  V30 840 H 76.437 5.15952 -1.4035 0
M  V30 841 H 76.78 4.16299 -0.0108001 0
M  V30 842 H 77.313 3.6313 -1.62423 0
M  V30 843 H 74.052 4.92119 -4.33012 0
M  V30 844 H 73.572 5.3676 -2.67673 0
M  V30 845 H 75.251 5.61288 -3.21815 0
M  V30 846 N 75.3831 0.828654 1.34056 0
M  V30 847 C 76.6131 0.431993 2.02033 0
M  V30 848 C 77.0211 -0.96844 1.62536 0
M  V30 849 O 76.3641 -1.6391 0.829408 0
M  V30 850 C 76.4261 0.461224 3.56529 0
M  V30 851 C 76.0901 1.81599 4.1937 0
M  V30 852 C 77.0871 2.7777 4.39477 0
M  V30 853 C 74.7721 2.10604 4.56017 0
M  V30 854 C 76.7661 4.01115 4.95364 0
M  V30 855 C 74.4531 3.34207 5.11614 0
M  V30 856 C 75.4511 4.2928 5.31232 0
M  V30 857 O 75.1391 5.50699 5.8565 0
M  V30 858 H 74.8711 0.170943 0.654029 0
M  V30 859 H 77.4251 1.11988 1.72185 0
M  V30 860 H 75.6551 -0.283388 3.8566 0
M  V30 861 H 77.3441 0.0838149 4.05813 0
M  V30 862 H 78.1101 2.56659 4.11523 0
M  V30 863 H 73.9891 1.37402 4.40047 0
M  V30 864 H 77.5331 4.75333 5.10592 0
M  V30 865 H 73.4301 3.55179 5.38997 0
M  V30 866 H 74.1981 5.52298 6.04077 0
M  V30 867 N 76.8612 -1.46375 0.584142 0
M  V30 868 C 77.7912 -2.33103 -0.136037 0
M  V30 869 C 78.7722 -1.45431 -0.882255 0
M  V30 870 O 79.9572 -1.74246 -0.857434 0
M  V30 871 C 77.0872 -3.27731 -1.14933 0
M  V30 872 C 76.0412 -4.24855 -0.517862 0
M  V30 873 C 75.3672 -5.09001 -1.63773 0
M  V30 874 C 76.6672 -5.19439 0.545886 0
M  V30 875 H 78.3612 -2.93568 0.588086 0
M  V30 876 H 75.9072 -1.41166 0.284259 0
M  V30 877 H 77.8602 -3.87261 -1.66153 0
M  V30 878 H 76.5842 -2.65377 -1.90375 0
M  V30 879 H 75.2432 -3.6659 -0.0267361 0
M  V30 880 H 74.8912 -4.43031 -2.38185 0
M  V30 881 H 74.5912 -5.74777 -1.22085 0
M  V30 882 H 76.1152 -5.71396 -2.15266 0
M  V30 883 H 77.5292 -5.73177 0.118704 0
M  V30 884 H 75.9262 -5.93566 0.88317 0
M  V30 885 H 76.9962 -4.63285 1.43162 0
M  V30 886 N 78.3393 -0.321999 -1.54275 0
M  V30 887 C 79.5883 0.281931 -1.9972 0
M  V30 888 C 79.9013 1.53369 -1.21397 0
M  V30 889 O 81.1073 2.21352 -1.57211 0
M  V30 890 C 79.5633 0.5529 -3.55628 0
M  V30 891 C 79.1713 -0.681721 -4.42783 0
M  V30 892 C 80.9153 1.11687 -4.09544 0
M  V30 893 C 78.8223 -0.382742 -5.9016 0
M  V30 894 H 77.7523 0.109124 -0.746062 0
M  V30 895 H 80.4033 -0.43398 -1.78294 0
M  V30 896 H 78.7853 1.32896 -3.73035 0
M  V30 897 H 79.9593 -1.45723 -4.37151 0
M  V30 898 H 78.2743 -1.1658 -3.99748 0
M  V30 899 H 80.8713 1.35515 -5.17242 0
M  V30 900 H 81.2143 2.06575 -3.61431 0
M  V30 901 H 81.7473 0.402032 -3.95763 0
M  V30 902 H 78.4863 -1.30076 -6.42464 0
M  V30 903 H 78.0063 0.355094 -5.98748 0
M  V30 904 H 79.6853 0.00800157 -6.47 0
M  V30 905 N 79.8174 1.5752 -0.0501392 0
M  V30 906 C 80.7474 2.14502 0.922566 0
M  V30 907 C 81.7284 1.06642 1.3252 0
M  V30 908 O 82.9134 1.34577 1.4001 0
M  V30 909 C 80.0434 2.68916 2.19776 0
M  V30 910 C 78.9974 3.8175 1.93523 0
M  V30 911 C 78.3234 4.22677 3.27487 0
M  V30 912 C 79.6234 5.06932 1.25765 0
M  V30 913 H 81.3174 2.9603 0.447952 0
M  V30 914 H 78.8634 1.42401 0.214024 0
M  V30 915 H 80.8164 3.07419 2.88222 0
M  V30 916 H 79.5404 1.84578 2.69441 0
M  V30 917 H 78.1994 3.43718 1.27489 0
M  V30 918 H 77.8474 3.35291 3.74952 0
M  V30 919 H 77.5474 4.98725 3.1072 0
M  V30 920 H 79.0714 4.63779 3.97166 0
M  V30 921 H 80.4854 5.42888 1.84244 0
M  V30 922 H 78.8824 5.88116 1.19328 0
M  V30 923 H 79.9524 4.84337 0.233536 0
M  V30 924 N 81.2955 -0.223234 1.56011 0
M  V30 925 C 82.2255 -1.27988 1.95298 0
M  V30 926 C 83.2065 -1.48976 0.820979 0
M  V30 927 O 84.3915 -1.61188 1.08315 0
M  V30 928 C 81.5215 -2.63 2.26822 0
M  V30 929 C 80.4755 -2.56671 3.42497 0
M  V30 930 C 79.8015 -3.95697 3.59622 0
M  V30 931 C 81.1015 -2.11601 4.77517 0
M  V30 932 H 82.7955 -0.953525 2.8381 0
M  V30 933 H 80.3415 -0.457244 1.36548 0
M  V30 934 H 82.2945 -3.37077 2.52898 0
M  V30 935 H 81.0185 -2.9732 1.35161 0
M  V30 936 H 79.6775 -1.85051 3.16467 0
M  V30 937 H 79.3255 -4.27322 2.6534 0
M  V30 938 H 79.0255 -3.92345 4.37424 0
M  V30 939 H 80.5495 -4.71438 3.88044 0
M  V30 940 H 81.9635 -2.7542 5.02809 0
M  V30 941 H 80.3605 -2.19311 5.5859 0
M  V30 942 H 81.4305 -1.06824 4.72987 0
M  V30 943 N 82.7736 -1.49793 -0.48987 0
M  V30 944 C 84.0016 -1.63568 -1.26701 0
M  V30 945 C 84.4166 -0.311465 -1.86213 0
M  V30 946 O 83.7736 0.704416 -1.68357 0
M  V30 947 C 83.8246 -2.71284 -2.38929 0
M  V30 948 O 83.5456 -3.9857 -1.81861 0
M  V30 949 C 85.0466 -2.95864 -3.3012 0
M  V30 950 H 82.2666 -0.550342 -0.383881 0
M  V30 951 H 84.8106 -1.95898 -0.586864 0
M  V30 952 H 82.9656 -2.417 -3.02753 0
M  V30 953 H 83.3796 -4.57993 -2.55622 0
M  V30 954 H 84.8536 -3.74941 -4.05121 0
M  V30 955 H 85.3306 -2.06206 -3.87783 0
M  V30 956 H 85.9366 -3.26907 -2.72051 0
M  V30 957 N 84.2517 0.741722 -1.39055 0
M  V30 958 C 85.2147 1.83733 -1.37021 0
M  V30 959 C 86.2147 1.58542 -0.268534 0
M  V30 960 O 87.4047 1.66067 -0.526076 0
M  V30 961 C 84.5367 3.2141 -1.13617 0
M  V30 962 H 85.7297 1.86941 -2.34506 0
M  V30 963 H 83.2827 0.944676 -1.24521 0
M  V30 964 H 84.0177 3.23865 -0.167863 0
M  V30 965 H 83.8027 3.4109 -1.93391 0
M  V30 966 H 85.2927 4.01477 -1.14918 0
M  V30 967 N 85.7298 1.2412 0.971189 0
M  V30 968 C 86.9778 1.07668 1.71032 0
M  V30 969 C 87.2988 -0.385797 1.91146 0
M  V30 970 O 86.5688 -1.27569 1.4867 0
M  V30 971 H 85.1488 0.395429 0.633755 0
M  V30 972 H 87.8108 1.55984 1.16855 0
M  V30 973 H 86.9068 1.57195 2.69622 0
M  V30 974 N 87.2079 -1.17134 1.05439 0
M  V30 975 C 88.1709 -2.19439 0.661764 0
M  V30 976 C 89.1709 -1.58199 -0.288042 0
M  V30 977 O 90.3609 -1.74053 -0.0715803 0
M  V30 978 C 87.4929 -3.40889 -0.0276209 0
M  V30 979 H 88.6859 -2.55688 1.56728 0
M  V30 980 H 86.2389 -1.31259 0.848567 0
M  V30 981 H 86.9739 -3.10187 -0.94629 0
M  V30 982 H 86.7589 -3.86586 0.655238 0
M  V30 983 H 88.2489 -4.16603 -0.288342 0
M  V30 984 N 88.686 -0.835752 -1.33615 0
M  V30 985 C 89.934 -0.429109 -1.97492 0
M  V30 986 C 90.255 1.01433 -1.66543 0
M  V30 987 O 89.525 1.70611 -0.962744 0
M  V30 988 H 88.105 -0.155686 -0.730596 0
M  V30 989 H 90.767 -1.06802 -1.63031 0
M  V30 990 H 89.863 -0.55861 -3.0706 0
M  V30 991 N 90.1641 1.46063 -0.591896 0
M  V30 992 C 91.0941 2.33172 0.123673 0
M  V30 993 C 92.0751 1.45897 0.87453 0
M  V30 994 O 93.2601 1.74698 0.848181 0
M  V30 995 C 90.3901 3.28336 1.13194 0
M  V30 996 C 89.3441 4.25124 0.495324 0
M  V30 997 C 88.6701 5.09863 1.61071 0
M  V30 998 C 89.9701 5.19143 -0.573425 0
M  V30 999 H 91.6641 2.93252 -0.603646 0
M  V30 1000 H 89.2101 1.41014 -0.291741 0
M  V30 1001 H 91.1631 3.88137 1.64097 0
M  V30 1002 H 89.8871 2.66383 1.88965 0
M  V30 1003 H 88.5461 3.66599 0.00729452 0
M  V30 1004 H 88.1941 4.44288 2.35832 0
M  V30 1005 H 87.8941 5.75417 1.19035 0
M  V30 1006 H 89.4181 5.72529 2.12233 0
M  V30 1007 H 90.8321 5.73106 -0.1491 0
M  V30 1008 H 89.2291 5.93089 -0.914636 0
M  V30 1009 H 90.2991 4.62519 -1.45617 0
M  V30 1010 N 91.6422 0.330177 1.54103 0
M  V30 1011 C 92.5722 -0.525353 2.27513 0
M  V30 1012 C 93.5532 -1.11383 1.2856 0
M  V30 1013 O 94.7382 -1.13773 1.57383 0
M  V30 1014 C 91.8682 -1.6831 3.03791 0
M  V30 1015 C 90.8222 -1.2236 4.10137 0
M  V30 1016 C 90.1482 -2.46882 4.74293 0
M  V30 1017 C 91.4482 -0.333697 5.21233 0
M  V30 1018 H 93.1422 0.087013 2.99274 0
M  V30 1019 H 90.6882 0.0432893 1.43935 0
M  V30 1020 H 92.6412 -2.28795 3.5388 0
M  V30 1021 H 91.3652 -2.32216 2.29659 0
M  V30 1022 H 90.0242 -0.64165 3.60941 0
M  V30 1023 H 89.6722 -3.09165 3.96769 0
M  V30 1024 H 89.3722 -2.16825 5.46133 0
M  V30 1025 H 90.8962 -3.08117 5.27159 0
M  V30 1026 H 92.3102 -0.845013 5.67038 0
M  V30 1027 H 90.7072 -0.125612 5.99969 0
M  V30 1028 H 91.7772 0.633724 4.80741 0
M  V30 1029 N 93.1203 -1.57491 0.0584922 0
M  V30 1030 C 94.3663 -1.93264 -0.614558 0
M  V30 1031 C 94.6993 -0.937717 -1.7006 0
M  V30 1032 O 93.9743 0.0351652 -1.94468 0
M  V30 1033 C 94.2573 -3.3938 -1.20386 0
M  V30 1034 C 94.1103 -4.49625 -0.125375 0
M  V30 1035 C 95.4293 -3.86039 -2.11334 0
M  V30 1036 H 92.5483 -0.702791 -0.221933 0
M  V30 1037 H 95.1903 -1.8961 0.12175 0
M  V30 1038 H 93.3403 -3.42626 -1.83139 0
M  V30 1039 H 95.0123 -4.58506 0.506971 0
M  V30 1040 H 93.2553 -4.30354 0.545672 0
M  V30 1041 H 93.9263 -5.48967 -0.577861 0
M  V30 1042 H 96.4023 -3.84716 -1.58534 0
M  V30 1043 H 95.2783 -4.88914 -2.49507 0
M  V30 1044 H 95.5393 -3.23215 -3.01636 0
M  V30 1045 N 94.5984 0.214957 -1.56127 0
M  V30 1046 C 95.8444 0.939762 -1.79712 0
M  V30 1047 C 96.1774 1.83723 -0.629247 0
M  V30 1048 O 95.4524 1.90925 0.371197 0
M  V30 1049 C 95.7354 1.77306 -3.13424 0
M  V30 1050 C 95.5884 0.90164 -4.40671 0
M  V30 1051 C 96.9074 2.74956 -3.43638 0
M  V30 1052 H 94.0264 0.340214 -0.653776 0
M  V30 1053 H 96.6684 0.20824 -1.88855 0
M  V30 1054 H 94.8184 2.39673 -3.0576 0
M  V30 1055 H 96.4904 0.294206 -4.60361 0
M  V30 1056 H 94.7334 0.207368 -4.33304 0
M  V30 1057 H 95.4044 1.51923 -5.30682 0
M  V30 1058 H 97.8804 2.22724 -3.51473 0
M  V30 1059 H 96.7564 3.30358 -4.38355 0
M  V30 1060 H 97.0174 3.53023 -2.66134 0
M  V30 1061 N 96.0765 1.50051 0.48192 0
M  V30 1062 C 97.0085 1.64263 1.59844 0
M  V30 1063 C 98.0215 0.52451 1.54119 0
M  V30 1064 O 99.2105 0.797293 1.59704 0
M  V30 1065 C 96.3105 1.60102 2.98698 0
M  V30 1066 C 95.4835 2.87767 3.29407 0
M  V30 1067 C 94.5425 2.76397 4.47762 0
M  V30 1068 O 93.5685 3.50348 4.48603 0
M  V30 1069 N 94.7705 1.89222 5.48794 0
M  V30 1070 H 97.5355 2.60566 1.48073 0
M  V30 1071 H 95.0965 1.47379 0.670149 0
M  V30 1072 H 97.0885 1.50123 3.75826 0
M  V30 1073 H 95.6585 0.715798 3.04294 0
M  V30 1074 H 94.8785 3.11954 2.40994 0
M  V30 1075 H 96.1665 3.72365 3.4673 0
M  V30 1076 H 95.5645 1.28434 5.50928 0
M  V30 1077 H 94.1215 1.85154 6.24949 0
M  V30 1078 N 97.5546 -0.734337 1.39446 0
M  V30 1079 C 98.8006 -1.49613 1.36908 0
M  V30 1080 C 99.1336 -1.94169 -0.0347829 0
M  V30 1081 O 98.4086 -1.66833 -0.999847 0
M  V30 1082 C 98.6916 -2.73534 2.34203 0
M  V30 1083 C 98.5446 -2.34993 3.83534 0
M  V30 1084 C 99.8636 -3.75635 2.29317 0
M  V30 1085 H 96.9826 -0.542714 0.498629 0
M  V30 1086 H 99.6246 -0.839597 1.70443 0
M  V30 1087 H 97.7746 -3.29553 2.05736 0
M  V30 1088 H 99.4466 -1.84601 4.22753 0
M  V30 1089 H 97.6896 -1.67213 4.00278 0
M  V30 1090 H 98.3606 -3.23738 4.47099 0
M  V30 1091 H 100.837 -3.29203 2.54489 0
M  V30 1092 H 99.7126 -4.60008 2.99472 0
M  V30 1093 H 99.9736 -4.22603 1.29842 0
M  V30 1094 N 99.0327 -1.24633 -0.964593 0
M  V30 1095 C 99.9627 -1.06611 -2.07741 0
M  V30 1096 C 100.944 0.0218666 -1.70086 0
M  V30 1097 O 102.129 -0.145793 -1.93652 0
M  V30 1098 C 99.2587 -0.673444 -3.40708 0
M  V30 1099 C 98.2127 -1.71054 -3.92332 0
M  V30 1100 C 97.5387 -1.17285 -5.21678 0
M  V30 1101 C 98.8387 -3.10718 -4.19824 0
M  V30 1102 H 100.533 -1.99693 -2.23076 0
M  V30 1103 H 98.0787 -0.96152 -1.07195 0
M  V30 1104 H 100.032 -0.534345 -4.17998 0
M  V30 1105 H 98.7557 0.293073 -3.25282 0
M  V30 1106 H 97.4147 -1.83791 -3.17201 0
M  V30 1107 H 97.0627 -0.196847 -5.02615 0
M  V30 1108 H 96.7627 -1.86592 -5.57187 0
M  V30 1109 H 98.2867 -1.04593 -6.01575 0
M  V30 1110 H 99.7007 -3.01192 -4.87808 0
M  V30 1111 H 98.0977 -3.77406 -4.66567 0
M  V30 1112 H 99.1677 -3.58524 -3.26479 0
M  V30 1113 N 100.511 1.16574 -1.06058 0
M  V30 1114 C 101.459 2.22941 -0.663343 0
M  V30 1115 C 102.453 1.66358 0.319593 0
M  V30 1116 O 103.659 1.7905 0.184713 0
M  V30 1117 H 100.034 0.725907 -0.196376 0
M  V30 1118 H 102.005 2.53736 -1.57037 0
M  V30 1119 C 100.754 3.47642 -0.0632808 0
M  V30 1120 H 100.077 3.91493 -0.810733 0
M  V30 1121 H 101.517 4.2363 0.177177 0
M  V30 1122 C 99.9758 3.1509 1.19248 0
M  V30 1123 O 100.506 3.30673 2.28075 0
M  V30 1124 N 98.7118 2.6924 1.09353 0
M  V30 1125 H 98.2588 2.5676 0.207912 0
M  V30 1126 H 98.2168 2.47833 1.93458 0
M  V30 1127 N 101.989 0.842826 1.3317 0
M  V30 1128 C 102.919 0.294028 2.31641 0
M  V30 1129 C 103.9 -0.600401 1.59151 0
M  V30 1130 O 105.085 -0.523124 1.87022 0
M  V30 1131 C 102.215 -0.528416 3.43257 0
M  V30 1132 C 101.169 0.27056 4.27144 0
M  V30 1133 C 100.495 -0.675881 5.30411 0
M  V30 1134 C 101.795 1.48981 5.00602 0
M  V30 1135 H 103.489 1.11681 2.77791 0
M  V30 1136 H 101.035 0.538478 1.33553 0
M  V30 1137 H 102.988 -0.922674 4.11175 0
M  V30 1138 H 101.712 -1.38445 2.95805 0
M  V30 1139 H 100.371 0.646427 3.60856 0
M  V30 1140 H 100.019 -1.52842 4.79216 0
M  V30 1141 H 99.7189 -0.145374 5.8742 0
M  V30 1142 H 101.243 -1.06757 6.01195 0
M  V30 1143 H 102.657 1.16849 5.61266 0
M  V30 1144 H 101.054 1.95739 5.6728 0
M  V30 1145 H 102.124 2.25746 4.29147 0
M  V30 1146 N 103.467 -1.45747 0.599634 0
M  V30 1147 C 104.399 -2.28628 -0.161879 0
M  V30 1148 C 105.412 -1.39494 -0.839367 0
M  V30 1149 O 106.601 -1.63941 -0.706089 0
M  V30 1150 C 103.701 -3.15014 -1.24976 0
M  V30 1151 C 102.874 -4.32378 -0.660935 0
M  V30 1152 C 101.933 -5.00033 -1.63869 0
M  V30 1153 O 100.959 -5.57085 -1.1681 0
M  V30 1154 N 102.161 -4.98589 -2.97303 0
M  V30 1155 H 104.926 -2.94624 0.549265 0
M  V30 1156 H 102.487 -1.55847 0.438565 0
M  V30 1157 H 104.479 -3.5714 -1.9035 0
M  V30 1158 H 103.049 -2.5098 -1.86354 0
M  V30 1159 H 102.269 -3.9383 0.170688 0
M  V30 1160 H 103.557 -5.08197 -0.247619 0
M  V30 1161 H 102.955 -4.53514 -3.38145 0
M  V30 1162 H 101.512 -5.44603 -3.58121 0
M  V30 1163 N 104.945 -0.338344 -1.53925 0
M  V30 1164 C 105.908 0.508299 -2.23493 0
M  V30 1165 C 106.908 1.03175 -1.23335 0
M  V30 1166 O 108.098 0.921826 -1.47811 0
M  V30 1167 C 105.23 1.70754 -2.95052 0
M  V30 1168 H 106.423 -0.100058 -2.99733 0
M  V30 1169 H 103.976 -0.0896198 -1.56043 0
M  V30 1170 H 104.711 2.35474 -2.22986 0
M  V30 1171 H 104.496 1.33946 -3.68512 0
M  V30 1172 H 105.986 2.30818 -3.48013 0
M  V30 1173 N 106.423 1.57458 -0.0668435 0
M  V30 1174 C 107.839 1.56947 0.289772 0
M  V30 1175 C 108.039 1.07584 1.70376 0
M  V30 1176 O 107.095 0.739486 2.41429 0
M  V30 1177 C 108.408 3.0052 0.103943 0
M  V30 1178 C 109.956 3.12517 0.173857 0
M  V30 1179 C 110.431 4.57997 0.0163682 0
M  V30 1180 N 111.922 4.63144 0.0721352 0
M  V30 1181 C 112.657 5.73394 -0.0253794 0
M  V30 1182 N 112.153 6.92576 -0.176133 0
M  V30 1183 N 113.946 5.62091 0.0313305 0
M  V30 1184 H 106.097 1.87863 -0.991027 0
M  V30 1185 H 108.36 0.86583 -0.38606 0
M  V30 1186 H 108.066 3.40729 -0.871572 0
M  V30 1187 H 107.94 3.67304 0.858366 0
M  V30 1188 H 110.327 2.72197 1.13985 0
M  V30 1189 H 110.408 2.48381 -0.611586 0
M  V30 1190 H 110.052 4.99005 -0.946374 0
M  V30 1191 H 109.982 5.20158 0.821153 0
M  V30 1192 H 112.473 3.77436 0.187263 0
M  V30 1193 H 112.786 7.72418 -0.242821 0
M  V30 1194 H 111.131 6.94678 -0.211429 0
M  V30 1195 H 114.322 4.67867 0.147773 0
M  V30 1196 H 114.495 6.47982 -0.048121 0
M  V30 1197 N 107.901 -0.206675 1.56239 0
M  V30 1198 C 108.831 -1.25909 1.96645 0
M  V30 1199 C 109.812 -1.48097 0.836734 0
M  V30 1200 O 110.997 -1.6003 1.10019 0
M  V30 1201 C 108.127 -2.6058 2.29599 0
M  V30 1202 C 107.081 -2.53024 3.452 0
M  V30 1203 C 106.407 -3.91861 3.63798 0
M  V30 1204 C 107.707 -2.06524 4.79734 0
M  V30 1205 H 109.401 -0.923369 2.84806 0
M  V30 1206 H 106.947 -0.442735 1.37025 0
M  V30 1207 H 108.9 -3.34375 2.56459 0
M  V30 1208 H 107.624 -2.95869 1.38307 0
M  V30 1209 H 106.283 -1.81684 3.18412 0
M  V30 1210 H 105.931 -4.24483 2.69857 0
M  V30 1211 H 105.631 -3.87683 4.4156 0
M  V30 1212 H 107.155 -4.67296 3.93022 0
M  V30 1213 H 108.569 -2.70072 5.05702 0
M  V30 1214 H 106.966 -2.13374 5.60885 0
M  V30 1215 H 108.036 -1.01802 4.74093 0
M  V30 1216 N 109.379 -1.50304 -0.473955 0
M  V30 1217 C 110.795 -1.37667 -0.807466 0
M  V30 1218 C 110.995 -0.430555 -1.96846 0
M  V30 1219 O 110.051 0.127874 -2.52176 0
M  V30 1220 C 111.364 -2.78974 -1.12223 0
M  V30 1221 C 112.912 -2.87868 -1.22885 0
M  V30 1222 C 113.387 -4.30003 -1.57676 0
M  V30 1223 N 114.878 -4.3294 -1.64673 0
M  V30 1224 C 115.613 -5.3991 -1.93091 0
M  V30 1225 N 115.109 -6.57092 -2.1955 0
M  V30 1226 N 116.902 -5.27351 -1.94569 0
M  V30 1227 H 109.053 -2.10394 0.291212 0
M  V30 1228 H 111.316 -0.945575 0.0677609 0
M  V30 1229 H 111.022 -3.50031 -0.342229 0
M  V30 1230 H 110.896 -3.16038 -2.05913 0
M  V30 1231 H 113.283 -2.17032 -1.99953 0
M  V30 1232 H 113.364 -2.54352 -0.271814 0
M  V30 1233 H 113.008 -5.01375 -0.81149 0
M  V30 1234 H 112.938 -4.61004 -2.54525 0
M  V30 1235 H 115.429 -3.48441 -1.46277 0
M  V30 1236 H 115.742 -7.34425 -2.405 0
M  V30 1237 H 114.087 -6.60272 -2.16948 0
M  V30 1238 H 117.278 -4.34801 -1.73394 0
M  V30 1239 H 117.451 -6.10805 -2.16381 0
M  V30 1240 N 110.857 0.726932 -1.39834 0
M  V30 1241 C 112.103 1.48884 -1.377 0
M  V30 1242 C 112.436 1.94185 0.0244852 0
M  V30 1243 O 111.711 1.67361 0.990986 0
M  V30 1244 C 111.994 2.72288 -2.3565 0
M  V30 1245 C 111.847 2.32956 -3.84775 0
M  V30 1246 C 113.166 3.74414 -2.31306 0
M  V30 1247 H 110.285 0.540062 -0.5015 0
M  V30 1248 H 112.927 0.830547 -1.70886 0
M  V30 1249 H 111.077 3.28457 -2.07481 0
M  V30 1250 H 112.749 1.82356 -4.23726 0
M  V30 1251 H 110.992 1.65088 -4.01159 0
M  V30 1252 H 111.663 3.21362 -4.4881 0
M  V30 1253 H 114.139 3.27849 -2.56231 0
M  V30 1254 H 113.015 4.58414 -3.01907 0
M  V30 1255 H 113.276 4.21909 -1.32081 0
M  V30 1256 N 112.336 1.25143 0.95797 0
M  V30 1257 C 113.266 1.07711 2.07173 0
M  V30 1258 C 114.247 -0.0128462 1.70095 0
M  V30 1259 O 115.432 0.156061 1.93572 0
M  V30 1260 C 112.562 0.691503 3.40346 0
M  V30 1261 C 111.516 1.73132 3.9142 0
M  V30 1262 C 110.842 1.20049 5.21049 0
M  V30 1263 C 112.142 3.1294 4.1817 0
M  V30 1264 H 113.836 2.00873 2.22014 0
M  V30 1265 H 111.382 0.967191 1.06684 0
M  V30 1266 H 113.335 0.556505 4.17709 0
M  V30 1267 H 112.059 -0.275819 3.25433 0
M  V30 1268 H 110.718 1.8547 3.16222 0
M  V30 1269 H 110.366 0.223499 5.02503 0
M  V30 1270 H 110.066 1.89545 5.56189 0
M  V30 1271 H 111.59 1.07782 6.01012 0
M  V30 1272 H 113.004 3.03775 4.86203 0
M  V30 1273 H 111.401 3.79875 4.64559 0
M  V30 1274 H 112.471 3.6025 3.24573 0
M  V30 1275 N 113.814 -1.1601 1.06675 0
M  V30 1276 C 114.724 -2.24156 0.692179 0
M  V30 1277 C 115.74 -1.71507 -0.293513 0
M  V30 1278 O 116.916 -2.009 -0.141861 0
M  V30 1279 C 113.981 -3.46587 0.0884131 0
M  V30 1280 C 113.042 -4.14257 1.12646 0
M  V30 1281 C 112.275 -5.30844 0.551416 0
M  V30 1282 O 112.498 -5.66858 -0.634656 0
M  V30 1283 O 111.432 -5.87848 1.29298 0
M  V30 1284 H 115.258 -2.58513 1.59388 0
M  V30 1285 H 112.843 -1.23599 0.83926 0
M  V30 1286 H 114.725 -4.20679 -0.246361 0
M  V30 1287 H 113.4 -3.13994 -0.786712 0
M  V30 1288 H 112.307 -3.42118 1.51348 0
M  V30 1289 H 113.64 -4.50914 1.97325 0
M  V30 1290 N 115.292 -0.849877 -1.32721 0
M  V30 1291 C 116.225 -0.235903 -2.26977 0
M  V30 1292 C 117.203 0.623355 -1.50177 0
M  V30 1293 O 118.387 0.581207 -1.79316 0
M  V30 1294 C 115.514 0.667712 -3.32053 0
M  V30 1295 C 114.56 -0.11753 -4.26338 0
M  V30 1296 S 115.393 -1.48277 -5.14562 0
M  V30 1297 C 116.549 -0.584741 -6.23163 0
M  V30 1298 H 116.782 -1.03495 -2.78704 0
M  V30 1299 H 114.315 -0.64724 -1.40179 0
M  V30 1300 H 116.273 1.18343 -3.93072 0
M  V30 1301 H 114.934 1.44052 -2.7912 0
M  V30 1302 H 114.127 0.57051 -5.00761 0
M  V30 1303 H 113.729 -0.564668 -3.69713 0
M  V30 1304 H 116.021 0.212968 -6.77165 0
M  V30 1305 H 116.964 -1.29947 -6.96074 0
M  V30 1306 H 117.372 -0.161202 -5.6427 0
M  V30 1307 N 116.77 1.45427 -0.607355 0
M  V30 1308 C 118 2.06314 -0.108656 0
M  V30 1309 C 118.408 1.45269 1.21217 0
M  V30 1310 O 117.751 0.561115 1.74921 0
M  V30 1311 C 117.813 3.59345 0.105618 0
M  V30 1312 C 117.477 4.42723 -1.13337 0
M  V30 1313 C 118.474 4.77715 -2.05145 0
M  V30 1314 C 116.159 4.83478 -1.36213 0
M  V30 1315 C 118.153 5.52317 -3.18158 0
M  V30 1316 C 115.84 5.57835 -2.49527 0
M  V30 1317 C 116.838 5.92171 -3.40327 0
M  V30 1318 O 116.526 6.65019 -4.51669 0
M  V30 1319 H 116.258 0.672782 -0.0658842 0
M  V30 1320 H 118.812 1.87664 -0.834945 0
M  V30 1321 H 117.042 3.76394 0.886796 0
M  V30 1322 H 118.731 4.02076 0.555886 0
M  V30 1323 H 119.497 4.46787 -1.88697 0
M  V30 1324 H 115.376 4.56188 -0.664362 0
M  V30 1325 H 118.92 5.79036 -3.89054 0
M  V30 1326 H 114.817 5.88177 -2.65928 0
M  V30 1327 H 115.585 6.83469 -4.50348 0
M  V30 1328 N 118.248 0.346503 1.53744 0
M  V30 1329 C 119.495 -0.249104 2.00962 0
M  V30 1330 C 119.823 -1.5032 1.23426 0
M  V30 1331 O 119.078 -1.93217 0.310761 0
M  V30 1332 C 119.377 -0.605809 3.52228 0
M  V30 1333 C 119.043 0.551747 4.47512 0
M  V30 1334 C 117.705 0.86941 4.73281 0
M  V30 1335 C 120.057 1.32818 5.03993 0
M  V30 1336 C 117.385 1.96582 5.52786 0
M  V30 1337 C 119.737 2.41486 5.84694 0
M  V30 1338 C 118.401 2.73808 6.08757 0
M  V30 1339 H 117.671 -0.0911538 0.735372 0
M  V30 1340 H 120.318 0.475027 1.85515 0
M  V30 1341 H 118.623 -1.4107 3.65522 0
M  V30 1342 H 120.32 -1.07858 3.86222 0
M  V30 1343 H 116.91 0.294102 4.2759 0
M  V30 1344 H 121.094 1.09602 4.84047 0
M  V30 1345 H 116.35 2.22045 5.69654 0
M  V30 1346 H 120.524 3.02078 6.27473 0
M  V30 1347 H 118.151 3.58892 6.7015 0
M  V30 1348 N 119.726 -1.57421 0.075193 0
M  V30 1349 C 120.656 -2.15942 -0.888324 0
M  V30 1350 C 121.637 -1.08737 -1.30806 0
M  V30 1351 O 122.822 -1.36787 -1.37851 0
M  V30 1352 C 119.952 -2.72379 -2.1547 0
M  V30 1353 C 118.906 -3.8478 -1.87425 0
M  V30 1354 C 118.232 -4.27834 -3.20721 0
M  V30 1355 C 119.532 -5.08869 -1.17684 0
M  V30 1356 H 121.226 -2.96705 -0.400799 0
M  V30 1357 H 118.772 -1.42723 -0.191342 0
M  V30 1358 H 120.725 -3.11965 -2.83295 0
M  V30 1359 H 119.449 -1.88841 -2.6647 0
M  V30 1360 H 118.108 -3.45703 -1.22004 0
M  V30 1361 H 117.756 -3.41214 -3.6957 0
M  V30 1362 H 117.456 -5.03605 -3.02746 0
M  V30 1363 H 118.98 -4.70039 -3.89738 0
M  V30 1364 H 120.394 -5.4575 -1.75584 0
M  V30 1365 H 118.791 -5.8994 -1.09956 0
M  V30 1366 H 119.861 -4.84648 -0.156453 0
M  V30 1367 N 121.204 0.198386 -1.56346 0
M  V30 1368 C 122.152 1.26538 -1.95169 0
M  V30 1369 C 123.146 1.47295 -0.836685 0
M  V30 1370 O 124.352 1.48195 -1.02167 0
M  V30 1371 H 120.727 0.424744 -0.620561 0
M  V30 1372 H 122.698 0.910904 -2.84157 0
M  V30 1373 C 121.447 2.6035 -2.30463 0
M  V30 1374 H 120.77 2.45192 -3.15786 0
M  V30 1375 H 122.21 3.33762 -2.61494 0
M  V30 1376 C 120.669 3.17096 -1.13806 0
M  V30 1377 O 121.199 3.99588 -0.41135 0
M  V30 1378 N 119.405 2.75795 -0.915736 0
M  V30 1379 H 118.952 2.08816 -1.50843 0
M  V30 1380 H 118.91 3.14101 -0.136979 0
M  V30 1381 N 122.682 1.50554 0.465978 0
M  V30 1382 C 123.959 1.5232 1.22712 0
M  V30 1383 C 124.339 0.270807 2.09356 0
M  V30 1384 O 123.687 -0.745541 2.15995 0
M  V30 1385 C 123.897 2.82175 2.05374 0
M  V30 1386 C 125.245 3.33033 2.6339 0
M  V30 1387 O 126.269 2.83531 2.15612 0
M  V30 1388 O 125.128 4.19336 3.50456 0
M  V30 1389 H 122.222 0.611183 0.557122 0
M  V30 1390 H 124.768 1.62847 0.477381 0
M  V30 1391 H 123.54 3.64797 1.41558 0
M  V30 1392 H 123.163 2.74675 2.87471 0
M  V30 1393 N 124.16 -0.719506 1.40217 0
M  V30 1394 C 125.388 -1.50864 1.41589 0
M  V30 1395 C 125.803 -1.88794 0.0145275 0
M  V30 1396 O 125.16 -1.55174 -0.960594 0
M  V30 1397 C 125.211 -2.78646 2.30302 0
M  V30 1398 O 124.932 -2.42321 3.64983 0
M  V30 1399 C 126.433 -3.72569 2.40224 0
M  V30 1400 H 123.653 -0.465709 0.48307 0
M  V30 1401 H 126.197 -0.88785 1.84221 0
M  V30 1402 H 124.352 -3.37019 1.91042 0
M  V30 1403 H 124.766 -3.24514 4.12057 0
M  V30 1404 H 126.24 -4.5908 3.06512 0
M  V30 1405 H 126.717 -4.15403 1.42608 0
M  V30 1406 H 127.323 -3.20109 2.80019 0
M  V30 1407 N 125.638 -1.25649 -0.95132 0
M  V30 1408 C 126.568 -1.08808 -2.06599 0
M  V30 1409 C 127.549 0.00382547 -1.701 0
M  V30 1410 O 128.734 -0.166325 -1.93486 0
M  V30 1411 C 125.864 -0.709542 -3.39975 0
M  V30 1412 C 124.818 -1.75206 -3.90496 0
M  V30 1413 C 124.144 -1.22811 -5.20405 0
M  V30 1414 C 125.444 -3.15153 -4.16504 0
M  V30 1415 H 127.138 -2.02048 -2.20946 0
M  V30 1416 H 124.684 -0.972835 -1.06169 0
M  V30 1417 H 126.637 -0.578649 -4.17408 0
M  V30 1418 H 125.361 0.258556 -3.25575 0
M  V30 1419 H 124.02 -1.87145 -3.15234 0
M  V30 1420 H 123.668 -0.250145 -5.02378 0
M  V30 1421 H 123.368 -1.92492 -5.55176 0
M  V30 1422 H 124.892 -1.10968 -6.00432 0
M  V30 1423 H 126.306 -3.06349 -4.84586 0
M  V30 1424 H 124.703 -3.82333 -4.62538 0
M  V30 1425 H 125.773 -3.61966 -3.22658 0
M  V30 1426 N 127.117 1.15442 -1.07289 0
M  V30 1427 C 128.08 2.18358 -0.696591 0
M  V30 1428 C 129.08 1.58637 0.262837 0
M  V30 1429 O 130.27 1.74145 0.0438809 0
M  V30 1430 C 127.402 3.4089 -0.0266151 0
M  V30 1431 H 128.595 2.53162 -1.60776 0
M  V30 1432 H 126.148 1.29893 -0.869342 0
M  V30 1433 H 126.883 3.11653 0.896822 0
M  V30 1434 H 126.668 3.85495 -0.716657 0
M  V30 1435 H 128.158 4.17009 0.222028 0
M  V30 1436 N 128.595 0.856903 1.32268 0
M  V30 1437 C 129.558 0.308171 2.27119 0
M  V30 1438 C 130.558 -0.533421 1.51695 0
M  V30 1439 O 131.748 -0.344607 1.70757 0
M  V30 1440 C 128.88 -0.563757 3.36206 0
M  V30 1441 H 130.073 1.14535 2.77167 0
M  V30 1442 H 127.626 0.631421 1.42978 0
M  V30 1443 H 128.361 -1.42266 2.91429 0
M  V30 1444 H 128.146 0.0386749 3.92081 0
M  V30 1445 H 129.636 -0.940386 4.06874 0
M  V30 1446 N 130.073 -1.45103 0.615059 0
M  V30 1447 C 130.983 -2.34382 -0.101034 0
M  V30 1448 C 131.999 -1.51681 -0.852585 0
M  V30 1449 O 133.175 -1.8446 -0.808484 0
M  V30 1450 C 130.24 -3.29417 -1.08099 0
M  V30 1451 C 129.301 -4.28025 -0.330577 0
M  V30 1452 C 128.534 -5.1852 -1.26385 0
M  V30 1453 O 128.757 -5.12598 -2.50198 0
M  V30 1454 O 127.691 -5.97122 -0.756866 0
M  V30 1455 H 131.517 -2.97033 0.632855 0
M  V30 1456 H 129.102 -1.4461 0.375293 0
M  V30 1457 H 130.984 -3.87958 -1.6452 0
M  V30 1458 H 129.659 -2.69321 -1.79577 0
M  V30 1459 H 128.566 -3.73078 0.276283 0
M  V30 1460 H 129.899 -4.90997 0.343866 0
M  V30 1461 N 131.551 -0.354651 -1.53558 0
M  V30 1462 C 132.828 0.294281 -1.93374 0
M  V30 1463 C 133.208 1.67313 -1.28723 0
M  V30 1464 O 132.556 2.24179 -0.442247 0
M  V30 1465 C 132.766 0.355445 -3.47185 0
M  V30 1466 C 134.114 0.601007 -4.20325 0
M  V30 1467 O 135.138 0.437106 -3.53508 0
M  V30 1468 O 133.997 0.919322 -5.38712 0
M  V30 1469 H 131.091 0.174033 -0.808481 0
M  V30 1470 H 133.637 -0.406638 -1.64756 0
M  V30 1471 H 132.409 -0.611729 -3.86489 0
M  V30 1472 H 132.032 1.1027 -3.82003 0
M  V30 1473 N 133.029 1.57378 -0.0835403 0
M  V30 1474 C 134.254 1.98682 0.594987 0
M  V30 1475 C 134.679 0.961969 1.61641 0
M  V30 1476 O 134.037 -0.0709989 1.81161 0
M  V30 1477 C 134.085 3.38988 1.2296 0
M  V30 1478 O 133.189 3.39208 2.34546 0
M  V30 1479 H 132.53 0.646368 0.152002 0
M  V30 1480 H 135.06 2.03961 -0.161533 0
M  V30 1481 H 135.07 3.76431 1.57366 0
M  V30 1482 H 133.745 4.13107 0.481228 0
M  V30 1483 H 132.322 3.13548 2.01846 0
M  V30 1484 N 134.507 -0.190092 1.56449 0
M  V30 1485 C 135.918 -0.754312 1.70784 0
M  V30 1486 C 136.269 -1.83631 0.690951 0
M  V30 1487 O 135.394 -2.15868 -0.151604 0
M  V30 1488 C 135.989 -1.37503 3.09642 0
M  V30 1489 C 134.548 -1.88628 3.25725 0
M  V30 1490 C 133.695 -0.758098 2.66736 0
M  V30 1491 H 136.646 0.0350524 1.58661 0
M  V30 1492 H 136.667 -2.2445 3.0725 0
M  V30 1493 H 136.179 -0.587302 3.83631 0
M  V30 1494 H 134.28 -2.70103 2.56661 0
M  V30 1495 H 134.393 -2.04462 4.3328 0
M  V30 1496 H 132.757 -1.17369 2.26046 0
M  V30 1497 H 133.54 0.0174705 3.43296 0
M  V30 1498 N 135.985 -1.50799 -0.457987 0
M  V30 1499 C 137.21 -1.66496 -1.23668 0
M  V30 1500 C 137.635 -0.353288 -1.84752 0
M  V30 1501 O 136.993 0.684346 -1.67888 0
M  V30 1502 C 137.041 -2.76763 -2.3116 0
M  V30 1503 O 136.145 -2.38928 -3.36136 0
M  V30 1504 H 135.486 -0.555828 -0.363252 0
M  V30 1505 H 138.016 -1.9725 -0.543474 0
M  V30 1506 H 138.026 -3.00232 -2.76269 0
M  V30 1507 H 136.701 -3.71954 -1.86073 0
M  V30 1508 H 135.278 -2.25953 -2.96647 0
M  V30 1509 N 137.463 0.71206 -1.40597 0
M  V30 1510 C 138.71 1.47197 -1.39065 0
M  V30 1511 C 139.038 1.94499 0.00583891 0
M  V30 1512 O 138.293 1.68752 0.99102 0
M  V30 1513 C 138.592 2.71039 -2.32965 0
M  V30 1514 C 138.258 2.42484 -3.80148 0
M  V30 1515 C 136.92 2.34406 -4.20247 0
M  V30 1516 C 139.272 2.18598 -4.73143 0
M  V30 1517 C 136.6 2.00516 -5.51371 0
M  V30 1518 C 138.952 1.8622 -6.0457 0
M  V30 1519 C 137.616 1.76626 -6.43708 0
M  V30 1520 H 136.886 0.538634 -0.508876 0
M  V30 1521 H 139.533 0.815325 -1.73276 0
M  V30 1522 H 137.838 3.41558 -1.91951 0
M  V30 1523 H 139.535 3.29138 -2.29061 0
M  V30 1524 H 136.125 2.49659 -3.4838 0
M  V30 1525 H 140.309 2.23793 -4.42979 0
M  V30 1526 H 135.565 1.91628 -5.80593 0
M  V30 1527 H 139.739 1.66752 -6.76141 0
M  V30 1528 H 137.366 1.50133 -7.45228 0
M  V30 1529 N 138.941 1.26152 0.944643 0
M  V30 1530 C 140.166 1.14363 1.7302 0
M  V30 1531 C 140.591 -0.29772 1.85729 0
M  V30 1532 O 139.949 -1.2157 1.34501 0
M  V30 1533 C 139.997 1.81378 3.11664 0
M  V30 1534 O 139.101 1.10022 3.97453 0
M  V30 1535 H 138.442 0.398694 0.53098 0
M  V30 1536 H 140.972 1.66906 1.18337 0
M  V30 1537 H 140.982 1.88064 3.62072 0
M  V30 1538 H 139.657 2.86237 3.0173 0
M  V30 1539 H 138.234 1.11287 3.55907 0
M  V30 1540 N 140.419 -1.14872 1.07899 0
M  V30 1541 C 141.349 -2.2193 0.725887 0
M  V30 1542 C 142.33 -1.67622 -0.28927 0
M  V30 1543 O 143.515 -1.93533 -0.160787 0
M  V30 1544 C 140.645 -3.47061 0.128856 0
M  V30 1545 C 139.599 -4.14363 1.07178 0
M  V30 1546 C 138.925 -5.33636 0.337229 0
M  V30 1547 C 140.225 -4.63492 2.40775 0
M  V30 1548 H 141.919 -2.51724 1.62097 0
M  V30 1549 H 139.465 -1.20991 0.780838 0
M  V30 1550 H 141.418 -4.21199 -0.130147 0
M  V30 1551 H 140.142 -3.16617 -0.80134 0
M  V30 1552 H 138.801 -3.42173 1.3158 0
M  V30 1553 H 138.449 -4.99449 -0.596606 0
M  V30 1554 H 138.149 -5.79609 0.965788 0
M  V30 1555 H 139.673 -6.10539 0.0861567 0
M  V30 1556 H 141.087 -5.2913 2.20669 0
M  V30 1557 H 139.484 -5.20148 2.99276 0
M  V30 1558 H 140.554 -3.78834 3.02676 0
M  V30 1559 N 141.898 -0.863906 -1.31812 0
M  V30 1560 C 142.828 -0.330843 -2.31144 0
M  V30 1561 C 143.809 0.575005 -1.60087 0
M  V30 1562 O 144.994 0.493304 -1.8783 0
M  V30 1563 C 142.124 0.47374 -3.44054 0
M  V30 1564 C 141.078 -0.338481 -4.26659 0
M  V30 1565 C 140.404 0.591412 -5.31419 0
M  V30 1566 C 141.704 -1.56926 -4.98168 0
M  V30 1567 H 143.398 -1.16086 -2.75979 0
M  V30 1568 H 140.944 -0.559657 -1.32679 0
M  V30 1569 H 142.897 0.857143 -4.12591 0
M  V30 1570 H 141.621 1.33721 -2.9797 0
M  V30 1571 H 140.28 -0.703754 -3.59782 0
M  V30 1572 H 139.928 1.45199 -4.81587 0
M  V30 1573 H 139.628 0.0519022 -5.87577 0
M  V30 1574 H 141.152 0.97179 -6.02817 0
M  V30 1575 H 142.566 -1.25764 -5.59336 0
M  V30 1576 H 140.963 -2.04739 -5.64094 0
M  V30 1577 H 142.033 -2.32544 -4.25501 0
M  V30 1578 N 143.376 1.44774 -0.622745 0
M  V30 1579 C 144.308 2.28856 0.125485 0
M  V30 1580 C 145.321 1.40811 0.817069 0
M  V30 1581 O 146.51 1.65044 0.679918 0
M  V30 1582 C 143.61 3.16963 1.19949 0
M  V30 1583 C 142.783 4.33374 0.592064 0
M  V30 1584 C 141.842 5.02577 1.55893 0
M  V30 1585 O 140.868 5.58873 1.07933 0
M  V30 1586 N 142.07 5.03256 2.89334 0
M  V30 1587 H 144.835 2.93713 -0.596068 0
M  V30 1588 H 142.396 1.55129 -0.463303 0
M  V30 1589 H 144.388 3.60123 1.84644 0
M  V30 1590 H 142.958 2.53913 1.82337 0
M  V30 1591 H 142.178 3.93509 -0.233322 0
M  V30 1592 H 143.466 5.08527 0.166738 0
M  V30 1593 H 142.864 4.58836 3.30887 0
M  V30 1594 H 141.421 5.50232 3.49412 0
M  V30 1595 N 144.854 0.36279 1.53368 0
M  V30 1596 C 146.079 -0.231226 2.06107 0
M  V30 1597 C 146.504 -1.419 1.23474 0
M  V30 1598 O 145.862 -1.79524 0.253128 0
M  V30 1599 C 145.91 -0.605523 3.5548 0
M  V30 1600 O 145.014 -1.70312 3.7559 0
M  V30 1601 H 144.355 -0.034327 0.663112 0
M  V30 1602 H 146.885 0.522584 1.97814 0
M  V30 1603 H 146.895 -0.877314 3.98456 0
M  V30 1604 H 145.57 0.263004 4.15068 0
M  V30 1605 H 144.147 -1.4271 3.44512 0
M  V30 1606 N 146.332 -1.57332 0.0918853 0
M  V30 1607 C 147.295 -2.12708 -0.85369 0
M  V30 1608 C 148.295 -1.05561 -1.213 0
M  V30 1609 O 149.485 -1.31461 -1.14296 0
M  V30 1610 C 146.617 -2.64503 -2.15061 0
M  V30 1611 H 147.81 -2.97573 -0.3729 0
M  V30 1612 H 145.363 -1.55509 -0.157072 0
M  V30 1613 H 146.098 -1.83149 -2.67632 0
M  V30 1614 H 145.883 -3.4284 -1.90272 0
M  V30 1615 H 147.373 -3.07351 -2.82711 0
M  V30 1616 N 147.81 0.181792 -1.56548 0
M  V30 1617 C 148.76 1.22961 -1.92002 0
M  V30 1618 C 149.744 1.40331 -0.787146 0
M  V30 1619 O 150.936 1.42478 -1.05019 0
M  V30 1620 C 148.065 2.57144 -2.27446 0
M  V30 1621 C 147.151 2.43512 -3.47222 0
M  V30 1622 N 147.542 1.99577 -4.64761 0
M  V30 1623 C 145.84 2.74368 -3.51622 0
M  V30 1624 C 146.541 1.98156 -5.46909 0
M  V30 1625 N 145.517 2.40164 -4.8767 0
M  V30 1626 H 149.319 0.881462 -2.8037 0
M  V30 1627 H 146.833 0.390141 -1.57644 0
M  V30 1628 H 148.83 3.32847 -2.51035 0
M  V30 1629 H 147.49 2.92771 -1.40411 0
M  V30 1630 H 148.501 1.70078 -4.89177 0
M  V30 1631 H 145.178 3.14102 -2.75038 0
M  V30 1632 H 146.568 1.65975 -6.51077 0
M  V30 1633 N 149.288 1.51039 0.449983 0
M  V30 1634 C 150.699 1.557 1.03026 0
M  V30 1635 C 151.05 0.372939 1.92623 0
M  V30 1636 O 150.175 -0.511771 2.10261 0
M  V30 1637 C 150.77 2.82171 1.87523 0
M  V30 1638 C 149.329 2.89444 2.40622 0
M  V30 1639 C 148.476 2.50228 1.19504 0
M  V30 1640 H 151.427 1.56999 0.231745 0
M  V30 1641 H 151.448 2.65219 2.72835 0
M  V30 1642 H 150.96 3.68331 1.22286 0
M  V30 1643 H 149.061 2.07685 3.0935 0
M  V30 1644 H 149.174 3.92816 2.74285 0
M  V30 1645 H 147.538 2.03139 1.53644 0
M  V30 1646 H 148.321 3.38719 0.558972 0
M  V30 1647 N 150.766 -0.704594 1.40972 0
M  V30 1648 C 152.014 -1.46169 1.39568 0
M  V30 1649 C 152.335 -1.95 0.00253745 0
M  V30 1650 O 151.605 -1.71095 -0.954114 0
M  V30 1651 H 150.185 -0.542326 0.513704 0
M  V30 1652 H 152.847 -0.834553 1.76128 0
M  V30 1653 H 151.943 -2.32922 2.07735 0
M  V30 1654 N 152.244 -1.26651 -0.937939 0
M  V30 1655 C 153.154 -1.10276 -2.07066 0
M  V30 1656 C 154.17 -0.0354197 -1.73964 0
M  V30 1657 O 155.346 -0.239816 -1.99967 0
M  V30 1658 C 152.411 -0.740887 -3.38691 0
M  V30 1659 C 151.472 -1.88799 -3.85556 0
M  V30 1660 C 150.705 -1.54329 -5.10899 0
M  V30 1661 O 150.928 -0.446494 -5.6865 0
M  V30 1662 O 149.862 -2.37911 -5.52885 0
M  V30 1663 H 153.688 -2.05309 -2.23789 0
M  V30 1664 H 151.273 -1.05743 -1.0554 0
M  V30 1665 H 153.155 -0.55195 -4.1777 0
M  V30 1666 H 151.83 0.180022 -3.23199 0
M  V30 1667 H 150.737 -2.13191 -3.07409 0
M  V30 1668 H 152.07 -2.78874 -4.05574 0
M  V30 1669 N 153.722 1.14298 -1.08507 0
M  V30 1670 C 154.672 2.17449 -0.685569 0
M  V30 1671 C 155.656 1.58167 0.295315 0
M  V30 1672 O 156.848 1.76675 0.107172 0
M  V30 1673 C 153.977 3.43161 -0.0975318 0
M  V30 1674 C 153.063 4.09471 -1.10426 0
M  V30 1675 N 153.454 4.51089 -2.28806 0
M  V30 1676 C 151.752 4.35976 -0.940258 0
M  V30 1677 C 152.453 5.02654 -2.9277 0
M  V30 1678 N 151.429 4.96927 -2.20374 0
M  V30 1679 H 155.231 2.47369 -1.587 0
M  V30 1680 H 152.745 1.30992 -0.959936 0
M  V30 1681 H 154.742 4.16388 0.20664 0
M  V30 1682 H 153.402 3.14719 0.798872 0
M  V30 1683 H 154.413 4.44097 -2.66455 0
M  V30 1684 H 151.09 4.17386 -0.0977441 0
M  V30 1685 H 152.48 5.44723 -3.93352 0
M  V30 1686 N 155.201 0.870884 1.31352 0
M  V30 1687 C 156.131 0.343096 2.30966 0
M  V30 1688 C 157.112 -0.566507 1.60389 0
M  V30 1689 O 158.297 -0.483336 1.88089 0
M  V30 1690 C 155.427 -0.455487 3.443 0
M  V30 1691 C 154.381 0.361103 4.26474 0
M  V30 1692 C 153.707 -0.563221 5.31725 0
M  V30 1693 C 155.007 1.59566 4.97329 0
M  V30 1694 H 156.701 1.17548 2.75359 0
M  V30 1695 H 154.247 0.566686 1.32381 0
M  V30 1696 H 156.2 -0.83525 4.13039 0
M  V30 1697 H 154.924 -1.32139 2.98675 0
M  V30 1698 H 153.583 0.722825 3.59403 0
M  V30 1699 H 153.231 -1.42643 4.82351 0
M  V30 1700 H 152.931 -0.0207409 5.87596 0
M  V30 1701 H 154.455 -0.939808 6.03324 0
M  V30 1702 H 155.869 1.28728 5.58661 0
M  V30 1703 H 154.266 2.07728 5.63 0
M  V30 1704 H 155.336 2.34798 4.24262 0
M  V30 1705 N 156.679 -1.44442 0.630414 0
M  V30 1706 C 157.642 -2.29107 -0.0652523 0
M  V30 1707 C 158.642 -1.41002 -0.772995 0
M  V30 1708 O 159.832 -1.62881 -0.617692 0
M  V30 1709 C 156.964 -3.22564 -1.10296 0
M  V30 1710 H 158.157 -2.92103 0.679401 0
M  V30 1711 H 155.71 -1.51343 0.390517 0
M  V30 1712 H 156.445 -2.64416 -1.87762 0
M  V30 1713 H 156.23 -3.87491 -0.59941 0
M  V30 1714 H 157.72 -3.86167 -1.5895 0
M  V30 1715 N 158.157 -0.370918 -1.53173 0
M  V30 1716 C 159.089 0.507823 -2.23503 0
M  V30 1717 C 160.102 1.04182 -1.251 0
M  V30 1718 O 161.291 0.947286 -1.5129 0
M  V30 1719 C 158.391 1.71447 -2.92334 0
M  V30 1720 C 157.564 1.31105 -4.17289 0
M  V30 1721 C 156.623 2.38035 -4.69282 0
M  V30 1722 O 155.649 2.00204 -5.32829 0
M  V30 1723 N 156.851 3.69697 -4.47554 0
M  V30 1724 H 159.616 -0.0946382 -2.99551 0
M  V30 1725 H 157.177 -0.196358 -1.60705 0
M  V30 1726 H 159.169 2.42469 -3.24023 0
M  V30 1727 H 157.739 2.22368 -2.19707 0
M  V30 1728 H 156.959 0.430462 -3.91843 0
M  V30 1729 H 158.247 1.0179 -4.98514 0
M  V30 1730 H 157.645 4.03205 -3.9679 0
M  V30 1731 H 156.202 4.36807 -4.8378 0
M  V30 1732 N 159.635 1.57281 -0.100228 0
M  V30 1733 C 160.883 1.94153 0.561157 0
M  V30 1734 C 161.204 0.983157 1.68401 0
M  V30 1735 O 160.474 0.0361132 1.95867 0
M  V30 1736 H 159.054 0.716791 0.210283 0
M  V30 1737 H 161.716 1.94202 -0.164765 0
M  V30 1738 H 160.812 2.96709 0.968008 0
M  V30 1739 N 161.113 -0.173488 1.56642 0
M  V30 1740 C 162.076 -1.19859 1.95362 0
M  V30 1741 C 163.076 -1.37296 0.83704 0
M  V30 1742 O 164.266 -1.34739 1.10413 0
M  V30 1743 C 161.398 -2.56405 2.24654 0
M  V30 1744 H 162.591 -0.867062 2.87092 0
M  V30 1745 H 160.144 -0.415853 1.50666 0
M  V30 1746 H 160.879 -2.94576 1.35631 0
M  V30 1747 H 160.664 -2.45115 3.06041 0
M  V30 1748 H 162.154 -3.30287 2.5554 0
M  V30 1749 N 162.591 -1.51276 -0.441967 0
M  V30 1750 C 163.816 -1.67799 -1.21895 0
M  V30 1751 C 164.241 -0.372864 -1.84367 0
M  V30 1752 O 163.599 0.666501 -1.68604 0
M  V30 1753 C 163.647 -2.79199 -2.28211 0
M  V30 1754 O 162.751 -2.42479 -3.33583 0
M  V30 1755 H 162.092 -0.559649 -0.357336 0
M  V30 1756 H 164.622 -1.97815 -0.522522 0
M  V30 1757 H 164.632 -3.03146 -2.73069 0
M  V30 1758 H 163.307 -3.73906 -1.82118 0
M  V30 1759 H 161.884 -2.29087 -2.94234 0
M  V30 1760 N 164.069 0.697108 -1.41344 0
M  V30 1761 C 165.485 1.00751 -1.2378 0
M  V30 1762 C 165.685 2.01105 -0.126066 0
M  V30 1763 O 164.741 2.47295 0.51004 0
M  V30 1764 C 166.054 1.53359 -2.58653 0
M  V30 1765 C 167.602 1.6525 -2.65822 0
M  V30 1766 C 168.077 2.2126 -4.01009 0
M  V30 1767 N 169.568 2.28622 -4.02847 0
M  V30 1768 C 170.303 2.72984 -5.04249 0
M  V30 1769 N 169.799 3.16962 -6.16041 0
M  V30 1770 N 171.592 2.72534 -4.91611 0
M  V30 1771 H 163.743 0.0322662 -2.12375 0
M  V30 1772 H 166.006 0.0768853 -0.944877 0
M  V30 1773 H 165.712 0.870773 -3.4075 0
M  V30 1774 H 165.586 2.51597 -2.81032 0
M  V30 1775 H 167.973 2.30644 -1.84086 0
M  V30 1776 H 168.054 0.655614 -2.47256 0
M  V30 1777 H 167.698 1.56482 -4.83193 0
M  V30 1778 H 167.628 3.21698 -4.16915 0
M  V30 1779 H 170.119 1.97585 -3.22131 0
M  V30 1780 H 170.432 3.49434 -6.89287 0
M  V30 1781 H 168.777 3.14875 -6.1958 0
M  V30 1782 H 171.968 2.37525 -4.0336 0
M  V30 1783 H 172.141 3.06789 -5.70775 0
M  V30 1784 N 165.547 1.27147 0.931209 0
M  V30 1785 C 166.477 1.12081 2.04842 0
M  V30 1786 C 167.458 0.0232364 1.70084 0
M  V30 1787 O 168.643 0.197085 1.93197 0
M  V30 1788 C 165.773 0.76354 3.38803 0
M  V30 1789 C 164.727 1.81396 3.87659 0
M  V30 1790 C 164.053 1.31075 5.18385 0
M  V30 1791 C 165.353 3.21739 4.11438 0
M  V30 1792 H 167.047 2.05537 2.17703 0
M  V30 1793 H 164.593 0.989603 1.04608 0
M  V30 1794 H 166.546 0.644982 4.16435 0
M  V30 1795 H 165.27 -0.206727 3.25945 0
M  V30 1796 H 163.929 1.92136 3.12217 0
M  V30 1797 H 163.577 0.330037 5.01916 0
M  V30 1798 H 163.277 2.013 5.52044 0
M  V30 1799 H 164.801 1.20506 5.98591 0
M  V30 1800 H 166.215 3.14019 4.79651 0
M  V30 1801 H 164.612 3.89644 4.56397 0
M  V30 1802 H 165.682 3.67054 3.16859 0
M  V30 1803 N 167.025 -1.13721 1.09112 0
M  V30 1804 C 167.957 -2.1871 0.685467 0
M  V30 1805 C 168.97 -1.60527 -0.271068 0
M  V30 1806 O 170.159 -1.78407 -0.0576148 0
M  V30 1807 C 167.259 -3.38898 -0.0111255 0
M  V30 1808 C 166.432 -4.26597 0.966131 0
M  V30 1809 C 165.491 -5.25324 0.303539 0
M  V30 1810 O 164.517 -5.61213 0.950177 0
M  V30 1811 N 165.719 -5.72779 -0.943651 0
M  V30 1812 H 168.484 -2.54126 1.58871 0
M  V30 1813 H 166.045 -1.29012 0.978143 0
M  V30 1814 H 168.037 -4.02014 -0.465517 0
M  V30 1815 H 166.607 -3.01747 -0.816565 0
M  V30 1816 H 165.827 -3.60306 1.59917 0
M  V30 1817 H 167.115 -4.82048 1.6281 0
M  V30 1818 H 166.513 -5.45762 -1.48862 0
M  V30 1819 H 165.07 -6.37847 -1.34142 0
M  V30 1820 N 168.503 -0.877838 -1.30888 0
M  V30 1821 C 169.749 -0.493426 -1.96706 0
M  V30 1822 C 170.082 0.953504 -1.6918 0
M  V30 1823 O 169.357 1.67266 -0.992594 0
M  V30 1824 C 169.64 -0.760429 -3.51979 0
M  V30 1825 C 169.493 -2.25747 -3.89048 0
M  V30 1826 C 170.812 -0.232148 -4.39487 0
M  V30 1827 H 167.931 -0.180746 -0.714493 0
M  V30 1828 H 170.573 -1.10052 -1.54882 0
M  V30 1829 H 168.723 -0.243715 -3.87735 0
M  V30 1830 H 170.395 -2.84204 -3.63354 0
M  V30 1831 H 168.638 -2.72694 -3.37373 0
M  V30 1832 H 169.309 -2.39491 -4.97341 0
M  V30 1833 H 171.785 -0.674314 -4.106 0
M  V30 1834 H 170.661 -0.448355 -5.47066 0
M  V30 1835 H 170.922 0.866297 -4.33529 0
M  V30 1836 N 169.982 1.44106 -0.638065 0
M  V30 1837 C 170.912 2.33448 0.0494287 0
M  V30 1838 C 171.893 1.48606 0.827672 0
M  V30 1839 O 173.078 1.77308 0.792173 0
M  V30 1840 C 170.208 3.31771 1.02691 0
M  V30 1841 C 169.162 4.26485 0.359823 0
M  V30 1842 C 168.488 5.14729 1.44769 0
M  V30 1843 C 169.788 5.17056 -0.738296 0
M  V30 1844 H 171.482 2.91183 -0.696636 0
M  V30 1845 H 169.028 1.40014 -0.336456 0
M  V30 1846 H 170.981 3.93161 1.51666 0
M  V30 1847 H 169.705 2.7226 1.80395 0
M  V30 1848 H 168.364 3.66437 -0.10934 0
M  V30 1849 H 168.012 4.51566 2.21578 0
M  V30 1850 H 167.712 5.78913 1.00668 0
M  V30 1851 H 169.236 5.78991 1.93911 0
M  V30 1852 H 170.65 5.72342 -0.331354 0
M  V30 1853 H 169.047 5.89879 -1.10286 0
M  V30 1854 H 170.117 4.57652 -1.60258 0
M  V30 1855 N 171.46 0.379036 1.52974 0
M  V30 1856 C 172.392 -0.495963 2.2377 0
M  V30 1857 C 173.405 -1.03517 1.25651 0
M  V30 1858 O 174.594 -0.939249 1.51791 0
M  V30 1859 C 171.694 -1.69894 2.93239 0
M  V30 1860 C 170.867 -1.2889 4.17979 0
M  V30 1861 C 169.926 -2.35543 4.70538 0
M  V30 1862 O 168.952 -1.97375 5.33883 0
M  V30 1863 N 170.154 -3.67318 4.49508 0
M  V30 1864 H 172.919 0.110523 2.99496 0
M  V30 1865 H 170.48 0.204878 1.60598 0
M  V30 1866 H 172.472 -2.40747 3.25304 0
M  V30 1867 H 171.042 -2.212 2.20883 0
M  V30 1868 H 170.262 -0.409676 3.92065 0
M  V30 1869 H 171.55 -0.991443 4.99047 0
M  V30 1870 H 170.948 -4.01095 3.98923 0
M  V30 1871 H 169.505 -4.34235 4.8609 0
M  V30 1872 N 172.938 -1.57226 0.108567 0
M  V30 1873 C 173.901 -2.13602 -0.831082 0
M  V30 1874 C 174.901 -1.06841 -1.20173 0
M  V30 1875 O 176.091 -1.32666 -1.12895 0
M  V30 1876 C 173.223 -2.66769 -2.12243 0
M  V30 1877 H 174.416 -2.97951 -0.341317 0
M  V30 1878 H 171.969 -1.55667 -0.14057 0
M  V30 1879 H 172.704 -1.85977 -2.65675 0
M  V30 1880 H 172.489 -3.44839 -1.86625 0
M  V30 1881 H 173.979 -3.10332 -2.79435 0
M  V30 1882 N 174.416 0.165178 -1.56732 0
M  V30 1883 C 175.348 1.22911 -1.93457 0
M  V30 1884 C 176.361 1.40152 -0.828333 0
M  V30 1885 O 177.55 1.40046 -1.10677 0
M  V30 1886 C 174.65 2.59686 -2.17753 0
M  V30 1887 C 173.823 2.63663 -3.48999 0
M  V30 1888 C 172.882 3.81845 -3.62051 0
M  V30 1889 O 171.908 3.67559 -4.34613 0
M  V30 1890 N 173.11 4.98557 -2.97357 0
M  V30 1891 H 175.875 0.917118 -2.85323 0
M  V30 1892 H 173.436 0.354895 -1.57962 0
M  V30 1893 H 175.428 3.37225 -2.23743 0
M  V30 1894 H 173.998 2.83251 -1.32242 0
M  V30 1895 H 173.218 1.72173 -3.54612 0
M  V30 1896 H 174.506 2.63336 -4.35352 0
M  V30 1897 H 173.904 5.13065 -2.38287 0
M  V30 1898 H 172.461 5.73936 -3.08934 0
M  V30 1899 N 175.894 1.51508 0.433938 0
M  V30 1900 C 176.824 1.76016 1.53429 0
M  V30 1901 C 177.805 0.610112 1.58782 0
M  V30 1902 O 178.99 0.853177 1.74455 0
M  V30 1903 C 176.12 1.88831 2.9148 0
M  V30 1904 C 175.074 3.04288 3.00987 0
M  V30 1905 C 174.4 3.0229 4.4105 0
M  V30 1906 C 175.7 4.44193 2.74754 0
M  V30 1907 H 177.394 2.68152 1.33171 0
M  V30 1908 H 174.94 1.29035 0.639214 0
M  V30 1909 H 176.893 2.04559 3.6842 0
M  V30 1910 H 175.617 0.933455 3.12976 0
M  V30 1911 H 174.276 2.8827 2.26486 0
M  V30 1912 H 173.924 2.04576 4.59519 0
M  V30 1913 H 173.624 3.79822 4.4834 0
M  V30 1914 H 175.148 3.20116 5.1996 0
M  V30 1915 H 176.562 4.60544 3.41426 0
M  V30 1916 H 174.959 5.23457 2.9345 0
M  V30 1917 H 176.029 4.53996 1.70339 0
M  V30 1918 N 177.372 -0.689602 1.41712 0
M  V30 1919 C 178.6 -1.47827 1.44758 0
M  V30 1920 C 179.015 -1.88721 0.0545703 0
M  V30 1921 O 178.372 -1.57176 -0.927463 0
M  V30 1922 C 178.423 -2.73698 2.3616 0
M  V30 1923 O 178.144 -2.34524 3.7004 0
M  V30 1924 C 179.645 -3.67389 2.48072 0
M  V30 1925 H 176.865 -0.455357 0.49284 0
M  V30 1926 H 179.409 -0.848574 1.86063 0
M  V30 1927 H 177.564 -3.32891 1.98148 0
M  V30 1928 H 177.978 -3.15701 4.18847 0
M  V30 1929 H 179.452 -4.52475 3.16181 0
M  V30 1930 H 179.929 -4.12284 1.51388 0
M  V30 1931 H 180.535 -3.14097 2.86746 0
M  V30 1932 N 178.85 -1.27639 -0.924453 0
M  V30 1933 C 180.096 -1.15345 -1.67532 0
M  V30 1934 C 180.451 0.297096 -1.90092 0
M  V30 1935 O 179.744 1.21374 -1.48253 0
M  V30 1936 C 179.938 -1.87407 -3.04325 0
M  V30 1937 C 179.767 -3.3932 -2.95114 0
M  V30 1938 C 178.537 -4.08644 -2.97218 0
M  V30 1939 C 180.735 -4.35242 -2.73987 0
M  V30 1940 N 178.717 -5.47102 -2.78482 0
M  V30 1941 C 180.088 -5.6099 -2.63988 0
M  V30 1942 C 182.143 -4.25294 -2.589 0
M  V30 1943 C 180.846 -6.77924 -2.40442 0
M  V30 1944 C 182.872 -5.41952 -2.36731 0
M  V30 1945 C 182.234 -6.66658 -2.27478 0
M  V30 1946 H 178.333 -0.47696 -0.619704 0
M  V30 1947 H 180.917 -1.6115 -1.09265 0
M  V30 1948 H 179.088 -1.44053 -3.60699 0
M  V30 1949 H 180.82 -1.6759 -3.68369 0
M  V30 1950 H 177.575 -3.60136 -3.07569 0
M  V30 1951 H 177.999 -6.19852 -2.72236 0
M  V30 1952 H 182.641 -3.29598 -2.64811 0
M  V30 1953 H 180.359 -7.73699 -2.3327 0
M  V30 1954 H 183.945 -5.36137 -2.25938 0
M  V30 1955 H 182.825 -7.55405 -2.10555 0
M  V30 1956 N 180.328 1.1314 -1.09713 0
M  V30 1957 C 181.574 1.84757 -0.836224 0
M  V30 1958 C 181.907 1.8347 0.636598 0
M  V30 1959 O 181.182 1.27491 1.46889 0
M  V30 1960 C 181.465 3.32782 -1.37578 0
M  V30 1961 C 181.318 3.42567 -2.91493 0
M  V30 1962 C 182.637 4.28307 -1.01198 0
M  V30 1963 H 179.756 0.67082 -0.305236 0
M  V30 1964 H 182.398 1.3278 -1.35903 0
M  V30 1965 H 180.548 3.77177 -0.931097 0
M  V30 1966 H 182.22 3.06862 -3.44432 0
M  V30 1967 H 180.463 2.83349 -3.28475 0
M  V30 1968 H 181.134 4.46674 -3.24324 0
M  V30 1969 H 183.61 3.91999 -1.39556 0
M  V30 1970 H 182.486 5.30307 -1.41653 0
M  V30 1971 H 182.747 4.42029 0.0794833 0
M  V30 1972 N 181.806 0.884767 1.30421 0
M  V30 1973 C 183.222 0.57874 1.48737 0
M  V30 1974 C 183.422 -0.883567 1.81095 0
M  V30 1975 O 182.478 -1.6648 1.89844 0
M  V30 1976 C 183.791 1.49171 2.61091 0
M  V30 1977 C 185.339 1.49532 2.74971 0
M  V30 1978 C 185.814 2.39421 3.90438 0
M  V30 1979 N 187.305 2.37383 3.97748 0
M  V30 1980 C 188.04 3.03647 4.86401 0
M  V30 1981 N 187.536 3.79136 5.79852 0
M  V30 1982 N 189.329 2.9288 4.79768 0
M  V30 1983 H 181.48 1.83075 1.0769 0
M  V30 1984 H 183.743 0.783637 0.533495 0
M  V30 1985 H 183.449 2.53291 2.44001 0
M  V30 1986 H 183.323 1.20113 3.57565 0
M  V30 1987 H 185.71 0.46163 2.91467 0
M  V30 1988 H 185.791 1.8262 1.79119 0
M  V30 1989 H 185.435 3.42874 3.74699 0
M  V30 1990 H 185.365 2.03649 4.85628 0
M  V30 1991 H 187.856 1.82525 3.30897 0
M  V30 1992 H 188.169 4.26789 6.4426 0
M  V30 1993 H 186.514 3.83243 5.79784 0
M  V30 1994 H 189.705 2.33433 4.05742 0
M  V30 1995 H 189.878 3.448 5.4865 0
M  V30 1996 N 183.284 -1.43765 0.645699 0
M  V30 1997 C 184.53 -2.02197 0.156271 0
M  V30 1998 C 184.863 -1.50776 -1.22393 0
M  V30 1999 O 184.138 -0.697771 -1.81553 0
M  V30 2000 C 184.421 -3.59749 0.158872 0
M  V30 2001 C 184.274 -4.21419 1.57245 0
M  V30 2002 C 185.593 -4.37149 -0.50879 0
M  V30 2003 H 182.712 -0.734694 0.0582602 0
M  V30 2004 H 185.354 -1.71157 0.824951 0
M  V30 2005 H 183.504 -3.86325 -0.410525 0
M  V30 2006 H 185.176 -4.059 2.19186 0
M  V30 2007 H 183.419 -3.78356 2.122 0
M  V30 2008 H 184.09 -5.30482 1.52619 0
M  V30 2009 H 186.566 -4.16093 -0.024412 0
M  V30 2010 H 185.442 -5.4683 -0.476213 0
M  V30 2011 H 185.703 -4.12839 -1.58165 0
M  V30 2012 N 184.763 -0.387143 -1.52771 0
M  V30 2013 C 185.988 0.198407 -2.06449 0
M  V30 2014 C 186.413 1.39918 -1.25716 0
M  V30 2015 O 185.771 1.79099 -0.281657 0
M  V30 2016 C 185.819 0.548893 -3.56398 0
M  V30 2017 O 184.923 1.64315 -3.78252 0
M  V30 2018 H 184.264 0.0237731 -0.663574 0
M  V30 2019 H 186.794 -0.553989 -1.96957 0
M  V30 2020 H 186.804 0.813812 -3.99801 0
M  V30 2021 H 185.479 -0.329005 -4.14597 0
M  V30 2022 H 184.056 1.37211 -3.46738 0
M  V30 2023 N 186.241 1.57166 -0.116904 0
M  V30 2024 C 187.191 2.11756 0.845178 0
M  V30 2025 C 188.175 1.03783 1.22955 0
M  V30 2026 O 189.367 1.3002 1.20099 0
M  V30 2027 C 186.496 2.71886 2.09602 0
M  V30 2028 C 185.582 3.86937 1.7361 0
M  V30 2029 N 185.973 4.94073 1.08284 0
M  V30 2030 C 184.271 3.97082 2.03082 0
M  V30 2031 C 184.972 5.74477 0.913855 0
M  V30 2032 N 183.948 5.2423 1.43818 0
M  V30 2033 H 187.75 2.91967 0.336523 0
M  V30 2034 H 185.264 1.62174 0.0856332 0
M  V30 2035 H 187.261 3.09338 2.79492 0
M  V30 2036 H 185.921 1.93138 2.61013 0
M  V30 2037 H 186.932 5.12483 0.747067 0
M  V30 2038 H 183.609 3.29372 2.56554 0
M  V30 2039 H 184.999 6.70701 0.40125 0
M  V30 2040 N 187.719 -0.156864 1.56817 0
M  V30 2041 C 188.629 -1.2136 2.00771 0
M  V30 2042 C 189.645 -1.47598 0.921459 0
M  V30 2043 O 190.821 -1.59462 1.2302 0
M  V30 2044 C 187.886 -2.52943 2.37109 0
M  V30 2045 C 186.947 -2.34439 3.59634 0
M  V30 2046 C 186.18 -3.59748 3.94229 0
M  V30 2047 O 186.403 -4.65526 3.29609 0
M  V30 2048 O 185.337 -3.52998 4.8752 0
M  V30 2049 H 189.163 -0.870468 2.90958 0
M  V30 2050 H 186.748 -0.36484 1.44877 0
M  V30 2051 H 188.63 -3.30538 2.61386 0
M  V30 2052 H 187.305 -2.86806 1.5008 0
M  V30 2053 H 186.212 -1.54828 3.40557 0
M  V30 2054 H 187.545 -2.05496 4.4725 0
M  V30 2055 N 189.197 -1.51736 -0.425897 0
M  V30 2056 C 190.147 -1.70258 -1.51645 0
M  V30 2057 C 191.131 -0.556488 -1.5097 0
M  V30 2058 O 192.323 -0.812879 -1.5723 0
M  V30 2059 C 189.452 -1.84143 -2.89735 0
M  V30 2060 C 188.538 -3.04572 -2.95122 0
M  V30 2061 N 188.929 -4.2756 -2.70233 0
M  V30 2062 C 187.227 -3.04061 -3.26286 0
M  V30 2063 C 187.928 -5.08908 -2.81757 0
M  V30 2064 N 186.904 -4.43797 -3.13919 0
M  V30 2065 H 190.706 -2.63004 -1.31172 0
M  V30 2066 H 188.22 -1.4954 -0.633375 0
M  V30 2067 H 190.217 -1.95525 -3.68206 0
M  V30 2068 H 188.877 -0.925857 -3.1122 0
M  V30 2069 H 189.888 -4.56315 -2.44943 0
M  V30 2070 H 186.565 -2.22179 -3.53473 0
M  V30 2071 H 187.955 -6.16843 -2.66372 0
M  V30 2072 N 190.675 0.682077 -1.42076 0
M  V30 2073 C 191.605 1.80796 -1.47767 0
M  V30 2074 C 192.586 1.6677 -0.334954 0
M  V30 2075 O 193.771 1.863 -0.548264 0
M  V30 2076 C 190.901 3.19038 -1.37229 0
M  V30 2077 C 189.855 3.47789 -2.49453 0
M  V30 2078 C 189.181 4.8553 -2.23975 0
M  V30 2079 C 190.481 3.45411 -3.91776 0
M  V30 2080 H 192.175 1.7629 -2.41997 0
M  V30 2081 H 189.721 0.846721 -1.16476 0
M  V30 2082 H 191.674 3.97528 -1.39821 0
M  V30 2083 H 190.398 3.24204 -0.394907 0
M  V30 2084 H 189.057 2.71657 -2.46166 0
M  V30 2085 H 188.705 4.87337 -1.24547 0
M  V30 2086 H 188.405 5.0573 -2.99184 0
M  V30 2087 H 189.929 5.66312 -2.28304 0
M  V30 2088 H 191.343 4.13882 -3.96705 0
M  V30 2089 H 189.74 3.77145 -4.66778 0
M  V30 2090 H 190.81 2.44122 -4.18966 0
M  V30 2091 N 192.153 1.28127 0.917671 0
M  V30 2092 C 193.083 1.14248 2.03641 0
M  V30 2093 C 194.064 0.0412748 1.7005 0
M  V30 2094 O 195.249 0.217566 1.92977 0
M  V30 2095 C 192.379 0.799431 3.37974 0
M  V30 2096 C 191.333 1.85497 3.85713 0
M  V30 2097 C 190.659 1.36565 5.16966 0
M  V30 2098 C 191.959 3.26085 4.08002 0
M  V30 2099 H 193.653 2.07835 2.15511 0
M  V30 2100 H 191.199 1.00064 1.03553 0
M  V30 2101 H 193.152 0.689114 4.15727 0
M  V30 2102 H 191.876 -0.172145 3.26146 0
M  V30 2103 H 190.535 1.95437 3.10161 0
M  V30 2104 H 190.183 0.383253 5.01538 0
M  V30 2105 H 189.883 2.07143 5.49878 0
M  V30 2106 H 191.407 1.26848 5.97279 0
M  V30 2107 H 192.821 3.19089 4.76293 0
M  V30 2108 H 191.218 3.94462 4.52238 0
M  V30 2109 H 192.288 3.70394 3.12948 0
M  V30 2110 N 193.631 -1.12557 1.10312 0
M  V30 2111 C 194.563 -2.17971 0.708625 0
M  V30 2112 C 195.576 -1.60806 -0.254027 0
M  V30 2113 O 196.765 -1.78458 -0.0386891 0
M  V30 2114 C 193.865 -3.38891 0.0248198 0
M  V30 2115 C 193.038 -4.25548 1.01132 0
M  V30 2116 C 192.097 -5.24972 0.35924 0
M  V30 2117 O 191.123 -5.60174 1.00965 0
M  V30 2118 N 192.325 -5.73747 -0.882847 0
M  V30 2119 H 195.09 -2.52427 1.61557 0
M  V30 2120 H 192.651 -1.27967 0.991771 0
M  V30 2121 H 194.643 -4.02485 -0.422852 0
M  V30 2122 H 193.213 -3.02596 -0.784514 0
M  V30 2123 H 192.433 -3.58589 1.6373 0
M  V30 2124 H 193.721 -4.80294 1.67914 0
M  V30 2125 H 193.119 -5.4731 -1.43065 0
M  V30 2126 H 191.676 -6.39234 -1.27369 0
M  V30 2127 N 195.109 -0.891671 -1.2995 0
M  V30 2128 C 196.525 -0.58662 -1.48428 0
M  V30 2129 C 196.725 0.873951 -1.81561 0
M  V30 2130 O 195.781 1.65471 -1.90724 0
M  V30 2131 C 197.094 -1.50553 -2.60296 0
M  V30 2132 C 198.642 -1.50988 -2.74175 0
M  V30 2133 C 199.117 -2.41488 -3.89163 0
M  V30 2134 N 200.608 -2.39489 -3.96483 0
M  V30 2135 C 201.343 -3.06223 -4.84784 0
M  V30 2136 N 200.839 -3.82206 -5.77833 0
M  V30 2137 N 202.632 -2.95421 -4.78208 0
M  V30 2138 H 194.783 -1.83644 -1.06718 0
M  V30 2139 H 197.046 -0.786455 -0.529332 0
M  V30 2140 H 196.752 -2.54581 -2.42654 0
M  V30 2141 H 196.626 -1.22008 -3.56923 0
M  V30 2142 H 199.013 -0.47708 -2.91218 0
M  V30 2143 H 199.094 -1.83567 -1.78148 0
M  V30 2144 H 198.738 -3.44857 -3.72876 0
M  V30 2145 H 198.668 -2.06222 -4.84541 0
M  V30 2146 H 201.159 -1.84278 -3.29924 0
M  V30 2147 H 201.472 -4.302 -6.41988 0
M  V30 2148 H 199.817 -3.86313 -5.77743 0
M  V30 2149 H 203.008 -2.35581 -4.04499 0
M  V30 2150 H 203.181 -3.47704 -5.46814 0
M  V30 2151 N 196.587 1.43421 -0.653314 0
M  V30 2152 C 197.833 2.02111 -0.166992 0
M  V30 2153 C 198.166 1.51423 1.21592 0
M  V30 2154 O 197.441 0.707389 1.8118 0
M  V30 2155 C 197.724 3.5966 -0.177948 0
M  V30 2156 C 197.577 4.20579 -1.59478 0
M  V30 2157 C 198.896 4.37413 0.4856 0
M  V30 2158 H 196.015 0.734374 -0.0621557 0
M  V30 2159 H 198.657 1.70717 -0.834016 0
M  V30 2160 H 196.807 3.86537 0.390032 0
M  V30 2161 H 198.479 4.04732 -2.21336 0
M  V30 2162 H 196.722 3.77226 -2.14204 0
M  V30 2163 H 197.393 5.29665 -1.5543 0
M  V30 2164 H 199.869 4.161 0.00234528 0
M  V30 2165 H 198.745 5.47075 0.447207 0
M  V30 2166 H 199.006 4.13672 1.55974 0
M  V30 2167 N 198.065 0.39524 1.52563 0
M  V30 2168 C 199.342 -0.242908 1.94086 0
M  V30 2169 C 199.722 -1.63841 1.33114 0
M  V30 2170 O 199.07 -2.22928 0.501529 0
M  V30 2171 C 199.28 -0.26327 3.48006 0
M  V30 2172 C 200.628 -0.489354 4.21771 0
M  V30 2173 O 201.652 -0.343226 3.54543 0
M  V30 2174 O 200.511 -0.776169 5.4096 0
M  V30 2175 H 197.605 -0.152536 0.812811 0
M  V30 2176 H 200.151 0.450178 1.6362 0
M  V30 2177 H 198.923 0.713985 3.84731 0
M  V30 2178 H 198.546 -1.00103 3.84792 0
M  V30 2179 N 199.544 -1.57102 0.125237 0
M  V30 2180 C 200.492 -2.16905 -0.839927 0
M  V30 2181 C 201.486 -1.11998 -1.27094 0
M  V30 2182 O 202.692 -1.3029 -1.24195 0
M  V30 2183 H 199.067 -0.694252 -0.288995 0
M  V30 2184 H 201.038 -2.96774 -0.311115 0
M  V30 2185 C 199.787 -2.78795 -2.07771 0
M  V30 2186 H 199.11 -3.59221 -1.755 0
M  V30 2187 H 200.55 -3.2417 -2.73295 0
M  V30 2188 C 199.009 -1.76193 -2.87155 0
M  V30 2189 O 199.539 -1.21909 -3.82755 0
M  V30 2190 N 197.745 -1.45991 -2.51267 0
M  V30 2191 H 197.292 -1.90325 -1.73592 0
M  V30 2192 H 197.25 -0.775844 -3.04677 0
M  V30 2193 N 201.022 0.148545 -1.56898 0
M  V30 2194 C 202.269 0.861418 -1.83264 0
M  V30 2195 C 202.597 1.81239 -0.705883 0
M  V30 2196 O 201.852 1.93305 0.305212 0
M  V30 2197 C 202.151 1.67064 -3.1595 0
M  V30 2198 C 201.817 0.866591 -4.42494 0
M  V30 2199 C 200.479 0.644762 -4.76861 0
M  V30 2200 C 202.831 0.30418 -5.20312 0
M  V30 2201 C 200.159 -0.15021 -5.86508 0
M  V30 2202 C 202.511 -0.477824 -6.30793 0
M  V30 2203 C 201.175 -0.710244 -6.63711 0
M  V30 2204 H 200.445 0.315215 -0.670612 0
M  V30 2205 H 203.092 0.125142 -1.91091 0
M  V30 2206 H 201.397 2.47698 -3.03567 0
M  V30 2207 H 203.094 2.22566 -3.33565 0
M  V30 2208 H 199.684 1.04955 -4.15551 0
M  V30 2209 H 203.868 0.462844 -4.94137 0
M  V30 2210 H 199.124 -0.339796 -6.10455 0
M  V30 2211 H 203.298 -0.92076 -6.90286 0
M  V30 2212 H 200.925 -1.3281 -7.48509 0
M  V30 2213 N 202.5 1.5196 0.417844 0
M  V30 2214 C 203.728 1.69426 1.18753 0
M  V30 2215 C 204.143 0.399955 1.84515 0
M  V30 2216 O 203.5 -0.623288 1.71527 0
M  V30 2217 C 203.551 2.82375 2.25714 0
M  V30 2218 O 203.272 4.06793 1.62638 0
M  V30 2219 C 204.773 3.11277 3.15628 0
M  V30 2220 H 201.993 0.568031 0.357186 0
M  V30 2221 H 204.537 1.98475 0.49273 0
M  V30 2222 H 202.692 2.5587 2.90877 0
M  V30 2223 H 203.106 4.69667 2.3348 0
M  V30 2224 H 204.58 3.93843 3.86771 0
M  V30 2225 H 205.057 2.24473 3.77503 0
M  V30 2226 H 205.663 3.39515 2.56144 0
M  V30 2227 N 203.978 -0.674533 1.42435 0
M  V30 2228 C 204.91 -1.80005 1.41883 0
M  V30 2229 C 205.923 -1.59667 0.31787 0
M  V30 2230 O 207.112 -1.68781 0.580973 0
M  V30 2231 C 204.212 -3.17114 1.19549 0
M  V30 2232 C 203.385 -3.64299 2.42084 0
M  V30 2233 C 202.444 -4.80142 2.15291 0
M  V30 2234 O 201.47 -4.90673 2.88493 0
M  V30 2235 N 202.672 -5.68869 1.1562 0
M  V30 2236 H 205.437 -1.80964 2.38898 0
M  V30 2237 H 202.998 -0.857633 1.37318 0
M  V30 2238 H 204.99 -3.92267 0.995417 0
M  V30 2239 H 203.56 -3.11053 0.310569 0
M  V30 2240 H 202.78 -2.79822 2.77657 0
M  V30 2241 H 204.068 -3.92567 3.23679 0
M  V30 2242 H 203.466 -5.63012 0.550765 0
M  V30 2243 H 202.023 -6.43833 1.016 0
M  V30 2244 N 205.456 -1.28612 -0.910864 0
M  V30 2245 C 206.404 -1.1265 -2.03501 0
M  V30 2246 C 207.398 -0.0450054 -1.6934 0
M  V30 2247 O 208.604 -0.203988 -1.7884 0
M  V30 2248 H 204.979 -0.347639 -0.666822 0
M  V30 2249 H 206.95 -2.07849 -2.14106 0
M  V30 2250 C 205.699 -0.808143 -3.38178 0
M  V30 2251 H 205.022 -1.63231 -3.6496 0
M  V30 2252 H 206.462 -0.736426 -4.17556 0
M  V30 2253 C 204.921 0.488226 -3.33344 0
M  V30 2254 O 205.451 1.51766 -3.71927 0
M  V30 2255 N 203.657 0.490009 -2.86439 0
M  V30 2256 H 203.204 -0.348161 -2.55236 0
M  V30 2257 H 203.162 1.35741 -2.83587 0
M  V30 2258 N 206.934 1.1197 -1.10907 0
M  V30 2259 C 208.345 1.65114 -0.871446 0
M  V30 2260 C 208.696 1.86885 0.597353 0
M  V30 2261 O 207.821 1.59896 1.45816 0
M  V30 2262 C 208.416 2.99944 -1.5754 0
M  V30 2263 C 206.975 3.50018 -1.38435 0
M  V30 2264 C 206.122 2.24941 -1.62164 0
M  V30 2265 H 209.073 0.956851 -1.2661 0
M  V30 2266 H 209.094 3.66651 -1.01721 0
M  V30 2267 H 208.606 2.84067 -2.64438 0
M  V30 2268 H 206.707 3.71071 -0.337214 0
M  V30 2269 H 206.82 4.29165 -2.12965 0
M  V30 2270 H 205.184 2.3229 -1.04467 0
M  V30 2271 H 205.967 2.11612 -2.70324 0
M  V30 2272 N 208.412 0.89855 1.29475 0
M  V30 2273 C 209.66 0.522847 1.9522 0
M  V30 2274 C 209.981 -0.93371 1.71192 0
M  V30 2275 O 209.251 -1.65823 1.04305 0
M  V30 2276 H 207.831 0.190366 0.722336 0
M  V30 2277 H 210.493 1.14459 1.5775 0
M  V30 2278 H 209.589 0.704476 3.04045 0
M  V30 2279 N 209.89 -1.43072 0.660911 0
M  V30 2280 C 210.823 -2.28074 -0.0758862 0
M  V30 2281 C 211.801 -1.40271 -0.822362 0
M  V30 2282 O 212.985 -1.69713 -0.820352 0
M  V30 2283 C 210.112 -3.19843 -1.11437 0
M  V30 2284 C 209.158 -4.23957 -0.465069 0
M  V30 2285 S 209.991 -5.29978 0.767078 0
M  V30 2286 C 211.147 -6.25314 -0.270682 0
M  V30 2287 H 211.38 -2.90216 0.645139 0
M  V30 2288 H 208.913 -1.47697 0.449995 0
M  V30 2289 H 210.871 -3.73257 -1.70849 0
M  V30 2290 H 209.532 -2.56863 -1.80776 0
M  V30 2291 H 208.725 -4.88299 -1.24819 0
M  V30 2292 H 208.327 -3.73959 0.0551242 0
M  V30 2293 H 210.619 -6.67932 -1.13459 0
M  V30 2294 H 211.562 -7.07293 0.337916 0
M  V30 2295 H 211.97 -5.61195 -0.609937 0
M  V30 2296 N 211.368 -0.403325 -1.52352 0
M  V30 2297 C 212.615 0.174347 -2.01748 0
M  V30 2298 C 212.943 1.45636 -1.2892 0
M  V30 2299 O 212.198 1.9193 -0.382258 0
M  V30 2300 C 212.497 0.474665 -3.54234 0
M  V30 2301 C 212.163 -0.717458 -4.45155 0
M  V30 2302 C 210.825 -1.04447 -4.69728 0
M  V30 2303 C 213.177 -1.51432 -4.98716 0
M  V30 2304 C 210.505 -2.16963 -5.45109 0
M  V30 2305 C 212.857 -2.6302 -5.75329 0
M  V30 2306 C 211.521 -2.96213 -5.98175 0
M  V30 2307 H 210.791 0.0637981 -0.738248 0
M  V30 2308 H 213.438 -0.543553 -1.83624 0
M  V30 2309 H 211.743 1.27406 -3.70506 0
M  V30 2310 H 213.44 0.934496 -3.89959 0
M  V30 2311 H 210.03 -0.452596 -4.26204 0
M  V30 2312 H 214.214 -1.27491 -4.79645 0
M  V30 2313 H 209.47 -2.43034 -5.61021 0
M  V30 2314 H 213.644 -3.25158 -6.15829 0
M  V30 2315 H 211.271 -3.83516 -6.56368 0
M  V30 2316 N 212.846 1.57033 -0.133567 0
M  V30 2317 C 214.262 1.58035 0.222944 0
M  V30 2318 C 214.462 1.14713 1.6566 0
M  V30 2319 O 213.518 0.841218 2.38075 0
M  V30 2320 C 214.831 3.00691 -0.0236116 0
M  V30 2321 C 216.379 3.12973 0.0411512 0
M  V30 2322 C 216.854 4.57654 -0.177899 0
M  V30 2323 N 218.345 4.63033 -0.124365 0
M  V30 2324 C 219.08 5.72771 -0.268553 0
M  V30 2325 N 218.576 6.91206 -0.46972 0
M  V30 2326 N 220.369 5.61718 -0.2071 0
M  V30 2327 H 212.52 1.8349 -1.06981 0
M  V30 2328 H 214.783 0.848677 -0.422436 0
M  V30 2329 H 214.489 3.36726 -1.0153 0
M  V30 2330 H 214.363 3.70614 0.701808 0
M  V30 2331 H 216.75 2.76787 1.02338 0
M  V30 2332 H 216.831 2.45564 -0.716383 0
M  V30 2333 H 216.475 4.94542 -1.15717 0
M  V30 2334 H 216.405 5.23173 0.599797 0
M  V30 2335 H 218.896 3.7789 0.027011 0
M  V30 2336 H 219.209 7.70693 -0.570212 0
M  V30 2337 H 217.554 6.93156 -0.505876 0
M  V30 2338 H 220.745 4.68072 -0.0507986 0
M  V30 2339 H 220.918 6.47195 -0.322909 0
M  V30 2340 N 214.325 -0.140222 1.56975 0
M  V30 2341 C 215.574 -0.850152 1.82908 0
M  V30 2342 C 215.887 -1.82028 0.715892 0
M  V30 2343 O 217.093 -2.57485 0.861016 0
M  V30 2344 C 215.549 -1.5625 3.24213 0
M  V30 2345 C 215.157 -0.63443 4.43485 0
M  V30 2346 C 216.901 -2.25881 3.59413 0
M  V30 2347 C 214.808 -1.34879 5.75814 0
M  V30 2348 H 213.738 -0.321221 0.682153 0
M  V30 2349 H 216.389 -0.102874 1.83211 0
M  V30 2350 H 214.771 -2.35565 3.18316 0
M  V30 2351 H 215.945 0.12398 4.60633 0
M  V30 2352 H 214.26 -0.0461836 4.16374 0
M  V30 2353 H 216.857 -2.79978 4.5554 0
M  V30 2354 H 217.2 -3.02693 2.85802 0
M  V30 2355 H 217.733 -1.53477 3.67001 0
M  V30 2356 H 214.472 -0.622385 6.52539 0
M  V30 2357 H 213.992 -2.07974 5.6259 0
M  V30 2358 H 215.671 -1.88784 6.18845 0
M  V30 2359 N 215.803 -1.52179 -0.40978 0
M  V30 2360 C 216.75 -1.75475 -1.49924 0
M  V30 2361 C 217.72 -0.597175 -1.54994 0
M  V30 2362 O 218.905 -0.834655 -1.71575 0
M  V30 2363 C 216.045 -1.9107 -2.87378 0
M  V30 2364 C 215.158 -3.18717 -2.91622 0
M  V30 2365 C 214.293 -3.24747 -4.20372 0
M  V30 2366 C 213.332 -4.46598 -4.18588 0
M  V30 2367 N 212.469 -4.50025 -5.38908 0
M  V30 2368 H 217.309 -2.68458 -1.29361 0
M  V30 2369 H 214.846 -1.33024 -0.627934 0
M  V30 2370 H 216.804 -1.98096 -3.6717 0
M  V30 2371 H 215.434 -1.01469 -3.06437 0
M  V30 2372 H 214.486 -3.20866 -2.04326 0
M  V30 2373 H 215.798 -4.08544 -2.86169 0
M  V30 2374 H 214.952 -3.30841 -5.08556 0
M  V30 2375 H 213.691 -2.32857 -4.28519 0
M  V30 2376 H 212.696 -4.40652 -3.28794 0
M  V30 2377 H 213.921 -5.39783 -4.12081 0
M  V30 2378 H 211.867 -3.61017 -5.47725 0
M  V30 2379 H 211.784 -5.33697 -5.35447 0
M  V30 2380 H 213.052 -4.60347 -6.29048 0
M  V30 2381 N 217.281 0.66697 -1.42791 0
M  V30 2382 C 218.529 1.42417 -1.43394 0
M  V30 2383 C 218.85 1.94925 -0.0542373 0
M  V30 2384 O 218.12 1.73564 0.908415 0
M  V30 2385 H 216.7 0.528515 -0.527902 0
M  V30 2386 H 219.362 0.787562 -1.78279 0
M  V30 2387 H 218.458 2.27333 -2.13837 0
M  V30 2388 N 218.759 1.29093 0.90403 0
M  V30 2389 C 219.669 1.15727 2.0407 0
M  V30 2390 C 220.685 0.0815308 1.73809 0
M  V30 2391 O 221.861 0.292749 1.99261 0
M  V30 2392 C 218.926 0.830424 3.36608 0
M  V30 2393 C 217.987 1.98955 3.80415 0
M  V30 2394 C 217.22 1.6782 5.06628 0
M  V30 2395 O 217.443 0.597105 5.67266 0
M  V30 2396 O 216.377 2.52486 5.46383 0
M  V30 2397 H 220.203 2.11171 2.18267 0
M  V30 2398 H 217.788 1.08504 1.027 0
M  V30 2399 H 219.67 0.662521 4.16159 0
M  V30 2400 H 218.345 -0.0942678 3.23563 0
M  V30 2401 H 217.252 2.21267 3.01648 0
M  V30 2402 H 218.585 2.89529 3.98037 0
M  V30 2403 N 220.237 -1.11381 1.11499 0
M  V30 2404 C 221.169 -2.17207 0.731704 0
M  V30 2405 C 222.182 -1.61066 -0.236957 0
M  V30 2406 O 223.371 -1.78489 -0.0197591 0
M  V30 2407 C 220.471 -3.38846 0.0607624 0
M  V30 2408 C 219.644 -4.24451 1.0564 0
M  V30 2409 C 218.703 -5.24562 0.4149 0
M  V30 2410 O 217.729 -5.59071 1.069 0
M  V30 2411 N 218.931 -5.74651 -0.821943 0
M  V30 2412 H 221.696 -2.50699 1.64225 0
M  V30 2413 H 219.257 -1.26908 1.00529 0
M  V30 2414 H 221.249 -4.02911 -0.380139 0
M  V30 2415 H 219.819 -3.03411 -0.752376 0
M  V30 2416 H 219.039 -3.56833 1.67524 0
M  V30 2417 H 220.327 -4.78486 1.72998 0
M  V30 2418 H 219.725 -5.48797 -1.37252 0
M  V30 2419 H 218.282 -6.40549 -1.20582 0
M  V30 2420 N 221.715 -0.905404 -1.28997 0
M  V30 2421 C 222.963 -0.533192 -1.9494 0
M  V30 2422 C 223.284 0.924618 -1.71685 0
M  V30 2423 O 222.554 1.65268 -1.05183 0
M  V30 2424 H 221.134 -0.194194 -0.721317 0
M  V30 2425 H 223.796 -1.15294 -1.57141 0
M  V30 2426 H 222.892 -0.72059 -3.03667 0
M  V30 2427 N 223.193 1.4272 -0.668489 0
M  V30 2428 C 224.156 2.292 0.00448567 0
M  V30 2429 C 225.156 1.43001 0.735339 0
M  V30 2430 O 226.346 1.64461 0.57429 0
M  V30 2431 C 223.478 3.25375 1.01705 0
M  V30 2432 H 224.671 2.90199 -0.756608 0
M  V30 2433 H 222.224 1.50254 -0.430506 0
M  V30 2434 H 222.959 2.69301 1.80686 0
M  V30 2435 H 222.744 3.88944 0.496463 0
M  V30 2436 H 224.234 3.90245 1.48655 0
M  V30 2437 N 224.671 0.411399 1.52136 0
M  V30 2438 C 226.082 -0.0576826 1.86611 0
M  V30 2439 C 226.433 -1.44238 1.33003 0
M  V30 2440 O 225.558 -2.05759 0.670228 0
M  V30 2441 C 226.153 -0.111448 3.38617 0
M  V30 2442 C 224.712 -0.52487 3.72723 0
M  V30 2443 C 223.859 0.299176 2.75681 0
M  V30 2444 H 226.81 0.628368 1.4573 0
M  V30 2445 H 226.831 -0.926252 3.69054 0
M  V30 2446 H 226.343 0.896488 3.77604 0
M  V30 2447 H 224.444 -1.53936 3.39315 0
M  V30 2448 H 224.557 -0.267681 4.78352 0
M  V30 2449 H 222.921 -0.238814 2.53578 0
M  V30 2450 H 223.704 1.3055 3.17508 0
M  V30 2451 N 226.149 -1.5696 0.141893 0
M  V30 2452 C 227.397 -1.95573 -0.509484 0
M  V30 2453 C 227.718 -1.02746 -1.65736 0
M  V30 2454 O 226.988 -0.0880311 -1.95702 0
M  V30 2455 H 225.568 -0.722115 -0.191205 0
M  V30 2456 H 228.23 -1.93697 0.216196 0
M  V30 2457 H 227.326 -2.99171 -0.889 0
M  V30 2458 N 227.627 0.131896 -1.57047 0
M  V30 2459 C 228.557 1.16384 -2.02428 0
M  V30 2460 C 229.538 1.43936 -0.90644 0
M  V30 2461 O 230.723 1.54599 -1.17528 0
M  V30 2462 C 227.853 2.49328 -2.4177 0
M  V30 2463 C 226.807 2.36266 -3.56879 0
M  V30 2464 C 226.133 3.74057 -3.8208 0
M  V30 2465 C 227.433 1.834 -4.89042 0
M  V30 2466 H 229.127 0.786433 -2.88887 0
M  V30 2467 H 226.673 0.376855 -1.38981 0
M  V30 2468 H 228.626 3.21759 -2.7212 0
M  V30 2469 H 227.35 2.88934 -1.52266 0
M  V30 2470 H 226.009 1.66286 -3.26718 0
M  V30 2471 H 225.657 4.11125 -2.89803 0
M  V30 2472 H 225.357 3.66174 -4.59554 0
M  V30 2473 H 226.881 4.48012 -4.1487 0
M  V30 2474 H 228.295 2.45636 -5.18011 0
M  V30 2475 H 226.692 1.8637 -5.70426 0
M  V30 2476 H 227.762 0.790662 -4.7841 0
M  V30 2477 N 229.106 1.52395 0.401703 0
M  V30 2478 C 230.038 1.72505 1.50912 0
M  V30 2479 C 231.051 0.605468 1.51122 0
M  V30 2480 O 232.24 0.880828 1.55254 0
M  V30 2481 C 229.34 1.75711 2.89791 0
M  V30 2482 C 228.513 3.04824 3.1369 0
M  V30 2483 C 227.572 2.99743 4.32482 0
M  V30 2484 O 226.598 3.73635 4.29402 0
M  V30 2485 N 227.8 2.18047 5.37992 0
M  V30 2486 H 230.565 2.68049 1.34052 0
M  V30 2487 H 228.126 1.50724 0.591084 0
M  V30 2488 H 230.118 1.69834 3.6734 0
M  V30 2489 H 228.688 0.876092 3.00072 0
M  V30 2490 H 227.908 3.2429 2.24119 0
M  V30 2491 H 229.196 3.90221 3.26504 0
M  V30 2492 H 228.594 1.57456 5.43345 0
M  V30 2493 H 227.151 2.18021 6.14256 0
M  V30 2494 N 230.584 -0.659388 1.43143 0
M  V30 2495 C 231.832 -1.41654 1.44147 0
M  V30 2496 C 232.153 -1.94893 0.0645739 0
M  V30 2497 O 231.423 -1.74044 -0.899198 0
M  V30 2498 H 230.003 -0.525708 0.530697 0
M  V30 2499 H 232.665 -0.778097 1.78694 0
M  V30 2500 H 231.761 -2.26195 2.1504 0
M  V30 2501 N 232.062 -1.29571 -0.897171 0
M  V30 2502 C 233.012 -1.11539 -1.98855 0
M  V30 2503 C 233.996 -0.0340716 -1.60864 0
M  V30 2504 O 235.188 -0.256062 -1.75138 0
M  V30 2505 C 232.317 -0.796603 -3.3393 0
M  V30 2506 C 231.403 -1.91758 -3.78272 0
M  V30 2507 N 231.794 -3.16143 -3.94826 0
M  V30 2508 C 230.092 -1.81119 -4.07568 0
M  V30 2509 C 230.793 -3.89293 -4.32233 0
M  V30 2510 N 229.769 -3.17255 -4.41419 0
M  V30 2511 H 233.571 -2.05894 -2.09726 0
M  V30 2512 H 231.085 -1.20732 -1.08616 0
M  V30 2513 H 233.082 -0.648459 -4.11826 0
M  V30 2514 H 231.742 0.139003 -3.24402 0
M  V30 2515 H 232.753 -3.5157 -3.80288 0
M  V30 2516 H 229.43 -0.948461 -4.06584 0
M  V30 2517 H 230.82 -4.9635 -4.52865 0
M  V30 2518 N 233.54 1.10788 -1.12088 0
M  V30 2519 C 234.487 2.17025 -0.785407 0
M  V30 2520 C 235.457 1.64265 0.246191 0
M  V30 2521 O 236.642 1.90412 0.121584 0
M  V30 2522 C 233.782 3.44249 -0.242177 0
M  V30 2523 C 232.895 4.1098 -1.33115 0
M  V30 2524 C 232.03 5.25911 -0.747741 0
M  V30 2525 C 231.069 5.84538 -1.81609 0
M  V30 2526 N 230.206 6.90853 -1.25167 0
M  V30 2527 H 235.046 2.45066 -1.69548 0
M  V30 2528 H 232.583 1.20297 -0.846582 0
M  V30 2529 H 234.541 4.17101 0.0908026 0
M  V30 2530 H 233.171 3.16571 0.631072 0
M  V30 2531 H 232.223 3.36133 -1.78097 0
M  V30 2532 H 233.535 4.50601 -2.13917 0
M  V30 2533 H 232.689 6.056 -0.365216 0
M  V30 2534 H 231.428 4.87614 0.0915188 0
M  V30 2535 H 230.433 5.03522 -2.20785 0
M  V30 2536 H 231.658 6.249 -2.6585 0
M  V30 2537 H 229.604 6.54562 -0.434174 0
M  V30 2538 H 229.521 7.29166 -1.99633 0
M  V30 2539 H 230.789 7.7433 -0.896259 0
M  V30 2540 N 235.018 0.912232 1.28515 0
M  V30 2541 C 236.266 0.543523 1.94654 0
M  V30 2542 C 236.587 -0.9155 1.72173 0
M  V30 2543 O 235.857 -1.64708 1.06058 0
M  V30 2544 H 234.437 0.198017 0.720277 0
M  V30 2545 H 237.099 1.16126 1.56527 0
M  V30 2546 H 236.195 0.736684 3.03281 0
M  V30 2547 N 236.496 -1.42363 0.676048 0
M  V30 2548 C 237.459 -2.29199 0.00766941 0
M  V30 2549 C 238.459 -1.43389 -0.727745 0
M  V30 2550 O 239.649 -1.64764 -0.56556 0
M  V30 2551 C 236.781 -3.2591 -0.999785 0
M  V30 2552 H 237.974 -2.89794 0.771988 0
M  V30 2553 H 235.527 -1.50024 0.438468 0
M  V30 2554 H 236.262 -2.70256 -1.79255 0
M  V30 2555 H 236.047 -3.89202 -0.475829 0
M  V30 2556 H 237.537 -3.91028 -1.46583 0
M  V30 2557 N 237.974 -0.419461 -1.51915 0
M  V30 2558 C 238.907 0.445751 -2.23804 0
M  V30 2559 C 239.885 1.03951 -1.25031 0
M  V30 2560 O 241.069 1.08541 -1.54114 0
M  V30 2561 C 238.196 1.61964 -2.97465 0
M  V30 2562 C 237.242 1.14828 -4.10751 0
M  V30 2563 S 238.075 0.104938 -5.35397 0
M  V30 2564 C 239.231 1.28391 -6.1259 0
M  V30 2565 H 239.464 -0.164627 -2.96844 0
M  V30 2566 H 236.997 -0.203833 -1.53049 0
M  V30 2567 H 238.955 2.29271 -3.40507 0
M  V30 2568 H 237.616 2.20139 -2.24048 0
M  V30 2569 H 236.809 2.02561 -4.61503 0
M  V30 2570 H 236.411 0.553712 -3.69878 0
M  V30 2571 H 238.703 2.20563 -6.40592 0
M  V30 2572 H 239.646 0.816724 -7.03374 0
M  V30 2573 H 240.054 1.51439 -5.43807 0
M  V30 2574 N 239.452 1.56882 -0.150215 0
M  V30 2575 C 240.7 1.9584 0.499105 0
M  V30 2576 C 241.021 1.03623 1.65188 0
M  V30 2577 O 240.291 0.0984084 1.95653 0
M  V30 2578 H 238.871 0.723119 0.187373 0
M  V30 2579 H 241.533 1.9358 -0.226466 0
M  V30 2580 H 240.629 2.99638 0.873122 0
M  V30 2581 N 240.93 -0.123565 1.57115 0
M  V30 2582 C 241.863 -1.18202 1.95201 0
M  V30 2583 C 242.841 -1.40349 0.821031 0
M  V30 2584 O 244.025 -1.54578 1.07879 0
M  V30 2585 C 241.152 -2.53671 2.24429 0
M  V30 2586 C 240.198 -2.4798 3.46999 0
M  V30 2587 S 241.031 -1.92389 4.99747 0
M  V30 2588 C 242.187 -3.2954 5.32123 0
M  V30 2589 H 242.42 -0.857212 2.84674 0
M  V30 2590 H 239.953 -0.33014 1.50829 0
M  V30 2591 H 241.911 -3.3162 2.41947 0
M  V30 2592 H 240.572 -2.83332 1.35579 0
M  V30 2593 H 239.765 -3.47758 3.64801 0
M  V30 2594 H 239.367 -1.7815 3.28844 0
M  V30 2595 H 241.659 -4.25736 5.27025 0
M  V30 2596 H 242.602 -3.16569 6.33395 0
M  V30 2597 H 243.01 -3.27758 4.59603 0
M  V30 2598 N 242.408 -1.52605 -0.393616 0
M  V30 2599 C 243.819 -1.59417 -0.971761 0
M  V30 2600 C 244.17 -0.444173 -1.91106 0
M  V30 2601 O 243.295 0.433382 -2.12016 0
M  V30 2602 C 243.89 -2.88936 -1.76921 0
M  V30 2603 C 242.449 -2.98175 -2.29714 0
M  V30 2604 C 241.596 -2.54491 -1.10135 0
M  V30 2605 H 244.547 -1.57751 -0.173317 0
M  V30 2606 H 244.568 -2.75163 -2.62804 0
M  V30 2607 H 244.08 -3.72616 -1.08532 0
M  V30 2608 H 242.181 -2.19024 -3.01429 0
M  V30 2609 H 242.294 -4.02726 -2.59517 0
M  V30 2610 H 240.658 -2.08702 -1.45999 0
M  V30 2611 H 241.441 -3.4056 -0.432874 0
M  V30 2612 N 243.887 0.651787 -1.4349 0
M  V30 2613 C 245.135 1.40888 -1.44897 0
M  V30 2614 C 245.456 1.94856 -0.0749086 0
M  V30 2615 O 244.726 1.74518 0.889956 0
M  V30 2616 H 243.306 0.522887 -0.533478 0
M  V30 2617 H 245.968 0.768609 -1.79104 0
M  V30 2618 H 245.064 2.25052 -2.16236 0
M  V30 2619 N 245.365 1.30045 0.890287 0
M  V30 2620 C 246.328 1.15963 1.977 0
M  V30 2621 C 247.328 0.0923777 1.60534 0
M  V30 2622 O 248.518 0.340071 1.70848 0
M  V30 2623 C 245.65 0.775451 3.31963 0
M  V30 2624 H 246.843 2.12502 2.11619 0
M  V30 2625 H 244.396 1.13366 1.07601 0
M  V30 2626 H 245.131 -0.189671 3.23745 0
M  V30 2627 H 244.916 1.54668 3.60306 0
M  V30 2628 H 246.406 0.700251 4.11687 0
M  V30 2629 N 246.843 -1.10192 1.12674 0
M  V30 2630 C 248.254 -1.63707 0.897604 0
M  V30 2631 C 248.605 -1.87812 -0.567546 0
M  V30 2632 O 247.73 -1.62196 -1.43253 0
M  V30 2633 C 248.325 -2.974 1.62292 0
M  V30 2634 C 246.884 -3.47772 1.43986 0
M  V30 2635 C 246.031 -2.22332 1.65722 0
M  V30 2636 H 248.982 -0.936587 1.28116 0
M  V30 2637 H 249.003 -3.64986 1.07541 0
M  V30 2638 H 248.515 -2.79824 2.68924 0
M  V30 2639 H 246.616 -3.70487 0.396206 0
M  V30 2640 H 246.729 -4.25723 2.19765 0
M  V30 2641 H 245.093 -2.30599 1.08149 0
M  V30 2642 H 245.876 -2.07285 2.73657 0
M  V30 2643 N 248.321 -0.919034 -1.28029 0
M  V30 2644 C 249.569 -0.553838 -1.94363 0
M  V30 2645 C 249.89 0.906357 -1.72656 0
M  V30 2646 O 249.16 1.64143 -1.0693 0
M  V30 2647 H 247.74 -0.201834 -0.719216 0
M  V30 2648 H 250.402 -1.16954 -1.55909 0
M  V30 2649 H 249.498 -0.752758 -3.02886 0
M  V30 2650 N 249.799 1.42003 -0.683588 0
M  V30 2651 C 251.21 1.84501 -0.285736 0
M  V30 2652 C 251.561 1.57213 1.17382 0
M  V30 2653 O 250.686 1.03642 1.89966 0
M  V30 2654 C 251.281 3.34912 -0.511821 0
M  V30 2655 C 249.84 3.76025 -0.168005 0
M  V30 2656 C 248.987 2.6551 -0.799983 0
M  V30 2657 H 251.938 1.31724 -0.885119 0
M  V30 2658 H 251.959 3.79784 0.233292 0
M  V30 2659 H 251.471 3.54741 -1.57418 0
M  V30 2660 H 249.572 3.61801 0.890567 0
M  V30 2661 H 249.685 4.75141 -0.614661 0
M  V30 2662 H 248.049 2.53654 -0.230568 0
M  V30 2663 H 248.832 2.8816 -1.86597 0
M  V30 2664 N 251.277 0.427512 1.51691 0
M  V30 2665 C 252.688 -0.0378867 1.86662 0
M  V30 2666 C 253.039 -1.42819 1.34525 0
M  V30 2667 O 252.164 -2.05037 0.692014 0
M  V30 2668 C 252.759 -0.0755266 3.38716 0
M  V30 2669 C 251.318 -0.485309 3.73258 0
M  V30 2670 C 250.465 0.328399 2.75349 0
M  V30 2671 H 253.416 0.64379 1.45055 0
M  V30 2672 H 253.437 -0.887056 3.70016 0
M  V30 2673 H 252.949 0.936487 3.76632 0
M  V30 2674 H 251.05 -1.50329 3.40928 0
M  V30 2675 H 251.163 -0.21693 4.78609 0
M  V30 2676 H 249.527 -0.211905 2.53817 0
M  V30 2677 H 250.31 1.3391 3.16106 0
M  V30 2678 N 252.755 -1.56801 0.158532 0
M  V30 2679 C 254.003 -1.96102 -0.488712 0
M  V30 2680 C 254.324 -1.04498 -1.64636 0
M  V30 2681 O 253.594 -0.108783 -1.95598 0
M  V30 2682 H 252.174 -0.724102 -0.183535 0
M  V30 2683 H 254.836 -1.93457 0.236728 0
M  V30 2684 H 253.932 -3.00097 -0.857219 0
M  V30 2685 N 254.233 0.115231 -1.57178 0
M  V30 2686 C 255.644 0.67197 -1.74188 0
M  V30 2687 C 255.995 1.80125 -0.777777 0
M  V30 2688 O 255.12 2.16346 0.0484376 0
M  V30 2689 C 255.715 1.22573 -3.1585 0
M  V30 2690 C 254.274 1.72872 -3.34353 0
M  V30 2691 C 253.421 0.629972 -2.70049 0
M  V30 2692 H 256.372 -0.110712 -1.58313 0
M  V30 2693 H 256.393 2.09535 -3.17609 0
M  V30 2694 H 255.905 0.403598 -3.85996 0
M  V30 2695 H 254.006 2.5755 -2.69256 0
M  V30 2696 H 254.119 1.83557 -4.42542 0
M  V30 2697 H 252.483 1.0645 -2.31388 0
M  V30 2698 H 253.266 -0.181241 -3.42821 0
M  V30 2699 N 255.711 1.52812 0.385517 0
M  V30 2700 C 257.122 1.5993 0.963293 0
M  V30 2701 C 257.473 0.454302 1.90868 0
M  V30 2702 O 256.598 -0.422132 2.12243 0
M  V30 2703 C 257.193 2.89871 1.75387 0
M  V30 2704 C 255.752 2.99389 2.28129 0
M  V30 2705 C 254.899 2.55071 1.08783 0
M  V30 2706 H 257.85 1.5784 0.164948 0
M  V30 2707 H 257.871 2.76553 2.61341 0
M  V30 2708 H 257.383 3.73186 1.06554 0
M  V30 2709 H 255.484 2.20619 3.00263 0
M  V30 2710 H 255.597 4.04096 2.57377 0
M  V30 2711 H 253.961 2.09473 1.4489 0
M  V30 2712 H 254.744 3.40785 0.414807 0
M  V30 2713 N 257.189 -0.644168 1.43834 0
M  V30 2714 C 258.152 -1.73857 1.49353 0
M  V30 2715 C 259.152 -1.56315 0.377112 0
M  V30 2716 O 260.342 -1.62048 0.639226 0
M  V30 2717 C 257.474 -3.12819 1.35488 0
M  V30 2718 H 258.667 -1.70342 2.46827 0
M  V30 2719 H 256.22 -0.856652 1.30733 0
M  V30 2720 H 256.955 -3.2194 0.390569 0
M  V30 2721 H 256.74 -3.26958 2.16428 0
M  V30 2722 H 258.23 -3.92606 1.42302 0
M  V30 2723 N 258.668 -1.30515 -0.883378 0
M  V30 2724 C 259.578 -1.18959 -2.02203 0
M  V30 2725 C 260.594 -0.109172 -1.73657 0
M  V30 2726 O 261.77 -0.324413 -1.9877 0
M  V30 2727 C 258.835 -0.883871 -3.35244 0
M  V30 2728 C 257.896 -2.04982 -3.77201 0
M  V30 2729 C 257.129 -1.75859 -5.03894 0
M  V30 2730 O 257.352 -0.687276 -5.66244 0
M  V30 2731 O 256.286 -2.61146 -5.42297 0
M  V30 2732 H 260.112 -2.14616 -2.1488 0
M  V30 2733 H 257.697 -1.10124 -1.0096 0
M  V30 2734 H 259.579 -0.728644 -4.15053 0
M  V30 2735 H 258.254 0.0427798 -3.23672 0
M  V30 2736 H 257.161 -2.26038 -2.9809 0
M  V30 2737 H 258.494 -2.95825 -3.93381 0
M  V30 2738 N 260.146 1.09593 -1.13257 0
M  V30 2739 C 261.093 2.1618 -0.808381 0
M  V30 2740 C 262.063 1.64517 0.228754 0
M  V30 2741 O 263.248 1.9053 0.101381 0
M  V30 2742 C 260.388 3.43973 -0.278675 0
M  V30 2743 C 259.501 4.09545 -1.37466 0
M  V30 2744 C 258.636 5.25088 -0.803479 0
M  V30 2745 C 257.675 5.82579 -1.87799 0
M  V30 2746 N 256.812 6.89486 -1.32488 0
M  V30 2747 H 261.652 2.43254 -1.72138 0
M  V30 2748 H 259.189 1.19392 -0.859294 0
M  V30 2749 H 261.147 4.17174 0.0465583 0
M  V30 2750 H 259.777 3.17223 0.597459 0
M  V30 2751 H 258.829 3.34226 -1.81652 0
M  V30 2752 H 260.141 4.48307 -2.18684 0
M  V30 2753 H 259.295 6.05178 -0.429427 0
M  V30 2754 H 258.034 4.87684 0.0397956 0
M  V30 2755 H 257.039 5.01152 -2.26113 0
M  V30 2756 H 258.264 6.22045 -2.72463 0
M  V30 2757 H 256.21 6.54064 -0.503575 0
M  V30 2758 H 256.127 7.27007 -2.07355 0
M  V30 2759 H 257.395 7.73336 -0.978336 0
M  V30 2760 N 261.624 0.925811 1.2754 0
M  V30 2761 C 262.872 0.564138 1.94067 0
M  V30 2762 C 263.193 -0.897188 1.73134 0
M  V30 2763 O 262.463 -1.63573 1.07799 0
M  V30 2764 H 261.043 0.205645 0.718136 0
M  V30 2765 H 263.705 1.1778 1.55287 0
M  V30 2766 H 262.801 0.76881 3.02483 0
M  V30 2767 N 263.102 -1.41638 0.69111 0
M  V30 2768 C 264.065 -2.29178 0.0319786 0
M  V30 2769 C 265.065 -1.44153 -0.712496 0
M  V30 2770 O 266.255 -1.65354 -0.548053 0
M  V30 2771 C 263.387 -3.26952 -0.965161 0
M  V30 2772 H 264.58 -2.88959 0.802681 0
M  V30 2773 H 262.133 -1.4955 0.454356 0
M  V30 2774 H 262.868 -2.72142 -1.76378 0
M  V30 2775 H 262.653 -3.89685 -0.434522 0
M  V30 2776 H 264.143 -3.92561 -1.42428 0
M  V30 2777 N 264.58 -0.43555 -1.51462 0
M  V30 2778 C 265.527 0.376797 -2.27703 0
M  V30 2779 C 266.497 1.01838 -1.31219 0
M  V30 2780 O 267.682 1.03762 -1.60119 0
M  V30 2781 C 264.822 1.47301 -3.12084 0
M  V30 2782 C 263.935 0.849744 -4.2356 0
M  V30 2783 C 263.07 1.92086 -4.95254 0
M  V30 2784 C 262.109 1.27593 -5.98654 0
M  V30 2785 N 261.246 2.28833 -6.63762 0
M  V30 2786 H 266.086 -0.279734 -2.96684 0
M  V30 2787 H 263.623 -0.149795 -1.46335 0
M  V30 2788 H 265.581 2.11984 -3.59331 0
M  V30 2789 H 264.211 2.0992 -2.45221 0
M  V30 2790 H 263.263 0.0912529 -3.80291 0
M  V30 2791 H 264.575 0.338878 -4.97648 0
M  V30 2792 H 263.729 2.64435 -5.46039 0
M  V30 2793 H 262.468 2.46545 -4.20793 0
M  V30 2794 H 261.473 0.537893 -5.47162 0
M  V30 2795 H 262.698 0.738693 -6.7507 0
M  V30 2796 H 260.644 2.82375 -5.92115 0
M  V30 2797 H 260.561 1.82632 -7.33608 0
M  V30 2798 H 261.829 3.00671 -7.19178 0
M  V30 2799 N 266.058 1.56714 -0.166846 0
M  V30 2800 C 267.306 1.96358 0.478305 0
M  V30 2801 C 267.627 1.0537 1.6408 0
M  V30 2802 O 266.897 0.119154 1.95537 0
M  V30 2803 H 265.477 0.725065 0.179692 0
M  V30 2804 H 268.139 1.93329 -0.246985 0
M  V30 2805 H 267.235 3.00547 0.841292 0
M  V30 2806 N 267.536 -0.106894 1.57237 0
M  V30 2807 C 268.499 -1.11466 2.0027 0
M  V30 2808 C 269.499 -1.33623 0.894519 0
M  V30 2809 O 270.689 -1.29935 1.16028 0
M  V30 2810 C 267.821 -2.46646 2.35327 0
M  V30 2811 H 269.014 -0.744516 2.90512 0
M  V30 2812 H 266.567 -0.351576 1.52295 0
M  V30 2813 H 267.302 -2.88558 1.48003 0
M  V30 2814 H 267.087 -2.31915 3.16161 0
M  V30 2815 H 268.577 -3.19151 2.69318 0
M  V30 2816 N 269.014 -1.53014 -0.377408 0
M  V30 2817 C 269.947 -1.73382 -1.48371 0
M  V30 2818 C 270.925 -0.581879 -1.51832 0
M  V30 2819 O 272.109 -0.81307 -1.70063 0
M  V30 2820 C 269.236 -1.80192 -2.8679 0
M  V30 2821 C 268.282 -3.02056 -3.01105 0
M  V30 2822 S 269.115 -4.61811 -2.71093 0
M  V30 2823 C 270.271 -4.71453 -4.11683 0
M  V30 2824 H 270.504 -2.66946 -1.30872 0
M  V30 2825 H 268.037 -1.43453 -0.571012 0
M  V30 2826 H 269.995 -1.84802 -3.6655 0
M  V30 2827 H 268.656 -0.877008 -3.01608 0
M  V30 2828 H 267.849 -3.03396 -4.02451 0
M  V30 2829 H 267.451 -2.95498 -2.29253 0
M  V30 2830 H 269.743 -4.50781 -5.0577 0
M  V30 2831 H 270.686 -5.73487 -4.15353 0
M  V30 2832 H 271.094 -4.00189 -3.98132 0
M  V30 2833 N 270.492 0.636531 -1.44174 0
M  V30 2834 C 271.74 1.39343 -1.46383 0
M  V30 2835 C 272.061 1.94766 -0.0955715 0
M  V30 2836 O 271.331 1.75452 0.871395 0
M  V30 2837 H 269.911 0.517199 -0.538994 0
M  V30 2838 H 272.573 0.74957 -1.7991 0
M  V30 2839 H 271.669 2.22746 -2.18611 0
M  V30 2840 N 271.97 1.30982 0.876444 0
M  V30 2841 C 273.386 1.09498 1.16113 0
M  V30 2842 C 273.586 -0.13875 2.01022 0
M  V30 2843 O 272.642 -0.829935 2.38471 0
M  V30 2844 C 273.955 2.36308 1.85954 0
M  V30 2845 C 275.503 2.41856 1.98683 0
M  V30 2846 C 275.978 3.6853 2.71937 0
M  V30 2847 N 277.469 3.69387 2.79477 0
M  V30 2848 C 278.204 4.64096 3.36753 0
M  V30 2849 N 277.7 5.69155 3.95012 0
M  V30 2850 N 279.493 4.51626 3.3465 0
M  V30 2851 H 271.644 2.10118 0.310494 0
M  V30 2852 H 273.907 0.926634 0.200131 0
M  V30 2853 H 273.613 3.26388 1.31011 0
M  V30 2854 H 273.487 2.4561 2.86278 0
M  V30 2855 H 275.874 1.52249 2.52793 0
M  V30 2856 H 275.955 2.36523 0.9742 0
M  V30 2857 H 275.599 4.58499 2.18496 0
M  V30 2858 H 275.529 3.71127 3.73593 0
M  V30 2859 H 278.02 2.93438 2.38123 0
M  V30 2860 H 278.333 6.3751 4.36808 0
M  V30 2861 H 276.678 5.72937 3.93406 0
M  V30 2862 H 279.869 3.68728 2.8837 0
M  V30 2863 H 280.042 5.25614 3.7899 0
M  V30 2864 N 273.449 -1.08991 1.13837 0
M  V30 2865 C 274.726 -1.77863 0.813876 0
M  V30 2866 C 275.106 -1.99375 -0.693746 0
M  V30 2867 O 274.454 -1.59875 -1.63255 0
M  V30 2868 C 274.664 -3.0986 1.60586 0
M  V30 2869 C 276.012 -3.84493 1.8014 0
M  V30 2870 O 277.036 -3.19624 1.57222 0
M  V30 2871 O 275.895 -5.00957 2.18413 0
M  V30 2872 H 272.989 -0.771589 0.297624 0
M  V30 2873 H 275.535 -1.15507 1.24323 0
M  V30 2874 H 274.307 -2.89715 2.63022 0
M  V30 2875 H 273.93 -3.79942 1.17173 0
M  V30 2876 N 274.927 -0.932562 -1.27047 0
M  V30 2877 C 276.175 -0.574422 -1.93765 0
M  V30 2878 C 276.496 0.887993 -1.73608 0
M  V30 2879 O 275.766 1.62999 -1.08665 0
M  V30 2880 H 274.346 -0.209451 -0.717035 0
M  V30 2881 H 277.008 -1.18601 -1.5466 0
M  V30 2882 H 276.104 -0.784841 -3.02071 0
M  V30 2883 N 276.405 1.4127 -0.698611 0
M  V30 2884 C 277.368 2.29158 -0.044132 0
M  V30 2885 C 278.368 1.44529 0.704841 0
M  V30 2886 O 279.558 1.65643 0.539276 0
M  V30 2887 C 276.69 3.27459 0.947809 0
M  V30 2888 H 277.883 2.88529 -0.817994 0
M  V30 2889 H 275.436 1.49307 -0.46228 0
M  V30 2890 H 276.171 2.73073 1.74933 0
M  V30 2891 H 275.956 3.8991 0.41385 0
M  V30 2892 H 277.446 3.93311 1.40344 0
M  V30 2893 N 277.883 0.443576 1.51229 0
M  V30 2894 C 279.111 -0.11929 2.06556 0
M  V30 2895 C 279.526 -1.35921 1.31038 0
M  V30 2896 O 278.883 -1.78675 0.371704 0
M  V30 2897 C 278.934 -0.435228 3.5887 0
M  V30 2898 O 278.655 0.755486 4.31537 0
M  V30 2899 C 280.156 -1.04808 4.30732 0
M  V30 2900 H 277.376 -0.0051584 0.67098 0
M  V30 2901 H 279.92 0.624453 1.94733 0
M  V30 2902 H 278.075 -1.12887 3.70588 0
M  V30 2903 H 278.489 0.483491 5.22267 0
M  V30 2904 H 279.963 -1.2191 5.3837 0
M  V30 2905 H 280.44 -2.03081 3.89429 0
M  V30 2906 H 281.046 -0.393637 4.23474 0
M  V30 2907 N 279.361 -1.56624 0.175154 0
M  V30 2908 C 280.609 -1.96609 -0.467885 0
M  V30 2909 C 280.93 -1.06238 -1.63519 0
M  V30 2910 O 280.2 -0.129523 -1.95471 0
M  V30 2911 H 278.78 -0.726008 -0.175845 0
M  V30 2912 H 281.442 -1.93195 0.257234 0
M  V30 2913 H 280.538 -3.00989 -0.825342 0
M  V30 2914 N 280.839 0.0985539 -1.57292 0
M  V30 2915 C 282.25 0.653457 -1.74891 0
M  V30 2916 C 282.601 1.7929 -0.796838 0
M  V30 2917 O 281.726 2.16385 0.0254886 0
M  V30 2918 C 282.321 1.19216 -3.17133 0
M  V30 2919 C 280.88 1.69316 -3.36168 0
M  V30 2920 C 280.027 0.601294 -2.70702 0
M  V30 2921 H 282.978 -0.127497 -1.58187 0
M  V30 2922 H 282.999 2.06154 -3.19814 0
M  V30 2923 H 282.511 0.362635 -3.86402 0
M  V30 2924 H 280.612 2.5468 -2.71972 0
M  V30 2925 H 280.725 1.78853 -4.44464 0
M  V30 2926 H 279.089 1.0399 -2.32504 0
M  V30 2927 H 279.872 -0.217592 -3.4261 0
M  V30 2928 N 282.317 1.53212 0.369288 0
M  V30 2929 C 283.542 1.73423 1.1375 0
M  V30 2930 C 283.967 0.460404 1.82378 0
M  V30 2931 O 283.325 -0.585298 1.71592 0
M  V30 2932 C 283.373 2.89769 2.1463 0
M  V30 2933 O 282.477 2.58119 3.21634 0
M  V30 2934 H 281.818 0.576061 0.330227 0
M  V30 2935 H 284.348 2.00083 0.427547 0
M  V30 2936 H 284.358 3.15829 2.58294 0
M  V30 2937 H 283.033 3.8217 1.64071 0
M  V30 2938 H 281.61 2.42864 2.82969 0
M  V30 2939 N 283.795 -0.628877 1.44509 0
M  V30 2940 C 285.043 -1.38565 1.4712 0
M  V30 2941 C 285.364 -1.94712 0.105899 0
M  V30 2942 O 284.634 -1.75912 -0.862079 0
M  V30 2943 H 283.214 -0.514333 0.541729 0
M  V30 2944 H 285.876 -0.740018 1.80305 0
M  V30 2945 H 284.972 -2.21583 2.19789 0
M  V30 2946 N 285.273 -1.31445 -0.869486 0
M  V30 2947 C 286.684 -1.19042 -1.43826 0
M  V30 2948 C 287.035 0.202919 -1.95148 0
M  V30 2949 O 286.16 1.10071 -1.86315 0
M  V30 2950 C 286.755 -2.15499 -2.6143 0
M  V30 2951 C 285.314 -2.07028 -3.14351 0
M  V30 2952 C 284.461 -2.04701 -1.87063 0
M  V30 2953 H 287.412 -1.43489 -0.677984 0
M  V30 2954 H 287.433 -1.74488 -3.38134 0
M  V30 2955 H 286.945 -3.16899 -2.24046 0
M  V30 2956 H 285.046 -1.08825 -3.56354 0
M  V30 2957 H 285.159 -2.96157 -3.766 0
M  V30 2958 H 283.523 -1.49724 -2.06046 0
M  V30 2959 H 284.306 -3.07857 -1.51917 0
M  V30 2960 N 286.751 1.08385 -1.14413 0
M  V30 2961 C 287.683 2.1519 -0.789036 0
M  V30 2962 C 288.696 1.61638 0.19417 0
M  V30 2963 O 289.885 1.78479 -0.0275711 0
M  V30 2964 C 286.985 3.38565 -0.15058 0
M  V30 2965 C 286.158 4.21501 -1.16857 0
M  V30 2966 C 285.217 5.23277 -0.553832 0
M  V30 2967 O 284.243 5.56041 -1.21686 0
M  V30 2968 N 285.445 5.76629 0.669296 0
M  V30 2969 H 288.21 2.46257 -1.70814 0
M  V30 2970 H 285.771 1.24198 -1.03858 0
M  V30 2971 H 287.763 4.03777 0.273181 0
M  V30 2972 H 286.333 3.05299 0.671667 0
M  V30 2973 H 285.553 3.52265 -1.76926 0
M  V30 2974 H 286.841 4.73731 -1.85624 0
M  V30 2975 H 286.239 5.52243 1.22654 0
M  V30 2976 H 284.796 6.43521 1.03556 0
M  V30 2977 N 288.23 0.939286 1.26551 0
M  V30 2978 C 289.478 0.58469 1.93457 0
M  V30 2979 C 289.799 -0.878774 1.74076 0
M  V30 2980 O 289.069 -1.62421 1.09528 0
M  V30 2981 H 287.649 0.21325 0.715914 0
M  V30 2982 H 290.311 1.1942 1.54029 0
M  V30 2983 H 289.407 0.800849 3.0165 0
M  V30 2984 N 289.708 -1.40897 0.706093 0
M  V30 2985 C 291.119 -1.84023 0.315052 0
M  V30 2986 C 291.47 -1.5906 -1.14866 0
M  V30 2987 O 290.595 -1.06651 -1.88293 0
M  V30 2988 C 291.19 -3.34055 0.565038 0
M  V30 2989 C 289.749 -3.7571 0.227806 0
M  V30 2990 C 288.896 -2.64204 0.842122 0
M  V30 2991 H 291.847 -1.303 0.905963 0
M  V30 2992 H 291.868 -3.80107 -0.172843 0
M  V30 2993 H 291.38 -3.52192 1.63042 0
M  V30 2994 H 289.481 -3.63172 -0.832895 0
M  V30 2995 H 289.594 -4.74103 0.690174 0
M  V30 2996 H 287.958 -2.53255 0.270893 0
M  V30 2997 H 288.741 -2.85155 1.91158 0
M  V30 2998 N 291.186 -0.45159 -1.50991 0
M  V30 2999 C 292.597 0.00818571 -1.86698 0
M  V30 3000 C 292.948 1.40661 -1.3678 0
M  V30 3001 O 292.073 2.0391 -0.724546 0
M  V30 3002 C 292.668 0.0216303 -3.38793 0
M  V30 3003 C 291.227 0.425865 -3.73983 0
M  V30 3004 C 290.374 -0.372163 -2.74791 0
M  V30 3005 H 293.325 -0.666785 -1.44013 0
M  V30 3006 H 293.346 0.828078 -3.7138 0
M  V30 3007 H 292.858 -0.996288 -3.75094 0
M  V30 3008 H 290.959 1.44886 -3.43277 0
M  V30 3009 H 291.072 0.140761 -4.78893 0
M  V30 3010 H 289.436 0.171498 -2.54122 0
M  V30 3011 H 290.219 -1.38922 -3.13935 0
M  V30 3012 N 292.664 1.56529 -0.183458 0
M  V30 3013 C 293.912 1.96855 0.457452 0
M  V30 3014 C 294.233 1.07104 1.62953 0
M  V30 3015 O 293.503 0.139887 1.954 0
M  V30 3016 H 292.083 0.72693 0.171992 0
M  V30 3017 H 294.745 1.93056 -0.267476 0
M  V30 3018 H 293.841 3.01423 0.809368 0
M  V30 3019 N 294.142 -0.090211 1.57342 0
M  V30 3020 C 295.388 -0.793982 1.86611 0
M  V30 3021 C 295.721 -1.78142 0.773252 0
M  V30 3022 O 294.996 -1.93271 -0.218304 0
M  V30 3023 C 295.279 -1.51839 3.26523 0
M  V30 3024 C 295.132 -0.548609 4.46442 0
M  V30 3025 C 296.451 -2.46779 3.64401 0
M  V30 3026 H 293.57 -0.287186 0.678744 0
M  V30 3027 H 296.212 -0.0575076 1.89913 0
M  V30 3028 H 294.362 -2.14617 3.23839 0
M  V30 3029 H 296.034 0.0725513 4.61243 0
M  V30 3030 H 294.277 0.137614 4.33582 0
M  V30 3031 H 294.948 -1.09271 5.41076 0
M  V30 3032 H 297.424 -1.94089 3.68061 0
M  V30 3033 H 296.3 -2.94479 4.63221 0
M  V30 3034 H 296.561 -3.30758 2.93346 0
M  V30 3035 N 295.62 -1.53406 -0.361157 0
M  V30 3036 C 296.567 -1.80156 -1.44265 0
M  V30 3037 C 297.537 -0.646183 -1.53015 0
M  V30 3038 O 298.722 -0.888818 -1.68833 0
M  V30 3039 C 295.862 -2.00116 -2.81154 0
M  V30 3040 C 294.975 -3.27833 -2.81335 0
M  V30 3041 C 294.11 -3.37957 -4.09828 0
M  V30 3042 C 293.149 -4.59689 -4.04168 0
M  V30 3043 N 292.286 -4.66942 -5.24318 0
M  V30 3044 H 297.126 -2.72438 -1.20754 0
M  V30 3045 H 294.663 -1.34954 -0.585296 0
M  V30 3046 H 296.621 -2.09677 -3.60682 0
M  V30 3047 H 295.251 -1.11167 -3.03054 0
M  V30 3048 H 294.303 -3.27204 -1.94014 0
M  V30 3049 H 295.615 -4.17442 -2.73027 0
M  V30 3050 H 294.769 -3.46853 -4.97773 0
M  V30 3051 H 293.508 -2.46372 -4.20894 0
M  V30 3052 H 292.513 -4.50889 -3.14609 0
M  V30 3053 H 293.738 -5.5262 -3.947 0
M  V30 3054 H 291.684 -3.7826 -5.35962 0
M  V30 3055 H 291.601 -5.50462 -5.18197 0
M  V30 3056 H 292.869 -4.80127 -6.14084 0
M  V30 3057 N 297.098 0.621204 -1.44841 0
M  V30 3058 C 298.346 1.37783 -1.47852 0
M  V30 3059 C 298.667 1.94653 -0.116224 0
M  V30 3060 O 297.937 1.76367 0.852737 0
M  V30 3061 H 296.517 0.511453 -0.544449 0
M  V30 3062 H 299.179 0.730446 -1.80694 0
M  V30 3063 H 298.275 2.20414 -2.20961 0
M  V30 3064 N 298.576 1.31904 0.862503 0
M  V30 3065 C 299.486 1.22161 2.00285 0
M  V30 3066 C 300.502 0.136785 1.73462 0
M  V30 3067 O 301.678 0.355994 1.98229 0
M  V30 3068 C 298.743 0.937093 3.33796 0
M  V30 3069 C 297.804 2.10957 3.73893 0
M  V30 3070 C 297.037 1.83853 5.01033 0
M  V30 3071 O 297.26 0.777274 5.65079 0
M  V30 3072 O 296.194 2.69741 5.38074 0
M  V30 3073 H 300.02 2.18008 2.11439 0
M  V30 3074 H 297.605 1.11716 0.991957 0
M  V30 3075 H 299.487 0.794583 4.13841 0
M  V30 3076 H 298.162 0.00871894 3.23699 0
M  V30 3077 H 297.069 2.30752 2.94456 0
M  V30 3078 H 298.402 3.02046 3.88625 0
M  V30 3079 N 300.054 -1.07777 1.14986 0
M  V30 3080 C 301.017 -2.13041 0.845358 0
M  V30 3081 C 302.017 -1.60071 -0.152931 0
M  V30 3082 O 303.207 -1.74033 0.0761879 0
M  V30 3083 C 300.339 -3.39896 0.261383 0
M  V30 3084 H 301.532 -2.41485 1.77834 0
M  V30 3085 H 299.085 -1.23595 0.956757 0
M  V30 3086 H 299.82 -3.17091 -0.68 0
M  V30 3087 H 299.605 -3.79642 0.980514 0
M  V30 3088 H 301.095 -4.17548 0.0657687 0
M  V30 3089 N 301.532 -0.945985 -1.26051 0
M  V30 3090 C 302.78 -0.594941 -1.93145 0
M  V30 3091 C 303.101 0.86953 -1.7454 0
M  V30 3092 O 302.371 1.61838 -1.10387 0
M  V30 3093 H 300.951 -0.217044 -0.714773 0
M  V30 3094 H 303.613 -1.20235 -1.53393 0
M  V30 3095 H 302.709 -0.816835 -3.01221 0
M  V30 3096 N 303.011 1.40521 -0.713556 0
M  V30 3097 C 303.941 2.33381 -0.0743864 0
M  V30 3098 C 304.922 1.52784 0.747735 0
M  V30 3099 O 306.107 1.81258 0.697071 0
M  V30 3100 C 303.237 3.36748 0.849598 0
M  V30 3101 C 302.191 4.27793 0.133247 0
M  V30 3102 C 301.517 5.21679 1.17281 0
M  V30 3103 C 302.817 5.12415 -1.01134 0
M  V30 3104 H 304.511 2.87081 -0.850007 0
M  V30 3105 H 302.057 1.38034 -0.410201 0
M  V30 3106 H 304.01 4.00648 1.30612 0
M  V30 3107 H 302.734 2.81439 1.65709 0
M  V30 3108 H 301.393 3.65342 -0.303426 0
M  V30 3109 H 301.041 4.62677 1.9733 0
M  V30 3110 H 300.741 5.83435 0.698397 0
M  V30 3111 H 302.265 5.88456 1.62947 0
M  V30 3112 H 303.679 5.69781 -0.634274 0
M  V30 3113 H 302.076 5.83203 -1.41399 0
M  V30 3114 H 303.146 4.48514 -1.84292 0
M  V30 3115 N 304.489 0.459591 1.5075 0
M  V30 3116 C 305.421 -0.37665 2.26084 0
M  V30 3117 C 306.434 -0.967109 1.30961 0
M  V30 3118 O 307.623 -0.857468 1.56556 0
M  V30 3119 C 304.723 -1.54112 3.01832 0
M  V30 3120 C 303.896 -1.06553 4.24223 0
M  V30 3121 C 302.955 -2.1027 4.82362 0
M  V30 3122 O 301.981 -1.68798 5.43595 0
M  V30 3123 N 303.183 -3.42974 4.68347 0
M  V30 3124 H 305.948 0.269124 2.98489 0
M  V30 3125 H 303.509 0.28972 1.59287 0
M  V30 3126 H 305.501 -2.23165 3.37608 0
M  V30 3127 H 304.071 -2.0918 2.32298 0
M  V30 3128 H 303.291 -0.201274 3.93686 0
M  V30 3129 H 304.579 -0.725516 5.03601 0
M  V30 3130 H 303.977 -3.79385 4.19623 0
M  V30 3131 H 302.534 -4.07858 5.08424 0
M  V30 3132 N 305.967 -1.56429 0.191757 0
M  V30 3133 C 307.215 -1.97095 -0.447006 0
M  V30 3134 C 307.536 -1.07967 -1.62383 0
M  V30 3135 O 306.806 -0.150248 -1.95323 0
M  V30 3136 H 305.386 -0.727832 -0.168135 0
M  V30 3137 H 308.048 -1.92911 0.27771 0
M  V30 3138 H 307.144 -3.01848 -0.793371 0
M  V30 3139 N 307.445 0.0818655 -1.57387 0
M  V30 3140 C 308.856 0.634871 -1.75574 0
M  V30 3141 C 309.207 1.78435 -0.815809 0
M  V30 3142 O 308.332 2.164 0.0025366 0
M  V30 3143 C 308.927 1.15845 -3.18379 0
M  V30 3144 C 307.486 1.65741 -3.37945 0
M  V30 3145 C 306.633 0.572549 -2.71325 0
M  V30 3146 H 309.584 -0.144268 -1.58043 0
M  V30 3147 H 309.605 2.02751 -3.21982 0
M  V30 3148 H 309.117 0.321631 -3.86765 0
M  V30 3149 H 307.218 2.51781 -2.74658 0
M  V30 3150 H 307.331 1.74129 -4.46336 0
M  V30 3151 H 305.695 1.01518 -2.33594 0
M  V30 3152 H 306.478 -0.253918 -3.4236 0
M  V30 3153 N 308.923 1.53595 0.353017 0
M  V30 3154 C 309.855 1.77219 1.45348 0
M  V30 3155 C 310.868 0.65324 1.49119 0
M  V30 3156 O 312.057 0.929775 1.52373 0
M  V30 3157 C 309.157 1.84841 2.84055 0
M  V30 3158 C 308.33 3.14649 3.03833 0
M  V30 3159 C 307.389 3.13351 4.22727 0
M  V30 3160 O 306.415 3.87107 4.17297 0
M  V30 3161 N 307.617 2.35052 5.30783 0
M  V30 3162 H 310.382 2.72178 1.25457 0
M  V30 3163 H 307.943 1.52528 0.542833 0
M  V30 3164 H 309.935 1.81435 3.61751 0
M  V30 3165 H 308.505 0.971114 2.97133 0
M  V30 3166 H 307.725 3.31256 2.13689 0
M  V30 3167 H 309.013 4.00411 3.13925 0
M  V30 3168 H 308.411 1.74663 5.38061 0
M  V30 3169 H 306.968 2.37453 6.07009 0
M  V30 3170 N 310.401 -0.613514 1.45168 0
M  V30 3171 C 311.649 -1.36997 1.48581 0
M  V30 3172 C 311.97 -1.94589 0.126545 0
M  V30 3173 O 311.24 -1.76816 -0.843372 0
M  V30 3174 H 309.82 -0.508558 0.547154 0
M  V30 3175 H 312.482 -0.720853 1.81079 0
M  V30 3176 H 311.578 -2.1924 2.22127 0
M  V30 3177 N 311.879 -1.3236 -0.855495 0
M  V30 3178 C 312.842 -1.21164 -1.94556 0
M  V30 3179 C 313.842 -0.134908 -1.60233 0
M  V30 3180 O 315.032 -0.385249 -1.69887 0
M  V30 3181 C 312.164 -0.863192 -3.29791 0
M  V30 3182 H 313.357 -2.18038 -2.05911 0
M  V30 3183 H 310.91 -1.16179 -1.04557 0
M  V30 3184 H 311.645 0.103769 -3.24134 0
M  V30 3185 H 311.43 -1.64166 -3.56078 0
M  V30 3186 H 312.92 -0.809156 -4.09686 0
M  V30 3187 N 313.357 1.07166 -1.15556 0
M  V30 3188 C 314.768 1.6127 -0.940693 0
M  V30 3189 C 315.119 1.89251 0.517551 0
M  V30 3190 O 314.244 1.65937 1.38903 0
M  V30 3191 C 314.839 2.92993 -1.7012 0
M  V30 3192 C 313.398 3.43832 -1.53156 0
M  V30 3193 C 312.545 2.1786 -1.71558 0
M  V30 3194 H 315.496 0.90229 -1.30554 0
M  V30 3195 H 315.517 3.62007 -1.17181 0
M  V30 3196 H 315.029 2.72596 -2.76248 0
M  V30 3197 H 313.13 3.69307 -0.494294 0
M  V30 3198 H 313.243 4.19747 -2.30975 0
M  V30 3199 H 311.607 2.2765 -1.14225 0
M  V30 3200 H 312.39 1.99956 -2.79056 0
M  V30 3201 N 314.835 0.952656 1.25548 0
M  V30 3202 C 316.083 0.605176 1.92826 0
M  V30 3203 C 316.404 -0.860261 1.74999 0
M  V30 3204 O 315.674 -1.6125 1.11244 0
M  V30 3205 H 314.254 0.220832 0.713612 0
M  V30 3206 H 316.916 1.21047 1.52754 0
M  V30 3207 H 316.012 0.832798 3.00784 0
M  V30 3208 N 316.313 -1.40141 0.720998 0
M  V30 3209 C 317.26 -2.30688 0.071919 0
M  V30 3210 C 318.23 -1.48476 -0.744584 0
M  V30 3211 O 319.415 -1.77201 -0.707423 0
M  V30 3212 C 316.555 -3.34724 -0.839855 0
M  V30 3213 C 315.668 -4.31998 -0.0122438 0
M  V30 3214 C 314.803 -5.23102 -0.923995 0
M  V30 3215 C 313.842 -6.12033 -0.0907969 0
M  V30 3216 N 312.979 -6.95537 -0.957718 0
M  V30 3217 H 317.819 -2.85628 0.849755 0
M  V30 3218 H 315.356 -1.40653 0.430726 0
M  V30 3219 H 317.314 -3.93618 -1.38279 0
M  V30 3220 H 315.944 -2.81274 -1.58381 0
M  V30 3221 H 314.996 -3.74841 0.64794 0
M  V30 3222 H 316.308 -4.94772 0.632595 0
M  V30 3223 H 315.462 -5.86953 -1.53527 0
M  V30 3224 H 314.201 -4.60615 -1.60264 0
M  V30 3225 H 313.206 -5.47207 0.533377 0
M  V30 3226 H 314.431 -6.76581 0.584428 0
M  V30 3227 H 312.377 -6.35633 -1.62192 0
M  V30 3228 H 312.294 -7.55099 -0.36904 0
M  V30 3229 H 313.562 -7.63832 -1.555 0
M  V30 3230 N 317.792 -0.46758 -1.50504 0
M  V30 3231 C 318.724 0.364655 -2.26281 0
M  V30 3232 C 319.737 0.960151 -1.31472 0
M  V30 3233 O 320.926 0.849153 -1.57008 0
M  V30 3234 C 318.026 1.52509 -3.02645 0
M  V30 3235 C 317.199 1.04302 -4.24782 0
M  V30 3236 C 316.258 2.07709 -4.8347 0
M  V30 3237 O 315.284 1.65913 -5.44483 0
M  V30 3238 N 316.486 3.40485 -4.70159 0
M  V30 3239 H 319.251 -0.28495 -2.98342 0
M  V30 3240 H 316.812 -0.298163 -1.59131 0
M  V30 3241 H 318.804 2.21371 -3.38787 0
M  V30 3242 H 317.374 2.07945 -2.33404 0
M  V30 3243 H 316.594 0.180393 -3.93787 0
M  V30 3244 H 317.882 0.698798 -5.03978 0
M  V30 3245 H 317.28 3.77155 -4.21629 0
M  V30 3246 H 315.837 4.05156 -5.1058 0
M  V30 3247 N 319.27 1.56325 -0.20005 0
M  V30 3248 C 320.518 1.97329 0.436547 0
M  V30 3249 C 320.839 1.08826 1.61808 0
M  V30 3250 O 320.109 0.160604 1.95241 0
M  V30 3251 H 318.689 0.728714 0.164272 0
M  V30 3252 H 321.351 1.92761 -0.287937 0
M  V30 3253 H 320.447 3.02264 0.777353 0
M  V30 3254 N 320.748 -0.0735177 1.57428 0
M  V30 3255 C 321.711 -1.07192 2.02589 0
M  V30 3256 C 322.711 -1.31695 0.922661 0
M  V30 3257 O 323.901 -1.27445 1.18758 0
M  V30 3258 C 321.033 -2.41599 2.40506 0
M  V30 3259 H 322.226 -0.682727 2.92025 0
M  V30 3260 H 319.779 -0.319193 1.53006 0
M  V30 3261 H 320.514 -2.85354 1.5409 0
M  V30 3262 H 320.299 -2.25156 3.21009 0
M  V30 3263 H 321.789 -3.13367 2.76027 0
M  V30 3264 N 322.226 -1.5378 -0.344866 0
M  V30 3265 C 323.454 -1.74899 -1.10534 0
M  V30 3266 C 323.869 -0.487534 -1.82397 0
M  V30 3267 O 323.226 0.540741 -1.74305 0
M  V30 3268 C 323.277 -2.92822 -2.11984 0
M  V30 3269 O 322.998 -4.14089 -1.43044 0
M  V30 3270 C 324.499 -3.25982 -3.00417 0
M  V30 3271 H 321.719 -0.584426 -0.329678 0
M  V30 3272 H 324.263 -2.006 -0.397474 0
M  V30 3273 H 322.418 -2.69457 -2.78338 0
M  V30 3274 H 322.832 -4.80272 -2.10805 0
M  V30 3275 H 324.306 -4.11848 -3.67539 0
M  V30 3276 H 324.783 -2.42228 -3.66363 0
M  V30 3277 H 325.389 -3.51349 -2.39654 0
M  V30 3278 N 323.704 0.605807 -1.45491 0
M  V30 3279 C 324.952 1.36207 -1.49305 0
M  V30 3280 C 325.273 1.94519 -0.136863 0
M  V30 3281 O 324.543 1.77261 0.833983 0
M  V30 3282 H 323.123 0.50565 -0.549843 0
M  V30 3283 H 325.785 0.711239 -1.81459 0
M  V30 3284 H 324.881 2.18058 -2.23287 0
M  V30 3285 N 325.182 1.32811 0.848464 0
M  V30 3286 C 326.41 1.26739 1.63538 0
M  V30 3287 C 326.825 -0.163484 1.88091 0
M  V30 3288 O 326.182 -1.10258 1.45429 0
M  V30 3289 C 326.233 2.03013 2.99112 0
M  V30 3290 O 325.954 3.40518 2.75643 0
M  V30 3291 C 327.455 2.04038 3.93552 0
M  V30 3292 H 324.675 0.437024 0.509167 0
M  V30 3293 H 327.219 1.75033 1.05753 0
M  V30 3294 H 325.374 1.58426 3.53525 0
M  V30 3295 H 325.788 3.79635 3.61908 0
M  V30 3296 H 327.262 2.61877 4.85926 0
M  V30 3297 H 327.739 1.0282 4.26995 0
M  V30 3298 H 328.345 2.486 3.45077 0
M  V30 3299 N 326.66 -1.06551 1.16123 0
M  V30 3300 C 328.071 -1.60768 0.949232 0
M  V30 3301 C 328.422 -1.89523 -0.507508 0
M  V30 3302 O 327.547 -1.66671 -1.38021 0
M  V30 3303 C 328.142 -2.92086 1.71671 0
M  V30 3304 C 326.701 -3.43015 1.54977 0
M  V30 3305 C 325.848 -2.16947 1.72711 0
M  V30 3306 H 328.799 -0.895354 1.31031 0
M  V30 3307 H 328.82 -3.6138 1.19099 0
M  V30 3308 H 328.332 -2.71127 2.7769 0
M  V30 3309 H 326.433 -3.69039 0.513873 0
M  V30 3310 H 326.546 -4.18516 2.33198 0
M  V30 3311 H 324.91 -2.27041 1.15431 0
M  V30 3312 H 325.693 -1.98473 2.80113 0
M  V30 3313 N 328.138 -0.959301 -1.25041 0
M  V30 3314 C 329.386 -0.615393 -1.92503 0
M  V30 3315 C 329.707 0.850969 -1.75452 0
M  V30 3316 O 328.977 1.60658 -1.12098 0
M  V30 3317 H 327.557 -0.224613 -0.712431 0
M  V30 3318 H 330.219 -1.21855 -1.5211 0
M  V30 3319 H 329.315 -0.848738 -3.00338 0
M  V30 3320 N 329.616 1.39756 -0.72842 0
M  V30 3321 C 331.027 1.83498 -0.344289 0
M  V30 3322 C 331.378 1.60868 1.12321 0
M  V30 3323 O 330.503 1.09634 1.86573 0
M  V30 3324 C 331.098 3.33114 -0.618112 0
M  V30 3325 C 329.657 3.753 -0.287549 0
M  V30 3326 C 328.804 2.62831 -0.884048 0
M  V30 3327 H 331.755 1.28842 -0.926578 0
M  V30 3328 H 331.776 3.80334 0.112349 0
M  V30 3329 H 331.288 3.49553 -1.68625 0
M  V30 3330 H 329.389 3.64451 0.775012 0
M  V30 3331 H 329.502 4.72945 -0.765512 0
M  V30 3332 H 327.866 2.52792 -0.311149 0
M  V30 3333 H 328.649 2.82078 -1.95671 0
M  V30 3334 N 331.094 0.475555 1.50254 0
M  V30 3335 C 332.026 -0.352649 2.26471 0
M  V30 3336 C 333.039 -0.953165 1.3198 0
M  V30 3337 O 334.228 -0.840815 1.57457 0
M  V30 3338 C 331.328 -1.50902 3.0345 0
M  V30 3339 C 330.501 -1.02047 4.25329 0
M  V30 3340 C 329.56 -2.05142 4.84565 0
M  V30 3341 O 328.586 -1.63023 5.45355 0
M  V30 3342 N 329.788 -3.37987 4.71959 0
M  V30 3343 H 332.553 0.300767 2.98187 0
M  V30 3344 H 330.114 0.306598 1.5897 0
M  V30 3345 H 332.106 -2.19572 3.39956 0
M  V30 3346 H 330.676 -2.06705 2.34504 0
M  V30 3347 H 329.896 -0.159507 3.93877 0
M  V30 3348 H 331.184 -0.672061 5.04342 0
M  V30 3349 H 330.582 -3.74913 4.23623 0
M  V30 3350 H 329.139 -4.02443 5.12721 0
M  V30 3351 N 332.573 -1.56217 0.208337 0
M  V30 3352 C 333.821 -1.97558 -0.426076 0
M  V30 3353 C 334.142 -1.09683 -1.61229 0
M  V30 3354 O 333.412 -0.170956 -1.95153 0
M  V30 3355 H 331.992 -0.729575 -0.160405 0
M  V30 3356 H 334.654 -1.92606 0.298155 0
M  V30 3357 H 333.75 -3.02672 -0.761312 0
M  V30 3358 N 334.051 0.0651679 -1.57465 0
M  V30 3359 C 334.961 1.09448 -2.07505 0
M  V30 3360 C 335.977 1.41974 -1.00595 0
M  V30 3361 O 337.153 1.52018 -1.32107 0
M  V30 3362 C 334.218 2.38689 -2.51453 0
M  V30 3363 C 333.279 2.13073 -3.72691 0
M  V30 3364 C 332.512 3.36152 -4.14533 0
M  V30 3365 O 332.735 4.45517 -3.56189 0
M  V30 3366 O 331.669 3.23974 -5.07272 0
M  V30 3367 H 335.495 0.69935 -2.95538 0
M  V30 3368 H 333.08 0.279752 -1.46757 0
M  V30 3369 H 334.962 3.14736 -2.80212 0
M  V30 3370 H 333.637 2.77568 -1.66546 0
M  V30 3371 H 332.544 1.34709 -3.49005 0
M  V30 3372 H 333.877 1.79071 -4.5847 0
M  V30 3373 N 335.529 1.53961 0.336706 0
M  V30 3374 C 336.476 1.82428 1.41381 0
M  V30 3375 C 337.446 0.670444 1.51968 0
M  V30 3376 O 338.631 0.915565 1.67398 0
M  V30 3377 C 335.771 2.04564 2.77934 0
M  V30 3378 C 334.884 3.32267 2.76084 0
M  V30 3379 C 334.019 3.44434 4.04399 0
M  V30 3380 C 333.058 4.66061 3.96804 0
M  V30 3381 N 332.195 4.75224 5.16823 0
M  V30 3382 H 337.035 2.74324 1.16405 0
M  V30 3383 H 334.572 1.35869 0.563752 0
M  V30 3384 H 336.53 2.15388 3.57301 0
M  V30 3385 H 335.16 1.15974 3.01247 0
M  V30 3386 H 334.212 3.3025 1.88784 0
M  V30 3387 H 335.524 4.21733 2.66351 0
M  V30 3388 H 334.678 3.54728 4.92192 0
M  V30 3389 H 333.417 2.53037 4.16921 0
M  V30 3390 H 332.422 4.55838 3.07396 0
M  V30 3391 H 333.647 5.58829 3.85858 0
M  V30 3392 H 331.593 3.86739 5.29876 0
M  V30 3393 H 331.51 5.58636 5.09374 0
M  V30 3394 H 332.778 4.89835 6.06367 0
M  V30 3395 N 337.007 -0.598083 1.45811 0
M  V30 3396 C 338.255 -1.35413 1.50026 0
M  V30 3397 C 338.576 -1.94444 0.147177 0
M  V30 3398 O 337.846 -1.77701 -0.824571 0
M  V30 3399 H 336.426 -0.502727 0.552517 0
M  V30 3400 H 339.088 -0.701606 1.81834 0
M  V30 3401 H 338.184 -2.16871 2.2444 0
M  V30 3402 N 338.485 -1.33259 -0.841409 0
M  V30 3403 C 339.71 -1.2775 -1.63385 0
M  V30 3404 C 340.135 0.149188 -1.87507 0
M  V30 3405 O 339.493 1.10498 -1.43736 0
M  V30 3406 C 339.541 -2.05571 -2.96265 0
M  V30 3407 O 338.645 -1.41257 -3.87453 0
M  V30 3408 H 337.986 -0.439627 -0.497618 0
M  V30 3409 H 340.516 -1.75782 -1.04699 0
M  V30 3410 H 340.526 -2.16241 -3.45982 0
M  V30 3411 H 339.201 -3.09309 -2.7803 0
M  V30 3412 H 337.778 -1.39217 -3.45938 0
M  V30 3413 N 339.963 1.05934 -1.16686 0
M  V30 3414 C 340.91 2.13499 -0.876748 0
M  V30 3415 C 341.88 1.65162 0.176299 0
M  V30 3416 O 343.065 1.90757 0.0407143 0
M  V30 3417 C 340.205 3.42912 -0.387967 0
M  V30 3418 C 339.318 4.04964 -1.50426 0
M  V30 3419 C 338.453 5.22266 -0.970125 0
M  V30 3420 C 337.492 5.76309 -2.06238 0
M  V30 3421 N 336.629 6.84922 -1.54356 0
M  V30 3422 H 341.469 2.37654 -1.7979 0
M  V30 3423 H 339.006 1.16598 -0.896843 0
M  V30 3424 H 340.964 4.17111 -0.086186 0
M  V30 3425 H 339.594 3.18963 0.496235 0
M  V30 3426 H 338.646 3.28277 -1.92193 0
M  V30 3427 H 339.958 4.41122 -2.32836 0
M  V30 3428 H 339.112 6.03506 -0.621743 0
M  V30 3429 H 337.851 4.87564 -0.115377 0
M  V30 3430 H 336.856 4.93704 -2.41942 0
M  V30 3431 H 338.081 6.13062 -2.92115 0
M  V30 3432 H 336.027 6.52131 -0.711406 0
M  V30 3433 H 335.944 7.20043 -2.30379 0
M  V30 3434 H 337.212 7.69832 -1.22387 0
M  V30 3435 N 341.441 0.965919 1.2453 0
M  V30 3436 C 342.689 0.625593 1.92174 0
M  V30 3437 C 343.01 -0.841652 1.75901 0
M  V30 3438 O 342.28 -1.60061 1.12948 0
M  V30 3439 H 340.86 0.228388 0.71123 0
M  V30 3440 H 343.522 1.2266 1.51461 0
M  V30 3441 H 342.618 0.864653 2.99884 0
M  V30 3442 N 342.919 -1.39368 0.735821 0
M  V30 3443 C 344.196 -1.94465 0.210395 0
M  V30 3444 C 344.576 -1.67254 -1.28799 0
M  V30 3445 O 343.924 -1.00123 -2.05396 0
M  V30 3446 C 344.134 -3.4472 0.544897 0
M  V30 3447 C 345.482 -4.21708 0.494689 0
M  V30 3448 O 346.506 -3.52922 0.482136 0
M  V30 3449 O 345.365 -5.44299 0.489947 0
M  V30 3450 H 342.459 -0.826096 0.0386666 0
M  V30 3451 H 345.005 -1.48863 0.814735 0
M  V30 3452 H 343.777 -3.57963 1.58045 0
M  V30 3453 H 343.4 -3.97502 -0.08837 0
M  V30 3454 N 344.397 -0.483516 -1.5 0
M  V30 3455 C 345.645 0.067027 -2.01989 0
M  V30 3456 C 345.966 1.3909 -1.36671 0
M  V30 3457 O 345.236 1.88978 -0.516152 0
M  V30 3458 H 343.816 0.0277606 -0.746484 0
M  V30 3459 H 346.478 -0.636773 -1.84204 0
M  V30 3460 H 345.574 0.209484 -3.11396 0
M  V30 3461 N 345.875 1.56104 -0.216619 0
M  V30 3462 C 347.123 1.97781 0.415593 0
M  V30 3463 C 347.444 1.10536 1.60645 0
M  V30 3464 O 346.714 0.181303 1.95059 0
M  V30 3465 H 345.294 0.730415 0.156534 0
M  V30 3466 H 347.956 1.92445 -0.308366 0
M  V30 3467 H 347.052 3.03072 0.74525 0
M  V30 3468 N 347.353 -0.0568162 1.57498 0
M  V30 3469 C 348.283 -1.06593 2.0775 0
M  V30 3470 C 349.264 -1.39448 0.974082 0
M  V30 3471 O 350.449 -1.48815 1.24771 0
M  V30 3472 C 347.579 -2.37509 2.5339 0
M  V30 3473 C 346.533 -2.1897 3.67745 0
M  V30 3474 C 345.859 -3.55402 3.99492 0
M  V30 3475 C 347.159 -1.59859 4.97235 0
M  V30 3476 H 348.853 -0.647706 2.9231 0
M  V30 3477 H 346.399 -0.310116 1.40621 0
M  V30 3478 H 348.352 -3.08409 2.87162 0
M  V30 3479 H 347.076 -2.8134 1.65878 0
M  V30 3480 H 345.735 -1.50508 3.3428 0
M  V30 3481 H 345.383 -3.9683 3.09088 0
M  V30 3482 H 345.083 -3.43831 4.76502 0
M  V30 3483 H 346.607 -4.27708 4.35773 0
M  V30 3484 H 348.021 -2.20642 5.29141 0
M  V30 3485 H 346.418 -1.58942 5.78669 0
M  V30 3486 H 347.488 -0.561506 4.81638 0
M  V30 3487 N 348.832 -1.54138 -0.328536 0
M  V30 3488 C 350.081 -1.71318 -1.06456 0
M  V30 3489 C 350.394 -0.491109 -1.89334 0
M  V30 3490 O 351.6 -0.54416 -2.65991 0
M  V30 3491 C 350.056 -3.03 -1.94214 0
M  V30 3492 C 349.664 -4.32595 -1.16471 0
M  V30 3493 C 351.408 -3.29544 -2.67583 0
M  V30 3494 C 349.315 -5.55341 -2.03347 0
M  V30 3495 H 348.245 -0.638429 -0.401155 0
M  V30 3496 H 350.896 -1.80633 -0.323106 0
M  V30 3497 H 349.278 -2.87579 -2.72239 0
M  V30 3498 H 350.452 -4.58766 -0.432525 0
M  V30 3499 H 348.767 -4.12777 -0.548063 0
M  V30 3500 H 351.364 -4.18444 -3.3288 0
M  V30 3501 H 351.707 -2.47206 -3.34955 0
M  V30 3502 H 352.24 -3.45809 -1.96623 0
M  V30 3503 H 348.979 -6.40268 -1.40491 0
M  V30 3504 H 348.499 -5.33397 -2.74313 0
M  V30 3505 H 350.178 -5.91557 -2.62049 0
M  V30 3506 N 350.31 0.590341 -1.46126 0
M  V30 3507 C 351.558 1.34616 -1.50742 0
M  V30 3508 C 351.879 1.94363 -0.157486 0
M  V30 3509 O 351.149 1.78136 0.815136 0
M  V30 3510 H 349.729 0.499789 -0.555175 0
M  V30 3511 H 352.391 0.691953 -1.82203 0
M  V30 3512 H 351.487 2.15678 -2.25587 0
M  V30 3513 N 351.788 1.33704 0.83433 0
M  V30 3514 C 353.199 1.22813 1.4062 0
M  V30 3515 C 353.55 -0.151107 1.95617 0
M  V30 3516 O 352.675 -1.05092 1.89168 0
M  V30 3517 C 353.27 2.22355 2.55624 0
M  V30 3518 C 351.829 2.1529 3.08751 0
M  V30 3519 C 350.976 2.09589 1.8157 0
M  V30 3520 H 353.927 1.45236 0.639702 0
M  V30 3521 H 353.948 1.83391 3.33389 0
M  V30 3522 H 353.46 3.22728 2.15566 0
M  V30 3523 H 351.561 1.18235 3.53343 0
M  V30 3524 H 351.674 3.06038 3.68616 0
M  V30 3525 H 350.038 1.55134 2.02004 0
M  V30 3526 H 350.821 3.11777 1.43701 0
M  V30 3527 N 353.266 -1.05314 1.17247 0
M  V30 3528 C 354.213 -2.13031 0.888058 0
M  V30 3529 C 355.183 -1.65253 -0.167537 0
M  V30 3530 O 356.368 -1.90775 -0.0305974 0
M  V30 3531 C 353.508 -3.42702 0.406147 0
M  V30 3532 C 352.621 -4.04161 1.52572 0
M  V30 3533 C 351.756 -5.21744 0.997808 0
M  V30 3534 C 350.795 -5.75207 2.09291 0
M  V30 3535 N 349.932 -6.84094 1.57986 0
M  V30 3536 H 354.772 -2.36698 1.81048 0
M  V30 3537 H 352.309 -1.16121 0.903013 0
M  V30 3538 H 354.267 -4.17059 0.108305 0
M  V30 3539 H 352.897 -3.19222 -0.479313 0
M  V30 3540 H 351.949 -3.27253 1.93931 0
M  V30 3541 H 353.261 -4.39881 2.35172 0
M  V30 3542 H 352.415 -6.03168 0.653739 0
M  V30 3543 H 351.154 -4.87495 0.141232 0
M  V30 3544 H 350.159 -4.92414 2.44557 0
M  V30 3545 H 351.384 -6.11505 2.95362 0
M  V30 3546 H 349.33 -6.51745 0.74598 0
M  V30 3547 H 349.247 -7.18811 2.34195 0
M  V30 3548 H 350.515 -7.69172 1.26468 0
M  V30 3549 N 354.744 -0.972509 -1.24016 0
M  V30 3550 C 355.992 -0.635776 -1.91839 0
M  V30 3551 C 356.313 0.832312 -1.76345 0
M  V30 3552 O 355.583 1.5946 -1.13795 0
M  V30 3553 H 354.163 -0.232157 -0.710009 0
M  V30 3554 H 356.825 -1.23462 -1.50809 0
M  V30 3555 H 355.921 -0.880545 -2.99421 0
M  V30 3556 N 356.222 1.38976 -0.743202 0
M  V30 3557 C 357.132 2.3434 -0.110399 0
M  V30 3558 C 358.148 1.58741 0.712559 0
M  V30 3559 O 359.324 1.9099 0.639125 0
M  V30 3560 C 356.389 3.37812 0.780012 0
M  V30 3561 C 355.45 4.29263 -0.0561319 0
M  V30 3562 C 354.683 5.27793 0.791875 0
M  V30 3563 O 354.906 5.33043 2.03031 0
M  V30 3564 O 353.84 6.01512 0.216183 0
M  V30 3565 H 357.666 2.90129 -0.897714 0
M  V30 3566 H 355.251 1.40643 -0.503966 0
M  V30 3567 H 357.133 4.01194 1.28923 0
M  V30 3568 H 355.808 2.84395 1.546 0
M  V30 3569 H 354.715 3.69076 -0.611056 0
M  V30 3570 H 356.048 4.85907 -0.784531 0
M  V30 3571 N 357.7 0.491464 1.49741 0
M  V30 3572 C 358.928 -0.0535151 2.06831 0
M  V30 3573 C 359.343 -1.31683 1.35296 0
M  V30 3574 O 358.7 -1.77402 0.42836 0
M  V30 3575 C 358.751 -0.320835 3.60073 0
M  V30 3576 O 358.472 0.892394 4.28915 0
M  V30 3577 C 359.973 -0.910519 4.33848 0
M  V30 3578 H 357.193 0.0161909 0.670805 0
M  V30 3579 H 359.737 0.68609 1.92647 0
M  V30 3580 H 357.892 -1.0104 3.73991 0
M  V30 3581 H 358.306 0.649401 5.20464 0
M  V30 3582 H 359.78 -1.04721 5.41976 0
M  V30 3583 H 360.257 -1.90589 3.95692 0
M  V30 3584 H 360.863 -0.258712 4.24512 0
M  V30 3585 N 359.178 -1.55987 0.224894 0
M  V30 3586 C 360.426 -1.97998 -0.405099 0
M  V30 3587 C 360.747 -1.11387 -1.60056 0
M  V30 3588 O 360.017 -0.191645 -1.9496 0
M  V30 3589 H 358.597 -0.731235 -0.152658 0
M  V30 3590 H 361.259 -1.92279 0.318567 0
M  V30 3591 H 360.355 -3.03463 -0.729167 0
M  V30 3592 N 360.656 0.0484629 -1.57525 0
M  V30 3593 C 361.884 0.755421 -1.92616 0
M  V30 3594 C 362.299 1.69919 -0.822984 0
M  V30 3595 O 361.656 1.81378 0.202085 0
M  V30 3596 C 361.707 1.52915 -3.27566 0
M  V30 3597 O 361.428 0.62329 -4.33644 0
M  V30 3598 C 362.929 2.33502 -3.76818 0
M  V30 3599 H 360.149 0.213465 -0.63614 0
M  V30 3600 H 362.693 0.0117698 -2.04497 0
M  V30 3601 H 360.848 2.22486 -3.17142 0
M  V30 3602 H 361.262 1.16383 -5.11425 0
M  V30 3603 H 362.736 2.83214 -4.73808 0
M  V30 3604 H 363.213 3.14068 -3.07014 0
M  V30 3605 H 363.819 1.69043 -3.90262 0
M  V30 3606 N 362.134 1.5431 0.320358 0
M  V30 3607 C 363.081 1.83918 1.39438 0
M  V30 3608 C 364.051 0.686525 1.51248 0
M  V30 3609 O 365.236 0.933269 1.66417 0
M  V30 3610 C 362.376 2.075 2.75749 0
M  V30 3611 C 361.489 3.35177 2.72544 0
M  V30 3612 C 360.624 3.48704 4.00723 0
M  V30 3613 C 359.663 4.70244 3.91838 0
M  V30 3614 N 358.8 4.80679 5.11754 0
M  V30 3615 H 363.64 2.75544 1.13489 0
M  V30 3616 H 361.177 1.36459 0.549309 0
M  V30 3617 H 363.135 2.19166 3.54996 0
M  V30 3618 H 361.765 1.19163 3 0
M  V30 3619 H 360.817 3.32233 1.85271 0
M  V30 3620 H 362.129 4.24534 2.61863 0
M  V30 3621 H 361.283 3.59928 4.88402 0
M  V30 3622 H 360.022 2.57445 4.14214 0
M  V30 3623 H 359.027 4.59072 3.02544 0
M  V30 3624 H 360.252 5.6289 3.7991 0
M  V30 3625 H 358.198 3.92337 5.25745 0
M  V30 3626 H 358.115 5.64007 5.0342 0
M  V30 3627 H 359.383 4.96239 6.01138 0
M  V30 3628 N 363.613 -0.582584 1.46437 0
M  V30 3629 C 364.861 -1.33814 1.51453 0
M  V30 3630 C 365.182 -1.94277 0.167792 0
M  V30 3631 O 364.452 -1.78566 -0.805677 0
M  V30 3632 H 363.032 -0.496838 0.557818 0
M  V30 3633 H 365.694 -0.682281 1.82568 0
M  V30 3634 H 364.79 -2.14479 2.26728 0
M  V30 3635 N 365.091 -1.34144 -0.827227 0
M  V30 3636 C 366.001 -1.27428 -1.96975 0
M  V30 3637 C 367.017 -0.182728 -1.73038 0
M  V30 3638 O 368.193 -0.408426 -1.97215 0
M  V30 3639 C 365.258 -1.02526 -3.31194 0
M  V30 3640 C 364.319 -2.20796 -3.68168 0
M  V30 3641 C 363.552 -1.97073 -4.95982 0
M  V30 3642 O 363.775 -0.926822 -5.6282 0
M  V30 3643 O 362.709 -2.83912 -5.30733 0
M  V30 3644 H 366.535 -2.23537 -2.05584 0
M  V30 3645 H 364.12 -1.14307 -0.961989 0
M  V30 3646 H 366.002 -0.904026 -4.11589 0
M  V30 3647 H 364.677 -0.0945389 -3.23562 0
M  V30 3648 H 363.584 -2.38477 -2.88235 0
M  V30 3649 H 364.917 -3.12243 -3.8048 0
M  V30 3650 N 366.569 1.04691 -1.17803 0
M  V30 3651 C 367.516 2.12557 -0.899343 0
M  V30 3652 C 368.486 1.65339 0.158771 0
M  V30 3653 O 369.671 1.90789 0.0204797 0
M  V30 3654 C 366.811 3.42481 -0.424315 0
M  V30 3655 C 365.924 4.03346 -1.54713 0
M  V30 3656 C 365.059 5.21208 -1.02546 0
M  V30 3657 C 364.098 5.74089 -2.12339 0
M  V30 3658 N 363.235 6.83247 -1.61612 0
M  V30 3659 H 368.075 2.35734 -1.823 0
M  V30 3660 H 365.612 1.1564 -0.909159 0
M  V30 3661 H 367.57 4.16996 -0.130421 0
M  V30 3662 H 366.2 3.19471 0.462377 0
M  V30 3663 H 365.252 3.2622 -1.95664 0
M  V30 3664 H 366.564 4.38628 -2.37501 0
M  V30 3665 H 365.718 6.02812 -0.685718 0
M  V30 3666 H 364.457 4.87414 -0.167084 0
M  V30 3667 H 363.462 4.91111 -2.47165 0
M  V30 3668 H 364.687 6.0993 -2.98601 0
M  V30 3669 H 362.633 6.5134 -0.780533 0
M  V30 3670 H 362.55 7.17559 -2.38003 0
M  V30 3671 H 363.818 7.68491 -1.30545 0
M  V30 3672 N 368.047 0.979072 1.23499 0
M  V30 3673 C 369.295 0.645941 1.91499 0
M  V30 3674 C 369.616 -0.822948 1.76784 0
M  V30 3675 O 368.886 -1.58854 1.14639 0
M  V30 3676 H 367.466 0.235919 0.708767 0
M  V30 3677 H 370.128 1.2426 1.50152 0
M  V30 3678 H 369.224 0.896411 2.9895 0
M  V30 3679 N 369.525 -1.3858 0.750561 0
M  V30 3680 C 370.802 -1.94231 0.231009 0
M  V30 3681 C 371.182 -1.68611 -1.27018 0
M  V30 3682 O 370.53 -1.02296 -2.04323 0
M  V30 3683 C 370.74 -3.44123 0.581428 0
M  V30 3684 C 372.088 -4.2116 0.539389 0
M  V30 3685 O 373.112 -3.52391 0.519541 0
M  V30 3686 O 371.971 -5.43749 0.54765 0
M  V30 3687 H 369.065 -0.825639 0.0474263 0
M  V30 3688 H 371.611 -1.4799 0.830478 0
M  V30 3689 H 370.383 -3.56267 1.61833 0
M  V30 3690 H 370.006 -3.97573 -0.0462047 0
M  V30 3691 N 371.003 -0.499398 -1.49478 0
M  V30 3692 C 371.933 0.269244 -2.31943 0
M  V30 3693 C 372.914 0.964054 -1.40143 0
M  V30 3694 O 374.099 0.955767 -1.69052 0
M  V30 3695 C 371.229 1.33504 -3.20615 0
M  V30 3696 C 370.183 0.760202 -4.21195 0
M  V30 3697 C 369.509 1.9264 -4.98792 0
M  V30 3698 C 370.809 -0.247661 -5.21712 0
M  V30 3699 H 372.503 -0.419082 -2.96452 0
M  V30 3700 H 370.049 -0.202988 -1.42562 0
M  V30 3701 H 372.002 1.88048 -3.77115 0
M  V30 3702 H 370.726 2.05253 -2.54045 0
M  V30 3703 H 369.385 0.23653 -3.65836 0
M  V30 3704 H 369.033 2.63154 -4.28671 0
M  V30 3705 H 368.733 1.54785 -5.66847 0
M  V30 3706 H 370.257 2.4762 -5.58137 0
M  V30 3707 H 371.671 0.209579 -5.72917 0
M  V30 3708 H 370.068 -0.541962 -5.97648 0
M  V30 3709 H 371.138 -1.16409 -4.7072 0
M  V30 3710 N 372.481 1.55866 -0.233164 0
M  V30 3711 C 373.729 1.9821 0.394593 0
M  V30 3712 C 374.05 1.12234 1.59463 0
M  V30 3713 O 373.32 0.201981 1.94856 0
M  V30 3714 H 371.9 0.732034 0.148778 0
M  V30 3715 H 374.562 1.92107 -0.32876 0
M  V30 3716 H 373.658 3.03845 0.713063 0
M  V30 3717 N 373.959 -0.0401083 1.57549 0
M  V30 3718 C 374.889 -1.04384 2.08869 0
M  V30 3719 C 375.87 -1.38407 0.988817 0
M  V30 3720 O 377.055 -1.47483 1.26342 0
M  V30 3721 C 374.185 -2.34808 2.55895 0
M  V30 3722 C 373.139 -2.15057 3.70047 0
M  V30 3723 C 372.465 -3.51145 4.03239 0
M  V30 3724 C 373.765 -1.54576 4.98902 0
M  V30 3725 H 375.459 -0.616666 2.92981 0
M  V30 3726 H 373.005 -0.295184 1.40942 0
M  V30 3727 H 374.958 -3.05346 2.90417 0
M  V30 3728 H 373.682 -2.79565 1.68853 0
M  V30 3729 H 372.341 -1.46954 3.35857 0
M  V30 3730 H 371.989 -3.93529 3.13279 0
M  V30 3731 H 371.689 -3.38758 4.80122 0
M  V30 3732 H 373.213 -4.23062 4.40285 0
M  V30 3733 H 374.627 -2.15017 5.31451 0
M  V30 3734 H 373.024 -1.52796 5.80322 0
M  V30 3735 H 374.094 -0.51039 4.82206 0
M  V30 3736 N 375.437 -1.54477 -0.31217 0
M  V30 3737 C 376.848 -1.64344 -0.885891 0
M  V30 3738 C 377.199 -0.54485 -1.88483 0
M  V30 3739 O 376.324 0.320387 -2.14015 0
M  V30 3740 C 376.919 -2.97908 -1.61357 0
M  V30 3741 C 375.478 -3.09933 -2.13585 0
M  V30 3742 C 374.625 -2.59971 -0.964897 0
M  V30 3743 H 377.576 -1.58448 -0.0894528 0
M  V30 3744 H 377.597 -2.88706 -2.47848 0
M  V30 3745 H 377.109 -3.77845 -0.886277 0
M  V30 3746 H 375.21 -2.34694 -2.89395 0
M  V30 3747 H 375.323 -4.15916 -2.37804 0
M  V30 3748 H 373.687 -2.16147 -1.34731 0
M  V30 3749 H 374.47 -3.42376 -0.251742 0
M  V30 3750 N 376.915 0.57481 -1.46744 0
M  V30 3751 C 378.163 1.33009 -1.52161 0
M  V30 3752 C 378.484 1.94185 -0.178092 0
M  V30 3753 O 377.754 1.7899 0.796196 0
M  V30 3754 H 376.334 0.493873 -0.560445 0
M  V30 3755 H 378.996 0.672589 -1.82927 0
M  V30 3756 H 378.092 2.13273 -2.27862 0
M  V30 3757 N 378.394 1.34581 0.820102 0
M  V30 3758 C 379.619 1.30333 1.61332 0
M  V30 3759 C 380.044 -0.119339 1.87721 0
M  V30 3760 O 379.402 -1.08197 1.45475 0
M  V30 3761 C 379.45 2.10258 2.92957 0
M  V30 3762 O 378.554 1.47404 3.85157 0
M  V30 3763 H 377.895 0.447488 0.490561 0
M  V30 3764 H 380.425 1.77425 1.01889 0
M  V30 3765 H 380.435 2.21718 3.42498 0
M  V30 3766 H 379.11 3.13693 2.73074 0
M  V30 3767 H 377.687 1.44703 3.43679 0
M  V30 3768 N 379.872 -1.04064 1.18357 0
M  V30 3769 C 380.819 -2.12077 0.910603 0
M  V30 3770 C 381.789 -1.65421 -0.15 0
M  V30 3771 O 382.974 -1.90797 -0.0103614 0
M  V30 3772 C 380.114 -3.42252 0.442472 0
M  V30 3773 C 379.227 -4.0252 1.5685 0
M  V30 3774 C 378.362 -5.20657 1.05309 0
M  V30 3775 C 377.401 -5.72955 2.1538 0
M  V30 3776 N 376.538 -6.8238 1.65233 0
M  V30 3777 H 381.378 -2.34764 1.83548 0
M  V30 3778 H 378.915 -1.15157 0.915279 0
M  V30 3779 H 380.873 -4.16921 0.152534 0
M  V30 3780 H 379.503 -3.19712 -0.445428 0
M  V30 3781 H 378.555 -3.25178 1.97391 0
M  V30 3782 H 379.867 -4.37362 2.39824 0
M  V30 3783 H 379.021 -6.0244 0.717677 0
M  V30 3784 H 377.76 -4.87318 0.19293 0
M  V30 3785 H 376.765 -4.89793 2.49766 0
M  V30 3786 H 377.99 -6.08337 3.01832 0
M  V30 3787 H 375.936 -6.50917 0.815064 0
M  V30 3788 H 375.853 -7.16286 2.41805 0
M  V30 3789 H 377.121 -7.67788 1.34619 0
M  V30 3790 N 381.35 -0.985608 -1.22978 0
M  V30 3791 C 382.598 -0.656087 -1.91154 0
M  V30 3792 C 382.919 0.813561 -1.77218 0
M  V30 3793 O 382.189 1.58244 -1.1548 0
M  V30 3794 H 380.769 -0.239674 -0.707506 0
M  V30 3795 H 383.431 -1.25054 -1.49491 0
M  V30 3796 H 382.527 -0.912253 -2.9847 0
M  V30 3797 N 382.828 1.3818 -0.7579 0
M  V30 3798 C 384.105 1.94106 -0.241306 0
M  V30 3799 C 384.485 1.69282 1.26122 0
M  V30 3800 O 383.833 1.03378 2.03777 0
M  V30 3801 C 384.043 3.43809 -0.59967 0
M  V30 3802 C 385.391 4.20868 -0.561717 0
M  V30 3803 O 386.415 3.5211 -0.538222 0
M  V30 3804 O 385.274 5.43451 -0.576478 0
M  V30 3805 H 382.368 0.825376 -0.0518042 0
M  V30 3806 H 384.914 1.47548 -0.838315 0
M  V30 3807 H 383.686 3.55403 -1.6372 0
M  V30 3808 H 383.309 3.97592 0.0251197 0
M  V30 3809 N 384.306 0.507319 1.49211 0
M  V30 3810 C 385.722 0.163682 1.58758 0
M  V30 3811 C 385.922 -1.33208 1.51188 0
M  V30 3812 O 384.978 -2.10855 1.38911 0
M  V30 3813 C 386.291 0.746095 2.91297 0
M  V30 3814 C 387.839 0.712773 3.04776 0
M  V30 3815 C 388.314 1.27336 4.39943 0
M  V30 3816 N 389.805 1.23433 4.46451 0
M  V30 3817 C 390.54 1.63821 5.495 0
M  V30 3818 N 390.036 2.11832 6.5962 0
M  V30 3819 N 391.829 1.55198 5.4025 0
M  V30 3820 H 383.98 1.47972 1.52375 0
M  V30 3821 H 386.243 0.614147 0.722168 0
M  V30 3822 H 385.949 1.79534 3.02424 0
M  V30 3823 H 385.823 0.210137 3.76614 0
M  V30 3824 H 388.21 -0.327656 2.93275 0
M  V30 3825 H 388.291 1.28595 2.21127 0
M  V30 3826 H 387.935 2.3126 4.52196 0
M  V30 3827 H 387.865 0.676066 5.22242 0
M  V30 3828 H 390.356 0.882627 3.67448 0
M  V30 3829 H 390.669 2.40703 7.34358 0
M  V30 3830 H 389.014 2.1581 6.60644 0
M  V30 3831 H 392.205 1.17505 4.53112 0
M  V30 3832 H 392.378 1.86997 6.20432 0
M  V30 3833 N 385.784 -1.5574 0.241426 0
M  V30 3834 C 387.032 -1.98417 -0.384075 0
M  V30 3835 C 387.353 -1.13078 -1.58866 0
M  V30 3836 O 386.623 -0.212312 -1.94746 0
M  V30 3837 H 385.203 -0.732813 -0.144894 0
M  V30 3838 H 387.865 -1.9193 0.338943 0
M  V30 3839 H 386.961 -3.04219 -0.696939 0
M  V30 3840 N 387.262 0.0317525 -1.57568 0
M  V30 3841 C 388.195 1.06621 -2.0176 0
M  V30 3842 C 389.173 1.35323 -0.901462 0
M  V30 3843 O 390.357 1.48025 -1.16708 0
M  V30 3844 C 387.484 2.40155 -2.38837 0
M  V30 3845 C 386.53 2.27327 -3.60867 0
M  V30 3846 S 387.363 1.62925 -5.10113 0
M  V30 3847 C 388.519 2.97955 -5.5043 0
M  V30 3848 H 388.752 0.689781 -2.89187 0
M  V30 3849 H 386.285 0.24164 -1.52497 0
M  V30 3850 H 388.243 3.1695 -2.6087 0
M  V30 3851 H 386.904 2.74946 -1.51867 0
M  V30 3852 H 386.097 3.25898 -3.84456 0
M  V30 3853 H 385.699 1.58675 -3.38671 0
M  V30 3854 H 387.991 3.94285 -5.5095 0
M  V30 3855 H 388.934 2.79102 -6.50775 0
M  V30 3856 H 389.342 3.00404 -4.77931 0
M  V30 3857 N 388.74 1.54641 0.303973 0
M  V30 3858 C 389.687 1.85386 1.37479 0
M  V30 3859 C 390.657 0.702528 1.50512 0
M  V30 3860 O 391.842 0.950867 1.65418 0
M  V30 3861 C 388.982 2.10413 2.73533 0
M  V30 3862 C 388.095 3.38049 2.68974 0
M  V30 3863 C 387.23 3.52934 3.97002 0
M  V30 3864 C 386.269 4.74373 3.86829 0
M  V30 3865 N 385.406 4.8608 5.06627 0
M  V30 3866 H 390.246 2.76732 1.1056 0
M  V30 3867 H 387.783 1.37034 0.534805 0
M  V30 3868 H 389.741 2.22919 3.52652 0
M  V30 3869 H 388.371 1.22338 2.98719 0
M  V30 3870 H 387.423 3.3418 1.81736 0
M  V30 3871 H 388.735 4.27288 2.57346 0
M  V30 3872 H 387.889 3.65088 4.84557 0
M  V30 3873 H 386.628 2.61824 4.1146 0
M  V30 3874 H 385.633 4.62255 2.97658 0
M  V30 3875 H 386.858 5.66888 3.73918 0
M  V30 3876 H 384.804 3.97891 5.21554 0
M  V30 3877 H 384.721 5.69315 4.9741 0
M  V30 3878 H 385.989 5.02587 5.95841 0
M  V30 3879 N 390.218 -0.567019 1.47046 0
M  V30 3880 C 391.466 -1.322 1.52864 0
M  V30 3881 C 391.787 -1.94088 0.188388 0
M  V30 3882 O 391.057 -1.7941 -0.786693 0
M  V30 3883 H 389.637 -0.490894 0.563056 0
M  V30 3884 H 392.299 -0.662879 1.83281 0
M  V30 3885 H 391.395 -2.12062 2.2899 0
M  V30 3886 N 391.696 -1.35014 -0.812953 0
M  V30 3887 C 392.973 -1.18502 -1.55617 0
M  V30 3888 C 393.353 0.238421 -2.09749 0
M  V30 3889 O 392.701 1.2411 -1.91857 0
M  V30 3890 C 392.911 -2.24783 -2.66971 0
M  V30 3891 C 394.259 -2.60268 -3.35478 0
M  V30 3892 O 395.283 -2.23648 -2.77236 0
M  V30 3893 O 394.142 -3.2321 -4.40678 0
M  V30 3894 H 391.236 -0.459984 -0.687272 0
M  V30 3895 H 393.782 -1.46677 -0.853464 0
M  V30 3896 H 392.554 -3.20284 -2.24798 0
M  V30 3897 H 392.177 -1.97841 -3.44884 0
M  V30 3898 N 393.175 1.03435 -1.18907 0
M  V30 3899 C 394.138 2.09756 -0.923844 0
M  V30 3900 C 395.138 1.60528 0.093416 0
M  V30 3901 O 396.328 1.73631 -0.140727 0
M  V30 3902 C 393.46 3.38692 -0.387354 0
M  V30 3903 H 394.653 2.34719 -1.86674 0
M  V30 3904 H 392.206 1.19959 -1.00197 0
M  V30 3905 H 392.941 3.19396 0.561845 0
M  V30 3906 H 392.726 3.75742 -1.12074 0
M  V30 3907 H 394.216 4.17016 -0.220694 0
M  V30 3908 N 394.653 0.992116 1.22453 0
M  V30 3909 C 395.901 0.666215 1.90804 0
M  V30 3910 C 396.222 -0.804152 1.77647 0
M  V30 3911 O 395.492 -1.57629 1.16318 0
M  V30 3912 H 394.072 0.243423 0.706225 0
M  V30 3913 H 396.734 1.25845 1.48825 0
M  V30 3914 H 395.83 0.928069 2.97982 0
M  V30 3915 N 396.131 -1.37776 0.765217 0
M  V30 3916 C 397.377 -2.00145 0.327072 0
M  V30 3917 C 397.71 -1.60607 -1.09175 0
M  V30 3918 O 396.985 -0.849127 -1.74986 0
M  V30 3919 C 397.268 -3.57109 0.46319 0
M  V30 3920 C 397.121 -4.06576 1.92395 0
M  V30 3921 C 398.44 -4.39888 -0.136473 0
M  V30 3922 H 395.559 -0.727113 0.120316 0
M  V30 3923 H 398.201 -1.63549 0.967039 0
M  V30 3924 H 396.351 -3.88414 -0.0816358 0
M  V30 3925 H 398.023 -3.85864 2.52798 0
M  V30 3926 H 396.266 -3.59011 2.43503 0
M  V30 3927 H 396.937 -5.15639 1.97028 0
M  V30 3928 H 399.413 -4.14803 0.328317 0
M  V30 3929 H 398.289 -5.48899 -0.0110582 0
M  V30 3930 H 398.55 -4.24758 -1.22608 0
M  V30 3931 N 397.609 -0.515225 -1.4894 0
M  V30 3932 C 398.542 0.302518 -2.26186 0
M  V30 3933 C 399.52 0.957895 -1.31389 0
M  V30 3934 O 400.704 0.985198 -1.60705 0
M  V30 3935 C 397.831 1.42719 -3.07163 0
M  V30 3936 C 396.877 0.884736 -4.17223 0
M  V30 3937 S 397.71 -0.235767 -5.34981 0
M  V30 3938 C 398.866 0.891731 -6.19515 0
M  V30 3939 H 399.099 -0.353076 -2.95196 0
M  V30 3940 H 396.632 -0.300753 -1.51443 0
M  V30 3941 H 398.59 2.07152 -3.54398 0
M  V30 3942 H 397.251 2.05445 -2.37595 0
M  V30 3943 H 396.444 1.72801 -4.73451 0
M  V30 3944 H 396.046 0.317362 -3.72651 0
M  V30 3945 H 398.338 1.79377 -6.53322 0
M  V30 3946 H 399.281 0.367751 -7.07144 0
M  V30 3947 H 399.689 1.16548 -5.52338 0
M  V30 3948 N 399.087 1.5561 -0.249682 0
M  V30 3949 C 400.335 1.98618 0.373548 0
M  V30 3950 C 400.656 1.13919 1.58264 0
M  V30 3951 O 399.926 0.222637 1.94631 0
M  V30 3952 H 398.506 0.733571 0.141006 0
M  V30 3953 H 401.168 1.91748 -0.349117 0
M  V30 3954 H 400.264 3.04584 0.680796 0
M  V30 3955 N 400.565 -0.0233959 1.57583 0
M  V30 3956 C 401.976 -0.56927 1.77809 0
M  V30 3957 C 402.327 -1.75284 0.881472 0
M  V30 3958 O 401.452 -2.1626 0.0777805 0
M  V30 3959 C 402.047 -1.03949 3.22459 0
M  V30 3960 C 400.606 -1.53084 3.43864 0
M  V30 3961 C 399.753 -0.471454 2.73263 0
M  V30 3962 H 402.704 0.202825 1.57399 0
M  V30 3963 H 402.725 -1.90661 3.29285 0
M  V30 3964 H 402.237 -0.177865 3.87692 0
M  V30 3965 H 400.338 -2.41414 2.83814 0
M  V30 3966 H 400.451 -1.57443 4.52491 0
M  V30 3967 H 398.815 -0.927788 2.37201 0
M  V30 3968 H 399.598 0.380808 3.41181 0
M  V30 3969 N 402.043 -1.548 -0.295768 0
M  V30 3970 C 403.454 -1.65274 -0.868411 0
M  V30 3971 C 403.805 -0.56481 -1.87894 0
M  V30 3972 O 402.93 0.29767 -2.14343 0
M  V30 3973 C 403.525 -2.99603 -1.58188 0
M  V30 3974 C 402.084 -3.12181 -2.10286 0
M  V30 3975 C 401.231 -2.6098 -0.93727 0
M  V30 3976 H 404.182 -1.58534 -0.0726422 0
M  V30 3977 H 404.203 -2.91319 -2.44772 0
M  V30 3978 H 403.715 -3.78764 -0.846151 0
M  V30 3979 H 401.816 -2.3775 -2.8689 0
M  V30 3980 H 401.929 -4.18415 -2.33379 0
M  V30 3981 H 400.293 -2.17564 -1.32431 0
M  V30 3982 H 401.076 -3.42623 -0.215414 0
M  V30 3983 N 403.521 0.559213 -1.47345 0
M  V30 3984 C 404.769 1.31388 -1.53563 0
M  V30 3985 C 405.09 1.93985 -0.198678 0
M  V30 3986 O 404.36 1.79825 0.777167 0
M  V30 3987 H 402.94 0.487901 -0.565652 0
M  V30 3988 H 405.602 0.65315 -1.8363 0
M  V30 3989 H 404.698 2.10844 -2.30111 0
M  V30 3990 N 404.999 1.35443 0.805782 0
M  V30 3991 C 405.962 1.28301 1.89925 0
M  V30 3992 C 406.962 0.194285 1.59622 0
M  V30 3993 O 408.152 0.448036 1.6834 0
M  V30 3994 C 405.284 0.984997 3.2636 0
M  V30 3995 H 406.477 2.2553 1.97677 0
M  V30 3996 H 404.03 1.19979 1.00173 0
M  V30 3997 H 404.765 0.016603 3.24296 0
M  V30 3998 H 404.55 1.77269 3.4974 0
M  V30 3999 H 406.04 0.960651 4.064 0
M  V30 4000 N 406.477 -1.02803 1.19454 0
M  V30 4001 C 407.409 -2.11181 0.890807 0
M  V30 4002 C 408.422 -1.6238 -0.116829 0
M  V30 4003 O 409.611 -1.78144 0.112694 0
M  V30 4004 C 406.711 -3.37461 0.311942 0
M  V30 4005 C 405.884 -4.15446 1.36834 0
M  V30 4006 C 404.943 -5.20039 0.802864 0
M  V30 4007 O 403.969 -5.49602 1.48077 0
M  V30 4008 N 405.171 -5.79165 -0.393417 0
M  V30 4009 H 407.936 -2.37827 1.82369 0
M  V30 4010 H 405.497 -1.19101 1.09666 0
M  V30 4011 H 407.489 -4.0462 -0.0802225 0
M  V30 4012 H 406.059 -3.08156 -0.52524 0
M  V30 4013 H 405.279 -3.43423 1.93531 0
M  V30 4014 H 406.567 -4.64335 2.08015 0
M  V30 4015 H 405.965 -5.57466 -0.961658 0
M  V30 4016 H 404.522 -6.47729 -0.727351 0
M  V30 4017 N 407.956 -0.998596 -1.21925 0
M  V30 4018 C 409.204 -0.676325 -1.90448 0
M  V30 4019 C 409.525 0.794719 -1.78071 0
M  V30 4020 O 408.795 1.5701 -1.17152 0
M  V30 4021 H 407.375 -0.247165 -0.704925 0
M  V30 4022 H 410.037 -1.26633 -1.48156 0
M  V30 4023 H 409.133 -0.943858 -2.97486 0
M  V30 4024 N 409.434 1.37368 -0.772513 0
M  V30 4025 C 410.659 2.0447 -0.347386 0
M  V30 4026 C 411.084 1.57882 1.0225 0
M  V30 4027 O 410.442 0.73941 1.65537 0
M  V30 4028 C 410.49 3.58369 -0.400479 0
M  V30 4029 O 409.594 4.0803 0.598789 0
M  V30 4030 H 408.935 0.646773 -0.15027 0
M  V30 4031 H 411.465 1.75667 -1.04892 0
M  V30 4032 H 411.475 4.07183 -0.258045 0
M  V30 4033 H 410.15 3.91633 -1.39986 0
M  V30 4034 H 408.727 3.70534 0.419411 0
M  V30 4035 N 410.912 0.523116 1.48665 0
M  V30 4036 C 411.859 -0.243398 2.29513 0
M  V30 4037 C 412.829 -0.940139 1.36933 0
M  V30 4038 O 414.014 -0.942503 1.65896 0
M  V30 4039 C 411.154 -1.28855 3.20141 0
M  V30 4040 C 410.267 -0.60135 4.27794 0
M  V30 4041 C 409.402 -1.62884 5.05611 0
M  V30 4042 C 408.441 -0.924726 6.05075 0
M  V30 4043 N 407.578 -1.89744 6.75975 0
M  V30 4044 H 412.418 0.452234 2.94549 0
M  V30 4045 H 409.955 0.234858 1.45213 0
M  V30 4046 H 411.913 -1.90674 3.71079 0
M  V30 4047 H 410.543 -1.95266 2.57043 0
M  V30 4048 H 409.595 0.130623 3.80176 0
M  V30 4049 H 410.907 -0.0481585 4.98777 0
M  V30 4050 H 410.061 -2.32149 5.60528 0
M  V30 4051 H 408.8 -2.21592 4.34452 0
M  V30 4052 H 407.805 -0.217966 5.49368 0
M  V30 4053 H 409.03 -0.343851 6.78229 0
M  V30 4054 H 406.976 -2.47373 6.07571 0
M  V30 4055 H 406.893 -1.3955 7.43009 0
M  V30 4056 H 408.161 -2.58229 7.35485 0
M  V30 4057 N 412.39 -1.55475 0.257931 0
M  V30 4058 C 413.638 -1.98813 -0.363009 0
M  V30 4059 C 413.959 -1.14757 -1.57657 0
M  V30 4060 O 413.229 -0.232956 -1.9451 0
M  V30 4061 H 411.809 -0.734308 -0.137113 0
M  V30 4062 H 414.471 -1.9156 0.359281 0
M  V30 4063 H 413.567 -3.04941 -0.664634 0
M  V30 4064 N 413.868 0.0150385 -1.57593 0
M  V30 4065 C 415.145 0.7392 -1.81094 0
M  V30 4066 C 415.525 1.92817 -0.859344 0
M  V30 4067 O 414.873 2.28301 0.095362 0
M  V30 4068 C 415.083 1.15907 -3.29191 0
M  V30 4069 C 416.431 1.56918 -3.9454 0
M  V30 4070 O 417.455 1.25328 -3.33424 0
M  V30 4071 O 416.314 2.15604 -5.02173 0
M  V30 4072 H 413.408 0.358631 -0.745193 0
M  V30 4073 H 415.954 -0.00926156 -1.69697 0
M  V30 4074 H 414.726 0.310921 -3.90063 0
M  V30 4075 H 414.349 1.96711 -3.45529 0
M  V30 4076 N 415.346 1.54954 0.287554 0
M  V30 4077 C 416.593 1.74873 1.02106 0
M  V30 4078 C 416.921 0.541829 1.86801 0
M  V30 4079 O 416.176 -0.475992 1.89823 0
M  V30 4080 C 416.475 2.99833 1.94512 0
M  V30 4081 C 416.141 4.33029 1.25686 0
M  V30 4082 C 414.803 4.69233 1.06649 0
M  V30 4083 C 417.155 5.15542 0.765913 0
M  V30 4084 C 414.483 5.85518 0.372222 0
M  V30 4085 C 416.835 6.32542 0.0853101 0
M  V30 4086 C 415.499 6.67398 -0.1169 0
M  V30 4087 H 414.769 0.639906 0.373632 0
M  V30 4088 H 417.416 1.89219 0.294665 0
M  V30 4089 H 415.721 2.80325 2.73725 0
M  V30 4090 H 417.418 3.1244 2.51361 0
M  V30 4091 H 414.008 4.04564 1.41512 0
M  V30 4092 H 418.192 4.88059 0.90066 0
M  V30 4093 H 413.448 6.11057 0.204695 0
M  V30 4094 H 417.622 6.95741 -0.302936 0
M  V30 4095 H 415.249 7.57357 -0.656859 0
M  V30 4096 N 416.824 -0.551391 1.4764 0
M  V30 4097 C 418.072 -1.30572 1.54258 0
M  V30 4098 C 418.393 -1.93877 0.208963 0
M  V30 4099 O 417.663 -1.80234 -0.767619 0
M  V30 4100 H 416.243 -0.484894 0.568231 0
M  V30 4101 H 418.905 -0.643402 1.83974 0
M  V30 4102 H 418.001 -2.09621 2.31226 0
M  V30 4103 N 418.302 -1.35869 -0.798587 0
M  V30 4104 C 419.718 -1.16082 -1.09532 0
M  V30 4105 C 419.918 0.0213124 -2.01489 0
M  V30 4106 O 418.974 0.689488 -2.42904 0
M  V30 4107 C 420.287 -2.46748 -1.7186 0
M  V30 4108 C 421.835 -2.53028 -1.84244 0
M  V30 4109 C 422.31 -3.83758 -2.49988 0
M  V30 4110 N 423.801 -3.85053 -2.57465 0
M  V30 4111 C 424.536 -4.8294 -3.09122 0
M  V30 4112 N 424.032 -5.91217 -3.61157 0
M  V30 4113 N 425.825 -4.70369 -3.0775 0
M  V30 4114 H 417.976 -2.11571 -0.187461 0
M  V30 4115 H 420.239 -0.936726 -0.145765 0
M  V30 4116 H 419.945 -3.33471 -1.11759 0
M  V30 4117 H 419.819 -2.61883 -2.71472 0
M  V30 4118 H 422.206 -1.66729 -2.43486 0
M  V30 4119 H 422.287 -2.418 -0.834643 0
M  V30 4120 H 421.931 -4.70459 -1.91393 0
M  V30 4121 H 421.861 -3.92278 -3.5132 0
M  V30 4122 H 424.352 -3.06822 -2.20609 0
M  V30 4123 H 424.665 -6.61892 -3.98896 0
M  V30 4124 H 423.01 -5.94899 -3.59333 0
M  V30 4125 H 426.201 -3.84914 -2.66381 0
M  V30 4126 H 426.374 -5.46816 -3.47701 0
M  V30 4127 N 419.78 1.02168 -1.19998 0
M  V30 4128 C 421.191 1.57135 -1.00825 0
M  V30 4129 C 421.542 1.91276 0.436818 0
M  V30 4130 O 420.667 1.71679 1.3174 0
M  V30 4131 C 421.262 2.85514 -1.82393 0
M  V30 4132 C 419.821 3.37027 -1.67601 0
M  V30 4133 C 418.968 2.10388 -1.80644 0
M  V30 4134 H 421.919 0.846106 -1.34264 0
M  V30 4135 H 421.94 3.56711 -1.32429 0
M  V30 4136 H 421.452 2.60634 -2.87561 0
M  V30 4137 H 419.553 3.66878 -0.650485 0
M  V30 4138 H 419.666 4.09572 -2.4857 0
M  V30 4139 H 418.03 2.22601 -1.23778 0
M  V30 4140 H 418.813 1.8794 -2.87286 0
M  V30 4141 N 421.258 1.00505 1.21394 0
M  V30 4142 C 422.506 0.686415 1.90086 0
M  V30 4143 C 422.827 -0.785264 1.7849 0
M  V30 4144 O 422.097 -1.56387 1.17983 0
M  V30 4145 H 420.677 0.2509 0.703604 0
M  V30 4146 H 423.339 1.27417 1.47482 0
M  V30 4147 H 422.435 0.959621 2.96981 0
M  V30 4148 N 422.737 -1.36956 0.779787 0
M  V30 4149 C 424.148 -1.82094 0.412156 0
M  V30 4150 C 424.499 -1.64926 -1.06273 0
M  V30 4151 O 423.624 -1.16483 -1.82375 0
M  V30 4152 C 424.219 -3.3059 0.741319 0
M  V30 4153 C 422.778 -3.73974 0.426641 0
M  V30 4154 C 421.925 -2.59368 0.980987 0
M  V30 4155 H 424.876 -1.25314 0.973758 0
M  V30 4156 H 424.897 -3.80489 0.028887 0
M  V30 4157 H 424.409 -3.43054 1.81482 0
M  V30 4158 H 422.51 -3.67076 -0.639215 0
M  V30 4159 H 422.623 -4.69778 0.940515 0
M  V30 4160 H 420.987 -2.51463 0.404757 0
M  V30 4161 H 421.77 -2.74621 2.06005 0
M  V30 4162 N 424.215 -0.530993 -1.48385 0
M  V30 4163 C 425.626 -0.0907905 -1.86479 0
M  V30 4164 C 425.977 1.33213 -1.44044 0
M  V30 4165 O 425.102 1.99783 -0.831615 0
M  V30 4166 C 425.697 -0.157987 -3.38431 0
M  V30 4167 C 424.256 0.227026 -3.75715 0
M  V30 4168 C 423.403 -0.5173 -2.72432 0
M  V30 4169 H 426.354 -0.742186 -1.40276 0
M  V30 4170 H 426.375 0.630053 -3.75247 0
M  V30 4171 H 425.887 -1.19372 -3.69286 0
M  V30 4172 H 423.988 1.26486 -3.50474 0
M  V30 4173 H 424.101 -0.113288 -4.78966 0
M  V30 4174 H 422.465 0.0365527 -2.54674 0
M  V30 4175 H 423.248 -1.55368 -3.0613 0
M  V30 4176 N 425.693 1.55336 -0.266172 0
M  V30 4177 C 426.941 1.99003 0.35246 0
M  V30 4178 C 427.262 1.15591 1.57047 0
M  V30 4179 O 426.532 0.243268 1.94384 0
M  V30 4180 H 425.112 0.735025 0.133217 0
M  V30 4181 H 427.774 1.91367 -0.369434 0
M  V30 4182 H 426.87 3.05289 0.648453 0
M  V30 4183 N 427.171 -0.0066808 1.57599 0
M  V30 4184 C 428.101 -0.999296 2.11036 0
M  V30 4185 C 429.082 -1.36278 1.01795 0
M  V30 4186 O 430.267 -1.4477 1.29442 0
M  V30 4187 C 427.397 -2.29328 2.60818 0
M  V30 4188 C 426.351 -2.07159 3.74525 0
M  V30 4189 C 425.677 -3.42512 4.10596 0
M  V30 4190 C 426.977 -1.43959 5.02069 0
M  V30 4191 H 428.671 -0.554382 2.94223 0
M  V30 4192 H 426.217 -0.265221 1.41536 0
M  V30 4193 H 428.17 -2.99117 2.96828 0
M  V30 4194 H 426.894 -2.7592 1.74745 0
M  V30 4195 H 425.553 -1.39797 3.38899 0
M  V30 4196 H 425.201 -3.86795 3.21556 0
M  V30 4197 H 424.901 -3.28498 4.87199 0
M  V30 4198 H 426.425 -4.13628 4.4916 0
M  V30 4199 H 427.839 -2.03696 5.35893 0
M  V30 4200 H 426.236 -1.40452 5.83432 0
M  V30 4201 H 427.306 -0.407992 4.83181 0
M  V30 4202 N 428.649 -1.55105 -0.279332 0
M  V30 4203 C 429.612 -1.86783 -1.32834 0
M  V30 4204 C 430.612 -0.74199 -1.42657 0
M  V30 4205 O 431.802 -1.0102 -1.41918 0
M  V30 4206 C 428.934 -2.06746 -2.71052 0
M  V30 4207 H 430.127 -2.8055 -1.05979 0
M  V30 4208 H 427.68 -1.47499 -0.517087 0
M  V30 4209 H 428.415 -1.15339 -3.03097 0
M  V30 4210 H 428.2 -2.88711 -2.65309 0
M  V30 4211 H 429.69 -2.32549 -3.46858 0
M  V30 4212 N 430.127 0.543554 -1.4793 0
M  V30 4213 C 431.375 1.29752 -1.54948 0
M  V30 4214 C 431.696 1.93764 -0.219242 0
M  V30 4215 O 430.966 1.80639 0.75805 0
M  V30 4216 H 429.546 0.481874 -0.570795 0
M  V30 4217 H 432.208 0.633636 -1.84312 0
M  V30 4218 H 431.304 2.08392 -2.32334 0
M  V30 4219 N 431.605 1.3629 0.791371 0
M  V30 4220 C 432.852 1.30412 1.54916 0
M  V30 4221 C 433.18 -0.117162 1.94147 0
M  V30 4222 O 432.435 -1.08599 1.62803 0
M  V30 4223 C 432.734 2.17068 2.8393 0
M  V30 4224 C 432.4 3.65645 2.63846 0
M  V30 4225 C 431.062 4.0614 2.58077 0
M  V30 4226 C 433.414 4.59855 2.45322 0
M  V30 4227 C 430.742 5.3899 2.31748 0
M  V30 4228 C 433.094 5.9292 2.2052 0
M  V30 4229 C 431.758 6.32542 2.13183 0
M  V30 4230 H 431.028 0.47721 0.566879 0
M  V30 4231 H 433.675 1.68325 0.913172 0
M  V30 4232 H 431.98 1.72085 3.51986 0
M  V30 4233 H 433.677 2.09846 3.4171 0
M  V30 4234 H 430.267 3.33518 2.69191 0
M  V30 4235 H 434.451 4.29443 2.48782 0
M  V30 4236 H 429.707 5.68672 2.24548 0
M  V30 4237 H 433.881 6.65487 2.05182 0
M  V30 4238 H 431.508 7.35412 1.92544 0
M  V30 4239 N 433.083 -1.0153 1.20538 0
M  V30 4240 C 434.494 -1.56598 1.01657 0
M  V30 4241 C 434.845 -1.91505 -0.426668 0
M  V30 4242 O 433.97 -1.72375 -1.30827 0
M  V30 4243 C 434.565 -2.84542 1.83905 0
M  V30 4244 C 433.124 -3.36133 1.69386 0
M  V30 4245 C 432.271 -2.09427 1.81757 0
M  V30 4246 H 435.222 -0.838974 1.34711 0
M  V30 4247 H 435.243 -3.56004 1.34319 0
M  V30 4248 H 434.755 -2.59105 2.8894 0
M  V30 4249 H 432.856 -3.66528 0.669933 0
M  V30 4250 H 432.969 -4.08248 2.50739 0
M  V30 4251 H 431.333 -2.21941 1.24957 0
M  V30 4252 H 432.116 -1.86414 2.88279 0
M  V30 4253 N 434.561 -1.01147 -1.20859 0
M  V30 4254 C 435.809 -0.696486 -1.89719 0
M  V30 4255 C 436.13 0.775788 -1.78904 0
M  V30 4256 O 435.4 1.55759 -1.18811 0
M  V30 4257 H 433.98 -0.254628 -0.702263 0
M  V30 4258 H 436.642 -1.28197 -1.46804 0
M  V30 4259 H 435.738 -0.975357 -2.96468 0
M  V30 4260 N 436.039 1.36541 -0.78704 0
M  V30 4261 C 437.002 2.28413 -0.189778 0
M  V30 4262 C 438.002 1.48719 0.611499 0
M  V30 4263 O 439.192 1.68737 0.432842 0
M  V30 4264 C 436.324 3.32824 0.737638 0
M  V30 4265 H 437.517 2.82743 -0.999831 0
M  V30 4266 H 435.07 1.46065 -0.556298 0
M  V30 4267 H 435.805 2.83646 1.57212 0
M  V30 4268 H 435.59 3.91752 0.165044 0
M  V30 4269 H 437.08 4.0144 1.15047 0
M  V30 4270 N 437.518 0.538854 1.48102 0
M  V30 4271 C 438.465 -0.219042 2.29758 0
M  V30 4272 C 439.435 -0.925562 1.37922 0
M  V30 4273 O 440.62 -0.924855 1.66886 0
M  V30 4274 C 437.76 -1.25452 3.2149 0
M  V30 4275 C 436.873 -0.555943 4.28408 0
M  V30 4276 C 436.008 -1.57512 5.0731 0
M  V30 4277 C 435.047 -0.860498 6.06021 0
M  V30 4278 N 434.184 -1.82564 6.77949 0
M  V30 4279 H 439.024 0.483449 2.94052 0
M  V30 4280 H 436.561 0.250247 1.44956 0
M  V30 4281 H 438.519 -1.86727 3.7308 0
M  V30 4282 H 437.149 -1.92528 2.591 0
M  V30 4283 H 436.201 0.170938 3.80016 0
M  V30 4284 H 437.513 0.00474616 4.988 0
M  V30 4285 H 436.667 -2.26191 5.62959 0
M  V30 4286 H 435.406 -2.16972 4.36778 0
M  V30 4287 H 434.411 -0.159686 5.49568 0
M  V30 4288 H 435.636 -0.271897 6.78555 0
M  V30 4289 H 433.582 -2.40915 6.10161 0
M  V30 4290 H 433.499 -1.31662 7.44447 0
M  V30 4291 H 434.767 -2.50414 7.38182 0
M  V30 4292 N 438.996 -1.55193 0.274407 0
M  V30 4293 C 440.244 -1.99187 -0.341902 0
M  V30 4294 C 440.565 -1.16422 -1.56431 0
M  V30 4295 O 439.835 -0.253573 -1.94252 0
M  V30 4296 H 438.415 -0.735721 -0.129317 0
M  V30 4297 H 441.077 -1.91168 0.379578 0
M  V30 4298 H 440.173 -3.05629 -0.632253 0
M  V30 4299 N 440.474 -0.00167713 -1.576 0
M  V30 4300 C 441.751 0.719951 -1.81868 0
M  V30 4301 C 442.131 1.91895 -0.879747 0
M  V30 4302 O 441.479 2.28389 0.0711423 0
M  V30 4303 C 441.689 1.12409 -3.30402 0
M  V30 4304 C 443.037 1.52724 -3.96182 0
M  V30 4305 O 444.061 1.21784 -3.34734 0
M  V30 4306 O 442.92 2.10265 -5.04431 0
M  V30 4307 H 440.014 0.350707 -0.748955 0
M  V30 4308 H 442.56 -0.0272597 -1.69678 0
M  V30 4309 H 441.332 0.269532 -3.90371 0
M  V30 4310 H 440.955 1.93035 -3.47596 0
M  V30 4311 N 441.952 1.55251 0.271103 0
M  V30 4312 C 442.884 1.84675 1.35749 0
M  V30 4313 C 443.897 0.731366 1.45447 0
M  V30 4314 O 445.086 1.00924 1.4723 0
M  V30 4315 C 442.186 1.99638 2.73857 0
M  V30 4316 C 441.359 3.30312 2.86727 0
M  V30 4317 C 440.418 3.35318 4.05522 0
M  V30 4318 O 439.444 4.08682 3.96191 0
M  V30 4319 N 440.646 2.62857 5.17577 0
M  V30 4320 H 443.411 2.78445 1.10853 0
M  V30 4321 H 440.972 1.55191 0.461218 0
M  V30 4322 H 442.964 2.00355 3.51625 0
M  V30 4323 H 441.534 1.12725 2.91568 0
M  V30 4324 H 440.754 3.42118 1.95829 0
M  V30 4325 H 442.042 4.16488 2.92258 0
M  V30 4326 H 441.44 2.02939 5.28046 0
M  V30 4327 H 439.997 2.69295 5.93568 0
M  V30 4328 N 443.43 -0.535701 1.48216 0
M  V30 4329 C 444.678 -1.28928 1.55634 0
M  V30 4330 C 444.999 -1.93645 0.229514 0
M  V30 4331 O 444.269 -1.81038 -0.74846 0
M  V30 4332 H 442.849 -0.47884 0.573342 0
M  V30 4333 H 445.511 -0.623853 1.84646 0
M  V30 4334 H 444.607 -2.07157 2.33436 0
M  V30 4335 N 444.908 -1.36708 -0.784132 0
M  V30 4336 C 445.84 -1.27333 -1.90575 0
M  V30 4337 C 446.853 -0.191706 -1.61667 0
M  V30 4338 O 448.042 -0.446854 -1.72816 0
M  V30 4339 C 445.142 -0.943177 -3.25511 0
M  V30 4340 C 444.315 -2.12776 -3.82158 0
M  V30 4341 C 443.374 -1.76983 -4.95544 0
M  V30 4342 O 442.4 -2.49134 -5.11782 0
M  V30 4343 N 443.602 -0.706624 -5.76183 0
M  V30 4344 H 446.367 -2.23974 -1.99138 0
M  V30 4345 H 443.928 -1.30171 -0.962656 0
M  V30 4346 H 445.92 -0.684799 -3.98864 0
M  V30 4347 H 444.49 -0.0657333 -3.12531 0
M  V30 4348 H 443.71 -2.54863 -3.0073 0
M  V30 4349 H 444.998 -2.91904 -4.16737 0
M  V30 4350 H 444.396 -0.107643 -5.65598 0
M  V30 4351 H 442.953 -0.50808 -6.49817 0
M  V30 4352 N 446.386 1.0089 -1.21074 0
M  V30 4353 C 447.797 1.56056 -1.02486 0
M  V30 4354 C 448.148 1.91728 0.416506 0
M  V30 4355 O 447.273 1.73066 1.29912 0
M  V30 4356 C 447.868 2.83563 -1.85411 0
M  V30 4357 C 446.427 3.3523 -1.71166 0
M  V30 4358 C 445.574 2.0846 -1.82865 0
M  V30 4359 H 448.525 0.831818 -1.35154 0
M  V30 4360 H 448.546 3.55286 -1.36205 0
M  V30 4361 H 448.058 2.57569 -2.9031 0
M  V30 4362 H 446.159 3.66167 -0.689361 0
M  V30 4363 H 446.272 4.06913 -2.52901 0
M  V30 4364 H 444.636 2.21275 -1.26132 0
M  V30 4365 H 445.419 1.84883 -2.89263 0
M  V30 4366 N 447.864 1.01787 1.20321 0
M  V30 4367 C 449.112 0.706538 1.89347 0
M  V30 4368 C 449.433 -0.766289 1.79313 0
M  V30 4369 O 448.703 -1.55126 1.19635 0
M  V30 4370 H 447.283 0.258348 0.700903 0
M  V30 4371 H 449.945 1.28974 1.46122 0
M  V30 4372 H 449.041 0.991066 2.95946 0
M  V30 4373 N 449.342 -1.36122 0.79427 0
M  V30 4374 C 450.272 -2.32551 0.210328 0
M  V30 4375 C 451.253 -1.56884 -0.657386 0
M  V30 4376 O 452.438 -1.85014 -0.590207 0
M  V30 4377 C 449.568 -3.41128 -0.651819 0
M  V30 4378 C 448.522 -4.27842 0.116395 0
M  V30 4379 C 447.848 -5.2763 -0.86666 0
M  V30 4380 C 449.148 -5.05647 1.30837 0
M  V30 4381 H 450.842 -2.81636 1.01594 0
M  V30 4382 H 448.388 -1.35407 0.489981 0
M  V30 4383 H 450.341 -4.07581 -1.07031 0
M  V30 4384 H 449.065 -2.90622 -1.49019 0
M  V30 4385 H 447.724 -3.62952 0.515915 0
M  V30 4386 H 447.372 -4.73395 -1.70019 0
M  V30 4387 H 447.072 -5.86514 -0.35705 0
M  V30 4388 H 448.596 -5.96955 -1.28361 0
M  V30 4389 H 450.01 -5.65113 0.965393 0
M  V30 4390 H 448.407 -5.73967 1.75161 0
M  V30 4391 H 449.477 -4.37006 2.10128 0
M  V30 4392 N 450.82 -0.546701 -1.47814 0
M  V30 4393 C 451.752 0.244196 -2.27895 0
M  V30 4394 C 452.765 0.88911 -1.36377 0
M  V30 4395 O 453.954 0.764733 -1.61289 0
M  V30 4396 C 451.054 1.36252 -3.10304 0
M  V30 4397 C 450.227 0.816382 -4.29714 0
M  V30 4398 C 449.286 1.81789 -4.93801 0
M  V30 4399 O 448.312 1.36818 -5.52512 0
M  V30 4400 N 449.514 3.15085 -4.87547 0
M  V30 4401 H 452.279 -0.442694 -2.96412 0
M  V30 4402 H 449.84 -0.382095 -1.57327 0
M  V30 4403 H 451.832 2.03102 -3.50045 0
M  V30 4404 H 450.402 1.95281 -2.44099 0
M  V30 4405 H 449.622 -0.0285981 -3.9419 0
M  V30 4406 H 450.91 0.430668 -5.06974 0
M  V30 4407 H 450.308 3.54275 -4.41028 0
M  V30 4408 H 448.865 3.77522 -5.31339 0
M  V30 4409 N 452.299 1.55045 -0.282633 0
M  V30 4410 C 453.547 1.99365 0.331334 0
M  V30 4411 C 453.868 1.1725 1.55812 0
M  V30 4412 O 453.138 0.263871 1.94115 0
M  V30 4413 H 451.718 0.736397 0.125414 0
M  V30 4414 H 454.38 1.90964 -0.389711 0
M  V30 4415 H 453.476 3.0596 0.616036 0
M  V30 4416 N 453.777 0.010035 1.57597 0
M  V30 4417 C 455.023 -0.673697 1.91283 0
M  V30 4418 C 455.356 -1.72863 0.884979 0
M  V30 4419 O 454.631 -1.94268 -0.0949487 0
M  V30 4420 C 454.914 -1.30766 3.35518 0
M  V30 4421 C 454.767 -0.263578 4.49027 0
M  V30 4422 C 456.086 -2.23105 3.79358 0
M  V30 4423 H 453.205 -0.243439 0.695634 0
M  V30 4424 H 455.847 0.0633864 1.89894 0
M  V30 4425 H 453.997 -1.93588 3.36832 0
M  V30 4426 H 455.669 0.365738 4.59848 0
M  V30 4427 H 453.912 0.413077 4.31829 0
M  V30 4428 H 454.583 -0.746398 5.4693 0
M  V30 4429 H 457.059 -1.70289 3.79659 0
M  V30 4430 H 455.935 -2.64424 4.81011 0
M  V30 4431 H 456.196 -3.11433 3.13787 0
M  V30 4432 N 455.255 -1.55392 -0.262866 0
M  V30 4433 C 456.666 -1.67079 -0.833158 0
M  V30 4434 C 457.017 -0.604539 -1.86654 0
M  V30 4435 O 456.142 0.252138 -2.14926 0
M  V30 4436 C 456.737 -3.02891 -1.51797 0
M  V30 4437 C 455.296 -3.16571 -2.03617 0
M  V30 4438 C 454.443 -2.62909 -0.881701 0
M  V30 4439 H 457.394 -1.58652 -0.0389986 0
M  V30 4440 H 457.415 -2.96445 -2.38538 0
M  V30 4441 H 456.927 -3.80473 -0.765619 0
M  V30 4442 H 455.028 -2.43782 -2.81782 0
M  V30 4443 H 455.141 -4.23271 -2.24452 0
M  V30 4444 H 453.505 -2.20324 -1.27786 0
M  V30 4445 H 454.288 -3.43003 -0.14269 0
M  V30 4446 N 456.733 0.527833 -1.48498 0
M  V30 4447 C 457.981 1.28101 -1.56316 0
M  V30 4448 C 458.302 1.9352 -0.239781 0
M  V30 4449 O 457.572 1.81433 0.738849 0
M  V30 4450 H 456.152 0.475793 -0.575873 0
M  V30 4451 H 458.814 0.614052 -1.84974 0
M  V30 4452 H 457.91 2.05916 -2.34532 0
M  V30 4453 N 458.211 1.37122 0.776871 0
M  V30 4454 C 459.622 1.28667 1.35284 0
M  V30 4455 C 459.973 -0.0680035 1.96082 0
M  V30 4456 O 459.098 -0.969743 1.93455 0
M  V30 4457 C 459.693 2.32997 2.45963 0
M  V30 4458 C 458.252 2.28191 2.99342 0
M  V30 4459 C 457.399 2.17101 1.72517 0
M  V30 4460 H 460.35 1.47819 0.577527 0
M  V30 4461 H 460.371 1.97366 3.2531 0
M  V30 4462 H 459.883 3.3158 2.01684 0
M  V30 4463 H 457.984 1.33115 3.4801 0
M  V30 4464 H 458.097 3.21397 3.55304 0
M  V30 4465 H 456.461 1.63562 1.95242 0
M  V30 4466 H 457.244 3.17591 1.30348 0
M  V30 4467 N 459.689 -1.00246 1.21608 0
M  V30 4468 C 461.1 -1.55511 1.03312 0
M  V30 4469 C 461.451 -1.91946 -0.406332 0
M  V30 4470 O 460.576 -1.73753 -1.28992 0
M  V30 4471 C 461.171 -2.82576 1.86913 0
M  V30 4472 C 459.73 -3.34318 1.72941 0
M  V30 4473 C 458.877 -2.07487 1.83968 0
M  V30 4474 H 461.828 -0.824638 1.35593 0
M  V30 4475 H 461.849 -3.54559 1.38087 0
M  V30 4476 H 461.361 -2.56026 2.91672 0
M  V30 4477 H 459.462 -3.65797 0.70877 0
M  V30 4478 H 459.575 -4.05566 2.55055 0
M  V30 4479 H 457.939 -2.20603 1.27304 0
M  V30 4480 H 458.722 -1.83346 2.9024 0
M  V30 4481 N 461.167 -1.02423 -1.1978 0
M  V30 4482 C 462.415 -0.716569 -1.8897 0
M  V30 4483 C 462.736 0.756769 -1.79716 0
M  V30 4484 O 462.006 1.5449 -1.20456 0
M  V30 4485 H 460.586 -0.262062 -0.699523 0
M  V30 4486 H 463.248 -1.29747 -1.45436 0
M  V30 4487 H 462.344 -1.00675 -2.95417 0
M  V30 4488 N 462.645 1.35699 -0.801477 0
M  V30 4489 C 463.608 2.28199 -0.213994 0
M  V30 4490 C 464.608 1.49359 0.595691 0
M  V30 4491 O 465.798 1.69186 0.414921 0
M  V30 4492 C 462.93 3.33587 0.702297 0
M  V30 4493 H 464.123 2.81666 -1.02976 0
M  V30 4494 H 461.676 1.45467 -0.571759 0
M  V30 4495 H 462.411 2.85297 1.54195 0
M  V30 4496 H 462.196 3.91906 0.123484 0
M  V30 4497 H 463.686 4.02638 1.10783 0
M  V30 4498 N 464.123 0.554532 1.47522 0
M  V30 4499 C 465.369 0.0295227 2.02779 0
M  V30 4500 C 465.702 -1.31582 1.42828 0
M  V30 4501 O 464.977 -1.85561 0.582872 0
M  V30 4502 C 465.26 -0.0664057 3.60039 0
M  V30 4503 C 465.113 1.30585 4.30427 0
M  V30 4504 C 466.432 -0.781162 4.33112 0
M  V30 4505 H 463.551 0.0122027 0.736899 0
M  V30 4506 H 466.193 0.716305 1.7598 0
M  V30 4507 H 464.343 -0.651307 3.83002 0
M  V30 4508 H 466.015 1.93374 4.18813 0
M  V30 4509 H 464.258 1.88125 3.90886 0
M  V30 4510 H 464.929 1.19147 5.38988 0
M  V30 4511 H 467.405 -0.284565 4.15126 0
M  V30 4512 H 466.281 -0.817237 5.42782 0
M  V30 4513 H 466.542 -1.83672 4.0214 0
M  V30 4514 N 465.601 -1.54893 0.290851 0
M  V30 4515 C 466.849 -1.99538 -0.320756 0
M  V30 4516 C 467.17 -1.18075 -1.55188 0
M  V30 4517 O 466.44 -0.274162 -1.93972 0
M  V30 4518 H 465.02 -0.737052 -0.121507 0
M  V30 4519 H 467.682 -1.90755 0.399832 0
M  V30 4520 H 466.778 -3.06282 -0.599802 0
M  V30 4521 N 467.08 -0.0183926 -1.57589 0
M  V30 4522 C 468.03 0.975944 -2.06057 0
M  V30 4523 C 469.014 1.29204 -0.958908 0
M  V30 4524 O 470.206 1.27995 -1.22255 0
M  V30 4525 C 467.335 2.26194 -2.58247 0
M  V30 4526 C 466.421 1.97467 -3.75323 0
M  V30 4527 N 466.812 1.38968 -4.86335 0
M  V30 4528 C 465.11 2.27515 -3.83605 0
M  V30 4529 C 465.811 1.27131 -5.67638 0
M  V30 4530 N 464.787 1.76319 -5.14211 0
M  V30 4531 H 468.589 0.518444 -2.89291 0
M  V30 4532 H 466.103 0.18688 -1.61321 0
M  V30 4533 H 468.1 2.98289 -2.91255 0
M  V30 4534 H 466.76 2.7258 -1.76438 0
M  V30 4535 H 467.771 1.06608 -5.06809 0
M  V30 4536 H 464.448 2.76649 -3.12684 0
M  V30 4537 H 465.838 0.819882 -6.66879 0
M  V30 4538 N 468.558 1.5553 0.254621 0
M  V30 4539 C 469.969 1.67518 0.824286 0
M  V30 4540 C 470.32 0.614429 1.86331 0
M  V30 4541 O 469.445 -0.240736 2.15057 0
M  V30 4542 C 470.04 3.03692 1.50189 0
M  V30 4543 C 468.599 3.17646 2.01935 0
M  V30 4544 C 467.746 2.63373 0.867746 0
M  V30 4545 H 470.697 1.58671 0.0305843 0
M  V30 4546 H 470.718 2.97706 2.36962 0
M  V30 4547 H 470.23 3.80874 0.745431 0
M  V30 4548 H 468.331 2.45273 2.80485 0
M  V30 4549 H 468.444 4.24455 2.22204 0
M  V30 4550 H 466.808 2.20999 1.26616 0
M  V30 4551 H 467.591 3.43074 0.124498 0
M  V30 4552 N 470.036 -0.519951 1.48776 0
M  V30 4553 C 471.284 -1.2727 1.56993 0
M  V30 4554 C 471.605 -1.9339 0.25004 0
M  V30 4555 O 470.875 -1.81822 -0.729216 0
M  V30 4556 H 469.455 -0.472732 0.578389 0
M  V30 4557 H 472.117 -0.604234 1.85297 0
M  V30 4558 H 471.213 -2.04669 2.3562 0
M  V30 4559 N 471.514 -1.37532 -0.769588 0
M  V30 4560 C 472.477 -1.33292 -1.86456 0
M  V30 4561 C 473.477 -0.236537 -1.59051 0
M  V30 4562 O 474.667 -0.492511 -1.67093 0
M  V30 4563 C 471.799 -1.07118 -3.23633 0
M  V30 4564 H 472.992 -2.30692 -1.91628 0
M  V30 4565 H 470.545 -1.22593 -0.969572 0
M  V30 4566 H 471.28 -0.102578 -3.24138 0
M  V30 4567 H 471.065 -1.86479 -3.44917 0
M  V30 4568 H 472.555 -1.06806 -4.03711 0
M  V30 4569 N 472.992 0.995999 -1.22138 0
M  V30 4570 C 473.939 2.08551 -0.988687 0
M  V30 4571 C 474.909 1.65864 0.0885021 0
M  V30 4572 O 476.094 1.90704 -0.0604589 0
M  V30 4573 C 473.234 3.40374 -0.569191 0
M  V30 4574 C 472.347 3.96421 -1.71681 0
M  V30 4575 C 471.482 5.1639 -1.2456 0
M  V30 4576 C 470.521 5.64567 -2.36497 0
M  V30 4577 N 469.658 6.75777 -1.90445 0
M  V30 4578 H 474.498 2.2779 -1.92135 0
M  V30 4579 H 472.035 1.1168 -0.957388 0
M  V30 4580 H 473.993 4.16068 -0.307166 0
M  V30 4581 H 472.623 3.21145 0.326462 0
M  V30 4582 H 471.675 3.17628 -2.09324 0
M  V30 4583 H 472.987 4.2816 -2.55891 0
M  V30 4584 H 472.141 5.99362 -0.940774 0
M  V30 4585 H 470.88 4.86266 -0.373662 0
M  V30 4586 H 469.885 4.80185 -2.67772 0
M  V30 4587 H 471.11 5.96716 -3.24202 0
M  V30 4588 H 469.056 6.47443 -1.05609 0
M  V30 4589 H 468.973 7.06818 -2.68223 0
M  V30 4590 H 470.241 7.62262 -1.63022 0
M  V30 4591 N 474.47 1.03057 1.19235 0
M  V30 4592 C 475.718 0.726581 1.88587 0
M  V30 4593 C 476.039 -0.747227 1.80115 0
M  V30 4594 O 475.309 -1.53849 1.21274 0
M  V30 4595 H 473.889 0.265768 0.698124 0
M  V30 4596 H 476.551 1.30516 1.44746 0
M  V30 4597 H 475.647 1.0224 2.94879 0
M  V30 4598 N 475.948 -1.35272 0.808662 0
M  V30 4599 C 476.858 -2.33546 0.222079 0
M  V30 4600 C 477.874 -1.6196 -0.636011 0
M  V30 4601 O 479.05 -1.93822 -0.547274 0
M  V30 4602 C 476.115 -3.41148 -0.61795 0
M  V30 4603 C 475.176 -4.28507 0.260875 0
M  V30 4604 C 474.409 -5.3097 -0.539156 0
M  V30 4605 O 474.632 -5.42123 -1.77367 0
M  V30 4606 O 473.566 -6.01858 0.0710526 0
M  V30 4607 H 477.392 -2.85515 1.03512 0
M  V30 4608 H 474.977 -1.38079 0.570495 0
M  V30 4609 H 476.859 -4.06889 -1.09634 0
M  V30 4610 H 475.534 -2.91447 -1.40855 0
M  V30 4611 H 474.441 -3.6574 0.786451 0
M  V30 4612 H 475.774 -4.81611 1.01547 0
M  V30 4613 N 477.426 -0.562348 -1.47226 0
M  V30 4614 C 478.837 -0.130325 -1.86245 0
M  V30 4615 C 479.188 1.30128 -1.46838 0
M  V30 4616 O 478.313 1.97974 -0.873805 0
M  V30 4617 C 478.908 -0.229738 -3.3802 0
M  V30 4618 C 477.467 0.14728 -3.76112 0
M  V30 4619 C 476.614 -0.574971 -2.71274 0
M  V30 4620 H 479.565 -0.771773 -1.3867 0
M  V30 4621 H 479.586 0.550316 -3.76499 0
M  V30 4622 H 479.098 -1.27178 -3.66671 0
M  V30 4623 H 477.199 1.19023 -3.53078 0
M  V30 4624 H 477.312 -0.214858 -4.78618 0
M  V30 4625 H 475.676 -0.0174756 -2.54694 0
M  V30 4626 H 476.459 -1.61827 -3.02766 0
M  V30 4627 N 478.904 1.54736 -0.299062 0
M  V30 4628 C 480.152 1.99706 0.31017 0
M  V30 4629 C 480.473 1.18896 1.54559 0
M  V30 4630 O 479.743 0.284445 1.93824 0
M  V30 4631 H 478.323 0.737686 0.117596 0
M  V30 4632 H 480.985 1.9054 -0.409943 0
M  V30 4633 H 480.081 3.06596 0.58355 0
M  V30 4634 N 480.382 0.0267497 1.57577 0
M  V30 4635 C 481.607 -0.666227 1.96408 0
M  V30 4636 C 482.032 -1.65004 0.903071 0
M  V30 4637 O 481.39 -1.80787 -0.136263 0
M  V30 4638 C 481.438 -1.35101 3.34335 0
M  V30 4639 O 480.542 -2.46623 3.30531 0
M  V30 4640 H 479.883 -0.175206 0.640468 0
M  V30 4641 H 482.413 0.0878977 2.04411 0
M  V30 4642 H 482.423 -1.70834 3.70513 0
M  V30 4643 H 481.098 -0.629844 4.11103 0
M  V30 4644 H 479.675 -2.13019 3.06068 0
M  V30 4645 N 481.861 -1.55662 -0.24637 0
M  V30 4646 C 482.824 -1.89558 -1.28842 0
M  V30 4647 C 483.824 -0.772082 -1.41052 0
M  V30 4648 O 485.014 -1.04007 -1.39743 0
M  V30 4649 C 482.146 -2.12449 -2.66605 0
M  V30 4650 H 483.339 -2.82735 -1.00004 0
M  V30 4651 H 480.892 -1.48562 -0.485684 0
M  V30 4652 H 481.627 -1.21742 -3.00582 0
M  V30 4653 H 481.412 -2.94273 -2.59125 0
M  V30 4654 H 482.902 -2.39854 -3.41847 0
M  V30 4655 N 483.339 0.512053 -1.4905 0
M  V30 4656 C 484.587 1.26436 -1.57665 0
M  V30 4657 C 484.908 1.93255 -0.260293 0
M  V30 4658 O 484.178 1.82206 0.719564 0
M  V30 4659 H 482.758 0.469658 -0.580888 0
M  V30 4660 H 485.42 0.594398 -1.85615 0
M  V30 4661 H 484.516 2.03417 -2.36702 0
M  V30 4662 N 484.817 1.37938 0.762283 0
M  V30 4663 C 486.042 1.37059 1.55659 0
M  V30 4664 C 486.467 -0.0396123 1.88058 0
M  V30 4665 O 485.825 -1.01929 1.49934 0
M  V30 4666 C 485.873 2.22494 2.83776 0
M  V30 4667 O 484.977 1.63607 3.78559 0
M  V30 4668 H 484.318 0.467892 0.47114 0
M  V30 4669 H 486.848 1.81587 0.942725 0
M  V30 4670 H 486.858 2.36045 3.32786 0
M  V30 4671 H 485.533 3.24993 2.59524 0
M  V30 4672 H 484.11 1.5915 3.37233 0
M  V30 4673 N 486.295 -0.989507 1.22664 0
M  V30 4674 C 487.706 -1.54406 1.04955 0
M  V30 4675 C 488.057 -1.92366 -0.385951 0
M  V30 4676 O 487.182 -1.75111 -1.27142 0
M  V30 4677 C 487.777 -2.80578 1.89899 0
M  V30 4678 C 486.336 -3.32464 1.76478 0
M  V30 4679 C 485.483 -2.05524 1.86159 0
M  V30 4680 H 488.434 -0.810211 1.3646 0
M  V30 4681 H 488.455 -3.53075 1.4184 0
M  V30 4682 H 487.967 -2.52918 2.94371 0
M  V30 4683 H 486.068 -3.65024 0.747528 0
M  V30 4684 H 486.181 -4.02838 2.59342 0
M  V30 4685 H 484.545 -2.19241 1.29636 0
M  V30 4686 H 485.328 -1.80258 2.92168 0
M  V30 4687 N 487.773 -1.03688 -1.18687 0
M  V30 4688 C 489.021 -0.736572 -1.88199 0
M  V30 4689 C 489.342 0.737665 -1.80509 0
M  V30 4690 O 488.612 1.53204 -1.22088 0
M  V30 4691 H 487.192 -0.269466 -0.696704 0
M  V30 4692 H 489.854 -1.31282 -1.44052 0
M  V30 4693 H 488.95 -1.03802 -2.94332 0
M  V30 4694 N 489.251 1.34841 -0.815825 0
M  V30 4695 C 490.667 1.51543 -0.500697 0
M  V30 4696 C 490.867 1.76261 0.976444 0
M  V30 4697 O 489.923 1.8094 1.76117 0
M  V30 4698 C 491.236 2.68487 -1.35407 0
M  V30 4699 C 492.784 2.82368 -1.35046 0
M  V30 4700 C 493.259 4.02347 -2.18816 0
M  V30 4701 N 494.75 4.09542 -2.16402 0
M  V30 4702 C 495.485 5.01517 -2.77971 0
M  V30 4703 N 494.981 5.98763 -3.48503 0
M  V30 4704 N 496.774 4.94334 -2.67563 0
M  V30 4705 H 488.925 1.17055 -1.77234 0
M  V30 4706 H 491.188 0.573481 -0.754866 0
M  V30 4707 H 490.894 2.56829 -2.40274 0
M  V30 4708 H 490.768 3.63321 -1.01377 0
M  V30 4709 H 493.155 2.93471 -0.309604 0
M  V30 4710 H 493.236 1.88363 -1.73069 0
M  V30 4711 H 492.88 3.92004 -3.22948 0
M  V30 4712 H 492.81 4.95551 -1.78148 0
M  V30 4713 H 495.301 3.39932 -1.65091 0
M  V30 4714 H 495.614 6.6556 -3.92747 0
M  V30 4715 H 493.959 5.98909 -3.52609 0
M  V30 4716 H 497.15 4.1732 -2.12041 0
M  V30 4717 H 497.323 5.6582 -3.15834 0
M  V30 4718 N 490.729 0.570148 1.46925 0
M  V30 4719 C 491.692 -0.159933 2.28641 0
M  V30 4720 C 492.692 -0.830638 1.37685 0
M  V30 4721 O 493.882 -0.684516 1.60187 0
M  V30 4722 C 491.014 -1.2354 3.17727 0
M  V30 4723 H 492.207 0.558035 2.94662 0
M  V30 4724 H 489.76 0.327603 1.52828 0
M  V30 4725 H 490.495 -1.98535 2.56426 0
M  V30 4726 H 490.28 -0.759125 3.84681 0
M  V30 4727 H 491.77 -1.74782 3.79264 0
M  V30 4728 N 492.207 -1.54576 0.307264 0
M  V30 4729 C 493.455 -1.99867 -0.299574 0
M  V30 4730 C 493.776 -1.19714 -1.53927 0
M  V30 4731 O 493.046 -0.29472 -1.9367 0
M  V30 4732 H 491.626 -0.738299 -0.113683 0
M  V30 4733 H 494.288 -1.9032 0.420042 0
M  V30 4734 H 493.384 -3.06901 -0.567283 0
M  V30 4735 N 493.685 -0.035106 -1.57561 0
M  V30 4736 C 494.615 0.942993 -2.13612 0
M  V30 4737 C 495.596 1.33531 -1.05373 0
M  V30 4738 O 496.781 1.41287 -1.33235 0
M  V30 4739 C 493.911 2.22332 -2.66807 0
M  V30 4740 C 492.865 1.97156 -3.79886 0
M  V30 4741 C 492.191 3.31506 -4.19533 0
M  V30 4742 C 493.491 1.30596 -5.05709 0
M  V30 4743 H 495.185 0.476179 -2.95589 0
M  V30 4744 H 492.731 0.227602 -1.4219 0
M  V30 4745 H 494.684 2.91142 -3.04654 0
M  V30 4746 H 493.408 2.7119 -1.81999 0
M  V30 4747 H 492.067 1.30763 -3.42486 0
M  V30 4748 H 491.715 3.78134 -3.31698 0
M  V30 4749 H 491.415 3.15465 -4.95738 0
M  V30 4750 H 492.939 4.01574 -4.59968 0
M  V30 4751 H 494.353 1.89416 -5.41105 0
M  V30 4752 H 492.75 1.24934 -5.86951 0
M  V30 4753 H 493.82 0.279742 -4.84092 0
M  V30 4754 N 495.163 1.55791 0.238111 0
M  V30 4755 C 496.574 1.68383 0.806472 0
M  V30 4756 C 496.925 0.634157 1.85669 0
M  V30 4757 O 496.05 -0.217913 2.153 0
M  V30 4758 C 496.645 3.05268 1.46959 0
M  V30 4759 C 495.204 3.1977 1.98555 0
M  V30 4760 C 494.351 2.64279 0.839763 0
M  V30 4761 H 497.302 1.58694 0.0137535 0
M  V30 4762 H 497.323 3.00203 2.33792 0
M  V30 4763 H 496.835 3.81643 0.704993 0
M  V30 4764 H 494.936 2.48234 2.77868 0
M  V30 4765 H 495.049 4.26788 2.17689 0
M  V30 4766 H 493.413 2.22329 1.24265 0
M  V30 4767 H 494.196 3.43187 0.0881032 0
M  V30 4768 N 496.642 -0.504142 1.49319 0
M  V30 4769 C 497.89 -1.25598 1.58334 0
M  V30 4770 C 498.211 -1.93114 0.270538 0
M  V30 4771 O 497.481 -1.82585 -0.709891 0
M  V30 4772 H 496.061 -0.466571 0.58337 0
M  V30 4773 H 498.723 -0.584547 1.85928 0
M  V30 4774 H 497.819 -2.02159 2.37778 0
M  V30 4775 N 498.12 -1.38341 -0.754957 0
M  V30 4776 C 499.345 -1.37882 -1.5493 0
M  V30 4777 C 499.77 0.0296385 -1.88077 0
M  V30 4778 O 499.128 1.01133 -1.50472 0
M  V30 4779 C 499.176 -2.23996 -2.82592 0
M  V30 4780 O 498.28 -1.65612 -3.77686 0
M  V30 4781 H 497.621 -0.470384 -0.468652 0
M  V30 4782 H 500.151 -1.82084 -0.933082 0
M  V30 4783 H 500.161 -2.37806 -3.3153 0
M  V30 4784 H 498.836 -3.26365 -2.57796 0
M  V30 4785 H 497.413 -1.60936 -3.36384 0
M  V30 4786 N 499.598 0.982988 -1.23187 0
M  V30 4787 C 501.009 1.53847 -1.05773 0
M  V30 4788 C 501.36 1.92568 0.375744 0
M  V30 4789 O 500.485 1.75783 1.26211 0
M  V30 4790 C 501.08 2.79567 -1.91384 0
M  V30 4791 C 499.639 3.31524 -1.78238 0
M  V30 4792 C 498.786 2.04534 -1.87246 0
M  V30 4793 H 501.737 0.802962 -1.36888 0
M  V30 4794 H 501.758 3.52317 -1.43711 0
M  V30 4795 H 501.27 2.51353 -2.95708 0
M  V30 4796 H 499.371 3.64623 -0.766875 0
M  V30 4797 H 499.484 4.01457 -2.61475 0
M  V30 4798 H 497.848 2.1855 -1.30797 0
M  V30 4799 H 498.631 1.78706 -2.9312 0
M  V30 4800 N 501.076 1.04316 1.18135 0
M  V30 4801 C 502.324 0.746542 1.87806 0
M  V30 4802 C 502.645 -0.728082 1.80898 0
M  V30 4803 O 501.915 -1.52554 1.22899 0
M  V30 4804 H 500.495 0.273157 0.695265 0
M  V30 4805 H 503.157 1.32044 1.43354 0
M  V30 4806 H 502.253 1.05362 2.93778 0
M  V30 4807 N 502.554 -1.34406 0.822964 0
M  V30 4808 C 503.779 -2.0304 0.423034 0
M  V30 4809 C 504.204 -1.61568 -0.963196 0
M  V30 4810 O 503.562 -0.800339 -1.62678 0
M  V30 4811 C 503.61 -3.56636 0.53321 0
M  V30 4812 O 502.714 -4.09971 -0.446939 0
M  V30 4813 H 502.055 -0.64075 0.174171 0
M  V30 4814 H 504.585 -1.71653 1.11339 0
M  V30 4815 H 504.595 -4.05945 0.408991 0
M  V30 4816 H 503.27 -3.86168 1.54425 0
M  V30 4817 H 501.847 -3.71835 -0.281601 0
M  V30 4818 N 504.032 -0.577932 -1.46621 0
M  V30 4819 C 505.443 -0.150071 -1.86096 0
M  V30 4820 C 505.794 1.28563 -1.48209 0
M  V30 4821 O 504.919 1.97036 -0.894754 0
M  V30 4822 C 505.514 -0.265576 -3.37758 0
M  V30 4823 C 504.073 0.10738 -3.76247 0
M  V30 4824 C 503.22 -0.603711 -2.70649 0
M  V30 4825 H 506.171 -0.786438 -1.37844 0
M  V30 4826 H 506.192 0.510352 -3.77062 0
M  V30 4827 H 505.704 -1.3106 -3.65301 0
M  V30 4828 H 503.805 1.15272 -3.54321 0
M  V30 4829 H 503.918 -0.26561 -4.78363 0
M  V30 4830 H 502.282 -0.0444884 -2.54661 0
M  V30 4831 H 503.065 -1.65029 -3.01032 0
M  V30 4832 N 505.51 1.54411 -0.315457 0
M  V30 4833 C 506.758 2.00023 0.288971 0
M  V30 4834 C 507.079 1.20529 1.5329 0
M  V30 4835 O 506.349 0.304986 1.93511 0
M  V30 4836 H 504.929 0.738891 0.109766 0
M  V30 4837 H 507.591 1.90094 -0.430129 0
M  V30 4838 H 506.687 3.07198 0.550999 0
M  V30 4839 N 506.988 0.0434614 1.5754 0
M  V30 4840 C 507.951 -0.918696 2.09982 0
M  V30 4841 C 508.951 -1.24488 1.01781 0
M  V30 4842 O 510.141 -1.18284 1.27885 0
M  V30 4843 C 507.273 -2.23093 2.57764 0
M  V30 4844 H 508.466 -0.464229 2.96285 0
M  V30 4845 H 506.019 -0.204818 1.54952 0
M  V30 4846 H 506.754 -2.73137 1.74832 0
M  V30 4847 H 506.539 -2.00724 3.36827 0
M  V30 4848 H 508.029 -2.92028 2.98512 0
M  V30 4849 N 508.466 -1.55915 -0.229846 0
M  V30 4850 C 509.694 -1.82617 -0.972562 0
M  V30 4851 C 510.109 -0.621488 -1.78278 0
M  V30 4852 O 509.466 0.409956 -1.77836 0
M  V30 4853 C 509.517 -3.0774 -1.89679 0
M  V30 4854 O 509.238 -4.23559 -1.11934 0
M  V30 4855 C 510.739 -3.47368 -2.75409 0
M  V30 4856 H 507.959 -0.60727 -0.285419 0
M  V30 4857 H 510.503 -2.02996 -0.247579 0
M  V30 4858 H 508.658 -2.89361 -2.57583 0
M  V30 4859 H 509.072 -4.94586 -1.74599 0
M  V30 4860 H 510.546 -4.37977 -3.35977 0
M  V30 4861 H 511.023 -2.68737 -3.47386 0
M  V30 4862 H 511.629 -3.68158 -2.12931 0
M  V30 4863 N 509.944 0.496216 -1.49584 0
M  V30 4864 C 511.192 1.24756 -1.58998 0
M  V30 4865 C 511.513 1.92968 -0.280775 0
M  V30 4866 O 510.783 1.82959 0.700198 0
M  V30 4867 H 509.363 0.463471 -0.585836 0
M  V30 4868 H 512.025 0.574678 -1.86235 0
M  V30 4869 H 511.121 2.00895 -2.38847 0
M  V30 4870 N 511.423 1.38739 0.74761 0
M  V30 4871 C 512.353 1.39173 1.87492 0
M  V30 4872 C 513.334 0.256794 1.6815 0
M  V30 4873 O 514.519 0.460762 1.88655 0
M  V30 4874 C 511.649 1.22197 3.25093 0
M  V30 4875 C 510.603 2.32957 3.59047 0
M  V30 4876 C 509.929 2.01082 4.95449 0
M  V30 4877 C 511.229 3.75237 3.6331 0
M  V30 4878 H 512.923 2.3351 1.87386 0
M  V30 4879 H 510.469 1.12399 0.900134 0
M  V30 4880 H 512.422 1.21124 4.03617 0
M  V30 4881 H 511.146 0.243241 3.25693 0
M  V30 4882 H 509.805 2.33226 2.82845 0
M  V30 4883 H 509.453 1.01678 4.92616 0
M  V30 4884 H 509.153 2.75267 5.19136 0
M  V30 4885 H 510.677 2.01638 5.76346 0
M  V30 4886 H 512.091 3.76966 4.31937 0
M  V30 4887 H 510.488 4.48677 3.98509 0
M  V30 4888 H 511.558 4.07122 2.634 0
M  V30 4889 N 512.901 -0.976442 1.23707 0
M  V30 4890 C 513.848 -2.06952 1.02174 0
M  V30 4891 C 514.818 -1.65984 -0.0621034 0
M  V30 4892 O 516.003 -1.90584 0.0907906 0
M  V30 4893 C 513.143 -3.39425 0.62327 0
M  V30 4894 C 512.256 -3.9364 1.77966 0
M  V30 4895 C 511.391 -5.14343 1.3276 0
M  V30 4896 C 510.43 -5.60733 2.45449 0
M  V30 4897 N 509.567 -6.72662 2.01172 0
M  V30 4898 H 514.407 -2.24704 1.95734 0
M  V30 4899 H 511.944 -1.10143 0.975034 0
M  V30 4900 H 513.902 -4.15526 0.37332 0
M  V30 4901 H 512.532 -3.21624 -0.275329 0
M  V30 4902 H 511.584 -3.14258 2.14351 0
M  V30 4903 H 512.896 -4.24035 2.62671 0
M  V30 4904 H 512.05 -5.97789 1.03601 0
M  V30 4905 H 510.789 -4.8561 0.450975 0
M  V30 4906 H 509.794 -4.75865 2.75378 0
M  V30 4907 H 511.019 -5.91483 3.33654 0
M  V30 4908 H 508.965 -6.45681 1.15895 0
M  V30 4909 H 508.882 -7.02462 2.79434 0
M  V30 4910 H 510.15 -7.59572 1.75129 0
M  V30 4911 N 514.379 -1.04941 -1.1758 0
M  V30 4912 C 515.627 -0.756492 -1.87408 0
M  V30 4913 C 515.948 0.718478 -1.81281 0
M  V30 4914 O 515.218 1.519 -1.23706 0
M  V30 4915 H 513.798 -0.276841 -0.693807 0
M  V30 4916 H 516.46 -1.32803 -1.42652 0
M  V30 4917 H 515.556 -1.06918 -2.93215 0
M  V30 4918 N 515.857 1.33968 -0.830081 0
M  V30 4919 C 517.082 2.02813 -0.433796 0
M  V30 4920 C 517.507 1.62076 0.954614 0
M  V30 4921 O 516.865 0.808955 1.62252 0
M  V30 4922 C 516.913 3.56348 -0.552115 0
M  V30 4923 O 516.017 4.10202 0.425191 0
M  V30 4924 H 515.358 0.639817 -0.177567 0
M  V30 4925 H 517.888 1.7106 -1.12248 0
M  V30 4926 H 517.898 4.05722 -0.430513 0
M  V30 4927 H 516.573 3.85344 -1.56471 0
M  V30 4928 H 515.15 3.71979 0.261878 0
M  V30 4929 N 517.335 0.585699 1.46312 0
M  V30 4930 C 518.282 -0.145835 2.30339 0
M  V30 4931 C 519.252 -0.881215 1.40797 0
M  V30 4932 O 520.437 -0.871293 1.69744 0
M  V30 4933 C 517.577 -1.15161 3.25318 0
M  V30 4934 C 516.69 -0.419367 4.2996 0
M  V30 4935 C 515.825 -1.41293 5.12064 0
M  V30 4936 C 514.864 -0.667261 6.08452 0
M  V30 4937 N 514.001 -1.60903 6.83414 0
M  V30 4938 H 518.841 0.576755 2.92365 0
M  V30 4939 H 516.378 0.296237 1.44086 0
M  V30 4940 H 518.336 -1.74763 3.78832 0
M  V30 4941 H 516.966 -1.84188 2.65094 0
M  V30 4942 H 516.018 0.291751 3.7928 0
M  V30 4943 H 517.33 0.163433 4.98532 0
M  V30 4944 H 516.484 -2.08167 5.6987 0
M  V30 4945 H 515.223 -2.02966 4.43459 0
M  V30 4946 H 514.228 0.0152356 5.49798 0
M  V30 4947 H 515.453 -0.0558817 6.79077 0
M  V30 4948 H 513.399 -2.21381 6.17516 0
M  V30 4949 H 513.316 -1.07911 7.48259 0
M  V30 4950 H 514.584 -2.26802 7.45775 0
M  V30 4951 N 518.813 -1.54241 0.323641 0
M  V30 4952 C 520.061 -2.00174 -0.278359 0
M  V30 4953 C 520.382 -1.2134 -1.52648 0
M  V30 4954 O 519.652 -0.315244 -1.93347 0
M  V30 4955 H 518.232 -0.739463 -0.105845 0
M  V30 4956 H 520.894 -1.89864 0.440204 0
M  V30 4957 H 519.99 -3.07486 -0.5347 0
M  V30 4958 N 520.291 -0.0518155 -1.57515 0
M  V30 4959 C 521.568 0.661727 -1.84067 0
M  V30 4960 C 521.948 1.88999 -0.940351 0
M  V30 4961 O 521.296 2.285 -0.00155404 0
M  V30 4962 C 521.506 1.01841 -3.3381 0
M  V30 4963 C 522.854 1.40043 -4.00841 0
M  V30 4964 O 523.878 1.11073 -3.38439 0
M  V30 4965 O 522.737 1.94111 -5.10865 0
M  V30 4966 H 519.831 0.326702 -0.759733 0
M  V30 4967 H 522.377 -0.0812277 -1.69505 0
M  V30 4968 H 521.149 0.145202 -3.91031 0
M  V30 4969 H 520.772 1.81879 -3.53562 0
M  V30 4970 N 521.769 1.56035 0.221574 0
M  V30 4971 C 522.997 1.8313 0.962864 0
M  V30 4972 C 523.412 0.630934 1.77946 0
M  V30 4973 O 522.769 -0.400519 1.78051 0
M  V30 4974 C 522.82 3.08742 1.88045 0
M  V30 4975 O 522.541 4.24147 1.09686 0
M  V30 4976 C 524.042 3.48824 2.73563 0
M  V30 4977 H 521.262 0.608775 0.282194 0
M  V30 4978 H 523.806 2.03124 0.23681 0
M  V30 4979 H 521.961 2.90723 2.56045 0
M  V30 4980 H 522.375 4.95505 1.71974 0
M  V30 4981 H 523.849 4.39752 3.3365 0
M  V30 4982 H 524.326 2.70575 3.45956 0
M  V30 4983 H 524.932 3.69282 2.10976 0
M  V30 4984 N 523.247 -0.488276 1.49845 0
M  V30 4985 C 524.495 -1.23911 1.59657 0
M  V30 4986 C 524.816 -1.92816 0.291005 0
M  V30 4987 O 524.086 -1.83328 -0.690485 0
M  V30 4988 H 522.666 -0.460357 0.588286 0
M  V30 4989 H 525.328 -0.564794 1.86537 0
M  V30 4990 H 524.424 -1.99625 2.39909 0
M  V30 4991 N 524.725 -1.39134 -0.740242 0
M  V30 4992 C 525.655 -1.40165 -1.86751 0
M  V30 4993 C 526.636 -0.265708 -1.68012 0
M  V30 4994 O 527.821 -0.47076 -1.88408 0
M  V30 4995 C 524.951 -1.2392 -3.2444 0
M  V30 4996 C 523.905 -2.34858 -3.57807 0
M  V30 4997 C 523.231 -2.03707 -4.94376 0
M  V30 4998 C 524.531 -3.77159 -3.61315 0
M  V30 4999 H 526.225 -2.345 -1.86145 0
M  V30 5000 H 523.771 -1.12875 -0.89416 0
M  V30 5001 H 525.724 -1.23263 -4.02969 0
M  V30 5002 H 524.448 -0.26051 -3.25559 0
M  V30 5003 H 523.107 -2.34723 -2.81604 0
M  V30 5004 H 522.755 -1.04289 -4.9207 0
M  V30 5005 H 522.455 -2.78016 -5.17669 0
M  V30 5006 H 523.979 -2.04691 -5.75268 0
M  V30 5007 H 525.393 -3.79252 -4.29931 0
M  V30 5008 H 523.79 -4.50784 -3.96124 0
M  V30 5009 H 524.86 -4.08513 -2.61238 0
M  V30 5010 N 526.204 0.969867 -1.24223 0
M  V30 5011 C 527.136 2.0669 -0.99055 0
M  V30 5012 C 528.149 1.62753 0.0392222 0
M  V30 5013 O 529.338 1.77403 -0.197561 0
M  V30 5014 C 526.438 3.35589 -0.472594 0
M  V30 5015 C 525.611 4.08444 -1.56499 0
M  V30 5016 C 524.67 5.15616 -1.05007 0
M  V30 5017 O 523.696 5.41911 -1.7413 0
M  V30 5018 N 524.898 5.80383 0.116641 0
M  V30 5019 H 527.663 2.28855 -1.93508 0
M  V30 5020 H 525.224 1.13733 -1.15223 0
M  V30 5021 H 527.216 4.04542 -0.112919 0
M  V30 5022 H 525.786 3.10311 0.377617 0
M  V30 5023 H 525.006 3.33798 -2.09696 0
M  V30 5024 H 526.294 4.53882 -2.29932 0
M  V30 5025 H 525.692 5.6142 0.694589 0
M  V30 5026 H 524.249 6.50462 0.417483 0
M  V30 5027 N 527.682 1.05563 1.17022 0
M  V30 5028 C 528.93 0.76642 1.87004 0
M  V30 5029 C 529.251 -0.708854 1.8166 0
M  V30 5030 O 528.521 -1.51242 1.2451 0
M  V30 5031 H 527.101 0.280516 0.692329 0
M  V30 5032 H 529.763 1.33557 1.41945 0
M  V30 5033 H 528.859 1.08472 2.92644 0
M  V30 5034 N 529.16 -1.33526 0.837174 0
M  V30 5035 C 530.092 -2.28077 0.226579 0
M  V30 5036 C 531.105 -1.51666 -0.591717 0
M  V30 5037 O 532.294 -1.73511 -0.419064 0
M  V30 5038 C 529.394 -3.31597 -0.69978 0
M  V30 5039 C 528.567 -4.37329 0.0788067 0
M  V30 5040 C 527.626 -5.20526 -0.770637 0
M  V30 5041 O 526.652 -5.68811 -0.210453 0
M  V30 5042 N 527.854 -5.41639 -2.08825 0
M  V30 5043 H 530.619 -2.81115 1.03897 0
M  V30 5044 H 528.18 -1.46201 0.695476 0
M  V30 5045 H 530.172 -3.84158 -1.27298 0
M  V30 5046 H 528.742 -2.78848 -1.41288 0
M  V30 5047 H 527.962 -3.8529 0.833381 0
M  V30 5048 H 529.25 -5.05079 0.614238 0
M  V30 5049 H 528.648 -5.04108 -2.56693 0
M  V30 5050 H 527.205 -5.97263 -2.60998 0
M  V30 5051 N 530.638 -0.59345 -1.46 0
M  V30 5052 C 531.57 0.171569 -2.28557 0
M  V30 5053 C 532.583 0.845273 -1.39137 0
M  V30 5054 O 533.772 0.713033 -1.6364 0
M  V30 5055 C 530.872 1.26311 -3.14482 0
M  V30 5056 C 530.045 0.679258 -4.32094 0
M  V30 5057 C 529.104 1.65987 -4.99334 0
M  V30 5058 O 528.13 1.19171 -5.56585 0
M  V30 5059 N 529.332 2.99414 -4.97324 0
M  V30 5060 H 532.097 -0.536771 -2.94854 0
M  V30 5061 H 529.658 -0.431954 -1.56031 0
M  V30 5062 H 531.65 1.91863 -3.5633 0
M  V30 5063 H 530.22 1.87416 -2.50188 0
M  V30 5064 H 529.44 -0.153992 -3.93899 0
M  V30 5065 H 530.728 0.26916 -5.08088 0
M  V30 5066 H 530.126 3.40064 -4.52076 0
M  V30 5067 H 528.683 3.60426 -5.4308 0
M  V30 5068 N 532.116 1.54067 -0.331816 0
M  V30 5069 C 533.364 2.00319 0.267739 0
M  V30 5070 C 533.685 1.22148 1.52003 0
M  V30 5071 O 532.955 0.325494 1.93177 0
M  V30 5072 H 531.535 0.740014 0.101922 0
M  V30 5073 H 534.197 1.89628 -0.450267 0
M  V30 5074 H 533.293 3.07765 0.518385 0
M  V30 5075 N 533.594 0.0601682 1.57485 0
M  V30 5076 C 535.01 -0.296422 1.56823 0
M  V30 5077 C 535.21 -1.70831 1.0686 0
M  V30 5078 O 534.266 -2.4174 0.729245 0
M  V30 5079 C 535.579 -0.116681 3.00474 0
M  V30 5080 C 537.127 -0.187103 3.1244 0
M  V30 5081 C 537.602 -0.035783 4.57986 0
M  V30 5082 N 539.093 -0.0917676 4.63109 0
M  V30 5083 C 539.828 0.00107251 5.734 0
M  V30 5084 N 539.324 0.146773 6.92645 0
M  V30 5085 N 541.117 -0.0551577 5.62073 0
M  V30 5086 H 533.268 0.983055 1.88281 0
M  V30 5087 H 535.531 0.382386 0.867459 0
M  V30 5088 H 535.237 0.85712 3.41096 0
M  V30 5089 H 535.111 -0.873929 3.66936 0
M  V30 5090 H 537.498 -1.15138 2.71712 0
M  V30 5091 H 537.579 0.601052 2.48638 0
M  V30 5092 H 537.223 0.925212 4.99402 0
M  V30 5093 H 537.153 -0.843196 5.19806 0
M  V30 5094 H 539.644 -0.203261 3.77353 0
M  V30 5095 H 539.957 0.210076 7.72514 0
M  V30 5096 H 538.302 0.181979 6.94762 0
M  V30 5097 H 541.493 -0.167605 4.678 0
M  V30 5098 H 541.666 0.020652 6.47997 0
M  V30 5099 N 535.072 -1.5615 -0.213296 0
M  V30 5100 C 536.019 -1.93086 -1.26437 0
M  V30 5101 C 536.989 -0.789086 -1.4616 0
M  V30 5102 O 538.174 -1.04569 -1.59593 0
M  V30 5103 C 535.314 -2.26003 -2.608 0
M  V30 5104 C 534.427 -3.53156 -2.48807 0
M  V30 5105 C 533.562 -3.7548 -3.7575 0
M  V30 5106 C 532.601 -4.96119 -3.58514 0
M  V30 5107 N 531.738 -5.14791 -4.77425 0
M  V30 5108 H 536.578 -2.82707 -0.942376 0
M  V30 5109 H 534.115 -1.39919 -0.454001 0
M  V30 5110 H 536.073 -2.431 -3.39055 0
M  V30 5111 H 534.703 -1.39546 -2.91079 0
M  V30 5112 H 533.755 -3.44207 -1.61944 0
M  V30 5113 H 535.067 -4.41565 -2.31996 0
M  V30 5114 H 534.221 -3.92718 -4.62447 0
M  V30 5115 H 532.96 -2.85368 -3.95495 0
M  V30 5116 H 531.965 -4.78823 -2.70201 0
M  V30 5117 H 533.19 -5.87724 -3.40231 0
M  V30 5118 H 531.136 -4.27623 -4.97468 0
M  V30 5119 H 531.053 -5.97347 -4.63371 0
M  V30 5120 H 532.321 -5.36471 -5.65525 0
M  V30 5121 N 536.55 0.480323 -1.50102 0
M  V30 5122 C 537.798 1.23063 -1.60312 0
M  V30 5123 C 538.119 1.92659 -0.301226 0
M  V30 5124 O 537.389 1.83691 0.680753 0
M  V30 5125 H 535.969 0.457231 -0.590719 0
M  V30 5126 H 538.631 0.554893 -1.86834 0
M  V30 5127 H 537.727 1.9835 -2.40964 0
M  V30 5128 N 538.028 1.39524 0.732853 0
M  V30 5129 C 538.938 1.40695 1.87729 0
M  V30 5130 C 539.954 0.301496 1.71368 0
M  V30 5131 O 541.13 0.543313 1.93933 0
M  V30 5132 C 538.195 1.25098 3.23344 0
M  V30 5133 C 537.256 2.45634 3.52083 0
M  V30 5134 C 536.489 2.30772 4.81228 0
M  V30 5135 O 536.712 1.31233 5.55098 0
M  V30 5136 O 535.646 3.19799 5.09914 0
M  V30 5137 H 539.472 2.37168 1.89697 0
M  V30 5138 H 537.057 1.20663 0.880959 0
M  V30 5139 H 538.939 1.18541 4.04383 0
M  V30 5140 H 537.614 0.317209 3.22142 0
M  V30 5141 H 536.521 2.57767 2.71122 0
M  V30 5142 H 537.854 3.37712 3.58066 0
M  V30 5143 N 539.506 -0.963266 1.24736 0
M  V30 5144 C 540.731 -1.74699 1.11781 0
M  V30 5145 C 541.156 -1.85267 -0.325258 0
M  V30 5146 O 540.514 -1.32681 -1.23553 0
M  V30 5147 C 540.562 -3.14322 1.76731 0
M  V30 5148 O 539.666 -3.99043 1.04109 0
M  V30 5149 H 539.007 -0.53684 0.390767 0
M  V30 5150 H 541.537 -1.20801 1.65131 0
M  V30 5151 H 541.547 -3.64824 1.82668 0
M  V30 5152 H 540.222 -3.05946 2.81726 0
M  V30 5153 H 538.799 -3.5752 1.05991 0
M  V30 5154 N 540.985 -1.06182 -1.16461 0
M  V30 5155 C 542.233 -0.776326 -1.86595 0
M  V30 5156 C 542.554 0.69921 -1.82033 0
M  V30 5157 O 541.824 1.50579 -1.2531 0
M  V30 5158 H 540.404 -0.284184 -0.690832 0
M  V30 5159 H 543.066 -1.34308 -1.41235 0
M  V30 5160 H 542.162 -1.10022 -2.92064 0
M  V30 5161 N 542.463 1.3308 -0.844243 0
M  V30 5162 C 543.709 1.97898 -0.443206 0
M  V30 5163 C 544.042 1.66699 0.99625 0
M  V30 5164 O 543.317 0.949704 1.69738 0
M  V30 5165 C 543.6 3.53801 -0.670606 0
M  V30 5166 C 543.453 3.94667 -2.15772 0
M  V30 5167 C 544.772 4.39936 -0.120226 0
M  V30 5168 H 541.891 0.718861 -0.162504 0
M  V30 5169 H 544.533 1.57633 -1.06075 0
M  V30 5170 H 542.683 3.88229 -0.14496 0
M  V30 5171 H 544.355 3.70469 -2.74865 0
M  V30 5172 H 542.598 3.44203 -2.6402 0
M  V30 5173 H 543.269 5.03275 -2.26757 0
M  V30 5174 H 545.745 4.12183 -0.5696 0
M  V30 5175 H 544.621 5.4803 -0.308984 0
M  V30 5176 H 544.882 4.31184 0.976347 0
M  V30 5177 N 543.941 0.601185 1.45683 0
M  V30 5178 C 545.352 0.179659 1.85834 0
M  V30 5179 C 545.703 -1.26189 1.50236 0
M  V30 5180 O 544.828 -1.95587 0.925987 0
M  V30 5181 C 545.423 0.319277 3.37292 0
M  V30 5182 C 543.982 -0.0475092 3.7637 0
M  V30 5183 C 543.129 0.646692 2.69654 0
M  V30 5184 H 546.08 0.808268 1.36575 0
M  V30 5185 H 546.101 -0.4503 3.77826 0
M  V30 5186 H 545.613 1.36855 3.6317 0
M  V30 5187 H 543.714 -1.0962 3.5611 0
M  V30 5188 H 543.827 0.34168 4.7788 0
M  V30 5189 H 542.191 0.0849971 2.54558 0
M  V30 5190 H 542.974 1.69797 2.98369 0
M  V30 5191 N 545.419 -1.53889 0.339982 0
M  V30 5192 C 546.667 -2.00458 -0.257112 0
M  V30 5193 C 546.988 -1.22953 -1.51353 0
M  V30 5194 O 546.258 -0.335734 -1.93002 0
M  V30 5195 H 544.838 -0.740544 -0.0979965 0
M  V30 5196 H 547.5 -1.89386 0.460317 0
M  V30 5197 H 546.596 -3.08035 -0.502057 0
M  V30 5198 N 546.897 -0.0685191 -1.57451 0
M  V30 5199 C 548.308 0.464634 -1.80826 0
M  V30 5200 C 548.659 1.69847 -0.982169 0
M  V30 5201 O 547.784 2.15439 -0.203734 0
M  V30 5202 C 548.379 0.849721 -3.27971 0
M  V30 5203 C 546.938 1.32776 -3.52204 0
M  V30 5204 C 546.085 0.311332 -2.75547 0
M  V30 5205 H 549.036 -0.294248 -1.55948 0
M  V30 5206 H 549.057 1.71138 -3.39841 0
M  V30 5207 H 548.569 -0.0484736 -3.8807 0
M  V30 5208 H 546.67 2.24456 -2.97406 0
M  V30 5209 H 546.783 1.30794 -4.60901 0
M  V30 5210 H 545.147 0.787915 -2.42206 0
M  V30 5211 H 545.93 -0.579078 -3.38381 0
M  V30 5212 N 548.375 1.56261 0.205012 0
M  V30 5213 C 549.338 1.92908 1.23771 0
M  V30 5214 C 550.338 0.809208 1.38955 0
M  V30 5215 O 551.528 1.07676 1.36936 0
M  V30 5216 C 548.66 2.19442 2.60879 0
M  V30 5217 H 549.853 2.85287 0.924728 0
M  V30 5218 H 547.406 1.49798 0.446125 0
M  V30 5219 H 548.141 1.29668 2.97248 0
M  V30 5220 H 547.926 3.0104 2.51232 0
M  V30 5221 H 549.416 2.48833 3.35368 0
M  V30 5222 N 549.853 -0.472356 1.50355 0
M  V30 5223 C 551.101 -1.22211 1.60962 0
M  V30 5224 C 551.422 -1.92497 0.311439 0
M  V30 5225 O 550.692 -1.8405 -0.671002 0
M  V30 5226 H 549.272 -0.454092 0.593135 0
M  V30 5227 H 551.934 -0.544977 1.87126 0
M  V30 5228 H 551.03 -1.9707 2.42012 0
M  V30 5229 N 551.331 -1.39911 -0.725443 0
M  V30 5230 C 552.577 -1.37858 -1.48738 0
M  V30 5231 C 552.91 0.0224187 -1.94187 0
M  V30 5232 O 552.185 0.989204 -1.67466 0
M  V30 5233 C 552.468 -2.3594 -2.72038 0
M  V30 5234 C 552.321 -3.85023 -2.32546 0
M  V30 5235 C 553.64 -2.31704 -3.74167 0
M  V30 5236 H 550.759 -0.502074 -0.539528 0
M  V30 5237 H 553.401 -1.70974 -0.828728 0
M  V30 5238 H 551.551 -2.0783 -3.28236 0
M  V30 5239 H 553.223 -4.2392 -1.81905 0
M  V30 5240 H 551.466 -4.01334 -1.64661 0
M  V30 5241 H 552.137 -4.49152 -3.20884 0
M  V30 5242 H 554.613 -2.5658 -3.27576 0
M  V30 5243 H 553.489 -3.02395 -4.58092 0
M  V30 5244 H 553.75 -1.3253 -4.21768 0
M  V30 5245 N 552.809 0.956637 -1.25245 0
M  V30 5246 C 553.756 2.053 -1.05454 0
M  V30 5247 C 554.726 1.66062 0.0356889 0
M  V30 5248 O 555.911 1.90415 -0.121099 0
M  V30 5249 C 553.051 3.38391 -0.677191 0
M  V30 5250 C 552.164 3.90758 -1.84206 0
M  V30 5251 C 551.299 5.12165 -1.40926 0
M  V30 5252 C 550.338 5.56757 -2.54338 0
M  V30 5253 N 549.475 6.69376 -2.11848 0
M  V30 5254 H 554.315 2.21562 -1.99284 0
M  V30 5255 H 551.852 1.08578 -0.992434 0
M  V30 5256 H 553.81 4.1488 -0.43938 0
M  V30 5257 H 552.44 3.22021 0.224127 0
M  V30 5258 H 551.492 3.10808 -2.19323 0
M  V30 5259 H 552.804 4.19802 -2.69383 0
M  V30 5260 H 551.958 5.96065 -1.13098 0
M  V30 5261 H 550.697 4.84832 -0.528175 0
M  V30 5262 H 549.702 4.71423 -2.82913 0
M  V30 5263 H 550.927 5.861 -3.43022 0
M  V30 5264 H 548.873 6.43756 -1.26153 0
M  V30 5265 H 548.79 6.97927 -2.90574 0
M  V30 5266 H 550.058 7.5669 -1.87191 0
M  V30 5267 N 554.287 1.06798 1.15896 0
M  V30 5268 C 555.535 0.786211 1.8618 0
M  V30 5269 C 555.856 -0.689547 1.82401 0
M  V30 5270 O 555.126 -1.49913 1.26107 0
M  V30 5271 H 553.706 0.287843 0.689315 0
M  V30 5272 H 556.368 1.35055 1.40521 0
M  V30 5273 H 555.464 1.1157 2.91477 0
M  V30 5274 N 555.766 -1.3263 0.851289 0
M  V30 5275 C 556.676 -2.32722 0.296268 0
M  V30 5276 C 557.692 -1.63901 -0.584162 0
M  V30 5277 O 558.868 -1.95465 -0.485334 0
M  V30 5278 C 555.933 -3.42942 -0.509103 0
M  V30 5279 C 554.994 -4.2746 0.397069 0
M  V30 5280 C 554.227 -5.32416 -0.36996 0
M  V30 5281 O 554.45 -5.47491 -1.6003 0
M  V30 5282 O 553.384 -6.01327 0.262493 0
M  V30 5283 H 557.21 -2.82078 1.12543 0
M  V30 5284 H 554.795 -1.36194 0.614135 0
M  V30 5285 H 556.677 -4.1017 -0.96634 0
M  V30 5286 H 555.352 -2.95781 -1.31512 0
M  V30 5287 H 554.259 -3.63053 0.902411 0
M  V30 5288 H 555.592 -4.78136 1.16818 0
M  V30 5289 N 557.244 -0.608902 -1.45362 0
M  V30 5290 C 558.176 0.147318 -2.28726 0
M  V30 5291 C 559.189 0.830468 -1.40025 0
M  V30 5292 O 560.378 0.695636 -1.64387 0
M  V30 5293 C 557.478 1.22968 -3.15804 0
M  V30 5294 C 556.651 0.633391 -4.3279 0
M  V30 5295 C 555.71 1.60682 -5.01067 0
M  V30 5296 O 554.736 1.13261 -5.57818 0
M  V30 5297 N 555.938 2.94123 -5.00472 0
M  V30 5298 H 558.703 -0.568014 -2.94268 0
M  V30 5299 H 556.264 -0.448479 -1.55564 0
M  V30 5300 H 558.256 1.88072 -3.58345 0
M  V30 5301 H 556.826 1.84752 -2.52162 0
M  V30 5302 H 556.046 -0.195762 -3.93714 0
M  V30 5303 H 557.334 0.215255 -5.08344 0
M  V30 5304 H 556.732 3.3525 -4.55657 0
M  V30 5305 H 555.289 3.54646 -5.46872 0
M  V30 5306 N 558.722 1.53707 -0.348139 0
M  V30 5307 C 559.97 2.00591 0.246478 0
M  V30 5308 C 560.291 1.23753 1.50699 0
M  V30 5309 O 559.561 0.345964 1.92821 0
M  V30 5310 H 558.141 0.741053 0.0940679 0
M  V30 5311 H 560.803 1.89139 -0.470354 0
M  V30 5312 H 559.899 3.08297 0.485714 0
M  V30 5313 N 560.2 0.0768682 1.57412 0
M  V30 5314 C 561.425 -0.603404 1.98428 0
M  V30 5315 C 561.85 -1.62047 0.955108 0
M  V30 5316 O 561.208 -1.81129 -0.0786778 0
M  V30 5317 C 561.256 -1.24396 3.38464 0
M  V30 5318 O 560.36 -2.35982 3.3821 0
M  V30 5319 H 559.701 -0.154741 0.645718 0
M  V30 5320 H 562.231 0.152885 2.04028 0
M  V30 5321 H 562.241 -1.5896 3.7576 0
M  V30 5322 H 560.916 -0.498735 4.12899 0
M  V30 5323 H 559.493 -2.03173 3.1269 0
M  V30 5324 N 561.678 -1.56367 -0.196722 0
M  V30 5325 C 563.089 -1.70462 -0.761545 0
M  V30 5326 C 563.44 -0.683161 -1.83922 0
M  V30 5327 O 562.565 0.160753 -2.15802 0
M  V30 5328 C 563.16 -3.09057 -1.38814 0
M  V30 5329 C 561.719 -3.24922 -1.90007 0
M  V30 5330 C 560.866 -2.66412 -0.769399 0
M  V30 5331 H 563.817 -1.58675 0.0283263 0
M  V30 5332 H 563.838 -3.06296 -2.2575 0
M  V30 5333 H 563.35 -3.83378 -0.603559 0
M  V30 5334 H 561.451 -2.55514 -2.71189 0
M  V30 5335 H 561.564 -4.3241 -2.06297 0
M  V30 5336 H 559.928 -2.25546 -1.18326 0
M  V30 5337 H 560.711 -3.433 0.00291773 0
M  V30 5338 N 563.156 0.464375 -1.50603 0
M  V30 5339 C 564.404 1.21356 -1.61608 0
M  V30 5340 C 564.725 1.92329 -0.321643 0
M  V30 5341 O 563.995 1.84403 0.661232 0
M  V30 5342 H 562.575 0.45094 -0.595535 0
M  V30 5343 H 565.237 0.535046 -1.87412 0
M  V30 5344 H 564.333 1.95783 -2.43054 0
M  V30 5345 N 564.634 1.40294 0.718013 0
M  V30 5346 C 565.564 1.43118 1.84498 0
M  V30 5347 C 566.545 0.292403 1.67568 0
M  V30 5348 O 567.73 0.500675 1.87635 0
M  V30 5349 C 564.86 1.29065 3.22427 0
M  V30 5350 C 563.814 2.40521 3.54025 0
M  V30 5351 C 563.14 2.11546 4.91073 0
M  V30 5352 C 564.44 3.82859 3.55269 0
M  V30 5353 H 566.134 2.37432 1.82391 0
M  V30 5354 H 563.68 1.14283 0.87609 0
M  V30 5355 H 565.633 1.29658 4.00957 0
M  V30 5356 H 564.357 0.312271 3.25104 0
M  V30 5357 H 563.016 2.39173 2.77834 0
M  V30 5358 H 562.664 1.12104 4.90348 0
M  V30 5359 H 562.364 2.86216 5.1318 0
M  V30 5360 H 563.888 2.13817 5.71939 0
M  V30 5361 H 565.302 3.86044 4.23843 0
M  V30 5362 H 563.699 4.57029 3.88902 0
M  V30 5363 H 564.769 4.12617 2.54706 0
M  V30 5364 N 566.112 -0.949982 1.2575 0
M  V30 5365 C 567.075 -2.02894 1.06615 0
M  V30 5366 C 568.075 -1.60791 0.0173905 0
M  V30 5367 O 569.265 -1.72249 0.260003 0
M  V30 5368 C 566.397 -3.35219 0.619751 0
M  V30 5369 H 567.59 -2.21302 2.02399 0
M  V30 5370 H 565.143 -1.12772 1.08223 0
M  V30 5371 H 565.878 -3.22508 -0.340486 0
M  V30 5372 H 565.663 -3.67129 1.37692 0
M  V30 5373 H 567.153 -4.14505 0.507443 0
M  V30 5374 N 567.59 -1.07411 -1.15328 0
M  V30 5375 C 568.838 -0.796073 -1.85761 0
M  V30 5376 C 569.159 0.679864 -1.82764 0
M  V30 5377 O 568.429 1.49242 -1.269 0
M  V30 5378 H 567.009 -0.291495 -0.687779 0
M  V30 5379 H 569.671 -1.35799 -1.39802 0
M  V30 5380 H 568.767 -1.13114 -2.90881 0
M  V30 5381 N 569.068 1.32177 -0.85831 0
M  V30 5382 C 570.479 1.79381 -0.517621 0
M  V30 5383 C 570.83 1.70841 0.964769 0
M  V30 5384 O 569.955 1.26917 1.75274 0
M  V30 5385 C 570.55 3.25706 -0.932801 0
M  V30 5386 C 569.109 3.70851 -0.643953 0
M  V30 5387 C 568.256 2.53208 -1.13054 0
M  V30 5388 H 571.207 1.19424 -1.04516 0
M  V30 5389 H 571.228 3.79673 -0.250674 0
M  V30 5390 H 570.74 3.31889 -2.01174 0
M  V30 5391 H 568.841 3.70178 0.424112 0
M  V30 5392 H 568.954 4.63495 -1.21281 0
M  V30 5393 H 567.318 2.48676 -0.550679 0
M  V30 5394 H 568.101 2.62143 -2.21666 0
M  V30 5395 N 570.547 0.616602 1.45037 0
M  V30 5396 C 571.494 -0.0969439 2.30596 0
M  V30 5397 C 572.464 -0.851151 1.42635 0
M  V30 5398 O 573.649 -0.835092 1.71554 0
M  V30 5399 C 570.789 -1.08234 3.27688 0
M  V30 5400 C 569.902 -0.328072 4.30752 0
M  V30 5401 C 569.037 -1.30399 5.14946 0
M  V30 5402 C 568.076 -0.538049 6.09731 0
M  V30 5403 N 567.213 -1.46371 6.86673 0
M  V30 5404 H 572.053 0.63864 2.91076 0
M  V30 5405 H 569.59 0.326733 1.43425 0
M  V30 5406 H 571.548 -1.66688 3.82454 0
M  V30 5407 H 570.178 -1.78523 2.68941 0
M  V30 5408 H 569.23 0.372136 3.78575 0
M  V30 5409 H 570.542 0.269142 4.98073 0
M  V30 5410 H 569.696 -1.96032 5.74157 0
M  V30 5411 H 568.435 -1.93514 4.47665 0
M  V30 5412 H 567.44 0.131852 5.49642 0
M  V30 5413 H 568.665 0.0881732 6.79043 0
M  V30 5414 H 566.611 -2.08233 6.22073 0
M  V30 5415 H 566.528 -0.920152 7.50379 0
M  V30 5416 H 567.796 -2.10932 7.50418 0
M  V30 5417 N 572.025 -1.5352 0.356285 0
M  V30 5418 C 573.273 -2.00719 -0.235837 0
M  V30 5419 C 573.594 -1.24551 -1.5004 0
M  V30 5420 O 572.864 -0.356185 -1.92635 0
M  V30 5421 H 571.444 -0.741542 -0.0901366 0
M  V30 5422 H 574.106 -1.88887 0.480378 0
M  V30 5423 H 573.202 -3.08551 -0.469357 0
M  V30 5424 N 573.503 -0.0852151 -1.57369 0
M  V30 5425 C 574.466 0.8627 -2.12344 0
M  V30 5426 C 575.466 1.21746 -1.05046 0
M  V30 5427 O 576.656 1.14852 -1.30976 0
M  V30 5428 C 573.788 2.1618 -2.63589 0
M  V30 5429 H 574.981 0.385511 -2.97412 0
M  V30 5430 H 572.534 0.163663 -1.55441 0
M  V30 5431 H 573.269 2.68406 -1.82013 0
M  V30 5432 H 573.054 1.91723 -3.4203 0
M  V30 5433 H 574.544 2.84011 -3.06149 0
M  V30 5434 N 574.981 1.5647 0.188427 0
M  V30 5435 C 576.392 1.70864 0.752494 0
M  V30 5436 C 576.743 0.692905 1.83557 0
M  V30 5437 O 575.868 -0.149307 2.15884 0
M  V30 5438 C 576.463 3.09789 1.37173 0
M  V30 5439 C 575.022 3.25925 1.88281 0
M  V30 5440 C 574.169 2.66817 0.755259 0
M  V30 5441 H 577.12 1.58657 -0.0367408 0
M  V30 5442 H 577.141 3.07489 2.24122 0
M  V30 5443 H 576.653 3.83693 0.583219 0
M  V30 5444 H 574.754 2.56948 2.6983 0
M  V30 5445 H 574.867 4.33498 2.04001 0
M  V30 5446 H 573.231 2.2617 1.17128 0
M  V30 5447 H 574.014 3.43294 -0.0211237 0
M  V30 5448 N 576.459 -0.456382 1.50847 0
M  V30 5449 C 577.707 -1.20497 1.62249 0
M  V30 5450 C 578.028 -1.92156 0.331839 0
M  V30 5451 O 577.298 -1.84751 -0.651443 0
M  V30 5452 H 575.878 -0.447775 0.597918 0
M  V30 5453 H 578.54 -0.525099 1.87693 0
M  V30 5454 H 577.636 -1.94492 2.44089 0
M  V30 5455 N 577.937 -1.40673 -0.710563 0
M  V30 5456 C 578.869 -1.37256 -1.83558 0
M  V30 5457 C 579.882 -0.277133 -1.60424 0
M  V30 5458 O 581.071 -0.537831 -1.70205 0
M  V30 5459 C 578.171 -1.1144 -3.20054 0
M  V30 5460 C 577.344 -2.32734 -3.70342 0
M  V30 5461 C 576.403 -2.03002 -4.85465 0
M  V30 5462 O 575.429 -2.75912 -4.97857 0
M  V30 5463 N 576.631 -1.01105 -5.71627 0
M  V30 5464 H 579.396 -2.34215 -1.86985 0
M  V30 5465 H 576.957 -1.35091 -0.892301 0
M  V30 5466 H 578.949 -0.895265 -3.94673 0
M  V30 5467 H 577.519 -0.231307 -3.11743 0
M  V30 5468 H 576.739 -2.70446 -2.86798 0
M  V30 5469 H 578.027 -3.13584 -4.00678 0
M  V30 5470 H 577.425 -0.407303 -5.64232 0
M  V30 5471 H 575.982 -0.85182 -6.4621 0
M  V30 5472 N 579.415 0.9433 -1.26252 0
M  V30 5473 C 580.378 2.02326 -1.07689 0
M  V30 5474 C 581.378 1.60779 -0.0259174 0
M  V30 5475 O 582.568 1.72108 -0.269134 0
M  V30 5476 C 579.7 3.34886 -0.63752 0
M  V30 5477 H 580.893 2.20225 -2.0357 0
M  V30 5478 H 578.446 1.12197 -1.08819 0
M  V30 5479 H 579.181 3.22684 0.323377 0
M  V30 5480 H 578.966 3.66393 -1.39637 0
M  V30 5481 H 580.456 4.14231 -0.529418 0
M  V30 5482 N 580.893 1.08022 1.14757 0
M  V30 5483 C 582.141 0.805913 1.85336 0
M  V30 5484 C 582.462 -0.670162 1.83122 0
M  V30 5485 O 581.732 -1.48567 1.2769 0
M  V30 5486 H 580.312 0.295138 0.686223 0
M  V30 5487 H 582.974 1.36538 1.3908 0
M  V30 5488 H 582.07 1.14655 2.90277 0
M  V30 5489 N 582.371 -1.3172 0.865308 0
M  V30 5490 C 583.303 -2.27545 0.274906 0
M  V30 5491 C 584.316 -1.52887 -0.559413 0
M  V30 5492 O 585.505 -1.74361 -0.382166 0
M  V30 5493 C 582.605 -3.33006 -0.629286 0
M  V30 5494 C 581.778 -4.37063 0.171553 0
M  V30 5495 C 580.837 -5.22044 -0.660052 0
M  V30 5496 O 579.863 -5.69129 -0.0897527 0
M  V30 5497 N 581.065 -5.45946 -1.97289 0
M  V30 5498 H 583.83 -2.78848 1.09836 0
M  V30 5499 H 581.391 -1.44693 0.726331 0
M  V30 5500 H 583.383 -3.86772 -1.19121 0
M  V30 5501 H 581.953 -2.81782 -1.35342 0
M  V30 5502 H 581.173 -3.83436 0.914919 0
M  V30 5503 H 582.461 -5.03662 0.721235 0
M  V30 5504 H 581.859 -5.0944 -2.45942 0
M  V30 5505 H 580.416 -6.02665 -2.4827 0
M  V30 5506 N 583.85 -0.624285 -1.44708 0
M  V30 5507 C 584.797 0.0847135 -2.30644 0
M  V30 5508 C 585.767 0.843575 -1.43084 0
M  V30 5509 O 586.952 0.825982 -1.71995 0
M  V30 5510 C 584.091 1.06495 -3.28257 0
M  V30 5511 C 583.205 0.305224 -4.3092 0
M  V30 5512 C 582.34 1.27667 -5.1563 0
M  V30 5513 C 581.379 0.505706 -6.10007 0
M  V30 5514 N 580.516 1.42727 -6.8744 0
M  V30 5515 H 585.356 -0.654068 -2.90733 0
M  V30 5516 H 582.893 -0.334334 -1.4325 0
M  V30 5517 H 584.851 1.64658 -3.83332 0
M  V30 5518 H 583.481 1.77094 -2.69884 0
M  V30 5519 H 582.533 -0.392207 -3.78373 0
M  V30 5520 H 583.845 -0.295553 -4.97924 0
M  V30 5521 H 582.999 1.92984 -5.75189 0
M  V30 5522 H 581.738 1.91137 -4.48685 0
M  V30 5523 H 580.743 -0.160999 -5.49564 0
M  V30 5524 H 581.968 -0.124183 -6.78986 0
M  V30 5525 H 579.913 2.04931 -6.23169 0
M  V30 5526 H 579.831 0.880345 -7.50857 0
M  V30 5527 H 581.099 2.0695 -7.51526 0
M  V30 5528 N 585.328 1.53329 -0.364422 0
M  V30 5529 C 586.576 2.00842 0.225189 0
M  V30 5530 C 586.897 1.25345 1.49378 0
M  V30 5531 O 586.167 0.366396 1.92443 0
M  V30 5532 H 584.747 0.742009 0.0862027 0
M  V30 5533 H 587.409 1.8863 -0.490389 0
M  V30 5534 H 586.505 3.08795 0.452987 0
M  V30 5535 N 586.806 0.0935595 1.57322 0
M  V30 5536 C 588.083 -0.612692 1.85756 0
M  V30 5537 C 588.463 -1.86439 0.99013 0
M  V30 5538 O 587.811 -2.28416 0.0621362 0
M  V30 5539 C 588.021 -0.929547 3.36393 0
M  V30 5540 C 589.369 -1.29366 4.04413 0
M  V30 5541 O 590.393 -1.02061 3.41265 0
M  V30 5542 O 589.252 -1.80498 5.15832 0
M  V30 5543 H 586.346 -0.306444 0.768128 0
M  V30 5544 H 588.892 0.126141 1.69231 0
M  V30 5545 H 587.664 -0.0414766 3.91278 0
M  V30 5546 H 587.287 -1.72441 3.5826 0
M  V30 5547 N 588.284 -1.56567 -0.180126 0
M  V30 5548 C 589.216 -1.92275 -1.24751 0
M  V30 5549 C 590.229 -0.814922 -1.40936 0
M  V30 5550 O 591.418 -1.09336 -1.41095 0
M  V30 5551 C 588.518 -2.15265 -2.61752 0
M  V30 5552 C 587.691 -3.46467 -2.66981 0
M  V30 5553 C 586.75 -3.58391 -3.85283 0
M  V30 5554 O 585.776 -4.31086 -3.7169 0
M  V30 5555 N 586.978 -2.92587 -5.01371 0
M  V30 5556 H 589.743 -2.84435 -0.944302 0
M  V30 5557 H 587.304 -1.57617 -0.369952 0
M  V30 5558 H 589.296 -2.20515 -3.39345 0
M  V30 5559 H 587.866 -1.29533 -2.845 0
M  V30 5560 H 587.086 -3.52953 -1.75549 0
M  V30 5561 H 588.374 -4.32819 -2.67479 0
M  V30 5562 H 587.772 -2.3338 -5.15316 0
M  V30 5563 H 586.329 -3.03444 -5.76858 0
M  V30 5564 N 589.762 0.448376 -1.51087 0
M  V30 5565 C 591.01 1.19635 -1.62886 0
M  V30 5566 C 591.331 1.91977 -0.342024 0
M  V30 5567 O 590.601 1.85094 0.641636 0
M  V30 5568 H 589.181 0.444598 -0.600285 0
M  V30 5569 H 591.843 0.515138 -1.87969 0
M  V30 5570 H 590.939 1.93194 -2.45117 0
M  V30 5571 N 591.24 1.41047 0.703093 0
M  V30 5572 C 592.486 1.40207 1.46526 0
M  V30 5573 C 592.819 0.00847763 1.94198 0
M  V30 5574 O 592.094 -0.962437 1.69019 0
M  V30 5575 C 592.377 2.40238 2.6825 0
M  V30 5576 C 592.23 3.88674 2.26391 0
M  V30 5577 C 593.549 2.37627 3.70434 0
M  V30 5578 H 590.668 0.510594 0.531472 0
M  V30 5579 H 593.31 1.72271 0.801422 0
M  V30 5580 H 591.46 2.13026 3.24888 0
M  V30 5581 H 593.132 4.2676 1.75138 0
M  V30 5582 H 591.375 4.03903 1.58255 0
M  V30 5583 H 592.046 4.542 3.13698 0
M  V30 5584 H 594.522 2.61759 3.23452 0
M  V30 5585 H 593.398 3.09645 4.53223 0
M  V30 5586 H 593.659 1.39223 4.19606 0
M  V30 5587 N 592.718 -0.936591 1.26751 0
M  V30 5588 C 593.665 -2.03597 1.08706 0
M  V30 5589 C 594.635 -1.66097 -0.00926542 0
M  V30 5590 O 595.82 -1.90199 0.151377 0
M  V30 5591 C 592.96 -3.3727 0.73094 0
M  V30 5592 C 592.073 -3.87778 1.90399 0
M  V30 5593 C 591.208 -5.09859 1.49056 0
M  V30 5594 C 590.247 -5.5264 2.63164 0
M  V30 5595 N 589.384 -6.65921 2.22471 0
M  V30 5596 H 594.224 -2.18364 2.02784 0
M  V30 5597 H 591.761 -1.06985 1.00958 0
M  V30 5598 H 593.719 -4.14128 0.505328 0
M  V30 5599 H 592.349 -3.22337 -0.172868 0
M  V30 5600 H 591.401 -3.07279 2.2424 0
M  V30 5601 H 592.713 -4.15464 2.76028 0
M  V30 5602 H 591.867 -5.9419 1.22567 0
M  V30 5603 H 590.606 -4.8393 0.60524 0
M  V30 5604 H 589.611 -4.66863 2.90377 0
M  V30 5605 H 590.836 -5.80568 3.52303 0
M  V30 5606 H 588.782 -6.41667 1.36379 0
M  V30 5607 H 588.699 -6.93216 3.01641 0
M  V30 5608 H 589.967 -7.53616 1.99205 0
M  V30 5609 N 594.196 -1.08629 -1.14182 0
M  V30 5610 C 595.444 -0.815731 -1.84906 0
M  V30 5611 C 595.765 0.660441 -1.83475 0
M  V30 5612 O 595.035 1.47888 -1.28476 0
M  V30 5613 H 593.615 -0.298773 -0.684648 0
M  V30 5614 H 596.277 -1.37274 -1.38354 0
M  V30 5615 H 595.373 -1.16193 -2.89665 0
M  V30 5616 N 595.674 1.31259 -0.872281 0
M  V30 5617 C 596.899 2.0133 -0.498099 0
M  V30 5618 C 597.324 1.65031 0.902568 0
M  V30 5619 O 596.682 0.860164 1.59596 0
M  V30 5620 C 596.73 3.54411 -0.665205 0
M  V30 5621 O 595.834 4.11347 0.294473 0
M  V30 5622 H 595.175 0.633844 -0.197832 0
M  V30 5623 H 597.705 1.67402 -1.17633 0
M  V30 5624 H 597.715 4.04147 -0.559373 0
M  V30 5625 H 596.39 3.80171 -1.68651 0
M  V30 5626 H 594.967 3.72624 0.143403 0
M  V30 5627 N 597.152 0.631951 1.44375 0
M  V30 5628 C 598.377 0.142146 2.06912 0
M  V30 5629 C 598.802 -1.17456 1.4692 0
M  V30 5630 O 598.16 -1.72074 0.570975 0
M  V30 5631 C 598.208 0.0417952 3.60576 0
M  V30 5632 O 597.312 -1.00194 4.00044 0
M  V30 5633 H 596.653 0.0851491 0.658518 0
M  V30 5634 H 599.183 0.868863 1.85235 0
M  V30 5635 H 599.193 -0.148517 4.0773 0
M  V30 5636 H 597.868 1.0031 4.03622 0
M  V30 5637 H 596.445 -0.786131 3.64519 0
M  V30 5638 N 598.631 -1.53133 0.372548 0
M  V30 5639 C 599.879 -2.00958 -0.214534 0
M  V30 5640 C 600.2 -1.26135 -1.48711 0
M  V30 5641 O 599.47 -0.376597 -1.92246 0
M  V30 5642 H 598.05 -0.742456 -0.0822664 0
M  V30 5643 H 600.712 -1.88367 0.500385 0
M  V30 5644 H 599.808 -3.09031 -0.436605 0
M  V30 5645 N 600.109 -0.101901 -1.5727 0
M  V30 5646 C 601.019 0.868647 -2.17926 0
M  V30 5647 C 602.035 1.30527 -1.1506 0
M  V30 5648 O 603.211 1.37178 -1.47459 0
M  V30 5649 C 600.276 2.10727 -2.75309 0
M  V30 5650 C 599.337 1.7242 -3.93154 0
M  V30 5651 C 598.57 2.90377 -4.47791 0
M  V30 5652 O 598.793 4.05305 -4.01353 0
M  V30 5653 O 597.727 2.6845 -5.38719 0
M  V30 5654 H 601.553 0.382544 -3.01281 0
M  V30 5655 H 599.138 0.122812 -1.48894 0
M  V30 5656 H 601.02 2.83303 -3.11958 0
M  V30 5657 H 599.695 2.58376 -1.94996 0
M  V30 5658 H 598.602 0.970039 -3.61305 0
M  V30 5659 H 599.935 1.29528 -4.74851 0
M  V30 5660 N 601.587 1.56661 0.17182 0
M  V30 5661 C 602.519 1.92934 1.2373 0
M  V30 5662 C 603.532 0.822385 1.40502 0
M  V30 5663 O 604.721 1.10083 1.40514 0
M  V30 5664 C 601.821 2.16651 2.60607 0
M  V30 5665 C 600.994 3.47878 2.6514 0
M  V30 5666 C 600.053 3.60429 3.83377 0
M  V30 5667 O 599.079 4.33051 3.69398 0
M  V30 5668 N 600.281 2.95241 4.99813 0
M  V30 5669 H 603.046 2.84931 0.929205 0
M  V30 5670 H 600.607 1.5781 0.361588 0
M  V30 5671 H 602.599 2.22312 3.38171 0
M  V30 5672 H 601.169 1.3104 2.83809 0
M  V30 5673 H 600.389 3.53879 1.73675 0
M  V30 5674 H 601.677 4.34232 2.6518 0
M  V30 5675 H 601.075 2.3611 5.14071 0
M  V30 5676 H 599.632 3.06499 5.75241 0
M  V30 5677 N 603.065 -0.440357 1.51323 0
M  V30 5678 C 604.313 -1.18769 1.63518 0
M  V30 5679 C 604.634 -1.91793 0.352201 0
M  V30 5680 O 603.904 -1.85432 -0.631811 0
M  V30 5681 H 602.484 -0.441408 0.602634 0
M  V30 5682 H 605.146 -0.505162 1.8824 0
M  V30 5683 H 604.242 -1.91892 2.46138 0
M  V30 5684 N 604.543 -1.41418 -0.695603 0
M  V30 5685 C 605.789 -1.40982 -1.4578 0
M  V30 5686 C 606.122 -0.0187763 -1.94191 0
M  V30 5687 O 605.397 0.95346 -1.69527 0
M  V30 5688 C 605.68 -2.41657 -2.66972 0
M  V30 5689 C 605.533 -3.89869 -2.24327 0
M  V30 5690 C 606.852 -2.39589 -3.69168 0
M  V30 5691 H 603.971 -0.513405 -0.528757 0
M  V30 5692 H 606.613 -1.72693 -0.792275 0
M  V30 5693 H 604.763 -2.14746 -3.23754 0
M  V30 5694 H 606.435 -4.27683 -1.72872 0
M  V30 5695 H 604.678 -4.04737 -1.56111 0
M  V30 5696 H 605.349 -4.55857 -3.11285 0
M  V30 5697 H 607.825 -2.63471 -3.2206 0
M  V30 5698 H 606.701 -3.12044 -4.51575 0
M  V30 5699 H 606.962 -1.41447 -4.18862 0
M  V30 5700 N 606.021 0.929856 -1.27246 0
M  V30 5701 C 606.968 2.03017 -1.09785 0
M  V30 5702 C 607.938 1.661 0.000456744 0
M  V30 5703 O 609.123 1.90116 -0.161462 0
M  V30 5704 C 606.263 3.36878 -0.748816 0
M  V30 5705 C 605.376 3.86763 -1.92453 0
M  V30 5706 C 604.511 5.09061 -1.51758 0
M  V30 5707 C 603.55 5.51237 -2.66091 0
M  V30 5708 N 602.687 6.64732 -2.25999 0
M  V30 5709 H 607.527 2.17285 -2.03939 0
M  V30 5710 H 605.064 1.06448 -1.01524 0
M  V30 5711 H 607.022 4.13855 -0.527283 0
M  V30 5712 H 605.652 3.22424 0.155771 0
M  V30 5713 H 604.704 3.06086 -2.25867 0
M  V30 5714 H 606.016 4.13994 -2.78227 0
M  V30 5715 H 605.17 5.93532 -1.25716 0
M  V30 5716 H 603.909 4.83602 -0.630896 0
M  V30 5717 H 602.914 4.65316 -2.92849 0
M  V30 5718 H 604.139 5.78692 -3.55377 0
M  V30 5719 H 602.085 6.40935 -1.3978 0
M  V30 5720 H 602.002 6.91607 -3.05313 0
M  V30 5721 H 603.27 7.52549 -2.03199 0
M  V30 5722 N 607.499 1.09233 1.13605 0
M  V30 5723 C 608.747 0.825525 1.84471 0
M  V30 5724 C 609.068 -0.650702 1.83823 0
M  V30 5725 O 608.338 -1.47204 1.29259 0
M  V30 5726 H 606.918 0.3024 0.683054 0
M  V30 5727 H 609.58 1.38006 1.37624 0
M  V30 5728 H 608.676 1.17727 2.89045 0
M  V30 5729 N 608.977 -1.30795 0.87923 0
M  V30 5730 C 609.887 -2.32041 0.345565 0
M  V30 5731 C 610.903 -1.65103 -0.549265 0
M  V30 5732 O 612.079 -1.9645 -0.443763 0
M  V30 5733 C 609.144 -3.43944 -0.436245 0
M  V30 5734 C 608.205 -4.26521 0.48765 0
M  V30 5735 C 607.438 -5.33081 -0.256943 0
M  V30 5736 O 607.661 -5.50762 -1.48381 0
M  V30 5737 O 606.595 -6.00635 0.389985 0
M  V30 5738 H 610.421 -2.79627 1.18501 0
M  V30 5739 H 608.006 -1.3486 0.642885 0
M  V30 5740 H 609.888 -4.12128 -0.879119 0
M  V30 5741 H 608.563 -2.98504 -1.25208 0
M  V30 5742 H 607.47 -3.61057 0.979216 0
M  V30 5743 H 608.803 -4.75551 1.26933 0
M  V30 5744 N 610.455 -0.639598 -1.44038 0
M  V30 5745 C 611.402 0.0602458 -2.30721 0
M  V30 5746 C 612.372 0.828352 -1.43971 0
M  V30 5747 O 613.557 0.807693 -1.72861 0
M  V30 5748 C 610.697 1.03008 -3.29368 0
M  V30 5749 C 609.81 0.259502 -4.3122 0
M  V30 5750 C 608.945 1.22191 -5.16955 0
M  V30 5751 C 607.984 0.440978 -6.10509 0
M  V30 5752 N 607.121 1.35428 -6.88915 0
M  V30 5753 H 611.961 -0.684867 -2.90023 0
M  V30 5754 H 609.498 -0.349509 -1.42888 0
M  V30 5755 H 611.456 1.60583 -3.85057 0
M  V30 5756 H 610.086 1.74222 -2.71747 0
M  V30 5757 H 609.138 -0.432317 -3.77935 0
M  V30 5758 H 610.45 -0.348347 -4.97582 0
M  V30 5759 H 609.604 1.86873 -5.77203 0
M  V30 5760 H 608.343 1.86367 -4.50687 0
M  V30 5761 H 607.348 -0.219279 -5.49363 0
M  V30 5762 H 608.573 -0.196192 -6.78817 0
M  V30 5763 H 606.519 1.9831 -6.25307 0
M  V30 5764 H 606.436 0.800657 -7.51748 0
M  V30 5765 H 607.704 1.98967 -7.53679 0
M  V30 5766 N 611.933 1.52934 -0.380664 0
M  V30 5767 C 613.181 2.01069 0.203874 0
M  V30 5768 C 613.502 1.26922 1.4804 0
M  V30 5769 O 612.772 0.386787 1.92044 0
M  V30 5770 H 611.352 0.742882 0.0783279 0
M  V30 5771 H 614.014 1.88099 -0.510368 0
M  V30 5772 H 613.11 3.09258 0.42021 0
M  V30 5773 N 613.412 0.11024 1.57214 0
M  V30 5774 C 614.322 -0.857077 2.18383 0
M  V30 5775 C 615.338 -1.29915 1.1575 0
M  V30 5776 O 616.514 -1.36394 1.48184 0
M  V30 5777 C 613.579 -2.09264 2.76423 0
M  V30 5778 C 612.64 -1.70333 3.94063 0
M  V30 5779 C 611.873 -2.87999 4.49324 0
M  V30 5780 O 612.096 -4.0317 4.03497 0
M  V30 5781 O 611.03 -2.6559 5.40135 0
M  V30 5782 H 614.856 -0.366561 3.0148 0
M  V30 5783 H 612.441 -0.114914 1.48957 0
M  V30 5784 H 614.323 -2.81644 3.13456 0
M  V30 5785 H 612.998 -2.57339 1.96363 0
M  V30 5786 H 611.905 -0.950864 3.61814 0
M  V30 5787 H 613.238 -1.27007 4.75531 0
M  V30 5788 N 614.89 -1.56749 -0.16351 0
M  V30 5789 C 616.306 -1.51043 -0.515567 0
M  V30 5790 C 616.506 -0.815855 -1.84245 0
M  V30 5791 O 615.562 -0.379477 -2.49632 0
M  V30 5792 C 616.875 -2.95791 -0.541114 0
M  V30 5793 C 618.423 -3.0664 -0.627776 0
M  V30 5794 C 618.898 -4.52861 -0.684141 0
M  V30 5795 N 620.389 -4.5714 -0.746818 0
M  V30 5796 C 621.124 -5.67634 -0.811137 0
M  V30 5797 N 620.62 -6.8774 -0.835811 0
M  V30 5798 N 622.413 -5.55624 -0.850756 0
M  V30 5799 H 614.564 -2.00307 0.70645 0
M  V30 5800 H 616.827 -0.912876 0.255659 0
M  V30 5801 H 616.533 -3.49797 0.365329 0
M  V30 5802 H 616.407 -3.50858 -1.38487 0
M  V30 5803 H 618.794 -2.52663 -1.52464 0
M  V30 5804 H 618.875 -2.54645 0.242805 0
M  V30 5805 H 618.519 -5.07472 0.2085 0
M  V30 5806 H 618.449 -5.02621 -1.57098 0
M  V30 5807 H 620.94 -3.70669 -0.735717 0
M  V30 5808 H 621.253 -7.67701 -0.886279 0
M  V30 5809 H 619.598 -6.90334 -0.803958 0
M  V30 5810 H 622.789 -4.60709 -0.828535 0
M  V30 5811 H 622.962 -6.41756 -0.897418 0
M  V30 5812 N 616.368 0.432326 -1.51554 0
M  V30 5813 C 617.616 1.17901 -1.64146 0
M  V30 5814 C 617.937 1.91604 -0.362367 0
M  V30 5815 O 617.207 1.85764 0.621968 0
M  V30 5816 H 615.787 0.438206 -0.604966 0
M  V30 5817 H 618.449 0.495172 -1.88505 0
M  V30 5818 H 617.545 1.90584 -2.47152 0
M  V30 5819 N 617.846 1.41785 0.688094 0
M  V30 5820 C 618.756 1.46596 1.83158 0
M  V30 5821 C 619.772 0.355862 1.70322 0
M  V30 5822 O 620.948 0.604737 1.92106 0
M  V30 5823 C 618.013 1.35322 3.192 0
M  V30 5824 C 617.074 2.56711 3.4409 0
M  V30 5825 C 616.307 2.45965 4.73642 0
M  V30 5826 O 616.53 1.48827 5.50642 0
M  V30 5827 O 615.464 3.35859 4.99482 0
M  V30 5828 H 619.29 2.43083 1.82056 0
M  V30 5829 H 616.875 1.23404 0.842126 0
M  V30 5830 H 618.757 1.31347 4.00407 0
M  V30 5831 H 617.432 0.419536 3.2097 0
M  V30 5832 H 616.339 2.66262 2.62784 0
M  V30 5833 H 617.672 3.48933 3.47141 0
M  V30 5834 N 619.324 -0.923095 1.27737 0
M  V30 5835 C 620.272 -2.04567 1.10703 0
M  V30 5836 C 621.266 -1.69375 0.0288445 0
M  V30 5837 O 622.472 -1.79027 0.186913 0
M  V30 5838 H 618.847 -0.670109 0.34126 0
M  V30 5839 H 620.818 -2.1608 2.05796 0
M  V30 5840 C 619.567 -3.38934 0.775837 0
M  V30 5841 H 618.89 -3.66501 1.59741 0
M  V30 5842 H 620.33 -4.18239 0.696548 0
M  V30 5843 C 618.789 -3.32863 -0.520012 0
M  V30 5844 O 619.319 -3.70462 -1.55308 0
M  V30 5845 N 617.525 -2.85958 -0.51732 0
M  V30 5846 H 617.072 -2.55557 0.32379 0
M  V30 5847 H 617.03 -2.82279 -1.38441 0
M  V30 5848 N 620.802 -1.09834 -1.13024 0
M  V30 5849 C 622.027 -0.85909 -1.88771 0
M  V30 5850 C 622.452 0.584402 -1.78791 0
M  V30 5851 O 621.81 1.41101 -1.13842 0
M  V30 5852 C 621.858 -1.30427 -3.36186 0
M  V30 5853 O 620.962 -0.465368 -4.09766 0
M  V30 5854 H 620.303 -0.310786 -0.586778 0
M  V30 5855 H 622.833 -1.46355 -1.42973 0
M  V30 5856 H 622.843 -1.2915 -3.8702 0
M  V30 5857 H 621.518 -2.3555 -3.42767 0
M  V30 5858 H 620.095 -0.542814 -3.68928 0
M  V30 5859 N 622.28 1.30327 -0.886154 0
M  V30 5860 C 623.526 1.96388 -0.505941 0
M  V30 5861 C 623.859 1.69784 0.942712 0
M  V30 5862 O 623.134 1.00322 1.6663 0
M  V30 5863 C 623.417 3.51488 -0.782826 0
M  V30 5864 C 623.27 3.87603 -2.28219 0
M  V30 5865 C 624.589 4.39331 -0.260128 0
M  V30 5866 H 621.708 0.713327 -0.185292 0
M  V30 5867 H 624.35 1.54178 -1.11036 0
M  V30 5868 H 622.5 3.87572 -0.268399 0
M  V30 5869 H 624.172 3.61537 -2.86512 0
M  V30 5870 H 622.415 3.3563 -2.74837 0
M  V30 5871 H 623.086 4.95806 -2.42653 0
M  V30 5872 H 625.562 4.10162 -0.700444 0
M  V30 5873 H 624.438 5.46769 -0.483179 0
M  V30 5874 H 624.699 4.34072 0.838674 0
M  V30 5875 N 623.758 0.647228 1.43697 0
M  V30 5876 C 624.983 0.164083 2.0675 0
M  V30 5877 C 625.408 -1.15892 1.48158 0
M  V30 5878 O 624.766 -1.71459 0.589194 0
M  V30 5879 C 624.814 0.0800368 3.60511 0
M  V30 5880 O 623.918 -0.959453 4.01084 0
M  V30 5881 H 623.259 0.0921288 0.657578 0
M  V30 5882 H 625.789 0.88846 1.84303 0
M  V30 5883 H 625.799 -0.105263 4.07864 0
M  V30 5884 H 624.474 1.04586 4.02535 0
M  V30 5885 H 623.051 -0.747425 3.65333 0
M  V30 5886 N 625.236 -1.5273 0.388769 0
M  V30 5887 C 626.482 -2.01871 -0.193877 0
M  V30 5888 C 626.815 -1.27475 -1.46505 0
M  V30 5889 O 626.09 -0.375063 -1.90849 0
M  V30 5890 C 626.373 -3.5712 -0.462336 0
M  V30 5891 C 626.226 -4.42186 0.824091 0
M  V30 5892 C 627.545 -4.21881 -1.25319 0
M  V30 5893 H 624.664 -0.733764 -0.0689899 0
M  V30 5894 H 627.306 -1.82796 0.518231 0
M  V30 5895 H 625.456 -3.73504 -1.06896 0
M  V30 5896 H 627.128 -4.37554 1.46096 0
M  V30 5897 H 625.371 -4.09219 1.43952 0
M  V30 5898 H 626.042 -5.48828 0.590905 0
M  V30 5899 H 628.518 -4.0947 -0.73981 0
M  V30 5900 H 627.394 -5.30487 -1.40977 0
M  V30 5901 H 627.655 -3.79478 -2.26824 0
M  V30 5902 N 626.714 -0.118576 -1.57153 0
M  V30 5903 C 628.13 0.238014 -1.57815 0
M  V30 5904 C 628.33 1.66747 -1.13127 0
M  V30 5905 O 627.386 2.38867 -0.818462 0
M  V30 5906 C 628.699 0.00508207 -3.007 0
M  V30 5907 C 630.247 0.0710139 -3.12919 0
M  V30 5908 C 630.722 -0.13422 -4.57803 0
M  V30 5909 N 632.213 -0.0801755 -4.63131 0
M  V30 5910 C 632.948 -0.213885 -5.73001 0
M  V30 5911 N 632.444 -0.403742 -6.91623 0
M  V30 5912 N 634.237 -0.15349 -5.6189 0
M  V30 5913 H 626.388 -1.05226 -1.84503 0
M  V30 5914 H 628.651 -0.414318 -0.852669 0
M  V30 5915 H 628.357 -0.983125 -3.3768 0
M  V30 5916 H 628.231 0.73714 -3.69927 0
M  V30 5917 H 630.618 1.04975 -2.75798 0
M  V30 5918 H 630.699 -0.692918 -2.46236 0
M  V30 5919 H 630.343 -1.10992 -4.95624 0
M  V30 5920 H 630.273 0.649692 -5.22577 0
M  V30 5921 H 632.764 0.0630689 -3.77847 0
M  V30 5922 H 633.077 -0.496645 -7.71202 0
M  V30 5923 H 631.422 -0.43971 -6.93608 0
M  V30 5924 H 634.613 -0.00613174 -4.681 0
M  V30 5925 H 634.786 -0.261138 -6.47474 0
M  V30 5926 N 628.193 1.56834 0.155195 0
M  V30 5927 C 629.442 1.82088 0.867567 0
M  V30 5928 C 629.755 0.69849 1.82703 0
M  V30 5929 O 630.961 0.836407 2.58295 0
M  V30 5930 C 629.417 3.22707 1.59336 0
M  V30 5931 C 629.025 4.42859 0.676719 0
M  V30 5932 C 630.769 3.57242 2.293 0
M  V30 5933 C 628.676 5.74501 1.40367 0
M  V30 5934 H 627.606 0.679057 0.327715 0
M  V30 5935 H 630.257 1.83105 0.120351 0
M  V30 5936 H 628.639 3.16054 2.38591 0
M  V30 5937 H 629.813 4.60731 -0.0800196 0
M  V30 5938 H 628.128 4.16311 0.0859129 0
M  V30 5939 H 630.725 4.52847 2.84312 0
M  V30 5940 H 631.068 2.82901 3.05406 0
M  V30 5941 H 631.601 3.6552 1.56972 0
M  V30 5942 H 628.34 6.51915 0.684623 0
M  V30 5943 H 627.86 5.60579 2.13332 0
M  V30 5944 H 629.539 6.17016 1.94681 0
M  V30 5945 N 629.671 -0.424282 1.51781 0
M  V30 5946 C 630.917 -1.17434 1.6534 0
M  V30 5947 C 631.25 -1.90549 0.374806 0
M  V30 5948 O 630.525 -1.84145 -0.626179 0
M  V30 5949 C 630.808 -2.18093 2.86544 0
M  V30 5950 C 630.661 -1.48975 4.24413 0
M  V30 5951 C 631.98 -3.18934 3.03264 0
M  V30 5952 H 629.099 -0.425566 0.601716 0
M  V30 5953 H 631.741 -0.461921 1.84299 0
M  V30 5954 H 629.891 -2.78849 2.7051 0
M  V30 5955 H 631.563 -0.914551 4.52143 0
M  V30 5956 H 629.806 -0.791893 4.26511 0
M  V30 5957 H 630.477 -2.22347 5.05238 0
M  V30 5958 H 632.953 -2.68243 3.18096 0
M  V30 5959 H 631.829 -3.86645 3.89611 0
M  V30 5960 H 632.09 -3.85793 2.15908 0
M  V30 5961 N 631.149 -1.42148 -0.680565 0
M  V30 5962 C 632.397 -1.42029 -1.43779 0
M  V30 5963 C 632.718 -0.0356347 -1.94967 0
M  V30 5964 O 631.988 0.924936 -1.7269 0
M  V30 5965 H 630.568 -0.522835 -0.533529 0
M  V30 5966 H 633.23 -1.7752 -0.804538 0
M  V30 5967 H 632.326 -2.11658 -2.29363 0
M  V30 5968 N 632.627 0.916307 -1.28225 0
M  V30 5969 C 633.852 1.7043 -1.18188 0
M  V30 5970 C 634.277 1.86346 0.256274 0
M  V30 5971 O 633.635 1.37175 1.18544 0
M  V30 5972 C 633.683 3.07546 -1.88275 0
M  V30 5973 O 632.787 3.94904 -1.18848 0
M  V30 5974 H 632.128 0.521967 -0.410423 0
M  V30 5975 H 634.658 1.14589 -1.69501 0
M  V30 5976 H 634.668 3.57793 -1.96082 0
M  V30 5977 H 633.343 2.95279 -2.92887 0
M  V30 5978 H 631.92 3.53339 -1.19187 0
M  V30 5979 N 634.105 1.10431 1.1244 0
M  V30 5980 C 635.33 0.869089 1.88313 0
M  V30 5981 C 635.755 -0.574912 1.79099 0
M  V30 5982 O 635.113 -1.40496 1.14589 0
M  V30 5983 C 635.161 1.32208 3.3549 0
M  V30 5984 O 634.265 0.487092 4.09513 0
M  V30 5985 H 633.606 0.313894 0.585121 0
M  V30 5986 H 636.136 1.47111 1.42195 0
M  V30 5987 H 636.146 1.31201 3.86329 0
M  V30 5988 H 634.821 2.37364 3.41513 0
M  V30 5989 H 633.398 0.562372 3.68635 0
M  V30 5990 N 635.583 -1.29855 0.893053 0
M  V30 5991 C 636.531 -2.29867 0.355512 0
M  V30 5992 C 637.525 -1.60502 -0.541801 0
M  V30 5993 O 638.731 -1.74902 -0.425339 0
M  V30 5994 H 635.106 -0.745805 0.0963247 0
M  V30 5995 H 637.077 -2.72655 1.21252 0
M  V30 5996 C 635.826 -3.453 -0.407801 0
M  V30 5997 H 635.149 -3.98864 0.273426 0
M  V30 5998 H 636.589 -4.17334 -0.748887 0
M  V30 5999 C 635.048 -2.96051 -1.60795 0
M  V30 6000 O 635.578 -2.96763 -2.7073 0
M  V30 6001 N 633.784 -2.51963 -1.44786 0
M  V30 6002 H 633.331 -2.51583 -0.553498 0
M  V30 6003 H 633.289 -2.1937 -2.2522 0
M  V30 6004 N 637.061 -0.65484 -1.43351 0
M  V30 6005 C 638.477 -0.32255 -1.56307 0
M  V30 6006 C 638.677 1.17324 -1.63821 0
M  V30 6007 O 637.733 1.95813 -1.59417 0
M  V30 6008 C 639.046 -1.03533 -2.82314 0
M  V30 6009 C 640.594 -1.01574 -2.9606 0
M  V30 6010 C 641.069 -1.70945 -4.24902 0
M  V30 6011 N 642.56 -1.67716 -4.3177 0
M  V30 6012 C 643.295 -2.18265 -5.30234 0
M  V30 6013 N 642.791 -2.7711 -6.34966 0
M  V30 6014 N 644.584 -2.08756 -5.21898 0
M  V30 6015 H 636.735 -1.62549 -1.36717 0
M  V30 6016 H 638.998 -0.683676 -0.656727 0
M  V30 6017 H 638.704 -2.09045 -2.8283 0
M  V30 6018 H 638.578 -0.587913 -3.7259 0
M  V30 6019 H 640.965 0.0309834 -2.95084 0
M  V30 6020 H 641.046 -1.50186 -2.07069 0
M  V30 6021 H 640.69 -2.75574 -4.26639 0
M  V30 6022 H 640.62 -1.19797 -5.12793 0
M  V30 6023 H 643.111 -1.24777 -3.56706 0
M  V30 6024 H 643.424 -3.13353 -7.06421 0
M  V30 6025 H 641.769 -2.81171 -6.35585 0
M  V30 6026 H 644.96 -1.62488 -4.38994 0
M  V30 6027 H 645.133 -2.48459 -5.98475 0
M  V30 6028 N 638.539 1.52521 -0.396863 0
M  V30 6029 C 639.787 2.01274 0.182536 0
M  V30 6030 C 640.108 1.28485 1.46685 0
M  V30 6031 O 639.378 0.407134 1.91623 0
M  V30 6032 H 637.958 0.743671 0.0704442 0
M  V30 6033 H 640.62 1.87547 -0.530289 0
M  V30 6034 H 639.716 3.09687 0.387385 0
M  V30 6035 N 640.017 0.126909 1.57088 0
M  V30 6036 C 641.433 -0.229641 1.57939 0
M  V30 6037 C 641.633 -1.66145 1.1401 0
M  V30 6038 O 640.689 -2.3843 0.831119 0
M  V30 6039 C 642.002 0.0108648 3.00698 0
M  V30 6040 C 643.55 -0.054418 3.12953 0
M  V30 6041 C 644.025 0.158497 4.57726 0
M  V30 6042 N 645.516 0.104735 4.63082 0
M  V30 6043 C 646.251 0.24427 5.72879 0
M  V30 6044 N 645.747 0.440415 6.91399 0
M  V30 6045 N 647.54 0.183286 5.61801 0
M  V30 6046 H 639.691 1.06203 1.83942 0
M  V30 6047 H 641.954 0.418834 0.85046 0
M  V30 6048 H 641.66 1.00102 3.37154 0
M  V30 6049 H 641.534 -0.717512 3.70313 0
M  V30 6050 H 643.921 -1.0351 2.7635 0
M  V30 6051 H 644.002 0.705967 2.45865 0
M  V30 6052 H 643.646 1.13619 4.95028 0
M  V30 6053 H 643.576 -0.62197 5.22914 0
M  V30 6054 H 646.067 -0.0430298 3.77876 0
M  V30 6055 H 646.38 0.537536 7.70928 0
M  V30 6056 H 644.725 0.476488 6.93365 0
M  V30 6057 H 647.916 0.0309561 4.6809 0
M  V30 6058 H 648.089 0.295471 6.47326 0
M  V30 6059 N 641.495 -1.56914 -0.146875 0
M  V30 6060 C 642.458 -1.97368 -1.16526 0
M  V30 6061 C 643.458 -0.860223 -1.35856 0
M  V30 6062 O 644.648 -1.12684 -1.32846 0
M  V30 6063 C 641.78 -2.28974 -2.52555 0
M  V30 6064 H 642.973 -2.88523 -0.818209 0
M  V30 6065 H 640.526 -1.5135 -0.390221 0
M  V30 6066 H 641.261 -1.40611 -2.92231 0
M  V30 6067 H 641.046 -3.10157 -2.39886 0
M  V30 6068 H 642.536 -2.61109 -3.25902 0
M  V30 6069 N 642.974 0.416227 -1.52004 0
M  V30 6070 C 643.884 1.53147 -1.77717 0
M  V30 6071 C 644.9 1.609 -0.662368 0
M  V30 6072 O 646.076 1.77747 -0.946991 0
M  V30 6073 C 643.141 2.88948 -1.91598 0
M  V30 6074 C 642.202 2.9114 -3.15493 0
M  V30 6075 C 641.435 4.20464 -3.28703 0
M  V30 6076 O 641.658 5.13981 -2.47345 0
M  V30 6077 O 640.592 4.29368 -4.21813 0
M  V30 6078 H 644.418 1.34357 -2.72363 0
M  V30 6079 H 642.003 0.601373 -1.36762 0
M  V30 6080 H 643.885 3.69505 -2.02593 0
M  V30 6081 H 642.56 3.07821 -1.00141 0
M  V30 6082 H 641.467 2.09461 -3.09962 0
M  V30 6083 H 642.8 2.77216 -4.06709 0
M  V30 6084 N 644.452 1.42507 0.673017 0
M  V30 6085 C 645.698 1.43284 1.43519 0
M  V30 6086 C 646.031 0.049668 1.94136 0
M  V30 6087 O 645.306 -0.926369 1.71022 0
M  V30 6088 C 645.589 2.45874 2.63093 0
M  V30 6089 C 645.442 3.93388 2.18096 0
M  V30 6090 C 646.761 2.45431 3.6531 0
M  V30 6091 H 643.88 0.521752 0.520522 0
M  V30 6092 H 646.522 1.73932 0.764701 0
M  V30 6093 H 644.672 2.19869 3.20296 0
M  V30 6094 H 646.344 4.30379 1.66046 0
M  V30 6095 H 644.587 4.07169 1.49652 0
M  V30 6096 H 645.258 4.60752 3.03993 0
M  V30 6097 H 647.734 2.68561 3.17827 0
M  V30 6098 H 646.61 3.19189 4.46553 0
M  V30 6099 H 646.871 1.48092 4.16559 0
M  V30 6100 N 645.93 -0.909495 1.28709 0
M  V30 6101 C 647.16 -1.69027 1.188 0
M  V30 6102 C 647.568 -1.87469 -0.255329 0
M  V30 6103 O 646.911 -1.40458 -1.18394 0
M  V30 6104 C 646.973 -3.10064 1.81936 0
M  V30 6105 C 646.637 -3.14891 3.31199 0
M  V30 6106 C 647.634 -2.95768 4.27571 0
M  V30 6107 C 645.319 -3.37269 3.7223 0
M  V30 6108 C 647.313 -2.98942 5.6295 0
M  V30 6109 C 645 -3.40074 5.07733 0
M  V30 6110 C 645.998 -3.20932 6.02903 0
M  V30 6111 O 645.686 -3.23507 7.35934 0
M  V30 6112 H 645.418 -0.535014 0.413203 0
M  V30 6113 H 647.972 -1.14645 1.70428 0
M  V30 6114 H 646.202 -3.66005 1.24808 0
M  V30 6115 H 647.891 -3.70185 1.66486 0
M  V30 6116 H 648.657 -2.78302 3.97206 0
M  V30 6117 H 644.536 -3.51212 2.98615 0
M  V30 6118 H 648.08 -2.83919 6.37209 0
M  V30 6119 H 643.977 -3.5707 5.37747 0
M  V30 6120 H 644.745 -3.3984 7.44615 0
M  V30 6121 N 647.408 -1.11026 -1.11852 0
M  V30 6122 C 648.638 -0.877544 -1.87037 0
M  V30 6123 C 649.046 0.575925 -1.80221 0
M  V30 6124 O 648.389 1.40916 -1.17849 0
M  V30 6125 C 648.451 -1.25529 -3.36872 0
M  V30 6126 C 648.115 -2.71704 -3.67459 0
M  V30 6127 C 649.112 -3.69931 -3.65304 0
M  V30 6128 C 646.797 -3.08243 -3.966 0
M  V30 6129 C 648.791 -5.02717 -3.9186 0
M  V30 6130 C 646.478 -4.41215 -4.22815 0
M  V30 6131 C 647.476 -5.38262 -4.20432 0
M  V30 6132 O 647.164 -6.68839 -4.45992 0
M  V30 6133 H 646.896 -0.314374 -0.598452 0
M  V30 6134 H 649.45 -1.48015 -1.42411 0
M  V30 6135 H 647.68 -0.595808 -3.82082 0
M  V30 6136 H 649.369 -0.999064 -3.93413 0
M  V30 6137 H 650.135 -3.43047 -3.42846 0
M  V30 6138 H 646.014 -2.33326 -3.97593 0
M  V30 6139 H 649.558 -5.78456 -3.89916 0
M  V30 6140 H 645.455 -4.67835 -4.44748 0
M  V30 6141 H 646.223 -6.74563 -4.63581 0
M  V30 6142 N 648.886 1.2938 -0.899927 0
M  V30 6143 C 650.111 2.00228 -0.540692 0
M  V30 6144 C 650.536 1.66909 0.867359 0
M  V30 6145 O 649.894 0.893824 1.57735 0
M  V30 6146 C 649.942 3.52921 -0.740232 0
M  V30 6147 O 649.046 4.11879 0.207154 0
M  V30 6148 H 648.387 0.629505 -0.211233 0
M  V30 6149 H 650.917 1.6487 -1.21158 0
M  V30 6150 H 650.927 4.0287 -0.644973 0
M  V30 6151 H 649.602 3.76508 -1.76677 0
M  V30 6152 H 648.179 3.72845 0.0643315 0
M  V30 6153 N 650.364 0.662433 1.43002 0
M  V30 6154 C 651.612 0.179237 2.01304 0
M  V30 6155 C 651.933 -1.21428 1.52579 0
M  V30 6156 O 651.203 -1.81294 0.742252 0
M  V30 6157 H 649.783 0.0632725 0.744316 0
M  V30 6158 H 652.445 0.856169 1.75088 0
M  V30 6159 H 651.541 0.170957 3.11631 0
M  V30 6160 N 651.842 -1.52309 0.404946 0
M  V30 6161 C 653.07 -2.06185 -0.171818 0
M  V30 6162 C 653.485 -1.27536 -1.39212 0
M  V30 6163 O 652.842 -0.326112 -1.79563 0
M  V30 6164 C 652.893 -3.57647 -0.526417 0
M  V30 6165 O 652.614 -4.3332 0.645417 0
M  V30 6166 C 654.115 -4.27925 -1.15736 0
M  V30 6167 H 651.335 -0.670632 -0.0222328 0
M  V30 6168 H 653.879 -1.96259 0.574692 0
M  V30 6169 H 652.034 -3.67595 -1.22282 0
M  V30 6170 H 652.448 -5.23328 0.35042 0
M  V30 6171 H 653.922 -5.35093 -1.35572 0
M  V30 6172 H 654.399 -3.84134 -2.12926 0
M  V30 6173 H 655.005 -4.22335 -0.501281 0
M  V30 6174 N 653.32 -0.135238 -1.57019 0
M  V30 6175 C 654.566 0.513232 -1.96818 0
M  V30 6176 C 654.921 1.63245 -1.01827 0
M  V30 6177 O 654.214 1.91532 -0.0511756 0
M  V30 6178 C 654.408 1.07694 -3.40788 0
M  V30 6179 C 654.237 0.0138667 -4.49698 0
M  V30 6180 C 653.007 -0.423532 -5.03522 0
M  V30 6181 C 655.205 -0.77322 -5.08454 0
M  V30 6182 N 653.187 -1.47068 -5.96024 0
M  V30 6183 C 654.558 -1.67115 -5.97053 0
M  V30 6184 C 656.613 -0.822313 -4.91063 0
M  V30 6185 C 655.316 -2.61395 -6.70123 0
M  V30 6186 C 657.342 -1.75288 -5.64826 0
M  V30 6187 C 656.704 -2.63836 -6.53123 0
M  V30 6188 H 652.803 0.156956 -0.766087 0
M  V30 6189 H 655.387 -0.227118 -1.93371 0
M  V30 6190 H 653.558 1.78694 -3.44852 0
M  V30 6191 H 655.29 1.69106 -3.67675 0
M  V30 6192 H 652.045 -0.0280202 -4.73592 0
M  V30 6193 H 652.469 -1.99366 -6.46979 0
M  V30 6194 H 657.111 -0.151822 -4.22527 0
M  V30 6195 H 654.829 -3.2945 -7.37895 0
M  V30 6196 H 658.415 -1.79652 -5.53368 0
M  V30 6197 H 657.295 -3.34672 -7.092 0
M  V30 6198 N 654.798 1.5699 0.138552 0
M  V30 6199 C 656.046 1.83446 0.848053 0
M  V30 6200 C 656.367 0.71744 1.81322 0
M  V30 6201 O 655.637 -0.260228 1.94164 0
M  V30 6202 H 654.217 0.676792 0.316166 0
M  V30 6203 H 656.879 1.94462 0.130538 0
M  V30 6204 H 655.975 2.78677 1.40518 0
M  V30 6205 N 656.276 -0.40816 1.52223 0
M  V30 6206 C 657.504 -1.17672 1.70179 0
M  V30 6207 C 657.919 -1.84257 0.411696 0
M  V30 6208 O 657.276 -1.7192 -0.612354 0
M  V30 6209 C 657.327 -2.23911 2.83806 0
M  V30 6210 O 657.048 -1.60044 4.0782 0
M  V30 6211 C 658.549 -3.1364 3.13281 0
M  V30 6212 H 655.769 -0.353562 0.570293 0
M  V30 6213 H 658.313 -0.480083 1.98785 0
M  V30 6214 H 656.468 -2.89242 2.57717 0
M  V30 6215 H 656.882 -2.30484 4.71145 0
M  V30 6216 H 658.356 -3.84255 3.96298 0
M  V30 6217 H 658.833 -3.76066 2.26872 0
M  V30 6218 H 659.439 -2.53977 3.41139 0
M  V30 6219 N 657.755 -1.42862 -0.66545 0
M  V30 6220 C 659.004 -1.43119 -1.42126 0
M  V30 6221 C 659.317 -0.0545297 -1.95524 0
M  V30 6222 O 660.523 0.0654747 -2.71421 0
M  V30 6223 C 658.979 -2.51797 -2.5715 0
M  V30 6224 C 658.587 -3.95514 -2.10411 0
M  V30 6225 C 660.331 -2.61233 -3.346 0
M  V30 6226 C 658.238 -4.95682 -3.22573 0
M  V30 6227 H 657.168 -0.532349 -0.533966 0
M  V30 6228 H 659.819 -1.68806 -0.719506 0
M  V30 6229 H 658.201 -2.19292 -3.29738 0
M  V30 6230 H 659.375 -4.3742 -1.44915 0
M  V30 6231 H 657.69 -3.90012 -1.45874 0
M  V30 6232 H 660.287 -3.33248 -4.18151 0
M  V30 6233 H 660.63 -1.65896 -3.81817 0
M  V30 6234 H 661.163 -2.9298 -2.69087 0
M  V30 6235 H 657.902 -5.92529 -2.80338 0
M  V30 6236 H 657.422 -4.58399 -3.86821 0
M  V30 6237 H 659.101 -5.17828 -3.87896 0
M  V30 6238 N 659.233 0.902656 -1.29189 0
M  V30 6239 C 660.473 1.6672 -1.18254 0
M  V30 6240 C 660.837 1.90199 0.262336 0
M  V30 6241 O 662.038 2.6421 0.494612 0
M  V30 6242 C 660.309 2.98178 -1.9704 0
M  V30 6243 S 661.868 3.89226 -2.02605 0
M  V30 6244 H 658.686 0.572432 -0.421714 0
M  V30 6245 H 661.288 1.07279 -1.63436 0
M  V30 6246 H 659.992 2.788 -3.01163 0
M  V30 6247 H 659.523 3.62661 -1.5245 0
M  V30 6248 H 661.538 4.82913 -1.14059 0
M  V30 6249 N 660.711 1.11618 1.11262 0
M  V30 6250 C 661.988 0.777876 1.79467 0
M  V30 6251 C 662.368 -0.733774 1.97937 0
M  V30 6252 O 661.716 -1.66443 1.56554 0
M  V30 6253 C 661.926 1.5431 3.13032 0
M  V30 6254 C 663.274 1.72357 3.88044 0
M  V30 6255 O 664.298 1.5075 3.22727 0
M  V30 6256 O 663.157 2.08276 5.05256 0
M  V30 6257 H 660.251 0.282018 0.777428 0
M  V30 6258 H 662.797 1.21971 1.17988 0
M  V30 6259 H 661.569 2.57132 2.94956 0
M  V30 6260 H 661.192 1.09495 3.82226 0
M  V30 6261 N 662.189 -1.289 0.906776 0
M  V30 6262 C 663.466 -1.90221 0.455537 0
M  V30 6263 C 663.846 -1.82251 -1.06527 0
M  V30 6264 O 663.194 -1.25385 -1.91026 0
M  V30 6265 C 663.404 -3.35015 0.97806 0
M  V30 6266 C 664.752 -4.12018 1.02598 0
M  V30 6267 O 665.776 -3.43947 0.926218 0
M  V30 6268 O 664.635 -5.33677 1.17689 0
M  V30 6269 H 661.729 -0.814505 0.143214 0
M  V30 6270 H 664.275 -1.37317 0.997104 0
M  V30 6271 H 663.047 -3.35006 2.02204 0
M  V30 6272 H 662.67 -3.95408 0.416914 0
M  V30 6273 N 663.667 -0.670007 -1.42649 0
M  V30 6274 C 664.577 0.0114788 -2.34597 0
M  V30 6275 C 665.593 0.794055 -1.54825 0
M  V30 6276 O 666.769 0.737472 -1.87412 0
M  V30 6277 C 663.834 0.954436 -3.33304 0
M  V30 6278 C 662.895 0.166925 -4.28975 0
M  V30 6279 C 662.128 1.06497 -5.22967 0
M  V30 6280 O 662.351 2.30446 -5.21777 0
M  V30 6281 O 661.285 0.528347 -5.99577 0
M  V30 6282 H 665.111 -0.745794 -2.944 0
M  V30 6283 H 662.696 -0.430228 -1.43071 0
M  V30 6284 H 664.578 1.49589 -3.93956 0
M  V30 6285 H 663.253 1.69164 -2.7598 0
M  V30 6286 H 662.16 -0.418515 -3.71752 0
M  V30 6287 H 663.493 -0.531067 -4.89327 0
M  V30 6288 N 665.145 1.52092 -0.413018 0
M  V30 6289 C 666.391 2.02815 0.154104 0
M  V30 6290 C 666.746 1.293 1.42475 0
M  V30 6291 O 666.039 0.391835 1.87551 0
M  V30 6292 C 666.233 3.54529 0.4521 0
M  V30 6293 C 666.062 4.4274 -0.788116 0
M  V30 6294 C 664.832 4.87903 -1.31447 0
M  V30 6295 C 667.03 4.86522 -1.66735 0
M  V30 6296 N 665.012 5.60254 -2.50976 0
M  V30 6297 C 666.383 5.57692 -2.70886 0
M  V30 6298 C 668.438 4.68534 -1.68465 0
M  V30 6299 C 667.141 6.12783 -3.76682 0
M  V30 6300 C 669.167 5.24524 -2.73182 0
M  V30 6301 C 668.529 5.9562 -3.76054 0
M  V30 6302 H 664.628 0.781796 0.0178567 0
M  V30 6303 H 667.212 1.86223 -0.568237 0
M  V30 6304 H 665.383 3.71186 1.14348 0
M  V30 6305 H 667.115 3.91934 1.00844 0
M  V30 6306 H 663.87 4.65504 -0.871931 0
M  V30 6307 H 664.294 6.01069 -3.11521 0
M  V30 6308 H 668.936 4.13051 -0.902708 0
M  V30 6309 H 666.654 6.67335 -4.55729 0
M  V30 6310 H 670.24 5.12473 -2.75433 0
M  V30 6311 H 669.12 6.38169 -4.55752 0
M  V30 6312 N 666.623 0.143563 1.56945 0
M  V30 6313 C 667.555 -0.828353 2.13708 0
M  V30 6314 C 668.568 -1.21313 1.08568 0
M  V30 6315 O 669.757 -1.1578 1.35857 0
M  V30 6316 C 666.857 -2.12248 2.64204 0
M  V30 6317 C 666.03 -1.90561 3.93707 0
M  V30 6318 C 665.089 -3.03931 4.29549 0
M  V30 6319 O 664.115 -2.75772 4.97934 0
M  V30 6320 N 665.317 -4.31016 3.88852 0
M  V30 6321 H 668.082 -0.343242 2.97728 0
M  V30 6322 H 665.643 -0.0401152 1.6185 0
M  V30 6323 H 667.635 -2.87132 2.85197 0
M  V30 6324 H 666.205 -2.52033 1.84928 0
M  V30 6325 H 665.425 -0.997327 3.81375 0
M  V30 6326 H 666.713 -1.73405 4.78339 0
M  V30 6327 H 666.111 -4.56762 3.33743 0
M  V30 6328 H 664.668 -5.02691 4.14903 0
M  V30 6329 N 668.101 -1.57061 -0.130224 0
M  V30 6330 C 669.049 -2.00486 -1.17933 0
M  V30 6331 C 670.043 -0.899933 -1.43519 0
M  V30 6332 O 671.249 -1.08514 -1.43613 0
M  V30 6333 H 667.624 -0.638441 -0.397363 0
M  V30 6334 H 669.595 -2.87848 -0.786501 0
M  V30 6335 C 668.344 -2.41565 -2.50084 0
M  V30 6336 H 667.667 -3.26148 -2.31231 0
M  V30 6337 H 669.107 -2.75757 -3.22078 0
M  V30 6338 C 667.566 -1.27485 -3.11848 0
M  V30 6339 O 668.096 -0.584688 -3.97422 0
M  V30 6340 N 666.302 -1.03478 -2.71552 0
M  V30 6341 H 665.849 -1.59779 -2.02061 0
M  V30 6342 H 665.807 -0.27341 -3.13209 0
M  V30 6343 N 669.579 0.400081 -1.52437 0
M  V30 6344 C 670.804 1.17221 -1.71096 0
M  V30 6345 C 671.229 1.83269 -0.423565 0
M  V30 6346 O 670.587 1.70378 0.619751 0
M  V30 6347 C 670.635 2.20425 -2.85386 0
M  V30 6348 O 669.739 3.26769 -2.51586 0
M  V30 6349 H 669.08 0.341766 -0.569291 0
M  V30 6350 H 671.61 0.467772 -1.99181 0
M  V30 6351 H 671.62 2.64605 -3.10561 0
M  V30 6352 H 670.295 1.71737 -3.78786 0
M  V30 6353 H 668.872 2.87804 -2.37114 0
M  V30 6354 N 671.057 1.43213 0.657864 0
M  V30 6355 C 672.334 1.35063 1.41483 0
M  V30 6356 C 672.714 -0.0038314 2.111 0
M  V30 6357 O 672.062 -1.02018 2.04462 0
M  V30 6358 C 672.272 2.53061 2.40335 0
M  V30 6359 C 673.62 2.9594 3.04474 0
M  V30 6360 O 674.644 2.53074 2.50663 0
M  V30 6361 O 673.503 3.70184 4.02027 0
M  V30 6362 H 670.597 0.533517 0.631893 0
M  V30 6363 H 673.143 1.55253 0.685162 0
M  V30 6364 H 671.915 3.43283 1.87809 0
M  V30 6365 H 671.538 2.34945 3.20759 0
M  V30 6366 N 672.536 -0.895792 1.29666 0
M  V30 6367 C 673.499 -1.98189 1.15124 0
M  V30 6368 C 674.499 -1.60572 0.0855717 0
M  V30 6369 O 675.689 -1.70991 0.332826 0
M  V30 6370 C 672.821 -3.32289 0.761372 0
M  V30 6371 H 674.014 -2.12518 2.11603 0
M  V30 6372 H 671.567 -1.0808 1.12908 0
M  V30 6373 H 672.302 -3.23662 -0.203393 0
M  V30 6374 H 672.087 -3.60958 1.53139 0
M  V30 6375 H 673.577 -4.1198 0.682792 0
M  V30 6376 N 674.014 -1.12206 -1.10668 0
M  V30 6377 C 675.263 -0.870595 -1.81944 0
M  V30 6378 C 675.576 0.605447 -1.85994 0
M  V30 6379 O 676.782 0.973433 -2.53449 0
M  V30 6380 C 675.238 -1.50783 -3.26791 0
M  V30 6381 C 674.846 -3.01849 -3.31046 0
M  V30 6382 C 676.59 -1.33653 -4.02911 0
M  V30 6383 C 674.497 -3.58518 -4.70339 0
M  V30 6384 H 673.427 -0.322043 -0.681765 0
M  V30 6385 H 676.078 -1.34827 -1.24475 0
M  V30 6386 H 674.46 -0.957825 -3.84242 0
M  V30 6387 H 675.634 -3.63321 -2.83433 0
M  V30 6388 H 673.949 -3.18346 -2.68411 0
M  V30 6389 H 676.546 -1.73416 -5.05797 0
M  V30 6390 H 676.889 -0.279949 -4.15358 0
M  V30 6391 H 677.422 -1.85562 -3.51868 0
M  V30 6392 H 674.161 -4.63925 -4.63091 0
M  V30 6393 H 673.681 -3.01819 -5.18329 0
M  V30 6394 H 675.36 -3.57434 -5.39305 0
M  V30 6395 N 675.492 1.28418 -0.913599 0
M  V30 6396 C 676.738 1.9527 -0.547484 0
M  V30 6397 C 677.071 1.71745 0.906486 0
M  V30 6398 O 676.346 1.03834 1.64465 0
M  V30 6399 C 676.629 3.49748 -0.857205 0
M  V30 6400 C 676.482 3.82675 -2.3639 0
M  V30 6401 C 677.801 4.3868 -0.353258 0
M  V30 6402 H 674.92 0.709236 -0.200381 0
M  V30 6403 H 677.562 1.51789 -1.14281 0
M  V30 6404 H 675.712 3.86915 -0.350548 0
M  V30 6405 H 677.384 3.55378 -2.94116 0
M  V30 6406 H 675.627 3.29724 -2.81894 0
M  V30 6407 H 676.298 4.90547 -2.53115 0
M  V30 6408 H 678.774 4.08584 -0.787288 0
M  V30 6409 H 677.65 5.45621 -0.599049 0
M  V30 6410 H 677.911 4.35753 0.746413 0
M  V30 6411 N 676.97 0.677563 1.42291 0
M  V30 6412 C 678.217 0.200975 2.015 0
M  V30 6413 C 678.545 -1.19342 1.53583 0
M  V30 6414 O 677.8 -1.81579 0.7299 0
M  V30 6415 C 678.099 0.187229 3.56909 0
M  V30 6416 C 677.765 1.52667 4.24268 0
M  V30 6417 C 676.427 1.89341 4.42384 0
M  V30 6418 C 678.779 2.40869 4.62203 0
M  V30 6419 C 676.107 3.13836 4.95705 0
M  V30 6420 C 678.459 3.64679 5.16906 0
M  V30 6421 C 677.123 4.01519 5.33234 0
M  V30 6422 H 676.393 0.0735418 0.737342 0
M  V30 6423 H 679.04 0.873095 1.70439 0
M  V30 6424 H 677.345 -0.568407 3.87655 0
M  V30 6425 H 679.042 -0.198773 4.00507 0
M  V30 6426 H 675.632 1.23138 4.1053 0
M  V30 6427 H 679.816 2.1382 4.47878 0
M  V30 6428 H 675.072 3.42396 5.06532 0
M  V30 6429 H 679.246 4.33224 5.45243 0
M  V30 6430 H 676.873 4.98062 5.74316 0
M  V30 6431 N 678.448 -1.51871 0.421078 0
M  V30 6432 C 679.688 -2.03848 -0.150167 0
M  V30 6433 C 680.052 -1.29925 -1.41363 0
M  V30 6434 O 681.253 -1.7219 -2.06408 0
M  V30 6435 C 679.524 -3.55374 -0.38003 0
M  V30 6436 S 681.083 -4.29111 -0.917011 0
M  V30 6437 H 677.901 -0.709904 -0.0394639 0
M  V30 6438 H 680.503 -1.86799 0.576746 0
M  V30 6439 H 679.207 -4.0675 0.546122 0
M  V30 6440 H 678.738 -3.76687 -1.13448 0
M  V30 6441 H 680.753 -4.44944 -2.19635 0
M  V30 6442 N 679.926 -0.151884 -1.56866 0
M  V30 6443 C 681.342 0.204486 -1.58285 0
M  V30 6444 C 681.542 1.6431 -1.16639 0
M  V30 6445 O 680.598 2.37077 -0.868946 0
M  V30 6446 C 681.911 -0.0587019 -3.00643 0
M  V30 6447 C 683.459 0.00462303 -3.13 0
M  V30 6448 C 683.934 -0.231297 -4.57416 0
M  V30 6449 N 685.425 -0.178394 -4.62856 0
M  V30 6450 C 686.16 -0.335379 -5.72418 0
M  V30 6451 N 685.656 -0.550355 -6.90611 0
M  V30 6452 N 687.449 -0.272641 -5.61438 0
M  V30 6453 H 679.6 -1.09116 -1.82229 0
M  V30 6454 H 681.863 -0.432311 -0.843689 0
M  V30 6455 H 681.569 -1.05453 -3.35518 0
M  V30 6456 H 681.443 0.658508 -3.71407 0
M  V30 6457 H 683.83 0.991009 -2.77962 0
M  V30 6458 H 683.911 -0.744992 -2.44711 0
M  V30 6459 H 683.555 -1.2148 -4.93158 0
M  V30 6460 H 683.485 0.5387 -5.23837 0
M  V30 6461 H 685.976 -0.0170923 -3.77896 0
M  V30 6462 H 686.289 -0.660116 -7.69976 0
M  V30 6463 H 684.634 -0.586736 -6.92519 0
M  V30 6464 H 687.825 -0.105421 -4.67981 0
M  V30 6465 H 687.998 -0.398418 -6.46774 0
M  V30 6466 N 681.404 1.57128 0.121893 0
M  V30 6467 C 682.337 1.95327 1.17995 0
M  V30 6468 C 683.315 0.822524 1.40262 0
M  V30 6469 O 684.499 1.08044 1.54463 0
M  V30 6470 C 681.626 2.24699 2.53432 0
M  V30 6471 C 680.672 3.47263 2.4761 0
M  V30 6472 S 681.505 4.99951 1.91857 0
M  V30 6473 C 682.661 5.32473 3.28973 0
M  V30 6474 H 682.894 2.84765 0.854182 0
M  V30 6475 H 680.427 1.50864 0.328534 0
M  V30 6476 H 682.385 2.423 3.31362 0
M  V30 6477 H 681.046 1.3588 2.83188 0
M  V30 6478 H 680.239 3.65171 3.4737 0
M  V30 6479 H 679.841 3.29034 1.778 0
M  V30 6480 H 682.133 5.27478 4.25175 0
M  V30 6481 H 683.076 6.33732 3.15895 0
M  V30 6482 H 683.484 4.59952 3.27268 0
M  V30 6483 N 682.882 -0.391992 1.52647 0
M  V30 6484 C 683.812 -1.48517 1.8018 0
M  V30 6485 C 684.793 -1.57039 0.653667 0
M  V30 6486 O 685.978 -1.72036 0.900962 0
M  V30 6487 C 683.108 -2.86161 1.96797 0
M  V30 6488 C 682.062 -2.92481 3.12472 0
M  V30 6489 C 681.388 -4.32546 3.14338 0
M  V30 6490 C 682.688 -2.624 4.51601 0
M  V30 6491 H 684.382 -1.25726 2.71723 0
M  V30 6492 H 681.928 -0.603387 1.30749 0
M  V30 6493 H 683.881 -3.62639 2.14641 0
M  V30 6494 H 682.605 -3.10283 1.01941 0
M  V30 6495 H 681.264 -2.18451 2.94406 0
M  V30 6496 H 680.912 -4.53703 2.1717 0
M  V30 6497 H 680.612 -4.37695 3.92042 0
M  V30 6498 H 682.136 -5.10934 3.34333 0
M  V30 6499 H 683.55 -3.28596 4.69785 0
M  V30 6500 H 681.947 -2.78903 5.3135 0
M  V30 6501 H 683.017 -1.57754 4.58521 0
M  V30 6502 N 684.36 -1.4356 -0.65026 0
M  V30 6503 C 685.608 -1.45046 -1.40734 0
M  V30 6504 C 685.929 -0.0769822 -1.94848 0
M  V30 6505 O 685.199 0.888098 -1.74613 0
M  V30 6506 H 683.779 -0.534034 -0.522318 0
M  V30 6507 H 686.441 -1.79186 -0.766703 0
M  V30 6508 H 685.537 -2.16476 -2.24822 0
M  V30 6509 N 685.838 0.888903 -1.30139 0
M  V30 6510 C 687.068 1.67115 -1.21474 0
M  V30 6511 C 687.476 1.87852 0.225472 0
M  V30 6512 O 686.819 1.42324 1.16145 0
M  V30 6513 C 686.881 3.0713 -1.86846 0
M  V30 6514 C 686.545 3.09582 -3.36167 0
M  V30 6515 C 687.542 2.88929 -4.32222 0
M  V30 6516 C 685.227 3.31304 -3.77549 0
M  V30 6517 C 687.221 2.89949 -5.67634 0
M  V30 6518 C 684.908 3.31954 -5.13079 0
M  V30 6519 C 685.906 3.113 -6.07932 0
M  V30 6520 O 685.594 3.11758 -7.40987 0
M  V30 6521 H 685.326 0.528372 -0.421662 0
M  V30 6522 H 687.88 1.11919 -1.7223 0
M  V30 6523 H 686.11 3.63973 -1.30615 0
M  V30 6524 H 687.799 3.6749 -1.72354 0
M  V30 6525 H 688.565 2.71948 -4.01584 0
M  V30 6526 H 684.444 3.46417 -3.04165 0
M  V30 6527 H 687.988 2.73746 -6.41645 0
M  V30 6528 H 683.885 3.48469 -5.43359 0
M  V30 6529 H 684.653 3.27951 -7.49927 0
M  V30 6530 N 687.317 1.12792 1.10072 0
M  V30 6531 C 688.542 0.908838 1.86427 0
M  V30 6532 C 688.967 -0.536793 1.80278 0
M  V30 6533 O 688.325 -1.38033 1.17543 0
M  V30 6534 C 688.373 1.39295 3.3261 0
M  V30 6535 O 687.477 0.573846 4.08388 0
M  V30 6536 H 686.818 0.326234 0.578331 0
M  V30 6537 H 689.348 1.50094 1.39043 0
M  V30 6538 H 689.358 1.39366 3.83459 0
M  V30 6539 H 688.033 2.44555 3.36401 0
M  V30 6540 H 686.61 0.640438 3.67359 0
M  V30 6541 N 688.795 -1.27931 0.920396 0
M  V30 6542 C 689.742 -2.27085 0.412422 0
M  V30 6543 C 690.712 -1.57858 -0.516725 0
M  V30 6544 O 691.897 -1.85717 -0.437475 0
M  V30 6545 C 689.037 -3.43466 -0.335399 0
M  V30 6546 C 688.15 -4.27425 0.627017 0
M  V30 6547 C 687.285 -5.31016 -0.139916 0
M  V30 6548 C 686.324 -6.06641 0.815683 0
M  V30 6549 N 685.461 -7.02052 0.0818439 0
M  V30 6550 H 690.301 -2.69913 1.26298 0
M  V30 6551 H 687.838 -1.32732 0.634076 0
M  V30 6552 H 689.796 -4.09744 -0.785226 0
M  V30 6553 H 688.426 -3.01611 -1.15025 0
M  V30 6554 H 687.478 -3.6113 1.19537 0
M  V30 6555 H 688.79 -4.79969 1.35763 0
M  V30 6556 H 687.944 -6.03208 -0.649998 0
M  V30 6557 H 686.683 -4.79257 -0.903543 0
M  V30 6558 H 685.688 -5.33294 1.33708 0
M  V30 6559 H 686.913 -6.60489 1.57897 0
M  V30 6560 H 684.859 -6.52634 -0.663671 0
M  V30 6561 H 684.776 -7.52249 0.752163 0
M  V30 6562 H 686.044 -7.78432 -0.407825 0
M  V30 6563 N 690.273 -0.685099 -1.4193 0
M  V30 6564 C 691.521 -0.21124 -2.00993 0
M  V30 6565 C 691.842 1.18985 -1.54491 0
M  V30 6566 O 691.112 1.8009 -0.771 0
M  V30 6567 H 689.692 -0.0751059 -0.743215 0
M  V30 6568 H 692.354 -0.883915 -1.73704 0
M  V30 6569 H 691.45 -0.220513 -3.1132 0
M  V30 6570 N 691.751 1.51645 -0.429126 0
M  V30 6571 C 693.167 1.59394 -0.080994 0
M  V30 6572 C 693.367 1.44064 1.40882 0
M  V30 6573 O 692.423 1.27771 2.17786 0
M  V30 6574 C 693.736 2.94779 -0.593773 0
M  V30 6575 C 695.284 3.08067 -0.553494 0
M  V30 6576 C 695.759 4.45963 -1.04311 0
M  V30 6577 N 697.25 4.5226 -1.00076 0
M  V30 6578 C 697.985 5.57268 -1.35056 0
M  V30 6579 N 697.481 6.69734 -1.77282 0
M  V30 6580 N 699.274 5.47582 -1.26925 0
M  V30 6581 H 691.425 1.59856 -1.39857 0
M  V30 6582 H 693.688 0.753095 -0.575805 0
M  V30 6583 H 693.394 3.11342 -1.63583 0
M  V30 6584 H 693.268 3.77197 -0.0142202 0
M  V30 6585 H 695.655 2.91177 0.479556 0
M  V30 6586 H 695.736 2.27508 -1.16935 0
M  V30 6587 H 695.38 4.63598 -2.07459 0
M  V30 6588 H 695.31 5.25049 -0.403873 0
M  V30 6589 H 697.801 3.71537 -0.690564 0
M  V30 6590 H 698.114 7.4587 -2.02232 0
M  V30 6591 H 696.459 6.70963 -1.81202 0
M  V30 6592 H 699.65 4.58604 -0.93809 0
M  V30 6593 H 699.823 6.29308 -1.54516 0
M  V30 6594 N 693.229 0.160201 1.56784 0
M  V30 6595 C 694.192 -0.760405 2.16219 0
M  V30 6596 C 695.192 -1.16595 1.10735 0
M  V30 6597 O 696.382 -1.08472 1.36306 0
M  V30 6598 C 693.514 -2.03358 2.73603 0
M  V30 6599 H 694.707 -0.243173 2.98912 0
M  V30 6600 H 692.26 -0.0893139 1.56045 0
M  V30 6601 H 692.995 -2.59416 1.94612 0
M  V30 6602 H 692.78 -1.75186 3.50788 0
M  V30 6603 H 694.27 -2.69081 3.19351 0
M  V30 6604 N 694.707 -1.5719 -0.113559 0
M  V30 6605 C 695.637 -2.03772 -1.14013 0
M  V30 6606 C 696.618 -0.923176 -1.42869 0
M  V30 6607 O 697.803 -1.19325 -1.53216 0
M  V30 6608 C 694.933 -2.44663 -2.4649 0
M  V30 6609 C 693.887 -3.59612 -2.32085 0
M  V30 6610 C 693.213 -3.8642 -3.69573 0
M  V30 6611 C 694.513 -4.91149 -1.7768 0
M  V30 6612 H 696.207 -2.89785 -0.752665 0
M  V30 6613 H 693.753 -1.39412 -0.360609 0
M  V30 6614 H 695.706 -2.75857 -3.18561 0
M  V30 6615 H 694.43 -1.55628 -2.87137 0
M  V30 6616 H 693.089 -3.28636 -1.62461 0
M  V30 6617 H 692.737 -2.94581 -4.07715 0
M  V30 6618 H 692.437 -4.63797 -3.60786 0
M  V30 6619 H 693.961 -4.2007 -4.4314 0
M  V30 6620 H 695.375 -5.20843 -2.39574 0
M  V30 6621 H 693.772 -5.72562 -1.79701 0
M  V30 6622 H 694.842 -4.79301 -0.734776 0
M  V30 6623 N 696.185 0.383891 -1.52853 0
M  V30 6624 C 697.415 1.14783 -1.7178 0
M  V30 6625 C 697.823 1.84055 -0.438211 0
M  V30 6626 O 697.166 1.73713 0.597465 0
M  V30 6627 C 697.228 2.23543 -2.81547 0
M  V30 6628 C 696.892 1.74195 -4.22499 0
M  V30 6629 C 697.889 1.21591 -5.05481 0
M  V30 6630 C 695.574 1.80262 -4.6884 0
M  V30 6631 C 697.568 0.757104 -6.32888 0
M  V30 6632 C 695.255 1.33993 -5.96229 0
M  V30 6633 C 696.253 0.818049 -6.78083 0
M  V30 6634 O 695.941 0.362123 -8.03084 0
M  V30 6635 H 695.673 0.349908 -0.578395 0
M  V30 6636 H 698.227 0.454377 -2.00311 0
M  V30 6637 H 696.457 2.96328 -2.48449 0
M  V30 6638 H 698.146 2.8519 -2.88828 0
M  V30 6639 H 698.912 1.16257 -4.7086 0
M  V30 6640 H 694.791 2.19825 -4.05213 0
M  V30 6641 H 698.335 0.34908 -6.96726 0
M  V30 6642 H 694.232 1.39015 -6.30353 0
M  V30 6643 H 695 0.483134 -8.17073 0
M  V30 6644 N 697.663 1.43903 0.642637 0
M  V30 6645 C 698.61 1.49881 1.75512 0
M  V30 6646 C 699.58 0.347538 1.62423 0
M  V30 6647 O 700.765 0.556177 1.82514 0
M  V30 6648 C 697.905 1.43797 3.13714 0
M  V30 6649 C 697.018 2.6921 3.37861 0
M  V30 6650 C 696.153 2.5504 4.6597 0
M  V30 6651 C 695.192 3.75671 4.83257 0
M  V30 6652 N 694.329 3.60247 6.02633 0
M  V30 6653 H 699.169 2.44935 1.69737 0
M  V30 6654 H 696.706 1.21572 0.828165 0
M  V30 6655 H 698.664 1.38262 3.93624 0
M  V30 6656 H 697.294 0.523173 3.18532 0
M  V30 6657 H 696.346 2.8498 2.51973 0
M  V30 6658 H 697.658 3.58786 3.46517 0
M  V30 6659 H 696.812 2.47273 5.54023 0
M  V30 6660 H 695.551 1.63006 4.59653 0
M  V30 6661 H 694.556 3.83836 3.93637 0
M  V30 6662 H 695.781 4.68728 4.91397 0
M  V30 6663 H 693.727 2.70955 5.97427 0
M  V30 6664 H 693.644 4.43431 6.12295 0
M  V30 6665 H 694.912 3.56351 6.93278 0
M  V30 6666 N 699.141 -0.881989 1.30609 0
M  V30 6667 C 700.387 -1.63647 1.19781 0
M  V30 6668 C 700.72 -1.92632 -0.246265 0
M  V30 6669 O 699.995 -1.54938 -1.17577 0
M  V30 6670 C 700.278 -2.97437 2.02985 0
M  V30 6671 C 700.131 -2.75406 3.55628 0
M  V30 6672 C 701.45 -3.98397 1.86997 0
M  V30 6673 H 698.569 -0.593841 0.436488 0
M  V30 6674 H 701.211 -1.02041 1.60273 0
M  V30 6675 H 699.361 -3.50018 1.68581 0
M  V30 6676 H 701.033 -2.2959 4.00107 0
M  V30 6677 H 699.276 -2.09856 3.79662 0
M  V30 6678 H 699.947 -3.70552 4.09139 0
M  V30 6679 H 702.423 -3.54986 2.17081 0
M  V30 6680 H 701.299 -4.89916 2.47536 0
M  V30 6681 H 701.56 -4.3424 0.829943 0
M  V30 6682 N 700.619 -1.13374 -1.09472 0
M  V30 6683 C 701.867 -0.893422 -1.8128 0
M  V30 6684 C 702.188 0.582029 -1.86111 0
M  V30 6685 O 701.458 1.42305 -1.34633 0
M  V30 6686 H 700.038 -0.327543 -0.67136 0
M  V30 6687 H 702.7 -1.43018 -1.32408 0
M  V30 6688 H 701.796 -1.28374 -2.84476 0
M  V30 6689 N 702.098 1.27442 -0.927168 0
M  V30 6690 C 703.061 2.2512 -0.430525 0
M  V30 6691 C 704.061 1.54357 0.450619 0
M  V30 6692 O 705.251 1.72371 0.251774 0
M  V30 6693 C 702.383 3.38763 0.381144 0
M  V30 6694 H 703.576 2.70569 -1.29354 0
M  V30 6695 H 701.129 1.39355 -0.707806 0
M  V30 6696 H 701.864 2.98695 1.263 0
M  V30 6697 H 701.649 3.91298 -0.250618 0
M  V30 6698 H 703.139 4.11364 0.719012 0
M  V30 6699 N 703.576 0.692616 1.41565 0
M  V30 6700 C 704.824 0.221896 2.00878 0
M  V30 6701 C 705.145 -1.18164 1.5512 0
M  V30 6702 O 704.415 -1.79679 0.78054 0
M  V30 6703 H 702.995 0.0790463 0.742806 0
M  V30 6704 H 705.657 0.893115 1.73232 0
M  V30 6705 H 704.753 0.23702 3.11199 0
M  V30 6706 N 705.054 -1.51416 0.437162 0
M  V30 6707 C 706.282 -2.06503 -0.128045 0
M  V30 6708 C 706.697 -1.30461 -1.36475 0
M  V30 6709 O 706.054 -0.364127 -1.78831 0
M  V30 6710 C 706.105 -3.58683 -0.450437 0
M  V30 6711 O 705.826 -4.31853 0.737186 0
M  V30 6712 C 707.327 -4.30284 -1.06633 0
M  V30 6713 H 704.547 -0.670952 -0.00800269 0
M  V30 6714 H 707.091 -1.94996 0.616193 0
M  V30 6715 H 705.246 -3.70106 -1.14457 0
M  V30 6716 H 705.66 -5.22467 0.461347 0
M  V30 6717 H 707.134 -5.37848 -1.24191 0
M  V30 6718 H 707.611 -3.88564 -2.0473 0
M  V30 6719 H 708.217 -4.23304 -0.411585 0
M  V30 6720 N 706.532 -0.168513 -1.56696 0
M  V30 6721 C 707.78 0.476216 -1.96409 0
M  V30 6722 C 708.101 1.63968 -1.05544 0
M  V30 6723 O 707.371 1.95525 -0.121235 0
M  V30 6724 H 705.951 0.178921 -0.725256 0
M  V30 6725 H 708.613 -0.249042 -1.93302 0
M  V30 6726 H 707.709 0.838094 -3.00637 0
M  V30 6727 N 708.01 1.57248 0.105221 0
M  V30 6728 C 708.942 1.98008 1.15436 0
M  V30 6729 C 709.955 0.881236 1.36887 0
M  V30 6730 O 711.144 1.15943 1.35718 0
M  V30 6731 C 708.244 2.27509 2.51183 0
M  V30 6732 C 707.417 3.58811 2.50147 0
M  V30 6733 C 706.476 3.76365 3.67745 0
M  V30 6734 O 705.502 4.48329 3.50699 0
M  V30 6735 N 706.704 3.16174 4.86841 0
M  V30 6736 H 709.469 2.88616 0.807519 0
M  V30 6737 H 707.03 1.59202 0.29433 0
M  V30 6738 H 709.022 2.36455 3.28438 0
M  V30 6739 H 707.592 1.42959 2.77995 0
M  V30 6740 H 706.812 3.60927 1.5851 0
M  V30 6741 H 708.1 4.45088 2.46524 0
M  V30 6742 H 707.498 2.57701 5.03594 0
M  V30 6743 H 706.055 3.30621 5.61723 0
M  V30 6744 N 709.488 -0.375779 1.53054 0
M  V30 6745 C 710.737 -1.11674 1.67964 0
M  V30 6746 C 711.05 -1.90755 0.432655 0
M  V30 6747 O 712.256 -2.67538 0.462109 0
M  V30 6748 C 710.712 -2.0344 2.96884 0
M  V30 6749 C 710.32 -1.29719 4.28809 0
M  V30 6750 C 712.064 -2.7759 3.2116 0
M  V30 6751 C 709.971 -2.20327 5.48826 0
M  V30 6752 H 708.901 -0.420597 0.625791 0
M  V30 6753 H 711.552 -0.378499 1.79554 0
M  V30 6754 H 709.934 -2.80953 2.79072 0
M  V30 6755 H 711.108 -0.573394 4.57219 0
M  V30 6756 H 709.423 -0.674735 4.10897 0
M  V30 6757 H 712.02 -3.4559 4.0801 0
M  V30 6758 H 712.363 -3.42399 2.36789 0
M  V30 6759 H 712.896 -2.07164 3.396 0
M  V30 6760 H 709.635 -1.60113 6.35645 0
M  V30 6761 H 709.155 -2.90585 5.2471 0
M  V30 6762 H 710.834 -2.80116 5.83219 0
M  V30 6763 N 710.966 -1.44241 -0.634997 0
M  V30 6764 C 712.212 -1.48033 -1.39492 0
M  V30 6765 C 712.567 -0.109791 -1.92086 0
M  V30 6766 O 711.86 0.874394 -1.70484 0
M  V30 6767 C 712.054 -2.47279 -2.58046 0
M  V30 6768 C 711.883 -3.93848 -2.17057 0
M  V30 6769 C 710.653 -4.62061 -2.04518 0
M  V30 6770 C 712.851 -4.83172 -1.76208 0
M  V30 6771 N 710.833 -5.93471 -1.57051 0
M  V30 6772 C 712.204 -6.03996 -1.39958 0
M  V30 6773 C 714.259 -4.70271 -1.63554 0
M  V30 6774 C 712.962 -7.13351 -0.923196 0
M  V30 6775 C 714.988 -5.79646 -1.1732 0
M  V30 6776 C 714.35 -6.99609 -0.820181 0
M  V30 6777 H 710.449 -0.596743 -0.505392 0
M  V30 6778 H 713.033 -1.80542 -0.72887 0
M  V30 6779 H 711.204 -2.16766 -3.22284 0
M  V30 6780 H 712.936 -2.41391 -3.24827 0
M  V30 6781 H 709.691 -4.1682 -2.24851 0
M  V30 6782 H 710.115 -6.63275 -1.35628 0
M  V30 6783 H 714.757 -3.77964 -1.8948 0
M  V30 6784 H 712.475 -8.0547 -0.651441 0
M  V30 6785 H 716.061 -5.71689 -1.07993 0
M  V30 6786 H 714.941 -7.82803 -0.467901 0
M  V30 6787 N 712.444 0.87505 -1.31075 0
M  V30 6788 C 713.374 1.99775 -1.20881 0
M  V30 6789 C 714.355 1.69822 -0.0971612 0
M  V30 6790 O 715.54 1.92158 -0.280895 0
M  V30 6791 C 712.67 3.35163 -0.910118 0
M  V30 6792 C 711.624 3.79406 -1.98078 0
M  V30 6793 C 710.95 5.12197 -1.53488 0
M  V30 6794 C 712.25 3.97061 -3.39323 0
M  V30 6795 H 713.944 2.08562 -2.14808 0
M  V30 6796 H 711.49 1.00207 -1.03415 0
M  V30 6797 H 713.443 4.13237 -0.825423 0
M  V30 6798 H 712.167 3.26536 0.064822 0
M  V30 6799 H 710.826 3.03568 -2.05528 0
M  V30 6800 H 710.474 5.00007 -0.547941 0
M  V30 6801 H 710.174 5.4277 -2.2511 0
M  V30 6802 H 711.698 5.92785 -1.46417 0
M  V30 6803 H 713.112 4.65545 -3.34576 0
M  V30 6804 H 711.509 4.39025 -4.09118 0
M  V30 6805 H 712.579 3.00601 -3.80483 0
M  V30 6806 N 713.922 1.13953 1.08869 0
M  V30 6807 C 715.199 0.815768 1.77777 0
M  V30 6808 C 715.579 -0.691624 1.99449 0
M  V30 6809 O 714.927 -1.63085 1.60049 0
M  V30 6810 C 715.137 1.60916 3.09689 0
M  V30 6811 C 716.485 1.80549 3.84301 0
M  V30 6812 O 717.509 1.57562 3.19457 0
M  V30 6813 O 716.368 2.18946 5.00724 0
M  V30 6814 H 713.462 0.298445 0.771271 0
M  V30 6815 H 716.008 1.24446 1.15374 0
M  V30 6816 H 714.78 2.6333 2.89435 0
M  V30 6817 H 714.403 1.17578 3.79817 0
M  V30 6818 N 715.4 -1.26948 0.933913 0
M  V30 6819 C 716.348 -2.2862 0.428463 0
M  V30 6820 C 717.342 -1.62144 -0.490464 0
M  V30 6821 O 718.548 -1.76167 -0.36948 0
M  V30 6822 H 714.923 -0.742363 0.120003 0
M  V30 6823 H 716.894 -2.68659 1.29865 0
M  V30 6824 C 715.643 -3.46423 -0.29774 0
M  V30 6825 H 714.966 -3.97792 0.400183 0
M  V30 6826 H 716.406 -4.19505 -0.615736 0
M  V30 6827 C 714.865 -3.01017 -1.51295 0
M  V30 6828 O 715.395 -3.05226 -2.61151 0
M  V30 6829 N 713.601 -2.56442 -1.36696 0
M  V30 6830 H 713.148 -2.53217 -0.473178 0
M  V30 6831 H 713.106 -2.26424 -2.18127 0
M  V30 6832 N 716.879 -0.700114 -1.41195 0
M  V30 6833 C 718.125 -0.233351 -2.01453 0
M  V30 6834 C 718.458 1.16548 -1.55339 0
M  V30 6835 O 717.733 1.78756 -0.766575 0
M  V30 6836 C 718.016 -0.2961 -3.58881 0
M  V30 6837 C 717.869 -1.7322 -4.15108 0
M  V30 6838 C 719.188 0.341525 -4.38773 0
M  V30 6839 H 716.307 -0.0862667 -0.731934 0
M  V30 6840 H 718.949 -0.889693 -1.67882 0
M  V30 6841 H 717.099 0.262736 -3.87611 0
M  V30 6842 H 718.771 -2.34523 -3.97236 0
M  V30 6843 H 717.014 -2.2649 -3.69979 0
M  V30 6844 H 717.685 -1.7276 -5.24269 0
M  V30 6845 H 720.161 -0.134461 -4.15883 0
M  V30 6846 H 719.037 0.267098 -5.4825 0
M  V30 6847 H 719.298 1.42289 -4.18577 0
M  V30 6848 N 718.357 1.51182 -0.445186 0
M  V30 6849 C 719.289 2.25714 0.398206 0
M  V30 6850 C 720.302 1.30032 0.979562 0
M  V30 6851 O 721.491 1.55731 0.872368 0
M  V30 6852 C 718.591 3.00348 1.56985 0
M  V30 6853 C 717.764 4.23187 1.10596 0
M  V30 6854 C 716.823 4.80334 2.14863 0
M  V30 6855 O 715.849 5.4196 1.73977 0
M  V30 6856 N 717.051 4.65053 3.47427 0
M  V30 6857 H 719.816 2.98732 -0.240629 0
M  V30 6858 H 717.377 1.59556 -0.274507 0
M  V30 6859 H 719.369 3.35464 2.26376 0
M  V30 6860 H 717.939 2.30291 2.11387 0
M  V30 6861 H 717.159 3.93476 0.238832 0
M  V30 6862 H 718.447 5.02886 0.773537 0
M  V30 6863 H 717.845 4.15984 3.83372 0
M  V30 6864 H 716.402 5.04509 4.12691 0
M  V30 6865 N 719.835 0.176821 1.56605 0
M  V30 6866 C 721.075 -0.469104 1.98944 0
M  V30 6867 C 721.439 -1.60048 1.06059 0
M  V30 6868 O 722.64 -2.30934 1.3756 0
M  V30 6869 C 720.911 -0.934571 3.44965 0
M  V30 6870 S 722.47 -1.58091 4.09332 0
M  V30 6871 H 719.288 -0.150695 0.694847 0
M  V30 6872 H 721.89 0.27558 1.93548 0
M  V30 6873 H 720.594 -0.100814 4.10276 0
M  V30 6874 H 720.125 -1.71316 3.54139 0
M  V30 6875 H 722.14 -2.86922 4.04834 0
M  V30 6876 N 721.313 -1.57302 -0.09688 0
M  V30 6877 C 722.729 -1.53094 -0.451041 0
M  V30 6878 C 722.929 -0.893265 -1.80618 0
M  V30 6879 O 721.985 -0.485013 -2.47798 0
M  V30 6880 C 723.298 -2.9782 -0.415172 0
M  V30 6881 C 724.846 -3.09026 -0.497155 0
M  V30 6882 C 725.321 -4.55356 -0.491452 0
M  V30 6883 N 726.812 -4.59896 -0.552258 0
M  V30 6884 C 727.547 -5.70563 -0.569654 0
M  V30 6885 N 727.043 -6.90666 -0.543365 0
M  V30 6886 N 728.836 -5.58733 -0.614331 0
M  V30 6887 H 720.987 -1.97131 0.790771 0
M  V30 6888 H 723.25 -0.901211 0.294147 0
M  V30 6889 H 722.956 -3.47933 0.513362 0
M  V30 6890 H 722.83 -3.56416 -1.23481 0
M  V30 6891 H 725.217 -2.58902 -1.41611 0
M  V30 6892 H 725.298 -2.53386 0.35059 0
M  V30 6893 H 724.942 -5.06131 0.423549 0
M  V30 6894 H 724.872 -5.08832 -1.35639 0
M  V30 6895 H 727.363 -3.73456 -0.577842 0
M  V30 6896 H 727.676 -7.70769 -0.559873 0
M  V30 6897 H 726.021 -6.93123 -0.510441 0
M  V30 6898 H 729.212 -4.63809 -0.632387 0
M  V30 6899 H 729.385 -6.44984 -0.62442 0
M  V30 6900 N 722.791 0.367657 -1.53252 0
M  V30 6901 C 724.039 1.10832 -1.68999 0
M  V30 6902 C 724.36 1.89894 -0.443306 0
M  V30 6903 O 723.63 1.88235 0.54262 0
M  V30 6904 H 722.21 0.412153 -0.623008 0
M  V30 6905 H 724.872 0.414775 -1.90435 0
M  V30 6906 H 723.968 1.7993 -2.55013 0
M  V30 6907 N 724.269 1.44576 0.627338 0
M  V30 6908 C 725.497 1.51048 1.41394 0
M  V30 6909 C 725.912 0.136568 1.88305 0
M  V30 6910 O 725.269 -0.858251 1.6106 0
M  V30 6911 C 725.32 2.47837 2.63172 0
M  V30 6912 O 725.041 3.79887 2.18215 0
M  V30 6913 C 726.542 2.63811 3.56257 0
M  V30 6914 H 723.762 0.512171 0.4335 0
M  V30 6915 H 726.306 1.89576 0.766878 0
M  V30 6916 H 724.461 2.12433 3.23961 0
M  V30 6917 H 724.875 4.32177 2.97192 0
M  V30 6918 H 726.349 3.35554 4.38301 0
M  V30 6919 H 726.826 1.69169 4.05313 0
M  V30 6920 H 727.432 3.0013 3.01333 0
M  V30 6921 N 725.747 -0.868086 1.31537 0
M  V30 6922 C 726.657 -2.00801 1.21311 0
M  V30 6923 C 727.673 -1.73518 0.129431 0
M  V30 6924 O 728.849 -1.98378 0.347588 0
M  V30 6925 C 725.914 -3.3419 0.922935 0
M  V30 6926 C 724.975 -3.74783 2.0937 0
M  V30 6927 C 724.208 -5.01807 1.81728 0
M  V30 6928 O 724.431 -5.65404 0.753313 0
M  V30 6929 O 723.365 -5.39213 2.67457 0
M  V30 6930 H 727.191 -2.12361 2.17109 0
M  V30 6931 H 724.776 -0.996684 1.11295 0
M  V30 6932 H 726.658 -4.14174 0.777033 0
M  V30 6933 H 725.333 -3.237 -0.00500301 0
M  V30 6934 H 724.24 -2.95432 2.29501 0
M  V30 6935 H 725.573 -3.89902 3.00396 0
M  V30 6936 N 727.225 -1.14528 -1.08264 0
M  V30 6937 C 728.45 -0.938381 -1.84957 0
M  V30 6938 C 728.875 0.508044 -1.81109 0
M  V30 6939 O 728.233 1.36146 -1.19724 0
M  V30 6940 C 728.281 -1.44568 -3.30352 0
M  V30 6941 O 727.385 -0.638745 -4.07423 0
M  V30 6942 H 726.726 -0.335394 -0.573068 0
M  V30 6943 H 729.256 -1.52287 -1.36637 0
M  V30 6944 H 729.266 -1.45449 -3.81194 0
M  V30 6945 H 727.941 -2.49876 -3.32468 0
M  V30 6946 H 726.518 -0.698801 -3.66294 0
M  V30 6947 N 728.703 1.26451 -0.940633 0
M  V30 6948 C 729.931 1.97868 -0.604642 0
M  V30 6949 C 730.346 1.70051 0.820251 0
M  V30 6950 O 729.703 0.96843 1.54686 0
M  V30 6951 C 729.754 3.51684 -0.836689 0
M  V30 6952 O 729.475 3.78533 -2.20554 0
M  V30 6953 C 730.976 4.40343 -0.511169 0
M  V30 6954 H 728.196 0.631105 -0.227919 0
M  V30 6955 H 730.74 1.60979 -1.26119 0
M  V30 6956 H 728.895 3.86736 -0.226759 0
M  V30 6957 H 729.309 4.73065 -2.26517 0
M  V30 6958 H 730.783 5.47229 -0.724157 0
M  V30 6959 H 731.26 4.35694 0.553815 0
M  V30 6960 H 731.866 4.10834 -1.0998 0
M  V30 6961 N 730.181 0.707592 1.40822 0
M  V30 6962 C 731.111 0.0644925 2.33411 0
M  V30 6963 C 732.092 -0.754205 1.52466 0
M  V30 6964 O 733.277 -0.704749 1.80961 0
M  V30 6965 C 730.407 -0.863865 3.36385 0
M  V30 6966 C 729.361 -0.15138 4.27732 0
M  V30 6967 C 728.687 -1.19491 5.21177 0
M  V30 6968 C 729.987 0.989607 5.12839 0
M  V30 6969 H 731.681 0.837829 2.87438 0
M  V30 6970 H 729.227 0.404346 1.38207 0
M  V30 6971 H 731.18 -1.32309 4.0009 0
M  V30 6972 H 729.904 -1.66901 2.80734 0
M  V30 6973 H 728.563 0.287937 3.65467 0
M  V30 6974 H 728.211 -1.9929 4.61836 0
M  V30 6975 H 727.911 -0.723123 5.83134 0
M  V30 6976 H 729.435 -1.6544 5.8776 0
M  V30 6977 H 730.849 0.610114 5.70044 0
M  V30 6978 H 729.246 1.38926 5.83798 0
M  V30 6979 H 730.316 1.82389 4.49291 0
M  V30 6980 N 731.66 -1.50943 0.453197 0
M  V30 6981 C 732.906 -2.03153 -0.100277 0
M  V30 6982 C 733.261 -1.33032 -1.38997 0
M  V30 6983 O 732.554 -0.441423 -1.86446 0
M  V30 6984 C 732.748 -3.55603 -0.357944 0
M  V30 6985 C 732.577 -4.40495 0.905223 0
M  V30 6986 C 731.347 -4.84247 1.44337 0
M  V30 6987 C 733.545 -4.81931 1.79575 0
M  V30 6988 N 731.527 -5.53403 2.65742 0
M  V30 6989 C 732.898 -5.50314 2.85577 0
M  V30 6990 C 734.953 -4.63903 1.80828 0
M  V30 6991 C 733.656 -6.02581 3.92797 0
M  V30 6992 C 735.682 -5.17097 2.86993 0
M  V30 6993 C 735.044 -5.8544 3.91713 0
M  V30 6994 H 731.143 -0.781995 0.00287755 0
M  V30 6995 H 733.727 -1.84651 0.617411 0
M  V30 6996 H 731.898 -3.74087 -1.04467 0
M  V30 6997 H 733.63 -3.9447 -0.904175 0
M  V30 6998 H 730.385 -4.63029 0.995045 0
M  V30 6999 H 730.809 -5.92598 3.27348 0
M  V30 7000 H 735.451 -4.10512 1.0119 0
M  V30 7001 H 733.169 -6.55018 4.73262 0
M  V30 7002 H 736.755 -5.0499 2.88923 0
M  V30 7003 H 735.635 -6.25861 4.72512 0
M  V30 7004 N 733.138 -0.185124 -1.56509 0
M  V30 7005 C 734.363 0.465278 -2.02114 0
M  V30 7006 C 734.788 1.55083 -1.06447 0
M  V30 7007 O 734.146 1.81241 -0.0462852 0
M  V30 7008 C 734.194 1.00784 -3.46229 0
M  V30 7009 O 733.298 2.12123 -3.53663 0
M  V30 7010 H 732.639 0.109891 -0.654843 0
M  V30 7011 H 735.169 -0.293072 -2.0249 0
M  V30 7012 H 735.179 1.32697 -3.85818 0
M  V30 7013 H 733.854 0.213113 -4.15354 0
M  V30 7014 H 732.431 1.8115 -3.25943 0
M  V30 7015 N 734.616 1.57351 0.0885366 0
M  V30 7016 C 735.856 1.88248 0.796362 0
M  V30 7017 C 736.22 0.776915 1.75579 0
M  V30 7018 O 737.421 0.968485 2.50747 0
M  V30 7019 C 735.692 3.24385 1.50031 0
M  V30 7020 S 737.251 3.76991 2.24551 0
M  V30 7021 H 734.069 0.659697 0.265181 0
M  V30 7022 H 736.671 1.95428 0.0531843 0
M  V30 7023 H 735.375 4.02764 0.788 0
M  V30 7024 H 734.906 3.20361 2.28325 0
M  V30 7025 H 736.921 3.50933 3.508 0
M  V30 7026 N 736.094 -0.359525 1.53444 0
M  V30 7027 C 737.322 -1.12198 1.73837 0
M  V30 7028 C 737.737 -1.82854 0.470107 0
M  V30 7029 O 737.094 -1.73781 -0.557349 0
M  V30 7030 C 737.145 -2.14769 2.90786 0
M  V30 7031 O 736.866 -1.46989 4.12706 0
M  V30 7032 C 738.367 -3.03514 3.231 0
M  V30 7033 H 735.587 -0.33524 0.581253 0
M  V30 7034 H 738.131 -0.416598 2.00212 0
M  V30 7035 H 736.286 -2.80896 2.66788 0
M  V30 7036 H 736.7 -2.15378 4.78239 0
M  V30 7037 H 738.174 -3.71453 4.08322 0
M  V30 7038 H 738.651 -3.68658 2.38721 0
M  V30 7039 H 739.257 -2.42996 3.49046 0
M  V30 7040 N 737.572 -1.44907 -0.619662 0
M  V30 7041 C 738.519 -1.52654 -1.73105 0
M  V30 7042 C 739.489 -0.373334 -1.6185 0
M  V30 7043 O 740.674 -0.585143 -1.81606 0
M  V30 7044 C 737.814 -1.48769 -3.11387 0
M  V30 7045 C 736.927 -2.74551 -3.33535 0
M  V30 7046 C 736.062 -2.62421 -4.61854 0
M  V30 7047 C 735.101 -3.83312 -4.77219 0
M  V30 7048 N 734.238 -3.69789 -5.96826 0
M  V30 7049 H 739.078 -2.47605 -1.65819 0
M  V30 7050 H 736.615 -1.22875 -0.808719 0
M  V30 7051 H 738.573 -1.44507 -3.91374 0
M  V30 7052 H 737.203 -0.573783 -3.1766 0
M  V30 7053 H 736.255 -2.88953 -2.47408 0
M  V30 7054 H 737.567 -3.64253 -3.40765 0
M  V30 7055 H 736.721 -2.56056 -5.50019 0
M  V30 7056 H 735.46 -1.70298 -4.57001 0
M  V30 7057 H 734.465 -3.90049 -3.87481 0
M  V30 7058 H 735.69 -4.76486 -4.83878 0
M  V30 7059 H 733.636 -2.80426 -5.93041 0
M  V30 7060 H 733.553 -4.53116 -6.05163 0
M  V30 7061 H 734.821 -3.67335 -6.87521 0
M  V30 7062 N 739.05 0.861098 -1.31996 0
M  V30 7063 C 739.998 1.99052 -1.20337 0
M  V30 7064 C 740.992 1.69045 -0.109623 0
M  V30 7065 O 742.198 1.77931 -0.272117 0
M  V30 7066 H 738.573 0.653064 -0.372843 0
M  V30 7067 H 740.544 2.06015 -2.15872 0
M  V30 7068 C 739.293 3.34846 -0.936663 0
M  V30 7069 H 738.616 3.58462 -1.77045 0
M  V30 7070 H 740.056 4.1444 -0.895302 0
M  V30 7071 C 738.515 3.34965 0.360607 0
M  V30 7072 O 739.045 3.7745 1.37456 0
M  V30 7073 N 737.251 2.88101 0.380296 0
M  V30 7074 H 736.798 2.53721 -0.445351 0
M  V30 7075 H 736.756 2.88563 1.24816 0
M  V30 7076 N 740.528 1.15101 1.07655 0
M  V30 7077 C 741.753 0.948177 1.84457 0
M  V30 7078 C 742.178 -0.498432 1.81376 0
M  V30 7079 O 741.536 -1.35509 1.20445 0
M  V30 7080 C 741.584 1.46318 3.29581 0
M  V30 7081 O 740.688 0.660342 4.07079 0
M  V30 7082 H 740.029 0.338428 0.571281 0
M  V30 7083 H 742.559 1.5301 1.35828 0
M  V30 7084 H 742.569 1.47468 3.80417 0
M  V30 7085 H 741.244 2.51635 3.31138 0
M  V30 7086 H 739.821 0.718216 3.65918 0
M  V30 7087 N 742.006 -1.2595 0.947325 0
M  V30 7088 C 743.252 -1.94081 0.608604 0
M  V30 7089 C 743.607 -1.72899 -0.844021 0
M  V30 7090 O 742.9 -1.05908 -1.59669 0
M  V30 7091 C 743.094 -3.46034 0.894158 0
M  V30 7092 C 742.923 -3.81994 2.37299 0
M  V30 7093 C 741.693 -4.04431 3.02925 0
M  V30 7094 C 743.891 -3.90069 3.35188 0
M  V30 7095 N 741.873 -4.27325 4.40757 0
M  V30 7096 C 743.244 -4.17567 4.58299 0
M  V30 7097 C 745.299 -3.72721 3.30127 0
M  V30 7098 C 744.002 -4.2952 5.76979 0
M  V30 7099 C 746.028 -3.8591 4.48138 0
M  V30 7100 C 745.39 -4.13812 5.70034 0
M  V30 7101 H 741.489 -0.73273 0.273187 0
M  V30 7102 H 744.073 -1.51898 1.218 0
M  V30 7103 H 742.244 -3.87131 0.313758 0
M  V30 7104 H 743.976 -4.01396 0.516082 0
M  V30 7105 H 740.731 -4.0003 2.53521 0
M  V30 7106 H 741.155 -4.42792 5.12118 0
M  V30 7107 H 745.797 -3.50172 2.36938 0
M  V30 7108 H 743.515 -4.50888 6.70616 0
M  V30 7109 H 747.101 -3.73882 4.45762 0
M  V30 7110 H 745.981 -4.23791 6.59827 0
M  V30 7111 N 743.484 -0.715051 -1.40445 0
M  V30 7112 C 744.732 -0.253826 -2.005 0
M  V30 7113 C 745.053 1.15681 -1.5698 0
M  V30 7114 O 744.323 1.78414 -0.809027 0
M  V30 7115 H 742.903 -0.0908537 -0.741454 0
M  V30 7116 H 745.565 -0.920561 -1.7179 0
M  V30 7117 H 744.661 -0.286499 -3.10782 0
M  V30 7118 N 744.962 1.50701 -0.461195 0
M  V30 7119 C 745.912 2.25195 0.35653 0
M  V30 7120 C 746.896 1.2838 0.96992 0
M  V30 7121 O 748.088 1.53338 0.884108 0
M  V30 7122 C 745.217 3.11471 1.44364 0
M  V30 7123 C 744.303 4.15729 0.83847 0
M  V30 7124 N 744.694 5.05788 -0.0353198 0
M  V30 7125 C 742.992 4.32133 1.1035 0
M  V30 7126 C 743.693 5.80472 -0.37774 0
M  V30 7127 N 742.669 5.43049 0.24463 0
M  V30 7128 H 746.471 2.92188 -0.316746 0
M  V30 7129 H 743.985 1.60059 -0.274725 0
M  V30 7130 H 745.982 3.63436 2.04255 0
M  V30 7131 H 744.642 2.46025 2.11901 0
M  V30 7132 H 745.653 5.16326 -0.403465 0
M  V30 7133 H 742.33 3.77908 1.77458 0
M  V30 7134 H 743.72 6.62996 -1.09024 0
M  V30 7135 N 746.441 0.193421 1.56409 0
M  V30 7136 C 747.391 -0.74089 2.15627 0
M  V30 7137 C 748.375 -1.17747 1.09656 0
M  V30 7138 O 749.567 -1.13615 1.35723 0
M  V30 7139 C 746.696 -1.96091 2.81786 0
M  V30 7140 C 745.782 -1.54531 3.94944 0
M  V30 7141 N 746.173 -0.840569 4.98767 0
M  V30 7142 C 744.471 -1.83473 4.06514 0
M  V30 7143 C 745.172 -0.632571 5.7825 0
M  V30 7144 N 744.148 -1.18078 5.30621 0
M  V30 7145 H 747.95 -0.193718 2.93261 0
M  V30 7146 H 745.464 -0.00643211 1.62399 0
M  V30 7147 H 747.461 -2.64071 3.22602 0
M  V30 7148 H 746.121 -2.51282 2.05639 0
M  V30 7149 H 747.132 -0.496218 5.15517 0
M  V30 7150 H 743.809 -2.40184 3.41493 0
M  V30 7151 H 745.199 -0.0736433 6.7186 0
M  V30 7152 N 747.919 -1.57396 -0.0801906 0
M  V30 7153 C 749.196 -1.77883 -0.813451 0
M  V30 7154 C 749.576 -0.778879 -1.96206 0
M  V30 7155 O 748.924 0.189683 -2.27711 0
M  V30 7156 C 749.134 -3.24116 -1.2942 0
M  V30 7157 C 750.482 -3.87714 -1.73098 0
M  V30 7158 O 751.506 -3.27956 -1.39007 0
M  V30 7159 O 750.365 -4.92828 -2.36184 0
M  V30 7160 H 747.459 -0.729727 -0.389138 0
M  V30 7161 H 750.005 -1.69591 -0.0609166 0
M  V30 7162 H 748.777 -3.88443 -0.471947 0
M  V30 7163 H 748.4 -3.371 -2.1083 0
M  V30 7164 N 749.397 0.351382 -1.53633 0
M  V30 7165 C 750.637 1.10102 -1.72212 0
M  V30 7166 C 751.001 1.86128 -0.471198 0
M  V30 7167 O 752.202 2.63445 -0.533887 0
M  V30 7168 C 750.473 2.02348 -2.94602 0
M  V30 7169 S 752.032 2.84641 -3.33954 0
M  V30 7170 H 748.85 0.372145 -0.60583 0
M  V30 7171 H 751.452 0.38044 -1.91763 0
M  V30 7172 H 750.156 1.45283 -3.83824 0
M  V30 7173 H 749.687 2.78856 -2.77493 0
M  V30 7174 H 751.702 4.04724 -2.87076 0
M  V30 7175 N 750.875 1.45233 0.611969 0
M  V30 7176 C 752.1 1.52767 1.40274 0
M  V30 7177 C 752.525 0.159701 1.87421 0
M  V30 7178 O 751.883 -0.854837 1.59882 0
M  V30 7179 C 751.931 2.51286 2.58626 0
M  V30 7180 O 751.035 2.02764 3.59111 0
M  V30 7181 H 750.376 0.515141 0.418958 0
M  V30 7182 H 752.906 1.90547 0.745188 0
M  V30 7183 H 752.916 2.69949 3.05927 0
M  V30 7184 H 751.591 3.50641 2.23659 0
M  V30 7185 H 750.168 1.93957 3.18489 0
M  V30 7186 N 752.353 -0.854086 1.3245 0
M  V30 7187 C 753.303 -1.9508 1.18016 0
M  V30 7188 C 754.287 -1.60665 0.0869417 0
M  V30 7189 O 755.479 -1.74201 0.313505 0
M  V30 7190 C 752.608 -3.3113 0.905961 0
M  V30 7191 C 751.694 -3.71763 2.04091 0
M  V30 7192 N 752.085 -3.84218 3.28953 0
M  V30 7193 C 750.383 -4.01393 1.94421 0
M  V30 7194 C 751.084 -4.192 4.03294 0
M  V30 7195 N 750.06 -4.30749 3.31596 0
M  V30 7196 H 753.862 -2.02843 2.12678 0
M  V30 7197 H 751.376 -1.04588 1.24238 0
M  V30 7198 H 753.373 -4.09471 0.783508 0
M  V30 7199 H 752.033 -3.24684 -0.0322715 0
M  V30 7200 H 753.044 -3.68524 3.63883 0
M  V30 7201 H 749.721 -4.03246 1.08162 0
M  V30 7202 H 751.111 -4.36301 5.1097 0
M  V30 7203 N 753.831 -1.1567 -1.07043 0
M  V30 7204 C 754.741 -0.870435 -2.17855 0
M  V30 7205 C 755.757 0.154452 -1.73313 0
M  V30 7206 O 756.933 -0.0203759 -2.0139 0
M  V30 7207 C 753.998 -0.367219 -3.4475 0
M  V30 7208 C 753.059 -1.45639 -4.03841 0
M  V30 7209 C 752.292 -0.977092 -5.2468 0
M  V30 7210 O 752.515 0.176127 -5.70128 0
M  V30 7211 O 751.449 -1.76215 -5.75527 0
M  V30 7212 H 755.275 -1.79687 -2.44839 0
M  V30 7213 H 752.86 -0.936064 -1.1644 0
M  V30 7214 H 754.742 -0.0931947 -4.21297 0
M  V30 7215 H 753.417 0.53131 -3.1931 0
M  V30 7216 H 752.324 -1.78406 -3.28819 0
M  V30 7217 H 753.657 -2.32995 -4.3356 0
M  V30 7218 N 755.309 1.25446 -0.953992 0
M  V30 7219 C 756.219 2.29632 -0.480264 0
M  V30 7220 C 757.235 1.68025 0.452071 0
M  V30 7221 O 758.411 1.98703 0.328472 0
M  V30 7222 C 755.476 3.45903 0.234974 0
M  V30 7223 C 754.537 4.22953 -0.735495 0
M  V30 7224 C 753.77 5.33672 -0.0542957 0
M  V30 7225 O 753.993 5.58477 1.16018 0
M  V30 7226 O 752.927 5.9734 -0.739509 0
M  V30 7227 H 756.753 2.72242 -1.34602 0
M  V30 7228 H 754.338 1.30883 -0.720419 0
M  V30 7229 H 756.22 4.16552 0.637341 0
M  V30 7230 H 754.895 3.05296 1.07592 0
M  V30 7231 H 753.802 3.54734 -1.18806 0
M  V30 7232 H 755.135 4.67341 -1.54444 0
M  V30 7233 N 756.787 0.722489 1.40064 0
M  V30 7234 C 758.064 0.191829 1.94657 0
M  V30 7235 C 758.444 -1.30389 1.66018 0
M  V30 7236 O 757.792 -2.06342 0.981588 0
M  V30 7237 C 758.002 0.511978 3.45224 0
M  V30 7238 C 759.35 0.454426 4.22161 0
M  V30 7239 O 760.374 0.448438 3.53366 0
M  V30 7240 O 759.233 0.437986 5.44742 0
M  V30 7241 H 756.327 0.0307821 0.826427 0
M  V30 7242 H 758.873 0.800493 1.49634 0
M  V30 7243 H 757.645 1.54622 3.59455 0
M  V30 7244 H 757.268 -0.126296 3.97399 0
M  V30 7245 N 758.265 -1.50454 0.469181 0
M  V30 7246 C 759.228 -2.2703 -0.314643 0
M  V30 7247 C 760.228 -1.31734 -0.922111 0
M  V30 7248 O 761.418 -1.55176 -0.791588 0
M  V30 7249 C 758.55 -3.08616 -1.44806 0
M  V30 7250 H 759.743 -2.97769 0.356892 0
M  V30 7251 H 757.296 -1.54698 0.223191 0
M  V30 7252 H 758.031 -2.42369 -2.1547 0
M  V30 7253 H 757.816 -3.78647 -1.01829 0
M  V30 7254 H 759.306 -3.66536 -2.00103 0
M  V30 7255 N 759.743 -0.201713 -1.56304 0
M  V30 7256 C 760.991 0.434447 -1.97375 0
M  V30 7257 C 761.312 1.61692 -1.08998 0
M  V30 7258 O 760.582 1.95223 -0.162682 0
M  V30 7259 H 759.162 0.163497 -0.728888 0
M  V30 7260 H 761.824 -0.289988 -1.92731 0
M  V30 7261 H 760.92 0.774136 -3.02347 0
M  V30 7262 N 761.222 1.57436 0.0718424 0
M  V30 7263 C 762.468 1.87525 0.772149 0
M  V30 7264 C 762.801 0.79399 1.77227 0
M  V30 7265 O 762.076 -0.195733 1.93513 0
M  V30 7266 C 762.359 3.28272 1.48018 0
M  V30 7267 C 762.212 4.47052 0.49647 0
M  V30 7268 C 763.531 3.67256 2.42509 0
M  V30 7269 H 760.65 0.682049 0.279245 0
M  V30 7270 H 763.292 1.89967 0.03534 0
M  V30 7271 H 761.442 3.26321 2.10824 0
M  V30 7272 H 763.114 4.61127 -0.126375 0
M  V30 7273 H 761.357 4.33392 -0.188205 0
M  V30 7274 H 762.028 5.42315 1.02949 0
M  V30 7275 H 764.504 3.70301 1.89781 0
M  V30 7276 H 763.38 4.66626 2.89053 0
M  V30 7277 H 763.641 2.97186 3.27312 0
M  V30 7278 N 762.7 -0.34323 1.53817 0
M  V30 7279 C 763.61 -1.44493 1.84821 0
M  V30 7280 C 764.626 -1.57556 0.738381 0
M  V30 7281 O 765.802 -1.73026 1.03072 0
M  V30 7282 C 762.867 -2.79478 2.05166 0
M  V30 7283 C 761.928 -2.75756 3.29025 0
M  V30 7284 C 761.161 -4.04302 3.4839 0
M  V30 7285 O 761.384 -5.01595 2.71586 0
M  V30 7286 O 760.318 -4.08754 4.41819 0
M  V30 7287 H 764.144 -1.21209 2.78464 0
M  V30 7288 H 761.729 -0.535437 1.39476 0
M  V30 7289 H 763.611 -3.59419 2.19991 0
M  V30 7290 H 762.286 -3.02692 1.14713 0
M  V30 7291 H 761.193 -1.94434 3.19603 0
M  V30 7292 H 762.526 -2.57495 4.19472 0
M  V30 7293 N 764.178 -1.45556 -0.604258 0
M  V30 7294 C 765.418 -1.51289 -1.37445 0
M  V30 7295 C 765.782 -0.152112 -1.91397 0
M  V30 7296 O 766.983 -0.0841419 -2.68668 0
M  V30 7297 C 765.254 -2.5646 -2.48924 0
M  V30 7298 S 766.813 -2.81442 -3.36654 0
M  V30 7299 H 763.631 -0.534774 -0.468549 0
M  V30 7300 H 766.233 -1.82657 -0.696902 0
M  V30 7301 H 764.937 -3.53995 -2.07644 0
M  V30 7302 H 764.468 -2.26753 -3.21476 0
M  V30 7303 H 766.483 -2.15074 -4.47166 0
M  V30 7304 N 765.656 0.84705 -1.32902 0
M  V30 7305 C 766.881 1.63925 -1.27056 0
M  V30 7306 C 767.306 1.87443 0.157136 0
M  V30 7307 O 766.664 1.43266 1.11106 0
M  V30 7308 C 766.712 2.97134 -2.04313 0
M  V30 7309 O 765.816 3.88049 -1.39614 0
M  V30 7310 H 765.157 0.499477 -0.437514 0
M  V30 7311 H 767.687 1.05443 -1.75336 0
M  V30 7312 H 767.697 3.46896 -2.14772 0
M  V30 7313 H 766.372 2.79339 -3.08128 0
M  V30 7314 H 764.949 3.46525 -1.3775 0
M  V30 7315 N 767.134 1.16236 1.06428 0
M  V30 7316 C 768.38 0.944431 1.79467 0
M  V30 7317 C 768.713 -0.526558 1.86925 0
M  V30 7318 O 767.988 -1.39061 1.35986 0
M  V30 7319 C 768.271 1.57092 3.24028 0
M  V30 7320 C 768.124 3.11315 3.24658 0
M  V30 7321 C 769.443 1.26447 4.21544 0
M  V30 7322 H 766.562 0.344521 0.651517 0
M  V30 7323 H 769.204 1.43545 1.24478 0
M  V30 7324 H 767.354 1.15337 3.70985 0
M  V30 7325 H 769.026 3.62042 2.85873 0
M  V30 7326 H 767.269 3.44716 2.6335 0
M  V30 7327 H 767.94 3.50269 4.26633 0
M  V30 7328 H 770.416 1.62581 3.83023 0
M  V30 7329 H 769.292 1.72885 5.20963 0
M  V30 7330 H 769.553 0.183068 4.41721 0
M  V30 7331 O 768.651 -1.1913 1.09043 0
M  V30 7332 H 769.342 -1.77084 0.784907 0
M  V30 END ATOM
M  V30 BEGIN BOND
M  V30 END BOND
M  V30 END CTAB
M  END
$$$$
