drugbank_target|Q9UF02 Voltage-dependent calcium channel gamma-5 subunit (DB00153; DB00228; DB00421; DB11148; DB13746)
 OpenBabel12092120593D

  0  0  0     0  0            999 V3000
M  V30 BEGIN CTAB
M  V30 COUNTS 4320 4377 0 0 0
M  V30 BEGIN ATOM
M  V30 1 H -0.908 1.98254 -0.117106 0
M  V30 2 N 0 1.576 0 0
M  V30 3 C 0.933 2.03868 1.02534 0
M  V30 4 C 1.911 0.928543 1.3348 0
M  V30 5 O 3.095 1.19667 1.45644 0
M  V30 6 C 0.222 2.43627 2.35294 0
M  V30 7 C -0.732 3.65373 2.2001 0
M  V30 8 S 0.101 5.13292 1.52614 0
M  V30 9 C 1.257 5.56322 2.86805 0
M  V30 10 H 1.49 2.90518 0.631377 0
M  V30 11 H -0.977 1.52953 0.210867 0
M  V30 12 H 0.981 2.67203 3.11629 0
M  V30 13 H -0.358 1.57376 2.7183 0
M  V30 14 H -1.165 3.90944 3.18086 0
M  V30 15 H -1.563 3.418 1.51819 0
M  V30 16 H 0.729 5.58782 3.83104 0
M  V30 17 H 1.672 6.56266 2.65933 0
M  V30 18 H 2.08 4.83886 2.90714 0
M  V30 19 N 1.4781 -0.272755 1.55222 0
M  V30 20 C 2.7031 -1.02683 1.80197 0
M  V30 21 C 3.1281 -1.79142 0.573551 0
M  V30 22 O 2.4861 -1.74917 -0.476849 0
M  V30 23 C 2.5341 -1.9609 3.02624 0
M  V30 24 O 1.6381 -3.04863 2.77727 0
M  V30 25 H 0.9791 -0.293557 0.595584 0
M  V30 26 H 3.5091 -0.30159 2.02365 0
M  V30 27 H 3.5191 -2.38039 3.31363 0
M  V30 28 H 2.1941 -1.39851 3.91682 0
M  V30 29 H 0.7711 -2.67228 2.60084 0
M  V30 30 N 2.9562 -1.48159 -0.537278 0
M  V30 31 C 3.9192 -1.61665 -1.62472 0
M  V30 32 C 4.9192 -0.490395 -1.5314 0
M  V30 33 O 6.1092 -0.755998 -1.5694 0
M  V30 34 C 3.2412 -1.57997 -3.02076 0
M  V30 35 H 4.4342 -2.58621 -1.51839 0
M  V30 36 H 1.9872 -1.36647 -0.758771 0
M  V30 37 H 2.7222 -0.624913 -3.18222 0
M  V30 38 H 2.5072 -2.39755 -3.10258 0
M  V30 39 H 3.9972 -1.70627 -3.81151 0
M  V30 40 N 4.4343 0.785586 -1.36625 0
M  V30 41 C 5.6743 1.55678 -1.32453 0
M  V30 42 C 6.0383 1.91769 0.0941089 0
M  V30 43 O 7.2393 2.67536 0.26042 0
M  V30 44 C 5.5103 2.79701 -2.22491 0
M  V30 45 S 7.0693 3.69907 -2.36038 0
M  V30 46 H 3.8873 0.533141 -0.470405 0
M  V30 47 H 6.4893 0.924953 -1.72235 0
M  V30 48 H 5.1933 2.51244 -3.24507 0
M  V30 49 H 4.7243 3.47854 -1.83742 0
M  V30 50 H 6.7393 4.71016 -1.56072 0
M  V30 51 N 5.9124 1.20967 1.01018 0
M  V30 52 C 7.1604 1.02172 1.74371 0
M  V30 53 C 7.4814 -0.446414 1.89821 0
M  V30 54 O 6.7514 -1.32234 1.44537 0
M  V30 55 H 5.3314 0.375066 0.646014 0
M  V30 56 H 7.9934 1.52187 1.21758 0
M  V30 57 H 7.0894 1.48538 2.74487 0
M  V30 58 N 7.3905 -1.2043 1.01659 0
M  V30 59 C 8.8065 -1.41852 0.731442 0
M  V30 60 C 9.0065 -1.89358 -0.688898 0
M  V30 61 O 8.0625 -2.06247 -1.45666 0
M  V30 62 C 9.3755 -2.44019 1.75714 0
M  V30 63 C 10.9235 -2.57785 1.77527 0
M  V30 64 C 11.3985 -3.63194 2.79023 0
M  V30 65 N 12.8895 -3.70678 2.77763 0
M  V30 66 C 13.6245 -4.51897 3.52954 0
M  V30 67 N 13.1205 -5.36921 4.37821 0
M  V30 68 N 14.9135 -4.4643 3.41551 0
M  V30 69 H 7.0645 -0.879093 1.93354 0
M  V30 70 H 9.3275 -0.448425 0.835236 0
M  V30 71 H 9.0335 -2.1611 2.77469 0
M  V30 72 H 8.9075 -3.43007 1.56927 0
M  V30 73 H 11.2945 -2.85023 0.764569 0
M  V30 74 H 11.3755 -1.58992 2.00387 0
M  V30 75 H 11.0195 -3.36699 3.80258 0
M  V30 76 H 10.9495 -4.61609 2.53425 0
M  V30 77 H 13.4405 -3.09944 2.16201 0
M  V30 78 H 13.7535 -5.95981 4.91962 0
M  V30 79 H 12.0985 -5.36424 4.41899 0
M  V30 80 H 15.2895 -3.79042 2.74672 0
M  V30 81 H 15.4625 -5.09491 4.00404 0
M  V30 82 N 8.8686 -0.792821 -1.36206 0
M  V30 83 C 9.8156 -0.191653 -2.30003 0
M  V30 84 C 10.7856 0.666453 -1.52143 0
M  V30 85 O 11.9706 0.61442 -1.80636 0
M  V30 86 C 9.1106 0.664848 -3.38635 0
M  V30 87 C 8.2236 -0.212175 -4.31479 0
M  V30 88 C 7.3586 0.651022 -5.27196 0
M  V30 89 C 6.3976 -0.227247 -6.11678 0
M  V30 90 N 5.5346 0.595127 -6.99573 0
M  V30 91 H 10.3746 -0.996978 -2.80828 0
M  V30 92 H 7.9116 -0.503206 -1.38225 0
M  V30 93 H 9.8696 1.17645 -4.00269 0
M  V30 94 H 8.4996 1.43557 -2.89122 0
M  V30 95 H 7.5516 -0.841777 -3.70969 0
M  V30 96 H 8.8636 -0.888751 -4.90818 0
M  V30 97 H 8.0176 1.2283 -5.94136 0
M  V30 98 H 6.7566 1.36121 -4.68319 0
M  V30 99 H 5.7616 -0.816904 -5.43697 0
M  V30 100 H 6.9866 -0.93509 -6.72631 0
M  V30 101 H 4.9326 1.28955 -6.432 0
M  V30 102 H 4.8496 -0.0236952 -7.55996 0
M  V30 103 H 6.1176 1.15613 -7.70879 0
M  V30 104 N 10.3467 1.47872 -0.545128 0
M  V30 105 C 11.3097 2.28337 0.198717 0
M  V30 106 C 12.3097 1.36255 0.853888 0
M  V30 107 O 13.4997 1.59003 0.711606 0
M  V30 108 C 10.6317 3.15585 1.28915 0
M  V30 109 H 11.8247 2.95567 -0.507941 0
M  V30 110 H 9.3777 1.53362 -0.301616 0
M  V30 111 H 10.1127 2.53019 2.02859 0
M  V30 112 H 9.8977 3.83337 0.824309 0
M  V30 113 H 11.3877 3.76243 1.81194 0
M  V30 114 N 11.8248 0.280983 1.55075 0
M  V30 115 C 12.7548 -0.597469 2.25727 0
M  V30 116 C 13.7358 -1.15417 1.24952 0
M  V30 117 O 14.9208 -1.18722 1.53684 0
M  V30 118 C 12.0508 -1.7789 2.98283 0
M  V30 119 C 11.0048 -1.35347 4.06036 0
M  V30 120 C 10.3308 -2.61846 4.66198 0
M  V30 121 C 11.6308 -0.499354 5.19907 0
M  V30 122 H 13.3248 -0.00824265 2.99399 0
M  V30 123 H 10.8708 -0.0025244 1.44 0
M  V30 124 H 12.8238 -2.39937 3.46422 0
M  V30 125 H 11.5478 -2.39405 2.22155 0
M  V30 126 H 10.2068 -0.756156 3.58717 0
M  V30 127 H 9.8548 -3.21632 3.86732 0
M  V30 128 H 9.5548 -2.3409 5.38958 0
M  V30 129 H 11.0788 -3.24732 5.1709 0
M  V30 130 H 12.4928 -1.02498 5.64063 0
M  V30 131 H 10.8898 -0.316424 5.99265 0
M  V30 132 H 11.9598 0.480459 4.82514 0
M  V30 133 N 13.3029 -1.57598 0.00835791 0
M  V30 134 C 14.5309 -1.95214 -0.68549 0
M  V30 135 C 14.9459 -0.883706 -1.66841 0
M  V30 136 O 14.3029 0.136565 -1.81988 0
M  V30 137 C 14.3539 -3.32865 -1.41007 0
M  V30 138 O 14.0749 -4.35609 -0.466552 0
M  V30 139 C 15.5759 -3.84991 -2.19765 0
M  V30 140 H 12.7959 -0.643422 -0.190392 0
M  V30 141 H 15.3399 -2.04406 0.0619607 0
M  V30 142 H 13.4949 -3.24956 -2.10908 0
M  V30 143 H 13.9089 -5.15288 -0.978699 0
M  V30 144 H 15.3829 -4.8371 -2.65948 0
M  V30 145 H 15.8599 -3.18137 -3.02796 0
M  V30 146 H 16.4659 -3.96103 -1.54864 0
M  V30 147 N 14.781 0.264519 -1.55364 0
M  V30 148 C 15.711 1.33121 -1.91836 0
M  V30 149 C 16.692 1.51101 -0.781192 0
M  V30 150 O 17.877 1.64003 -1.04003 0
M  V30 151 C 15.007 2.68921 -2.19769 0
M  V30 152 C 13.961 2.65661 -3.35571 0
M  V30 153 C 13.287 4.05093 -3.49004 0
M  V30 154 C 14.587 2.24187 -4.71739 0
M  V30 155 H 16.281 1.02844 -2.81182 0
M  V30 156 H 13.827 0.493286 -1.35287 0
M  V30 157 H 15.78 3.43663 -2.43872 0
M  V30 158 H 14.504 3.00799 -1.27231 0
M  V30 159 H 13.163 1.93377 -3.1145 0
M  V30 160 H 12.811 4.34206 -2.53917 0
M  V30 161 H 12.511 4.03804 -4.26868 0
M  V30 162 H 14.035 4.81561 -3.75408 0
M  V30 163 H 15.449 2.88654 -4.9533 0
M  V30 164 H 13.846 2.34044 -5.52579 0
M  V30 165 H 14.916 1.19327 -4.69988 0
M  V30 166 N 16.2591 1.48442 0.529413 0
M  V30 167 C 17.1891 1.65902 1.64313 0
M  V30 168 C 18.1701 0.507897 1.6234 0
M  V30 169 O 19.3551 0.740503 1.79528 0
M  V30 170 C 16.4851 1.69911 3.02898 0
M  V30 171 C 15.4391 2.8453 3.19729 0
M  V30 172 C 14.7651 2.73629 4.59381 0
M  V30 173 C 16.0651 4.25821 3.02447 0
M  V30 174 H 17.7591 2.5914 1.49955 0
M  V30 175 H 15.3051 1.24709 0.719982 0
M  V30 176 H 17.2581 1.80715 3.80684 0
M  V30 177 H 15.9821 0.732524 3.18279 0
M  V30 178 H 14.6411 2.73283 2.44361 0
M  V30 179 H 14.2891 1.74938 4.71599 0
M  V30 180 H 13.9891 3.50541 4.71588 0
M  V30 181 H 15.5131 2.86401 5.39265 0
M  V30 182 H 16.9271 4.37898 3.70024 0
M  V30 183 H 15.3241 5.03735 3.26146 0
M  V30 184 H 16.3941 4.42244 1.98867 0
M  V30 185 N 17.7372 -0.778329 1.37039 0
M  V30 186 C 18.9622 -1.57248 1.35233 0
M  V30 187 C 19.3872 -1.87999 -0.0615568 0
M  V30 188 O 18.7452 -1.48734 -1.03672 0
M  V30 189 C 18.7932 -2.86353 2.19167 0
M  V30 190 O 17.8972 -3.80442 1.59178 0
M  V30 191 H 17.2382 -0.476569 0.462362 0
M  V30 192 H 19.7682 -0.963853 1.80474 0
M  V30 193 H 19.7782 -3.35519 2.32145 0
M  V30 194 H 18.4532 -2.63299 3.21942 0
M  V30 195 H 17.0302 -3.39067 1.55203 0
M  V30 196 N 19.2153 -1.21501 -1.00376 0
M  V30 197 C 20.4403 -1.05977 -1.78279 0
M  V30 198 C 20.8653 0.385994 -1.84097 0
M  V30 199 O 20.2233 1.27849 -1.28547 0
M  V30 200 C 20.2713 -1.66302 -3.19963 0
M  V30 201 O 19.3753 -0.909333 -4.0225 0
M  V30 202 H 18.7163 -0.372906 -0.549397 0
M  V30 203 H 21.2463 -1.6107 -1.26165 0
M  V30 204 H 21.2563 -1.70574 -3.70632 0
M  V30 205 H 19.9313 -2.71515 -3.15043 0
M  V30 206 H 18.5083 -0.941795 -3.60811 0
M  V30 207 N 20.6934 1.19889 -1.02296 0
M  V30 208 C 21.9394 1.89701 -0.717033 0
M  V30 209 C 22.2724 1.7905 0.751989 0
M  V30 210 O 21.5474 1.17891 1.547 0
M  V30 211 C 21.8304 3.40858 -1.16136 0
M  V30 212 C 21.6834 3.60411 -2.69117 0
M  V30 213 C 23.0024 4.33876 -0.737549 0
M  V30 214 H 20.1214 0.688874 -0.261957 0
M  V30 215 H 22.7634 1.41154 -1.27183 0
M  V30 216 H 20.9134 3.82335 -0.689342 0
M  V30 217 H 22.5854 3.28145 -3.2422 0
M  V30 218 H 20.8284 3.03665 -3.0979 0
M  V30 219 H 21.4994 4.66396 -2.95261 0
M  V30 220 H 23.9754 4.00081 -1.14344 0
M  V30 221 H 22.8514 5.38242 -1.0764 0
M  V30 222 H 23.1124 4.40628 0.360436 0
M  V30 223 N 22.1715 0.800033 1.35784 0
M  V30 224 C 23.4185 0.377342 1.98953 0
M  V30 225 C 23.7465 -1.05378 1.6348 0
M  V30 226 O 23.0015 -1.74459 0.886707 0
M  V30 227 C 23.3005 0.500276 3.53881 0
M  V30 228 C 22.9665 1.89375 4.09204 0
M  V30 229 C 21.6285 2.27499 4.24025 0
M  V30 230 C 23.9805 2.8057 4.39238 0
M  V30 231 C 21.3085 3.562 4.66195 0
M  V30 232 C 23.6605 4.0871 4.82844 0
M  V30 233 C 22.3245 4.46843 4.95871 0
M  V30 234 H 21.5945 0.138079 0.728021 0
M  V30 235 H 24.2415 1.01955 1.62103 0
M  V30 236 H 22.5465 -0.225405 3.91151 0
M  V30 237 H 24.2435 0.154097 4.00704 0
M  V30 238 H 20.8335 1.58753 3.98115 0
M  V30 239 H 25.0175 2.52367 4.27346 0
M  V30 240 H 20.2735 3.85602 4.74469 0
M  V30 241 H 24.4475 4.79481 5.05046 0
M  V30 242 H 22.0745 5.46623 5.28306 0
M  V30 243 N 23.6496 -1.47581 0.552962 0
M  V30 244 C 24.6126 -2.28439 -0.186605 0
M  V30 245 C 25.6126 -1.36706 -0.84665 0
M  V30 246 O 26.8026 -1.59378 -0.703164 0
M  V30 247 C 23.9346 -3.16264 -1.2724 0
M  V30 248 H 25.1276 -2.95294 0.523609 0
M  V30 249 H 22.6806 -1.532 0.309745 0
M  V30 250 H 23.4156 -2.54091 -2.01514 0
M  V30 251 H 23.2006 -3.83769 -0.803968 0
M  V30 252 H 24.6906 -3.77198 -1.79196 0
M  V30 253 N 25.1277 -0.289203 -1.54924 0
M  V30 254 C 26.3737 0.323998 -2.00195 0
M  V30 255 C 26.7067 1.54441 -1.17735 0
M  V30 256 O 25.9817 1.92875 -0.250878 0
M  V30 257 C 26.2647 0.692276 -3.53383 0
M  V30 258 C 26.1177 -0.536457 -4.46589 0
M  V30 259 C 27.4367 1.52335 -4.12895 0
M  V30 260 H 24.5557 0.116289 -0.727768 0
M  V30 261 H 27.1977 -0.398954 -1.85764 0
M  V30 262 H 25.3477 1.30822 -3.65811 0
M  V30 263 H 27.0197 -1.17499 -4.46085 0
M  V30 264 H 25.2627 -1.17192 -4.1767 0
M  V30 265 H 25.9337 -0.234806 -5.515 0
M  V30 266 H 28.4097 1.00302 -4.0383 0
M  V30 267 H 27.2857 1.74982 -5.20262 0
M  V30 268 H 27.5467 2.50886 -3.64018 0
M  V30 269 N 26.6058 1.57591 -0.0167156 0
M  V30 270 C 27.8458 1.93145 0.668902 0
M  V30 271 C 28.2098 0.892406 1.7 0
M  V30 272 O 29.4108 1.13373 2.43721 0
M  V30 273 C 27.6818 3.33678 1.28039 0
M  V30 274 S 29.2408 3.91142 1.9888 0
M  V30 275 H 26.0588 0.67593 0.220545 0
M  V30 276 H 28.6608 1.95347 -0.0774105 0
M  V30 277 H 27.3648 4.07126 0.517339 0
M  V30 278 H 26.8958 3.3489 2.06427 0
M  V30 279 H 28.9108 3.73571 3.26587 0
M  V30 280 N 28.0839 -0.256276 1.55502 0
M  V30 281 C 29.3319 -0.983672 1.76545 0
M  V30 282 C 29.6529 -1.86206 0.578982 0
M  V30 283 O 28.9229 -1.91656 -0.405577 0
M  V30 284 H 27.5029 -0.366191 0.651086 0
M  V30 285 H 30.1649 -0.276479 1.92929 0
M  V30 286 H 29.2609 -1.61087 2.67315 0
M  V30 287 N 29.562 -1.4872 -0.521534 0
M  V30 288 C 30.492 -1.66771 -1.63431 0
M  V30 289 C 31.473 -0.516499 -1.62069 0
M  V30 290 O 32.658 -0.750013 -1.79132 0
M  V30 291 C 29.788 -1.71515 -3.01993 0
M  V30 292 C 28.742 -2.86222 -3.18216 0
M  V30 293 C 28.068 -2.76061 -4.57924 0
M  V30 294 C 29.368 -4.27419 -3.00184 0
M  V30 295 H 31.062 -2.59932 -1.48579 0
M  V30 296 H 28.608 -1.25089 -0.713358 0
M  V30 297 H 30.561 -1.82731 -3.7972 0
M  V30 298 H 29.285 -0.749393 -3.17886 0
M  V30 299 H 27.944 -2.74575 -2.42908 0
M  V30 300 H 27.592 -1.77437 -4.70665 0
M  V30 301 H 27.292 -3.53037 -4.69722 0
M  V30 302 H 28.816 -2.89256 -5.37739 0
M  V30 303 H 30.23 -4.39855 -3.67697 0
M  V30 304 H 28.627 -5.05458 -3.2347 0
M  V30 305 H 29.697 -4.43293 -1.96518 0
M  V30 306 N 31.0401 0.771051 -1.3745 0
M  V30 307 C 32.2881 1.52661 -1.32435 0
M  V30 308 C 32.6091 1.9479 0.0905024 0
M  V30 309 O 31.8791 1.66348 1.03466 0
M  V30 310 H 30.4591 0.566218 -0.487244 0
M  V30 311 H 33.1211 0.917636 -1.71946 0
M  V30 312 H 32.2171 2.42568 -1.96385 0
M  V30 313 N 32.5182 1.22032 0.997298 0
M  V30 314 C 33.4482 1.01065 2.10495 0
M  V30 315 C 34.4292 -0.0669542 1.69968 0
M  V30 316 O 35.6142 0.0943987 1.9397 0
M  V30 317 C 32.7442 0.582874 3.42374 0
M  V30 318 C 31.6982 1.60592 3.96729 0
M  V30 319 C 31.0242 1.03412 5.24605 0
M  V30 320 C 32.3242 2.99478 4.27914 0
M  V30 321 H 34.0182 1.93708 2.28292 0
M  V30 322 H 31.5642 0.932761 1.09707 0
M  V30 323 H 33.5172 0.423332 4.19268 0
M  V30 324 H 32.2412 -0.379213 3.24391 0
M  V30 325 H 30.9002 1.75316 3.21963 0
M  V30 326 H 30.5482 0.063518 5.0296 0
M  V30 327 H 30.2482 1.71754 5.61938 0
M  V30 328 H 31.7722 0.886066 6.04137 0
M  V30 329 H 33.1862 2.88153 4.95622 0
M  V30 330 H 31.5832 3.64903 4.76409 0
M  V30 331 H 32.6532 3.49742 3.3587 0
M  V30 332 N 33.9963 -1.19345 1.0293 0
M  V30 333 C 34.9263 -2.2481 0.631105 0
M  V30 334 C 35.9073 -1.66245 -0.360104 0
M  V30 335 O 37.0923 -1.92677 -0.242726 0
M  V30 336 C 34.2223 -3.47295 -0.0184607 0
M  V30 337 C 33.1763 -4.18536 0.895073 0
M  V30 338 C 32.5023 -5.34586 0.110592 0
M  V30 339 C 33.8023 -4.73287 2.209 0
M  V30 340 H 35.4963 -2.58372 1.51275 0
M  V30 341 H 33.0423 -1.24194 0.728818 0
M  V30 342 H 34.9953 -4.20268 -0.308675 0
M  V30 343 H 33.7193 -3.12933 -0.934907 0
M  V30 344 H 32.3783 -3.47446 1.16949 0
M  V30 345 H 32.0263 -4.96469 -0.807902 0
M  V30 346 H 31.7263 -5.83183 0.719087 0
M  V30 347 H 33.2503 -6.10355 -0.172871 0
M  V30 348 H 34.6643 -5.38013 1.98028 0
M  V30 349 H 33.0613 -5.32373 2.76946 0
M  V30 350 H 34.1313 -3.91331 2.86336 0
M  V30 351 N 35.4744 -0.807222 -1.35358 0
M  V30 352 C 36.7224 -0.387122 -1.98358 0
M  V30 353 C 37.0434 1.04942 -1.64354 0
M  V30 354 O 36.3134 1.72615 -0.926339 0
M  V30 355 H 34.8934 -0.140154 -0.733734 0
M  V30 356 H 37.5554 -1.0332 -1.6526 0
M  V30 357 H 36.6514 -0.493352 -3.08176 0
M  V30 358 N 36.9525 1.47285 -0.560781 0
M  V30 359 C 38.2015 2.01668 -0.035895 0
M  V30 360 C 38.5145 1.44021 1.32353 0
M  V30 361 O 39.7205 1.90088 1.93853 0
M  V30 362 C 38.1765 3.59897 -0.0136659 0
M  V30 363 C 37.7845 4.26536 -1.37006 0
M  V30 364 C 39.5285 4.22017 0.458425 0
M  V30 365 C 37.4355 5.76782 -1.30675 0
M  V30 366 H 36.3655 0.753938 -0.00964879 0
M  V30 367 H 39.0165 1.69243 -0.709166 0
M  V30 368 H 37.3985 3.89301 0.725325 0
M  V30 369 H 38.5725 4.0877 -2.12705 0
M  V30 370 H 36.8875 3.76419 -1.78038 0
M  V30 371 H 39.4845 5.32124 0.524247 0
M  V30 372 H 39.8275 3.89437 1.4712 0
M  V30 373 H 40.3605 3.97159 -0.225818 0
M  V30 374 H 37.0995 6.13988 -2.29564 0
M  V30 375 H 36.6195 5.96875 -0.591622 0
M  V30 376 H 38.2985 6.39063 -1.01033 0
M  V30 377 N 38.4306 0.297415 1.54768 0
M  V30 378 C 39.3936 -0.567375 2.22066 0
M  V30 379 C 40.3936 -1.06409 1.20556 0
M  V30 380 O 41.5836 -0.960691 1.45315 0
M  V30 381 C 38.7156 -1.78517 2.90421 0
M  V30 382 H 39.9086 0.0205534 2.99893 0
M  V30 383 H 37.4616 0.0482163 1.56226 0
M  V30 384 H 38.1966 -2.41303 2.16664 0
M  V30 385 H 37.9816 -1.43669 3.64831 0
M  V30 386 H 39.4716 -2.39964 3.41771 0
M  V30 387 N 39.9087 -1.5758 0.0250728 0
M  V30 388 C 41.1547 -1.91917 -0.655413 0
M  V30 389 C 41.4877 -0.901433 -1.72011 0
M  V30 390 O 40.7627 0.0764069 -1.9435 0
M  V30 391 C 41.0457 -3.36751 -1.27558 0
M  V30 392 C 40.8987 -4.49258 -0.220719 0
M  V30 393 C 42.2177 -3.81469 -2.19475 0
M  V30 394 H 39.3367 -0.697925 -0.23679 0
M  V30 395 H 41.9787 -1.89825 0.0815036 0
M  V30 396 H 40.1287 -3.38664 -1.90365 0
M  V30 397 H 41.8007 -4.59478 0.409601 0
M  V30 398 H 40.0437 -4.31415 0.454264 0
M  V30 399 H 40.7147 -5.47618 -0.694175 0
M  V30 400 H 43.1907 -3.81266 -1.66659 0
M  V30 401 H 42.0667 -4.83512 -2.59822 0
M  V30 402 H 42.3277 -3.16744 -3.08424 0
M  V30 403 N 41.3868 0.248026 -1.55636 0
M  V30 404 C 42.6118 0.998028 -1.81808 0
M  V30 405 C 43.0368 1.78207 -0.601979 0
M  V30 406 O 42.3948 1.75653 0.448961 0
M  V30 407 C 42.4428 1.9125 -3.05705 0
M  V30 408 O 41.5468 3.00406 -2.82542 0
M  V30 409 H 40.8878 0.284045 -0.600179 0
M  V30 410 H 43.4178 0.269357 -2.02819 0
M  V30 411 H 43.4278 2.32737 -3.35108 0
M  V30 412 H 42.1028 1.33602 -3.93857 0
M  V30 413 H 40.6798 2.63056 -2.64303 0
M  V30 414 N 42.8649 1.48995 0.513639 0
M  V30 415 C 44.0929 1.61531 1.29288 0
M  V30 416 C 44.5079 0.281801 1.86685 0
M  V30 417 O 43.8649 -0.731111 1.67215 0
M  V30 418 C 43.9159 2.67449 2.43215 0
M  V30 419 O 43.6369 3.95626 1.88179 0
M  V30 420 C 45.1379 2.90575 3.34785 0
M  V30 421 H 42.3579 0.544165 0.392588 0
M  V30 422 H 44.9019 1.9494 0.617956 0
M  V30 423 H 43.0569 2.36853 3.0656 0
M  V30 424 H 43.4709 4.53868 2.62876 0
M  V30 425 H 44.9449 3.68449 4.11035 0
M  V30 426 H 45.4219 2.00011 3.91015 0
M  V30 427 H 46.0279 3.22538 2.77218 0
M  V30 428 N 44.343 -0.763751 1.37857 0
M  V30 429 C 45.62 -1.51244 1.24035 0
M  V30 430 C 46 -2.10472 -0.162649 0
M  V30 431 O 45.348 -1.96206 -1.17112 0
M  V30 432 C 45.558 -2.58694 2.34261 0
M  V30 433 C 46.906 -3.25878 2.72193 0
M  V30 434 O 47.93 -2.68993 2.33497 0
M  V30 435 O 46.789 -4.2874 3.38887 0
M  V30 436 H 43.883 -0.670243 0.484462 0
M  V30 437 H 46.429 -0.800031 1.49658 0
M  V30 438 H 45.201 -2.13105 3.2818 0
M  V30 439 H 44.824 -3.37527 2.10146 0
M  V30 440 N 45.8211 -1.22559 -0.990812 0
M  V30 441 C 47.0511 -1.07623 -1.76355 0
M  V30 442 C 47.4591 0.37601 -1.85426 0
M  V30 443 O 46.8021 1.27228 -1.32509 0
M  V30 444 C 46.8641 -1.61507 -3.21179 0
M  V30 445 C 46.5281 -3.10146 -3.35646 0
M  V30 446 C 47.5251 -4.07553 -3.22796 0
M  V30 447 C 45.2101 -3.49644 -3.60631 0
M  V30 448 C 47.2041 -5.42442 -3.34716 0
M  V30 449 C 44.8911 -4.84682 -3.72192 0
M  V30 450 C 45.8891 -5.8089 -3.59243 0
M  V30 451 O 45.5771 -7.13476 -3.70415 0
M  V30 452 H 45.3091 -0.377745 -0.560611 0
M  V30 453 H 47.8631 -1.62658 -1.25425 0
M  V30 454 H 46.0931 -1.00881 -3.73309 0
M  V30 455 H 47.7821 -1.42202 -3.80175 0
M  V30 456 H 48.5481 -3.78381 -3.03403 0
M  V30 457 H 44.4271 -2.75282 -3.69785 0
M  V30 458 H 47.9711 -6.17518 -3.24526 0
M  V30 459 H 43.8681 -5.13534 -3.91092 0
M  V30 460 H 44.6361 -7.21083 -3.87275 0
M  V30 461 N 47.2992 1.18797 -1.03562 0
M  V30 462 C 48.5452 1.89192 -0.746867 0
M  V30 463 C 48.9002 1.78531 0.717245 0
M  V30 464 O 48.1932 1.17137 1.51622 0
M  V30 465 C 48.3872 3.38692 -1.14117 0
M  V30 466 C 48.2162 3.63902 -2.64207 0
M  V30 467 C 46.9862 3.81553 -3.31279 0
M  V30 468 C 49.1842 3.64903 -3.62423 0
M  V30 469 N 47.1662 3.94455 -4.70402 0
M  V30 470 C 48.5372 3.83458 -4.87196 0
M  V30 471 C 50.5922 3.47965 -3.56125 0
M  V30 472 C 49.2952 3.86829 -6.06429 0
M  V30 473 C 51.3212 3.52616 -4.7478 0
M  V30 474 C 50.6832 3.71663 -5.9837 0
M  V30 475 H 46.7822 0.711141 -0.325273 0
M  V30 476 H 49.3662 1.42727 -1.32428 0
M  V30 477 H 47.5372 3.83864 -0.591889 0
M  V30 478 H 49.2692 3.96634 -0.803966 0
M  V30 479 H 46.0242 3.80723 -2.81686 0
M  V30 480 H 46.4482 4.0474 -5.42692 0
M  V30 481 H 51.0902 3.32189 -2.61553 0
M  V30 482 H 48.8082 4.01395 -7.01362 0
M  V30 483 H 52.3942 3.40791 -4.71543 0
M  V30 484 H 51.2742 3.75145 -6.88648 0
M  V30 485 N 48.7773 0.814389 1.34928 0
M  V30 486 C 49.7073 0.244827 2.32213 0
M  V30 487 C 50.6883 -0.634024 1.57842 0
M  V30 488 O 51.8733 -0.562676 1.8587 0
M  V30 489 C 49.0033 -0.601106 3.42058 0
M  V30 490 C 47.9573 0.179896 4.27622 0
M  V30 491 C 47.2833 -0.788237 5.28858 0
M  V30 492 C 48.5833 1.38329 5.03649 0
M  V30 493 H 50.2773 1.05763 2.80097 0
M  V30 494 H 47.8233 0.510029 1.34665 0
M  V30 495 H 49.7763 -1.00968 4.09125 0
M  V30 496 H 48.5003 -1.44688 2.92802 0
M  V30 497 H 47.1593 0.569739 3.62146 0
M  V30 498 H 46.8073 -1.62973 4.75866 0
M  V30 499 H 46.5073 -0.269942 5.8698 0
M  V30 500 H 48.0313 -1.19485 5.98795 0
M  V30 501 H 49.4453 1.04918 5.63618 0
M  V30 502 H 47.8423 1.83662 5.71304 0
M  V30 503 H 48.9123 2.16592 4.33839 0
M  V30 504 N 50.2554 -1.46986 0.568584 0
M  V30 505 C 51.4854 -2.0653 0.0539173 0
M  V30 506 C 51.8934 -1.42004 -1.25026 0
M  V30 507 O 51.2364 -0.514541 -1.76347 0
M  V30 508 C 51.2984 -3.58938 -0.200854 0
M  V30 509 C 50.9624 -4.45572 1.01559 0
M  V30 510 C 51.9594 -4.82986 1.92407 0
M  V30 511 C 49.6444 -4.8692 1.23346 0
M  V30 512 C 51.6384 -5.60559 3.03402 0
M  V30 513 C 49.3254 -5.64255 2.34649 0
M  V30 514 C 50.3234 -6.00986 3.24507 0
M  V30 515 O 50.0114 -6.76761 4.33878 0
M  V30 516 H 49.7434 -0.674292 0.0480234 0
M  V30 517 H 52.2974 -1.89812 0.784896 0
M  V30 518 H 50.5274 -3.73911 -0.986279 0
M  V30 519 H 52.2164 -4.0046 -0.662294 0
M  V30 520 H 52.9824 -4.51633 1.76785 0
M  V30 521 H 48.8614 -4.57789 0.543178 0
M  V30 522 H 52.4054 -5.89147 3.73565 0
M  V30 523 H 48.3024 -5.95021 2.5024 0
M  V30 524 H 49.0704 -6.95168 4.32068 0
M  V30 525 N 51.7335 -0.305618 -1.54608 0
M  V30 526 C 52.6635 0.561482 -2.26649 0
M  V30 527 C 53.6445 1.13415 -1.26772 0
M  V30 528 O 54.8295 1.16262 -1.55553 0
M  V30 529 C 51.9595 1.73122 -3.01075 0
M  V30 530 C 50.9135 1.2887 -4.08138 0
M  V30 531 C 50.2395 2.54396 -4.70305 0
M  V30 532 C 51.5395 0.416578 -5.20636 0
M  V30 533 H 53.2335 -0.0393902 -2.99374 0
M  V30 534 H 50.7795 -0.020385 -1.43986 0
M  V30 535 H 52.7325 2.34396 -3.50195 0
M  V30 536 H 51.4565 2.3584 -2.25936 0
M  V30 537 H 50.1155 0.698991 -3.59875 0
M  V30 538 H 49.7635 3.15439 -3.918 0
M  V30 539 H 49.4635 2.25486 -5.42614 0
M  V30 540 H 50.9875 3.16464 -5.2219 0
M  V30 541 H 52.4015 0.935116 -5.65622 0
M  V30 542 H 50.7985 0.221046 -5.99693 0
M  V30 543 H 51.8685 -0.557162 -4.81688 0
M  V30 544 N 53.2116 1.57565 -0.0334293 0
M  V30 545 C 54.1216 2.13943 0.962572 0
M  V30 546 C 55.1376 1.09276 1.35406 0
M  V30 547 O 56.3136 1.41355 1.4346 0
M  V30 548 C 53.3786 2.65887 2.22497 0
M  V30 549 C 52.4396 3.85286 1.8935 0
M  V30 550 C 51.6726 4.34743 3.09571 0
M  V30 551 O 51.8956 3.83352 4.22371 0
M  V30 552 O 50.8296 5.26538 2.91618 0
M  V30 553 H 54.6556 2.99333 0.513169 0
M  V30 554 H 52.2406 1.4822 0.18743 0
M  V30 555 H 54.1226 2.99346 2.96598 0
M  V30 556 H 52.7976 1.83578 2.6661 0
M  V30 557 H 51.7046 3.56746 1.1262 0
M  V30 558 H 53.0376 4.68771 1.5005 0
M  V30 559 N 54.6897 -0.239769 1.55765 0
M  V30 560 C 55.5997 -1.31831 1.94056 0
M  V30 561 C 56.6157 -1.52275 0.841925 0
M  V30 562 O 57.7917 -1.65759 1.14394 0
M  V30 563 C 54.8567 -2.65156 2.23368 0
M  V30 564 C 53.9177 -2.53173 3.46701 0
M  V30 565 C 53.1507 -3.8014 3.74606 0
M  V30 566 O 53.3737 -4.82343 3.04469 0
M  V30 567 O 52.3077 -3.78344 4.68123 0
M  V30 568 H 56.1337 -1.02347 2.85935 0
M  V30 569 H 53.7187 -0.441123 1.42739 0
M  V30 570 H 55.6007 -3.43929 2.43497 0
M  V30 571 H 54.2757 -2.94358 1.34666 0
M  V30 572 H 53.1827 -1.72662 3.31871 0
M  V30 573 H 54.5157 -2.28915 4.35728 0
M  V30 574 N 56.1678 -1.49265 -0.50573 0
M  V30 575 C 57.4158 -1.582 -1.25766 0
M  V30 576 C 57.7368 -0.268482 -1.93143 0
M  V30 577 O 57.0068 0.711833 -1.8251 0
M  V30 578 H 55.5868 -0.582873 -0.467191 0
M  V30 579 H 58.2488 -1.85865 -0.586525 0
M  V30 580 H 57.3448 -2.37563 -2.02412 0
M  V30 581 N 57.6459 0.756429 -1.3826 0
M  V30 582 C 58.8919 1.51772 -1.34511 0
M  V30 583 C 59.2249 1.94089 0.0656691 0
M  V30 584 O 58.4999 1.65221 1.02626 0
M  V30 585 C 58.7829 2.77226 -2.29821 0
M  V30 586 C 58.6359 2.41065 -3.79747 0
M  V30 587 C 59.9549 3.79236 -2.23312 0
M  V30 588 H 57.0739 0.550578 -0.489931 0
M  V30 589 H 59.7159 0.866607 -1.69086 0
M  V30 590 H 57.8659 3.32784 -2.00467 0
M  V30 591 H 59.5379 1.91303 -4.19763 0
M  V30 592 H 57.7809 1.7356 -3.97567 0
M  V30 593 H 58.4519 3.3081 -4.41892 0
M  V30 594 H 60.9279 3.3321 -2.49219 0
M  V30 595 H 59.8039 4.64714 -2.92116 0
M  V30 596 H 60.0649 4.24615 -1.23102 0
M  V30 597 N 59.124 1.23083 0.984299 0
M  V30 598 C 60.373 1.05466 1.71929 0
M  V30 599 C 60.686 -0.409211 1.91272 0
M  V30 600 O 61.892 -0.705226 2.62181 0
M  V30 601 C 60.348 1.83874 3.09384 0
M  V30 602 C 59.956 3.34566 2.97943 0
M  V30 603 C 61.7 1.74734 3.8687 0
M  V30 604 C 59.607 4.05381 4.30605 0
M  V30 605 H 58.537 0.391039 0.644674 0
M  V30 606 H 61.188 1.47013 1.09815 0
M  V30 607 H 59.57 1.35131 3.72231 0
M  V30 608 H 60.744 3.90767 2.44209 0
M  V30 609 H 59.059 3.44476 2.33934 0
M  V30 610 H 61.656 2.24957 4.85076 0
M  V30 611 H 61.999 0.709372 4.10212 0
M  V30 612 H 62.532 2.21067 3.30717 0
M  V30 613 H 59.271 5.09467 4.1246 0
M  V30 614 H 58.791 3.53967 4.84218 0
M  V30 615 H 60.47 4.11458 4.99311 0
M  V30 616 N 60.6021 -1.18246 1.0419 0
M  V30 617 C 61.8481 -1.88536 0.747122 0
M  V30 618 C 62.1811 -1.80223 -0.723409 0
M  V30 619 O 61.4561 -1.20337 -1.52804 0
M  V30 620 C 61.7391 -3.38968 1.21544 0
M  V30 621 C 61.5921 -3.56084 2.74816 0
M  V30 622 C 62.9111 -4.32648 0.806482 0
M  V30 623 H 60.0301 -0.684619 0.272883 0
M  V30 624 H 62.6721 -1.39113 1.29413 0
M  V30 625 H 60.8221 -3.8119 0.750081 0
M  V30 626 H 62.4941 -3.22946 3.29399 0
M  V30 627 H 60.7371 -2.98699 3.14582 0
M  V30 628 H 61.4081 -4.61639 3.02644 0
M  V30 629 H 63.8841 -3.98211 1.20695 0
M  V30 630 H 62.7601 -5.36462 1.1619 0
M  V30 631 H 63.0211 -4.41146 -0.29029 0
M  V30 632 N 62.0802 -0.821533 -1.34494 0
M  V30 633 C 63.4912 -0.467956 -1.8074 0
M  V30 634 C 63.8422 1.01151 -1.68116 0
M  V30 635 O 62.9672 1.78707 -1.22036 0
M  V30 636 C 63.5622 -0.842627 -3.28154 0
M  V30 637 C 62.1212 -0.541439 -3.72485 0
M  V30 638 C 61.2682 -1.06028 -2.56229 0
M  V30 639 H 64.2192 -1.01183 -1.22261 0
M  V30 640 H 64.2402 -0.145876 -3.8022 0
M  V30 641 H 63.7522 -1.91945 -3.37311 0
M  V30 642 H 61.8532 0.526034 -3.68868 0
M  V30 643 H 61.9662 -1.08453 -4.66663 0
M  V30 644 H 60.3302 -0.481892 -2.501 0
M  V30 645 H 61.1132 -2.14352 -2.68157 0
M  V30 646 N 63.5583 1.46682 -0.576371 0
M  V30 647 C 64.4903 2.28341 0.198231 0
M  V30 648 C 65.5033 1.38141 0.861453 0
M  V30 649 O 66.6923 1.62797 0.732082 0
M  V30 650 C 63.7923 3.12986 1.29972 0
M  V30 651 C 62.9653 4.31271 0.729639 0
M  V30 652 C 62.0243 4.97363 1.71803 0
M  V30 653 O 61.0503 5.55156 1.25658 0
M  V30 654 N 62.2523 4.93796 3.05198 0
M  V30 655 H 65.0173 2.9546 -0.502324 0
M  V30 656 H 62.5783 1.56525 -0.413715 0
M  V30 657 H 64.5703 3.54066 1.96008 0
M  V30 658 H 63.1403 2.47984 1.90323 0
M  V30 659 H 62.3603 3.94052 -0.108012 0
M  V30 660 H 63.6483 5.07739 0.328438 0
M  V30 661 H 63.0463 4.48077 3.45317 0
M  V30 662 H 61.6033 5.38837 3.6674 0
M  V30 663 N 65.0364 0.313813 1.54444 0
M  V30 664 C 65.9844 -0.572171 2.25453 0
M  V30 665 C 66.9784 -1.12657 1.2651 0
M  V30 666 O 68.1844 -1.07573 1.44319 0
M  V30 667 H 64.5594 -0.203146 0.724041 0
M  V30 668 H 66.5304 0.0491145 2.9836 0
M  V30 669 C 65.2794 -1.72626 3.0182 0
M  V30 670 H 64.6024 -1.30891 3.77767 0
M  V30 671 H 66.0424 -2.32199 3.54767 0
M  V30 672 C 64.5014 -2.63806 2.09542 0
M  V30 673 O 65.0314 -3.65256 1.67185 0
M  V30 674 N 63.2374 -2.31824 1.75232 0
M  V30 675 H 62.7844 -1.49368 2.09873 0
M  V30 676 H 62.7424 -2.93095 1.13767 0
M  V30 677 N 66.5145 -1.57545 0.0417849 0
M  V30 678 C 67.4465 -2.07904 -0.964799 0
M  V30 679 C 68.4595 -1.00497 -1.28079 0
M  V30 680 O 69.6485 -1.28087 -1.24322 0
M  V30 681 C 66.7485 -2.49928 -2.28887 0
M  V30 682 C 65.9215 -3.80562 -2.15619 0
M  V30 683 C 64.9805 -4.08999 -3.31069 0
M  V30 684 O 64.0065 -4.79061 -3.0739 0
M  V30 685 N 65.2085 -3.6017 -4.55256 0
M  V30 686 H 67.9735 -2.94886 -0.535029 0
M  V30 687 H 65.5345 -1.61252 -0.144681 0
M  V30 688 H 67.5265 -2.66034 -3.04972 0
M  V30 689 H 66.0965 -1.68245 -2.63463 0
M  V30 690 H 65.3165 -3.74129 -1.24183 0
M  V30 691 H 66.6045 -4.66126 -2.03971 0
M  V30 692 H 66.0025 -3.03512 -4.77386 0
M  V30 693 H 64.5595 -3.81532 -5.28466 0
M  V30 694 N 67.9926 0.231505 -1.5589 0
M  V30 695 C 69.2176 0.978689 -1.82856 0
M  V30 696 C 69.6426 1.77559 -0.620846 0
M  V30 697 O 69.0006 1.76119 0.430305 0
M  V30 698 C 69.0486 1.87997 -3.07716 0
M  V30 699 O 68.1526 2.97393 -2.85712 0
M  V30 700 H 67.4936 0.277663 -0.603158 0
M  V30 701 H 70.0236 0.24783 -2.03093 0
M  V30 702 H 70.0336 2.2917 -3.37558 0
M  V30 703 H 68.7086 1.29417 -3.95252 0
M  V30 704 H 67.2856 2.60238 -2.67078 0
M  V30 705 N 69.4707 1.49531 0.497807 0
M  V30 706 C 70.6987 1.62893 1.27567 0
M  V30 707 C 71.1137 0.301585 1.86376 0
M  V30 708 O 70.4707 -0.713335 1.67982 0
M  V30 709 C 70.5217 2.70013 2.40364 0
M  V30 710 O 70.2427 3.976 1.83972 0
M  V30 711 C 71.7437 2.94109 3.31685 0
M  V30 712 H 68.9637 0.548298 0.386794 0
M  V30 713 H 71.5077 1.95584 0.597245 0
M  V30 714 H 69.6627 2.40092 3.04031 0
M  V30 715 H 70.0767 4.56631 2.58047 0
M  V30 716 H 71.5507 3.72788 4.07104 0
M  V30 717 H 72.0277 2.04147 3.88871 0
M  V30 718 H 72.6337 3.2546 2.73781 0
M  V30 719 N 70.9488 -0.749086 1.3866 0
M  V30 720 C 71.8588 -1.89358 1.38494 0
M  V30 721 C 72.8748 -1.71708 0.281476 0
M  V30 722 O 74.0508 -1.94554 0.520643 0
M  V30 723 C 71.1158 -3.24782 1.21316 0
M  V30 724 C 70.1768 -3.54926 2.41508 0
M  V30 725 C 69.4098 -4.83888 2.2514 0
M  V30 726 O 69.6328 -5.56592 1.24746 0
M  V30 727 O 68.5668 -5.13612 3.13826 0
M  V30 728 H 72.3928 -1.92452 2.34938 0
M  V30 729 H 69.9778 -0.894981 1.19626 0
M  V30 730 H 71.8598 -4.05739 1.13814 0
M  V30 731 H 70.5348 -3.2249 0.279592 0
M  V30 732 H 69.4418 -2.74112 2.54585 0
M  V30 733 H 70.7748 -3.61983 3.3351 0
M  V30 734 N 72.4269 -1.23603 -0.977757 0
M  V30 735 C 73.6759 -1.06377 -1.71368 0
M  V30 736 C 73.9889 0.399062 -1.91486 0
M  V30 737 O 75.1949 0.691312 -2.62551 0
M  V30 738 C 73.6509 -1.85512 -3.08404 0
M  V30 739 C 73.2589 -3.36141 -2.96164 0
M  V30 740 C 75.0029 -1.76783 -3.85938 0
M  V30 741 C 72.9099 -4.07659 -4.28449 0
M  V30 742 H 71.8399 -0.394452 -0.642591 0
M  V30 743 H 74.4909 -1.47594 -1.09034 0
M  V30 744 H 72.8729 -1.37103 -3.71509 0
M  V30 745 H 74.0469 -3.92056 -2.42133 0
M  V30 746 H 72.3619 -3.45712 -2.32104 0
M  V30 747 H 74.9589 -2.27526 -4.83876 0
M  V30 748 H 75.3019 -0.731116 -4.0983 0
M  V30 749 H 75.8349 -2.22818 -3.2954 0
M  V30 750 H 72.5739 -5.11648 -4.09752 0
M  V30 751 H 72.0939 -3.5653 -4.82334 0
M  V30 752 H 73.7729 -4.141 -4.97122 0
M  V30 753 N 73.905 1.17692 -1.04816 0
M  V30 754 C 74.852 2.21581 -0.645797 0
M  V30 755 C 75.822 1.62367 0.350159 0
M  V30 756 O 77.007 1.89254 0.242433 0
M  V30 757 C 74.147 3.45092 -0.0227568 0
M  V30 758 C 73.26 4.18613 -1.06709 0
M  V30 759 C 72.395 5.29602 -0.411767 0
M  V30 760 C 71.434 5.94904 -1.44067 0
M  V30 761 N 70.571 6.97414 -0.809781 0
M  V30 762 H 75.411 2.55353 -1.5362 0
M  V30 763 H 72.948 1.25438 -0.768364 0
M  V30 764 H 74.906 4.15679 0.35588 0
M  V30 765 H 73.536 3.11917 0.831122 0
M  V30 766 H 72.588 3.46779 -1.5636 0
M  V30 767 H 73.9 4.63293 -1.84827 0
M  V30 768 H 73.054 6.06696 0.0206623 0
M  V30 769 H 71.793 4.86045 0.401438 0
M  V30 770 H 70.798 5.16544 -1.88316 0
M  V30 771 H 72.023 6.40542 -2.25571 0
M  V30 772 H 69.969 6.55998 -0.0170186 0
M  V30 773 H 69.886 7.40386 -1.52856 0
M  V30 774 H 71.154 7.78463 -0.401999 0
M  V30 775 N 75.3831 0.828654 1.34056 0
M  V30 776 C 76.3161 0.199763 2.27324 0
M  V30 777 C 77.2941 -0.647168 1.49166 0
M  V30 778 O 78.4781 -0.609661 1.78369 0
M  V30 779 C 75.6051 -0.720455 3.30949 0
M  V30 780 C 74.6511 0.0496888 4.26471 0
M  V30 781 S 75.4841 1.40072 5.16856 0
M  V30 782 C 76.6401 0.485527 6.24014 0
M  V30 783 H 76.8731 0.990478 2.80316 0
M  V30 784 H 74.4061 0.624857 1.41191 0
M  V30 785 H 76.3641 -1.24581 3.91139 0
M  V30 786 H 75.0251 -1.48474 2.76793 0
M  V30 787 H 74.2181 -0.650104 4.9979 0
M  V30 788 H 73.8201 0.505779 3.70564 0
M  V30 789 H 76.1121 -0.320672 6.76741 0
M  V30 790 H 77.0551 1.18856 6.98054 0
M  V30 791 H 77.4631 0.0714109 5.64455 0
M  V30 792 N 76.8612 -1.46375 0.584142 0
M  V30 793 C 78.0862 -2.07268 0.0740405 0
M  V30 794 C 78.5112 -1.42979 -1.22223 0
M  V30 795 O 77.8692 -0.514092 -1.73859 0
M  V30 796 C 77.9172 -3.60518 -0.0767769 0
M  V30 797 O 77.0212 -3.96533 -1.13292 0
M  V30 798 H 76.3622 -0.660961 0.0634524 0
M  V30 799 H 78.8922 -1.87991 0.807492 0
M  V30 800 H 78.9022 -4.07021 -0.282489 0
M  V30 801 H 77.5772 -4.06702 0.86986 0
M  V30 802 H 76.1542 -3.61738 -0.905553 0
M  V30 803 N 78.3393 -0.321999 -1.54275 0
M  V30 804 C 79.2693 0.537411 -2.27231 0
M  V30 805 C 80.2503 1.12064 -1.27968 0
M  V30 806 O 81.4353 1.14606 -1.56777 0
M  V30 807 C 78.5653 1.69919 -3.02894 0
M  V30 808 C 77.5193 1.24534 -4.09482 0
M  V30 809 C 76.8453 2.49394 -4.72977 0
M  V30 810 C 78.1453 0.361335 -5.21049 0
M  V30 811 H 79.8393 -0.0711406 -2.99315 0
M  V30 812 H 77.3853 -0.0356555 -1.43956 0
M  V30 813 H 79.3383 2.30668 -3.52662 0
M  V30 814 H 78.0623 2.33431 -2.28424 0
M  V30 815 H 76.7213 0.660782 -3.60596 0
M  V30 816 H 76.3693 3.11265 -3.95124 0
M  V30 817 H 76.0693 2.19718 -5.44975 0
M  V30 818 H 77.5933 3.10908 -5.25517 0
M  V30 819 H 79.0073 0.875072 -5.66582 0
M  V30 820 H 77.4043 0.157428 -5.99893 0
M  V30 821 H 78.4743 -0.60822 -4.8107 0
M  V30 822 N 79.8174 1.5752 -0.0501392 0
M  V30 823 C 80.7674 2.07981 0.934231 0
M  V30 824 C 81.7514 0.984745 1.27246 0
M  V30 825 O 82.9434 1.24809 1.25506 0
M  V30 826 C 80.0724 2.62751 2.20945 0
M  V30 827 C 79.1584 3.79225 1.89865 0
M  V30 828 N 79.5494 4.89036 1.29142 0
M  V30 829 C 77.8474 3.88111 2.19741 0
M  V30 830 C 78.5484 5.70084 1.15669 0
M  V30 831 N 77.5244 5.17659 1.65923 0
M  V30 832 H 81.3264 2.90277 0.460053 0
M  V30 833 H 78.8404 1.61665 0.15434 0
M  V30 834 H 80.8374 2.97205 2.9236 0
M  V30 835 H 79.4974 1.81894 2.6897 0
M  V30 836 H 80.5084 5.08854 0.963756 0
M  V30 837 H 77.1854 3.18194 2.70293 0
M  V30 838 H 78.5754 6.68395 0.685356 0
M  V30 839 N 81.2955 -0.223234 1.56011 0
M  V30 840 C 82.5205 -0.968978 1.83373 0
M  V30 841 C 82.9455 -1.77227 0.630254 0
M  V30 842 O 82.3035 -1.76345 -0.420959 0
M  V30 843 C 82.3515 -1.86363 3.08709 0
M  V30 844 O 81.4555 -2.95873 2.87285 0
M  V30 845 H 80.7965 -0.274461 0.604622 0
M  V30 846 H 83.3265 -0.237056 2.03222 0
M  V30 847 H 83.3365 -2.27376 3.38768 0
M  V30 848 H 82.0115 -1.27319 3.95933 0
M  V30 849 H 80.5885 -2.58818 2.68454 0
M  V30 850 N 82.7736 -1.49793 -0.48987 0
M  V30 851 C 84.0216 -1.59525 -1.24081 0
M  V30 852 C 84.3426 -0.288953 -1.92847 0
M  V30 853 O 83.6126 0.692436 -1.83254 0
M  V30 854 H 82.1926 -0.587796 -0.460983 0
M  V30 855 H 84.8546 -1.86477 -0.566778 0
M  V30 856 H 83.9506 -2.39696 -1.99881 0
M  V30 857 N 84.2517 0.741722 -1.39055 0
M  V30 858 C 85.1817 1.869 -1.39966 0
M  V30 859 C 86.1627 1.6804 -0.26392 0
M  V30 860 O 87.3477 1.88458 -0.468755 0
M  V30 861 C 84.4777 3.24572 -1.23574 0
M  V30 862 C 83.4317 3.58056 -2.34477 0
M  V30 863 C 82.7577 4.94593 -2.0318 0
M  V30 864 C 84.0577 3.61716 -3.76774 0
M  V30 865 H 85.7517 1.86395 -2.34302 0
M  V30 866 H 83.2977 0.895361 -1.1278 0
M  V30 867 H 85.2507 4.031 -1.22834 0
M  V30 868 H 83.9747 3.25587 -0.257045 0
M  V30 869 H 82.6337 2.81854 -2.34423 0
M  V30 870 H 82.2817 4.92181 -1.03765 0
M  V30 871 H 81.9817 5.17964 -2.77465 0
M  V30 872 H 83.5057 5.75486 -2.04079 0
M  V30 873 H 84.9197 4.30335 -3.78794 0
M  V30 874 H 83.3167 3.96603 -4.50362 0
M  V30 875 H 84.3867 2.61672 -4.08235 0
M  V30 876 N 85.7298 1.2412 0.971189 0
M  V30 877 C 86.9758 1.09048 1.71698 0
M  V30 878 C 87.3308 -0.367442 1.88859 0
M  V30 879 O 86.6238 -1.26792 1.43646 0
M  V30 880 C 86.8178 1.75983 3.11071 0
M  V30 881 C 86.6468 3.28133 3.07504 0
M  V30 882 C 85.4168 3.97331 3.1218 0
M  V30 883 C 87.6148 4.24773 2.89952 0
M  V30 884 N 85.5968 5.3639 2.98596 0
M  V30 885 C 86.9678 5.50806 2.84627 0
M  V30 886 C 89.0228 4.15392 2.74506 0
M  V30 887 C 87.7258 6.68533 2.65437 0
M  V30 888 C 89.7518 5.32793 2.56682 0
M  V30 889 C 89.1138 6.57756 2.52063 0
M  V30 890 H 85.2128 0.453632 0.636979 0
M  V30 891 H 87.7968 1.56983 1.15171 0
M  V30 892 H 85.9678 1.30566 3.65796 0
M  V30 893 H 87.6998 1.53803 3.74335 0
M  V30 894 H 84.4548 3.48473 3.20724 0
M  V30 895 H 84.8788 6.09321 2.95054 0
M  V30 896 H 89.5208 3.19543 2.76861 0
M  V30 897 H 87.2388 7.64509 2.61825 0
M  V30 898 H 90.8248 5.27383 2.4568 0
M  V30 899 H 89.7048 7.4707 2.38446 0
M  V30 900 N 87.2079 -1.17134 1.05439 0
M  V30 901 C 88.6239 -1.39454 0.776201 0
M  V30 902 C 88.8239 -1.91454 -0.628307 0
M  V30 903 O 87.8799 -2.10777 -1.39031 0
M  V30 904 C 89.1929 -2.38305 1.83388 0
M  V30 905 C 90.7409 -2.52006 1.85639 0
M  V30 906 C 91.2159 -3.54133 2.90437 0
M  V30 907 N 92.7069 -3.61653 2.89415 0
M  V30 908 C 93.4419 -4.4044 3.67152 0
M  V30 909 N 92.9379 -5.22721 4.54681 0
M  V30 910 N 94.7309 -4.35337 3.55581 0
M  V30 911 H 86.8819 -0.817134 1.96053 0
M  V30 912 H 89.1449 -0.421626 0.849079 0
M  V30 913 H 88.8509 -2.07173 2.84204 0
M  V30 914 H 88.7249 -3.37841 1.67761 0
M  V30 915 H 91.1119 -2.82447 0.85486 0
M  V30 916 H 91.1929 -1.52537 2.05344 0
M  V30 917 H 90.8369 -3.24431 3.90777 0
M  V30 918 H 90.7669 -4.53313 2.67983 0
M  V30 919 H 93.2579 -3.02909 2.25952 0
M  V30 920 H 93.5709 -5.80027 5.10674 0
M  V30 921 H 91.9159 -5.22093 4.58741 0
M  V30 922 H 95.1069 -3.70112 2.86592 0
M  V30 923 H 95.2799 -4.96494 4.1641 0
M  V30 924 N 88.686 -0.835752 -1.33615 0
M  V30 925 C 89.932 -0.430596 -1.98176 0
M  V30 926 C 90.265 1.00684 -1.66061 0
M  V30 927 O 89.54 1.70339 -0.938877 0
M  V30 928 C 89.823 -0.648065 -3.5422 0
M  V30 929 C 89.676 -2.13255 -3.96033 0
M  V30 930 C 90.995 -0.0922113 -4.40003 0
M  V30 931 H 88.114 -0.157924 -0.719881 0
M  V30 932 H 90.756 -1.05069 -1.58305 0
M  V30 933 H 88.906 -0.120237 -3.88314 0
M  V30 934 H 90.578 -2.725 -3.72211 0
M  V30 935 H 88.821 -2.61823 -3.45878 0
M  V30 936 H 89.492 -2.23547 -5.04708 0
M  V30 937 H 91.968 -0.543343 -4.12537 0
M  V30 938 H 90.844 -0.274083 -5.48215 0
M  V30 939 H 91.105 1.00378 -4.30554 0
M  V30 940 N 90.1641 1.46063 -0.591896 0
M  V30 941 C 91.4041 2.04228 -0.0838014 0
M  V30 942 C 91.7681 1.45231 1.25587 0
M  V30 943 O 92.9691 1.94653 1.85375 0
M  V30 944 C 91.2401 3.57389 -0.0286282 0
M  V30 945 S 92.7991 4.3678 0.420557 0
M  V30 946 H 89.6171 0.709762 -0.0419319 0
M  V30 947 H 92.2191 1.78983 -0.786465 0
M  V30 948 H 90.9231 3.97843 -1.00743 0
M  V30 949 H 90.4541 3.87185 0.69652 0
M  V30 950 H 92.4691 4.67131 1.67341 0
M  V30 951 N 91.6422 0.330177 1.54103 0
M  V30 952 C 92.8892 -0.270405 2.00686 0
M  V30 953 C 93.2172 -1.51621 1.21825 0
M  V30 954 O 92.4722 -1.93536 0.29025 0
M  V30 955 C 92.7712 -0.643134 3.51566 0
M  V30 956 C 92.4372 0.504251 4.48072 0
M  V30 957 C 91.0992 0.819163 4.74176 0
M  V30 958 C 93.4512 1.27465 5.05373 0
M  V30 959 C 90.7792 1.90708 5.5484 0
M  V30 960 C 93.1312 2.35271 5.87223 0
M  V30 961 C 91.7952 2.67336 6.11627 0
M  V30 962 H 91.0652 -0.0989482 0.734364 0
M  V30 963 H 93.7122 0.455324 1.86008 0
M  V30 964 H 92.0172 -1.44938 3.64006 0
M  V30 965 H 93.7142 -1.11949 3.85056 0
M  V30 966 H 90.3042 0.248733 4.27878 0
M  V30 967 H 94.4882 1.04462 4.85182 0
M  V30 968 H 89.7442 2.15991 5.71977 0
M  V30 969 H 93.9182 2.95405 6.30641 0
M  V30 970 H 91.5452 3.51763 6.73919 0
M  V30 971 N 93.1203 -1.57491 0.0584922 0
M  V30 972 C 94.0503 -2.14988 -0.911178 0
M  V30 973 C 95.0313 -1.07343 -1.31952 0
M  V30 974 O 96.2163 -1.35318 -1.39294 0
M  V30 975 C 93.3463 -2.70078 -2.18347 0
M  V30 976 C 92.3003 -3.82771 -1.91495 0
M  V30 977 C 91.6263 -4.24408 -3.25241 0
M  V30 978 C 92.9263 -5.07592 -1.23075 0
M  V30 979 H 94.6203 -2.96263 -0.432246 0
M  V30 980 H 92.1663 -1.42512 -0.206469 0
M  V30 981 H 94.1193 -3.08943 -2.86587 0
M  V30 982 H 92.8433 -1.86005 -2.68458 0
M  V30 983 H 91.5023 -3.44389 -1.25664 0
M  V30 984 H 91.1503 -3.37275 -3.73168 0
M  V30 985 H 90.8503 -5.00366 -3.08071 0
M  V30 986 H 92.3743 -4.65879 -3.94701 0
M  V30 987 H 93.7883 -5.43857 -1.81362 0
M  V30 988 H 92.1853 -5.88741 -1.16207 0
M  V30 989 H 93.2553 -4.84454 -0.207847 0
M  V30 990 N 94.5984 0.214957 -1.56127 0
M  V30 991 C 95.5614 1.24997 -1.92116 0
M  V30 992 C 96.5614 1.39467 -0.800344 0
M  V30 993 O 97.7514 1.37619 -1.06802 0
M  V30 994 C 94.8834 2.62271 -2.17777 0
M  V30 995 H 96.0764 0.942875 -2.84693 0
M  V30 996 H 93.6294 0.455654 -1.49511 0
M  V30 997 H 94.3644 2.98068 -1.27773 0
M  V30 998 H 94.1494 2.53143 -2.99434 0
M  V30 999 H 95.6394 3.36946 -2.46693 0
M  V30 1000 N 96.0765 1.50051 0.48192 0
M  V30 1001 C 97.3245 1.60181 1.23234 0
M  V30 1002 C 97.6455 0.299176 1.92691 0
M  V30 1003 O 96.9155 -0.682708 1.83619 0
M  V30 1004 H 95.4955 0.590232 0.457859 0
M  V30 1005 H 98.1575 1.86775 0.556881 0
M  V30 1006 H 97.2535 2.40753 1.98607 0
M  V30 1007 N 97.5546 -0.734337 1.39446 0
M  V30 1008 C 98.4646 -1.87879 1.40495 0
M  V30 1009 C 99.4806 -1.714 0.299672 0
M  V30 1010 O 100.657 -1.93991 0.541249 0
M  V30 1011 C 97.7216 -3.23477 1.24754 0
M  V30 1012 C 96.7826 -3.52344 2.45259 0
M  V30 1013 C 96.0156 -4.81473 2.30259 0
M  V30 1014 O 96.2386 -5.55237 1.30643 0
M  V30 1015 O 95.1726 -5.10254 3.19256 0
M  V30 1016 H 98.9986 -1.89949 2.36966 0
M  V30 1017 H 96.5836 -0.882243 1.20569 0
M  V30 1018 H 98.4656 -4.04509 1.18111 0
M  V30 1019 H 97.1406 -3.22176 0.313781 0
M  V30 1020 H 96.0476 -2.71396 2.57478 0
M  V30 1021 H 97.3806 -3.58426 3.37331 0
M  V30 1022 N 99.0327 -1.24633 -0.964593 0
M  V30 1023 C 99.9427 -1.05859 -2.09359 0
M  V30 1024 C 100.959 0.00148855 -1.74 0
M  V30 1025 O 102.135 -0.197346 -2.00431 0
M  V30 1026 C 99.1997 -0.668879 -3.40187 0
M  V30 1027 C 98.2607 -1.80578 -3.89474 0
M  V30 1028 C 97.4937 -1.43457 -5.14058 0
M  V30 1029 O 97.7167 -0.325775 -5.69469 0
M  V30 1030 O 96.6507 -2.2613 -5.57807 0
M  V30 1031 H 100.477 -2.00516 -2.28094 0
M  V30 1032 H 98.0617 -1.03481 -1.0776 0
M  V30 1033 H 99.9437 -0.463211 -4.18846 0
M  V30 1034 H 98.6187 0.248536 -3.22744 0
M  V30 1035 H 97.5257 -2.06623 -3.11862 0
M  V30 1036 H 98.8587 -2.70208 -4.11398 0
M  V30 1037 N 100.511 1.16574 -1.06058 0
M  V30 1038 C 101.927 1.3904 -0.783585 0
M  V30 1039 C 102.127 1.91784 0.618145 0
M  V30 1040 O 101.183 2.11511 1.37911 0
M  V30 1041 C 102.496 2.37329 -1.84649 0
M  V30 1042 C 104.044 2.51018 -1.86973 0
M  V30 1043 C 104.519 3.52588 -2.92311 0
M  V30 1044 N 106.01 3.60113 -2.91329 0
M  V30 1045 C 106.745 4.38486 -3.69482 0
M  V30 1046 N 106.241 5.20302 -4.57447 0
M  V30 1047 N 108.034 4.33446 -3.57885 0
M  V30 1048 H 100.185 0.806725 -1.96483 0
M  V30 1049 H 102.448 0.417117 -0.851303 0
M  V30 1050 H 102.154 2.05663 -2.85299 0
M  V30 1051 H 102.028 3.36946 -1.6955 0
M  V30 1052 H 104.415 2.81989 -0.869827 0
M  V30 1053 H 104.496 1.51445 -2.0615 0
M  V30 1054 H 104.14 3.22354 -3.92492 0
M  V30 1055 H 104.07 4.51886 -2.70383 0
M  V30 1056 H 106.561 3.01707 -2.27555 0
M  V30 1057 H 106.874 5.77311 -5.13743 0
M  V30 1058 H 105.219 5.19653 -4.61503 0
M  V30 1059 H 108.41 3.68586 -2.88551 0
M  V30 1060 H 108.583 4.94279 -4.19037 0
M  V30 1061 N 101.989 0.842826 1.3317 0
M  V30 1062 C 103.237 0.439577 1.97262 0
M  V30 1063 C 103.558 -1.00548 1.67078 0
M  V30 1064 O 102.828 -1.70098 0.971779 0
M  V30 1065 H 101.408 0.159558 0.72976 0
M  V30 1066 H 104.07 1.07665 1.62463 0
M  V30 1067 H 103.166 0.574886 3.0676 0
M  V30 1068 N 103.467 -1.45747 0.599634 0
M  V30 1069 C 104.883 -1.57424 0.26264 0
M  V30 1070 C 105.083 -1.59222 -1.23493 0
M  V30 1071 O 104.139 -1.51825 -2.01756 0
M  V30 1072 C 105.452 -2.86061 0.926795 0
M  V30 1073 C 107 -2.99722 0.901967 0
M  V30 1074 C 107.475 -4.31119 1.54598 0
M  V30 1075 N 108.966 -4.37858 1.5111 0
M  V30 1076 C 109.701 -5.3818 1.97863 0
M  V30 1077 N 109.197 -6.45083 2.52666 0
M  V30 1078 N 110.99 -5.29487 1.88679 0
M  V30 1079 H 103.141 -1.42823 1.57211 0
M  V30 1080 H 105.404 -0.68235 0.658105 0
M  V30 1081 H 105.11 -2.90605 1.98095 0
M  V30 1082 H 104.984 -3.74563 0.445238 0
M  V30 1083 H 107.371 -2.9475 -0.143617 0
M  V30 1084 H 107.452 -2.12652 1.42171 0
M  V30 1085 H 107.096 -4.36849 2.59085 0
M  V30 1086 H 107.026 -5.16992 1.00132 0
M  V30 1087 H 109.517 -3.61209 1.11068 0
M  V30 1088 H 109.83 -7.17869 2.86155 0
M  V30 1089 H 108.175 -6.45856 2.56701 0
M  V30 1090 H 111.366 -4.44877 1.4561 0
M  V30 1091 H 111.539 -6.07524 2.25429 0
M  V30 1092 N 104.945 -0.338344 -1.53925 0
M  V30 1093 C 106.185 0.260168 -2.02737 0
M  V30 1094 C 106.549 1.48181 -1.22092 0
M  V30 1095 O 107.75 2.15416 -1.60777 0
M  V30 1096 C 106.021 0.571627 -3.52799 0
M  V30 1097 S 107.58 1.14769 -4.23525 0
M  V30 1098 H 104.398 0.077791 -0.706732 0
M  V30 1099 H 107 -0.474899 -1.89644 0
M  V30 1100 H 105.704 -0.325392 -4.09108 0
M  V30 1101 H 105.235 1.3365 -3.70002 0
M  V30 1102 H 107.25 2.43372 -4.32417 0
M  V30 1103 N 106.423 1.57458 -0.0668435 0
M  V30 1104 C 107.67 1.93301 0.603406 0
M  V30 1105 C 107.998 0.946486 1.69917 0
M  V30 1106 O 107.253 -0.0387021 1.95662 0
M  V30 1107 C 107.552 3.35784 1.22409 0
M  V30 1108 C 107.218 4.50179 0.254955 0
M  V30 1109 C 105.88 4.81199 -0.0116746 0
M  V30 1110 C 108.232 5.19598 -0.408338 0
M  V30 1111 C 105.56 5.78978 -0.94877 0
M  V30 1112 C 107.912 6.18381 -1.33372 0
M  V30 1113 C 106.576 6.47821 -1.60887 0
M  V30 1114 H 105.846 0.707338 0.220802 0
M  V30 1115 H 108.493 1.91012 -0.136665 0
M  V30 1116 H 106.798 3.34515 2.03978 0
M  V30 1117 H 108.495 3.60804 1.74989 0
M  V30 1118 H 105.085 4.25983 0.472954 0
M  V30 1119 H 109.269 4.95832 -0.215456 0
M  V30 1120 H 104.525 6.00115 -1.16925 0
M  V30 1121 H 108.699 6.71277 -1.85367 0
M  V30 1122 H 106.326 7.23399 -2.33661 0
M  V30 1123 N 107.901 -0.206675 1.56239 0
M  V30 1124 C 109.129 -0.945345 1.8404 0
M  V30 1125 C 109.544 -1.77336 0.647885 0
M  V30 1126 O 108.901 -1.78425 -0.383511 0
M  V30 1127 C 108.952 -1.8509 3.10522 0
M  V30 1128 O 108.673 -1.05634 4.25174 0
M  V30 1129 C 110.174 -2.70222 3.51418 0
M  V30 1130 H 107.394 -0.276372 0.61144 0
M  V30 1131 H 109.938 -0.217417 2.03341 0
M  V30 1132 H 108.093 -2.53259 2.93153 0
M  V30 1133 H 108.507 -1.67238 4.97124 0
M  V30 1134 H 109.981 -3.29438 4.42916 0
M  V30 1135 H 110.458 -3.43358 2.73864 0
M  V30 1136 H 111.064 -2.07443 3.71278 0
M  V30 1137 N 109.379 -1.50304 -0.473955 0
M  V30 1138 C 110.628 -1.60392 -1.22301 0
M  V30 1139 C 110.941 -0.308411 -1.93153 0
M  V30 1140 O 112.147 -0.288156 -2.69966 0
M  V30 1141 C 110.603 -2.83109 -2.2221 0
M  V30 1142 C 110.211 -4.19524 -1.57173 0
M  V30 1143 C 111.955 -3.0254 -2.97775 0
M  V30 1144 C 109.862 -5.33431 -2.55353 0
M  V30 1145 H 108.792 -0.597286 -0.460179 0
M  V30 1146 H 111.443 -1.76731 -0.493803 0
M  V30 1147 H 109.825 -2.60322 -2.9841 0
M  V30 1148 H 110.999 -4.52554 -0.867824 0
M  V30 1149 H 109.314 -4.05674 -0.939002 0
M  V30 1150 H 111.911 -3.84811 -3.71248 0
M  V30 1151 H 112.254 -2.14154 -3.56992 0
M  V30 1152 H 112.787 -3.25494 -2.28688 0
M  V30 1153 H 109.526 -6.23962 -2.00878 0
M  V30 1154 H 109.046 -5.04823 -3.23904 0
M  V30 1155 H 110.725 -5.63887 -3.17239 0
M  V30 1156 N 110.857 0.726932 -1.39834 0
M  V30 1157 C 111.767 1.87131 -1.41489 0
M  V30 1158 C 112.783 1.71239 -0.308757 0
M  V30 1159 O 113.959 1.93701 -0.551529 0
M  V30 1160 C 111.024 3.22811 -1.26468 0
M  V30 1161 C 110.085 3.51039 -2.47124 0
M  V30 1162 C 109.318 4.80245 -2.3281 0
M  V30 1163 O 109.541 5.54537 -1.33585 0
M  V30 1164 O 108.475 5.08554 -3.21957 0
M  V30 1165 H 112.301 1.8869 -2.3797 0
M  V30 1166 H 109.886 0.875837 -1.21035 0
M  V30 1167 H 111.768 4.03877 -1.20255 0
M  V30 1168 H 110.443 3.22005 -0.330862 0
M  V30 1169 H 109.35 2.70027 -2.58914 0
M  V30 1170 H 110.683 3.56632 -3.39227 0
M  V30 1171 N 112.336 1.25143 0.95797 0
M  V30 1172 C 113.566 1.12261 1.73439 0
M  V30 1173 C 113.974 -0.326715 1.86358 0
M  V30 1174 O 113.317 -1.2367 1.35836 0
M  V30 1175 C 113.379 1.69966 3.16784 0
M  V30 1176 C 113.043 3.18936 3.27305 0
M  V30 1177 C 114.04 4.15968 3.11877 0
M  V30 1178 C 111.725 3.59083 3.51234 0
M  V30 1179 C 113.719 5.51126 3.20217 0
M  V30 1180 C 111.406 4.9438 3.5921 0
M  V30 1181 C 112.404 5.90211 3.43716 0
M  V30 1182 O 112.092 7.23046 3.51368 0
M  V30 1183 H 111.824 0.392476 0.550399 0
M  V30 1184 H 114.378 1.65927 1.21068 0
M  V30 1185 H 112.608 1.10744 3.70503 0
M  V30 1186 H 114.297 1.52232 3.76272 0
M  V30 1187 H 115.063 3.86292 2.93264 0
M  V30 1188 H 110.942 2.84989 3.62356 0
M  V30 1189 H 114.486 6.25905 3.0804 0
M  V30 1190 H 110.383 5.23723 3.77339 0
M  V30 1191 H 111.151 7.31097 3.6802 0
M  V30 1192 N 113.814 -1.1601 1.06675 0
M  V30 1193 C 115.06 -1.86909 0.786945 0
M  V30 1194 C 115.393 -1.81717 -0.685018 0
M  V30 1195 O 114.668 -1.23551 -1.50218 0
M  V30 1196 C 114.951 -3.36313 1.28707 0
M  V30 1197 C 114.804 -3.50175 2.82308 0
M  V30 1198 C 116.123 -4.3084 0.898071 0
M  V30 1199 H 113.242 -0.678677 0.287343 0
M  V30 1200 H 115.884 -1.36336 1.32334 0
M  V30 1201 H 114.034 -3.79513 0.830768 0
M  V30 1202 H 115.706 -3.15886 3.36175 0
M  V30 1203 H 113.949 -2.91959 3.20847 0
M  V30 1204 H 114.62 -4.55116 3.12368 0
M  V30 1205 H 117.096 -3.95561 1.29114 0
M  V30 1206 H 115.972 -5.33876 1.27543 0
M  V30 1207 H 116.233 -4.41662 -0.196651 0
M  V30 1208 N 115.292 -0.849877 -1.32721 0
M  V30 1209 C 116.225 -0.235903 -2.26977 0
M  V30 1210 C 117.203 0.623355 -1.50177 0
M  V30 1211 O 118.387 0.581207 -1.79316 0
M  V30 1212 C 115.514 0.667712 -3.32053 0
M  V30 1213 C 114.56 -0.11753 -4.26338 0
M  V30 1214 S 115.393 -1.48277 -5.14562 0
M  V30 1215 C 116.549 -0.584741 -6.23163 0
M  V30 1216 H 116.782 -1.03495 -2.78704 0
M  V30 1217 H 114.315 -0.64724 -1.40179 0
M  V30 1218 H 116.273 1.18343 -3.93072 0
M  V30 1219 H 114.934 1.44052 -2.7912 0
M  V30 1220 H 114.127 0.57051 -5.00761 0
M  V30 1221 H 113.729 -0.564668 -3.69713 0
M  V30 1222 H 116.021 0.212968 -6.77165 0
M  V30 1223 H 116.964 -1.29947 -6.96074 0
M  V30 1224 H 117.372 -0.161202 -5.6427 0
M  V30 1225 N 116.77 1.45427 -0.607355 0
M  V30 1226 C 118.181 1.85756 -0.187535 0
M  V30 1227 C 118.532 1.5077 1.25551 0
M  V30 1228 O 117.657 0.93427 1.95193 0
M  V30 1229 C 118.252 3.37154 -0.333572 0
M  V30 1230 C 116.811 3.76387 0.0315542 0
M  V30 1231 C 115.958 2.69377 -0.658117 0
M  V30 1232 H 118.909 1.36231 -0.81405 0
M  V30 1233 H 118.93 3.78014 0.43428 0
M  V30 1234 H 118.442 3.62586 -1.38393 0
M  V30 1235 H 116.543 3.56571 1.0811 0
M  V30 1236 H 116.656 4.77731 -0.361935 0
M  V30 1237 H 115.02 2.5452 -0.0957873 0
M  V30 1238 H 115.803 2.97646 -1.7106 0
M  V30 1239 N 118.248 0.346503 1.53744 0
M  V30 1240 C 119.181 -0.552023 2.21423 0
M  V30 1241 C 120.159 -1.09798 1.19929 0
M  V30 1242 O 121.343 -1.1577 1.4876 0
M  V30 1243 C 118.47 -1.75972 2.89398 0
M  V30 1244 C 117.516 -1.34295 4.04805 0
M  V30 1245 S 118.349 -0.360263 5.34287 0
M  V30 1246 C 119.505 -1.57473 6.05767 0
M  V30 1247 H 119.738 0.0228119 2.97291 0
M  V30 1248 H 117.271 0.130579 1.53847 0
M  V30 1249 H 119.229 -2.45256 3.2918 0
M  V30 1250 H 117.89 -2.30578 2.1329 0
M  V30 1251 H 117.083 -2.24349 4.51313 0
M  V30 1252 H 116.685 -0.729555 3.66815 0
M  V30 1253 H 118.977 -2.50875 6.29339 0
M  V30 1254 H 119.92 -1.15138 6.98676 0
M  V30 1255 H 120.328 -1.77212 5.35963 0
M  V30 1256 N 119.726 -1.57421 0.075193 0
M  V30 1257 C 120.674 -2.14124 -0.908508 0
M  V30 1258 C 121.668 -1.07898 -1.30592 0
M  V30 1259 O 122.874 -1.26273 -1.28277 0
M  V30 1260 H 119.249 -0.684707 -0.310935 0
M  V30 1261 H 121.22 -2.95634 -0.405374 0
M  V30 1262 C 119.969 -2.72044 -2.16535 0
M  V30 1263 H 119.292 -3.53456 -1.86839 0
M  V30 1264 H 120.732 -3.15311 -2.83469 0
M  V30 1265 C 119.191 -1.66968 -2.92615 0
M  V30 1266 O 119.721 -1.0967 -3.86439 0
M  V30 1267 N 117.927 -1.37923 -2.55784 0
M  V30 1268 H 117.474 -1.84706 -1.79559 0
M  V30 1269 H 117.432 -0.67852 -3.06991 0
M  V30 1270 N 121.204 0.198386 -1.56346 0
M  V30 1271 C 122.432 0.935572 -1.84539 0
M  V30 1272 C 122.847 1.76989 -0.657281 0
M  V30 1273 O 122.204 1.78626 0.374043 0
M  V30 1274 C 122.255 1.8344 -3.11499 0
M  V30 1275 O 121.976 1.03377 -4.25728 0
M  V30 1276 C 123.477 2.68355 -3.52846 0
M  V30 1277 H 120.697 0.273126 -0.612897 0
M  V30 1278 H 123.241 0.20663 -2.03453 0
M  V30 1279 H 121.396 2.51701 -2.94492 0
M  V30 1280 H 121.81 1.64599 -4.98003 0
M  V30 1281 H 123.284 3.27085 -4.44657 0
M  V30 1282 H 123.761 3.41901 -2.75681 0
M  V30 1283 H 124.367 2.05471 -3.72373 0
M  V30 1284 N 122.682 1.50554 0.465978 0
M  V30 1285 C 123.614 1.65949 1.58093 0
M  V30 1286 C 124.627 0.540827 1.53554 0
M  V30 1287 O 125.816 0.814187 1.5885 0
M  V30 1288 C 122.916 1.63261 2.96983 0
M  V30 1289 C 122.089 2.91245 3.26336 0
M  V30 1290 C 121.148 2.8113 4.44806 0
M  V30 1291 O 120.174 3.55086 4.44862 0
M  V30 1292 N 121.376 1.95032 5.46756 0
M  V30 1293 H 124.141 2.62122 1.45301 0
M  V30 1294 H 121.702 1.48082 0.65448 0
M  V30 1295 H 123.694 1.54101 3.74212 0
M  V30 1296 H 122.264 0.748032 3.03518 0
M  V30 1297 H 121.484 3.14493 2.37672 0
M  V30 1298 H 122.772 3.76022 3.42761 0
M  V30 1299 H 122.17 1.3427 5.49534 0
M  V30 1300 H 120.727 1.91772 6.2295 0
M  V30 1301 N 124.16 -0.719506 1.40217 0
M  V30 1302 C 125.09 -1.8465 1.42922 0
M  V30 1303 C 126.071 -1.67599 0.29062 0
M  V30 1304 O 127.256 -1.87688 0.498677 0
M  V30 1305 C 124.386 -3.22565 1.28722 0
M  V30 1306 C 123.34 -3.54281 2.40144 0
M  V30 1307 C 122.666 -4.91298 2.11023 0
M  V30 1308 C 123.966 -3.55676 3.82481 0
M  V30 1309 H 125.66 -1.82644 2.37237 0
M  V30 1310 H 123.206 -0.877305 1.1419 0
M  V30 1311 H 125.159 -4.01095 1.29232 0
M  V30 1312 H 123.883 -3.25137 0.308811 0
M  V30 1313 H 122.542 -2.78088 2.38877 0
M  V30 1314 H 122.19 -4.90468 1.11582 0
M  V30 1315 H 121.89 -5.13485 2.8567 0
M  V30 1316 H 123.414 -5.72166 2.13209 0
M  V30 1317 H 124.828 -4.24254 3.85592 0
M  V30 1318 H 123.225 -3.89388 4.56614 0
M  V30 1319 H 124.295 -2.55144 4.12346 0
M  V30 1320 N 125.638 -1.25649 -0.95132 0
M  V30 1321 C 126.866 -1.13343 -1.73092 0
M  V30 1322 C 127.281 0.312434 -1.86197 0
M  V30 1323 O 126.638 1.21465 -1.36207 0
M  V30 1324 C 126.689 -1.78602 -3.14299 0
M  V30 1325 O 126.41 -3.17537 -3.01831 0
M  V30 1326 C 127.911 -1.72119 -4.08522 0
M  V30 1327 H 125.131 -0.395181 -0.542285 0
M  V30 1328 H 127.675 -1.66076 -1.19328 0
M  V30 1329 H 125.83 -1.29832 -3.64996 0
M  V30 1330 H 126.244 -3.49676 -3.90931 0
M  V30 1331 H 127.718 -2.22435 -5.052 0
M  V30 1332 H 128.195 -0.685635 -4.33815 0
M  V30 1333 H 128.801 -2.20393 -3.63741 0
M  V30 1334 N 127.117 1.15442 -1.07289 0
M  V30 1335 C 128.342 1.90638 -0.816828 0
M  V30 1336 C 128.767 1.77445 0.624083 0
M  V30 1337 O 128.125 1.10671 1.43602 0
M  V30 1338 C 128.173 3.39008 -1.22906 0
M  V30 1339 O 127.277 4.10701 -0.373975 0
M  V30 1340 H 126.618 0.593555 -0.297638 0
M  V30 1341 H 129.148 1.46198 -1.43134 0
M  V30 1342 H 129.158 3.89801 -1.20497 0
M  V30 1343 H 127.833 3.47929 -2.27856 0
M  V30 1344 H 126.41 3.70046 -0.460499 0
M  V30 1345 N 128.595 0.856903 1.32268 0
M  V30 1346 C 129.505 0.306131 2.32594 0
M  V30 1347 C 130.521 -0.577209 1.64147 0
M  V30 1348 O 131.697 -0.477043 1.95669 0
M  V30 1349 C 128.762 -0.494561 3.43154 0
M  V30 1350 C 127.823 0.415186 4.27288 0
M  V30 1351 C 127.056 -0.347387 5.32568 0
M  V30 1352 O 127.279 -1.57708 5.48165 0
M  V30 1353 O 126.213 0.287982 6.01211 0
M  V30 1354 H 130.039 1.13737 2.81598 0
M  V30 1355 H 127.624 0.619902 1.35932 0
M  V30 1356 H 129.506 -0.948944 4.10576 0
M  V30 1357 H 128.181 -1.30257 2.96336 0
M  V30 1358 H 127.088 0.917793 3.62667 0
M  V30 1359 H 128.421 1.18844 4.77637 0
M  V30 1360 N 130.073 -1.45103 0.615059 0
M  V30 1361 C 131.298 -2.07064 0.117988 0
M  V30 1362 C 131.723 -1.4554 -1.19163 0
M  V30 1363 O 131.081 -0.550855 -1.72729 0
M  V30 1364 C 131.129 -3.606 -0.000288387 0
M  V30 1365 O 130.233 -3.98847 -1.04856 0
M  V30 1366 H 129.574 -0.659467 0.0774581 0
M  V30 1367 H 132.104 -1.86236 0.847186 0
M  V30 1368 H 132.114 -4.07529 -0.196091 0
M  V30 1369 H 130.789 -4.04765 0.955932 0
M  V30 1370 H 129.366 -3.63577 -0.828619 0
M  V30 1371 N 131.551 -0.354651 -1.53558 0
M  V30 1372 C 132.779 0.239515 -2.05509 0
M  V30 1373 C 133.194 1.4333 -1.2289 0
M  V30 1374 O 132.551 1.80538 -0.266899 0
M  V30 1375 C 132.602 0.643719 -3.55723 0
M  V30 1376 O 132.323 -0.502602 -4.35207 0
M  V30 1377 C 133.824 1.29743 -4.23889 0
M  V30 1378 H 131.044 0.0442697 -0.669538 0
M  V30 1379 H 133.588 -0.509856 -1.98042 0
M  V30 1380 H 131.743 1.34302 -3.63376 0
M  V30 1381 H 132.157 -0.178172 -5.24197 0
M  V30 1382 H 133.631 1.53091 -5.30346 0
M  V30 1383 H 134.108 2.25441 -3.76926 0
M  V30 1384 H 134.714 0.639865 -4.20459 0
M  V30 1385 N 133.029 1.57378 -0.0835403 0
M  V30 1386 C 134.275 1.94217 0.583733 0
M  V30 1387 C 134.608 0.964653 1.68547 0
M  V30 1388 O 133.883 -0.00422258 1.945 0
M  V30 1389 C 134.166 3.41253 1.14972 0
M  V30 1390 C 134.019 4.49768 0.0538277 0
M  V30 1391 C 135.338 3.89352 2.05166 0
M  V30 1392 H 132.457 0.706233 0.210724 0
M  V30 1393 H 135.099 1.89392 -0.1519 0
M  V30 1394 H 133.249 3.45496 1.77665 0
M  V30 1395 H 134.921 4.57641 -0.579851 0
M  V30 1396 H 133.164 4.29432 -0.614068 0
M  V30 1397 H 133.835 5.49817 0.490452 0
M  V30 1398 H 136.311 3.87189 1.52393 0
M  V30 1399 H 135.187 4.92822 2.41698 0
M  V30 1400 H 135.448 3.27973 2.96456 0
M  V30 1401 N 134.507 -0.190092 1.56449 0
M  V30 1402 C 135.455 -1.25501 1.95837 0
M  V30 1403 C 136.449 -1.4685 0.844485 0
M  V30 1404 O 137.655 -1.47651 1.02952 0
M  V30 1405 H 134.03 -0.421447 0.622805 0
M  V30 1406 H 136.001 -0.895821 2.84636 0
M  V30 1407 C 134.75 -2.59124 2.31841 0
M  V30 1408 H 134.073 -2.43514 3.17082 0
M  V30 1409 H 135.513 -3.32371 2.6326 0
M  V30 1410 C 133.972 -3.16488 1.15486 0
M  V30 1411 O 134.502 -3.99365 0.432535 0
M  V30 1412 N 132.708 -2.75305 0.930349 0
M  V30 1413 H 132.255 -2.08013 1.51948 0
M  V30 1414 H 132.213 -3.14024 0.153634 0
M  V30 1415 N 135.985 -1.50799 -0.457987 0
M  V30 1416 C 137.231 -1.62683 -1.21088 0
M  V30 1417 C 137.564 -0.332268 -1.91336 0
M  V30 1418 O 136.839 0.667043 -1.82704 0
M  V30 1419 C 137.122 -2.81615 -2.24422 0
M  V30 1420 C 136.975 -4.20989 -1.58392 0
M  V30 1421 C 138.294 -2.96085 -3.2561 0
M  V30 1422 H 135.413 -0.592087 -0.438864 0
M  V30 1423 H 138.055 -1.83225 -0.50286 0
M  V30 1424 H 136.205 -2.64231 -2.84806 0
M  V30 1425 H 137.877 -4.49994 -1.01504 0
M  V30 1426 H 136.12 -4.24641 -0.886704 0
M  V30 1427 H 136.791 -5.0016 -2.33547 0
M  V30 1428 H 139.267 -3.12042 -2.75262 0
M  V30 1429 H 138.143 -3.80902 -3.95228 0
M  V30 1430 H 138.404 -2.0726 -3.90507 0
M  V30 1431 N 137.463 0.71206 -1.40597 0
M  V30 1432 C 138.393 1.83889 -1.43899 0
M  V30 1433 C 139.374 1.67442 -0.299504 0
M  V30 1434 O 140.559 1.87421 -0.508624 0
M  V30 1435 C 137.689 3.21877 -1.30431 0
M  V30 1436 C 136.643 3.53002 -2.42019 0
M  V30 1437 C 135.969 4.90172 -2.13626 0
M  V30 1438 C 137.269 3.53643 -3.84362 0
M  V30 1439 H 138.963 1.81383 -2.38203 0
M  V30 1440 H 136.509 0.871237 -1.14654 0
M  V30 1441 H 138.462 4.00404 -1.31357 0
M  V30 1442 H 137.186 3.24968 -0.326049 0
M  V30 1443 H 135.845 2.76818 -2.40349 0
M  V30 1444 H 135.493 4.89869 -1.14182 0
M  V30 1445 H 135.193 5.11962 -2.88389 0
M  V30 1446 H 136.717 5.71028 -2.1624 0
M  V30 1447 H 138.131 4.22203 -3.87837 0
M  V30 1448 H 136.528 3.86961 -4.58673 0
M  V30 1449 H 137.598 2.52954 -4.13693 0
M  V30 1450 N 138.941 1.26152 0.944643 0
M  V30 1451 C 139.888 1.07408 2.04285 0
M  V30 1452 C 140.858 -0.0198413 1.66088 0
M  V30 1453 O 142.043 0.139264 1.90291 0
M  V30 1454 C 139.183 0.70945 3.37729 0
M  V30 1455 C 138.296 1.87926 3.88983 0
M  V30 1456 C 137.431 1.45807 5.10797 0
M  V30 1457 C 136.47 2.5964 5.54305 0
M  V30 1458 N 135.607 2.18226 6.67324 0
M  V30 1459 H 140.447 2.01389 2.1965 0
M  V30 1460 H 137.984 1.00275 1.07626 0
M  V30 1461 H 139.942 0.478948 4.14442 0
M  V30 1462 H 138.572 -0.193389 3.2222 0
M  V30 1463 H 137.624 2.22279 3.08701 0
M  V30 1464 H 138.936 2.73377 4.17213 0
M  V30 1465 H 138.09 1.18781 5.94959 0
M  V30 1466 H 136.829 0.574414 4.84305 0
M  V30 1467 H 135.834 2.87399 4.68702 0
M  V30 1468 H 137.059 3.48599 5.828 0
M  V30 1469 H 135.005 1.3229 6.42523 0
M  V30 1470 H 134.922 2.97221 6.95123 0
M  V30 1471 H 136.19 1.94403 7.54869 0
M  V30 1472 N 140.419 -1.14872 1.07899 0
M  V30 1473 C 141.352 -2.18794 0.64841 0
M  V30 1474 C 142.33 -1.59065 -0.337189 0
M  V30 1475 O 143.514 -1.86936 -0.242284 0
M  V30 1476 C 140.641 -3.38667 -0.0470417 0
M  V30 1477 C 139.687 -4.16942 0.897884 0
M  V30 1478 S 140.52 -4.78615 2.40183 0
M  V30 1479 C 141.676 -6.0185 1.71834 0
M  V30 1480 H 141.909 -2.5498 1.52881 0
M  V30 1481 H 139.442 -1.25922 0.893484 0
M  V30 1482 H 141.4 -4.08113 -0.442027 0
M  V30 1483 H 140.061 -3.00814 -0.903861 0
M  V30 1484 H 139.254 -5.02726 0.358096 0
M  V30 1485 H 138.856 -3.53073 1.23352 0
M  V30 1486 H 141.148 -6.69574 1.03328 0
M  V30 1487 H 142.091 -6.60408 2.55473 0
M  V30 1488 H 142.499 -5.5173 1.19392 0
M  V30 1489 N 141.898 -0.863906 -1.31812 0
M  V30 1490 C 143.147 -0.46801 -1.96195 0
M  V30 1491 C 143.46 0.983474 -1.69077 0
M  V30 1492 O 144.666 1.48523 -2.27273 0
M  V30 1493 C 143.122 -0.785995 -3.51212 0
M  V30 1494 C 142.73 -2.25383 -3.87178 0
M  V30 1495 C 144.474 -0.458274 -4.22019 0
M  V30 1496 C 142.381 -2.51455 -5.3528 0
M  V30 1497 H 141.311 -0.171283 -0.734287 0
M  V30 1498 H 143.962 -1.05597 -1.50072 0
M  V30 1499 H 142.344 -0.127359 -3.95795 0
M  V30 1500 H 143.518 -2.95502 -3.53575 0
M  V30 1501 H 141.833 -2.54698 -3.2942 0
M  V30 1502 H 144.43 -0.630369 -5.30971 0
M  V30 1503 H 144.773 0.600834 -4.11941 0
M  V30 1504 H 145.306 -1.07319 -3.8305 0
M  V30 1505 H 142.045 -3.56025 -5.50387 0
M  V30 1506 H 141.565 -1.85923 -5.70257 0
M  V30 1507 H 143.244 -2.35874 -6.02472 0
M  V30 1508 N 143.376 1.44774 -0.622745 0
M  V30 1509 C 144.792 1.56986 -0.287652 0
M  V30 1510 C 144.992 1.61167 1.20944 0
M  V30 1511 O 144.048 1.55015 1.99315 0
M  V30 1512 C 145.361 2.84551 -0.972188 0
M  V30 1513 C 146.909 2.9825 -0.949536 0
M  V30 1514 C 147.384 4.28605 -1.61437 0
M  V30 1515 N 148.875 4.35399 -1.58057 0
M  V30 1516 C 149.61 5.34964 -2.064 0
M  V30 1517 N 149.106 6.40981 -2.62897 0
M  V30 1518 N 150.899 5.26419 -1.97078 0
M  V30 1519 H 143.05 1.40304 -1.59463 0
M  V30 1520 H 145.313 0.671794 -0.668878 0
M  V30 1521 H 145.019 2.87417 -2.02693 0
M  V30 1522 H 144.893 3.73807 -0.504771 0
M  V30 1523 H 147.28 2.94941 0.0967067 0
M  V30 1524 H 147.361 2.10364 -1.45536 0
M  V30 1525 H 147.005 4.32672 -2.66002 0
M  V30 1526 H 146.935 5.15334 -1.08344 0
M  V30 1527 H 149.426 3.59397 -1.16801 0
M  V30 1528 H 149.739 7.13225 -2.97539 0
M  V30 1529 H 148.084 6.4169 -2.66943 0
M  V30 1530 H 151.275 4.42504 -1.52669 0
M  V30 1531 H 151.448 6.03861 -2.35066 0
M  V30 1532 N 144.854 0.36279 1.53368 0
M  V30 1533 C 146.079 -0.231226 2.06107 0
M  V30 1534 C 146.504 -1.419 1.23474 0
M  V30 1535 O 145.862 -1.79524 0.253128 0
M  V30 1536 C 145.91 -0.605523 3.5548 0
M  V30 1537 O 145.014 -1.70312 3.7559 0
M  V30 1538 H 144.355 -0.034327 0.663112 0
M  V30 1539 H 146.885 0.522584 1.97814 0
M  V30 1540 H 146.895 -0.877314 3.98456 0
M  V30 1541 H 145.57 0.263004 4.15068 0
M  V30 1542 H 144.147 -1.4271 3.44512 0
M  V30 1543 N 146.332 -1.57332 0.0918853 0
M  V30 1544 C 147.295 -2.12708 -0.85369 0
M  V30 1545 C 148.295 -1.05561 -1.213 0
M  V30 1546 O 149.485 -1.31461 -1.14296 0
M  V30 1547 C 146.617 -2.64503 -2.15061 0
M  V30 1548 H 147.81 -2.97573 -0.3729 0
M  V30 1549 H 145.363 -1.55509 -0.157072 0
M  V30 1550 H 146.098 -1.83149 -2.67632 0
M  V30 1551 H 145.883 -3.4284 -1.90272 0
M  V30 1552 H 147.373 -3.07351 -2.82711 0
M  V30 1553 N 147.81 0.181792 -1.56548 0
M  V30 1554 C 149.038 0.915947 -1.85521 0
M  V30 1555 C 149.453 1.76282 -0.676016 0
M  V30 1556 O 148.81 1.79012 0.355077 0
M  V30 1557 C 148.861 1.80126 -3.13427 0
M  V30 1558 O 148.582 0.988562 -4.26801 0
M  V30 1559 C 150.083 2.64597 -3.55673 0
M  V30 1560 H 147.303 0.26661 -0.61576 0
M  V30 1561 H 149.847 0.185039 -2.03661 0
M  V30 1562 H 148.002 2.48563 -2.97145 0
M  V30 1563 H 148.416 1.59308 -4.99721 0
M  V30 1564 H 149.89 3.2235 -4.48101 0
M  V30 1565 H 150.367 3.38958 -2.79292 0
M  V30 1566 H 150.973 2.0151 -3.74532 0
M  V30 1567 N 149.288 1.51039 0.449983 0
M  V30 1568 C 150.699 1.557 1.03026 0
M  V30 1569 C 151.05 0.372939 1.92623 0
M  V30 1570 O 150.175 -0.511771 2.10261 0
M  V30 1571 C 150.77 2.82171 1.87523 0
M  V30 1572 C 149.329 2.89444 2.40622 0
M  V30 1573 C 148.476 2.50228 1.19504 0
M  V30 1574 H 151.427 1.56999 0.231745 0
M  V30 1575 H 151.448 2.65219 2.72835 0
M  V30 1576 H 150.96 3.68331 1.22286 0
M  V30 1577 H 149.061 2.07685 3.0935 0
M  V30 1578 H 149.174 3.92816 2.74285 0
M  V30 1579 H 147.538 2.03139 1.53644 0
M  V30 1580 H 148.321 3.38719 0.558972 0
M  V30 1581 N 150.766 -0.704594 1.40972 0
M  V30 1582 C 152.013 -1.46458 1.39844 0
M  V30 1583 C 152.341 -1.94499 0.00447594 0
M  V30 1584 O 151.596 -1.69275 -0.982057 0
M  V30 1585 C 151.895 -2.698 2.34399 0
M  V30 1586 C 151.561 -2.40464 3.81429 0
M  V30 1587 C 150.223 -2.32174 4.21484 0
M  V30 1588 C 152.575 -2.16086 4.74296 0
M  V30 1589 C 149.903 -1.97589 5.52427 0
M  V30 1590 C 152.255 -1.83011 6.05549 0
M  V30 1591 C 150.919 -1.7321 6.44635 0
M  V30 1592 H 150.189 -0.535927 0.511725 0
M  V30 1593 H 152.836 -0.806124 1.73706 0
M  V30 1594 H 151.141 -3.40536 1.93759 0
M  V30 1595 H 152.838 -3.27919 2.30804 0
M  V30 1596 H 149.428 -2.47808 3.49699 0
M  V30 1597 H 153.612 -2.2144 4.4416 0
M  V30 1598 H 148.868 -1.88547 5.81601 0
M  V30 1599 H 153.042 -1.63164 6.77016 0
M  V30 1600 H 150.669 -1.46179 7.46013 0
M  V30 1601 N 152.244 -1.26651 -0.937939 0
M  V30 1602 C 153.655 -1.1125 -1.49934 0
M  V30 1603 C 154.006 0.306077 -1.93798 0
M  V30 1604 O 153.131 1.19792 -1.80219 0
M  V30 1605 C 153.726 -2.01339 -2.72485 0
M  V30 1606 C 152.285 -1.90074 -3.24883 0
M  V30 1607 C 151.432 -1.94498 -1.97651 0
M  V30 1608 H 154.383 -1.39693 -0.753091 0
M  V30 1609 H 154.404 -1.56319 -3.46907 0
M  V30 1610 H 153.916 -3.04577 -2.40529 0
M  V30 1611 H 152.017 -0.897827 -3.61621 0
M  V30 1612 H 152.13 -2.75778 -3.9177 0
M  V30 1613 H 150.494 -1.38591 -2.13693 0
M  V30 1614 H 151.277 -2.99372 -1.68022 0
M  V30 1615 N 153.722 1.14298 -1.08507 0
M  V30 1616 C 154.652 2.21542 -0.737646 0
M  V30 1617 C 155.633 1.67773 0.280377 0
M  V30 1618 O 156.818 1.93616 0.150521 0
M  V30 1619 C 153.948 3.46988 -0.147259 0
M  V30 1620 C 152.902 4.13789 -1.09374 0
M  V30 1621 C 152.228 5.33449 -0.365524 0
M  V30 1622 C 153.528 4.62208 -2.4323 0
M  V30 1623 H 155.222 2.5086 -1.6343 0
M  V30 1624 H 152.768 1.20576 -0.787243 0
M  V30 1625 H 154.721 4.21262 0.107808 0
M  V30 1626 H 153.445 3.17037 0.784538 0
M  V30 1627 H 152.104 3.4147 -1.33393 0
M  V30 1628 H 151.752 4.99759 0.57011 0
M  V30 1629 H 151.452 5.79088 -0.996512 0
M  V30 1630 H 152.976 6.10485 -0.118534 0
M  V30 1631 H 154.39 5.27952 -2.23472 0
M  V30 1632 H 152.787 5.18553 -3.02031 0
M  V30 1633 H 153.857 3.77224 -3.04681 0
M  V30 1634 N 155.201 0.870884 1.31352 0
M  V30 1635 C 156.447 0.482987 1.96965 0
M  V30 1636 C 156.78 -0.962462 1.68672 0
M  V30 1637 O 156.055 -1.6779 0.98371 0
M  V30 1638 C 156.338 0.741752 3.52378 0
M  V30 1639 C 156.191 2.2368 3.9024 0
M  V30 1640 C 157.51 0.208838 4.39604 0
M  V30 1641 H 154.629 0.176955 0.715441 0
M  V30 1642 H 157.271 1.09229 1.55464 0
M  V30 1643 H 155.421 0.223149 3.87859 0
M  V30 1644 H 157.093 2.82273 3.64856 0
M  V30 1645 H 155.336 2.70901 3.38814 0
M  V30 1646 H 156.007 2.3685 4.98604 0
M  V30 1647 H 158.483 0.652529 4.10952 0
M  V30 1648 H 157.359 0.419336 5.47296 0
M  V30 1649 H 157.62 -0.889275 4.33064 0
M  V30 1650 N 156.679 -1.44442 0.630414 0
M  V30 1651 C 157.904 -2.06927 0.139944 0
M  V30 1652 C 158.329 -1.46795 -1.17613 0
M  V30 1653 O 157.687 -0.569144 -1.72135 0
M  V30 1654 C 157.735 -3.6058 0.0379581 0
M  V30 1655 O 156.839 -3.99937 -1.0062 0
M  V30 1656 H 156.18 -0.658608 0.0844483 0
M  V30 1657 H 158.71 -1.85327 0.866891 0
M  V30 1658 H 158.72 -4.07714 -0.152856 0
M  V30 1659 H 157.395 -4.03728 0.998809 0
M  V30 1660 H 155.972 -3.64436 -0.79001 0
M  V30 1661 N 158.157 -0.370918 -1.53173 0
M  V30 1662 C 159.087 0.464847 -2.28826 0
M  V30 1663 C 160.068 1.07936 -1.31468 0
M  V30 1664 O 161.253 1.0956 -1.60344 0
M  V30 1665 C 158.383 1.60196 -3.08147 0
M  V30 1666 C 157.337 1.11443 -4.13237 0
M  V30 1667 C 156.663 2.3422 -4.80672 0
M  V30 1668 C 157.963 0.195384 -5.21934 0
M  V30 1669 H 159.657 -0.166329 -2.98938 0
M  V30 1670 H 157.203 -0.0814359 -1.4377 0
M  V30 1671 H 159.156 2.19332 -3.59822 0
M  V30 1672 H 157.88 2.26045 -2.35735 0
M  V30 1673 H 156.539 0.545727 -3.62515 0
M  V30 1674 H 156.187 2.98537 -4.04827 0
M  V30 1675 H 155.887 2.02269 -5.51689 0
M  V30 1676 H 157.411 2.94032 -5.35143 0
M  V30 1677 H 158.825 0.694375 -5.69079 0
M  V30 1678 H 157.222 -0.0335027 -6.00091 0
M  V30 1679 H 158.292 -0.760961 -4.78892 0
M  V30 1680 N 159.635 1.57281 -0.100228 0
M  V30 1681 C 160.882 1.94537 0.562268 0
M  V30 1682 C 161.21 0.982315 1.67871 0
M  V30 1683 O 160.465 0.00280936 1.957 0
M  V30 1684 C 160.764 3.38305 1.15259 0
M  V30 1685 C 160.43 4.50618 0.159409 0
M  V30 1686 C 159.092 4.81066 -0.113741 0
M  V30 1687 C 161.444 5.18615 -0.518461 0
M  V30 1688 C 158.772 5.76835 -1.07137 0
M  V30 1689 C 161.124 6.15412 -1.46459 0
M  V30 1690 C 159.788 6.44262 -1.74592 0
M  V30 1691 H 159.058 0.711863 0.205748 0
M  V30 1692 H 161.705 1.90679 -0.17715 0
M  V30 1693 H 160.01 3.38766 1.96836 0
M  V30 1694 H 161.707 3.64435 1.67297 0
M  V30 1695 H 158.297 4.2689 0.382491 0
M  V30 1696 H 162.481 4.95264 -0.320581 0
M  V30 1697 H 157.737 5.975 -1.29628 0
M  V30 1698 H 161.911 6.67194 -1.99564 0
M  V30 1699 H 159.538 7.1828 -2.48953 0
M  V30 1700 N 161.113 -0.173488 1.56642 0
M  V30 1701 C 162.36 -0.890465 1.81871 0
M  V30 1702 C 162.688 -1.82339 0.67696 0
M  V30 1703 O 161.943 -1.92795 -0.335926 0
M  V30 1704 C 162.242 -1.72069 3.13252 0
M  V30 1705 C 161.908 -0.936878 4.41059 0
M  V30 1706 C 160.57 -0.720545 4.75775 0
M  V30 1707 C 162.922 -0.386919 5.19762 0
M  V30 1708 C 160.25 0.0568829 5.86672 0
M  V30 1709 C 162.602 0.37741 6.31473 0
M  V30 1710 C 161.266 0.604563 6.64757 0
M  V30 1711 H 160.536 -0.325844 0.665512 0
M  V30 1712 H 163.183 -0.155527 1.90867 0
M  V30 1713 H 161.488 -2.52496 2.99588 0
M  V30 1714 H 163.185 -2.27844 3.29982 0
M  V30 1715 H 159.775 -1.11553 4.13828 0
M  V30 1716 H 163.959 -0.541398 4.93338 0
M  V30 1717 H 159.215 0.242635 6.10918 0
M  V30 1718 H 163.389 0.810825 6.91664 0
M  V30 1719 H 161.016 1.20885 7.50527 0
M  V30 1720 N 162.591 -1.51276 -0.441967 0
M  V30 1721 C 163.524 -1.66933 -1.55591 0
M  V30 1722 C 164.502 -0.516958 -1.54163 0
M  V30 1723 O 165.686 -0.740209 -1.73358 0
M  V30 1724 C 162.813 -1.67866 -2.94174 0
M  V30 1725 C 161.859 -2.89013 -3.13646 0
M  V30 1726 S 162.692 -4.49897 -2.90436 0
M  V30 1727 C 163.848 -4.53568 -4.31308 0
M  V30 1728 H 164.081 -2.61155 -1.42076 0
M  V30 1729 H 161.614 -1.40902 -0.631341 0
M  V30 1730 H 163.572 -1.69089 -3.74058 0
M  V30 1731 H 162.233 -0.748296 -3.05056 0
M  V30 1732 H 161.426 -2.86054 -4.14957 0
M  V30 1733 H 161.028 -2.85509 -2.4158 0
M  V30 1734 H 163.32 -4.28924 -5.24434 0
M  V30 1735 H 164.263 -5.55355 -4.39303 0
M  V30 1736 H 164.671 -3.82943 -4.14747 0
M  V30 1737 N 164.069 0.697108 -1.41344 0
M  V30 1738 C 165.316 1.45714 -1.40619 0
M  V30 1739 C 165.644 1.94494 -0.0147907 0
M  V30 1740 O 164.899 1.69794 0.973066 0
M  V30 1741 C 165.198 2.68553 -2.35826 0
M  V30 1742 C 164.864 2.38438 -3.82698 0
M  V30 1743 C 163.526 2.29936 -4.22709 0
M  V30 1744 C 165.878 2.13567 -4.75435 0
M  V30 1745 C 163.206 1.94656 -5.53467 0
M  V30 1746 C 165.558 1.79797 -6.06511 0
M  V30 1747 C 164.222 1.69789 -6.45545 0
M  V30 1748 H 163.492 0.533206 -0.51456 0
M  V30 1749 H 166.139 0.796901 -1.74131 0
M  V30 1750 H 164.444 3.39503 -1.95563 0
M  V30 1751 H 166.141 3.2669 -2.32539 0
M  V30 1752 H 162.731 2.4595 -3.51008 0
M  V30 1753 H 166.915 2.19082 -4.45328 0
M  V30 1754 H 162.171 1.8546 -5.82593 0
M  V30 1755 H 166.345 1.59572 -6.77872 0
M  V30 1756 H 163.972 1.4222 -7.46778 0
M  V30 1757 N 165.547 1.27147 0.931209 0
M  V30 1758 C 166.796 1.12664 1.67302 0
M  V30 1759 C 167.109 -0.327718 1.92835 0
M  V30 1760 O 168.315 -0.593392 2.64936 0
M  V30 1761 C 166.771 1.9683 3.01307 0
M  V30 1762 C 166.379 3.46901 2.83485 0
M  V30 1763 C 168.123 1.90985 3.79111 0
M  V30 1764 C 166.03 4.23279 4.13024 0
M  V30 1765 H 164.96 0.41803 0.627509 0
M  V30 1766 H 167.611 1.51539 1.03481 0
M  V30 1767 H 165.993 1.50797 3.66164 0
M  V30 1768 H 167.167 4.00773 2.27415 0
M  V30 1769 H 165.482 3.54088 2.19113 0
M  V30 1770 H 168.079 2.45328 4.75098 0
M  V30 1771 H 168.422 0.882718 4.06834 0
M  V30 1772 H 168.955 2.34895 3.21044 0
M  V30 1773 H 165.694 5.26503 3.90481 0
M  V30 1774 H 165.214 3.74186 4.6877 0
M  V30 1775 H 166.893 4.32265 4.81411 0
M  V30 1776 N 167.025 -1.13721 1.09112 0
M  V30 1777 C 168.273 -1.84559 0.823562 0
M  V30 1778 C 168.594 -1.83754 -0.652658 0
M  V30 1779 O 167.864 -1.29102 -1.47342 0
M  V30 1780 H 166.444 -0.683376 0.301673 0
M  V30 1781 H 169.106 -1.37771 1.37859 0
M  V30 1782 H 168.202 -2.8917 1.17419 0
M  V30 1783 N 168.503 -0.877838 -1.30888 0
M  V30 1784 C 169.75 -0.492696 -1.96415 0
M  V30 1785 C 170.078 0.956671 -1.69346 0
M  V30 1786 O 169.333 1.68993 -0.986913 0
M  V30 1787 C 169.632 -0.705748 -3.50363 0
M  V30 1788 C 169.298 -2.1291 -3.97467 0
M  V30 1789 C 167.96 -2.51834 -4.1004 0
M  V30 1790 C 170.312 -3.05702 -4.22132 0
M  V30 1791 C 167.64 -3.82775 -4.44635 0
M  V30 1792 C 169.992 -4.36166 -4.58194 0
M  V30 1793 C 168.656 -4.74993 -4.68975 0
M  V30 1794 H 167.926 -0.18029 -0.718733 0
M  V30 1795 H 170.573 -1.11233 -1.55883 0
M  V30 1796 H 168.878 -0.00303058 -3.918 0
M  V30 1797 H 170.575 -0.387456 -3.99124 0
M  V30 1798 H 167.165 -1.81694 -3.88182 0
M  V30 1799 H 171.349 -2.76853 -4.11906 0
M  V30 1800 H 166.605 -4.12609 -4.51181 0
M  V30 1801 H 170.779 -5.08111 -4.76231 0
M  V30 1802 H 168.406 -5.76495 -4.95537 0
M  V30 1803 N 169.982 1.44106 -0.638065 0
M  V30 1804 C 171.231 2.01194 -0.142744 0
M  V30 1805 C 171.544 1.50835 1.24532 0
M  V30 1806 O 172.75 2.00096 1.83504 0
M  V30 1807 C 171.206 3.59319 -0.20442 0
M  V30 1808 C 170.814 4.18674 -1.59423 0
M  V30 1809 C 172.558 4.23854 0.234079 0
M  V30 1810 C 170.465 5.69045 -1.61065 0
M  V30 1811 H 169.395 0.752367 -0.0495998 0
M  V30 1812 H 172.046 1.65246 -0.797881 0
M  V30 1813 H 170.428 3.92598 0.517946 0
M  V30 1814 H 171.602 3.96921 -2.34074 0
M  V30 1815 H 169.917 3.66453 -1.97741 0
M  V30 1816 H 172.514 5.34155 0.241443 0
M  V30 1817 H 172.857 3.96688 1.2627 0
M  V30 1818 H 173.39 3.95403 -0.436025 0
M  V30 1819 H 170.129 6.00956 -2.61787 0
M  V30 1820 H 169.649 5.929 -0.90718 0
M  V30 1821 H 171.328 6.32809 -1.34766 0
M  V30 1822 N 171.46 0.379036 1.52974 0
M  V30 1823 C 172.39 -0.452706 2.29069 0
M  V30 1824 C 173.371 -1.07237 1.32039 0
M  V30 1825 O 174.556 -1.08708 1.60923 0
M  V30 1826 C 171.686 -1.5856 3.08992 0
M  V30 1827 C 170.64 -1.0925 4.13822 0
M  V30 1828 C 169.966 -2.31668 4.81907 0
M  V30 1829 C 171.266 -0.167702 5.22031 0
M  V30 1830 H 172.96 0.182181 2.98845 0
M  V30 1831 H 170.506 0.0890592 1.43724 0
M  V30 1832 H 172.459 -2.1742 3.6098 0
M  V30 1833 H 171.183 -2.24792 2.36931 0
M  V30 1834 H 169.842 -0.526494 3.628 0
M  V30 1835 H 169.49 -2.96386 4.06404 0
M  V30 1836 H 169.19 -1.9934 5.52754 0
M  V30 1837 H 170.714 -2.91189 5.36695 0
M  V30 1838 H 172.128 -0.664186 5.6944 0
M  V30 1839 H 170.525 0.0653265 6.00064 0
M  V30 1840 H 171.595 0.786347 4.78482 0
M  V30 1841 N 172.938 -1.57226 0.108567 0
M  V30 1842 C 173.886 -2.16002 -0.862885 0
M  V30 1843 C 174.88 -1.10644 -1.28274 0
M  V30 1844 O 176.086 -1.28966 -1.2557 0
M  V30 1845 H 172.461 -0.691148 -0.296342 0
M  V30 1846 H 174.432 -2.96427 -0.342575 0
M  V30 1847 C 173.181 -2.76576 -2.10716 0
M  V30 1848 H 172.504 -3.5734 -1.793 0
M  V30 1849 H 173.944 -3.21253 -2.76717 0
M  V30 1850 C 172.403 -1.73137 -2.89007 0
M  V30 1851 O 172.933 -1.17842 -3.84026 0
M  V30 1852 N 171.139 -1.43317 -2.52801 0
M  V30 1853 H 170.686 -1.88473 -1.75601 0
M  V30 1854 H 170.644 -0.743485 -3.05483 0
M  V30 1855 N 174.416 0.165178 -1.56732 0
M  V30 1856 C 175.364 1.22369 -1.97809 0
M  V30 1857 C 176.358 1.45488 -0.867741 0
M  V30 1858 O 177.564 1.45995 -1.05288 0
M  V30 1859 H 173.939 0.411486 -0.629431 0
M  V30 1860 H 175.91 0.850425 -2.86025 0
M  V30 1861 C 174.659 2.55403 -2.35934 0
M  V30 1862 H 173.982 2.38438 -3.20916 0
M  V30 1863 H 175.422 3.2814 -2.68514 0
M  V30 1864 C 173.881 3.14611 -1.20506 0
M  V30 1865 O 174.411 3.98626 -0.496016 0
M  V30 1866 N 172.617 2.7379 -0.97403 0
M  V30 1867 H 172.164 2.0557 -1.55238 0
M  V30 1868 H 172.122 3.1374 -0.203573 0
M  V30 1869 N 175.894 1.51508 0.433938 0
M  V30 1870 C 177.143 1.63578 1.18005 0
M  V30 1871 C 177.456 0.359514 1.92268 0
M  V30 1872 O 178.662 0.359632 2.69108 0
M  V30 1873 C 177.118 2.88901 2.14626 0
M  V30 1874 C 176.726 4.23544 1.45995 0
M  V30 1875 C 178.47 3.10328 2.89649 0
M  V30 1876 C 176.377 5.40014 2.4112 0
M  V30 1877 H 175.307 0.609277 0.444182 0
M  V30 1878 H 177.958 1.77978 0.446773 0
M  V30 1879 H 176.34 2.68142 2.91403 0
M  V30 1880 H 177.514 4.54696 0.747532 0
M  V30 1881 H 175.829 4.08021 0.831115 0
M  V30 1882 H 178.426 3.94518 3.60915 0
M  V30 1883 H 178.769 2.23544 3.51189 0
M  V30 1884 H 179.302 3.31443 2.19978 0
M  V30 1885 H 176.041 6.29068 1.84264 0
M  V30 1886 H 175.561 5.13233 3.10406 0
M  V30 1887 H 177.24 5.72099 3.02177 0
M  V30 1888 N 177.372 -0.689602 1.41712 0
M  V30 1889 C 178.62 -1.4468 1.4111 0
M  V30 1890 C 178.941 -1.94986 0.0232196 0
M  V30 1891 O 178.211 -1.72097 -0.935913 0
M  V30 1892 H 176.791 -0.536847 0.519427 0
M  V30 1893 H 179.453 -0.815825 1.77004 0
M  V30 1894 H 178.549 -2.30706 2.10193 0
M  V30 1895 N 178.85 -1.27639 -0.924453 0
M  V30 1896 C 179.8 -1.07295 -2.01176 0
M  V30 1897 C 180.784 5.77352e-05 -1.609 0
M  V30 1898 O 181.976 -0.218855 -1.75642 0
M  V30 1899 C 179.105 -0.725592 -3.35544 0
M  V30 1900 C 178.191 -1.83691 -3.82254 0
M  V30 1901 N 178.582 -3.07697 -4.01443 0
M  V30 1902 C 176.88 -1.72433 -4.11319 0
M  V30 1903 C 177.581 -3.80037 -4.40394 0
M  V30 1904 N 176.557 -3.0782 -4.48049 0
M  V30 1905 H 180.359 -2.01399 -2.14046 0
M  V30 1906 H 177.873 -1.18401 -1.11153 0
M  V30 1907 H 179.87 -0.560959 -4.13109 0
M  V30 1908 H 178.53 0.207782 -3.24034 0
M  V30 1909 H 179.541 -3.43424 -3.8766 0
M  V30 1910 H 176.218 -0.862005 -4.08504 0
M  V30 1911 H 177.608 -4.86632 -4.63291 0
M  V30 1912 N 180.328 1.1314 -1.09713 0
M  V30 1913 C 181.577 1.83838 -0.829851 0
M  V30 1914 C 181.89 1.84599 0.646728 0
M  V30 1915 O 183.096 2.51218 1.02965 0
M  V30 1916 C 181.552 3.30069 -1.43466 0
M  V30 1917 C 181.16 3.37688 -2.94399 0
M  V30 1918 C 182.904 4.05788 -1.24645 0
M  V30 1919 C 180.811 4.78209 -3.47952 0
M  V30 1920 H 179.741 0.68877 -0.306777 0
M  V30 1921 H 182.392 1.27448 -1.3202 0
M  V30 1922 H 180.774 3.8628 -0.871996 0
M  V30 1923 H 181.948 2.91456 -3.56918 0
M  V30 1924 H 180.263 2.75436 -3.12289 0
M  V30 1925 H 182.86 5.09535 -1.62107 0
M  V30 1926 H 183.203 4.15878 -0.187357 0
M  V30 1927 H 183.736 3.55915 -1.77678 0
M  V30 1928 H 180.475 4.73311 -4.53495 0
M  V30 1929 H 179.995 5.24924 -2.90198 0
M  V30 1930 H 181.674 5.47133 -3.45332 0
M  V30 1931 N 181.806 0.884767 1.30421 0
M  V30 1932 C 183.222 0.57874 1.48737 0
M  V30 1933 C 183.422 -0.883567 1.81095 0
M  V30 1934 O 182.478 -1.6648 1.89844 0
M  V30 1935 C 183.791 1.49171 2.61091 0
M  V30 1936 C 185.339 1.49532 2.74971 0
M  V30 1937 C 185.814 2.39421 3.90438 0
M  V30 1938 N 187.305 2.37383 3.97748 0
M  V30 1939 C 188.04 3.03647 4.86401 0
M  V30 1940 N 187.536 3.79136 5.79852 0
M  V30 1941 N 189.329 2.9288 4.79768 0
M  V30 1942 H 181.48 1.83075 1.0769 0
M  V30 1943 H 183.743 0.783637 0.533495 0
M  V30 1944 H 183.449 2.53291 2.44001 0
M  V30 1945 H 183.323 1.20113 3.57565 0
M  V30 1946 H 185.71 0.46163 2.91467 0
M  V30 1947 H 185.791 1.8262 1.79119 0
M  V30 1948 H 185.435 3.42874 3.74699 0
M  V30 1949 H 185.365 2.03649 4.85628 0
M  V30 1950 H 187.856 1.82525 3.30897 0
M  V30 1951 H 188.169 4.26789 6.4426 0
M  V30 1952 H 186.514 3.83243 5.79784 0
M  V30 1953 H 189.705 2.33433 4.05742 0
M  V30 1954 H 189.878 3.448 5.4865 0
M  V30 1955 N 183.284 -1.43765 0.645699 0
M  V30 1956 C 184.695 -1.85193 0.236719 0
M  V30 1957 C 185.046 -1.54045 -1.21509 0
M  V30 1958 O 184.171 -0.985694 -1.92647 0
M  V30 1959 C 184.766 -3.36151 0.422845 0
M  V30 1960 C 183.325 -3.76338 0.0682492 0
M  V30 1961 C 182.472 -2.67538 0.729306 0
M  V30 1962 H 185.423 -1.34025 0.849883 0
M  V30 1963 H 185.444 -3.79032 -0.333904 0
M  V30 1964 H 184.956 -3.5879 1.47958 0
M  V30 1965 H 183.057 -3.59312 -0.986179 0
M  V30 1966 H 183.17 -4.76603 0.488469 0
M  V30 1967 H 181.534 -2.54176 0.163235 0
M  V30 1968 H 182.317 -2.93006 1.78892 0
M  V30 1969 N 184.763 -0.387143 -1.52771 0
M  V30 1970 C 185.713 0.465942 -2.23188 0
M  V30 1971 C 186.697 1.03138 -1.23496 0
M  V30 1972 O 187.889 0.957845 -1.48843 0
M  V30 1973 C 185.018 1.59384 -3.04059 0
M  V30 1974 C 184.104 1.04024 -4.11144 0
M  V30 1975 N 184.495 0.211416 -5.05358 0
M  V30 1976 C 182.793 1.31295 -4.26237 0
M  V30 1977 C 183.494 -0.0941698 -5.81624 0
M  V30 1978 N 182.47 0.509207 -5.4121 0
M  V30 1979 H 186.272 -0.173856 -2.93385 0
M  V30 1980 H 183.786 -0.19633 -1.61209 0
M  V30 1981 H 185.783 2.21738 -3.53041 0
M  V30 1982 H 184.443 2.23648 -2.35397 0
M  V30 1983 H 185.454 -0.151151 -5.17679 0
M  V30 1984 H 182.131 1.95679 -3.68803 0
M  V30 1985 H 183.521 -0.765572 -6.67524 0
M  V30 1986 N 186.241 1.57166 -0.116904 0
M  V30 1987 C 187.657 1.5779 0.239693 0
M  V30 1988 C 187.857 1.1295 1.66867 0
M  V30 1989 O 186.913 0.81592 2.38954 0
M  V30 1990 C 188.226 3.00699 0.00828202 0
M  V30 1991 C 189.774 3.12912 0.0743438 0
M  V30 1992 C 190.249 4.57817 -0.129348 0
M  V30 1993 N 191.74 4.63139 -0.075247 0
M  V30 1994 C 192.475 5.73023 -0.207788 0
M  V30 1995 N 191.971 6.91665 -0.396382 0
M  V30 1996 N 193.764 5.61906 -0.14751 0
M  V30 1997 H 185.915 1.84615 -1.05029 0
M  V30 1998 H 188.178 0.85311 -0.41341 0
M  V30 1999 H 187.884 3.37784 -0.979531 0
M  V30 2000 H 187.758 3.69848 0.741077 0
M  V30 2001 H 190.145 2.75686 1.05268 0
M  V30 2002 H 190.226 2.4631 -0.690297 0
M  V30 2003 H 189.87 4.95742 -1.10465 0
M  V30 2004 H 189.8 5.22507 0.655253 0
M  V30 2005 H 192.291 3.7784 0.0670898 0
M  V30 2006 H 192.604 7.71255 -0.488437 0
M  V30 2007 H 190.949 6.93654 -0.432329 0
M  V30 2008 H 194.14 4.681 -0.00115036 0
M  V30 2009 H 194.313 6.47501 -0.254247 0
M  V30 2010 N 187.719 -0.156864 1.56817 0
M  V30 2011 C 188.947 -0.886316 1.86955 0
M  V30 2012 C 189.362 -1.75185 0.703975 0
M  V30 2013 O 188.719 -1.79555 -0.326552 0
M  V30 2014 C 188.77 -1.75117 3.16253 0
M  V30 2015 O 188.491 -0.920537 4.2832 0
M  V30 2016 C 189.992 -2.58905 3.59837 0
M  V30 2017 H 187.212 -0.25678 0.619923 0
M  V30 2018 H 189.756 -0.152615 2.0393 0
M  V30 2019 H 187.911 -2.43805 3.01062 0
M  V30 2020 H 188.325 -1.51337 5.02192 0
M  V30 2021 H 189.799 -3.1518 4.53172 0
M  V30 2022 H 190.276 -3.34472 2.84649 0
M  V30 2023 H 190.882 -1.95526 3.7769 0
M  V30 2024 N 189.197 -1.51736 -0.425897 0
M  V30 2025 C 190.446 -1.64201 -1.17136 0
M  V30 2026 C 190.759 -0.369705 -1.92074 0
M  V30 2027 O 191.965 -0.373898 -2.68913 0
M  V30 2028 C 190.421 -2.90035 -2.13091 0
M  V30 2029 C 190.029 -4.24312 -1.43747 0
M  V30 2030 C 191.773 -3.1186 -2.87999 0
M  V30 2031 C 189.68 -5.41285 -2.38253 0
M  V30 2032 H 188.61 -0.611624 -0.440944 0
M  V30 2033 H 191.261 -1.78212 -0.437328 0
M  V30 2034 H 189.643 -2.69684 -2.89977 0
M  V30 2035 H 190.817 -4.55086 -0.723408 0
M  V30 2036 H 189.132 -4.08456 -0.809465 0
M  V30 2037 H 191.729 -3.96427 -3.58817 0
M  V30 2038 H 192.072 -2.25403 -3.49999 0
M  V30 2039 H 192.605 -3.32605 -2.18217 0
M  V30 2040 H 189.344 -6.30037 -1.80925 0
M  V30 2041 H 188.864 -5.14872 -3.0768 0
M  V30 2042 H 190.543 -5.73694 -2.99139 0
M  V30 2043 N 190.675 0.682077 -1.42076 0
M  V30 2044 C 191.605 1.80796 -1.47767 0
M  V30 2045 C 192.586 1.6677 -0.334954 0
M  V30 2046 O 193.771 1.863 -0.548264 0
M  V30 2047 C 190.901 3.19038 -1.37229 0
M  V30 2048 C 189.855 3.47789 -2.49453 0
M  V30 2049 C 189.181 4.8553 -2.23975 0
M  V30 2050 C 190.481 3.45411 -3.91776 0
M  V30 2051 H 192.175 1.7629 -2.41997 0
M  V30 2052 H 189.721 0.846721 -1.16476 0
M  V30 2053 H 191.674 3.97528 -1.39821 0
M  V30 2054 H 190.398 3.24204 -0.394907 0
M  V30 2055 H 189.057 2.71657 -2.46166 0
M  V30 2056 H 188.705 4.87337 -1.24547 0
M  V30 2057 H 188.405 5.0573 -2.99184 0
M  V30 2058 H 189.929 5.66312 -2.28304 0
M  V30 2059 H 191.343 4.13882 -3.96705 0
M  V30 2060 H 189.74 3.77145 -4.66778 0
M  V30 2061 H 190.81 2.44122 -4.18966 0
M  V30 2062 N 192.153 1.28127 0.917671 0
M  V30 2063 C 193.116 1.11744 2.00115 0
M  V30 2064 C 194.116 0.0583052 1.60694 0
M  V30 2065 O 195.306 0.303755 1.71531 0
M  V30 2066 C 192.438 0.704862 3.33533 0
M  V30 2067 H 193.631 2.07966 2.16079 0
M  V30 2068 H 191.184 1.11058 1.09981 0
M  V30 2069 H 191.919 -0.258299 3.2327 0
M  V30 2070 H 191.704 1.4699 3.63505 0
M  V30 2071 H 193.194 0.612768 4.1308 0
M  V30 2072 N 193.631 -1.12557 1.10312 0
M  V30 2073 C 194.878 -1.84038 0.844759 0
M  V30 2074 C 195.206 -1.84026 -0.629668 0
M  V30 2075 O 194.461 -1.28026 -1.48013 0
M  V30 2076 C 194.76 -3.31462 1.33669 0
M  V30 2077 C 194.426 -3.51647 2.82232 0
M  V30 2078 C 193.088 -3.56864 3.22802 0
M  V30 2079 C 195.44 -3.58867 3.77974 0
M  V30 2080 C 192.768 -3.66844 4.57867 0
M  V30 2081 C 195.12 -3.70375 5.1284 0
M  V30 2082 C 193.784 -3.73848 5.52986 0
M  V30 2083 H 193.054 -0.673444 0.309119 0
M  V30 2084 H 195.701 -1.32824 1.37949 0
M  V30 2085 H 194.006 -3.85091 0.721949 0
M  V30 2086 H 195.703 -3.85236 1.11329 0
M  V30 2087 H 192.293 -3.48249 2.49842 0
M  V30 2088 H 196.477 -3.54107 3.47738 0
M  V30 2089 H 191.733 -3.67804 4.88396 0
M  V30 2090 H 195.907 -3.74904 5.86873 0
M  V30 2091 H 193.534 -3.81333 6.57639 0
M  V30 2092 N 195.109 -0.891671 -1.2995 0
M  V30 2093 C 196.355 -0.514261 -1.96171 0
M  V30 2094 C 196.688 0.935506 -1.70182 0
M  V30 2095 O 195.963 1.66204 -1.01028 0
M  V30 2096 C 196.246 -0.797719 -3.51153 0
M  V30 2097 C 196.099 -2.2986 -3.86632 0
M  V30 2098 C 197.418 -0.278749 -4.39216 0
M  V30 2099 H 194.537 -0.188314 -0.712535 0
M  V30 2100 H 197.179 -1.11689 -1.53706 0
M  V30 2101 H 195.329 -0.284826 -3.87455 0
M  V30 2102 H 197.001 -2.88042 -3.60319 0
M  V30 2103 H 195.244 -2.76257 -3.34462 0
M  V30 2104 H 195.915 -2.44753 -4.94773 0
M  V30 2105 H 198.391 -0.717825 -4.09862 0
M  V30 2106 H 197.267 -0.506353 -5.46559 0
M  V30 2107 H 197.528 0.820266 -4.34424 0
M  V30 2108 N 196.587 1.43421 -0.653314 0
M  V30 2109 C 197.812 2.06678 -0.172846 0
M  V30 2110 C 198.237 1.48648 1.15262 0
M  V30 2111 O 197.595 0.596457 1.71208 0
M  V30 2112 C 197.643 3.60474 -0.0953184 0
M  V30 2113 O 196.747 4.01487 0.942442 0
M  V30 2114 H 196.088 0.657181 -0.0949155 0
M  V30 2115 H 198.618 1.83925 -0.896265 0
M  V30 2116 H 198.628 4.07905 0.0879728 0
M  V30 2117 H 197.303 4.02088 -1.06291 0
M  V30 2118 H 195.88 3.65646 0.731932 0
M  V30 2119 N 198.065 0.39524 1.52563 0
M  V30 2120 C 199.313 -0.184678 2.01254 0
M  V30 2121 C 199.634 -1.46822 1.28329 0
M  V30 2122 O 198.904 -1.91666 0.405094 0
M  V30 2123 H 197.484 -0.0712355 0.743596 0
M  V30 2124 H 200.146 0.528293 1.87603 0
M  V30 2125 H 199.242 -0.390681 3.09645 0
M  V30 2126 N 199.544 -1.57102 0.125237 0
M  V30 2127 C 200.793 -1.94582 -0.531095 0
M  V30 2128 C 201.106 -1.01126 -1.6743 0
M  V30 2129 O 202.312 -1.28097 -2.39381 0
M  V30 2130 C 200.768 -3.45839 -0.996164 0
M  V30 2131 C 200.376 -4.47842 0.118926 0
M  V30 2132 C 202.12 -3.92227 -1.62352 0
M  V30 2133 C 200.027 -5.90284 -0.363192 0
M  V30 2134 H 198.957 -0.726391 -0.20217 0
M  V30 2135 H 201.608 -1.82339 0.206092 0
M  V30 2136 H 199.99 -3.53338 -1.78796 0
M  V30 2137 H 201.164 -4.52018 0.895358 0
M  V30 2138 H 199.479 -4.11243 0.653324 0
M  V30 2139 H 202.076 -4.96069 -1.99548 0
M  V30 2140 H 202.419 -3.32552 -2.50429 0
M  V30 2141 H 202.952 -3.87554 -0.897019 0
M  V30 2142 H 199.691 -6.53728 0.481679 0
M  V30 2143 H 199.211 -5.89515 -1.10597 0
M  V30 2144 H 200.89 -6.41752 -0.822377 0
M  V30 2145 N 201.022 0.148545 -1.56898 0
M  V30 2146 C 202.269 0.861418 -1.83264 0
M  V30 2147 C 202.597 1.81239 -0.705883 0
M  V30 2148 O 201.852 1.93305 0.305212 0
M  V30 2149 C 202.151 1.67064 -3.1595 0
M  V30 2150 C 201.817 0.866591 -4.42494 0
M  V30 2151 C 200.479 0.644762 -4.76861 0
M  V30 2152 C 202.831 0.30418 -5.20312 0
M  V30 2153 C 200.159 -0.15021 -5.86508 0
M  V30 2154 C 202.511 -0.477824 -6.30793 0
M  V30 2155 C 201.175 -0.710244 -6.63711 0
M  V30 2156 H 200.445 0.315215 -0.670612 0
M  V30 2157 H 203.092 0.125142 -1.91091 0
M  V30 2158 H 201.397 2.47698 -3.03567 0
M  V30 2159 H 203.094 2.22566 -3.33565 0
M  V30 2160 H 199.684 1.04955 -4.15551 0
M  V30 2161 H 203.868 0.462844 -4.94137 0
M  V30 2162 H 199.124 -0.339796 -6.10455 0
M  V30 2163 H 203.298 -0.92076 -6.90286 0
M  V30 2164 H 200.925 -1.3281 -7.48509 0
M  V30 2165 N 202.5 1.5196 0.417844 0
M  V30 2166 C 203.747 1.65591 1.16559 0
M  V30 2167 C 204.075 0.381565 1.90721 0
M  V30 2168 O 203.33 -0.635156 1.85106 0
M  V30 2169 C 203.629 2.82269 2.19223 0
M  V30 2170 C 203.295 4.20819 1.61933 0
M  V30 2171 C 201.957 4.58506 1.46033 0
M  V30 2172 C 204.309 5.07196 1.20008 0
M  V30 2173 C 201.637 5.80257 0.867113 0
M  V30 2174 C 203.989 6.29544 0.621086 0
M  V30 2175 C 202.653 6.65987 0.449144 0
M  V30 2176 H 201.923 0.605939 0.42652 0
M  V30 2177 H 204.57 1.86041 0.45397 0
M  V30 2178 H 202.875 2.56118 2.96498 0
M  V30 2179 H 204.572 2.90012 2.76936 0
M  V30 2180 H 201.162 3.91116 1.7529 0
M  V30 2181 H 205.346 4.7867 1.31105 0
M  V30 2182 H 200.602 6.07124 0.721833 0
M  V30 2183 H 204.776 6.95805 0.287798 0
M  V30 2184 H 202.403 7.60199 -0.012632 0
M  V30 2185 N 203.978 -0.674533 1.42435 0
M  V30 2186 C 205.227 -1.43034 1.42212 0
M  V30 2187 C 205.54 -1.95555 0.0420788 0
M  V30 2188 O 206.746 -2.71374 -0.0827558 0
M  V30 2189 C 205.202 -2.58748 2.50155 0
M  V30 2190 C 204.81 -2.12925 3.94166 0
M  V30 2191 C 206.554 -3.36257 2.59098 0
M  V30 2192 C 204.461 -3.25723 4.93618 0
M  V30 2193 H 203.391 -0.537345 0.528939 0
M  V30 2194 H 206.042 -0.73024 1.68344 0
M  V30 2195 H 204.424 -3.31128 2.17188 0
M  V30 2196 H 205.598 -1.47697 4.36488 0
M  V30 2197 H 203.913 -1.48354 3.89076 0
M  V30 2198 H 206.51 -4.20264 3.30578 0
M  V30 2199 H 206.853 -3.82866 1.63461 0
M  V30 2200 H 207.386 -2.70947 2.9126 0
M  V30 2201 H 204.125 -2.84105 5.90732 0
M  V30 2202 H 203.645 -3.89732 4.55926 0
M  V30 2203 H 205.324 -3.91186 5.15347 0
M  V30 2204 N 205.456 -1.28612 -0.910864 0
M  V30 2205 C 206.386 -1.15326 -2.03032 0
M  V30 2206 C 207.367 -0.0502924 -1.70026 0
M  V30 2207 O 208.552 -0.227797 -1.92859 0
M  V30 2208 C 205.682 -0.817343 -3.37545 0
M  V30 2209 C 204.636 -1.8754 -3.84724 0
M  V30 2210 C 203.962 -1.39305 -5.16235 0
M  V30 2211 C 205.262 -3.28244 -4.06267 0
M  V30 2212 H 206.956 -2.08975 -2.14406 0
M  V30 2213 H 204.502 -1.00612 -1.03021 0
M  V30 2214 H 206.455 -0.711151 -4.15356 0
M  V30 2215 H 205.179 0.154846 -3.26233 0
M  V30 2216 H 203.838 -1.97079 -3.09121 0
M  V30 2217 H 203.486 -0.409846 -5.01328 0
M  V30 2218 H 203.186 -2.10057 -5.48771 0
M  V30 2219 H 204.71 -1.30014 -5.96598 0
M  V30 2220 H 206.124 -3.21611 -4.74594 0
M  V30 2221 H 204.521 -3.96855 -4.5014 0
M  V30 2222 H 205.591 -3.72048 -3.10979 0
M  V30 2223 N 206.934 1.1197 -1.10907 0
M  V30 2224 C 208.159 1.87942 -0.877064 0
M  V30 2225 C 208.584 1.79341 0.567314 0
M  V30 2226 O 207.942 1.15184 1.40009 0
M  V30 2227 C 207.99 3.34926 -1.33629 0
M  V30 2228 O 207.094 4.09303 -0.504447 0
M  V30 2229 H 206.435 0.583785 -0.316371 0
M  V30 2230 H 208.965 1.4157 -1.47712 0
M  V30 2231 H 208.975 3.8577 -1.32837 0
M  V30 2232 H 207.65 3.40504 -2.3881 0
M  V30 2233 H 206.227 3.68393 -0.577993 0
M  V30 2234 N 208.412 0.89855 1.29475 0
M  V30 2235 C 209.66 0.522847 1.9522 0
M  V30 2236 C 209.981 -0.93371 1.71192 0
M  V30 2237 O 209.251 -1.65823 1.04305 0
M  V30 2238 H 207.831 0.190366 0.722336 0
M  V30 2239 H 210.493 1.14459 1.5775 0
M  V30 2240 H 209.589 0.704476 3.04045 0
M  V30 2241 N 209.89 -1.43072 0.660911 0
M  V30 2242 C 210.82 -2.33497 -0.0122829 0
M  V30 2243 C 211.801 -1.49903 -0.803925 0
M  V30 2244 O 212.986 -1.78546 -0.763864 0
M  V30 2245 C 210.116 -3.33363 -0.973994 0
M  V30 2246 C 209.07 -4.27003 -0.291928 0
M  V30 2247 C 208.396 -5.16967 -1.36562 0
M  V30 2248 C 209.696 -5.15816 0.820462 0
M  V30 2249 H 211.39 -2.90038 0.742873 0
M  V30 2250 H 208.936 -1.39461 0.358688 0
M  V30 2251 H 210.889 -3.95524 -1.45392 0
M  V30 2252 H 209.613 -2.75095 -1.7604 0
M  V30 2253 H 208.272 -3.66217 0.167623 0
M  V30 2254 H 207.92 -4.55034 -2.14366 0
M  V30 2255 H 207.62 -5.80441 -0.914454 0
M  V30 2256 H 209.144 -5.82003 -1.84675 0
M  V30 2257 H 210.558 -5.71742 0.422366 0
M  V30 2258 H 208.955 -5.8805 1.19656 0
M  V30 2259 H 210.025 -4.55045 1.67518 0
M  V30 2260 N 211.368 -0.403325 -1.52352 0
M  V30 2261 C 212.593 0.176499 -2.06648 0
M  V30 2262 C 213.018 1.38577 -1.27193 0
M  V30 2263 O 212.376 1.7879 -0.300637 0
M  V30 2264 C 212.424 0.511061 -3.5696 0
M  V30 2265 O 211.528 1.60294 -3.79973 0
M  V30 2266 H 210.869 0.0167337 -0.663789 0
M  V30 2267 H 213.399 -0.574848 -1.96359 0
M  V30 2268 H 213.409 0.771362 -4.00642 0
M  V30 2269 H 212.084 -0.37296 -4.14224 0
M  V30 2270 H 210.661 1.33526 -3.48174 0
M  V30 2271 N 212.846 1.57033 -0.133567 0
M  V30 2272 C 213.776 2.1909 0.807567 0
M  V30 2273 C 214.757 1.13517 1.26681 0
M  V30 2274 O 215.942 1.41809 1.32679 0
M  V30 2275 C 213.072 2.80188 2.05212 0
M  V30 2276 C 212.026 3.91471 1.73015 0
M  V30 2277 C 211.352 4.39443 3.04622 0
M  V30 2278 C 212.652 5.12886 0.987168 0
M  V30 2279 H 214.346 2.97988 0.290403 0
M  V30 2280 H 211.892 1.43335 0.138239 0
M  V30 2281 H 213.845 3.22264 2.71521 0
M  V30 2282 H 212.569 1.98601 2.59278 0
M  V30 2283 H 211.228 3.49993 1.0909 0
M  V30 2284 H 210.876 3.54695 3.56651 0
M  V30 2285 H 210.576 5.14495 2.83847 0
M  V30 2286 H 212.1 4.8418 3.72024 0
M  V30 2287 H 213.514 5.51891 1.55208 0
M  V30 2288 H 211.911 5.93615 0.87985 0
M  V30 2289 H 212.981 4.84894 -0.0235286 0
M  V30 2290 N 214.325 -0.140222 1.56975 0
M  V30 2291 C 215.571 -0.852949 1.83991 0
M  V30 2292 C 215.904 -1.80512 0.716187 0
M  V30 2293 O 215.179 -1.92479 -0.279681 0
M  V30 2294 C 215.462 -1.6215 3.21527 0
M  V30 2295 C 215.315 -0.690363 4.4447 0
M  V30 2296 C 216.634 -2.58247 3.56366 0
M  V30 2297 H 213.753 -0.308634 0.669264 0
M  V30 2298 H 216.395 -0.117898 1.89634 0
M  V30 2299 H 214.545 -2.24812 3.16847 0
M  V30 2300 H 216.217 -0.0742264 4.6124 0
M  V30 2301 H 214.46 -0.000396433 4.338 0
M  V30 2302 H 215.131 -1.2643 5.37326 0
M  V30 2303 H 217.607 -2.05701 3.61699 0
M  V30 2304 H 216.483 -3.09067 4.53617 0
M  V30 2305 H 216.744 -3.39923 2.82674 0
M  V30 2306 N 215.803 -1.52179 -0.40978 0
M  V30 2307 C 217.049 -1.66453 -1.15851 0
M  V30 2308 C 217.382 -0.392972 -1.90182 0
M  V30 2309 O 216.657 0.608579 -1.84734 0
M  V30 2310 C 216.94 -2.88612 -2.15349 0
M  V30 2311 C 216.793 -4.25815 -1.44918 0
M  V30 2312 C 218.112 -3.06294 -3.16026 0
M  V30 2313 H 215.231 -0.60575 -0.419805 0
M  V30 2314 H 217.873 -1.84732 -0.444314 0
M  V30 2315 H 216.023 -2.73158 -2.76255 0
M  V30 2316 H 217.695 -4.52995 -0.871365 0
M  V30 2317 H 215.938 -4.27247 -0.751159 0
M  V30 2318 H 216.609 -5.07337 -2.17516 0
M  V30 2319 H 219.085 -3.20641 -2.65195 0
M  V30 2320 H 217.961 -3.93283 -3.8291 0
M  V30 2321 H 218.222 -2.19579 -3.83715 0
M  V30 2322 N 217.281 0.66697 -1.42791 0
M  V30 2323 C 218.529 1.42417 -1.43394 0
M  V30 2324 C 218.85 1.94925 -0.0542373 0
M  V30 2325 O 218.12 1.73564 0.908415 0
M  V30 2326 H 216.7 0.528515 -0.527902 0
M  V30 2327 H 219.362 0.787562 -1.78279 0
M  V30 2328 H 218.458 2.27333 -2.13837 0
M  V30 2329 N 218.759 1.29093 0.90403 0
M  V30 2330 C 219.689 1.16401 2.02418 0
M  V30 2331 C 220.67 0.0593085 1.69997 0
M  V30 2332 O 221.855 0.238021 1.92736 0
M  V30 2333 C 218.985 0.835233 3.37107 0
M  V30 2334 C 217.939 1.89578 3.83724 0
M  V30 2335 C 217.265 1.42041 5.15489 0
M  V30 2336 C 218.565 3.30394 4.04521 0
M  V30 2337 H 220.259 2.10109 2.13295 0
M  V30 2338 H 217.805 1.01157 1.02486 0
M  V30 2339 H 219.758 0.733169 4.14973 0
M  V30 2340 H 218.482 -0.137543 3.2631 0
M  V30 2341 H 217.141 1.98715 3.08071 0
M  V30 2342 H 216.789 0.436426 5.01103 0
M  V30 2343 H 216.489 2.12964 5.4765 0
M  V30 2344 H 218.013 1.33176 5.959 0
M  V30 2345 H 219.427 3.24123 4.72882 0
M  V30 2346 H 217.824 3.99237 4.48029 0
M  V30 2347 H 218.894 3.73692 3.09002 0
M  V30 2348 N 220.237 -1.11381 1.11499 0
M  V30 2349 C 221.483 -1.83403 0.865512 0
M  V30 2350 C 221.816 -1.84459 -0.607329 0
M  V30 2351 O 221.091 -1.29811 -1.44842 0
M  V30 2352 C 221.374 -3.30552 1.42855 0
M  V30 2353 C 221.227 -3.37886 2.96906 0
M  V30 2354 C 222.546 -4.26643 1.08 0
M  V30 2355 H 219.665 -0.665879 0.31587 0
M  V30 2356 H 222.307 -1.30601 1.37998 0
M  V30 2357 H 220.457 -3.75648 0.990985 0
M  V30 2358 H 222.129 -3.01343 3.49271 0
M  V30 2359 H 220.372 -2.78088 3.32941 0
M  V30 2360 H 221.043 -4.41458 3.31389 0
M  V30 2361 H 223.519 -3.89729 1.45775 0
M  V30 2362 H 222.395 -5.27986 1.50072 0
M  V30 2363 H 222.656 -4.42099 -0.00915037 0
M  V30 2364 N 221.715 -0.905404 -1.28997 0
M  V30 2365 C 222.645 -0.404212 -2.29975 0
M  V30 2366 C 223.626 0.523784 -1.61835 0
M  V30 2367 O 224.811 0.433298 -1.89304 0
M  V30 2368 C 221.941 0.364042 -3.45387 0
M  V30 2369 C 220.895 -0.474048 -4.25367 0
M  V30 2370 C 220.221 0.422045 -5.33032 0
M  V30 2371 C 221.521 -1.72696 -4.92923 0
M  V30 2372 H 223.215 -1.24807 -2.72146 0
M  V30 2373 H 220.761 -0.601585 -1.30832 0
M  V30 2374 H 222.714 0.725447 -4.15109 0
M  V30 2375 H 221.438 1.24174 -3.02074 0
M  V30 2376 H 220.097 -0.81786 -3.57361 0
M  V30 2377 H 219.745 1.29804 -4.85963 0
M  V30 2378 H 219.445 -0.135057 -5.87445 0
M  V30 2379 H 220.969 0.779517 -6.05604 0
M  V30 2380 H 222.383 -1.43495 -5.55051 0
M  V30 2381 H 220.78 -2.22582 -5.57295 0
M  V30 2382 H 221.85 -2.45964 -4.17887 0
M  V30 2383 N 223.193 1.4272 -0.668489 0
M  V30 2384 C 224.423 2.05668 -0.196063 0
M  V30 2385 C 224.831 1.5028 1.14946 0
M  V30 2386 O 224.174 0.6348 1.72383 0
M  V30 2387 C 224.236 3.59469 -0.0468879 0
M  V30 2388 C 223.9 4.37518 -1.32012 0
M  V30 2389 C 224.897 4.68584 -2.25222 0
M  V30 2390 C 222.582 4.77266 -1.56596 0
M  V30 2391 C 224.576 5.38326 -3.41297 0
M  V30 2392 C 222.263 5.4675 -2.72962 0
M  V30 2393 C 223.261 5.77204 -3.65137 0
M  V30 2394 O 222.949 6.45264 -4.79468 0
M  V30 2395 H 222.681 0.669382 -0.0943599 0
M  V30 2396 H 225.235 1.83954 -0.913788 0
M  V30 2397 H 223.465 3.79817 0.726357 0
M  V30 2398 H 225.154 4.04071 0.384852 0
M  V30 2399 H 225.92 4.38382 -2.07477 0
M  V30 2400 H 221.799 4.52959 -0.857249 0
M  V30 2401 H 225.343 5.62014 -4.13263 0
M  V30 2402 H 221.24 5.76369 -2.90635 0
M  V30 2403 H 222.008 6.63753 -4.78931 0
M  V30 2404 N 224.671 0.411399 1.52136 0
M  V30 2405 C 225.92 -0.165009 2.01024 0
M  V30 2406 C 226.233 -1.4603 1.30133 0
M  V30 2407 O 227.439 -2.1181 1.69849 0
M  V30 2408 C 225.895 -0.344618 3.58246 0
M  V30 2409 C 225.503 0.938716 4.38055 0
M  V30 2410 C 227.247 -0.876195 4.15359 0
M  V30 2411 C 225.154 0.726172 5.86925 0
M  V30 2412 H 224.084 -0.0654407 0.751155 0
M  V30 2413 H 226.735 0.537192 1.75461 0
M  V30 2414 H 225.117 -1.10921 3.80148 0
M  V30 2415 H 226.291 1.70963 4.27912 0
M  V30 2416 H 224.606 1.39688 3.92271 0
M  V30 2417 H 227.203 -1.05128 5.24263 0
M  V30 2418 H 227.546 -1.85152 3.7286 0
M  V30 2419 H 228.079 -0.170607 3.97434 0
M  V30 2420 H 224.818 1.67312 6.33788 0
M  V30 2421 H 224.338 -0.00540283 5.998 0
M  V30 2422 H 226.017 0.369231 6.45946 0
M  V30 2423 N 226.149 -1.5696 0.141893 0
M  V30 2424 C 227.374 -2.00754 -0.520838 0
M  V30 2425 C 227.799 -1.0213 -1.57959 0
M  V30 2426 O 227.157 0.00371324 -1.813 0
M  V30 2427 C 227.205 -3.43318 -1.10294 0
M  V30 2428 O 226.309 -3.47679 -2.21795 0
M  V30 2429 H 225.65 -0.651564 -0.127908 0
M  V30 2430 H 228.18 -2.03221 0.23712 0
M  V30 2431 H 228.19 -3.82012 -1.43287 0
M  V30 2432 H 226.865 -4.14608 -0.327574 0
M  V30 2433 H 225.442 -3.20824 -1.9007 0
M  V30 2434 N 227.627 0.131896 -1.57047 0
M  V30 2435 C 228.852 0.860418 -1.8871 0
M  V30 2436 C 229.277 1.73251 -0.73251 0
M  V30 2437 O 228.635 1.785 0.317429 0
M  V30 2438 C 228.683 1.68047 -3.19049 0
M  V30 2439 O 227.787 2.7862 -3.04047 0
M  V30 2440 H 227.128 0.238743 -0.619595 0
M  V30 2441 H 229.658 0.118169 -2.04258 0
M  V30 2442 H 229.668 2.07238 -3.51449 0
M  V30 2443 H 228.343 1.04018 -4.02682 0
M  V30 2444 H 226.92 2.42726 -2.83088 0
M  V30 2445 N 229.106 1.52395 0.401703 0
M  V30 2446 C 230.355 1.66044 1.14509 0
M  V30 2447 C 230.668 0.400216 1.91462 0
M  V30 2448 O 231.874 0.416632 2.68284 0
M  V30 2449 C 230.33 2.93388 2.0845 0
M  V30 2450 C 229.938 4.26545 1.36978 0
M  V30 2451 C 231.682 3.16402 2.83001 0
M  V30 2452 C 229.589 5.45007 2.29611 0
M  V30 2453 H 228.519 0.618562 0.431158 0
M  V30 2454 H 231.17 1.78886 0.40892 0
M  V30 2455 H 229.552 2.74263 2.8565 0
M  V30 2456 H 230.726 4.56179 0.650916 0
M  V30 2457 H 229.041 4.09692 0.74438 0
M  V30 2458 H 231.638 4.02085 3.52465 0
M  V30 2459 H 231.981 2.30943 3.46368 0
M  V30 2460 H 232.514 3.36034 2.12898 0
M  V30 2461 H 229.253 6.32835 1.70879 0
M  V30 2462 H 228.773 5.19702 2.9945 0
M  V30 2463 H 230.452 5.7838 2.89974 0
M  V30 2464 N 230.584 -0.659388 1.43143 0
M  V30 2465 C 231.532 -1.79374 1.4808 0
M  V30 2466 C 232.526 -1.65639 0.354988 0
M  V30 2467 O 233.732 -1.7206 0.528704 0
M  V30 2468 H 230.107 -0.591705 0.4641 0
M  V30 2469 H 232.078 -1.72329 2.43609 0
M  V30 2470 C 230.827 -3.17606 1.41499 0
M  V30 2471 H 230.15 -3.28809 2.27431 0
M  V30 2472 H 231.59 -3.96951 1.49015 0
M  V30 2473 C 230.049 -3.36642 0.131765 0
M  V30 2474 O 230.579 -3.93461 -0.809386 0
M  V30 2475 N 228.785 -2.90567 0.0439396 0
M  V30 2476 H 228.332 -2.44513 0.810619 0
M  V30 2477 H 228.29 -3.03681 -0.813969 0
M  V30 2478 N 232.062 -1.29571 -0.897171 0
M  V30 2479 C 233.339 -1.08365 -1.62839 0
M  V30 2480 C 233.719 0.371331 -2.07808 0
M  V30 2481 O 233.067 1.3606 -1.83576 0
M  V30 2482 C 233.277 -2.0735 -2.80726 0
M  V30 2483 C 234.625 -2.38406 -3.51351 0
M  V30 2484 O 235.649 -2.05564 -2.90898 0
M  V30 2485 O 234.508 -2.9453 -4.60341 0
M  V30 2486 H 231.602 -0.415345 -0.715134 0
M  V30 2487 H 234.148 -1.40952 -0.945018 0
M  V30 2488 H 232.92 -3.05339 -2.44711 0
M  V30 2489 H 232.543 -1.75507 -3.56767 0
M  V30 2490 N 233.54 1.10788 -1.12088 0
M  V30 2491 C 234.45 2.20599 -0.798338 0
M  V30 2492 C 235.466 1.72712 0.21135 0
M  V30 2493 O 236.642 2.01348 0.0458477 0
M  V30 2494 C 233.707 3.45771 -0.253674 0
M  V30 2495 C 232.768 4.08411 -1.32283 0
M  V30 2496 C 232.001 5.27608 -0.80406 0
M  V30 2497 O 232.224 5.69241 0.363478 0
M  V30 2498 O 231.158 5.8101 -1.57198 0
M  V30 2499 H 234.984 2.50614 -1.7154 0
M  V30 2500 H 232.569 1.19454 -0.897275 0
M  V30 2501 H 234.451 4.21376 0.0453691 0
M  V30 2502 H 233.126 3.1739 0.636005 0
M  V30 2503 H 232.033 3.34507 -1.67499 0
M  V30 2504 H 233.366 4.40986 -2.18614 0
M  V30 2505 N 235.018 0.912232 1.28515 0
M  V30 2506 C 235.951 0.343928 2.25593 0
M  V30 2507 C 236.929 -0.550994 1.5298 0
M  V30 2508 O 238.113 -0.494991 1.81885 0
M  V30 2509 C 235.24 -0.508525 3.34861 0
M  V30 2510 C 234.286 0.320808 4.25292 0
M  V30 2511 S 235.119 1.72658 5.06902 0
M  V30 2512 C 236.275 0.881394 6.19663 0
M  V30 2513 H 236.508 1.16674 2.73449 0
M  V30 2514 H 234.041 0.713384 1.36931 0
M  V30 2515 H 235.999 -0.994539 3.9827 0
M  V30 2516 H 234.66 -1.30571 2.85675 0
M  V30 2517 H 233.853 -0.330941 5.02912 0
M  V30 2518 H 233.455 0.74042 3.66598 0
M  V30 2519 H 235.747 0.110359 6.7741 0
M  V30 2520 H 236.69 1.63009 6.89082 0
M  V30 2521 H 237.098 0.430239 5.62858 0
M  V30 2522 N 236.496 -1.42363 0.676048 0
M  V30 2523 C 237.426 -2.33497 0.0124832 0
M  V30 2524 C 238.407 -1.50748 -0.787981 0
M  V30 2525 O 239.592 -1.79346 -0.744884 0
M  V30 2526 C 236.722 -3.34377 -0.938582 0
M  V30 2527 C 235.676 -4.27289 -0.246622 0
M  V30 2528 C 235.002 -5.18386 -1.31071 0
M  V30 2529 C 236.302 -5.14916 0.875125 0
M  V30 2530 H 237.996 -2.89233 0.773593 0
M  V30 2531 H 235.542 -1.39073 0.37346 0
M  V30 2532 H 237.495 -3.97044 -1.41188 0
M  V30 2533 H 236.219 -2.76947 -1.73113 0
M  V30 2534 H 234.878 -3.66018 0.206456 0
M  V30 2535 H 234.526 -4.57282 -2.09528 0
M  V30 2536 H 234.226 -5.81378 -0.852839 0
M  V30 2537 H 235.75 -5.83929 -1.78492 0
M  V30 2538 H 237.164 -5.71262 0.482983 0
M  V30 2539 H 235.561 -5.86747 1.25887 0
M  V30 2540 H 236.631 -4.53242 1.72335 0
M  V30 2541 N 237.974 -0.419461 -1.51915 0
M  V30 2542 C 238.922 0.415502 -2.28859 0
M  V30 2543 C 239.916 1.03674 -1.3397 0
M  V30 2544 O 241.122 0.973757 -1.51387 0
M  V30 2545 H 237.497 0.152786 -0.736315 0
M  V30 2546 H 239.468 -0.254531 -2.97312 0
M  V30 2547 C 238.217 1.51425 -3.12995 0
M  V30 2548 H 237.54 1.04556 -3.85886 0
M  V30 2549 H 238.98 2.07208 -3.6992 0
M  V30 2550 C 237.439 2.48745 -2.27217 0
M  V30 2551 O 237.969 3.52871 -1.9195 0
M  V30 2552 N 236.175 2.19202 -1.90785 0
M  V30 2553 H 235.722 1.34556 -2.19664 0
M  V30 2554 H 235.68 2.84561 -1.33687 0
M  V30 2555 N 239.452 1.56882 -0.150215 0
M  V30 2556 C 240.868 1.58263 0.20617 0
M  V30 2557 C 241.068 1.16464 1.64434 0
M  V30 2558 O 240.124 0.866422 2.3717 0
M  V30 2559 C 241.437 3.00649 -0.0555025 0
M  V30 2560 C 242.985 3.12999 0.00795388 0
M  V30 2561 C 243.46 4.5744 -0.226429 0
M  V30 2562 N 244.951 4.62875 -0.173469 0
M  V30 2563 C 245.686 5.72454 -0.329288 0
M  V30 2564 N 245.182 6.90669 -0.543005 0
M  V30 2565 N 246.975 5.61467 -0.266666 0
M  V30 2566 H 239.126 1.82345 -1.08922 0
M  V30 2567 H 241.389 0.844149 -0.431413 0
M  V30 2568 H 241.095 3.3563 -1.05096 0
M  V30 2569 H 240.969 3.71337 0.66246 0
M  V30 2570 H 243.356 2.77857 0.993966 0
M  V30 2571 H 243.437 2.4479 -0.742388 0
M  V30 2572 H 243.081 4.93287 -1.20956 0
M  V30 2573 H 243.011 5.2378 0.544274 0
M  V30 2574 H 245.502 3.77898 -0.0130709 0
M  V30 2575 H 245.815 7.70045 -0.651922 0
M  V30 2576 H 244.16 6.92581 -0.579366 0
M  V30 2577 H 247.351 4.67992 -0.100441 0
M  V30 2578 H 247.524 6.46816 -0.391535 0
M  V30 2579 N 240.93 -0.123565 1.57115 0
M  V30 2580 C 242.158 -0.846461 1.88793 0
M  V30 2581 C 242.573 -1.73652 0.740976 0
M  V30 2582 O 241.93 -1.80207 -0.288393 0
M  V30 2583 C 241.981 -1.6837 3.19897 0
M  V30 2584 O 241.702 -0.829477 4.30176 0
M  V30 2585 C 243.203 -2.51214 3.65248 0
M  V30 2586 H 240.423 -0.243573 0.625231 0
M  V30 2587 H 242.967 -0.109324 2.04208 0
M  V30 2588 H 241.122 -2.37364 3.06165 0
M  V30 2589 H 241.536 -1.40651 5.0529 0
M  V30 2590 H 243.01 -3.05497 4.59756 0
M  V30 2591 H 243.487 -3.28359 2.9168 0
M  V30 2592 H 244.093 -1.8747 3.81752 0
M  V30 2593 N 242.408 -1.52605 -0.393616 0
M  V30 2594 C 243.355 -1.77055 -1.48054 0
M  V30 2595 C 244.325 -0.61358 -1.54352 0
M  V30 2596 O 245.51 -0.852806 -1.70681 0
M  V30 2597 C 242.65 -1.94108 -2.85335 0
M  V30 2598 C 241.763 -3.21792 -2.88226 0
M  V30 2599 C 240.898 -3.29188 -4.16904 0
M  V30 2600 C 239.937 -4.51013 -4.13828 0
M  V30 2601 N 239.074 -4.55716 -5.34105 0
M  V30 2602 H 243.914 -2.69815 -1.26506 0
M  V30 2603 H 241.451 -1.33683 -0.61379 0
M  V30 2604 H 243.409 -2.01979 -3.65049 0
M  V30 2605 H 242.039 -1.04713 -3.05344 0
M  V30 2606 H 241.091 -3.23015 -2.00911 0
M  V30 2607 H 242.403 -4.11557 -2.8182 0
M  V30 2608 H 241.557 -3.36216 -5.05018 0
M  V30 2609 H 240.296 -2.37389 -4.26026 0
M  V30 2610 H 239.301 -4.44115 -3.24102 0
M  V30 2611 H 240.526 -5.44123 -4.06333 0
M  V30 2612 H 238.472 -3.66807 -5.43865 0
M  V30 2613 H 238.389 -5.39346 -5.29756 0
M  V30 2614 H 239.657 -4.66993 -6.2413 0
M  V30 2615 N 243.887 0.651787 -1.4349 0
M  V30 2616 C 245.164 1.40909 -1.35661 0
M  V30 2617 C 245.544 2.11099 -0.00511733 0
M  V30 2618 O 244.892 2.04892 1.0115 0
M  V30 2619 C 245.102 2.3926 -2.54078 0
M  V30 2620 C 246.45 3.03217 -2.97228 0
M  V30 2621 O 247.474 2.49588 -2.54135 0
M  V30 2622 O 246.333 4.00455 -3.71885 0
M  V30 2623 H 243.427 0.629625 -0.536191 0
M  V30 2624 H 245.973 0.678575 -1.55542 0
M  V30 2625 H 244.745 1.86352 -3.44076 0
M  V30 2626 H 244.368 3.1976 -2.36303 0
M  V30 2627 N 245.365 1.30045 0.890287 0
M  V30 2628 C 246.328 1.15963 1.977 0
M  V30 2629 C 247.328 0.0923777 1.60534 0
M  V30 2630 O 248.518 0.340071 1.70848 0
M  V30 2631 C 245.65 0.775451 3.31963 0
M  V30 2632 H 246.843 2.12502 2.11619 0
M  V30 2633 H 244.396 1.13366 1.07601 0
M  V30 2634 H 245.131 -0.189671 3.23745 0
M  V30 2635 H 244.916 1.54668 3.60306 0
M  V30 2636 H 246.406 0.700251 4.11687 0
M  V30 2637 N 246.843 -1.10192 1.12674 0
M  V30 2638 C 247.753 -2.20172 0.810026 0
M  V30 2639 C 248.769 -1.72821 -0.202188 0
M  V30 2640 O 249.945 -2.01369 -0.0351691 0
M  V30 2641 C 247.01 -3.45631 0.272007 0
M  V30 2642 C 246.071 -4.07704 1.34447 0
M  V30 2643 C 245.304 -5.27175 0.832029 0
M  V30 2644 O 245.527 -5.69425 -0.333284 0
M  V30 2645 O 244.461 -5.80168 1.60277 0
M  V30 2646 H 248.287 -2.49701 1.72867 0
M  V30 2647 H 245.872 -1.18977 0.903597 0
M  V30 2648 H 247.754 -4.21394 -0.0230219 0
M  V30 2649 H 246.429 -3.17723 -0.619164 0
M  V30 2650 H 245.336 -3.33614 1.6927 0
M  V30 2651 H 246.669 -4.3982 2.2095 0
M  V30 2652 N 248.321 -0.919034 -1.28029 0
M  V30 2653 C 249.549 -0.570971 -1.98866 0
M  V30 2654 C 249.964 0.848996 -1.68634 0
M  V30 2655 O 249.321 1.56307 -0.942036 0
M  V30 2656 C 249.372 -0.776876 -3.53054 0
M  V30 2657 O 249.093 -2.14097 -3.82222 0
M  V30 2658 C 250.594 -0.436356 -4.41147 0
M  V30 2659 H 247.814 -0.217175 -0.634883 0
M  V30 2660 H 250.358 -1.23368 -1.63097 0
M  V30 2661 H 248.513 -0.161085 -3.87065 0
M  V30 2662 H 248.927 -2.18455 -4.76841 0
M  V30 2663 H 250.401 -0.63117 -5.4838 0
M  V30 2664 H 250.878 0.627686 -4.34692 0
M  V30 2665 H 251.484 -1.02991 -4.12641 0
M  V30 2666 N 249.799 1.42003 -0.683588 0
M  V30 2667 C 251.029 2.05448 -0.217866 0
M  V30 2668 C 251.437 1.51491 1.13346 0
M  V30 2669 O 250.78 0.653048 1.717 0
M  V30 2670 C 250.842 3.59399 -0.0850118 0
M  V30 2671 C 250.506 4.36093 -1.36645 0
M  V30 2672 C 251.503 4.66169 -2.30179 0
M  V30 2673 C 249.188 4.75578 -1.61649 0
M  V30 2674 C 251.182 5.34676 -3.46988 0
M  V30 2675 C 248.869 5.43824 -2.78745 0
M  V30 2676 C 249.867 5.73299 -3.71238 0
M  V30 2677 O 249.555 6.40142 -4.86285 0
M  V30 2678 H 249.287 0.668344 -0.101454 0
M  V30 2679 H 251.841 1.82974 -0.933248 0
M  V30 2680 H 250.071 3.80566 0.686031 0
M  V30 2681 H 251.76 4.04457 0.341973 0
M  V30 2682 H 252.526 4.36156 -2.12115 0
M  V30 2683 H 248.405 4.52025 -0.905243 0
M  V30 2684 H 251.949 5.57599 -4.19201 0
M  V30 2685 H 247.846 5.73254 -2.96732 0
M  V30 2686 H 248.614 6.58636 -4.85944 0
M  V30 2687 N 251.277 0.427512 1.51691 0
M  V30 2688 C 252.524 -0.142229 2.02 0
M  V30 2689 C 252.852 -1.43566 1.31221 0
M  V30 2690 O 252.107 -1.91298 0.412744 0
M  V30 2691 C 252.406 -0.418249 3.54944 0
M  V30 2692 C 252.072 0.788187 4.43958 0
M  V30 2693 C 250.734 1.11906 4.68007 0
M  V30 2694 C 253.086 1.59347 4.96244 0
M  V30 2695 C 250.414 2.25608 5.41588 0
M  V30 2696 C 252.766 2.7214 5.71072 0
M  V30 2697 C 251.43 3.05692 5.93387 0
M  V30 2698 H 250.7 -0.0520451 0.73917 0
M  V30 2699 H 253.347 0.572697 1.82736 0
M  V30 2700 H 251.652 -1.21496 3.72486 0
M  V30 2701 H 253.349 -0.872339 3.91397 0
M  V30 2702 H 249.939 0.520344 4.2543 0
M  V30 2703 H 254.123 1.35106 4.77556 0
M  V30 2704 H 249.379 2.51929 5.57083 0
M  V30 2705 H 253.553 3.34914 6.10578 0
M  V30 2706 H 251.18 3.9391 6.50184 0
M  V30 2707 N 252.755 -1.56801 0.158532 0
M  V30 2708 C 253.703 -2.18638 -0.793729 0
M  V30 2709 C 254.697 -1.14669 -1.24689 0
M  V30 2710 O 255.903 -1.32895 -1.21403 0
M  V30 2711 H 252.278 -0.700226 -0.274204 0
M  V30 2712 H 254.249 -2.97367 -0.248095 0
M  V30 2713 C 252.998 -2.83139 -2.0181 0
M  V30 2714 H 252.321 -3.62863 -1.67841 0
M  V30 2715 H 253.761 -3.29894 -2.66357 0
M  V30 2716 C 252.22 -1.82244 -2.83353 0
M  V30 2717 O 252.75 -1.3 -3.80083 0
M  V30 2718 N 250.956 -1.51288 -2.48114 0
M  V30 2719 H 250.503 -1.93964 -1.69516 0
M  V30 2720 H 250.461 -0.840296 -3.02963 0
M  V30 2721 N 254.233 0.115231 -1.57178 0
M  V30 2722 C 255.463 0.835224 -1.88964 0
M  V30 2723 C 255.871 1.73774 -0.74829 0
M  V30 2724 O 255.214 1.81401 0.289739 0
M  V30 2725 C 255.276 1.7178 -3.15804 0
M  V30 2726 C 254.94 0.989198 -4.46166 0
M  V30 2727 C 255.937 0.328263 -5.18863 0
M  V30 2728 C 253.622 0.969256 -4.9286 0
M  V30 2729 C 255.616 -0.342873 -6.36477 0
M  V30 2730 C 253.303 0.294324 -6.10391 0
M  V30 2731 C 254.301 -0.360582 -6.82048 0
M  V30 2732 O 253.989 -1.02474 -7.97342 0
M  V30 2733 H 253.721 0.245197 -0.629964 0
M  V30 2734 H 256.275 0.10303 -2.05141 0
M  V30 2735 H 254.505 2.49173 -2.95719 0
M  V30 2736 H 256.194 2.31255 -3.33581 0
M  V30 2737 H 256.96 0.335263 -4.8384 0
M  V30 2738 H 252.839 1.46844 -4.36987 0
M  V30 2739 H 256.383 -0.854629 -6.92345 0
M  V30 2740 H 252.28 0.285099 -6.4487 0
M  V30 2741 H 253.048 -0.929594 -8.13204 0
M  V30 2742 N 255.711 1.52812 0.385517 0
M  V30 2743 C 256.658 1.77838 1.47113 0
M  V30 2744 C 257.628 0.621757 1.54024 0
M  V30 2745 O 258.813 0.861846 1.70226 0
M  V30 2746 C 255.953 1.95618 2.84302 0
M  V30 2747 C 255.066 3.23316 2.86515 0
M  V30 2748 C 254.201 3.31394 4.15152 0
M  V30 2749 C 253.24 4.53201 4.1143 0
M  V30 2750 N 252.377 4.58542 5.3168 0
M  V30 2751 H 257.217 2.70482 1.25073 0
M  V30 2752 H 254.754 1.34006 0.606692 0
M  V30 2753 H 256.712 2.03912 3.63972 0
M  V30 2754 H 255.342 1.06331 3.04784 0
M  V30 2755 H 254.394 3.24076 1.99195 0
M  V30 2756 H 255.706 4.13045 2.79634 0
M  V30 2757 H 254.86 3.3889 5.03228 0
M  V30 2758 H 253.599 2.39645 4.24761 0
M  V30 2759 H 252.604 4.45827 3.21742 0
M  V30 2760 H 253.829 5.46271 4.03442 0
M  V30 2761 H 251.775 3.69686 5.41912 0
M  V30 2762 H 251.692 5.42148 5.26889 0
M  V30 2763 H 252.96 4.70296 6.21644 0
M  V30 2764 N 257.189 -0.644168 1.43834 0
M  V30 2765 C 258.419 -1.42939 1.49171 0
M  V30 2766 C 258.827 -1.88874 0.111048 0
M  V30 2767 O 258.17 -1.60656 -0.8908 0
M  V30 2768 C 258.232 -2.69151 2.38324 0
M  V30 2769 C 257.896 -2.45097 3.85715 0
M  V30 2770 C 258.893 -2.07747 4.76589 0
M  V30 2771 C 256.578 -2.59141 4.30292 0
M  V30 2772 C 258.572 -1.8475 6.10038 0
M  V30 2773 C 256.259 -2.35759 5.63792 0
M  V30 2774 C 257.257 -1.9862 6.53482 0
M  V30 2775 O 256.945 -1.75489 7.84512 0
M  V30 2776 H 256.677 -0.445271 0.508635 0
M  V30 2777 H 259.231 -0.79621 1.8934 0
M  V30 2778 H 257.461 -3.3506 1.93058 0
M  V30 2779 H 259.15 -3.31123 2.3476 0
M  V30 2780 H 259.916 -1.96465 4.43426 0
M  V30 2781 H 255.795 -2.87022 3.60749 0
M  V30 2782 H 259.339 -1.55686 6.80006 0
M  V30 2783 H 255.236 -2.46646 5.9652 0
M  V30 2784 H 256.004 -1.89841 7.9618 0
M  V30 2785 N 258.668 -1.30515 -0.883378 0
M  V30 2786 C 259.916 -1.19194 -1.63209 0
M  V30 2787 C 260.237 0.253205 -1.93349 0
M  V30 2788 O 259.507 1.17025 -1.57105 0
M  V30 2789 H 258.087 -0.438148 -0.605009 0
M  V30 2790 H 260.749 -1.63663 -1.05832 0
M  V30 2791 H 259.845 -1.75396 -2.58153 0
M  V30 2792 N 260.146 1.09593 -1.13257 0
M  V30 2793 C 261.392 1.82181 -0.904521 0
M  V30 2794 C 261.747 1.83967 0.563358 0
M  V30 2795 O 261.04 1.29566 1.41149 0
M  V30 2796 C 261.234 3.27802 -1.42411 0
M  V30 2797 C 261.063 3.40201 -2.94097 0
M  V30 2798 C 259.833 3.52104 -3.62424 0
M  V30 2799 C 262.031 3.32875 -3.92044 0
M  V30 2800 N 260.013 3.53169 -5.0214 0
M  V30 2801 C 261.384 3.40789 -5.17941 0
M  V30 2802 C 263.439 3.16531 -3.84334 0
M  V30 2803 C 262.142 3.34042 -6.37031 0
M  V30 2804 C 264.168 3.11109 -5.02956 0
M  V30 2805 C 263.53 3.19614 -6.27715 0
M  V30 2806 H 259.629 0.681015 -0.384373 0
M  V30 2807 H 262.213 1.3099 -1.44048 0
M  V30 2808 H 260.384 3.77466 -0.915086 0
M  V30 2809 H 262.116 3.88393 -1.13722 0
M  V30 2810 H 258.871 3.5548 -3.12939 0
M  V30 2811 H 259.295 3.57291 -5.75041 0
M  V30 2812 H 263.937 3.08827 -2.88766 0
M  V30 2813 H 261.655 3.4051 -7.32857 0
M  V30 2814 H 265.241 2.99601 -4.98729 0
M  V30 2815 H 264.121 3.15432 -7.17964 0
M  V30 2816 N 261.624 0.925811 1.2754 0
M  V30 2817 C 262.849 0.580924 1.99098 0
M  V30 2818 C 263.274 -0.833555 1.68622 0
M  V30 2819 O 262.632 -1.55903 0.925422 0
M  V30 2820 C 262.68 0.811186 3.51358 0
M  V30 2821 O 261.784 -0.124129 4.12213 0
M  V30 2822 H 261.125 0.223873 0.625122 0
M  V30 2823 H 263.655 1.24455 1.62395 0
M  V30 2824 H 263.665 0.72601 4.01489 0
M  V30 2825 H 262.34 1.84227 3.72872 0
M  V30 2826 H 260.917 0.0108006 3.72898 0
M  V30 2827 N 263.102 -1.41638 0.69111 0
M  V30 2828 C 264.349 -2.01299 0.220193 0
M  V30 2829 C 264.677 -1.54715 -1.17871 0
M  V30 2830 O 263.932 -0.747193 -1.80874 0
M  V30 2831 C 264.231 -3.56714 0.221277 0
M  V30 2832 C 263.897 -4.22792 1.56709 0
M  V30 2833 C 262.559 -4.40557 1.93554 0
M  V30 2834 C 264.911 -4.59883 2.45268 0
M  V30 2835 C 262.239 -4.92688 3.18552 0
M  V30 2836 C 264.591 -5.13403 3.69595 0
M  V30 2837 C 263.255 -5.29379 4.06589 0
M  V30 2838 H 262.525 -0.736606 0.0805743 0
M  V30 2839 H 265.172 -1.69598 0.889319 0
M  V30 2840 H 263.477 -3.8818 -0.531391 0
M  V30 2841 H 265.174 -4.00678 -0.160547 0
M  V30 2842 H 261.764 -4.09336 1.2705 0
M  V30 2843 H 265.948 -4.45817 2.18084 0
M  V30 2844 H 261.204 -5.03242 3.47214 0
M  V30 2845 H 265.378 -5.41084 4.38407 0
M  V30 2846 H 263.005 -5.69537 5.03519 0
M  V30 2847 N 264.58 -0.43555 -1.51462 0
M  V30 2848 C 265.543 0.365137 -2.26273 0
M  V30 2849 C 266.543 0.951227 -1.29647 0
M  V30 2850 O 267.733 0.825958 -1.53374 0
M  V30 2851 C 264.865 1.51645 -3.05314 0
M  V30 2852 H 266.058 -0.290474 -2.9849 0
M  V30 2853 H 263.611 -0.188676 -1.55157 0
M  V30 2854 H 264.346 2.20816 -2.3751 0
M  V30 2855 H 264.131 1.10238 -3.76284 0
M  V30 2856 H 265.621 2.08218 -3.61987 0
M  V30 2857 N 266.058 1.56714 -0.166846 0
M  V30 2858 C 267.305 1.96747 0.479252 0
M  V30 2859 C 267.633 1.05263 1.63554 0
M  V30 2860 O 266.888 0.0858098 1.95512 0
M  V30 2861 C 267.187 3.42889 1.00806 0
M  V30 2862 C 266.853 4.50889 -0.0318574 0
M  V30 2863 C 265.515 4.8015 -0.317675 0
M  V30 2864 C 267.867 5.15949 -0.737956 0
M  V30 2865 C 265.195 5.71772 -1.31506 0
M  V30 2866 C 267.547 6.08647 -1.72429 0
M  V30 2867 C 266.211 6.36277 -2.0176 0
M  V30 2868 H 265.481 0.719949 0.175371 0
M  V30 2869 H 268.128 1.89756 -0.257864 0
M  V30 2870 H 266.433 3.4681 1.82291 0
M  V30 2871 H 268.13 3.71203 1.51689 0
M  V30 2872 H 264.72 4.28128 0.201088 0
M  V30 2873 H 268.904 4.93458 -0.530351 0
M  V30 2874 H 264.16 5.91465 -1.54853 0
M  V30 2875 H 268.334 6.58129 -2.27682 0
M  V30 2876 H 265.961 7.07075 -2.79194 0
M  V30 2877 N 267.536 -0.106894 1.57237 0
M  V30 2878 C 268.499 -1.11466 2.0027 0
M  V30 2879 C 269.499 -1.33623 0.894519 0
M  V30 2880 O 270.689 -1.29935 1.16028 0
M  V30 2881 C 267.821 -2.46646 2.35327 0
M  V30 2882 H 269.014 -0.744516 2.90512 0
M  V30 2883 H 266.567 -0.351576 1.52295 0
M  V30 2884 H 267.302 -2.88558 1.48003 0
M  V30 2885 H 267.087 -2.31915 3.16161 0
M  V30 2886 H 268.577 -3.19151 2.69318 0
M  V30 2887 N 269.014 -1.53014 -0.377408 0
M  V30 2888 C 269.977 -1.77957 -1.44444 0
M  V30 2889 C 270.977 -0.649763 -1.47087 0
M  V30 2890 O 272.167 -0.917897 -1.48055 0
M  V30 2891 C 269.299 -1.89089 -2.83651 0
M  V30 2892 H 270.492 -2.73243 -1.23606 0
M  V30 2893 H 268.045 -1.43912 -0.609844 0
M  V30 2894 H 268.78 -0.958293 -3.09818 0
M  V30 2895 H 268.565 -2.71254 -2.83132 0
M  V30 2896 H 270.055 -2.1002 -3.60945 0
M  V30 2897 N 270.492 0.636531 -1.44174 0
M  V30 2898 C 271.741 1.39213 -1.45954 0
M  V30 2899 C 272.054 1.95374 -0.0939119 0
M  V30 2900 O 273.26 2.71498 0.0107767 0
M  V30 2901 C 271.716 2.52025 -2.56927 0
M  V30 2902 C 271.324 2.024 -3.99673 0
M  V30 2903 C 273.068 3.29269 -2.67922 0
M  V30 2904 C 270.975 3.12521 -5.0208 0
M  V30 2905 H 269.905 0.523132 -0.542999 0
M  V30 2906 H 272.556 0.685349 -1.70221 0
M  V30 2907 H 270.938 3.25253 -2.25891 0
M  V30 2908 H 272.112 1.36073 -4.40251 0
M  V30 2909 H 270.427 1.37987 -3.92872 0
M  V30 2910 H 273.024 4.11352 -3.41605 0
M  V30 2911 H 273.367 3.78397 -1.73555 0
M  V30 2912 H 273.9 2.63129 -2.98342 0
M  V30 2913 H 270.639 2.68343 -5.98057 0
M  V30 2914 H 270.159 3.77507 -4.66099 0
M  V30 2915 H 271.838 3.77385 -5.25538 0
M  V30 2916 N 271.97 1.30982 0.876444 0
M  V30 2917 C 273.195 1.23373 1.66715 0
M  V30 2918 C 273.62 -0.19885 1.87046 0
M  V30 2919 O 272.978 -1.1427 1.40756 0
M  V30 2920 C 273.026 1.97644 3.01611 0
M  V30 2921 O 272.13 1.30935 3.91062 0
M  V30 2922 H 271.471 0.426279 0.509099 0
M  V30 2923 H 274.001 1.72944 1.09323 0
M  V30 2924 H 274.011 2.06992 3.51594 0
M  V30 2925 H 272.686 3.01829 2.86133 0
M  V30 2926 H 271.263 1.29996 3.49507 0
M  V30 2927 N 273.449 -1.08991 1.13837 0
M  V30 2928 C 274.696 -1.81258 0.902882 0
M  V30 2929 C 275.024 -1.85936 -0.570803 0
M  V30 2930 O 274.279 -1.3267 -1.43865 0
M  V30 2931 C 274.578 -3.27042 1.44147 0
M  V30 2932 C 274.244 -3.4249 2.93276 0
M  V30 2933 C 272.906 -3.46414 3.33992 0
M  V30 2934 C 275.258 -3.4666 3.892 0
M  V30 2935 C 272.586 -3.52091 4.69307 0
M  V30 2936 C 274.938 -3.53872 5.24364 0
M  V30 2937 C 273.602 -3.56066 5.646 0
M  V30 2938 H 272.872 -0.663268 0.330388 0
M  V30 2939 H 275.519 -1.28368 1.42105 0
M  V30 2940 H 273.824 -3.82599 0.844097 0
M  V30 2941 H 275.521 -3.81499 1.23528 0
M  V30 2942 H 272.111 -3.40124 2.60794 0
M  V30 2943 H 276.295 -3.42865 3.58828 0
M  V30 2944 H 271.551 -3.52079 4.9985 0
M  V30 2945 H 275.725 -3.56043 5.98503 0
M  V30 2946 H 273.352 -3.60218 6.69438 0
M  V30 2947 N 274.927 -0.932562 -1.27047 0
M  V30 2948 C 275.857 -0.452902 -2.29066 0
M  V30 2949 C 276.838 0.489338 -1.62909 0
M  V30 2950 O 278.023 0.393046 -1.90181 0
M  V30 2951 C 275.153 0.290698 -3.46081 0
M  V30 2952 C 274.107 -0.564168 -4.24265 0
M  V30 2953 C 273.433 0.308886 -5.33807 0
M  V30 2954 C 274.733 -1.83112 -4.89149 0
M  V30 2955 H 276.427 -1.30552 -2.69437 0
M  V30 2956 H 273.973 -0.629201 -1.29526 0
M  V30 2957 H 275.926 0.637233 -4.16554 0
M  V30 2958 H 274.65 1.17738 -3.0464 0
M  V30 2959 H 273.309 -0.893477 -3.55545 0
M  V30 2960 H 272.957 1.19467 -4.88607 0
M  V30 2961 H 272.657 -0.259633 -5.87026 0
M  V30 2962 H 274.181 0.650884 -6.07121 0
M  V30 2963 H 275.595 -1.55236 -5.51883 0
M  V30 2964 H 273.992 -2.34353 -5.52448 0
M  V30 2965 H 275.062 -2.54772 -4.12576 0
M  V30 2966 N 276.405 1.4127 -0.698611 0
M  V30 2967 C 277.335 2.33447 -0.049629 0
M  V30 2968 C 278.316 1.51982 0.763898 0
M  V30 2969 O 279.501 1.80509 0.716257 0
M  V30 2970 C 276.631 3.35828 0.885267 0
M  V30 2971 C 275.585 4.27627 0.178613 0
M  V30 2972 C 274.911 5.20406 1.22807 0
M  V30 2973 C 276.211 5.13459 -0.956933 0
M  V30 2974 H 277.905 2.87966 -0.81951 0
M  V30 2975 H 275.451 1.38461 -0.395538 0
M  V30 2976 H 277.404 3.9924 1.34854 0
M  V30 2977 H 276.128 2.79666 1.68685 0
M  V30 2978 H 274.787 3.65643 -0.26466 0
M  V30 2979 H 274.435 4.60558 2.02226 0
M  V30 2980 H 274.135 5.82661 0.760239 0
M  V30 2981 H 275.659 5.86695 1.69179 0
M  V30 2982 H 277.073 5.70421 -0.573805 0
M  V30 2983 H 275.47 5.8467 -1.35205 0
M  V30 2984 H 276.54 4.50443 -1.79524 0
M  V30 2985 N 277.883 0.443576 1.51229 0
M  V30 2986 C 279.111 -0.11929 2.06556 0
M  V30 2987 C 279.526 -1.35921 1.31038 0
M  V30 2988 O 278.883 -1.78675 0.371704 0
M  V30 2989 C 278.934 -0.435228 3.5887 0
M  V30 2990 O 278.655 0.755486 4.31537 0
M  V30 2991 C 280.156 -1.04808 4.30732 0
M  V30 2992 H 277.376 -0.0051584 0.67098 0
M  V30 2993 H 279.92 0.624453 1.94733 0
M  V30 2994 H 278.075 -1.12887 3.70588 0
M  V30 2995 H 278.489 0.483491 5.22267 0
M  V30 2996 H 279.963 -1.2191 5.3837 0
M  V30 2997 H 280.44 -2.03081 3.89429 0
M  V30 2998 H 281.046 -0.393637 4.23474 0
M  V30 2999 N 279.361 -1.56624 0.175154 0
M  V30 3000 C 280.271 -2.21741 -0.766042 0
M  V30 3001 C 281.287 -1.21023 -1.25018 0
M  V30 3002 O 282.463 -1.53697 -1.3015 0
M  V30 3003 C 279.528 -2.84839 -1.97655 0
M  V30 3004 C 278.589 -4.00769 -1.53892 0
M  V30 3005 C 277.822 -4.60849 -2.69173 0
M  V30 3006 O 278.045 -4.19823 -3.86141 0
M  V30 3007 O 276.979 -5.50655 -2.43028 0
M  V30 3008 H 280.805 -3.02738 -0.241585 0
M  V30 3009 H 278.39 -1.49305 -0.053222 0
M  V30 3010 H 280.272 -3.24834 -2.68442 0
M  V30 3011 H 278.947 -2.06836 -2.48999 0
M  V30 3012 H 277.854 -3.65436 -0.80044 0
M  V30 3013 H 279.187 -4.80376 -1.07236 0
M  V30 3014 N 280.839 0.0985539 -1.57292 0
M  V30 3015 C 282.064 0.820196 -1.90493 0
M  V30 3016 C 282.489 1.71658 -0.769094 0
M  V30 3017 O 281.847 1.79133 0.279495 0
M  V30 3018 C 281.895 1.61242 -3.22542 0
M  V30 3019 O 280.999 2.72108 -3.09888 0
M  V30 3020 H 280.34 0.225547 -0.62452 0
M  V30 3021 H 282.87 0.0748159 -2.04463 0
M  V30 3022 H 282.88 1.99737 -3.55766 0
M  V30 3023 H 281.555 0.954535 -4.04798 0
M  V30 3024 H 280.132 2.36667 -2.88172 0
M  V30 3025 N 282.317 1.53212 0.369288 0
M  V30 3026 C 283.28 1.7872 1.43498 0
M  V30 3027 C 284.28 0.657554 1.46741 0
M  V30 3028 O 285.47 0.925736 1.47566 0
M  V30 3029 C 282.602 1.90591 2.82645 0
M  V30 3030 H 283.795 2.73894 1.22156 0
M  V30 3031 H 281.348 1.44233 0.602203 0
M  V30 3032 H 282.083 0.974709 3.09306 0
M  V30 3033 H 281.868 2.72751 2.8169 0
M  V30 3034 H 283.358 2.11931 3.59826 0
M  V30 3035 N 283.795 -0.628877 1.44509 0
M  V30 3036 C 285.043 -1.38565 1.4712 0
M  V30 3037 C 285.364 -1.94712 0.105899 0
M  V30 3038 O 284.634 -1.75912 -0.862079 0
M  V30 3039 H 283.214 -0.514333 0.541729 0
M  V30 3040 H 285.876 -0.740018 1.80305 0
M  V30 3041 H 284.972 -2.21583 2.19789 0
M  V30 3042 N 285.273 -1.31445 -0.869486 0
M  V30 3043 C 286.519 -1.21337 -1.62496 0
M  V30 3044 C 286.852 0.227872 -1.92858 0
M  V30 3045 O 286.127 1.16094 -1.56053 0
M  V30 3046 C 286.41 -2.05814 -2.95487 0
M  V30 3047 C 286.263 -3.5824 -2.72 0
M  V30 3048 C 287.582 -1.9079 -3.96594 0
M  V30 3049 H 284.701 -0.442135 -0.589649 0
M  V30 3050 H 287.343 -1.6124 -1.00507 0
M  V30 3051 H 285.493 -1.71913 -3.48394 0
M  V30 3052 H 287.165 -4.0228 -2.25762 0
M  V30 3053 H 285.408 -3.81647 -2.06224 0
M  V30 3054 H 286.079 -4.12657 -3.66631 0
M  V30 3055 H 288.555 -2.20459 -3.52898 0
M  V30 3056 H 287.431 -2.52199 -4.87531 0
M  V30 3057 H 287.692 -0.871341 -4.33428 0
M  V30 3058 N 286.751 1.08385 -1.14413 0
M  V30 3059 C 287.684 2.14642 -0.774871 0
M  V30 3060 C 288.662 1.60761 0.243876 0
M  V30 3061 O 289.846 1.88031 0.132883 0
M  V30 3062 C 286.973 3.38366 -0.150491 0
M  V30 3063 C 286.019 4.10997 -1.13945 0
M  V30 3064 S 286.852 4.63797 -2.67679 0
M  V30 3065 C 288.008 5.90808 -2.06631 0
M  V30 3066 H 288.241 2.45633 -1.67487 0
M  V30 3067 H 285.774 1.20498 -0.96538 0
M  V30 3068 H 287.732 4.09996 0.203334 0
M  V30 3069 H 286.393 3.05572 0.72694 0
M  V30 3070 H 285.586 4.99783 -0.65059 0
M  V30 3071 H 285.188 3.4528 -1.43727 0
M  V30 3072 H 287.48 6.62411 -1.4219 0
M  V30 3073 H 288.423 6.4439 -2.93542 0
M  V30 3074 H 288.831 5.4383 -1.51357 0
M  V30 3075 N 288.23 0.939286 1.26551 0
M  V30 3076 C 289.455 0.602008 1.98471 0
M  V30 3077 C 289.88 -0.815624 1.69497 0
M  V30 3078 O 289.238 -1.54912 0.941905 0
M  V30 3079 C 289.286 0.848407 3.50477 0
M  V30 3080 O 288.39 -0.0804009 4.12322 0
M  V30 3081 H 287.731 0.23049 0.622712 0
M  V30 3082 H 290.261 1.2617 1.61066 0
M  V30 3083 H 290.271 0.768553 4.00696 0
M  V30 3084 H 288.946 1.88171 3.70897 0
M  V30 3085 H 287.523 0.0503508 3.72866 0
M  V30 3086 N 289.708 -1.40897 0.706093 0
M  V30 3087 C 290.954 -2.01352 0.241889 0
M  V30 3088 C 291.287 -1.55832 -1.15888 0
M  V30 3089 O 290.562 -0.774145 -1.7843 0
M  V30 3090 C 290.845 -3.58752 0.311311 0
M  V30 3091 C 290.698 -4.1437 1.74978 0
M  V30 3092 C 292.017 -4.38914 -0.322922 0
M  V30 3093 H 289.136 -0.731562 0.0893687 0
M  V30 3094 H 291.778 -1.67504 0.896802 0
M  V30 3095 H 289.928 -3.87718 -0.246302 0
M  V30 3096 H 291.6 -3.96239 2.36205 0
M  V30 3097 H 289.843 -3.69016 2.28057 0
M  V30 3098 H 290.514 -5.23532 1.74981 0
M  V30 3099 H 292.99 -4.15822 0.152089 0
M  V30 3100 H 291.866 -5.48358 -0.243855 0
M  V30 3101 H 292.127 -4.19176 -1.40513 0
M  V30 3102 N 291.186 -0.45159 -1.50991 0
M  V30 3103 C 292.416 0.108177 -2.06317 0
M  V30 3104 C 292.824 1.35774 -1.31765 0
M  V30 3105 O 292.167 1.79838 -0.374694 0
M  V30 3106 C 292.229 0.481659 -3.56259 0
M  V30 3107 C 291.893 -0.663114 -4.52163 0
M  V30 3108 C 292.89 -1.53947 -4.96585 0
M  V30 3109 C 290.575 -0.8479 -4.95092 0
M  V30 3110 C 292.569 -2.58518 -5.82621 0
M  V30 3111 C 290.256 -1.89686 -5.80915 0
M  V30 3112 C 291.254 -2.76388 -6.24579 0
M  V30 3113 O 290.942 -3.79482 -7.08695 0
M  V30 3114 H 290.674 0.00499183 -0.675982 0
M  V30 3115 H 293.228 -0.633659 -1.95381 0
M  V30 3116 H 291.458 1.27641 -3.65027 0
M  V30 3117 H 293.147 0.974233 -3.94035 0
M  V30 3118 H 293.913 -1.4083 -4.64103 0
M  V30 3119 H 289.792 -0.18258 -4.60638 0
M  V30 3120 H 293.336 -3.26224 -6.16623 0
M  V30 3121 H 289.233 -2.02817 -6.12809 0
M  V30 3122 H 290.001 -3.76234 -7.26905 0
M  V30 3123 N 292.664 1.56529 -0.183458 0
M  V30 3124 C 293.594 2.21549 0.737456 0
M  V30 3125 C 294.575 1.17489 1.23005 0
M  V30 3126 O 295.76 1.45959 1.281 0
M  V30 3127 C 292.89 2.86575 1.96194 0
M  V30 3128 C 291.844 3.96778 1.60473 0
M  V30 3129 C 291.17 4.48911 2.90487 0
M  V30 3130 C 292.47 5.15767 0.823497 0
M  V30 3131 H 294.164 2.98761 0.195453 0
M  V30 3132 H 291.71 1.43702 0.0925686 0
M  V30 3133 H 293.663 3.30739 2.61131 0
M  V30 3134 H 292.387 2.06749 2.52828 0
M  V30 3135 H 291.046 3.53286 0.978997 0
M  V30 3136 H 290.694 3.65862 3.45186 0
M  V30 3137 H 290.394 5.23265 2.67335 0
M  V30 3138 H 291.918 4.95771 3.56432 0
M  V30 3139 H 293.332 5.56549 1.37571 0
M  V30 3140 H 291.729 5.96114 0.690551 0
M  V30 3141 H 292.799 4.84574 -0.177782 0
M  V30 3142 N 294.142 -0.090211 1.57342 0
M  V30 3143 C 295.389 -0.792807 1.86335 0
M  V30 3144 C 295.717 -1.78494 0.772662 0
M  V30 3145 O 294.972 -1.94305 -0.233258 0
M  V30 3146 C 295.271 -1.55222 3.21933 0
M  V30 3147 C 294.937 -0.701765 4.45406 0
M  V30 3148 C 293.599 -0.467334 4.78925 0
M  V30 3149 C 295.951 -0.11086 5.21082 0
M  V30 3150 C 293.279 0.367785 5.85546 0
M  V30 3151 C 295.631 0.711609 6.28585 0
M  V30 3152 C 294.295 0.956086 6.60617 0
M  V30 3153 H 293.565 -0.290109 0.681849 0
M  V30 3154 H 296.212 -0.0541332 1.91423 0
M  V30 3155 H 294.517 -2.3626 3.12551 0
M  V30 3156 H 296.214 -2.10032 3.41595 0
M  V30 3157 H 292.804 -0.894598 4.1916 0
M  V30 3158 H 296.988 -0.279129 4.95514 0
M  V30 3159 H 292.244 0.566128 6.08773 0
M  V30 3160 H 296.418 1.17632 6.86393 0
M  V30 3161 H 294.045 1.60499 7.43064 0
M  V30 3162 N 295.62 -1.53406 -0.361157 0
M  V30 3163 C 296.553 -1.74946 -1.46524 0
M  V30 3164 C 297.531 -0.59795 -1.51206 0
M  V30 3165 O 298.715 -0.831062 -1.69191 0
M  V30 3166 C 295.842 -1.83224 -2.84863 0
M  V30 3167 C 294.888 -3.05233 -2.97885 0
M  V30 3168 S 295.721 -4.6466 -2.66179 0
M  V30 3169 C 296.877 -4.75793 -4.06659 0
M  V30 3170 H 297.11 -2.68319 -1.28033 0
M  V30 3171 H 294.643 -1.44051 -0.555764 0
M  V30 3172 H 296.601 -1.88679 -3.64569 0
M  V30 3173 H 295.262 -0.908948 -3.00661 0
M  V30 3174 H 294.455 -3.07648 -3.9921 0
M  V30 3175 H 294.057 -2.97913 -2.26106 0
M  V30 3176 H 296.349 -4.5612 -5.0096 0
M  V30 3177 H 297.292 -5.7786 -4.09247 0
M  V30 3178 H 297.7 -4.04389 -3.93865 0
M  V30 3179 N 297.098 0.621204 -1.44841 0
M  V30 3180 C 298.045 1.73267 -1.5247 0
M  V30 3181 C 299.015 1.6189 -0.371611 0
M  V30 3182 O 300.2 1.81668 -0.58321 0
M  V30 3183 C 297.34 3.11545 -1.48438 0
M  V30 3184 C 296.453 3.33827 -2.74196 0
M  V30 3185 C 295.588 4.62133 -2.61929 0
M  V30 3186 C 294.627 4.77627 -3.82804 0
M  V30 3187 N 293.764 5.97219 -3.69153 0
M  V30 3188 H 298.604 1.66082 -2.47428 0
M  V30 3189 H 296.141 0.810026 -1.22788 0
M  V30 3190 H 298.099 3.91528 -1.4409 0
M  V30 3191 H 296.729 3.1772 -0.570402 0
M  V30 3192 H 295.781 2.47715 -2.88689 0
M  V30 3193 H 297.093 3.41153 -3.6389 0
M  V30 3194 H 296.247 5.50291 -2.5547 0
M  V30 3195 H 294.986 4.57182 -1.69811 0
M  V30 3196 H 293.991 3.87896 -3.89637 0
M  V30 3197 H 295.216 4.84385 -4.75971 0
M  V30 3198 H 293.162 5.93339 -2.79794 0
M  V30 3199 H 293.079 6.05644 -4.52472 0
M  V30 3200 H 294.347 6.87912 -3.66603 0
M  V30 3201 N 298.576 1.31904 0.862503 0
M  V30 3202 C 299.992 1.10724 1.14945 0
M  V30 3203 C 300.192 -0.117421 2.01158 0
M  V30 3204 O 299.248 -0.804595 2.39338 0
M  V30 3205 C 300.561 2.38267 1.83437 0
M  V30 3206 C 302.109 2.43949 1.96106 0
M  V30 3207 C 302.584 3.71394 2.68013 0
M  V30 3208 N 304.075 3.72331 2.75543 0
M  V30 3209 C 304.81 4.67641 3.31812 0
M  V30 3210 N 304.306 5.73313 3.88953 0
M  V30 3211 N 306.099 4.5515 3.29841 0
M  V30 3212 H 298.25 2.10436 0.288191 0
M  V30 3213 H 300.513 0.928705 0.190292 0
M  V30 3214 H 300.219 3.27759 1.27542 0
M  V30 3215 H 300.093 2.48633 2.83657 0
M  V30 3216 H 302.48 1.54922 2.51164 0
M  V30 3217 H 302.561 2.37543 0.949059 0
M  V30 3218 H 302.205 4.60791 2.13621 0
M  V30 3219 H 302.135 3.75069 3.69636 0
M  V30 3220 H 304.626 2.95947 2.34997 0
M  V30 3221 H 304.939 6.42107 4.30022 0
M  V30 3222 H 303.284 5.77077 3.87308 0
M  V30 3223 H 306.475 3.71766 2.84443 0
M  V30 3224 H 306.648 5.29604 3.73394 0
M  V30 3225 N 300.054 -1.07777 1.14986 0
M  V30 3226 C 301.284 -1.83752 0.944402 0
M  V30 3227 C 301.692 -1.8218 -0.51058 0
M  V30 3228 O 301.035 -1.22852 -1.36576 0
M  V30 3229 C 301.097 -3.32128 1.37592 0
M  V30 3230 C 300.761 -3.57425 2.84775 0
M  V30 3231 C 301.758 -3.5173 3.8286 0
M  V30 3232 C 299.443 -3.8523 3.2234 0
M  V30 3233 C 301.437 -3.73482 5.16517 0
M  V30 3234 C 299.124 -4.06634 4.56171 0
M  V30 3235 C 300.122 -4.00754 5.53069 0
M  V30 3236 O 299.81 -4.2159 6.84483 0
M  V30 3237 H 299.542 -0.58673 0.335744 0
M  V30 3238 H 302.096 -1.36982 1.53052 0
M  V30 3239 H 300.326 -3.79686 0.733165 0
M  V30 3240 H 302.015 -3.89555 1.14024 0
M  V30 3241 H 302.781 -3.30256 3.55184 0
M  V30 3242 H 298.66 -3.88923 2.47508 0
M  V30 3243 H 302.204 -3.68808 5.92137 0
M  V30 3244 H 298.101 -4.27593 4.83564 0
M  V30 3245 H 298.869 -4.38961 6.90837 0
M  V30 3246 N 301.532 -0.945985 -1.26051 0
M  V30 3247 C 302.76 -0.613025 -1.9761 0
M  V30 3248 C 303.175 0.813035 -1.70397 0
M  V30 3249 O 302.532 1.54274 -0.974979 0
M  V30 3250 C 302.583 -0.85159 -3.51326 0
M  V30 3251 O 302.304 -2.22157 -3.77595 0
M  V30 3252 C 303.805 -0.529831 -4.40122 0
M  V30 3253 H 301.025 -0.230593 -0.630133 0
M  V30 3254 H 303.569 -1.268 -1.60443 0
M  V30 3255 H 301.724 -0.243151 -3.86636 0
M  V30 3256 H 302.138 -2.2852 -4.721 0
M  V30 3257 H 303.612 -0.747348 -5.46917 0
M  V30 3258 H 304.089 0.535341 -4.35925 0
M  V30 3259 H 304.695 -1.11721 -4.10364 0
M  V30 3260 N 303.011 1.40521 -0.713556 0
M  V30 3261 C 303.974 2.29098 -0.0684347 0
M  V30 3262 C 304.974 1.45268 0.689472 0
M  V30 3263 O 306.164 1.66205 0.521677 0
M  V30 3264 C 303.296 3.28446 0.913024 0
M  V30 3265 H 304.489 2.87645 -0.84855 0
M  V30 3266 H 302.042 1.48809 -0.47809 0
M  V30 3267 H 302.777 2.74913 1.72027 0
M  V30 3268 H 302.562 3.90327 0.372472 0
M  V30 3269 H 304.052 3.94777 1.36165 0
M  V30 3270 N 304.489 0.459591 1.5075 0
M  V30 3271 C 305.399 -0.34613 2.32033 0
M  V30 3272 C 306.415 -1.00686 1.41909 0
M  V30 3273 O 307.591 -0.997361 1.7497 0
M  V30 3274 C 304.656 -1.42029 3.16273 0
M  V30 3275 C 303.717 -0.777362 4.22203 0
M  V30 3276 C 302.95 -1.80034 5.02418 0
M  V30 3277 O 303.173 -3.02544 4.83553 0
M  V30 3278 O 302.107 -1.37853 5.85901 0
M  V30 3279 H 305.933 0.318054 3.0203 0
M  V30 3280 H 303.518 0.221663 1.47746 0
M  V30 3281 H 305.4 -2.04275 3.68578 0
M  V30 3282 H 304.075 -2.06815 2.49016 0
M  V30 3283 H 302.982 -0.116256 3.73919 0
M  V30 3284 H 304.315 -0.172634 4.91897 0
M  V30 3285 N 305.967 -1.56429 0.191757 0
M  V30 3286 C 307.244 -1.89224 -0.495332 0
M  V30 3287 C 307.624 -1.10478 -1.79883 0
M  V30 3288 O 306.972 -0.204852 -2.2758 0
M  V30 3289 C 307.182 -3.41548 -0.717367 0
M  V30 3290 C 308.53 -4.11711 -1.03823 0
M  V30 3291 O 309.554 -3.4698 -0.805204 0
M  V30 3292 O 308.413 -5.2611 -1.47887 0
M  V30 3293 H 305.507 -0.785788 -0.25781 0
M  V30 3294 H 308.053 -1.68111 0.231721 0
M  V30 3295 H 306.825 -3.90772 0.203287 0
M  V30 3296 H 306.448 -3.68342 -1.497 0
M  V30 3297 N 307.445 0.0818655 -1.57387 0
M  V30 3298 C 308.378 1.12986 -1.98266 0
M  V30 3299 C 309.356 1.38123 -0.857954 0
M  V30 3300 O 310.54 1.51663 -1.1194 0
M  V30 3301 C 307.667 2.47632 -2.31076 0
M  V30 3302 C 306.713 2.38693 -3.53452 0
M  V30 3303 S 307.546 1.79071 -5.04672 0
M  V30 3304 C 308.702 3.15316 -5.40673 0
M  V30 3305 H 308.935 0.781435 -2.86846 0
M  V30 3306 H 306.468 0.290034 -1.51651 0
M  V30 3307 H 308.426 3.25089 -2.50654 0
M  V30 3308 H 307.087 2.79638 -1.43043 0
M  V30 3309 H 306.28 3.37964 -3.73893 0
M  V30 3310 H 305.882 1.69369 -3.33452 0
M  V30 3311 H 308.174 4.11613 -5.38127 0
M  V30 3312 H 309.117 2.99664 -6.41566 0
M  V30 3313 H 309.525 3.15457 -4.68132 0
M  V30 3314 N 308.923 1.53595 0.353017 0
M  V30 3315 C 310.153 1.74058 1.11299 0
M  V30 3316 C 310.561 0.475205 1.83135 0
M  V30 3317 O 309.904 -0.562344 1.74881 0
M  V30 3318 C 309.966 2.85994 2.17825 0
M  V30 3319 C 309.63 4.25923 1.65647 0
M  V30 3320 C 310.627 5.07829 1.11383 0
M  V30 3321 C 308.312 4.72377 1.7078 0
M  V30 3322 C 310.306 6.34285 0.629439 0
M  V30 3323 C 307.993 5.98808 1.21953 0
M  V30 3324 C 308.991 6.79594 0.681265 0
M  V30 3325 O 308.679 8.03651 0.200248 0
M  V30 3326 H 308.411 0.585327 0.338183 0
M  V30 3327 H 310.965 2.01186 0.413927 0
M  V30 3328 H 309.195 2.54368 2.91262 0
M  V30 3329 H 310.884 2.94515 2.79313 0
M  V30 3330 H 311.65 4.73107 1.06746 0
M  V30 3331 H 307.529 4.0956 2.11617 0
M  V30 3332 H 311.073 6.97288 0.208636 0
M  V30 3333 H 306.97 6.33026 1.26287 0
M  V30 3334 H 307.738 8.1788 0.318416 0
M  V30 3335 N 310.401 -0.613514 1.45168 0
M  V30 3336 C 311.817 -0.933629 1.29443 0
M  V30 3337 C 312.017 -2.00028 0.243101 0
M  V30 3338 O 311.073 -2.49848 -0.364992 0
M  V30 3339 C 312.386 -1.38018 2.67155 0
M  V30 3340 C 313.934 -1.49471 2.75004 0
M  V30 3341 C 314.409 -1.97503 4.13227 0
M  V30 3342 N 315.9 -2.04746 4.15491 0
M  V30 3343 C 316.635 -2.43121 5.19307 0
M  V30 3344 N 316.131 -2.80506 6.33473 0
M  V30 3345 N 317.924 -2.43408 5.06664 0
M  V30 3346 H 310.075 0.0916097 2.12202 0
M  V30 3347 H 312.338 -0.0216655 0.947752 0
M  V30 3348 H 312.044 -0.670625 3.45247 0
M  V30 3349 H 311.918 -2.34784 2.95222 0
M  V30 3350 H 314.305 -2.19519 1.9722 0
M  V30 3351 H 314.386 -0.510342 2.50657 0
M  V30 3352 H 314.03 -1.28045 4.91495 0
M  V30 3353 H 313.96 -2.96843 4.34962 0
M  V30 3354 H 316.451 -1.78468 3.33103 0
M  V30 3355 H 316.764 -3.08652 7.08487 0
M  V30 3356 H 315.109 -2.78216 6.36884 0
M  V30 3357 H 318.3 -2.13604 4.16523 0
M  V30 3358 H 318.473 -2.72989 5.87691 0
M  V30 3359 N 311.879 -1.3236 -0.855495 0
M  V30 3360 C 313.29 -1.2056 -1.42556 0
M  V30 3361 C 313.641 0.182209 -1.95352 0
M  V30 3362 O 312.766 1.08088 -1.87472 0
M  V30 3363 C 313.361 -2.1826 -2.59129 0
M  V30 3364 C 311.92 -2.10351 -3.12137 0
M  V30 3365 C 311.067 -2.06674 -1.84882 0
M  V30 3366 H 314.018 -1.442 -0.662727 0
M  V30 3367 H 314.039 -1.78064 -3.36264 0
M  V30 3368 H 313.551 -3.19257 -2.20673 0
M  V30 3369 H 311.652 -1.12599 -3.55179 0
M  V30 3370 H 311.765 -3.00135 -3.73438 0
M  V30 3371 H 310.129 -1.51901 -2.04446 0
M  V30 3372 H 310.912 -3.09451 -1.48643 0
M  V30 3373 N 313.357 1.07166 -1.15556 0
M  V30 3374 C 314.307 2.12649 -0.82247 0
M  V30 3375 C 315.291 1.59725 0.194129 0
M  V30 3376 O 316.483 1.76999 -0.00540402 0
M  V30 3377 C 313.612 3.41847 -0.315572 0
M  V30 3378 C 312.698 4.0162 -1.36244 0
M  V30 3379 N 313.089 4.35625 -2.5703 0
M  V30 3380 C 311.387 4.29114 -1.21562 0
M  V30 3381 C 312.088 4.83017 -3.24144 0
M  V30 3382 N 311.064 4.81906 -2.51531 0
M  V30 3383 H 314.866 2.36776 -1.74111 0
M  V30 3384 H 312.38 1.24622 -1.0413 0
M  V30 3385 H 314.377 4.16859 -0.0585855 0
M  V30 3386 H 313.037 3.19163 0.597105 0
M  V30 3387 H 314.048 4.26253 -2.94158 0
M  V30 3388 H 310.725 4.15919 -0.362988 0
M  V30 3389 H 312.115 5.18605 -4.27198 0
M  V30 3390 N 314.835 0.952656 1.25548 0
M  V30 3391 C 316.246 0.647392 1.75116 0
M  V30 3392 C 316.597 -0.837274 1.77438 0
M  V30 3393 O 315.722 -1.65525 1.39393 0
M  V30 3394 C 316.317 1.16845 3.18014 0
M  V30 3395 C 314.876 0.913382 3.6515 0
M  V30 3396 C 314.023 1.31265 2.44264 0
M  V30 3397 H 316.974 1.12968 1.11462 0
M  V30 3398 H 316.995 0.527606 3.76824 0
M  V30 3399 H 316.507 2.24902 3.16292 0
M  V30 3400 H 314.608 -0.152316 3.72289 0
M  V30 3401 H 314.721 1.54845 4.53387 0
M  V30 3402 H 313.085 0.731028 2.43984 0
M  V30 3403 H 313.868 2.40239 2.45234 0
M  V30 3404 N 316.313 -1.40141 0.720998 0
M  V30 3405 C 317.561 -2.0039 0.262323 0
M  V30 3406 C 317.882 -1.57469 -1.15015 0
M  V30 3407 O 317.152 -0.816582 -1.78069 0
M  V30 3408 H 315.732 -0.741063 0.093996 0
M  V30 3409 H 318.394 -1.71398 0.927835 0
M  V30 3410 H 317.49 -3.10658 0.299671 0
M  V30 3411 N 317.792 -0.46758 -1.50504 0
M  V30 3412 C 319.039 0.0886219 -2.02306 0
M  V30 3413 C 319.367 1.40037 -1.34981 0
M  V30 3414 O 318.622 1.90136 -0.463318 0
M  V30 3415 C 318.921 0.323995 -3.55928 0
M  V30 3416 C 318.587 -0.905618 -4.41712 0
M  V30 3417 C 317.249 -1.24275 -4.64875 0
M  V30 3418 C 319.601 -1.72448 -4.91845 0
M  V30 3419 C 316.929 -2.39888 -5.35417 0
M  V30 3420 C 319.281 -2.87185 -5.63656 0
M  V30 3421 C 317.945 -3.21317 -5.85074 0
M  V30 3422 H 317.215 0.0324291 -0.74029 0
M  V30 3423 H 319.862 -0.620945 -1.81153 0
M  V30 3424 H 318.167 1.11577 -3.75577 0
M  V30 3425 H 319.864 0.76826 -3.93572 0
M  V30 3426 H 316.454 -0.632956 -4.239 0
M  V30 3427 H 320.638 -1.4772 -4.73806 0
M  V30 3428 H 315.894 -2.66611 -5.50208 0
M  V30 3429 H 320.068 -3.50985 -6.01484 0
M  V30 3430 H 317.695 -4.1101 -6.39511 0
M  V30 3431 N 319.27 1.56325 -0.20005 0
M  V30 3432 C 320.5 2.01811 0.442232 0
M  V30 3433 C 320.908 1.07932 1.55394 0
M  V30 3434 O 320.251 0.0772685 1.83537 0
M  V30 3435 C 320.313 3.43685 1.05457 0
M  V30 3436 C 319.977 4.56928 0.0809833 0
M  V30 3437 C 320.974 5.15009 -0.711471 0
M  V30 3438 C 318.659 5.0229 -0.0315364 0
M  V30 3439 C 320.653 6.16904 -1.60336 0
M  V30 3440 C 318.34 6.04028 -0.926981 0
M  V30 3441 C 319.338 6.6121 -1.71146 0
M  V30 3442 O 319.026 7.60971 -2.59189 0
M  V30 3443 H 318.758 0.666173 0.114848 0
M  V30 3444 H 321.312 2.03085 -0.307511 0
M  V30 3445 H 319.542 3.39413 1.85299 0
M  V30 3446 H 321.231 3.72948 1.60201 0
M  V30 3447 H 321.997 4.80827 -0.634873 0
M  V30 3448 H 317.876 4.57476 0.568902 0
M  V30 3449 H 321.42 6.61464 -2.21611 0
M  V30 3450 H 317.317 6.37634 -1.00468 0
M  V30 3451 H 318.085 7.7841 -2.53023 0
M  V30 3452 N 320.748 -0.0735177 1.57428 0
M  V30 3453 C 322.164 -0.428264 1.53747 0
M  V30 3454 C 322.364 -1.79272 0.91998 0
M  V30 3455 O 321.42 -2.47051 0.521745 0
M  V30 3456 C 322.733 -0.370914 2.98404 0
M  V30 3457 C 324.281 -0.451224 3.0973 0
M  V30 3458 C 324.756 -0.4238 4.56035 0
M  V30 3459 N 326.247 -0.483925 4.60665 0
M  V30 3460 C 326.982 -0.484891 5.71346 0
M  V30 3461 N 326.478 -0.440775 6.91396 0
M  V30 3462 N 328.271 -0.531319 5.59583 0
M  V30 3463 H 320.422 0.819949 1.95935 0
M  V30 3464 H 322.685 0.307493 0.896745 0
M  V30 3465 H 322.391 0.564956 3.47133 0
M  V30 3466 H 322.265 -1.18176 3.5821 0
M  V30 3467 H 324.652 -1.37752 2.60976 0
M  V30 3468 H 324.733 0.388167 2.52838 0
M  V30 3469 H 324.377 0.498638 5.05446 0
M  V30 3470 H 324.307 -1.2807 5.10789 0
M  V30 3471 H 326.798 -0.522338 3.74273 0
M  V30 3472 H 327.111 -0.44539 7.71515 0
M  V30 3473 H 325.456 -0.40749 6.93804 0
M  V30 3474 H 328.647 -0.563464 4.64696 0
M  V30 3475 H 328.82 -0.528603 6.4584 0
M  V30 3476 N 322.226 -1.5378 -0.344866 0
M  V30 3477 C 323.637 -1.62428 -0.920552 0
M  V30 3478 C 323.988 -0.504747 -1.89596 0
M  V30 3479 O 323.113 0.365711 -2.13287 0
M  V30 3480 C 323.708 -2.94419 -1.67639 0
M  V30 3481 C 322.267 -3.05333 -2.20111 0
M  V30 3482 C 321.414 -2.57866 -1.01982 0
M  V30 3483 H 324.365 -1.58222 -0.123042 0
M  V30 3484 H 324.386 -2.83384 -2.53917 0
M  V30 3485 H 323.898 -3.7588 -0.966224 0
M  V30 3486 H 321.999 -2.28502 -2.94308 0
M  V30 3487 H 322.112 -4.10778 -2.46573 0
M  V30 3488 H 320.476 -2.13241 -1.39285 0
M  V30 3489 H 321.259 -3.41765 -0.324308 0
M  V30 3490 N 323.704 0.605807 -1.45491 0
M  V30 3491 C 325.12 0.926751 -1.29936 0
M  V30 3492 C 325.32 1.99896 -0.253706 0
M  V30 3493 O 324.376 2.50038 0.351737 0
M  V30 3494 C 325.689 1.36599 -2.67883 0
M  V30 3495 C 327.237 1.4801 -2.75793 0
M  V30 3496 C 327.712 1.95309 -4.14268 0
M  V30 3497 N 329.203 2.0254 -4.16571 0
M  V30 3498 C 329.938 2.40363 -5.20589 0
M  V30 3499 N 329.434 2.77143 -6.34952 0
M  V30 3500 N 331.227 2.40718 -5.07948 0
M  V30 3501 H 323.378 -0.102862 -2.12151 0
M  V30 3502 H 325.641 0.016639 -0.947854 0
M  V30 3503 H 325.347 0.652306 -3.45598 0
M  V30 3504 H 325.221 2.33215 -2.96463 0
M  V30 3505 H 327.608 2.1847 -1.98381 0
M  V30 3506 H 327.689 0.497041 -2.50925 0
M  V30 3507 H 327.333 1.25436 -4.92167 0
M  V30 3508 H 327.263 2.94532 -4.3653 0
M  V30 3509 H 329.754 1.76699 -3.34045 0
M  V30 3510 H 330.067 3.0489 -7.10114 0
M  V30 3511 H 328.412 2.74834 -6.3835 0
M  V30 3512 H 331.603 2.11392 -4.1765 0
M  V30 3513 H 331.776 2.69869 -5.89131 0
M  V30 3514 N 325.182 1.32811 0.848464 0
M  V30 3515 C 326.112 1.24882 1.97299 0
M  V30 3516 C 327.093 0.131357 1.69592 0
M  V30 3517 O 328.278 0.319553 1.91553 0
M  V30 3518 C 325.408 0.97746 3.33261 0
M  V30 3519 C 324.362 2.05682 3.75338 0
M  V30 3520 C 323.688 1.63777 5.09 0
M  V30 3521 C 324.988 3.47254 3.90144 0
M  V30 3522 H 326.682 2.18966 2.04191 0
M  V30 3523 H 324.228 1.05413 0.981029 0
M  V30 3524 H 326.181 0.908513 4.1149 0
M  V30 3525 H 324.905 0.000980011 3.266 0
M  V30 3526 H 323.564 2.11603 2.99366 0
M  V30 3527 H 323.212 0.648569 4.98801 0
M  V30 3528 H 322.912 2.36 5.38124 0
M  V30 3529 H 324.436 1.5833 5.89715 0
M  V30 3530 H 325.85 3.43888 4.58709 0
M  V30 3531 H 324.247 4.1788 4.30693 0
M  V30 3532 H 325.317 3.86462 2.92874 0
M  V30 3533 N 326.66 -1.06551 1.16123 0
M  V30 3534 C 327.885 -1.83544 0.965735 0
M  V30 3535 C 328.31 -1.81843 -0.481102 0
M  V30 3536 O 327.668 -1.21732 -1.34354 0
M  V30 3537 C 327.716 -3.28169 1.49457 0
M  V30 3538 O 326.82 -4.0643 0.699157 0
M  V30 3539 H 326.161 -0.568026 0.343864 0
M  V30 3540 H 328.691 -1.34362 1.54299 0
M  V30 3541 H 328.701 -3.78992 1.51092 0
M  V30 3542 H 327.376 -3.28722 2.54784 0
M  V30 3543 H 325.953 -3.65216 0.7531 0
M  V30 3544 N 328.138 -0.959301 -1.25041 0
M  V30 3545 C 329.086 -0.474437 -2.2771 0
M  V30 3546 C 330.08 0.457697 -1.631 0
M  V30 3547 O 331.286 0.333912 -1.76876 0
M  V30 3548 H 327.661 -0.134936 -0.739795 0
M  V30 3549 H 329.632 -1.35251 -2.65988 0
M  V30 3550 C 328.381 0.227884 -3.46952 0
M  V30 3551 H 327.704 -0.480248 -3.96905 0
M  V30 3552 H 329.144 0.531091 -4.20661 0
M  V30 3553 C 327.603 1.452 -3.04004 0
M  V30 3554 O 328.133 2.54949 -3.10426 0
M  V30 3555 N 326.339 1.31502 -2.59144 0
M  V30 3556 H 325.886 0.422065 -2.54119 0
M  V30 3557 H 325.844 2.13521 -2.30773 0
M  V30 3558 N 329.616 1.39756 -0.72842 0
M  V30 3559 C 330.856 2.025 -0.278078 0
M  V30 3560 C 331.22 1.5654 1.11173 0
M  V30 3561 O 332.421 2.11435 1.65978 0
M  V30 3562 C 330.692 3.55489 -0.369139 0
M  V30 3563 S 332.251 4.388 0.00232983 0
M  V30 3564 H 329.069 0.702534 -0.109391 0
M  V30 3565 H 331.671 1.70672 -0.95348 0
M  V30 3566 H 330.375 3.86429 -1.38204 0
M  V30 3567 H 329.906 3.92061 0.324308 0
M  V30 3568 H 331.921 4.80954 1.22055 0
M  V30 3569 N 331.094 0.475555 1.50254 0
M  V30 3570 C 332.319 -0.0777042 2.07254 0
M  V30 3571 C 332.744 -1.3235 1.3366 0
M  V30 3572 O 332.102 -1.77152 0.385597 0
M  V30 3573 C 332.15 -0.340169 3.58992 0
M  V30 3574 O 331.254 -1.41982 3.87188 0
M  V30 3575 H 330.595 0.0149556 0.663832 0
M  V30 3576 H 333.125 0.667878 1.93392 0
M  V30 3577 H 333.135 -0.579332 4.03866 0
M  V30 3578 H 331.81 0.570167 4.11973 0
M  V30 3579 H 330.387 -1.16762 3.54148 0
M  V30 3580 N 332.573 -1.56217 0.208337 0
M  V30 3581 C 333.85 -1.89739 -0.475234 0
M  V30 3582 C 334.23 -1.1238 -1.78701 0
M  V30 3583 O 333.578 -0.228979 -2.2735 0
M  V30 3584 C 333.788 -3.42289 -0.681101 0
M  V30 3585 C 335.136 -4.12789 -0.994507 0
M  V30 3586 O 336.16 -3.47814 -0.768357 0
M  V30 3587 O 335.019 -5.27649 -1.42299 0
M  V30 3588 H 332.113 -0.788478 -0.249461 0
M  V30 3589 H 334.659 -1.67855 0.249538 0
M  V30 3590 H 333.431 -3.90534 0.244722 0
M  V30 3591 H 333.054 -3.69909 -1.45785 0
M  V30 3592 N 334.051 0.0651679 -1.57465 0
M  V30 3593 C 335.281 0.774683 -1.91526 0
M  V30 3594 C 335.689 1.71305 -0.803196 0
M  V30 3595 O 335.032 1.82231 0.231881 0
M  V30 3596 C 335.094 1.61645 -3.21109 0
M  V30 3597 C 334.758 0.846753 -4.49087 0
M  V30 3598 C 335.755 0.163024 -5.19644 0
M  V30 3599 C 333.44 0.811966 -4.95694 0
M  V30 3600 C 335.434 -0.54519 -6.35064 0
M  V30 3601 C 333.121 0.0999836 -6.11018 0
M  V30 3602 C 334.119 -0.577388 -6.80555 0
M  V30 3603 O 333.807 -1.27789 -7.93678 0
M  V30 3604 H 333.539 0.225031 -0.637446 0
M  V30 3605 H 336.093 0.0377134 -2.05365 0
M  V30 3606 H 334.323 2.39638 -3.03497 0
M  V30 3607 H 336.012 2.20525 -3.40769 0
M  V30 3608 H 336.778 0.181163 -4.84662 0
M  V30 3609 H 332.657 1.32867 -4.41438 0
M  V30 3610 H 336.201 -1.07446 -6.89276 0
M  V30 3611 H 332.098 0.0797945 -6.45451 0
M  V30 3612 H 332.866 -1.18784 -8.09835 0
M  V30 3613 N 335.529 1.53961 0.336706 0
M  V30 3614 C 336.754 1.75797 1.10046 0
M  V30 3615 C 337.179 0.498985 1.81361 0
M  V30 3616 O 336.537 -0.548769 1.72795 0
M  V30 3617 C 336.585 2.94257 2.08436 0
M  V30 3618 O 335.689 2.64883 3.16087 0
M  V30 3619 H 335.03 0.582936 0.317934 0
M  V30 3620 H 337.56 2.00945 0.38501 0
M  V30 3621 H 337.57 3.21237 2.51537 0
M  V30 3622 H 336.245 3.85564 1.55927 0
M  V30 3623 H 334.822 2.48812 2.77753 0
M  V30 3624 N 337.007 -0.598083 1.45811 0
M  V30 3625 C 338.255 -1.35413 1.50026 0
M  V30 3626 C 338.576 -1.94444 0.147177 0
M  V30 3627 O 337.846 -1.77701 -0.824571 0
M  V30 3628 H 336.426 -0.502727 0.552517 0
M  V30 3629 H 339.088 -0.701606 1.81834 0
M  V30 3630 H 338.184 -2.16871 2.2444 0
M  V30 3631 N 338.485 -1.33259 -0.841409 0
M  V30 3632 C 339.417 -1.19136 -1.95804 0
M  V30 3633 C 340.43 -0.122965 -1.62335 0
M  V30 3634 O 341.619 -0.373154 -1.74556 0
M  V30 3635 C 338.719 -0.804268 -3.29218 0
M  V30 3636 C 337.892 -1.96376 -3.90839 0
M  V30 3637 C 336.951 -1.55806 -5.02604 0
M  V30 3638 O 335.977 -2.27203 -5.21888 0
M  V30 3639 N 337.179 -0.461609 -5.78662 0
M  V30 3640 H 339.944 -2.15326 -2.08458 0
M  V30 3641 H 337.505 -1.25971 -1.017 0
M  V30 3642 H 339.497 -0.51501 -4.0141 0
M  V30 3643 H 338.067 0.0668809 -3.12528 0
M  V30 3644 H 337.287 -2.41879 -3.11269 0
M  V30 3645 H 338.575 -2.73966 -4.28742 0
M  V30 3646 H 337.973 0.132343 -5.65545 0
M  V30 3647 H 336.53 -0.232013 -6.51387 0
M  V30 3648 N 339.963 1.05934 -1.16686 0
M  V30 3649 C 341.21 1.788 -0.950622 0
M  V30 3650 C 341.538 1.87384 0.521305 0
M  V30 3651 O 340.793 1.36438 1.40297 0
M  V30 3652 C 341.092 3.23105 -1.52767 0
M  V30 3653 C 340.758 3.34594 -3.02254 0
M  V30 3654 C 339.42 3.37437 -3.43059 0
M  V30 3655 C 341.772 3.36219 -3.98254 0
M  V30 3656 C 339.1 3.39525 -4.78477 0
M  V30 3657 C 341.452 3.39845 -5.33562 0
M  V30 3658 C 340.116 3.40971 -5.73842 0
M  V30 3659 H 339.386 0.654275 -0.347857 0
M  V30 3660 H 342.033 1.24555 -1.45459 0
M  V30 3661 H 340.338 3.80227 -0.94524 0
M  V30 3662 H 342.035 3.7809 -1.336 0
M  V30 3663 H 338.625 3.3309 -2.6972 0
M  V30 3664 H 342.809 3.33231 -3.67792 0
M  V30 3665 H 338.065 3.38703 -5.09009 0
M  V30 3666 H 342.239 3.4005 -6.07733 0
M  V30 3667 H 339.866 3.42342 -6.78753 0
M  V30 3668 N 341.441 0.965919 1.2453 0
M  V30 3669 C 342.371 0.513476 2.27784 0
M  V30 3670 C 343.352 -0.445974 1.6415 0
M  V30 3671 O 344.537 -0.342485 1.91156 0
M  V30 3672 C 341.667 -0.198839 3.4673 0
M  V30 3673 C 340.621 0.676456 4.2262 0
M  V30 3674 C 339.947 -0.167248 5.34438 0
M  V30 3675 C 341.247 1.96017 4.84123 0
M  V30 3676 H 342.941 1.3765 2.65881 0
M  V30 3677 H 340.487 0.663321 1.27813 0
M  V30 3678 H 342.44 -0.526567 4.18097 0
M  V30 3679 H 341.164 -1.0962 3.07654 0
M  V30 3680 H 339.823 0.98743 3.53052 0
M  V30 3681 H 339.471 -1.0647 4.91603 0
M  V30 3682 H 339.171 0.415181 5.86131 0
M  V30 3683 H 340.695 -0.489688 6.08633 0
M  V30 3684 H 342.109 1.69814 5.47573 0
M  V30 3685 H 340.506 2.48918 5.4604 0
M  V30 3686 H 341.576 2.65622 4.05676 0
M  V30 3687 N 342.919 -1.39368 0.735821 0
M  V30 3688 C 343.869 -2.27885 0.0724287 0
M  V30 3689 C 344.853 -1.44301 -0.711756 0
M  V30 3690 O 346.045 -1.67206 -0.58063 0
M  V30 3691 C 343.174 -3.33029 -0.833454 0
M  V30 3692 C 342.26 -4.24078 -0.0433749 0
M  V30 3693 N 342.651 -4.96138 0.983903 0
M  V30 3694 C 340.949 -4.45164 -0.272905 0
M  V30 3695 C 341.65 -5.63069 1.4604 0
M  V30 3696 N 340.626 -5.37991 0.778857 0
M  V30 3697 H 344.428 -2.81052 0.859467 0
M  V30 3698 H 341.942 -1.5206 0.570227 0
M  V30 3699 H 343.939 -3.95311 -1.32419 0
M  V30 3700 H 342.599 -2.81421 -1.61964 0
M  V30 3701 H 343.61 -4.9958 1.36528 0
M  V30 3702 H 340.287 -4.04497 -1.03383 0
M  V30 3703 H 341.677 -6.30755 2.31511 0
M  V30 3704 N 344.397 -0.483516 -1.5 0
M  V30 3705 C 345.808 -0.0314176 -1.86674 0
M  V30 3706 C 346.159 1.37728 -1.39733 0
M  V30 3707 O 345.284 2.02327 -0.767635 0
M  V30 3708 C 345.879 -0.0502376 -3.38763 0
M  V30 3709 C 344.438 0.346442 -3.74802 0
M  V30 3710 C 343.585 -0.430366 -2.7394 0
M  V30 3711 H 346.536 -0.697182 -1.42566 0
M  V30 3712 H 346.557 0.749116 -3.73053 0
M  V30 3713 H 346.069 -1.07563 -3.72897 0
M  V30 3714 H 344.17 1.37572 -3.46273 0
M  V30 3715 H 344.283 0.0391486 -4.79084 0
M  V30 3716 H 342.647 0.117557 -2.54429 0
M  V30 3717 H 343.43 -1.4555 -3.10918 0
M  V30 3718 N 345.875 1.56104 -0.216619 0
M  V30 3719 C 347.152 1.89988 0.465165 0
M  V30 3720 C 347.532 1.13326 1.78102 0
M  V30 3721 O 346.88 0.241033 2.27225 0
M  V30 3722 C 347.09 3.42646 0.662939 0
M  V30 3723 C 348.438 4.13311 0.972602 0
M  V30 3724 O 349.462 3.48217 0.749901 0
M  V30 3725 O 348.321 5.28396 1.39499 0
M  V30 3726 H 345.415 0.78979 0.245276 0
M  V30 3727 H 347.961 1.67721 -0.258436 0
M  V30 3728 H 346.733 3.90399 -0.26543 0
M  V30 3729 H 346.356 3.70677 1.43821 0
M  V30 3730 N 347.353 -0.0568162 1.57498 0
M  V30 3731 C 348.316 -1.05038 2.03715 0
M  V30 3732 C 349.316 -1.30709 0.936577 0
M  V30 3733 O 350.506 -1.26178 1.20103 0
M  V30 3734 C 347.638 -2.39034 2.43055 0
M  V30 3735 H 348.831 -0.651715 2.92733 0
M  V30 3736 H 346.384 -0.302947 1.53336 0
M  V30 3737 H 347.119 -2.83703 1.57108 0
M  V30 3738 H 346.904 -2.21739 3.2338 0
M  V30 3739 H 348.394 -3.10421 2.79336 0
M  V30 3740 N 348.832 -1.54138 -0.328536 0
M  V30 3741 C 350.078 -1.73297 -1.06488 0
M  V30 3742 C 350.433 -0.497958 -1.85844 0
M  V30 3743 O 349.726 0.509591 -1.84699 0
M  V30 3744 C 349.92 -2.9457 -2.02393 0
M  V30 3745 C 349.749 -4.29747 -1.32467 0
M  V30 3746 C 348.519 -4.93987 -1.06324 0
M  V30 3747 C 350.717 -5.08903 -0.743137 0
M  V30 3748 N 348.699 -6.13005 -0.331359 0
M  V30 3749 C 350.07 -6.19836 -0.142602 0
M  V30 3750 C 352.125 -4.93699 -0.64546 0
M  V30 3751 C 350.828 -7.17224 0.546125 0
M  V30 3752 C 352.854 -5.91393 0.0295558 0
M  V30 3753 C 352.216 -7.01674 0.619056 0
M  V30 3754 H 348.315 -0.687017 -0.373539 0
M  V30 3755 H 350.899 -1.91589 -0.346659 0
M  V30 3756 H 349.07 -2.77752 -2.71493 0
M  V30 3757 H 350.802 -3.0238 -2.68977 0
M  V30 3758 H 347.557 -4.53824 -1.35428 0
M  V30 3759 H 347.981 -6.76997 0.0202939 0
M  V30 3760 H 352.623 -4.08589 -1.08695 0
M  V30 3761 H 350.341 -8.01896 0.999459 0
M  V30 3762 H 353.927 -5.81706 0.104705 0
M  V30 3763 H 352.807 -7.75971 1.13309 0
M  V30 3764 N 350.31 0.590341 -1.46126 0
M  V30 3765 C 351.556 1.35082 -1.51264 0
M  V30 3766 C 351.889 1.93534 -0.160711 0
M  V30 3767 O 351.164 1.76045 0.826956 0
M  V30 3768 C 351.447 2.48588 -2.6053 0
M  V30 3769 C 351.3 1.95221 -4.05227 0
M  V30 3770 C 352.619 3.50662 -2.6594 0
M  V30 3771 H 349.738 0.489803 -0.550692 0
M  V30 3772 H 352.38 0.663887 -1.78024 0
M  V30 3773 H 350.53 3.07186 -2.37843 0
M  V30 3774 H 352.202 1.41139 -4.39178 0
M  V30 3775 H 350.445 1.26101 -4.15068 0
M  V30 3776 H 351.116 2.77121 -4.77397 0
M  V30 3777 H 353.592 3.01934 -2.86313 0
M  V30 3778 H 352.468 4.27551 -3.44226 0
M  V30 3779 H 352.729 4.07399 -1.71694 0
M  V30 3780 N 351.788 1.33704 0.83433 0
M  V30 3781 C 353.204 1.13137 1.12571 0
M  V30 3782 C 353.404 -0.0747261 2.01361 0
M  V30 3783 O 352.46 -0.753647 2.4099 0
M  V30 3784 C 353.773 2.42105 1.78342 0
M  V30 3785 C 355.321 2.48054 1.90888 0
M  V30 3786 C 355.796 3.76995 2.60075 0
M  V30 3787 N 357.287 3.78092 2.67584 0
M  V30 3788 C 358.022 4.74574 3.21818 0
M  V30 3789 N 357.518 5.81434 3.76705 0
M  V30 3790 N 359.311 4.62044 3.20112 0
M  V30 3791 H 351.462 2.11 0.243489 0
M  V30 3792 H 353.725 0.932532 0.17055 0
M  V30 3793 H 353.431 3.30391 1.20561 0
M  V30 3794 H 353.305 2.54594 2.7832 0
M  V30 3795 H 355.692 1.60215 2.47821 0
M  V30 3796 H 355.773 2.39502 0.898459 0
M  V30 3797 H 355.417 4.65219 2.03799 0
M  V30 3798 H 355.347 3.82825 3.61597 0
M  V30 3799 H 357.838 3.00865 2.28667 0
M  V30 3800 H 358.151 6.51084 4.16305 0
M  V30 3801 H 356.496 5.85163 3.7498 0
M  V30 3802 H 359.687 3.77716 2.76493 0
M  V30 3803 H 359.86 5.37406 3.62076 0
M  V30 3804 N 353.266 -1.05314 1.17247 0
M  V30 3805 C 354.514 -1.77941 0.958194 0
M  V30 3806 C 354.835 -1.88089 -0.514556 0
M  V30 3807 O 354.105 -1.39676 -1.37359 0
M  V30 3808 H 352.685 -0.659116 0.351533 0
M  V30 3809 H 355.347 -1.27166 1.47699 0
M  V30 3810 H 354.443 -2.79663 1.38546 0
M  V30 3811 N 354.744 -0.972509 -1.24016 0
M  V30 3812 C 356.16 -0.679827 -1.44397 0
M  V30 3813 C 356.36 0.756716 -1.86751 0
M  V30 3814 O 355.416 1.53007 -2.00861 0
M  V30 3815 C 356.729 -1.66803 -2.50195 0
M  V30 3816 C 358.277 -1.68119 -2.64017 0
M  V30 3817 C 358.752 -2.65748 -3.73017 0
M  V30 3818 N 360.243 -2.64219 -3.8045 0
M  V30 3819 C 360.978 -3.36433 -4.64328 0
M  V30 3820 N 360.474 -4.1818 -5.52356 0
M  V30 3821 N 362.267 -3.25235 -4.58453 0
M  V30 3822 H 354.418 -1.90059 -0.948228 0
M  V30 3823 H 356.681 -0.818527 -0.478245 0
M  V30 3824 H 356.387 -2.69498 -2.25973 0
M  V30 3825 H 356.261 -1.4446 -3.48441 0
M  V30 3826 H 358.648 -0.661319 -2.87594 0
M  V30 3827 H 358.729 -1.94525 -1.66113 0
M  V30 3828 H 358.373 -3.67872 -3.50189 0
M  V30 3829 H 358.303 -2.36619 -4.70446 0
M  V30 3830 H 360.794 -2.04887 -3.17537 0
M  V30 3831 H 361.107 -4.70157 -6.13329 0
M  V30 3832 H 359.452 -4.22273 -5.52006 0
M  V30 3833 H 362.643 -2.60829 -3.88698 0
M  V30 3834 H 362.816 -3.81776 -5.23594 0
M  V30 3835 N 356.222 1.38976 -0.743202 0
M  V30 3836 C 357.447 2.05161 -0.303936 0
M  V30 3837 C 357.872 1.55677 1.05576 0
M  V30 3838 O 357.23 0.704131 1.67068 0
M  V30 3839 C 357.278 3.59138 -0.324373 0
M  V30 3840 O 356.382 4.06668 0.685204 0
M  V30 3841 H 355.723 0.649815 -0.136518 0
M  V30 3842 H 358.253 1.77852 -1.01142 0
M  V30 3843 H 358.263 4.07639 -0.171618 0
M  V30 3844 H 356.938 3.94515 -1.31647 0
M  V30 3845 H 355.515 3.69561 0.497913 0
M  V30 3846 N 357.7 0.491464 1.49741 0
M  V30 3847 C 359.111 0.0413169 1.86654 0
M  V30 3848 C 359.462 -1.36985 1.40462 0
M  V30 3849 O 358.587 -2.01917 0.778354 0
M  V30 3850 C 359.182 0.0682023 3.38731 0
M  V30 3851 C 357.741 -0.32656 3.74981 0
M  V30 3852 C 356.888 0.444888 2.73708 0
M  V30 3853 H 359.839 0.704733 1.42194 0
M  V30 3854 H 359.86 -0.729322 3.73445 0
M  V30 3855 H 359.372 1.09539 3.72321 0
M  V30 3856 H 357.473 -1.35734 3.46997 0
M  V30 3857 H 357.586 -0.013741 4.79098 0
M  V30 3858 H 355.95 -0.104062 2.54487 0
M  V30 3859 H 356.733 1.47197 3.10142 0
M  V30 3860 N 359.178 -1.55987 0.224894 0
M  V30 3861 C 360.403 -2.03232 -0.41369 0
M  V30 3862 C 360.828 -1.10359 -1.52323 0
M  V30 3863 O 360.186 -0.092395 -1.81064 0
M  V30 3864 C 360.234 -3.48682 -0.919405 0
M  V30 3865 O 359.338 -3.58947 -2.03054 0
M  V30 3866 H 358.679 -0.657428 -0.0931903 0
M  V30 3867 H 361.209 -2.01679 0.34451 0
M  V30 3868 H 361.219 -3.8907 -1.22835 0
M  V30 3869 H 359.894 -4.15761 -0.107339 0
M  V30 3870 H 358.471 -3.30448 -1.72796 0
M  V30 3871 N 360.656 0.0484629 -1.57525 0
M  V30 3872 C 361.933 0.777447 -1.79486 0
M  V30 3873 C 362.313 1.94597 -0.818251 0
M  V30 3874 O 361.661 2.28047 0.143767 0
M  V30 3875 C 361.871 1.22864 -3.26658 0
M  V30 3876 C 363.219 1.65251 -3.91123 0
M  V30 3877 O 364.243 1.32372 -3.3069 0
M  V30 3878 O 363.102 2.26207 -4.97486 0
M  V30 3879 H 360.196 0.374357 -0.737419 0
M  V30 3880 H 362.742 0.0267359 -1.69679 0
M  V30 3881 H 361.514 0.393589 -3.89316 0
M  V30 3882 H 361.137 2.03996 -3.41279 0
M  V30 3883 N 362.134 1.5431 0.320358 0
M  V30 3884 C 363.383 1.7188 1.05546 0
M  V30 3885 C 363.696 0.501143 1.89071 0
M  V30 3886 O 364.902 0.558258 2.65699 0
M  V30 3887 C 363.358 3.04025 1.92605 0
M  V30 3888 C 362.966 4.33207 1.14176 0
M  V30 3889 C 364.71 3.30959 2.65832 0
M  V30 3890 C 362.617 5.56412 2.00399 0
M  V30 3891 H 361.547 0.640547 0.397763 0
M  V30 3892 H 364.198 1.80802 0.313522 0
M  V30 3893 H 362.58 2.89019 2.7071 0
M  V30 3894 H 363.754 4.58989 0.40819 0
M  V30 3895 H 362.069 4.13062 0.526165 0
M  V30 3896 H 364.666 4.20203 3.30656 0
M  V30 3897 H 365.009 2.48979 3.33639 0
M  V30 3898 H 365.542 3.46847 1.94787 0
M  V30 3899 H 362.281 6.41004 1.37094 0
M  V30 3900 H 361.801 5.34844 2.7148 0
M  V30 3901 H 363.48 5.92938 2.58908 0
M  V30 3902 N 363.613 -0.582584 1.46437 0
M  V30 3903 C 364.838 -1.37168 1.55563 0
M  V30 3904 C 365.263 -1.87061 0.19743 0
M  V30 3905 O 364.621 -1.61572 -0.822451 0
M  V30 3906 C 364.669 -2.53511 2.56446 0
M  V30 3907 O 363.773 -3.54953 2.09958 0
M  V30 3908 H 363.114 -0.408494 0.523477 0
M  V30 3909 H 365.644 -0.706646 1.9201 0
M  V30 3910 H 365.654 -3.00426 2.76058 0
M  V30 3911 H 364.329 -2.16549 3.55076 0
M  V30 3912 H 362.906 -3.14516 2.00334 0
M  V30 3913 N 365.091 -1.34144 -0.827227 0
M  V30 3914 C 366.316 -1.29476 -1.62021 0
M  V30 3915 C 366.741 0.129292 -1.87655 0
M  V30 3916 O 366.099 1.08967 -1.449 0
M  V30 3917 C 366.147 -2.08702 -2.94068 0
M  V30 3918 O 365.251 -1.45359 -3.85933 0
M  V30 3919 H 364.592 -0.444881 -0.492927 0
M  V30 3920 H 367.122 -1.76882 -1.02829 0
M  V30 3921 H 367.132 -2.19898 -3.43669 0
M  V30 3922 H 365.807 -3.12241 -2.74734 0
M  V30 3923 H 364.384 -1.42879 -3.44442 0
M  V30 3924 N 366.569 1.04691 -1.17803 0
M  V30 3925 C 367.479 2.16057 -0.914151 0
M  V30 3926 C 368.495 1.73589 0.119503 0
M  V30 3927 O 369.671 2.01308 -0.0609468 0
M  V30 3928 C 366.736 3.4394 -0.436603 0
M  V30 3929 C 365.797 4.00825 -1.53746 0
M  V30 3930 C 365.03 5.22604 -1.0826 0
M  V30 3931 O 365.253 5.70367 0.0612244 0
M  V30 3932 O 364.187 5.7186 -1.87775 0
M  V30 3933 H 368.013 2.41169 -1.84584 0
M  V30 3934 H 365.598 1.1453 -0.959334 0
M  V30 3935 H 367.48 4.21024 -0.178057 0
M  V30 3936 H 366.155 3.20316 0.466869 0
M  V30 3937 H 365.062 3.25158 -1.84995 0
M  V30 3938 H 366.395 4.28778 -2.41683 0
M  V30 3939 N 368.047 0.979072 1.23499 0
M  V30 3940 C 369.01 0.523244 2.23147 0
M  V30 3941 C 370.01 -0.386406 1.56088 0
M  V30 3942 O 371.2 -0.180283 1.73265 0
M  V30 3943 C 368.332 -0.240739 3.40049 0
M  V30 3944 H 369.525 1.40432 2.64989 0
M  V30 3945 H 367.078 0.764824 1.36309 0
M  V30 3946 H 367.813 -1.13841 3.03662 0
M  V30 3947 H 367.598 0.412207 3.89927 0
M  V30 3948 H 369.088 -0.548297 4.13985 0
M  V30 3949 N 369.525 -1.3858 0.750561 0
M  V30 3950 C 370.75 -2.04997 0.314812 0
M  V30 3951 C 371.175 -1.56235 -1.04749 0
M  V30 3952 O 370.533 -0.712981 -1.66692 0
M  V30 3953 C 370.581 -3.58961 0.343415 0
M  V30 3954 O 369.685 -4.07025 -0.663628 0
M  V30 3955 H 369.026 -0.649081 0.139962 0
M  V30 3956 H 371.556 -1.77313 1.02084 0
M  V30 3957 H 371.566 -4.07542 0.193233 0
M  V30 3958 H 370.241 -3.93811 1.33738 0
M  V30 3959 H 368.818 -3.6982 -0.478307 0
M  V30 3960 N 371.003 -0.499398 -1.49478 0
M  V30 3961 C 371.933 0.269244 -2.31943 0
M  V30 3962 C 372.914 0.964054 -1.40143 0
M  V30 3963 O 374.099 0.955767 -1.69052 0
M  V30 3964 C 371.229 1.33504 -3.20615 0
M  V30 3965 C 370.183 0.760202 -4.21195 0
M  V30 3966 C 369.509 1.9264 -4.98792 0
M  V30 3967 C 370.809 -0.247661 -5.21712 0
M  V30 3968 H 372.503 -0.419082 -2.96452 0
M  V30 3969 H 370.049 -0.202988 -1.42562 0
M  V30 3970 H 372.002 1.88048 -3.77115 0
M  V30 3971 H 370.726 2.05253 -2.54045 0
M  V30 3972 H 369.385 0.23653 -3.65836 0
M  V30 3973 H 369.033 2.63154 -4.28671 0
M  V30 3974 H 368.733 1.54785 -5.66847 0
M  V30 3975 H 370.257 2.4762 -5.58137 0
M  V30 3976 H 371.671 0.209579 -5.72917 0
M  V30 3977 H 370.068 -0.541962 -5.97648 0
M  V30 3978 H 371.138 -1.16409 -4.7072 0
M  V30 3979 N 372.481 1.55866 -0.233164 0
M  V30 3980 C 373.413 2.18099 0.704668 0
M  V30 3981 C 374.426 1.15334 1.14899 0
M  V30 3982 O 375.615 1.42262 1.07814 0
M  V30 3983 C 372.715 2.7592 1.96777 0
M  V30 3984 C 371.888 4.03969 1.67713 0
M  V30 3985 C 370.947 4.46242 2.78845 0
M  V30 3986 O 369.973 5.12903 2.46818 0
M  V30 3987 N 371.175 4.12886 4.08051 0
M  V30 3988 H 373.94 2.99205 0.172258 0
M  V30 3989 H 371.501 1.61815 -0.0525945 0
M  V30 3990 H 373.493 3.01165 2.70337 0
M  V30 3991 H 372.063 1.99051 2.41034 0
M  V30 3992 H 371.283 3.86459 0.777391 0
M  V30 3993 H 372.571 4.8748 1.4574 0
M  V30 3994 H 371.969 3.59342 4.3691 0
M  V30 3995 H 370.526 4.42997 4.78118 0
M  V30 3996 N 373.959 -0.0401083 1.57549 0
M  V30 3997 C 374.892 -1.07689 2.01192 0
M  V30 3998 C 375.87 -1.358 0.894273 0
M  V30 3999 O 377.054 -1.48642 1.15921 0
M  V30 4000 C 374.181 -2.41418 2.3756 0
M  V30 4001 C 373.227 -2.29237 3.59656 0
M  V30 4002 S 374.06 -1.65628 5.09242 0
M  V30 4003 C 375.216 -3.0087 5.48843 0
M  V30 4004 H 375.449 -0.705108 2.88817 0
M  V30 4005 H 372.982 -0.249724 1.52367 0
M  V30 4006 H 374.94 -3.18329 2.59186 0
M  V30 4007 H 373.601 -2.75747 1.50407 0
M  V30 4008 H 372.794 -3.27932 3.82722 0
M  V30 4009 H 372.396 -1.60469 3.37825 0
M  V30 4010 H 374.688 -3.97201 5.48851 0
M  V30 4011 H 375.631 -2.82549 6.49286 0
M  V30 4012 H 376.039 -3.02934 4.76331 0
M  V30 4013 N 375.437 -1.54477 -0.31217 0
M  V30 4014 C 376.385 -1.85395 -1.40469 0
M  V30 4015 C 377.379 -0.726749 -1.53019 0
M  V30 4016 O 378.585 -0.910582 -1.55269 0
M  V30 4017 H 374.96 -0.587845 -0.46898 0
M  V30 4018 H 376.931 -2.76736 -1.11623 0
M  V30 4019 C 375.68 -2.10811 -2.76503 0
M  V30 4020 H 375.003 -2.97014 -2.67625 0
M  V30 4021 H 376.443 -2.3639 -3.51988 0
M  V30 4022 C 374.902 -0.903165 -3.24568 0
M  V30 4023 O 375.432 -0.118085 -4.01526 0
M  V30 4024 N 373.638 -0.711634 -2.81752 0
M  V30 4025 H 373.185 -1.35171 -2.19286 0
M  V30 4026 H 373.143 0.0930473 -3.14262 0
M  V30 4027 N 376.915 0.57481 -1.46744 0
M  V30 4028 C 378.14 1.36341 -1.56288 0
M  V30 4029 C 378.565 1.86954 -0.207347 0
M  V30 4030 O 377.923 1.62006 0.813871 0
M  V30 4031 C 377.971 2.52147 -2.57787 0
M  V30 4032 O 377.075 3.53834 -2.11838 0
M  V30 4033 H 376.416 0.405713 -0.525636 0
M  V30 4034 H 378.946 0.696453 -1.92382 0
M  V30 4035 H 378.956 2.98958 -2.77648 0
M  V30 4036 H 377.631 2.14663 -3.5622 0
M  V30 4037 H 376.208 3.1345 -2.01999 0
M  V30 4038 N 378.394 1.34581 0.820102 0
M  V30 4039 C 379.342 1.26401 1.95258 0
M  V30 4040 C 380.336 0.161553 1.68628 0
M  V30 4041 O 381.542 0.326703 1.7701 0
M  V30 4042 H 377.917 0.392749 0.64129 0
M  V30 4043 H 379.888 2.22105 1.99279 0
M  V30 4044 C 378.637 1.03919 3.31807 0
M  V30 4045 H 377.96 1.87984 3.52848 0
M  V30 4046 H 379.4 1.02232 4.11491 0
M  V30 4047 C 377.859 -0.257433 3.35915 0
M  V30 4048 O 378.389 -1.25784 3.81499 0
M  V30 4049 N 376.595 -0.291524 2.89134 0
M  V30 4050 H 376.142 0.523161 2.52232 0
M  V30 4051 H 376.1 -1.15883 2.92264 0
M  V30 4052 N 379.872 -1.04064 1.18357 0
M  V30 4053 C 381.102 -1.80654 1.00238 0
M  V30 4054 C 381.51 -1.83713 -0.452362 0
M  V30 4055 O 380.853 -1.27135 -1.32599 0
M  V30 4056 C 380.915 -3.27582 1.48088 0
M  V30 4057 C 380.579 -3.48184 2.96002 0
M  V30 4058 C 381.576 -3.39372 3.93856 0
M  V30 4059 C 379.261 -3.7478 3.34433 0
M  V30 4060 C 381.255 -3.5686 5.28138 0
M  V30 4061 C 378.942 -3.91915 4.68877 0
M  V30 4062 C 379.94 -3.82956 5.65539 0
M  V30 4063 O 379.628 -3.996 6.97549 0
M  V30 4064 H 379.36 -0.575751 0.354241 0
M  V30 4065 H 381.914 -1.32044 1.57333 0
M  V30 4066 H 380.144 -3.77161 0.853588 0
M  V30 4067 H 381.833 -3.8573 1.2636 0
M  V30 4068 H 382.599 -3.18789 3.65511 0
M  V30 4069 H 378.478 -3.80852 2.59756 0
M  V30 4070 H 382.022 -3.49783 6.03571 0
M  V30 4071 H 377.919 -4.11992 4.96923 0
M  V30 4072 H 378.687 -4.1676 7.04452 0
M  V30 4073 N 381.35 -0.985608 -1.22978 0
M  V30 4074 C 382.761 -0.693593 -1.73338 0
M  V30 4075 C 383.112 0.789935 -1.79595 0
M  V30 4076 O 382.237 1.61771 -1.43733 0
M  V30 4077 C 382.832 -1.25235 -3.14804 0
M  V30 4078 C 381.391 -1.00987 -3.626 0
M  V30 4079 C 380.538 -1.37695 -2.40698 0
M  V30 4080 H 383.489 -1.15884 -1.08428 0
M  V30 4081 H 383.51 -0.627329 -3.75293 0
M  V30 4082 H 383.022 -2.33209 -3.10218 0
M  V30 4083 H 381.123 0.0535565 -3.72562 0
M  V30 4084 H 381.236 -1.66812 -4.49122 0
M  V30 4085 H 379.6 -0.795459 -2.4196 0
M  V30 4086 H 380.383 -2.46657 -2.38779 0
M  V30 4087 N 382.828 1.3818 -0.7579 0
M  V30 4088 C 383.791 2.28764 -0.141286 0
M  V30 4089 C 384.791 1.47388 0.642907 0
M  V30 4090 O 385.981 1.67781 0.468536 0
M  V30 4091 C 383.113 3.31184 0.808069 0
M  V30 4092 H 384.306 2.848 -0.939633 0
M  V30 4093 H 381.859 1.47212 -0.525191 0
M  V30 4094 H 382.594 2.80247 1.63193 0
M  V30 4095 H 382.379 3.91314 0.248104 0
M  V30 4096 H 383.869 3.98909 1.23536 0
M  V30 4097 N 384.306 0.507319 1.49211 0
M  V30 4098 C 385.236 -0.256939 2.32082 0
M  V30 4099 C 386.217 -0.956609 1.40652 0
M  V30 4100 O 387.402 -0.946788 1.69557 0
M  V30 4101 C 384.532 -1.31802 3.21318 0
M  V30 4102 C 383.486 -0.737855 4.21592 0
M  V30 4103 C 382.812 -1.89992 4.99807 0
M  V30 4104 C 384.112 0.275325 5.21574 0
M  V30 4105 H 385.806 0.434798 2.96226 0
M  V30 4106 H 383.352 0.210546 1.42452 0
M  V30 4107 H 385.305 -1.86045 3.78107 0
M  V30 4108 H 384.029 -2.03903 2.5513 0
M  V30 4109 H 382.688 -0.217126 3.65956 0
M  V30 4110 H 382.336 -2.60877 4.30061 0
M  V30 4111 H 382.036 -1.51777 5.6766 0
M  V30 4112 H 383.56 -2.44657 5.59442 0
M  V30 4113 H 384.974 -0.179193 5.7302 0
M  V30 4114 H 383.371 0.573649 5.97352 0
M  V30 4115 H 384.441 1.18903 4.70096 0
M  V30 4116 N 385.784 -1.5574 0.241426 0
M  V30 4117 C 386.714 -2.24133 -0.654722 0
M  V30 4118 C 387.695 -1.21974 -1.1856 0
M  V30 4119 O 388.88 -1.50612 -1.22595 0
M  V30 4120 C 386.01 -2.93659 -1.85423 0
M  V30 4121 C 384.964 -4.0246 -1.45636 0
M  V30 4122 C 384.29 -4.59383 -2.73626 0
M  V30 4123 C 385.59 -5.18468 -0.631506 0
M  V30 4124 H 387.284 -2.99281 -0.0844353 0
M  V30 4125 H 384.83 -1.43947 -0.0391707 0
M  V30 4126 H 386.783 -3.40203 -2.48676 0
M  V30 4127 H 385.507 -2.15991 -2.44981 0
M  V30 4128 H 384.166 -3.56676 -0.847202 0
M  V30 4129 H 383.814 -3.78422 -3.3137 0
M  V30 4130 H 383.514 -5.32826 -2.4773 0
M  V30 4131 H 385.038 -5.08658 -3.37786 0
M  V30 4132 H 386.452 -5.61272 -1.1682 0
M  V30 4133 H 384.849 -5.98266 -0.468831 0
M  V30 4134 H 385.919 -4.8358 0.357506 0
M  V30 4135 N 387.262 0.0317525 -1.57568 0
M  V30 4136 C 388.209 1.0332 -2.06382 0
M  V30 4137 C 389.179 1.36082 -0.952414 0
M  V30 4138 O 390.364 1.46466 -1.2228 0
M  V30 4139 C 387.504 2.32989 -2.54578 0
M  V30 4140 C 386.617 2.0641 -3.79498 0
M  V30 4141 C 385.752 3.2993 -4.16317 0
M  V30 4142 C 384.791 2.98893 -5.34162 0
M  V30 4143 N 383.928 4.14857 -5.66426 0
M  V30 4144 H 388.768 0.609982 -2.9169 0
M  V30 4145 H 386.305 0.289573 -1.44222 0
M  V30 4146 H 388.263 3.0875 -2.80587 0
M  V30 4147 H 386.893 2.73039 -1.7219 0
M  V30 4148 H 385.945 1.21158 -3.6059 0
M  V30 4149 H 387.257 1.79513 -4.65378 0
M  V30 4150 H 386.411 4.1406 -4.4344 0
M  V30 4151 H 385.15 3.59938 -3.29083 0
M  V30 4152 H 384.155 2.13164 -5.06795 0
M  V30 4153 H 385.38 2.70165 -6.23047 0
M  V30 4154 H 383.326 4.44821 -4.82151 0
M  V30 4155 H 383.243 3.91374 -6.4681 0
M  V30 4156 H 384.511 4.99868 -5.98124 0
M  V30 4157 N 388.74 1.54641 0.303973 0
M  V30 4158 C 389.98 1.75516 1.04755 0
M  V30 4159 C 390.344 0.528211 1.84591 0
M  V30 4160 O 391.545 0.614645 2.61678 0
M  V30 4161 C 389.816 3.00685 1.93193 0
M  V30 4162 S 391.375 3.42549 2.74237 0
M  V30 4163 H 388.193 0.616987 0.353339 0
M  V30 4164 H 390.795 1.92842 0.321292 0
M  V30 4165 H 389.499 3.8811 1.33411 0
M  V30 4166 H 389.03 2.85937 2.70191 0
M  V30 4167 H 391.045 2.99386 3.95705 0
M  V30 4168 N 390.218 -0.567019 1.47046 0
M  V30 4169 C 391.629 -1.14916 1.47143 0
M  V30 4170 C 391.98 -1.94954 0.220767 0
M  V30 4171 O 391.105 -2.05602 -0.67505 0
M  V30 4172 C 391.7 -2.09069 2.666 0
M  V30 4173 C 390.259 -2.62575 2.69687 0
M  V30 4174 C 389.406 -1.38755 2.40088 0
M  V30 4175 H 392.357 -0.354126 1.54699 0
M  V30 4176 H 392.378 -2.92789 2.43011 0
M  V30 4177 H 391.89 -1.50789 3.57609 0
M  V30 4178 H 389.991 -3.24681 1.82792 0
M  V30 4179 H 390.104 -3.04239 3.70102 0
M  V30 4180 H 388.468 -1.69098 1.90468 0
M  V30 4181 H 389.251 -0.822822 3.33293 0
M  V30 4182 N 391.696 -1.35014 -0.812953 0
M  V30 4183 C 392.973 -1.18502 -1.55617 0
M  V30 4184 C 393.353 0.238421 -2.09749 0
M  V30 4185 O 392.701 1.2411 -1.91857 0
M  V30 4186 C 392.911 -2.24783 -2.66971 0
M  V30 4187 C 394.259 -2.60268 -3.35478 0
M  V30 4188 O 395.283 -2.23648 -2.77236 0
M  V30 4189 O 394.142 -3.2321 -4.40678 0
M  V30 4190 H 391.236 -0.459984 -0.687272 0
M  V30 4191 H 393.782 -1.46677 -0.853464 0
M  V30 4192 H 392.554 -3.20284 -2.24798 0
M  V30 4193 H 392.177 -1.97841 -3.44884 0
M  V30 4194 N 393.175 1.03435 -1.18907 0
M  V30 4195 C 394.405 1.8012 -1.01195 0
M  V30 4196 C 394.813 1.8395 0.442613 0
M  V30 4197 O 394.156 1.27836 1.31923 0
M  V30 4198 C 394.218 3.26792 -1.49823 0
M  V30 4199 C 393.882 3.46609 -2.97844 0
M  V30 4200 C 394.879 3.37278 -3.95651 0
M  V30 4201 C 392.564 3.73001 -3.36416 0
M  V30 4202 C 394.558 3.54054 -5.30023 0
M  V30 4203 C 392.245 3.89423 -4.70949 0
M  V30 4204 C 393.243 3.79951 -5.67562 0
M  V30 4205 O 392.931 3.95895 -6.99659 0
M  V30 4206 H 392.663 0.573865 -0.357289 0
M  V30 4207 H 395.217 1.31207 -1.58031 0
M  V30 4208 H 393.447 3.76703 -0.873578 0
M  V30 4209 H 395.136 3.85055 -1.28404 0
M  V30 4210 H 395.902 3.16846 -3.67197 0
M  V30 4211 H 391.781 3.79469 -2.61772 0
M  V30 4212 H 395.325 3.46577 -6.05417 0
M  V30 4213 H 391.222 4.09351 -4.99101 0
M  V30 4214 H 391.99 4.13019 -7.06653 0
M  V30 4215 N 394.653 0.992116 1.22453 0
M  V30 4216 C 395.93 0.583508 1.86694 0
M  V30 4217 C 396.31 -0.9392 1.89056 0
M  V30 4218 O 395.658 -1.82081 1.38053 0
M  V30 4219 C 395.868 1.20304 3.2761 0
M  V30 4220 C 397.216 1.30308 4.0411 0
M  V30 4221 O 398.24 1.15737 3.36873 0
M  V30 4222 O 397.099 1.53615 5.24466 0
M  V30 4223 H 394.193 0.198129 0.802916 0
M  V30 4224 H 396.739 1.08794 1.30238 0
M  V30 4225 H 395.511 2.24461 3.2052 0
M  V30 4226 H 395.134 0.684144 3.9167 0
M  V30 4227 N 396.131 -1.37776 0.765217 0
M  V30 4228 C 397.063 -2.28958 0.105361 0
M  V30 4229 C 398.076 -1.48316 -0.67128 0
M  V30 4230 O 399.265 -1.71046 -0.51045 0
M  V30 4231 C 396.365 -3.27421 -0.874569 0
M  V30 4232 C 395.538 -4.37132 -0.153123 0
M  V30 4233 C 394.597 -5.1571 -1.04547 0
M  V30 4234 O 393.623 -5.66896 -0.511672 0
M  V30 4235 N 394.825 -5.29808 -2.37243 0
M  V30 4236 H 397.59 -2.86227 0.888495 0
M  V30 4237 H 395.151 -1.49682 0.617 0
M  V30 4238 H 397.143 -3.7687 -1.47483 0
M  V30 4239 H 395.713 -2.70967 -1.55871 0
M  V30 4240 H 394.933 -3.89166 0.627975 0
M  V30 4241 H 396.221 -5.07625 0.345643 0
M  V30 4242 H 395.619 -4.89793 -2.83054 0
M  V30 4243 H 394.176 -5.82589 -2.9229 0
M  V30 4244 N 397.609 -0.515225 -1.4894 0
M  V30 4245 C 398.542 0.302518 -2.26186 0
M  V30 4246 C 399.52 0.957895 -1.31389 0
M  V30 4247 O 400.704 0.985198 -1.60705 0
M  V30 4248 C 397.831 1.42719 -3.07163 0
M  V30 4249 C 396.877 0.884736 -4.17223 0
M  V30 4250 S 397.71 -0.235767 -5.34981 0
M  V30 4251 C 398.866 0.891731 -6.19515 0
M  V30 4252 H 399.099 -0.353076 -2.95196 0
M  V30 4253 H 396.632 -0.300753 -1.51443 0
M  V30 4254 H 398.59 2.07152 -3.54398 0
M  V30 4255 H 397.251 2.05445 -2.37595 0
M  V30 4256 H 396.444 1.72801 -4.73451 0
M  V30 4257 H 396.046 0.317362 -3.72651 0
M  V30 4258 H 398.338 1.79377 -6.53322 0
M  V30 4259 H 399.281 0.367751 -7.07144 0
M  V30 4260 H 399.689 1.16548 -5.52338 0
M  V30 4261 N 399.087 1.5561 -0.249682 0
M  V30 4262 C 400.312 2.03865 0.381305 0
M  V30 4263 C 400.737 1.12769 1.50548 0
M  V30 4264 O 400.095 0.121189 1.80895 0
M  V30 4265 C 400.143 3.50101 0.863816 0
M  V30 4266 O 399.247 3.62132 1.97318 0
M  V30 4267 H 398.588 0.658827 0.0827194 0
M  V30 4268 H 401.118 2.01105 -0.376552 0
M  V30 4269 H 401.128 3.90975 1.1663 0
M  V30 4270 H 399.803 4.1588 0.0411816 0
M  V30 4271 H 398.38 3.33155 1.67517 0
M  V30 4272 N 400.565 -0.0233959 1.57583 0
M  V30 4273 C 401.79 -0.728376 1.94189 0
M  V30 4274 C 402.215 -1.67793 0.850119 0
M  V30 4275 O 401.573 -1.80262 -0.19371 0
M  V30 4276 C 401.621 -1.45669 3.29868 0
M  V30 4277 O 400.725 -2.57013 3.22518 0
M  V30 4278 H 400.066 -0.195493 0.63457 0
M  V30 4279 H 402.596 0.0228214 2.04587 0
M  V30 4280 H 402.606 -1.82535 3.6489 0
M  V30 4281 H 401.281 -0.760314 4.08891 0
M  V30 4282 H 399.858 -2.22648 2.99136 0
M  V30 4283 N 402.043 -1.548 -0.295768 0
M  V30 4284 C 403.268 -1.78653 -1.05346 0
M  V30 4285 C 403.693 -0.546894 -1.79974 0
M  V30 4286 O 403.051 0.502763 -1.7419 0
M  V30 4287 C 403.099 -2.99679 -2.00561 0
M  V30 4288 O 402.203 -2.7317 -3.08953 0
M  V30 4289 H 401.544 -0.59116 -0.302367 0
M  V30 4290 H 404.074 -2.01895 -0.331598 0
M  V30 4291 H 404.084 -3.27793 -2.42932 0
M  V30 4292 H 402.759 -3.89562 -1.4565 0
M  V30 4293 H 401.336 -2.56089 -2.71059 0
M  V30 4294 N 403.521 0.559213 -1.47345 0
M  V30 4295 C 404.932 1.14134 -1.47751 0
M  V30 4296 C 405.283 1.94834 -0.231103 0
M  V30 4297 O 404.408 2.05957 0.664137 0
M  V30 4298 C 405.003 2.07653 -2.67705 0
M  V30 4299 C 403.562 2.61141 -2.71076 0
M  V30 4300 C 402.709 1.3748 -2.40821 0
M  V30 4301 H 405.66 0.345917 -1.54884 0
M  V30 4302 H 405.681 2.91497 -2.44561 0
M  V30 4303 H 405.193 1.4889 -3.58404 0
M  V30 4304 H 403.294 3.23707 -1.84511 0
M  V30 4305 H 403.407 3.02272 -3.7171 0
M  V30 4306 H 401.771 1.68086 -1.91362 0
M  V30 4307 H 402.554 0.805135 -3.33725 0
M  V30 4308 N 404.999 1.35443 0.805782 0
M  V30 4309 C 406.239 1.30127 1.57627 0
M  V30 4310 C 406.603 -0.122567 1.91608 0
M  V30 4311 O 407.804 -0.300107 2.67119 0
M  V30 4312 C 406.075 2.18314 2.82973 0
M  V30 4313 S 407.634 2.30521 3.7337 0
M  V30 4314 H 404.452 0.462439 0.540066 0
M  V30 4315 H 407.054 1.70843 0.95042 0
M  V30 4316 H 405.758 3.20741 2.56034 0
M  V30 4317 H 405.289 1.78558 3.50543 0
M  V30 4318 H 407.304 1.49062 4.73281 0
M  V30 4319 O 406.516 -0.944775 1.30982 0
M  V30 4320 H 407.207 -1.57432 1.12848 0
M  V30 END ATOM
M  V30 BEGIN BOND
M  V30 END BOND
M  V30 END CTAB
M  END
$$$$
