drugbank_target|Q9UGI5 Glutamic acid decarboxylase (DB00114; DB00780)
 OpenBabel12092120063D

  0  0  0     0  0            999 V3000
M  V30 BEGIN CTAB
M  V30 COUNTS 6650 6731 0 0 0
M  V30 BEGIN ATOM
M  V30 1 H -0.908 1.98254 -0.117106 0
M  V30 2 N 0 1.576 0 0
M  V30 3 C 0.93 2.11458 0.990341 0
M  V30 4 C 1.911 1.02372 1.35845 0
M  V30 5 O 3.096 1.30055 1.4422 0
M  V30 6 C 0.226 2.61788 2.2822 0
M  V30 7 C -0.82 3.754 2.0557 0
M  V30 8 C -1.494 4.12045 3.40769 0
M  V30 9 C -0.194 5.02675 1.41829 0
M  V30 10 H 1.5 2.94455 0.541905 0
M  V30 11 H -0.954 1.41648 0.259219 0
M  V30 12 H 0.999 2.98093 2.97856 0
M  V30 13 H -0.277 1.75913 2.75177 0
M  V30 14 H -1.618 3.39488 1.38359 0
M  V30 15 H -1.97 3.23193 3.85429 0
M  V30 16 H -2.27 4.88587 3.26429 0
M  V30 17 H -0.746 4.50909 4.1172 0
M  V30 18 H 0.668 5.36751 2.01422 0
M  V30 19 H -0.935 5.84022 1.37978 0
M  V30 20 H 0.135 4.83349 0.387506 0
M  V30 21 N 1.4781 -0.272755 1.55222 0
M  V30 22 C 2.4251 -1.33716 1.88119 0
M  V30 23 C 3.3951 -1.49066 0.73271 0
M  V30 24 O 4.5801 -1.63469 0.984002 0
M  V30 25 C 1.7201 -2.69238 2.15882 0
M  V30 26 C 0.8331 -2.62108 3.43399 0
M  V30 27 C -0.0319 -3.89811 3.60861 0
M  V30 28 C -0.9929 -3.77193 4.8207 0
M  V30 29 N -1.8559 -4.9673 4.96189 0
M  V30 30 H 2.9841 -1.04962 2.78903 0
M  V30 31 H 0.5211 -0.507088 1.38083 0
M  V30 32 H 2.4791 -3.48089 2.29978 0
M  V30 33 H 1.1091 -2.96194 1.28331 0
M  V30 34 H 0.1611 -1.74967 3.37773 0
M  V30 35 H 1.4731 -2.48685 4.32386 0
M  V30 36 H 0.6271 -4.77103 3.74777 0
M  V30 37 H -0.6339 -4.06102 2.7006 0
M  V30 38 H -1.6289 -2.88284 4.68159 0
M  V30 39 H -0.4039 -3.62421 5.74307 0
M  V30 40 H -2.4579 -5.13431 4.08319 0
M  V30 41 H -2.5409 -4.85839 5.79221 0
M  V30 42 H -1.2729 -5.85594 5.1449 0
M  V30 43 N 2.9562 -1.48159 -0.537278 0
M  V30 44 C 4.1862 -1.59223 -1.3165 0
M  V30 45 C 4.5942 -0.248849 -1.87556 0
M  V30 46 O 3.9372 0.770949 -1.6674 0
M  V30 47 C 3.9992 -2.57365 -2.51005 0
M  V30 48 C 3.6632 -4.02603 -2.16239 0
M  V30 49 C 4.6602 -4.90503 -1.72344 0
M  V30 50 C 2.3452 -4.48088 -2.26986 0
M  V30 51 C 4.3392 -6.21913 -1.39651 0
M  V30 52 C 2.0262 -5.7952 -1.93906 0
M  V30 53 C 3.0242 -6.66255 -1.50309 0
M  V30 54 O 2.7122 -7.95243 -1.17659 0
M  V30 55 H 2.4442 -0.539831 -0.406889 0
M  V30 56 H 4.9982 -1.94655 -0.655641 0
M  V30 57 H 3.2282 -2.1704 -3.20048 0
M  V30 58 H 4.9172 -2.58342 -3.13072 0
M  V30 59 H 5.6832 -4.56604 -1.63517 0
M  V30 60 H 1.5622 -3.80769 -2.59877 0
M  V30 61 H 5.1062 -6.89569 -1.0555 0
M  V30 62 H 1.0032 -6.12957 -2.02371 0
M  V30 63 H 1.7712 -8.0793 -1.31119 0
M  V30 64 N 4.4343 0.785586 -1.36625 0
M  V30 65 C 5.3973 1.87999 -1.31107 0
M  V30 66 C 6.3973 1.59316 -0.217959 0
M  V30 67 O 7.5873 1.67656 -0.472977 0
M  V30 68 C 4.7193 3.24861 -1.03334 0
M  V30 69 H 5.9123 1.94307 -2.2844 0
M  V30 70 H 3.4653 0.983813 -1.21453 0
M  V30 71 H 4.2003 3.24235 -0.0647432 0
M  V30 72 H 3.9853 3.4707 -1.82441 0
M  V30 73 H 5.4753 4.04929 -1.02088 0
M  V30 74 N 5.9124 1.20967 1.01018 0
M  V30 75 C 7.1614 1.01796 1.74128 0
M  V30 76 C 7.4744 -0.449691 1.90361 0
M  V30 77 O 8.6804 -0.76068 2.60626 0
M  V30 78 C 7.1364 1.7727 3.13215 0
M  V30 79 C 6.7444 3.28171 3.04972 0
M  V30 80 C 8.4884 1.66489 3.90489 0
M  V30 81 C 6.3954 3.96156 4.39107 0
M  V30 82 H 5.3254 0.377276 0.652824 0
M  V30 83 H 7.9764 1.44651 1.12909 0
M  V30 84 H 6.3584 1.27205 3.75013 0
M  V30 85 H 7.5324 3.85499 2.52443 0
M  V30 86 H 5.8474 3.39437 2.41188 0
M  V30 87 H 8.4444 2.14617 4.89738 0
M  V30 88 H 8.7874 0.6222 4.11624 0
M  V30 89 H 9.3204 2.14003 3.35332 0
M  V30 90 H 6.0594 5.00604 4.23174 0
M  V30 91 H 5.5794 3.43617 4.91617 0
M  V30 92 H 7.2584 4.00774 5.07926 0
M  V30 93 N 7.3905 -1.2043 1.01659 0
M  V30 94 C 8.3375 -2.23215 0.586822 0
M  V30 95 C 9.3075 -1.61382 -0.393085 0
M  V30 96 O 10.4925 -1.88544 -0.292525 0
M  V30 97 C 7.6325 -3.45032 -0.0687464 0
M  V30 98 C 6.7455 -4.21296 0.955724 0
M  V30 99 C 5.8805 -5.30507 0.271208 0
M  V30 100 C 4.9195 -5.98515 1.28244 0
M  V30 101 N 4.0565 -6.99316 0.62459 0
M  V30 102 H 8.8965 -2.59336 1.46796 0
M  V30 103 H 6.4335 -1.27431 0.734836 0
M  V30 104 H 8.3915 -4.1459 -0.465965 0
M  V30 105 H 7.0215 -3.09604 -0.913529 0
M  V30 106 H 6.0735 -3.50803 1.4711 0
M  V30 107 H 7.3855 -4.6803 1.72479 0
M  V30 108 H 6.5395 -6.06428 -0.18151 0
M  V30 109 H 5.2785 -4.8481 -0.530163 0
M  V30 110 H 4.2835 -5.21355 1.74554 0
M  V30 111 H 5.5085 -6.46298 2.08509 0
M  V30 112 H 3.4545 -6.55812 -0.156914 0
M  V30 113 H 3.3715 -7.44178 1.33172 0
M  V30 114 H 4.6395 -7.79255 0.195462 0
M  V30 115 N 8.8686 -0.792821 -1.36206 0
M  V30 116 C 10.0966 -0.378825 -2.03402 0
M  V30 117 C 10.5116 1.00586 -1.59774 0
M  V30 118 O 9.8686 1.64574 -0.788764 0
M  V30 119 C 9.9196 -0.43683 -3.58851 0
M  V30 120 O 9.6406 -1.76691 -4.00889 0
M  V30 121 C 11.1416 -0.0138943 -4.43298 0
M  V30 122 H 8.3616 -0.155673 -0.652692 0
M  V30 123 H 10.9056 -1.07261 -1.74113 0
M  V30 124 H 9.0606 0.208575 -3.86838 0
M  V30 125 H 9.4746 -1.72011 -4.95492 0
M  V30 126 H 10.9486 -0.105615 -5.51899 0
M  V30 127 H 11.4256 1.03915 -4.2673 0
M  V30 128 H 12.0316 -0.63192 -4.20579 0
M  V30 129 N 10.3467 1.47872 -0.545128 0
M  V30 130 C 11.5947 2.02093 -0.016553 0
M  V30 131 C 11.9157 1.42305 1.3332 0
M  V30 132 O 11.1857 0.593853 1.86682 0
M  V30 133 H 9.7657 0.746993 -0.00313038 0
M  V30 134 H 12.4277 1.81414 -0.712397 0
M  V30 135 H 11.5237 3.11996 0.0805422 0
M  V30 136 N 11.8248 0.280983 1.55075 0
M  V30 137 C 12.7748 -0.618585 2.19448 0
M  V30 138 C 13.7588 -1.11401 1.16098 0
M  V30 139 O 14.9508 -1.0581 1.41891 0
M  V30 140 C 12.0798 -1.79951 2.92357 0
M  V30 141 C 11.1658 -1.321 4.03002 0
M  V30 142 N 11.5568 -0.559044 5.02701 0
M  V30 143 C 9.8548 -1.60346 4.16179 0
M  V30 144 C 10.5558 -0.306722 5.80891 0
M  V30 145 N 9.5318 -0.880825 5.36416 0
M  V30 146 H 13.3338 -0.0286638 2.93886 0
M  V30 147 H 10.8478 0.0848104 1.62178 0
M  V30 148 H 12.8448 -2.45531 3.36927 0
M  V30 149 H 11.5048 -2.39333 2.19431 0
M  V30 150 H 12.5158 -0.205827 5.17491 0
M  V30 151 H 9.1928 -2.20621 3.54447 0
M  V30 152 H 10.5828 0.30391 6.71212 0
M  V30 153 N 13.3029 -1.57598 0.00835791 0
M  V30 154 C 14.7139 -1.7892 -0.53333 0
M  V30 155 C 15.0649 -0.916609 -1.73473 0
M  V30 156 O 14.1899 -0.121336 -2.1606 0
M  V30 157 C 14.7849 -3.24488 -0.974313 0
M  V30 158 C 13.3439 -3.46878 -1.46125 0
M  V30 159 C 12.4909 -2.74157 -0.416302 0
M  V30 160 H 15.4419 -1.56958 0.234495 0
M  V30 161 H 15.4629 -3.3306 -1.83988 0
M  V30 162 H 14.9749 -3.87972 -0.099718 0
M  V30 163 H 13.0759 -2.8862 -2.35646 0
M  V30 164 H 13.1889 -4.55572 -1.48295 0
M  V30 165 H 11.5529 -2.39022 -0.87981 0
M  V30 166 H 12.3359 -3.40345 0.44947 0
M  V30 167 N 14.781 0.264519 -1.55364 0
M  V30 168 C 16.197 0.61215 -1.47394 0
M  V30 169 C 16.397 1.89134 -0.695018 0
M  V30 170 O 15.453 2.51563 -0.217275 0
M  V30 171 C 16.766 0.731235 -2.91674 0
M  V30 172 C 18.314 0.82473 -3.01939 0
M  V30 173 C 18.789 0.975522 -4.4749 0
M  V30 174 N 20.28 1.04083 -4.51354 0
M  V30 175 C 21.015 1.17646 -5.61201 0
M  V30 176 N 20.511 1.27874 -6.80896 0
M  V30 177 N 22.304 1.20823 -5.48961 0
M  V30 178 H 14.455 -0.575456 -2.04456 0
M  V30 179 H 16.718 -0.196099 -0.927496 0
M  V30 180 H 16.424 -0.138392 -3.51428 0
M  V30 181 H 16.298 1.60883 -3.41169 0
M  V30 182 H 18.685 1.68482 -2.42276 0
M  V30 183 H 18.766 -0.0776479 -2.55682 0
M  V30 184 H 18.41 0.120058 -5.07758 0
M  V30 185 H 18.34 1.89268 -4.91412 0
M  V30 186 H 20.831 0.973846 -3.65136 0
M  V30 187 H 21.144 1.38081 -7.60364 0
M  V30 188 H 19.489 1.24863 -6.83692 0
M  V30 189 H 22.68 1.12469 -4.54388 0
M  V30 190 H 22.853 1.31049 -6.3461 0
M  V30 191 N 16.2591 1.48442 0.529413 0
M  V30 192 C 17.4891 1.59919 1.30804 0
M  V30 193 C 17.8971 0.258792 1.87422 0
M  V30 194 O 17.2401 -0.762096 1.67146 0
M  V30 195 C 17.3021 2.58693 2.49636 0
M  V30 196 C 16.9661 4.03745 2.14101 0
M  V30 197 C 17.9631 4.9141 1.6974 0
M  V30 198 C 15.6481 4.49285 2.24607 0
M  V30 199 C 17.6421 6.22645 1.36351 0
M  V30 200 C 15.3291 5.8054 1.9083 0
M  V30 201 C 16.3271 6.67043 1.46773 0
M  V30 202 O 16.0151 7.95856 1.1344 0
M  V30 203 H 15.7471 0.541981 0.404021 0
M  V30 204 H 18.3011 1.95 0.645309 0
M  V30 205 H 16.5311 2.18734 3.18892 0
M  V30 206 H 18.2201 2.59999 3.11698 0
M  V30 207 H 18.9861 4.57465 1.61094 0
M  V30 208 H 14.8651 3.82142 2.57854 0
M  V30 209 H 18.4091 6.90119 1.01891 0
M  V30 210 H 14.3061 6.14022 1.99117 0
M  V30 211 H 15.0741 8.08613 1.26832 0
M  V30 212 N 17.7372 -0.778329 1.37039 0
M  V30 213 C 18.9842 -1.53665 1.31884 0
M  V30 214 C 19.3122 -1.9425 -0.0986303 0
M  V30 215 O 18.5672 -1.63832 -1.07041 0
M  V30 216 C 18.8662 -2.81845 2.19768 0
M  V30 217 C 18.5322 -2.60345 3.68146 0
M  V30 218 C 17.1942 -2.5419 4.08584 0
M  V30 219 C 19.5462 -2.40923 4.62175 0
M  V30 220 C 16.8742 -2.26594 5.41177 0
M  V30 221 C 19.2262 -2.14852 5.94997 0
M  V30 222 C 17.8902 -2.07137 6.34547 0
M  V30 223 H 17.1602 -0.562299 0.482598 0
M  V30 224 H 19.8072 -0.897069 1.69189 0
M  V30 225 H 18.1122 -3.50328 1.75436 0
M  V30 226 H 19.8092 -3.39692 2.13097 0
M  V30 227 H 16.3992 -2.65996 3.36072 0
M  V30 228 H 20.5832 -2.44673 4.31797 0
M  V30 229 H 15.8392 -2.19111 5.70789 0
M  V30 230 H 20.0132 -1.98822 6.67415 0
M  V30 231 H 17.6402 -1.85518 7.37216 0
M  V30 232 N 19.2153 -1.21501 -1.00376 0
M  V30 233 C 20.1633 -0.972442 -2.11297 0
M  V30 234 C 21.1573 0.080731 -1.69208 0
M  V30 235 O 22.3633 -0.0707666 -1.79861 0
M  V30 236 H 18.7383 -0.297218 -0.690772 0
M  V30 237 H 20.7093 -1.91394 -2.28934 0
M  V30 238 C 19.4583 -0.555065 -3.43241 0
M  V30 239 H 18.7813 -1.35709 -3.76062 0
M  V30 240 H 20.2213 -0.424664 -4.21868 0
M  V30 241 C 18.6803 0.734147 -3.28804 0
M  V30 242 O 19.2103 1.78937 -3.59645 0
M  V30 243 N 17.4163 0.701133 -2.82015 0
M  V30 244 H 16.9633 -0.157874 -2.57116 0
M  V30 245 H 16.9213 1.56403 -2.72737 0
M  V30 246 N 20.6934 1.19889 -1.02296 0
M  V30 247 C 21.6254 2.22334 -0.556787 0
M  V30 248 C 22.6384 1.58674 0.364199 0
M  V30 249 O 23.8274 1.77768 0.161533 0
M  V30 250 C 20.9274 3.38257 0.208694 0
M  V30 251 C 20.1004 4.31504 -0.71577 0
M  V30 252 C 19.1594 5.262 0.00325597 0
M  V30 253 O 18.1854 5.65798 -0.621357 0
M  V30 254 N 19.3874 5.66303 1.27599 0
M  V30 255 H 22.1524 2.62957 -1.43784 0
M  V30 256 H 19.7134 1.34495 -0.901261 0
M  V30 257 H 21.7054 3.98616 0.699111 0
M  V30 258 H 20.2754 2.96472 0.991102 0
M  V30 259 H 19.4954 3.69016 -1.38638 0
M  V30 260 H 20.7834 4.9072 -1.34428 0
M  V30 261 H 20.1814 5.36155 1.80429 0
M  V30 262 H 18.7384 6.28942 1.71102 0
M  V30 263 N 22.1715 0.800033 1.35784 0
M  V30 264 C 23.1015 0.220184 2.3246 0
M  V30 265 C 24.0825 -0.65073 1.57161 0
M  V30 266 O 25.2675 -0.582359 1.85263 0
M  V30 267 C 22.3975 -0.637353 3.41402 0
M  V30 268 C 21.3515 0.134531 4.27789 0
M  V30 269 C 20.6775 -0.844285 5.27992 0
M  V30 270 C 21.9775 1.32979 5.05088 0
M  V30 271 H 23.6715 1.02787 2.81203 0
M  V30 272 H 21.2175 0.495717 1.35199 0
M  V30 273 H 23.1705 -1.05302 4.08031 0
M  V30 274 H 21.8945 -1.47785 2.91251 0
M  V30 275 H 20.5535 0.531296 3.6273 0
M  V30 276 H 20.2015 -1.68011 4.74111 0
M  V30 277 H 19.9015 -0.332184 5.8666 0
M  V30 278 H 21.4255 -1.2583 5.97494 0
M  V30 279 H 22.8395 0.98934 5.64699 0
M  V30 280 H 21.2365 1.77593 5.7322 0
M  V30 281 H 22.3065 2.11978 4.36111 0
M  V30 282 N 23.6496 -1.47581 0.552962 0
M  V30 283 C 24.8746 -2.07378 0.0300593 0
M  V30 284 C 25.2996 -1.40355 -1.25229 0
M  V30 285 O 24.6576 -0.477099 -1.7491 0
M  V30 286 C 24.7056 -3.60274 -0.153231 0
M  V30 287 O 23.8096 -3.94041 -1.21678 0
M  V30 288 H 23.1506 -0.662158 0.0494182 0
M  V30 289 H 25.6806 -1.89662 0.767434 0
M  V30 290 H 25.6906 -4.0633 -0.368761 0
M  V30 291 H 24.3656 -4.08455 0.783397 0
M  V30 292 H 22.9426 -3.59735 -0.982079 0
M  V30 293 N 25.1277 -0.289203 -1.54924 0
M  V30 294 C 26.3557 0.326463 -2.04308 0
M  V30 295 C 26.7707 1.48413 -1.16701 0
M  V30 296 O 26.1277 1.81507 -0.190087 0
M  V30 297 C 26.1787 0.794014 -3.52672 0
M  V30 298 O 25.8997 -0.317564 -4.36948 0
M  V30 299 C 27.4007 1.47605 -4.18004 0
M  V30 300 H 24.6207 0.0726272 -0.667058 0
M  V30 301 H 27.1647 -0.425401 -2.00026 0
M  V30 302 H 25.3197 1.49593 -3.57352 0
M  V30 303 H 25.7337 0.0443186 -5.24481 0
M  V30 304 H 27.2077 1.75447 -5.23376 0
M  V30 305 H 27.6847 2.41224 -3.67025 0
M  V30 306 H 28.2907 0.81762 -4.17367 0
M  V30 307 N 26.6058 1.57591 -0.0167156 0
M  V30 308 C 27.8538 1.90906 0.663285 0
M  V30 309 C 28.1748 0.892509 1.73376 0
M  V30 310 O 27.4448 -0.0677623 1.95783 0
M  V30 311 H 26.0248 0.704637 0.247983 0
M  V30 312 H 28.6868 1.94803 -0.0615909 0
M  V30 313 H 27.7828 2.9116 1.12393 0
M  V30 314 N 28.0839 -0.256276 1.55502 0
M  V30 315 C 29.0139 -1.32102 1.92539 0
M  V30 316 C 29.9949 -1.50684 0.789194 0
M  V30 317 O 31.1799 -1.63449 1.04872 0
M  V30 318 C 28.3099 -2.67752 2.21192 0
M  V30 319 C 27.2639 -2.63878 3.36975 0
M  V30 320 C 26.5899 -4.03236 3.51147 0
M  V30 321 C 27.8899 -2.21682 4.72921 0
M  V30 322 H 29.5839 -1.01351 2.81724 0
M  V30 323 H 27.1299 -0.486105 1.35547 0
M  V30 324 H 29.0829 -3.42365 2.45691 0
M  V30 325 H 27.8069 -3.0012 1.28824 0
M  V30 326 H 26.4659 -1.91722 3.12471 0
M  V30 327 H 26.1139 -4.32854 2.56216 0
M  V30 328 H 25.8139 -4.01535 4.29003 0
M  V30 329 H 27.3379 -4.79563 3.77957 0
M  V30 330 H 28.7519 -2.86023 4.96854 0
M  V30 331 H 27.1489 -2.3111 5.53812 0
M  V30 332 H 28.2189 -1.16833 4.70615 0
M  V30 333 N 29.562 -1.4872 -0.521534 0
M  V30 334 C 30.839 -1.4766 -1.2828 0
M  V30 335 C 31.219 -0.19292 -2.10217 0
M  V30 336 O 30.567 0.825193 -2.13079 0
M  V30 337 C 30.777 -2.74358 -2.15705 0
M  V30 338 C 32.125 -3.23028 -2.75569 0
M  V30 339 O 33.149 -2.75333 -2.25987 0
M  V30 340 O 32.008 -4.0604 -3.65778 0
M  V30 341 H 29.102 -0.590085 -0.579421 0
M  V30 342 H 31.648 -1.60963 -0.537492 0
M  V30 343 H 30.42 -3.59292 -1.54999 0
M  V30 344 H 30.043 -2.63816 -2.97467 0
M  V30 345 N 31.0401 0.771051 -1.3745 0
M  V30 346 C 31.9731 1.89166 -1.27638 0
M  V30 347 C 32.9511 1.61842 -0.156782 0
M  V30 348 O 34.1351 1.85569 -0.331111 0
M  V30 349 C 31.2621 3.24405 -0.973621 0
M  V30 350 C 30.3081 3.70638 -2.1102 0
M  V30 351 S 31.1411 3.84228 -3.73 0
M  V30 352 C 32.2971 5.22313 -3.44876 0
M  V30 353 H 32.5301 1.972 -2.22485 0
M  V30 354 H 30.0631 0.932224 -1.23081 0
M  V30 355 H 32.0211 4.02514 -0.805766 0
M  V30 356 H 30.6821 3.14071 -0.0426279 0
M  V30 357 H 29.8751 4.68685 -1.85338 0
M  V30 358 H 29.4771 2.99632 -2.23822 0
M  V30 359 H 31.7691 6.07505 -2.99908 0
M  V30 360 H 32.7121 5.53008 -4.42253 0
M  V30 361 H 33.1201 4.90284 -2.79789 0
M  V30 362 N 32.5182 1.22032 0.997298 0
M  V30 363 C 33.7642 1.04376 1.73878 0
M  V30 364 C 34.0972 -0.420716 1.89588 0
M  V30 365 O 33.3722 -1.31202 1.43583 0
M  V30 366 C 33.6552 1.75047 3.14691 0
M  V30 367 C 33.5082 3.29062 3.06656 0
M  V30 368 C 34.8272 1.49928 4.13775 0
M  V30 369 H 31.9462 0.380578 0.631133 0
M  V30 370 H 34.5882 1.50312 1.16217 0
M  V30 371 H 32.7382 1.35996 3.63919 0
M  V30 372 H 34.4102 3.7753 2.65083 0
M  V30 373 H 32.6532 3.58967 2.43568 0
M  V30 374 H 33.3242 3.73683 4.06282 0
M  V30 375 H 35.8002 1.83842 3.73285 0
M  V30 376 H 34.6762 2.01878 5.10428 0
M  V30 377 H 34.9372 0.430929 4.39995 0
M  V30 378 N 33.9963 -1.19345 1.0293 0
M  V30 379 C 35.2443 -1.88665 0.724574 0
M  V30 380 C 35.5653 -1.80036 -0.749144 0
M  V30 381 O 34.8353 -1.2111 -1.53978 0
M  V30 382 H 33.4153 -0.698406 0.265025 0
M  V30 383 H 36.0773 -1.44885 1.30362 0
M  V30 384 H 35.1733 -2.94987 1.01926 0
M  V30 385 N 35.4744 -0.807222 -1.35358 0
M  V30 386 C 36.4044 -0.232509 -2.3234 0
M  V30 387 C 37.3854 0.642386 -1.57504 0
M  V30 388 O 38.5704 0.572526 -1.85569 0
M  V30 389 C 35.7004 0.619238 -3.41735 0
M  V30 390 C 34.6544 -0.157215 -4.27711 0
M  V30 391 C 33.9804 0.816273 -5.28433 0
M  V30 392 C 35.2804 -1.35656 -5.04376 0
M  V30 393 H 36.9744 -1.04276 -2.80654 0
M  V30 394 H 34.5204 -0.50288 -1.34934 0
M  V30 395 H 36.4734 1.03137 -4.08584 0
M  V30 396 H 35.1974 1.46239 -2.92031 0
M  V30 397 H 33.8564 -0.550525 -3.62443 0
M  V30 398 H 33.5044 1.65494 -4.74996 0
M  V30 399 H 33.2044 0.301067 -5.86828 0
M  V30 400 H 34.7284 1.22659 -5.98153 0
M  V30 401 H 36.1424 -1.01927 -5.64166 0
M  V30 402 H 34.5394 -1.8063 -5.7227 0
M  V30 403 H 35.6094 -2.14288 -4.34981 0
M  V30 404 N 36.9525 1.47285 -0.560781 0
M  V30 405 C 37.9155 2.28535 0.174488 0
M  V30 406 C 38.9155 1.37153 0.839388 0
M  V30 407 O 40.1055 1.59748 0.694702 0
M  V30 408 C 37.2375 3.16934 1.25561 0
M  V30 409 H 38.4305 2.95012 -0.539262 0
M  V30 410 H 35.9835 1.53034 -0.317865 0
M  V30 411 H 36.7185 2.55157 2.00164 0
M  V30 412 H 36.5035 3.8419 0.783604 0
M  V30 413 H 37.9935 3.78143 1.77193 0
M  V30 414 N 38.4306 0.297415 1.54768 0
M  V30 415 C 39.3936 -0.567375 2.22066 0
M  V30 416 C 40.3936 -1.06409 1.20556 0
M  V30 417 O 41.5836 -0.960691 1.45315 0
M  V30 418 C 38.7156 -1.78517 2.90421 0
M  V30 419 H 39.9086 0.0205534 2.99893 0
M  V30 420 H 37.4616 0.0482163 1.56226 0
M  V30 421 H 38.1966 -2.41303 2.16664 0
M  V30 422 H 37.9816 -1.43669 3.64831 0
M  V30 423 H 39.4716 -2.39964 3.41771 0
M  V30 424 N 39.9087 -1.5758 0.0250728 0
M  V30 425 C 41.1857 -1.82917 -0.692873 0
M  V30 426 C 41.5657 -0.908137 -1.90568 0
M  V30 427 O 40.9137 0.0372298 -2.2847 0
M  V30 428 C 41.1237 -3.32034 -1.07492 0
M  V30 429 C 42.4717 -3.98406 -1.46826 0
M  V30 430 O 43.4957 -3.36505 -1.16801 0
M  V30 431 O 42.3547 -5.07497 -2.02754 0
M  V30 432 H 39.4487 -0.754079 -0.33955 0
M  V30 433 H 41.9947 -1.69619 0.0524456 0
M  V30 434 H 40.7667 -3.90728 -0.211552 0
M  V30 435 H 40.3897 -3.50424 -1.87854 0
M  V30 436 N 41.3868 0.248026 -1.55636 0
M  V30 437 C 42.6328 0.973427 -1.78594 0
M  V30 438 C 42.9878 1.83007 -0.593823 0
M  V30 439 O 42.2808 1.87097 0.412961 0
M  V30 440 C 42.4748 1.86819 -3.04686 0
M  V30 441 C 42.3038 1.09965 -4.36048 0
M  V30 442 C 41.0738 0.805204 -4.98843 0
M  V30 443 C 43.2718 0.477783 -5.12076 0
M  V30 444 N 41.2538 0.0124859 -6.13899 0
M  V30 445 C 42.6248 -0.179565 -6.1974 0
M  V30 446 C 44.6798 0.388136 -4.96385 0
M  V30 447 C 43.3828 -0.91795 -7.13419 0
M  V30 448 C 45.4088 -0.336716 -5.90441 0
M  V30 449 C 44.7708 -0.982705 -6.97511 0
M  V30 450 H 40.8698 0.337348 -0.705493 0
M  V30 451 H 43.4538 0.24667 -1.93131 0
M  V30 452 H 41.6248 2.56698 -2.9148 0
M  V30 453 H 43.3568 2.52907 -3.15944 0
M  V30 454 H 40.1118 1.11671 -4.60246 0
M  V30 455 H 40.5358 -0.371933 -6.75978 0
M  V30 456 H 45.1778 0.873237 -4.13684 0
M  V30 457 H 42.8958 -1.41466 -7.95621 0
M  V30 458 H 46.4818 -0.406731 -5.80377 0
M  V30 459 H 45.3618 -1.53464 -7.69037 0
M  V30 460 N 42.8649 1.48995 0.513639 0
M  V30 461 C 43.7949 1.67636 1.62544 0
M  V30 462 C 44.7759 0.525087 1.61793 0
M  V30 463 O 45.9609 0.759502 1.78732 0
M  V30 464 C 43.0909 1.73114 3.01079 0
M  V30 465 C 42.0449 2.87905 3.16693 0
M  V30 466 C 41.3709 2.78486 4.56453 0
M  V30 467 C 42.6709 4.29005 2.97913 0
M  V30 468 H 44.3649 2.60716 1.47198 0
M  V30 469 H 41.9109 1.25465 0.706714 0
M  V30 470 H 43.8639 1.84742 3.78746 0
M  V30 471 H 42.5879 0.766241 3.17484 0
M  V30 472 H 41.2469 2.75859 2.41448 0
M  V30 473 H 40.8949 1.7993 4.69717 0
M  V30 474 H 40.5949 3.55523 4.67843 0
M  V30 475 H 42.1189 2.92104 5.36197 0
M  V30 476 H 43.5329 4.41798 3.65359 0
M  V30 477 H 41.9299 5.07166 3.20785 0
M  V30 478 H 42.9999 4.44329 1.94165 0
M  V30 479 N 44.343 -0.763751 1.37857 0
M  V30 480 C 45.571 -1.55293 1.36718 0
M  V30 481 C 45.986 -1.88745 -0.0455434 0
M  V30 482 O 45.343 -1.52039 -1.00947 0
M  V30 483 C 45.394 -2.85831 2.2132 0
M  V30 484 O 45.115 -2.5381 3.57089 0
M  V30 485 C 46.616 -3.80023 2.28249 0
M  V30 486 H 43.836 -0.480841 0.468009 0
M  V30 487 H 46.38 -0.946009 1.81303 0
M  V30 488 H 44.535 -3.42926 1.80223 0
M  V30 489 H 44.949 -3.37459 4.01524 0
M  V30 490 H 46.423 -4.68599 2.91752 0
M  V30 491 H 46.9 -4.1973 1.2932 0
M  V30 492 H 47.506 -3.28855 2.69693 0
M  V30 493 N 45.8211 -1.22559 -0.990812 0
M  V30 494 C 47.0461 -1.07862 -1.77145 0
M  V30 495 C 47.4711 0.366447 -1.84496 0
M  V30 496 O 46.8291 1.26478 -1.29896 0
M  V30 497 C 46.8771 -1.69686 -3.18181 0
M  V30 498 O 45.9811 -0.951946 -4.01263 0
M  V30 499 H 45.3221 -0.378712 -0.545411 0
M  V30 500 H 47.8521 -1.62399 -1.2445 0
M  V30 501 H 47.8621 -1.74496 -3.68802 0
M  V30 502 H 46.5371 -2.74841 -3.12146 0
M  V30 503 H 45.1141 -0.980011 -3.59792 0
M  V30 504 N 47.2992 1.18797 -1.03562 0
M  V30 505 C 48.5272 1.92599 -0.755869 0
M  V30 506 C 48.9422 1.75886 0.686271 0
M  V30 507 O 48.2992 1.08517 1.46732 0
M  V30 508 C 48.3502 3.44159 -1.10619 0
M  V30 509 O 48.0712 3.60341 -2.4917 0
M  V30 510 C 49.5722 4.3507 -0.850214 0
M  V30 511 H 46.7922 0.611587 -0.276048 0
M  V30 512 H 49.3362 1.50742 -1.38192 0
M  V30 513 H 47.4912 3.83823 -0.525194 0
M  V30 514 H 47.9052 4.54128 -2.62427 0
M  V30 515 H 49.3792 5.39989 -1.14523 0
M  V30 516 H 49.8562 4.38673 0.215176 0
M  V30 517 H 50.4622 4.01097 -1.41426 0
M  V30 518 N 48.7773 0.814389 1.34928 0
M  V30 519 C 49.7403 0.235759 2.27984 0
M  V30 520 C 50.7403 -0.581412 1.49921 0
M  V30 521 O 51.9303 -0.398758 1.69575 0
M  V30 522 C 49.0623 -0.670433 3.34242 0
M  V30 523 H 50.2553 1.05659 2.80671 0
M  V30 524 H 47.8083 0.585614 1.44915 0
M  V30 525 H 48.5433 -1.51466 2.86755 0
M  V30 526 H 48.3283 -0.0860822 3.92005 0
M  V30 527 H 49.8183 -1.06935 4.03676 0
M  V30 528 N 50.2554 -1.46986 0.568584 0
M  V30 529 C 51.2034 -2.31858 -0.185649 0
M  V30 530 C 52.1974 -1.43624 -0.898249 0
M  V30 531 O 53.4034 -1.60327 -0.818242 0
M  V30 532 H 49.7784 -0.747866 -0.0787399 0
M  V30 533 H 51.7494 -2.93303 0.549191 0
M  V30 534 C 50.4984 -3.26513 -1.19519 0
M  V30 535 H 49.8214 -3.94377 -0.656285 0
M  V30 536 H 51.2614 -3.88707 -1.6936 0
M  V30 537 C 49.7204 -2.50847 -2.24894 0
M  V30 538 O 50.2504 -2.26119 -3.32014 0
M  V30 539 N 48.4564 -2.11656 -1.99124 0
M  V30 540 H 48.0034 -2.31966 -1.12024 0
M  V30 541 H 47.9614 -1.61347 -2.69842 0
M  V30 542 N 51.7335 -0.305618 -1.54608 0
M  V30 543 C 52.9615 0.304775 -2.04643 0
M  V30 544 C 53.3765 1.47167 -1.18268 0
M  V30 545 O 52.7335 1.81296 -0.209328 0
M  V30 546 C 52.7845 0.756564 -3.53495 0
M  V30 547 O 52.5055 -0.36389 -4.36586 0
M  V30 548 C 54.0065 1.43163 -4.19546 0
M  V30 549 H 51.2265 0.0655481 -0.667791 0
M  V30 550 H 53.7705 -0.446592 -1.99564 0
M  V30 551 H 51.9255 1.45794 -3.58919 0
M  V30 552 H 52.3395 -0.0113121 -5.24499 0
M  V30 553 H 53.8135 1.69886 -5.25207 0
M  V30 554 H 54.2905 2.37318 -3.69563 0
M  V30 555 H 54.8965 0.773307 -4.18211 0
M  V30 556 N 53.2116 1.57565 -0.0334293 0
M  V30 557 C 54.1596 2.1164 0.96496 0
M  V30 558 C 55.1536 1.04398 1.33407 0
M  V30 559 O 56.3596 1.22828 1.3158 0
M  V30 560 H 52.7346 0.676222 0.32898 0
M  V30 561 H 54.7056 2.94455 0.483614 0
M  V30 562 C 53.4546 2.66207 2.23672 0
M  V30 563 H 52.7776 3.48378 1.96145 0
M  V30 564 H 54.2176 3.07685 2.9173 0
M  V30 565 C 52.6766 1.59151 2.96939 0
M  V30 566 O 53.2066 0.993858 3.89211 0
M  V30 567 N 51.4126 1.31093 2.59351 0
M  V30 568 H 50.9596 1.7988 1.84393 0
M  V30 569 H 50.9176 0.596889 3.08682 0
M  V30 570 N 54.6897 -0.239769 1.55765 0
M  V30 571 C 55.6227 -1.32356 1.85895 0
M  V30 572 C 56.6007 -1.46053 0.714662 0
M  V30 573 O 57.7847 -1.62154 0.961157 0
M  V30 574 C 54.9117 -2.6962 2.04994 0
M  V30 575 C 53.9577 -2.73036 3.27648 0
M  V30 576 S 54.7907 -2.28929 4.84099 0
M  V30 577 C 55.9467 -3.68103 5.06212 0
M  V30 578 H 56.1797 -1.06601 2.77531 0
M  V30 579 H 53.7127 -0.441112 1.47965 0
M  V30 580 H 55.6707 -3.48653 2.16682 0
M  V30 581 H 54.3317 -2.92609 1.14188 0
M  V30 582 H 53.5247 -3.7386 3.38 0
M  V30 583 H 53.1267 -2.02052 3.14723 0
M  V30 584 H 55.4187 -4.63656 4.93993 0
M  V30 585 H 56.3617 -3.6268 6.08168 0
M  V30 586 H 56.7697 -3.60947 4.34025 0
M  V30 587 N 56.1678 -1.49265 -0.50573 0
M  V30 588 C 57.4148 -1.58513 -1.26015 0
M  V30 589 C 57.7428 -0.26972 -1.92621 0
M  V30 590 O 56.9978 0.741997 -1.81088 0
M  V30 591 C 57.2968 -2.69008 -2.35308 0
M  V30 592 C 56.9628 -4.10662 -1.86192 0
M  V30 593 C 55.6248 -4.49212 -1.72516 0
M  V30 594 C 57.9768 -4.99336 -1.49375 0
M  V30 595 C 55.3048 -5.74214 -1.20394 0
M  V30 596 C 57.6568 -6.24852 -0.987072 0
M  V30 597 C 56.3208 -6.62236 -0.836669 0
M  V30 598 H 55.5908 -0.580041 -0.461122 0
M  V30 599 H 58.2378 -1.83078 -0.561665 0
M  V30 600 H 56.5428 -2.38396 -3.10926 0
M  V30 601 H 58.2398 -2.73373 -2.93374 0
M  V30 602 H 54.8298 -3.8023 -1.97795 0
M  V30 603 H 59.0138 -4.70212 -1.5879 0
M  V30 604 H 54.2698 -6.01883 -1.07458 0
M  V30 605 H 58.4438 -6.92944 -0.692983 0
M  V30 606 H 56.0708 -7.58979 -0.430607 0
M  V30 607 N 57.6459 0.756429 -1.3826 0
M  V30 608 C 58.8739 1.54565 -1.3754 0
M  V30 609 C 59.2889 1.88767 0.0355331 0
M  V30 610 O 58.6459 1.52572 1.0014 0
M  V30 611 C 58.6969 2.84654 -2.22833 0
M  V30 612 O 58.4179 2.51912 -3.5843 0
M  V30 613 C 59.9189 3.78807 -2.30261 0
M  V30 614 H 57.1389 0.478353 -0.470553 0
M  V30 615 H 59.6829 0.936381 -1.81803 0
M  V30 616 H 57.8379 3.41965 -1.8204 0
M  V30 617 H 58.2519 3.35325 -4.03308 0
M  V30 618 H 59.7259 4.67045 -2.94233 0
M  V30 619 H 60.2029 4.19038 -1.31545 0
M  V30 620 H 60.8089 3.2742 -2.71433 0
M  V30 621 N 59.124 1.23083 0.984299 0
M  V30 622 C 60.354 1.08556 1.75781 0
M  V30 623 C 60.762 -0.366171 1.85623 0
M  V30 624 O 60.105 -1.26524 1.33182 0
M  V30 625 C 60.167 1.63208 3.20318 0
M  V30 626 C 59.831 3.11922 3.33997 0
M  V30 627 C 60.828 4.09259 3.2063 0
M  V30 628 C 58.513 3.51552 3.58771 0
M  V30 629 C 60.507 5.4421 3.31835 0
M  V30 630 C 58.194 4.86649 3.69616 0
M  V30 631 C 59.192 5.82787 3.56157 0
M  V30 632 O 58.88 7.15431 3.66626 0
M  V30 633 H 58.612 0.380713 0.5586 0
M  V30 634 H 61.166 1.63321 1.2456 0
M  V30 635 H 59.396 1.0286 3.72769 0
M  V30 636 H 61.085 1.44216 3.79416 0
M  V30 637 H 61.851 3.79984 3.01392 0
M  V30 638 H 57.73 2.77239 3.6832 0
M  V30 639 H 61.274 6.1923 3.21247 0
M  V30 640 H 57.171 5.15601 3.88363 0
M  V30 641 H 57.939 7.23127 3.83445 0
M  V30 642 N 60.6021 -1.18246 1.0419 0
M  V30 643 C 61.5121 -2.25574 0.644476 0
M  V30 644 C 62.5281 -1.70845 -0.329826 0
M  V30 645 O 63.7041 -2.00554 -0.184443 0
M  V30 646 C 60.7691 -3.46697 0.014877 0
M  V30 647 C 59.8301 -4.16554 1.03834 0
M  V30 648 C 59.0631 -5.31894 0.438692 0
M  V30 649 O 59.2861 -5.65385 -0.754752 0
M  V30 650 O 58.2201 -5.90459 1.168 0
M  V30 651 H 62.0461 -2.61836 1.53869 0
M  V30 652 H 59.6311 -1.25352 0.812854 0
M  V30 653 H 61.5131 -4.20062 -0.335538 0
M  V30 654 H 60.1881 -3.12255 -0.853138 0
M  V30 655 H 59.0951 -3.45251 1.44057 0
M  V30 656 H 60.4281 -4.54998 1.87716 0
M  V30 657 N 62.0802 -0.821533 -1.34494 0
M  V30 658 C 63.3292 -0.405355 -1.97585 0
M  V30 659 C 63.6422 1.03677 -1.65863 0
M  V30 660 O 64.8482 1.55679 -2.22433 0
M  V30 661 C 63.3042 -0.673861 -3.53535 0
M  V30 662 C 62.9122 -2.12951 -3.94152 0
M  V30 663 C 64.6562 -0.32378 -4.23263 0
M  V30 664 C 62.5632 -2.34298 -5.43009 0
M  V30 665 H 61.4932 -0.147836 -0.739365 0
M  V30 666 H 64.1442 -1.00769 -1.53355 0
M  V30 667 H 62.5262 -0.00137554 -3.96 0
M  V30 668 H 63.7002 -2.84104 -3.62797 0
M  V30 669 H 62.0152 -2.44089 -3.37356 0
M  V30 670 H 64.6122 -0.461126 -5.32708 0
M  V30 671 H 64.9552 0.731586 -4.09821 0
M  V30 672 H 65.4882 -0.950786 -3.8627 0
M  V30 673 H 62.2272 -3.38335 -5.61435 0
M  V30 674 H 61.7472 -1.67687 -5.75883 0
M  V30 675 H 63.4262 -2.16588 -6.09671 0
M  V30 676 N 63.5583 1.46682 -0.576371 0
M  V30 677 C 64.5213 2.28707 0.150239 0
M  V30 678 C 65.5213 1.38035 0.824794 0
M  V30 679 O 66.7113 1.60476 0.677719 0
M  V30 680 C 63.8433 3.18248 1.22192 0
M  V30 681 H 65.0363 2.94423 -0.570521 0
M  V30 682 H 62.5893 1.52688 -0.334078 0
M  V30 683 H 63.3243 2.57265 1.97447 0
M  V30 684 H 63.1093 3.85 0.742812 0
M  V30 685 H 64.5993 3.80001 1.73172 0
M  V30 686 N 65.0364 0.313813 1.54444 0
M  V30 687 C 66.4474 -0.176243 1.85866 0
M  V30 688 C 66.7984 -1.52405 1.23561 0
M  V30 689 O 65.9234 -2.09605 0.538016 0
M  V30 690 C 66.5184 -0.32657 3.37222 0
M  V30 691 C 65.0774 -0.760846 3.6863 0
M  V30 692 C 64.2244 0.123247 2.77026 0
M  V30 693 H 67.1754 0.534418 1.49431 0
M  V30 694 H 67.1964 -1.15908 3.62416 0
M  V30 695 H 66.7084 0.654531 3.82541 0
M  V30 696 H 64.8094 -1.75204 3.28838 0
M  V30 697 H 64.9224 -0.571353 4.75681 0
M  V30 698 H 63.2864 -0.399597 2.51546 0
M  V30 699 H 64.0694 1.10094 3.25168 0
M  V30 700 N 66.5145 -1.57545 0.0417849 0
M  V30 701 C 67.7605 -1.92601 -0.635021 0
M  V30 702 C 68.0935 -0.919627 -1.71045 0
M  V30 703 O 67.3685 0.0557892 -1.9442 0
M  V30 704 C 67.6515 -3.38085 -1.23979 0
M  V30 705 C 67.5045 -4.49467 -0.173057 0
M  V30 706 C 68.8235 -3.83776 -2.15416 0
M  V30 707 H 65.9425 -0.700397 -0.229374 0
M  V30 708 H 68.5845 -1.89728 0.101633 0
M  V30 709 H 66.7345 -3.40664 -1.86762 0
M  V30 710 H 68.4065 -4.59018 0.458312 0
M  V30 711 H 66.6495 -4.30909 0.499996 0
M  V30 712 H 67.3205 -5.48323 -0.636054 0
M  V30 713 H 69.7965 -3.83013 -1.62605 0
M  V30 714 H 68.6725 -4.8624 -2.54679 0
M  V30 715 H 68.9335 -3.19998 -3.05047 0
M  V30 716 N 67.9926 0.231505 -1.5589 0
M  V30 717 C 69.2396 0.957352 -1.78441 0
M  V30 718 C 69.5676 1.84726 -0.60882 0
M  V30 719 O 68.8226 1.91416 0.40725 0
M  V30 720 C 69.1216 1.83577 -3.0665 0
M  V30 721 C 68.7876 1.09993 -4.37278 0
M  V30 722 C 67.4496 0.896629 -4.72773 0
M  V30 723 C 69.8016 0.579558 -5.17968 0
M  V30 724 C 67.1296 0.160896 -5.86479 0
M  V30 725 C 69.4816 -0.142783 -6.32439 0
M  V30 726 C 68.1456 -0.357427 -6.66542 0
M  V30 727 H 67.4156 0.35032 -0.65296 0
M  V30 728 H 70.0626 0.226259 -1.90159 0
M  V30 729 H 68.3676 2.63441 -2.90011 0
M  V30 730 H 70.0646 2.39934 -3.21298 0
M  V30 731 H 66.6546 1.26835 -4.09403 0
M  V30 732 H 70.8386 0.724125 -4.90989 0
M  V30 733 H 66.0946 -0.0157293 -6.11398 0
M  V30 734 H 70.2686 -0.553559 -6.94196 0
M  V30 735 H 67.8956 -0.929466 -7.54497 0
M  V30 736 N 69.4707 1.49531 0.497807 0
M  V30 737 C 70.7167 1.59415 1.25358 0
M  V30 738 C 71.0497 0.281422 1.9215 0
M  V30 739 O 70.3247 -0.715249 1.80871 0
M  V30 740 C 70.6077 2.75566 2.3181 0
M  V30 741 C 70.4607 4.16642 1.69498 0
M  V30 742 C 71.7797 2.87347 3.33346 0
M  V30 743 H 68.8987 0.580244 0.454408 0
M  V30 744 H 71.5407 1.81827 0.551262 0
M  V30 745 H 69.6907 2.56587 2.91711 0
M  V30 746 H 71.3627 4.47145 1.13399 0
M  V30 747 H 69.6057 4.22141 0.998978 0
M  V30 748 H 70.2767 4.93792 2.46725 0
M  V30 749 H 72.7527 3.04634 2.83438 0
M  V30 750 H 71.6287 3.70289 4.05188 0
M  V30 751 H 71.8897 1.96834 3.95865 0
M  V30 752 N 70.9488 -0.749086 1.3866 0
M  V30 753 C 71.8788 -1.8764 1.38973 0
M  V30 754 C 72.8598 -1.68178 0.255004 0
M  V30 755 O 74.0448 -1.88704 0.458754 0
M  V30 756 C 71.1748 -3.25222 1.21851 0
M  V30 757 C 70.1288 -3.59295 2.32575 0
M  V30 758 C 69.4548 -4.95663 2.00555 0
M  V30 759 C 70.7548 -3.63709 3.7485 0
M  V30 760 H 72.4488 -1.87635 2.3331 0
M  V30 761 H 69.9948 -0.901329 1.12303 0
M  V30 762 H 71.9478 -4.03746 1.20695 0
M  V30 763 H 70.6718 -3.25719 0.239775 0
M  V30 764 H 69.3308 -2.83093 2.32925 0
M  V30 765 H 68.9788 -4.92724 1.01154 0
M  V30 766 H 68.6788 -5.19429 2.74714 0
M  V30 767 H 70.2028 -5.7656 2.01024 0
M  V30 768 H 71.6168 -4.32338 3.76506 0
M  V30 769 H 70.0138 -3.98986 4.48252 0
M  V30 770 H 71.0838 -2.63834 4.06841 0
M  V30 771 N 72.4269 -1.23603 -0.977757 0
M  V30 772 C 73.3569 -1.04401 -2.0886 0
M  V30 773 C 74.3379 0.0399052 -1.70053 0
M  V30 774 O 75.5229 -0.125246 -1.93796 0
M  V30 775 C 72.6529 -0.637269 -3.41403 0
M  V30 776 C 71.6069 -1.66883 -3.94124 0
M  V30 777 C 70.9329 -1.11745 -5.22893 0
M  V30 778 C 72.2329 -3.06247 -4.23096 0
M  V30 779 H 73.9269 -1.97316 -2.25182 0
M  V30 780 H 71.4729 -0.950096 -1.08209 0
M  V30 781 H 73.4259 -0.48998 -4.18542 0
M  V30 782 H 72.1499 0.327557 -3.24953 0
M  V30 783 H 70.8089 -1.80416 -3.19133 0
M  V30 784 H 70.4569 -0.143527 -5.02795 0
M  V30 785 H 70.1569 -1.80672 -5.59134 0
M  V30 786 H 71.6809 -0.982067 -6.02651 0
M  V30 787 H 73.0949 -2.96001 -4.90975 0
M  V30 788 H 71.4919 -3.72436 -4.70544 0
M  V30 789 H 72.5619 -3.55041 -3.30263 0
M  V30 790 N 73.905 1.17692 -1.04816 0
M  V30 791 C 74.815 2.25229 -0.65643 0
M  V30 792 C 75.831 1.71018 0.320761 0
M  V30 793 O 77.007 2.00649 0.173805 0
M  V30 794 C 74.072 3.46684 -0.0332629 0
M  V30 795 C 73.133 4.15997 -1.06042 0
M  V30 796 C 72.366 5.31654 -0.466893 0
M  V30 797 O 72.589 5.65777 0.724758 0
M  V30 798 O 71.523 5.89831 -1.1993 0
M  V30 799 H 75.349 2.61016 -1.55255 0
M  V30 800 H 72.934 1.24919 -0.81949 0
M  V30 801 H 74.816 4.20234 0.313256 0
M  V30 802 H 73.491 3.12703 0.836566 0
M  V30 803 H 72.398 3.44482 -1.45886 0
M  V30 804 H 73.731 4.53996 -1.90127 0
M  V30 805 N 75.3831 0.828654 1.34056 0
M  V30 806 C 76.6131 0.431993 2.02033 0
M  V30 807 C 77.0211 -0.96844 1.62536 0
M  V30 808 O 76.3641 -1.6391 0.829408 0
M  V30 809 C 76.4261 0.461224 3.56529 0
M  V30 810 C 76.0901 1.81599 4.1937 0
M  V30 811 C 77.0871 2.7777 4.39477 0
M  V30 812 C 74.7721 2.10604 4.56017 0
M  V30 813 C 76.7661 4.01115 4.95364 0
M  V30 814 C 74.4531 3.34207 5.11614 0
M  V30 815 C 75.4511 4.2928 5.31232 0
M  V30 816 O 75.1391 5.50699 5.8565 0
M  V30 817 H 74.8711 0.170943 0.654029 0
M  V30 818 H 77.4251 1.11988 1.72185 0
M  V30 819 H 75.6551 -0.283388 3.8566 0
M  V30 820 H 77.3441 0.0838149 4.05813 0
M  V30 821 H 78.1101 2.56659 4.11523 0
M  V30 822 H 73.9891 1.37402 4.40047 0
M  V30 823 H 77.5331 4.75333 5.10592 0
M  V30 824 H 73.4301 3.55179 5.38997 0
M  V30 825 H 74.1981 5.52298 6.04077 0
M  V30 826 N 76.8612 -1.46375 0.584142 0
M  V30 827 C 78.1072 -2.02678 0.0703716 0
M  V30 828 C 78.4402 -1.4545 -1.28678 0
M  V30 829 O 77.7152 -0.62014 -1.84349 0
M  V30 830 C 77.9982 -3.60099 0.00614674 0
M  V30 831 C 77.8512 -4.27709 1.3923 0
M  V30 832 C 79.1702 -4.34598 -0.693742 0
M  V30 833 H 76.2892 -0.736504 0.027047 0
M  V30 834 H 78.9312 -1.74501 0.751615 0
M  V30 835 H 77.0812 -3.84236 -0.574009 0
M  V30 836 H 78.7532 -4.14832 2.01773 0
M  V30 837 H 76.9962 -3.87016 1.95962 0
M  V30 838 H 77.6672 -5.36478 1.29982 0
M  V30 839 H 80.1432 -4.15615 -0.200869 0
M  V30 840 H 79.0192 -5.44318 -0.707714 0
M  V30 841 H 79.2802 -4.05759 -1.75533 0
M  V30 842 N 78.3393 -0.321999 -1.54275 0
M  V30 843 C 79.5673 0.283052 -2.04955 0
M  V30 844 C 79.9823 1.45904 -1.19823 0
M  V30 845 O 79.3393 1.81063 -0.228545 0
M  V30 846 C 79.3903 0.719028 -3.54277 0
M  V30 847 O 79.1113 -0.410175 -4.36176 0
M  V30 848 C 80.6123 1.38705 -4.21041 0
M  V30 849 H 77.8323 0.0584616 -0.668448 0
M  V30 850 H 80.3763 -0.467734 -1.99079 0
M  V30 851 H 78.5313 1.41979 -3.60445 0
M  V30 852 H 78.9453 -0.0669416 -5.24457 0
M  V30 853 H 80.4193 1.64306 -5.2698 0
M  V30 854 H 80.8963 2.33385 -3.72059 0
M  V30 855 H 81.5023 0.728906 -4.19007 0
M  V30 856 N 79.8174 1.5752 -0.0501392 0
M  V30 857 C 80.7474 2.14502 0.922566 0
M  V30 858 C 81.7284 1.06642 1.3252 0
M  V30 859 O 82.9134 1.34577 1.4001 0
M  V30 860 C 80.0434 2.68916 2.19776 0
M  V30 861 C 78.9974 3.8175 1.93523 0
M  V30 862 C 78.3234 4.22677 3.27487 0
M  V30 863 C 79.6234 5.06932 1.25765 0
M  V30 864 H 81.3174 2.9603 0.447952 0
M  V30 865 H 78.8634 1.42401 0.214024 0
M  V30 866 H 80.8164 3.07419 2.88222 0
M  V30 867 H 79.5404 1.84578 2.69441 0
M  V30 868 H 78.1994 3.43718 1.27489 0
M  V30 869 H 77.8474 3.35291 3.74952 0
M  V30 870 H 77.5474 4.98725 3.1072 0
M  V30 871 H 79.0714 4.63779 3.97166 0
M  V30 872 H 80.4854 5.42888 1.84244 0
M  V30 873 H 78.8824 5.88116 1.19328 0
M  V30 874 H 79.9524 4.84337 0.233536 0
M  V30 875 N 81.2955 -0.223234 1.56011 0
M  V30 876 C 82.2425 -1.27664 1.92277 0
M  V30 877 C 83.2125 -1.46659 0.779763 0
M  V30 878 O 84.3975 -1.60256 1.03551 0
M  V30 879 C 81.5375 -2.62234 2.24338 0
M  V30 880 C 80.6505 -2.51051 3.51564 0
M  V30 881 C 79.7855 -3.78133 3.7308 0
M  V30 882 C 78.8245 -3.61665 4.93827 0
M  V30 883 N 77.9615 -4.80693 5.11741 0
M  V30 884 H 82.8015 -0.960358 2.82101 0
M  V30 885 H 80.3385 -0.462901 1.39627 0
M  V30 886 H 82.2965 -3.40596 2.40936 0
M  V30 887 H 80.9265 -2.91961 1.3769 0
M  V30 888 H 79.9785 -1.64132 3.43169 0
M  V30 889 H 81.2905 -2.34803 4.40079 0
M  V30 890 H 80.4445 -4.64938 3.89766 0
M  V30 891 H 79.1835 -3.97304 2.82844 0
M  V30 892 H 78.1885 -2.73244 4.77093 0
M  V30 893 H 79.4135 -3.43966 5.85546 0
M  V30 894 H 77.3595 -5.00181 4.24446 0
M  V30 895 H 77.2765 -4.67165 5.94384 0
M  V30 896 H 78.5445 -5.6893 5.3286 0
M  V30 897 N 82.7736 -1.49793 -0.48987 0
M  V30 898 C 83.7206 -1.67281 -1.59014 0
M  V30 899 C 84.6906 -0.514177 -1.57941 0
M  V30 900 O 85.8756 -0.742533 -1.75759 0
M  V30 901 C 83.0156 -1.75569 -2.97102 0
M  V30 902 C 82.1286 -3.0281 -3.08107 0
M  V30 903 C 81.2636 -3.02008 -4.36995 0
M  V30 904 C 80.3026 -4.23782 -4.41673 0
M  V30 905 N 79.4396 -4.20826 -5.62005 0
M  V30 906 H 84.2796 -2.61224 -1.43409 0
M  V30 907 H 81.8166 -1.29508 -0.697565 0
M  V30 908 H 83.7746 -1.78354 -3.77155 0
M  V30 909 H 82.4046 -0.850827 -3.11385 0
M  V30 910 H 81.4566 -3.09584 -2.21047 0
M  V30 911 H 82.7686 -3.92801 -3.07423 0
M  V30 912 H 81.9226 -3.03418 -5.25378 0
M  V30 913 H 80.6616 -2.09815 -4.4026 0
M  V30 914 H 79.6666 -4.22604 -3.5169 0
M  V30 915 H 80.8916 -5.17181 -4.40115 0
M  V30 916 H 78.8376 -3.31476 -5.66091 0
M  V30 917 H 78.7546 -5.04564 -5.62984 0
M  V30 918 H 80.0226 -4.26355 -6.52565 0
M  V30 919 N 84.2517 0.741722 -1.39055 0
M  V30 920 C 85.1847 1.86416 -1.31622 0
M  V30 921 C 86.1627 1.61473 -0.191076 0
M  V30 922 O 87.3467 1.84825 -0.370399 0
M  V30 923 C 84.4737 3.22266 -1.04221 0
M  V30 924 C 83.5197 3.66079 -2.18834 0
M  V30 925 S 84.3527 3.7623 -3.81066 0
M  V30 926 C 85.5087 5.14881 -3.55877 0
M  V30 927 H 85.7417 1.92437 -2.26617 0
M  V30 928 H 83.2747 0.905907 -1.25031 0
M  V30 929 H 85.2327 4.00714 -0.890964 0
M  V30 930 H 83.8937 3.1391 -0.109237 0
M  V30 931 H 83.0867 4.64648 -1.95238 0
M  V30 932 H 82.6887 2.94817 -2.30128 0
M  V30 933 H 84.9807 6.01006 -3.12726 0
M  V30 934 H 85.9237 5.43503 -4.53884 0
M  V30 935 H 86.3317 4.84239 -2.90126 0
M  V30 936 N 85.7298 1.2412 0.971189 0
M  V30 937 C 87.1458 1.00584 1.23916 0
M  V30 938 C 87.3458 -0.287481 1.99439 0
M  V30 939 O 86.4018 -1.00454 2.31658 0
M  V30 940 C 87.7148 2.21864 2.0297 0
M  V30 941 C 89.2628 2.26452 2.16076 0
M  V30 942 C 89.7378 3.47343 2.98524 0
M  V30 943 N 91.2288 3.47639 3.06107 0
M  V30 944 C 91.9638 4.37837 3.70251 0
M  V30 945 N 91.4598 5.38286 4.36142 0
M  V30 946 N 93.2528 4.25558 3.67228 0
M  V30 947 H 85.4038 2.07236 0.465499 0
M  V30 948 H 87.6668 0.909236 0.268315 0
M  V30 949 H 87.3728 3.15771 1.54861 0
M  V30 950 H 87.2468 2.23698 3.03709 0
M  V30 951 H 89.6338 1.33078 2.6339 0
M  V30 952 H 89.7148 2.28645 1.14696 0
M  V30 953 H 89.3588 4.41029 2.51905 0
M  V30 954 H 89.2888 3.42393 4.00093 0
M  V30 955 H 91.7798 2.74966 2.59233 0
M  V30 956 H 92.0928 6.03352 4.82894 0
M  V30 957 H 90.4378 5.42176 4.34822 0
M  V30 958 H 93.6288 3.46322 3.14927 0
M  V30 959 H 93.8018 4.96054 4.16935 0
M  V30 960 N 87.2079 -1.17134 1.05439 0
M  V30 961 C 88.1179 -2.24878 0.668365 0
M  V30 962 C 89.1339 -1.71186 -0.311687 0
M  V30 963 O 90.3099 -2.00738 -0.163161 0
M  V30 964 C 87.3749 -3.46662 0.051648 0
M  V30 965 C 86.4359 -4.15429 1.08246 0
M  V30 966 C 85.6689 -5.31399 0.495082 0
M  V30 967 O 85.8919 -5.66153 -0.694743 0
M  V30 968 O 84.8259 -5.89187 1.23056 0
M  V30 969 H 88.6519 -2.60189 1.56637 0
M  V30 970 H 86.2369 -1.24482 0.826104 0
M  V30 971 H 88.1189 -4.20394 -0.290966 0
M  V30 972 H 86.7939 -3.13142 -0.819971 0
M  V30 973 H 85.7009 -3.43704 1.47711 0
M  V30 974 H 87.0339 -4.52982 1.92532 0
M  V30 975 N 88.686 -0.835752 -1.33615 0
M  V30 976 C 89.935 -0.426289 -1.97144 0
M  V30 977 C 90.248 1.01912 -1.66953 0
M  V30 978 O 91.454 1.53311 -2.24072 0
M  V30 979 C 89.91 -0.711321 -3.52801 0
M  V30 980 C 89.518 -2.1712 -3.91871 0
M  V30 981 C 91.262 -0.368654 -4.22896 0
M  V30 982 C 89.169 -2.40044 -5.40493 0
M  V30 983 H 88.099 -0.15567 -0.737755 0
M  V30 984 H 90.75 -1.0239 -1.52278 0
M  V30 985 H 89.132 -0.0433766 -3.95976 0
M  V30 986 H 90.306 -2.87936 -3.59763 0
M  V30 987 H 88.621 -2.47654 -3.34749 0
M  V30 988 H 91.218 -0.517601 -5.32189 0
M  V30 989 H 91.561 0.688078 -4.10574 0
M  V30 990 H 92.094 -0.991702 -3.8524 0
M  V30 991 H 88.833 -3.44271 -5.57815 0
M  V30 992 H 88.353 -1.73785 -5.74072 0
M  V30 993 H 90.032 -2.23042 -6.0734 0
M  V30 994 N 90.1641 1.46063 -0.591896 0
M  V30 995 C 91.4131 2.01547 -0.0786637 0
M  V30 996 C 91.7261 1.46796 1.29268 0
M  V30 997 O 92.9321 1.94157 1.89777 0
M  V30 998 C 91.3881 3.59787 -0.0900024 0
M  V30 999 C 90.9961 4.23534 -1.46023 0
M  V30 1000 C 92.7401 4.22895 0.368806 0
M  V30 1001 C 90.6471 5.73881 -1.4288 0
M  V30 1002 H 89.5771 0.753564 -0.0256388 0
M  V30 1003 H 92.2281 1.677 -0.744905 0
M  V30 1004 H 90.6101 3.90752 0.642586 0
M  V30 1005 H 91.7841 4.04167 -2.21328 0
M  V30 1006 H 90.0991 3.72558 -1.85982 0
M  V30 1007 H 92.6961 5.33116 0.411258 0
M  V30 1008 H 93.0391 3.9247 1.38827 0
M  V30 1009 H 93.5721 3.9659 -0.31001 0
M  V30 1010 H 90.3111 6.0898 -2.42536 0
M  V30 1011 H 89.8311 5.95486 -0.718095 0
M  V30 1012 H 91.5101 6.36776 -1.14565 0
M  V30 1013 N 91.6422 0.330177 1.54103 0
M  V30 1014 C 92.8902 -0.269871 2.0029 0
M  V30 1015 C 93.2112 -1.52133 1.21986 0
M  V30 1016 O 92.4812 -1.93212 0.323438 0
M  V30 1017 H 91.0612 -0.10271 0.739905 0
M  V30 1018 H 93.7232 0.448249 1.89675 0
M  V30 1019 H 92.8192 -0.52166 3.07709 0
M  V30 1020 N 93.1203 -1.57491 0.0584922 0
M  V30 1021 C 94.3663 -1.94081 -0.608617 0
M  V30 1022 C 94.7213 -0.937438 -1.68017 0
M  V30 1023 O 94.0143 0.0423034 -1.91553 0
M  V30 1024 C 94.2083 -3.3513 -1.24188 0
M  V30 1025 C 94.0373 -4.49095 -0.233187 0
M  V30 1026 C 92.8073 -5.04988 0.177439 0
M  V30 1027 C 95.0053 -5.1162 0.524306 0
M  V30 1028 N 92.9873 -6.02487 1.17823 0
M  V30 1029 C 94.3583 -6.04493 1.37796 0
M  V30 1030 C 96.4133 -4.94489 0.581822 0
M  V30 1031 C 95.1163 -6.82075 2.28399 0
M  V30 1032 C 97.1423 -5.72703 1.47531 0
M  V30 1033 C 96.5043 -6.65214 2.31667 0
M  V30 1034 H 92.6033 -0.75752 -0.194134 0
M  V30 1035 H 95.1873 -1.94248 0.132533 0
M  V30 1036 H 93.3583 -3.35726 -1.95302 0
M  V30 1037 H 95.0903 -3.5899 -1.86838 0
M  V30 1038 H 91.8453 -4.73165 -0.203004 0
M  V30 1039 H 92.2693 -6.55933 1.67573 0
M  V30 1040 H 96.9113 -4.22765 -0.054443 0
M  V30 1041 H 94.6293 -7.53085 2.93067 0
M  V30 1042 H 98.2153 -5.61472 1.52448 0
M  V30 1043 H 97.0953 -7.24679 2.99683 0
M  V30 1044 N 94.5984 0.214957 -1.56127 0
M  V30 1045 C 96.0094 0.781386 -1.69562 0
M  V30 1046 C 96.3604 1.84707 -0.66165 0
M  V30 1047 O 95.4854 2.156 0.185927 0
M  V30 1048 C 96.0804 1.42411 -3.07416 0
M  V30 1049 C 94.6394 1.93786 -3.22683 0
M  V30 1050 C 93.7864 0.800438 -2.65496 0
M  V30 1051 H 96.7374 -0.00980633 -1.58697 0
M  V30 1052 H 96.7584 2.29309 -3.0364 0
M  V30 1053 H 96.2704 0.64826 -3.82648 0
M  V30 1054 H 94.3714 2.74152 -2.52332 0
M  V30 1055 H 94.4844 2.1133 -4.29973 0
M  V30 1056 H 92.8484 1.2095 -2.2415 0
M  V30 1057 H 93.6314 0.0371471 -3.4328 0
M  V30 1058 N 96.0765 1.50051 0.48192 0
M  V30 1059 C 97.3245 1.60181 1.23234 0
M  V30 1060 C 97.6455 0.299176 1.92691 0
M  V30 1061 O 96.9155 -0.682708 1.83619 0
M  V30 1062 H 95.4955 0.590232 0.457859 0
M  V30 1063 H 98.1575 1.86775 0.556881 0
M  V30 1064 H 97.2535 2.40753 1.98607 0
M  V30 1065 N 97.5546 -0.734337 1.39446 0
M  V30 1066 C 98.8026 -1.49096 1.36436 0
M  V30 1067 C 99.1236 -1.94961 -0.0388255 0
M  V30 1068 O 98.3936 -1.69033 -0.990191 0
M  V30 1069 H 96.9736 -0.5531 0.502085 0
M  V30 1070 H 99.6356 -0.871725 1.74319 0
M  V30 1071 H 98.7316 -2.37276 2.02747 0
M  V30 1072 N 99.0327 -1.24633 -0.964593 0
M  V30 1073 C 100.258 -1.11596 -1.74818 0
M  V30 1074 C 100.683 0.32723 -1.85232 0
M  V30 1075 O 100.041 1.23695 -1.32549 0
M  V30 1076 C 100.089 -1.76397 -3.1451 0
M  V30 1077 O 99.1927 -1.03685 -3.99153 0
M  V30 1078 H 98.5337 -0.390196 -0.537255 0
M  V30 1079 H 101.064 -1.65002 -1.20977 0
M  V30 1080 H 101.074 -1.8228 -3.65018 0
M  V30 1081 H 99.7487 -2.81401 -3.06246 0
M  V30 1082 H 98.3257 -1.05611 -3.57632 0
M  V30 1083 N 100.511 1.16574 -1.06058 0
M  V30 1084 C 101.759 1.86677 -0.77434 0
M  V30 1085 C 102.08 1.81959 0.701147 0
M  V30 1086 O 101.35 1.2515 1.50713 0
M  V30 1087 H 99.9298 0.691134 -0.283449 0
M  V30 1088 H 102.592 1.41378 -1.34158 0
M  V30 1089 H 101.688 2.92181 -1.09711 0
M  V30 1090 N 101.989 0.842826 1.3317 0
M  V30 1091 C 103.266 0.362216 1.92217 0
M  V30 1092 C 103.646 -1.15289 1.76838 0
M  V30 1093 O 102.994 -1.96914 1.15919 0
M  V30 1094 C 103.204 0.813495 3.39387 0
M  V30 1095 C 104.552 0.823804 4.16532 0
M  V30 1096 O 105.576 0.757358 3.48055 0
M  V30 1097 O 104.435 0.915193 5.38782 0
M  V30 1098 H 101.529 0.103317 0.820521 0
M  V30 1099 H 104.075 0.928942 1.42017 0
M  V30 1100 H 102.847 1.85624 3.4447 0
M  V30 1101 H 102.47 0.223561 3.96971 0
M  V30 1102 N 103.467 -1.45747 0.599634 0
M  V30 1103 C 104.715 -2.01893 0.0915472 0
M  V30 1104 C 105.036 -1.47155 -1.27946 0
M  V30 1105 O 104.306 -0.66273 -1.84349 0
M  V30 1106 H 102.886 -0.746363 0.0308524 0
M  V30 1107 H 105.548 -1.78645 0.779237 0
M  V30 1108 H 104.644 -3.1208 0.0353086 0
M  V30 1109 N 104.945 -0.338344 -1.53925 0
M  V30 1110 C 106.194 0.260732 -2.00008 0
M  V30 1111 C 106.507 1.52073 -1.23017 0
M  V30 1112 O 107.713 2.19672 -1.5955 0
M  V30 1113 C 106.169 0.51515 -3.56194 0
M  V30 1114 C 105.777 -0.728645 -4.42035 0
M  V30 1115 C 107.521 1.07337 -4.10706 0
M  V30 1116 C 105.428 -0.445315 -5.89721 0
M  V30 1117 H 104.358 0.101205 -0.747177 0
M  V30 1118 H 107.009 -0.452866 -1.77824 0
M  V30 1119 H 105.391 1.28932 -3.74423 0
M  V30 1120 H 106.565 -1.50352 -4.35581 0
M  V30 1121 H 104.88 -1.20813 -3.98489 0
M  V30 1122 H 107.477 1.30022 -5.18651 0
M  V30 1123 H 107.82 2.0273 -3.63602 0
M  V30 1124 H 108.353 0.360034 -3.96167 0
M  V30 1125 H 105.092 -1.36883 -6.41049 0
M  V30 1126 H 104.612 0.291569 -5.99091 0
M  V30 1127 H 106.291 -0.0606218 -6.46972 0
M  V30 1128 N 106.423 1.57458 -0.0668435 0
M  V30 1129 C 107.67 1.93301 0.603406 0
M  V30 1130 C 107.998 0.946486 1.69917 0
M  V30 1131 O 107.253 -0.0387021 1.95662 0
M  V30 1132 C 107.552 3.35784 1.22409 0
M  V30 1133 C 107.218 4.50179 0.254955 0
M  V30 1134 C 105.88 4.81199 -0.0116746 0
M  V30 1135 C 108.232 5.19598 -0.408338 0
M  V30 1136 C 105.56 5.78978 -0.94877 0
M  V30 1137 C 107.912 6.18381 -1.33372 0
M  V30 1138 C 106.576 6.47821 -1.60887 0
M  V30 1139 H 105.846 0.707338 0.220802 0
M  V30 1140 H 108.493 1.91012 -0.136665 0
M  V30 1141 H 106.798 3.34515 2.03978 0
M  V30 1142 H 108.495 3.60804 1.74989 0
M  V30 1143 H 105.085 4.25983 0.472954 0
M  V30 1144 H 109.269 4.95832 -0.215456 0
M  V30 1145 H 104.525 6.00115 -1.16925 0
M  V30 1146 H 108.699 6.71277 -1.85367 0
M  V30 1147 H 106.326 7.23399 -2.33661 0
M  V30 1148 N 107.901 -0.206675 1.56239 0
M  V30 1149 C 109.126 -0.949474 1.8439 0
M  V30 1150 C 109.551 -1.76549 0.649016 0
M  V30 1151 O 108.909 -1.76782 -0.402231 0
M  V30 1152 C 108.957 -1.83078 3.10668 0
M  V30 1153 O 108.061 -2.9281 2.90407 0
M  V30 1154 H 107.402 -0.268033 0.607499 0
M  V30 1155 H 109.932 -0.215488 2.03462 0
M  V30 1156 H 109.942 -2.2377 3.41161 0
M  V30 1157 H 108.617 -1.23112 3.97261 0
M  V30 1158 H 107.194 -2.55956 2.71184 0
M  V30 1159 N 109.379 -1.50304 -0.473955 0
M  V30 1160 C 110.79 -1.54042 -1.0549 0
M  V30 1161 C 111.141 -0.342248 -1.93192 0
M  V30 1162 O 110.266 0.545157 -2.09421 0
M  V30 1163 C 110.861 -2.79152 -1.91989 0
M  V30 1164 C 109.42 -2.8558 -2.45196 0
M  V30 1165 C 108.567 -2.48295 -1.2347 0
M  V30 1166 H 111.518 -1.5661 -0.256693 0
M  V30 1167 H 111.539 -2.60845 -2.7702 0
M  V30 1168 H 111.051 -3.66339 -1.28131 0
M  V30 1169 H 109.152 -2.02738 -3.12615 0
M  V30 1170 H 109.265 -3.88403 -2.80499 0
M  V30 1171 H 107.629 -2.00669 -1.56856 0
M  V30 1172 H 108.412 -3.37787 -0.612789 0
M  V30 1173 N 110.857 0.726932 -1.39834 0
M  V30 1174 C 112.105 1.4837 -1.37225 0
M  V30 1175 C 112.426 1.94979 0.0284857 0
M  V30 1176 O 111.696 1.69555 0.981213 0
M  V30 1177 H 110.276 0.55043 -0.505011 0
M  V30 1178 H 112.938 0.862468 -1.74778 0
M  V30 1179 H 112.034 2.36198 -2.04003 0
M  V30 1180 N 112.336 1.25143 0.95797 0
M  V30 1181 C 113.584 1.09476 1.69881 0
M  V30 1182 C 113.905 -0.365502 1.91544 0
M  V30 1183 O 113.175 -1.25985 1.50015 0
M  V30 1184 H 111.755 0.402128 0.629525 0
M  V30 1185 H 114.417 1.57214 1.15194 0
M  V30 1186 H 113.513 1.60046 2.6794 0
M  V30 1187 N 113.814 -1.1601 1.06675 0
M  V30 1188 C 114.777 -2.18724 0.685001 0
M  V30 1189 C 115.777 -1.58496 -0.271246 0
M  V30 1190 O 116.967 -1.74119 -0.0531156 0
M  V30 1191 C 114.099 -3.40899 0.00853648 0
M  V30 1192 H 115.292 -2.54011 1.59431 0
M  V30 1193 H 112.845 -1.30352 0.862441 0
M  V30 1194 H 113.58 -3.11173 -0.913337 0
M  V30 1195 H 113.365 -3.8587 0.696204 0
M  V30 1196 H 114.855 -4.16886 -0.24414 0
M  V30 1197 N 115.292 -0.849877 -1.32721 0
M  V30 1198 C 116.541 -0.447175 -1.96681 0
M  V30 1199 C 116.854 1.00135 -1.68025 0
M  V30 1200 O 118.06 1.50926 -2.25685 0
M  V30 1201 C 116.516 -0.7487 -3.52026 0
M  V30 1202 C 116.124 -2.21264 -3.89546 0
M  V30 1203 C 117.868 -0.413487 -4.22481 0
M  V30 1204 C 115.775 -2.45763 -5.37917 0
M  V30 1205 H 114.705 -0.163486 -0.736063 0
M  V30 1206 H 117.356 -1.03999 -1.51183 0
M  V30 1207 H 115.738 -0.0853727 -3.95908 0
M  V30 1208 H 116.912 -2.91736 -3.56689 0
M  V30 1209 H 115.227 -2.5119 -3.32103 0
M  V30 1210 H 117.824 -0.574017 -5.3161 0
M  V30 1211 H 118.167 0.644492 -4.11281 0
M  V30 1212 H 118.7 -1.03251 -3.84167 0
M  V30 1213 H 115.439 -3.50168 -5.54132 0
M  V30 1214 H 114.959 -1.79864 -5.72197 0
M  V30 1215 H 116.638 -2.29471 -6.0494 0
M  V30 1216 N 116.77 1.45427 -0.607355 0
M  V30 1217 C 117.995 2.07124 -0.107006 0
M  V30 1218 C 118.42 1.44906 1.19933 0
M  V30 1219 O 117.778 0.541687 1.73019 0
M  V30 1220 C 117.826 3.60595 0.0194119 0
M  V30 1221 O 116.93 3.98285 1.0697 0
M  V30 1222 H 116.271 0.659868 -0.0739597 0
M  V30 1223 H 118.801 1.86683 -0.837297 0
M  V30 1224 H 118.811 4.07419 0.2177 0
M  V30 1225 H 117.486 4.05266 -0.934453 0
M  V30 1226 H 116.063 3.63133 0.847889 0
M  V30 1227 N 118.248 0.346503 1.53744 0
M  V30 1228 C 119.196 -0.52422 2.26616 0
M  V30 1229 C 120.19 -1.09948 1.28871 0
M  V30 1230 O 121.396 -1.04488 1.46568 0
M  V30 1231 H 117.771 -0.187743 0.728187 0
M  V30 1232 H 119.742 0.11239 2.98188 0
M  V30 1233 C 118.491 -1.66186 3.05414 0
M  V30 1234 H 117.814 -1.22848 3.80458 0
M  V30 1235 H 119.254 -2.24622 3.59612 0
M  V30 1236 C 117.713 -2.59302 2.1509 0
M  V30 1237 O 118.243 -3.61628 1.74895 0
M  V30 1238 N 116.449 -2.28055 1.8011 0
M  V30 1239 H 115.996 -1.44883 2.12994 0
M  V30 1240 H 115.954 -2.90615 1.19958 0
M  V30 1241 N 119.726 -1.57421 0.075193 0
M  V30 1242 C 120.659 -2.08528 -0.926904 0
M  V30 1243 C 121.637 -0.991171 -1.28898 0
M  V30 1244 O 122.821 -1.26479 -1.39769 0
M  V30 1245 C 119.948 -2.54576 -2.23402 0
M  V30 1246 C 118.994 -3.75454 -2.02327 0
M  V30 1247 S 119.827 -5.19989 -1.27951 0
M  V30 1248 C 120.983 -5.69372 -2.59935 0
M  V30 1249 H 121.216 -2.932 -0.492048 0
M  V30 1250 H 118.749 -1.53785 -0.137651 0
M  V30 1251 H 120.707 -2.81767 -2.98526 0
M  V30 1252 H 119.368 -1.70166 -2.64012 0
M  V30 1253 H 118.561 -4.05675 -2.99071 0
M  V30 1254 H 118.163 -3.48654 -1.35339 0
M  V30 1255 H 120.455 -5.76424 -3.56008 0
M  V30 1256 H 121.398 -6.68207 -2.34319 0
M  V30 1257 H 121.806 -4.97205 -2.67296 0
M  V30 1258 N 121.204 0.198386 -1.56346 0
M  V30 1259 C 122.434 0.934215 -1.84271 0
M  V30 1260 C 122.842 1.77496 -0.655125 0
M  V30 1261 O 122.185 1.7961 0.385488 0
M  V30 1262 C 122.247 1.88278 -3.06254 0
M  V30 1263 C 121.911 1.22431 -4.40295 0
M  V30 1264 C 122.908 0.602839 -5.16393 0
M  V30 1265 C 120.593 1.22915 -4.87029 0
M  V30 1266 C 122.587 -0.0050083 -6.374 0
M  V30 1267 C 120.274 0.617465 -6.07973 0
M  V30 1268 C 121.272 0.00146341 -6.83 0
M  V30 1269 O 120.96 -0.600642 -8.01653 0
M  V30 1270 H 120.692 0.278245 -0.616081 0
M  V30 1271 H 123.246 0.211626 -2.04307 0
M  V30 1272 H 121.476 2.64498 -2.82095 0
M  V30 1273 H 123.165 2.48612 -3.20853 0
M  V30 1274 H 123.931 0.591265 -4.81382 0
M  V30 1275 H 119.81 1.69801 -4.28589 0
M  V30 1276 H 123.354 -0.48643 -6.95902 0
M  V30 1277 H 119.251 0.62653 -6.42452 0
M  V30 1278 H 120.019 -0.497225 -8.16988 0
M  V30 1279 N 122.682 1.50554 0.465978 0
M  V30 1280 C 123.645 1.69233 1.54574 0
M  V30 1281 C 124.645 0.562901 1.50626 0
M  V30 1282 O 125.835 0.830016 1.53155 0
M  V30 1283 C 122.967 1.7223 2.94193 0
M  V30 1284 H 124.16 2.65571 1.39327 0
M  V30 1285 H 121.713 1.40111 0.692711 0
M  V30 1286 H 122.448 0.77603 3.14878 0
M  V30 1287 H 122.233 2.54285 2.98466 0
M  V30 1288 H 123.723 1.88618 3.72576 0
M  V30 1289 N 124.16 -0.719506 1.40217 0
M  V30 1290 C 125.093 -1.84298 1.34571 0
M  V30 1291 C 126.071 -1.61149 0.216741 0
M  V30 1292 O 127.255 -1.84212 0.399756 0
M  V30 1293 C 124.382 -3.20568 1.09335 0
M  V30 1294 C 123.428 -3.62551 2.24631 0
M  V30 1295 S 124.261 -3.7012 3.87004 0
M  V30 1296 C 125.417 -5.09154 3.64024 0
M  V30 1297 H 125.65 -1.88807 2.2965 0
M  V30 1298 H 123.183 -0.885901 1.26456 0
M  V30 1299 H 125.141 -3.99246 0.954602 0
M  V30 1300 H 123.802 -3.13696 0.159164 0
M  V30 1301 H 122.995 -4.61483 2.02606 0
M  V30 1302 H 122.597 -2.91119 2.34789 0
M  V30 1303 H 124.889 -5.95955 3.22248 0
M  V30 1304 H 125.832 -5.36213 4.62473 0
M  V30 1305 H 126.24 -4.79562 2.97793 0
M  V30 1306 N 125.638 -1.25649 -0.95132 0
M  V30 1307 C 126.571 -1.00644 -2.04807 0
M  V30 1308 C 127.549 0.0654271 -1.62468 0
M  V30 1309 O 128.733 -0.074911 -1.88351 0
M  V30 1310 C 125.86 -0.522052 -3.34653 0
M  V30 1311 C 124.906 -1.58495 -3.95957 0
M  V30 1312 S 125.739 -3.17108 -4.31512 0
M  V30 1313 C 126.895 -2.70412 -5.64471 0
M  V30 1314 H 127.128 -1.93508 -2.25703 0
M  V30 1315 H 124.661 -1.09216 -1.09139 0
M  V30 1316 H 126.619 -0.24923 -4.09743 0
M  V30 1317 H 125.28 0.386146 -3.11717 0
M  V30 1318 H 124.473 -1.1968 -4.89584 0
M  V30 1319 H 124.075 -1.80862 -3.2736 0
M  V30 1320 H 126.367 -2.14245 -6.42733 0
M  V30 1321 H 127.31 -3.62693 -6.08161 0
M  V30 1322 H 127.718 -2.10302 -5.23864 0
M  V30 1323 N 127.117 1.15442 -1.07289 0
M  V30 1324 C 128.366 1.85557 -0.790669 0
M  V30 1325 C 128.679 1.83186 0.685739 0
M  V30 1326 O 129.885 2.48977 1.0827 0
M  V30 1327 C 128.341 3.33038 -1.36433 0
M  V30 1328 C 127.949 3.43856 -2.8717 0
M  V30 1329 C 129.693 4.0834 -1.1601 0
M  V30 1330 C 127.6 4.85482 -3.3773 0
M  V30 1331 H 126.53 0.695122 -0.292098 0
M  V30 1332 H 129.181 1.30219 -1.29287 0
M  V30 1333 H 127.563 3.88043 -0.789864 0
M  V30 1334 H 128.737 2.98961 -3.50655 0
M  V30 1335 H 127.052 2.81998 -3.06376 0
M  V30 1336 H 129.649 5.12859 -1.51262 0
M  V30 1337 H 129.992 4.16182 -0.0991007 0
M  V30 1338 H 130.525 3.59603 -1.70089 0
M  V30 1339 H 127.264 4.82823 -4.43353 0
M  V30 1340 H 126.784 5.30961 -2.78999 0
M  V30 1341 H 128.463 5.54335 -3.33648 0
M  V30 1342 N 128.595 0.856903 1.32268 0
M  V30 1343 C 129.558 0.308171 2.27119 0
M  V30 1344 C 130.558 -0.533421 1.51695 0
M  V30 1345 O 131.748 -0.344607 1.70757 0
M  V30 1346 C 128.88 -0.563757 3.36206 0
M  V30 1347 H 130.073 1.14535 2.77167 0
M  V30 1348 H 127.626 0.631421 1.42978 0
M  V30 1349 H 128.361 -1.42266 2.91429 0
M  V30 1350 H 128.146 0.0386749 3.92081 0
M  V30 1351 H 129.636 -0.940386 4.06874 0
M  V30 1352 N 130.073 -1.45103 0.615059 0
M  V30 1353 C 131.489 -1.57137 0.279322 0
M  V30 1354 C 131.689 -1.60523 -1.21797 0
M  V30 1355 O 130.745 -1.53956 -2.00134 0
M  V30 1356 C 132.058 -2.85062 0.957083 0
M  V30 1357 C 133.606 -2.98749 0.933706 0
M  V30 1358 C 134.081 -4.29455 1.59162 0
M  V30 1359 N 135.572 -4.36231 1.55746 0
M  V30 1360 C 136.307 -5.36051 2.0356 0
M  V30 1361 N 135.803 -6.42367 2.59494 0
M  V30 1362 N 137.596 -5.27456 1.94284 0
M  V30 1363 H 129.747 -1.41148 1.58717 0
M  V30 1364 H 132.01 -0.675331 0.665306 0
M  V30 1365 H 131.716 -2.88488 2.01166 0
M  V30 1366 H 131.59 -3.7407 0.48494 0
M  V30 1367 H 133.977 -2.94886 -0.112347 0
M  V30 1368 H 134.058 -2.11132 1.44419 0
M  V30 1369 H 133.702 -4.34077 2.63704 0
M  V30 1370 H 133.632 -5.15901 1.0561 0
M  V30 1371 H 136.123 -3.60011 1.14893 0
M  V30 1372 H 136.436 -7.14793 2.93752 0
M  V30 1373 H 134.781 -6.43097 2.63537 0
M  V30 1374 H 137.972 -4.43308 1.5032 0
M  V30 1375 H 138.145 -6.05099 2.3186 0
M  V30 1376 N 131.551 -0.354651 -1.53558 0
M  V30 1377 C 132.798 0.238443 -2.01091 0
M  V30 1378 C 133.126 1.49663 -1.24222 0
M  V30 1379 O 132.381 1.93049 -0.321003 0
M  V30 1380 C 132.68 0.587121 -3.52545 0
M  V30 1381 C 132.346 -0.575472 -4.47213 0
M  V30 1382 C 131.008 -0.894497 -4.72813 0
M  V30 1383 C 133.36 -1.35489 -5.03281 0
M  V30 1384 C 130.688 -1.99511 -5.51736 0
M  V30 1385 C 133.04 -2.44583 -5.83405 0
M  V30 1386 C 131.704 -2.77033 -6.07296 0
M  V30 1387 H 130.974 0.0872526 -0.735845 0
M  V30 1388 H 133.621 -0.484859 -1.8526 0
M  V30 1389 H 131.926 1.39129 -3.66265 0
M  V30 1390 H 133.623 1.05809 -3.86789 0
M  V30 1391 H 130.213 -0.316774 -4.27428 0
M  V30 1392 H 134.397 -1.12167 -4.83459 0
M  V30 1393 H 129.653 -2.25063 -5.68469 0
M  V30 1394 H 133.827 -3.05401 -6.25862 0
M  V30 1395 H 131.454 -3.6244 -6.68237 0
M  V30 1396 N 133.029 1.57378 -0.0835403 0
M  V30 1397 C 133.976 2.13384 0.879539 0
M  V30 1398 C 134.946 1.04936 1.28754 0
M  V30 1399 O 136.131 1.32662 1.37133 0
M  V30 1400 C 133.271 2.70932 2.13752 0
M  V30 1401 C 132.384 3.93575 1.7811 0
M  V30 1402 C 131.519 4.39326 2.98607 0
M  V30 1403 C 130.558 5.54587 2.59037 0
M  V30 1404 N 129.695 5.95243 3.72331 0
M  V30 1405 H 134.535 2.9537 0.395076 0
M  V30 1406 H 132.072 1.45953 0.183349 0
M  V30 1407 H 134.03 3.02411 2.87408 0
M  V30 1408 H 132.66 1.91693 2.59718 0
M  V30 1409 H 131.712 3.68483 0.94469 0
M  V30 1410 H 133.024 4.77258 1.45005 0
M  V30 1411 H 132.178 4.72528 3.80529 0
M  V30 1412 H 130.917 3.5452 3.34913 0
M  V30 1413 H 129.922 5.21024 1.75539 0
M  V30 1414 H 131.147 6.41133 2.23887 0
M  V30 1415 H 129.093 5.13385 4.08378 0
M  V30 1416 H 129.01 6.73694 3.43034 0
M  V30 1417 H 130.278 6.33072 4.54797 0
M  V30 1418 N 134.507 -0.190092 1.56449 0
M  V30 1419 C 135.44 -1.26375 1.90012 0
M  V30 1420 C 136.418 -1.43705 0.760765 0
M  V30 1421 O 137.602 -1.59014 1.01226 0
M  V30 1422 C 134.729 -2.62962 2.13468 0
M  V30 1423 C 133.775 -2.62474 3.36169 0
M  V30 1424 S 134.608 -2.13412 4.91137 0
M  V30 1425 C 135.764 -3.51812 5.17667 0
M  V30 1426 H 135.997 -0.977181 2.80782 0
M  V30 1427 H 133.53 -0.393814 1.49293 0
M  V30 1428 H 135.488 -3.41583 2.27664 0
M  V30 1429 H 134.149 -2.88828 1.23439 0
M  V30 1430 H 133.342 -3.62918 3.49723 0
M  V30 1431 H 132.944 -1.91937 3.20992 0
M  V30 1432 H 135.236 -4.47706 5.08494 0
M  V30 1433 H 136.179 -3.43148 6.19399 0
M  V30 1434 H 136.587 -3.46956 4.45288 0
M  V30 1435 N 135.985 -1.50799 -0.457987 0
M  V30 1436 C 137.232 -1.62442 -1.20908 0
M  V30 1437 C 137.56 -0.330865 -1.91665 0
M  V30 1438 O 136.815 0.68401 -1.83357 0
M  V30 1439 C 137.114 -2.76358 -2.2663 0
M  V30 1440 C 136.78 -4.16378 -1.73033 0
M  V30 1441 C 135.442 -4.54473 -1.58138 0
M  V30 1442 C 137.794 -5.03836 -1.33413 0
M  V30 1443 C 135.122 -5.77754 -1.02065 0
M  V30 1444 C 137.474 -6.27676 -0.78778 0
M  V30 1445 C 136.138 -6.64562 -0.625561 0
M  V30 1446 H 135.408 -0.594417 -0.442435 0
M  V30 1447 H 138.055 -1.84772 -0.503136 0
M  V30 1448 H 136.36 -2.48167 -3.03184 0
M  V30 1449 H 138.057 -2.82568 -2.84528 0
M  V30 1450 H 134.647 -3.86331 -1.85598 0
M  V30 1451 H 138.831 -4.75026 -1.4375 0
M  V30 1452 H 134.087 -6.04997 -0.882547 0
M  V30 1453 H 138.261 -6.94797 -0.472177 0
M  V30 1454 H 135.888 -7.59965 -0.188926 0
M  V30 1455 N 137.463 0.71206 -1.40597 0
M  V30 1456 C 138.874 1.29135 -1.34837 0
M  V30 1457 C 139.225 1.96186 -0.0235395 0
M  V30 1458 O 138.35 1.97768 0.878444 0
M  V30 1459 C 138.945 2.34827 -2.44217 0
M  V30 1460 C 137.504 2.88371 -2.41907 0
M  V30 1461 C 136.651 1.62202 -2.24913 0
M  V30 1462 H 139.602 0.507944 -1.50352 0
M  V30 1463 H 139.623 3.15749 -2.12327 0
M  V30 1464 H 139.135 1.85996 -3.40627 0
M  V30 1465 H 137.236 3.41422 -1.49204 0
M  V30 1466 H 137.349 3.39925 -3.37621 0
M  V30 1467 H 135.713 1.874 -1.72492 0
M  V30 1468 H 136.496 1.15391 -3.23326 0
M  V30 1469 N 138.941 1.26152 0.944643 0
M  V30 1470 C 139.851 1.09176 2.07648 0
M  V30 1471 C 140.867 0.0261935 1.7398 0
M  V30 1472 O 142.043 0.229208 2.00091 0
M  V30 1473 C 139.108 0.722915 3.39079 0
M  V30 1474 C 138.169 1.86752 3.86552 0
M  V30 1475 C 137.402 1.51617 5.11711 0
M  V30 1476 O 137.625 0.416331 5.68879 0
M  V30 1477 O 136.559 2.34975 5.54139 0
M  V30 1478 H 140.385 2.0412 2.24875 0
M  V30 1479 H 137.97 1.05182 1.061 0
M  V30 1480 H 139.852 0.529787 4.18056 0
M  V30 1481 H 138.527 -0.197159 3.23099 0
M  V30 1482 H 137.434 2.11558 3.08535 0
M  V30 1483 H 138.767 2.76719 4.07047 0
M  V30 1484 N 140.419 -1.14872 1.07899 0
M  V30 1485 C 141.665 -1.86064 0.806725 0
M  V30 1486 C 141.998 -1.82434 -0.665706 0
M  V30 1487 O 141.273 -1.25138 -1.48899 0
M  V30 1488 C 141.556 -3.34929 1.32267 0
M  V30 1489 C 141.409 -3.47161 2.86006 0
M  V30 1490 C 142.728 -4.29863 0.943717 0
M  V30 1491 H 139.847 -0.675591 0.294526 0
M  V30 1492 H 142.489 -1.34925 1.33773 0
M  V30 1493 H 140.639 -3.78611 0.870974 0
M  V30 1494 H 142.311 -3.12302 3.39507 0
M  V30 1495 H 140.554 -2.88539 3.23925 0
M  V30 1496 H 141.225 -4.51777 3.17177 0
M  V30 1497 H 143.701 -3.9417 1.33302 0
M  V30 1498 H 142.577 -5.32494 1.33198 0
M  V30 1499 H 142.838 -4.41846 -0.149796 0
M  V30 1500 N 141.898 -0.863906 -1.31812 0
M  V30 1501 C 142.845 -0.313303 -2.28664 0
M  V30 1502 C 143.815 0.584868 -1.55462 0
M  V30 1503 O 145 0.517805 -1.83639 0
M  V30 1504 C 142.14 0.48441 -3.41683 0
M  V30 1505 C 141.253 -0.440594 -4.29747 0
M  V30 1506 C 140.388 0.370652 -5.29905 0
M  V30 1507 C 139.427 -0.551164 -6.09613 0
M  V30 1508 N 138.564 0.223462 -7.01744 0
M  V30 1509 H 143.404 -1.14444 -2.75148 0
M  V30 1510 H 140.941 -0.575769 -1.35364 0
M  V30 1511 H 142.899 0.962627 -4.05943 0
M  V30 1512 H 141.529 1.28029 -2.96325 0
M  V30 1513 H 140.581 -1.03724 -3.65986 0
M  V30 1514 H 141.893 -1.14767 -4.85417 0
M  V30 1515 H 141.047 0.911638 -5.99812 0
M  V30 1516 H 139.786 1.11105 -4.74876 0
M  V30 1517 H 138.791 -1.10396 -5.38603 0
M  V30 1518 H 140.016 -1.29032 -6.66729 0
M  V30 1519 H 137.962 0.946787 -6.49132 0
M  V30 1520 H 137.879 -0.424399 -7.54808 0
M  V30 1521 H 139.147 0.745876 -7.75923 0
M  V30 1522 N 143.376 1.44774 -0.622745 0
M  V30 1523 C 144.286 2.34433 0.0886031 0
M  V30 1524 C 145.302 1.52131 0.844529 0
M  V30 1525 O 146.478 1.84886 0.798691 0
M  V30 1526 C 143.543 3.29986 1.0635 0
M  V30 1527 C 142.604 4.28195 0.307873 0
M  V30 1528 C 141.837 5.19183 1.23633 0
M  V30 1529 O 142.06 5.13918 2.47476 0
M  V30 1530 O 140.994 5.97515 0.725189 0
M  V30 1531 H 144.82 2.96693 -0.648599 0
M  V30 1532 H 142.405 1.44408 -0.382957 0
M  V30 1533 H 144.287 3.88825 1.6246 0
M  V30 1534 H 142.962 2.70269 1.78146 0
M  V30 1535 H 141.869 3.72927 -0.296064 0
M  V30 1536 H 143.202 4.90808 -0.3699 0
M  V30 1537 N 144.854 0.36279 1.53368 0
M  V30 1538 C 145.801 -0.485008 2.25646 0
M  V30 1539 C 146.771 -1.07982 1.2621 0
M  V30 1540 O 147.956 -1.11284 1.54986 0
M  V30 1541 C 145.096 -1.62023 3.04701 0
M  V30 1542 C 144.209 -1.05086 4.19024 0
M  V30 1543 C 143.344 -2.15496 4.85525 0
M  V30 1544 C 142.383 -1.5601 5.91884 0
M  V30 1545 N 141.52 -2.60241 6.52088 0
M  V30 1546 H 146.36 0.137864 2.97681 0
M  V30 1547 H 143.897 0.0798061 1.46883 0
M  V30 1548 H 145.855 -2.28887 3.48807 0
M  V30 1549 H 144.485 -2.2138 2.34927 0
M  V30 1550 H 143.537 -0.27259 3.79422 0
M  V30 1551 H 144.849 -0.575926 4.95464 0
M  V30 1552 H 144.003 -2.90186 5.32801 0
M  V30 1553 H 142.742 -2.66341 4.08551 0
M  V30 1554 H 141.747 -0.798338 5.43973 0
M  V30 1555 H 142.972 -1.05994 6.70777 0
M  V30 1556 H 140.918 -3.10304 5.77968 0
M  V30 1557 H 140.835 -2.17426 7.24059 0
M  V30 1558 H 142.103 -3.34641 7.04014 0
M  V30 1559 N 146.332 -1.57332 0.0918853 0
M  V30 1560 C 147.58 -1.93853 -0.571446 0
M  V30 1561 C 147.901 -0.974212 -1.6892 0
M  V30 1562 O 147.171 -0.0257254 -1.95883 0
M  V30 1563 H 145.751 -0.715666 -0.214082 0
M  V30 1564 H 148.413 -1.94287 0.154464 0
M  V30 1565 H 147.509 -2.96191 -0.983729 0
M  V30 1566 N 147.81 0.181792 -1.56548 0
M  V30 1567 C 148.743 1.25366 -1.90679 0
M  V30 1568 C 149.721 1.43299 -0.768376 0
M  V30 1569 O 150.905 1.58475 -1.02068 0
M  V30 1570 C 148.032 2.61826 -2.1486 0
M  V30 1571 C 147.078 2.60688 -3.37556 0
M  V30 1572 S 147.911 2.10804 -4.92262 0
M  V30 1573 C 149.067 3.49062 -5.19525 0
M  V30 1574 H 149.3 0.962277 -2.81296 0
M  V30 1575 H 146.833 0.385892 -1.495 0
M  V30 1576 H 148.791 3.40371 -2.29473 0
M  V30 1577 H 147.452 2.88169 -1.24969 0
M  V30 1578 H 146.645 3.61058 -3.51643 0
M  V30 1579 H 146.247 1.90232 -3.22006 0
M  V30 1580 H 148.539 4.45003 -5.10861 0
M  V30 1581 H 149.482 3.39859 -6.2121 0
M  V30 1582 H 149.89 3.4459 -4.47122 0
M  V30 1583 N 149.288 1.51039 0.449983 0
M  V30 1584 C 150.251 1.70863 1.5277 0
M  V30 1585 C 151.251 0.578846 1.5002 0
M  V30 1586 O 152.441 0.846213 1.52266 0
M  V30 1587 C 149.573 1.75341 2.9235 0
M  V30 1588 H 150.766 2.67034 1.36502 0
M  V30 1589 H 148.319 1.40838 0.677812 0
M  V30 1590 H 149.054 0.809383 3.14037 0
M  V30 1591 H 148.839 2.57436 2.95752 0
M  V30 1592 H 150.329 1.92559 3.70555 0
M  V30 1593 N 150.766 -0.704594 1.40972 0
M  V30 1594 C 151.729 -1.80035 1.41845 0
M  V30 1595 C 152.729 -1.57774 0.310474 0
M  V30 1596 O 153.919 -1.64613 0.56992 0
M  V30 1597 C 151.051 -3.18284 1.22098 0
M  V30 1598 H 152.244 -1.80658 2.3938 0
M  V30 1599 H 149.797 -0.911329 1.26982 0
M  V30 1600 H 150.532 -3.23306 0.253672 0
M  V30 1601 H 150.317 -3.35843 2.02366 0
M  V30 1602 H 151.807 -3.98289 1.25522 0
M  V30 1603 N 152.244 -1.26651 -0.937939 0
M  V30 1604 C 153.174 -1.10993 -2.05433 0
M  V30 1605 C 154.155 -0.0142161 -1.70094 0
M  V30 1606 O 155.34 -0.186837 -1.93299 0
M  V30 1607 C 152.47 -0.745561 -3.39203 0
M  V30 1608 C 151.424 -1.79337 -3.88616 0
M  V30 1609 C 150.75 -1.28324 -5.19073 0
M  V30 1610 C 152.05 -3.19553 -4.13138 0
M  V30 1611 H 153.744 -2.0438 -2.1879 0
M  V30 1612 H 151.29 -0.984041 -1.05131 0
M  V30 1613 H 153.243 -0.622888 -4.16771 0
M  V30 1614 H 151.967 0.22401 -3.25831 0
M  V30 1615 H 150.626 -1.90477 -3.13231 0
M  V30 1616 H 150.274 -0.303414 -5.02084 0
M  V30 1617 H 149.974 -1.98369 -5.53103 0
M  V30 1618 H 151.498 -1.1733 -5.99221 0
M  V30 1619 H 152.912 -3.11471 -4.81309 0
M  V30 1620 H 151.309 -3.87218 -4.58457 0
M  V30 1621 H 152.379 -3.65368 -3.18801 0
M  V30 1622 N 153.722 1.14298 -1.08507 0
M  V30 1623 C 155.133 1.66926 -0.836227 0
M  V30 1624 C 155.484 1.85576 0.63686 0
M  V30 1625 O 154.609 1.56767 1.49175 0
M  V30 1626 C 155.204 3.03219 -1.51142 0
M  V30 1627 C 153.763 3.52876 -1.30979 0
M  V30 1628 C 152.91 2.2833 -1.57356 0
M  V30 1629 H 155.861 0.983491 -1.24552 0
M  V30 1630 H 155.882 3.68726 -0.939211 0
M  V30 1631 H 155.394 2.89612 -2.58353 0
M  V30 1632 H 153.495 3.71703 -0.258429 0
M  V30 1633 H 153.608 4.33586 -2.03814 0
M  V30 1634 H 151.972 2.34454 -0.995164 0
M  V30 1635 H 152.755 2.17298 -2.65775 0
M  V30 1636 N 155.201 0.870884 1.31352 0
M  V30 1637 C 156.617 0.562932 1.49343 0
M  V30 1638 C 156.817 -0.902725 1.80148 0
M  V30 1639 O 155.873 -1.68484 1.88067 0
M  V30 1640 C 157.186 1.46393 2.62659 0
M  V30 1641 C 158.734 1.46607 2.76542 0
M  V30 1642 C 159.209 2.35266 3.92955 0
M  V30 1643 N 160.7 2.33151 4.00243 0
M  V30 1644 C 161.435 2.98471 4.89594 0
M  V30 1645 N 160.931 3.72964 5.8384 0
M  V30 1646 N 162.724 2.87775 4.82848 0
M  V30 1647 H 154.875 1.81923 1.09626 0
M  V30 1648 H 157.138 0.777934 0.541777 0
M  V30 1649 H 156.844 2.50689 2.46674 0
M  V30 1650 H 156.718 1.16314 3.58819 0
M  V30 1651 H 159.105 0.43069 2.9194 0
M  V30 1652 H 159.186 1.8071 1.81046 0
M  V30 1653 H 158.83 3.38881 3.78315 0
M  V30 1654 H 158.76 1.98487 4.87761 0
M  V30 1655 H 161.251 1.79006 3.32814 0
M  V30 1656 H 161.564 4.19932 6.4875 0
M  V30 1657 H 159.909 3.77073 5.83816 0
M  V30 1658 H 163.1 2.29116 4.08195 0
M  V30 1659 H 163.273 3.38961 5.52277 0
M  V30 1660 N 156.679 -1.44442 0.630414 0
M  V30 1661 C 157.609 -2.33418 -0.0618083 0
M  V30 1662 C 158.59 -1.48165 -0.835541 0
M  V30 1663 O 159.775 -1.76886 -0.801564 0
M  V30 1664 C 156.905 -3.31222 -1.04449 0
M  V30 1665 C 155.859 -4.26288 -0.382436 0
M  V30 1666 C 155.185 -5.13954 -1.47497 0
M  V30 1667 C 156.485 -5.1744 0.710865 0
M  V30 1668 H 158.179 -2.91548 0.681184 0
M  V30 1669 H 155.725 -1.40191 0.329026 0
M  V30 1670 H 157.678 -3.92351 -1.53748 0
M  V30 1671 H 156.402 -2.71299 -1.81836 0
M  V30 1672 H 155.061 -3.6649 0.0899054 0
M  V30 1673 H 154.709 -4.50385 -2.2397 0
M  V30 1674 H 154.409 -5.7837 -1.03737 0
M  V30 1675 H 155.933 -5.77955 -1.96979 0
M  V30 1676 H 157.347 -5.72509 0.300996 0
M  V30 1677 H 155.744 -5.90455 1.07156 0
M  V30 1678 H 156.814 -4.58496 1.57829 0
M  V30 1679 N 158.157 -0.370918 -1.53173 0
M  V30 1680 C 159.406 0.218249 -2.00516 0
M  V30 1681 C 159.719 1.49429 -1.26215 0
M  V30 1682 O 160.925 2.16239 -1.64174 0
M  V30 1683 C 159.381 0.43948 -3.57207 0
M  V30 1684 C 158.989 -0.822244 -4.4039 0
M  V30 1685 C 160.733 0.986012 -4.1289 0
M  V30 1686 C 158.64 -0.570304 -5.88644 0
M  V30 1687 H 157.57 0.0853333 -0.749156 0
M  V30 1688 H 160.221 -0.490483 -1.76823 0
M  V30 1689 H 158.603 1.20961 -3.77074 0
M  V30 1690 H 159.777 -1.59557 -4.32294 0
M  V30 1691 H 158.092 -1.29238 -3.95836 0
M  V30 1692 H 160.689 1.18991 -5.21292 0
M  V30 1693 H 161.032 1.94972 -3.6782 0
M  V30 1694 H 161.565 0.27592 -3.96842 0
M  V30 1695 H 158.304 -1.50449 -6.38001 0
M  V30 1696 H 157.824 0.164427 -5.99575 0
M  V30 1697 H 159.503 -0.19784 -6.46697 0
M  V30 1698 N 159.635 1.57281 -0.100228 0
M  V30 1699 C 160.598 2.13158 0.842398 0
M  V30 1700 C 161.598 1.06202 1.20738 0
M  V30 1701 O 162.788 1.32066 1.13597 0
M  V30 1702 C 159.92 2.65639 2.13655 0
M  V30 1703 H 161.113 2.97766 0.357114 0
M  V30 1704 H 158.666 1.5559 0.148823 0
M  V30 1705 H 159.401 1.84566 2.66657 0
M  V30 1706 H 159.186 3.43844 1.88451 0
M  V30 1707 H 160.676 3.08846 2.81077 0
M  V30 1708 N 161.113 -0.173488 1.56642 0
M  V30 1709 C 162.36 -0.890465 1.81871 0
M  V30 1710 C 162.688 -1.82339 0.67696 0
M  V30 1711 O 161.943 -1.92795 -0.335926 0
M  V30 1712 C 162.242 -1.72069 3.13252 0
M  V30 1713 C 161.908 -0.936878 4.41059 0
M  V30 1714 C 160.57 -0.720545 4.75775 0
M  V30 1715 C 162.922 -0.386919 5.19762 0
M  V30 1716 C 160.25 0.0568829 5.86672 0
M  V30 1717 C 162.602 0.37741 6.31473 0
M  V30 1718 C 161.266 0.604563 6.64757 0
M  V30 1719 H 160.536 -0.325844 0.665512 0
M  V30 1720 H 163.183 -0.155527 1.90867 0
M  V30 1721 H 161.488 -2.52496 2.99588 0
M  V30 1722 H 163.185 -2.27844 3.29982 0
M  V30 1723 H 159.775 -1.11553 4.13828 0
M  V30 1724 H 163.959 -0.541398 4.93338 0
M  V30 1725 H 159.215 0.242635 6.10918 0
M  V30 1726 H 163.389 0.810825 6.91664 0
M  V30 1727 H 161.016 1.20885 7.50527 0
M  V30 1728 N 162.591 -1.51276 -0.441967 0
M  V30 1729 C 163.819 -1.67516 -1.21434 0
M  V30 1730 C 164.234 -0.37055 -1.85128 0
M  V30 1731 O 163.591 0.650498 -1.70513 0
M  V30 1732 C 163.642 -2.78748 -2.30177 0
M  V30 1733 O 163.363 -4.04154 -1.69089 0
M  V30 1734 C 164.864 -3.06217 -3.20541 0
M  V30 1735 H 162.084 -0.562276 -0.366178 0
M  V30 1736 H 164.628 -1.97666 -0.524244 0
M  V30 1737 H 162.783 -2.5121 -2.94911 0
M  V30 1738 H 163.197 -4.65894 -2.40922 0
M  V30 1739 H 164.671 -3.8764 -3.92987 0
M  V30 1740 H 165.148 -2.18439 -3.81026 0
M  V30 1741 H 165.754 -3.35397 -2.61513 0
M  V30 1742 N 164.069 0.697108 -1.41344 0
M  V30 1743 C 165.294 1.49096 -1.44171 0
M  V30 1744 C 165.719 1.88038 -0.0481568 0
M  V30 1745 O 165.077 1.54525 0.948243 0
M  V30 1746 C 165.125 2.73088 -2.3549 0
M  V30 1747 O 164.229 3.70514 -1.81088 0
M  V30 1748 H 163.57 0.448801 -0.489361 0
M  V30 1749 H 166.1 0.856992 -1.85787 0
M  V30 1750 H 166.11 3.21413 -2.51312 0
M  V30 1751 H 164.785 2.44081 -3.36745 0
M  V30 1752 H 163.362 3.29441 -1.74708 0
M  V30 1753 N 165.547 1.27147 0.931209 0
M  V30 1754 C 166.457 1.11372 2.06478 0
M  V30 1755 C 167.473 0.044645 1.73943 0
M  V30 1756 O 168.649 0.250417 1.99837 0
M  V30 1757 C 165.714 0.758838 3.38294 0
M  V30 1758 C 164.775 1.90841 3.84549 0
M  V30 1759 C 164.008 1.57036 5.10074 0
M  V30 1760 O 164.231 0.476645 5.68405 0
M  V30 1761 O 163.165 2.40839 5.51616 0
M  V30 1762 H 166.991 2.06493 2.22698 0
M  V30 1763 H 164.576 1.06301 1.04978 0
M  V30 1764 H 166.458 0.574098 4.17471 0
M  V30 1765 H 165.133 -0.162879 3.2329 0
M  V30 1766 H 164.04 2.14819 3.06274 0
M  V30 1767 H 165.373 2.81021 4.04089 0
M  V30 1768 N 167.025 -1.13721 1.09112 0
M  V30 1769 C 167.975 -2.17082 0.697091 0
M  V30 1770 C 168.959 -1.58321 -0.286923 0
M  V30 1771 O 170.151 -1.7673 -0.0978008 0
M  V30 1772 C 167.28 -3.43105 0.115729 0
M  V30 1773 C 166.366 -4.0888 1.12596 0
M  V30 1774 N 166.757 -4.4987 2.31195 0
M  V30 1775 C 165.055 -4.35471 0.963366 0
M  V30 1776 C 165.756 -5.01094 2.95431 0
M  V30 1777 N 164.732 -4.95751 2.23006 0
M  V30 1778 H 168.534 -2.46524 1.6001 0
M  V30 1779 H 166.048 -1.30481 0.966869 0
M  V30 1780 H 168.045 -4.16491 -0.184555 0
M  V30 1781 H 166.705 -3.15138 -0.78217 0
M  V30 1782 H 167.716 -4.42678 2.68806 0
M  V30 1783 H 164.393 -4.17328 0.119878 0
M  V30 1784 H 165.783 -5.4263 3.96236 0
M  V30 1785 N 168.503 -0.877838 -1.30888 0
M  V30 1786 C 169.728 -0.506629 -2.01117 0
M  V30 1787 C 170.153 0.895564 -1.65412 0
M  V30 1788 O 169.511 1.5923 -0.866922 0
M  V30 1789 C 169.559 -0.680223 -3.54126 0
M  V30 1790 O 168.663 0.277033 -4.11468 0
M  V30 1791 H 168.004 -0.200518 -0.633 0
M  V30 1792 H 170.534 -1.18342 -1.66902 0
M  V30 1793 H 170.544 -0.5765 -4.03907 0
M  V30 1794 H 169.219 -1.70261 -3.79452 0
M  V30 1795 H 167.796 0.127606 -3.72682 0
M  V30 1796 N 169.982 1.44106 -0.638065 0
M  V30 1797 C 170.932 2.27843 0.0847285 0
M  V30 1798 C 171.916 1.39055 0.809471 0
M  V30 1799 O 173.108 1.62808 0.694435 0
M  V30 1800 C 170.237 3.26497 1.06089 0
M  V30 1801 C 169.323 4.22772 0.33541 0
M  V30 1802 N 169.714 5.01737 -0.639787 0
M  V30 1803 C 168.012 4.42227 0.578921 0
M  V30 1804 C 168.713 5.71792 -1.06904 0
M  V30 1805 N 167.689 5.42079 -0.406395 0
M  V30 1806 H 171.491 2.86305 -0.663814 0
M  V30 1807 H 169.005 1.55627 -0.464122 0
M  V30 1808 H 171.002 3.8525 1.59337 0
M  V30 1809 H 169.662 2.69595 1.80966 0
M  V30 1810 H 170.673 5.07799 -1.01789 0
M  V30 1811 H 167.35 3.96415 1.31003 0
M  V30 1812 H 168.74 6.45205 -1.8751 0
M  V30 1813 N 171.46 0.379036 1.52974 0
M  V30 1814 C 172.707 -0.206421 2.01445 0
M  V30 1815 C 173.035 -1.47668 1.26587 0
M  V30 1816 O 172.29 -1.92514 0.351675 0
M  V30 1817 C 172.589 -0.53096 3.53434 0
M  V30 1818 C 172.255 0.646546 4.46241 0
M  V30 1819 C 170.917 0.969604 4.7133 0
M  V30 1820 C 173.269 1.43479 5.01062 0
M  V30 1821 C 170.597 2.08263 5.48492 0
M  V30 1822 C 172.949 2.53834 5.7944 0
M  V30 1823 C 171.613 2.86659 6.02812 0
M  V30 1824 H 170.883 -0.0755349 0.73714 0
M  V30 1825 H 173.53 0.514271 1.84465 0
M  V30 1826 H 171.835 -1.33285 3.68432 0
M  V30 1827 H 173.532 -0.996417 3.88423 0
M  V30 1828 H 170.122 0.384734 4.2687 0
M  V30 1829 H 174.306 1.19844 4.81613 0
M  V30 1830 H 169.562 2.34078 5.64816 0
M  V30 1831 H 173.736 3.15319 6.20924 0
M  V30 1832 H 171.363 3.73026 6.62387 0
M  V30 1833 N 172.938 -1.57226 0.108567 0
M  V30 1834 C 174.163 -1.99604 -0.563303 0
M  V30 1835 C 174.588 -0.987563 -1.6009 0
M  V30 1836 O 173.946 0.0421687 -1.81251 0
M  V30 1837 C 173.994 -3.40902 -1.17552 0
M  V30 1838 O 173.098 -3.42896 -2.2912 0
M  V30 1839 H 172.439 -0.648704 -0.1417 0
M  V30 1840 H 174.969 -2.03679 0.193961 0
M  V30 1841 H 174.979 -3.78886 -1.51357 0
M  V30 1842 H 173.654 -4.1382 -0.415445 0
M  V30 1843 H 172.231 -3.1672 -1.96832 0
M  V30 1844 N 174.416 0.165178 -1.56732 0
M  V30 1845 C 175.346 1.20651 -1.99914 0
M  V30 1846 C 176.327 1.45827 -0.875705 0
M  V30 1847 O 177.512 1.57057 -1.14223 0
M  V30 1848 C 174.642 2.54401 -2.36427 0
M  V30 1849 C 173.596 2.43782 -3.51787 0
M  V30 1850 C 172.922 3.82078 -3.7406 0
M  V30 1851 C 174.222 1.93732 -4.85041 0
M  V30 1852 H 175.916 0.847534 -2.87154 0
M  V30 1853 H 173.462 0.40625 -1.38151 0
M  V30 1854 H 175.415 3.27458 -2.65234 0
M  V30 1855 H 174.139 2.92098 -1.46103 0
M  V30 1856 H 172.798 1.73178 -3.23117 0
M  V30 1857 H 172.446 4.17179 -2.81017 0
M  V30 1858 H 172.146 3.7584 -4.51684 0
M  V30 1859 H 173.67 4.56712 -4.05274 0
M  V30 1860 H 175.084 2.56569 -5.12684 0
M  V30 1861 H 173.481 1.98428 -5.66345 0
M  V30 1862 H 174.551 0.891962 -4.76626 0
M  V30 1863 N 175.894 1.51508 0.433938 0
M  V30 1864 C 176.841 1.73068 1.52696 0
M  V30 1865 C 177.811 0.572441 1.55924 0
M  V30 1866 O 178.996 0.807253 1.72882 0
M  V30 1867 C 176.136 1.86474 2.90381 0
M  V30 1868 C 175.249 3.14037 2.96656 0
M  V30 1869 C 174.384 3.18019 4.25485 0
M  V30 1870 C 173.423 4.39882 4.2564 0
M  V30 1871 N 172.56 4.41394 5.45999 0
M  V30 1872 H 177.4 2.66366 1.33615 0
M  V30 1873 H 174.937 1.32008 0.649018 0
M  V30 1874 H 176.895 1.92229 3.70275 0
M  V30 1875 H 175.525 0.965809 3.08013 0
M  V30 1876 H 174.577 3.17575 2.09404 0
M  V30 1877 H 175.889 4.0394 2.92633 0
M  V30 1878 H 175.043 3.22708 5.13755 0
M  V30 1879 H 173.782 2.2601 4.3217 0
M  V30 1880 H 172.787 4.35366 3.35763 0
M  V30 1881 H 174.012 5.33159 4.20617 0
M  V30 1882 H 171.958 3.52258 5.53399 0
M  V30 1883 H 171.875 5.25111 5.4387 0
M  V30 1884 H 173.143 4.50281 6.36292 0
M  V30 1885 N 177.372 -0.689602 1.41712 0
M  V30 1886 C 178.319 -1.80345 1.44029 0
M  V30 1887 C 179.289 -1.63478 0.293948 0
M  V30 1888 O 180.474 -1.84244 0.495869 0
M  V30 1889 C 177.614 -3.18272 1.33405 0
M  V30 1890 C 176.727 -3.46529 2.57956 0
M  V30 1891 C 175.862 -4.74103 2.39582 0
M  V30 1892 C 174.901 -4.95347 3.5958 0
M  V30 1893 N 174.038 -6.14151 3.40239 0
M  V30 1894 H 178.878 -1.77698 2.39222 0
M  V30 1895 H 176.415 -0.867688 1.18784 0
M  V30 1896 H 178.373 -3.97956 1.25246 0
M  V30 1897 H 177.003 -3.2008 0.418164 0
M  V30 1898 H 176.055 -2.61207 2.76542 0
M  V30 1899 H 177.367 -3.58126 3.47199 0
M  V30 1900 H 176.521 -5.61853 2.28924 0
M  V30 1901 H 175.26 -4.64763 1.47805 0
M  V30 1902 H 174.265 -4.06044 3.70686 0
M  V30 1903 H 175.49 -5.06542 4.52318 0
M  V30 1904 H 173.436 -6.06013 2.51167 0
M  V30 1905 H 173.353 -6.26543 4.23061 0
M  V30 1906 H 174.621 -7.04619 3.33365 0
M  V30 1907 N 178.85 -1.27639 -0.924453 0
M  V30 1908 C 180.098 -1.13941 -1.66918 0
M  V30 1909 C 180.419 0.314589 -1.92446 0
M  V30 1910 O 179.689 1.21964 -1.53303 0
M  V30 1911 H 178.269 -0.418678 -0.618642 0
M  V30 1912 H 180.931 -1.60213 -1.10985 0
M  V30 1913 H 180.027 -1.67094 -2.63602 0
M  V30 1914 N 180.328 1.1314 -1.09713 0
M  V30 1915 C 181.291 2.16831 -0.742751 0
M  V30 1916 C 182.291 1.59159 0.229129 0
M  V30 1917 O 183.481 1.74199 0.00693237 0
M  V30 1918 C 180.613 3.40756 -0.0989168 0
M  V30 1919 H 181.806 2.49695 -1.66109 0
M  V30 1920 H 179.359 1.2802 -0.896699 0
M  V30 1921 H 180.094 3.13485 0.830514 0
M  V30 1922 H 179.879 3.83888 -0.798265 0
M  V30 1923 H 181.369 4.17386 0.133524 0
M  V30 1924 N 181.806 0.884767 1.30421 0
M  V30 1925 C 182.769 0.356277 2.26414 0
M  V30 1926 C 183.769 -0.501124 1.52792 0
M  V30 1927 O 184.959 -0.30831 1.7145 0
M  V30 1928 C 182.091 -0.492316 3.37326 0
M  V30 1929 H 183.284 1.20389 2.74675 0
M  V30 1930 H 180.837 0.661607 1.41607 0
M  V30 1931 H 181.572 -1.36052 2.94381 0
M  V30 1932 H 181.357 0.121832 3.91911 0
M  V30 1933 H 182.847 -0.853871 4.08777 0
M  V30 1934 N 183.284 -1.43765 0.645699 0
M  V30 1935 C 184.247 -2.29163 -0.0409488 0
M  V30 1936 C 185.247 -1.41813 -0.757996 0
M  V30 1937 O 186.437 -1.63527 -0.600382 0
M  V30 1938 C 183.569 -3.23716 -1.06869 0
M  V30 1939 H 184.762 -2.91366 0.710345 0
M  V30 1940 H 182.315 -1.5092 0.406547 0
M  V30 1941 H 183.05 -2.66393 -1.84947 0
M  V30 1942 H 182.835 -3.88105 -0.558277 0
M  V30 1943 H 184.325 -3.87831 -1.54845 0
M  V30 1944 N 184.763 -0.387143 -1.52771 0
M  V30 1945 C 185.693 0.440551 -2.29306 0
M  V30 1946 C 186.674 1.06535 -1.32606 0
M  V30 1947 O 187.859 1.07853 -1.61497 0
M  V30 1948 C 184.989 1.56919 -3.09829 0
M  V30 1949 C 183.943 1.07054 -4.14395 0
M  V30 1950 C 183.269 2.29109 -4.83129 0
M  V30 1951 C 184.569 0.140015 -5.22112 0
M  V30 1952 H 186.263 -0.198026 -2.98744 0
M  V30 1953 H 183.809 -0.09668 -1.43675 0
M  V30 1954 H 185.762 2.15503 -3.62128 0
M  V30 1955 H 184.486 2.23532 -2.3812 0
M  V30 1956 H 183.145 0.507247 -3.63074 0
M  V30 1957 H 182.793 2.94227 -4.0797 0
M  V30 1958 H 182.493 1.96406 -5.53804 0
M  V30 1959 H 184.017 2.88339 -5.38231 0
M  V30 1960 H 185.431 0.633978 -5.69784 0
M  V30 1961 H 183.828 -0.0971485 -6.00021 0
M  V30 1962 H 184.898 -0.811711 -4.78058 0
M  V30 1963 N 186.241 1.57166 -0.116904 0
M  V30 1964 C 187.489 1.94737 0.540533 0
M  V30 1965 C 187.81 1.00096 1.67349 0
M  V30 1966 O 187.08 0.0568854 1.95817 0
M  V30 1967 H 185.66 0.718981 0.202669 0
M  V30 1968 H 188.322 1.94017 -0.185353 0
M  V30 1969 H 187.418 2.97719 0.936483 0
M  V30 1970 N 187.719 -0.156864 1.56817 0
M  V30 1971 C 188.968 -0.869504 1.81996 0
M  V30 1972 C 189.281 -1.82777 0.696545 0
M  V30 1973 O 190.487 -2.58384 0.833658 0
M  V30 1974 C 188.943 -1.59679 3.22538 0
M  V30 1975 C 188.551 -0.681431 4.42787 0
M  V30 1976 C 190.295 -2.2968 3.56997 0
M  V30 1977 C 188.202 -1.40978 5.74351 0
M  V30 1978 H 187.132 -0.328438 0.678708 0
M  V30 1979 H 189.783 -0.1223 1.83092 0
M  V30 1980 H 188.165 -2.38927 3.158 0
M  V30 1981 H 189.339 0.0751166 4.60739 0
M  V30 1982 H 187.654 -0.0903431 4.16302 0
M  V30 1983 H 190.251 -2.84794 4.52544 0
M  V30 1984 H 190.594 -3.05707 2.82576 0
M  V30 1985 H 191.127 -1.57361 3.65352 0
M  V30 1986 H 187.866 -0.691561 6.51842 0
M  V30 1987 H 187.386 -2.13929 5.60352 0
M  V30 1988 H 189.065 -1.95337 6.16808 0
M  V30 1989 N 189.197 -1.51736 -0.425897 0
M  V30 1990 C 190.445 -1.64644 -1.17204 0
M  V30 1991 C 190.766 -0.370486 -1.91448 0
M  V30 1992 O 190.036 0.614088 -1.86026 0
M  V30 1993 H 188.616 -0.606819 -0.435638 0
M  V30 1994 H 191.278 -1.88713 -0.487177 0
M  V30 1995 H 190.374 -2.47958 -1.89534 0
M  V30 1996 N 190.675 0.682077 -1.42076 0
M  V30 1997 C 191.903 1.47057 -1.4554 0
M  V30 1998 C 192.318 1.8869 -0.0645779 0
M  V30 1999 O 191.675 1.57666 0.919115 0
M  V30 2000 C 191.726 2.72442 -2.37609 0
M  V30 2001 O 191.447 2.32559 -3.71279 0
M  V30 2002 C 192.948 3.66069 -2.50017 0
M  V30 2003 H 190.168 0.452737 -0.495248 0
M  V30 2004 H 192.712 0.838695 -1.8651 0
M  V30 2005 H 190.867 3.31835 -1.9991 0
M  V30 2006 H 191.281 3.13475 -4.20516 0
M  V30 2007 H 192.755 4.50792 -3.18576 0
M  V30 2008 H 193.232 4.11476 -1.53572 0
M  V30 2009 H 193.838 3.12572 -2.88407 0
M  V30 2010 N 192.153 1.28127 0.917671 0
M  V30 2011 C 193.43 1.05761 1.64542 0
M  V30 2012 C 193.81 -0.404344 2.07191 0
M  V30 2013 O 193.158 -1.38963 1.81388 0
M  V30 2014 C 193.368 2.02857 2.83989 0
M  V30 2015 C 194.716 2.32786 3.551 0
M  V30 2016 O 195.74 2.0091 2.94132 0
M  V30 2017 O 194.599 2.87169 4.64969 0
M  V30 2018 H 191.693 0.403916 0.721652 0
M  V30 2019 H 194.239 1.39431 0.967322 0
M  V30 2020 H 193.011 3.01407 2.49538 0
M  V30 2021 H 192.634 1.69809 3.59514 0
M  V30 2022 N 193.631 -1.12557 1.10312 0
M  V30 2023 C 194.856 -1.88405 0.867085 0
M  V30 2024 C 195.281 -1.79038 -0.576817 0
M  V30 2025 O 194.639 -1.14439 -1.40618 0
M  V30 2026 C 194.687 -3.3563 1.31851 0
M  V30 2027 O 193.791 -4.09565 0.482734 0
M  V30 2028 H 193.132 -0.585455 0.313271 0
M  V30 2029 H 195.662 -1.42352 1.4696 0
M  V30 2030 H 195.672 -3.86469 1.3079 0
M  V30 2031 H 194.347 -3.41765 2.37001 0
M  V30 2032 H 192.924 -3.68695 0.558448 0
M  V30 2033 N 195.109 -0.891671 -1.2995 0
M  V30 2034 C 196.355 -0.514261 -1.96171 0
M  V30 2035 C 196.688 0.935506 -1.70182 0
M  V30 2036 O 195.963 1.66204 -1.01028 0
M  V30 2037 C 196.246 -0.797719 -3.51153 0
M  V30 2038 C 196.099 -2.2986 -3.86632 0
M  V30 2039 C 197.418 -0.278749 -4.39216 0
M  V30 2040 H 194.537 -0.188314 -0.712535 0
M  V30 2041 H 197.179 -1.11689 -1.53706 0
M  V30 2042 H 195.329 -0.284826 -3.87455 0
M  V30 2043 H 197.001 -2.88042 -3.60319 0
M  V30 2044 H 195.244 -2.76257 -3.34462 0
M  V30 2045 H 195.915 -2.44753 -4.94773 0
M  V30 2046 H 198.391 -0.717825 -4.09862 0
M  V30 2047 H 197.267 -0.506353 -5.46559 0
M  V30 2048 H 197.528 0.820266 -4.34424 0
M  V30 2049 N 196.587 1.43421 -0.653314 0
M  V30 2050 C 197.836 2.01032 -0.164076 0
M  V30 2051 C 198.149 1.52147 1.22926 0
M  V30 2052 O 199.355 2.02031 1.81371 0
M  V30 2053 C 197.811 3.59082 -0.24252 0
M  V30 2054 C 197.419 4.1696 -1.63855 0
M  V30 2055 C 199.163 4.24079 0.18911 0
M  V30 2056 C 197.07 5.67304 -1.67092 0
M  V30 2057 H 196 0.751798 -0.0575769 0
M  V30 2058 H 198.651 1.6439 -0.815362 0
M  V30 2059 H 197.033 3.93125 0.476276 0
M  V30 2060 H 198.207 3.94416 -2.38271 0
M  V30 2061 H 196.522 3.64335 -2.01616 0
M  V30 2062 H 199.119 5.34381 0.184775 0
M  V30 2063 H 199.462 3.98005 1.22056 0
M  V30 2064 H 199.995 3.94918 -0.477938 0
M  V30 2065 H 196.734 5.98145 -2.68146 0
M  V30 2066 H 196.254 5.91904 -0.970014 0
M  V30 2067 H 197.933 6.31344 -1.4147 0
M  V30 2068 N 198.065 0.39524 1.52563 0
M  V30 2069 C 198.995 -0.428384 2.29537 0
M  V30 2070 C 199.976 -1.05831 1.33169 0
M  V30 2071 O 201.161 -1.06995 1.62067 0
M  V30 2072 C 198.291 -1.55274 3.10656 0
M  V30 2073 C 197.245 -1.04855 4.14957 0
M  V30 2074 C 196.571 -2.26543 4.84337 0
M  V30 2075 C 197.871 -0.112324 5.22179 0
M  V30 2076 H 199.565 0.213867 2.98635 0
M  V30 2077 H 197.111 0.104298 1.43622 0
M  V30 2078 H 199.064 -2.1358 3.63265 0
M  V30 2079 H 197.788 -2.22266 2.39302 0
M  V30 2080 H 196.447 -0.487985 3.63338 0
M  V30 2081 H 196.095 -2.92059 4.09525 0
M  V30 2082 H 195.795 -1.93466 5.54837 0
M  V30 2083 H 197.319 -2.85481 5.39753 0
M  V30 2084 H 198.733 -0.603752 5.70112 0
M  V30 2085 H 197.13 0.128968 5.99961 0
M  V30 2086 H 198.2 0.837052 4.77621 0
M  V30 2087 N 199.544 -1.57102 0.125237 0
M  V30 2088 C 200.793 -1.94582 -0.531095 0
M  V30 2089 C 201.106 -1.01126 -1.6743 0
M  V30 2090 O 202.312 -1.28097 -2.39381 0
M  V30 2091 C 200.768 -3.45839 -0.996164 0
M  V30 2092 C 200.376 -4.47842 0.118926 0
M  V30 2093 C 202.12 -3.92227 -1.62352 0
M  V30 2094 C 200.027 -5.90284 -0.363192 0
M  V30 2095 H 198.957 -0.726391 -0.20217 0
M  V30 2096 H 201.608 -1.82339 0.206092 0
M  V30 2097 H 199.99 -3.53338 -1.78796 0
M  V30 2098 H 201.164 -4.52018 0.895358 0
M  V30 2099 H 199.479 -4.11243 0.653324 0
M  V30 2100 H 202.076 -4.96069 -1.99548 0
M  V30 2101 H 202.419 -3.32552 -2.50429 0
M  V30 2102 H 202.952 -3.87554 -0.897019 0
M  V30 2103 H 199.691 -6.53728 0.481679 0
M  V30 2104 H 199.211 -5.89515 -1.10597 0
M  V30 2105 H 200.89 -6.41752 -0.822377 0
M  V30 2106 N 201.022 0.148545 -1.56898 0
M  V30 2107 C 201.969 1.18345 -1.98149 0
M  V30 2108 C 202.939 1.42772 -0.848848 0
M  V30 2109 O 204.124 1.55132 -1.11079 0
M  V30 2110 C 201.264 2.51231 -2.36594 0
M  V30 2111 C 200.377 2.33991 -3.63142 0
M  V30 2112 C 199.512 3.59902 -3.90697 0
M  V30 2113 C 198.551 3.37692 -5.1052 0
M  V30 2114 N 197.688 4.5573 -5.34092 0
M  V30 2115 H 202.528 0.82467 -2.86362 0
M  V30 2116 H 200.065 0.395756 -1.41676 0
M  V30 2117 H 202.023 3.28713 -2.56912 0
M  V30 2118 H 200.653 2.85059 -1.51463 0
M  V30 2119 H 199.705 1.47572 -3.50609 0
M  V30 2120 H 201.017 2.13539 -4.5078 0
M  V30 2121 H 200.171 4.45813 -4.11505 0
M  V30 2122 H 198.91 3.83357 -3.01477 0
M  V30 2123 H 197.915 2.5017 -4.89587 0
M  V30 2124 H 199.14 3.15637 -6.0129 0
M  V30 2125 H 197.086 4.79361 -4.47827 0
M  V30 2126 H 197.003 4.38274 -6.15996 0
M  V30 2127 H 198.271 5.42858 -5.59397 0
M  V30 2128 N 202.5 1.5196 0.417844 0
M  V30 2129 C 203.74 1.67262 1.17486 0
M  V30 2130 C 204.104 0.38983 1.88001 0
M  V30 2131 O 205.305 0.418845 2.65517 0
M  V30 2132 C 203.576 2.85526 2.14965 0
M  V30 2133 S 205.135 3.21263 2.98891 0
M  V30 2134 H 201.953 0.589077 0.398132 0
M  V30 2135 H 204.555 1.89927 0.463452 0
M  V30 2136 H 203.259 3.77145 1.61833 0
M  V30 2137 H 202.79 2.65107 2.90657 0
M  V30 2138 H 204.805 2.69208 4.16823 0
M  V30 2139 N 203.978 -0.674533 1.42435 0
M  V30 2140 C 205.255 -1.4305 1.33402 0
M  V30 2141 C 205.635 -2.11081 -0.0284674 0
M  V30 2142 O 204.983 -2.03257 -1.04397 0
M  V30 2143 C 205.193 -2.43272 2.50239 0
M  V30 2144 C 206.541 -3.07907 2.92367 0
M  V30 2145 O 207.565 -2.53599 2.50132 0
M  V30 2146 O 206.424 -4.0632 3.65467 0
M  V30 2147 H 203.518 -0.638076 0.526106 0
M  V30 2148 H 206.064 -0.703235 1.54443 0
M  V30 2149 H 204.836 -1.91803 3.41068 0
M  V30 2150 H 204.459 -3.23479 2.31186 0
M  V30 2151 N 205.456 -1.28612 -0.910864 0
M  V30 2152 C 206.366 -1.14643 -2.0468 0
M  V30 2153 C 207.382 -0.0723121 -1.7385 0
M  V30 2154 O 208.558 -0.282178 -1.99413 0
M  V30 2155 C 205.623 -0.812561 -3.37044 0
M  V30 2156 C 204.684 -1.96935 -3.81465 0
M  V30 2157 C 203.917 -1.65131 -5.07511 0
M  V30 2158 O 204.14 -0.567013 -5.67575 0
M  V30 2159 O 203.074 -2.49585 -5.47714 0
M  V30 2160 H 206.9 -2.1001 -2.19384 0
M  V30 2161 H 204.485 -1.07958 -1.03274 0
M  V30 2162 H 206.367 -0.640441 -4.16505 0
M  V30 2163 H 205.042 0.111426 -3.23508 0
M  V30 2164 H 203.949 -2.19664 -3.02818 0
M  V30 2165 H 205.282 -2.87414 -3.99567 0
M  V30 2166 N 206.934 1.1197 -1.10907 0
M  V30 2167 C 208.35 1.35591 -0.841852 0
M  V30 2168 C 208.55 1.94233 0.536246 0
M  V30 2169 O 207.606 2.1717 1.28816 0
M  V30 2170 C 208.919 2.29284 -1.94549 0
M  V30 2171 C 210.467 2.42862 -1.97451 0
M  V30 2172 C 210.942 3.39873 -3.07002 0
M  V30 2173 N 212.433 3.47433 -3.06341 0
M  V30 2174 C 213.168 4.22421 -3.87748 0
M  V30 2175 N 212.664 5.00432 -4.79103 0
M  V30 2176 N 214.457 4.17876 -3.75946 0
M  V30 2177 H 206.608 0.722664 -1.99728 0
M  V30 2178 H 208.871 0.380635 -0.868229 0
M  V30 2179 H 208.577 1.93378 -2.93765 0
M  V30 2180 H 208.451 3.29452 -1.83688 0
M  V30 2181 H 210.838 2.78046 -0.988645 0
M  V30 2182 H 210.919 1.42566 -2.12388 0
M  V30 2183 H 210.563 3.05417 -4.05811 0
M  V30 2184 H 210.493 4.40011 -2.89306 0
M  V30 2185 H 212.984 2.91784 -2.40147 0
M  V30 2186 H 213.297 5.55002 -5.37766 0
M  V30 2187 H 211.642 4.99612 -4.83128 0
M  V30 2188 H 214.833 3.56016 -3.03924 0
M  V30 2189 H 215.006 4.76061 -4.39624 0
M  V30 2190 N 208.412 0.89855 1.29475 0
M  V30 2191 C 209.66 0.522847 1.9522 0
M  V30 2192 C 209.981 -0.93371 1.71192 0
M  V30 2193 O 209.251 -1.65823 1.04305 0
M  V30 2194 H 207.831 0.190366 0.722336 0
M  V30 2195 H 210.493 1.14459 1.5775 0
M  V30 2196 H 209.589 0.704476 3.04045 0
M  V30 2197 N 209.89 -1.43072 0.660911 0
M  V30 2198 C 210.837 -2.30785 -0.0259884 0
M  V30 2199 C 211.807 -1.45184 -0.806888 0
M  V30 2200 O 212.992 -1.74041 -0.781943 0
M  V30 2201 C 210.132 -3.30861 -0.981067 0
M  V30 2202 C 209.245 -4.31558 -0.195458 0
M  V30 2203 C 208.38 -5.18712 -1.14503 0
M  V30 2204 C 207.419 -6.11097 -0.350299 0
M  V30 2205 N 206.556 -6.90849 -1.25186 0
M  V30 2206 H 211.396 -2.88975 0.727846 0
M  V30 2207 H 208.933 -1.42353 0.370682 0
M  V30 2208 H 210.891 -3.87399 -1.54849 0
M  V30 2209 H 209.521 -2.74304 -1.70169 0
M  V30 2210 H 208.573 -3.77252 0.488374 0
M  V30 2211 H 209.885 -4.9701 0.422176 0
M  V30 2212 H 209.039 -5.79914 -1.78284 0
M  V30 2213 H 207.778 -4.53404 -1.79656 0
M  V30 2214 H 206.783 -5.48976 0.300808 0
M  V30 2215 H 208.008 -6.7845 0.296941 0
M  V30 2216 H 205.954 -6.28182 -1.89005 0
M  V30 2217 H 205.871 -7.52854 -0.688971 0
M  V30 2218 H 207.139 -7.5655 -1.87757 0
M  V30 2219 N 211.368 -0.403325 -1.52352 0
M  V30 2220 C 212.301 0.469463 -2.23319 0
M  V30 2221 C 213.279 1.05272 -1.23922 0
M  V30 2222 O 214.463 1.10169 -1.52954 0
M  V30 2223 C 211.59 1.6511 -2.9573 0
M  V30 2224 C 210.636 1.19178 -4.0951 0
M  V30 2225 S 211.469 0.161718 -5.35256 0
M  V30 2226 C 212.625 1.34882 -6.11194 0
M  V30 2227 H 212.858 -0.133134 -2.97002 0
M  V30 2228 H 210.391 -0.187588 -1.53256 0
M  V30 2229 H 212.349 2.3287 -3.38056 0
M  V30 2230 H 211.01 2.22503 -2.21701 0
M  V30 2231 H 210.203 2.07444 -4.59329 0
M  V30 2232 H 209.805 0.592911 -3.6927 0
M  V30 2233 H 212.097 2.27345 -6.38217 0
M  V30 2234 H 213.04 0.89128 -7.02468 0
M  V30 2235 H 213.448 1.57198 -5.42171 0
M  V30 2236 N 212.846 1.57033 -0.133567 0
M  V30 2237 C 214.095 1.94861 0.520768 0
M  V30 2238 C 214.408 1.02012 1.66892 0
M  V30 2239 O 215.614 1.29365 2.38699 0
M  V30 2240 C 214.07 3.46362 0.977809 0
M  V30 2241 C 213.678 4.47773 -0.142674 0
M  V30 2242 C 215.422 3.93083 1.60269 0
M  V30 2243 C 213.329 5.90468 0.331883 0
M  V30 2244 H 212.259 0.727453 0.198315 0
M  V30 2245 H 214.91 1.82227 -0.215759 0
M  V30 2246 H 213.292 3.54282 1.7692 0
M  V30 2247 H 214.466 4.51536 -0.919317 0
M  V30 2248 H 212.781 4.10891 -0.675124 0
M  V30 2249 H 215.378 4.97121 1.96914 0
M  V30 2250 H 215.721 3.33876 2.48662 0
M  V30 2251 H 216.254 3.88025 0.876453 0
M  V30 2252 H 212.993 6.53463 -0.516341 0
M  V30 2253 H 212.513 5.90094 1.07469 0
M  V30 2254 H 214.192 6.42179 0.788332 0
M  V30 2255 N 214.325 -0.140222 1.56975 0
M  V30 2256 C 215.736 -0.699596 1.73097 0
M  V30 2257 C 216.087 -1.8134 0.749022 0
M  V30 2258 O 215.212 -2.16241 -0.0828503 0
M  V30 2259 C 215.807 -1.27582 3.1386 0
M  V30 2260 C 214.366 -1.78169 3.31561 0
M  V30 2261 C 213.513 -0.672855 2.69013 0
M  V30 2262 H 216.464 0.0855115 1.58469 0
M  V30 2263 H 216.485 -2.14561 3.14235 0
M  V30 2264 H 215.997 -0.464955 3.85305 0
M  V30 2265 H 214.098 -2.61801 2.65124 0
M  V30 2266 H 214.211 -1.90574 4.39566 0
M  V30 2267 H 212.575 -1.10118 2.29665 0
M  V30 2268 H 213.358 0.126679 3.43066 0
M  V30 2269 N 215.803 -1.52179 -0.40978 0
M  V30 2270 C 217.028 -1.70347 -1.18308 0
M  V30 2271 C 217.453 -0.411887 -1.83535 0
M  V30 2272 O 216.811 0.630587 -1.6998 0
M  V30 2273 C 216.859 -2.83977 -2.22238 0
M  V30 2274 O 215.963 -2.495 -3.28365 0
M  V30 2275 H 215.304 -0.567103 -0.345384 0
M  V30 2276 H 217.834 -1.98879 -0.480445 0
M  V30 2277 H 217.844 -3.0887 -2.66577 0
M  V30 2278 H 216.519 -3.77685 -1.74146 0
M  V30 2279 H 215.096 -2.35277 -2.89308 0
M  V30 2280 N 217.281 0.66697 -1.42791 0
M  V30 2281 C 218.558 1.4234 -1.34159 0
M  V30 2282 C 218.938 2.11093 0.0172729 0
M  V30 2283 O 218.286 2.03808 1.03318 0
M  V30 2284 C 218.496 2.41942 -2.51526 0
M  V30 2285 C 219.844 3.06353 -2.93995 0
M  V30 2286 O 220.868 2.52269 -2.51473 0
M  V30 2287 O 219.727 4.04376 -3.67617 0
M  V30 2288 H 216.821 0.635277 -0.529483 0
M  V30 2289 H 219.367 0.695034 -1.54814 0
M  V30 2290 H 218.139 1.89991 -3.42081 0
M  V30 2291 H 217.762 3.22249 -2.32898 0
M  V30 2292 N 218.759 1.29093 0.90403 0
M  V30 2293 C 219.689 1.16401 2.02418 0
M  V30 2294 C 220.67 0.0593085 1.69997 0
M  V30 2295 O 221.855 0.238021 1.92736 0
M  V30 2296 C 218.985 0.835233 3.37107 0
M  V30 2297 C 217.939 1.89578 3.83724 0
M  V30 2298 C 217.265 1.42041 5.15489 0
M  V30 2299 C 218.565 3.30394 4.04521 0
M  V30 2300 H 220.259 2.10109 2.13295 0
M  V30 2301 H 217.805 1.01157 1.02486 0
M  V30 2302 H 219.758 0.733169 4.14973 0
M  V30 2303 H 218.482 -0.137543 3.2631 0
M  V30 2304 H 217.141 1.98715 3.08071 0
M  V30 2305 H 216.789 0.436426 5.01103 0
M  V30 2306 H 216.489 2.12964 5.4765 0
M  V30 2307 H 218.013 1.33176 5.959 0
M  V30 2308 H 219.427 3.24123 4.72882 0
M  V30 2309 H 217.824 3.99237 4.48029 0
M  V30 2310 H 218.894 3.73692 3.09002 0
M  V30 2311 N 220.237 -1.11381 1.11499 0
M  V30 2312 C 221.147 -2.21019 0.786628 0
M  V30 2313 C 222.163 -1.72597 -0.220507 0
M  V30 2314 O 223.339 -2.01321 -0.0565251 0
M  V30 2315 C 220.404 -3.459 0.235333 0
M  V30 2316 C 219.465 -4.09107 1.30115 0
M  V30 2317 C 218.698 -5.28027 0.776068 0
M  V30 2318 O 218.921 -5.6904 -0.393661 0
M  V30 2319 O 217.855 -5.81835 1.54114 0
M  V30 2320 H 221.681 -2.51521 1.70209 0
M  V30 2321 H 219.266 -1.19928 0.890928 0
M  V30 2322 H 221.148 -4.21346 -0.067715 0
M  V30 2323 H 219.823 -3.17049 -0.652828 0
M  V30 2324 H 218.73 -3.35391 1.65722 0
M  V30 2325 H 220.063 -4.42139 2.16273 0
M  V30 2326 N 221.715 -0.905404 -1.28997 0
M  V30 2327 C 223.131 -0.60233 -1.47798 0
M  V30 2328 C 223.331 0.854645 -1.82478 0
M  V30 2329 O 222.387 1.63439 -1.92468 0
M  V30 2330 C 223.7 -1.53306 -2.58685 0
M  V30 2331 C 225.248 -1.53887 -2.72558 0
M  V30 2332 C 225.723 -2.45602 -3.86579 0
M  V30 2333 N 227.214 -2.43681 -3.93921 0
M  V30 2334 C 227.949 -3.11347 -4.81509 0
M  V30 2335 N 227.445 -3.88313 -5.73746 0
M  V30 2336 N 229.238 -3.00476 -4.75048 0
M  V30 2337 H 221.389 -1.84765 -1.04764 0
M  V30 2338 H 223.652 -0.792025 -0.520961 0
M  V30 2339 H 223.358 -2.57141 -2.39941 0
M  V30 2340 H 223.232 -1.25787 -3.55609 0
M  V30 2341 H 225.619 -0.507941 -2.90696 0
M  V30 2342 H 225.7 -1.85447 -1.76191 0
M  V30 2343 H 225.344 -3.48792 -3.69197 0
M  V30 2344 H 225.274 -2.11349 -4.82327 0
M  V30 2345 H 227.765 -1.87767 -3.27951 0
M  V30 2346 H 228.078 -4.36985 -6.37389 0
M  V30 2347 H 226.423 -3.92419 -5.73614 0
M  V30 2348 H 229.614 -2.39858 -4.01977 0
M  V30 2349 H 229.787 -3.53485 -5.43095 0
M  V30 2350 N 223.193 1.4272 -0.668489 0
M  V30 2351 C 224.609 1.55992 -0.33745 0
M  V30 2352 C 224.809 1.64933 1.15756 0
M  V30 2353 O 223.865 1.61278 1.94282 0
M  V30 2354 C 225.178 2.81314 -1.06222 0
M  V30 2355 C 226.726 2.95078 -1.04394 0
M  V30 2356 C 227.201 4.23252 -1.74991 0
M  V30 2357 N 228.692 4.3015 -1.71829 0
M  V30 2358 C 229.427 5.28127 -2.23315 0
M  V30 2359 N 228.923 6.32293 -2.83156 0
M  V30 2360 N 230.716 5.19882 -2.13726 0
M  V30 2361 H 222.867 1.3516 -1.63846 0
M  V30 2362 H 225.13 0.650174 -0.689912 0
M  V30 2363 H 224.836 2.80823 -2.11734 0
M  V30 2364 H 224.71 3.72012 -0.62344 0
M  V30 2365 H 227.097 2.951 0.0028244 0
M  V30 2366 H 227.178 2.05627 -1.52155 0
M  V30 2367 H 226.822 4.2399 -2.79633 0
M  V30 2368 H 226.752 5.11626 -1.24685 0
M  V30 2369 H 229.243 3.55499 -1.28175 0
M  V30 2370 H 229.556 7.03398 -3.20079 0
M  V30 2371 H 227.901 6.32873 -2.87223 0
M  V30 2372 H 231.092 4.37423 -1.66669 0
M  V30 2373 H 231.265 5.96077 -2.54158 0
M  V30 2374 N 224.671 0.411399 1.52136 0
M  V30 2375 C 225.92 -0.165009 2.01024 0
M  V30 2376 C 226.233 -1.4603 1.30133 0
M  V30 2377 O 227.439 -2.1181 1.69849 0
M  V30 2378 C 225.895 -0.344618 3.58246 0
M  V30 2379 C 225.503 0.938716 4.38055 0
M  V30 2380 C 227.247 -0.876195 4.15359 0
M  V30 2381 C 225.154 0.726172 5.86925 0
M  V30 2382 H 224.084 -0.0654407 0.751155 0
M  V30 2383 H 226.735 0.537192 1.75461 0
M  V30 2384 H 225.117 -1.10921 3.80148 0
M  V30 2385 H 226.291 1.70963 4.27912 0
M  V30 2386 H 224.606 1.39688 3.92271 0
M  V30 2387 H 227.203 -1.05128 5.24263 0
M  V30 2388 H 227.546 -1.85152 3.7286 0
M  V30 2389 H 228.079 -0.170607 3.97434 0
M  V30 2390 H 224.818 1.67312 6.33788 0
M  V30 2391 H 224.338 -0.00540283 5.998 0
M  V30 2392 H 226.017 0.369231 6.45946 0
M  V30 2393 N 226.149 -1.5696 0.141893 0
M  V30 2394 C 227.079 -2.19516 -0.795936 0
M  V30 2395 C 228.06 -1.14187 -1.26077 0
M  V30 2396 O 229.245 -1.42511 -1.31925 0
M  V30 2397 C 226.375 -2.81272 -2.03723 0
M  V30 2398 C 225.329 -3.92384 -1.70936 0
M  V30 2399 C 224.655 -4.41052 -3.02287 0
M  V30 2400 C 225.955 -5.13403 -0.959954 0
M  V30 2401 H 227.649 -2.98138 -0.274596 0
M  V30 2402 H 225.195 -1.43406 -0.130636 0
M  V30 2403 H 227.148 -3.237 -2.69808 0
M  V30 2404 H 225.872 -1.99973 -2.58221 0
M  V30 2405 H 224.531 -3.50566 -1.07232 0
M  V30 2406 H 224.179 -3.56582 -3.54765 0
M  V30 2407 H 223.879 -5.15993 -2.81114 0
M  V30 2408 H 225.403 -4.86146 -3.69451 0
M  V30 2409 H 226.817 -5.52706 -1.52279 0
M  V30 2410 H 225.214 -5.94073 -0.848357 0
M  V30 2411 H 226.284 -4.84875 0.0492434 0
M  V30 2412 N 227.627 0.131896 -1.57047 0
M  V30 2413 C 228.537 1.1815 -2.02676 0
M  V30 2414 C 229.553 1.46113 -0.944824 0
M  V30 2415 O 230.729 1.57485 -1.25541 0
M  V30 2416 C 227.794 2.49139 -2.41103 0
M  V30 2417 C 226.855 2.28688 -3.63318 0
M  V30 2418 C 226.088 3.53431 -3.99903 0
M  V30 2419 O 226.311 4.60223 -3.36973 0
M  V30 2420 O 225.245 3.45198 -4.93074 0
M  V30 2421 H 229.071 0.824069 -2.92306 0
M  V30 2422 H 226.656 0.341745 -1.45439 0
M  V30 2423 H 228.538 3.26338 -2.66611 0
M  V30 2424 H 227.213 2.84382 -1.54624 0
M  V30 2425 H 226.12 1.4939 -3.42977 0
M  V30 2426 H 227.453 1.98355 -4.50462 0
M  V30 2427 N 229.106 1.52395 0.401703 0
M  V30 2428 C 230.069 1.75636 1.47257 0
M  V30 2429 C 231.069 0.62628 1.48103 0
M  V30 2430 O 232.259 0.894227 1.49497 0
M  V30 2431 C 229.391 1.84553 2.86624 0
M  V30 2432 H 230.584 2.71241 1.27938 0
M  V30 2433 H 228.137 1.42923 0.632662 0
M  V30 2434 H 228.872 0.908882 3.11303 0
M  V30 2435 H 228.657 2.66715 2.87412 0
M  V30 2436 H 230.147 2.04251 3.64241 0
M  V30 2437 N 230.584 -0.659388 1.43143 0
M  V30 2438 C 231.531 -1.77249 1.47822 0
M  V30 2439 C 232.501 -1.62818 0.328558 0
M  V30 2440 O 233.686 -1.83151 0.534838 0
M  V30 2441 C 230.826 -3.15371 1.40126 0
M  V30 2442 C 229.939 -3.4098 2.65249 0
M  V30 2443 C 229.074 -4.68915 2.49584 0
M  V30 2444 C 228.113 -4.87608 3.70006 0
M  V30 2445 N 227.25 -6.06796 3.53189 0
M  V30 2446 H 232.09 -1.72584 2.42938 0
M  V30 2447 H 229.627 -0.842297 1.20598 0
M  V30 2448 H 231.585 -3.9521 1.33659 0
M  V30 2449 H 230.215 -3.19121 0.485964 0
M  V30 2450 H 229.267 -2.55282 2.8202 0
M  V30 2451 H 230.579 -3.50681 3.54717 0
M  V30 2452 H 229.733 -5.56871 2.4079 0
M  V30 2453 H 228.472 -4.61524 1.5763 0
M  V30 2454 H 227.477 -3.9809 3.79215 0
M  V30 2455 H 228.702 -4.96834 4.62961 0
M  V30 2456 H 226.648 -6.00549 2.63965 0
M  V30 2457 H 226.565 -6.17428 4.36255 0
M  V30 2458 H 227.833 -6.9739 3.48236 0
M  V30 2459 N 232.062 -1.29571 -0.897171 0
M  V30 2460 C 232.994 -1.10724 -2.00681 0
M  V30 2461 C 234.007 -0.0540026 -1.6271 0
M  V30 2462 O 235.196 -0.298783 -1.75982 0
M  V30 2463 C 232.296 -0.663912 -3.32333 0
M  V30 2464 C 231.469 -1.79622 -3.98816 0
M  V30 2465 C 230.528 -1.34349 -5.0876 0
M  V30 2466 O 229.554 -2.04864 -5.31055 0
M  V30 2467 N 230.756 -0.215764 -5.80099 0
M  V30 2468 H 233.521 -2.06291 -2.17403 0
M  V30 2469 H 231.082 -1.21544 -1.06951 0
M  V30 2470 H 233.074 -0.344295 -4.03233 0
M  V30 2471 H 231.644 0.199375 -3.11964 0
M  V30 2472 H 230.864 -2.28459 -3.21248 0
M  V30 2473 H 232.152 -2.55535 -4.39976 0
M  V30 2474 H 231.55 0.372091 -5.64475 0
M  V30 2475 H 230.107 0.0444707 -6.51785 0
M  V30 2476 N 233.54 1.10788 -1.12088 0
M  V30 2477 C 234.487 2.17025 -0.785407 0
M  V30 2478 C 235.457 1.64265 0.246191 0
M  V30 2479 O 236.642 1.90412 0.121584 0
M  V30 2480 C 233.782 3.44249 -0.242177 0
M  V30 2481 C 232.895 4.1098 -1.33115 0
M  V30 2482 C 232.03 5.25911 -0.747741 0
M  V30 2483 C 231.069 5.84538 -1.81609 0
M  V30 2484 N 230.206 6.90853 -1.25167 0
M  V30 2485 H 235.046 2.45066 -1.69548 0
M  V30 2486 H 232.583 1.20297 -0.846582 0
M  V30 2487 H 234.541 4.17101 0.0908026 0
M  V30 2488 H 233.171 3.16571 0.631072 0
M  V30 2489 H 232.223 3.36133 -1.78097 0
M  V30 2490 H 233.535 4.50601 -2.13917 0
M  V30 2491 H 232.689 6.056 -0.365216 0
M  V30 2492 H 231.428 4.87614 0.0915188 0
M  V30 2493 H 230.433 5.03522 -2.20785 0
M  V30 2494 H 231.658 6.249 -2.6585 0
M  V30 2495 H 229.604 6.54562 -0.434174 0
M  V30 2496 H 229.521 7.29166 -1.99633 0
M  V30 2497 H 230.789 7.7433 -0.896259 0
M  V30 2498 N 235.018 0.912232 1.28515 0
M  V30 2499 C 236.266 0.543523 1.94654 0
M  V30 2500 C 236.587 -0.9155 1.72173 0
M  V30 2501 O 235.857 -1.64708 1.06058 0
M  V30 2502 H 234.437 0.198017 0.720277 0
M  V30 2503 H 237.099 1.16126 1.56527 0
M  V30 2504 H 236.195 0.736684 3.03281 0
M  V30 2505 N 236.496 -1.42363 0.676048 0
M  V30 2506 C 237.743 -2.01522 0.19883 0
M  V30 2507 C 238.071 -1.53456 -1.19505 0
M  V30 2508 O 237.326 -0.727967 -1.81657 0
M  V30 2509 C 237.625 -3.56929 0.183431 0
M  V30 2510 C 237.291 -4.24431 1.52215 0
M  V30 2511 C 235.953 -4.42585 1.8887 0
M  V30 2512 C 238.305 -4.62459 2.40377 0
M  V30 2513 C 235.633 -4.96039 3.13309 0
M  V30 2514 C 237.985 -5.17294 3.64129 0
M  V30 2515 C 236.649 -5.33661 4.00951 0
M  V30 2516 H 235.919 -0.737419 0.0727571 0
M  V30 2517 H 238.566 -1.70531 0.871281 0
M  V30 2518 H 236.871 -3.87594 -0.572532 0
M  V30 2519 H 238.568 -4.00486 -0.203035 0
M  V30 2520 H 235.158 -4.10661 1.22701 0
M  V30 2521 H 239.342 -4.48105 2.13343 0
M  V30 2522 H 234.598 -5.06896 3.41857 0
M  V30 2523 H 238.772 -5.45704 4.32644 0
M  V30 2524 H 236.399 -5.74845 4.9745 0
M  V30 2525 N 237.974 -0.419461 -1.51915 0
M  V30 2526 C 239.22 0.153166 -2.02221 0
M  V30 2527 C 239.553 1.43907 -1.30401 0
M  V30 2528 O 238.828 1.90055 -0.413438 0
M  V30 2529 C 239.111 0.390291 -3.57979 0
M  V30 2530 C 238.964 -0.913014 -4.40436 0
M  V30 2531 C 240.283 1.16794 -4.2432 0
M  V30 2532 H 237.402 0.0541924 -0.735005 0
M  V30 2533 H 240.044 -0.554955 -1.81715 0
M  V30 2534 H 238.194 0.993491 -3.75582 0
M  V30 2535 H 239.866 -1.54882 -4.34522 0
M  V30 2536 H 238.109 -1.52168 -4.06236 0
M  V30 2537 H 238.78 -0.701361 -5.47526 0
M  V30 2538 H 241.256 0.657161 -4.10878 0
M  V30 2539 H 240.132 1.3026 -5.3322 0
M  V30 2540 H 240.393 2.19132 -3.83971 0
M  V30 2541 N 239.452 1.56882 -0.150215 0
M  V30 2542 C 240.863 1.82995 0.370076 0
M  V30 2543 C 241.214 1.06907 1.64515 0
M  V30 2544 O 240.339 0.315369 2.1409 0
M  V30 2545 C 240.934 3.31942 0.678208 0
M  V30 2546 C 239.493 3.58625 1.14301 0
M  V30 2547 C 238.64 2.76792 0.167778 0
M  V30 2548 H 241.591 1.54209 -0.374858 0
M  V30 2549 H 241.612 3.48272 1.53254 0
M  V30 2550 H 241.124 3.87294 -0.249991 0
M  V30 2551 H 239.225 3.08664 2.08704 0
M  V30 2552 H 239.338 4.67073 1.06676 0
M  V30 2553 H 237.702 2.45972 0.661037 0
M  V30 2554 H 238.485 3.34916 -0.754069 0
M  V30 2555 N 240.93 -0.123565 1.57115 0
M  V30 2556 C 242.177 -0.832153 1.84612 0
M  V30 2557 C 242.505 -1.80093 0.734627 0
M  V30 2558 O 241.76 -1.93766 -0.27442 0
M  V30 2559 C 242.059 -1.62016 3.18568 0
M  V30 2560 C 241.725 -0.796084 4.43817 0
M  V30 2561 C 240.387 -0.568816 4.77826 0
M  V30 2562 C 242.739 -0.221364 5.2073 0
M  V30 2563 C 240.067 0.243499 5.86194 0
M  V30 2564 C 242.419 0.578117 6.29953 0
M  V30 2565 C 241.083 0.815744 6.62497 0
M  V30 2566 H 240.353 -0.304507 0.675542 0
M  V30 2567 H 243 -0.0947248 1.91266 0
M  V30 2568 H 241.305 -2.42837 3.0747 0
M  V30 2569 H 243.002 -2.17231 3.37064 0
M  V30 2570 H 239.592 -0.983307 4.17168 0
M  V30 2571 H 243.776 -0.384173 4.94811 0
M  V30 2572 H 239.032 0.436871 6.09837 0
M  V30 2573 H 243.206 1.03046 6.88734 0
M  V30 2574 H 240.833 1.44701 7.46301 0
M  V30 2575 N 242.408 -1.52605 -0.393616 0
M  V30 2576 C 243.338 -1.80022 -1.48709 0
M  V30 2577 C 244.319 -0.651995 -1.57108 0
M  V30 2578 O 245.504 -0.89913 -1.72132 0
M  V30 2579 C 242.634 -1.96492 -2.86371 0
M  V30 2580 C 241.588 -3.12161 -2.92813 0
M  V30 2581 C 240.914 -3.13877 -4.3288 0
M  V30 2582 C 242.214 -4.51322 -2.6288 0
M  V30 2583 H 243.908 -2.71589 -1.26015 0
M  V30 2584 H 241.454 -1.30684 -0.604778 0
M  V30 2585 H 243.407 -2.14255 -3.62867 0
M  V30 2586 H 242.131 -1.01611 -3.10391 0
M  V30 2587 H 240.79 -2.94173 -2.18764 0
M  V30 2588 H 240.438 -2.16687 -4.53933 0
M  V30 2589 H 240.138 -3.91576 -4.38112 0
M  V30 2590 H 241.662 -3.33789 -5.1129 0
M  V30 2591 H 243.076 -4.69435 -3.29096 0
M  V30 2592 H 241.473 -5.31053 -2.79468 0
M  V30 2593 H 242.543 -4.58353 -1.58242 0
M  V30 2594 N 243.887 0.651787 -1.4349 0
M  V30 2595 C 245.133 1.41376 -1.45398 0
M  V30 2596 C 245.466 1.94041 -0.0784823 0
M  V30 2597 O 244.741 1.72379 0.900878 0
M  V30 2598 C 245.024 2.59414 -2.49752 0
M  V30 2599 C 244.877 2.12232 -3.96582 0
M  V30 2600 C 246.196 3.61626 -2.50827 0
M  V30 2601 H 243.315 0.512719 -0.529422 0
M  V30 2602 H 245.957 0.738796 -1.75048 0
M  V30 2603 H 244.107 3.16997 -2.246 0
M  V30 2604 H 245.779 1.59639 -4.32797 0
M  V30 2605 H 244.022 1.43592 -4.09346 0
M  V30 2606 H 244.693 2.9712 -4.65214 0
M  V30 2607 H 247.169 3.13805 -2.7325 0
M  V30 2608 H 246.045 4.41766 -3.25783 0
M  V30 2609 H 246.306 4.14314 -1.5426 0
M  V30 2610 N 245.365 1.30045 0.890287 0
M  V30 2611 C 246.59 1.21598 1.68014 0
M  V30 2612 C 247.015 -0.218678 1.86825 0
M  V30 2613 O 246.373 -1.15756 1.39536 0
M  V30 2614 C 246.421 1.94434 3.03691 0
M  V30 2615 O 245.525 1.2678 3.92429 0
M  V30 2616 H 244.866 0.420856 0.513592 0
M  V30 2617 H 247.396 1.71775 1.11151 0
M  V30 2618 H 247.406 2.03251 3.5377 0
M  V30 2619 H 246.081 2.98777 2.89318 0
M  V30 2620 H 244.658 1.26282 3.50866 0
M  V30 2621 N 246.843 -1.10192 1.12674 0
M  V30 2622 C 247.806 -2.14786 0.799979 0
M  V30 2623 C 248.806 -1.59711 -0.18685 0
M  V30 2624 O 249.996 -1.74156 0.0392558 0
M  V30 2625 C 247.128 -3.40374 0.189228 0
M  V30 2626 H 248.321 -2.45203 1.72671 0
M  V30 2627 H 245.874 -1.25597 0.930326 0
M  V30 2628 H 246.609 -3.15577 -0.747107 0
M  V30 2629 H 246.394 -3.81637 0.899766 0
M  V30 2630 H 247.884 -4.17594 -0.0228143 0
M  V30 2631 N 248.321 -0.919034 -1.28029 0
M  V30 2632 C 249.549 -0.570971 -1.98866 0
M  V30 2633 C 249.964 0.848996 -1.68634 0
M  V30 2634 O 249.321 1.56307 -0.942036 0
M  V30 2635 C 249.372 -0.776876 -3.53054 0
M  V30 2636 O 249.093 -2.14097 -3.82222 0
M  V30 2637 C 250.594 -0.436356 -4.41147 0
M  V30 2638 H 247.814 -0.217175 -0.634883 0
M  V30 2639 H 250.358 -1.23368 -1.63097 0
M  V30 2640 H 248.513 -0.161085 -3.87065 0
M  V30 2641 H 248.927 -2.18455 -4.76841 0
M  V30 2642 H 250.401 -0.63117 -5.4838 0
M  V30 2643 H 250.878 0.627686 -4.34692 0
M  V30 2644 H 251.484 -1.02991 -4.12641 0
M  V30 2645 N 249.799 1.42003 -0.683588 0
M  V30 2646 C 250.762 2.29191 -0.0198243 0
M  V30 2647 C 251.762 1.43773 0.72013 0
M  V30 2648 O 252.952 1.65061 0.556815 0
M  V30 2649 C 250.084 3.26435 0.982487 0
M  V30 2650 H 251.277 2.8938 -0.787345 0
M  V30 2651 H 248.83 1.49789 -0.446418 0
M  V30 2652 H 249.565 2.71203 1.77819 0
M  V30 2653 H 249.35 3.89449 0.455182 0
M  V30 2654 H 250.84 3.918 1.44508 0
M  V30 2655 N 251.277 0.427512 1.51691 0
M  V30 2656 C 252.525 -0.141948 2.01601 0
M  V30 2657 C 252.846 -1.44067 1.31414 0
M  V30 2658 O 252.116 -1.90763 0.445658 0
M  V30 2659 H 250.696 -0.0554468 0.744939 0
M  V30 2660 H 253.358 0.567968 1.86441 0
M  V30 2661 H 252.454 -0.324913 3.10404 0
M  V30 2662 N 252.755 -1.56801 0.158532 0
M  V30 2663 C 253.983 -2.00859 -0.496303 0
M  V30 2664 C 254.398 -1.03871 -1.57659 0
M  V30 2665 O 253.755 -0.0375165 -1.82461 0
M  V30 2666 C 253.806 -3.4479 -1.08638 0
M  V30 2667 O 253.527 -4.38072 -0.0492322 0
M  V30 2668 C 255.028 -4.04185 -1.8207 0
M  V30 2669 H 252.248 -0.65864 -0.128199 0
M  V30 2670 H 254.792 -2.02885 0.256506 0
M  V30 2671 H 252.947 -3.43579 -1.78975 0
M  V30 2672 H 253.361 -5.2227 -0.483102 0
M  V30 2673 H 254.835 -5.06857 -2.18633 0
M  V30 2674 H 255.312 -3.45549 -2.71095 0
M  V30 2675 H 255.918 -4.0906 -1.16405 0
M  V30 2676 N 254.233 0.115231 -1.57178 0
M  V30 2677 C 255.461 0.836437 -1.89239 0
M  V30 2678 C 255.876 1.73256 -0.750175 0
M  V30 2679 O 255.233 1.80357 0.278832 0
M  V30 2680 C 255.284 1.66671 -3.20785 0
M  V30 2681 O 255.005 0.806652 -4.3061 0
M  V30 2682 C 256.506 2.49274 -3.66575 0
M  V30 2683 H 253.726 0.240253 -0.626514 0
M  V30 2684 H 256.27 0.0984932 -2.04263 0
M  V30 2685 H 254.425 2.35737 -3.0742 0
M  V30 2686 H 254.839 1.37969 -5.06028 0
M  V30 2687 H 256.313 3.03055 -4.6137 0
M  V30 2688 H 256.79 3.26807 -2.93417 0
M  V30 2689 H 257.396 1.85443 -3.82741 0
M  V30 2690 N 255.711 1.52812 0.385517 0
M  V30 2691 C 256.957 1.68275 1.13188 0
M  V30 2692 C 257.29 0.423179 1.89533 0
M  V30 2693 O 256.565 -0.579113 1.85679 0
M  V30 2694 C 256.848 2.92001 2.1073 0
M  V30 2695 C 256.701 4.28067 1.38125 0
M  V30 2696 C 258.02 3.11283 3.11113 0
M  V30 2697 H 255.139 0.612352 0.410115 0
M  V30 2698 H 257.781 1.85415 0.414869 0
M  V30 2699 H 255.931 2.77519 2.71874 0
M  V30 2700 H 257.603 4.54324 0.799187 0
M  V30 2701 H 255.846 4.28388 0.683092 0
M  V30 2702 H 256.517 5.10733 2.09417 0
M  V30 2703 H 258.993 3.2482 2.6006 0
M  V30 2704 H 257.869 3.99325 3.76605 0
M  V30 2705 H 258.13 2.25656 3.80173 0
M  V30 2706 N 257.189 -0.644168 1.43834 0
M  V30 2707 C 258.419 -1.42939 1.49171 0
M  V30 2708 C 258.827 -1.88874 0.111048 0
M  V30 2709 O 258.17 -1.60656 -0.8908 0
M  V30 2710 C 258.232 -2.69151 2.38324 0
M  V30 2711 C 257.896 -2.45097 3.85715 0
M  V30 2712 C 258.893 -2.07747 4.76589 0
M  V30 2713 C 256.578 -2.59141 4.30292 0
M  V30 2714 C 258.572 -1.8475 6.10038 0
M  V30 2715 C 256.259 -2.35759 5.63792 0
M  V30 2716 C 257.257 -1.9862 6.53482 0
M  V30 2717 O 256.945 -1.75489 7.84512 0
M  V30 2718 H 256.677 -0.445271 0.508635 0
M  V30 2719 H 259.231 -0.79621 1.8934 0
M  V30 2720 H 257.461 -3.3506 1.93058 0
M  V30 2721 H 259.15 -3.31123 2.3476 0
M  V30 2722 H 259.916 -1.96465 4.43426 0
M  V30 2723 H 255.795 -2.87022 3.60749 0
M  V30 2724 H 259.339 -1.55686 6.80006 0
M  V30 2725 H 255.236 -2.46646 5.9652 0
M  V30 2726 H 256.004 -1.89841 7.9618 0
M  V30 2727 N 258.668 -1.30515 -0.883378 0
M  V30 2728 C 259.916 -1.19194 -1.63209 0
M  V30 2729 C 260.237 0.253205 -1.93349 0
M  V30 2730 O 259.507 1.17025 -1.57105 0
M  V30 2731 H 258.087 -0.438148 -0.605009 0
M  V30 2732 H 260.749 -1.63663 -1.05832 0
M  V30 2733 H 259.845 -1.75396 -2.58153 0
M  V30 2734 N 260.146 1.09593 -1.13257 0
M  V30 2735 C 261.109 2.14359 -0.811358 0
M  V30 2736 C 262.109 1.59808 0.178377 0
M  V30 2737 O 263.299 1.74132 -0.0484911 0
M  V30 2738 C 260.431 3.40269 -0.207276 0
M  V30 2739 H 261.624 2.44284 -1.73969 0
M  V30 2740 H 259.177 1.25102 -0.936973 0
M  V30 2741 H 259.912 3.15969 0.73036 0
M  V30 2742 H 259.697 3.81154 -0.919992 0
M  V30 2743 H 261.187 4.176 0.000667944 0
M  V30 2744 N 261.624 0.925811 1.2754 0
M  V30 2745 C 262.871 0.565255 1.94451 0
M  V30 2746 C 263.199 -0.89316 1.7278 0
M  V30 2747 O 262.454 -1.65213 1.04895 0
M  V30 2748 C 262.753 0.835296 3.47502 0
M  V30 2749 C 262.419 2.27515 3.89291 0
M  V30 2750 C 261.081 2.66879 4.00411 0
M  V30 2751 C 263.433 3.21158 4.10496 0
M  V30 2752 C 260.761 3.99014 4.30122 0
M  V30 2753 C 263.113 4.52871 4.4169 0
M  V30 2754 C 261.777 4.92072 4.51023 0
M  V30 2755 H 261.047 0.206841 0.711546 0
M  V30 2756 H 263.694 1.16942 1.51647 0
M  V30 2757 H 261.999 0.148442 3.91519 0
M  V30 2758 H 263.696 0.535322 3.97411 0
M  V30 2759 H 260.286 1.95976 3.81171 0
M  V30 2760 H 264.47 2.9195 4.01346 0
M  V30 2761 H 259.726 4.2907 4.35556 0
M  V30 2762 H 263.9 5.25436 4.57045 0
M  V30 2763 H 261.527 5.9449 4.738 0
M  V30 2764 N 263.102 -1.41638 0.69111 0
M  V30 2765 C 264.379 -1.95036 0.148421 0
M  V30 2766 C 264.759 -1.63072 -1.34055 0
M  V30 2767 O 264.107 -0.93538 -2.08478 0
M  V30 2768 C 264.317 -3.46279 0.434951 0
M  V30 2769 C 265.665 -4.23069 0.360275 0
M  V30 2770 O 266.689 -3.54277 0.369613 0
M  V30 2771 O 265.548 -5.45583 0.316534 0
M  V30 2772 H 262.642 -0.826908 0.0123654 0
M  V30 2773 H 265.188 -1.5138 0.766963 0
M  V30 2774 H 263.96 -3.6281 1.46576 0
M  V30 2775 H 263.583 -3.97019 -0.214787 0
M  V30 2776 N 264.58 -0.43555 -1.51462 0
M  V30 2777 C 265.991 0.0279871 -1.86679 0
M  V30 2778 C 266.342 1.42104 -1.35281 0
M  V30 2779 O 265.467 2.04667 -0.702878 0
M  V30 2780 C 266.062 0.0575626 -3.38751 0
M  V30 2781 C 264.621 0.465507 -3.7351 0
M  V30 2782 C 263.768 -0.342996 -2.75171 0
M  V30 2783 H 266.719 -0.651473 -1.44712 0
M  V30 2784 H 266.74 0.867421 -3.70481 0
M  V30 2785 H 266.252 -0.956448 -3.7613 0
M  V30 2786 H 264.353 1.48519 -3.41721 0
M  V30 2787 H 264.466 0.191546 -4.78717 0
M  V30 2788 H 262.83 0.198442 -2.53926 0
M  V30 2789 H 263.613 -1.35585 -3.15391 0
M  V30 2790 N 266.058 1.56714 -0.166846 0
M  V30 2791 C 266.988 2.20754 0.760913 0
M  V30 2792 C 267.969 1.16178 1.24244 0
M  V30 2793 O 269.154 1.44592 1.29641 0
M  V30 2794 C 266.284 2.84478 1.99223 0
M  V30 2795 C 265.238 3.95053 1.64672 0
M  V30 2796 C 264.564 4.45805 2.95232 0
M  V30 2797 C 265.864 5.14865 0.878155 0
M  V30 2798 H 267.558 2.98537 0.22713 0
M  V30 2799 H 265.104 1.43596 0.107805 0
M  V30 2800 H 267.057 3.27951 2.64624 0
M  V30 2801 H 265.781 2.04056 2.55007 0
M  V30 2802 H 264.44 3.52228 1.01641 0
M  V30 2803 H 264.088 3.62181 3.49047 0
M  V30 2804 H 263.788 5.204 2.7287 0
M  V30 2805 H 265.312 4.91962 3.6167 0
M  V30 2806 H 266.726 5.55059 1.43466 0
M  V30 2807 H 265.123 5.95348 0.753738 0
M  V30 2808 H 266.193 4.84735 -0.126377 0
M  V30 2809 N 267.536 -0.106894 1.57237 0
M  V30 2810 C 268.466 -1.13148 2.04254 0
M  V30 2811 C 269.447 -1.42476 0.929224 0
M  V30 2812 O 270.632 -1.52709 1.19973 0
M  V30 2813 C 267.762 -2.4545 2.45706 0
M  V30 2814 C 266.716 -2.30558 3.60592 0
M  V30 2815 C 266.042 -3.67931 3.87983 0
M  V30 2816 C 267.342 -1.75597 4.91897 0
M  V30 2817 H 269.036 -0.740374 2.90101 0
M  V30 2818 H 266.582 -0.354696 1.39563 0
M  V30 2819 H 268.535 -3.17389 2.77205 0
M  V30 2820 H 267.259 -2.86475 1.56843 0
M  V30 2821 H 265.918 -1.61067 3.29322 0
M  V30 2822 H 265.566 -4.06462 2.96306 0
M  V30 2823 H 265.266 -3.58817 4.65322 0
M  V30 2824 H 266.79 -4.41356 4.21945 0
M  V30 2825 H 268.204 -2.37364 5.21854 0
M  V30 2826 H 266.601 -1.77272 5.73319 0
M  V30 2827 H 267.671 -0.714451 4.79608 0
M  V30 2828 N 269.014 -1.53014 -0.377408 0
M  V30 2829 C 269.977 -1.77957 -1.44444 0
M  V30 2830 C 270.977 -0.649763 -1.47087 0
M  V30 2831 O 272.167 -0.917897 -1.48055 0
M  V30 2832 C 269.299 -1.89089 -2.83651 0
M  V30 2833 H 270.492 -2.73243 -1.23606 0
M  V30 2834 H 268.045 -1.43912 -0.609844 0
M  V30 2835 H 268.78 -0.958293 -3.09818 0
M  V30 2836 H 268.565 -2.71254 -2.83132 0
M  V30 2837 H 270.055 -2.1002 -3.60945 0
M  V30 2838 N 270.492 0.636531 -1.44174 0
M  V30 2839 C 271.738 1.39826 -1.4689 0
M  V30 2840 C 272.071 1.93947 -0.0990585 0
M  V30 2841 O 271.346 1.73325 0.882544 0
M  V30 2842 C 271.629 2.56751 -2.5249 0
M  V30 2843 C 271.482 2.08014 -3.98811 0
M  V30 2844 C 272.801 3.58946 -2.54649 0
M  V30 2845 H 269.92 0.507075 -0.53483 0
M  V30 2846 H 272.562 0.720188 -1.75822 0
M  V30 2847 H 270.712 3.14597 -2.2795 0
M  V30 2848 H 272.384 1.5504 -4.34466 0
M  V30 2849 H 270.627 1.39242 -4.10846 0
M  V30 2850 H 271.298 2.92169 -4.68339 0
M  V30 2851 H 273.774 3.1089 -2.76563 0
M  V30 2852 H 272.65 4.38286 -3.3045 0
M  V30 2853 H 272.911 4.12655 -1.58646 0
M  V30 2854 N 271.97 1.30982 0.876444 0
M  V30 2855 C 272.933 1.18054 1.96459 0
M  V30 2856 C 273.933 0.109399 1.60427 0
M  V30 2857 O 275.123 0.358173 1.70478 0
M  V30 2858 C 272.255 0.810616 3.31122 0
M  V30 2859 H 273.448 2.14735 2.09354 0
M  V30 2860 H 271.001 1.145 1.06392 0
M  V30 2861 H 271.736 -0.155322 3.23928 0
M  V30 2862 H 271.521 1.58481 3.58645 0
M  V30 2863 H 273.011 0.743876 4.10921 0
M  V30 2864 N 273.449 -1.08991 1.13837 0
M  V30 2865 C 274.726 -1.77863 0.813876 0
M  V30 2866 C 275.106 -1.99375 -0.693746 0
M  V30 2867 O 274.454 -1.59875 -1.63255 0
M  V30 2868 C 274.664 -3.0986 1.60586 0
M  V30 2869 C 276.012 -3.84493 1.8014 0
M  V30 2870 O 277.036 -3.19624 1.57222 0
M  V30 2871 O 275.895 -5.00957 2.18413 0
M  V30 2872 H 272.989 -0.771589 0.297624 0
M  V30 2873 H 275.535 -1.15507 1.24323 0
M  V30 2874 H 274.307 -2.89715 2.63022 0
M  V30 2875 H 273.93 -3.79942 1.17173 0
M  V30 2876 N 274.927 -0.932562 -1.27047 0
M  V30 2877 C 276.176 -0.571351 -1.93439 0
M  V30 2878 C 276.489 0.892467 -1.74053 0
M  V30 2879 O 277.695 1.36267 -2.34826 0
M  V30 2880 C 276.151 -0.97106 -3.46552 0
M  V30 2881 C 275.759 -2.4559 -3.74686 0
M  V30 2882 C 277.503 -0.681333 -4.18997 0
M  V30 2883 C 275.41 -2.79475 -5.21198 0
M  V30 2884 H 274.34 -0.209966 -0.724176 0
M  V30 2885 H 276.991 -1.13403 -1.44263 0
M  V30 2886 H 275.373 -0.336983 -3.94564 0
M  V30 2887 H 276.547 -3.13829 -3.37414 0
M  V30 2888 H 274.862 -2.71802 -3.15456 0
M  V30 2889 H 277.459 -0.910939 -5.26883 0
M  V30 2890 H 277.802 0.381628 -4.14547 0
M  V30 2891 H 278.335 -1.27473 -3.76823 0
M  V30 2892 H 275.074 -3.847 -5.30741 0
M  V30 2893 H 274.594 -2.1589 -5.596 0
M  V30 2894 H 276.273 -2.67478 -5.89122 0
M  V30 2895 N 276.405 1.4127 -0.698611 0
M  V30 2896 C 277.645 2.03044 -0.235062 0
M  V30 2897 C 278.009 1.54146 1.14468 0
M  V30 2898 O 279.21 2.07867 1.70425 0
M  V30 2899 C 277.481 3.56192 -0.293651 0
M  V30 2900 S 279.04 4.38696 0.0954053 0
M  V30 2901 H 275.858 0.704697 -0.0944648 0
M  V30 2902 H 278.46 1.72656 -0.917064 0
M  V30 2903 H 277.164 3.89274 -1.29977 0
M  V30 2904 H 276.695 3.91285 0.407397 0
M  V30 2905 H 278.71 4.78257 1.3223 0
M  V30 2906 N 277.883 0.443576 1.51229 0
M  V30 2907 C 278.83 -0.364716 2.279 0
M  V30 2908 C 279.8 -1.0114 1.31757 0
M  V30 2909 O 280.985 -1.02912 1.60667 0
M  V30 2910 C 278.125 -1.45644 3.12861 0
M  V30 2911 C 277.238 -0.827269 4.24005 0
M  V30 2912 C 276.373 -1.89456 4.96266 0
M  V30 2913 C 275.412 -1.24416 5.99322 0
M  V30 2914 N 274.549 -2.25309 6.64966 0
M  V30 2915 H 279.389 0.295464 2.96532 0
M  V30 2916 H 276.926 0.157554 1.46254 0
M  V30 2917 H 278.884 -2.10076 3.6045 0
M  V30 2918 H 277.514 -2.08616 2.46331 0
M  V30 2919 H 276.566 -0.0710839 3.80334 0
M  V30 2920 H 277.878 -0.312481 4.9782 0
M  V30 2921 H 277.032 -2.61535 5.47434 0
M  V30 2922 H 275.771 -2.4431 4.22095 0
M  V30 2923 H 274.776 -0.508868 5.4744 0
M  V30 2924 H 276.001 -0.702882 6.75453 0
M  V30 2925 H 273.947 -2.79231 5.93604 0
M  V30 2926 H 273.864 -1.78739 7.34567 0
M  V30 2927 H 275.132 -2.96853 7.20763 0
M  V30 2928 N 279.361 -1.56624 0.175154 0
M  V30 2929 C 280.308 -2.18149 -0.753634 0
M  V30 2930 C 281.278 -1.12265 -1.22417 0
M  V30 2931 O 282.463 -1.40432 -1.29165 0
M  V30 2932 C 279.603 -2.82933 -1.97592 0
M  V30 2933 C 278.716 -4.03289 -1.5486 0
M  V30 2934 C 277.851 -4.55988 -2.72485 0
M  V30 2935 C 276.89 -5.68746 -2.26262 0
M  V30 2936 N 276.027 -6.15938 -3.36994 0
M  V30 2937 H 280.867 -2.9717 -0.222195 0
M  V30 2938 H 278.404 -1.46774 -0.0979422 0
M  V30 2939 H 280.362 -3.18653 -2.69288 0
M  V30 2940 H 278.992 -2.06509 -2.481 0
M  V30 2941 H 278.044 -3.73364 -0.728246 0
M  V30 2942 H 279.356 -4.849 -1.16933 0
M  V30 2943 H 278.51 -4.9391 -3.52332 0
M  V30 2944 H 277.249 -3.73443 -3.13674 0
M  V30 2945 H 276.254 -5.30372 -1.44863 0
M  V30 2946 H 277.479 -6.53095 -1.86127 0
M  V30 2947 H 275.425 -5.36321 -3.77751 0
M  V30 2948 H 275.342 -6.92548 -3.03172 0
M  V30 2949 H 276.61 -6.58511 -4.17114 0
M  V30 2950 N 280.839 0.0985539 -1.57292 0
M  V30 2951 C 282.069 0.815135 -1.8984 0
M  V30 2952 C 282.477 1.7297 -0.766679 0
M  V30 2953 O 281.82 1.81698 0.270483 0
M  V30 2954 C 281.882 1.6842 -3.17608 0
M  V30 2955 C 281.546 0.94182 -4.4719 0
M  V30 2956 C 282.543 0.273212 -5.19182 0
M  V30 2957 C 280.228 0.916927 -4.9386 0
M  V30 2958 C 282.222 -0.410361 -6.36078 0
M  V30 2959 C 279.909 0.229567 -6.10669 0
M  V30 2960 C 280.907 -0.432902 -6.81627 0
M  V30 2961 O 280.595 -1.10925 -7.9621 0
M  V30 2962 H 280.327 0.238501 -0.632529 0
M  V30 2963 H 282.881 0.0812659 -2.05239 0
M  V30 2964 H 281.111 2.46022 -2.98345 0
M  V30 2965 H 282.8 2.27704 -3.36015 0
M  V30 2966 H 283.566 0.283927 -4.84168 0
M  V30 2967 H 279.445 1.42201 -4.3852 0
M  V30 2968 H 282.989 -0.928013 -6.914 0
M  V30 2969 H 278.886 0.216686 -6.45136 0
M  V30 2970 H 279.654 -1.01579 -8.12172 0
M  V30 2971 N 282.317 1.53212 0.369288 0
M  V30 2972 C 283.264 1.79388 1.45219 0
M  V30 2973 C 284.234 0.638059 1.53356 0
M  V30 2974 O 285.419 0.879852 1.69302 0
M  V30 2975 C 282.559 1.98623 2.82211 0
M  V30 2976 C 281.672 3.26337 2.8307 0
M  V30 2977 C 280.807 3.35779 4.11614 0
M  V30 2978 C 279.846 4.5754 4.06601 0
M  V30 2979 N 278.983 4.64155 5.26787 0
M  V30 2980 H 283.823 2.71794 1.22198 0
M  V30 2981 H 281.36 1.34642 0.592444 0
M  V30 2982 H 283.318 2.07761 3.61789 0
M  V30 2983 H 281.948 1.09558 3.03639 0
M  V30 2984 H 281 3.26171 1.95747 0
M  V30 2985 H 282.312 4.15988 2.75237 0
M  V30 2986 H 281.466 3.44208 4.99606 0
M  V30 2987 H 280.205 2.44137 4.22195 0
M  V30 2988 H 279.21 4.49215 3.16996 0
M  V30 2989 H 280.435 5.50519 3.97625 0
M  V30 2990 H 278.381 3.75413 5.3796 0
M  V30 2991 H 278.298 5.47706 5.21109 0
M  V30 2992 H 279.566 4.76863 6.16621 0
M  V30 2993 N 283.795 -0.628877 1.44509 0
M  V30 2994 C 285.044 -1.38437 1.4669 0
M  V30 2995 C 285.357 -1.95322 0.104272 0
M  V30 2996 O 286.563 -2.715 0.00362163 0
M  V30 2997 C 285.019 -2.50659 2.5826 0
M  V30 2998 C 284.627 -2.00277 4.0074 0
M  V30 2999 C 286.371 -3.27844 2.69664 0
M  V30 3000 C 284.278 -3.09854 5.0373 0
M  V30 3001 H 283.208 -0.520245 0.545766 0
M  V30 3002 H 285.859 -0.676313 1.70582 0
M  V30 3003 H 284.241 -3.2405 2.27612 0
M  V30 3004 H 285.415 -1.33736 4.40966 0
M  V30 3005 H 283.73 -1.35901 3.93599 0
M  V30 3006 H 286.327 -4.09534 3.43781 0
M  V30 3007 H 286.67 -3.77471 1.75559 0
M  V30 3008 H 287.203 -2.61543 2.99733 0
M  V30 3009 H 283.942 -2.65168 5.99472 0
M  V30 3010 H 283.462 -3.7503 4.68095 0
M  V30 3011 H 285.141 -3.74592 5.27532 0
M  V30 3012 N 285.273 -1.31445 -0.869486 0
M  V30 3013 C 286.519 -1.22347 -1.62489 0
M  V30 3014 C 286.874 0.216204 -1.91181 0
M  V30 3015 O 286.167 1.14977 -1.53268 0
M  V30 3016 C 286.361 -2.00145 -2.96102 0
M  V30 3017 C 286.19 -3.51531 -2.80456 0
M  V30 3018 C 284.96 -4.20882 -2.79618 0
M  V30 3019 C 287.158 -4.46471 -2.5528 0
M  V30 3020 N 285.14 -5.58421 -2.55027 0
M  V30 3021 C 286.511 -5.71682 -2.39957 0
M  V30 3022 C 288.566 -4.35892 -2.40629 0
M  V30 3023 C 287.269 -6.87511 -2.11472 0
M  V30 3024 C 289.295 -5.51505 -2.13532 0
M  V30 3025 C 288.657 -6.75707 -1.98998 0
M  V30 3026 H 284.756 -0.502815 -0.598917 0
M  V30 3027 H 287.34 -1.65639 -1.02332 0
M  V30 3028 H 285.511 -1.59221 -3.54264 0
M  V30 3029 H 287.243 -1.83063 -3.60929 0
M  V30 3030 H 283.998 -3.72857 -2.92018 0
M  V30 3031 H 284.422 -6.30841 -2.45701 0
M  V30 3032 H 289.064 -3.40533 -2.50593 0
M  V30 3033 H 286.782 -7.82897 -2.00245 0
M  V30 3034 H 290.368 -5.45238 -2.02995 0
M  V30 3035 H 289.248 -7.63655 -1.78326 0
M  V30 3036 N 286.751 1.08385 -1.14413 0
M  V30 3037 C 287.684 2.14642 -0.774871 0
M  V30 3038 C 288.662 1.60761 0.243876 0
M  V30 3039 O 289.846 1.88031 0.132883 0
M  V30 3040 C 286.973 3.38366 -0.150491 0
M  V30 3041 C 286.019 4.10997 -1.13945 0
M  V30 3042 S 286.852 4.63797 -2.67679 0
M  V30 3043 C 288.008 5.90808 -2.06631 0
M  V30 3044 H 288.241 2.45633 -1.67487 0
M  V30 3045 H 285.774 1.20498 -0.96538 0
M  V30 3046 H 287.732 4.09996 0.203334 0
M  V30 3047 H 286.393 3.05572 0.72694 0
M  V30 3048 H 285.586 4.99783 -0.65059 0
M  V30 3049 H 285.188 3.4528 -1.43727 0
M  V30 3050 H 287.48 6.62411 -1.4219 0
M  V30 3051 H 288.423 6.4439 -2.93542 0
M  V30 3052 H 288.831 5.4383 -1.51357 0
M  V30 3053 N 288.23 0.939286 1.26551 0
M  V30 3054 C 289.18 0.418284 2.2413 0
M  V30 3055 C 290.164 -0.483935 1.5345 0
M  V30 3056 O 291.356 -0.319489 1.74093 0
M  V30 3057 C 288.485 -0.31709 3.41832 0
M  V30 3058 C 287.571 0.602311 4.19801 0
M  V30 3059 N 287.962 1.72726 4.75394 0
M  V30 3060 C 286.26 0.407534 4.44134 0
M  V30 3061 C 286.961 2.30004 5.34297 0
M  V30 3062 N 285.937 1.58828 5.1988 0
M  V30 3063 H 289.739 1.27705 2.64705 0
M  V30 3064 H 287.253 0.794929 1.41614 0
M  V30 3065 H 289.25 -0.707364 4.10855 0
M  V30 3066 H 287.91 -1.17264 3.02786 0
M  V30 3067 H 288.921 2.10944 4.72994 0
M  V30 3068 H 285.598 -0.406406 4.15517 0
M  V30 3069 H 286.988 3.24778 5.88191 0
M  V30 3070 N 289.708 -1.40897 0.706093 0
M  V30 3071 C 290.954 -2.01352 0.241889 0
M  V30 3072 C 291.287 -1.55832 -1.15888 0
M  V30 3073 O 290.562 -0.774145 -1.7843 0
M  V30 3074 C 290.845 -3.58752 0.311311 0
M  V30 3075 C 290.698 -4.1437 1.74978 0
M  V30 3076 C 292.017 -4.38914 -0.322922 0
M  V30 3077 H 289.136 -0.731562 0.0893687 0
M  V30 3078 H 291.778 -1.67504 0.896802 0
M  V30 3079 H 289.928 -3.87718 -0.246302 0
M  V30 3080 H 291.6 -3.96239 2.36205 0
M  V30 3081 H 289.843 -3.69016 2.28057 0
M  V30 3082 H 290.514 -5.23532 1.74981 0
M  V30 3083 H 292.99 -4.15822 0.152089 0
M  V30 3084 H 291.866 -5.48358 -0.243855 0
M  V30 3085 H 292.127 -4.19176 -1.40513 0
M  V30 3086 N 291.186 -0.45159 -1.50991 0
M  V30 3087 C 292.463 0.170707 -1.94854 0
M  V30 3088 C 292.843 1.58788 -1.39103 0
M  V30 3089 O 292.191 2.20913 -0.583921 0
M  V30 3090 C 292.401 0.133929 -3.48743 0
M  V30 3091 C 293.749 0.33248 -4.23296 0
M  V30 3092 O 294.773 0.211403 -3.55572 0
M  V30 3093 O 293.632 0.57486 -5.43468 0
M  V30 3094 H 290.726 0.122264 -0.817912 0
M  V30 3095 H 293.272 -0.510594 -1.61836 0
M  V30 3096 H 292.044 -0.856283 -3.81816 0
M  V30 3097 H 291.667 0.857529 -3.88242 0
M  V30 3098 N 292.664 1.56529 -0.183458 0
M  V30 3099 C 293.627 2.17324 0.728223 0
M  V30 3100 C 294.627 1.12453 1.14939 0
M  V30 3101 O 295.817 1.37902 1.06437 0
M  V30 3102 C 292.949 2.76591 1.99274 0
M  V30 3103 H 294.142 2.99241 0.198772 0
M  V30 3104 H 291.695 1.5616 0.0661391 0
M  V30 3105 H 292.43 1.98441 2.56499 0
M  V30 3106 H 292.215 3.5335 1.69959 0
M  V30 3107 H 293.705 3.23311 2.6431 0
M  V30 3108 N 294.142 -0.090211 1.57342 0
M  V30 3109 C 295.105 -1.09335 2.01441 0
M  V30 3110 C 296.105 -1.32666 0.908641 0
M  V30 3111 O 297.295 -1.28697 1.174 0
M  V30 3112 C 294.427 -2.44136 2.3793 0
M  V30 3113 H 295.62 -0.713662 2.91285 0
M  V30 3114 H 293.173 -0.335404 1.52659 0
M  V30 3115 H 293.908 -2.86972 1.51055 0
M  V30 3116 H 293.693 -2.28548 3.18603 0
M  V30 3117 H 295.183 -3.16277 2.72688 0
M  V30 3118 N 295.62 -1.53406 -0.361157 0
M  V30 3119 C 296.866 -1.70999 -1.1014 0
M  V30 3120 C 297.221 -0.458425 -1.86859 0
M  V30 3121 O 296.514 0.548654 -1.83577 0
M  V30 3122 C 296.708 -2.90211 -2.08596 0
M  V30 3123 C 296.537 -4.26841 -1.41553 0
M  V30 3124 C 295.307 -4.91621 -1.16778 0
M  V30 3125 C 297.505 -5.07212 -0.850915 0
M  V30 3126 N 295.487 -6.12164 -0.461312 0
M  V30 3127 C 296.858 -6.19394 -0.274046 0
M  V30 3128 C 298.913 -4.92218 -0.750036 0
M  V30 3129 C 297.616 -7.18221 0.393868 0
M  V30 3130 C 299.642 -5.91322 -0.095894 0
M  V30 3131 C 299.004 -7.0283 0.470081 0
M  V30 3132 H 295.103 -0.678939 -0.388028 0
M  V30 3133 H 297.687 -1.90811 -0.38722 0
M  V30 3134 H 295.858 -2.71931 -2.77323 0
M  V30 3135 H 297.59 -2.96606 -2.7533 0
M  V30 3136 H 294.345 -4.50849 -1.45024 0
M  V30 3137 H 294.769 -6.76888 -0.123312 0
M  V30 3138 H 299.411 -4.06192 -1.17337 0
M  V30 3139 H 297.129 -8.03835 0.82914 0
M  V30 3140 H 300.715 -5.81797 -0.0187075 0
M  V30 3141 H 299.595 -7.782 0.968241 0
M  V30 3142 N 297.098 0.621204 -1.44841 0
M  V30 3143 C 298.346 1.37783 -1.47852 0
M  V30 3144 C 298.667 1.94653 -0.116224 0
M  V30 3145 O 297.937 1.76367 0.852737 0
M  V30 3146 H 296.517 0.511453 -0.544449 0
M  V30 3147 H 299.179 0.730446 -1.80694 0
M  V30 3148 H 298.275 2.20414 -2.20961 0
M  V30 3149 N 298.576 1.31904 0.862503 0
M  V30 3150 C 299.824 1.21776 1.61292 0
M  V30 3151 C 300.145 -0.222413 1.93727 0
M  V30 3152 O 299.415 -1.1451 1.58947 0
M  V30 3153 H 297.995 0.447717 0.597962 0
M  V30 3154 H 300.657 1.65326 1.03215 0
M  V30 3155 H 299.753 1.7948 2.5533 0
M  V30 3156 N 300.054 -1.07777 1.14986 0
M  V30 3157 C 301.302 -1.79934 0.920235 0
M  V30 3158 C 301.623 -1.86955 -0.554336 0
M  V30 3159 O 300.893 -1.36731 -1.40291 0
M  V30 3160 H 299.473 -0.666424 0.337473 0
M  V30 3161 H 302.135 -1.3027 1.44968 0
M  V30 3162 H 301.231 -2.82539 1.32583 0
M  V30 3163 N 301.532 -0.945985 -1.26051 0
M  V30 3164 C 302.462 -0.477172 -2.28572 0
M  V30 3165 C 303.443 0.472032 -1.63419 0
M  V30 3166 O 304.628 0.372853 -1.90587 0
M  V30 3167 C 301.758 0.253975 -3.4637 0
M  V30 3168 C 300.712 -0.609135 -4.23643 0
M  V30 3169 C 300.038 0.252252 -5.34105 0
M  V30 3170 C 301.338 -1.8829 -4.8718 0
M  V30 3171 H 303.032 -1.33402 -2.68038 0
M  V30 3172 H 300.578 -0.642904 -1.28852 0
M  V30 3173 H 302.531 0.593016 -4.17207 0
M  V30 3174 H 301.255 1.145 -3.05871 0
M  V30 3175 H 299.914 -0.931138 -3.54578 0
M  V30 3176 H 299.562 1.14278 -4.89846 0
M  V30 3177 H 299.262 -0.32188 -5.86718 0
M  V30 3178 H 300.786 0.586454 -6.07777 0
M  V30 3179 H 302.2 -1.61081 -5.50205 0
M  V30 3180 H 300.597 -2.40199 -5.49931 0
M  V30 3181 H 301.667 -2.59134 -4.09851 0
M  V30 3182 N 303.011 1.40521 -0.713556 0
M  V30 3183 C 303.941 2.33381 -0.0743864 0
M  V30 3184 C 304.922 1.52784 0.747735 0
M  V30 3185 O 306.107 1.81258 0.697071 0
M  V30 3186 C 303.237 3.36748 0.849598 0
M  V30 3187 C 302.191 4.27793 0.133247 0
M  V30 3188 C 301.517 5.21679 1.17281 0
M  V30 3189 C 302.817 5.12415 -1.01134 0
M  V30 3190 H 304.511 2.87081 -0.850007 0
M  V30 3191 H 302.057 1.38034 -0.410201 0
M  V30 3192 H 304.01 4.00648 1.30612 0
M  V30 3193 H 302.734 2.81439 1.65709 0
M  V30 3194 H 301.393 3.65342 -0.303426 0
M  V30 3195 H 301.041 4.62677 1.9733 0
M  V30 3196 H 300.741 5.83435 0.698397 0
M  V30 3197 H 302.265 5.88456 1.62947 0
M  V30 3198 H 303.679 5.69781 -0.634274 0
M  V30 3199 H 302.076 5.83203 -1.41399 0
M  V30 3200 H 303.146 4.48514 -1.84292 0
M  V30 3201 N 304.489 0.459591 1.5075 0
M  V30 3202 C 305.422 -0.386257 2.24907 0
M  V30 3203 C 306.4 -1.006 1.27744 0
M  V30 3204 O 307.584 -1.04416 1.56938 0
M  V30 3205 C 304.711 -1.54021 3.01654 0
M  V30 3206 C 303.757 -1.03898 4.13651 0
M  V30 3207 S 304.59 0.0370501 5.35487 0
M  V30 3208 C 305.746 -1.12105 6.15779 0
M  V30 3209 H 305.979 0.243272 2.96303 0
M  V30 3210 H 303.512 0.244339 1.52454 0
M  V30 3211 H 305.47 -2.20163 3.46466 0
M  V30 3212 H 304.131 -2.14121 2.29806 0
M  V30 3213 H 303.324 -1.90254 4.66711 0
M  V30 3214 H 302.926 -0.45545 3.71216 0
M  V30 3215 H 305.218 -2.03501 6.46215 0
M  V30 3216 H 306.161 -0.62995 7.05292 0
M  V30 3217 H 306.569 -1.36967 5.47631 0
M  V30 3218 N 305.967 -1.56429 0.191757 0
M  V30 3219 C 307.192 -2.02309 -0.456706 0
M  V30 3220 C 307.617 -1.07103 -1.5463 0
M  V30 3221 O 306.975 -0.0539677 -1.8122 0
M  V30 3222 C 307.023 -3.46654 -0.993159 0
M  V30 3223 O 306.127 -3.54559 -2.10622 0
M  V30 3224 H 305.468 -0.655303 -0.107114 0
M  V30 3225 H 307.998 -2.02364 0.301653 0
M  V30 3226 H 308.008 -3.86377 -1.31061 0
M  V30 3227 H 306.683 -4.1544 -0.195504 0
M  V30 3228 H 305.26 -3.26708 -1.79767 0
M  V30 3229 N 307.445 0.0818655 -1.57387 0
M  V30 3230 C 308.861 0.436412 -1.53517 0
M  V30 3231 C 309.061 1.79758 -0.910459 0
M  V30 3232 O 308.117 2.47324 -0.508636 0
M  V30 3233 C 309.43 0.386734 -2.98203 0
M  V30 3234 C 310.978 0.467644 -3.09487 0
M  V30 3235 C 311.453 0.447978 -4.55804 0
M  V30 3236 N 312.944 0.508348 -4.60402 0
M  V30 3237 C 313.679 0.515184 -5.71081 0
M  V30 3238 N 313.175 0.477435 -6.91153 0
M  V30 3239 N 314.968 0.560988 -5.59294 0
M  V30 3240 H 307.119 -0.809546 -1.96367 0
M  V30 3241 H 309.382 -0.302733 -0.898363 0
M  V30 3242 H 309.088 -0.546539 -3.47427 0
M  V30 3243 H 308.962 1.20075 -3.57578 0
M  V30 3244 H 311.349 1.39134 -2.60242 0
M  V30 3245 H 311.43 -0.374753 -2.5304 0
M  V30 3246 H 311.074 -0.471826 -5.05704 0
M  V30 3247 H 311.004 1.30777 -5.10103 0
M  V30 3248 H 313.495 0.54218 -3.7399 0
M  V30 3249 H 313.808 0.486299 -7.71268 0
M  V30 3250 H 312.153 0.444278 -6.93579 0
M  V30 3251 H 315.344 0.5881 -4.64391 0
M  V30 3252 H 315.517 0.562846 -6.45551 0
M  V30 3253 N 308.923 1.53595 0.353017 0
M  V30 3254 C 309.87 1.80919 1.43308 0
M  V30 3255 C 310.84 0.654288 1.5267 0
M  V30 3256 O 312.025 0.897759 1.6836 0
M  V30 3257 C 309.165 2.01605 2.80089 0
M  V30 3258 C 308.278 3.29321 2.79593 0
M  V30 3259 C 307.413 3.40125 4.0803 0
M  V30 3260 C 306.452 4.61826 4.01725 0
M  V30 3261 N 305.589 4.69716 5.21834 0
M  V30 3262 H 310.429 2.73074 1.19308 0
M  V30 3263 H 307.966 1.35263 0.578131 0
M  V30 3264 H 309.924 2.11586 3.59565 0
M  V30 3265 H 308.554 1.12772 3.0246 0
M  V30 3266 H 307.606 3.28229 1.92276 0
M  V30 3267 H 308.918 4.18884 2.70809 0
M  V30 3268 H 308.072 3.49488 4.95927 0
M  V30 3269 H 306.811 2.48601 4.19582 0
M  V30 3270 H 305.816 4.52552 3.12213 0
M  V30 3271 H 307.041 5.54705 3.91764 0
M  V30 3272 H 304.987 3.81097 5.33948 0
M  V30 3273 H 304.904 5.53202 5.1527 0
M  V30 3274 H 306.172 4.83376 6.11529 0
M  V30 3275 N 310.401 -0.613514 1.45168 0
M  V30 3276 C 311.351 -1.71871 1.49815 0
M  V30 3277 C 312.335 -1.56774 0.362021 0
M  V30 3278 O 313.527 -1.66212 0.608493 0
M  V30 3279 C 310.656 -3.1061 1.46207 0
M  V30 3280 C 309.742 -3.31114 2.64999 0
M  V30 3281 N 310.133 -3.21904 3.90143 0
M  V30 3282 C 308.431 -3.61966 2.6057 0
M  V30 3283 C 309.132 -3.43577 4.69393 0
M  V30 3284 N 308.108 -3.67287 4.00751 0
M  V30 3285 H 311.91 -1.63235 2.444 0
M  V30 3286 H 309.424 -0.816577 1.40377 0
M  V30 3287 H 311.421 -3.8989 1.4762 0
M  V30 3288 H 310.081 -3.20399 0.52673 0
M  V30 3289 H 311.092 -3.00436 4.21852 0
M  V30 3290 H 307.769 -3.78629 1.75916 0
M  V30 3291 H 309.159 -3.41901 5.78406 0
M  V30 3292 N 311.879 -1.3236 -0.855495 0
M  V30 3293 C 312.826 -1.21225 -1.964 0
M  V30 3294 C 313.796 -0.0946204 -1.6583 0
M  V30 3295 O 314.981 -0.27002 -1.8888 0
M  V30 3296 C 312.121 -0.940419 -3.32039 0
M  V30 3297 C 311.234 -2.14276 -3.75113 0
M  V30 3298 C 310.369 -1.80648 -4.9954 0
M  V30 3299 C 309.408 -2.97208 -5.35102 0
M  V30 3300 N 308.545 -2.63678 -6.50706 0
M  V30 3301 H 313.385 -2.16042 -2.05255 0
M  V30 3302 H 310.922 -1.07451 -1.00463 0
M  V30 3303 H 312.88 -0.763311 -4.10158 0
M  V30 3304 H 311.51 -0.0290413 -3.22787 0
M  V30 3305 H 310.562 -2.43017 -2.92655 0
M  V30 3306 H 311.874 -3.01468 -3.97389 0
M  V30 3307 H 311.028 -1.59484 -5.85363 0
M  V30 3308 H 309.767 -0.906678 -4.79198 0
M  V30 3309 H 308.772 -3.19004 -4.47791 0
M  V30 3310 H 309.997 -3.87918 -5.57401 0
M  V30 3311 H 307.943 -1.76238 -6.31883 0
M  V30 3312 H 307.86 -3.444 -6.72997 0
M  V30 3313 H 309.128 -2.45942 -7.39684 0
M  V30 3314 N 313.357 1.07166 -1.15556 0
M  V30 3315 C 314.603 1.80222 -0.942961 0
M  V30 3316 C 314.958 1.85121 0.524209 0
M  V30 3317 O 314.251 1.32531 1.38369 0
M  V30 3318 C 314.445 3.24707 -1.49332 0
M  V30 3319 C 314.274 3.33887 -3.01247 0
M  V30 3320 C 313.044 3.44337 -3.69811 0
M  V30 3321 C 315.242 3.24484 -3.99017 0
M  V30 3322 N 313.224 3.42439 -5.09518 0
M  V30 3323 C 314.595 3.29726 -5.25053 0
M  V30 3324 C 316.65 3.08307 -3.90962 0
M  V30 3325 C 315.353 3.20455 -6.43973 0
M  V30 3326 C 317.379 3.00371 -5.09442 0
M  V30 3327 C 316.741 3.06227 -6.34354 0
M  V30 3328 H 312.84 0.672709 -0.398731 0
M  V30 3329 H 315.424 1.27905 -1.46794 0
M  V30 3330 H 313.595 3.7544 -0.994946 0
M  V30 3331 H 315.327 3.85894 -1.21935 0
M  V30 3332 H 312.082 3.48762 -3.20409 0
M  V30 3333 H 312.506 3.45013 -5.8249 0
M  V30 3334 H 317.148 3.02633 -2.95251 0
M  V30 3335 H 314.866 3.24888 -7.39914 0
M  V30 3336 H 318.452 2.88955 -5.04971 0
M  V30 3337 H 317.332 3.00132 -7.24493 0
M  V30 3338 N 314.835 0.952656 1.25548 0
M  V30 3339 C 315.782 0.47008 2.25962 0
M  V30 3340 C 316.752 -0.476384 1.59122 0
M  V30 3341 O 317.937 -0.39007 1.8677 0
M  V30 3342 C 315.077 -0.247881 3.44209 0
M  V30 3343 C 314.19 0.735591 4.25691 0
M  V30 3344 C 313.325 -0.0047306 5.312 0
M  V30 3345 C 312.364 0.969805 6.04368 0
M  V30 3346 N 311.501 0.260486 7.01617 0
M  V30 3347 H 316.341 1.33126 2.66611 0
M  V30 3348 H 313.878 0.66765 1.31076 0
M  V30 3349 H 315.836 -0.680695 4.1161 0
M  V30 3350 H 314.466 -1.07312 3.0444 0
M  V30 3351 H 313.518 1.28689 3.57971 0
M  V30 3352 H 314.83 1.47934 4.76358 0
M  V30 3353 H 313.984 -0.496275 6.04667 0
M  V30 3354 H 312.723 -0.781282 4.81401 0
M  V30 3355 H 311.728 1.47237 5.29718 0
M  V30 3356 H 312.953 1.74655 6.56256 0
M  V30 3357 H 310.899 -0.497364 6.54112 0
M  V30 3358 H 310.816 0.943362 7.50091 0
M  V30 3359 H 312.084 -0.209587 7.79218 0
M  V30 3360 N 316.313 -1.40141 0.720998 0
M  V30 3361 C 317.243 -2.33339 0.0867621 0
M  V30 3362 C 318.224 -1.53178 -0.739622 0
M  V30 3363 O 319.409 -1.81625 -0.687449 0
M  V30 3364 C 316.539 -3.37194 -0.831728 0
M  V30 3365 C 315.493 -4.27857 -0.110558 0
M  V30 3366 C 314.819 -5.22294 -1.14513 0
M  V30 3367 C 316.119 -5.11872 1.0385 0
M  V30 3368 H 317.813 -2.86626 0.865219 0
M  V30 3369 H 315.359 -1.37814 0.417516 0
M  V30 3370 H 317.312 -4.01335 -1.28485 0
M  V30 3371 H 316.036 -2.82314 -1.64214 0
M  V30 3372 H 314.695 -3.65176 0.322797 0
M  V30 3373 H 314.343 -4.63717 -1.94874 0
M  V30 3374 H 314.043 -5.83797 -0.667446 0
M  V30 3375 H 315.567 -5.89312 -1.59824 0
M  V30 3376 H 316.981 -5.69436 0.664482 0
M  V30 3377 H 315.378 -5.82445 1.4449 0
M  V30 3378 H 316.448 -4.4753 1.86668 0
M  V30 3379 N 317.792 -0.46758 -1.50504 0
M  V30 3380 C 319.017 0.0886943 -2.0721 0
M  V30 3381 C 319.442 1.33057 -1.32956 0
M  V30 3382 O 318.8 1.77354 -0.376197 0
M  V30 3383 C 318.848 0.359202 -3.58806 0
M  V30 3384 O 317.952 1.44034 -3.8643 0
M  V30 3385 H 317.293 -0.0114349 -0.663902 0
M  V30 3386 H 319.823 -0.657613 -1.93744 0
M  V30 3387 H 319.833 0.600742 -4.03553 0
M  V30 3388 H 318.508 -0.548311 -4.1227 0
M  V30 3389 H 317.085 1.18638 -3.53524 0
M  V30 3390 N 319.27 1.56325 -0.20005 0
M  V30 3391 C 320.518 1.97329 0.436547 0
M  V30 3392 C 320.839 1.08826 1.61808 0
M  V30 3393 O 320.109 0.160604 1.95241 0
M  V30 3394 H 318.689 0.728714 0.164272 0
M  V30 3395 H 321.351 1.92761 -0.287937 0
M  V30 3396 H 320.447 3.02264 0.777353 0
M  V30 3397 N 320.748 -0.0735177 1.57428 0
M  V30 3398 C 321.994 -0.774145 1.87443 0
M  V30 3399 C 322.327 -1.77311 0.792103 0
M  V30 3400 O 321.602 -1.93492 -0.197793 0
M  V30 3401 C 321.885 -1.48367 3.28115 0
M  V30 3402 C 321.738 -0.501227 4.46999 0
M  V30 3403 C 323.057 -2.429 3.66998 0
M  V30 3404 H 320.176 -0.279971 0.681752 0
M  V30 3405 H 322.818 -0.0373616 1.89963 0
M  V30 3406 H 320.968 -2.11171 3.26097 0
M  V30 3407 H 322.64 0.121468 4.6114 0
M  V30 3408 H 320.883 0.183593 4.33411 0
M  V30 3409 H 321.554 -1.03526 5.42205 0
M  V30 3410 H 324.03 -1.90175 3.70098 0
M  V30 3411 H 322.906 -2.89549 4.66318 0
M  V30 3412 H 323.167 -3.27628 2.96837 0
M  V30 3413 N 322.226 -1.5378 -0.344866 0
M  V30 3414 C 323.136 -1.84667 -1.4469 0
M  V30 3415 C 324.152 -0.736704 -1.57635 0
M  V30 3416 O 325.328 -1.02888 -1.73136 0
M  V30 3417 C 322.393 -2.04869 -2.79696 0
M  V30 3418 C 321.454 -3.28731 -2.76106 0
M  V30 3419 C 320.687 -3.4796 -4.04673 0
M  V30 3420 O 320.91 -2.71052 -5.01883 0
M  V30 3421 O 319.844 -4.41383 -4.09224 0
M  V30 3422 H 323.67 -2.78334 -1.21506 0
M  V30 3423 H 321.255 -1.39418 -0.536921 0
M  V30 3424 H 323.137 -2.19609 -3.59652 0
M  V30 3425 H 321.812 -1.14391 -3.02814 0
M  V30 3426 H 320.719 -3.19396 -1.94774 0
M  V30 3427 H 322.052 -4.19198 -2.57941 0
M  V30 3428 N 323.704 0.605807 -1.45491 0
M  V30 3429 C 325.12 0.926751 -1.29936 0
M  V30 3430 C 325.32 1.99896 -0.253706 0
M  V30 3431 O 324.376 2.50038 0.351737 0
M  V30 3432 C 325.689 1.36599 -2.67883 0
M  V30 3433 C 327.237 1.4801 -2.75793 0
M  V30 3434 C 327.712 1.95309 -4.14268 0
M  V30 3435 N 329.203 2.0254 -4.16571 0
M  V30 3436 C 329.938 2.40363 -5.20589 0
M  V30 3437 N 329.434 2.77143 -6.34952 0
M  V30 3438 N 331.227 2.40718 -5.07948 0
M  V30 3439 H 323.378 -0.102862 -2.12151 0
M  V30 3440 H 325.641 0.016639 -0.947854 0
M  V30 3441 H 325.347 0.652306 -3.45598 0
M  V30 3442 H 325.221 2.33215 -2.96463 0
M  V30 3443 H 327.608 2.1847 -1.98381 0
M  V30 3444 H 327.689 0.497041 -2.50925 0
M  V30 3445 H 327.333 1.25436 -4.92167 0
M  V30 3446 H 327.263 2.94532 -4.3653 0
M  V30 3447 H 329.754 1.76699 -3.34045 0
M  V30 3448 H 330.067 3.0489 -7.10114 0
M  V30 3449 H 328.412 2.74834 -6.3835 0
M  V30 3450 H 331.603 2.11392 -4.1765 0
M  V30 3451 H 331.776 2.69869 -5.89131 0
M  V30 3452 N 325.182 1.32811 0.848464 0
M  V30 3453 C 326.145 1.22194 1.9391 0
M  V30 3454 C 327.145 0.143404 1.60159 0
M  V30 3455 O 328.335 0.394253 1.6968 0
M  V30 3456 C 325.467 0.88067 3.29328 0
M  V30 3457 H 326.66 2.19127 2.04752 0
M  V30 3458 H 324.213 1.16731 1.0394 0
M  V30 3459 H 324.948 -0.0865776 3.24184 0
M  V30 3460 H 324.733 1.66052 3.55203 0
M  V30 3461 H 326.223 0.830871 4.09251 0
M  V30 3462 N 326.66 -1.06551 1.16123 0
M  V30 3463 C 327.608 -2.16063 0.861371 0
M  V30 3464 C 328.602 -1.6856 -0.168517 0
M  V30 3465 O 329.808 -1.79986 -0.0227579 0
M  V30 3466 H 326.183 -0.705278 0.260934 0
M  V30 3467 H 328.154 -2.38567 1.79244 0
M  V30 3468 C 326.903 -3.45661 0.376018 0
M  V30 3469 H 326.226 -3.82604 1.15992 0
M  V30 3470 H 327.666 -4.23504 0.204951 0
M  V30 3471 C 326.125 -3.24546 -0.903954 0
M  V30 3472 O 326.655 -3.49865 -1.97377 0
M  V30 3473 N 324.861 -2.77992 -0.846679 0
M  V30 3474 H 324.408 -2.57589 0.0241017 0
M  V30 3475 H 324.366 -2.64244 -1.70359 0
M  V30 3476 N 328.138 -0.959301 -1.25041 0
M  V30 3477 C 329.363 -0.633507 -1.97488 0
M  V30 3478 C 329.788 0.788555 -1.70773 0
M  V30 3479 O 329.146 1.53394 -0.966431 0
M  V30 3480 C 329.194 -0.904057 -3.49083 0
M  V30 3481 O 328.298 0.0147939 -4.12397 0
M  V30 3482 H 327.639 -0.240368 -0.618966 0
M  V30 3483 H 330.169 -1.28717 -1.59038 0
M  V30 3484 H 330.179 -0.832203 -3.99423 0
M  V30 3485 H 328.854 -1.94048 -3.67856 0
M  V30 3486 H 327.431 -0.109664 -3.72739 0
M  V30 3487 N 329.616 1.39756 -0.72842 0
M  V30 3488 C 330.862 2.00942 -0.273892 0
M  V30 3489 C 331.195 1.57656 1.13394 0
M  V30 3490 O 330.47 0.802434 1.77176 0
M  V30 3491 C 330.753 3.58211 -0.368346 0
M  V30 3492 C 330.606 4.11534 -1.81548 0
M  V30 3493 C 331.925 4.39372 0.253054 0
M  V30 3494 H 329.044 0.730047 -0.100996 0
M  V30 3495 H 331.686 1.66056 -0.923337 0
M  V30 3496 H 329.836 3.88061 0.184588 0
M  V30 3497 H 331.508 3.92431 -2.42478 0
M  V30 3498 H 329.751 3.65341 -2.33898 0
M  V30 3499 H 330.422 5.20682 -1.83288 0
M  V30 3500 H 332.898 4.15527 -0.218224 0
M  V30 3501 H 331.774 5.48677 0.156585 0
M  V30 3502 H 332.035 4.21358 1.33826 0
M  V30 3503 N 331.094 0.475555 1.50254 0
M  V30 3504 C 332.322 -0.0754493 2.06762 0
M  V30 3505 C 332.737 -1.33111 1.33891 0
M  V30 3506 O 332.094 -1.77846 0.40952 0
M  V30 3507 C 332.145 -0.359008 3.59713 0
M  V30 3508 O 331.866 0.846851 4.29837 0
M  V30 3509 C 333.367 -0.956484 4.32858 0
M  V30 3510 H 330.587 0.00907525 0.670939 0
M  V30 3511 H 333.131 0.665618 1.93364 0
M  V30 3512 H 331.286 -1.05001 3.72899 0
M  V30 3513 H 331.7 0.594162 5.21124 0
M  V30 3514 H 333.174 -1.10463 5.40834 0
M  V30 3515 H 333.651 -1.94775 3.93649 0
M  V30 3516 H 334.257 -0.303723 4.24214 0
M  V30 3517 N 332.573 -1.56217 0.208337 0
M  V30 3518 C 333.819 -1.98998 -0.42086 0
M  V30 3519 C 334.174 -1.09331 -1.58317 0
M  V30 3520 O 333.467 -0.140466 -1.91084 0
M  V30 3521 C 333.661 -3.45441 -0.916797 0
M  V30 3522 C 333.49 -4.49273 0.195925 0
M  V30 3523 C 332.26 -5.00998 0.657956 0
M  V30 3524 C 334.458 -5.04294 1.00956 0
M  V30 3525 N 332.44 -5.88514 1.74712 0
M  V30 3526 C 333.811 -5.88607 1.94785 0
M  V30 3527 C 335.866 -4.86692 1.05049 0
M  V30 3528 C 334.569 -6.572 2.9237 0
M  V30 3529 C 336.595 -5.56034 2.01446 0
M  V30 3530 C 335.957 -6.40105 2.94016 0
M  V30 3531 H 332.056 -0.772574 -0.121048 0
M  V30 3532 H 334.64 -1.92101 0.317075 0
M  V30 3533 H 332.811 -3.52812 -1.62413 0
M  V30 3534 H 334.543 -3.75164 -1.51771 0
M  V30 3535 H 331.298 -4.72945 0.248912 0
M  V30 3536 H 331.722 -6.36975 2.2933 0
M  V30 3537 H 336.364 -4.21359 0.348759 0
M  V30 3538 H 334.082 -7.21723 3.63512 0
M  V30 3539 H 337.668 -5.44385 2.0527 0
M  V30 3540 H 336.548 -6.92816 3.6739 0
M  V30 3541 N 334.051 0.0651679 -1.57465 0
M  V30 3542 C 334.999 1.09542 -2.05191 0
M  V30 3543 C 335.993 1.39675 -0.958509 0
M  V30 3544 O 337.199 1.39003 -1.14359 0
M  V30 3545 H 333.574 0.370623 -0.654326 0
M  V30 3546 H 335.545 0.666802 -2.90854 0
M  V30 3547 C 334.294 2.39881 -2.51699 0
M  V30 3548 H 333.617 2.17547 -3.3543 0
M  V30 3549 H 335.057 3.104 -2.88839 0
M  V30 3550 C 333.516 3.0631 -1.40271 0
M  V30 3551 O 334.046 3.94664 -0.748523 0
M  V30 3552 N 332.252 2.67041 -1.14618 0
M  V30 3553 H 331.799 1.95281 -1.67997 0
M  V30 3554 H 331.757 3.1181 -0.402688 0
M  V30 3555 N 335.529 1.53961 0.336706 0
M  V30 3556 C 336.94 1.62914 0.911925 0
M  V30 3557 C 337.291 0.514795 1.89326 0
M  V30 3558 O 336.416 -0.354395 2.13478 0
M  V30 3559 C 337.011 2.95304 1.66076 0
M  V30 3560 C 335.57 3.06496 2.18489 0
M  V30 3561 C 334.717 2.58403 1.00613 0
M  V30 3562 H 337.668 1.58285 0.114649 0
M  V30 3563 H 337.689 2.84727 2.5241 0
M  V30 3564 H 337.201 3.76387 0.946276 0
M  V30 3565 H 335.302 2.3006 2.93092 0
M  V30 3566 H 335.415 4.1208 2.44391 0
M  V30 3567 H 333.779 2.13977 1.38152 0
M  V30 3568 H 334.562 3.41932 0.306179 0
M  V30 3569 N 337.007 -0.598083 1.45811 0
M  V30 3570 C 337.957 -1.70272 1.51629 0
M  V30 3571 C 338.941 -1.56382 0.378629 0
M  V30 3572 O 340.133 -1.65557 0.626087 0
M  V30 3573 C 337.262 -3.09042 1.49493 0
M  V30 3574 C 336.348 -3.28284 2.68496 0
M  V30 3575 N 336.739 -3.17748 3.93535 0
M  V30 3576 C 335.037 -3.59182 2.64394 0
M  V30 3577 C 335.738 -3.38579 4.7301 0
M  V30 3578 N 334.714 -3.63016 4.04624 0
M  V30 3579 H 338.516 -1.60634 2.46118 0
M  V30 3580 H 336.03 -0.801642 1.41235 0
M  V30 3581 H 338.027 -3.88302 1.51747 0
M  V30 3582 H 336.687 -3.19823 0.560683 0
M  V30 3583 H 337.698 -2.95944 4.25014 0
M  V30 3584 H 334.375 -3.76742 1.79922 0
M  V30 3585 H 335.765 -3.35747 5.82 0
M  V30 3586 N 338.485 -1.33259 -0.841409 0
M  V30 3587 C 339.432 -1.23302 -1.95103 0
M  V30 3588 C 340.402 -0.112204 -1.65721 0
M  V30 3589 O 341.587 -0.290038 -1.88583 0
M  V30 3590 C 338.727 -0.975583 -3.31023 0
M  V30 3591 C 337.84 -2.18243 -3.72819 0
M  V30 3592 C 336.975 -1.85936 -4.97595 0
M  V30 3593 C 336.014 -3.02866 -5.3192 0
M  V30 3594 N 335.151 -2.70565 -6.47873 0
M  V30 3595 H 339.991 -2.18207 -2.02952 0
M  V30 3596 H 337.528 -1.0851 -0.993173 0
M  V30 3597 H 339.486 -0.80677 -4.09325 0
M  V30 3598 H 338.116 -0.0632755 -3.22738 0
M  V30 3599 H 337.168 -2.46107 -2.90061 0
M  V30 3600 H 338.48 -3.05666 -3.94169 0
M  V30 3601 H 337.634 -1.65684 -5.83638 0
M  V30 3602 H 336.373 -0.957452 -4.78209 0
M  V30 3603 H 335.378 -3.23736 -4.44382 0
M  V30 3604 H 336.603 -3.93809 -5.53255 0
M  V30 3605 H 334.549 -1.8293 -6.29978 0
M  V30 3606 H 334.466 -3.51519 -6.69306 0
M  V30 3607 H 335.734 -2.53774 -7.37034 0
M  V30 3608 N 339.963 1.05934 -1.16686 0
M  V30 3609 C 340.896 2.1295 -0.820225 0
M  V30 3610 C 341.874 1.61242 0.209722 0
M  V30 3611 O 343.058 1.88271 0.0929688 0
M  V30 3612 C 340.185 3.3797 -0.22223 0
M  V30 3613 C 339.231 4.08488 -1.22637 0
M  V30 3614 S 340.064 4.58015 -2.77457 0
M  V30 3615 C 341.22 5.86292 -2.19117 0
M  V30 3616 H 341.453 2.42025 -1.72659 0
M  V30 3617 H 338.986 1.18423 -0.990722 0
M  V30 3618 H 340.944 4.10335 0.116322 0
M  V30 3619 H 339.605 3.07045 0.66196 0
M  V30 3620 H 338.798 4.98291 -0.756455 0
M  V30 3621 H 338.4 3.42154 -1.51019 0
M  V30 3622 H 340.692 6.59246 -1.56209 0
M  V30 3623 H 341.635 6.38019 -3.07144 0
M  V30 3624 H 342.043 5.40497 -1.62858 0
M  V30 3625 N 341.441 0.965919 1.2453 0
M  V30 3626 C 342.374 0.4393 2.23932 0
M  V30 3627 C 343.352 -0.485615 1.55179 0
M  V30 3628 O 344.536 -0.417402 1.83821 0
M  V30 3629 C 341.663 -0.366042 3.36716 0
M  V30 3630 C 340.709 0.5009 4.23548 0
M  V30 3631 S 341.542 1.94002 4.99123 0
M  V30 3632 C 342.698 1.14342 6.15367 0
M  V30 3633 H 342.931 1.28167 2.68254 0
M  V30 3634 H 340.464 0.770819 1.33782 0
M  V30 3635 H 342.422 -0.824724 4.0213 0
M  V30 3636 H 341.083 -1.18337 2.90956 0
M  V30 3637 H 340.276 -0.117341 5.03863 0
M  V30 3638 H 339.878 0.89524 3.63127 0
M  V30 3639 H 342.17 0.397572 6.76332 0
M  V30 3640 H 343.113 1.92089 6.81548 0
M  V30 3641 H 343.521 0.668579 5.60527 0
M  V30 3642 N 342.919 -1.39368 0.735821 0
M  V30 3643 C 344.167 -2.00101 0.283562 0
M  V30 3644 C 344.488 -1.5868 -1.13338 0
M  V30 3645 O 343.758 -0.835423 -1.77193 0
M  V30 3646 H 342.338 -0.740024 0.101851 0
M  V30 3647 H 345 -1.70404 0.945962 0
M  V30 3648 H 344.096 -3.10323 0.332604 0
M  V30 3649 N 344.397 -0.483516 -1.5 0
M  V30 3650 C 345.643 0.0672592 -2.02688 0
M  V30 3651 C 345.976 1.38247 -1.36387 0
M  V30 3652 O 345.251 1.88131 -0.493675 0
M  V30 3653 C 345.534 0.238109 -3.59312 0
M  V30 3654 C 345.387 -1.099 -4.36168 0
M  V30 3655 C 346.706 0.986916 -4.28892 0
M  V30 3656 H 343.825 0.0229696 -0.736642 0
M  V30 3657 H 346.467 -0.631527 -1.79197 0
M  V30 3658 H 344.617 0.8333 -3.79458 0
M  V30 3659 H 346.289 -1.73172 -4.27562 0
M  V30 3660 H 344.532 -1.69261 -3.99416 0
M  V30 3661 H 345.203 -0.932954 -5.44059 0
M  V30 3662 H 347.679 0.482302 -4.13295 0
M  V30 3663 H 346.555 1.07527 -5.38265 0
M  V30 3664 H 346.816 2.0265 -3.92919 0
M  V30 3665 N 345.875 1.56104 -0.216619 0
M  V30 3666 C 347.286 1.844 0.292128 0
M  V30 3667 C 347.637 1.13788 1.59833 0
M  V30 3668 O 346.762 0.405888 2.12559 0
M  V30 3669 C 347.357 3.3452 0.53681 0
M  V30 3670 C 345.916 3.63151 0.989876 0
M  V30 3671 C 345.063 2.77255 0.0502302 0
M  V30 3672 H 348.014 1.52481 -0.439926 0
M  V30 3673 H 348.035 3.54459 1.38345 0
M  V30 3674 H 347.547 3.85885 -0.414031 0
M  V30 3675 H 345.648 3.17238 1.95425 0
M  V30 3676 H 345.761 4.71177 0.867698 0
M  V30 3677 H 344.125 2.48555 0.556117 0
M  V30 3678 H 344.908 3.31416 -0.89544 0
M  V30 3679 N 347.353 -0.0568162 1.57498 0
M  V30 3680 C 348.283 -1.06593 2.0775 0
M  V30 3681 C 349.264 -1.39448 0.974082 0
M  V30 3682 O 350.449 -1.48815 1.24771 0
M  V30 3683 C 347.579 -2.37509 2.5339 0
M  V30 3684 C 346.533 -2.1897 3.67745 0
M  V30 3685 C 345.859 -3.55402 3.99492 0
M  V30 3686 C 347.159 -1.59859 4.97235 0
M  V30 3687 H 348.853 -0.647706 2.9231 0
M  V30 3688 H 346.399 -0.310116 1.40621 0
M  V30 3689 H 348.352 -3.08409 2.87162 0
M  V30 3690 H 347.076 -2.8134 1.65878 0
M  V30 3691 H 345.735 -1.50508 3.3428 0
M  V30 3692 H 345.383 -3.9683 3.09088 0
M  V30 3693 H 345.083 -3.43831 4.76502 0
M  V30 3694 H 346.607 -4.27708 4.35773 0
M  V30 3695 H 348.021 -2.20642 5.29141 0
M  V30 3696 H 346.418 -1.58942 5.78669 0
M  V30 3697 H 347.488 -0.561506 4.81638 0
M  V30 3698 N 348.832 -1.54138 -0.328536 0
M  V30 3699 C 349.764 -1.79509 -1.4251 0
M  V30 3700 C 350.777 -0.67688 -1.48061 0
M  V30 3701 O 351.966 -0.953898 -1.50874 0
M  V30 3702 C 349.066 -1.89337 -2.81078 0
M  V30 3703 C 348.239 -3.19443 -2.98789 0
M  V30 3704 C 347.298 -3.20036 -4.17688 0
M  V30 3705 O 346.324 -3.93697 -4.11086 0
M  V30 3706 N 347.526 -2.43467 -5.26976 0
M  V30 3707 H 350.291 -2.74139 -1.21111 0
M  V30 3708 H 347.852 -1.53373 -0.518499 0
M  V30 3709 H 349.844 -1.87167 -3.58818 0
M  V30 3710 H 348.414 -1.01826 -2.95551 0
M  V30 3711 H 347.634 -3.34614 -2.08391 0
M  V30 3712 H 348.922 -4.05354 -3.07515 0
M  V30 3713 H 348.32 -1.83201 -5.35214 0
M  V30 3714 H 346.877 -2.4708 -6.03154 0
M  V30 3715 N 350.31 0.590341 -1.46126 0
M  V30 3716 C 351.55 1.35995 -1.52593 0
M  V30 3717 C 351.914 1.91243 -0.170368 0
M  V30 3718 O 353.115 2.68576 -0.109775 0
M  V30 3719 C 351.386 2.46465 -2.58823 0
M  V30 3720 S 352.945 3.33953 -2.84641 0
M  V30 3721 H 349.763 0.463425 -0.53922 0
M  V30 3722 H 352.365 0.67944 -1.83314 0
M  V30 3723 H 351.069 2.04256 -3.5596 0
M  V30 3724 H 350.6 3.19297 -2.2981 0
M  V30 3725 H 352.615 4.45094 -2.19331 0
M  V30 3726 N 351.788 1.33704 0.83433 0
M  V30 3727 C 353.013 1.28615 1.62705 0
M  V30 3728 C 353.438 -0.139242 1.87584 0
M  V30 3729 O 352.796 -1.09734 1.4432 0
M  V30 3730 C 352.844 2.07139 2.95171 0
M  V30 3731 O 351.948 1.4331 3.86699 0
M  V30 3732 H 351.289 0.44226 0.49528 0
M  V30 3733 H 353.819 1.76335 1.03766 0
M  V30 3734 H 353.829 2.18073 3.44831 0
M  V30 3735 H 352.504 3.10779 2.76386 0
M  V30 3736 H 351.081 1.4105 3.45195 0
M  V30 3737 N 353.266 -1.05314 1.17247 0
M  V30 3738 C 354.229 -2.112 0.890357 0
M  V30 3739 C 355.229 -1.60359 -0.118943 0
M  V30 3740 O 356.419 -1.73833 0.113086 0
M  V30 3741 C 353.551 -3.39266 0.333422 0
M  V30 3742 H 354.744 -2.37659 1.82916 0
M  V30 3743 H 352.297 -1.21538 0.982758 0
M  V30 3744 H 353.032 -3.18462 -0.612587 0
M  V30 3745 H 352.817 -3.77477 1.06082 0
M  V30 3746 H 354.307 -4.17315 0.154322 0
M  V30 3747 N 354.744 -0.972509 -1.24016 0
M  V30 3748 C 355.674 -0.525548 -2.27509 0
M  V30 3749 C 356.655 0.437262 -1.64384 0
M  V30 3750 O 357.84 0.332343 -1.91335 0
M  V30 3751 C 354.97 0.180448 -3.46831 0
M  V30 3752 C 353.924 -0.698859 -4.22256 0
M  V30 3753 C 353.25 0.138903 -5.3452 0
M  V30 3754 C 354.55 -1.98582 -4.83076 0
M  V30 3755 H 356.244 -1.39058 -2.65148 0
M  V30 3756 H 353.79 -0.67009 -1.27459 0
M  V30 3757 H 355.743 0.504387 -4.18371 0
M  V30 3758 H 354.467 1.07987 -3.08231 0
M  V30 3759 H 353.126 -1.00614 -3.52523 0
M  V30 3760 H 352.774 1.03862 -4.9216 0
M  V30 3761 H 352.474 -0.446259 -5.85903 0
M  V30 3762 H 353.998 0.457404 -6.08884 0
M  V30 3763 H 355.412 -1.72715 -5.46665 0
M  V30 3764 H 353.809 -2.5181 -5.44713 0
M  V30 3765 H 354.879 -2.67769 -4.04262 0
M  V30 3766 N 356.222 1.38976 -0.743202 0
M  V30 3767 C 357.152 2.33171 -0.123873 0
M  V30 3768 C 358.133 1.54336 0.71516 0
M  V30 3769 O 359.318 1.82696 0.658467 0
M  V30 3770 C 356.448 3.38474 0.777978 0
M  V30 3771 C 355.402 4.27979 0.0424758 0
M  V30 3772 C 354.728 5.2405 1.06189 0
M  V30 3773 C 356.028 5.10155 -1.1198 0
M  V30 3774 H 357.722 2.85213 -0.910709 0
M  V30 3775 H 355.268 1.37133 -0.439388 0
M  V30 3776 H 357.221 4.03328 1.22084 0
M  V30 3777 H 355.945 2.84891 1.59702 0
M  V30 3778 H 354.604 3.64616 -0.380853 0
M  V30 3779 H 354.252 4.66758 1.87472 0
M  V30 3780 H 353.952 5.84785 0.574485 0
M  V30 3781 H 355.476 5.9178 1.50428 0
M  V30 3782 H 356.89 5.68307 -0.75499 0
M  V30 3783 H 355.287 5.80073 -1.53738 0
M  V30 3784 H 356.357 4.44504 -1.93764 0
M  V30 3785 N 357.7 0.491464 1.49741 0
M  V30 3786 C 358.946 -0.0565092 2.02721 0
M  V30 3787 C 359.279 -1.37522 1.37118 0
M  V30 3788 O 358.554 -1.87866 0.503645 0
M  V30 3789 C 358.837 -0.219051 3.59433 0
M  V30 3790 C 358.69 1.12211 4.35579 0
M  V30 3791 C 360.009 -0.964157 4.29409 0
M  V30 3792 H 357.128 -0.0190627 0.736753 0
M  V30 3793 H 359.77 0.641021 1.7886 0
M  V30 3794 H 357.92 -0.813165 3.79895 0
M  V30 3795 H 359.592 1.75437 4.26637 0
M  V30 3796 H 357.835 1.71377 3.98513 0
M  V30 3797 H 358.506 0.961794 5.43556 0
M  V30 3798 H 360.982 -0.460378 4.13545 0
M  V30 3799 H 359.858 -1.04671 5.38828 0
M  V30 3800 H 360.119 -2.00563 3.93988 0
M  V30 3801 N 359.178 -1.55987 0.224894 0
M  V30 3802 C 360.594 -1.59066 -0.130426 0
M  V30 3803 C 360.794 -1.24176 -1.5869 0
M  V30 3804 O 359.85 -0.978592 -2.32766 0
M  V30 3805 C 361.163 -3.00042 0.198883 0
M  V30 3806 C 362.711 -3.1268 0.141391 0
M  V30 3807 C 363.186 -4.55839 0.444422 0
M  V30 3808 N 364.677 -4.6152 0.394115 0
M  V30 3809 C 365.412 -5.70231 0.602038 0
M  V30 3810 N 364.908 -6.87291 0.871914 0
M  V30 3811 N 366.701 -5.59555 0.534245 0
M  V30 3812 H 358.852 -1.76941 1.17497 0
M  V30 3813 H 361.115 -0.822604 0.471197 0
M  V30 3814 H 360.821 -3.30234 1.2099 0
M  V30 3815 H 360.695 -3.74075 -0.484535 0
M  V30 3816 H 363.082 -2.82283 -0.860265 0
M  V30 3817 H 363.163 -2.40969 0.858335 0
M  V30 3818 H 362.807 -4.86954 1.44353 0
M  V30 3819 H 362.737 -5.2578 -0.293752 0
M  V30 3820 H 365.228 -3.77405 0.193356 0
M  V30 3821 H 365.541 -7.66058 1.01858 0
M  V30 3822 H 363.886 -6.89028 0.909145 0
M  V30 3823 H 367.077 -4.6698 0.323612 0
M  V30 3824 H 367.25 -6.44211 0.699693 0
M  V30 3825 N 360.656 0.0484629 -1.57525 0
M  V30 3826 C 361.566 1.07241 -2.08654 0
M  V30 3827 C 362.582 1.409 -1.02095 0
M  V30 3828 O 363.758 1.50609 -1.33712 0
M  V30 3829 C 360.823 2.36008 -2.5397 0
M  V30 3830 C 359.884 2.09108 -3.7493 0
M  V30 3831 C 359.117 3.31736 -4.18075 0
M  V30 3832 O 359.34 4.41714 -3.60895 0
M  V30 3833 O 358.274 3.18576 -5.10679 0
M  V30 3834 H 362.1 0.667965 -2.96263 0
M  V30 3835 H 359.685 0.26417 -1.47046 0
M  V30 3836 H 361.567 3.11747 -2.83535 0
M  V30 3837 H 360.242 2.75786 -1.69481 0
M  V30 3838 H 359.149 1.31 -3.50414 0
M  V30 3839 H 360.482 1.74198 -4.60343 0
M  V30 3840 N 362.134 1.5431 0.320358 0
M  V30 3841 C 363.044 1.86946 1.41734 0
M  V30 3842 C 364.06 0.761689 1.56443 0
M  V30 3843 O 365.236 1.05629 1.71477 0
M  V30 3844 C 362.301 2.09293 2.76401 0
M  V30 3845 C 361.362 3.33082 2.70841 0
M  V30 3846 C 360.595 3.54353 3.99086 0
M  V30 3847 O 360.818 2.79002 4.97508 0
M  V30 3848 O 359.752 4.47838 4.0215 0
M  V30 3849 H 363.578 2.80232 1.17062 0
M  V30 3850 H 361.163 1.40255 0.514673 0
M  V30 3851 H 363.045 2.25303 3.56113 0
M  V30 3852 H 361.72 1.19194 3.00956 0
M  V30 3853 H 360.627 3.22454 1.89668 0
M  V30 3854 H 361.96 4.23249 2.5124 0
M  V30 3855 N 363.613 -0.582584 1.46437 0
M  V30 3856 C 364.861 -1.33814 1.51453 0
M  V30 3857 C 365.182 -1.94277 0.167792 0
M  V30 3858 O 364.452 -1.78566 -0.805677 0
M  V30 3859 H 363.032 -0.496838 0.557818 0
M  V30 3860 H 365.694 -0.682281 1.82568 0
M  V30 3861 H 364.79 -2.14479 2.26728 0
M  V30 3862 N 365.091 -1.34144 -0.827227 0
M  V30 3863 C 366.021 -1.28005 -1.95287 0
M  V30 3864 C 367.002 -0.158321 -1.69362 0
M  V30 3865 O 368.187 -0.349987 -1.9102 0
M  V30 3866 C 365.317 -1.03036 -3.31664 0
M  V30 3867 C 364.271 -2.11628 -3.72019 0
M  V30 3868 C 363.597 -1.71854 -5.0633 0
M  V30 3869 C 364.897 -3.53417 -3.8457 0
M  V30 3870 H 366.591 -2.22187 -2.00682 0
M  V30 3871 H 364.137 -1.0696 -0.964135 0
M  V30 3872 H 366.09 -0.973863 -4.09993 0
M  V30 3873 H 364.814 -0.0529391 -3.26557 0
M  V30 3874 H 363.473 -2.16339 -2.95961 0
M  V30 3875 H 363.121 -0.727841 -4.97706 0
M  V30 3876 H 362.821 -2.44531 -5.34302 0
M  V30 3877 H 364.345 -1.67692 -5.87122 0
M  V30 3878 H 365.759 -3.51142 -4.5318 0
M  V30 3879 H 364.156 -4.24679 -4.2399 0
M  V30 3880 H 365.226 -3.91072 -2.86689 0
M  V30 3881 N 366.569 1.04691 -1.17803 0
M  V30 3882 C 367.502 2.12068 -0.842765 0
M  V30 3883 C 368.48 1.61455 0.192608 0
M  V30 3884 O 369.664 1.88359 0.072995 0
M  V30 3885 C 366.791 3.37715 -0.258063 0
M  V30 3886 C 365.837 4.07164 -1.26962 0
M  V30 3887 S 366.67 4.55047 -2.82299 0
M  V30 3888 C 367.826 5.83935 -2.25323 0
M  V30 3889 H 368.059 2.4018 -1.75217 0
M  V30 3890 H 365.592 1.17366 -1.00323 0
M  V30 3891 H 367.55 4.10435 0.0727935 0
M  V30 3892 H 366.211 3.0773 0.629357 0
M  V30 3893 H 365.404 4.9746 -0.809263 0
M  V30 3894 H 365.006 3.40533 -1.54639 0
M  V30 3895 H 367.298 6.57552 -1.63192 0
M  V30 3896 H 368.241 6.34725 -3.13894 0
M  V30 3897 H 368.649 5.3874 -1.68582 0
M  V30 3898 N 368.047 0.979072 1.23499 0
M  V30 3899 C 368.979 0.476271 2.24197 0
M  V30 3900 C 369.992 -0.421166 1.57258 0
M  V30 3901 O 371.181 -0.225515 1.7707 0
M  V30 3902 C 368.281 -0.330503 3.37285 0
M  V30 3903 C 367.454 0.559744 4.33804 0
M  V30 3904 C 366.513 -0.192954 5.25846 0
M  V30 3905 O 365.539 0.416978 5.67671 0
M  V30 3906 N 366.741 -1.47932 5.61334 0
M  V30 3907 H 369.506 1.34211 2.67969 0
M  V30 3908 H 367.067 0.852189 1.37657 0
M  V30 3909 H 369.059 -0.842361 3.95836 0
M  V30 3910 H 367.629 -1.09734 2.92707 0
M  V30 3911 H 366.849 1.25245 3.73775 0
M  V30 3912 H 368.137 1.1665 4.95248 0
M  V30 3913 H 367.535 -1.9964 5.29302 0
M  V30 3914 H 366.092 -1.93664 6.22364 0
M  V30 3915 N 369.525 -1.3858 0.750561 0
M  V30 3916 C 370.473 -2.32339 0.110162 0
M  V30 3917 C 371.467 -1.53864 -0.708674 0
M  V30 3918 O 372.673 -1.69417 -0.608112 0
M  V30 3919 H 369.048 -0.751812 0.0168275 0
M  V30 3920 H 371.019 -2.83959 0.917053 0
M  V30 3921 C 369.768 -3.39043 -0.771067 0
M  V30 3922 H 369.091 -3.99517 -0.150374 0
M  V30 3923 H 370.531 -4.07061 -1.1865 0
M  V30 3924 C 368.99 -2.77365 -1.91234 0
M  V30 3925 O 369.52 -2.66434 -3.00626 0
M  V30 3926 N 367.726 -2.35219 -1.70646 0
M  V30 3927 H 367.273 -2.4431 -0.81673 0
M  V30 3928 H 367.231 -1.94294 -2.47178 0
M  V30 3929 N 371.003 -0.499398 -1.49478 0
M  V30 3930 C 372.243 0.0440751 -2.04352 0
M  V30 3931 C 372.607 1.34423 -1.37093 0
M  V30 3932 O 373.808 1.97184 -1.82679 0
M  V30 3933 C 372.079 0.194918 -3.56868 0
M  V30 3934 S 373.638 0.69287 -4.33295 0
M  V30 3935 H 370.456 0.00253458 -0.710995 0
M  V30 3936 H 373.058 -0.673 -1.83551 0
M  V30 3937 H 371.762 -0.756672 -4.03364 0
M  V30 3938 H 371.293 0.93728 -3.82071 0
M  V30 3939 H 373.308 1.96226 -4.55752 0
M  V30 3940 N 372.481 1.55866 -0.233164 0
M  V30 3941 C 373.429 2.22176 0.68851 0
M  V30 3942 C 374.423 1.20487 1.19076 0
M  V30 3943 O 375.629 1.38536 1.14925 0
M  V30 3944 H 372.004 0.712511 0.240483 0
M  V30 3945 H 373.975 2.98212 0.105935 0
M  V30 3946 C 372.724 2.92446 1.88071 0
M  V30 3947 H 372.047 3.70458 1.50337 0
M  V30 3948 H 373.487 3.42226 2.50314 0
M  V30 3949 C 371.946 1.95555 2.74335 0
M  V30 3950 O 372.476 1.47986 3.73447 0
M  V30 3951 N 370.682 1.62953 2.40613 0
M  V30 3952 H 370.229 2.01831 1.60069 0
M  V30 3953 H 370.187 0.983886 2.98609 0
M  V30 3954 N 373.959 -0.0401083 1.57549 0
M  V30 3955 C 374.891 -1.07149 2.02612 0
M  V30 3956 C 375.904 -1.33126 0.937085 0
M  V30 3957 O 377.093 -1.30808 1.21456 0
M  V30 3958 C 374.193 -2.41561 2.37701 0
M  V30 3959 C 373.366 -2.35096 3.68848 0
M  V30 3960 C 372.425 -3.51867 3.91249 0
M  V30 3961 O 371.451 -3.3186 4.62447 0
M  V30 3962 N 372.653 -4.73351 3.36035 0
M  V30 3963 H 375.418 -0.687485 2.91708 0
M  V30 3964 H 372.979 -0.228248 1.60283 0
M  V30 3965 H 374.971 -3.18379 2.49833 0
M  V30 3966 H 373.541 -2.71846 1.54332 0
M  V30 3967 H 372.761 -1.4345 3.67173 0
M  V30 3968 H 374.049 -2.27908 4.54901 0
M  V30 3969 H 373.447 -4.92507 2.78304 0
M  V30 3970 H 372.004 -5.47572 3.53565 0
M  V30 3971 N 375.437 -1.54477 -0.31217 0
M  V30 3972 C 376.37 -1.79519 -1.40884 0
M  V30 3973 C 377.348 -0.645753 -1.49227 0
M  V30 3974 O 378.532 -0.884468 -1.66461 0
M  V30 3975 C 375.659 -1.92194 -2.78889 0
M  V30 3976 C 374.705 -3.14555 -2.88023 0
M  V30 3977 S 375.538 -4.72893 -2.51262 0
M  V30 3978 C 376.694 -4.8849 -3.91317 0
M  V30 3979 H 376.927 -2.72256 -1.19432 0
M  V30 3980 H 374.46 -1.45746 -0.509654 0
M  V30 3981 H 376.418 -2.00182 -3.58382 0
M  V30 3982 H 375.079 -1.00414 -2.97617 0
M  V30 3983 H 374.272 -3.20193 -3.89221 0
M  V30 3984 H 373.874 -3.04955 -2.16514 0
M  V30 3985 H 376.166 -4.71826 -4.86196 0
M  V30 3986 H 377.109 -5.90588 -3.90656 0
M  V30 3987 H 377.517 -4.16715 -3.80801 0
M  V30 3988 N 376.915 0.57481 -1.46744 0
M  V30 3989 C 377.865 1.67838 -1.54319 0
M  V30 3990 C 378.849 1.55759 -0.40346 0
M  V30 3991 O 380.041 1.6454 -0.652347 0
M  V30 3992 C 377.17 3.06624 -1.5439 0
M  V30 3993 C 376.256 3.23971 -2.73685 0
M  V30 3994 N 376.647 3.11447 -3.9854 0
M  V30 3995 C 374.945 3.5493 -2.70075 0
M  V30 3996 C 375.646 3.31011 -4.78337 0
M  V30 3997 N 374.622 3.56533 -4.10348 0
M  V30 3998 H 378.424 1.56698 -2.48642 0
M  V30 3999 H 375.938 0.779071 -1.42493 0
M  V30 4000 H 377.935 3.85839 -1.57905 0
M  V30 4001 H 376.595 3.1889 -0.611493 0
M  V30 4002 H 377.606 2.89145 -4.29669 0
M  V30 4003 H 374.283 3.73832 -1.85893 0
M  V30 4004 H 375.673 3.26445 -5.87268 0
M  V30 4005 N 378.394 1.34581 0.820102 0
M  V30 4006 C 379.357 1.2628 1.91275 0
M  V30 4007 C 380.357 0.177344 1.59819 0
M  V30 4008 O 381.547 0.430156 1.68806 0
M  V30 4009 C 378.679 0.950327 3.27386 0
M  V30 4010 H 379.872 2.23421 2.00057 0
M  V30 4011 H 377.425 1.1891 1.0144 0
M  V30 4012 H 378.16 -0.0177938 3.24295 0
M  V30 4013 H 377.945 1.73549 3.51601 0
M  V30 4014 H 379.435 0.917492 4.07396 0
M  V30 4015 N 379.872 -1.04064 1.18357 0
M  V30 4016 C 381.097 -1.81454 1.00445 0
M  V30 4017 C 381.522 -1.82823 -0.442423 0
M  V30 4018 O 380.88 -1.24555 -1.31741 0
M  V30 4019 C 380.928 -3.24925 1.56384 0
M  V30 4020 O 380.032 -4.04856 0.785209 0
M  V30 4021 H 379.373 -0.560604 0.355835 0
M  V30 4022 H 381.903 -1.31059 1.57114 0
M  V30 4023 H 381.913 -3.75702 1.59097 0
M  V30 4024 H 380.588 -3.23244 2.61699 0
M  V30 4025 H 379.165 -3.63537 0.830399 0
M  V30 4026 N 381.35 -0.985608 -1.22978 0
M  V30 4027 C 382.58 -0.674603 -1.95276 0
M  V30 4028 C 382.988 0.763483 -1.73111 0
M  V30 4029 O 382.331 1.52601 -1.02268 0
M  V30 4030 C 382.393 -0.891597 -3.48268 0
M  V30 4031 C 382.057 -2.31275 -3.94158 0
M  V30 4032 C 383.054 -3.29179 -4.02415 0
M  V30 4033 C 380.739 -2.64524 -4.27004 0
M  V30 4034 C 382.733 -4.58407 -4.42879 0
M  V30 4035 C 380.42 -3.93974 -4.67149 0
M  V30 4036 C 381.418 -4.90727 -4.75053 0
M  V30 4037 O 381.106 -6.17865 -5.14294 0
M  V30 4038 H 380.838 -0.249251 -0.628371 0
M  V30 4039 H 383.392 -1.32106 -1.5728 0
M  V30 4040 H 381.622 -0.187962 -3.86243 0
M  V30 4041 H 383.311 -0.576957 -4.01779 0
M  V30 4042 H 384.077 -3.04823 -3.77237 0
M  V30 4043 H 379.956 -1.89923 -4.2006 0
M  V30 4044 H 383.5 -5.33926 -4.48964 0
M  V30 4045 H 379.397 -4.18122 -4.91777 0
M  V30 4046 H 380.165 -6.21694 -5.32389 0
M  V30 4047 N 382.828 1.3818 -0.7579 0
M  V30 4048 C 383.758 2.33027 -0.148597 0
M  V30 4049 C 384.739 1.55085 0.69875 0
M  V30 4050 O 385.924 1.83384 0.639053 0
M  V30 4051 C 383.054 3.3928 0.742034 0
M  V30 4052 C 382.008 4.28 -0.00291946 0
M  V30 4053 C 381.334 5.25146 1.00625 0
M  V30 4054 C 382.634 5.08938 -1.17385 0
M  V30 4055 H 384.328 2.84231 -0.940909 0
M  V30 4056 H 381.874 1.36659 -0.453908 0
M  V30 4057 H 383.827 4.046 1.17799 0
M  V30 4058 H 382.551 2.86569 1.56671 0
M  V30 4059 H 381.21 3.64192 -0.419504 0
M  V30 4060 H 380.858 4.68721 1.8251 0
M  V30 4061 H 380.558 5.85361 0.512428 0
M  V30 4062 H 382.082 5.93342 1.44143 0
M  V30 4063 H 383.496 5.67474 -0.815224 0
M  V30 4064 H 381.893 5.7841 -1.59882 0
M  V30 4065 H 382.963 4.42424 -1.98468 0
M  V30 4066 N 384.306 0.507319 1.49211 0
M  V30 4067 C 385.553 -0.0349529 2.0247 0
M  V30 4068 C 385.881 -1.36409 1.38647 0
M  V30 4069 O 385.136 -1.88841 0.513566 0
M  V30 4070 C 385.435 -0.229513 3.56662 0
M  V30 4071 C 385.101 1.02241 4.39156 0
M  V30 4072 C 383.763 1.36557 4.61417 0
M  V30 4073 C 386.115 1.85428 4.871 0
M  V30 4074 C 383.443 2.53999 5.28868 0
M  V30 4075 C 385.795 3.02028 5.55843 0
M  V30 4076 C 384.459 3.36717 5.76349 0
M  V30 4077 H 383.729 -0.0127902 0.74089 0
M  V30 4078 H 386.376 0.668756 1.79443 0
M  V30 4079 H 384.681 -1.0158 3.78403 0
M  V30 4080 H 386.378 -0.663641 3.9547 0
M  V30 4081 H 382.968 0.745124 4.22073 0
M  V30 4082 H 387.152 1.6023 4.69723 0
M  V30 4083 H 382.408 2.81105 5.42946 0
M  V30 4084 H 386.582 3.66808 5.91967 0
M  V30 4085 H 384.209 4.27821 6.28389 0
M  V30 4086 N 385.784 -1.5574 0.241426 0
M  V30 4087 C 386.716 -2.18469 -0.693091 0
M  V30 4088 C 387.729 -1.15942 -1.14286 0
M  V30 4089 O 388.918 -1.42832 -1.07058 0
M  V30 4090 C 386.018 -2.7696 -1.95311 0
M  V30 4091 C 385.191 -4.04853 -1.65568 0
M  V30 4092 C 384.25 -4.47715 -2.76474 0
M  V30 4093 O 383.276 -5.14205 -2.44094 0
M  V30 4094 N 384.478 -4.15044 -4.05855 0
M  V30 4095 H 387.243 -2.99292 -0.156388 0
M  V30 4096 H 384.804 -1.61784 0.0611752 0
M  V30 4097 H 386.796 -3.02594 -2.68736 0
M  V30 4098 H 385.366 -2.00326 -2.39975 0
M  V30 4099 H 384.586 -3.86865 -0.756886 0
M  V30 4100 H 385.874 -4.88246 -1.43153 0
M  V30 4101 H 385.272 -3.61654 -4.34998 0
M  V30 4102 H 383.829 -4.45526 -4.75762 0
M  V30 4103 N 387.262 0.0317525 -1.57568 0
M  V30 4104 C 388.194 1.06073 -2.03178 0
M  V30 4105 C 389.207 1.32627 -0.944132 0
M  V30 4106 O 390.396 1.30162 -1.22148 0
M  V30 4107 C 387.496 2.40297 -2.38978 0
M  V30 4108 C 386.669 2.33137 -3.70089 0
M  V30 4109 C 385.728 3.49787 -3.9311 0
M  V30 4110 O 384.754 3.29403 -4.64201 0
M  V30 4111 N 385.956 4.71562 -3.38541 0
M  V30 4112 H 388.721 0.672006 -2.92069 0
M  V30 4113 H 386.282 0.219745 -1.60402 0
M  V30 4114 H 388.274 3.1705 -2.51518 0
M  V30 4115 H 386.844 2.71024 -1.55771 0
M  V30 4116 H 386.064 1.415 -3.67928 0
M  V30 4117 H 387.352 2.25493 -4.56104 0
M  V30 4118 H 386.75 4.91024 -2.80912 0
M  V30 4119 H 385.307 5.45689 -3.56464 0
M  V30 4120 N 388.74 1.54641 0.303973 0
M  V30 4121 C 390.017 1.64455 1.05896 0
M  V30 4122 C 390.397 0.490923 2.05312 0
M  V30 4123 O 389.745 -0.512685 2.22674 0
M  V30 4124 C 389.955 3.02331 1.74347 0
M  V30 4125 C 391.303 3.59045 2.26653 0
M  V30 4126 O 392.327 3.04764 1.84384 0
M  V30 4127 O 391.186 4.54081 3.04093 0
M  V30 4128 H 388.28 0.666729 0.489287 0
M  V30 4129 H 390.826 1.66986 0.302298 0
M  V30 4130 H 389.598 3.77734 1.02142 0
M  V30 4131 H 389.221 3.03565 2.56777 0
M  V30 4132 N 390.218 -0.567019 1.47046 0
M  V30 4133 C 391.165 -1.67489 1.58796 0
M  V30 4134 C 392.135 -1.60399 0.43144 0
M  V30 4135 O 393.32 -1.79378 0.650233 0
M  V30 4136 C 390.46 -3.05821 1.59899 0
M  V30 4137 C 389.573 -3.2342 2.86397 0
M  V30 4138 C 388.708 -4.52093 2.789 0
M  V30 4139 C 387.747 -4.6309 4.00267 0
M  V30 4140 N 386.884 -5.83106 3.91064 0
M  V30 4141 H 391.724 -1.56785 2.53422 0
M  V30 4142 H 389.261 -0.763896 1.2571 0
M  V30 4143 H 391.219 -3.8591 1.58522 0
M  V30 4144 H 389.849 -3.15384 0.687929 0
M  V30 4145 H 388.901 -2.3683 2.97684 0
M  V30 4146 H 390.213 -3.27412 3.76301 0
M  V30 4147 H 389.367 -5.4043 2.75718 0
M  V30 4148 H 388.106 -4.50565 1.86662 0
M  V30 4149 H 387.111 -3.73168 4.03765 0
M  V30 4150 H 388.336 -4.66386 4.93621 0
M  V30 4151 H 386.282 -5.82546 3.01623 0
M  V30 4152 H 386.199 -5.88434 4.74638 0
M  V30 4153 H 387.467 -6.73831 3.91882 0
M  V30 4154 N 391.696 -1.35014 -0.812953 0
M  V30 4155 C 392.646 -1.23959 -1.91359 0
M  V30 4156 C 393.63 -0.136306 -1.60322 0
M  V30 4157 O 394.822 -0.366925 -1.73155 0
M  V30 4158 C 391.951 -1.00736 -3.28188 0
M  V30 4159 C 391.037 -2.15426 -3.65311 0
M  V30 4160 N 391.428 -3.40612 -3.73921 0
M  V30 4161 C 389.726 -2.06672 -3.95225 0
M  V30 4162 C 390.427 -4.15994 -4.06601 0
M  V30 4163 N 389.403 -3.44685 -4.20349 0
M  V30 4164 H 393.205 -2.18815 -1.96208 0
M  V30 4165 H 390.719 -1.27395 -1.00718 0
M  V30 4166 H 392.716 -0.909052 -4.06868 0
M  V30 4167 H 391.376 -0.067586 -3.2463 0
M  V30 4168 H 392.387 -3.75043 -3.5716 0
M  V30 4169 H 389.064 -1.20511 -3.99729 0
M  V30 4170 H 390.454 -5.24145 -4.20382 0
M  V30 4171 N 393.175 1.03435 -1.18907 0
M  V30 4172 C 394.405 1.8012 -1.01195 0
M  V30 4173 C 394.813 1.8395 0.442613 0
M  V30 4174 O 394.156 1.27836 1.31923 0
M  V30 4175 C 394.218 3.26792 -1.49823 0
M  V30 4176 C 393.882 3.46609 -2.97844 0
M  V30 4177 C 394.879 3.37278 -3.95651 0
M  V30 4178 C 392.564 3.73001 -3.36416 0
M  V30 4179 C 394.558 3.54054 -5.30023 0
M  V30 4180 C 392.245 3.89423 -4.70949 0
M  V30 4181 C 393.243 3.79951 -5.67562 0
M  V30 4182 O 392.931 3.95895 -6.99659 0
M  V30 4183 H 392.663 0.573865 -0.357289 0
M  V30 4184 H 395.217 1.31207 -1.58031 0
M  V30 4185 H 393.447 3.76703 -0.873578 0
M  V30 4186 H 395.136 3.85055 -1.28404 0
M  V30 4187 H 395.902 3.16846 -3.67197 0
M  V30 4188 H 391.781 3.79469 -2.61772 0
M  V30 4189 H 395.325 3.46577 -6.05417 0
M  V30 4190 H 391.222 4.09351 -4.99101 0
M  V30 4191 H 391.99 4.13019 -7.06653 0
M  V30 4192 N 394.653 0.992116 1.22453 0
M  V30 4193 C 395.93 0.583508 1.86694 0
M  V30 4194 C 396.31 -0.9392 1.89056 0
M  V30 4195 O 395.658 -1.82081 1.38053 0
M  V30 4196 C 395.868 1.20304 3.2761 0
M  V30 4197 C 397.216 1.30308 4.0411 0
M  V30 4198 O 398.24 1.15737 3.36873 0
M  V30 4199 O 397.099 1.53615 5.24466 0
M  V30 4200 H 394.193 0.198129 0.802916 0
M  V30 4201 H 396.739 1.08794 1.30238 0
M  V30 4202 H 395.511 2.24461 3.2052 0
M  V30 4203 H 395.134 0.684144 3.9167 0
M  V30 4204 N 396.131 -1.37776 0.765217 0
M  V30 4205 C 397.061 -2.32945 0.160953 0
M  V30 4206 C 398.042 -1.55454 -0.690516 0
M  V30 4207 O 399.227 -1.83721 -0.629318 0
M  V30 4208 C 396.357 -3.39669 -0.724031 0
M  V30 4209 C 395.311 -4.27992 0.0256173 0
M  V30 4210 C 394.637 -5.25673 -0.978383 0
M  V30 4211 C 395.937 -5.08309 1.20082 0
M  V30 4212 H 397.631 -2.83728 0.955969 0
M  V30 4213 H 395.177 -1.36416 0.461149 0
M  V30 4214 H 397.13 -4.05219 -1.15652 0
M  V30 4215 H 395.854 -2.87396 -1.5515 0
M  V30 4216 H 394.513 -3.63964 0.438812 0
M  V30 4217 H 394.161 -4.69682 -1.80022 0
M  V30 4218 H 393.861 -5.85625 -0.481378 0
M  V30 4219 H 395.385 -5.94098 -1.40995 0
M  V30 4220 H 396.799 -5.67034 0.845307 0
M  V30 4221 H 395.196 -5.77554 1.62947 0
M  V30 4222 H 396.266 -4.41365 2.00811 0
M  V30 4223 N 397.609 -0.515225 -1.4894 0
M  V30 4224 C 398.834 0.022727 -2.07388 0
M  V30 4225 C 399.259 1.2876 -1.37122 0
M  V30 4226 O 398.617 1.76067 -0.432431 0
M  V30 4227 C 398.665 0.244869 -3.59768 0
M  V30 4228 O 397.769 1.31667 -3.90817 0
M  V30 4229 H 397.11 -0.0325506 -0.663202 0
M  V30 4230 H 399.64 -0.718918 -1.91553 0
M  V30 4231 H 399.65 0.47205 -4.0526 0
M  V30 4232 H 398.325 -0.679194 -4.10317 0
M  V30 4233 H 396.902 1.07331 -3.5712 0
M  V30 4234 N 399.087 1.5561 -0.249682 0
M  V30 4235 C 400.317 2.03116 0.377803 0
M  V30 4236 C 400.725 1.12822 1.51881 0
M  V30 4237 O 400.068 0.13562 1.83199 0
M  V30 4238 C 400.13 3.46866 0.944693 0
M  V30 4239 C 399.794 4.56955 -0.0644259 0
M  V30 4240 C 400.791 5.12485 -0.874957 0
M  V30 4241 C 398.476 5.01936 -0.19132 0
M  V30 4242 C 400.47 6.11491 -1.79881 0
M  V30 4243 C 398.157 6.00773 -1.11868 0
M  V30 4244 C 399.155 6.5543 -1.92095 0
M  V30 4245 O 398.843 7.5234 -2.83267 0
M  V30 4246 H 398.575 0.669489 0.0935961 0
M  V30 4247 H 401.129 2.02004 -0.371966 0
M  V30 4248 H 399.359 3.45136 1.74407 0
M  V30 4249 H 401.048 3.77856 1.48255 0
M  V30 4250 H 401.814 4.78564 -0.787523 0
M  V30 4251 H 397.693 4.59055 0.423072 0
M  V30 4252 H 401.237 6.54078 -2.42543 0
M  V30 4253 H 397.134 6.34114 -1.20703 0
M  V30 4254 H 397.902 7.69966 -2.7766 0
M  V30 4255 N 400.565 -0.0233959 1.57583 0
M  V30 4256 C 401.842 -0.748794 1.807 0
M  V30 4257 C 402.222 -1.9327 0.849106 0
M  V30 4258 O 401.57 -2.28247 -0.107468 0
M  V30 4259 C 401.78 -1.17651 3.28571 0
M  V30 4260 C 403.128 -1.59008 3.93702 0
M  V30 4261 O 404.152 -1.27094 3.32755 0
M  V30 4262 O 403.011 -2.18264 5.01022 0
M  V30 4263 H 400.105 -0.362578 0.743281 0
M  V30 4264 H 402.651 0.000261958 1.697 0
M  V30 4265 H 401.423 -0.331603 3.89892 0
M  V30 4266 H 401.046 -1.98541 3.44481 0
M  V30 4267 N 402.043 -1.548 -0.295768 0
M  V30 4268 C 403.271 -1.78327 -1.04914 0
M  V30 4269 C 403.686 -0.545316 -1.80753 0
M  V30 4270 O 403.043 0.485013 -1.75937 0
M  V30 4271 C 403.094 -2.99418 -2.02561 0
M  V30 4272 O 402.815 -4.18431 -1.29798 0
M  V30 4273 C 404.316 -3.35375 -2.89895 0
M  V30 4274 H 401.536 -0.594618 -0.310918 0
M  V30 4275 H 404.08 -2.01763 -0.333454 0
M  V30 4276 H 402.235 -2.78175 -2.69624 0
M  V30 4277 H 402.649 -4.86736 -1.95419 0
M  V30 4278 H 404.123 -4.23332 -3.54251 0
M  V30 4279 H 404.6 -2.53761 -3.58472 0
M  V30 4280 H 405.206 -3.58796 -2.28355 0
M  V30 4281 N 403.521 0.559213 -1.47345 0
M  V30 4282 C 404.769 1.31388 -1.53563 0
M  V30 4283 C 405.09 1.93985 -0.198678 0
M  V30 4284 O 404.36 1.79825 0.777167 0
M  V30 4285 H 402.94 0.487901 -0.565652 0
M  V30 4286 H 405.602 0.65315 -1.8363 0
M  V30 4287 H 404.698 2.10844 -2.30111 0
M  V30 4288 N 404.999 1.35443 0.805782 0
M  V30 4289 C 406.276 1.19325 1.54987 0
M  V30 4290 C 406.656 -0.227294 2.09873 0
M  V30 4291 O 406.004 -1.2309 1.92512 0
M  V30 4292 C 406.214 2.26196 2.65775 0
M  V30 4293 C 407.562 2.62043 3.34094 0
M  V30 4294 O 408.586 2.25115 2.76046 0
M  V30 4295 O 407.445 3.25542 4.38958 0
M  V30 4296 H 404.539 0.463623 0.684823 0
M  V30 4297 H 407.085 1.47127 0.845674 0
M  V30 4298 H 405.857 3.21471 2.23096 0
M  V30 4299 H 405.48 1.99667 3.43829 0
M  V30 4300 N 406.477 -1.02803 1.19454 0
M  V30 4301 C 407.424 -2.11099 0.933046 0
M  V30 4302 C 408.394 -1.65571 -0.132447 0
M  V30 4303 O 409.579 -1.90797 0.00987576 0
M  V30 4304 C 406.719 -3.41763 0.478747 0
M  V30 4305 C 405.832 -4.00833 1.6111 0
M  V30 4306 C 404.967 -5.19511 1.10825 0
M  V30 4307 C 404.006 -5.70639 2.21445 0
M  V30 4308 N 403.143 -6.80589 1.72461 0
M  V30 4309 H 407.983 -2.32804 1.86028 0
M  V30 4310 H 405.52 -1.14179 0.927441 0
M  V30 4311 H 407.478 -4.16736 0.196745 0
M  V30 4312 H 406.108 -3.20166 -0.411493 0
M  V30 4313 H 405.16 -3.23066 2.00829 0
M  V30 4314 H 406.472 -4.34794 2.4445 0
M  V30 4315 H 405.626 -6.01645 0.781533 0
M  V30 4316 H 404.365 -4.87086 0.244606 0
M  V30 4317 H 403.37 -4.87116 2.54947 0
M  V30 4318 H 404.595 -6.05102 3.08267 0
M  V30 4319 H 402.541 -6.50016 0.884056 0
M  V30 4320 H 402.458 -7.13681 2.49389 0
M  V30 4321 H 403.726 -7.66317 1.42755 0
M  V30 4322 N 407.956 -0.998596 -1.21925 0
M  V30 4323 C 408.919 -0.558679 -2.22287 0
M  V30 4324 C 409.919 0.361525 -1.56683 0
M  V30 4325 O 411.109 0.152695 -1.73529 0
M  V30 4326 C 408.241 0.18661 -3.40389 0
M  V30 4327 H 409.434 -1.4463 -2.62721 0
M  V30 4328 H 406.987 -0.786413 -1.35075 0
M  V30 4329 H 407.722 1.08996 -3.05435 0
M  V30 4330 H 407.507 -0.474188 -3.89222 0
M  V30 4331 H 408.997 0.482367 -4.14805 0
M  V30 4332 N 409.434 1.37368 -0.772513 0
M  V30 4333 C 410.364 2.32856 -0.173304 0
M  V30 4334 C 411.345 1.55818 0.682262 0
M  V30 4335 O 412.53 1.84052 0.619566 0
M  V30 4336 C 409.66 3.40048 0.706007 0
M  V30 4337 C 408.614 4.27973 -0.0483144 0
M  V30 4338 C 407.94 5.26184 0.950491 0
M  V30 4339 C 409.24 5.07665 -1.22776 0
M  V30 4340 H 410.934 2.83217 -0.971002 0
M  V30 4341 H 408.48 1.3617 -0.468377 0
M  V30 4342 H 410.433 4.05827 1.13501 0
M  V30 4343 H 409.157 2.88214 1.53623 0
M  V30 4344 H 407.816 3.63726 -0.458107 0
M  V30 4345 H 407.464 4.7063 1.77529 0
M  V30 4346 H 407.164 5.85872 0.450314 0
M  V30 4347 H 408.688 5.94838 1.37842 0
M  V30 4348 H 410.102 5.66578 -0.875366 0
M  V30 4349 H 408.499 5.76681 -1.66007 0
M  V30 4350 H 409.569 4.40294 -2.03149 0
M  V30 4351 N 410.912 0.523116 1.48665 0
M  V30 4352 C 411.844 -0.280421 2.27478 0
M  V30 4353 C 412.857 -0.910694 1.34945 0
M  V30 4354 O 414.046 -0.790295 1.60052 0
M  V30 4355 C 411.146 -1.41171 3.08097 0
M  V30 4356 C 410.319 -0.884642 4.28361 0
M  V30 4357 C 409.378 -1.89622 4.90846 0
M  V30 4358 O 408.404 -1.4559 5.50265 0
M  V30 4359 N 409.606 -3.22801 4.82472 0
M  V30 4360 H 412.371 0.395481 2.97079 0
M  V30 4361 H 409.932 0.357018 1.57915 0
M  V30 4362 H 411.924 -2.08645 3.4677 0
M  V30 4363 H 410.494 -1.99139 2.40961 0
M  V30 4364 H 409.714 -0.0341177 3.94185 0
M  V30 4365 H 411.002 -0.511268 5.06225 0
M  V30 4366 H 410.4 -3.61246 4.35336 0
M  V30 4367 H 408.957 -3.85927 5.25265 0
M  V30 4368 N 412.39 -1.55475 0.257931 0
M  V30 4369 C 413.63 -2.01112 -0.365129 0
M  V30 4370 C 413.994 -1.1423 -1.54323 0
M  V30 4371 O 415.195 -1.49371 -2.23477 0
M  V30 4372 C 413.466 -3.49353 -0.754117 0
M  V30 4373 S 415.025 -4.16992 -1.36614 0
M  V30 4374 H 411.843 -0.701737 -0.114397 0
M  V30 4375 H 414.445 -1.91855 0.375747 0
M  V30 4376 H 413.149 -4.10246 0.112441 0
M  V30 4377 H 412.68 -3.6256 -1.52689 0
M  V30 4378 H 414.695 -4.19191 -2.65505 0
M  V30 4379 N 413.868 0.0150385 -1.57593 0
M  V30 4380 C 415.116 0.701613 -1.8953 0
M  V30 4381 C 415.437 1.75139 -0.857396 0
M  V30 4382 O 414.707 1.95607 0.107194 0
M  V30 4383 H 413.287 0.26213 -0.699498 0
M  V30 4384 H 415.949 -0.0223304 -1.94887 0
M  V30 4385 H 415.045 1.18236 -2.88837 0
M  V30 4386 N 415.346 1.54954 0.287554 0
M  V30 4387 C 416.762 1.46469 0.633964 0
M  V30 4388 C 416.962 0.666865 1.90145 0
M  V30 4389 O 416.018 0.179906 2.51858 0
M  V30 4390 C 417.331 2.90556 0.774454 0
M  V30 4391 C 418.879 3.00681 0.869462 0
M  V30 4392 C 419.354 4.45993 1.04184 0
M  V30 4393 N 420.845 4.4976 1.10772 0
M  V30 4394 C 421.58 5.59393 1.25964 0
M  V30 4395 N 421.076 6.78923 1.37968 0
M  V30 4396 N 422.869 5.47107 1.28959 0
M  V30 4397 H 415.02 2.05288 -0.545041 0
M  V30 4398 H 417.283 0.930305 -0.182308 0
M  V30 4399 H 416.989 3.51594 -0.086207 0
M  V30 4400 H 416.863 3.38743 1.6593 0
M  V30 4401 H 419.25 2.39749 1.7206 0
M  V30 4402 H 419.331 2.55769 -0.0396831 0
M  V30 4403 H 418.975 5.07524 0.195422 0
M  V30 4404 H 418.905 4.88548 1.96542 0
M  V30 4405 H 421.396 3.63651 1.02794 0
M  V30 4406 H 421.709 7.58231 1.49353 0
M  V30 4407 H 420.054 6.81763 1.34999 0
M  V30 4408 H 423.245 4.52668 1.19202 0
M  V30 4409 H 423.418 6.32595 1.40455 0
M  V30 4410 N 416.824 -0.551391 1.4764 0
M  V30 4411 C 417.774 -1.65362 1.56969 0
M  V30 4412 C 418.758 -1.55098 0.428189 0
M  V30 4413 O 419.95 -1.63481 0.678441 0
M  V30 4414 C 417.079 -3.04129 1.59249 0
M  V30 4415 C 416.165 -3.19576 2.78804 0
M  V30 4416 N 416.556 -3.05067 4.03445 0
M  V30 4417 C 414.854 -3.50588 2.75688 0
M  V30 4418 C 415.555 -3.2336 4.83543 0
M  V30 4419 N 414.531 -3.4996 4.15968 0
M  V30 4420 H 418.333 -1.52722 2.51104 0
M  V30 4421 H 415.847 -0.756303 1.43714 0
M  V30 4422 H 417.844 -3.83278 1.64024 0
M  V30 4423 H 416.504 -3.17877 0.662148 0
M  V30 4424 H 417.515 -2.82273 4.34215 0
M  V30 4425 H 414.192 -3.70827 1.91817 0
M  V30 4426 H 415.582 -3.17061 5.92387 0
M  V30 4427 N 418.302 -1.35869 -0.798587 0
M  V30 4428 C 419.548 -1.2978 -1.55836 0
M  V30 4429 C 419.881 0.125322 -1.93795 0
M  V30 4430 O 419.156 1.07658 -1.61987 0
M  V30 4431 C 419.439 -2.21188 -2.84162 0
M  V30 4432 C 419.292 -3.72155 -2.52628 0
M  V30 4433 C 420.611 -2.11545 -3.85923 0
M  V30 4434 H 417.73 -0.472769 -0.565383 0
M  V30 4435 H 420.372 -1.66341 -0.918192 0
M  V30 4436 H 418.522 -1.90139 -3.38791 0
M  V30 4437 H 420.194 -4.13682 -2.04121 0
M  V30 4438 H 418.437 -3.92042 -1.85704 0
M  V30 4439 H 419.108 -4.31511 -3.44242 0
M  V30 4440 H 421.584 -2.38855 -3.40716 0
M  V30 4441 H 420.46 -2.77688 -4.73477 0
M  V30 4442 H 420.721 -1.09987 -4.282 0
M  V30 4443 N 419.78 1.02168 -1.19998 0
M  V30 4444 C 421.057 1.72816 -0.916191 0
M  V30 4445 C 421.437 2.03081 0.576325 0
M  V30 4446 O 420.785 1.69122 1.53656 0
M  V30 4447 C 420.995 2.9997 -1.78378 0
M  V30 4448 C 422.343 3.73336 -2.02251 0
M  V30 4449 O 423.367 3.09914 -1.75589 0
M  V30 4450 O 422.226 4.87371 -2.47249 0
M  V30 4451 H 419.32 0.752924 -0.342103 0
M  V30 4452 H 421.866 1.08062 -1.30846 0
M  V30 4453 H 420.638 2.73888 -2.79466 0
M  V30 4454 H 420.261 3.72464 -1.39126 0
M  V30 4455 N 421.258 1.00505 1.21394 0
M  V30 4456 C 422.504 0.688793 1.90745 0
M  V30 4457 C 422.837 -0.778486 1.77914 0
M  V30 4458 O 422.112 -1.56433 1.15581 0
M  V30 4459 C 422.395 1.11063 3.42545 0
M  V30 4460 C 422.248 2.63737 3.64367 0
M  V30 4461 C 423.567 0.673059 4.34923 0
M  V30 4462 H 420.686 0.251702 0.692687 0
M  V30 4463 H 423.328 1.25074 1.43026 0
M  V30 4464 H 421.478 0.632508 3.83317 0
M  V30 4465 H 423.15 3.19313 3.32922 0
M  V30 4466 H 421.393 3.05248 3.08231 0
M  V30 4467 H 422.064 2.88305 4.70727 0
M  V30 4468 H 424.54 1.08392 4.01734 0
M  V30 4469 H 423.416 0.996383 5.39781 0
M  V30 4470 H 423.677 -0.425808 4.40045 0
M  V30 4471 N 422.737 -1.36956 0.779787 0
M  V30 4472 C 423.984 -1.99491 0.347766 0
M  V30 4473 C 424.312 -1.61898 -1.07793 0
M  V30 4474 O 423.567 -0.86071 -1.75756 0
M  V30 4475 C 423.866 -3.54585 0.447686 0
M  V30 4476 C 423.532 -4.1197 1.83279 0
M  V30 4477 C 422.194 -4.27356 2.2118 0
M  V30 4478 C 424.546 -4.43354 2.74019 0
M  V30 4479 C 421.874 -4.71432 3.4924 0
M  V30 4480 C 424.226 -4.88858 4.01497 0
M  V30 4481 C 422.89 -5.0245 4.39432 0
M  V30 4482 H 422.16 -0.729991 0.127257 0
M  V30 4483 H 424.807 -1.63599 0.995376 0
M  V30 4484 H 423.112 -3.90773 -0.283447 0
M  V30 4485 H 424.809 -4.00888 0.0945948 0
M  V30 4486 H 421.399 -4.00428 1.52825 0
M  V30 4487 H 425.583 -4.31045 2.45995 0
M  V30 4488 H 420.839 -4.80141 3.78516 0
M  V30 4489 H 425.013 -5.12108 4.71931 0
M  V30 4490 H 422.64 -5.36362 5.38721 0
M  V30 4491 N 424.215 -0.530993 -1.48385 0
M  V30 4492 C 425.162 0.231223 -2.29639 0
M  V30 4493 C 426.132 0.932864 -1.37429 0
M  V30 4494 O 427.317 0.933692 -1.66394 0
M  V30 4495 C 424.457 1.27155 -3.2082 0
M  V30 4496 C 423.57 0.578655 -4.28107 0
M  V30 4497 C 422.705 1.602 -5.06467 0
M  V30 4498 C 421.744 0.892625 -6.05556 0
M  V30 4499 N 420.881 1.86157 -6.76971 0
M  V30 4500 H 425.721 -0.467848 -2.94305 0
M  V30 4501 H 423.258 -0.242556 -1.45086 0
M  V30 4502 H 425.216 1.88703 -3.72085 0
M  V30 4503 H 423.846 1.939 -2.58075 0
M  V30 4504 H 422.898 -0.150782 -3.80101 0
M  V30 4505 H 424.21 0.0217065 -4.98795 0
M  V30 4506 H 423.364 2.29173 -5.61751 0
M  V30 4507 H 422.103 2.19285 -4.35621 0
M  V30 4508 H 421.108 0.188829 -5.49476 0
M  V30 4509 H 422.333 0.307878 -6.78402 0
M  V30 4510 H 420.279 2.44147 -6.08875 0
M  V30 4511 H 420.196 1.35608 -7.43738 0
M  V30 4512 H 421.464 2.54325 -7.36844 0
M  V30 4513 N 425.693 1.55336 -0.266172 0
M  V30 4514 C 426.623 2.25146 0.618981 0
M  V30 4515 C 427.604 1.23845 1.16604 0
M  V30 4516 O 428.789 1.52544 1.20183 0
M  V30 4517 C 425.919 2.96572 1.80728 0
M  V30 4518 C 424.873 4.04726 1.39215 0
M  V30 4519 C 424.199 4.63678 2.66283 0
M  V30 4520 C 425.499 5.19407 0.548942 0
M  V30 4521 H 427.193 2.99377 0.0368116 0
M  V30 4522 H 424.739 1.43991 0.0162651 0
M  V30 4523 H 426.692 3.44116 2.43232 0
M  V30 4524 H 425.416 2.19861 2.41514 0
M  V30 4525 H 424.075 3.57979 0.790351 0
M  V30 4526 H 423.723 3.83646 3.25308 0
M  V30 4527 H 423.423 5.367 2.39222 0
M  V30 4528 H 424.947 5.13967 3.29651 0
M  V30 4529 H 426.361 5.63059 1.07876 0
M  V30 4530 H 424.758 5.98936 0.373593 0
M  V30 4531 H 425.828 4.8295 -0.434394 0
M  V30 4532 N 427.171 -0.0066808 1.57599 0
M  V30 4533 C 428.417 -0.68835 1.91398 0
M  V30 4534 C 428.772 -1.7175 0.86716 0
M  V30 4535 O 428.065 -1.91215 -0.121475 0
M  V30 4536 C 428.259 -1.37939 3.29708 0
M  V30 4537 C 428.088 -0.418689 4.47747 0
M  V30 4538 C 426.858 -0.031526 5.0529 0
M  V30 4539 C 429.056 0.312301 5.13351 0
M  V30 4540 N 427.038 0.928088 6.06844 0
M  V30 4541 C 428.409 1.12682 6.09674 0
M  V30 4542 C 430.464 0.376853 4.96472 0
M  V30 4543 C 429.167 2 6.90936 0
M  V30 4544 C 431.193 1.23723 5.78314 0
M  V30 4545 C 430.555 2.03962 6.74225 0
M  V30 4546 H 426.654 -0.225292 0.748844 0
M  V30 4547 H 429.238 0.0520973 1.9463 0
M  V30 4548 H 427.409 -2.09017 3.27363 0
M  V30 4549 H 429.141 -2.01522 3.50957 0
M  V30 4550 H 425.896 -0.398485 4.71921 0
M  V30 4551 H 426.32 1.40307 6.62301 0
M  V30 4552 H 430.962 -0.22921 4.22178 0
M  V30 4553 H 428.68 2.61676 7.64559 0
M  V30 4554 H 432.266 1.291 5.67296 0
M  V30 4555 H 431.146 2.69461 7.36451 0
M  V30 4556 N 428.649 -1.55105 -0.279332 0
M  V30 4557 C 429.579 -1.90557 -1.34945 0
M  V30 4558 C 430.56 -0.766738 -1.51839 0
M  V30 4559 O 431.745 -1.02434 -1.64988 0
M  V30 4560 C 428.875 -2.17193 -2.71006 0
M  V30 4561 C 427.829 -3.33021 -2.68851 0
M  V30 4562 C 427.155 -3.45123 -4.08405 0
M  V30 4563 C 428.455 -4.69578 -2.28678 0
M  V30 4564 H 430.149 -2.80188 -1.05522 0
M  V30 4565 H 427.695 -1.34811 -0.506173 0
M  V30 4566 H 429.648 -2.40581 -3.45975 0
M  V30 4567 H 428.372 -1.24355 -3.01999 0
M  V30 4568 H 427.031 -3.0959 -1.9634 0
M  V30 4569 H 426.679 -2.49762 -4.3661 0
M  V30 4570 H 426.379 -4.22995 -4.07859 0
M  V30 4571 H 427.903 -3.70796 -4.85121 0
M  V30 4572 H 429.317 -4.92553 -2.93368 0
M  V30 4573 H 427.714 -5.5032 -2.39306 0
M  V30 4574 H 428.784 -4.68828 -1.23807 0
M  V30 4575 N 430.127 0.543554 -1.4793 0
M  V30 4576 C 431.06 1.66556 -1.55995 0
M  V30 4577 C 432.038 1.57315 -0.411205 0
M  V30 4578 O 433.222 1.7798 -0.620922 0
M  V30 4579 C 430.349 3.04883 -1.47527 0
M  V30 4580 C 429.395 3.32526 -2.67074 0
M  V30 4581 S 430.228 3.20282 -4.29162 0
M  V30 4582 C 431.384 4.61079 -4.23269 0
M  V30 4583 H 431.617 1.59462 -2.50917 0
M  V30 4584 H 429.15 0.725456 -1.36296 0
M  V30 4585 H 431.108 3.84665 -1.43328 0
M  V30 4586 H 429.769 3.09429 -0.539665 0
M  V30 4587 H 428.962 4.33403 -2.5725 0
M  V30 4588 H 428.564 2.60389 -2.68466 0
M  V30 4589 H 430.856 5.52318 -3.92365 0
M  V30 4590 H 431.799 4.75959 -5.24279 0
M  V30 4591 H 432.207 4.39766 -3.5393 0
M  V30 4592 N 431.605 1.3629 0.791371 0
M  V30 4593 C 432.851 1.31613 1.5508 0
M  V30 4594 C 433.206 -0.104372 1.92117 0
M  V30 4595 O 432.499 -1.05845 1.5971 0
M  V30 4596 C 432.693 2.17068 2.8393 0
M  V30 4597 C 432.522 3.67285 2.59484 0
M  V30 4598 C 431.292 4.36469 2.54604 0
M  V30 4599 C 433.49 4.60595 2.28816 0
M  V30 4600 N 431.472 5.7234 2.22036 0
M  V30 4601 C 432.843 5.847 2.06218 0
M  V30 4602 C 434.898 4.4918 2.14806 0
M  V30 4603 C 433.601 6.98671 1.71028 0
M  V30 4604 C 435.627 5.63017 1.81014 0
M  V30 4605 C 434.989 6.86159 1.59263 0
M  V30 4606 H 431.088 0.536878 0.568582 0
M  V30 4607 H 433.672 1.71323 0.925007 0
M  V30 4608 H 431.843 1.79605 3.44378 0
M  V30 4609 H 433.575 2.03795 3.49642 0
M  V30 4610 H 430.33 3.89249 2.69782 0
M  V30 4611 H 430.754 6.44093 2.08503 0
M  V30 4612 H 435.396 3.54564 2.30313 0
M  V30 4613 H 433.114 7.9324 1.54259 0
M  V30 4614 H 436.7 5.56146 1.70861 0
M  V30 4615 H 435.58 7.72753 1.335 0
M  V30 4616 N 433.083 -1.0153 1.20538 0
M  V30 4617 C 434.499 -1.27461 0.96051 0
M  V30 4618 C 434.699 -1.98273 -0.359193 0
M  V30 4619 O 433.755 -2.27886 -1.0874 0
M  V30 4620 C 435.068 -2.10837 2.14402 0
M  V30 4621 C 436.616 -2.24099 2.18515 0
M  V30 4622 C 437.091 -3.10852 3.36355 0
M  V30 4623 N 438.582 -3.18441 3.36377 0
M  V30 4624 C 439.317 -3.85795 4.24205 0
M  V30 4625 N 438.813 -4.55264 5.22213 0
M  V30 4626 N 440.606 -3.82331 4.12043 0
M  V30 4627 H 432.757 -0.539907 2.05423 0
M  V30 4628 H 435.02 -0.30092 0.898972 0
M  V30 4629 H 434.726 -1.66144 3.09983 0
M  V30 4630 H 434.6 -3.11576 2.12604 0
M  V30 4631 H 436.987 -2.68016 1.23497 0
M  V30 4632 H 437.068 -1.22865 2.24361 0
M  V30 4633 H 436.712 -2.6764 4.31661 0
M  V30 4634 H 436.642 -4.12177 3.27746 0
M  V30 4635 H 439.133 -2.68978 2.65442 0
M  V30 4636 H 439.446 -5.04331 5.85551 0
M  V30 4637 H 437.791 -4.54085 5.26148 0
M  V30 4638 H 440.982 -3.27207 3.34743 0
M  V30 4639 H 441.155 -4.34547 4.807 0
M  V30 4640 N 434.561 -1.01147 -1.20859 0
M  V30 4641 C 435.524 -0.582224 -2.21682 0
M  V30 4642 C 436.524 0.344887 -1.57058 0
M  V30 4643 O 437.714 0.134281 -1.73682 0
M  V30 4644 C 434.846 0.150496 -3.40568 0
M  V30 4645 H 436.039 -1.47408 -2.61172 0
M  V30 4646 H 433.592 -0.800695 -1.34233 0
M  V30 4647 H 434.327 1.0575 -3.06574 0
M  V30 4648 H 434.112 -0.515444 -3.88697 0
M  V30 4649 H 435.602 0.438344 -4.15293 0
M  V30 4650 N 436.039 1.36541 -0.78704 0
M  V30 4651 C 436.986 2.30082 -0.181901 0
M  V30 4652 C 437.956 1.5186 0.672896 0
M  V30 4653 O 439.141 1.80374 0.622072 0
M  V30 4654 C 436.281 3.3835 0.679197 0
M  V30 4655 C 435.394 4.31565 -0.193882 0
M  V30 4656 C 434.529 5.26915 0.673364 0
M  V30 4657 C 433.568 6.11769 -0.201315 0
M  V30 4658 N 432.705 6.99315 0.624777 0
M  V30 4659 H 437.545 2.81248 -0.985064 0
M  V30 4660 H 435.082 1.38437 -0.497342 0
M  V30 4661 H 437.04 3.99767 1.19341 0
M  V30 4662 H 435.67 2.8851 1.44781 0
M  V30 4663 H 434.722 3.71323 -0.826044 0
M  V30 4664 H 436.034 4.91191 -0.867937 0
M  V30 4665 H 435.188 5.9361 1.25348 0
M  V30 4666 H 433.927 4.67737 1.38105 0
M  V30 4667 H 432.932 5.44039 -0.793849 0
M  V30 4668 H 434.157 6.73022 -0.906568 0
M  V30 4669 H 432.103 6.42648 1.3168 0
M  V30 4670 H 432.02 7.56 0.00835237 0
M  V30 4671 H 433.288 7.70382 1.18879 0
M  V30 4672 N 437.518 0.538854 1.48102 0
M  V30 4673 C 438.766 0.00798599 2.02098 0
M  V30 4674 C 439.087 -1.33922 1.41739 0
M  V30 4675 O 438.357 -1.86932 0.585934 0
M  V30 4676 H 436.937 -3.62179e-05 0.747 0
M  V30 4677 H 439.599 0.7047 1.81714 0
M  V30 4678 H 438.695 -0.0937672 3.11959 0
M  V30 4679 N 438.996 -1.55193 0.274407 0
M  V30 4680 C 440.224 -2.03987 -0.345943 0
M  V30 4681 C 440.639 -1.15279 -1.4952 0
M  V30 4682 O 439.996 -0.172759 -1.8168 0
M  V30 4683 C 440.047 -3.51898 -0.827631 0
M  V30 4684 O 439.768 -4.37231 0.275855 0
M  V30 4685 C 441.269 -4.16577 -1.51587 0
M  V30 4686 H 438.489 -0.666335 -0.0789892 0
M  V30 4687 H 441.033 -2.00423 0.406294 0
M  V30 4688 H 439.188 -3.55909 -1.52996 0
M  V30 4689 H 439.602 -5.24415 -0.0943638 0
M  V30 4690 H 441.076 -5.21678 -1.80433 0
M  V30 4691 H 441.553 -3.64707 -2.44716 0
M  V30 4692 H 442.159 -4.16568 -0.857409 0
M  V30 4693 N 440.474 -0.00167713 -1.576 0
M  V30 4694 C 441.702 0.693759 -1.94922 0
M  V30 4695 C 442.117 1.67215 -0.876626 0
M  V30 4696 O 441.474 1.81929 0.144279 0
M  V30 4697 C 441.525 1.42416 -3.32265 0
M  V30 4698 O 441.246 0.485014 -4.35407 0
M  V30 4699 C 442.747 2.21395 -3.84056 0
M  V30 4700 H 439.967 0.193118 -0.642609 0
M  V30 4701 H 442.511 -0.0532952 -2.04431 0
M  V30 4702 H 440.666 2.12284 -3.24059 0
M  V30 4703 H 441.08 1.00053 -5.14868 0
M  V30 4704 H 442.554 2.67996 -4.82578 0
M  V30 4705 H 443.031 3.04142 -3.16851 0
M  V30 4706 H 443.637 1.56542 -3.95443 0
M  V30 4707 N 441.952 1.55251 0.271103 0
M  V30 4708 C 443.2 1.75599 1.00047 0
M  V30 4709 C 443.521 0.561188 1.8675 0
M  V30 4710 O 442.791 -0.423846 1.9126 0
M  V30 4711 H 441.371 0.647562 0.372387 0
M  V30 4712 H 444.033 1.92656 0.294876 0
M  V30 4713 H 443.129 2.65766 1.6363 0
M  V30 4714 N 443.43 -0.535701 1.48216 0
M  V30 4715 C 444.677 -1.29183 1.55942 0
M  V30 4716 C 445.005 -1.93125 0.230857 0
M  V30 4717 O 444.26 -1.79556 -0.778331 0
M  V30 4718 C 444.559 -2.4068 2.64212 0
M  V30 4719 C 444.225 -1.94428 4.06827 0
M  V30 4720 C 442.887 -1.81532 4.45645 0
M  V30 4721 C 445.239 -1.59405 4.96225 0
M  V30 4722 C 442.567 -1.31939 5.71672 0
M  V30 4723 C 444.919 -1.11276 6.22736 0
M  V30 4724 C 443.583 -0.969924 6.60416 0
M  V30 4725 H 442.853 -0.472715 0.570632 0
M  V30 4726 H 445.5 -0.598437 1.81909 0
M  V30 4727 H 443.805 -3.15666 2.32083 0
M  V30 4728 H 445.502 -2.98822 2.67407 0
M  V30 4729 H 442.092 -2.05415 3.76168 0
M  V30 4730 H 446.276 -1.68231 4.66917 0
M  V30 4731 H 441.532 -1.19562 5.99596 0
M  V30 4732 H 445.706 -0.832453 6.91407 0
M  V30 4733 H 443.333 -0.583436 7.57958 0
M  V30 4734 N 444.908 -1.36708 -0.784132 0
M  V30 4735 C 445.818 -1.3363 -1.92822 0
M  V30 4736 C 446.834 -0.237686 -1.72369 0
M  V30 4737 O 448.01 -0.470962 -1.95816 0
M  V30 4738 C 445.075 -1.13011 -3.27764 0
M  V30 4739 C 444.136 -2.32397 -3.60957 0
M  V30 4740 C 443.369 -2.12752 -4.89461 0
M  V30 4741 O 443.592 -1.10541 -5.59586 0
M  V30 4742 O 442.526 -3.00653 -5.21432 0
M  V30 4743 H 446.352 -2.29964 -1.98369 0
M  V30 4744 H 443.937 -1.1731 -0.925136 0
M  V30 4745 H 445.819 -1.03451 -4.08504 0
M  V30 4746 H 444.494 -0.19743 -3.23097 0
M  V30 4747 H 443.401 -2.47527 -2.80502 0
M  V30 4748 H 444.734 -3.2419 -3.70354 0
M  V30 4749 N 446.386 1.0089 -1.21074 0
M  V30 4750 C 447.349 2.0775 -0.968129 0
M  V30 4751 C 448.349 1.6069 0.0593445 0
M  V30 4752 O 449.539 1.73293 -0.177525 0
M  V30 4753 C 446.671 3.37794 -0.459108 0
M  V30 4754 H 447.864 2.30707 -1.9161 0
M  V30 4755 H 445.417 1.17807 -1.02719 0
M  V30 4756 H 446.152 3.20516 0.49397 0
M  V30 4757 H 445.937 3.7328 -1.20019 0
M  V30 4758 H 447.427 4.16454 -0.309099 0
M  V30 4759 N 447.864 1.01787 1.20321 0
M  V30 4760 C 448.814 0.559976 2.21016 0
M  V30 4761 C 449.798 -0.385366 1.56217 0
M  V30 4762 O 450.99 -0.208126 1.75772 0
M  V30 4763 C 448.119 -0.0990553 3.43157 0
M  V30 4764 C 447.205 0.86807 4.15121 0
M  V30 4765 N 447.596 2.0261 4.63447 0
M  V30 4766 C 445.894 0.689162 4.40643 0
M  V30 4767 C 446.595 2.63518 5.18588 0
M  V30 4768 N 445.571 1.91569 5.08726 0
M  V30 4769 H 449.373 1.44281 2.56048 0
M  V30 4770 H 446.887 0.883381 1.36272 0
M  V30 4771 H 448.884 -0.444643 4.14522 0
M  V30 4772 H 447.544 -0.977709 3.0963 0
M  V30 4773 H 448.555 2.40598 4.58621 0
M  V30 4774 H 445.232 -0.14133 4.17261 0
M  V30 4775 H 446.622 3.61527 5.66346 0
M  V30 4776 N 449.342 -1.36122 0.79427 0
M  V30 4777 C 450.588 -1.99406 0.369452 0
M  V30 4778 C 450.921 -1.62886 -1.05743 0
M  V30 4779 O 450.196 -0.886053 -1.73145 0
M  V30 4780 C 450.479 -3.56046 0.538833 0
M  V30 4781 C 450.332 -4.02404 2.00976 0
M  V30 4782 C 451.651 -4.40079 -0.0431359 0
M  V30 4783 H 448.77 -0.724397 0.135712 0
M  V30 4784 H 451.412 -1.61461 1.00151 0
M  V30 4785 H 449.562 -3.885 0.000771004 0
M  V30 4786 H 451.234 -3.80415 2.60926 0
M  V30 4787 H 449.477 -3.53765 2.51063 0
M  V30 4788 H 450.148 -5.11344 2.07922 0
M  V30 4789 H 452.624 -4.14013 0.416228 0
M  V30 4790 H 451.5 -5.48799 0.105374 0
M  V30 4791 H 451.761 -4.27264 -1.13571 0
M  V30 4792 N 450.82 -0.546701 -1.47814 0
M  V30 4793 C 452.097 0.0464413 -1.95545 0
M  V30 4794 C 452.477 1.4962 -1.48919 0
M  V30 4795 O 451.825 2.16752 -0.723232 0
M  V30 4796 C 452.035 -0.0881298 -3.48889 0
M  V30 4797 C 453.383 0.0626059 -4.24554 0
M  V30 4798 O 454.407 -0.0151555 -3.56197 0
M  V30 4799 O 453.266 0.228071 -5.46024 0
M  V30 4800 H 450.36 0.0700004 -0.824032 0
M  V30 4801 H 452.906 -0.612482 -1.58262 0
M  V30 4802 H 451.678 -1.09737 -3.75597 0
M  V30 4803 H 451.301 0.608886 -3.9291 0
M  V30 4804 N 452.299 1.55045 -0.282633 0
M  V30 4805 C 453.246 2.22822 0.601566 0
M  V30 4806 C 454.216 1.20431 1.14392 0
M  V30 4807 O 455.401 1.48996 1.19184 0
M  V30 4808 C 452.541 2.95873 1.77632 0
M  V30 4809 C 451.654 4.12999 1.26711 0
M  V30 4810 C 450.789 4.73676 2.40426 0
M  V30 4811 C 449.828 5.82981 1.86545 0
M  V30 4812 N 448.965 6.3769 2.93762 0
M  V30 4813 H 453.805 2.97995 0.0169528 0
M  V30 4814 H 451.342 1.471 -0.00339964 0
M  V30 4815 H 453.3 3.36447 2.46697 0
M  V30 4816 H 451.93 2.2311 2.33285 0
M  V30 4817 H 450.982 3.77494 0.469314 0
M  V30 4818 H 452.294 4.91803 0.832518 0
M  V30 4819 H 451.448 5.17008 3.17471 0
M  V30 4820 H 450.187 3.94164 2.87203 0
M  V30 4821 H 449.192 5.39092 1.07983 0
M  V30 4822 H 450.417 6.64366 1.40694 0
M  V30 4823 H 448.363 5.61069 3.39908 0
M  V30 4824 H 448.28 7.11788 2.54744 0
M  V30 4825 H 449.548 6.8568 3.7076 0
M  V30 4826 N 453.777 0.010035 1.57597 0
M  V30 4827 C 455.017 -0.677084 1.9286 0
M  V30 4828 C 455.381 -1.70377 0.885192 0
M  V30 4829 O 456.582 -2.44199 1.12339 0
M  V30 4830 C 454.853 -1.29452 3.33132 0
M  V30 4831 S 456.412 -2.00537 3.90295 0
M  V30 4832 H 453.23 -0.223409 0.674989 0
M  V30 4833 H 455.832 0.0691289 1.95378 0
M  V30 4834 H 454.536 -0.534593 4.06903 0
M  V30 4835 H 454.067 -2.07845 3.34012 0
M  V30 4836 H 456.082 -3.28168 3.72183 0
M  V30 4837 N 455.255 -1.55392 -0.262866 0
M  V30 4838 C 456.185 -1.91978 -1.32917 0
M  V30 4839 C 457.166 -0.7828 -1.51017 0
M  V30 4840 O 458.351 -1.04178 -1.63892 0
M  V30 4841 C 455.481 -2.20055 -2.68687 0
M  V30 4842 C 454.435 -3.35854 -2.65304 0
M  V30 4843 C 453.761 -3.49435 -4.04721 0
M  V30 4844 C 455.061 -4.71977 -2.23685 0
M  V30 4845 H 456.755 -2.81292 -1.02544 0
M  V30 4846 H 454.301 -1.3534 -0.491846 0
M  V30 4847 H 456.254 -2.44237 -3.43404 0
M  V30 4848 H 454.978 -1.27551 -3.00663 0
M  V30 4849 H 453.637 -3.11655 -1.93045 0
M  V30 4850 H 453.285 -2.54379 -4.33936 0
M  V30 4851 H 452.985 -4.27297 -4.0335 0
M  V30 4852 H 454.509 -3.7592 -4.81161 0
M  V30 4853 H 455.923 -4.95637 -2.88127 0
M  V30 4854 H 454.32 -5.52828 -2.33456 0
M  V30 4855 H 455.39 -4.70115 -1.18827 0
M  V30 4856 N 456.733 0.527833 -1.48498 0
M  V30 4857 C 457.643 1.65907 -1.65867 0
M  V30 4858 C 458.659 1.6537 -0.541192 0
M  V30 4859 O 459.835 1.84282 -0.812534 0
M  V30 4860 C 456.9 3.02364 -1.69637 0
M  V30 4861 C 455.961 3.1374 -2.93028 0
M  V30 4862 C 455.194 4.43688 -2.96609 0
M  V30 4863 O 455.417 5.30913 -2.08538 0
M  V30 4864 O 454.351 4.59475 -3.88802 0
M  V30 4865 H 458.177 1.5419 -2.61647 0
M  V30 4866 H 455.762 0.701163 -1.31924 0
M  V30 4867 H 457.644 3.83515 -1.74625 0
M  V30 4868 H 456.319 3.14401 -0.770312 0
M  V30 4869 H 455.226 2.31877 -2.93571 0
M  V30 4870 H 456.559 3.06621 -3.85026 0
M  V30 4871 N 458.211 1.37122 0.776871 0
M  V30 4872 C 459.141 1.35164 1.90402 0
M  V30 4873 C 460.122 0.221069 1.68657 0
M  V30 4874 O 461.307 0.420642 1.8959 0
M  V30 4875 C 458.437 1.15274 3.27611 0
M  V30 4876 C 457.391 2.25289 3.63908 0
M  V30 4877 C 456.717 1.90527 4.99603 0
M  V30 4878 C 458.017 3.67446 3.71188 0
M  V30 4879 H 459.711 2.29482 1.92297 0
M  V30 4880 H 457.257 1.10465 0.923773 0
M  V30 4881 H 459.21 1.12536 4.06096 0
M  V30 4882 H 457.934 0.174102 3.26136 0
M  V30 4883 H 456.593 2.27174 2.87728 0
M  V30 4884 H 456.241 0.91206 4.94662 0
M  V30 4885 H 455.941 2.64193 5.24858 0
M  V30 4886 H 457.465 1.89367 5.80493 0
M  V30 4887 H 458.879 3.67719 4.39836 0
M  V30 4888 H 457.276 4.40123 4.07936 0
M  V30 4889 H 458.346 4.01443 2.71977 0
M  V30 4890 N 459.689 -1.00246 1.21608 0
M  V30 4891 C 460.652 -2.07233 0.979133 0
M  V30 4892 C 461.652 -1.6072 -0.0508219 0
M  V30 4893 O 462.842 -1.73196 0.186712 0
M  V30 4894 C 459.974 -3.37546 0.477016 0
M  V30 4895 H 461.167 -2.29687 1.92831 0
M  V30 4896 H 458.72 -1.17261 1.03342 0
M  V30 4897 H 459.455 -3.20773 -0.476966 0
M  V30 4898 H 459.24 -3.72638 1.21997 0
M  V30 4899 H 460.73 -4.16285 0.331181 0
M  V30 4900 N 461.167 -1.02423 -1.1978 0
M  V30 4901 C 462.077 -0.610919 -2.26506 0
M  V30 4902 C 463.093 0.355152 -1.70337 0
M  V30 4903 O 464.269 0.214195 -2.00258 0
M  V30 4904 C 461.334 0.0365921 -3.46681 0
M  V30 4905 C 460.395 -0.976389 -4.18049 0
M  V30 4906 C 459.628 -0.359683 -5.32487 0
M  V30 4907 O 459.851 0.838601 -5.64202 0
M  V30 4908 O 458.785 -1.08022 -5.92127 0
M  V30 4909 H 462.611 -1.49965 -2.64091 0
M  V30 4910 H 460.196 -0.794156 -1.26545 0
M  V30 4911 H 462.078 0.39786 -4.19518 0
M  V30 4912 H 460.753 0.899398 -3.10954 0
M  V30 4913 H 459.66 -1.38916 -3.47352 0
M  V30 4914 H 460.993 -1.80941 -4.57735 0
M  V30 4915 N 462.645 1.35699 -0.801477 0
M  V30 4916 C 463.875 2.02862 -0.3912 0
M  V30 4917 C 464.283 1.60552 1.00099 0
M  V30 4918 O 463.626 0.796215 1.65548 0
M  V30 4919 C 463.688 3.57386 -0.389299 0
M  V30 4920 C 463.352 4.22943 -1.73113 0
M  V30 4921 C 464.349 4.44984 -2.68859 0
M  V30 4922 C 462.034 4.60167 -2.01373 0
M  V30 4923 C 464.028 5.03345 -3.91053 0
M  V30 4924 C 461.715 5.18243 -3.23832 0
M  V30 4925 C 462.713 5.39773 -4.1849 0
M  V30 4926 O 462.401 5.96626 -5.38788 0
M  V30 4927 H 462.133 0.657341 -0.157732 0
M  V30 4928 H 464.687 1.74407 -1.08496 0
M  V30 4929 H 462.917 3.85011 0.361031 0
M  V30 4930 H 464.606 4.059 -0.0020365 0
M  V30 4931 H 465.372 4.1661 -2.48316 0
M  V30 4932 H 461.251 4.42726 -1.28508 0
M  V30 4933 H 464.795 5.20065 -4.64949 0
M  V30 4934 H 460.692 5.46044 -3.44248 0
M  V30 4935 H 461.46 6.15082 -5.40015 0
M  V30 4936 N 464.123 0.554532 1.47522 0
M  V30 4937 C 465.053 -0.182974 2.32782 0
M  V30 4938 C 466.034 -0.911377 1.43624 0
M  V30 4939 O 467.219 -0.892366 1.72483 0
M  V30 4940 C 464.349 -1.21513 3.25349 0
M  V30 4941 C 463.303 -0.603355 4.23726 0
M  V30 4942 C 462.629 -1.73995 5.05598 0
M  V30 4943 C 463.929 0.441121 5.20434 0
M  V30 4944 H 465.623 0.52882 2.94693 0
M  V30 4945 H 463.169 0.255759 1.41711 0
M  V30 4946 H 465.122 -1.73922 3.83835 0
M  V30 4947 H 463.846 -1.95683 2.61487 0
M  V30 4948 H 462.505 -0.10059 3.66462 0
M  V30 4949 H 462.153 -2.47063 4.38143 0
M  V30 4950 H 461.853 -1.3364 5.72201 0
M  V30 4951 H 463.377 -2.26735 5.66942 0
M  V30 4952 H 464.791 0.00319931 5.733 0
M  V30 4953 H 463.188 0.763402 5.95224 0
M  V30 4954 H 464.258 1.33799 4.66075 0
M  V30 4955 N 465.601 -1.54893 0.290851 0
M  V30 4956 C 466.831 -2.04047 -0.323818 0
M  V30 4957 C 467.239 -1.16809 -1.48837 0
M  V30 4958 O 466.582 -0.184145 -1.82775 0
M  V30 4959 C 466.644 -3.49248 -0.852395 0
M  V30 4960 C 466.308 -4.56623 0.185557 0
M  V30 4961 C 467.305 -5.09985 1.01053 0
M  V30 4962 C 464.99 -5.01252 0.324332 0
M  V30 4963 C 466.984 -6.06507 1.96031 0
M  V30 4964 C 464.671 -5.97596 1.27757 0
M  V30 4965 C 465.669 -6.50107 2.09405 0
M  V30 4966 O 465.357 -7.44565 3.03114 0
M  V30 4967 H 465.089 -0.671735 -0.0758129 0
M  V30 4968 H 467.643 -2.00947 0.425393 0
M  V30 4969 H 465.873 -3.49639 -1.65195 0
M  V30 4970 H 467.562 -3.81654 -1.38185 0
M  V30 4971 H 468.328 -4.76307 0.914129 0
M  V30 4972 H 464.207 -4.60015 -0.301213 0
M  V30 4973 H 467.751 -6.47418 2.598 0
M  V30 4974 H 463.648 -6.30691 1.37473 0
M  V30 4975 H 464.416 -7.62334 2.97976 0
M  V30 4976 N 467.08 -0.0183926 -1.57589 0
M  V30 4977 C 468.028 0.985111 -2.10709 0
M  V30 4978 C 469.022 1.34397 -1.0312 0
M  V30 4979 O 470.228 1.32746 -1.21567 0
M  V30 4980 H 466.603 0.335418 -0.673052 0
M  V30 4981 H 468.574 0.511689 -2.9398 0
M  V30 4982 C 467.323 2.26202 -2.64061 0
M  V30 4983 H 466.646 1.9946 -3.4649 0
M  V30 4984 H 468.086 2.94652 -3.04887 0
M  V30 4985 C 466.545 2.98444 -1.5631 0
M  V30 4986 O 467.075 3.90142 -0.956674 0
M  V30 4987 N 465.281 2.6059 -1.28612 0
M  V30 4988 H 464.828 1.86101 -1.78112 0
M  V30 4989 H 464.786 3.09238 -0.567406 0
M  V30 4990 N 468.558 1.5553 0.254621 0
M  V30 4991 C 469.807 1.76202 0.981612 0
M  V30 4992 C 470.12 0.580883 1.86776 0
M  V30 4993 O 471.326 0.670448 2.63092 0
M  V30 4994 C 469.782 3.11921 1.79537 0
M  V30 4995 C 469.39 4.37659 0.956991 0
M  V30 4996 C 471.134 3.41936 2.51555 0
M  V30 4997 C 469.041 5.64411 1.76619 0
M  V30 4998 H 467.971 0.656841 0.370237 0
M  V30 4999 H 470.622 1.81969 0.236556 0
M  V30 5000 H 469.004 3.00241 2.58208 0
M  V30 5001 H 470.178 4.60307 0.21315 0
M  V30 5002 H 468.493 4.14922 0.350497 0
M  V30 5003 H 471.09 4.33849 3.12536 0
M  V30 5004 H 471.433 2.62905 3.22779 0
M  V30 5005 H 471.966 3.54797 1.799 0
M  V30 5006 H 468.705 6.46241 1.09783 0
M  V30 5007 H 468.225 5.45877 2.48551 0
M  V30 5008 H 469.904 6.03386 2.33527 0
M  V30 5009 N 470.036 -0.519951 1.48776 0
M  V30 5010 C 471.285 -1.27175 1.56555 0
M  V30 5011 C 471.598 -1.9401 0.248869 0
M  V30 5012 O 472.804 -2.70725 0.205004 0
M  V30 5013 C 471.26 -2.30811 2.76142 0
M  V30 5014 C 470.868 -1.7 4.14493 0
M  V30 5015 C 472.612 -3.06937 2.9324 0
M  V30 5016 C 470.519 -2.71635 5.25327 0
M  V30 5017 H 469.449 -0.478329 0.582853 0
M  V30 5018 H 472.1 -0.547916 1.75129 0
M  V30 5019 H 470.482 -3.06274 2.51023 0
M  V30 5020 H 471.656 -1.00658 4.49672 0
M  V30 5021 H 469.971 -1.06331 4.02595 0
M  V30 5022 H 472.568 -3.82905 3.73213 0
M  V30 5023 H 472.911 -3.63409 2.03075 0
M  V30 5024 H 473.444 -2.38589 3.18308 0
M  V30 5025 H 470.183 -2.1997 6.1749 0
M  V30 5026 H 469.703 -3.39275 4.94624 0
M  V30 5027 H 471.382 -3.34429 5.53865 0
M  V30 5028 N 471.514 -1.37532 -0.769588 0
M  V30 5029 C 472.461 -1.3347 -1.88293 0
M  V30 5030 C 473.431 -0.199891 -1.64893 0
M  V30 5031 O 474.616 -0.389594 -1.8678 0
M  V30 5032 C 471.756 -1.14968 -3.25387 0
M  V30 5033 C 470.869 -2.37698 -3.60727 0
M  V30 5034 C 470.004 -2.12051 -4.8704 0
M  V30 5035 C 469.043 -3.30636 -5.15117 0
M  V30 5036 N 468.18 -3.04527 -6.3262 0
M  V30 5037 H 473.02 -2.28658 -1.911 0
M  V30 5038 H 470.557 -1.13622 -0.934257 0
M  V30 5039 H 472.515 -1.02261 -4.04473 0
M  V30 5040 H 471.145 -0.234263 -3.21949 0
M  V30 5041 H 470.197 -2.61137 -2.76608 0
M  V30 5042 H 471.509 -3.26131 -3.77413 0
M  V30 5043 H 470.663 -1.96388 -5.74035 0
M  V30 5044 H 469.402 -1.20959 -4.72462 0
M  V30 5045 H 468.407 -3.46836 -4.26597 0
M  V30 5046 H 469.632 -4.22582 -5.31603 0
M  V30 5047 H 467.578 -2.16067 -6.19396 0
M  V30 5048 H 467.495 -3.86503 -6.49732 0
M  V30 5049 H 468.763 -2.92485 -7.22546 0
M  V30 5050 N 472.992 0.995999 -1.22138 0
M  V30 5051 C 473.94 2.10673 -0.985876 0
M  V30 5052 C 474.934 1.69255 0.0699553 0
M  V30 5053 O 476.14 1.79812 -0.0822176 0
M  V30 5054 H 472.515 0.688865 -0.30161 0
M  V30 5055 H 474.486 2.27711 -1.92848 0
M  V30 5056 C 473.235 3.42881 -0.576909 0
M  V30 5057 H 472.558 3.75191 -1.38101 0
M  V30 5058 H 473.998 4.21589 -0.451518 0
M  V30 5059 C 472.457 3.29265 0.713196 0
M  V30 5060 O 472.987 3.60777 1.76643 0
M  V30 5061 N 471.193 2.82456 0.683162 0
M  V30 5062 H 470.74 2.5701 -0.174242 0
M  V30 5063 H 470.698 2.73727 1.54663 0
M  V30 5064 N 474.47 1.03057 1.19235 0
M  V30 5065 C 475.886 0.747947 1.40989 0
M  V30 5066 C 476.086 -0.666752 1.90149 0
M  V30 5067 O 475.142 -1.43249 2.07933 0
M  V30 5068 C 476.455 1.7855 2.41951 0
M  V30 5069 C 478.003 1.80524 2.55695 0
M  V30 5070 C 478.478 2.83243 3.59913 0
M  V30 5071 N 479.969 2.8207 3.67411 0
M  V30 5072 C 480.704 3.58204 4.47747 0
M  V30 5073 N 480.2 4.44057 5.31775 0
M  V30 5074 N 481.993 3.46738 4.42413 0
M  V30 5075 H 474.144 1.94367 0.856468 0
M  V30 5076 H 476.407 0.840412 0.438647 0
M  V30 5077 H 476.113 2.79973 2.12857 0
M  V30 5078 H 475.987 1.6092 3.41152 0
M  V30 5079 H 478.374 0.79778 2.84112 0
M  V30 5080 H 478.455 2.02229 1.56643 0
M  V30 5081 H 478.099 3.84161 3.32239 0
M  V30 5082 H 478.029 2.58795 4.5862 0
M  V30 5083 H 480.52 2.19803 3.074 0
M  V30 5084 H 480.833 4.98884 5.90199 0
M  V30 5085 H 479.178 4.48129 5.3123 0
M  V30 5086 H 482.369 2.79077 3.75811 0
M  V30 5087 H 482.542 4.06322 5.04783 0
M  V30 5088 N 475.948 -1.35272 0.808662 0
M  V30 5089 C 476.858 -2.33546 0.222079 0
M  V30 5090 C 477.874 -1.6196 -0.636011 0
M  V30 5091 O 479.05 -1.93822 -0.547274 0
M  V30 5092 C 476.115 -3.41148 -0.61795 0
M  V30 5093 C 475.176 -4.28507 0.260875 0
M  V30 5094 C 474.409 -5.3097 -0.539156 0
M  V30 5095 O 474.632 -5.42123 -1.77367 0
M  V30 5096 O 473.566 -6.01858 0.0710526 0
M  V30 5097 H 477.392 -2.85515 1.03512 0
M  V30 5098 H 474.977 -1.38079 0.570495 0
M  V30 5099 H 476.859 -4.06889 -1.09634 0
M  V30 5100 H 475.534 -2.91447 -1.40855 0
M  V30 5101 H 474.441 -3.6574 0.786451 0
M  V30 5102 H 475.774 -4.81611 1.01547 0
M  V30 5103 N 477.426 -0.562348 -1.47226 0
M  V30 5104 C 478.674 -0.0401371 -2.0206 0
M  V30 5105 C 478.995 1.3165 -1.43852 0
M  V30 5106 O 478.265 1.85976 -0.615599 0
M  V30 5107 H 476.845 -0.0118479 -0.746906 0
M  V30 5108 H 479.507 -0.73352 -1.8057 0
M  V30 5109 H 478.603 0.0441254 -3.12069 0
M  V30 5110 N 478.904 1.54736 -0.299062 0
M  V30 5111 C 480.134 2.04215 0.312992 0
M  V30 5112 C 480.542 1.17596 1.48215 0
M  V30 5113 O 479.885 0.193835 1.82674 0
M  V30 5114 C 479.947 3.49696 0.833862 0
M  V30 5115 C 479.611 4.56518 -0.20977 0
M  V30 5116 C 480.608 5.09442 -1.03756 0
M  V30 5117 C 478.293 5.01073 -0.35091 0
M  V30 5118 C 480.287 6.05459 -1.99244 0
M  V30 5119 C 477.974 5.9691 -1.30924 0
M  V30 5120 C 478.972 6.48987 -2.1285 0
M  V30 5121 O 478.66 7.42947 -3.07059 0
M  V30 5122 H 478.392 0.672128 0.0722494 0
M  V30 5123 H 480.946 2.00718 -0.436043 0
M  V30 5124 H 479.176 3.5051 1.63339 0
M  V30 5125 H 480.865 3.82381 1.36159 0
M  V30 5126 H 481.631 4.75816 -0.939376 0
M  V30 5127 H 477.51 4.60168 0.276813 0
M  V30 5128 H 481.054 6.46031 -2.63229 0
M  V30 5129 H 476.951 6.29953 -1.40815 0
M  V30 5130 H 477.719 7.60743 -3.02015 0
M  V30 5131 N 480.382 0.0267497 1.57577 0
M  V30 5132 C 481.292 -0.971633 2.13533 0
M  V30 5133 C 482.308 -1.35868 1.08701 0
M  V30 5134 O 483.484 -1.44058 1.40746 0
M  V30 5135 C 480.549 -2.23622 2.64941 0
M  V30 5136 C 479.61 -1.90982 3.8448 0
M  V30 5137 C 478.843 -3.11411 4.33427 0
M  V30 5138 O 479.066 -4.23992 3.81558 0
M  V30 5139 O 478 -2.93848 5.25297 0
M  V30 5140 H 481.826 -0.525853 2.99113 0
M  V30 5141 H 479.411 -0.193712 1.48139 0
M  V30 5142 H 481.293 -2.97864 2.98086 0
M  V30 5143 H 479.968 -2.67386 1.82446 0
M  V30 5144 H 478.875 -1.14132 3.56265 0
M  V30 5145 H 480.208 -1.52036 4.6813 0
M  V30 5146 N 481.861 -1.55662 -0.24637 0
M  V30 5147 C 482.794 -1.85332 -1.33143 0
M  V30 5148 C 483.772 -0.708464 -1.46354 0
M  V30 5149 O 484.956 -0.954274 -1.6256 0
M  V30 5150 C 482.083 -2.0385 -2.70487 0
M  V30 5151 C 481.129 -3.26488 -2.74423 0
M  V30 5152 S 481.962 -4.83124 -2.30979 0
M  V30 5153 C 483.118 -5.04647 -3.70246 0
M  V30 5154 H 483.351 -2.77077 -1.07777 0
M  V30 5155 H 480.884 -1.47776 -0.44738 0
M  V30 5156 H 482.842 -2.15202 -3.49569 0
M  V30 5157 H 481.503 -1.12947 -2.9309 0
M  V30 5158 H 480.696 -3.36413 -3.7529 0
M  V30 5159 H 480.298 -3.13864 -2.03385 0
M  V30 5160 H 482.59 -4.92023 -4.65746 0
M  V30 5161 H 483.533 -6.06625 -3.65255 0
M  V30 5162 H 483.941 -4.32491 -3.62784 0
M  V30 5163 N 483.339 0.512053 -1.4905 0
M  V30 5164 C 484.585 1.26874 -1.58212 0
M  V30 5165 C 484.918 1.9241 -0.263073 0
M  V30 5166 O 484.193 1.80181 0.732476 0
M  V30 5167 C 484.476 2.34428 -2.73341 0
M  V30 5168 C 484.329 1.73466 -4.15006 0
M  V30 5169 C 485.648 3.36073 -2.84154 0
M  V30 5170 H 482.767 0.459924 -0.575881 0
M  V30 5171 H 485.409 0.568587 -1.81293 0
M  V30 5172 H 483.559 2.94146 -2.53792 0
M  V30 5173 H 485.231 1.17661 -4.46042 0
M  V30 5174 H 483.474 1.03921 -4.21168 0
M  V30 5175 H 484.145 2.51426 -4.91415 0
M  V30 5176 H 486.621 2.86332 -3.01916 0
M  V30 5177 H 485.497 4.08703 -3.66406 0
M  V30 5178 H 485.758 3.97725 -1.93048 0
M  V30 5179 N 484.817 1.37938 0.762283 0
M  V30 5180 C 486.064 1.33668 1.52115 0
M  V30 5181 C 486.392 -0.0759538 1.94352 0
M  V30 5182 O 485.647 -1.05121 1.6507 0
M  V30 5183 C 485.946 2.23042 2.79261 0
M  V30 5184 C 485.612 3.71159 2.56031 0
M  V30 5185 C 484.274 4.11523 2.49404 0
M  V30 5186 C 486.626 4.64955 2.35513 0
M  V30 5187 C 483.954 5.43784 2.20263 0
M  V30 5188 C 486.306 5.97464 2.07894 0
M  V30 5189 C 484.97 6.36922 1.99718 0
M  V30 5190 H 484.24 0.489127 0.556629 0
M  V30 5191 H 486.887 1.70224 0.877262 0
M  V30 5192 H 485.192 1.79512 3.48256 0
M  V30 5193 H 486.889 2.17047 3.37182 0
M  V30 5194 H 483.479 3.39153 2.62056 0
M  V30 5195 H 487.663 4.34623 2.39617 0
M  V30 5196 H 482.919 5.73307 2.12435 0
M  V30 5197 H 487.093 6.6969 1.91019 0
M  V30 5198 H 484.72 7.39331 1.76902 0
M  V30 5199 N 486.295 -0.989507 1.22664 0
M  V30 5200 C 487.572 -1.70326 0.961688 0
M  V30 5201 C 487.952 -2.04537 -0.522279 0
M  V30 5202 O 487.3 -1.73136 -1.49118 0
M  V30 5203 C 487.51 -2.95135 1.86269 0
M  V30 5204 C 488.858 -3.67842 2.12078 0
M  V30 5205 O 489.882 -3.0515 1.83745 0
M  V30 5206 O 488.741 -4.80644 2.60083 0
M  V30 5207 H 485.835 -0.743589 0.361946 0
M  V30 5208 H 488.381 -1.04555 1.33665 0
M  V30 5209 H 487.153 -2.66382 2.8663 0
M  V30 5210 H 486.776 -3.68645 1.48952 0
M  V30 5211 N 487.773 -1.03688 -1.18687 0
M  V30 5212 C 489.021 -0.736572 -1.88199 0
M  V30 5213 C 489.342 0.737665 -1.80509 0
M  V30 5214 O 488.612 1.53204 -1.22088 0
M  V30 5215 H 487.192 -0.269466 -0.696704 0
M  V30 5216 H 489.854 -1.31282 -1.44052 0
M  V30 5217 H 488.95 -1.03802 -2.94332 0
M  V30 5218 N 489.251 1.34841 -0.815825 0
M  V30 5219 C 490.198 2.29644 -0.230664 0
M  V30 5220 C 491.168 1.53253 0.640533 0
M  V30 5221 O 492.353 1.81653 0.583672 0
M  V30 5222 C 489.493 3.39715 0.607275 0
M  V30 5223 C 488.606 4.31056 -0.28538 0
M  V30 5224 C 487.741 5.28225 0.561446 0
M  V30 5225 C 486.78 6.11204 -0.331035 0
M  V30 5226 N 485.917 7.00483 0.476302 0
M  V30 5227 H 490.757 2.79095 -1.0445 0
M  V30 5228 H 488.294 1.37351 -0.526595 0
M  V30 5229 H 490.252 4.02208 1.10835 0
M  V30 5230 H 488.882 2.91517 1.38629 0
M  V30 5231 H 487.934 3.69487 -0.904621 0
M  V30 5232 H 489.246 4.89239 -0.97193 0
M  V30 5233 H 488.4 5.96135 1.12728 0
M  V30 5234 H 487.139 4.70562 1.28153 0
M  V30 5235 H 486.144 5.42232 -0.909069 0
M  V30 5236 H 487.369 6.70947 -1.04912 0
M  V30 5237 H 485.315 6.45296 1.18019 0
M  V30 5238 H 485.232 7.55847 -0.152008 0
M  V30 5239 H 486.5 7.7273 1.02512 0
M  V30 5240 N 490.729 0.570148 1.46925 0
M  V30 5241 C 492.14 0.1402 1.86173 0
M  V30 5242 C 492.491 -1.29347 1.47526 0
M  V30 5243 O 491.616 -1.97508 0.884292 0
M  V30 5244 C 492.211 0.247661 3.37894 0
M  V30 5245 C 490.77 -0.127332 3.76185 0
M  V30 5246 C 489.917 0.589349 2.70965 0
M  V30 5247 H 492.868 0.779117 1.38259 0
M  V30 5248 H 492.889 -0.530341 3.76786 0
M  V30 5249 H 492.401 1.29121 3.65991 0
M  V30 5250 H 490.502 -1.17149 3.53704 0
M  V30 5251 H 490.615 0.240238 4.78497 0
M  V30 5252 H 488.979 0.0309824 2.54681 0
M  V30 5253 H 489.762 1.6343 3.01903 0
M  V30 5254 N 492.207 -1.54576 0.307264 0
M  V30 5255 C 493.139 -2.21212 -0.599807 0
M  V30 5256 C 494.152 -1.20685 -1.09266 0
M  V30 5257 O 495.341 -1.47244 -1.00903 0
M  V30 5258 C 492.441 -2.84994 -1.83389 0
M  V30 5259 C 491.614 -4.11511 -1.48248 0
M  V30 5260 C 490.673 -4.59038 -2.57237 0
M  V30 5261 O 489.699 -5.24095 -2.22065 0
M  V30 5262 N 490.901 -4.31884 -3.87887 0
M  V30 5263 H 493.666 -2.99686 -0.0293075 0
M  V30 5264 H 491.227 -1.61379 0.129738 0
M  V30 5265 H 493.219 -3.1372 -2.5566 0
M  V30 5266 H 491.789 -2.10324 -2.31263 0
M  V30 5267 H 491.009 -3.89728 -0.592122 0
M  V30 5268 H 492.297 -4.93879 -1.22316 0
M  V30 5269 H 491.695 -3.79778 -4.19268 0
M  V30 5270 H 490.252 -4.65304 -4.56438 0
M  V30 5271 N 493.685 -0.035106 -1.57561 0
M  V30 5272 C 494.635 0.954034 -2.0708 0
M  V30 5273 C 495.619 1.2818 -0.972558 0
M  V30 5274 O 496.811 1.26691 -1.23606 0
M  V30 5275 C 493.94 2.23442 -2.60631 0
M  V30 5276 C 493.026 1.93475 -3.77396 0
M  V30 5277 N 493.417 1.33802 -4.87781 0
M  V30 5278 C 491.715 2.23434 -3.85996 0
M  V30 5279 C 492.416 1.21103 -5.68954 0
M  V30 5280 N 491.392 1.70855 -5.16052 0
M  V30 5281 H 495.194 0.487731 -2.89825 0
M  V30 5282 H 492.708 0.169759 -1.6151 0
M  V30 5283 H 494.705 2.95183 -2.94402 0
M  V30 5284 H 493.365 2.70693 -1.79319 0
M  V30 5285 H 494.376 1.01227 -5.07911 0
M  V30 5286 H 491.053 2.73317 -3.15601 0
M  V30 5287 H 492.443 0.749105 -6.67711 0
M  V30 5288 N 495.163 1.55791 0.238111 0
M  V30 5289 C 496.391 1.82098 0.982233 0
M  V30 5290 C 496.806 0.612025 1.78605 0
M  V30 5291 O 496.163 -0.419381 1.77616 0
M  V30 5292 C 496.214 3.0673 1.91309 0
M  V30 5293 O 495.935 4.2296 1.14179 0
M  V30 5294 C 497.436 3.45903 2.77248 0
M  V30 5295 H 494.656 0.605748 0.288635 0
M  V30 5296 H 497.2 2.02862 0.258341 0
M  V30 5297 H 495.355 2.87991 2.59114 0
M  V30 5298 H 495.769 4.93653 1.7722 0
M  V30 5299 H 497.243 4.36189 3.38295 0
M  V30 5300 H 497.72 2.66891 3.48806 0
M  V30 5301 H 498.326 3.67024 2.14881 0
M  V30 5302 N 496.642 -0.504142 1.49319 0
M  V30 5303 C 497.59 -1.62689 1.66238 0
M  V30 5304 C 498.584 -1.6095 0.528349 0
M  V30 5305 O 499.79 -1.65496 0.707887 0
M  V30 5306 H 496.165 -0.539247 0.524134 0
M  V30 5307 H 498.136 -1.45571 2.60484 0
M  V30 5308 C 496.885 -3.00841 1.74328 0
M  V30 5309 H 496.208 -3.02884 2.60963 0
M  V30 5310 H 497.648 -3.78945 1.90202 0
M  V30 5311 C 496.107 -3.33355 0.487416 0
M  V30 5312 O 496.637 -3.99819 -0.388294 0
M  V30 5313 N 494.843 -2.88469 0.351306 0
M  V30 5314 H 494.39 -2.34557 1.06492 0
M  V30 5315 H 494.348 -3.10591 -0.487899 0
M  V30 5316 N 498.12 -1.38341 -0.754957 0
M  V30 5317 C 499.366 -1.34672 -1.51628 0
M  V30 5318 C 499.699 0.0636036 -1.94096 0
M  V30 5319 O 498.974 1.0245 -1.6533 0
M  V30 5320 C 499.257 -2.30116 -2.76981 0
M  V30 5321 C 499.11 -3.80003 -2.4066 0
M  V30 5322 C 500.429 -2.23715 -3.78998 0
M  V30 5323 H 497.548 -0.490517 -0.550056 0
M  V30 5324 H 500.19 -1.69178 -0.864807 0
M  V30 5325 H 498.34 -2.00821 -3.3257 0
M  V30 5326 H 500.012 -4.19966 -1.90856 0
M  V30 5327 H 498.255 -3.97751 -1.73137 0
M  V30 5328 H 498.926 -4.42244 -3.30339 0
M  V30 5329 H 501.402 -2.49574 -3.32945 0
M  V30 5330 H 500.278 -2.9261 -4.64403 0
M  V30 5331 H 500.539 -1.23554 -4.24484 0
M  V30 5332 N 499.598 0.982988 -1.23187 0
M  V30 5333 C 500.838 1.73903 -1.07412 0
M  V30 5334 C 501.202 1.88146 0.382764 0
M  V30 5335 O 502.403 2.6053 0.661638 0
M  V30 5336 C 500.674 3.10105 -1.77678 0
M  V30 5337 S 502.233 4.01323 -1.77441 0
M  V30 5338 H 499.051 0.598093 -0.384456 0
M  V30 5339 H 501.653 1.17456 -1.56283 0
M  V30 5340 H 500.357 2.97388 -2.82822 0
M  V30 5341 H 499.888 3.71622 -1.29077 0
M  V30 5342 H 501.903 4.89189 -0.831162 0
M  V30 5343 N 501.076 1.04316 1.18135 0
M  V30 5344 C 502.323 0.74802 1.88178 0
M  V30 5345 C 502.651 -0.72441 1.80506 0
M  V30 5346 O 501.906 -1.54463 1.20165 0
M  V30 5347 C 502.205 1.16271 3.37958 0
M  V30 5348 C 501.871 2.63585 3.65833 0
M  V30 5349 C 500.533 3.03829 3.73151 0
M  V30 5350 C 502.885 3.58822 3.78016 0
M  V30 5351 C 500.213 4.38194 3.90132 0
M  V30 5352 C 502.565 4.92909 3.96514 0
M  V30 5353 C 501.229 5.3282 4.02068 0
M  V30 5354 H 500.499 0.27372 0.688592 0
M  V30 5355 H 503.146 1.30863 1.39811 0
M  V30 5356 H 501.451 0.520938 3.88321 0
M  V30 5357 H 503.148 0.911672 3.90499 0
M  V30 5358 H 499.738 2.31414 3.60757 0
M  V30 5359 H 503.922 3.28875 3.71692 0
M  V30 5360 H 499.178 4.68631 3.92677 0
M  V30 5361 H 503.352 5.66606 4.04883 0
M  V30 5362 H 500.979 6.36943 4.14979 0
M  V30 5363 N 502.554 -1.34406 0.822964 0
M  V30 5364 C 503.8 -1.98999 0.420847 0
M  V30 5365 C 504.155 -1.64067 -1.00498 0
M  V30 5366 O 503.448 -0.902071 -1.69036 0
M  V30 5367 C 503.642 -3.52981 0.560268 0
M  V30 5368 C 503.471 -4.02873 1.99809 0
M  V30 5369 C 502.241 -4.31463 2.62998 0
M  V30 5370 C 504.439 -4.20241 2.96483 0
M  V30 5371 N 502.421 -4.6739 3.9802 0
M  V30 5372 C 503.792 -4.59348 4.16413 0
M  V30 5373 C 505.847 -4.02489 2.93098 0
M  V30 5374 C 504.55 -4.82559 5.33413 0
M  V30 5375 C 506.576 -4.26866 4.09315 0
M  V30 5376 C 505.938 -4.6626 5.27997 0
M  V30 5377 H 502.037 -0.755432 0.202104 0
M  V30 5378 H 504.621 -1.62815 1.06767 0
M  V30 5379 H 502.792 -3.88359 -0.0566596 0
M  V30 5380 H 504.524 -4.04487 0.131146 0
M  V30 5381 H 501.279 -4.22373 2.14238 0
M  V30 5382 H 501.703 -4.89588 4.67582 0
M  V30 5383 H 506.345 -3.71161 2.02483 0
M  V30 5384 H 504.063 -5.12754 6.24587 0
M  V30 5385 H 507.649 -4.14667 4.08096 0
M  V30 5386 H 506.529 -4.84752 6.16429 0
M  V30 5387 N 504.032 -0.577932 -1.46621 0
M  V30 5388 C 505.262 -0.0670668 -2.06491 0
M  V30 5389 C 505.67 1.24119 -1.42798 0
M  V30 5390 O 505.013 1.76016 -0.525759 0
M  V30 5391 C 505.075 0.177995 -3.59059 0
M  V30 5392 C 504.739 -1.04394 -4.44917 0
M  V30 5393 C 505.736 -1.95479 -4.81751 0
M  V30 5394 C 503.421 -1.26444 -4.86125 0
M  V30 5395 C 505.415 -3.06965 -5.58615 0
M  V30 5396 C 503.102 -2.38237 -5.62749 0
M  V30 5397 C 504.1 -3.28327 -5.98908 0
M  V30 5398 O 503.788 -4.38179 -6.73984 0
M  V30 5399 H 503.52 -0.0523159 -0.673973 0
M  V30 5400 H 506.074 -0.796966 -1.89308 0
M  V30 5401 H 504.304 0.962451 -3.74531 0
M  V30 5402 H 505.993 0.636782 -4.00874 0
M  V30 5403 H 506.759 -1.79657 -4.50498 0
M  V30 5404 H 502.638 -0.572316 -4.57434 0
M  V30 5405 H 506.182 -3.77309 -5.86757 0
M  V30 5406 H 502.079 -2.54023 -5.93416 0
M  V30 5407 H 502.847 -4.36486 -6.92403 0
M  V30 5408 N 505.51 1.54411 -0.315457 0
M  V30 5409 C 506.759 1.99599 0.290395 0
M  V30 5410 C 507.072 1.20746 1.53882 0
M  V30 5411 O 508.278 1.56272 2.22017 0
M  V30 5412 C 506.734 3.5539 0.56797 0
M  V30 5413 C 506.342 4.43068 -0.662945 0
M  V30 5414 C 508.086 4.09067 1.13422 0
M  V30 5415 C 505.993 5.90317 -0.357722 0
M  V30 5416 H 504.923 0.745592 0.112286 0
M  V30 5417 H 507.574 1.78477 -0.426418 0
M  V30 5418 H 505.956 3.72468 1.34476 0
M  V30 5419 H 507.13 4.37765 -1.43869 0
M  V30 5420 H 505.445 4.00238 -1.14884 0
M  V30 5421 H 508.042 5.16663 1.37707 0
M  V30 5422 H 508.385 3.60552 2.08106 0
M  V30 5423 H 508.918 3.95589 0.418805 0
M  V30 5424 H 505.657 6.4301 -1.27351 0
M  V30 5425 H 505.177 5.98592 0.380472 0
M  V30 5426 H 506.856 6.4699 0.0354284 0
M  V30 5427 N 506.988 0.0434614 1.5754 0
M  V30 5428 C 508.399 -0.493343 1.80064 0
M  V30 5429 C 508.75 -1.71388 0.955023 0
M  V30 5430 O 507.875 -2.15736 0.169434 0
M  V30 5431 C 508.47 -0.90179 3.26578 0
M  V30 5432 C 507.029 -1.38362 3.50047 0
M  V30 5433 C 506.176 -0.355129 2.75017 0
M  V30 5434 H 509.127 0.2694 1.56397 0
M  V30 5435 H 509.148 -1.76523 3.37075 0
M  V30 5436 H 508.66 -0.013271 3.88098 0
M  V30 5437 H 506.761 -2.29159 2.93798 0
M  V30 5438 H 506.874 -1.3811 4.58762 0
M  V30 5439 H 505.238 -0.826348 2.40922 0
M  V30 5440 H 506.021 0.525172 3.39259 0
M  V30 5441 N 508.466 -1.55915 -0.229846 0
M  V30 5442 C 509.877 -1.68809 -0.797531 0
M  V30 5443 C 510.228 -0.643995 -1.8533 0
M  V30 5444 O 509.353 0.206492 -2.15413 0
M  V30 5445 C 509.948 -3.06043 -1.45338 0
M  V30 5446 C 508.507 -3.20819 -1.96856 0
M  V30 5447 C 507.654 -2.6472 -0.825736 0
M  V30 5448 H 510.605 -1.58699 -0.00533733 0
M  V30 5449 H 510.626 -3.01438 -2.32196 0
M  V30 5450 H 510.138 -3.82012 -0.684743 0
M  V30 5451 H 508.239 -2.49704 -2.76548 0
M  V30 5452 H 508.352 -4.27937 -2.15423 0
M  V30 5453 H 506.716 -2.22985 -1.23084 0
M  V30 5454 H 507.499 -3.43229 -0.0699019 0
M  V30 5455 N 509.944 0.496216 -1.49584 0
M  V30 5456 C 511.169 1.27865 -1.63295 0
M  V30 5457 C 511.594 1.85592 -0.306156 0
M  V30 5458 O 510.952 1.66092 0.726851 0
M  V30 5459 C 511 2.38128 -2.7079 0
M  V30 5460 O 510.104 3.42108 -2.30296 0
M  V30 5461 H 509.445 0.377279 -0.546403 0
M  V30 5462 H 511.975 0.593497 -1.95803 0
M  V30 5463 H 511.985 2.8382 -2.93104 0
M  V30 5464 H 510.66 1.95479 -3.67098 0
M  V30 5465 H 509.237 3.02301 -2.18331 0
M  V30 5466 N 511.423 1.38739 0.74761 0
M  V30 5467 C 512.353 1.39173 1.87492 0
M  V30 5468 C 513.334 0.256794 1.6815 0
M  V30 5469 O 514.519 0.460762 1.88655 0
M  V30 5470 C 511.649 1.22197 3.25093 0
M  V30 5471 C 510.603 2.32957 3.59047 0
M  V30 5472 C 509.929 2.01082 4.95449 0
M  V30 5473 C 511.229 3.75237 3.6331 0
M  V30 5474 H 512.923 2.3351 1.87386 0
M  V30 5475 H 510.469 1.12399 0.900134 0
M  V30 5476 H 512.422 1.21124 4.03617 0
M  V30 5477 H 511.146 0.243241 3.25693 0
M  V30 5478 H 509.805 2.33226 2.82845 0
M  V30 5479 H 509.453 1.01678 4.92616 0
M  V30 5480 H 509.153 2.75267 5.19136 0
M  V30 5481 H 510.677 2.01638 5.76346 0
M  V30 5482 H 512.091 3.76966 4.31937 0
M  V30 5483 H 510.488 4.48677 3.98509 0
M  V30 5484 H 511.558 4.07122 2.634 0
M  V30 5485 N 512.901 -0.976442 1.23707 0
M  V30 5486 C 514.317 -1.24341 1.00058 0
M  V30 5487 C 514.517 -1.99315 -0.295932 0
M  V30 5488 O 513.573 -2.3123 -1.01435 0
M  V30 5489 C 514.886 -2.03909 2.21001 0
M  V30 5490 C 516.434 -2.17034 2.25534 0
M  V30 5491 C 516.909 -2.99994 3.46075 0
M  V30 5492 N 518.4 -3.07578 3.46338 0
M  V30 5493 C 519.135 -3.72104 4.36264 0
M  V30 5494 N 518.631 -4.3842 5.36432 0
M  V30 5495 N 520.424 -3.69029 4.23998 0
M  V30 5496 H 512.575 -0.47428 2.07037 0
M  V30 5497 H 514.838 -0.272167 0.908091 0
M  V30 5498 H 514.544 -1.56198 3.15111 0
M  V30 5499 H 514.418 -3.04654 2.22409 0
M  V30 5500 H 516.805 -2.63951 1.31961 0
M  V30 5501 H 516.886 -1.15664 2.28156 0
M  V30 5502 H 516.53 -2.53772 4.39957 0
M  V30 5503 H 516.46 -4.01541 3.40694 0
M  V30 5504 H 518.951 -2.60397 2.73865 0
M  V30 5505 H 519.264 -4.85447 6.013 0
M  V30 5506 H 517.609 -4.37116 5.40328 0
M  V30 5507 H 520.8 -3.16392 3.44984 0
M  V30 5508 H 520.973 -4.19034 4.94282 0
M  V30 5509 N 514.379 -1.04941 -1.1758 0
M  V30 5510 C 515.607 -0.778294 -1.91703 0
M  V30 5511 C 516.022 0.665697 -1.76675 0
M  V30 5512 O 515.379 1.45456 -1.10222 0
M  V30 5513 C 515.43 -1.14628 -3.42845 0
M  V30 5514 O 515.151 -2.53359 -3.57409 0
M  V30 5515 C 516.652 -0.900931 -4.34049 0
M  V30 5516 H 513.872 -0.283167 -0.608323 0
M  V30 5517 H 516.416 -1.39942 -1.49119 0
M  V30 5518 H 514.571 -0.569953 -3.83184 0
M  V30 5519 H 514.985 -2.67709 -4.51035 0
M  V30 5520 H 516.459 -1.20817 -5.38616 0
M  V30 5521 H 516.936 0.163966 -4.38894 0
M  V30 5522 H 517.542 -1.46097 -3.99419 0
M  V30 5523 N 515.857 1.33968 -0.830081 0
M  V30 5524 C 516.787 2.31911 -0.271911 0
M  V30 5525 C 517.768 1.58571 0.61556 0
M  V30 5526 O 518.953 1.86514 0.540946 0
M  V30 5527 C 516.083 3.42737 0.561146 0
M  V30 5528 C 515.037 4.27383 -0.229789 0
M  V30 5529 C 514.363 5.29742 0.726463 0
M  V30 5530 C 515.663 5.02 -1.44197 0
M  V30 5531 H 517.357 2.78844 -1.09025 0
M  V30 5532 H 514.903 1.34061 -0.52571 0
M  V30 5533 H 516.856 4.10276 0.961867 0
M  V30 5534 H 515.58 2.94471 1.41261 0
M  V30 5535 H 514.239 3.61456 -0.611964 0
M  V30 5536 H 513.887 4.77736 1.57408 0
M  V30 5537 H 513.587 5.87255 0.20142 0
M  V30 5538 H 515.111 6.00149 1.12489 0
M  V30 5539 H 516.525 5.62355 -1.11488 0
M  V30 5540 H 514.922 5.69122 -1.90317 0
M  V30 5541 H 515.992 4.31281 -2.2164 0
M  V30 5542 N 517.335 0.585699 1.46312 0
M  V30 5543 C 518.245 -0.148236 2.34131 0
M  V30 5544 C 519.261 -0.882972 1.49932 0
M  V30 5545 O 520.437 -0.845484 1.82794 0
M  V30 5546 C 517.502 -1.14714 3.27172 0
M  V30 5547 C 516.563 -0.416746 4.27272 0
M  V30 5548 C 515.796 -1.36806 5.15868 0
M  V30 5549 O 516.019 -2.60475 5.07454 0
M  V30 5550 O 514.953 -0.877018 5.95476 0
M  V30 5551 H 518.779 0.572882 2.98248 0
M  V30 5552 H 516.364 0.346082 1.45336 0
M  V30 5553 H 518.246 -1.72303 3.84564 0
M  V30 5554 H 516.921 -1.84967 2.65648 0
M  V30 5555 H 515.828 0.201061 3.73559 0
M  V30 5556 H 517.161 0.244872 4.9159 0
M  V30 5557 N 518.813 -1.54241 0.323641 0
M  V30 5558 C 520.09 -1.92741 -0.333181 0
M  V30 5559 C 520.47 -1.25326 -1.69872 0
M  V30 5560 O 519.818 -0.396991 -2.25025 0
M  V30 5561 C 520.028 -3.46399 -0.425322 0
M  V30 5562 C 521.376 -4.19029 -0.68557 0
M  V30 5563 O 522.4 -3.52555 -0.50824 0
M  V30 5564 O 521.259 -5.36751 -1.02767 0
M  V30 5565 H 518.353 -0.804811 -0.190286 0
M  V30 5566 H 520.899 -1.65542 0.373361 0
M  V30 5567 H 519.671 -3.87643 0.533737 0
M  V30 5568 H 519.294 -3.79704 -1.17944 0
M  V30 5569 N 520.291 -0.0518155 -1.57515 0
M  V30 5570 C 521.239 0.940195 -2.12751 0
M  V30 5571 C 522.233 1.3218 -1.05948 0
M  V30 5572 O 523.439 1.30138 -1.24355 0
M  V30 5573 H 519.814 0.321066 -0.680015 0
M  V30 5574 H 521.785 0.449217 -2.94999 0
M  V30 5575 C 520.534 2.2055 -2.68799 0
M  V30 5576 H 519.857 1.92066 -3.50643 0
M  V30 5577 H 521.297 2.88119 -3.11068 0
M  V30 5578 C 519.756 2.95061 -1.62605 0
M  V30 5579 O 520.286 3.88025 -1.03921 0
M  V30 5580 N 518.492 2.57804 -1.34111 0
M  V30 5581 H 518.039 1.82281 -1.8202 0
M  V30 5582 H 517.997 3.07964 -0.632872 0
M  V30 5583 N 521.769 1.56035 0.221574 0
M  V30 5584 C 522.679 1.95581 1.29558 0
M  V30 5585 C 523.695 0.859639 1.51282 0
M  V30 5586 O 524.871 1.16321 1.64413 0
M  V30 5587 C 521.936 2.26447 2.62531 0
M  V30 5588 C 520.997 3.49632 2.4911 0
M  V30 5589 C 520.23 3.79017 3.75742 0
M  V30 5590 O 520.453 3.10077 4.78757 0
M  V30 5591 O 519.387 4.72507 3.72855 0
M  V30 5592 H 523.213 2.8711 0.990035 0
M  V30 5593 H 520.798 1.43244 0.424434 0
M  V30 5594 H 522.68 2.47494 3.41064 0
M  V30 5595 H 521.355 1.38092 2.92766 0
M  V30 5596 H 520.262 3.33864 1.68777 0
M  V30 5597 H 521.595 4.3837 2.23814 0
M  V30 5598 N 523.247 -0.488276 1.49845 0
M  V30 5599 C 524.157 -1.61451 1.70207 0
M  V30 5600 C 525.173 -1.63877 0.584846 0
M  V30 5601 O 526.349 -1.82063 0.861107 0
M  V30 5602 C 523.414 -2.9776 1.77594 0
M  V30 5603 C 522.475 -3.05861 3.01243 0
M  V30 5604 C 521.708 -4.35668 3.08268 0
M  V30 5605 O 521.931 -5.25197 2.22541 0
M  V30 5606 O 520.865 -4.49005 4.00847 0
M  V30 5607 H 524.691 -1.47199 2.65643 0
M  V30 5608 H 522.276 -0.665939 1.33737 0
M  V30 5609 H 524.158 -3.7875 1.84732 0
M  V30 5610 H 522.833 -3.12248 0.8534 0
M  V30 5611 H 521.74 -2.24012 2.99616 0
M  V30 5612 H 523.073 -2.96304 3.9302 0
M  V30 5613 N 524.725 -1.39134 -0.740242 0
M  V30 5614 C 526.141 -1.20623 -1.0451 0
M  V30 5615 C 526.341 -0.0641651 -2.01398 0
M  V30 5616 O 525.397 0.585843 -2.4561 0
M  V30 5617 C 526.71 -2.53815 -1.6124 0
M  V30 5618 C 528.258 -2.60615 -1.73346 0
M  V30 5619 C 528.733 -3.94015 -2.33486 0
M  V30 5620 N 530.224 -3.95627 -2.40902 0
M  V30 5621 C 530.959 -4.95616 -2.88361 0
M  V30 5622 N 530.455 -6.06003 -3.35756 0
M  V30 5623 N 532.248 -4.82998 -2.87523 0
M  V30 5624 H 524.399 -2.12176 -0.0975576 0
M  V30 5625 H 526.662 -0.942066 -0.105904 0
M  V30 5626 H 526.368 -3.37911 -0.975144 0
M  V30 5627 H 526.242 -2.73162 -2.6012 0
M  V30 5628 H 528.629 -1.76906 -2.36195 0
M  V30 5629 H 528.71 -2.45123 -0.731336 0
M  V30 5630 H 528.354 -4.78153 -1.71267 0
M  V30 5631 H 528.284 -4.06825 -3.34366 0
M  V30 5632 H 530.775 -3.15903 -2.07398 0
M  V30 5633 H 531.088 -6.78215 -3.70464 0
M  V30 5634 H 529.433 -6.09604 -3.33778 0
M  V30 5635 H 532.624 -3.95866 -2.49816 0
M  V30 5636 H 532.797 -5.61072 -3.24196 0
M  V30 5637 N 526.204 0.969867 -1.24223 0
M  V30 5638 C 527.137 2.06279 -0.975926 0
M  V30 5639 C 528.115 1.62353 0.0895385 0
M  V30 5640 O 529.299 1.88442 -0.0469418 0
M  V30 5641 C 526.426 3.35391 -0.472315 0
M  V30 5642 C 525.472 3.98266 -1.526 0
M  V30 5643 S 526.305 4.36172 -3.10667 0
M  V30 5644 C 527.461 5.68423 -2.62003 0
M  V30 5645 H 527.694 2.28551 -1.90137 0
M  V30 5646 H 525.227 1.10748 -1.07584 0
M  V30 5647 H 527.185 4.10068 -0.188376 0
M  V30 5648 H 525.846 3.1111 0.432378 0
M  V30 5649 H 525.039 4.91307 -1.12399 0
M  V30 5650 H 524.641 3.30009 -1.75983 0
M  V30 5651 H 526.933 6.45842 -2.0468 0
M  V30 5652 H 527.876 6.13478 -3.53625 0
M  V30 5653 H 528.284 5.26928 -2.02502 0
M  V30 5654 N 527.682 1.05563 1.17022 0
M  V30 5655 C 528.907 0.788437 1.91829 0
M  V30 5656 C 529.332 -0.650356 1.76499 0
M  V30 5657 O 528.69 -1.45229 1.08527 0
M  V30 5658 C 528.738 1.1786 3.40795 0
M  V30 5659 O 527.842 0.312965 4.11211 0
M  V30 5660 H 527.183 0.288794 0.597908 0
M  V30 5661 H 529.713 1.40948 1.48307 0
M  V30 5662 H 529.723 1.14697 3.91546 0
M  V30 5663 H 528.398 2.22666 3.51273 0
M  V30 5664 H 526.975 0.405515 3.70689 0
M  V30 5665 N 529.16 -1.33526 0.837174 0
M  V30 5666 C 530.576 -1.50727 0.524743 0
M  V30 5667 C 530.776 -1.77792 -0.948279 0
M  V30 5668 O 529.832 -1.83719 -1.73216 0
M  V30 5669 C 531.145 -2.66299 1.39661 0
M  V30 5670 C 532.693 -2.80183 1.39521 0
M  V30 5671 C 533.168 -3.98815 2.25189 0
M  V30 5672 N 534.659 -4.06047 2.2289 0
M  V30 5673 C 535.394 -4.97032 2.85915 0
M  V30 5674 N 534.89 -5.93143 3.57985 0
M  V30 5675 N 536.683 -4.90015 2.75394 0
M  V30 5676 H 528.834 -1.1422 1.79074 0
M  V30 5677 H 531.097 -0.561399 0.763894 0
M  V30 5678 H 530.803 -2.52974 2.4433 0
M  V30 5679 H 530.677 -3.61663 1.07145 0
M  V30 5680 H 533.064 -2.92942 0.356253 0
M  V30 5681 H 533.145 -1.85586 1.76044 0
M  V30 5682 H 532.789 -3.86817 3.29143 0
M  V30 5683 H 532.719 -4.92654 1.86009 0
M  V30 5684 H 535.21 -3.37262 1.70478 0
M  V30 5685 H 535.523 -6.59227 4.03286 0
M  V30 5686 H 533.868 -5.93223 3.62093 0
M  V30 5687 H 537.059 -4.13894 2.18654 0
M  V30 5688 H 537.232 -5.60724 3.24796 0
M  V30 5689 N 530.638 -0.59345 -1.46 0
M  V30 5690 C 531.568 0.121192 -2.33185 0
M  V30 5691 C 532.549 0.872977 -1.4599 0
M  V30 5692 O 533.734 0.846321 -1.74789 0
M  V30 5693 C 530.864 1.12844 -3.28456 0
M  V30 5694 C 529.818 0.4908 -4.25177 0
M  V30 5695 C 529.144 1.60529 -5.10034 0
M  V30 5696 C 530.444 -0.578949 -5.19081 0
M  V30 5697 H 532.138 -0.606767 -2.93187 0
M  V30 5698 H 529.684 -0.293242 -1.40983 0
M  V30 5699 H 531.637 1.63684 -3.88311 0
M  V30 5700 H 530.361 1.88681 -2.66584 0
M  V30 5701 H 529.02 0.00339328 -3.666 0
M  V30 5702 H 528.668 2.35359 -4.44539 0
M  V30 5703 H 528.368 1.18422 -5.75543 0
M  V30 5704 H 529.892 2.11623 -5.72755 0
M  V30 5705 H 531.306 -0.155199 -5.7309 0
M  V30 5706 H 529.703 -0.920947 -5.92991 0
M  V30 5707 H 530.773 -1.46109 -4.62364 0
M  V30 5708 N 532.116 1.54067 -0.331816 0
M  V30 5709 C 533.341 2.05599 0.272705 0
M  V30 5710 C 533.766 1.2059 1.44359 0
M  V30 5711 O 533.124 0.216907 1.79998 0
M  V30 5712 C 533.172 3.54188 0.677021 0
M  V30 5713 O 532.276 3.72082 1.77844 0
M  V30 5714 H 531.617 0.662286 0.0476801 0
M  V30 5715 H 534.147 1.98826 -0.482624 0
M  V30 5716 H 534.157 3.96608 0.957415 0
M  V30 5717 H 532.832 4.15513 -0.179325 0
M  V30 5718 H 531.409 3.41566 1.49622 0
M  V30 5719 N 533.594 0.0601682 1.57485 0
M  V30 5720 C 534.541 -0.91112 2.12055 0
M  V30 5721 C 535.511 -1.30298 1.03013 0
M  V30 5722 O 536.696 -1.39087 1.30612 0
M  V30 5723 C 533.836 -2.1775 2.67729 0
M  V30 5724 C 532.949 -1.83933 3.90887 0
M  V30 5725 C 532.084 -3.05096 4.34845 0
M  V30 5726 C 531.123 -2.67241 5.5068 0
M  V30 5727 N 530.26 -3.81127 5.8965 0
M  V30 5728 H 535.1 -0.43888 2.9475 0
M  V30 5729 H 532.637 -0.204995 1.45665 0
M  V30 5730 H 534.595 -2.91866 2.98111 0
M  V30 5731 H 533.225 -2.62535 1.87816 0
M  V30 5732 H 532.277 -0.999287 3.6704 0
M  V30 5733 H 533.589 -1.52074 4.75052 0
M  V30 5734 H 532.743 -3.87502 4.66827 0
M  V30 5735 H 531.482 -3.40139 3.49509 0
M  V30 5736 H 530.487 -1.83254 5.18361 0
M  V30 5737 H 531.712 -2.3338 6.37738 0
M  V30 5738 H 529.658 -4.15954 5.07266 0
M  V30 5739 H 529.575 -3.52997 6.68528 0
M  V30 5740 H 530.843 -4.64145 6.2625 0
M  V30 5741 N 535.072 -1.5615 -0.213296 0
M  V30 5742 C 536.318 -1.79812 -0.937849 0
M  V30 5743 C 536.651 -0.631201 -1.83656 0
M  V30 5744 O 535.926 0.369165 -1.90964 0
M  V30 5745 C 536.209 -3.13613 -1.76972 0
M  V30 5746 C 536.062 -4.40766 -0.89695 0
M  V30 5747 C 537.381 -3.43931 -2.7459 0
M  V30 5748 H 534.5 -0.654138 -0.339518 0
M  V30 5749 H 537.142 -1.88877 -0.20623 0
M  V30 5750 H 535.292 -3.06015 -2.39347 0
M  V30 5751 H 536.964 -4.60392 -0.289306 0
M  V30 5752 H 535.207 -4.33326 -0.202756 0
M  V30 5753 H 535.878 -5.30843 -1.51358 0
M  V30 5754 H 538.354 -3.5171 -2.22349 0
M  V30 5755 H 537.23 -4.38706 -3.29891 0
M  V30 5756 H 537.491 -2.6651 -3.52739 0
M  V30 5757 N 536.55 0.480323 -1.50102 0
M  V30 5758 C 537.513 1.56181 -1.6775 0
M  V30 5759 C 538.513 1.51156 -0.548503 0
M  V30 5760 O 539.703 1.5394 -0.815363 0
M  V30 5761 C 536.835 2.95823 -1.69415 0
M  V30 5762 H 538.028 1.41855 -2.6423 0
M  V30 5763 H 535.581 0.70605 -1.39444 0
M  V30 5764 H 536.316 3.15604 -0.745948 0
M  V30 5765 H 536.101 3.00878 -2.51425 0
M  V30 5766 H 537.591 3.74359 -1.85054 0
M  V30 5767 N 538.028 1.39524 0.732853 0
M  V30 5768 C 539.439 1.32905 1.31122 0
M  V30 5769 C 539.79 -0.00558708 1.96199 0
M  V30 5770 O 538.915 -0.907706 1.96443 0
M  V30 5771 C 539.51 2.40704 2.38426 0
M  V30 5772 C 538.069 2.37599 2.91931 0
M  V30 5773 C 537.216 2.2248 1.65523 0
M  V30 5774 H 540.167 1.49581 0.530207 0
M  V30 5775 H 540.188 2.07616 3.18867 0
M  V30 5776 H 539.7 3.37829 1.91033 0
M  V30 5777 H 537.801 1.44119 3.43599 0
M  V30 5778 H 537.914 3.32538 3.44899 0
M  V30 5779 H 536.278 1.69691 1.8994 0
M  V30 5780 H 537.061 3.21577 1.20178 0
M  V30 5781 N 539.506 -0.963266 1.24736 0
M  V30 5782 C 540.752 -1.70933 1.09131 0
M  V30 5783 C 541.085 -1.90676 -0.368273 0
M  V30 5784 O 540.36 -1.47147 -1.27193 0
M  V30 5785 C 540.643 -3.09744 1.83658 0
M  V30 5786 C 540.496 -2.97465 3.37394 0
M  V30 5787 C 541.815 -4.09483 1.61282 0
M  V30 5788 H 538.934 -0.620398 0.397838 0
M  V30 5789 H 541.576 -1.12028 1.53459 0
M  V30 5790 H 539.726 -3.60031 1.4598 0
M  V30 5791 H 541.398 -2.54571 3.84696 0
M  V30 5792 H 539.641 -2.33576 3.65547 0
M  V30 5793 H 540.312 -3.95822 3.84745 0
M  V30 5794 H 542.788 -3.68073 1.94066 0
M  V30 5795 H 541.664 -5.04666 2.15878 0
M  V30 5796 H 541.925 -4.38639 0.552102 0
M  V30 5797 N 540.985 -1.06182 -1.16461 0
M  V30 5798 C 542.234 -0.772927 -1.86303 0
M  V30 5799 C 542.547 0.703187 -1.82523 0
M  V30 5800 O 543.753 1.10641 -2.47933 0
M  V30 5801 C 542.209 -1.33249 -3.34324 0
M  V30 5802 C 541.817 -2.83876 -3.46581 0
M  V30 5803 C 543.561 -1.12108 -4.09429 0
M  V30 5804 C 541.468 -3.33082 -4.88682 0
M  V30 5805 H 540.398 -0.285452 -0.697878 0
M  V30 5806 H 543.049 -1.28039 -1.31447 0
M  V30 5807 H 541.431 -0.7528 -3.88779 0
M  V30 5808 H 542.605 -3.47786 -3.02293 0
M  V30 5809 H 540.92 -3.03671 -2.84909 0
M  V30 5810 H 543.517 -1.46361 -5.14279 0
M  V30 5811 H 543.86 -0.0593832 -4.16258 0
M  V30 5812 H 544.393 -1.6665 -3.6121 0
M  V30 5813 H 541.132 -4.38726 -4.87032 0
M  V30 5814 H 540.652 -2.73919 -5.33599 0
M  V30 5815 H 542.331 -3.28344 -5.57494 0
M  V30 5816 N 542.463 1.3308 -0.844243 0
M  V30 5817 C 543.41 2.29104 -0.279323 0
M  V30 5818 C 544.38 1.54577 0.607882 0
M  V30 5819 O 545.565 1.8285 0.545009 0
M  V30 5820 C 542.705 3.40927 0.53508 0
M  V30 5821 C 541.818 4.30354 -0.376749 0
M  V30 5822 C 540.953 5.29297 0.449276 0
M  V30 5823 C 539.992 6.10365 -0.460606 0
M  V30 5824 N 539.129 7.01335 0.327612 0
M  V30 5825 H 543.969 2.76817 -1.10346 0
M  V30 5826 H 541.506 1.36203 -0.555611 0
M  V30 5827 H 543.464 4.04469 1.02278 0
M  V30 5828 H 542.094 2.94391 1.32414 0
M  V30 5829 H 541.146 3.67485 -0.982791 0
M  V30 5830 H 542.458 4.87067 -1.07549 0
M  V30 5831 H 541.612 5.98392 1.00058 0
M  V30 5832 H 540.351 4.73174 1.18143 0
M  V30 5833 H 539.356 5.40182 -1.02388 0
M  V30 5834 H 540.581 6.68571 -1.1912 0
M  V30 5835 H 538.527 6.47655 1.04305 0
M  V30 5836 H 538.444 7.55355 -0.3123 0
M  V30 5837 H 539.712 7.74731 0.86098 0
M  V30 5838 N 543.941 0.601185 1.45683 0
M  V30 5839 C 544.904 -0.111398 2.28929 0
M  V30 5840 C 545.904 -0.801246 1.39416 0
M  V30 5841 O 547.094 -0.650383 1.61603 0
M  V30 5842 C 544.226 -1.16773 3.20276 0
M  V30 5843 H 545.419 0.620412 2.93413 0
M  V30 5844 H 542.972 0.359946 1.52099 0
M  V30 5845 H 543.707 -1.93051 2.60579 0
M  V30 5846 H 543.492 -0.677358 3.86205 0
M  V30 5847 H 544.982 -1.66698 3.82886 0
M  V30 5848 N 545.419 -1.53889 0.339982 0
M  V30 5849 C 546.835 -1.59595 -0.0120752 0
M  V30 5850 C 547.035 -1.35605 -1.49042 0
M  V30 5851 O 546.091 -1.14856 -2.24865 0
M  V30 5852 C 547.404 -2.9774 0.420898 0
M  V30 5853 C 548.952 -3.1077 0.37294 0
M  V30 5854 C 549.427 -4.51286 0.781327 0
M  V30 5855 N 550.918 -4.57325 0.735374 0
M  V30 5856 C 551.653 -5.64194 1.02336 0
M  V30 5857 N 551.149 -6.7893 1.37933 0
M  V30 5858 N 552.942 -5.54051 0.947838 0
M  V30 5859 H 545.093 -1.67738 1.30299 0
M  V30 5860 H 547.356 -0.785385 0.530918 0
M  V30 5861 H 547.062 -3.20349 1.45152 0
M  V30 5862 H 546.936 -3.76639 -0.205721 0
M  V30 5863 H 549.323 -2.87886 -0.648505 0
M  V30 5864 H 549.404 -2.33939 1.03472 0
M  V30 5865 H 549.048 -4.74905 1.80077 0
M  V30 5866 H 548.978 -5.26511 0.0970679 0
M  V30 5867 H 551.469 -3.74931 0.472773 0
M  V30 5868 H 551.782 -7.56392 1.58402 0
M  V30 5869 H 550.127 -6.80386 1.41774 0
M  V30 5870 H 553.318 -4.63293 0.669115 0
M  V30 5871 H 553.491 -6.37246 1.17563 0
M  V30 5872 N 546.897 -0.0685191 -1.57451 0
M  V30 5873 C 547.83 0.935736 -2.08133 0
M  V30 5874 C 548.808 1.29317 -0.985698 0
M  V30 5875 O 549.992 1.40304 -1.25886 0
M  V30 5876 C 547.119 2.2448 -2.53627 0
M  V30 5877 C 546.165 2.03917 -3.74593 0
M  V30 5878 S 546.998 1.30154 -5.19442 0
M  V30 5879 C 548.154 2.62346 -5.68265 0
M  V30 5880 H 548.387 0.504473 -2.92989 0
M  V30 5881 H 545.92 0.144169 -1.53725 0
M  V30 5882 H 547.878 2.99718 -2.80499 0
M  V30 5883 H 546.539 2.64731 -1.69045 0
M  V30 5884 H 545.732 3.00788 -4.04404 0
M  V30 5885 H 545.334 1.36815 -3.48077 0
M  V30 5886 H 547.626 3.58448 -5.7491 0
M  V30 5887 H 548.569 2.3715 -6.67207 0
M  V30 5888 H 548.977 2.69401 -4.96068 0
M  V30 5889 N 548.375 1.56261 0.205012 0
M  V30 5890 C 549.308 1.88797 1.28183 0
M  V30 5891 C 550.286 0.747018 1.44424 0
M  V30 5892 O 551.47 0.997039 1.59973 0
M  V30 5893 C 548.597 2.10949 2.64987 0
M  V30 5894 C 547.643 3.33649 2.6567 0
M  V30 5895 S 548.476 4.89078 2.18088 0
M  V30 5896 C 549.632 5.14286 3.56736 0
M  V30 5897 H 549.865 2.79837 1.00393 0
M  V30 5898 H 547.398 1.48911 0.408042 0
M  V30 5899 H 549.356 2.24395 3.4374 0
M  V30 5900 H 548.017 1.20678 2.89993 0
M  V30 5901 H 547.21 3.46245 3.66239 0
M  V30 5902 H 546.812 3.19146 1.94992 0
M  V30 5903 H 549.104 5.04198 4.52537 0
M  V30 5904 H 550.047 6.16096 3.49043 0
M  V30 5905 H 550.455 4.41957 3.51189 0
M  V30 5906 N 549.853 -0.472356 1.50355 0
M  V30 5907 C 550.763 -1.59637 1.7191 0
M  V30 5908 C 551.779 -1.63247 0.602195 0
M  V30 5909 O 552.955 -1.81139 0.880369 0
M  V30 5910 C 550.02 -2.9586 1.80742 0
M  V30 5911 C 549.081 -3.02649 3.04471 0
M  V30 5912 C 548.314 -4.32374 3.12872 0
M  V30 5913 O 548.537 -5.22807 2.28099 0
M  V30 5914 O 547.471 -4.44728 4.05587 0
M  V30 5915 H 551.297 -1.44373 2.67189 0
M  V30 5916 H 548.882 -0.651717 1.34436 0
M  V30 5917 H 550.764 -3.7677 1.88739 0
M  V30 5918 H 549.439 -3.11325 0.88647 0
M  V30 5919 H 548.346 -2.20821 3.01975 0
M  V30 5920 H 549.679 -2.92119 3.9614 0
M  V30 5921 N 551.331 -1.39911 -0.725443 0
M  V30 5922 C 552.561 -1.40744 -1.51244 0
M  V30 5923 C 552.969 -0.00275403 -1.892 0
M  V30 5924 O 552.312 0.981299 -1.55294 0
M  V30 5925 C 552.374 -2.22527 -2.82351 0
M  V30 5926 C 552.038 -3.71053 -2.66774 0
M  V30 5927 C 553.035 -4.63916 -2.34686 0
M  V30 5928 C 550.72 -4.14753 -2.83347 0
M  V30 5929 C 552.714 -5.98463 -2.19366 0
M  V30 5930 C 550.401 -5.49372 -2.67644 0
M  V30 5931 C 551.399 -6.41042 -2.357 0
M  V30 5932 O 551.087 -7.73181 -2.20107 0
M  V30 5933 H 550.819 -0.482314 -0.473655 0
M  V30 5934 H 553.373 -1.84472 -0.903284 0
M  V30 5935 H 551.603 -1.73563 -3.45562 0
M  V30 5936 H 553.292 -2.15421 -3.44018 0
M  V30 5937 H 554.058 -4.31453 -2.21525 0
M  V30 5938 H 549.937 -3.43728 -3.072 0
M  V30 5939 H 553.481 -6.69979 -1.94354 0
M  V30 5940 H 549.378 -5.81424 -2.80387 0
M  V30 5941 H 550.146 -7.84008 -2.35103 0
M  V30 5942 N 552.809 0.956637 -1.25245 0
M  V30 5943 C 554.057 1.69764 -1.09657 0
M  V30 5944 C 554.378 1.91583 0.363464 0
M  V30 5945 O 553.648 1.50149 1.25825 0
M  V30 5946 H 552.228 0.629097 -0.402798 0
M  V30 5947 H 554.89 1.15026 -1.57337 0
M  V30 5948 H 553.986 2.67769 -1.60331 0
M  V30 5949 N 554.287 1.06798 1.15896 0
M  V30 5950 C 555.515 0.808694 1.90441 0
M  V30 5951 C 555.93 -0.637506 1.77711 0
M  V30 5952 O 555.287 -1.43684 1.12522 0
M  V30 5953 C 555.338 1.20068 3.40978 0
M  V30 5954 O 555.059 2.59013 3.53333 0
M  V30 5955 C 556.56 0.96987 4.3256 0
M  V30 5956 H 553.78 0.292809 0.603742 0
M  V30 5957 H 556.324 1.42296 1.46874 0
M  V30 5958 H 554.479 0.630842 3.82229 0
M  V30 5959 H 554.893 2.7485 4.46719 0
M  V30 5960 H 556.367 1.29371 5.36626 0
M  V30 5961 H 556.844 -0.0941209 4.39099 0
M  V30 5962 H 557.45 1.52433 3.97044 0
M  V30 5963 N 555.766 -1.3263 0.851289 0
M  V30 5964 C 556.994 -2.01563 0.466899 0
M  V30 5965 C 557.409 -1.63996 -0.935447 0
M  V30 5966 O 556.766 -0.85957 -1.6099 0
M  V30 5967 C 556.817 -3.56613 0.592433 0
M  V30 5968 O 556.538 -3.92828 1.93954 0
M  V30 5969 C 558.039 -4.42818 0.206612 0
M  V30 5970 H 555.259 -0.645307 0.183902 0
M  V30 5971 H 557.803 -1.69285 1.1473 0
M  V30 5972 H 555.958 -3.87379 -0.0401936 0
M  V30 5973 H 556.372 -4.87545 1.9339 0
M  V30 5974 H 557.846 -5.50918 0.345462 0
M  V30 5975 H 558.323 -4.30844 -0.85264 0
M  V30 5976 H 558.929 -4.17434 0.814176 0
M  V30 5977 N 557.244 -0.608902 -1.45362 0
M  V30 5978 C 558.177 0.158059 -2.27652 0
M  V30 5979 C 559.155 0.872397 -1.37215 0
M  V30 5980 O 560.339 0.881002 -1.66645 0
M  V30 5981 C 557.466 1.22896 -3.15617 0
M  V30 5982 C 556.512 0.617607 -4.22005 0
M  V30 5983 S 557.345 -0.575518 -5.32398 0
M  V30 5984 C 558.501 0.495938 -6.23932 0
M  V30 5985 H 558.734 -0.540095 -2.92353 0
M  V30 5986 H 556.267 -0.396456 -1.49223 0
M  V30 5987 H 558.225 1.84195 -3.66855 0
M  V30 5988 H 556.886 1.89919 -2.50179 0
M  V30 5989 H 556.079 1.42341 -4.83482 0
M  V30 5990 H 555.681 0.0797273 -3.73915 0
M  V30 5991 H 557.973 1.37465 -6.63408 0
M  V30 5992 H 558.916 -0.0827108 -7.08052 0
M  V30 5993 H 559.324 0.811856 -5.58631 0
M  V30 5994 N 558.722 1.53707 -0.348139 0
M  V30 5995 C 559.968 2.01286 0.247332 0
M  V30 5996 C 560.301 1.23546 1.49834 0
M  V30 5997 O 559.576 0.324331 1.91777 0
M  V30 5998 C 559.859 3.55768 0.556858 0
M  V30 5999 C 559.712 4.44216 -0.706564 0
M  V30 6000 C 561.031 4.1841 1.3646 0
M  V30 6001 H 558.15 0.731677 0.0884201 0
M  V30 6002 H 560.792 1.84106 -0.469584 0
M  V30 6003 H 558.942 3.70539 1.16761 0
M  V30 6004 H 560.614 4.41274 -1.34444 0
M  V30 6005 H 558.857 4.12892 -1.33052 0
M  V30 6006 H 559.528 5.50202 -0.445186 0
M  V30 6007 H 562.004 4.07365 0.848113 0
M  V30 6008 H 560.88 5.26563 1.54992 0
M  V30 6009 H 561.141 3.7333 2.36805 0
M  V30 6010 N 560.2 0.0768682 1.57412 0
M  V30 6011 C 561.425 -0.603404 1.98428 0
M  V30 6012 C 561.85 -1.62047 0.955108 0
M  V30 6013 O 561.208 -1.81129 -0.0786778 0
M  V30 6014 C 561.256 -1.24396 3.38464 0
M  V30 6015 O 560.36 -2.35982 3.3821 0
M  V30 6016 H 559.701 -0.154741 0.645718 0
M  V30 6017 H 562.231 0.152885 2.04028 0
M  V30 6018 H 562.241 -1.5896 3.7576 0
M  V30 6019 H 560.916 -0.498735 4.12899 0
M  V30 6020 H 559.493 -2.03173 3.1269 0
M  V30 6021 N 561.678 -1.56367 -0.196722 0
M  V30 6022 C 562.908 -1.84371 -0.932254 0
M  V30 6023 C 563.316 -0.657013 -1.77426 0
M  V30 6024 O 562.659 0.383576 -1.79651 0
M  V30 6025 C 562.721 -3.06454 -1.87952 0
M  V30 6026 C 562.385 -4.40425 -1.21962 0
M  V30 6027 C 563.382 -5.16457 -0.597343 0
M  V30 6028 C 561.067 -4.8716 -1.22396 0
M  V30 6029 C 563.061 -6.37399 0.0117913 0
M  V30 6030 C 560.748 -6.08038 -0.610995 0
M  V30 6031 C 561.746 -6.83 0.00580487 0
M  V30 6032 O 561.434 -8.01589 0.609173 0
M  V30 6033 H 561.166 -0.616377 -0.277589 0
M  V30 6034 H 563.72 -2.04329 -0.209452 0
M  V30 6035 H 561.95 -2.82377 -2.64197 0
M  V30 6036 H 563.639 -3.21118 -2.48271 0
M  V30 6037 H 564.405 -4.81445 -0.586142 0
M  V30 6038 H 560.284 -4.2877 -1.69345 0
M  V30 6039 H 563.828 -6.9585 0.493836 0
M  V30 6040 H 559.725 -6.42519 -0.619693 0
M  V30 6041 H 560.493 -8.16935 0.505919 0
M  V30 6042 N 563.156 0.464375 -1.50603 0
M  V30 6043 C 564.088 1.57916 -1.66118 0
M  V30 6044 C 565.101 1.53497 -0.54246 0
M  V30 6045 O 566.29 1.58763 -0.815877 0
M  V30 6046 C 563.39 2.96809 -1.63577 0
M  V30 6047 C 562.563 3.26026 -2.91592 0
M  V30 6048 C 561.622 4.44506 -2.81604 0
M  V30 6049 O 560.648 4.44484 -3.55559 0
M  V30 6050 N 561.85 5.46549 -1.95614 0
M  V30 6051 H 564.615 1.45022 -2.62276 0
M  V30 6052 H 562.176 0.652903 -1.48151 0
M  V30 6053 H 564.168 3.74048 -1.54499 0
M  V30 6054 H 562.738 3.03438 -0.751262 0
M  V30 6055 H 561.958 2.37337 -3.14746 0
M  V30 6056 H 563.246 3.42361 -3.76386 0
M  V30 6057 H 562.644 5.49391 -1.34854 0
M  V30 6058 H 561.201 6.22746 -1.92435 0
M  V30 6059 N 564.634 1.40294 0.718013 0
M  V30 6060 C 566.045 1.34289 1.29705 0
M  V30 6061 C 566.396 0.0152228 1.96194 0
M  V30 6062 O 565.521 -0.88682 1.97394 0
M  V30 6063 C 566.116 2.43219 2.3586 0
M  V30 6064 C 564.675 2.40682 2.89394 0
M  V30 6065 C 563.822 2.24223 1.63154 0
M  V30 6066 H 566.773 1.50135 0.514312 0
M  V30 6067 H 566.794 2.10986 3.16647 0
M  V30 6068 H 566.306 3.39836 1.87439 0
M  V30 6069 H 564.407 1.47756 3.42051 0
M  V30 6070 H 564.52 3.36177 3.41353 0
M  V30 6071 H 562.884 1.71696 1.88129 0
M  V30 6072 H 563.667 3.22834 1.16761 0
M  V30 6073 N 566.112 -0.949982 1.2575 0
M  V30 6074 C 567.042 -2.06483 1.09028 0
M  V30 6075 C 568.023 -1.701 -0.00201532 0
M  V30 6076 O 569.208 -1.93469 0.168383 0
M  V30 6077 C 566.338 -3.39899 0.71316 0
M  V30 6078 C 565.292 -3.90309 1.75621 0
M  V30 6079 C 564.618 -5.20274 1.23365 0
M  V30 6080 C 565.918 -4.16169 3.15596 0
M  V30 6081 H 567.612 -2.20731 2.02283 0
M  V30 6082 H 565.158 -1.06066 0.973964 0
M  V30 6083 H 567.111 -4.17346 0.58309 0
M  V30 6084 H 565.835 -3.25602 -0.255091 0
M  V30 6085 H 564.494 -3.15035 1.8748 0
M  V30 6086 H 564.142 -5.02351 0.255491 0
M  V30 6087 H 563.842 -5.54971 1.93082 0
M  V30 6088 H 565.366 -6.00314 1.11607 0
M  V30 6089 H 566.78 -4.84259 3.06864 0
M  V30 6090 H 565.177 -4.62131 3.82825 0
M  V30 6091 H 566.247 -3.22273 3.6231 0
M  V30 6092 N 567.59 -1.07411 -1.15328 0
M  V30 6093 C 568.838 -0.796073 -1.85761 0
M  V30 6094 C 569.159 0.679864 -1.82764 0
M  V30 6095 O 568.429 1.49242 -1.269 0
M  V30 6096 H 567.009 -0.291495 -0.687779 0
M  V30 6097 H 569.671 -1.35799 -1.39802 0
M  V30 6098 H 568.767 -1.13114 -2.90881 0
M  V30 6099 N 569.068 1.32177 -0.85831 0
M  V30 6100 C 570.345 1.91781 -0.384624 0
M  V30 6101 C 570.725 1.78171 1.13217 0
M  V30 6102 O 570.073 1.18209 1.95548 0
M  V30 6103 C 570.283 3.38414 -0.853047 0
M  V30 6104 C 571.631 4.15542 -0.872359 0
M  V30 6105 O 572.655 3.47148 -0.797926 0
M  V30 6106 O 571.514 5.37678 -0.978009 0
M  V30 6107 H 568.608 0.819259 -0.112886 0
M  V30 6108 H 571.154 1.40923 -0.945453 0
M  V30 6109 H 569.926 3.4228 -1.89632 0
M  V30 6110 H 569.549 3.96683 -0.269874 0
M  V30 6111 N 570.547 0.616602 1.45037 0
M  V30 6112 C 571.494 -0.0969439 2.30596 0
M  V30 6113 C 572.464 -0.851151 1.42635 0
M  V30 6114 O 573.649 -0.835092 1.71554 0
M  V30 6115 C 570.789 -1.08234 3.27688 0
M  V30 6116 C 569.902 -0.328072 4.30752 0
M  V30 6117 C 569.037 -1.30399 5.14946 0
M  V30 6118 C 568.076 -0.538049 6.09731 0
M  V30 6119 N 567.213 -1.46371 6.86673 0
M  V30 6120 H 572.053 0.63864 2.91076 0
M  V30 6121 H 569.59 0.326733 1.43425 0
M  V30 6122 H 571.548 -1.66688 3.82454 0
M  V30 6123 H 570.178 -1.78523 2.68941 0
M  V30 6124 H 569.23 0.372136 3.78575 0
M  V30 6125 H 570.542 0.269142 4.98073 0
M  V30 6126 H 569.696 -1.96032 5.74157 0
M  V30 6127 H 568.435 -1.93514 4.47665 0
M  V30 6128 H 567.44 0.131852 5.49642 0
M  V30 6129 H 568.665 0.0881732 6.79043 0
M  V30 6130 H 566.611 -2.08233 6.22073 0
M  V30 6131 H 566.528 -0.920152 7.50379 0
M  V30 6132 H 567.796 -2.10932 7.50418 0
M  V30 6133 N 572.025 -1.5352 0.356285 0
M  V30 6134 C 573.271 -2.01414 -0.236653 0
M  V30 6135 C 573.604 -1.24339 -1.49176 0
M  V30 6136 O 572.879 -0.334496 -1.91602 0
M  V30 6137 C 573.162 -3.56059 -0.537982 0
M  V30 6138 C 573.015 -4.43835 0.730112 0
M  V30 6139 C 574.334 -4.19127 -1.34239 0
M  V30 6140 H 571.453 -0.732135 -0.0845386 0
M  V30 6141 H 574.095 -1.83854 0.479341 0
M  V30 6142 H 572.245 -3.71153 -1.14795 0
M  V30 6143 H 573.917 -4.40555 1.36782 0
M  V30 6144 H 572.16 -4.1218 1.3524 0
M  V30 6145 H 572.831 -5.49958 0.474358 0
M  V30 6146 H 575.307 -4.07809 -0.826498 0
M  V30 6147 H 574.183 -5.27378 -1.52198 0
M  V30 6148 H 574.444 -3.74581 -2.34822 0
M  V30 6149 N 573.503 -0.0852151 -1.57369 0
M  V30 6150 C 574.451 0.894856 -2.14698 0
M  V30 6151 C 575.445 1.29903 -1.08727 0
M  V30 6152 O 576.651 1.27471 -1.27088 0
M  V30 6153 H 573.026 0.306569 -0.686673 0
M  V30 6154 H 574.997 0.386542 -2.95886 0
M  V30 6155 C 573.746 2.14798 -2.73417 0
M  V30 6156 H 573.069 1.84585 -3.54638 0
M  V30 6157 H 574.509 2.81456 -3.1711 0
M  V30 6158 C 572.968 2.91546 -1.68828 0
M  V30 6159 O 573.498 3.85733 -1.12129 0
M  V30 6160 N 571.704 2.54901 -1.39549 0
M  V30 6161 H 571.251 1.7838 -1.85845 0
M  V30 6162 H 571.209 3.06553 -0.698054 0
M  V30 6163 N 574.981 1.5647 0.188427 0
M  V30 6164 C 576.228 1.81013 0.907779 0
M  V30 6165 C 576.556 0.65953 1.82977 0
M  V30 6166 O 575.811 -0.354308 1.92466 0
M  V30 6167 C 576.11 3.11596 1.7505 0
M  V30 6168 C 575.776 4.40145 0.978922 0
M  V30 6169 C 574.438 4.75066 0.765912 0
M  V30 6170 C 576.79 5.19369 0.436498 0
M  V30 6171 C 574.118 5.867 -0.00089868 0
M  V30 6172 C 576.47 6.31805 -0.317136 0
M  V30 6173 C 575.134 6.65303 -0.541103 0
M  V30 6174 H 574.404 0.662373 0.33218 0
M  V30 6175 H 577.051 1.9071 0.173732 0
M  V30 6176 H 575.356 2.97165 2.55343 0
M  V30 6177 H 577.053 3.27793 2.30983 0
M  V30 6178 H 573.643 4.12745 1.15497 0
M  V30 6179 H 577.827 4.92799 0.588449 0
M  V30 6180 H 573.083 6.11122 -0.184329 0
M  V30 6181 H 577.257 6.92406 -0.744788 0
M  V30 6182 H 574.884 7.51646 -1.13718 0
M  V30 6183 N 576.459 -0.456382 1.50847 0
M  V30 6184 C 577.706 -1.20736 1.62571 0
M  V30 6185 C 578.034 -1.9163 0.332904 0
M  V30 6186 O 577.289 -1.8343 -0.682058 0
M  V30 6187 C 577.588 -2.26336 2.76599 0
M  V30 6188 C 577.254 -1.7259 4.16562 0
M  V30 6189 C 575.916 -1.57654 4.54641 0
M  V30 6190 C 578.268 -1.32877 5.03977 0
M  V30 6191 C 575.596 -1.0145 5.77862 0
M  V30 6192 C 577.948 -0.7811 6.27759 0
M  V30 6193 C 576.612 -0.618488 6.64628 0
M  V30 6194 H 575.882 -0.441803 0.594888 0
M  V30 6195 H 578.529 -0.501169 1.84826 0
M  V30 6196 H 576.834 -3.0292 2.48489 0
M  V30 6197 H 578.531 -2.84227 2.82871 0
M  V30 6198 H 575.121 -1.85187 3.86528 0
M  V30 6199 H 579.305 -1.43245 4.75179 0
M  V30 6200 H 574.561 -0.876109 6.0509 0
M  V30 6201 H 578.735 -0.464783 6.94847 0
M  V30 6202 H 576.362 -0.180838 7.59985 0
M  V30 6203 N 577.937 -1.40673 -0.710563 0
M  V30 6204 C 579.353 -1.22813 -1.01928 0
M  V30 6205 C 579.553 -0.10687 -2.01216 0
M  V30 6206 O 578.609 0.533614 -2.46797 0
M  V30 6207 C 579.922 -2.57178 -1.5582 0
M  V30 6208 C 581.47 -2.64233 -1.67779 0
M  V30 6209 C 581.945 -3.98879 -2.25076 0
M  V30 6210 N 583.436 -4.00647 -2.32456 0
M  V30 6211 C 584.171 -5.01621 -2.77784 0
M  V30 6212 N 583.667 -6.12989 -3.22826 0
M  V30 6213 N 585.46 -4.88988 -2.77213 0
M  V30 6214 H 577.611 -2.12335 -0.05253 0
M  V30 6215 H 579.874 -0.9441 -0.085898 0
M  V30 6216 H 579.58 -3.39903 -0.903249 0
M  V30 6217 H 579.454 -2.78618 -2.54267 0
M  V30 6218 H 581.841 -1.81876 -2.3239 0
M  V30 6219 H 581.922 -2.46619 -0.679178 0
M  V30 6220 H 581.566 -4.81678 -1.61086 0
M  V30 6221 H 581.496 -4.13826 -3.25661 0
M  V30 6222 H 583.987 -3.20231 -2.0065 0
M  V30 6223 H 584.3 -6.85921 -3.55995 0
M  V30 6224 H 582.645 -6.16547 -3.20773 0
M  V30 6225 H 585.836 -4.01075 -2.41363 0
M  V30 6226 H 586.009 -5.67822 -3.12221 0
M  V30 6227 N 579.415 0.9433 -1.26252 0
M  V30 6228 C 580.348 2.04162 -1.01946 0
M  V30 6229 C 581.326 1.62507 0.0550808 0
M  V30 6230 O 582.51 1.883 -0.0869025 0
M  V30 6231 C 579.637 3.34313 -0.54335 0
M  V30 6232 C 578.683 3.94939 -1.61013 0
M  V30 6233 S 579.516 4.29484 -3.19849 0
M  V30 6234 C 580.672 5.62738 -2.74001 0
M  V30 6235 H 580.905 2.24466 -1.94942 0
M  V30 6236 H 578.438 1.08441 -1.09909 0
M  V30 6237 H 580.396 4.09576 -0.275315 0
M  V30 6238 H 579.057 3.11957 0.36629 0
M  V30 6239 H 578.25 4.88812 -1.22795 0
M  V30 6240 H 577.852 3.26202 -1.82943 0
M  V30 6241 H 580.144 6.41356 -2.18333 0
M  V30 6242 H 581.087 6.05839 -3.66558 0
M  V30 6243 H 581.495 5.22514 -2.13634 0
M  V30 6244 N 580.893 1.08022 1.14757 0
M  V30 6245 C 582.139 0.808705 1.85978 0
M  V30 6246 C 582.472 -0.663764 1.82504 0
M  V30 6247 O 581.747 -1.48765 1.25296 0
M  V30 6248 C 582.03 1.32623 3.34788 0
M  V30 6249 C 581.883 2.86375 3.46856 0
M  V30 6250 C 583.202 0.948291 4.29762 0
M  V30 6251 H 580.321 0.295244 0.675278 0
M  V30 6252 H 582.963 1.33917 1.34783 0
M  V30 6253 H 581.113 0.875002 3.78518 0
M  V30 6254 H 582.785 3.39839 3.11941 0
M  V30 6255 H 581.028 3.24232 2.88194 0
M  V30 6256 H 581.699 3.17658 4.51439 0
M  V30 6257 H 584.175 1.33722 3.94028 0
M  V30 6258 H 583.051 1.33765 5.32352 0
M  V30 6259 H 583.312 -0.145094 4.41862 0
M  V30 6260 N 582.371 -1.3172 0.865308 0
M  V30 6261 C 583.62 -1.96145 0.470098 0
M  V30 6262 C 583.933 -1.69182 -0.981674 0
M  V30 6263 O 585.139 -2.27431 -1.48281 0
M  V30 6264 C 583.595 -3.51129 0.789732 0
M  V30 6265 C 583.203 -3.86938 2.25795 0
M  V30 6266 C 584.947 -4.2197 0.462765 0
M  V30 6267 C 582.854 -5.35012 2.52024 0
M  V30 6268 H 581.784 -0.734105 0.172065 0
M  V30 6269 H 584.435 -1.49959 1.05757 0
M  V30 6270 H 582.817 -3.95781 0.131571 0
M  V30 6271 H 583.991 -3.5326 2.95879 0
M  V30 6272 H 582.306 -3.29149 2.55049 0
M  V30 6273 H 584.903 -5.30904 0.636019 0
M  V30 6274 H 585.246 -4.12005 -0.59645 0
M  V30 6275 H 585.779 -3.82936 1.07727 0
M  V30 6276 H 582.518 -5.50008 3.56611 0
M  V30 6277 H 582.038 -5.70058 1.8653 0
M  V30 6278 H 583.717 -6.0222 2.36515 0
M  V30 6279 N 583.85 -0.624285 -1.44708 0
M  V30 6280 C 585.075 -0.131171 -2.06985 0
M  V30 6281 C 585.5 1.18234 -1.46295 0
M  V30 6282 O 584.858 1.72375 -0.561842 0
M  V30 6283 C 584.906 -0.0226724 -3.60593 0
M  V30 6284 O 584.01 1.02314 -3.99507 0
M  V30 6285 H 583.351 -0.0816556 -0.65896 0
M  V30 6286 H 585.88 -0.859027 -1.85693 0
M  V30 6287 H 585.891 0.170138 -4.07645 0
M  V30 6288 H 584.566 -0.981685 -4.04148 0
M  V30 6289 H 583.143 0.805452 -3.64097 0
M  V30 6290 N 585.328 1.53329 -0.364422 0
M  V30 6291 C 586.276 2.27212 0.497737 0
M  V30 6292 C 587.27 1.30146 1.08437 0
M  V30 6293 O 588.476 1.47778 1.0277 0
M  V30 6294 H 584.851 0.730329 0.179232 0
M  V30 6295 H 586.822 2.98037 -0.147182 0
M  V30 6296 C 585.571 3.07333 1.6261 0
M  V30 6297 H 584.894 3.81866 1.184 0
M  V30 6298 H 586.334 3.62209 2.20409 0
M  V30 6299 C 584.793 2.18102 2.56775 0
M  V30 6300 O 585.323 1.79104 3.59562 0
M  V30 6301 N 583.529 1.82759 2.25937 0
M  V30 6302 H 583.076 2.14671 1.42387 0
M  V30 6303 H 583.034 1.23342 2.89196 0
M  V30 6304 N 586.806 0.0935595 1.57322 0
M  V30 6305 C 588.217 -0.435807 1.81542 0
M  V30 6306 C 588.568 -1.68263 1.00907 0
M  V30 6307 O 587.693 -2.15087 0.237983 0
M  V30 6308 C 588.288 -0.797436 3.29282 0
M  V30 6309 C 586.847 -1.27155 3.54272 0
M  V30 6310 C 585.994 -0.267455 2.76007 0
M  V30 6311 H 588.945 0.31902 1.5546 0
M  V30 6312 H 588.966 -1.6571 3.42521 0
M  V30 6313 H 588.478 0.110206 3.87943 0
M  V30 6314 H 586.579 -2.19696 3.00939 0
M  V30 6315 H 586.692 -1.23445 4.62923 0
M  V30 6316 H 585.056 -0.749282 2.43429 0
M  V30 6317 H 585.839 0.632839 3.37417 0
M  V30 6318 N 588.284 -1.56567 -0.180126 0
M  V30 6319 C 589.247 -1.94852 -1.20686 0
M  V30 6320 C 590.247 -0.831212 -1.3765 0
M  V30 6321 O 591.437 -1.09841 -1.35206 0
M  V30 6322 C 588.569 -2.23565 -2.57355 0
M  V30 6323 H 589.762 -2.86722 -0.879225 0
M  V30 6324 H 587.315 -1.50489 -0.422237 0
M  V30 6325 H 588.05 -1.34381 -2.95148 0
M  V30 6326 H 587.835 -3.04999 -2.46411 0
M  V30 6327 H 589.325 -2.54137 -3.31367 0
M  V30 6328 N 589.762 0.448376 -1.51087 0
M  V30 6329 C 590.725 1.52588 -1.71025 0
M  V30 6330 C 591.725 1.49958 -0.580442 0
M  V30 6331 O 592.915 1.52176 -0.847833 0
M  V30 6332 C 590.047 2.92163 -1.75652 0
M  V30 6333 H 591.24 1.36218 -2.67179 0
M  V30 6334 H 588.793 0.676313 -1.4091 0
M  V30 6335 H 589.528 3.13951 -0.812724 0
M  V30 6336 H 589.313 2.95478 -2.57751 0
M  V30 6337 H 590.803 3.70349 -1.92953 0
M  V30 6338 N 591.24 1.41047 0.703093 0
M  V30 6339 C 592.468 1.4334 1.49202 0
M  V30 6340 C 592.883 0.0365596 1.88765 0
M  V30 6341 O 592.24 -0.942419 1.56284 0
M  V30 6342 C 592.291 2.33538 2.75939 0
M  V30 6343 O 592.012 3.67786 2.38045 0
M  V30 6344 C 593.513 2.44555 3.6974 0
M  V30 6345 H 590.733 0.488472 0.460039 0
M  V30 6346 H 593.277 1.85245 0.86629 0
M  V30 6347 H 591.432 1.94962 3.34766 0
M  V30 6348 H 591.846 4.15816 3.19683 0
M  V30 6349 H 593.32 3.11849 4.55471 0
M  V30 6350 H 593.797 1.47447 4.1371 0
M  V30 6351 H 594.403 2.83735 3.16819 0
M  V30 6352 N 592.718 -0.936591 1.26751 0
M  V30 6353 C 593.668 -2.0219 1.05371 0
M  V30 6354 C 594.652 -1.60893 -0.0154112 0
M  V30 6355 O 595.844 -1.75843 0.202085 0
M  V30 6356 C 592.973 -3.36222 0.693541 0
M  V30 6357 C 592.059 -3.8399 1.80035 0
M  V30 6358 N 592.45 -4.0436 3.03852 0
M  V30 6359 C 590.748 -4.12945 1.685 0
M  V30 6360 C 591.449 -4.44 3.75818 0
M  V30 6361 N 590.425 -4.50966 3.03531 0
M  V30 6362 H 594.227 -2.15958 1.99347 0
M  V30 6363 H 591.741 -1.12277 1.17335 0
M  V30 6364 H 593.738 -4.13625 0.521513 0
M  V30 6365 H 592.398 -3.23821 -0.238693 0
M  V30 6366 H 593.409 -3.9092 3.39709 0
M  V30 6367 H 590.086 -4.09308 0.822986 0
M  V30 6368 H 591.476 -4.67914 4.82189 0
M  V30 6369 N 594.196 -1.08629 -1.14182 0
M  V30 6370 C 595.128 -0.676189 -2.18998 0
M  V30 6371 C 596.141 0.277871 -1.60411 0
M  V30 6372 O 597.33 0.0651771 -1.78381 0
M  V30 6373 C 594.43 0.0254916 -3.3889 0
M  V30 6374 C 593.603 -0.948039 -4.27002 0
M  V30 6375 C 592.662 -0.281268 -5.25448 0
M  V30 6376 O 591.688 -0.926378 -5.61611 0
M  V30 6377 N 592.89 0.967923 -5.72374 0
M  V30 6378 H 595.655 -1.57792 -2.54798 0
M  V30 6379 H 593.216 -0.972665 -1.29425 0
M  V30 6380 H 595.208 0.482554 -4.01813 0
M  V30 6381 H 593.778 0.829348 -3.01398 0
M  V30 6382 H 592.998 -1.58388 -3.6098 0
M  V30 6383 H 594.286 -1.60765 -4.82734 0
M  V30 6384 H 593.684 1.51175 -5.45126 0
M  V30 6385 H 592.241 1.36844 -6.37273 0
M  V30 6386 N 595.674 1.31259 -0.872281 0
M  V30 6387 C 596.951 1.91362 -0.404943 0
M  V30 6388 C 597.331 1.79362 1.11321 0
M  V30 6389 O 596.679 1.20277 1.94283 0
M  V30 6390 C 596.889 3.3749 -0.888893 0
M  V30 6391 C 598.237 4.14593 -0.916384 0
M  V30 6392 O 599.261 3.46282 -0.834701 0
M  V30 6393 O 598.12 5.3661 -1.03498 0
M  V30 6394 H 595.214 0.818016 -0.121569 0
M  V30 6395 H 597.76 1.39912 -0.960346 0
M  V30 6396 H 596.532 3.40249 -1.93251 0
M  V30 6397 H 596.155 3.96375 -0.311932 0
M  V30 6398 N 597.152 0.631951 1.44375 0
M  V30 6399 C 598.401 0.134214 2.01253 0
M  V30 6400 C 598.714 -1.25171 1.50305 0
M  V30 6401 O 599.92 -1.8435 1.99317 0
M  V30 6402 C 598.376 0.189187 3.59402 0
M  V30 6403 C 597.984 1.57647 4.19346 0
M  V30 6404 C 599.728 -0.252044 4.23751 0
M  V30 6405 C 597.635 1.58651 5.69722 0
M  V30 6406 H 596.565 0.0464101 0.75257 0
M  V30 6407 H 599.216 0.790868 1.65582 0
M  V30 6408 H 597.598 -0.534584 3.92375 0
M  V30 6409 H 598.772 2.32389 3.97909 0
M  V30 6410 H 597.087 1.96186 3.67288 0
M  V30 6411 H 599.684 -0.264084 5.34047 0
M  V30 6412 H 600.027 -1.27951 3.96149 0
M  V30 6413 H 600.56 0.41926 3.95584 0
M  V30 6414 H 597.299 2.59237 6.0206 0
M  V30 6415 H 596.819 0.882039 5.93279 0
M  V30 6416 H 598.498 1.32082 6.33375 0
M  V30 6417 N 598.631 -1.53133 0.372548 0
M  V30 6418 C 599.908 -1.93704 -0.271693 0
M  V30 6419 C 600.288 -1.30667 -1.65799 0
M  V30 6420 O 599.636 -0.46838 -2.23648 0
M  V30 6421 C 599.846 -3.47576 -0.314903 0
M  V30 6422 C 601.194 -4.20998 -0.551912 0
M  V30 6423 O 602.218 -3.53994 -0.39582 0
M  V30 6424 O 601.077 -5.39748 -0.85639 0
M  V30 6425 H 598.171 -0.810457 -0.164586 0
M  V30 6426 H 600.717 -1.6427 0.425838 0
M  V30 6427 H 599.489 -3.85749 0.656792 0
M  V30 6428 H 599.112 -3.83264 -1.05804 0
M  V30 6429 N 600.109 -0.101901 -1.5727 0
M  V30 6430 C 601.356 0.560197 -1.94597 0
M  V30 6431 C 601.684 1.67767 -0.984101 0
M  V30 6432 O 600.939 1.95699 -0.00489193 0
M  V30 6433 C 601.238 1.14898 -3.38427 0
M  V30 6434 C 600.904 0.154613 -4.50635 0
M  V30 6435 C 599.566 -0.118861 -4.81053 0
M  V30 6436 C 601.918 -0.523979 -5.18559 0
M  V30 6437 C 599.246 -1.0775 -5.76721 0
M  V30 6438 C 601.598 -1.47114 -6.15256 0
M  V30 6439 C 600.262 -1.75278 -6.44076 0
M  V30 6440 H 599.532 0.204991 -0.712081 0
M  V30 6441 H 602.179 -0.17918 -1.9066 0
M  V30 6442 H 600.484 1.96476 -3.38976 0
M  V30 6443 H 602.181 1.66909 -3.64613 0
M  V30 6444 H 598.771 0.377948 -4.2693 0
M  V30 6445 H 602.955 -0.325851 -4.95229 0
M  V30 6446 H 598.211 -1.30263 -5.97362 0
M  V30 6447 H 602.385 -2.00274 -6.66981 0
M  V30 6448 H 600.012 -2.49717 -7.18015 0
M  V30 6449 N 601.587 1.56661 0.17182 0
M  V30 6450 C 602.517 1.99401 1.21498 0
M  V30 6451 C 603.498 0.869516 1.46197 0
M  V30 6452 O 604.683 1.13556 1.57539 0
M  V30 6453 C 601.813 2.35346 2.55401 0
M  V30 6454 C 600.767 3.5075 2.45272 0
M  V30 6455 C 600.093 3.72437 3.8366 0
M  V30 6456 C 601.393 4.84216 1.95787 0
M  V30 6457 H 603.087 2.86792 0.859699 0
M  V30 6458 H 600.633 1.37977 0.412103 0
M  V30 6459 H 602.586 2.63843 3.2858 0
M  V30 6460 H 601.31 1.44864 2.92715 0
M  V30 6461 H 599.969 3.2238 1.74547 0
M  V30 6462 H 599.617 2.79246 4.18367 0
M  V30 6463 H 599.317 4.50087 3.77751 0
M  V30 6464 H 600.841 4.03334 4.58426 0
M  V30 6465 H 602.255 5.11592 2.5874 0
M  V30 6466 H 600.652 5.65498 2.00827 0
M  V30 6467 H 601.722 4.76243 0.912159 0
M  V30 6468 N 603.065 -0.440357 1.51323 0
M  V30 6469 C 604.314 -1.18697 1.63076 0
M  V30 6470 C 604.627 -1.92418 0.35136 0
M  V30 6471 O 605.833 -2.69258 0.348221 0
M  V30 6472 C 604.289 -2.15849 2.87988 0
M  V30 6473 C 603.897 -1.47789 4.22921 0
M  V30 6474 C 605.641 -2.90962 3.09098 0
M  V30 6475 C 603.548 -2.43407 5.38987 0
M  V30 6476 H 602.478 -0.44676 0.607389 0
M  V30 6477 H 605.129 -0.454313 1.77787 0
M  V30 6478 H 603.511 -2.92537 2.66905 0
M  V30 6479 H 604.685 -0.7668 4.54375 0
M  V30 6480 H 603 -0.848404 4.07665 0
M  V30 6481 H 605.597 -3.62584 3.92985 0
M  V30 6482 H 605.94 -3.52133 2.22053 0
M  V30 6483 H 606.473 -2.21381 3.30507 0
M  V30 6484 H 603.212 -1.86929 6.28282 0
M  V30 6485 H 602.732 -3.12579 5.11913 0
M  V30 6486 H 604.411 -3.046 5.70813 0
M  V30 6487 N 604.543 -1.41418 -0.695603 0
M  V30 6488 C 605.453 -1.45622 -1.83933 0
M  V30 6489 C 606.469 -0.346825 -1.70508 0
M  V30 6490 O 607.645 -0.59454 -1.92424 0
M  V30 6491 C 604.71 -1.33627 -3.19914 0
M  V30 6492 C 603.771 -2.54882 -3.45447 0
M  V30 6493 C 603.004 -2.43449 -4.7494 0
M  V30 6494 O 603.227 -1.45905 -5.51424 0
M  V30 6495 O 602.161 -3.33206 -5.01256 0
M  V30 6496 H 605.987 -2.42114 -1.83342 0
M  V30 6497 H 603.572 -1.22956 -0.848658 0
M  V30 6498 H 605.454 -1.29221 -4.01098 0
M  V30 6499 H 604.129 -0.402508 -3.21188 0
M  V30 6500 H 603.036 -2.64865 -2.64192 0
M  V30 6501 H 604.369 -3.47087 -3.48987 0
M  V30 6502 N 606.021 0.929856 -1.27246 0
M  V30 6503 C 606.931 2.0636 -1.11592 0
M  V30 6504 C 607.947 1.73938 -0.046496 0
M  V30 6505 O 609.123 1.9981 -0.252544 0
M  V30 6506 C 606.188 3.38213 -0.762437 0
M  V30 6507 C 605.249 3.84346 -1.9125 0
M  V30 6508 C 604.482 5.09906 -1.57579 0
M  V30 6509 O 604.705 5.68354 -0.482694 0
M  V30 6510 O 603.639 5.51359 -2.41426 0
M  V30 6511 H 607.465 2.22478 -2.0673 0
M  V30 6512 H 605.05 1.04865 -1.06413 0
M  V30 6513 H 606.932 4.1741 -0.57854 0
M  V30 6514 H 605.607 3.23307 0.159439 0
M  V30 6515 H 604.514 3.06045 -2.15144 0
M  V30 6516 H 605.847 4.0379 -2.81451 0
M  V30 6517 N 607.499 1.09233 1.13605 0
M  V30 6518 C 608.748 0.82205 1.84188 0
M  V30 6519 C 609.061 -0.654548 1.84323 0
M  V30 6520 O 610.267 -1.04029 2.50779 0
M  V30 6521 C 608.723 1.42066 3.30674 0
M  V30 6522 C 608.331 2.92965 3.38933 0
M  V30 6523 C 610.075 1.22924 4.06313 0
M  V30 6524 C 607.982 3.45922 4.79679 0
M  V30 6525 H 606.912 0.303854 0.690064 0
M  V30 6526 H 609.563 1.31479 1.28006 0
M  V30 6527 H 607.945 0.855613 3.86646 0
M  V30 6528 H 609.119 3.55679 2.92966 0
M  V30 6529 H 607.434 3.11118 2.76757 0
M  V30 6530 H 610.031 1.59945 5.10217 0
M  V30 6531 H 610.374 0.169726 4.15954 0
M  V30 6532 H 610.907 1.76168 3.56665 0
M  V30 6533 H 607.646 4.51484 4.75229 0
M  V30 6534 H 607.166 2.87971 5.26149 0
M  V30 6535 H 608.845 3.43009 5.48592 0
M  V30 6536 N 608.977 -1.30795 0.87923 0
M  V30 6537 C 609.887 -2.32041 0.345565 0
M  V30 6538 C 610.903 -1.65103 -0.549265 0
M  V30 6539 O 612.079 -1.9645 -0.443763 0
M  V30 6540 C 609.144 -3.43944 -0.436245 0
M  V30 6541 C 608.205 -4.26521 0.48765 0
M  V30 6542 C 607.438 -5.33081 -0.256943 0
M  V30 6543 O 607.661 -5.50762 -1.48381 0
M  V30 6544 O 606.595 -6.00635 0.389985 0
M  V30 6545 H 610.421 -2.79627 1.18501 0
M  V30 6546 H 608.006 -1.3486 0.642885 0
M  V30 6547 H 609.888 -4.12128 -0.879119 0
M  V30 6548 H 608.563 -2.98504 -1.25208 0
M  V30 6549 H 607.47 -3.61057 0.979216 0
M  V30 6550 H 608.803 -4.75551 1.26933 0
M  V30 6551 N 610.455 -0.639598 -1.44038 0
M  V30 6552 C 611.871 -0.305953 -1.5664 0
M  V30 6553 C 612.071 1.19055 -1.62567 0
M  V30 6554 O 611.127 1.97492 -1.57331 0
M  V30 6555 C 612.44 -1.00533 -2.83397 0
M  V30 6556 C 613.988 -0.984278 -2.97121 0
M  V30 6557 C 614.463 -1.66428 -4.26691 0
M  V30 6558 N 615.954 -1.63127 -4.33525 0
M  V30 6559 C 616.689 -2.12629 -5.32519 0
M  V30 6560 N 616.185 -2.70359 -6.3787 0
M  V30 6561 N 617.978 -2.03208 -5.24083 0
M  V30 6562 H 610.129 -1.6109 -1.38434 0
M  V30 6563 H 612.392 -0.676672 -0.663942 0
M  V30 6564 H 612.098 -2.06034 -2.85032 0
M  V30 6565 H 611.972 -0.548362 -3.73193 0
M  V30 6566 H 614.359 0.0622792 -2.95034 0
M  V30 6567 H 614.44 -1.47981 -2.08651 0
M  V30 6568 H 614.084 -2.71034 -4.29538 0
M  V30 6569 H 614.014 -1.14351 -5.14034 0
M  V30 6570 H 616.505 -1.20987 -3.58009 0
M  V30 6571 H 616.818 -3.05842 -7.09704 0
M  V30 6572 H 615.163 -2.74414 -6.38531 0
M  V30 6573 H 618.354 -1.57823 -4.40692 0
M  V30 6574 H 618.527 -2.42097 -6.01077 0
M  V30 6575 N 611.933 1.52934 -0.380664 0
M  V30 6576 C 612.863 2.29118 0.450268 0
M  V30 6577 C 613.844 1.32153 1.07096 0
M  V30 6578 O 615.029 1.61038 1.08537 0
M  V30 6579 C 612.159 3.09161 1.58231 0
M  V30 6580 C 611.113 4.13938 1.0881 0
M  V30 6581 C 610.439 4.82153 2.31155 0
M  V30 6582 C 611.739 5.22048 0.162146 0
M  V30 6583 H 613.433 2.98826 -0.185361 0
M  V30 6584 H 610.979 1.43715 -0.0905886 0
M  V30 6585 H 612.932 3.61211 2.17036 0
M  V30 6586 H 611.656 2.3717 2.2454 0
M  V30 6587 H 610.315 3.62855 0.522633 0
M  V30 6588 H 609.963 4.06719 2.95953 0
M  V30 6589 H 609.663 5.52966 1.98752 0
M  V30 6590 H 611.187 5.37004 2.90618 0
M  V30 6591 H 612.601 5.6951 0.658126 0
M  V30 6592 H 610.998 6.00057 -0.0717122 0
M  V30 6593 H 612.068 4.78398 -0.791438 0
M  V30 6594 N 613.412 0.11024 1.57214 0
M  V30 6595 C 614.66 -0.548783 1.94506 0
M  V30 6596 C 614.981 -1.67772 0.99386 0
M  V30 6597 O 614.251 -1.9584 0.0485841 0
M  V30 6598 H 612.831 -0.205715 0.718116 0
M  V30 6599 H 615.493 0.177127 1.94093 0
M  V30 6600 H 614.589 -0.949096 2.97319 0
M  V30 6601 N 614.89 -1.56749 -0.16351 0
M  V30 6602 C 615.822 -1.93587 -1.22705 0
M  V30 6603 C 616.835 -0.829824 -1.40063 0
M  V30 6604 O 618.024 -1.10826 -1.39928 0
M  V30 6605 C 615.124 -2.1803 -2.59454 0
M  V30 6606 C 614.297 -3.4928 -2.63292 0
M  V30 6607 C 613.356 -3.62457 -3.8146 0
M  V30 6608 O 612.382 -4.35004 -3.67096 0
M  V30 6609 N 613.584 -2.97888 -4.9824 0
M  V30 6610 H 616.349 -2.8542 -0.914081 0
M  V30 6611 H 613.91 -1.58 -0.353214 0
M  V30 6612 H 615.902 -2.24102 -3.36987 0
M  V30 6613 H 614.472 -1.32543 -2.8311 0
M  V30 6614 H 613.692 -3.54795 -1.71796 0
M  V30 6615 H 614.98 -4.35632 -2.62873 0
M  V30 6616 H 614.378 -2.38833 -5.12811 0
M  V30 6617 H 612.935 -3.09545 -5.73607 0
M  V30 6618 N 616.368 0.432326 -1.51554 0
M  V30 6619 C 617.645 1.19288 -1.55015 0
M  V30 6620 C 618.025 2.08701 -0.317375 0
M  V30 6621 O 617.373 2.17602 0.697243 0
M  V30 6622 C 617.583 1.99037 -2.86679 0
M  V30 6623 C 618.931 2.55907 -3.38817 0
M  V30 6624 O 619.955 2.09243 -2.88263 0
M  V30 6625 O 618.814 3.41029 -4.27038 0
M  V30 6626 H 615.908 0.543369 -0.623441 0
M  V30 6627 H 618.454 0.440988 -1.6387 0
M  V30 6628 H 617.226 1.33397 -3.6786 0
M  V30 6629 H 616.849 2.81281 -2.8101 0
M  V30 6630 N 617.846 1.41785 0.688094 0
M  V30 6631 C 618.776 1.47 1.8142 0
M  V30 6632 C 619.757 0.327881 1.6691 0
M  V30 6633 O 620.942 0.540362 1.86531 0
M  V30 6634 C 618.072 1.35876 3.19617 0
M  V30 6635 C 617.026 2.47976 3.48844 0
M  V30 6636 C 616.352 2.21915 4.86475 0
M  V30 6637 C 617.652 3.90309 3.47068 0
M  V30 6638 H 619.346 2.41247 1.77314 0
M  V30 6639 H 616.892 1.16116 0.851651 0
M  V30 6640 H 618.845 1.38134 3.98117 0
M  V30 6641 H 617.569 0.38116 3.24368 0
M  V30 6642 H 616.228 2.45013 2.72698 0
M  V30 6643 H 615.876 1.2248 4.8786 0
M  V30 6644 H 615.576 2.97037 5.06994 0
M  V30 6645 H 617.1 2.25901 5.67275 0
M  V30 6646 H 618.514 3.94947 4.1556 0
M  V30 6647 H 616.911 4.65175 3.7912 0
M  V30 6648 H 617.981 4.17927 2.45896 0
M  V30 6649 O 619.363 -0.830368 1.38518 0
M  V30 6650 H 620.054 -1.47302 1.25785 0
M  V30 END ATOM
M  V30 BEGIN BOND
M  V30 END BOND
M  V30 END CTAB
M  END
$$$$
