drugbank_target|Q9UG56 Phosphatidylserine decarboxylase proenzyme (DB00144)
 OpenBabel12092119363D

  0  0  0     0  0            999 V3000
M  V30 BEGIN CTAB
M  V30 COUNTS 6567 6665 0 0 0
M  V30 BEGIN ATOM
M  V30 1 H -0.908 1.98254 -0.117106 0
M  V30 2 N 0 1.576 0 0
M  V30 3 C 0.933 2.03868 1.02534 0
M  V30 4 C 1.911 0.928543 1.3348 0
M  V30 5 O 3.095 1.19667 1.45644 0
M  V30 6 C 0.222 2.43627 2.35294 0
M  V30 7 C -0.732 3.65373 2.2001 0
M  V30 8 S 0.101 5.13292 1.52614 0
M  V30 9 C 1.257 5.56322 2.86805 0
M  V30 10 H 1.49 2.90518 0.631377 0
M  V30 11 H -0.977 1.52953 0.210867 0
M  V30 12 H 0.981 2.67203 3.11629 0
M  V30 13 H -0.358 1.57376 2.7183 0
M  V30 14 H -1.165 3.90944 3.18086 0
M  V30 15 H -1.563 3.418 1.51819 0
M  V30 16 H 0.729 5.58782 3.83104 0
M  V30 17 H 1.672 6.56266 2.65933 0
M  V30 18 H 2.08 4.83886 2.90714 0
M  V30 19 N 1.4781 -0.272755 1.55222 0
M  V30 20 C 2.4411 -1.32041 1.87344 0
M  V30 21 C 3.4411 -1.42342 0.74803 0
M  V30 22 O 4.6311 -1.41488 1.0162 0
M  V30 23 C 1.7631 -2.70173 2.07893 0
M  V30 24 H 2.9561 -1.04789 2.80997 0
M  V30 25 H 0.5091 -0.51083 1.47717 0
M  V30 26 H 1.2441 -3.02605 1.16622 0
M  V30 27 H 1.0291 -2.64082 2.89833 0
M  V30 28 H 2.5191 -3.45869 2.34017 0
M  V30 29 N 2.9562 -1.48159 -0.537278 0
M  V30 30 C 4.1842 -1.59454 -1.31841 0
M  V30 31 C 4.5992 -0.252065 -1.8711 0
M  V30 32 O 3.9562 0.757621 -1.66031 0
M  V30 33 C 4.0072 -2.63546 -2.47439 0
M  V30 34 O 3.7282 -3.92583 -1.94449 0
M  V30 35 C 5.2292 -2.85212 -3.39366 0
M  V30 36 H 2.4492 -0.53785 -0.401196 0
M  V30 37 H 4.9932 -1.93932 -0.648891 0
M  V30 38 H 3.1482 -2.31946 -3.1029 0
M  V30 39 H 3.5622 -4.49629 -2.70063 0
M  V30 40 H 5.0362 -3.61863 -4.16844 0
M  V30 41 H 5.5132 -1.93765 -3.94147 0
M  V30 42 H 6.1192 -3.18086 -2.82314 0
M  V30 43 N 4.4343 0.785586 -1.36625 0
M  V30 44 C 5.6593 1.57963 -1.34397 0
M  V30 45 C 6.0843 1.87964 0.071526 0
M  V30 46 O 5.4423 1.48182 1.0446 0
M  V30 47 C 5.4903 2.87511 -2.17646 0
M  V30 48 O 4.5943 3.81281 -1.57158 0
M  V30 49 H 3.9353 0.479014 -0.459828 0
M  V30 50 H 6.4653 0.973411 -1.79961 0
M  V30 51 H 6.4753 3.36745 -2.30362 0
M  V30 52 H 5.1503 2.65002 -3.20541 0
M  V30 53 H 3.7273 3.39885 -1.53403 0
M  V30 54 N 5.9124 1.20967 1.01018 0
M  V30 55 C 7.1584 1.02526 1.74975 0
M  V30 56 C 7.4914 -0.4408 1.89131 0
M  V30 57 O 6.7664 -1.32718 1.42184 0
M  V30 58 C 7.0494 1.71699 3.1653 0
M  V30 59 C 6.9024 3.25791 3.10129 0
M  V30 60 C 8.2214 1.45531 4.15342 0
M  V30 61 H 5.3404 0.373863 0.635134 0
M  V30 62 H 7.9824 1.49071 1.17805 0
M  V30 63 H 6.1324 1.32128 3.65341 0
M  V30 64 H 7.8044 3.74697 2.69072 0
M  V30 65 H 6.0474 3.56363 2.47362 0
M  V30 66 H 6.7184 3.69353 4.10222 0
M  V30 67 H 9.1944 1.79872 3.75213 0
M  V30 68 H 8.0704 1.96453 5.1254 0
M  V30 69 H 8.3314 0.384237 4.40427 0
M  V30 70 N 7.3905 -1.2043 1.01659 0
M  V30 71 C 8.6385 -1.89423 0.704522 0
M  V30 72 C 8.9595 -1.79231 -0.768197 0
M  V30 73 O 8.2295 -1.1947 -1.55254 0
M  V30 74 H 6.8095 -0.701178 0.257602 0
M  V30 75 H 9.4715 -1.4626 1.28818 0
M  V30 76 H 8.5675 -2.96052 0.987916 0
M  V30 77 N 8.8686 -0.792821 -1.36206 0
M  V30 78 C 9.8186 -0.166598 -2.27391 0
M  V30 79 C 10.8026 0.651479 -1.47121 0
M  V30 80 O 11.9946 0.510994 -1.69463 0
M  V30 81 C 9.1236 0.695033 -3.36191 0
M  V30 82 C 8.2096 -0.132019 -4.23894 0
M  V30 83 N 8.6006 -1.18822 -4.91645 0
M  V30 84 C 6.8986 0.0885952 -4.45912 0
M  V30 85 C 7.5996 -1.69198 -5.56549 0
M  V30 86 N 6.5756 -1.00065 -5.34311 0
M  V30 87 H 10.3776 -0.974947 -2.77258 0
M  V30 88 H 7.8916 -0.632616 -1.49572 0
M  V30 89 H 9.8886 1.1596 -4.00448 0
M  V30 90 H 8.5486 1.50189 -2.87877 0
M  V30 91 H 9.5596 -1.57069 -4.93507 0
M  V30 92 H 6.2366 0.865688 -4.08426 0
M  V30 93 H 7.6266 -2.57395 -6.20643 0
M  V30 94 N 10.3467 1.47872 -0.545128 0
M  V30 95 C 11.7627 1.5829 -0.204032 0
M  V30 96 C 11.9627 1.54529 1.29317 0
M  V30 97 O 11.0187 1.44232 2.07252 0
M  V30 98 C 12.3317 2.89304 -0.819987 0
M  V30 99 C 13.8797 3.02864 -0.790105 0
M  V30 100 C 14.3547 4.3656 -1.38491 0
M  V30 101 N 15.8457 4.43165 -1.34755 0
M  V30 102 C 16.5807 5.45153 -1.77753 0
M  V30 103 N 16.0767 6.54016 -2.2855 0
M  V30 104 N 17.8697 5.36125 -1.68897 0
M  V30 105 H 10.0207 1.4856 -1.51802 0
M  V30 106 H 12.2837 0.706305 -0.632327 0
M  V30 107 H 11.9897 2.97757 -1.87173 0
M  V30 108 H 11.8637 3.75957 -0.305915 0
M  V30 109 H 14.2507 2.94014 0.252913 0
M  V30 110 H 14.3317 2.17782 -1.34181 0
M  V30 111 H 13.9757 4.46164 -2.42693 0
M  V30 112 H 13.9057 5.20353 -0.808754 0
M  V30 113 H 16.3967 3.65083 -0.975855 0
M  V30 114 H 16.7097 7.27994 -2.59314 0
M  V30 115 H 15.0547 6.54938 -2.32553 0
M  V30 116 H 18.2457 4.49975 -1.28998 0
M  V30 117 H 18.4187 6.15472 -2.02726 0
M  V30 118 N 11.8248 0.280983 1.55075 0
M  V30 119 C 13.0648 -0.335234 2.01632 0
M  V30 120 C 13.4288 -1.5261 1.16508 0
M  V30 121 O 14.6298 -2.21235 1.52672 0
M  V30 122 C 12.9008 -0.702172 3.50434 0
M  V30 123 S 14.4598 -1.30409 4.18974 0
M  V30 124 H 11.2778 -0.103967 0.703358 0
M  V30 125 H 13.8798 0.404187 1.91276 0
M  V30 126 H 12.5838 0.17333 4.10034 0
M  V30 127 H 12.1148 -1.4729 3.64786 0
M  V30 128 H 14.1298 -2.59253 4.23087 0
M  V30 129 N 13.3029 -1.57598 0.00835791 0
M  V30 130 C 14.2329 -2.1198 -0.979113 0
M  V30 131 C 15.2139 -1.03091 -1.35301 0
M  V30 132 O 16.3989 -1.30818 -1.43528 0
M  V30 133 C 13.5289 -2.62995 -2.26828 0
M  V30 134 C 12.4829 -3.76485 -2.03576 0
M  V30 135 C 11.8089 -4.13846 -3.38579 0
M  V30 136 C 13.1089 -5.0342 -1.39161 0
M  V30 137 H 14.8029 -2.94738 -0.526281 0
M  V30 138 H 12.3489 -1.41783 -0.251704 0
M  V30 139 H 14.3019 -2.99669 -2.96271 0
M  V30 140 H 13.0259 -1.7737 -2.7424 0
M  V30 141 H 11.6849 -3.40217 -1.36557 0
M  V30 142 H 11.3329 -3.25232 -3.83709 0
M  V30 143 H 11.0329 -4.90312 -3.23834 0
M  V30 144 H 12.5569 -4.53086 -4.09323 0
M  V30 145 H 13.9709 -5.37812 -1.98573 0
M  V30 146 H 12.3679 -5.84746 -1.34878 0
M  V30 147 H 13.4379 -4.83548 -0.361868 0
M  V30 148 N 14.781 0.264519 -1.55364 0
M  V30 149 C 16.029 0.993021 -1.76021 0
M  V30 150 C 16.35 1.86511 -0.569099 0
M  V30 151 O 15.62 1.91438 0.415735 0
M  V30 152 H 14.2 0.369639 -0.649135 0
M  V30 153 H 16.862 0.286707 -1.9278 0
M  V30 154 H 15.958 1.62502 -2.66457 0
M  V30 155 N 16.2591 1.48442 0.529413 0
M  V30 156 C 17.1891 1.65902 1.64313 0
M  V30 157 C 18.1701 0.507897 1.6234 0
M  V30 158 O 19.3551 0.740503 1.79528 0
M  V30 159 C 16.4851 1.69911 3.02898 0
M  V30 160 C 15.4391 2.8453 3.19729 0
M  V30 161 C 14.7651 2.73629 4.59381 0
M  V30 162 C 16.0651 4.25821 3.02447 0
M  V30 163 H 17.7591 2.5914 1.49955 0
M  V30 164 H 15.3051 1.24709 0.719982 0
M  V30 165 H 17.2581 1.80715 3.80684 0
M  V30 166 H 15.9821 0.732524 3.18279 0
M  V30 167 H 14.6411 2.73283 2.44361 0
M  V30 168 H 14.2891 1.74938 4.71599 0
M  V30 169 H 13.9891 3.50541 4.71588 0
M  V30 170 H 15.5131 2.86401 5.39265 0
M  V30 171 H 16.9271 4.37898 3.70024 0
M  V30 172 H 15.3241 5.03735 3.26146 0
M  V30 173 H 16.3941 4.42244 1.98867 0
M  V30 174 N 17.7372 -0.778329 1.37039 0
M  V30 175 C 18.6672 -1.90546 1.34962 0
M  V30 176 C 19.6482 -1.68681 0.219274 0
M  V30 177 O 20.8332 -1.89634 0.418624 0
M  V30 178 C 17.9632 -3.27734 1.14925 0
M  V30 179 C 16.9172 -3.64147 2.24902 0
M  V30 180 C 16.2432 -4.99806 1.89996 0
M  V30 181 C 17.5432 -3.71579 3.67051 0
M  V30 182 H 19.2372 -1.92541 2.29277 0
M  V30 183 H 16.7832 -0.924948 1.10366 0
M  V30 184 H 18.7362 -4.06215 1.12104 0
M  V30 185 H 17.4602 -3.26154 0.170631 0
M  V30 186 H 16.1192 -2.8797 2.26868 0
M  V30 187 H 15.7672 -4.94759 0.906796 0
M  V30 188 H 15.4672 -5.25139 2.63634 0
M  V30 189 H 16.9912 -5.80694 1.88749 0
M  V30 190 H 18.4052 -4.40227 3.67251 0
M  V30 191 H 16.8022 -4.08405 4.39688 0
M  V30 192 H 17.8722 -2.72404 4.01154 0
M  V30 193 N 19.2153 -1.21501 -1.00376 0
M  V30 194 C 20.1653 -0.942843 -2.07592 0
M  V30 195 C 21.1493 0.102384 -1.60574 0
M  V30 196 O 22.3413 -0.10671 -1.76678 0
M  V30 197 C 19.4703 -0.510729 -3.3948 0
M  V30 198 C 18.5563 -1.59009 -3.93163 0
M  V30 199 N 18.9473 -2.81544 -4.20198 0
M  V30 200 C 17.2453 -1.45925 -4.21452 0
M  V30 201 C 17.9463 -3.51261 -4.63671 0
M  V30 202 N 16.9223 -2.78703 -4.66718 0
M  V30 203 H 20.7243 -1.87378 -2.26421 0
M  V30 204 H 18.2383 -1.11093 -1.18458 0
M  V30 205 H 20.2353 -0.297101 -4.1584 0
M  V30 206 H 18.8953 0.413436 -3.22057 0
M  V30 207 H 19.9063 -3.18075 -4.08716 0
M  V30 208 H 16.5833 -0.600467 -4.13159 0
M  V30 209 H 17.9733 -4.56183 -4.93302 0
M  V30 210 N 20.6934 1.19889 -1.02296 0
M  V30 211 C 21.9414 1.89046 -0.714558 0
M  V30 212 C 22.2624 1.79636 0.758681 0
M  V30 213 O 21.5324 1.20292 1.54618 0
M  V30 214 H 20.1124 0.699802 -0.261317 0
M  V30 215 H 22.7744 1.45574 -1.29592 0
M  V30 216 H 21.8704 2.95524 -1.0036 0
M  V30 217 N 22.1715 0.800033 1.35784 0
M  V30 218 C 23.4175 0.377901 1.99248 0
M  V30 219 C 23.7505 -1.05052 1.63333 0
M  V30 220 O 23.0255 -1.72768 0.893385 0
M  V30 221 C 23.3085 0.553922 3.55814 0
M  V30 222 C 23.1615 2.0268 4.01548 0
M  V30 223 C 24.4805 -0.0244802 4.40093 0
M  V30 224 H 21.5995 0.138782 0.723815 0
M  V30 225 H 24.2415 1.00835 1.61035 0
M  V30 226 H 22.3915 0.0172398 3.88496 0
M  V30 227 H 24.0635 2.62536 3.79305 0
M  V30 228 H 22.3065 2.5256 3.52698 0
M  V30 229 H 22.9775 2.10087 5.10458 0
M  V30 230 H 25.4535 0.433775 4.13833 0
M  V30 231 H 24.3295 0.128637 5.48749 0
M  V30 232 H 24.5905 -1.11758 4.27741 0
M  V30 233 N 23.6496 -1.47581 0.552962 0
M  V30 234 C 24.6126 -2.28439 -0.186605 0
M  V30 235 C 25.6126 -1.36706 -0.84665 0
M  V30 236 O 26.8026 -1.59378 -0.703164 0
M  V30 237 C 23.9346 -3.16264 -1.2724 0
M  V30 238 H 25.1276 -2.95294 0.523609 0
M  V30 239 H 22.6806 -1.532 0.309745 0
M  V30 240 H 23.4156 -2.54091 -2.01514 0
M  V30 241 H 23.2006 -3.83769 -0.803968 0
M  V30 242 H 24.6906 -3.77198 -1.79196 0
M  V30 243 N 25.1277 -0.289203 -1.54924 0
M  V30 244 C 26.5387 0.205791 -1.85562 0
M  V30 245 C 26.8897 1.54351 -1.2112 0
M  V30 246 O 26.0147 2.10435 -0.504601 0
M  V30 247 C 26.6097 0.380177 -3.3666 0
M  V30 248 C 25.1687 0.819395 -3.67373 0
M  V30 249 C 24.3157 -0.079159 -2.77187 0
M  V30 250 H 27.2667 -0.510577 -1.50262 0
M  V30 251 H 27.2877 1.21659 -3.60526 0
M  V30 252 H 26.7997 -0.593589 -3.83534 0
M  V30 253 H 24.9007 1.80413 -3.26009 0
M  V30 254 H 25.0137 0.646957 -4.74712 0
M  V30 255 H 23.3777 0.439565 -2.50878 0
M  V30 256 H 24.1607 -1.04906 -3.26878 0
M  V30 257 N 26.6058 1.57591 -0.0167156 0
M  V30 258 C 27.8518 1.92399 0.659861 0
M  V30 259 C 28.2068 0.892561 1.70444 0
M  V30 260 O 27.4998 -0.0930755 1.91374 0
M  V30 261 C 27.6938 3.3172 1.33029 0
M  V30 262 C 27.5228 4.48319 0.352174 0
M  V30 263 C 26.2928 5.05281 -0.0434883 0
M  V30 264 C 28.4908 5.12831 -0.388474 0
M  V30 265 N 26.4728 6.05399 -1.01807 0
M  V30 266 C 27.8438 6.07934 -1.2172 0
M  V30 267 C 29.8988 4.95858 -0.450513 0
M  V30 268 C 28.6018 6.87891 -2.10235 0
M  V30 269 C 30.6278 5.76413 -1.32295 0
M  V30 270 C 29.9898 6.71123 -2.13948 0
M  V30 271 H 26.0888 0.752106 0.21415 0
M  V30 272 H 28.6728 1.94532 -0.0809846 0
M  V30 273 H 26.8438 3.3043 2.04134 0
M  V30 274 H 28.5758 3.5391 1.9629 0
M  V30 275 H 25.3308 4.7246 0.328384 0
M  V30 276 H 25.7548 6.60145 -1.50123 0
M  V30 277 H 30.3968 4.22472 0.166512 0
M  V30 278 H 28.1148 7.60591 -2.72997 0
M  V30 279 H 31.7008 5.65317 -1.37508 0
M  V30 280 H 30.5808 7.3237 -2.80364 0
M  V30 281 N 28.0839 -0.256276 1.55502 0
M  V30 282 C 29.4999 -0.604325 1.47716 0
M  V30 283 C 29.6999 -1.88763 0.705039 0
M  V30 284 O 28.7559 -2.51445 0.230613 0
M  V30 285 C 30.0689 -0.715756 2.92057 0
M  V30 286 C 31.6169 -0.808706 3.02372 0
M  V30 287 C 32.0919 -0.951777 4.48001 0
M  V30 288 N 33.5829 -1.01688 4.519 0
M  V30 289 C 34.3179 -1.14668 5.61817 0
M  V30 290 N 33.8139 -1.24261 6.81565 0
M  V30 291 N 35.6069 -1.1791 5.49594 0
M  V30 292 H 27.7579 0.586291 2.04148 0
M  V30 293 H 30.0209 0.201015 0.926443 0
M  V30 294 H 29.7269 0.157027 3.51349 0
M  V30 295 H 29.6009 -1.59071 3.42018 0
M  V30 296 H 31.9879 -1.67195 2.43166 0
M  V30 297 H 32.0689 0.0912063 2.55637 0
M  V30 298 H 31.7129 -0.0931291 5.07815 0
M  V30 299 H 31.6429 -1.86659 4.92408 0
M  V30 300 H 34.1339 -0.954468 3.65648 0
M  V30 301 H 34.4469 -1.34046 7.61086 0
M  V30 302 H 32.7919 -1.21236 6.84344 0
M  V30 303 H 35.9829 -1.10057 4.54978 0
M  V30 304 H 36.1559 -1.27681 6.35296 0
M  V30 305 N 29.562 -1.4872 -0.521534 0
M  V30 306 C 30.787 -1.61101 -1.30618 0
M  V30 307 C 31.212 -0.274611 -1.86085 0
M  V30 308 O 30.57 0.754937 -1.64834 0
M  V30 309 C 30.618 -2.66709 -2.4269 0
M  V30 310 O 29.722 -2.24456 -3.45967 0
M  V30 311 H 29.063 -0.539921 -0.386499 0
M  V30 312 H 31.593 -1.94767 -0.626645 0
M  V30 313 H 31.603 -2.88245 -2.88754 0
M  V30 314 H 30.278 -3.63727 -2.01682 0
M  V30 315 H 28.855 -2.13168 -3.05964 0
M  V30 316 N 31.0401 0.771051 -1.3745 0
M  V30 317 C 32.2651 1.56529 -1.36065 0
M  V30 318 C 32.6901 1.88029 0.0515859 0
M  V30 319 O 32.0481 1.49282 1.02882 0
M  V30 320 C 32.0961 2.85187 -2.20683 0
M  V30 321 O 31.2001 3.79593 -1.61193 0
M  V30 322 H 30.5411 0.47411 -0.464883 0
M  V30 323 H 33.0711 0.954269 -1.80983 0
M  V30 324 H 33.0811 3.34283 -2.33921 0
M  V30 325 H 31.7561 2.61588 -3.23334 0
M  V30 326 H 30.3331 3.38239 -1.56999 0
M  V30 327 N 32.5182 1.22032 0.997298 0
M  V30 328 C 33.4482 1.01065 2.10495 0
M  V30 329 C 34.4292 -0.0669542 1.69968 0
M  V30 330 O 35.6142 0.0943987 1.9397 0
M  V30 331 C 32.7442 0.582874 3.42374 0
M  V30 332 C 31.6982 1.60592 3.96729 0
M  V30 333 C 31.0242 1.03412 5.24605 0
M  V30 334 C 32.3242 2.99478 4.27914 0
M  V30 335 H 34.0182 1.93708 2.28292 0
M  V30 336 H 31.5642 0.932761 1.09707 0
M  V30 337 H 33.5172 0.423332 4.19268 0
M  V30 338 H 32.2412 -0.379213 3.24391 0
M  V30 339 H 30.9002 1.75316 3.21963 0
M  V30 340 H 30.5482 0.063518 5.0296 0
M  V30 341 H 30.2482 1.71754 5.61938 0
M  V30 342 H 31.7722 0.886066 6.04137 0
M  V30 343 H 33.1862 2.88153 4.95622 0
M  V30 344 H 31.5832 3.64903 4.76409 0
M  V30 345 H 32.6532 3.49742 3.3587 0
M  V30 346 N 33.9963 -1.19345 1.0293 0
M  V30 347 C 34.9463 -2.20472 0.58104 0
M  V30 348 C 35.9303 -1.56578 -0.370442 0
M  V30 349 O 37.1223 -1.75963 -0.191344 0
M  V30 350 C 34.2513 -3.43236 -0.066306 0
M  V30 351 C 33.3373 -4.14274 0.907642 0
M  V30 352 N 33.7283 -4.61492 2.07023 0
M  V30 353 C 32.0263 -4.39966 0.731177 0
M  V30 354 C 32.7273 -5.1605 2.68454 0
M  V30 355 N 31.7033 -5.06875 1.96414 0
M  V30 356 H 35.5053 -2.54659 1.46717 0
M  V30 357 H 33.0193 -1.35423 0.896345 0
M  V30 358 H 35.0163 -4.14927 -0.405068 0
M  V30 359 H 33.6763 -3.10549 -0.948118 0
M  V30 360 H 34.6873 -4.56304 2.44963 0
M  V30 361 H 31.3643 -4.17377 -0.101507 0
M  V30 362 H 32.7543 -5.6287 3.66915 0
M  V30 363 N 35.4744 -0.807222 -1.35358 0
M  V30 364 C 36.8854 -0.44876 -1.81226 0
M  V30 365 C 37.2364 1.02929 -1.67033 0
M  V30 366 O 36.3614 1.79991 -1.20133 0
M  V30 367 C 36.9564 -0.807774 -3.2903 0
M  V30 368 C 35.5154 -0.501901 -3.73039 0
M  V30 369 C 34.6624 -1.03304 -2.57339 0
M  V30 370 H 37.6134 -0.998808 -1.23327 0
M  V30 371 H 37.6344 -0.10554 -3.80354 0
M  V30 372 H 37.1464 -1.88357 -3.39328 0
M  V30 373 H 35.2474 0.565128 -3.68289 0
M  V30 374 H 35.3604 -1.03497 -4.67787 0
M  V30 375 H 33.7244 -0.455339 -2.50597 0
M  V30 376 H 34.5074 -2.11496 -2.70415 0
M  V30 377 N 36.9525 1.47285 -0.560781 0
M  V30 378 C 38.1925 2.0436 -0.0404627 0
M  V30 379 C 38.5565 1.42534 1.28639 0
M  V30 380 O 39.7575 1.90677 1.89462 0
M  V30 381 C 38.0285 3.57369 0.0471856 0
M  V30 382 S 39.5875 4.3579 0.513109 0
M  V30 383 H 36.4055 0.710492 -0.0268674 0
M  V30 384 H 39.0075 1.80611 -0.748323 0
M  V30 385 H 37.7115 3.9989 -0.922817 0
M  V30 386 H 37.2425 3.8562 0.778491 0
M  V30 387 H 39.2575 4.63476 1.77212 0
M  V30 388 N 38.4306 0.297415 1.54768 0
M  V30 389 C 39.3406 -0.58983 2.27064 0
M  V30 390 C 40.3566 -1.15144 1.30453 0
M  V30 391 O 41.5326 -1.17699 1.63428 0
M  V30 392 C 38.5976 -1.74714 2.9946 0
M  V30 393 C 37.6586 -1.21997 4.11601 0
M  V30 394 C 36.8916 -2.32212 4.80535 0
M  V30 395 O 37.1146 -3.52036 4.48806 0
M  V30 396 O 36.0486 -1.99106 5.68014 0
M  V30 397 H 39.8746 -0.00348199 3.037 0
M  V30 398 H 37.4596 0.0640035 1.49263 0
M  V30 399 H 39.3416 -2.42147 3.44881 0
M  V30 400 H 38.0166 -2.32016 2.25722 0
M  V30 401 H 36.9236 -0.511458 3.70587 0
M  V30 402 H 38.2566 -0.692419 4.87305 0
M  V30 403 N 39.9087 -1.5758 0.0250728 0
M  V30 404 C 41.1577 -1.90811 -0.653767 0
M  V30 405 C 41.4707 -0.90273 -1.73523 0
M  V30 406 O 42.6767 -1.12614 -2.47043 0
M  V30 407 C 41.1327 -3.38804 -1.21409 0
M  V30 408 C 40.7407 -4.47692 -0.166126 0
M  V30 409 C 42.4847 -3.81108 -1.86967 0
M  V30 410 C 40.3917 -5.86779 -0.737856 0
M  V30 411 H 39.3217 -0.712063 -0.247956 0
M  V30 412 H 41.9727 -1.83281 0.0897137 0
M  V30 413 H 40.3547 -3.41252 -2.00905 0
M  V30 414 H 41.5287 -4.56797 0.606079 0
M  V30 415 H 39.8437 -4.14565 0.390466 0
M  V30 416 H 42.4407 -4.82375 -2.30692 0
M  V30 417 H 42.7837 -3.15953 -2.71071 0
M  V30 418 H 43.3167 -3.81065 -1.14167 0
M  V30 419 H 40.0557 -6.55468 0.0649577 0
M  V30 420 H 39.5757 -5.81288 -1.47864 0
M  V30 421 H 41.2547 -6.35223 -1.22884 0
M  V30 422 N 41.3868 0.248026 -1.55636 0
M  V30 423 C 42.6148 0.993808 -1.81469 0
M  V30 424 C 43.0298 1.78991 -0.60064 0
M  V30 425 O 42.3868 1.77345 0.430682 0
M  V30 426 C 42.4378 1.93258 -3.05506 0
M  V30 427 O 42.1588 1.16869 -4.22224 0
M  V30 428 C 43.6598 2.79444 -3.4413 0
M  V30 429 H 40.8798 0.292486 -0.603898 0
M  V30 430 H 43.4238 0.271253 -2.02693 0
M  V30 431 H 41.5788 2.60943 -2.86335 0
M  V30 432 H 41.9928 1.80359 -4.92515 0
M  V30 433 H 43.4668 3.41066 -4.34026 0
M  V30 434 H 43.9438 3.50499 -2.64665 0
M  V30 435 H 44.5498 2.17214 -3.65648 0
M  V30 436 N 42.8649 1.48995 0.513639 0
M  V30 437 C 43.8279 1.64229 1.59879 0
M  V30 438 C 44.8279 0.514696 1.5234 0
M  V30 439 O 46.0179 0.78087 1.55718 0
M  V30 440 C 43.1499 1.62783 2.99524 0
M  V30 441 H 44.3429 2.61004 1.47705 0
M  V30 442 H 41.8959 1.37837 0.736936 0
M  V30 443 H 42.6309 0.675461 3.17188 0
M  V30 444 H 42.4159 2.4466 3.06404 0
M  V30 445 H 43.9059 1.76669 3.78388 0
M  V30 446 N 44.343 -0.763751 1.37857 0
M  V30 447 C 45.273 -1.89103 1.36975 0
M  V30 448 C 46.254 -1.68439 0.237152 0
M  V30 449 O 47.439 -1.8918 0.438713 0
M  V30 450 C 44.569 -3.26496 1.18395 0
M  V30 451 C 43.523 -3.61741 2.28751 0
M  V30 452 C 42.849 -4.97762 1.95286 0
M  V30 453 C 44.149 -3.67665 3.70972 0
M  V30 454 H 45.843 -1.90099 2.31307 0
M  V30 455 H 43.389 -0.91319 1.11341 0
M  V30 456 H 45.342 -4.05003 1.16406 0
M  V30 457 H 44.066 -3.25955 0.205215 0
M  V30 458 H 42.725 -2.85547 2.29909 0
M  V30 459 H 42.373 -4.93769 0.959221 0
M  V30 460 H 42.073 -5.22313 2.69189 0
M  V30 461 H 43.597 -5.7866 1.94898 0
M  V30 462 H 45.011 -4.36307 3.719 0
M  V30 463 H 43.408 -4.03718 4.43995 0
M  V30 464 H 44.478 -2.68134 4.0402 0
M  V30 465 N 45.8211 -1.22559 -0.990812 0
M  V30 466 C 47.0461 -1.07862 -1.77145 0
M  V30 467 C 47.4711 0.366447 -1.84496 0
M  V30 468 O 46.8291 1.26478 -1.29896 0
M  V30 469 C 46.8771 -1.69686 -3.18181 0
M  V30 470 O 45.9811 -0.951946 -4.01263 0
M  V30 471 H 45.3221 -0.378712 -0.545411 0
M  V30 472 H 47.8521 -1.62399 -1.2445 0
M  V30 473 H 47.8621 -1.74496 -3.68802 0
M  V30 474 H 46.5371 -2.74841 -3.12146 0
M  V30 475 H 45.1141 -0.980011 -3.59792 0
M  V30 476 N 47.2992 1.18797 -1.03562 0
M  V30 477 C 48.2312 2.21731 -0.580337 0
M  V30 478 C 49.2442 1.59051 0.347349 0
M  V30 479 O 50.4332 1.77929 0.142669 0
M  V30 480 C 47.5332 3.38459 0.172805 0
M  V30 481 C 46.7062 4.3072 -0.761496 0
M  V30 482 C 45.7652 5.26174 -0.0525547 0
M  V30 483 O 44.7912 5.65108 -0.681333 0
M  V30 484 N 45.9932 5.67624 1.21586 0
M  V30 485 H 48.7582 2.61417 -1.46565 0
M  V30 486 H 46.3192 1.33531 -0.915476 0
M  V30 487 H 48.3112 3.99335 0.656793 0
M  V30 488 H 46.8812 2.97507 0.959602 0
M  V30 489 H 46.1012 3.67525 -1.42544 0
M  V30 490 H 47.3892 4.89267 -1.39626 0
M  V30 491 H 46.7872 5.38038 1.74732 0
M  V30 492 H 45.3442 6.30721 1.64421 0
M  V30 493 N 48.7773 0.814389 1.34928 0
M  V30 494 C 50.0023 0.410097 2.03305 0
M  V30 495 C 50.4273 -0.973464 1.60951 0
M  V30 496 O 49.7853 -1.63185 0.789964 0
M  V30 497 C 49.8333 0.51049 3.56968 0
M  V30 498 O 48.9373 -0.473035 4.09678 0
M  V30 499 H 48.2783 0.170088 0.641846 0
M  V30 500 H 50.8083 1.10244 1.72358 0
M  V30 501 H 50.8183 0.383135 4.06197 0
M  V30 502 H 49.4933 1.51963 3.87144 0
M  V30 503 H 48.0703 -0.305272 3.71648 0
M  V30 504 N 50.2554 -1.46986 0.568584 0
M  V30 505 C 51.1854 -2.32946 -0.160753 0
M  V30 506 C 52.1664 -1.44487 -0.897631 0
M  V30 507 O 53.3514 -1.73327 -0.875867 0
M  V30 508 C 50.4814 -3.26494 -1.18403 0
M  V30 509 C 49.4354 -4.24282 -0.562895 0
M  V30 510 C 48.7614 -5.07236 -1.69163 0
M  V30 511 C 50.0614 -5.19989 0.490761 0
M  V30 512 H 51.7554 -2.94175 0.556916 0
M  V30 513 H 49.3014 -1.4146 0.26927 0
M  V30 514 H 51.2544 -3.85477 -1.70251 0
M  V30 515 H 49.9784 -2.63343 -1.93179 0
M  V30 516 H 48.6374 -3.66541 -0.0656164 0
M  V30 517 H 48.2854 -4.4048 -2.42871 0
M  V30 518 H 47.9854 -5.7345 -1.28174 0
M  V30 519 H 49.5094 -5.6908 -2.21314 0
M  V30 520 H 50.9234 -5.73271 0.0579047 0
M  V30 521 H 49.3204 -5.94469 0.820165 0
M  V30 522 H 50.3904 -4.64777 1.3824 0
M  V30 523 N 51.7335 -0.305618 -1.54608 0
M  V30 524 C 52.6655 0.602161 -2.21149 0
M  V30 525 C 53.6785 1.09394 -1.20569 0
M  V30 526 O 54.8675 1.0106 -1.47136 0
M  V30 527 C 51.9675 1.83692 -2.84799 0
M  V30 528 C 51.1405 1.48686 -4.11353 0
M  V30 529 C 50.1995 2.57725 -4.58764 0
M  V30 530 O 49.2255 2.22623 -5.23858 0
M  V30 531 N 50.4275 3.88346 -4.31471 0
M  V30 532 H 53.1925 0.0324966 -2.99682 0
M  V30 533 H 50.7535 -0.128021 -1.61393 0
M  V30 534 H 52.7455 2.55994 -3.13448 0
M  V30 535 H 51.3155 2.31486 -2.10078 0
M  V30 536 H 50.5355 0.596269 -3.89664 0
M  V30 537 H 51.8235 1.22842 -4.93748 0
M  V30 538 H 51.2215 4.19671 -3.79331 0
M  V30 539 H 49.7785 4.56932 -4.64818 0
M  V30 540 N 53.2116 1.57565 -0.0334293 0
M  V30 541 C 54.6226 1.79746 0.504798 0
M  V30 542 C 54.9736 0.944091 1.71992 0
M  V30 543 O 54.0986 0.155694 2.15839 0
M  V30 544 C 54.6936 3.25997 0.922567 0
M  V30 545 C 53.2526 3.49159 1.40588 0
M  V30 546 C 52.3996 2.74785 0.372633 0
M  V30 547 H 55.3506 1.56565 -0.259436 0
M  V30 548 H 55.3716 3.35945 1.78666 0
M  V30 549 H 54.8836 3.88081 0.0379825 0
M  V30 550 H 52.9846 2.92332 2.31025 0
M  V30 551 H 53.0976 4.57873 1.41028 0
M  V30 552 H 51.4616 2.40391 0.841672 0
M  V30 553 H 52.2446 3.39587 -0.503559 0
M  V30 554 N 54.6897 -0.239769 1.55765 0
M  V30 555 C 55.6197 -1.30052 1.9393 0
M  V30 556 C 56.6007 -1.49839 0.805132 0
M  V30 557 O 57.7857 -1.62328 1.06599 0
M  V30 558 C 54.9157 -2.65391 2.2402 0
M  V30 559 C 53.8697 -2.60289 3.39755 0
M  V30 560 C 53.1957 -3.99489 3.55405 0
M  V30 561 C 54.4957 -2.16654 4.75246 0
M  V30 562 H 56.1897 -0.983573 2.82783 0
M  V30 563 H 53.7357 -0.471701 1.36055 0
M  V30 564 H 55.6887 -3.3974 2.49308 0
M  V30 565 H 54.4127 -2.98736 1.32 0
M  V30 566 H 53.0717 -1.88398 3.14487 0
M  V30 567 H 52.7197 -4.30112 2.60793 0
M  V30 568 H 52.4197 -3.96962 4.33238 0
M  V30 569 H 53.9437 -4.75528 3.83022 0
M  V30 570 H 55.3577 -2.80737 4.99859 0
M  V30 571 H 53.7547 -2.25223 5.56232 0
M  V30 572 H 54.8247 -1.11835 4.71827 0
M  V30 573 N 56.1678 -1.49265 -0.50573 0
M  V30 574 C 57.5838 -1.35923 -0.836486 0
M  V30 575 C 57.7838 -0.388704 -1.97715 0
M  V30 576 O 56.8398 0.181336 -2.51848 0
M  V30 577 C 58.1528 -2.76531 -1.18115 0
M  V30 578 C 59.7008 -2.85197 -1.28964 0
M  V30 579 C 60.1758 -4.26561 -1.66761 0
M  V30 580 N 61.6668 -4.2935 -1.73819 0
M  V30 581 C 62.4018 -5.35693 -2.045 0
M  V30 582 N 61.8978 -6.52287 -2.33438 0
M  V30 583 N 63.6908 -5.23105 -2.05711 0
M  V30 584 H 55.8418 -2.10965 0.246519 0
M  V30 585 H 58.1048 -0.9468 0.0476887 0
M  V30 586 H 57.8108 -3.49226 -0.416398 0
M  V30 587 H 57.6848 -3.11599 -2.1257 0
M  V30 588 H 60.0718 -2.12742 -2.04511 0
M  V30 589 H 60.1528 -2.53718 -0.325704 0
M  V30 590 H 59.7968 -4.99541 -0.917656 0
M  V30 591 H 59.7268 -4.55502 -2.64246 0
M  V30 592 H 62.2178 -3.4526 -1.53635 0
M  V30 593 H 62.5308 -7.29158 -2.56024 0
M  V30 594 H 60.8758 -6.55521 -2.30905 0
M  V30 595 H 64.0668 -4.31026 -1.82577 0
M  V30 596 H 64.2398 -6.06078 -2.29289 0
M  V30 597 N 57.6459 0.756429 -1.3826 0
M  V30 598 C 58.5929 1.87011 -1.35261 0
M  V30 599 C 59.5629 1.64695 -0.215616 0
M  V30 600 O 60.7479 1.864 -0.407399 0
M  V30 601 C 57.8879 3.24275 -1.18068 0
M  V30 602 C 57.0009 3.58442 -2.41129 0
M  V30 603 C 56.1359 4.84994 -2.16689 0
M  V30 604 C 55.1749 5.11939 -3.35537 0
M  V30 605 N 54.3119 6.29685 -3.10549 0
M  V30 606 H 59.1519 1.8891 -2.30472 0
M  V30 607 H 56.6889 0.923373 -1.14509 0
M  V30 608 H 58.6469 4.03479 -1.06116 0
M  V30 609 H 57.2769 3.21711 -0.264973 0
M  V30 610 H 56.3289 2.74103 -2.63764 0
M  V30 611 H 57.6409 3.74283 -3.29717 0
M  V30 612 H 56.7949 5.72135 -2.01857 0
M  V30 613 H 55.5339 4.71286 -1.25462 0
M  V30 614 H 54.5389 4.23268 -3.50891 0
M  V30 615 H 55.7639 5.27546 -4.27635 0
M  V30 616 H 53.7099 6.17306 -2.21967 0
M  V30 617 H 53.6269 6.46014 -3.92686 0
M  V30 618 H 54.8949 7.19722 -2.99367 0
M  V30 619 N 59.124 1.23083 0.984299 0
M  V30 620 C 60.054 1.03292 2.09411 0
M  V30 621 C 61.035 -0.048923 1.7003 0
M  V30 622 O 62.22 0.114967 1.93859 0
M  V30 623 C 59.35 0.619155 3.41736 0
M  V30 624 C 58.304 1.64791 3.95004 0
M  V30 625 C 57.63 1.0897 5.23478 0
M  V30 626 C 58.93 3.03999 4.24714 0
M  V30 627 H 60.624 1.96119 2.26225 0
M  V30 628 H 58.17 0.944344 1.08711 0
M  V30 629 H 60.123 0.467777 4.18796 0
M  V30 630 H 58.847 -0.344786 3.24775 0
M  V30 631 H 57.506 1.78721 3.20085 0
M  V30 632 H 57.154 0.11686 5.02864 0
M  V30 633 H 56.854 1.77704 5.60085 0
M  V30 634 H 58.378 0.950093 6.03163 0
M  V30 635 H 59.792 2.93393 4.92538 0
M  V30 636 H 58.189 3.69936 4.72512 0
M  V30 637 H 59.259 3.53285 3.32142 0
M  V30 638 N 60.6021 -1.18246 1.0419 0
M  V30 639 C 62.0131 -1.69914 0.773698 0
M  V30 640 C 62.3641 -1.83085 -0.705297 0
M  V30 641 O 61.4891 -1.51123 -1.5489 0
M  V30 642 C 62.0841 -3.08619 1.39784 0
M  V30 643 C 60.6431 -3.57494 1.17792 0
M  V30 644 C 59.7901 -2.34013 1.48773 0
M  V30 645 H 62.7411 -1.02904 1.20816 0
M  V30 646 H 62.7621 -3.71958 0.801714 0
M  V30 647 H 62.2741 -2.99001 2.47426 0
M  V30 648 H 60.3751 -3.72406 0.120295 0
M  V30 649 H 60.4881 -4.40852 1.87581 0
M  V30 650 H 58.8521 -2.37986 0.907463 0
M  V30 651 H 59.6351 -2.27013 2.57527 0
M  V30 652 N 62.0802 -0.821533 -1.34494 0
M  V30 653 C 63.3272 -0.408946 -1.98328 0
M  V30 654 C 63.6552 1.02764 -1.65136 0
M  V30 655 O 62.9102 1.73026 -0.914349 0
M  V30 656 C 63.2092 -0.556512 -3.53041 0
M  V30 657 C 62.8752 -1.95861 -4.0614 0
M  V30 658 C 61.5372 -2.34217 -4.20352 0
M  V30 659 C 63.8892 -2.87523 -4.34718 0
M  V30 660 C 61.2172 -3.63572 -4.6047 0
M  V30 661 C 63.5692 -4.1634 -4.76281 0
M  V30 662 C 62.2332 -4.54675 -4.88699 0
M  V30 663 H 61.5032 -0.149644 -0.725732 0
M  V30 664 H 64.1502 -1.04521 -1.6046 0
M  V30 665 H 62.4552 0.163148 -3.9146 0
M  V30 666 H 64.1522 -0.217826 -4.00408 0
M  V30 667 H 60.7422 -1.65066 -3.95539 0
M  V30 668 H 64.9262 -2.59133 -4.23277 0
M  V30 669 H 60.1822 -3.93101 -4.68275 0
M  V30 670 H 64.3562 -4.87455 -4.97354 0
M  V30 671 H 61.9832 -5.54959 -5.19542 0
M  V30 672 N 63.5583 1.46682 -0.576371 0
M  V30 673 C 64.9743 1.57822 -0.237562 0
M  V30 674 C 65.1743 1.57237 1.26011 0
M  V30 675 O 64.2303 1.48596 2.04146 0
M  V30 676 C 65.5433 2.87499 -0.881168 0
M  V30 677 C 67.0913 3.01119 -0.85417 0
M  V30 678 C 67.5663 4.33524 -1.4772 0
M  V30 679 N 69.0573 4.40207 -1.44125 0
M  V30 680 C 69.7923 5.4126 -1.89276 0
M  V30 681 N 69.2883 6.49021 -2.42371 0
M  V30 682 N 71.0813 5.32422 -1.80231 0
M  V30 683 H 63.2323 1.45306 -1.54919 0
M  V30 684 H 65.4953 0.692733 -0.647167 0
M  V30 685 H 65.2013 2.9372 -1.93447 0
M  V30 686 H 65.0753 3.75224 -0.385592 0
M  V30 687 H 67.4623 2.94485 0.190491 0
M  V30 688 H 67.5433 2.14887 -1.3877 0
M  V30 689 H 67.1873 4.40916 -2.52103 0
M  V30 690 H 67.1173 5.1852 -0.918947 0
M  V30 691 H 69.6083 3.62931 -1.05307 0
M  V30 692 H 69.9213 7.2233 -2.74698 0
M  V30 693 H 68.2663 6.49858 -2.46393 0
M  V30 694 H 71.4573 4.47137 -1.38514 0
M  V30 695 H 71.6303 6.11034 -2.15735 0
M  V30 696 N 65.0364 0.313813 1.54444 0
M  V30 697 C 65.9994 -0.54379 2.22656 0
M  V30 698 C 66.9994 -1.05124 1.21678 0
M  V30 699 O 68.1894 -0.945225 1.46325 0
M  V30 700 C 65.3214 -1.75427 2.92298 0
M  V30 701 H 66.5144 0.0523599 2.99854 0
M  V30 702 H 64.0674 0.0647834 1.56166 0
M  V30 703 H 64.8024 -2.38991 2.19211 0
M  V30 704 H 64.5874 -1.39791 3.66334 0
M  V30 705 H 66.0774 -2.36325 3.44297 0
M  V30 706 N 66.5145 -1.57545 0.0417849 0
M  V30 707 C 67.7615 -1.92317 -0.634082 0
M  V30 708 C 68.0895 -0.919334 -1.71402 0
M  V30 709 O 67.3445 0.0698253 -1.95575 0
M  V30 710 C 67.6435 -3.33794 -1.27735 0
M  V30 711 C 67.3095 -4.49716 -0.326543 0
M  V30 712 C 65.9715 -4.81156 -0.0648814 0
M  V30 713 C 68.3235 -5.20182 0.325623 0
M  V30 714 C 65.6515 -5.80414 0.856539 0
M  V30 715 C 68.0035 -6.20424 1.23518 0
M  V30 716 C 66.6675 -6.50298 1.5056 0
M  V30 717 H 65.9375 -0.703736 -0.232027 0
M  V30 718 H 68.5845 -1.91205 0.106259 0
M  V30 719 H 66.8895 -3.31228 -2.09274 0
M  V30 720 H 68.5865 -3.57975 -1.80707 0
M  V30 721 H 65.1765 -4.25176 -0.540665 0
M  V30 722 H 69.3605 -4.96112 0.136546 0
M  V30 723 H 64.6165 -6.019 1.07363 0
M  V30 724 H 68.7905 -6.74141 1.74664 0
M  V30 725 H 66.4175 -7.27025 2.22123 0
M  V30 726 N 67.9926 0.231505 -1.5589 0
M  V30 727 C 69.4086 0.580748 -1.48659 0
M  V30 728 C 69.6086 1.87617 -0.73498 0
M  V30 729 O 68.6646 2.51046 -0.270586 0
M  V30 730 C 69.9776 0.669202 -2.93159 0
M  V30 731 C 71.5256 0.760499 -3.03621 0
M  V30 732 C 72.0006 0.880383 -4.49459 0
M  V30 733 N 73.4916 0.944861 -4.53461 0
M  V30 734 C 74.2266 1.05716 -5.63571 0
M  V30 735 N 73.7226 1.13403 -6.83456 0
M  V30 736 N 75.5156 1.09152 -5.514 0
M  V30 737 H 67.6666 -0.618695 -2.03189 0
M  V30 738 H 69.9296 -0.215728 -0.923128 0
M  V30 739 H 69.6356 -0.212904 -3.51055 0
M  V30 740 H 69.5096 1.5361 -3.44505 0
M  V30 741 H 71.8966 1.63305 -2.45796 0
M  V30 742 H 71.9776 -0.131864 -2.5546 0
M  V30 743 H 71.6216 0.0123284 -5.07899 0
M  V30 744 H 71.5516 1.78802 -4.95316 0
M  V30 745 H 74.0426 0.896176 -3.6712 0
M  V30 746 H 74.3556 1.21921 -7.63122 0
M  V30 747 H 72.7006 1.10333 -6.86186 0
M  V30 748 H 75.8916 1.02805 -4.56671 0
M  V30 749 H 76.0646 1.17558 -6.37247 0
M  V30 750 N 69.4707 1.49531 0.497807 0
M  V30 751 C 70.6987 1.62893 1.27567 0
M  V30 752 C 71.1137 0.301585 1.86376 0
M  V30 753 O 70.4707 -0.713335 1.67982 0
M  V30 754 C 70.5217 2.70013 2.40364 0
M  V30 755 O 70.2427 3.976 1.83972 0
M  V30 756 C 71.7437 2.94109 3.31685 0
M  V30 757 H 68.9637 0.548298 0.386794 0
M  V30 758 H 71.5077 1.95584 0.597245 0
M  V30 759 H 69.6627 2.40092 3.04031 0
M  V30 760 H 70.0767 4.56631 2.58047 0
M  V30 761 H 71.5507 3.72788 4.07104 0
M  V30 762 H 72.0277 2.04147 3.88871 0
M  V30 763 H 72.6337 3.2546 2.73781 0
M  V30 764 N 70.9488 -0.749086 1.3866 0
M  V30 765 C 72.2258 -1.4992 1.25632 0
M  V30 766 C 72.6058 -2.10633 -0.140317 0
M  V30 767 O 71.9538 -1.97437 -1.15025 0
M  V30 768 C 72.1638 -2.56195 2.36992 0
M  V30 769 C 73.5118 -3.22972 2.75634 0
M  V30 770 O 74.5358 -2.66502 2.36337 0
M  V30 771 O 73.3948 -4.25122 3.43415 0
M  V30 772 H 70.4888 -0.665067 0.491544 0
M  V30 773 H 73.0348 -0.784113 1.50498 0
M  V30 774 H 71.8068 -2.09612 3.30422 0
M  V30 775 H 71.4298 -3.35279 2.13714 0
M  V30 776 N 72.4269 -1.23603 -0.977757 0
M  V30 777 C 73.3899 -1.02069 -2.05218 0
M  V30 778 C 74.3899 0.0184305 -1.60789 0
M  V30 779 O 75.5799 -0.221569 -1.72785 0
M  V30 780 C 72.7119 -0.544926 -3.36517 0
M  V30 781 H 73.9049 -1.9742 -2.25755 0
M  V30 782 H 71.4579 -1.05684 -1.15155 0
M  V30 783 H 72.1929 0.412241 -3.21669 0
M  V30 784 H 71.9779 -1.2948 -3.70105 0
M  V30 785 H 73.4679 -0.414985 -4.15533 0
M  V30 786 N 73.905 1.17692 -1.04816 0
M  V30 787 C 75.321 1.39863 -0.768794 0
M  V30 788 C 75.521 1.91118 0.638451 0
M  V30 789 O 74.577 2.10036 1.40146 0
M  V30 790 C 75.89 2.39274 -1.82122 0
M  V30 791 C 77.438 2.52987 -1.843 0
M  V30 792 C 77.913 3.55669 -2.88555 0
M  V30 793 N 79.404 3.63183 -2.87493 0
M  V30 794 C 80.139 4.42381 -3.64811 0
M  V30 795 N 79.635 5.25125 -4.51903 0
M  V30 796 N 81.428 4.37217 -3.53267 0
M  V30 797 H 73.579 0.82752 -1.95617 0
M  V30 798 H 75.842 0.426123 -0.846831 0
M  V30 799 H 75.548 2.08678 -2.83102 0
M  V30 800 H 75.422 3.38725 -1.65967 0
M  V30 801 H 77.809 2.82896 -0.839869 0
M  V30 802 H 77.89 1.53623 -2.04532 0
M  V30 803 H 77.534 3.26499 -3.89051 0
M  V30 804 H 77.464 4.54728 -2.65575 0
M  V30 805 H 79.955 3.04103 -2.24343 0
M  V30 806 H 80.268 5.82728 -5.07591 0
M  V30 807 H 78.613 5.24519 -4.55966 0
M  V30 808 H 81.804 3.71626 -2.84625 0
M  V30 809 H 81.977 4.98696 -4.13771 0
M  V30 810 N 75.3831 0.828654 1.34056 0
M  V30 811 C 76.3301 0.252567 2.29414 0
M  V30 812 C 77.3001 -0.62588 1.53857 0
M  V30 813 O 78.4851 -0.566312 1.82202 0
M  V30 814 C 75.6251 -0.574831 3.40279 0
M  V30 815 C 74.7381 0.326499 4.30764 0
M  V30 816 C 73.8731 -0.511016 5.28736 0
M  V30 817 C 72.9121 0.389342 6.1086 0
M  V30 818 N 72.0491 -0.409439 7.00905 0
M  V30 819 H 76.8891 1.07108 2.78086 0
M  V30 820 H 74.4261 0.539677 1.36843 0
M  V30 821 H 76.3841 -1.06992 4.03248 0
M  V30 822 H 75.0141 -1.35841 2.92826 0
M  V30 823 H 74.0661 0.939837 3.68607 0
M  V30 824 H 75.3781 1.01857 4.88289 0
M  V30 825 H 74.5321 -1.07035 5.97184 0
M  V30 826 H 73.2711 -1.23657 4.71763 0
M  V30 827 H 72.2761 0.960769 5.4134 0
M  V30 828 H 73.5011 1.1131 6.69916 0
M  V30 829 H 71.4471 -1.11856 6.46393 0
M  V30 830 H 71.3641 0.224126 7.55668 0
M  V30 831 H 72.6321 -0.951336 7.73673 0
M  V30 832 N 76.8612 -1.46375 0.584142 0
M  V30 833 C 78.1102 -2.01585 0.0679741 0
M  V30 834 C 78.4232 -1.46109 -1.30045 0
M  V30 835 O 79.6292 -1.93148 -1.90804 0
M  V30 836 C 78.0852 -3.5983 0.0709207 0
M  V30 837 C 77.6932 -4.24303 1.43775 0
M  V30 838 C 79.4372 -4.22693 -0.391228 0
M  V30 839 C 77.3442 -5.74631 1.39834 0
M  V30 840 H 76.2742 -0.753689 0.0216421 0
M  V30 841 H 78.9252 -1.68093 0.736001 0
M  V30 842 H 77.3072 -3.90405 -0.663299 0
M  V30 843 H 78.4812 -4.05335 2.19181 0
M  V30 844 H 76.7962 -3.73539 1.84004 0
M  V30 845 H 79.3932 -5.3289 -0.439524 0
M  V30 846 H 79.7362 -3.91728 -1.40906 0
M  V30 847 H 80.2692 -3.96749 0.288974 0
M  V30 848 H 77.0082 -6.10258 2.39303 0
M  V30 849 H 76.5282 -5.95858 0.686505 0
M  V30 850 H 78.2072 -6.37375 1.11187 0
M  V30 851 N 78.3393 -0.321999 -1.54275 0
M  V30 852 C 79.2893 0.560185 -2.21011 0
M  V30 853 C 80.2733 1.08283 -1.19011 0
M  V30 854 O 81.4653 1.02011 -1.44647 0
M  V30 855 C 78.5943 1.72137 -2.97025 0
M  V30 856 C 77.6803 1.21369 -4.06363 0
M  V30 857 N 78.0713 0.425566 -5.04007 0
M  V30 858 C 76.3693 1.49255 -4.20284 0
M  V30 859 C 77.0703 0.152601 -5.815 0
M  V30 860 N 76.0463 0.738294 -5.38563 0
M  V30 861 H 79.8483 -0.049265 -2.93859 0
M  V30 862 H 77.3623 -0.127779 -1.61897 0
M  V30 863 H 79.3593 2.36512 -3.43319 0
M  V30 864 H 78.0193 2.33431 -2.25699 0
M  V30 865 H 79.0303 0.068551 -5.17855 0
M  V30 866 H 75.7073 2.11145 -3.60172 0
M  V30 867 H 77.0973 -0.481764 -6.70171 0
M  V30 868 N 79.8174 1.5752 -0.0501392 0
M  V30 869 C 81.0454 1.96963 0.633492 0
M  V30 870 C 81.4604 0.927631 1.6444 0
M  V30 871 O 80.8174 -0.0882665 1.82286 0
M  V30 872 C 80.8684 3.36487 1.32132 0
M  V30 873 O 80.5894 4.36693 0.350894 0
M  V30 874 C 82.0904 3.90682 2.09481 0
M  V30 875 H 79.3104 0.648244 0.173266 0
M  V30 876 H 81.8544 2.0417 -0.116134 0
M  V30 877 H 80.0094 3.30434 2.02218 0
M  V30 878 H 80.4234 5.17702 0.841735 0
M  V30 879 H 81.8974 4.90591 2.5303 0
M  V30 880 H 82.3744 3.26053 2.94255 0
M  V30 881 H 82.9804 4.00069 1.44307 0
M  V30 882 N 81.2955 -0.223234 1.56011 0
M  V30 883 C 82.2585 -1.26014 1.9145 0
M  V30 884 C 83.2585 -1.3989 0.792937 0
M  V30 885 O 84.4485 -1.38184 1.0607 0
M  V30 886 C 81.5805 -2.63422 2.16383 0
M  V30 887 H 82.7735 -0.95796 2.84189 0
M  V30 888 H 80.3265 -0.463576 1.49267 0
M  V30 889 H 81.0615 -2.98741 1.2619 0
M  V30 890 H 80.8465 -2.54728 2.98088 0
M  V30 891 H 82.3365 -3.38249 2.44903 0
M  V30 892 N 82.7736 -1.49793 -0.48987 0
M  V30 893 C 84.1846 -1.52914 -1.07118 0
M  V30 894 C 84.5356 -0.321738 -1.93544 0
M  V30 895 O 83.6606 0.567338 -2.08831 0
M  V30 896 C 84.2556 -2.771 -1.94938 0
M  V30 897 C 82.8146 -2.82963 -2.48212 0
M  V30 898 C 81.9616 -2.46972 -1.26096 0
M  V30 899 H 84.9126 -1.56329 -0.273289 0
M  V30 900 H 84.9336 -2.57892 -2.79771 0
M  V30 901 H 84.4456 -3.64959 -1.32009 0
M  V30 902 H 82.5466 -1.99411 -3.14748 0
M  V30 903 H 82.6596 -3.85406 -2.84603 0
M  V30 904 H 81.0236 -1.98994 -1.58976 0
M  V30 905 H 81.8066 -3.37118 -0.648581 0
M  V30 906 N 84.2517 0.741722 -1.39055 0
M  V30 907 C 85.2147 1.83733 -1.37021 0
M  V30 908 C 86.2147 1.58542 -0.268534 0
M  V30 909 O 87.4047 1.66067 -0.526076 0
M  V30 910 C 84.5367 3.2141 -1.13617 0
M  V30 911 H 85.7297 1.86941 -2.34506 0
M  V30 912 H 83.2827 0.944676 -1.24521 0
M  V30 913 H 84.0177 3.23865 -0.167863 0
M  V30 914 H 83.8027 3.4109 -1.93391 0
M  V30 915 H 85.2927 4.01477 -1.14918 0
M  V30 916 N 85.7298 1.2412 0.971189 0
M  V30 917 C 87.1458 1.00584 1.23916 0
M  V30 918 C 87.3458 -0.287481 1.99439 0
M  V30 919 O 86.4018 -1.00454 2.31658 0
M  V30 920 C 87.7148 2.21864 2.0297 0
M  V30 921 C 89.2628 2.26452 2.16076 0
M  V30 922 C 89.7378 3.47343 2.98524 0
M  V30 923 N 91.2288 3.47639 3.06107 0
M  V30 924 C 91.9638 4.37837 3.70251 0
M  V30 925 N 91.4598 5.38286 4.36142 0
M  V30 926 N 93.2528 4.25558 3.67228 0
M  V30 927 H 85.4038 2.07236 0.465499 0
M  V30 928 H 87.6668 0.909236 0.268315 0
M  V30 929 H 87.3728 3.15771 1.54861 0
M  V30 930 H 87.2468 2.23698 3.03709 0
M  V30 931 H 89.6338 1.33078 2.6339 0
M  V30 932 H 89.7148 2.28645 1.14696 0
M  V30 933 H 89.3588 4.41029 2.51905 0
M  V30 934 H 89.2888 3.42393 4.00093 0
M  V30 935 H 91.7798 2.74966 2.59233 0
M  V30 936 H 92.0928 6.03352 4.82894 0
M  V30 937 H 90.4378 5.42176 4.34822 0
M  V30 938 H 93.6288 3.46322 3.14927 0
M  V30 939 H 93.8018 4.96054 4.16935 0
M  V30 940 N 87.2079 -1.17134 1.05439 0
M  V30 941 C 88.4359 -1.91372 0.786414 0
M  V30 942 C 88.8509 -1.76955 -0.658202 0
M  V30 943 O 88.2079 -1.10838 -1.44987 0
M  V30 944 C 88.2589 -3.42356 1.1608 0
M  V30 945 O 87.9799 -3.56332 2.54871 0
M  V30 946 C 89.4809 -4.33663 0.919322 0
M  V30 947 H 86.7009 -0.607118 0.285743 0
M  V30 948 H 89.2449 -1.48525 1.40572 0
M  V30 949 H 87.3999 -3.82939 0.586191 0
M  V30 950 H 87.8139 -4.49896 2.69618 0
M  V30 951 H 89.2879 -5.38099 1.231 0
M  V30 952 H 89.7649 -4.38959 -0.145359 0
M  V30 953 H 90.3709 -3.98796 1.47789 0
M  V30 954 N 88.686 -0.835752 -1.33615 0
M  V30 955 C 89.619 -0.211815 -2.27215 0
M  V30 956 C 90.597 0.639249 -1.49507 0
M  V30 957 O 91.781 0.600193 -1.78689 0
M  V30 958 C 88.908 0.702893 -3.31326 0
M  V30 959 C 87.954 -0.0723049 -4.26439 0
M  V30 960 S 88.787 -1.42811 -5.16106 0
M  V30 961 C 89.943 -0.518613 -6.23748 0
M  V30 962 H 90.176 -1.00533 -2.79786 0
M  V30 963 H 87.709 -0.632336 -1.40858 0
M  V30 964 H 89.667 1.22505 -3.91794 0
M  V30 965 H 88.328 1.47004 -2.77576 0
M  V30 966 H 87.521 0.62359 -5.00127 0
M  V30 967 H 87.123 -0.525424 -3.70291 0
M  V30 968 H 89.415 0.284778 -6.76901 0
M  V30 969 H 90.358 -1.22556 -6.97413 0
M  V30 970 H 90.766 -0.101344 -5.64409 0
M  V30 971 N 90.1641 1.46063 -0.591896 0
M  V30 972 C 91.4111 2.02338 -0.0809991 0
M  V30 973 C 91.7391 1.46228 1.28249 0
M  V30 974 O 90.9941 0.620818 1.85592 0
M  V30 975 C 91.2931 3.57391 0.0249813 0
M  V30 976 C 90.9591 4.32583 -1.27211 0
M  V30 977 C 89.6211 4.52844 -1.62745 0
M  V30 978 C 91.9731 4.75687 -2.13005 0
M  V30 979 C 89.3011 5.13462 -2.83855 0
M  V30 980 C 91.6531 5.37644 -3.3335 0
M  V30 981 C 90.3171 5.5613 -3.69155 0
M  V30 982 H 89.5871 0.740407 -0.0296397 0
M  V30 983 H 92.2341 1.75321 -0.770374 0
M  V30 984 H 90.5391 3.83597 0.797537 0
M  V30 985 H 92.2361 3.98621 0.436184 0
M  V30 986 H 88.8261 4.17116 -0.985499 0
M  V30 987 H 93.0101 4.59782 -1.86855 0
M  V30 988 H 88.2661 5.25965 -3.11722 0
M  V30 989 H 92.4401 5.7 -4.00092 0
M  V30 990 H 90.0671 6.0287 -4.63089 0
M  V30 991 N 91.6422 0.330177 1.54103 0
M  V30 992 C 92.5722 -0.525353 2.27513 0
M  V30 993 C 93.5532 -1.11383 1.2856 0
M  V30 994 O 94.7382 -1.13773 1.57383 0
M  V30 995 C 91.8682 -1.6831 3.03791 0
M  V30 996 C 90.8222 -1.2236 4.10137 0
M  V30 997 C 90.1482 -2.46882 4.74293 0
M  V30 998 C 91.4482 -0.333697 5.21233 0
M  V30 999 H 93.1422 0.087013 2.99274 0
M  V30 1000 H 90.6882 0.0432893 1.43935 0
M  V30 1001 H 92.6412 -2.28795 3.5388 0
M  V30 1002 H 91.3652 -2.32216 2.29659 0
M  V30 1003 H 90.0242 -0.64165 3.60941 0
M  V30 1004 H 89.6722 -3.09165 3.96769 0
M  V30 1005 H 89.3722 -2.16825 5.46133 0
M  V30 1006 H 90.8962 -3.08117 5.27159 0
M  V30 1007 H 92.3102 -0.845013 5.67038 0
M  V30 1008 H 90.7072 -0.125612 5.99969 0
M  V30 1009 H 91.7772 0.633724 4.80741 0
M  V30 1010 N 93.1203 -1.57491 0.0584922 0
M  V30 1011 C 94.0503 -2.14988 -0.911178 0
M  V30 1012 C 95.0313 -1.07343 -1.31952 0
M  V30 1013 O 96.2163 -1.35318 -1.39294 0
M  V30 1014 C 93.3463 -2.70078 -2.18347 0
M  V30 1015 C 92.3003 -3.82771 -1.91495 0
M  V30 1016 C 91.6263 -4.24408 -3.25241 0
M  V30 1017 C 92.9263 -5.07592 -1.23075 0
M  V30 1018 H 94.6203 -2.96263 -0.432246 0
M  V30 1019 H 92.1663 -1.42512 -0.206469 0
M  V30 1020 H 94.1193 -3.08943 -2.86587 0
M  V30 1021 H 92.8433 -1.86005 -2.68458 0
M  V30 1022 H 91.5023 -3.44389 -1.25664 0
M  V30 1023 H 91.1503 -3.37275 -3.73168 0
M  V30 1024 H 90.8503 -5.00366 -3.08071 0
M  V30 1025 H 92.3743 -4.65879 -3.94701 0
M  V30 1026 H 93.7883 -5.43857 -1.81362 0
M  V30 1027 H 92.1853 -5.88741 -1.16207 0
M  V30 1028 H 93.2553 -4.84454 -0.207847 0
M  V30 1029 N 94.5984 0.214957 -1.56127 0
M  V30 1030 C 96.0144 0.564948 -1.49267 0
M  V30 1031 C 96.2144 1.86827 -0.754838 0
M  V30 1032 O 95.2704 2.50745 -0.297198 0
M  V30 1033 C 96.5834 0.638071 -2.93852 0
M  V30 1034 C 98.1314 0.728253 -3.0441 0
M  V30 1035 C 98.6064 0.832663 -4.50367 0
M  V30 1036 N 100.097 0.896712 -4.54437 0
M  V30 1037 C 100.832 0.997324 -5.6466 0
M  V30 1038 N 100.328 1.06147 -6.8462 0
M  V30 1039 N 102.121 1.03297 -5.52527 0
M  V30 1040 H 94.2724 -0.640211 -2.02522 0
M  V30 1041 H 96.5354 -0.225507 -0.920788 0
M  V30 1042 H 96.2414 -0.250126 -3.50809 0
M  V30 1043 H 96.1154 1.49947 -3.46115 0
M  V30 1044 H 98.5024 1.60689 -2.47514 0
M  V30 1045 H 98.5834 -0.158952 -2.55306 0
M  V30 1046 H 98.2274 -0.0415417 -5.07883 0
M  V30 1047 H 98.1574 1.73538 -4.97184 0
M  V30 1048 H 100.648 0.857188 -3.6805 0
M  V30 1049 H 100.961 1.1382 -7.64372 0
M  V30 1050 H 99.3064 1.03049 -6.87318 0
M  V30 1051 H 102.497 0.979558 -4.57736 0
M  V30 1052 H 102.67 1.10793 -6.38458 0
M  V30 1053 N 96.0765 1.50051 0.48192 0
M  V30 1054 C 97.4875 1.5348 1.06305 0
M  V30 1055 C 97.8385 0.331997 1.93371 0
M  V30 1056 O 96.9635 -0.556256 2.09129 0
M  V30 1057 C 97.5585 2.7813 1.93466 0
M  V30 1058 C 96.1175 2.84275 2.46707 0
M  V30 1059 C 95.2645 2.47637 1.24785 0
M  V30 1060 H 98.2155 1.56472 0.264995 0
M  V30 1061 H 98.2365 2.59372 2.78399 0
M  V30 1062 H 97.7485 3.65654 1.30072 0
M  V30 1063 H 95.8495 2.01077 3.13686 0
M  V30 1064 H 95.9625 3.8691 2.82555 0
M  V30 1065 H 94.3265 1.99835 1.57918 0
M  V30 1066 H 95.1095 3.37457 0.630694 0
M  V30 1067 N 97.5546 -0.734337 1.39446 0
M  V30 1068 C 98.4846 -1.86155 1.40955 0
M  V30 1069 C 99.4656 -1.67898 0.272827 0
M  V30 1070 O 100.651 -1.88207 0.478743 0
M  V30 1071 C 97.7806 -3.23912 1.25294 0
M  V30 1072 C 96.7346 -3.56808 2.36373 0
M  V30 1073 C 96.0606 -4.93508 2.058 0
M  V30 1074 C 97.3606 -3.59713 3.78687 0
M  V30 1075 H 99.0546 -1.8515 2.35287 0
M  V30 1076 H 96.6006 -0.889367 1.13253 0
M  V30 1077 H 98.5536 -4.02443 1.2497 0
M  V30 1078 H 97.2776 -3.25446 0.274308 0
M  V30 1079 H 95.9366 -2.80606 2.35914 0
M  V30 1080 H 95.5846 -4.91623 1.06374 0
M  V30 1081 H 95.2846 -5.16486 2.80208 0
M  V30 1082 H 96.8086 -5.74396 2.07128 0
M  V30 1083 H 98.2226 -4.2832 3.81071 0
M  V30 1084 H 96.6196 -3.94209 4.52459 0
M  V30 1085 H 97.6896 -2.59504 4.09617 0
M  V30 1086 N 99.0327 -1.24633 -0.964593 0
M  V30 1087 C 100.444 -1.08045 -1.5226 0
M  V30 1088 C 100.795 0.347116 -1.93105 0
M  V30 1089 O 99.9197 1.23588 -1.77637 0
M  V30 1090 C 100.515 -1.95514 -2.76695 0
M  V30 1091 C 99.0737 -1.8314 -3.28841 0
M  V30 1092 C 98.2207 -1.90262 -2.01732 0
M  V30 1093 H 101.172 -1.38064 -0.782553 0
M  V30 1094 H 101.193 -1.48925 -3.50145 0
M  V30 1095 H 100.705 -2.99407 -2.46936 0
M  V30 1096 H 98.8057 -0.82092 -3.63444 0
M  V30 1097 H 98.9187 -2.67406 -3.97531 0
M  V30 1098 H 97.2827 -1.34027 -2.16584 0
M  V30 1099 H 98.0657 -2.9574 -1.74334 0
M  V30 1100 N 100.511 1.16574 -1.06058 0
M  V30 1101 C 101.76 1.86385 -0.770944 0
M  V30 1102 C 102.073 1.82448 0.705129 0
M  V30 1103 O 103.279 2.47815 1.10905 0
M  V30 1104 C 101.735 3.34466 -1.32893 0
M  V30 1105 C 101.343 3.46883 -2.83507 0
M  V30 1106 C 103.087 4.09548 -1.11672 0
M  V30 1107 C 100.994 4.89036 -3.32562 0
M  V30 1108 H 99.9238 0.698181 -0.284709 0
M  V30 1109 H 102.575 1.31583 -1.27899 0
M  V30 1110 H 100.957 3.88859 -0.748662 0
M  V30 1111 H 102.131 3.02663 -3.47465 0
M  V30 1112 H 100.446 2.85232 -3.03368 0
M  V30 1113 H 103.043 5.14434 -1.45814 0
M  V30 1114 H 103.386 4.16264 -0.0549535 0
M  V30 1115 H 103.919 3.61387 -1.66265 0
M  V30 1116 H 100.658 4.87499 -4.38207 0
M  V30 1117 H 100.178 5.3389 -2.73351 0
M  V30 1118 H 101.857 5.57843 -3.2775 0
M  V30 1119 N 101.989 0.842826 1.3317 0
M  V30 1120 C 102.919 0.294028 2.31641 0
M  V30 1121 C 103.9 -0.600401 1.59151 0
M  V30 1122 O 105.085 -0.523124 1.87022 0
M  V30 1123 C 102.215 -0.528416 3.43257 0
M  V30 1124 C 101.169 0.27056 4.27144 0
M  V30 1125 C 100.495 -0.675881 5.30411 0
M  V30 1126 C 101.795 1.48981 5.00602 0
M  V30 1127 H 103.489 1.11681 2.77791 0
M  V30 1128 H 101.035 0.538478 1.33553 0
M  V30 1129 H 102.988 -0.922674 4.11175 0
M  V30 1130 H 101.712 -1.38445 2.95805 0
M  V30 1131 H 100.371 0.646427 3.60856 0
M  V30 1132 H 100.019 -1.52842 4.79216 0
M  V30 1133 H 99.7189 -0.145374 5.8742 0
M  V30 1134 H 101.243 -1.06757 6.01195 0
M  V30 1135 H 102.657 1.16849 5.61266 0
M  V30 1136 H 101.054 1.95739 5.6728 0
M  V30 1137 H 102.124 2.25746 4.29147 0
M  V30 1138 N 103.467 -1.45747 0.599634 0
M  V30 1139 C 104.397 -2.33235 -0.111306 0
M  V30 1140 C 105.378 -1.46359 -0.866781 0
M  V30 1141 O 106.563 -1.75146 -0.838904 0
M  V30 1142 C 103.693 -3.28932 -1.11451 0
M  V30 1143 C 102.647 -4.25381 -0.472772 0
M  V30 1144 C 101.973 -5.1071 -1.58365 0
M  V30 1145 C 103.273 -5.18831 0.600948 0
M  V30 1146 H 104.967 -2.92927 0.61919 0
M  V30 1147 H 102.513 -1.40857 0.299215 0
M  V30 1148 H 104.466 -3.89002 -1.62036 0
M  V30 1149 H 103.19 -2.67381 -1.8755 0
M  V30 1150 H 101.849 -3.66598 0.0121472 0
M  V30 1151 H 101.497 -4.45533 -2.33473 0
M  V30 1152 H 101.197 -5.7604 -1.15982 0
M  V30 1153 H 102.721 -5.73647 -2.09194 0
M  V30 1154 H 104.135 -5.73019 0.179491 0
M  V30 1155 H 102.532 -5.92595 0.946076 0
M  V30 1156 H 103.602 -4.6174 1.48068 0
M  V30 1157 N 104.945 -0.338344 -1.53925 0
M  V30 1158 C 106.191 0.260143 -2.01125 0
M  V30 1159 C 106.524 1.50617 -1.22589 0
M  V30 1160 O 105.799 1.91979 -0.312113 0
M  V30 1161 C 106.082 0.579499 -3.55407 0
M  V30 1162 C 105.935 -0.678264 -4.44657 0
M  V30 1163 C 107.254 1.39122 -4.17532 0
M  V30 1164 H 104.373 0.0930772 -0.731099 0
M  V30 1165 H 107.015 -0.457852 -1.84401 0
M  V30 1166 H 105.165 1.19118 -3.69788 0
M  V30 1167 H 106.837 -1.31631 -4.42121 0
M  V30 1168 H 105.08 -1.3042 -4.13731 0
M  V30 1169 H 105.751 -0.410143 -5.50474 0
M  V30 1170 H 108.227 0.874035 -4.06817 0
M  V30 1171 H 107.103 1.58342 -5.25565 0
M  V30 1172 H 107.364 2.39178 -3.71815 0
M  V30 1173 N 106.423 1.57458 -0.0668435 0
M  V30 1174 C 107.651 1.97624 0.612565 0
M  V30 1175 C 108.066 0.94502 1.63447 0
M  V30 1176 O 107.423 -0.0689276 1.8237 0
M  V30 1177 C 107.474 3.37869 1.28555 0
M  V30 1178 O 107.195 4.3704 0.304557 0
M  V30 1179 C 108.696 3.92882 2.05325 0
M  V30 1180 H 105.916 0.650045 0.166381 0
M  V30 1181 H 108.46 2.04035 -0.137782 0
M  V30 1182 H 106.615 3.3256 1.98702 0
M  V30 1183 H 107.029 5.18565 0.786779 0
M  V30 1184 H 108.503 4.93247 2.47812 0
M  V30 1185 H 108.98 3.29156 2.9078 0
M  V30 1186 H 109.586 4.01577 1.40056 0
M  V30 1187 N 107.901 -0.206675 1.56239 0
M  V30 1188 C 109.149 -0.927007 1.79586 0
M  V30 1189 C 109.47 -1.8427 0.637929 0
M  V30 1190 O 108.74 -1.92849 -0.344398 0
M  V30 1191 H 107.32 -0.345292 0.662407 0
M  V30 1192 H 109.982 -0.21496 1.93711 0
M  V30 1193 H 109.078 -1.52501 2.72305 0
M  V30 1194 N 109.379 -1.50304 -0.473955 0
M  V30 1195 C 110.627 -1.60832 -1.22382 0
M  V30 1196 C 110.948 -0.30939 -1.9253 0
M  V30 1197 O 110.218 0.67296 -1.83978 0
M  V30 1198 H 108.798 -0.592652 -0.454723 0
M  V30 1199 H 111.46 -1.87068 -0.546968 0
M  V30 1200 H 110.556 -2.41803 -1.97327 0
M  V30 1201 N 110.857 0.726932 -1.39834 0
M  V30 1202 C 112.105 1.4837 -1.37225 0
M  V30 1203 C 112.426 1.94979 0.0284857 0
M  V30 1204 O 111.696 1.69555 0.981213 0
M  V30 1205 H 110.276 0.55043 -0.505011 0
M  V30 1206 H 112.938 0.862468 -1.74778 0
M  V30 1207 H 112.034 2.36198 -2.04003 0
M  V30 1208 N 112.336 1.25143 0.95797 0
M  V30 1209 C 113.566 1.12261 1.73439 0
M  V30 1210 C 113.974 -0.326715 1.86358 0
M  V30 1211 O 113.317 -1.2367 1.35836 0
M  V30 1212 C 113.379 1.69966 3.16784 0
M  V30 1213 C 113.043 3.18936 3.27305 0
M  V30 1214 C 114.04 4.15968 3.11877 0
M  V30 1215 C 111.725 3.59083 3.51234 0
M  V30 1216 C 113.719 5.51126 3.20217 0
M  V30 1217 C 111.406 4.9438 3.5921 0
M  V30 1218 C 112.404 5.90211 3.43716 0
M  V30 1219 O 112.092 7.23046 3.51368 0
M  V30 1220 H 111.824 0.392476 0.550399 0
M  V30 1221 H 114.378 1.65927 1.21068 0
M  V30 1222 H 112.608 1.10744 3.70503 0
M  V30 1223 H 114.297 1.52232 3.76272 0
M  V30 1224 H 115.063 3.86292 2.93264 0
M  V30 1225 H 110.942 2.84989 3.62356 0
M  V30 1226 H 114.486 6.25905 3.0804 0
M  V30 1227 H 110.383 5.23723 3.77339 0
M  V30 1228 H 111.151 7.31097 3.6802 0
M  V30 1229 N 113.814 -1.1601 1.06675 0
M  V30 1230 C 114.777 -2.18724 0.685001 0
M  V30 1231 C 115.777 -1.58496 -0.271246 0
M  V30 1232 O 116.967 -1.74119 -0.0531156 0
M  V30 1233 C 114.099 -3.40899 0.00853648 0
M  V30 1234 H 115.292 -2.54011 1.59431 0
M  V30 1235 H 112.845 -1.30352 0.862441 0
M  V30 1236 H 113.58 -3.11173 -0.913337 0
M  V30 1237 H 113.365 -3.8587 0.696204 0
M  V30 1238 H 114.855 -4.16886 -0.24414 0
M  V30 1239 N 115.292 -0.849877 -1.32721 0
M  V30 1240 C 116.54 -0.450032 -1.97026 0
M  V30 1241 C 116.861 0.996604 -1.67609 0
M  V30 1242 O 116.131 1.6958 -0.980786 0
M  V30 1243 H 114.711 -0.163426 -0.728904 0
M  V30 1244 H 117.373 -1.08526 -1.6189 0
M  V30 1245 H 116.469 -0.591146 -3.0645 0
M  V30 1246 N 116.77 1.45427 -0.607355 0
M  V30 1247 C 118 2.06314 -0.108656 0
M  V30 1248 C 118.408 1.45269 1.21217 0
M  V30 1249 O 117.751 0.561115 1.74921 0
M  V30 1250 C 117.813 3.59345 0.105618 0
M  V30 1251 C 117.477 4.42723 -1.13337 0
M  V30 1252 C 118.474 4.77715 -2.05145 0
M  V30 1253 C 116.159 4.83478 -1.36213 0
M  V30 1254 C 118.153 5.52317 -3.18158 0
M  V30 1255 C 115.84 5.57835 -2.49527 0
M  V30 1256 C 116.838 5.92171 -3.40327 0
M  V30 1257 O 116.526 6.65019 -4.51669 0
M  V30 1258 H 116.258 0.672782 -0.0658842 0
M  V30 1259 H 118.812 1.87664 -0.834945 0
M  V30 1260 H 117.042 3.76394 0.886796 0
M  V30 1261 H 118.731 4.02076 0.555886 0
M  V30 1262 H 119.497 4.46787 -1.88697 0
M  V30 1263 H 115.376 4.56188 -0.664362 0
M  V30 1264 H 118.92 5.79036 -3.89054 0
M  V30 1265 H 114.817 5.88177 -2.65928 0
M  V30 1266 H 115.585 6.83469 -4.50348 0
M  V30 1267 N 118.248 0.346503 1.53744 0
M  V30 1268 C 119.664 -0.00530975 1.59599 0
M  V30 1269 C 119.864 -1.48465 1.36236 0
M  V30 1270 O 118.92 -2.24376 1.15808 0
M  V30 1271 C 120.233 0.433516 2.97559 0
M  V30 1272 C 121.781 0.386111 3.10609 0
M  V30 1273 C 122.256 0.800451 4.50951 0
M  V30 1274 N 123.747 0.754753 4.5701 0
M  V30 1275 C 124.482 1.04727 5.63755 0
M  V30 1276 N 123.978 1.4081 6.7834 0
M  V30 1277 N 125.771 0.971316 5.53644 0
M  V30 1278 H 117.922 1.31009 1.67184 0
M  V30 1279 H 120.185 0.534242 0.783128 0
M  V30 1280 H 119.891 1.46509 3.19731 0
M  V30 1281 H 119.765 -0.189753 3.76722 0
M  V30 1282 H 122.152 -0.636295 2.88158 0
M  V30 1283 H 122.233 1.04462 2.33498 0
M  V30 1284 H 121.877 1.82088 4.74137 0
M  V30 1285 H 121.807 0.119386 5.26465 0
M  V30 1286 H 124.298 0.488662 3.74727 0
M  V30 1287 H 124.611 1.61607 7.55714 0
M  V30 1288 H 122.956 1.44657 6.79779 0
M  V30 1289 H 126.147 0.688748 4.63005 0
M  V30 1290 H 126.32 1.20263 6.36742 0
M  V30 1291 N 119.726 -1.57421 0.075193 0
M  V30 1292 C 120.658 -2.09904 -0.920483 0
M  V30 1293 C 121.671 -1.03191 -1.25918 0
M  V30 1294 O 122.86 -1.30695 -1.21577 0
M  V30 1295 C 119.96 -2.54726 -2.23534 0
M  V30 1296 C 119.133 -3.8505 -2.07498 0
M  V30 1297 C 118.192 -4.15929 -3.22319 0
M  V30 1298 O 117.218 -4.85474 -2.9716 0
M  V30 1299 N 118.42 -3.69745 -4.47514 0
M  V30 1300 H 121.185 -2.95954 -0.472359 0
M  V30 1301 H 118.746 -1.61523 -0.110444 0
M  V30 1302 H 120.738 -2.72443 -2.9926 0
M  V30 1303 H 119.308 -1.73795 -2.59835 0
M  V30 1304 H 118.528 -3.76679 -1.16219 0
M  V30 1305 H 119.816 -4.70348 -1.94038 0
M  V30 1306 H 119.214 -3.13569 -4.7084 0
M  V30 1307 H 117.771 -3.92655 -5.20255 0
M  V30 1308 N 121.204 0.198386 -1.56346 0
M  V30 1309 C 122.434 0.934215 -1.84271 0
M  V30 1310 C 122.842 1.77496 -0.655125 0
M  V30 1311 O 122.185 1.7961 0.385488 0
M  V30 1312 C 122.247 1.88278 -3.06254 0
M  V30 1313 C 121.911 1.22431 -4.40295 0
M  V30 1314 C 122.908 0.602839 -5.16393 0
M  V30 1315 C 120.593 1.22915 -4.87029 0
M  V30 1316 C 122.587 -0.0050083 -6.374 0
M  V30 1317 C 120.274 0.617465 -6.07973 0
M  V30 1318 C 121.272 0.00146341 -6.83 0
M  V30 1319 O 120.96 -0.600642 -8.01653 0
M  V30 1320 H 120.692 0.278245 -0.616081 0
M  V30 1321 H 123.246 0.211626 -2.04307 0
M  V30 1322 H 121.476 2.64498 -2.82095 0
M  V30 1323 H 123.165 2.48612 -3.20853 0
M  V30 1324 H 123.931 0.591265 -4.81382 0
M  V30 1325 H 119.81 1.69801 -4.28589 0
M  V30 1326 H 123.354 -0.48643 -6.95902 0
M  V30 1327 H 119.251 0.62653 -6.42452 0
M  V30 1328 H 120.019 -0.497225 -8.16988 0
M  V30 1329 N 122.682 1.50554 0.465978 0
M  V30 1330 C 123.592 1.72585 1.58907 0
M  V30 1331 C 124.608 0.60911 1.6299 0
M  V30 1332 O 125.784 0.88804 1.80765 0
M  V30 1333 C 122.849 1.81995 2.95091 0
M  V30 1334 C 121.91 3.05751 3.01355 0
M  V30 1335 C 121.143 3.14702 4.31043 0
M  V30 1336 O 121.366 2.30313 5.21835 0
M  V30 1337 O 120.3 4.07468 4.43005 0
M  V30 1338 H 124.126 2.67799 1.43239 0
M  V30 1339 H 121.711 1.34711 0.646013 0
M  V30 1340 H 123.593 1.90335 3.75966 0
M  V30 1341 H 122.268 0.899659 3.10947 0
M  V30 1342 H 121.175 3.02908 2.19539 0
M  V30 1343 H 122.508 3.97375 2.90437 0
M  V30 1344 N 124.16 -0.719506 1.40217 0
M  V30 1345 C 125.107 -1.83359 1.40172 0
M  V30 1346 C 126.077 -1.64065 0.259206 0
M  V30 1347 O 127.262 -1.85254 0.456677 0
M  V30 1348 C 124.402 -3.2103 1.26624 0
M  V30 1349 C 123.515 -3.51923 2.50548 0
M  V30 1350 C 122.65 -4.79079 2.29471 0
M  V30 1351 C 121.689 -5.02863 3.48992 0
M  V30 1352 N 120.826 -6.2123 3.27135 0
M  V30 1353 H 125.666 -1.82733 2.35399 0
M  V30 1354 H 123.203 -0.892688 1.16917 0
M  V30 1355 H 125.161 -4.00524 1.16776 0
M  V30 1356 H 123.791 -3.20895 0.350176 0
M  V30 1357 H 122.843 -2.67014 2.70939 0
M  V30 1358 H 124.155 -3.6541 3.39525 0
M  V30 1359 H 123.309 -5.66582 2.16955 0
M  V30 1360 H 122.048 -4.67794 1.37913 0
M  V30 1361 H 121.053 -4.13816 3.6199 0
M  V30 1362 H 122.278 -5.16023 4.41472 0
M  V30 1363 H 120.224 -6.11204 2.38256 0
M  V30 1364 H 120.141 -6.35375 4.09675 0
M  V30 1365 H 121.409 -7.11532 3.18344 0
M  V30 1366 N 125.638 -1.25649 -0.95132 0
M  V30 1367 C 126.868 -1.13179 -1.72841 0
M  V30 1368 C 127.276 0.316827 -1.86528 0
M  V30 1369 O 126.619 1.22948 -1.3649 0
M  V30 1370 C 126.681 -1.71644 -3.15878 0
M  V30 1371 C 126.345 -3.20667 -3.25609 0
M  V30 1372 C 127.342 -4.17616 -3.09666 0
M  V30 1373 C 125.027 -3.6094 -3.49324 0
M  V30 1374 C 127.021 -5.52817 -3.17289 0
M  V30 1375 C 124.708 -4.96278 -3.56584 0
M  V30 1376 C 125.706 -5.92025 -3.40581 0
M  V30 1377 O 125.394 -7.24899 -3.47528 0
M  V30 1378 H 125.126 -0.395389 -0.54831 0
M  V30 1379 H 127.68 -1.66566 -1.20187 0
M  V30 1380 H 125.91 -1.12707 -3.69911 0
M  V30 1381 H 127.599 -1.54225 -3.75459 0
M  V30 1382 H 128.365 -3.87842 -2.91211 0
M  V30 1383 H 124.244 -2.86907 -3.6084 0
M  V30 1384 H 127.788 -6.2753 -3.04716 0
M  V30 1385 H 123.685 -5.25716 -3.74556 0
M  V30 1386 H 124.453 -7.33039 -3.64138 0
M  V30 1387 N 127.117 1.15442 -1.07289 0
M  V30 1388 C 128.533 1.38201 -0.798288 0
M  V30 1389 C 128.733 1.92429 0.597769 0
M  V30 1390 O 127.789 2.12962 1.3566 0
M  V30 1391 C 129.102 2.35357 -1.87156 0
M  V30 1392 C 130.65 2.49021 -1.89624 0
M  V30 1393 C 131.125 3.49468 -2.96034 0
M  V30 1394 N 132.616 3.57003 -2.95132 0
M  V30 1395 C 133.351 4.34543 -3.74112 0
M  V30 1396 N 132.847 5.15421 -4.6294 0
M  V30 1397 N 134.64 4.29625 -3.62462 0
M  V30 1398 H 126.791 0.78584 -1.97328 0
M  V30 1399 H 129.054 0.408065 -0.855679 0
M  V30 1400 H 128.76 2.02626 -2.87464 0
M  V30 1401 H 128.634 3.35129 -1.73114 0
M  V30 1402 H 131.021 2.81051 -0.899687 0
M  V30 1403 H 131.102 1.4925 -2.07745 0
M  V30 1404 H 130.746 3.18173 -3.95889 0
M  V30 1405 H 130.676 4.48992 -2.75161 0
M  V30 1406 H 133.167 2.99276 -2.30743 0
M  V30 1407 H 133.48 5.7183 -5.19837 0
M  V30 1408 H 131.825 5.14729 -4.66989 0
M  V30 1409 H 135.016 3.65505 -2.92444 0
M  V30 1410 H 135.189 4.89807 -4.24256 0
M  V30 1411 N 128.595 0.856903 1.32268 0
M  V30 1412 C 129.505 0.306131 2.32594 0
M  V30 1413 C 130.521 -0.577209 1.64147 0
M  V30 1414 O 131.697 -0.477043 1.95669 0
M  V30 1415 C 128.762 -0.494561 3.43154 0
M  V30 1416 C 127.823 0.415186 4.27288 0
M  V30 1417 C 127.056 -0.347387 5.32568 0
M  V30 1418 O 127.279 -1.57708 5.48165 0
M  V30 1419 O 126.213 0.287982 6.01211 0
M  V30 1420 H 130.039 1.13737 2.81598 0
M  V30 1421 H 127.624 0.619902 1.35932 0
M  V30 1422 H 129.506 -0.948944 4.10576 0
M  V30 1423 H 128.181 -1.30257 2.96336 0
M  V30 1424 H 127.088 0.917793 3.62667 0
M  V30 1425 H 128.421 1.18844 4.77637 0
M  V30 1426 N 130.073 -1.45103 0.615059 0
M  V30 1427 C 131.489 -1.57137 0.279322 0
M  V30 1428 C 131.689 -1.60523 -1.21797 0
M  V30 1429 O 130.745 -1.53956 -2.00134 0
M  V30 1430 C 132.058 -2.85062 0.957083 0
M  V30 1431 C 133.606 -2.98749 0.933706 0
M  V30 1432 C 134.081 -4.29455 1.59162 0
M  V30 1433 N 135.572 -4.36231 1.55746 0
M  V30 1434 C 136.307 -5.36051 2.0356 0
M  V30 1435 N 135.803 -6.42367 2.59494 0
M  V30 1436 N 137.596 -5.27456 1.94284 0
M  V30 1437 H 129.747 -1.41148 1.58717 0
M  V30 1438 H 132.01 -0.675331 0.665306 0
M  V30 1439 H 131.716 -2.88488 2.01166 0
M  V30 1440 H 131.59 -3.7407 0.48494 0
M  V30 1441 H 133.977 -2.94886 -0.112347 0
M  V30 1442 H 134.058 -2.11132 1.44419 0
M  V30 1443 H 133.702 -4.34077 2.63704 0
M  V30 1444 H 133.632 -5.15901 1.0561 0
M  V30 1445 H 136.123 -3.60011 1.14893 0
M  V30 1446 H 136.436 -7.14793 2.93752 0
M  V30 1447 H 134.781 -6.43097 2.63537 0
M  V30 1448 H 137.972 -4.43308 1.5032 0
M  V30 1449 H 138.145 -6.05099 2.3186 0
M  V30 1450 N 131.551 -0.354651 -1.53558 0
M  V30 1451 C 132.461 0.50515 -2.29097 0
M  V30 1452 C 133.477 1.10223 -1.34636 0
M  V30 1453 O 134.653 1.11553 -1.67684 0
M  V30 1454 C 131.718 1.63479 -3.05738 0
M  V30 1455 C 130.779 1.06636 -4.15845 0
M  V30 1456 C 130.012 2.14217 -4.88822 0
M  V30 1457 O 130.235 3.35137 -4.61562 0
M  V30 1458 O 129.169 1.77887 -5.75013 0
M  V30 1459 H 132.995 -0.109237 -3.03503 0
M  V30 1460 H 130.58 -0.119357 -1.48922 0
M  V30 1461 H 132.462 2.2918 -3.5363 0
M  V30 1462 H 131.137 2.23478 -2.34178 0
M  V30 1463 H 130.044 0.373565 -3.7223 0
M  V30 1464 H 131.377 0.511081 -4.89539 0
M  V30 1465 N 133.029 1.57378 -0.0835403 0
M  V30 1466 C 133.959 2.1641 0.87686 0
M  V30 1467 C 134.94 1.09429 1.30228 0
M  V30 1468 O 136.125 1.37516 1.37124 0
M  V30 1469 C 133.255 2.73517 2.14022 0
M  V30 1470 C 132.209 3.85769 1.85381 0
M  V30 1471 C 131.535 4.29529 3.18448 0
M  V30 1472 C 132.835 5.09486 1.14984 0
M  V30 1473 H 134.529 2.96914 0.385059 0
M  V30 1474 H 132.075 1.42823 0.18377 0
M  V30 1475 H 134.028 3.13463 2.81636 0
M  V30 1476 H 132.752 1.90252 2.65465 0
M  V30 1477 H 131.411 3.46345 1.20169 0
M  V30 1478 H 131.059 3.43169 3.67755 0
M  V30 1479 H 130.759 5.05204 3.00071 0
M  V30 1480 H 132.283 4.72099 3.8724 0
M  V30 1481 H 133.697 5.46674 1.72687 0
M  V30 1482 H 132.094 5.90515 1.06826 0
M  V30 1483 H 133.164 4.84724 0.130749 0
M  V30 1484 N 134.507 -0.190092 1.56449 0
M  V30 1485 C 135.417 -1.25591 1.98152 0
M  V30 1486 C 136.433 -1.49519 0.889944 0
M  V30 1487 O 137.609 -1.62036 1.19609 0
M  V30 1488 C 134.674 -2.57916 2.3169 0
M  V30 1489 C 133.735 -2.42015 3.5458 0
M  V30 1490 C 132.968 -3.6803 3.8651 0
M  V30 1491 O 133.191 -4.72413 3.1966 0
M  V30 1492 O 132.125 -3.6326 4.79923 0
M  V30 1493 H 135.951 -0.931988 2.89046 0
M  V30 1494 H 133.536 -0.395488 1.4407 0
M  V30 1495 H 135.418 -3.36008 2.54316 0
M  V30 1496 H 134.093 -2.89925 1.43963 0
M  V30 1497 H 133 -1.62017 3.37196 0
M  V30 1498 H 134.333 -2.14937 4.4279 0
M  V30 1499 N 135.985 -1.50799 -0.457987 0
M  V30 1500 C 136.932 -1.70617 -1.5543 0
M  V30 1501 C 137.902 -0.547562 -1.56815 0
M  V30 1502 O 139.087 -0.779647 -1.74144 0
M  V30 1503 C 136.227 -1.81831 -2.93311 0
M  V30 1504 C 135.34 -3.09278 -3.01615 0
M  V30 1505 C 134.475 -3.11209 -4.30491 0
M  V30 1506 C 133.514 -4.33055 -4.32585 0
M  V30 1507 N 132.651 -4.32652 -5.52952 0
M  V30 1508 H 137.491 -2.64207 -1.37836 0
M  V30 1509 H 135.028 -1.30959 -0.669937 0
M  V30 1510 H 136.986 -1.86314 -3.73287 0
M  V30 1511 H 135.616 -0.916685 -3.0951 0
M  V30 1512 H 134.668 -3.14203 -2.1443 0
M  V30 1513 H 135.98 -3.99233 -2.99022 0
M  V30 1514 H 135.134 -3.14494 -5.18824 0
M  V30 1515 H 133.873 -2.19106 -4.35711 0
M  V30 1516 H 132.878 -4.29969 -3.42647 0
M  V30 1517 H 134.103 -5.264 -4.29046 0
M  V30 1518 H 132.049 -3.43409 -5.58933 0
M  V30 1519 H 131.966 -5.16392 -5.52155 0
M  V30 1520 H 133.234 -4.40101 -6.43375 0
M  V30 1521 N 137.463 0.71206 -1.40597 0
M  V30 1522 C 138.393 1.83889 -1.43899 0
M  V30 1523 C 139.374 1.67442 -0.299504 0
M  V30 1524 O 140.559 1.87421 -0.508624 0
M  V30 1525 C 137.689 3.21877 -1.30431 0
M  V30 1526 C 136.643 3.53002 -2.42019 0
M  V30 1527 C 135.969 4.90172 -2.13626 0
M  V30 1528 C 137.269 3.53643 -3.84362 0
M  V30 1529 H 138.963 1.81383 -2.38203 0
M  V30 1530 H 136.509 0.871237 -1.14654 0
M  V30 1531 H 138.462 4.00404 -1.31357 0
M  V30 1532 H 137.186 3.24968 -0.326049 0
M  V30 1533 H 135.845 2.76818 -2.40349 0
M  V30 1534 H 135.493 4.89869 -1.14182 0
M  V30 1535 H 135.193 5.11962 -2.88389 0
M  V30 1536 H 136.717 5.71028 -2.1624 0
M  V30 1537 H 138.131 4.22203 -3.87837 0
M  V30 1538 H 136.528 3.86961 -4.58673 0
M  V30 1539 H 137.598 2.52954 -4.13693 0
M  V30 1540 N 138.941 1.26152 0.944643 0
M  V30 1541 C 140.189 1.11271 1.6871 0
M  V30 1542 C 140.51 -0.345166 1.91921 0
M  V30 1543 O 139.78 -1.24387 1.51343 0
M  V30 1544 H 138.36 0.408783 0.625224 0
M  V30 1545 H 141.022 1.58427 1.1352 0
M  V30 1546 H 140.118 1.62879 2.66227 0
M  V30 1547 N 140.419 -1.14872 1.07899 0
M  V30 1548 C 141.349 -2.2193 0.725887 0
M  V30 1549 C 142.33 -1.67622 -0.28927 0
M  V30 1550 O 143.515 -1.93533 -0.160787 0
M  V30 1551 C 140.645 -3.47061 0.128856 0
M  V30 1552 C 139.599 -4.14363 1.07178 0
M  V30 1553 C 138.925 -5.33636 0.337229 0
M  V30 1554 C 140.225 -4.63492 2.40775 0
M  V30 1555 H 141.919 -2.51724 1.62097 0
M  V30 1556 H 139.465 -1.20991 0.780838 0
M  V30 1557 H 141.418 -4.21199 -0.130147 0
M  V30 1558 H 140.142 -3.16617 -0.80134 0
M  V30 1559 H 138.801 -3.42173 1.3158 0
M  V30 1560 H 138.449 -4.99449 -0.596606 0
M  V30 1561 H 138.149 -5.79609 0.965788 0
M  V30 1562 H 139.673 -6.10539 0.0861567 0
M  V30 1563 H 141.087 -5.2913 2.20669 0
M  V30 1564 H 139.484 -5.20148 2.99276 0
M  V30 1565 H 140.554 -3.78834 3.02676 0
M  V30 1566 N 141.898 -0.863906 -1.31812 0
M  V30 1567 C 142.808 -0.318461 -2.32428 0
M  V30 1568 C 143.824 0.568496 -1.64451 0
M  V30 1569 O 145 0.46666 -1.95919 0
M  V30 1570 C 142.065 0.476355 -3.43412 0
M  V30 1571 C 141.126 -0.43784 -4.27061 0
M  V30 1572 C 140.359 0.319138 -5.32745 0
M  V30 1573 O 140.582 1.54799 -5.48993 0
M  V30 1574 O 139.516 -0.319861 -6.01049 0
M  V30 1575 H 143.342 -1.15229 -2.80991 0
M  V30 1576 H 140.927 -0.627103 -1.35602 0
M  V30 1577 H 142.809 0.927156 -4.11074 0
M  V30 1578 H 141.484 1.28683 -2.97022 0
M  V30 1579 H 140.391 -0.937013 -3.62175 0
M  V30 1580 H 141.724 -1.21375 -4.77 0
M  V30 1581 N 143.376 1.44774 -0.622745 0
M  V30 1582 C 144.625 2.01334 -0.121397 0
M  V30 1583 C 144.938 1.49505 1.26125 0
M  V30 1584 O 146.144 1.98139 1.85616 0
M  V30 1585 C 144.6 3.59516 -0.166298 0
M  V30 1586 C 144.208 4.20342 -1.54974 0
M  V30 1587 C 145.952 4.23582 0.279021 0
M  V30 1588 C 143.859 5.70721 -1.55021 0
M  V30 1589 H 142.789 0.752851 -0.0416172 0
M  V30 1590 H 145.44 1.66083 -0.780309 0
M  V30 1591 H 143.822 3.92027 0.559557 0
M  V30 1592 H 144.996 3.99381 -2.29851 0
M  V30 1593 H 143.311 3.68529 -1.93843 0
M  V30 1594 H 145.908 5.33868 0.298083 0
M  V30 1595 H 146.251 3.95327 1.30471 0
M  V30 1596 H 146.784 3.95843 -0.394063 0
M  V30 1597 H 143.523 6.03698 -2.55399 0
M  V30 1598 H 143.043 5.93829 -0.844245 0
M  V30 1599 H 144.722 6.34203 -1.28047 0
M  V30 1600 N 144.854 0.36279 1.53368 0
M  V30 1601 C 146.265 -0.117022 1.86333 0
M  V30 1602 C 146.616 -1.48397 1.28347 0
M  V30 1603 O 145.741 -2.07787 0.604428 0
M  V30 1604 C 146.336 -0.21912 3.38091 0
M  V30 1605 C 144.895 -0.643184 3.70864 0
M  V30 1606 C 144.042 0.211318 2.76494 0
M  V30 1607 H 146.993 0.581687 1.47655 0
M  V30 1608 H 147.014 -1.04319 3.6592 0
M  V30 1609 H 146.526 0.775902 3.80265 0
M  V30 1610 H 144.627 -1.64654 3.34245 0
M  V30 1611 H 144.74 -0.41973 4.77258 0
M  V30 1612 H 143.104 -0.319367 2.5269 0
M  V30 1613 H 143.887 1.20383 3.21501 0
M  V30 1614 N 146.332 -1.57332 0.0918853 0
M  V30 1615 C 147.743 -1.81496 -0.437739 0
M  V30 1616 C 148.094 -1.00727 -1.6837 0
M  V30 1617 O 147.219 -0.235694 -2.15113 0
M  V30 1618 C 147.814 -3.29197 -0.800939 0
M  V30 1619 C 146.373 -3.54136 -1.27532 0
M  V30 1620 C 145.52 -2.75979 -0.270392 0
M  V30 1621 H 148.471 -1.55494 0.317366 0
M  V30 1622 H 148.492 -3.42344 -1.66074 0
M  V30 1623 H 148.004 -3.87955 0.106078 0
M  V30 1624 H 146.105 -3.00705 -2.20016 0
M  V30 1625 H 146.218 -4.62792 -1.23938 0
M  V30 1626 H 144.582 -2.43349 -0.751872 0
M  V30 1627 H 145.365 -3.37484 0.629248 0
M  V30 1628 N 147.81 0.181792 -1.56548 0
M  V30 1629 C 148.757 1.22521 -1.95595 0
M  V30 1630 C 149.727 1.4454 -0.818373 0
M  V30 1631 O 150.912 1.57454 -1.07763 0
M  V30 1632 C 148.052 2.56193 -2.31212 0
M  V30 1633 C 147.165 2.41641 -3.58097 0
M  V30 1634 C 146.3 3.68108 -3.82975 0
M  V30 1635 C 145.339 3.48445 -5.03242 0
M  V30 1636 N 144.476 4.66956 -5.24306 0
M  V30 1637 H 149.316 0.885226 -2.84548 0
M  V30 1638 H 146.853 0.425718 -1.40805 0
M  V30 1639 H 148.811 3.34088 -2.49882 0
M  V30 1640 H 147.441 2.88208 -1.45382 0
M  V30 1641 H 146.493 1.54976 -3.474 0
M  V30 1642 H 147.805 2.23052 -4.46149 0
M  V30 1643 H 146.959 4.54441 -4.01956 0
M  V30 1644 H 145.698 3.89666 -2.93278 0
M  V30 1645 H 144.703 2.60499 -4.8417 0
M  V30 1646 H 145.928 3.2832 -5.9446 0
M  V30 1647 H 143.874 4.88752 -4.37559 0
M  V30 1648 H 143.791 4.51242 -6.06561 0
M  V30 1649 H 145.059 5.54602 -5.47756 0
M  V30 1650 N 149.288 1.51039 0.449983 0
M  V30 1651 C 150.218 1.74379 1.55288 0
M  V30 1652 C 151.199 0.593236 1.5942 0
M  V30 1653 O 152.384 0.834625 1.7535 0
M  V30 1654 C 149.514 1.85728 2.93466 0
M  V30 1655 C 148.468 3.01078 3.04197 0
M  V30 1656 C 147.794 2.97595 4.44231 0
M  V30 1657 C 149.094 4.41254 2.7945 0
M  V30 1658 H 150.788 2.66725 1.36008 0
M  V30 1659 H 148.334 1.2835 0.652864 0
M  V30 1660 H 150.287 2.0064 3.70569 0
M  V30 1661 H 149.011 0.900207 3.13949 0
M  V30 1662 H 147.67 2.85851 2.29531 0
M  V30 1663 H 147.318 1.99691 4.61663 0
M  V30 1664 H 147.018 3.75046 4.52343 0
M  V30 1665 H 148.542 3.14583 5.23326 0
M  V30 1666 H 149.956 4.56897 3.46292 0
M  V30 1667 H 148.353 5.20315 2.98985 0
M  V30 1668 H 149.423 4.52164 1.75144 0
M  V30 1669 N 150.766 -0.704594 1.40972 0
M  V30 1670 C 151.729 -1.80035 1.41845 0
M  V30 1671 C 152.729 -1.57774 0.310474 0
M  V30 1672 O 153.919 -1.64613 0.56992 0
M  V30 1673 C 151.051 -3.18284 1.22098 0
M  V30 1674 H 152.244 -1.80658 2.3938 0
M  V30 1675 H 149.797 -0.911329 1.26982 0
M  V30 1676 H 150.532 -3.23306 0.253672 0
M  V30 1677 H 150.317 -3.35843 2.02366 0
M  V30 1678 H 151.807 -3.98289 1.25522 0
M  V30 1679 N 152.244 -1.26651 -0.937939 0
M  V30 1680 C 153.492 -1.12165 -1.68118 0
M  V30 1681 C 153.813 0.334983 -1.92101 0
M  V30 1682 O 153.083 1.23583 -1.52 0
M  V30 1683 H 151.663 -0.412093 -0.623048 0
M  V30 1684 H 154.325 -1.59027 -1.12678 0
M  V30 1685 H 153.421 -1.64289 -2.6536 0
M  V30 1686 N 153.722 1.14298 -1.08507 0
M  V30 1687 C 154.672 2.17449 -0.685569 0
M  V30 1688 C 155.656 1.58167 0.295315 0
M  V30 1689 O 156.848 1.76675 0.107172 0
M  V30 1690 C 153.977 3.43161 -0.0975318 0
M  V30 1691 C 153.063 4.09471 -1.10426 0
M  V30 1692 N 153.454 4.51089 -2.28806 0
M  V30 1693 C 151.752 4.35976 -0.940258 0
M  V30 1694 C 152.453 5.02654 -2.9277 0
M  V30 1695 N 151.429 4.96927 -2.20374 0
M  V30 1696 H 155.231 2.47369 -1.587 0
M  V30 1697 H 152.745 1.30992 -0.959936 0
M  V30 1698 H 154.742 4.16388 0.20664 0
M  V30 1699 H 153.402 3.14719 0.798872 0
M  V30 1700 H 154.413 4.44097 -2.66455 0
M  V30 1701 H 151.09 4.17386 -0.0977441 0
M  V30 1702 H 152.48 5.44723 -3.93352 0
M  V30 1703 N 155.201 0.870884 1.31352 0
M  V30 1704 C 156.447 0.492314 1.97352 0
M  V30 1705 C 156.802 -0.945174 1.67583 0
M  V30 1706 O 156.095 -1.65674 0.962423 0
M  V30 1707 C 156.289 0.687157 3.50732 0
M  V30 1708 C 156.118 2.14203 3.95407 0
M  V30 1709 C 154.888 2.78382 4.21701 0
M  V30 1710 C 157.086 3.1144 4.09279 0
M  V30 1711 N 155.068 4.14611 4.52737 0
M  V30 1712 C 156.439 4.32702 4.44037 0
M  V30 1713 C 158.494 3.07418 3.91661 0
M  V30 1714 C 157.197 5.50463 4.63015 0
M  V30 1715 C 159.223 4.24438 4.11833 0
M  V30 1716 C 158.585 5.44463 4.46923 0
M  V30 1717 H 154.684 0.229206 0.747655 0
M  V30 1718 H 157.268 1.12568 1.5886 0
M  V30 1719 H 155.439 0.083384 3.8831 0
M  V30 1720 H 157.171 0.276883 4.03752 0
M  V30 1721 H 153.926 2.29326 4.14375 0
M  V30 1722 H 154.35 4.84928 4.72413 0
M  V30 1723 H 158.992 2.15732 3.6362 0
M  V30 1724 H 156.71 6.42666 4.89904 0
M  V30 1725 H 160.296 4.2278 3.99685 0
M  V30 1726 H 159.176 6.33504 4.62214 0
M  V30 1727 N 156.679 -1.44442 0.630414 0
M  V30 1728 C 157.589 -2.34476 -0.0761693 0
M  V30 1729 C 158.605 -1.52576 -0.836449 0
M  V30 1730 O 159.781 -1.85307 -0.788874 0
M  V30 1731 C 156.846 -3.30545 -1.04599 0
M  V30 1732 C 155.907 -4.28352 -0.28516 0
M  V30 1733 C 155.14 -5.19831 -1.20878 0
M  V30 1734 O 155.363 -5.15223 -2.44747 0
M  V30 1735 O 154.297 -5.97892 -0.693491 0
M  V30 1736 H 158.123 -2.96345 0.664324 0
M  V30 1737 H 155.708 -1.44203 0.39061 0
M  V30 1738 H 157.59 -3.89681 -1.60396 0
M  V30 1739 H 156.265 -2.7121 -1.76711 0
M  V30 1740 H 155.172 -3.72764 0.315837 0
M  V30 1741 H 156.505 -4.90605 0.395924 0
M  V30 1742 N 158.157 -0.370918 -1.53173 0
M  V30 1743 C 159.403 0.217423 -2.01631 0
M  V30 1744 C 159.736 1.47983 -1.25756 0
M  V30 1745 O 159.011 1.91274 -0.352764 0
M  V30 1746 C 159.294 0.503982 -3.56556 0
M  V30 1747 C 159.147 -0.77243 -4.43118 0
M  V30 1748 C 160.466 1.30234 -4.20389 0
M  V30 1749 H 157.585 0.0775486 -0.732909 0
M  V30 1750 H 160.227 -0.496863 -1.83388 0
M  V30 1751 H 158.377 1.11248 -3.72231 0
M  V30 1752 H 160.049 -1.4098 -4.39229 0
M  V30 1753 H 158.292 -1.39167 -4.10871 0
M  V30 1754 H 158.963 -0.526815 -5.4948 0
M  V30 1755 H 161.439 0.787546 -4.08579 0
M  V30 1756 H 160.315 1.47158 -5.28806 0
M  V30 1757 H 160.576 2.31237 -3.76805 0
M  V30 1758 N 159.635 1.57281 -0.100228 0
M  V30 1759 C 160.598 2.13158 0.842398 0
M  V30 1760 C 161.598 1.06202 1.20738 0
M  V30 1761 O 162.788 1.32066 1.13597 0
M  V30 1762 C 159.92 2.65639 2.13655 0
M  V30 1763 H 161.113 2.97766 0.357114 0
M  V30 1764 H 158.666 1.5559 0.148823 0
M  V30 1765 H 159.401 1.84566 2.66657 0
M  V30 1766 H 159.186 3.43844 1.88451 0
M  V30 1767 H 160.676 3.08846 2.81077 0
M  V30 1768 N 161.113 -0.173488 1.56642 0
M  V30 1769 C 162.043 -1.2171 1.99271 0
M  V30 1770 C 163.024 -1.46289 0.867959 0
M  V30 1771 O 164.209 -1.5766 1.13388 0
M  V30 1772 C 161.339 -2.55651 2.35074 0
M  V30 1773 C 160.293 -2.45645 3.50489 0
M  V30 1774 C 159.619 -3.84056 3.72028 0
M  V30 1775 C 160.919 -1.96302 4.84007 0
M  V30 1776 H 162.613 -0.86275 2.867 0
M  V30 1777 H 160.159 -0.413571 1.37933 0
M  V30 1778 H 162.112 -3.2886 2.63494 0
M  V30 1779 H 160.836 -2.92869 1.44552 0
M  V30 1780 H 159.495 -1.7489 3.22194 0
M  V30 1781 H 159.143 -4.18664 2.788 0
M  V30 1782 H 158.843 -3.7823 4.49684 0
M  V30 1783 H 160.367 -4.58854 4.02846 0
M  V30 1784 H 161.781 -2.59284 5.11317 0
M  V30 1785 H 160.178 -2.01429 5.65284 0
M  V30 1786 H 161.248 -0.917226 4.76146 0
M  V30 1787 N 162.591 -1.51276 -0.441967 0
M  V30 1788 C 163.821 -1.67273 -1.21257 0
M  V30 1789 C 164.229 -0.367624 -1.85594 0
M  V30 1790 O 163.572 0.663349 -1.71305 0
M  V30 1791 C 163.634 -2.72807 -2.34129 0
M  V30 1792 C 163.298 -4.1554 -1.90198 0
M  V30 1793 C 164.295 -5.00471 -1.40801 0
M  V30 1794 C 161.98 -4.61616 -1.9803 0
M  V30 1795 C 163.974 -6.29536 -0.998174 0
M  V30 1796 C 161.661 -5.90679 -1.56658 0
M  V30 1797 C 162.659 -6.74466 -1.07633 0
M  V30 1798 O 162.347 -8.01116 -0.668459 0
M  V30 1799 H 162.079 -0.564614 -0.371734 0
M  V30 1800 H 164.633 -1.9843 -0.530521 0
M  V30 1801 H 162.863 -2.36954 -3.05597 0
M  V30 1802 H 164.552 -2.77729 -2.96009 0
M  V30 1803 H 165.318 -4.66079 -1.34148 0
M  V30 1804 H 161.197 -3.96526 -2.35135 0
M  V30 1805 H 164.741 -6.94885 -0.61482 0
M  V30 1806 H 160.638 -6.24586 -1.62979 0
M  V30 1807 H 161.406 -8.14633 -0.794722 0
M  V30 1808 N 164.069 0.697108 -1.41344 0
M  V30 1809 C 165.016 1.81106 -1.43071 0
M  V30 1810 C 165.986 1.63632 -0.285275 0
M  V30 1811 O 167.171 1.84504 -0.486091 0
M  V30 1812 C 164.311 3.18975 -1.31715 0
M  V30 1813 C 163.424 3.47892 -2.56115 0
M  V30 1814 C 162.559 4.75367 -2.37064 0
M  V30 1815 C 161.598 4.97247 -3.56948 0
M  V30 1816 N 160.735 6.15947 -3.36977 0
M  V30 1817 H 165.575 1.78965 -2.38276 0
M  V30 1818 H 163.112 0.873975 -1.18322 0
M  V30 1819 H 165.07 3.98615 -1.23133 0
M  V30 1820 H 163.7 3.20297 -0.401183 0
M  V30 1821 H 162.752 2.62669 -2.75153 0
M  V30 1822 H 164.064 3.59962 -3.45295 0
M  V30 1823 H 163.218 5.63059 -2.25941 0
M  V30 1824 H 161.957 4.65541 -1.45338 0
M  V30 1825 H 160.962 4.08004 -3.68527 0
M  V30 1826 H 162.187 5.08934 -4.49626 0
M  V30 1827 H 160.133 6.07336 -2.47949 0
M  V30 1828 H 160.05 6.28777 -4.19732 0
M  V30 1829 H 161.318 7.06377 -3.29623 0
M  V30 1830 N 165.547 1.27147 0.931209 0
M  V30 1831 C 166.772 1.16191 1.71797 0
M  V30 1832 C 167.197 -0.278004 1.86034 0
M  V30 1833 O 166.555 -1.20137 1.35782 0
M  V30 1834 C 166.603 1.84673 3.09723 0
M  V30 1835 O 165.707 1.14231 3.96264 0
M  V30 1836 H 165.048 0.404303 0.526721 0
M  V30 1837 H 167.578 1.68152 1.1656 0
M  V30 1838 H 167.588 1.91893 3.60057 0
M  V30 1839 H 166.263 2.89421 2.98677 0
M  V30 1840 H 164.84 1.15056 3.54706 0
M  V30 1841 N 167.025 -1.13721 1.09112 0
M  V30 1842 C 168.271 -1.85198 0.826414 0
M  V30 1843 C 168.604 -1.83129 -0.646319 0
M  V30 1844 O 167.879 -1.2671 -1.47563 0
M  V30 1845 C 168.162 -3.33507 1.35812 0
M  V30 1846 C 168.015 -3.44108 2.89672 0
M  V30 1847 C 169.334 -4.28838 0.989256 0
M  V30 1848 H 166.453 -0.67243 0.301675 0
M  V30 1849 H 169.095 -1.33499 1.35197 0
M  V30 1850 H 167.245 -3.77666 0.911082 0
M  V30 1851 H 168.917 -3.08684 3.428 0
M  V30 1852 H 167.16 -2.85087 3.26967 0
M  V30 1853 H 167.831 -4.48388 3.21951 0
M  V30 1854 H 170.307 -3.92734 1.37475 0
M  V30 1855 H 169.183 -5.31051 1.38838 0
M  V30 1856 H 169.444 -4.4198 -0.102924 0
M  V30 1857 N 168.503 -0.877838 -1.30888 0
M  V30 1858 C 169.914 -0.544193 -1.78593 0
M  V30 1859 C 170.265 0.939301 -1.72254 0
M  V30 1860 O 169.39 1.7337 -1.29505 0
M  V30 1861 C 169.985 -0.98105 -3.24285 0
M  V30 1862 C 168.544 -0.698935 -3.69854 0
M  V30 1863 C 167.691 -1.168 -2.51502 0
M  V30 1864 H 170.642 -1.06278 -1.17859 0
M  V30 1865 H 170.663 -0.307009 -3.79259 0
M  V30 1866 H 170.175 -2.06079 -3.28866 0
M  V30 1867 H 168.276 0.369112 -3.70767 0
M  V30 1868 H 168.389 -1.28148 -4.61644 0
M  V30 1869 H 166.753 -0.587535 -2.47831 0
M  V30 1870 H 167.536 -2.25533 -2.58824 0
M  V30 1871 N 169.982 1.44106 -0.638065 0
M  V30 1872 C 171.21 2.06336 -0.152615 0
M  V30 1873 C 171.625 1.47731 1.17563 0
M  V30 1874 O 170.982 0.602806 1.72257 0
M  V30 1875 C 171.033 3.61479 -0.0391491 0
M  V30 1876 O 170.754 4.17903 -1.31487 0
M  V30 1877 C 172.255 4.40757 0.474176 0
M  V30 1878 H 169.475 0.665862 -0.0828776 0
M  V30 1879 H 172.019 1.84862 -0.87443 0
M  V30 1880 H 170.174 3.82191 0.633142 0
M  V30 1881 H 170.588 5.11416 -1.16421 0
M  V30 1882 H 172.062 5.49707 0.502562 0
M  V30 1883 H 172.539 4.12697 1.50258 0
M  V30 1884 H 173.145 4.24979 -0.165102 0
M  V30 1885 N 171.46 0.379036 1.52974 0
M  V30 1886 C 172.876 0.0285448 1.59574 0
M  V30 1887 C 173.076 -1.45542 1.39355 0
M  V30 1888 O 172.132 -2.2187 1.20541 0
M  V30 1889 C 173.445 0.496535 2.96572 0
M  V30 1890 C 174.993 0.451909 3.0972 0
M  V30 1891 C 175.468 0.895924 4.49152 0
M  V30 1892 N 176.959 0.851522 4.55306 0
M  V30 1893 C 177.694 1.16661 5.61407 0
M  V30 1894 N 177.19 1.55166 6.752 0
M  V30 1895 N 178.983 1.08853 5.51459 0
M  V30 1896 H 171.134 1.34525 1.64367 0
M  V30 1897 H 173.397 0.550733 0.771619 0
M  V30 1898 H 173.103 1.53258 3.16552 0
M  V30 1899 H 172.977 -0.109802 3.7704 0
M  V30 1900 H 175.364 -0.575029 2.89443 0
M  V30 1901 H 175.445 1.09392 2.3123 0
M  V30 1902 H 175.089 1.92104 4.70168 0
M  V30 1903 H 175.019 0.23103 5.26093 0
M  V30 1904 H 177.51 0.568038 3.73606 0
M  V30 1905 H 177.823 1.776 7.52116 0
M  V30 1906 H 176.168 1.59044 6.76557 0
M  V30 1907 H 179.359 0.786803 4.6144 0
M  V30 1908 H 179.532 1.33742 6.34048 0
M  V30 1909 N 172.938 -1.57226 0.108567 0
M  V30 1910 C 173.868 -2.17778 -0.84232 0
M  V30 1911 C 174.849 -1.11487 -1.2847 0
M  V30 1912 O 176.034 -1.39681 -1.34918 0
M  V30 1913 C 173.164 -2.76888 -2.09644 0
M  V30 1914 C 172.118 -3.88669 -1.79221 0
M  V30 1915 C 171.444 -4.34541 -3.11574 0
M  V30 1916 C 172.744 -5.11251 -1.06864 0
M  V30 1917 H 174.438 -2.97489 -0.337774 0
M  V30 1918 H 171.984 -1.43097 -0.161025 0
M  V30 1919 H 173.937 -3.17904 -2.76614 0
M  V30 1920 H 172.661 -1.94451 -2.62405 0
M  V30 1921 H 171.32 -3.48213 -1.14644 0
M  V30 1922 H 170.968 -3.48977 -3.62249 0
M  V30 1923 H 170.668 -5.09914 -2.91996 0
M  V30 1924 H 172.192 -4.782 -3.7968 0
M  V30 1925 H 173.606 -5.49352 -1.63968 0
M  V30 1926 H 172.003 -5.9214 -0.974178 0
M  V30 1927 H 173.073 -4.8487 -0.0536168 0
M  V30 1928 N 174.416 0.165178 -1.56732 0
M  V30 1929 C 175.346 1.20651 -1.99914 0
M  V30 1930 C 176.327 1.45827 -0.875705 0
M  V30 1931 O 177.512 1.57057 -1.14223 0
M  V30 1932 C 174.642 2.54401 -2.36427 0
M  V30 1933 C 173.596 2.43782 -3.51787 0
M  V30 1934 C 172.922 3.82078 -3.7406 0
M  V30 1935 C 174.222 1.93732 -4.85041 0
M  V30 1936 H 175.916 0.847534 -2.87154 0
M  V30 1937 H 173.462 0.40625 -1.38151 0
M  V30 1938 H 175.415 3.27458 -2.65234 0
M  V30 1939 H 174.139 2.92098 -1.46103 0
M  V30 1940 H 172.798 1.73178 -3.23117 0
M  V30 1941 H 172.446 4.17179 -2.81017 0
M  V30 1942 H 172.146 3.7584 -4.51684 0
M  V30 1943 H 173.67 4.56712 -4.05274 0
M  V30 1944 H 175.084 2.56569 -5.12684 0
M  V30 1945 H 173.481 1.98428 -5.66345 0
M  V30 1946 H 174.551 0.891962 -4.76626 0
M  V30 1947 N 175.894 1.51508 0.433938 0
M  V30 1948 C 177.119 1.68443 1.21003 0
M  V30 1949 C 177.544 0.382636 1.84167 0
M  V30 1950 O 176.902 -0.65755 1.68956 0
M  V30 1951 C 176.95 2.80405 2.26727 0
M  V30 1952 O 176.054 2.44245 3.32292 0
M  V30 1953 H 175.395 0.561536 0.354363 0
M  V30 1954 H 177.925 1.9809 0.512024 0
M  V30 1955 H 177.935 3.0459 2.71457 0
M  V30 1956 H 176.61 3.74867 1.80132 0
M  V30 1957 H 175.187 2.30644 2.93015 0
M  V30 1958 N 177.372 -0.689602 1.41712 0
M  V30 1959 C 178.788 -1.00093 1.24312 0
M  V30 1960 C 178.988 -2.01036 0.136729 0
M  V30 1961 O 178.044 -2.47562 -0.496918 0
M  V30 1962 C 179.357 -1.51985 2.59463 0
M  V30 1963 C 180.905 -1.63838 2.66695 0
M  V30 1964 C 181.38 -2.1913 4.02177 0
M  V30 1965 N 182.871 -2.26483 4.04054 0
M  V30 1966 C 183.606 -2.70306 5.0569 0
M  V30 1967 N 183.102 -3.13691 6.17713 0
M  V30 1968 N 184.895 -2.69923 4.9305 0
M  V30 1969 H 177.046 -0.0210029 2.1239 0
M  V30 1970 H 179.309 -0.0718733 0.945272 0
M  V30 1971 H 179.015 -0.85269 3.41207 0
M  V30 1972 H 178.889 -2.50103 2.82362 0
M  V30 1973 H 181.276 -2.29664 1.85306 0
M  V30 1974 H 181.357 -0.642492 2.476 0
M  V30 1975 H 181.001 -1.53918 4.84016 0
M  V30 1976 H 180.931 -3.19482 4.18615 0
M  V30 1977 H 183.422 -1.95874 3.23174 0
M  V30 1978 H 183.735 -3.45773 6.9113 0
M  V30 1979 H 182.08 -3.11585 6.21241 0
M  V30 1980 H 185.271 -2.35382 4.04614 0
M  V30 1981 H 185.444 -3.03758 5.72394 0
M  V30 1982 N 178.85 -1.27639 -0.924453 0
M  V30 1983 C 179.813 -1.10681 -2.00705 0
M  V30 1984 C 180.813 -0.0497823 -1.60723 0
M  V30 1985 O 182.003 -0.294654 -1.7169 0
M  V30 1986 C 179.135 -0.687164 -3.33902 0
M  V30 1987 H 180.328 -2.06817 -2.17179 0
M  V30 1988 H 177.881 -1.10473 -1.10569 0
M  V30 1989 H 178.616 0.275439 -3.23128 0
M  V30 1990 H 178.401 -1.45061 -3.6428 0
M  V30 1991 H 179.891 -0.590853 -4.13399 0
M  V30 1992 N 180.328 1.1314 -1.09713 0
M  V30 1993 C 181.574 1.84967 -0.846104 0
M  V30 1994 C 181.929 1.82082 0.621601 0
M  V30 1995 O 181.222 1.2501 1.452 0
M  V30 1996 C 181.416 3.32167 -1.3191 0
M  V30 1997 C 181.245 3.49386 -2.83125 0
M  V30 1998 C 180.015 3.63456 -3.51038 0
M  V30 1999 C 182.213 3.45179 -3.81256 0
M  V30 2000 N 180.195 3.68966 -4.9065 0
M  V30 2001 C 181.566 3.57094 -5.06837 0
M  V30 2002 C 183.621 3.28598 -3.74069 0
M  V30 2003 C 182.324 3.5414 -6.26081 0
M  V30 2004 C 184.35 3.26953 -4.92804 0
M  V30 2005 C 183.712 3.39422 -6.17229 0
M  V30 2006 H 179.811 0.692899 -0.362512 0
M  V30 2007 H 182.395 1.35506 -1.39808 0
M  V30 2008 H 180.566 3.80186 -0.794535 0
M  V30 2009 H 182.298 3.91815 -1.01308 0
M  V30 2010 H 179.053 3.65256 -3.01471 0
M  V30 2011 H 179.477 3.75404 -5.63383 0
M  V30 2012 H 184.119 3.17858 -2.78794 0
M  V30 2013 H 181.837 3.63653 -7.21653 0
M  V30 2014 H 185.423 3.15316 -4.88945 0
M  V30 2015 H 184.303 3.38114 -7.07565 0
M  V30 2016 N 181.806 0.884767 1.30421 0
M  V30 2017 C 183.054 0.502112 1.95763 0
M  V30 2018 C 183.375 -0.951815 1.70192 0
M  V30 2019 O 182.645 -1.6692 1.0254 0
M  V30 2020 H 181.225 0.182694 0.724315 0
M  V30 2021 H 183.887 1.1278 1.58955 0
M  V30 2022 H 182.983 0.672188 3.04775 0
M  V30 2023 N 183.284 -1.43765 0.645699 0
M  V30 2024 C 184.7 -1.56509 0.312591 0
M  V30 2025 C 184.9 -1.6307 -1.18365 0
M  V30 2026 O 183.956 -1.58167 -1.96824 0
M  V30 2027 C 185.269 -2.82968 1.01733 0
M  V30 2028 C 186.817 -2.96701 0.996865 0
M  V30 2029 C 187.292 -4.25982 1.68236 0
M  V30 2030 N 188.783 -4.32829 1.64964 0
M  V30 2031 C 189.518 -5.31613 2.14885 0
M  V30 2032 N 189.014 -6.36718 2.73061 0
M  V30 2033 N 190.807 -5.23217 2.05428 0
M  V30 2034 H 182.958 -1.3775 1.61675 0
M  V30 2035 H 185.221 -0.661067 0.679481 0
M  V30 2036 H 184.927 -2.84156 2.0724 0
M  V30 2037 H 184.801 -3.72957 0.564177 0
M  V30 2038 H 187.188 -2.95058 -0.0497719 0
M  V30 2039 H 187.269 -2.08022 1.48865 0
M  V30 2040 H 186.913 -4.28386 2.72852 0
M  V30 2041 H 186.843 -5.13545 1.16529 0
M  V30 2042 H 189.334 -3.57493 1.22503 0
M  V30 2043 H 189.647 -7.08401 3.08848 0
M  V30 2044 H 187.992 -6.37362 2.77118 0
M  V30 2045 H 191.183 -4.40019 1.59689 0
M  V30 2046 H 191.356 -6.00045 2.44643 0
M  V30 2047 N 184.763 -0.387143 -1.52771 0
M  V30 2048 C 185.693 0.440551 -2.29306 0
M  V30 2049 C 186.674 1.06535 -1.32606 0
M  V30 2050 O 187.859 1.07853 -1.61497 0
M  V30 2051 C 184.989 1.56919 -3.09829 0
M  V30 2052 C 183.943 1.07054 -4.14395 0
M  V30 2053 C 183.269 2.29109 -4.83129 0
M  V30 2054 C 184.569 0.140015 -5.22112 0
M  V30 2055 H 186.263 -0.198026 -2.98744 0
M  V30 2056 H 183.809 -0.09668 -1.43675 0
M  V30 2057 H 185.762 2.15503 -3.62128 0
M  V30 2058 H 184.486 2.23532 -2.3812 0
M  V30 2059 H 183.145 0.507247 -3.63074 0
M  V30 2060 H 182.793 2.94227 -4.0797 0
M  V30 2061 H 182.493 1.96406 -5.53804 0
M  V30 2062 H 184.017 2.88339 -5.38231 0
M  V30 2063 H 185.431 0.633978 -5.69784 0
M  V30 2064 H 183.828 -0.0971485 -6.00021 0
M  V30 2065 H 184.898 -0.811711 -4.78058 0
M  V30 2066 N 186.241 1.57166 -0.116904 0
M  V30 2067 C 187.189 2.16457 0.851418 0
M  V30 2068 C 188.183 1.11323 1.27686 0
M  V30 2069 O 189.389 1.2963 1.24884 0
M  V30 2070 H 185.764 0.69271 0.292672 0
M  V30 2071 H 187.735 2.96605 0.32685 0
M  V30 2072 C 186.484 2.77689 2.09246 0
M  V30 2073 H 185.807 3.58285 1.77402 0
M  V30 2074 H 187.247 3.22716 2.7501 0
M  V30 2075 C 185.706 1.74667 2.88085 0
M  V30 2076 O 186.236 1.19877 3.83396 0
M  V30 2077 N 184.442 1.44656 2.52038 0
M  V30 2078 H 183.989 1.89402 1.74599 0
M  V30 2079 H 183.947 0.759675 3.05084 0
M  V30 2080 N 187.719 -0.156864 1.56817 0
M  V30 2081 C 188.651 -1.21883 1.94106 0
M  V30 2082 C 189.664 -1.3971 0.835754 0
M  V30 2083 O 190.853 -1.39457 1.11418 0
M  V30 2084 C 187.953 -2.58527 2.19127 0
M  V30 2085 C 187.126 -2.61809 3.50393 0
M  V30 2086 C 186.185 -3.7992 3.64071 0
M  V30 2087 O 185.211 -3.65249 4.36557 0
M  V30 2088 N 186.413 -4.96973 2.99997 0
M  V30 2089 H 189.178 -0.901974 2.85805 0
M  V30 2090 H 186.739 -0.346513 1.58148 0
M  V30 2091 H 188.731 -3.36034 2.25529 0
M  V30 2092 H 187.301 -2.82545 1.33742 0
M  V30 2093 H 186.521 -1.7029 3.5552 0
M  V30 2094 H 187.809 -2.61024 4.36742 0
M  V30 2095 H 187.207 -5.11794 2.41004 0
M  V30 2096 H 185.764 -5.7229 3.11974 0
M  V30 2097 N 189.197 -1.51736 -0.425897 0
M  V30 2098 C 190.443 -1.65214 -1.1761 0
M  V30 2099 C 190.776 -0.372778 -1.90589 0
M  V30 2100 O 190.051 0.628139 -1.84078 0
M  V30 2101 C 190.334 -2.86312 -2.18398 0
M  V30 2102 C 190.187 -4.24254 -1.49426 0
M  V30 2103 C 191.506 -3.02925 -3.19256 0
M  V30 2104 H 188.625 -0.601263 -0.426206 0
M  V30 2105 H 191.267 -1.8425 -0.463882 0
M  V30 2106 H 189.417 -2.70213 -2.79137 0
M  V30 2107 H 191.089 -4.52046 -0.919362 0
M  V30 2108 H 189.332 -4.26426 -0.796432 0
M  V30 2109 H 190.003 -5.05001 -2.22885 0
M  V30 2110 H 192.479 -3.1781 -2.68581 0
M  V30 2111 H 191.355 -3.89199 -3.8706 0
M  V30 2112 H 191.616 -2.15497 -3.86023 0
M  V30 2113 N 190.675 0.682077 -1.42076 0
M  V30 2114 C 191.585 1.82535 -1.47371 0
M  V30 2115 C 192.601 1.7017 -0.363079 0
M  V30 2116 O 193.777 1.91848 -0.612875 0
M  V30 2117 C 190.842 3.18624 -1.36674 0
M  V30 2118 C 189.903 3.42999 -2.58167 0
M  V30 2119 C 189.136 4.72595 -2.4797 0
M  V30 2120 O 189.359 5.50006 -1.5116 0
M  V30 2121 O 188.293 4.98054 -3.37974 0
M  V30 2122 H 192.119 1.81023 -2.43853 0
M  V30 2123 H 189.704 0.836887 -1.2376 0
M  V30 2124 H 191.586 3.99847 -1.33043 0
M  V30 2125 H 190.261 3.20789 -0.433138 0
M  V30 2126 H 189.168 2.61653 -2.67373 0
M  V30 2127 H 190.501 3.45659 -3.50401 0
M  V30 2128 N 192.153 1.28127 0.917671 0
M  V30 2129 C 193.083 1.14248 2.03641 0
M  V30 2130 C 194.064 0.0412748 1.7005 0
M  V30 2131 O 195.249 0.217566 1.92977 0
M  V30 2132 C 192.379 0.799431 3.37974 0
M  V30 2133 C 191.333 1.85497 3.85713 0
M  V30 2134 C 190.659 1.36565 5.16966 0
M  V30 2135 C 191.959 3.26085 4.08002 0
M  V30 2136 H 193.653 2.07835 2.15511 0
M  V30 2137 H 191.199 1.00064 1.03553 0
M  V30 2138 H 193.152 0.689114 4.15727 0
M  V30 2139 H 191.876 -0.172145 3.26146 0
M  V30 2140 H 190.535 1.95437 3.10161 0
M  V30 2141 H 190.183 0.383253 5.01538 0
M  V30 2142 H 189.883 2.07143 5.49878 0
M  V30 2143 H 191.407 1.26848 5.97279 0
M  V30 2144 H 192.821 3.19089 4.76293 0
M  V30 2145 H 191.218 3.94462 4.52238 0
M  V30 2146 H 192.288 3.70394 3.12948 0
M  V30 2147 N 193.631 -1.12557 1.10312 0
M  V30 2148 C 195.042 -1.65574 0.862678 0
M  V30 2149 C 195.393 -1.86566 -0.607256 0
M  V30 2150 O 194.518 -1.59121 -1.46662 0
M  V30 2151 C 195.113 -3.00776 1.55947 0
M  V30 2152 C 193.672 -3.50748 1.36576 0
M  V30 2153 C 192.819 -2.25797 1.60968 0
M  V30 2154 H 195.77 -0.963552 1.26101 0
M  V30 2155 H 195.791 -3.67185 0.997753 0
M  V30 2156 H 195.303 -2.85465 2.62928 0
M  V30 2157 H 193.404 -3.71245 0.317531 0
M  V30 2158 H 193.517 -4.30289 2.10686 0
M  V30 2159 H 191.881 -2.32841 1.03234 0
M  V30 2160 H 192.664 -2.13043 2.69198 0
M  V30 2161 N 195.109 -0.891671 -1.2995 0
M  V30 2162 C 196.059 -0.334811 -2.25528 0
M  V30 2163 C 197.043 0.540553 -1.51548 0
M  V30 2164 O 198.235 0.383882 -1.72787 0
M  V30 2165 C 195.364 0.44374 -3.4042 0
M  V30 2166 C 194.45 -0.44609 -4.21747 0
M  V30 2167 N 194.841 -1.54963 -4.81477 0
M  V30 2168 C 193.139 -0.242415 -4.45341 0
M  V30 2169 C 193.84 -2.10015 -5.42465 0
M  V30 2170 N 192.816 -1.39423 -5.25416 0
M  V30 2171 H 196.618 -1.17792 -2.69262 0
M  V30 2172 H 194.132 -0.741822 -1.44467 0
M  V30 2173 H 196.129 0.859362 -4.07947 0
M  V30 2174 H 194.789 1.28421 -2.98225 0
M  V30 2175 H 195.8 -1.93244 -4.80497 0
M  V30 2176 H 192.477 0.560342 -4.13723 0
M  V30 2177 H 193.867 -3.02724 -5.9984 0
M  V30 2178 N 196.587 1.43421 -0.653314 0
M  V30 2179 C 197.833 2.02641 -0.175593 0
M  V30 2180 C 198.188 1.5062 1.19713 0
M  V30 2181 O 197.481 0.689697 1.78756 0
M  V30 2182 C 197.675 3.57176 -0.126623 0
M  V30 2183 C 197.504 4.24191 -1.49306 0
M  V30 2184 C 196.274 4.60257 -2.08547 0
M  V30 2185 C 198.472 4.53193 -2.43148 0
M  V30 2186 N 196.454 5.12345 -3.38194 0
M  V30 2187 C 197.825 5.06601 -3.57429 0
M  V30 2188 C 199.88 4.35161 -2.41949 0
M  V30 2189 C 198.583 5.43875 -4.70736 0
M  V30 2190 C 200.609 4.73498 -3.54336 0
M  V30 2191 C 199.971 5.27039 -4.67343 0
M  V30 2192 H 196.07 0.77441 -0.108686 0
M  V30 2193 H 198.654 1.74596 -0.861638 0
M  V30 2194 H 196.825 3.84784 0.528766 0
M  V30 2195 H 198.557 4.03078 0.36198 0
M  V30 2196 H 195.312 4.45302 -1.61255 0
M  V30 2197 H 195.736 5.42842 -4.04538 0
M  V30 2198 H 200.378 3.9304 -1.55818 0
M  V30 2199 H 198.096 5.8494 -5.57558 0
M  V30 2200 H 201.682 4.61241 -3.5461 0
M  V30 2201 H 200.562 5.56153 -5.52868 0
M  V30 2202 N 198.065 0.39524 1.52563 0
M  V30 2203 C 198.995 -0.428384 2.29537 0
M  V30 2204 C 199.976 -1.05831 1.33169 0
M  V30 2205 O 201.161 -1.06995 1.62067 0
M  V30 2206 C 198.291 -1.55274 3.10656 0
M  V30 2207 C 197.245 -1.04855 4.14957 0
M  V30 2208 C 196.571 -2.26543 4.84337 0
M  V30 2209 C 197.871 -0.112324 5.22179 0
M  V30 2210 H 199.565 0.213867 2.98635 0
M  V30 2211 H 197.111 0.104298 1.43622 0
M  V30 2212 H 199.064 -2.1358 3.63265 0
M  V30 2213 H 197.788 -2.22266 2.39302 0
M  V30 2214 H 196.447 -0.487985 3.63338 0
M  V30 2215 H 196.095 -2.92059 4.09525 0
M  V30 2216 H 195.795 -1.93466 5.54837 0
M  V30 2217 H 197.319 -2.85481 5.39753 0
M  V30 2218 H 198.733 -0.603752 5.70112 0
M  V30 2219 H 197.13 0.128968 5.99961 0
M  V30 2220 H 198.2 0.837052 4.77621 0
M  V30 2221 N 199.544 -1.57102 0.125237 0
M  V30 2222 C 200.96 -1.57915 -0.231322 0
M  V30 2223 C 201.16 -1.13833 -1.66266 0
M  V30 2224 O 200.216 -0.828581 -2.38518 0
M  V30 2225 C 201.529 -3.00699 0.00766489 0
M  V30 2226 C 203.077 -3.12947 -0.0577483 0
M  V30 2227 C 203.552 -4.57742 0.153626 0
M  V30 2228 N 205.043 -4.63092 0.0998073 0
M  V30 2229 C 205.778 -5.72905 0.238174 0
M  V30 2230 N 205.274 -6.91445 0.433057 0
M  V30 2231 N 207.067 -5.6182 0.177308 0
M  V30 2232 H 199.218 -1.84055 1.06007 0
M  V30 2233 H 201.481 -0.850905 0.417929 0
M  V30 2234 H 201.187 -3.3726 0.997431 0
M  V30 2235 H 201.061 -3.70236 -0.721452 0
M  V30 2236 H 203.448 -2.7624 -1.03804 0
M  V30 2237 H 203.529 -2.4594 0.70335 0
M  V30 2238 H 203.173 -4.95149 1.13092 0
M  V30 2239 H 203.103 -5.22848 -0.627534 0
M  V30 2240 H 205.594 -3.77871 -0.047051 0
M  V30 2241 H 205.907 -7.70985 0.529332 0
M  V30 2242 H 204.252 -6.93415 0.469109 0
M  V30 2243 H 207.443 -4.68093 0.0259748 0
M  V30 2244 H 207.616 -6.47357 0.288582 0
M  V30 2245 N 201.022 0.148545 -1.56898 0
M  V30 2246 C 202.438 0.501131 -1.51528 0
M  V30 2247 C 202.638 1.83458 -0.833399 0
M  V30 2248 O 201.694 2.49259 -0.40328 0
M  V30 2249 C 203.007 0.512864 -2.96294 0
M  V30 2250 C 204.555 0.598487 -3.07225 0
M  V30 2251 C 205.03 0.640897 -4.53494 0
M  V30 2252 N 206.521 0.703163 -4.57832 0
M  V30 2253 C 207.256 0.756935 -5.68382 0
M  V30 2254 N 206.752 0.770147 -6.88506 0
M  V30 2255 N 208.545 0.797698 -5.56411 0
M  V30 2256 H 200.696 -0.725532 -1.99624 0
M  V30 2257 H 202.959 -0.264358 -0.910395 0
M  V30 2258 H 202.665 -0.398691 -3.49433 0
M  V30 2259 H 202.539 1.35133 -3.52163 0
M  V30 2260 H 204.926 1.50046 -2.54106 0
M  V30 2261 H 205.007 -0.267093 -2.54402 0
M  V30 2262 H 204.651 -0.256915 -5.0725 0
M  V30 2263 H 204.581 1.52295 -5.04097 0
M  V30 2264 H 207.072 0.700314 -3.71354 0
M  V30 2265 H 207.385 0.812983 -7.68512 0
M  V30 2266 H 205.73 0.738049 -6.9107 0
M  V30 2267 H 208.921 0.784535 -4.61479 0
M  V30 2268 H 209.094 0.83614 -6.42583 0
M  V30 2269 N 202.5 1.5196 0.417844 0
M  V30 2270 C 203.911 1.57851 0.997 0
M  V30 2271 C 204.262 0.413714 1.91789 0
M  V30 2272 O 203.387 -0.467057 2.113 0
M  V30 2273 C 203.982 2.86085 1.81496 0
M  V30 2274 C 202.541 2.94483 2.34428 0
M  V30 2275 C 201.688 2.52707 1.14169 0
M  V30 2276 H 204.639 1.57455 0.198392 0
M  V30 2277 H 204.66 2.70947 2.67148 0
M  V30 2278 H 204.172 3.70842 1.14446 0
M  V30 2279 H 202.273 2.142 3.04875 0
M  V30 2280 H 202.386 3.98546 2.65891 0
M  V30 2281 H 200.75 2.06353 1.49301 0
M  V30 2282 H 201.533 3.39828 0.486999 0
M  V30 2283 N 203.978 -0.674533 1.42435 0
M  V30 2284 C 205.224 -1.43671 1.43131 0
M  V30 2285 C 205.557 -1.94142 0.0476021 0
M  V30 2286 O 204.832 -1.70924 -0.928188 0
M  V30 2287 C 205.115 -2.63355 2.45594 0
M  V30 2288 C 204.968 -2.18514 3.93156 0
M  V30 2289 C 206.287 -3.65571 2.45043 0
M  V30 2290 H 203.406 -0.521077 0.521198 0
M  V30 2291 H 206.048 -0.766551 1.7385 0
M  V30 2292 H 204.198 -3.2053 2.19528 0
M  V30 2293 H 205.87 -1.66504 4.30202 0
M  V30 2294 H 204.113 -1.50086 4.07009 0
M  V30 2295 H 204.784 -3.04484 4.60428 0
M  V30 2296 H 207.26 -3.18113 2.68223 0
M  V30 2297 H 206.136 -4.46893 3.18713 0
M  V30 2298 H 206.397 -4.16716 1.47649 0
M  V30 2299 N 205.456 -1.28612 -0.910864 0
M  V30 2300 C 206.686 -1.1862 -1.69153 0
M  V30 2301 C 207.094 0.257324 -1.87442 0
M  V30 2302 O 206.437 1.18543 -1.40332 0
M  V30 2303 C 206.499 -1.81606 -3.10257 0
M  V30 2304 C 206.163 -3.30864 -3.15243 0
M  V30 2305 C 207.16 -4.27256 -2.96223 0
M  V30 2306 C 204.845 -3.71871 -3.37664 0
M  V30 2307 C 206.839 -5.62631 -2.99541 0
M  V30 2308 C 204.526 -5.07371 -3.40614 0
M  V30 2309 C 205.524 -6.02561 -3.21573 0
M  V30 2310 O 205.212 -7.35589 -3.2429 0
M  V30 2311 H 204.944 -0.412633 -0.535453 0
M  V30 2312 H 207.498 -1.70306 -1.14827 0
M  V30 2313 H 205.728 -1.24418 -3.66138 0
M  V30 2314 H 207.417 -1.66092 -3.70362 0
M  V30 2315 H 208.183 -3.9691 -2.78725 0
M  V30 2316 H 204.062 -2.98241 -3.5153 0
M  V30 2317 H 207.606 -6.36907 -2.84597 0
M  V30 2318 H 203.503 -5.37366 -3.57642 0
M  V30 2319 H 204.271 -7.44252 -3.40633 0
M  V30 2320 N 206.934 1.1197 -1.10907 0
M  V30 2321 C 208.159 1.87942 -0.877064 0
M  V30 2322 C 208.584 1.79341 0.567314 0
M  V30 2323 O 207.942 1.15184 1.40009 0
M  V30 2324 C 207.99 3.34926 -1.33629 0
M  V30 2325 O 207.094 4.09303 -0.504447 0
M  V30 2326 H 206.435 0.583785 -0.316371 0
M  V30 2327 H 208.965 1.4157 -1.47712 0
M  V30 2328 H 208.975 3.8577 -1.32837 0
M  V30 2329 H 207.65 3.40504 -2.3881 0
M  V30 2330 H 206.227 3.68393 -0.577993 0
M  V30 2331 N 208.412 0.89855 1.29475 0
M  V30 2332 C 209.342 0.39201 2.30186 0
M  V30 2333 C 210.323 -0.532359 1.61555 0
M  V30 2334 O 211.508 -0.443331 1.89072 0
M  V30 2335 C 208.638 -0.382353 3.45189 0
M  V30 2336 C 207.592 0.451483 4.25612 0
M  V30 2337 C 206.918 -0.450307 5.328 0
M  V30 2338 C 208.218 1.70079 4.93832 0
M  V30 2339 H 209.912 1.23362 2.72804 0
M  V30 2340 H 207.458 0.594638 1.31149 0
M  V30 2341 H 209.411 -0.747451 4.14718 0
M  V30 2342 H 208.135 -1.25774 3.01411 0
M  V30 2343 H 206.794 0.798897 3.57789 0
M  V30 2344 H 206.442 -1.32379 4.85268 0
M  V30 2345 H 206.142 0.103902 5.87508 0
M  V30 2346 H 207.666 -0.811623 6.05182 0
M  V30 2347 H 209.08 1.40549 5.55805 0
M  V30 2348 H 207.477 2.19623 5.58467 0
M  V30 2349 H 208.547 2.43744 4.19186 0
M  V30 2350 N 209.89 -1.43072 0.660911 0
M  V30 2351 C 211.12 -2.05769 0.185153 0
M  V30 2352 C 211.528 -1.49668 -1.15742 0
M  V30 2353 O 210.871 -0.625649 -1.72717 0
M  V30 2354 C 210.933 -3.59489 0.0278237 0
M  V30 2355 C 210.597 -4.38212 1.2969 0
M  V30 2356 C 211.594 -4.69772 2.22734 0
M  V30 2357 C 209.279 -4.7809 1.54063 0
M  V30 2358 C 211.273 -5.40129 3.38437 0
M  V30 2359 C 208.96 -5.4819 2.70058 0
M  V30 2360 C 209.958 -5.79132 3.62071 0
M  V30 2361 O 209.646 -6.47798 4.76039 0
M  V30 2362 H 209.378 -0.669873 0.0908086 0
M  V30 2363 H 211.932 -1.84436 0.90402 0
M  V30 2364 H 210.162 -3.79426 -0.746489 0
M  V30 2365 H 211.851 -4.03862 -0.406275 0
M  V30 2366 H 212.617 -4.39476 2.05149 0
M  V30 2367 H 208.496 -4.53408 0.833215 0
M  V30 2368 H 212.04 -5.64198 4.10277 0
M  V30 2369 H 207.937 -5.77902 2.87574 0
M  V30 2370 H 208.705 -6.66283 4.75404 0
M  V30 2371 N 211.368 -0.403325 -1.52352 0
M  V30 2372 C 212.617 0.175668 -2.00934 0
M  V30 2373 C 212.93 1.46718 -1.29356 0
M  V30 2374 O 214.136 2.12708 -1.68724 0
M  V30 2375 C 212.592 0.363612 -3.58058 0
M  V30 2376 C 212.2 -0.915472 -4.38547 0
M  V30 2377 C 213.944 0.89821 -4.14888 0
M  V30 2378 C 211.851 -0.695035 -5.87302 0
M  V30 2379 H 210.781 0.0694234 -0.750797 0
M  V30 2380 H 213.432 -0.527879 -1.75743 0
M  V30 2381 H 211.814 1.12935 -3.79555 0
M  V30 2382 H 212.988 -1.68691 -4.28812 0
M  V30 2383 H 211.303 -1.37606 -3.93006 0
M  V30 2384 H 213.9 1.07907 -5.23699 0
M  V30 2385 H 214.243 1.87126 -3.71873 0
M  V30 2386 H 214.776 0.191681 -3.97338 0
M  V30 2387 H 211.515 -1.63948 -6.34666 0
M  V30 2388 H 211.035 0.0372116 -5.99788 0
M  V30 2389 H 212.714 -0.33497 -6.46132 0
M  V30 2390 N 212.846 1.57033 -0.133567 0
M  V30 2391 C 214.092 1.96764 0.515326 0
M  V30 2392 C 214.447 1.01653 1.63353 0
M  V30 2393 O 213.74 0.0491374 1.91537 0
M  V30 2394 C 213.934 3.40674 1.08057 0
M  V30 2395 C 213.763 4.49696 0.0186522 0
M  V30 2396 C 212.533 5.03567 -0.418174 0
M  V30 2397 C 214.731 5.08536 -0.767809 0
M  V30 2398 N 212.713 5.9618 -1.46434 0
M  V30 2399 C 214.084 5.97231 -1.6648 0
M  V30 2400 C 216.139 4.9115 -0.817087 0
M  V30 2401 C 214.842 6.70401 -2.60681 0
M  V30 2402 C 216.868 5.65012 -1.74687 0
M  V30 2403 C 216.23 6.53403 -2.63141 0
M  V30 2404 H 212.329 0.765919 0.157771 0
M  V30 2405 H 214.913 1.93395 -0.22506 0
M  V30 2406 H 213.084 3.44662 1.79061 0
M  V30 2407 H 214.816 3.67495 1.69497 0
M  V30 2408 H 211.571 4.73594 -0.0229803 0
M  V30 2409 H 211.995 6.47191 -1.98678 0
M  V30 2410 H 216.637 4.22543 -0.147326 0
M  V30 2411 H 214.355 7.38245 -3.28664 0
M  V30 2412 H 217.941 5.53559 -1.79063 0
M  V30 2413 H 216.821 7.09556 -3.33917 0
M  V30 2414 N 214.325 -0.140222 1.56975 0
M  V30 2415 C 215.553 -0.866437 1.87884 0
M  V30 2416 C 215.968 -1.74428 0.722517 0
M  V30 2417 O 215.325 -1.79891 -0.30749 0
M  V30 2418 C 215.376 -1.71753 3.18093 0
M  V30 2419 O 215.097 -0.875056 4.29272 0
M  V30 2420 C 216.598 -2.55074 3.62563 0
M  V30 2421 H 213.818 -0.25019 0.622612 0
M  V30 2422 H 216.362 -0.130977 2.0408 0
M  V30 2423 H 214.517 -2.40598 3.03631 0
M  V30 2424 H 214.931 -1.46002 5.03769 0
M  V30 2425 H 216.405 -3.10356 4.5649 0
M  V30 2426 H 216.882 -3.31434 2.88181 0
M  V30 2427 H 217.488 -1.91509 3.79743 0
M  V30 2428 N 215.803 -1.52179 -0.40978 0
M  V30 2429 C 217.05 -1.66206 -1.15679 0
M  V30 2430 C 217.378 -0.391674 -1.90516 0
M  V30 2431 O 216.633 0.62533 -1.8544 0
M  V30 2432 C 216.932 -2.83428 -2.17723 0
M  V30 2433 C 216.598 -4.21672 -1.59699 0
M  V30 2434 C 215.26 -4.59274 -1.43599 0
M  V30 2435 C 217.612 -5.07825 -1.17317 0
M  V30 2436 C 214.94 -5.80709 -0.836328 0
M  V30 2437 C 217.292 -6.29864 -0.587691 0
M  V30 2438 C 215.956 -6.66216 -0.413818 0
M  V30 2439 H 215.226 -0.608192 -0.423301 0
M  V30 2440 H 217.873 -1.86279 -0.444097 0
M  V30 2441 H 216.178 -2.57687 -2.95135 0
M  V30 2442 H 217.875 -2.91477 -2.75394 0
M  V30 2443 H 214.465 -3.9204 -1.73213 0
M  V30 2444 H 218.649 -4.79359 -1.28565 0
M  V30 2445 H 213.905 -6.07498 -0.689626 0
M  V30 2446 H 218.079 -6.95948 -0.250894 0
M  V30 2447 H 215.706 -7.60182 0.0529471 0
M  V30 2448 N 217.281 0.66697 -1.42791 0
M  V30 2449 C 218.529 1.42417 -1.43394 0
M  V30 2450 C 218.85 1.94925 -0.0542373 0
M  V30 2451 O 218.12 1.73564 0.908415 0
M  V30 2452 H 216.7 0.528515 -0.527902 0
M  V30 2453 H 219.362 0.787562 -1.78279 0
M  V30 2454 H 218.458 2.27333 -2.13837 0
M  V30 2455 N 218.759 1.29093 0.90403 0
M  V30 2456 C 220.005 1.16986 1.65656 0
M  V30 2457 C 220.338 -0.278925 1.92186 0
M  V30 2458 O 219.613 -1.2019 1.5292 0
M  V30 2459 C 219.896 1.97908 3.0084 0
M  V30 2460 C 219.749 3.50903 2.81403 0
M  V30 2461 C 221.068 1.80208 4.01513 0
M  V30 2462 H 218.187 0.426346 0.601164 0
M  V30 2463 H 220.829 1.58518 1.04747 0
M  V30 2464 H 218.979 1.62616 3.52829 0
M  V30 2465 H 220.651 3.96153 2.36348 0
M  V30 2466 H 218.894 3.76045 2.1627 0
M  V30 2467 H 219.565 4.02791 3.77443 0
M  V30 2468 H 222.041 2.11025 3.58619 0
M  V30 2469 H 220.917 2.39184 4.94047 0
M  V30 2470 H 221.178 0.756119 4.35586 0
M  V30 2471 N 220.237 -1.11381 1.11499 0
M  V30 2472 C 221.185 -2.19522 0.768956 0
M  V30 2473 C 222.179 -1.67693 -0.239857 0
M  V30 2474 O 223.385 -1.79727 -0.0990755 0
M  V30 2475 H 219.76 -0.715711 0.230786 0
M  V30 2476 H 221.731 -2.45954 1.68964 0
M  V30 2477 C 220.48 -3.46945 0.229073 0
M  V30 2478 H 219.803 -3.8718 0.996596 0
M  V30 2479 H 221.243 -4.23993 0.0251441 0
M  V30 2480 C 219.702 -3.2042 -1.04079 0
M  V30 2481 O 220.232 -3.41178 -2.12038 0
M  V30 2482 N 218.438 -2.74151 -0.963823 0
M  V30 2483 H 217.985 -2.57459 -0.0851722 0
M  V30 2484 H 217.943 -2.56781 -1.81414 0
M  V30 2485 N 221.715 -0.905404 -1.28997 0
M  V30 2486 C 222.648 -0.331959 -2.25773 0
M  V30 2487 C 223.626 0.559099 -1.52685 0
M  V30 2488 O 224.81 0.50463 -1.8162 0
M  V30 2489 C 221.937 0.526276 -3.34586 0
M  V30 2490 C 220.983 -0.298249 -4.25456 0
M  V30 2491 S 221.816 -1.69968 -5.0781 0
M  V30 2492 C 222.972 -0.848519 -6.20122 0
M  V30 2493 H 223.205 -1.15222 -2.74064 0
M  V30 2494 H 220.738 -0.706112 -1.37308 0
M  V30 2495 H 222.696 1.01565 -3.97737 0
M  V30 2496 H 221.357 1.32084 -2.84978 0
M  V30 2497 H 220.55 0.357607 -5.0273 0
M  V30 2498 H 220.152 -0.720968 -3.66985 0
M  V30 2499 H 222.444 -0.0744325 -6.77459 0
M  V30 2500 H 223.387 -1.59353 -6.89937 0
M  V30 2501 H 223.795 -0.400383 -5.63078 0
M  V30 2502 N 223.193 1.4272 -0.668489 0
M  V30 2503 C 224.14 2.30796 0.0137489 0
M  V30 2504 C 225.11 1.4561 0.799177 0
M  V30 2505 O 226.295 1.74453 0.772702 0
M  V30 2506 C 223.435 3.31377 0.963507 0
M  V30 2507 C 222.548 4.31655 0.172569 0
M  V30 2508 C 221.683 5.19312 1.1175 0
M  V30 2509 C 220.722 6.11274 0.317886 0
M  V30 2510 N 219.859 6.91504 1.2152 0
M  V30 2511 H 224.699 2.88585 -0.743161 0
M  V30 2512 H 222.236 1.42154 -0.378226 0
M  V30 2513 H 224.194 3.88214 1.52792 0
M  V30 2514 H 222.824 2.75202 1.68712 0
M  V30 2515 H 221.876 3.76988 -0.508374 0
M  V30 2516 H 223.188 4.96779 -0.448527 0
M  V30 2517 H 222.342 5.80851 1.75206 0
M  V30 2518 H 221.081 4.5435 1.77249 0
M  V30 2519 H 220.086 5.48809 -0.329918 0
M  V30 2520 H 221.311 6.78283 -0.332917 0
M  V30 2521 H 219.257 6.29176 1.85671 0
M  V30 2522 H 219.174 7.53209 0.649036 0
M  V30 2523 H 220.442 7.57535 1.83742 0
M  V30 2524 N 224.671 0.411399 1.52136 0
M  V30 2525 C 225.581 -0.419774 2.30814 0
M  V30 2526 C 226.597 -1.0515 1.38634 0
M  V30 2527 O 227.773 -1.05252 1.71709 0
M  V30 2528 C 224.838 -1.52019 3.11594 0
M  V30 2529 C 223.899 -0.91129 4.19516 0
M  V30 2530 C 223.132 -1.95927 4.96436 0
M  V30 2531 O 223.355 -3.17775 4.73683 0
M  V30 2532 O 222.289 -1.56423 5.81219 0
M  V30 2533 H 226.115 0.221805 3.02889 0
M  V30 2534 H 223.7 0.174547 1.48377 0
M  V30 2535 H 225.582 -2.15898 3.61892 0
M  V30 2536 H 224.257 -2.14633 2.42311 0
M  V30 2537 H 223.164 -0.235157 3.7336 0
M  V30 2538 H 224.497 -0.32904 4.91099 0
M  V30 2539 N 226.149 -1.5696 0.141893 0
M  V30 2540 C 227.112 -2.15316 -0.785587 0
M  V30 2541 C 228.112 -1.09366 -1.1788 0
M  V30 2542 O 229.302 -1.35031 -1.10056 0
M  V30 2543 C 226.434 -2.71211 -2.06537 0
M  V30 2544 H 227.627 -2.98608 -0.278041 0
M  V30 2545 H 225.18 -1.5593 -0.107519 0
M  V30 2546 H 225.915 -1.91571 -2.6167 0
M  V30 2547 H 225.7 -3.4872 -1.79268 0
M  V30 2548 H 227.19 -3.16189 -2.72789 0
M  V30 2549 N 227.627 0.131896 -1.57047 0
M  V30 2550 C 228.59 1.14638 -1.98471 0
M  V30 2551 C 229.59 1.35029 -0.873148 0
M  V30 2552 O 230.78 1.31764 -1.13946 0
M  V30 2553 C 227.912 2.50358 -2.31373 0
M  V30 2554 H 229.105 0.79064 -2.8929 0
M  V30 2555 H 226.658 0.375761 -1.51716 0
M  V30 2556 H 227.393 2.90876 -1.43393 0
M  V30 2557 H 227.178 2.36915 -3.12432 0
M  V30 2558 H 228.668 3.23395 -2.64207 0
M  V30 2559 N 229.106 1.52395 0.401703 0
M  V30 2560 C 230.352 1.67065 1.14966 0
M  V30 2561 C 230.685 0.403052 1.89971 0
M  V30 2562 O 229.96 -0.598774 1.85054 0
M  V30 2563 C 230.243 2.8975 2.13815 0
M  V30 2564 C 230.096 4.26578 1.42658 0
M  V30 2565 C 231.415 3.07965 3.14397 0
M  V30 2566 H 228.534 0.607968 0.416587 0
M  V30 2567 H 231.176 1.84965 0.434511 0
M  V30 2568 H 229.326 2.74619 2.74803 0
M  V30 2569 H 230.998 4.53451 0.847329 0
M  V30 2570 H 229.241 4.27639 0.72849 0
M  V30 2571 H 229.912 5.08483 2.14823 0
M  V30 2572 H 232.388 3.22043 2.63491 0
M  V30 2573 H 231.264 3.95308 3.80819 0
M  V30 2574 H 231.525 2.21611 3.82545 0
M  V30 2575 N 230.584 -0.659388 1.43143 0
M  V30 2576 C 231.494 -1.80167 1.50256 0
M  V30 2577 C 232.51 -1.69571 0.390106 0
M  V30 2578 O 233.686 -1.90849 0.643319 0
M  V30 2579 C 230.751 -3.16409 1.41725 0
M  V30 2580 C 229.812 -3.38848 2.63591 0
M  V30 2581 C 229.045 -4.68591 2.55458 0
M  V30 2582 O 229.268 -5.47532 1.59891 0
M  V30 2583 O 228.202 -4.92614 3.45854 0
M  V30 2584 H 232.028 -1.77121 2.46702 0
M  V30 2585 H 229.613 -0.817092 1.25076 0
M  V30 2586 H 231.495 -3.9768 1.39387 0
M  V30 2587 H 230.17 -3.20059 0.484118 0
M  V30 2588 H 229.077 -2.57366 2.71502 0
M  V30 2589 H 230.41 -3.4004 3.55856 0
M  V30 2590 N 232.062 -1.29571 -0.897171 0
M  V30 2591 C 233.339 -1.08365 -1.62839 0
M  V30 2592 C 233.719 0.371331 -2.07808 0
M  V30 2593 O 233.067 1.3606 -1.83576 0
M  V30 2594 C 233.277 -2.0735 -2.80726 0
M  V30 2595 C 234.625 -2.38406 -3.51351 0
M  V30 2596 O 235.649 -2.05564 -2.90898 0
M  V30 2597 O 234.508 -2.9453 -4.60341 0
M  V30 2598 H 231.602 -0.415345 -0.715134 0
M  V30 2599 H 234.148 -1.40952 -0.945018 0
M  V30 2600 H 232.92 -3.05339 -2.44711 0
M  V30 2601 H 232.543 -1.75507 -3.56767 0
M  V30 2602 N 233.54 1.10788 -1.12088 0
M  V30 2603 C 234.47 2.19083 -0.807755 0
M  V30 2604 C 235.451 1.6858 0.226859 0
M  V30 2605 O 236.636 1.93997 0.0888475 0
M  V30 2606 C 233.766 3.46344 -0.257576 0
M  V30 2607 C 232.72 4.101 -1.22483 0
M  V30 2608 C 232.046 5.32016 -0.535052 0
M  V30 2609 C 233.346 4.54236 -2.57811 0
M  V30 2610 H 235.04 2.45534 -1.71328 0
M  V30 2611 H 232.586 1.1801 -0.825205 0
M  V30 2612 H 234.539 4.21392 -0.0262679 0
M  V30 2613 H 233.263 3.19373 0.683278 0
M  V30 2614 H 231.922 3.37054 -1.44189 0
M  V30 2615 H 231.57 5.01319 0.410827 0
M  V30 2616 H 231.27 5.75625 -1.18024 0
M  V30 2617 H 232.794 6.09799 -0.312695 0
M  V30 2618 H 234.208 5.20575 -2.40155 0
M  V30 2619 H 232.605 5.08682 -3.18375 0
M  V30 2620 H 233.675 3.6734 -3.16528 0
M  V30 2621 N 235.018 0.912232 1.28515 0
M  V30 2622 C 235.968 0.370649 2.24967 0
M  V30 2623 C 236.952 -0.516375 1.52389 0
M  V30 2624 O 238.144 -0.356345 1.73376 0
M  V30 2625 C 235.273 -0.389526 3.41083 0
M  V30 2626 C 234.359 0.51313 4.20984 0
M  V30 2627 N 234.75 1.62604 4.78951 0
M  V30 2628 C 233.048 0.313235 4.44899 0
M  V30 2629 C 233.749 2.18619 5.39055 0
M  V30 2630 N 232.725 1.47765 5.23132 0
M  V30 2631 H 236.527 1.22061 2.67354 0
M  V30 2632 H 234.041 0.764712 1.43269 0
M  V30 2633 H 236.038 -0.794353 4.09262 0
M  V30 2634 H 234.698 -1.2366 3.0023 0
M  V30 2635 H 235.709 2.00864 4.77362 0
M  V30 2636 H 232.386 -0.494452 4.14562 0
M  V30 2637 H 233.776 3.12228 5.94948 0
M  V30 2638 N 236.496 -1.42363 0.676048 0
M  V30 2639 C 237.446 -2.27987 -0.0242903 0
M  V30 2640 C 238.43 -1.41153 -0.772319 0
M  V30 2641 O 239.622 -1.64592 -0.651025 0
M  V30 2642 C 236.751 -3.29195 -0.973953 0
M  V30 2643 C 235.837 -4.23512 -0.223202 0
M  V30 2644 N 236.228 -4.99865 0.772589 0
M  V30 2645 C 234.526 -4.43606 -0.461469 0
M  V30 2646 C 235.227 -5.68757 1.22027 0
M  V30 2647 N 234.203 -5.40811 0.549975 0
M  V30 2648 H 238.005 -2.84445 0.73949 0
M  V30 2649 H 235.519 -1.54341 0.50522 0
M  V30 2650 H 237.516 -3.89339 -1.49067 0
M  V30 2651 H 236.176 -2.74298 -1.73755 0
M  V30 2652 H 237.187 -5.04921 1.15217 0
M  V30 2653 H 233.864 -3.99749 -1.20446 0
M  V30 2654 H 235.254 -6.40007 2.0455 0
M  V30 2655 N 237.974 -0.419461 -1.51915 0
M  V30 2656 C 239.204 0.151915 -2.06041 0
M  V30 2657 C 239.612 1.38539 -1.28855 0
M  V30 2658 O 238.955 1.80592 -0.336463 0
M  V30 2659 C 239.017 0.557119 -3.55157 0
M  V30 2660 C 238.681 -0.567054 -4.53468 0
M  V30 2661 C 239.678 -1.43379 -4.99738 0
M  V30 2662 C 237.363 -0.742693 -4.96779 0
M  V30 2663 C 239.357 -2.46102 -5.87973 0
M  V30 2664 C 237.044 -1.77322 -5.84808 0
M  V30 2665 C 238.042 -2.63078 -6.30301 0
M  V30 2666 O 237.73 -3.64364 -7.16585 0
M  V30 2667 H 237.462 0.0193293 -0.675724 0
M  V30 2668 H 240.016 -0.592073 -1.96682 0
M  V30 2669 H 238.246 1.35355 -3.62238 0
M  V30 2670 H 239.935 1.05759 -3.9188 0
M  V30 2671 H 240.701 -1.30954 -4.66986 0
M  V30 2672 H 236.58 -0.0848307 -4.60922 0
M  V30 2673 H 240.124 -3.13071 -6.23404 0
M  V30 2674 H 236.021 -1.89773 -6.16974 0
M  V30 2675 H 236.789 -3.60731 -7.34721 0
M  V30 2676 N 239.452 1.56882 -0.150215 0
M  V30 2677 C 240.868 1.58263 0.20617 0
M  V30 2678 C 241.068 1.16464 1.64434 0
M  V30 2679 O 240.124 0.866422 2.3717 0
M  V30 2680 C 241.437 3.00649 -0.0555025 0
M  V30 2681 C 242.985 3.12999 0.00795388 0
M  V30 2682 C 243.46 4.5744 -0.226429 0
M  V30 2683 N 244.951 4.62875 -0.173469 0
M  V30 2684 C 245.686 5.72454 -0.329288 0
M  V30 2685 N 245.182 6.90669 -0.543005 0
M  V30 2686 N 246.975 5.61467 -0.266666 0
M  V30 2687 H 239.126 1.82345 -1.08922 0
M  V30 2688 H 241.389 0.844149 -0.431413 0
M  V30 2689 H 241.095 3.3563 -1.05096 0
M  V30 2690 H 240.969 3.71337 0.66246 0
M  V30 2691 H 243.356 2.77857 0.993966 0
M  V30 2692 H 243.437 2.4479 -0.742388 0
M  V30 2693 H 243.081 4.93287 -1.20956 0
M  V30 2694 H 243.011 5.2378 0.544274 0
M  V30 2695 H 245.502 3.77898 -0.0130709 0
M  V30 2696 H 245.815 7.70045 -0.651922 0
M  V30 2697 H 244.16 6.92581 -0.579366 0
M  V30 2698 H 247.351 4.67992 -0.100441 0
M  V30 2699 H 247.524 6.46816 -0.391535 0
M  V30 2700 N 240.93 -0.123565 1.57115 0
M  V30 2701 C 241.878 -1.17082 2.00984 0
M  V30 2702 C 242.872 -1.43136 0.906009 0
M  V30 2703 O 244.078 -1.43152 1.09121 0
M  V30 2704 H 240.453 -0.394653 0.64012 0
M  V30 2705 H 242.424 -0.774292 2.88179 0
M  V30 2706 C 241.173 -2.49057 2.42623 0
M  V30 2707 H 240.496 -2.29846 3.27125 0
M  V30 2708 H 241.936 -3.20906 2.7712 0
M  V30 2709 C 240.395 -3.11305 1.28805 0
M  V30 2710 O 240.925 -3.97171 0.60153 0
M  V30 2711 N 239.131 -2.71111 1.04628 0
M  V30 2712 H 238.678 -2.01382 1.60634 0
M  V30 2713 H 238.636 -3.1309 0.286685 0
M  V30 2714 N 242.408 -1.52605 -0.393616 0
M  V30 2715 C 243.338 -1.80022 -1.48709 0
M  V30 2716 C 244.319 -0.651995 -1.57108 0
M  V30 2717 O 245.504 -0.89913 -1.72132 0
M  V30 2718 C 242.634 -1.96492 -2.86371 0
M  V30 2719 C 241.588 -3.12161 -2.92813 0
M  V30 2720 C 240.914 -3.13877 -4.3288 0
M  V30 2721 C 242.214 -4.51322 -2.6288 0
M  V30 2722 H 243.908 -2.71589 -1.26015 0
M  V30 2723 H 241.454 -1.30684 -0.604778 0
M  V30 2724 H 243.407 -2.14255 -3.62867 0
M  V30 2725 H 242.131 -1.01611 -3.10391 0
M  V30 2726 H 240.79 -2.94173 -2.18764 0
M  V30 2727 H 240.438 -2.16687 -4.53933 0
M  V30 2728 H 240.138 -3.91576 -4.38112 0
M  V30 2729 H 241.662 -3.33789 -5.1129 0
M  V30 2730 H 243.076 -4.69435 -3.29096 0
M  V30 2731 H 241.473 -5.31053 -2.79468 0
M  V30 2732 H 242.543 -4.58353 -1.58242 0
M  V30 2733 N 243.887 0.651787 -1.4349 0
M  V30 2734 C 245.112 1.44434 -1.48841 0
M  V30 2735 C 245.537 1.8779 -0.107955 0
M  V30 2736 O 244.895 1.57464 0.898602 0
M  V30 2737 C 244.943 2.65458 -2.44059 0
M  V30 2738 O 244.047 3.64566 -1.92784 0
M  V30 2739 H 243.388 0.433005 -0.503391 0
M  V30 2740 H 245.918 0.797451 -1.88419 0
M  V30 2741 H 245.928 3.13255 -2.6141 0
M  V30 2742 H 244.603 2.33244 -3.4434 0
M  V30 2743 H 243.18 3.23716 -1.851 0
M  V30 2744 N 245.365 1.30045 0.890287 0
M  V30 2745 C 246.275 1.17885 2.02831 0
M  V30 2746 C 247.291 0.0999609 1.73713 0
M  V30 2747 O 248.467 0.313867 1.98939 0
M  V30 2748 C 245.532 0.866079 3.35708 0
M  V30 2749 C 244.593 2.02979 3.78283 0
M  V30 2750 C 243.826 1.73184 5.0482 0
M  V30 2751 O 244.049 0.657237 5.66601 0
M  V30 2752 O 242.983 2.58267 5.43674 0
M  V30 2753 H 246.809 2.13474 2.16015 0
M  V30 2754 H 244.394 1.09587 1.01543 0
M  V30 2755 H 246.276 0.706623 4.15433 0
M  V30 2756 H 244.951 -0.0599443 3.23644 0
M  V30 2757 H 243.858 2.24454 2.99285 0
M  V30 2758 H 245.191 2.93734 3.94944 0
M  V30 2759 N 246.843 -1.10192 1.12674 0
M  V30 2760 C 248.09 -1.82205 0.883606 0
M  V30 2761 C 248.418 -1.8532 -0.590492 0
M  V30 2762 O 247.673 -1.31137 -1.45264 0
M  V30 2763 C 247.972 -3.28552 1.4067 0
M  V30 2764 C 247.638 -3.45582 2.89627 0
M  V30 2765 C 246.3 -3.49937 3.30299 0
M  V30 2766 C 248.652 -3.50768 3.85501 0
M  V30 2767 C 245.98 -3.57049 4.65546 0
M  V30 2768 C 248.332 -3.59414 5.20581 0
M  V30 2769 C 246.996 -3.62034 5.60792 0
M  V30 2770 H 246.266 -0.666735 0.323334 0
M  V30 2771 H 248.913 -1.29868 1.40736 0
M  V30 2772 H 247.218 -3.83473 0.80347 0
M  V30 2773 H 248.915 -3.82788 1.19475 0
M  V30 2774 H 245.505 -3.42871 2.57172 0
M  V30 2775 H 249.689 -3.46651 3.55171 0
M  V30 2776 H 244.945 -3.57361 4.96088 0
M  V30 2777 H 249.119 -3.62371 5.94693 0
M  V30 2778 H 246.746 -3.67298 6.6558 0
M  V30 2779 N 248.321 -0.919034 -1.28029 0
M  V30 2780 C 249.568 -0.554934 -1.94748 0
M  V30 2781 C 249.896 0.90231 -1.72304 0
M  V30 2782 O 249.151 1.65767 -1.04018 0
M  V30 2783 C 249.45 -0.816855 -3.4794 0
M  V30 2784 C 249.116 -2.25448 -3.90492 0
M  V30 2785 C 247.778 -2.64752 -4.01821 0
M  V30 2786 C 250.13 -3.18977 -4.12193 0
M  V30 2787 C 247.458 -3.96727 -4.32232 0
M  V30 2788 C 249.81 -4.50523 -4.44086 0
M  V30 2789 C 248.474 -4.89673 -4.53626 0
M  V30 2790 H 247.744 -0.203065 -0.712633 0
M  V30 2791 H 250.391 -1.16136 -1.52265 0
M  V30 2792 H 248.696 -0.127677 -3.91592 0
M  V30 2793 H 250.393 -0.514238 -3.97689 0
M  V30 2794 H 246.983 -1.93952 -3.82205 0
M  V30 2795 H 251.167 -2.89817 -4.02889 0
M  V30 2796 H 246.423 -4.26754 -4.37825 0
M  V30 2797 H 250.597 -5.23005 -4.59825 0
M  V30 2798 H 248.224 -5.91969 -4.76946 0
M  V30 2799 N 249.799 1.42003 -0.683588 0
M  V30 2800 C 251.215 1.55625 -0.353976 0
M  V30 2801 C 251.415 1.66151 1.14 0
M  V30 2802 O 250.471 1.63329 1.92561 0
M  V30 2803 C 251.784 2.80171 -1.092 0
M  V30 2804 C 253.332 2.93954 -1.07518 0
M  V30 2805 C 253.807 4.21372 -1.79471 0
M  V30 2806 N 255.298 4.28303 -1.76381 0
M  V30 2807 C 256.033 5.25729 -2.28904 0
M  V30 2808 N 255.529 6.29254 -2.89846 0
M  V30 2809 N 257.322 5.17586 -2.19228 0
M  V30 2810 H 249.473 1.33415 -1.6527 0
M  V30 2811 H 251.736 0.64282 -0.696769 0
M  V30 2812 H 251.442 2.78561 -2.14701 0
M  V30 2813 H 251.316 3.7133 -0.662862 0
M  V30 2814 H 253.703 2.95086 -0.028475 0
M  V30 2815 H 253.784 2.04002 -1.54328 0
M  V30 2816 H 253.428 4.21001 -2.84114 0
M  V30 2817 H 253.358 5.10275 -1.30104 0
M  V30 2818 H 255.849 3.54119 -1.31939 0
M  V30 2819 H 256.162 6.99964 -3.27522 0
M  V30 2820 H 254.507 6.29791 -2.93919 0
M  V30 2821 H 257.698 4.35631 -1.71299 0
M  V30 2822 H 257.871 5.93348 -2.60466 0
M  V30 2823 N 251.277 0.427512 1.51691 0
M  V30 2824 C 252.693 0.0792977 1.59403 0
M  V30 2825 C 252.893 -1.41035 1.43914 0
M  V30 2826 O 251.949 -2.17922 1.27539 0
M  V30 2827 C 253.262 0.590636 2.94842 0
M  V30 2828 C 254.81 0.550215 3.08126 0
M  V30 2829 C 255.285 1.03836 4.46074 0
M  V30 2830 N 256.776 0.995943 4.52366 0
M  V30 2831 C 257.511 1.34463 5.57411 0
M  V30 2832 N 257.007 1.76569 6.69922 0
M  V30 2833 N 258.8 1.26343 5.47717 0
M  V30 2834 H 250.951 1.39687 1.60004 0
M  V30 2835 H 253.214 0.575003 0.753708 0
M  V30 2836 H 252.92 1.63251 3.11516 0
M  V30 2837 H 252.794 0.0102061 3.77199 0
M  V30 2838 H 255.181 -0.482654 2.91126 0
M  V30 2839 H 255.262 1.16693 2.27632 0
M  V30 2840 H 254.906 2.06965 4.63819 0
M  V30 2841 H 254.836 0.398286 5.25092 0
M  V30 2842 H 257.327 0.68661 3.7161 0
M  V30 2843 H 257.64 2.01438 7.46085 0
M  V30 2844 H 255.985 1.80488 6.71155 0
M  V30 2845 H 259.176 0.933209 4.58703 0
M  V30 2846 H 259.349 1.53846 6.29472 0
M  V30 2847 N 252.755 -1.56801 0.158532 0
M  V30 2848 C 253.702 -2.17337 -0.776729 0
M  V30 2849 C 254.672 -1.1096 -1.23601 0
M  V30 2850 O 255.857 -1.39054 -1.30647 0
M  V30 2851 C 252.997 -2.80822 -2.00582 0
M  V30 2852 C 252.11 -4.01624 -1.59129 0
M  V30 2853 C 251.245 -4.53072 -2.77306 0
M  V30 2854 C 250.284 -5.66314 -2.32282 0
M  V30 2855 N 249.421 -6.12329 -3.43508 0
M  V30 2856 H 254.261 -2.96918 -0.253701 0
M  V30 2857 H 251.798 -1.46661 -0.113504 0
M  V30 2858 H 253.756 -3.15779 -2.72652 0
M  V30 2859 H 252.386 -2.03866 -2.50277 0
M  V30 2860 H 251.438 -3.72571 -0.767806 0
M  V30 2861 H 252.75 -4.83633 -1.2207 0
M  V30 2862 H 251.904 -4.90145 -3.57551 0
M  V30 2863 H 250.643 -3.70095 -3.17617 0
M  V30 2864 H 249.648 -5.28806 -1.5048 0
M  V30 2865 H 250.873 -6.51085 -1.93043 0
M  V30 2866 H 248.819 -5.32284 -3.83418 0
M  V30 2867 H 248.736 -6.89293 -3.105 0
M  V30 2868 H 250.004 -6.5405 -4.24075 0
M  V30 2869 N 254.233 0.115231 -1.57178 0
M  V30 2870 C 255.163 1.1423 -2.03651 0
M  V30 2871 C 256.144 1.42967 -0.921655 0
M  V30 2872 O 257.329 1.53343 -1.19162 0
M  V30 2873 C 254.459 2.4675 -2.44401 0
M  V30 2874 C 253.413 2.32467 -3.59365 0
M  V30 2875 C 252.739 3.69984 -3.86026 0
M  V30 2876 C 254.039 1.78203 -4.90959 0
M  V30 2877 H 255.733 0.755749 -2.89705 0
M  V30 2878 H 253.279 0.362093 -1.39373 0
M  V30 2879 H 255.232 3.18854 -2.75517 0
M  V30 2880 H 253.956 2.87302 -1.55322 0
M  V30 2881 H 252.615 1.62811 -3.28463 0
M  V30 2882 H 252.263 4.08028 -2.94147 0
M  V30 2883 H 251.963 3.61279 -4.63412 0
M  V30 2884 H 253.487 4.43587 -4.19599 0
M  V30 2885 H 254.901 2.40128 -5.20587 0
M  V30 2886 H 253.298 1.8031 -5.72371 0
M  V30 2887 H 254.368 0.739876 -4.79222 0
M  V30 2888 N 255.711 1.52812 0.385517 0
M  V30 2889 C 256.658 1.77838 1.47113 0
M  V30 2890 C 257.628 0.621757 1.54024 0
M  V30 2891 O 258.813 0.861846 1.70226 0
M  V30 2892 C 255.953 1.95618 2.84302 0
M  V30 2893 C 255.066 3.23316 2.86515 0
M  V30 2894 C 254.201 3.31394 4.15152 0
M  V30 2895 C 253.24 4.53201 4.1143 0
M  V30 2896 N 252.377 4.58542 5.3168 0
M  V30 2897 H 257.217 2.70482 1.25073 0
M  V30 2898 H 254.754 1.34006 0.606692 0
M  V30 2899 H 256.712 2.03912 3.63972 0
M  V30 2900 H 255.342 1.06331 3.04784 0
M  V30 2901 H 254.394 3.24076 1.99195 0
M  V30 2902 H 255.706 4.13045 2.79634 0
M  V30 2903 H 254.86 3.3889 5.03228 0
M  V30 2904 H 253.599 2.39645 4.24761 0
M  V30 2905 H 252.604 4.45827 3.21742 0
M  V30 2906 H 253.829 5.46271 4.03442 0
M  V30 2907 H 251.775 3.69686 5.41912 0
M  V30 2908 H 251.692 5.42148 5.26889 0
M  V30 2909 H 252.96 4.70296 6.21644 0
M  V30 2910 N 257.189 -0.644168 1.43834 0
M  V30 2911 C 258.6 -1.22554 1.40845 0
M  V30 2912 C 258.951 -1.9585 0.117115 0
M  V30 2913 O 258.076 -2.01734 -0.783086 0
M  V30 2914 C 258.671 -2.22907 2.55143 0
M  V30 2915 C 257.23 -2.76501 2.5539 0
M  V30 2916 C 256.377 -1.51287 2.32396 0
M  V30 2917 H 259.328 -0.43563 1.52604 0
M  V30 2918 H 259.349 -3.05259 2.2715 0
M  V30 2919 H 258.861 -1.69533 3.49114 0
M  V30 2920 H 256.962 -3.33914 1.65324 0
M  V30 2921 H 257.075 -3.23429 3.53455 0
M  V30 2922 H 255.439 -1.78957 1.81236 0
M  V30 2923 H 256.222 -0.998336 3.28463 0
M  V30 2924 N 258.668 -1.30515 -0.883378 0
M  V30 2925 C 259.6 -1.12846 -1.99496 0
M  V30 2926 C 260.613 -0.0712571 -1.62644 0
M  V30 2927 O 261.802 -0.317432 -1.75655 0
M  V30 2928 C 258.902 -0.699123 -3.3161 0
M  V30 2929 C 258.075 -1.83842 -3.96889 0
M  V30 2930 C 257.134 -1.39737 -5.07307 0
M  V30 2931 O 256.16 -2.10485 -5.28852 0
M  V30 2932 N 257.362 -0.277279 -5.79837 0
M  V30 2933 H 260.127 -2.08585 -2.15203 0
M  V30 2934 H 257.688 -1.22672 -1.05656 0
M  V30 2935 H 259.68 -0.387044 -4.02845 0
M  V30 2936 H 258.25 0.166276 -3.12157 0
M  V30 2937 H 257.47 -2.31853 -3.18807 0
M  V30 2938 H 258.758 -2.60187 -4.37241 0
M  V30 2939 H 258.156 0.3122 -5.64838 0
M  V30 2940 H 256.713 -0.0246623 -6.51795 0
M  V30 2941 N 260.146 1.09593 -1.13257 0
M  V30 2942 C 261.109 2.14359 -0.811358 0
M  V30 2943 C 262.109 1.59808 0.178377 0
M  V30 2944 O 263.299 1.74132 -0.0484911 0
M  V30 2945 C 260.431 3.40269 -0.207276 0
M  V30 2946 H 261.624 2.44284 -1.73969 0
M  V30 2947 H 259.177 1.25102 -0.936973 0
M  V30 2948 H 259.912 3.15969 0.73036 0
M  V30 2949 H 259.697 3.81154 -0.919992 0
M  V30 2950 H 261.187 4.176 0.000667944 0
M  V30 2951 N 261.624 0.925811 1.2754 0
M  V30 2952 C 263.04 0.625767 1.46821 0
M  V30 2953 C 263.24 -0.825506 1.83814 0
M  V30 2954 O 262.296 -1.60356 1.95044 0
M  V30 2955 C 263.609 1.57402 2.56213 0
M  V30 2956 C 265.157 1.58204 2.70075 0
M  V30 2957 C 265.632 2.51721 3.82623 0
M  V30 2958 N 267.123 2.49917 3.89994 0
M  V30 2959 C 267.858 3.18968 4.76494 0
M  V30 2960 N 267.354 3.97391 5.67496 0
M  V30 2961 N 269.147 3.07996 4.70208 0
M  V30 2962 H 261.298 1.86409 1.01811 0
M  V30 2963 H 263.561 0.800213 0.508295 0
M  V30 2964 H 263.267 2.60925 2.35819 0
M  V30 2965 H 263.141 1.31428 3.53563 0
M  V30 2966 H 265.528 0.554124 2.89851 0
M  V30 2967 H 265.609 1.88226 1.73218 0
M  V30 2968 H 265.253 3.54622 3.63601 0
M  V30 2969 H 265.183 2.18996 4.78903 0
M  V30 2970 H 267.674 1.9296 3.24923 0
M  V30 2971 H 267.987 4.4707 6.30356 0
M  V30 2972 H 266.332 4.01495 5.67298 0
M  V30 2973 H 269.523 2.46223 3.9811 0
M  V30 2974 H 269.696 3.6208 5.37403 0
M  V30 2975 N 263.102 -1.41638 0.69111 0
M  V30 2976 C 264.513 -1.84346 0.295517 0
M  V30 2977 C 264.864 -1.57833 -1.16547 0
M  V30 2978 O 263.989 -1.04648 -1.89414 0
M  V30 2979 C 264.584 -3.34636 0.529575 0
M  V30 2980 C 263.143 -3.7593 0.187944 0
M  V30 2981 C 262.29 -2.65082 0.814052 0
M  V30 2982 H 265.241 -1.31253 0.892092 0
M  V30 2983 H 265.262 -3.79903 -0.213148 0
M  V30 2984 H 264.774 -3.53901 1.59297 0
M  V30 2985 H 262.875 -3.62268 -0.871367 0
M  V30 2986 H 262.988 -4.74808 0.63985 0
M  V30 2987 H 261.352 -2.53528 0.244017 0
M  V30 2988 H 262.135 -2.87167 1.88123 0
M  V30 2989 N 264.58 -0.43555 -1.51462 0
M  V30 2990 C 265.826 0.131709 -2.02372 0
M  V30 2991 C 266.159 1.42516 -1.3192 0
M  V30 2992 O 265.434 1.89606 -0.433573 0
M  V30 2993 C 265.717 0.352301 -3.58373 0
M  V30 2994 C 265.57 -0.959676 -4.39443 0
M  V30 2995 C 266.889 1.12286 -4.25535 0
M  V30 2996 H 264.008 0.0463936 -0.735538 0
M  V30 2997 H 266.65 -0.574197 -1.81116 0
M  V30 2998 H 264.8 0.9536 -3.76615 0
M  V30 2999 H 266.472 -1.59482 -4.32855 0
M  V30 3000 H 264.715 -1.56468 -4.04599 0
M  V30 3001 H 265.386 -0.759394 -5.46752 0
M  V30 3002 H 267.862 0.613545 -4.11552 0
M  V30 3003 H 266.738 1.24598 -5.34571 0
M  V30 3004 H 266.999 2.15048 -3.86273 0
M  V30 3005 N 266.058 1.56714 -0.166846 0
M  V30 3006 C 267.298 1.98641 0.481763 0
M  V30 3007 C 267.662 1.05038 1.6072 0
M  V30 3008 O 268.863 1.36087 2.31805 0
M  V30 3009 C 267.134 3.44362 0.956517 0
M  V30 3010 S 268.693 4.08317 1.60694 0
M  V30 3011 H 265.511 0.693873 0.155116 0
M  V30 3012 H 268.113 1.93719 -0.263251 0
M  V30 3013 H 266.817 4.10204 0.126936 0
M  V30 3014 H 266.348 3.53041 1.73568 0
M  V30 3015 H 268.363 4.02999 2.89494 0
M  V30 3016 N 267.536 -0.106894 1.57237 0
M  V30 3017 C 268.784 -0.810921 1.85117 0
M  V30 3018 C 269.105 -1.7984 0.753827 0
M  V30 3019 O 268.375 -1.94649 -0.221056 0
M  V30 3020 H 266.955 -0.302466 0.683025 0
M  V30 3021 H 269.617 -0.0913324 1.94686 0
M  V30 3022 H 268.713 -1.34875 2.81452 0
M  V30 3023 N 269.014 -1.53014 -0.377408 0
M  V30 3024 C 269.944 -1.81589 -1.46791 0
M  V30 3025 C 270.925 -0.668622 -1.56408 0
M  V30 3026 O 272.11 -0.917337 -1.71168 0
M  V30 3027 C 269.24 -1.99519 -2.8427 0
M  V30 3028 C 268.194 -3.15249 -2.89486 0
M  V30 3029 C 267.52 -3.18451 -4.29527 0
M  V30 3030 C 268.82 -4.54084 -2.58079 0
M  V30 3031 H 270.514 -2.7291 -1.23127 0
M  V30 3032 H 268.06 -1.31319 -0.590883 0
M  V30 3033 H 270.013 -2.18092 -3.60575 0
M  V30 3034 H 268.737 -1.04897 -3.09296 0
M  V30 3035 H 267.396 -2.96477 -2.15631 0
M  V30 3036 H 267.044 -2.2149 -4.5161 0
M  V30 3037 H 266.744 -3.962 -4.33934 0
M  V30 3038 H 268.268 -3.39193 -5.07721 0
M  V30 3039 H 269.682 -4.72899 -3.24098 0
M  V30 3040 H 268.079 -5.33987 -2.7382 0
M  V30 3041 H 269.149 -4.60006 -1.53372 0
M  V30 3042 N 270.492 0.636531 -1.44174 0
M  V30 3043 C 271.442 1.74233 -1.47061 0
M  V30 3044 C 272.426 1.57331 -0.337034 0
M  V30 3045 O 273.618 1.67159 -0.581973 0
M  V30 3046 C 270.747 3.12897 -1.41246 0
M  V30 3047 C 269.833 3.35288 -2.59698 0
M  V30 3048 N 270.224 3.2807 -3.84972 0
M  V30 3049 C 268.522 3.66065 -2.54778 0
M  V30 3050 C 269.223 3.51001 -4.63867 0
M  V30 3051 N 268.199 3.73616 -3.94857 0
M  V30 3052 H 272.001 1.67103 -2.41773 0
M  V30 3053 H 269.515 0.838806 -1.3906 0
M  V30 3054 H 271.512 3.92189 -1.41398 0
M  V30 3055 H 270.172 3.21197 -0.47569 0
M  V30 3056 H 271.183 3.07109 -4.17019 0
M  V30 3057 H 267.86 3.81379 -1.6987 0
M  V30 3058 H 269.25 3.51059 -5.72894 0
M  V30 3059 N 271.97 1.30982 0.876444 0
M  V30 3060 C 273.195 1.23373 1.66715 0
M  V30 3061 C 273.62 -0.19885 1.87046 0
M  V30 3062 O 272.978 -1.1427 1.40756 0
M  V30 3063 C 273.026 1.97644 3.01611 0
M  V30 3064 O 272.13 1.30935 3.91062 0
M  V30 3065 H 271.471 0.426279 0.509099 0
M  V30 3066 H 274.001 1.72944 1.09323 0
M  V30 3067 H 274.011 2.06992 3.51594 0
M  V30 3068 H 272.686 3.01829 2.86133 0
M  V30 3069 H 271.263 1.29996 3.49507 0
M  V30 3070 N 273.449 -1.08991 1.13837 0
M  V30 3071 C 274.695 -1.81526 0.90422 0
M  V30 3072 C 275.028 -1.85706 -0.568066 0
M  V30 3073 O 274.303 -1.32855 -1.42056 0
M  V30 3074 C 274.586 -3.27447 1.49835 0
M  V30 3075 C 274.439 -3.31512 3.04006 0
M  V30 3076 C 275.758 -4.24256 1.17025 0
M  V30 3077 H 272.877 -0.659029 0.329923 0
M  V30 3078 H 275.519 -1.27644 1.40737 0
M  V30 3079 H 273.669 -3.73462 1.07044 0
M  V30 3080 H 275.341 -2.93867 3.55584 0
M  V30 3081 H 273.584 -2.70963 3.38765 0
M  V30 3082 H 274.255 -4.34329 3.40679 0
M  V30 3083 H 276.731 -3.86549 1.54009 0
M  V30 3084 H 275.607 -5.24684 1.61237 0
M  V30 3085 H 275.868 -4.42019 0.0846274 0
M  V30 3086 N 274.927 -0.932562 -1.27047 0
M  V30 3087 C 276.176 -0.571351 -1.93439 0
M  V30 3088 C 276.489 0.892467 -1.74053 0
M  V30 3089 O 277.695 1.36267 -2.34826 0
M  V30 3090 C 276.151 -0.97106 -3.46552 0
M  V30 3091 C 275.759 -2.4559 -3.74686 0
M  V30 3092 C 277.503 -0.681333 -4.18997 0
M  V30 3093 C 275.41 -2.79475 -5.21198 0
M  V30 3094 H 274.34 -0.209966 -0.724176 0
M  V30 3095 H 276.991 -1.13403 -1.44263 0
M  V30 3096 H 275.373 -0.336983 -3.94564 0
M  V30 3097 H 276.547 -3.13829 -3.37414 0
M  V30 3098 H 274.862 -2.71802 -3.15456 0
M  V30 3099 H 277.459 -0.910939 -5.26883 0
M  V30 3100 H 277.802 0.381628 -4.14547 0
M  V30 3101 H 278.335 -1.27473 -3.76823 0
M  V30 3102 H 275.074 -3.847 -5.30741 0
M  V30 3103 H 274.594 -2.1589 -5.596 0
M  V30 3104 H 276.273 -2.67478 -5.89122 0
M  V30 3105 N 276.405 1.4127 -0.698611 0
M  V30 3106 C 277.63 2.06024 -0.238512 0
M  V30 3107 C 278.055 1.5224 1.10475 0
M  V30 3108 O 277.413 0.650623 1.69223 0
M  V30 3109 C 277.461 3.59988 -0.209952 0
M  V30 3110 O 276.565 4.04282 0.814235 0
M  V30 3111 H 275.906 0.653829 -0.115775 0
M  V30 3112 H 278.436 1.8098 -0.954326 0
M  V30 3113 H 278.446 4.07979 -0.0418436 0
M  V30 3114 H 277.121 3.98503 -1.1903 0
M  V30 3115 H 275.698 3.6779 0.615234 0
M  V30 3116 N 277.883 0.443576 1.51229 0
M  V30 3117 C 279.294 -0.0180867 1.86691 0
M  V30 3118 C 279.645 -1.41384 1.36033 0
M  V30 3119 O 278.77 -2.04291 0.713722 0
M  V30 3120 C 279.365 -0.039597 3.38777 0
M  V30 3121 C 277.924 -0.445692 3.73752 0
M  V30 3122 C 277.071 0.357584 2.74985 0
M  V30 3123 H 280.022 0.659138 1.44364 0
M  V30 3124 H 280.043 -0.847761 3.70936 0
M  V30 3125 H 279.555 0.976382 3.75617 0
M  V30 3126 H 277.656 -1.46704 3.42503 0
M  V30 3127 H 277.769 -0.166155 4.78812 0
M  V30 3128 H 276.133 -0.184973 2.54027 0
M  V30 3129 H 276.916 1.37256 3.14668 0
M  V30 3130 N 279.361 -1.56624 0.175154 0
M  V30 3131 C 280.586 -2.01813 -0.478137 0
M  V30 3132 C 281.011 -1.05457 -1.55757 0
M  V30 3133 O 280.369 -0.0347439 -1.81267 0
M  V30 3134 C 280.417 -3.45581 -1.02987 0
M  V30 3135 O 279.521 -3.52305 -2.14371 0
M  V30 3136 H 278.862 -0.65413 -0.114059 0
M  V30 3137 H 281.392 -2.02673 0.280173 0
M  V30 3138 H 281.402 -3.84965 -1.35151 0
M  V30 3139 H 280.077 -4.1521 -0.239556 0
M  V30 3140 H 278.654 -3.24783 -1.83222 0
M  V30 3141 N 280.839 0.0985539 -1.57292 0
M  V30 3142 C 282.116 0.834155 -1.76921 0
M  V30 3143 C 282.496 1.97101 -0.755928 0
M  V30 3144 O 281.844 2.27474 0.216245 0
M  V30 3145 C 282.054 1.33194 -3.22584 0
M  V30 3146 C 283.402 1.77611 -3.85668 0
M  V30 3147 O 284.426 1.42825 -3.26312 0
M  V30 3148 O 283.285 2.4192 -4.90038 0
M  V30 3149 H 280.379 0.397628 -0.725135 0
M  V30 3150 H 282.925 0.0807044 -1.69508 0
M  V30 3151 H 281.697 0.517248 -3.87866 0
M  V30 3152 H 281.32 2.1475 -3.34616 0
M  V30 3153 N 282.317 1.53212 0.369288 0
M  V30 3154 C 283.565 1.68881 1.11012 0
M  V30 3155 C 283.886 0.441285 1.89941 0
M  V30 3156 O 283.156 -0.544623 1.88177 0
M  V30 3157 H 281.736 0.622569 0.412816 0
M  V30 3158 H 284.398 1.90391 0.416802 0
M  V30 3159 H 283.494 2.54822 1.80201 0
M  V30 3160 N 283.795 -0.628877 1.44509 0
M  V30 3161 C 285.211 -0.947305 1.28446 0
M  V30 3162 C 285.411 -2.00275 0.221872 0
M  V30 3163 O 284.467 -2.49447 -0.391471 0
M  V30 3164 C 285.78 -1.40843 2.65676 0
M  V30 3165 C 287.328 -1.52379 2.73404 0
M  V30 3166 C 287.803 -2.01875 4.11109 0
M  V30 3167 N 289.294 -2.09142 4.13296 0
M  V30 3168 C 290.029 -2.48615 5.16699 0
M  V30 3169 N 289.525 -2.87209 6.30462 0
M  V30 3170 N 291.318 -2.48768 5.04054 0
M  V30 3171 H 283.469 0.0690977 2.12288 0
M  V30 3172 H 285.732 -0.0317164 0.947469 0
M  V30 3173 H 285.438 -0.707206 3.44516 0
M  V30 3174 H 285.312 -2.37902 2.92716 0
M  V30 3175 H 287.699 -2.21598 1.9488 0
M  V30 3176 H 287.78 -0.536898 2.50102 0
M  V30 3177 H 287.424 -1.3325 4.90109 0
M  V30 3178 H 287.354 -3.0144 4.31789 0
M  V30 3179 H 289.845 -1.81991 3.31191 0
M  V30 3180 H 290.158 -3.16149 7.05174 0
M  V30 3181 H 288.503 -2.84955 6.33897 0
M  V30 3182 H 291.694 -2.18009 4.14234 0
M  V30 3183 H 291.867 -2.79207 5.84763 0
M  V30 3184 N 285.273 -1.31445 -0.869486 0
M  V30 3185 C 286.522 -1.20517 -1.61736 0
M  V30 3186 C 286.835 0.235341 -1.94179 0
M  V30 3187 O 288.041 0.466312 -2.67465 0
M  V30 3188 C 286.497 -2.10982 -2.91573 0
M  V30 3189 C 286.105 -3.60032 -2.66611 0
M  V30 3190 C 287.849 -2.08856 -3.69567 0
M  V30 3191 C 285.756 -4.42503 -3.92358 0
M  V30 3192 H 284.686 -0.447493 -0.606849 0
M  V30 3193 H 287.337 -1.56303 -0.96133 0
M  V30 3194 H 285.719 -1.68095 -3.58553 0
M  V30 3195 H 286.893 -4.11167 -2.08035 0
M  V30 3196 H 285.208 -3.64139 -2.0197 0
M  V30 3197 H 287.805 -2.67716 -4.62852 0
M  V30 3198 H 288.148 -1.07582 -4.02159 0
M  V30 3199 H 288.681 -2.49945 -3.09471 0
M  V30 3200 H 285.42 -5.44533 -3.64916 0
M  V30 3201 H 284.94 -3.96125 -4.50383 0
M  V30 3202 H 286.619 -4.54741 -4.60238 0
M  V30 3203 N 286.751 1.08385 -1.14413 0
M  V30 3204 C 287.681 2.17321 -0.854044 0
M  V30 3205 C 288.662 1.69024 0.191049 0
M  V30 3206 O 289.847 1.94141 0.0476779 0
M  V30 3207 C 286.977 3.45719 -0.330983 0
M  V30 3208 C 285.931 4.07409 -1.31155 0
M  V30 3209 C 285.257 5.30762 -0.64778 0
M  V30 3210 C 286.557 4.48665 -2.67388 0
M  V30 3211 H 288.251 2.41845 -1.76498 0
M  V30 3212 H 285.797 1.16233 -0.850051 0
M  V30 3213 H 287.75 4.21241 -0.115645 0
M  V30 3214 H 286.474 3.2075 0.615381 0
M  V30 3215 H 285.133 3.33919 -1.51306 0
M  V30 3216 H 284.781 5.02078 0.304398 0
M  V30 3217 H 284.481 5.72992 -1.30207 0
M  V30 3218 H 286.005 6.08998 -0.441972 0
M  V30 3219 H 287.419 5.15364 -2.51143 0
M  V30 3220 H 285.816 5.01814 -3.29093 0
M  V30 3221 H 286.886 3.60543 -3.24248 0
M  V30 3222 N 288.23 0.939286 1.26551 0
M  V30 3223 C 289.178 0.43815 2.28436 0
M  V30 3224 C 290.172 -0.483587 1.62351 0
M  V30 3225 O 291.378 -0.362009 1.76322 0
M  V30 3226 H 287.753 0.123149 0.741848 0
M  V30 3227 H 289.724 1.31002 2.68106 0
M  V30 3228 C 288.473 -0.283052 3.46546 0
M  V30 3229 H 287.796 0.417043 3.97619 0
M  V30 3230 H 289.236 -0.597948 4.19763 0
M  V30 3231 C 287.695 -1.50018 3.01656 0
M  V30 3232 O 288.225 -2.59855 3.0633 0
M  V30 3233 N 286.431 -1.35608 2.57019 0
M  V30 3234 H 285.978 -0.46244 2.53415 0
M  V30 3235 H 285.936 -2.17165 2.27347 0
M  V30 3236 N 289.708 -1.40897 0.706093 0
M  V30 3237 C 290.955 -2.01054 0.241531 0
M  V30 3238 C 291.283 -1.55956 -1.16223 0
M  V30 3239 O 290.538 -0.766336 -1.80072 0
M  V30 3240 C 290.837 -3.5646 0.259099 0
M  V30 3241 C 290.503 -4.21106 1.61184 0
M  V30 3242 C 289.165 -4.38479 1.98216 0
M  V30 3243 C 291.517 -4.57256 2.50132 0
M  V30 3244 C 288.845 -4.89282 3.2376 0
M  V30 3245 C 291.197 -5.09454 3.7502 0
M  V30 3246 C 289.861 -5.25037 4.12181 0
M  V30 3247 H 289.131 -0.73571 0.0883825 0
M  V30 3248 H 291.778 -1.68645 0.907257 0
M  V30 3249 H 290.083 -3.88721 -0.490189 0
M  V30 3250 H 291.78 -4.00826 -0.11804 0
M  V30 3251 H 288.37 -4.07966 1.31384 0
M  V30 3252 H 292.554 -4.43479 2.228 0
M  V30 3253 H 287.81 -4.99531 3.52532 0
M  V30 3254 H 291.984 -5.36404 4.44121 0
M  V30 3255 H 289.611 -5.64164 5.09532 0
M  V30 3256 N 291.186 -0.45159 -1.50991 0
M  V30 3257 C 292.434 0.109857 -2.01801 0
M  V30 3258 C 292.755 1.41958 -1.3369 0
M  V30 3259 O 292.025 1.9003 -0.475951 0
M  V30 3260 H 290.605 0.0435884 -0.745727 0
M  V30 3261 H 293.267 -0.597557 -1.85514 0
M  V30 3262 H 292.363 0.275489 -3.10882 0
M  V30 3263 N 292.664 1.56529 -0.183458 0
M  V30 3264 C 293.596 2.15747 0.773697 0
M  V30 3265 C 294.609 1.1162 1.1851 0
M  V30 3266 O 295.798 1.3876 1.12285 0
M  V30 3267 C 292.898 2.6952 2.05456 0
M  V30 3268 C 292.071 3.98429 1.8048 0
M  V30 3269 C 291.13 4.37145 2.92901 0
M  V30 3270 O 290.156 5.04791 2.6301 0
M  V30 3271 N 291.358 3.99695 4.2098 0
M  V30 3272 H 294.123 2.98505 0.26736 0
M  V30 3273 H 291.684 1.619 -0.0010878 0
M  V30 3274 H 293.676 2.92412 2.79781 0
M  V30 3275 H 292.246 1.91282 2.47245 0
M  V30 3276 H 291.466 3.8379 0.899947 0
M  V30 3277 H 292.754 4.82597 1.61175 0
M  V30 3278 H 292.152 3.4526 4.48121 0
M  V30 3279 H 290.709 4.27562 4.9197 0
M  V30 3280 N 294.142 -0.090211 1.57342 0
M  V30 3281 C 295.388 -0.793982 1.86611 0
M  V30 3282 C 295.721 -1.78142 0.773252 0
M  V30 3283 O 294.996 -1.93271 -0.218304 0
M  V30 3284 C 295.279 -1.51839 3.26523 0
M  V30 3285 C 295.132 -0.548609 4.46442 0
M  V30 3286 C 296.451 -2.46779 3.64401 0
M  V30 3287 H 293.57 -0.287186 0.678744 0
M  V30 3288 H 296.212 -0.0575076 1.89913 0
M  V30 3289 H 294.362 -2.14617 3.23839 0
M  V30 3290 H 296.034 0.0725513 4.61243 0
M  V30 3291 H 294.277 0.137614 4.33582 0
M  V30 3292 H 294.948 -1.09271 5.41076 0
M  V30 3293 H 297.424 -1.94089 3.68061 0
M  V30 3294 H 296.3 -2.94479 4.63221 0
M  V30 3295 H 296.561 -3.30758 2.93346 0
M  V30 3296 N 295.62 -1.53406 -0.361157 0
M  V30 3297 C 296.567 -1.80156 -1.44265 0
M  V30 3298 C 297.537 -0.646183 -1.53015 0
M  V30 3299 O 298.722 -0.888818 -1.68833 0
M  V30 3300 C 295.862 -2.00116 -2.81154 0
M  V30 3301 C 294.975 -3.27833 -2.81335 0
M  V30 3302 C 294.11 -3.37957 -4.09828 0
M  V30 3303 C 293.149 -4.59689 -4.04168 0
M  V30 3304 N 292.286 -4.66942 -5.24318 0
M  V30 3305 H 297.126 -2.72438 -1.20754 0
M  V30 3306 H 294.663 -1.34954 -0.585296 0
M  V30 3307 H 296.621 -2.09677 -3.60682 0
M  V30 3308 H 295.251 -1.11167 -3.03054 0
M  V30 3309 H 294.303 -3.27204 -1.94014 0
M  V30 3310 H 295.615 -4.17442 -2.73027 0
M  V30 3311 H 294.769 -3.46853 -4.97773 0
M  V30 3312 H 293.508 -2.46372 -4.20894 0
M  V30 3313 H 292.513 -4.50889 -3.14609 0
M  V30 3314 H 293.738 -5.5262 -3.947 0
M  V30 3315 H 291.684 -3.7826 -5.35962 0
M  V30 3316 H 291.601 -5.50462 -5.18197 0
M  V30 3317 H 292.869 -4.80127 -6.14084 0
M  V30 3318 N 297.098 0.621204 -1.44841 0
M  V30 3319 C 298.046 1.75385 -1.52784 0
M  V30 3320 C 299.04 1.64639 -0.398779 0
M  V30 3321 O 300.246 1.70598 -0.574137 0
M  V30 3322 H 296.621 0.579193 -0.479625 0
M  V30 3323 H 298.592 1.6581 -2.48092 0
M  V30 3324 C 297.341 3.13742 -1.4987 0
M  V30 3325 H 296.664 3.22663 -2.36069 0
M  V30 3326 H 298.104 3.92861 -1.59487 0
M  V30 3327 C 296.563 3.36175 -0.220973 0
M  V30 3328 O 297.093 3.95469 0.704782 0
M  V30 3329 N 295.299 2.90348 -0.120963 0
M  V30 3330 H 294.846 2.42278 -0.875162 0
M  V30 3331 H 294.804 3.05732 0.733168 0
M  V30 3332 N 298.576 1.31904 0.862503 0
M  V30 3333 C 299.816 1.23324 1.63004 0
M  V30 3334 C 300.18 -0.203724 1.90916 0
M  V30 3335 O 301.381 -0.413132 2.65606 0
M  V30 3336 C 299.652 2.06116 2.91978 0
M  V30 3337 S 301.211 2.14478 3.82812 0
M  V30 3338 H 298.029 0.439117 0.559193 0
M  V30 3339 H 300.631 1.66658 1.02202 0
M  V30 3340 H 299.335 3.09593 2.69407 0
M  V30 3341 H 298.866 1.6353 3.57801 0
M  V30 3342 H 300.881 1.28855 4.79177 0
M  V30 3343 N 300.054 -1.07777 1.14986 0
M  V30 3344 C 300.964 -2.18404 0.856546 0
M  V30 3345 C 301.98 -1.73211 -0.165485 0
M  V30 3346 O 303.156 -2.01399 0.00755219 0
M  V30 3347 C 300.221 -3.44977 0.34526 0
M  V30 3348 C 299.282 -4.0476 1.43065 0
M  V30 3349 C 298.515 -5.25291 0.943663 0
M  V30 3350 O 298.738 -5.70004 -0.212426 0
M  V30 3351 O 297.672 -5.76638 1.72547 0
M  V30 3352 H 301.498 -2.45978 1.78125 0
M  V30 3353 H 299.083 -1.17033 0.928631 0
M  V30 3354 H 300.965 -4.21348 0.0663671 0
M  V30 3355 H 299.64 -3.18965 -0.551631 0
M  V30 3356 H 298.547 -3.29949 1.76309 0
M  V30 3357 H 299.88 -4.35035 2.30229 0
M  V30 3358 N 301.532 -0.945985 -1.26051 0
M  V30 3359 C 302.778 -0.597002 -1.93814 0
M  V30 3360 C 303.111 0.862484 -1.73997 0
M  V30 3361 O 302.386 1.61769 -1.07986 0
M  V30 3362 C 302.669 -0.945937 -3.47454 0
M  V30 3363 C 302.522 -2.46052 -3.76535 0
M  V30 3364 C 303.841 -0.464785 -4.37639 0
M  V30 3365 H 300.96 -0.218366 -0.703907 0
M  V30 3366 H 303.602 -1.18107 -1.48831 0
M  V30 3367 H 301.752 -0.448902 -3.85898 0
M  V30 3368 H 303.424 -3.03065 -3.47778 0
M  V30 3369 H 301.667 -2.90194 -3.22444 0
M  V30 3370 H 302.338 -2.65517 -4.83947 0
M  V30 3371 H 304.814 -0.891016 -4.06448 0
M  V30 3372 H 303.69 -0.737712 -5.4392 0
M  V30 3373 H 303.951 0.635274 -4.37512 0
M  V30 3374 N 303.011 1.40521 -0.713556 0
M  V30 3375 C 303.921 2.34522 -0.0606667 0
M  V30 3376 C 304.937 1.57193 0.74607 0
M  V30 3377 O 306.113 1.89591 0.679493 0
M  V30 3378 C 303.178 3.36081 0.851491 0
M  V30 3379 C 302.239 4.29286 0.0349339 0
M  V30 3380 C 301.472 5.25994 0.903649 0
M  V30 3381 O 301.695 5.28616 2.14292 0
M  V30 3382 O 300.629 6.00918 0.343723 0
M  V30 3383 H 304.455 2.91968 -0.835972 0
M  V30 3384 H 302.04 1.41681 -0.47402 0
M  V30 3385 H 303.922 3.98369 1.37404 0
M  V30 3386 H 302.597 2.81052 1.60598 0
M  V30 3387 H 301.504 3.70289 -0.532633 0
M  V30 3388 H 302.837 4.87462 -0.681287 0
M  V30 3389 N 304.489 0.459591 1.5075 0
M  V30 3390 C 305.421 -0.37665 2.26084 0
M  V30 3391 C 306.434 -0.967109 1.30961 0
M  V30 3392 O 307.623 -0.857468 1.56556 0
M  V30 3393 C 304.723 -1.54112 3.01832 0
M  V30 3394 C 303.896 -1.06553 4.24223 0
M  V30 3395 C 302.955 -2.1027 4.82362 0
M  V30 3396 O 301.981 -1.68798 5.43595 0
M  V30 3397 N 303.183 -3.42974 4.68347 0
M  V30 3398 H 305.948 0.269124 2.98489 0
M  V30 3399 H 303.509 0.28972 1.59287 0
M  V30 3400 H 305.501 -2.23165 3.37608 0
M  V30 3401 H 304.071 -2.0918 2.32298 0
M  V30 3402 H 303.291 -0.201274 3.93686 0
M  V30 3403 H 304.579 -0.725516 5.03601 0
M  V30 3404 H 303.977 -3.79385 4.19623 0
M  V30 3405 H 302.534 -4.07858 5.08424 0
M  V30 3406 N 305.967 -1.56429 0.191757 0
M  V30 3407 C 307.213 -1.97777 -0.448554 0
M  V30 3408 C 307.546 -1.07847 -1.61501 0
M  V30 3409 O 306.821 -0.129774 -1.94067 0
M  V30 3410 C 307.104 -3.48362 -0.911906 0
M  V30 3411 C 306.957 -4.4907 0.256136 0
M  V30 3412 C 308.276 -4.02561 -1.77857 0
M  V30 3413 H 305.395 -0.719071 -0.161572 0
M  V30 3414 H 308.037 -1.87896 0.282007 0
M  V30 3415 H 306.187 -3.56914 -1.53442 0
M  V30 3416 H 307.859 -4.5256 0.893733 0
M  V30 3417 H 306.102 -4.24181 0.908436 0
M  V30 3418 H 306.773 -5.51889 -0.11053 0
M  V30 3419 H 309.249 -3.96767 -1.25359 0
M  V30 3420 H 308.125 -5.08301 -2.07174 0
M  V30 3421 H 308.386 -3.47616 -2.73158 0
M  V30 3422 N 307.445 0.0818655 -1.57387 0
M  V30 3423 C 308.392 1.09834 -2.0299 0
M  V30 3424 C 309.362 1.39043 -0.908639 0
M  V30 3425 O 310.547 1.50282 -1.17559 0
M  V30 3426 C 307.687 2.40971 -2.47037 0
M  V30 3427 C 306.8 2.18379 -3.7274 0
M  V30 3428 C 305.935 3.43008 -4.0561 0
M  V30 3429 C 304.974 3.15736 -5.24383 0
M  V30 3430 N 304.111 4.32667 -5.52941 0
M  V30 3431 H 308.951 0.702472 -2.89602 0
M  V30 3432 H 306.488 0.33531 -1.43227 0
M  V30 3433 H 308.446 3.1752 -2.70623 0
M  V30 3434 H 307.076 2.78379 -1.63417 0
M  V30 3435 H 306.128 1.32569 -3.56552 0
M  V30 3436 H 307.44 1.94227 -4.59431 0
M  V30 3437 H 306.594 4.27958 -4.30043 0
M  V30 3438 H 305.333 3.70225 -3.17466 0
M  V30 3439 H 304.338 2.2918 -4.99757 0
M  V30 3440 H 305.563 2.8985 -6.14136 0
M  V30 3441 H 303.509 4.59935 -4.67756 0
M  V30 3442 H 303.426 4.11753 -6.34031 0
M  V30 3443 H 304.694 5.18644 -5.81918 0
M  V30 3444 N 308.923 1.53595 0.353017 0
M  V30 3445 C 310.171 1.70049 1.09215 0
M  V30 3446 C 310.492 0.461406 1.89463 0
M  V30 3447 O 309.762 -0.524633 1.88744 0
M  V30 3448 H 308.342 0.626912 0.40619 0
M  V30 3449 H 311.004 1.90822 0.396585 0
M  V30 3450 H 310.1 2.56718 1.77488 0
M  V30 3451 N 310.401 -0.613514 1.45168 0
M  V30 3452 C 311.647 -1.37471 1.49096 0
M  V30 3453 C 311.98 -1.93765 0.129901 0
M  V30 3454 O 311.255 -1.74707 -0.854858 0
M  V30 3455 C 311.538 -2.52701 2.56542 0
M  V30 3456 C 311.391 -2.01643 4.0207 0
M  V30 3457 C 312.71 -3.54849 2.60327 0
M  V30 3458 H 309.829 -0.498502 0.54283 0
M  V30 3459 H 312.471 -0.692125 1.76945 0
M  V30 3460 H 310.621 -3.10931 2.32926 0
M  V30 3461 H 312.293 -1.48108 4.36877 0
M  V30 3462 H 310.536 -1.32688 4.13009 0
M  V30 3463 H 311.207 -2.84681 4.72928 0
M  V30 3464 H 313.683 -3.0645 2.81474 0
M  V30 3465 H 312.559 -4.32973 3.37381 0
M  V30 3466 H 312.82 -4.10079 1.6519 0
M  V30 3467 N 311.879 -1.3236 -0.855495 0
M  V30 3468 C 313.107 -1.2587 -1.64208 0
M  V30 3469 C 313.522 0.173457 -1.88002 0
M  V30 3470 O 312.879 1.11027 -1.44842 0
M  V30 3471 C 312.93 -2.01424 -3.00184 0
M  V30 3472 O 312.651 -3.39051 -2.77445 0
M  V30 3473 C 314.152 -2.01948 -3.94629 0
M  V30 3474 H 311.372 -0.434318 -0.511477 0
M  V30 3475 H 313.916 -1.74469 -1.0668 0
M  V30 3476 H 312.071 -1.56549 -3.5436 0
M  V30 3477 H 312.485 -3.77711 -3.63916 0
M  V30 3478 H 313.959 -2.59297 -4.87308 0
M  V30 3479 H 314.436 -1.00554 -4.27534 0
M  V30 3480 H 315.042 -2.46767 -3.4639 0
M  V30 3481 N 313.357 1.07166 -1.15556 0
M  V30 3482 C 314.587 1.83248 -0.954133 0
M  V30 3483 C 314.995 1.82449 0.500911 0
M  V30 3484 O 314.338 1.23575 1.35923 0
M  V30 3485 C 314.4 3.31393 -1.39351 0
M  V30 3486 C 314.064 3.5591 -2.86666 0
M  V30 3487 C 315.061 3.49695 -3.8472 0
M  V30 3488 C 312.746 3.83515 -3.24379 0
M  V30 3489 C 314.74 3.70737 -5.18491 0
M  V30 3490 C 312.427 4.04209 -4.58321 0
M  V30 3491 C 313.425 3.97815 -5.55186 0
M  V30 3492 O 313.113 4.17954 -6.86709 0
M  V30 3493 H 312.845 0.584941 -0.338851 0
M  V30 3494 H 315.399 1.36169 -1.53777 0
M  V30 3495 H 313.629 3.79292 -0.75329 0
M  V30 3496 H 315.318 3.88945 -1.16089 0
M  V30 3497 H 316.084 3.28368 -3.56931 0
M  V30 3498 H 311.963 3.87605 -2.49567 0
M  V30 3499 H 315.507 3.65663 -5.94085 0
M  V30 3500 H 311.404 4.25023 -4.85825 0
M  V30 3501 H 312.172 4.35291 -6.93155 0
M  V30 3502 N 314.835 0.952656 1.25548 0
M  V30 3503 C 316.06 0.623025 1.97821 0
M  V30 3504 C 316.485 -0.7976 1.70352 0
M  V30 3505 O 315.843 -1.53905 0.958283 0
M  V30 3506 C 315.891 0.885532 3.49558 0
M  V30 3507 O 314.995 -0.0366641 4.12384 0
M  V30 3508 H 314.336 0.237082 0.620232 0
M  V30 3509 H 316.866 1.27871 1.59719 0
M  V30 3510 H 316.876 0.811009 3.99858 0
M  V30 3511 H 315.551 1.92094 3.6888 0
M  V30 3512 H 314.128 0.0898954 3.72792 0
M  V30 3513 N 316.313 -1.40141 0.720998 0
M  V30 3514 C 317.243 -2.33339 0.0867621 0
M  V30 3515 C 318.224 -1.53178 -0.739622 0
M  V30 3516 O 319.409 -1.81625 -0.687449 0
M  V30 3517 C 316.539 -3.37194 -0.831728 0
M  V30 3518 C 315.493 -4.27857 -0.110558 0
M  V30 3519 C 314.819 -5.22294 -1.14513 0
M  V30 3520 C 316.119 -5.11872 1.0385 0
M  V30 3521 H 317.813 -2.86626 0.865219 0
M  V30 3522 H 315.359 -1.37814 0.417516 0
M  V30 3523 H 317.312 -4.01335 -1.28485 0
M  V30 3524 H 316.036 -2.82314 -1.64214 0
M  V30 3525 H 314.695 -3.65176 0.322797 0
M  V30 3526 H 314.343 -4.63717 -1.94874 0
M  V30 3527 H 314.043 -5.83797 -0.667446 0
M  V30 3528 H 315.567 -5.89312 -1.59824 0
M  V30 3529 H 316.981 -5.69436 0.664482 0
M  V30 3530 H 315.378 -5.82445 1.4449 0
M  V30 3531 H 316.448 -4.4753 1.86668 0
M  V30 3532 N 317.792 -0.46758 -1.50504 0
M  V30 3533 C 318.702 0.33382 -2.32213 0
M  V30 3534 C 319.718 0.999323 -1.42441 0
M  V30 3535 O 320.894 0.988068 -1.75497 0
M  V30 3536 C 317.959 1.4035 -3.17022 0
M  V30 3537 C 317.02 0.754961 -4.2261 0
M  V30 3538 C 316.253 1.77367 -5.03365 0
M  V30 3539 O 316.476 2.99976 -4.8515 0
M  V30 3540 O 315.41 1.34744 -5.86624 0
M  V30 3541 H 319.236 -0.334067 -3.01857 0
M  V30 3542 H 316.821 -0.229496 -1.47627 0
M  V30 3543 H 318.703 2.02318 -3.69656 0
M  V30 3544 H 317.378 2.05492 -2.5011 0
M  V30 3545 H 316.285 0.0964244 -3.73976 0
M  V30 3546 H 317.618 0.146545 -4.91982 0
M  V30 3547 N 319.27 1.56325 -0.20005 0
M  V30 3548 C 320.495 2.02548 0.44597 0
M  V30 3549 C 320.92 1.07922 1.5406 0
M  V30 3550 O 320.278 0.0635775 1.81188 0
M  V30 3551 C 320.326 3.47175 0.974761 0
M  V30 3552 O 319.43 3.55671 2.08739 0
M  V30 3553 H 318.771 0.655862 0.103638 0
M  V30 3554 H 321.301 2.02201 -0.312381 0
M  V30 3555 H 321.311 3.87067 1.2901 0
M  V30 3556 H 319.986 4.15538 0.17347 0
M  V30 3557 H 318.563 3.27657 1.78032 0
M  V30 3558 N 320.748 -0.0735177 1.57428 0
M  V30 3559 C 321.995 -0.772999 1.87166 0
M  V30 3560 C 322.323 -1.77665 0.791551 0
M  V30 3561 O 321.578 -1.94541 -0.212636 0
M  V30 3562 C 321.877 -1.51799 3.23561 0
M  V30 3563 C 321.543 -0.654484 4.46125 0
M  V30 3564 C 320.205 -0.416511 4.79394 0
M  V30 3565 C 322.557 -0.0555862 5.2117 0
M  V30 3566 C 319.885 0.429869 5.85123 0
M  V30 3567 C 322.237 0.778239 6.27795 0
M  V30 3568 C 320.901 1.0261 6.59566 0
M  V30 3569 H 320.171 -0.282861 0.684888 0
M  V30 3570 H 322.818 -0.0338272 1.9147 0
M  V30 3571 H 321.123 -2.32932 3.1504 0
M  V30 3572 H 322.82 -2.06397 3.43804 0
M  V30 3573 H 319.41 -0.850091 4.20085 0
M  V30 3574 H 323.594 -0.226558 4.95783 0
M  V30 3575 H 318.85 0.630665 6.08139 0
M  V30 3576 H 323.024 1.24906 6.85107 0
M  V30 3577 H 320.651 1.68371 7.4132 0
M  V30 3578 N 322.226 -1.5378 -0.344866 0
M  V30 3579 C 323.156 -1.84662 -1.42906 0
M  V30 3580 C 324.137 -0.701648 -1.54955 0
M  V30 3581 O 325.322 -0.953438 -1.69184 0
M  V30 3582 C 322.452 -2.05503 -2.79974 0
M  V30 3583 C 321.406 -3.21318 -2.82734 0
M  V30 3584 C 320.732 -3.2749 -4.22675 0
M  V30 3585 C 322.032 -4.59456 -2.48389 0
M  V30 3586 H 323.726 -2.75461 -1.17311 0
M  V30 3587 H 321.272 -1.32542 -0.562896 0
M  V30 3588 H 323.225 -2.25691 -3.55867 0
M  V30 3589 H 321.949 -1.11434 -3.07002 0
M  V30 3590 H 320.608 -3.00984 -2.09294 0
M  V30 3591 H 320.256 -2.31019 -4.4681 0
M  V30 3592 H 319.956 -4.05316 -4.25433 0
M  V30 3593 H 321.48 -3.49887 -5.00412 0
M  V30 3594 H 322.894 -4.79667 -3.13995 0
M  V30 3595 H 321.291 -5.39675 -2.62432 0
M  V30 3596 H 322.361 -4.63155 -1.4358 0
M  V30 3597 N 323.704 0.605807 -1.45491 0
M  V30 3598 C 324.952 1.36207 -1.49305 0
M  V30 3599 C 325.273 1.94519 -0.136863 0
M  V30 3600 O 324.543 1.77261 0.833983 0
M  V30 3601 H 323.123 0.50565 -0.549843 0
M  V30 3602 H 325.785 0.711239 -1.81459 0
M  V30 3603 H 324.881 2.18058 -2.23287 0
M  V30 3604 N 325.182 1.32811 0.848464 0
M  V30 3605 C 326.593 1.21315 1.41914 0
M  V30 3606 C 326.944 -0.171847 1.95446 0
M  V30 3607 O 326.069 -1.07093 1.88043 0
M  V30 3608 C 326.664 2.19631 2.57968 0
M  V30 3609 C 325.223 2.12003 3.11017 0
M  V30 3610 C 324.37 2.07651 1.83783 0
M  V30 3611 H 327.321 1.44549 0.655071 0
M  V30 3612 H 327.342 1.79845 3.35315 0
M  V30 3613 H 326.854 3.20423 2.18976 0
M  V30 3614 H 324.955 1.14481 3.54577 0
M  V30 3615 H 325.068 3.02111 3.71841 0
M  V30 3616 H 323.432 1.52983 2.03638 0
M  V30 3617 H 324.215 3.10235 1.47 0
M  V30 3618 N 326.66 -1.06551 1.16123 0
M  V30 3619 C 328.076 -1.3142 0.905585 0
M  V30 3620 C 328.276 -1.96571 -0.442964 0
M  V30 3621 O 327.332 -2.23068 -1.18308 0
M  V30 3622 C 328.645 -2.19741 2.05267 0
M  V30 3623 C 330.193 -2.33165 2.08813 0
M  V30 3624 C 330.668 -3.24838 3.22868 0
M  V30 3625 N 332.159 -3.32421 3.22568 0
M  V30 3626 C 332.894 -4.0344 4.0746 0
M  V30 3627 N 332.39 -4.77003 5.02434 0
M  V30 3628 N 334.183 -3.99464 3.95456 0
M  V30 3629 H 326.334 -0.626548 2.02949 0
M  V30 3630 H 328.597 -0.338777 0.8854 0
M  V30 3631 H 328.303 -1.79142 3.02657 0
M  V30 3632 H 328.177 -3.20313 1.99198 0
M  V30 3633 H 330.564 -2.73013 1.12018 0
M  V30 3634 H 330.645 -1.3227 2.18948 0
M  V30 3635 H 330.289 -2.85708 4.19921 0
M  V30 3636 H 330.219 -4.25707 3.0997 0
M  V30 3637 H 332.71 -2.79994 2.53795 0
M  V30 3638 H 333.023 -5.28712 5.63634 0
M  V30 3639 H 331.368 -4.75992 5.06415 0
M  V30 3640 H 334.559 -3.4111 3.20564 0
M  V30 3641 H 334.732 -4.54544 4.61837 0
M  V30 3642 N 328.138 -0.959301 -1.25041 0
M  V30 3643 C 329.071 -0.427418 -2.24161 0
M  V30 3644 C 330.049 0.493837 -1.54919 0
M  V30 3645 O 331.233 0.427144 -1.83597 0
M  V30 3646 C 328.36 0.383893 -3.36517 0
M  V30 3647 C 327.406 -0.478431 -4.23808 0
M  V30 3648 S 328.239 -1.91353 -5.00144 0
M  V30 3649 C 329.395 -1.11077 -6.15965 0
M  V30 3650 H 329.628 -1.26743 -2.6893 0
M  V30 3651 H 327.161 -0.763714 -1.34189 0
M  V30 3652 H 329.119 0.846039 -4.01687 0
M  V30 3653 H 327.78 1.19878 -2.90324 0
M  V30 3654 H 326.973 0.14406 -5.03794 0
M  V30 3655 H 326.575 -0.87597 -3.63597 0
M  V30 3656 H 328.867 -0.361699 -6.76534 0
M  V30 3657 H 329.81 -1.88472 -6.82557 0
M  V30 3658 H 330.218 -0.638843 -5.60873 0
M  V30 3659 N 329.616 1.39756 -0.72842 0
M  V30 3660 C 330.856 2.025 -0.278078 0
M  V30 3661 C 331.22 1.5654 1.11173 0
M  V30 3662 O 332.421 2.11435 1.65978 0
M  V30 3663 C 330.692 3.55489 -0.369139 0
M  V30 3664 S 332.251 4.388 0.00232983 0
M  V30 3665 H 329.069 0.702534 -0.109391 0
M  V30 3666 H 331.671 1.70672 -0.95348 0
M  V30 3667 H 330.375 3.86429 -1.38204 0
M  V30 3668 H 329.906 3.92061 0.324308 0
M  V30 3669 H 331.921 4.80954 1.22055 0
M  V30 3670 N 331.094 0.475555 1.50254 0
M  V30 3671 C 332.322 -0.0754493 2.06762 0
M  V30 3672 C 332.737 -1.33111 1.33891 0
M  V30 3673 O 332.094 -1.77846 0.40952 0
M  V30 3674 C 332.145 -0.359008 3.59713 0
M  V30 3675 O 331.866 0.846851 4.29837 0
M  V30 3676 C 333.367 -0.956484 4.32858 0
M  V30 3677 H 330.587 0.00907525 0.670939 0
M  V30 3678 H 333.131 0.665618 1.93364 0
M  V30 3679 H 331.286 -1.05001 3.72899 0
M  V30 3680 H 331.7 0.594162 5.21124 0
M  V30 3681 H 333.174 -1.10463 5.40834 0
M  V30 3682 H 333.651 -1.94775 3.93649 0
M  V30 3683 H 334.257 -0.303723 4.24214 0
M  V30 3684 N 332.573 -1.56217 0.208337 0
M  V30 3685 C 333.483 -2.23316 -0.718836 0
M  V30 3686 C 334.499 -1.23648 -1.22422 0
M  V30 3687 O 335.675 -1.56423 -1.26861 0
M  V30 3688 C 332.74 -2.88968 -1.91568 0
M  V30 3689 C 331.801 -4.03943 -1.45357 0
M  V30 3690 C 331.034 -4.66455 -2.59337 0
M  V30 3691 O 331.257 -4.27919 -3.77149 0
M  V30 3692 O 330.191 -5.55686 -2.31293 0
M  V30 3693 H 334.017 -3.03182 -0.177315 0
M  V30 3694 H 331.602 -1.49384 -0.0215402 0
M  V30 3695 H 333.484 -3.30455 -2.61491 0
M  V30 3696 H 332.159 -2.12071 -2.44556 0
M  V30 3697 H 331.066 -3.67052 -0.722746 0
M  V30 3698 H 332.399 -4.82543 -0.970219 0
M  V30 3699 N 334.051 0.0651679 -1.57465 0
M  V30 3700 C 335.328 0.79644 -1.78651 0
M  V30 3701 C 335.708 1.95454 -0.797566 0
M  V30 3702 O 335.056 2.27882 0.167946 0
M  V30 3703 C 335.266 1.26322 -3.25337 0
M  V30 3704 C 336.614 1.6939 -3.89348 0
M  V30 3705 O 337.638 1.35872 -3.29268 0
M  V30 3706 O 336.497 2.31471 -4.95059 0
M  V30 3707 H 333.591 0.382157 -0.733407 0
M  V30 3708 H 336.137 0.0447311 -1.69641 0
M  V30 3709 H 334.909 0.434859 -3.88876 0
M  V30 3710 H 334.532 2.07604 -3.39096 0
M  V30 3711 N 335.529 1.53961 0.336706 0
M  V30 3712 C 336.459 1.85417 1.41925 0
M  V30 3713 C 337.44 0.709856 1.5458 0
M  V30 3714 O 338.625 0.962396 1.68676 0
M  V30 3715 C 335.755 2.06985 2.78881 0
M  V30 3716 C 334.709 3.22813 2.81026 0
M  V30 3717 C 334.035 3.29727 4.20932 0
M  V30 3718 C 335.335 4.60767 2.45949 0
M  V30 3719 H 337.029 2.76079 1.15848 0
M  V30 3720 H 334.575 1.32839 0.555859 0
M  V30 3721 H 336.528 2.27575 3.54665 0
M  V30 3722 H 335.252 1.13061 3.06406 0
M  V30 3723 H 333.911 3.0209 2.07695 0
M  V30 3724 H 333.559 2.33385 4.45579 0
M  V30 3725 H 333.259 4.07566 4.23277 0
M  V30 3726 H 334.783 3.52536 4.98549 0
M  V30 3727 H 336.197 4.81325 3.11446 0
M  V30 3728 H 334.594 5.4106 2.59566 0
M  V30 3729 H 335.664 4.6391 1.41122 0
M  V30 3730 N 337.007 -0.598083 1.45811 0
M  V30 3731 C 338.418 -1.18011 1.44673 0
M  V30 3732 C 338.769 -1.95378 0.179364 0
M  V30 3733 O 337.894 -2.04124 -0.718509 0
M  V30 3734 C 338.489 -2.14677 2.62105 0
M  V30 3735 C 337.048 -2.68236 2.64057 0
M  V30 3736 C 336.195 -1.43816 2.37091 0
M  V30 3737 H 339.146 -0.38686 1.53913 0
M  V30 3738 H 339.167 -2.97878 2.36746 0
M  V30 3739 H 338.679 -1.5834 3.5433 0
M  V30 3740 H 336.78 -3.28486 1.75864 0
M  V30 3741 H 336.893 -3.12021 3.63566 0
M  V30 3742 H 335.257 -1.731 1.86838 0
M  V30 3743 H 336.04 -0.893333 3.31473 0
M  V30 3744 N 338.485 -1.33259 -0.841409 0
M  V30 3745 C 339.732 -1.24572 -1.5965 0
M  V30 3746 C 340.06 0.189137 -1.93578 0
M  V30 3747 O 339.315 1.14566 -1.5866 0
M  V30 3748 C 339.614 -2.06381 -2.9179 0
M  V30 3749 C 339.28 -3.556 -2.77235 0
M  V30 3750 C 337.942 -3.96282 -2.72973 0
M  V30 3751 C 340.294 -4.50433 -2.62221 0
M  V30 3752 C 337.622 -5.30017 -2.51592 0
M  V30 3753 C 339.974 -5.84327 -2.42374 0
M  V30 3754 C 338.638 -6.24194 -2.36512 0
M  V30 3755 H 337.908 -0.455842 -0.5842 0
M  V30 3756 H 340.555 -1.6482 -0.975016 0
M  V30 3757 H 338.86 -1.58903 -3.5813 0
M  V30 3758 H 340.557 -1.97019 -3.49263 0
M  V30 3759 H 337.147 -3.23298 -2.81384 0
M  V30 3760 H 341.331 -4.19914 -2.64549 0
M  V30 3761 H 336.587 -5.59947 -2.45499 0
M  V30 3762 H 340.761 -6.57414 -2.29739 0
M  V30 3763 H 338.388 -7.27759 -2.19706 0
M  V30 3764 N 339.963 1.05934 -1.16686 0
M  V30 3765 C 341.374 1.60263 -0.957745 0
M  V30 3766 C 341.725 1.89789 0.49745 0
M  V30 3767 O 340.85 1.67401 1.37135 0
M  V30 3768 C 341.445 2.91172 -1.73218 0
M  V30 3769 C 340.004 3.42188 -1.56794 0
M  V30 3770 C 339.151 2.16028 -1.73859 0
M  V30 3771 H 342.102 0.888392 -1.31504 0
M  V30 3772 H 342.123 3.60744 -1.21014 0
M  V30 3773 H 341.635 2.6965 -2.79124 0
M  V30 3774 H 339.736 3.68762 -0.533437 0
M  V30 3775 H 339.849 4.17273 -2.35414 0
M  V30 3776 H 338.213 2.26426 -1.16633 0
M  V30 3777 H 338.996 1.96985 -2.81161 0
M  V30 3778 N 341.441 0.965919 1.2453 0
M  V30 3779 C 342.852 0.665929 1.7442 0
M  V30 3780 C 343.203 -0.818407 1.78316 0
M  V30 3781 O 342.328 -1.64037 1.41141 0
M  V30 3782 C 342.923 1.20211 3.16757 0
M  V30 3783 C 341.482 0.952059 3.6416 0
M  V30 3784 C 340.629 1.33848 2.42858 0
M  V30 3785 H 343.58 1.14144 1.10258 0
M  V30 3786 H 343.601 0.567544 3.76244 0
M  V30 3787 H 343.113 2.28244 3.13889 0
M  V30 3788 H 341.214 -0.112821 3.72429 0
M  V30 3789 H 341.327 1.59645 4.51719 0
M  V30 3790 H 339.691 0.756864 2.43195 0
M  V30 3791 H 340.474 2.42827 2.42673 0
M  V30 3792 N 342.919 -1.39368 0.735821 0
M  V30 3793 C 343.882 -2.2896 0.104874 0
M  V30 3794 C 344.882 -1.46347 -0.666274 0
M  V30 3795 O 346.072 -1.67014 -0.49517 0
M  V30 3796 C 343.204 -3.29857 -0.860656 0
M  V30 3797 H 344.397 -2.86259 0.894205 0
M  V30 3798 H 341.95 -1.48029 0.501704 0
M  V30 3799 H 342.685 -2.77615 -1.67631 0
M  V30 3800 H 342.47 -3.9087 -0.310327 0
M  V30 3801 H 343.96 -3.96893 -1.29867 0
M  V30 3802 N 344.397 -0.483516 -1.5 0
M  V30 3803 C 345.36 0.292965 -2.2732 0
M  V30 3804 C 346.36 0.909499 -1.32608 0
M  V30 3805 O 347.55 0.776745 -1.55924 0
M  V30 3806 C 344.682 1.41854 -3.09984 0
M  V30 3807 H 345.875 -0.385289 -2.97415 0
M  V30 3808 H 343.428 -0.237942 -1.54478 0
M  V30 3809 H 344.163 2.13148 -2.44414 0
M  V30 3810 H 343.948 0.982114 -3.79601 0
M  V30 3811 H 345.438 1.96597 -3.68429 0
M  V30 3812 N 345.875 1.56104 -0.216619 0
M  V30 3813 C 347.1 2.0301 0.424462 0
M  V30 3814 C 347.525 1.0955 1.52907 0
M  V30 3815 O 346.883 0.0827914 1.81111 0
M  V30 3816 C 346.931 3.4819 0.937883 0
M  V30 3817 O 346.035 3.57865 2.04955 0
M  V30 3818 H 345.376 0.656925 0.0966755 0
M  V30 3819 H 347.906 2.01859 -0.33381 0
M  V30 3820 H 347.916 3.88413 1.24897 0
M  V30 3821 H 346.591 4.15699 0.129387 0
M  V30 3822 H 345.168 3.29527 1.74546 0
M  V30 3823 N 347.353 -0.0568162 1.57498 0
M  V30 3824 C 348.593 -0.758273 1.89815 0
M  V30 3825 C 348.957 -1.73978 0.812132 0
M  V30 3826 O 350.158 -2.48744 1.01881 0
M  V30 3827 C 348.429 -1.43465 3.27342 0
M  V30 3828 S 349.988 -2.1691 3.81439 0
M  V30 3829 H 346.806 -0.251836 0.664906 0
M  V30 3830 H 349.408 -0.0137997 1.95495 0
M  V30 3831 H 348.112 -0.706693 4.0427 0
M  V30 3832 H 347.643 -2.21825 3.24896 0
M  V30 3833 H 349.658 -3.43658 3.5793 0
M  V30 3834 N 348.832 -1.54138 -0.328536 0
M  V30 3835 C 350.109 -1.62749 -1.08499 0
M  V30 3836 C 350.489 -0.458198 -2.06067 0
M  V30 3837 O 349.837 0.548046 -2.2183 0
M  V30 3838 C 350.047 -2.99519 -1.79135 0
M  V30 3839 C 351.395 -3.55394 -2.32337 0
M  V30 3840 O 352.419 -3.01792 -1.89209 0
M  V30 3841 O 351.278 -4.49186 -3.11279 0
M  V30 3842 H 348.372 -0.65886 -0.499832 0
M  V30 3843 H 350.918 -1.66484 -0.328826 0
M  V30 3844 H 349.69 -3.76061 -1.08139 0
M  V30 3845 H 349.313 -2.99441 -2.61574 0
M  V30 3846 N 350.31 0.590341 -1.46126 0
M  V30 3847 C 351.535 1.37991 -1.54833 0
M  V30 3848 C 351.96 1.87163 -0.187506 0
M  V30 3849 O 351.318 1.61133 0.831008 0
M  V30 3850 C 351.366 2.54867 -2.55098 0
M  V30 3851 O 350.47 3.56061 -2.08073 0
M  V30 3852 H 349.811 0.411265 -0.521303 0
M  V30 3853 H 352.341 0.716819 -1.91632 0
M  V30 3854 H 352.351 3.01886 -2.74461 0
M  V30 3855 H 351.026 2.18429 -3.53923 0
M  V30 3856 H 349.603 3.15574 -1.98664 0
M  V30 3857 N 351.788 1.33704 0.83433 0
M  V30 3858 C 353.035 1.25417 1.58987 0
M  V30 3859 C 353.363 -0.178869 1.93676 0
M  V30 3860 O 352.618 -1.13723 1.59265 0
M  V30 3861 C 352.917 2.07926 2.90692 0
M  V30 3862 C 352.583 3.57066 2.75345 0
M  V30 3863 C 351.245 3.97724 2.70867 0
M  V30 3864 C 353.597 4.51817 2.59828 0
M  V30 3865 C 350.925 5.31344 2.48778 0
M  V30 3866 C 353.277 5.85604 2.39272 0
M  V30 3867 C 351.941 6.25439 2.33199 0
M  V30 3868 H 351.211 0.458934 0.581774 0
M  V30 3869 H 353.858 1.65335 0.966261 0
M  V30 3870 H 352.163 1.608 3.57282 0
M  V30 3871 H 353.86 1.98868 3.48213 0
M  V30 3872 H 350.45 3.24785 2.79665 0
M  V30 3873 H 354.634 4.21311 2.62319 0
M  V30 3874 H 349.89 5.61241 2.42526 0
M  V30 3875 H 354.064 6.58623 2.2625 0
M  V30 3876 H 351.691 7.28914 2.15843 0
M  V30 3877 N 353.266 -1.05314 1.17247 0
M  V30 3878 C 354.213 -2.13031 0.888058 0
M  V30 3879 C 355.183 -1.65253 -0.167537 0
M  V30 3880 O 356.368 -1.90775 -0.0305974 0
M  V30 3881 C 353.508 -3.42702 0.406147 0
M  V30 3882 C 352.621 -4.04161 1.52572 0
M  V30 3883 C 351.756 -5.21744 0.997808 0
M  V30 3884 C 350.795 -5.75207 2.09291 0
M  V30 3885 N 349.932 -6.84094 1.57986 0
M  V30 3886 H 354.772 -2.36698 1.81048 0
M  V30 3887 H 352.309 -1.16121 0.903013 0
M  V30 3888 H 354.267 -4.17059 0.108305 0
M  V30 3889 H 352.897 -3.19222 -0.479313 0
M  V30 3890 H 351.949 -3.27253 1.93931 0
M  V30 3891 H 353.261 -4.39881 2.35172 0
M  V30 3892 H 352.415 -6.03168 0.653739 0
M  V30 3893 H 351.154 -4.87495 0.141232 0
M  V30 3894 H 350.159 -4.92414 2.44557 0
M  V30 3895 H 351.384 -6.11505 2.95362 0
M  V30 3896 H 349.33 -6.51745 0.74598 0
M  V30 3897 H 349.247 -7.18811 2.34195 0
M  V30 3898 H 350.515 -7.69172 1.26468 0
M  V30 3899 N 354.744 -0.972509 -1.24016 0
M  V30 3900 C 355.692 -0.498562 -2.27194 0
M  V30 3901 C 356.686 0.440372 -1.63576 0
M  V30 3902 O 357.892 0.315133 -1.7722 0
M  V30 3903 H 354.267 -0.142775 -0.738322 0
M  V30 3904 H 356.238 -1.38065 -2.64539 0
M  V30 3905 C 354.987 0.191072 -3.47175 0
M  V30 3906 H 354.31 -0.522318 -3.96373 0
M  V30 3907 H 355.75 0.486445 -4.212 0
M  V30 3908 C 354.209 1.41967 -3.05527 0
M  V30 3909 O 354.739 2.51642 -3.13112 0
M  V30 3910 N 352.945 1.28746 -2.60524 0
M  V30 3911 H 352.492 0.395089 -2.54552 0
M  V30 3912 H 352.45 2.11061 -2.33025 0
M  V30 3913 N 356.222 1.38976 -0.743202 0
M  V30 3914 C 357.154 2.29096 -0.0689228 0
M  V30 3915 C 358.167 1.47229 0.694791 0
M  V30 3916 O 359.356 1.70212 0.537597 0
M  V30 3917 C 356.456 3.25988 0.926548 0
M  V30 3918 C 355.629 4.36833 0.222647 0
M  V30 3919 C 354.688 5.13981 1.12739 0
M  V30 3920 O 353.714 5.6601 0.601795 0
M  V30 3921 N 354.916 5.25966 2.45641 0
M  V30 3922 H 357.681 2.87604 -0.842846 0
M  V30 3923 H 355.242 1.50645 -0.593109 0
M  V30 3924 H 357.234 3.74476 1.5346 0
M  V30 3925 H 355.804 2.68453 1.60162 0
M  V30 3926 H 355.024 3.90116 -0.565983 0
M  V30 3927 H 356.312 5.0811 -0.264841 0
M  V30 3928 H 355.71 4.85228 2.9081 0
M  V30 3929 H 354.267 5.77865 3.01522 0
M  V30 3930 N 357.7 0.491464 1.49741 0
M  V30 3931 C 358.63 -0.28154 2.31796 0
M  V30 3932 C 359.611 -0.971473 1.3963 0
M  V30 3933 O 360.796 -0.964719 1.68543 0
M  V30 3934 C 357.926 -1.35203 3.19902 0
M  V30 3935 C 356.88 -0.782529 4.20786 0
M  V30 3936 C 356.206 -1.95283 4.97764 0
M  V30 3937 C 357.506 0.21999 5.21837 0
M  V30 3938 H 359.2 0.403355 2.96671 0
M  V30 3939 H 356.746 0.195425 1.42668 0
M  V30 3940 H 358.699 -1.90045 3.76113 0
M  V30 3941 H 357.423 -2.06598 2.52953 0
M  V30 3942 H 356.082 -0.255928 3.65706 0
M  V30 3943 H 355.73 -2.65423 4.2727 0
M  V30 3944 H 355.43 -1.57789 5.66018 0
M  V30 3945 H 356.954 -2.50577 5.56816 0
M  V30 3946 H 358.368 -0.23996 5.72798 0
M  V30 3947 H 356.765 0.51026 5.97927 0
M  V30 3948 H 357.835 1.13911 4.7133 0
M  V30 3949 N 359.178 -1.55987 0.224894 0
M  V30 3950 C 360.424 -1.98684 -0.406502 0
M  V30 3951 C 360.757 -1.11248 -1.59177 0
M  V30 3952 O 360.032 -0.170909 -1.93748 0
M  V30 3953 C 360.315 -3.50218 -0.837808 0
M  V30 3954 C 360.168 -4.48426 0.351332 0
M  V30 3955 C 361.487 -4.06243 -1.69278 0
M  V30 3956 H 358.606 -0.722337 -0.146283 0
M  V30 3957 H 361.248 -1.87255 0.321799 0
M  V30 3958 H 359.398 -3.60089 -1.45837 0
M  V30 3959 H 361.07 -4.50562 0.989526 0
M  V30 3960 H 359.313 -4.22159 0.998207 0
M  V30 3961 H 359.984 -5.52 0.00655905 0
M  V30 3962 H 362.46 -3.99337 -1.16914 0
M  V30 3963 H 361.336 -5.12581 -1.96346 0
M  V30 3964 H 361.597 -3.53332 -2.65723 0
M  V30 3965 N 360.656 0.0484629 -1.57525 0
M  V30 3966 C 361.884 0.755421 -1.92616 0
M  V30 3967 C 362.299 1.69919 -0.822984 0
M  V30 3968 O 361.656 1.81378 0.202085 0
M  V30 3969 C 361.707 1.52915 -3.27566 0
M  V30 3970 O 361.428 0.62329 -4.33644 0
M  V30 3971 C 362.929 2.33502 -3.76818 0
M  V30 3972 H 360.149 0.213465 -0.63614 0
M  V30 3973 H 362.693 0.0117698 -2.04497 0
M  V30 3974 H 360.848 2.22486 -3.17142 0
M  V30 3975 H 361.262 1.16383 -5.11425 0
M  V30 3976 H 362.736 2.83214 -4.73808 0
M  V30 3977 H 363.213 3.14068 -3.07014 0
M  V30 3978 H 363.819 1.69043 -3.90262 0
M  V30 3979 N 362.134 1.5431 0.320358 0
M  V30 3980 C 363.55 1.45091 0.664889 0
M  V30 3981 C 363.75 0.626382 1.91517 0
M  V30 3982 O 362.806 0.126443 2.52183 0
M  V30 3983 C 364.119 2.88848 0.83591 0
M  V30 3984 C 365.667 2.9877 0.933046 0
M  V30 3985 C 366.142 4.43683 1.13621 0
M  V30 3986 N 367.633 4.47309 1.20287 0
M  V30 3987 C 368.368 5.56595 1.37801 0
M  V30 3988 N 367.864 6.75844 1.52338 0
M  V30 3989 N 369.657 5.44248 1.40535 0
M  V30 3990 H 361.808 2.06398 -0.501374 0
M  V30 3991 H 364.071 0.933963 -0.162534 0
M  V30 3992 H 363.777 3.51698 -0.0116092 0
M  V30 3993 H 363.651 3.35148 1.73078 0
M  V30 3994 H 366.038 2.36045 1.77107 0
M  V30 3995 H 366.119 2.55796 0.0145782 0
M  V30 3996 H 365.763 5.06995 0.303032 0
M  V30 3997 H 365.693 4.84269 2.0686 0
M  V30 3998 H 368.184 3.61388 1.10485 0
M  V30 3999 H 368.497 7.54892 1.65403 0
M  V30 4000 H 366.842 6.78746 1.4943 0
M  V30 4001 H 370.033 4.50038 1.28777 0
M  V30 4002 H 370.206 6.29473 1.53842 0
M  V30 4003 N 363.613 -0.582584 1.46437 0
M  V30 4004 C 364.523 -1.71949 1.59595 0
M  V30 4005 C 365.539 -1.67264 0.479443 0
M  V30 4006 O 366.715 -1.87171 0.743579 0
M  V30 4007 C 363.78 -3.08452 1.58298 0
M  V30 4008 C 362.841 -3.244 2.81182 0
M  V30 4009 C 362.074 -4.54391 2.79937 0
M  V30 4010 O 362.297 -5.38287 1.8869 0
M  V30 4011 O 361.231 -4.73588 3.71481 0
M  V30 4012 H 365.057 -1.63795 2.55744 0
M  V30 4013 H 362.642 -0.749643 1.29231 0
M  V30 4014 H 364.524 -3.89732 1.60271 0
M  V30 4015 H 363.199 -3.17043 0.653094 0
M  V30 4016 H 362.106 -2.42613 2.84763 0
M  V30 4017 H 363.439 -3.20699 3.7338 0
M  V30 4018 N 365.091 -1.34144 -0.827227 0
M  V30 4019 C 366.339 -1.26009 -1.58007 0
M  V30 4020 C 366.66 0.170971 -1.94249 0
M  V30 4021 O 365.93 1.10256 -1.61927 0
M  V30 4022 H 364.51 -0.463414 -0.585881 0
M  V30 4023 H 367.172 -1.68005 -0.987951 0
M  V30 4024 H 366.268 -1.86187 -2.50481 0
M  V30 4025 N 366.569 1.04691 -1.17803 0
M  V30 4026 C 367.517 2.14665 -0.895635 0
M  V30 4027 C 368.511 1.68806 0.141679 0
M  V30 4028 O 369.717 1.79999 -0.00587914 0
M  V30 4029 H 366.092 0.701038 -0.272121 0
M  V30 4030 H 368.063 2.35685 -1.83017 0
M  V30 4031 C 366.812 3.45019 -0.430962 0
M  V30 4032 H 366.135 3.8071 -1.22064 0
M  V30 4033 H 367.575 4.23125 -0.272301 0
M  V30 4034 C 366.034 3.25943 0.852207 0
M  V30 4035 O 366.564 3.5296 1.91786 0
M  V30 4036 N 364.77 2.79304 0.802346 0
M  V30 4037 H 364.317 2.57518 -0.0650788 0
M  V30 4038 H 364.275 2.66921 1.66134 0
M  V30 4039 N 368.047 0.979072 1.23499 0
M  V30 4040 C 368.957 0.526431 2.28617 0
M  V30 4041 C 369.973 -0.418126 1.68901 0
M  V30 4042 O 371.149 -0.288372 1.99325 0
M  V30 4043 C 368.214 -0.165235 3.46306 0
M  V30 4044 C 367.275 0.82056 4.21385 0
M  V30 4045 C 366.508 0.161807 5.33455 0
M  V30 4046 O 366.731 -1.04742 5.60701 0
M  V30 4047 O 365.665 0.859708 5.95729 0
M  V30 4048 H 369.491 1.4006 2.69475 0
M  V30 4049 H 367.076 0.746643 1.29405 0
M  V30 4050 H 368.958 -0.553287 4.17752 0
M  V30 4051 H 367.633 -1.01419 3.07402 0
M  V30 4052 H 366.54 1.25929 3.52268 0
M  V30 4053 H 367.873 1.63828 4.64135 0
M  V30 4054 N 369.525 -1.3858 0.750561 0
M  V30 4055 C 370.455 -2.33102 0.136237 0
M  V30 4056 C 371.436 -1.54713 -0.706965 0
M  V30 4057 O 372.621 -1.83043 -0.648769 0
M  V30 4058 C 369.751 -3.38882 -0.760017 0
M  V30 4059 C 368.705 -4.27995 -0.0197785 0
M  V30 4060 C 368.031 -5.24605 -1.03408 0
M  V30 4061 C 369.331 -5.09554 1.14684 0
M  V30 4062 H 371.025 -2.84726 0.925822 0
M  V30 4063 H 368.571 -1.36898 0.446654 0
M  V30 4064 H 370.524 -4.0397 -1.19943 0
M  V30 4065 H 369.248 -2.85734 -1.58189 0
M  V30 4066 H 367.907 -3.64409 0.400184 0
M  V30 4067 H 367.555 -4.67746 -1.84994 0
M  V30 4068 H 367.255 -5.85081 -0.543464 0
M  V30 4069 H 368.779 -5.9257 -1.47288 0
M  V30 4070 H 370.193 -5.67899 0.785118 0
M  V30 4071 H 368.59 -5.7925 1.56812 0
M  V30 4072 H 369.66 -4.4347 1.96118 0
M  V30 4073 N 371.003 -0.499398 -1.49478 0
M  V30 4074 C 372.233 0.0424839 -2.06556 0
M  V30 4075 C 372.641 1.31514 -1.36018 0
M  V30 4076 O 371.984 1.78555 -0.431718 0
M  V30 4077 C 372.046 0.368074 -3.57611 0
M  V30 4078 C 371.71 -0.806631 -4.49825 0
M  V30 4079 C 372.707 -1.69667 -4.91436 0
M  V30 4080 C 370.392 -1.00498 -4.92144 0
M  V30 4081 C 372.386 -2.76923 -5.74101 0
M  V30 4082 C 370.073 -2.08072 -5.74586 0
M  V30 4083 C 371.071 -2.96119 -6.15469 0
M  V30 4084 O 370.759 -4.01836 -6.96264 0
M  V30 4085 H 370.491 -0.0165165 -0.675798 0
M  V30 4086 H 373.045 -0.695497 -1.93267 0
M  V30 4087 H 371.275 1.15963 -3.68903 0
M  V30 4088 H 372.964 0.848381 -3.96935 0
M  V30 4089 H 373.73 -1.55524 -4.59388 0
M  V30 4090 H 369.609 -0.329036 -4.59824 0
M  V30 4091 H 373.153 -3.45676 -6.05932 0
M  V30 4092 H 369.05 -2.22211 -6.06047 0
M  V30 4093 H 369.818 -3.9917 -7.14567 0
M  V30 4094 N 372.481 1.55866 -0.233164 0
M  V30 4095 C 373.431 2.17442 0.685774 0
M  V30 4096 C 374.415 1.12617 1.14918 0
M  V30 4097 O 375.607 1.3857 1.10124 0
M  V30 4098 C 372.736 2.86685 1.88856 0
M  V30 4099 C 371.822 3.98749 1.4443 0
M  V30 4100 N 372.213 5.00744 0.713364 0
M  V30 4101 C 370.511 4.11052 1.73068 0
M  V30 4102 C 371.212 5.79673 0.485205 0
M  V30 4103 N 370.188 5.33454 1.04536 0
M  V30 4104 H 373.99 2.93659 0.119022 0
M  V30 4105 H 371.504 1.62362 -0.0348995 0
M  V30 4106 H 373.501 3.29218 2.55776 0
M  V30 4107 H 372.161 2.11967 2.45967 0
M  V30 4108 H 373.172 5.16613 0.364861 0
M  V30 4109 H 369.849 3.47495 2.31416 0
M  V30 4110 H 371.239 6.71829 -0.097365 0
M  V30 4111 N 373.959 -0.0401083 1.57549 0
M  V30 4112 C 375.199 -0.738098 1.90608 0
M  V30 4113 C 375.563 -1.73107 0.830539 0
M  V30 4114 O 376.764 -2.4765 1.04513 0
M  V30 4115 C 375.035 -1.39985 3.28845 0
M  V30 4116 S 376.594 -2.12852 3.83718 0
M  V30 4117 H 373.412 -0.24477 0.667539 0
M  V30 4118 H 376.014 0.00693599 1.95499 0
M  V30 4119 H 374.718 -0.663775 4.04997 0
M  V30 4120 H 374.249 -2.18366 3.2723 0
M  V30 4121 H 376.264 -3.39842 3.61555 0
M  V30 4122 N 375.437 -1.54477 -0.31217 0
M  V30 4123 C 376.683 -1.73483 -1.0503 0
M  V30 4124 C 377.016 -0.513125 -1.87298 0
M  V30 4125 O 376.291 0.489864 -1.8823 0
M  V30 4126 C 376.574 -3.01723 -1.96558 0
M  V30 4127 C 376.427 -4.3417 -1.17545 0
M  V30 4128 C 377.746 -3.25772 -2.95907 0
M  V30 4129 H 374.865 -0.631222 -0.380432 0
M  V30 4130 H 377.507 -1.87184 -0.325932 0
M  V30 4131 H 375.657 -2.90174 -2.58324 0
M  V30 4132 H 377.329 -4.5762 -0.581513 0
M  V30 4133 H 375.572 -4.31159 -0.477925 0
M  V30 4134 H 376.243 -5.20143 -1.84811 0
M  V30 4135 H 378.719 -3.36857 -2.44267 0
M  V30 4136 H 377.595 -4.16838 -3.57123 0
M  V30 4137 H 377.856 -2.43537 -3.68974 0
M  V30 4138 N 376.915 0.57481 -1.46744 0
M  V30 4139 C 378.164 1.32898 -1.51727 0
M  V30 4140 C 378.477 1.948 -0.176692 0
M  V30 4141 O 379.683 2.71299 -0.104385 0
M  V30 4142 C 378.139 2.40901 -2.67385 0
M  V30 4143 C 377.747 1.85266 -4.07898 0
M  V30 4144 C 379.491 3.17609 -2.81646 0
M  V30 4145 C 377.398 2.90945 -5.14883 0
M  V30 4146 H 376.328 0.499631 -0.564699 0
M  V30 4147 H 378.979 0.612536 -1.72975 0
M  V30 4148 H 377.361 3.15379 -2.39483 0
M  V30 4149 H 378.535 1.17278 -4.45626 0
M  V30 4150 H 376.85 1.21199 -3.98371 0
M  V30 4151 H 379.447 3.96493 -3.58744 0
M  V30 4152 H 379.79 3.70696 -1.89448 0
M  V30 4153 H 380.323 2.50239 -3.09233 0
M  V30 4154 H 377.062 2.42736 -6.089 0
M  V30 4155 H 376.582 3.57398 -4.81691 0
M  V30 4156 H 378.261 3.54755 -5.41071 0
M  V30 4157 N 378.394 1.34581 0.820102 0
M  V30 4158 C 379.624 1.29991 1.6058 0
M  V30 4159 C 380.032 -0.127588 1.88769 0
M  V30 4160 O 379.375 -1.08595 1.48165 0
M  V30 4161 C 379.437 2.02548 2.9701 0
M  V30 4162 C 379.101 3.51794 2.91701 0
M  V30 4163 C 380.098 4.46647 2.66087 0
M  V30 4164 C 377.783 3.94249 3.11245 0
M  V30 4165 C 379.777 5.81929 2.60071 0
M  V30 4166 C 377.464 5.2963 3.04853 0
M  V30 4167 C 378.462 6.23282 2.793 0
M  V30 4168 O 378.15 7.56181 2.72847 0
M  V30 4169 H 377.882 0.448539 0.505756 0
M  V30 4170 H 380.436 1.77811 1.02822 0
M  V30 4171 H 378.666 1.49345 3.56697 0
M  V30 4172 H 380.355 1.91211 3.58041 0
M  V30 4173 H 381.121 4.15168 2.5072 0
M  V30 4174 H 377 3.21749 3.30149 0
M  V30 4175 H 380.544 6.54999 2.40046 0
M  V30 4176 H 376.441 5.60727 3.19774 0
M  V30 4177 H 377.209 7.6595 2.88553 0
M  V30 4178 N 379.872 -1.04064 1.18357 0
M  V30 4179 C 380.802 -2.14001 0.934113 0
M  V30 4180 C 381.783 -1.69616 -0.128186 0
M  V30 4181 O 382.968 -1.94185 0.0244093 0
M  V30 4182 C 380.098 -3.44253 0.459066 0
M  V30 4183 C 379.052 -4.02261 1.46185 0
M  V30 4184 C 378.378 -5.27992 0.844322 0
M  V30 4185 C 379.678 -4.38432 2.83856 0
M  V30 4186 H 381.372 -2.35127 1.85352 0
M  V30 4187 H 378.918 -1.12998 0.892604 0
M  V30 4188 H 380.871 -4.20522 0.271907 0
M  V30 4189 H 379.595 -3.22813 -0.495912 0
M  V30 4190 H 378.254 -3.28074 1.63595 0
M  V30 4191 H 377.902 -5.02862 -0.117845 0
M  V30 4192 H 377.602 -5.67765 1.51384 0
M  V30 4193 H 379.126 -6.06938 0.667693 0
M  V30 4194 H 380.54 -5.05688 2.70098 0
M  V30 4195 H 378.937 -4.89254 3.47491 0
M  V30 4196 H 380.007 -3.4826 3.37406 0
M  V30 4197 N 381.35 -0.985608 -1.22978 0
M  V30 4198 C 382.313 -0.535071 -2.22867 0
M  V30 4199 C 383.313 0.378123 -1.56291 0
M  V30 4200 O 384.503 0.171092 -1.73358 0
M  V30 4201 C 381.635 0.222702 -3.40172 0
M  V30 4202 H 382.828 -1.41835 -2.6424 0
M  V30 4203 H 380.381 -0.772042 -1.35901 0
M  V30 4204 H 381.116 1.12229 -3.04262 0
M  V30 4205 H 380.901 -0.43288 -3.89703 0
M  V30 4206 H 382.391 0.526335 -4.1427 0
M  V30 4207 N 382.828 1.3818 -0.7579 0
M  V30 4208 C 384.239 1.82726 -0.383134 0
M  V30 4209 C 384.59 1.63214 1.08884 0
M  V30 4210 O 383.715 1.13566 1.84205 0
M  V30 4211 C 384.31 3.31728 -0.688631 0
M  V30 4212 C 382.869 3.74606 -0.367091 0
M  V30 4213 C 382.016 2.60896 -0.939599 0
M  V30 4214 H 384.967 1.26847 -0.953699 0
M  V30 4215 H 384.988 3.80487 0.0316492 0
M  V30 4216 H 384.5 3.45898 -1.76001 0
M  V30 4217 H 382.601 3.66013 0.697532 0
M  V30 4218 H 382.714 4.71215 -0.865658 0
M  V30 4219 H 381.078 2.52075 -0.3647 0
M  V30 4220 H 381.861 2.77864 -2.0161 0
M  V30 4221 N 384.306 0.507319 1.49211 0
M  V30 4222 C 385.554 -0.0348839 2.0207 0
M  V30 4223 C 385.875 -1.36898 1.38866 0
M  V30 4224 O 385.145 -1.88133 0.546151 0
M  V30 4225 H 383.725 -0.0158812 0.746831 0
M  V30 4226 H 386.387 0.665998 1.83168 0
M  V30 4227 H 385.483 -0.159917 3.1169 0
M  V30 4228 N 385.784 -1.5574 0.241426 0
M  V30 4229 C 387.061 -1.90704 -0.434881 0
M  V30 4230 C 387.441 -1.16145 -1.76277 0
M  V30 4231 O 386.789 -0.277152 -2.26813 0
M  V30 4232 C 386.999 -3.43657 -0.608343 0
M  V30 4233 C 388.347 -4.14806 -0.906725 0
M  V30 4234 O 389.371 -3.49366 -0.694408 0
M  V30 4235 O 388.23 -5.30548 -1.31075 0
M  V30 4236 H 385.324 -0.793592 -0.23268 0
M  V30 4237 H 387.87 -1.67288 0.285086 0
M  V30 4238 H 386.642 -3.89927 0.327505 0
M  V30 4239 H 386.265 -3.72918 -1.37906 0
M  V30 4240 N 387.262 0.0317525 -1.57568 0
M  V30 4241 C 388.492 0.733884 -1.93126 0
M  V30 4242 C 388.9 1.69563 -0.839352 0
M  V30 4243 O 388.243 1.82681 0.193175 0
M  V30 4244 C 388.305 1.54798 -3.24465 0
M  V30 4245 C 387.969 0.751304 -4.50782 0
M  V30 4246 C 388.966 0.0527632 -5.19873 0
M  V30 4247 C 386.651 0.706639 -4.97305 0
M  V30 4248 C 388.645 -0.679774 -6.33765 0
M  V30 4249 C 386.332 -0.0296449 -6.11093 0
M  V30 4250 C 387.33 -0.721614 -6.79177 0
M  V30 4251 O 387.018 -1.44595 -7.90789 0
M  V30 4252 H 386.75 0.211459 -0.642076 0
M  V30 4253 H 389.304 -0.00585615 -2.05399 0
M  V30 4254 H 387.534 2.33147 -3.08512 0
M  V30 4255 H 389.223 2.13247 -3.4537 0
M  V30 4256 H 389.989 0.0783188 -4.84937 0
M  V30 4257 H 385.868 1.23474 -4.44157 0
M  V30 4258 H 389.412 -1.22042 -6.86842 0
M  V30 4259 H 385.309 -0.0571331 -6.45475 0
M  V30 4260 H 386.077 -1.35935 -8.07133 0
M  V30 4261 N 388.74 1.54641 0.303973 0
M  V30 4262 C 389.69 1.8177 1.37636 0
M  V30 4263 C 390.674 0.674697 1.46071 0
M  V30 4264 O 391.866 0.935251 1.50273 0
M  V30 4265 C 388.995 2.06584 2.74186 0
M  V30 4266 C 388.081 3.2706 2.69986 0
M  V30 4267 N 388.472 4.47682 2.35402 0
M  V30 4268 C 386.77 3.29028 3.01092 0
M  V30 4269 C 387.471 5.29689 2.40426 0
M  V30 4270 N 386.447 4.67339 2.7766 0
M  V30 4271 H 390.249 2.72596 1.09857 0
M  V30 4272 H 387.763 1.541 0.51254 0
M  V30 4273 H 389.76 2.24166 3.51504 0
M  V30 4274 H 388.42 1.17024 3.02879 0
M  V30 4275 H 389.431 4.74336 2.07908 0
M  V30 4276 H 386.108 2.49565 3.34699 0
M  V30 4277 H 387.498 6.3606 2.16512 0
M  V30 4278 N 390.218 -0.567019 1.47046 0
M  V30 4279 C 391.458 -1.3355 1.54738 0
M  V30 4280 C 391.822 -1.90947 0.200772 0
M  V30 4281 O 393.023 -2.68367 0.152489 0
M  V30 4282 C 391.294 -2.42317 2.62712 0
M  V30 4283 S 392.853 -3.29383 2.89918 0
M  V30 4284 H 389.671 -0.454788 0.546525 0
M  V30 4285 H 392.273 -0.650191 1.84371 0
M  V30 4286 H 390.977 -1.98568 3.59164 0
M  V30 4287 H 390.508 -3.15601 2.34861 0
M  V30 4288 H 392.523 -4.41548 2.26384 0
M  V30 4289 N 391.696 -1.35014 -0.812953 0
M  V30 4290 C 392.943 -1.27931 -1.56971 0
M  V30 4291 C 393.271 0.148034 -1.93936 0
M  V30 4292 O 392.526 1.11175 -1.61054 0
M  V30 4293 C 392.825 -2.12524 -2.87347 0
M  V30 4294 C 392.491 -3.61401 -2.6963 0
M  V30 4295 C 391.153 -4.01983 -2.64506 0
M  V30 4296 C 393.505 -4.55894 -2.52607 0
M  V30 4297 C 390.833 -5.35235 -2.40293 0
M  V30 4298 C 393.185 -5.89336 -2.29925 0
M  V30 4299 C 391.849 -6.2907 -2.23219 0
M  V30 4300 H 391.119 -0.468131 -0.574399 0
M  V30 4301 H 393.766 -1.66851 -0.939836 0
M  V30 4302 H 392.071 -1.66463 -3.54679 0
M  V30 4303 H 393.768 -2.04383 -3.45005 0
M  V30 4304 H 390.358 -3.29193 -2.74463 0
M  V30 4305 H 394.542 -4.25431 -2.55583 0
M  V30 4306 H 389.798 -5.65028 -2.33566 0
M  V30 4307 H 393.972 -6.62139 -2.15743 0
M  V30 4308 H 391.599 -7.32256 -2.04219 0
M  V30 4309 N 393.175 1.03435 -1.18907 0
M  V30 4310 C 394.125 2.09924 -0.889706 0
M  V30 4311 C 395.109 1.60261 0.143216 0
M  V30 4312 O 396.301 1.76892 -0.0617122 0
M  V30 4313 C 393.43 3.40669 -0.424168 0
M  V30 4314 C 392.516 3.97082 -1.48952 0
M  V30 4315 N 392.907 4.27227 -2.70759 0
M  V30 4316 C 391.205 4.25029 -1.35152 0
M  V30 4317 C 391.906 4.7246 -3.39347 0
M  V30 4318 N 390.882 4.7366 -2.66735 0
M  V30 4319 H 394.684 2.31116 -1.81555 0
M  V30 4320 H 392.198 1.21246 -1.08042 0
M  V30 4321 H 394.195 4.16461 -0.191176 0
M  V30 4322 H 392.855 3.20901 0.495263 0
M  V30 4323 H 393.866 4.16678 -3.0757 0
M  V30 4324 H 390.543 4.14554 -0.495126 0
M  V30 4325 H 391.933 5.04751 -4.43481 0
M  V30 4326 N 394.653 0.992116 1.22453 0
M  V30 4327 C 395.878 0.685644 1.95739 0
M  V30 4328 C 396.303 -0.743 1.72804 0
M  V30 4329 O 395.661 -1.50778 1.00676 0
M  V30 4330 C 395.709 0.996293 3.46564 0
M  V30 4331 O 394.813 0.0945512 4.12292 0
M  V30 4332 H 394.154 0.256694 0.612376 0
M  V30 4333 H 396.684 1.32888 1.5557 0
M  V30 4334 H 396.694 0.93781 3.97076 0
M  V30 4335 H 395.369 2.03733 3.62582 0
M  V30 4336 H 393.946 0.208451 3.72317 0
M  V30 4337 N 396.131 -1.37776 0.765217 0
M  V30 4338 C 397.542 -1.82521 0.392819 0
M  V30 4339 C 397.893 -1.63789 -1.08017 0
M  V30 4340 O 397.018 -1.14542 -1.83601 0
M  V30 4341 C 397.613 -3.31358 0.706214 0
M  V30 4342 C 396.172 -3.74406 0.386952 0
M  V30 4343 C 395.319 -2.60394 0.953422 0
M  V30 4344 H 398.27 -1.2634 0.960412 0
M  V30 4345 H 398.291 -3.80498 -0.0114706 0
M  V30 4346 H 397.803 -3.44959 1.77833 0
M  V30 4347 H 395.904 -3.66377 -0.678112 0
M  V30 4348 H 396.017 -4.70749 0.890636 0
M  V30 4349 H 394.381 -2.51878 0.378064 0
M  V30 4350 H 395.164 -2.76791 2.03081 0
M  V30 4351 N 397.609 -0.515225 -1.4894 0
M  V30 4352 C 398.837 0.0206034 -2.0689 0
M  V30 4353 C 399.252 1.29514 -1.37374 0
M  V30 4354 O 398.609 1.76698 -0.456529 0
M  V30 4355 C 398.66 0.26351 -3.60538 0
M  V30 4356 O 398.381 -0.960517 -4.27441 0
M  V30 4357 C 399.882 0.841383 -4.35242 0
M  V30 4358 H 397.102 -0.0268608 -0.670462 0
M  V30 4359 H 399.646 -0.716651 -1.91532 0
M  V30 4360 H 397.801 0.950777 -3.75552 0
M  V30 4361 H 398.215 -0.73212 -5.19365 0
M  V30 4362 H 399.689 0.96085 -5.43573 0
M  V30 4363 H 400.166 1.8427 -3.98674 0
M  V30 4364 H 400.772 0.191143 -4.2487 0
M  V30 4365 N 399.087 1.5561 -0.249682 0
M  V30 4366 C 400.364 1.90932 0.424761 0
M  V30 4367 C 400.744 1.17078 1.75658 0
M  V30 4368 O 400.092 0.289176 2.26663 0
M  V30 4369 C 400.302 3.43975 0.590109 0
M  V30 4370 C 401.65 4.15281 0.884714 0
M  V30 4371 O 402.674 3.49729 0.67587 0
M  V30 4372 O 401.533 5.31236 1.28259 0
M  V30 4373 H 398.627 0.794815 0.228468 0
M  V30 4374 H 401.173 1.67135 -0.293954 0
M  V30 4375 H 399.945 3.89748 -0.34818 0
M  V30 4376 H 399.568 3.73644 1.35926 0
M  V30 4377 N 400.565 -0.0233959 1.57583 0
M  V30 4378 C 401.811 -0.708611 1.90657 0
M  V30 4379 C 402.166 -1.7266 0.848895 0
M  V30 4380 O 401.459 -1.91075 -0.141749 0
M  V30 4381 C 401.653 -1.41428 3.28227 0
M  V30 4382 C 401.482 -0.466155 4.47277 0
M  V30 4383 C 400.252 -0.085117 5.05228 0
M  V30 4384 C 402.45 0.257836 5.13653 0
M  V30 4385 N 400.432 0.863672 6.07794 0
M  V30 4386 C 401.803 1.06209 6.10835 0
M  V30 4387 C 403.858 0.324174 4.96844 0
M  V30 4388 C 402.561 1.9266 6.93018 0
M  V30 4389 C 404.587 1.17583 5.79593 0
M  V30 4390 C 403.949 1.96799 6.7635 0
M  V30 4391 H 400.048 -0.233222 0.746412 0
M  V30 4392 H 402.632 0.0314512 1.94675 0
M  V30 4393 H 400.803 -2.12477 3.25128 0
M  V30 4394 H 402.535 -2.05233 3.488 0
M  V30 4395 H 399.29 -0.448516 4.71471 0
M  V30 4396 H 399.714 1.33274 6.63752 0
M  V30 4397 H 404.356 -0.273975 4.21911 0
M  V30 4398 H 402.074 2.53552 7.67292 0
M  V30 4399 H 405.66 1.23076 5.68633 0
M  V30 4400 H 404.54 2.61635 7.39268 0
M  V30 4401 N 402.043 -1.548 -0.295768 0
M  V30 4402 C 403.271 -1.78327 -1.04914 0
M  V30 4403 C 403.686 -0.545316 -1.80753 0
M  V30 4404 O 403.043 0.485013 -1.75937 0
M  V30 4405 C 403.094 -2.99418 -2.02561 0
M  V30 4406 O 402.815 -4.18431 -1.29798 0
M  V30 4407 C 404.316 -3.35375 -2.89895 0
M  V30 4408 H 401.536 -0.594618 -0.310918 0
M  V30 4409 H 404.08 -2.01763 -0.333454 0
M  V30 4410 H 402.235 -2.78175 -2.69624 0
M  V30 4411 H 402.649 -4.86736 -1.95419 0
M  V30 4412 H 404.123 -4.23332 -3.54251 0
M  V30 4413 H 404.6 -2.53761 -3.58472 0
M  V30 4414 H 405.206 -3.58796 -2.28355 0
M  V30 4415 N 403.521 0.559213 -1.47345 0
M  V30 4416 C 404.767 1.31843 -1.54095 0
M  V30 4417 C 405.1 1.93149 -0.201726 0
M  V30 4418 O 404.375 1.77759 0.789428 0
M  V30 4419 C 404.658 2.43006 -2.65744 0
M  V30 4420 C 404.511 1.86581 -4.09277 0
M  V30 4421 C 405.83 3.44943 -2.73318 0
M  V30 4422 H 402.949 0.478012 -0.560957 0
M  V30 4423 H 405.591 0.625977 -1.79392 0
M  V30 4424 H 403.741 3.02072 -2.44305 0
M  V30 4425 H 405.413 1.31792 -4.42073 0
M  V30 4426 H 403.656 1.17268 -4.17649 0
M  V30 4427 H 404.327 2.66933 -4.83168 0
M  V30 4428 H 406.803 2.95793 -2.92653 0
M  V30 4429 H 405.679 4.20153 -3.53218 0
M  V30 4430 H 405.94 4.03665 -1.80296 0
M  V30 4431 N 404.999 1.35443 0.805782 0
M  V30 4432 C 406.224 1.32037 1.59941 0
M  V30 4433 C 406.649 -0.0994215 1.87837 0
M  V30 4434 O 406.007 -1.06648 1.46615 0
M  V30 4435 C 406.055 2.13354 2.90711 0
M  V30 4436 O 405.159 1.5148 3.83572 0
M  V30 4437 H 404.5 0.452666 0.485787 0
M  V30 4438 H 407.03 1.78496 1.00002 0
M  V30 4439 H 407.04 2.25338 3.40128 0
M  V30 4440 H 405.715 3.16572 2.69732 0
M  V30 4441 H 404.292 1.4834 3.42125 0
M  V30 4442 N 406.477 -1.02803 1.19454 0
M  V30 4443 C 407.427 -2.0945 0.900827 0
M  V30 4444 C 408.411 -1.60335 -0.134715 0
M  V30 4445 O 409.603 -1.76857 0.0710924 0
M  V30 4446 C 406.732 -3.4044 0.442229 0
M  V30 4447 C 405.818 -3.96286 1.51056 0
M  V30 4448 N 406.209 -4.25785 2.73021 0
M  V30 4449 C 404.507 -4.24307 1.37404 0
M  V30 4450 C 405.208 -4.70654 3.41848 0
M  V30 4451 N 404.184 -4.72238 2.69243 0
M  V30 4452 H 407.986 -2.3015 1.82779 0
M  V30 4453 H 405.5 -1.20672 1.08683 0
M  V30 4454 H 407.497 -4.16354 0.21326 0
M  V30 4455 H 406.157 -3.21159 -0.478238 0
M  V30 4456 H 407.168 -4.15041 3.09776 0
M  V30 4457 H 403.845 -4.14285 0.517103 0
M  V30 4458 H 405.235 -5.02392 4.46152 0
M  V30 4459 N 407.956 -0.998596 -1.21925 0
M  V30 4460 C 409.372 -0.710303 -1.42923 0
M  V30 4461 C 409.572 0.716933 -1.88314 0
M  V30 4462 O 408.628 1.48712 -2.04062 0
M  V30 4463 C 409.941 -1.72072 -2.466 0
M  V30 4464 C 411.489 -1.73681 -2.60392 0
M  V30 4465 C 411.964 -2.73601 -3.67296 0
M  V30 4466 N 413.455 -2.7223 -3.7476 0
M  V30 4467 C 414.19 -3.46206 -4.57087 0
M  V30 4468 N 413.686 -4.29802 -5.43362 0
M  V30 4469 N 415.479 -3.34886 -4.51451 0
M  V30 4470 H 407.63 -1.92028 -0.9077 0
M  V30 4471 H 409.893 -0.828487 -0.460775 0
M  V30 4472 H 409.599 -2.74231 -2.20206 0
M  V30 4473 H 409.473 -1.51818 -3.45299 0
M  V30 4474 H 411.86 -0.722173 -2.86127 0
M  V30 4475 H 411.941 -1.98005 -1.61949 0
M  V30 4476 H 411.585 -3.75217 -3.42307 0
M  V30 4477 H 411.515 -2.46545 -4.65321 0
M  V30 4478 H 414.006 -2.11576 -3.1312 0
M  V30 4479 H 414.319 -4.83061 -6.03218 0
M  V30 4480 H 412.664 -4.33887 -5.42925 0
M  V30 4481 H 415.855 -2.69015 -3.83078 0
M  V30 4482 H 416.028 -3.92796 -5.15379 0
M  V30 4483 N 409.434 1.37368 -0.772513 0
M  V30 4484 C 410.85 1.53059 -0.452231 0
M  V30 4485 C 411.05 1.73065 1.03203 0
M  V30 4486 O 410.106 1.75245 1.81784 0
M  V30 4487 C 411.419 2.72659 -1.26797 0
M  V30 4488 C 412.967 2.86521 -1.25995 0
M  V30 4489 C 413.442 4.09105 -2.05905 0
M  V30 4490 N 414.933 4.16219 -2.03263 0
M  V30 4491 C 415.668 5.10107 -2.61875 0
M  V30 4492 N 415.164 6.09547 -3.29278 0
M  V30 4493 N 416.957 5.02596 -2.51701 0
M  V30 4494 H 409.108 1.22634 -1.7342 0
M  V30 4495 H 411.371 0.597206 -0.736239 0
M  V30 4496 H 411.077 2.64343 -2.31982 0
M  V30 4497 H 410.951 3.66363 -0.897672 0
M  V30 4498 H 413.338 2.94308 -0.216081 0
M  V30 4499 H 413.419 1.93774 -1.66989 0
M  V30 4500 H 413.063 4.0208 -3.10313 0
M  V30 4501 H 412.993 5.00968 -1.62292 0
M  V30 4502 H 415.484 3.45012 -1.54192 0
M  V30 4503 H 415.797 6.77718 -3.71374 0
M  V30 4504 H 414.142 6.09824 -3.33377 0
M  V30 4505 H 417.333 4.23855 -1.98657 0
M  V30 4506 H 417.506 5.75582 -2.97673 0
M  V30 4507 N 410.912 0.523116 1.48665 0
M  V30 4508 C 411.862 -0.263106 2.26477 0
M  V30 4509 C 412.846 -0.916005 1.32281 0
M  V30 4510 O 414.038 -0.819946 1.56863 0
M  V30 4511 C 411.167 -1.31361 3.17174 0
M  V30 4512 C 410.253 -0.665849 4.1884 0
M  V30 4513 N 410.644 0.244434 5.05209 0
M  V30 4514 C 408.942 -0.923863 4.36326 0
M  V30 4515 C 409.643 0.617443 5.78414 0
M  V30 4516 N 408.619 -0.0198686 5.43596 0
M  V30 4517 H 412.421 0.437295 2.90629 0
M  V30 4518 H 409.935 0.340675 1.58787 0
M  V30 4519 H 411.932 -1.89052 3.71571 0
M  V30 4520 H 410.592 -2.01546 2.54576 0
M  V30 4521 H 411.603 0.616621 5.14216 0
M  V30 4522 H 408.28 -1.6168 3.84923 0
M  V30 4523 H 409.67 1.36346 6.57921 0
M  V30 4524 N 412.39 -1.55475 0.257931 0
M  V30 4525 C 413.637 -1.99207 -0.363728 0
M  V30 4526 C 413.965 -1.1462 -1.57139 0
M  V30 4527 O 413.22 -0.199653 -1.94679 0
M  V30 4528 C 413.519 -3.48183 -0.806433 0
M  V30 4529 C 413.185 -4.49936 0.294684 0
M  V30 4530 C 411.847 -4.77481 0.597076 0
M  V30 4531 C 414.199 -5.10769 1.03751 0
M  V30 4532 C 411.527 -5.63132 1.64618 0
M  V30 4533 C 413.879 -5.97558 2.07622 0
M  V30 4534 C 412.543 -6.23432 2.38514 0
M  V30 4535 H 411.813 -0.728949 -0.133097 0
M  V30 4536 H 414.46 -1.8793 0.368059 0
M  V30 4537 H 412.765 -3.56848 -1.61761 0
M  V30 4538 H 414.462 -3.79415 -1.29789 0
M  V30 4539 H 411.052 -4.28572 0.0488649 0
M  V30 4540 H 415.236 -4.89527 0.817149 0
M  V30 4541 H 410.492 -5.8143 1.89074 0
M  V30 4542 H 414.666 -6.43735 2.65666 0
M  V30 4543 H 412.293 -6.89594 3.19943 0
M  V30 4544 N 413.868 0.0150385 -1.57593 0
M  V30 4545 C 415.279 0.559832 -1.78109 0
M  V30 4546 C 415.63 1.74814 -0.890756 0
M  V30 4547 O 414.755 2.16216 -0.0892482 0
M  V30 4548 C 415.35 1.02238 -3.23006 0
M  V30 4549 C 413.909 1.51258 -3.44671 0
M  V30 4550 C 413.056 0.456955 -2.73509 0
M  V30 4551 H 416.007 -0.211169 -1.57289 0
M  V30 4552 H 416.028 1.88912 -3.30292 0
M  V30 4553 H 415.54 0.157302 -3.87781 0
M  V30 4554 H 413.641 2.39905 -2.8509 0
M  V30 4555 H 413.754 1.55042 -4.5332 0
M  V30 4556 H 412.118 0.915196 -2.37689 0
M  V30 4557 H 412.901 -0.398896 -3.40975 0
M  V30 4558 N 415.346 1.54954 0.287554 0
M  V30 4559 C 416.594 1.74528 1.01904 0
M  V30 4560 C 416.915 0.541349 1.87335 0
M  V30 4561 O 416.185 -0.444108 1.908 0
M  V30 4562 H 414.765 0.643576 0.379235 0
M  V30 4563 H 417.427 1.92333 0.315294 0
M  V30 4564 H 416.523 2.64015 1.6644 0
M  V30 4565 N 416.824 -0.551391 1.4764 0
M  V30 4566 C 418.049 -1.33837 1.58437 0
M  V30 4567 C 418.474 -1.866 0.237063 0
M  V30 4568 O 417.832 -1.6328 -0.787994 0
M  V30 4569 C 417.88 -2.48014 2.61766 0
M  V30 4570 O 416.984 -3.50419 2.1744 0
M  V30 4571 H 416.325 -0.397299 0.532024 0
M  V30 4572 H 418.855 -0.665759 1.93465 0
M  V30 4573 H 418.865 -2.94503 2.82369 0
M  V30 4574 H 417.54 -2.08969 3.5959 0
M  V30 4575 H 416.117 -3.10196 2.06961 0
M  V30 4576 N 418.302 -1.35869 -0.798587 0
M  V30 4577 C 419.232 -1.32118 -1.92528 0
M  V30 4578 C 420.213 -0.194209 -1.68988 0
M  V30 4579 O 421.398 -0.390426 -1.90235 0
M  V30 4580 C 418.528 -1.10047 -3.29404 0
M  V30 4581 C 417.482 -2.19471 -3.67446 0
M  V30 4582 C 416.808 -1.82555 -5.02571 0
M  V30 4583 C 418.108 -3.61495 -3.76987 0
M  V30 4584 H 419.802 -2.26394 -1.95924 0
M  V30 4585 H 417.348 -1.08981 -0.94123 0
M  V30 4586 H 419.301 -1.06061 -4.07835 0
M  V30 4587 H 418.025 -0.122195 -3.26371 0
M  V30 4588 H 416.684 -2.22568 -2.91306 0
M  V30 4589 H 416.332 -0.833249 -4.9605 0
M  V30 4590 H 416.032 -2.5581 -5.28995 0
M  V30 4591 H 417.556 -1.80108 -5.83432 0
M  V30 4592 H 418.97 -3.60676 -4.4563 0
M  V30 4593 H 417.367 -4.33577 -4.14887 0
M  V30 4594 H 418.437 -3.97065 -2.78329 0
M  V30 4595 N 419.78 1.02168 -1.19998 0
M  V30 4596 C 420.713 2.10232 -0.887558 0
M  V30 4597 C 421.691 1.61827 0.158317 0
M  V30 4598 O 422.875 1.88471 0.0330249 0
M  V30 4599 C 420.002 3.37092 -0.32964 0
M  V30 4600 C 419.048 4.0438 -1.3557 0
M  V30 4601 S 419.881 4.48956 -2.91888 0
M  V30 4602 C 421.037 5.79024 -2.37658 0
M  V30 4603 H 421.27 2.36409 -1.80272 0
M  V30 4604 H 418.803 1.15211 -1.0279 0
M  V30 4605 H 420.761 4.10498 -0.0142824 0
M  V30 4606 H 419.422 3.08996 0.563941 0
M  V30 4607 H 418.615 4.95632 -0.9146 0
M  V30 4608 H 418.217 3.37176 -1.61828 0
M  V30 4609 H 420.509 6.53942 -1.77103 0
M  V30 4610 H 421.452 6.27924 -3.27287 0
M  V30 4611 H 421.86 5.35043 -1.79971 0
M  V30 4612 N 421.258 1.00505 1.21394 0
M  V30 4613 C 422.483 0.706367 1.95001 0
M  V30 4614 C 422.908 -0.72463 1.73582 0
M  V30 4615 O 422.266 -1.49702 1.0227 0
M  V30 4616 C 422.314 1.03299 3.45487 0
M  V30 4617 O 421.418 0.138275 4.12168 0
M  V30 4618 H 420.759 0.263175 0.609619 0
M  V30 4619 H 423.289 1.34531 1.54151 0
M  V30 4620 H 423.299 0.979872 3.96059 0
M  V30 4621 H 421.974 2.07567 3.60401 0
M  V30 4622 H 420.551 0.247928 3.72075 0
M  V30 4623 N 422.737 -1.36956 0.779787 0
M  V30 4624 C 423.983 -1.99787 0.348281 0
M  V30 4625 C 424.316 -1.61756 -1.07465 0
M  V30 4626 O 423.591 -0.867639 -1.74075 0
M  V30 4627 C 423.874 -3.56597 0.50104 0
M  V30 4628 C 423.727 -4.04513 1.96697 0
M  V30 4629 C 425.046 -4.40008 -0.0898097 0
M  V30 4630 H 422.165 -0.725796 0.128022 0
M  V30 4631 H 424.807 -1.62514 0.984331 0
M  V30 4632 H 422.957 -3.88479 -0.0404347 0
M  V30 4633 H 424.629 -3.83161 2.56876 0
M  V30 4634 H 422.872 -3.56408 2.47297 0
M  V30 4635 H 423.543 -5.1352 2.02486 0
M  V30 4636 H 426.019 -4.14431 0.372293 0
M  V30 4637 H 424.895 -5.4888 0.0471605 0
M  V30 4638 H 425.156 -4.26035 -1.18096 0
M  V30 4639 N 424.215 -0.530993 -1.48385 0
M  V30 4640 C 425.163 0.244595 -2.3131 0
M  V30 4641 C 426.157 0.93451 -1.41291 0
M  V30 4642 O 427.363 0.85878 -1.58193 0
M  V30 4643 H 423.738 0.0977472 -0.74562 0
M  V30 4644 H 425.709 -0.474369 -2.94605 0
M  V30 4645 C 424.458 1.2779 -3.23365 0
M  V30 4646 H 423.781 0.756439 -3.92579 0
M  V30 4647 H 425.221 1.79198 -3.84271 0
M  V30 4648 C 423.68 2.31205 -2.45042 0
M  V30 4649 O 424.21 3.37661 -2.17596 0
M  V30 4650 N 422.416 2.04446 -2.0652 0
M  V30 4651 H 421.963 1.17891 -2.2904 0
M  V30 4652 H 421.921 2.73861 -1.54427 0
M  V30 4653 N 425.693 1.55336 -0.266172 0
M  V30 4654 C 427.104 1.85236 0.233315 0
M  V30 4655 C 427.455 1.18816 1.56132 0
M  V30 4656 O 426.58 0.473307 2.11161 0
M  V30 4657 C 427.175 3.36059 0.430113 0
M  V30 4658 C 425.734 3.66116 0.873842 0
M  V30 4659 C 424.881 2.77274 -0.0380016 0
M  V30 4660 H 427.832 1.51004 -0.488214 0
M  V30 4661 H 427.853 3.58681 1.26998 0
M  V30 4662 H 427.365 3.84373 -0.536588 0
M  V30 4663 H 425.466 3.23295 1.85233 0
M  V30 4664 H 425.579 4.73699 0.717358 0
M  V30 4665 H 423.943 2.50198 0.476759 0
M  V30 4666 H 424.726 3.284 -1.00042 0
M  V30 4667 N 427.171 -0.0066808 1.57599 0
M  V30 4668 C 428.419 -0.691552 1.899 0
M  V30 4669 C 428.74 -1.74682 0.866672 0
M  V30 4670 O 428.01 -1.95661 -0.0968189 0
M  V30 4671 H 426.59 -0.258416 0.700878 0
M  V30 4672 H 429.252 0.0326655 1.94873 0
M  V30 4673 H 428.348 -1.16702 2.8946 0
M  V30 4674 N 428.649 -1.55105 -0.279332 0
M  V30 4675 C 429.582 -1.82467 -1.37044 0
M  V30 4676 C 430.56 -0.677261 -1.47824 0
M  V30 4677 O 431.744 -0.919578 -1.64548 0
M  V30 4678 C 428.871 -1.98066 -2.7475 0
M  V30 4679 C 427.917 -3.20594 -2.81286 0
M  V30 4680 S 428.75 -4.78116 -2.41175 0
M  V30 4681 C 429.906 -4.9668 -3.80867 0
M  V30 4682 H 430.139 -2.74728 -1.1363 0
M  V30 4683 H 427.672 -1.46794 -0.478625 0
M  V30 4684 H 429.63 -2.07739 -3.54055 0
M  V30 4685 H 428.291 -1.06704 -2.9542 0
M  V30 4686 H 427.484 -3.28376 -3.82341 0
M  V30 4687 H 427.086 -3.09479 -2.09996 0
M  V30 4688 H 429.378 -4.82033 -4.76078 0
M  V30 4689 H 430.321 -5.98741 -3.78041 0
M  V30 4690 H 430.729 -4.24698 -3.71876 0
M  V30 4691 N 430.127 0.543554 -1.4793 0
M  V30 4692 C 431.09 1.63156 -1.60975 0
M  V30 4693 C 432.09 1.53346 -0.483899 0
M  V30 4694 O 433.28 1.5726 -0.749339 0
M  V30 4695 C 430.412 3.02743 -1.56716 0
M  V30 4696 H 431.605 1.52934 -2.57975 0
M  V30 4697 H 429.158 0.764557 -1.36324 0
M  V30 4698 H 429.893 3.18484 -0.611418 0
M  V30 4699 H 429.678 3.11272 -2.38438 0
M  V30 4700 H 431.168 3.81871 -1.6901 0
M  V30 4701 N 431.605 1.3629 0.791371 0
M  V30 4702 C 433.021 1.16661 1.08914 0
M  V30 4703 C 433.221 -0.0106266 2.01497 0
M  V30 4704 O 432.277 -0.676596 2.43266 0
M  V30 4705 C 433.59 2.47656 1.70549 0
M  V30 4706 C 435.138 2.54002 1.82899 0
M  V30 4707 C 435.613 3.85078 2.47949 0
M  V30 4708 N 437.104 3.86413 2.5542 0
M  V30 4709 C 437.839 4.84572 3.06557 0
M  V30 4710 N 437.335 5.93124 3.58016 0
M  V30 4711 N 439.128 4.71994 3.05251 0
M  V30 4712 H 431.279 2.11668 0.176238 0
M  V30 4713 H 433.542 0.937486 0.140796 0
M  V30 4714 H 433.248 3.34059 1.09989 0
M  V30 4715 H 433.122 2.63319 2.70079 0
M  V30 4716 H 435.509 1.68018 2.42598 0
M  V30 4717 H 435.59 2.42239 0.821808 0
M  V30 4718 H 435.234 4.71467 1.88895 0
M  V30 4719 H 435.164 3.94135 3.49235 0
M  V30 4720 H 437.655 3.07988 2.18979 0
M  V30 4721 H 437.968 6.63999 3.95381 0
M  V30 4722 H 436.313 5.96796 3.56173 0
M  V30 4723 H 439.504 3.86321 2.64336 0
M  V30 4724 H 439.677 5.48653 3.44796 0
M  V30 4725 N 433.083 -1.0153 1.20538 0
M  V30 4726 C 434.329 -1.75517 1.02787 0
M  V30 4727 C 434.684 -1.87411 -0.435289 0
M  V30 4728 O 433.977 -1.38982 -1.31889 0
M  V30 4729 C 434.171 -3.17213 1.64654 0
M  V30 4730 C 434 -3.19134 3.16834 0
M  V30 4731 C 432.77 -3.26301 3.85818 0
M  V30 4732 C 434.968 -3.05077 4.14044 0
M  V30 4733 N 432.95 -3.17739 5.25276 0
M  V30 4734 C 434.321 -3.04299 5.40187 0
M  V30 4735 C 436.376 -2.89303 4.05226 0
M  V30 4736 C 435.079 -2.89365 6.58529 0
M  V30 4737 C 437.105 -2.75723 5.23193 0
M  V30 4738 C 436.467 -2.75612 6.48242 0
M  V30 4739 H 432.566 -0.652919 0.430373 0
M  V30 4740 H 435.15 -1.20755 1.52729 0
M  V30 4741 H 433.321 -3.70266 1.17294 0
M  V30 4742 H 435.053 -3.79637 1.40208 0
M  V30 4743 H 431.808 -3.33078 3.36684 0
M  V30 4744 H 432.232 -3.16829 5.98288 0
M  V30 4745 H 436.874 -2.88201 3.09354 0
M  V30 4746 H 434.592 -2.89216 7.54573 0
M  V30 4747 H 438.178 -2.64533 5.18183 0
M  V30 4748 H 437.058 -2.65224 7.37988 0
M  V30 4749 N 434.561 -1.01147 -1.20859 0
M  V30 4750 C 435.81 -0.693214 -1.89413 0
M  V30 4751 C 436.123 0.779969 -1.79376 0
M  V30 4752 O 437.329 1.21057 -2.43017 0
M  V30 4753 C 435.785 -1.18949 -3.39675 0
M  V30 4754 C 435.393 -2.68921 -3.58309 0
M  V30 4755 C 437.137 -0.94642 -4.13815 0
M  V30 4756 C 435.044 -3.12056 -5.0237 0
M  V30 4757 H 433.974 -0.255595 -0.709357 0
M  V30 4758 H 436.625 -1.22349 -1.36759 0
M  V30 4759 H 435.007 -0.587228 -3.91622 0
M  V30 4760 H 436.181 -3.34652 -3.16772 0
M  V30 4761 H 434.496 -2.91314 -2.97532 0
M  V30 4762 H 437.093 -1.24417 -5.20023 0
M  V30 4763 H 437.436 0.117219 -4.16135 0
M  V30 4764 H 437.969 -1.5118 -3.67953 0
M  V30 4765 H 434.708 -4.17674 -5.05202 0
M  V30 4766 H 434.228 -2.51041 -5.44737 0
M  V30 4767 H 435.907 -3.04403 -5.70918 0
M  V30 4768 N 436.039 1.36541 -0.78704 0
M  V30 4769 C 436.986 2.30082 -0.181901 0
M  V30 4770 C 437.956 1.5186 0.672896 0
M  V30 4771 O 439.141 1.80374 0.622072 0
M  V30 4772 C 436.281 3.3835 0.679197 0
M  V30 4773 C 435.394 4.31565 -0.193882 0
M  V30 4774 C 434.529 5.26915 0.673364 0
M  V30 4775 C 433.568 6.11769 -0.201315 0
M  V30 4776 N 432.705 6.99315 0.624777 0
M  V30 4777 H 437.545 2.81248 -0.985064 0
M  V30 4778 H 435.082 1.38437 -0.497342 0
M  V30 4779 H 437.04 3.99767 1.19341 0
M  V30 4780 H 435.67 2.8851 1.44781 0
M  V30 4781 H 434.722 3.71323 -0.826044 0
M  V30 4782 H 436.034 4.91191 -0.867937 0
M  V30 4783 H 435.188 5.9361 1.25348 0
M  V30 4784 H 433.927 4.67737 1.38105 0
M  V30 4785 H 432.932 5.44039 -0.793849 0
M  V30 4786 H 434.157 6.73022 -0.906568 0
M  V30 4787 H 432.103 6.42648 1.3168 0
M  V30 4788 H 432.02 7.56 0.00835237 0
M  V30 4789 H 433.288 7.70382 1.18879 0
M  V30 4790 N 437.518 0.538854 1.48102 0
M  V30 4791 C 438.428 -0.222648 2.33541 0
M  V30 4792 C 439.444 -0.930225 1.47047 0
M  V30 4793 O 440.62 -0.903211 1.80011 0
M  V30 4794 C 437.685 -1.25064 3.23357 0
M  V30 4795 C 436.746 -0.552469 4.2573 0
M  V30 4796 C 435.979 -1.53149 5.11254 0
M  V30 4797 O 436.202 -2.76487 4.9891 0
M  V30 4798 O 435.136 -1.06602 5.92385 0
M  V30 4799 H 438.962 0.477707 2.99919 0
M  V30 4800 H 436.547 0.299669 1.46364 0
M  V30 4801 H 438.429 -1.8445 3.78888 0
M  V30 4802 H 437.104 -1.93325 2.59629 0
M  V30 4803 H 436.011 0.082114 3.7401 0
M  V30 4804 H 437.344 0.0883526 4.92121 0
M  V30 4805 N 438.996 -1.55193 0.274407 0
M  V30 4806 C 439.926 -2.25471 -0.607032 0
M  V30 4807 C 440.907 -1.24461 -1.15946 0
M  V30 4808 O 442.092 -1.53179 -1.19373 0
M  V30 4809 C 439.222 -2.97526 -1.79153 0
M  V30 4810 C 438.176 -4.05459 -1.37067 0
M  V30 4811 C 437.502 -4.65084 -2.6382 0
M  V30 4812 C 438.802 -5.19691 -0.521389 0
M  V30 4813 H 440.496 -2.99393 -0.0209343 0
M  V30 4814 H 438.042 -1.43997 -0.00862866 0
M  V30 4815 H 439.995 -3.45402 -2.41404 0
M  V30 4816 H 438.719 -2.21138 -2.40344 0
M  V30 4817 H 437.378 -3.58393 -0.771355 0
M  V30 4818 H 437.026 -3.85365 -3.23268 0
M  V30 4819 H 436.726 -5.37961 -2.36372 0
M  V30 4820 H 438.25 -5.15708 -3.26921 0
M  V30 4821 H 439.664 -5.63623 -1.04889 0
M  V30 4822 H 438.061 -5.99126 -0.341825 0
M  V30 4823 H 439.131 -4.82713 0.46 0
M  V30 4824 N 440.474 -0.00167713 -1.576 0
M  V30 4825 C 441.721 0.68282 -1.90641 0
M  V30 4826 C 442.049 1.73686 -0.875415 0
M  V30 4827 O 441.304 1.95334 0.119575 0
M  V30 4828 C 441.603 1.36189 -3.30435 0
M  V30 4829 C 441.269 0.440887 -4.48739 0
M  V30 4830 C 439.931 0.187312 -4.80835 0
M  V30 4831 C 442.283 -0.193134 -5.20842 0
M  V30 4832 C 439.611 -0.70855 -5.82406 0
M  V30 4833 C 441.963 -1.07688 -6.23367 0
M  V30 4834 C 440.627 -1.33962 -6.53919 0
M  V30 4835 H 439.897 0.249862 -0.697603 0
M  V30 4836 H 442.544 -0.0575642 -1.91413 0
M  V30 4837 H 440.849 2.17636 -3.25794 0
M  V30 4838 H 442.546 1.89759 -3.5326 0
M  V30 4839 H 439.136 0.648694 -4.23663 0
M  V30 4840 H 443.32 -0.0102445 -4.96299 0
M  V30 4841 H 438.576 -0.920097 -6.04437 0
M  V30 4842 H 442.75 -1.57451 -6.78367 0
M  V30 4843 H 440.377 -2.03549 -7.32442 0
M  V30 4844 N 441.952 1.55251 0.271103 0
M  V30 4845 C 443.192 1.77698 1.01008 0
M  V30 4846 C 443.556 0.567246 1.83429 0
M  V30 4847 O 444.757 0.670013 2.60316 0
M  V30 4848 C 443.028 3.04715 1.86772 0
M  V30 4849 S 444.587 3.48289 2.66909 0
M  V30 4850 H 441.405 0.624343 0.340172 0
M  V30 4851 H 444.007 1.9348 0.280315 0
M  V30 4852 H 442.711 3.90853 1.25149 0
M  V30 4853 H 442.242 2.91604 2.64066 0
M  V30 4854 H 444.257 3.07712 3.89266 0
M  V30 4855 N 443.43 -0.535701 1.48216 0
M  V30 4856 C 444.38 -1.63688 1.58714 0
M  V30 4857 C 445.364 -1.54635 0.444615 0
M  V30 4858 O 446.556 -1.62753 0.695742 0
M  V30 4859 C 443.685 -3.02423 1.62466 0
M  V30 4860 C 442.771 -3.16601 2.82178 0
M  V30 4861 N 443.162 -3.00771 4.06658 0
M  V30 4862 C 441.46 -3.47645 2.79391 0
M  V30 4863 C 442.161 -3.18213 4.86945 0
M  V30 4864 N 441.137 -3.45528 4.19656 0
M  V30 4865 H 444.939 -1.5005 2.5271 0
M  V30 4866 H 442.453 -0.741018 1.44508 0
M  V30 4867 H 444.45 -3.81517 1.6808 0
M  V30 4868 H 443.11 -3.17157 0.695826 0
M  V30 4869 H 444.121 -2.77652 4.37184 0
M  V30 4870 H 440.798 -3.68771 1.95739 0
M  V30 4871 H 442.188 -3.1076 5.95716 0
M  V30 4872 N 444.908 -1.36708 -0.784132 0
M  V30 4873 C 445.856 -1.31533 -1.91838 0
M  V30 4874 C 446.85 -0.206205 -1.6814 0
M  V30 4875 O 448.056 -0.373519 -1.76082 0
M  V30 4876 H 444.431 -0.409613 -0.630651 0
M  V30 4877 H 446.402 -2.2731 -1.9332 0
M  V30 4878 C 445.151 -1.12679 -3.28936 0
M  V30 4879 H 444.474 -1.97274 -3.4774 0
M  V30 4880 H 445.914 -1.13106 -4.08636 0
M  V30 4881 C 444.373 0.168281 -3.36479 0
M  V30 4882 O 444.903 1.15625 -3.84699 0
M  V30 4883 N 443.109 0.214762 -2.89805 0
M  V30 4884 H 442.656 -0.589852 -2.50756 0
M  V30 4885 H 442.614 1.08094 -2.95234 0
M  V30 4886 N 446.386 1.0089 -1.21074 0
M  V30 4887 C 447.296 2.13039 -0.982425 0
M  V30 4888 C 448.312 1.73881 0.0642161 0
M  V30 4889 O 449.488 2.01012 -0.12496 0
M  V30 4890 C 446.553 3.42377 -0.545803 0
M  V30 4891 C 445.614 3.95731 -1.6642 0
M  V30 4892 C 444.847 5.18896 -1.24832 0
M  V30 4893 O 445.07 5.70273 -0.120265 0
M  V30 4894 O 444.004 5.65597 -2.05873 0
M  V30 4895 H 447.83 2.35175 -1.92163 0
M  V30 4896 H 445.415 1.1142 -0.995285 0
M  V30 4897 H 447.297 4.20244 -0.311912 0
M  V30 4898 H 445.972 3.21639 0.364727 0
M  V30 4899 H 444.879 3.19108 -1.95246 0
M  V30 4900 H 446.212 4.20872 -2.55201 0
M  V30 4901 N 447.864 1.01787 1.20321 0
M  V30 4902 C 449.28 0.732951 1.41774 0
M  V30 4903 C 449.48 -0.686883 1.89431 0
M  V30 4904 O 448.536 -1.45446 2.06402 0
M  V30 4905 C 449.849 1.75973 2.43832 0
M  V30 4906 C 451.397 1.77802 2.57596 0
M  V30 4907 C 451.872 2.7941 3.62897 0
M  V30 4908 N 453.363 2.78157 3.70382 0
M  V30 4909 C 454.098 3.53434 4.51521 0
M  V30 4910 N 453.594 4.38392 5.36455 0
M  V30 4911 N 455.387 3.42026 4.46066 0
M  V30 4912 H 447.538 1.93447 0.877035 0
M  V30 4913 H 449.801 0.835712 0.447536 0
M  V30 4914 H 449.507 2.77699 2.15815 0
M  V30 4915 H 449.381 1.57292 3.4284 0
M  V30 4916 H 451.768 0.767602 2.84942 0
M  V30 4917 H 451.849 2.00557 1.58779 0
M  V30 4918 H 451.493 3.80616 3.36295 0
M  V30 4919 H 451.423 2.53916 4.61339 0
M  V30 4920 H 453.914 2.16531 3.09714 0
M  V30 4921 H 454.227 4.92596 5.95457 0
M  V30 4922 H 452.572 4.4247 5.35953 0
M  V30 4923 H 455.763 2.75075 3.78749 0
M  V30 4924 H 455.936 4.00946 5.09064 0
M  V30 4925 N 449.342 -1.36122 0.79427 0
M  V30 4926 C 450.588 -1.99406 0.369452 0
M  V30 4927 C 450.921 -1.62886 -1.05743 0
M  V30 4928 O 450.196 -0.886053 -1.73145 0
M  V30 4929 C 450.479 -3.56046 0.538833 0
M  V30 4930 C 450.332 -4.02404 2.00976 0
M  V30 4931 C 451.651 -4.40079 -0.0431359 0
M  V30 4932 H 448.77 -0.724397 0.135712 0
M  V30 4933 H 451.412 -1.61461 1.00151 0
M  V30 4934 H 449.562 -3.885 0.000771004 0
M  V30 4935 H 451.234 -3.80415 2.60926 0
M  V30 4936 H 449.477 -3.53765 2.51063 0
M  V30 4937 H 450.148 -5.11344 2.07922 0
M  V30 4938 H 452.624 -4.14013 0.416228 0
M  V30 4939 H 451.5 -5.48799 0.105374 0
M  V30 4940 H 451.761 -4.27264 -1.13571 0
M  V30 4941 N 450.82 -0.546701 -1.47814 0
M  V30 4942 C 452.066 -0.0187684 -2.02791 0
M  V30 4943 C 452.399 1.32338 -1.42128 0
M  V30 4944 O 451.674 1.85867 -0.573023 0
M  V30 4945 C 451.957 0.0854985 -3.59998 0
M  V30 4946 C 451.81 -1.283 -4.31114 0
M  V30 4947 C 453.129 0.80412 -4.32691 0
M  V30 4948 H 450.248 -0.0082946 -0.736953 0
M  V30 4949 H 452.89 -0.706962 -1.76358 0
M  V30 4950 H 451.04 0.671609 -3.82651 0
M  V30 4951 H 452.712 -1.91151 -4.19832 0
M  V30 4952 H 450.955 -1.86049 -3.91878 0
M  V30 4953 H 451.626 -1.16287 -5.39612 0
M  V30 4954 H 454.102 0.306576 -4.14969 0
M  V30 4955 H 452.978 0.846011 -5.42341 0
M  V30 4956 H 453.239 1.85802 -4.01161 0
M  V30 4957 N 452.299 1.55045 -0.282633 0
M  V30 4958 C 453.229 2.2579 0.595066 0
M  V30 4959 C 454.21 1.25074 1.15284 0
M  V30 4960 O 455.395 1.5381 1.18559 0
M  V30 4961 C 452.525 2.98472 1.77572 0
M  V30 4962 C 451.479 4.0618 1.34914 0
M  V30 4963 C 450.805 4.66477 2.6135 0
M  V30 4964 C 452.105 5.1996 0.493821 0
M  V30 4965 H 453.799 2.994 0.00505653 0
M  V30 4966 H 451.345 1.44 0.000992001 0
M  V30 4967 H 453.298 3.46677 2.39568 0
M  V30 4968 H 452.022 2.2241 2.39168 0
M  V30 4969 H 450.681 3.58797 0.752338 0
M  V30 4970 H 450.329 3.87074 3.2122 0
M  V30 4971 H 450.029 5.39207 2.33516 0
M  V30 4972 H 451.553 5.17435 3.24181 0
M  V30 4973 H 452.967 5.64172 1.01898 0
M  V30 4974 H 451.364 5.99299 0.310047 0
M  V30 4975 H 452.434 4.82462 -0.485593 0
M  V30 4976 N 453.777 0.010035 1.57597 0
M  V30 4977 C 455.005 -0.683413 1.95287 0
M  V30 4978 C 455.42 -1.66747 0.885481 0
M  V30 4979 O 454.777 -1.82003 -0.134629 0
M  V30 4980 C 454.828 -1.40652 3.33015 0
M  V30 4981 O 454.549 -0.461916 4.35658 0
M  V30 4982 C 456.05 -2.19356 3.85225 0
M  V30 4983 H 453.27 -0.189708 0.643624 0
M  V30 4984 H 455.814 0.0641359 2.04399 0
M  V30 4985 H 453.969 -2.10562 3.2518 0
M  V30 4986 H 454.383 -0.973215 5.15392 0
M  V30 4987 H 455.857 -2.65433 4.83993 0
M  V30 4988 H 456.334 -3.02457 3.18459 0
M  V30 4989 H 456.94 -1.54442 3.96267 0
M  V30 4990 N 455.255 -1.55392 -0.262866 0
M  V30 4991 C 456.503 -1.76127 -0.991147 0
M  V30 4992 C 456.824 -0.571083 -1.8645 0
M  V30 4993 O 456.094 0.413698 -1.91482 0
M  V30 4994 H 454.674 -0.649528 -0.368948 0
M  V30 4995 H 457.336 -1.9281 -0.284655 0
M  V30 4996 H 456.432 -2.6663 -1.62219 0
M  V30 4997 N 456.733 0.527833 -1.48498 0
M  V30 4998 C 458.01 1.28905 -1.47115 0
M  V30 4999 C 458.39 2.10297 -0.184007 0
M  V30 5000 O 457.738 2.12728 0.834218 0
M  V30 5001 C 457.948 2.16866 -2.73441 0
M  V30 5002 C 459.296 2.76936 -3.21857 0
M  V30 5003 O 460.32 2.27152 -2.74373 0
M  V30 5004 O 459.179 3.67496 -4.04486 0
M  V30 5005 H 456.273 0.581918 -0.587623 0
M  V30 5006 H 458.819 0.544311 -1.60734 0
M  V30 5007 H 457.591 1.56521 -3.58632 0
M  V30 5008 H 457.214 2.98583 -2.62553 0
M  V30 5009 N 458.211 1.37122 0.776871 0
M  V30 5010 C 459.457 1.3325 1.53675 0
M  V30 5011 C 459.812 -0.0839891 1.92217 0
M  V30 5012 O 459.105 -1.04145 1.60824 0
M  V30 5013 C 459.299 2.20068 2.81611 0
M  V30 5014 C 459.128 3.70016 2.55574 0
M  V30 5015 C 457.898 4.39144 2.4996 0
M  V30 5016 C 460.096 4.62996 2.23917 0
M  V30 5017 N 458.078 5.74663 2.15953 0
M  V30 5018 C 459.449 5.86854 2.00005 0
M  V30 5019 C 461.504 4.51433 2.1003 0
M  V30 5020 C 460.207 7.00446 1.63609 0
M  V30 5021 C 462.233 5.64905 1.75033 0
M  V30 5022 C 461.595 6.8781 1.51977 0
M  V30 5023 H 457.694 0.542878 0.562856 0
M  V30 5024 H 460.278 1.72295 0.906784 0
M  V30 5025 H 458.449 1.83248 3.42454 0
M  V30 5026 H 460.181 2.07492 3.47461 0
M  V30 5027 H 456.936 3.92088 2.65639 0
M  V30 5028 H 457.36 6.46268 2.0166 0
M  V30 5029 H 462.002 3.56987 2.26539 0
M  V30 5030 H 459.72 7.94831 1.45837 0
M  V30 5031 H 463.306 5.57926 1.64952 0
M  V30 5032 H 462.186 7.74126 1.25296 0
M  V30 5033 N 459.689 -1.00246 1.21608 0
M  V30 5034 C 460.636 -2.09073 0.977613 0
M  V30 5035 C 461.606 -1.65815 -0.097297 0
M  V30 5036 O 462.791 -1.90734 0.0503445 0
M  V30 5037 C 459.931 -3.40671 0.551133 0
M  V30 5038 C 459.044 -3.97326 1.69576 0
M  V30 5039 C 458.179 -5.17043 1.2182 0
M  V30 5040 C 457.218 -5.65813 2.335 0
M  V30 5041 N 456.355 -6.76778 1.86859 0
M  V30 5042 H 461.195 -2.28806 1.90924 0
M  V30 5043 H 458.732 -1.12186 0.951452 0
M  V30 5044 H 460.69 -4.16225 0.285097 0
M  V30 5045 H 459.32 -3.20967 -0.343489 0
M  V30 5046 H 458.372 -3.18734 2.07637 0
M  V30 5047 H 459.684 -4.29511 2.53617 0
M  V30 5048 H 458.838 -5.99852 0.908975 0
M  V30 5049 H 457.577 -4.86458 0.347869 0
M  V30 5050 H 456.582 -4.81599 2.65222 0
M  V30 5051 H 457.807 -5.98427 3.21033 0
M  V30 5052 H 455.753 -6.47994 1.02174 0
M  V30 5053 H 455.67 -7.08231 2.64471 0
M  V30 5054 H 456.938 -7.63116 1.58978 0
M  V30 5055 N 461.167 -1.02423 -1.1978 0
M  V30 5056 C 462.117 -0.571689 -2.20716 0
M  V30 5057 C 463.101 0.377077 -1.56419 0
M  V30 5058 O 464.293 0.198801 -1.7588 0
M  V30 5059 C 461.422 0.0808555 -3.43205 0
M  V30 5060 C 460.508 -0.890073 -4.14655 0
M  V30 5061 N 460.899 -2.05065 -4.62366 0
M  V30 5062 C 459.197 -0.71252 -4.40272 0
M  V30 5063 C 459.898 -2.66264 -5.17183 0
M  V30 5064 N 458.874 -1.94264 -5.07703 0
M  V30 5065 H 462.676 -1.45636 -2.55279 0
M  V30 5066 H 460.19 -0.890596 -1.35802 0
M  V30 5067 H 462.187 0.422654 -4.14752 0
M  V30 5068 H 460.847 0.961274 -3.10144 0
M  V30 5069 H 461.858 -2.43026 -4.57339 0
M  V30 5070 H 458.535 0.119199 -4.1733 0
M  V30 5071 H 459.925 -3.64526 -5.64421 0
M  V30 5072 N 462.645 1.35699 -0.801477 0
M  V30 5073 C 463.893 1.9852 -0.37871 0
M  V30 5074 C 464.214 1.63907 1.05638 0
M  V30 5075 O 463.484 0.919013 1.73006 0
M  V30 5076 H 462.064 0.734322 -0.137042 0
M  V30 5077 H 464.726 1.65697 -1.02619 0
M  V30 5078 H 463.822 3.08382 -0.480284 0
M  V30 5079 N 464.123 0.554532 1.47522 0
M  V30 5080 C 465.37 0.029479 2.02479 0
M  V30 5081 C 465.698 -1.31929 1.42916 0
M  V30 5082 O 464.953 -1.87112 0.573385 0
M  V30 5083 C 465.252 -0.115927 3.57212 0
M  V30 5084 C 464.918 1.16161 4.3568 0
M  V30 5085 C 463.58 1.51168 4.56839 0
M  V30 5086 C 465.932 2.0083 4.80954 0
M  V30 5087 C 463.26 2.70696 5.2052 0
M  V30 5088 C 465.612 3.19559 5.45953 0
M  V30 5089 C 464.276 3.54882 5.65345 0
M  V30 5090 H 463.546 0.0107871 0.740921 0
M  V30 5091 H 466.193 0.725506 1.77225 0
M  V30 5092 H 464.498 -0.894902 3.81443 0
M  V30 5093 H 466.195 -0.53749 3.97381 0
M  V30 5094 H 462.785 0.879026 4.19489 0
M  V30 5095 H 466.969 1.75093 4.64388 0
M  V30 5096 H 462.225 2.98236 5.33728 0
M  V30 5097 H 466.399 3.85456 5.79997 0
M  V30 5098 H 464.026 4.47596 6.1446 0
M  V30 5099 N 465.601 -1.54893 0.290851 0
M  V30 5100 C 466.848 -1.99933 -0.321391 0
M  V30 5101 C 467.176 -1.17927 -1.54672 0
M  V30 5102 O 466.431 -0.240902 -1.94212 0
M  V30 5103 C 466.73 -3.49815 -0.732397 0
M  V30 5104 C 466.396 -4.4921 0.390056 0
M  V30 5105 C 465.058 -4.76107 0.698223 0
M  V30 5106 C 467.41 -5.08453 1.14562 0
M  V30 5107 C 464.738 -5.59514 1.76526 0
M  V30 5108 C 467.09 -5.9302 2.2025 0
M  V30 5109 C 465.754 -6.18232 2.51684 0
M  V30 5110 H 465.024 -0.731608 -0.117605 0
M  V30 5111 H 467.671 -1.87107 0.407839 0
M  V30 5112 H 465.976 -3.60199 -1.54155 0
M  V30 5113 H 467.673 -3.82083 -1.21712 0
M  V30 5114 H 464.263 -4.28372 0.13976 0
M  V30 5115 H 468.447 -4.87683 0.920801 0
M  V30 5116 H 463.703 -5.77289 2.01364 0
M  V30 5117 H 467.877 -6.37955 2.7926 0
M  V30 5118 H 465.504 -6.82653 3.34499 0
M  V30 5119 N 467.08 -0.0183926 -1.57589 0
M  V30 5120 C 468.305 0.676634 -1.96052 0
M  V30 5121 C 468.73 1.6548 -0.894307 0
M  V30 5122 O 468.088 1.80712 0.145849 0
M  V30 5123 C 468.136 1.36872 -3.33614 0
M  V30 5124 O 467.24 2.48372 -3.29219 0
M  V30 5125 H 466.581 0.1786 -0.63953 0
M  V30 5126 H 469.111 -0.077056 -2.04455 0
M  V30 5127 H 469.121 1.72797 -3.69601 0
M  V30 5128 H 467.796 0.651636 -4.10763 0
M  V30 5129 H 466.373 2.14639 -3.04934 0
M  V30 5130 N 468.558 1.5553 0.254621 0
M  V30 5131 C 469.488 1.9268 1.31897 0
M  V30 5132 C 470.469 0.790797 1.506 0
M  V30 5133 O 471.654 1.05045 1.63337 0
M  V30 5134 C 468.784 2.21477 2.67517 0
M  V30 5135 C 467.738 3.37256 2.63519 0
M  V30 5136 C 467.064 3.51576 4.02862 0
M  V30 5137 C 468.364 4.73157 2.21179 0
M  V30 5138 H 470.058 2.81832 1.01051 0
M  V30 5139 H 467.604 1.35599 0.484662 0
M  V30 5140 H 469.557 2.46055 3.42104 0
M  V30 5141 H 468.281 1.29144 2.99982 0
M  V30 5142 H 466.94 3.12675 1.9139 0
M  V30 5143 H 466.588 2.56676 4.32581 0
M  V30 5144 H 466.288 4.2943 4.01078 0
M  V30 5145 H 467.812 3.78467 4.79161 0
M  V30 5146 H 469.226 4.97158 2.85494 0
M  V30 5147 H 467.623 5.54058 2.30521 0
M  V30 5148 H 468.693 4.70739 1.16332 0
M  V30 5149 N 470.036 -0.519951 1.48776 0
M  V30 5150 C 471.264 -1.29971 1.60982 0
M  V30 5151 C 471.679 -1.86803 0.273885 0
M  V30 5152 O 471.036 -1.66904 -0.738193 0
M  V30 5153 C 471.087 -2.44346 2.66415 0
M  V30 5154 O 470.808 -1.89855 3.94825 0
M  V30 5155 C 472.309 -3.36014 2.89153 0
M  V30 5156 H 469.529 -0.394891 0.542496 0
M  V30 5157 H 472.073 -0.626214 1.94676 0
M  V30 5158 H 470.228 -3.07562 2.35552 0
M  V30 5159 H 470.642 -2.64798 4.5275 0
M  V30 5160 H 472.116 -4.12593 3.66703 0
M  V30 5161 H 472.593 -3.91859 1.98351 0
M  V30 5162 H 473.199 -2.78582 3.21359 0
M  V30 5163 N 471.514 -1.37532 -0.769588 0
M  V30 5164 C 472.477 -1.33292 -1.86456 0
M  V30 5165 C 473.477 -0.236537 -1.59051 0
M  V30 5166 O 474.667 -0.492511 -1.67093 0
M  V30 5167 C 471.799 -1.07118 -3.23633 0
M  V30 5168 H 472.992 -2.30692 -1.91628 0
M  V30 5169 H 470.545 -1.22593 -0.969572 0
M  V30 5170 H 471.28 -0.102578 -3.24138 0
M  V30 5171 H 471.065 -1.86479 -3.44917 0
M  V30 5172 H 472.555 -1.06806 -4.03711 0
M  V30 5173 N 472.992 0.995999 -1.22138 0
M  V30 5174 C 474.238 1.73767 -1.04561 0
M  V30 5175 C 474.571 1.89633 0.418698 0
M  V30 5176 O 473.846 1.43723 1.3105 0
M  V30 5177 C 474.129 3.14505 -1.75382 0
M  V30 5178 C 473.982 3.06306 -3.29388 0
M  V30 5179 C 475.301 4.13615 -1.50369 0
M  V30 5180 H 472.42 0.630728 -0.38125 0
M  V30 5181 H 475.062 1.16057 -1.50435 0
M  V30 5182 H 473.212 3.63775 -1.36383 0
M  V30 5183 H 474.884 2.64681 -3.77812 0
M  V30 5184 H 473.127 2.43186 -3.59226 0
M  V30 5185 H 473.798 4.05884 -3.74116 0
M  V30 5186 H 476.274 3.73089 -1.84239 0
M  V30 5187 H 475.15 5.10212 -2.02421 0
M  V30 5188 H 475.411 4.39949 -0.435611 0
M  V30 5189 N 474.47 1.03057 1.19235 0
M  V30 5190 C 475.718 0.726581 1.88587 0
M  V30 5191 C 476.039 -0.747227 1.80115 0
M  V30 5192 O 475.309 -1.53849 1.21274 0
M  V30 5193 H 473.889 0.265768 0.698124 0
M  V30 5194 H 476.551 1.30516 1.44746 0
M  V30 5195 H 475.647 1.0224 2.94879 0
M  V30 5196 N 475.948 -1.35272 0.808662 0
M  V30 5197 C 476.911 -2.28082 0.226093 0
M  V30 5198 C 477.911 -1.49673 -0.587762 0
M  V30 5199 O 479.101 -1.69404 -0.405943 0
M  V30 5200 C 476.233 -3.33955 -0.684596 0
M  V30 5201 H 477.426 -2.81116 1.04469 0
M  V30 5202 H 474.979 -1.45162 0.579466 0
M  V30 5203 H 475.714 -2.86111 -1.5268 0
M  V30 5204 H 475.499 -3.91965 -0.102699 0
M  V30 5205 H 476.989 -4.03219 -1.08646 0
M  V30 5206 N 477.426 -0.562348 -1.47226 0
M  V30 5207 C 478.654 -0.0452275 -2.06851 0
M  V30 5208 C 479.069 1.25078 -1.41424 0
M  V30 5209 O 478.426 1.75156 -0.512513 0
M  V30 5210 C 478.477 0.148674 -3.61194 0
M  V30 5211 O 478.198 -1.09602 -4.24169 0
M  V30 5212 C 479.699 0.702488 -4.37699 0
M  V30 5213 H 476.919 -0.0481775 -0.669268 0
M  V30 5214 H 479.463 -0.777223 -1.89155 0
M  V30 5215 H 477.618 0.830817 -3.78386 0
M  V30 5216 H 478.032 -0.896982 -5.16773 0
M  V30 5217 H 479.506 0.78743 -5.46355 0
M  V30 5218 H 479.983 1.71493 -4.04335 0
M  V30 5219 H 480.589 0.0558772 -4.25263 0
M  V30 5220 N 478.904 1.54736 -0.299062 0
M  V30 5221 C 479.852 2.24897 0.593658 0
M  V30 5222 C 480.846 1.25429 1.13859 0
M  V30 5223 O 482.052 1.43286 1.08945 0
M  V30 5224 H 478.427 0.72207 0.210046 0
M  V30 5225 H 480.398 2.98393 -0.0206421 0
M  V30 5226 C 479.147 3.00159 1.75499 0
M  V30 5227 H 478.47 3.76501 1.34489 0
M  V30 5228 H 479.91 3.52535 2.35574 0
M  V30 5229 C 478.369 2.07015 2.65794 0
M  V30 5230 O 478.899 1.63692 3.66835 0
M  V30 5231 N 477.105 1.73012 2.33485 0
M  V30 5232 H 476.652 2.08439 1.51364 0
M  V30 5233 H 476.61 1.10965 2.94167 0
M  V30 5234 N 480.382 0.0267497 1.57577 0
M  V30 5235 C 481.628 -0.653371 1.91987 0
M  V30 5236 C 481.961 -1.71915 0.903263 0
M  V30 5237 O 481.236 -1.94358 -0.0743387 0
M  V30 5238 C 481.519 -1.272 3.36886 0
M  V30 5239 C 481.372 -0.215938 4.49281 0
M  V30 5240 C 482.691 -2.19069 3.81703 0
M  V30 5241 H 479.81 -0.236047 0.698177 0
M  V30 5242 H 482.452 0.0835236 1.89816 0
M  V30 5243 H 480.602 -1.90005 3.38866 0
M  V30 5244 H 482.274 0.41449 4.59434 0
M  V30 5245 H 480.517 0.458855 4.31366 0
M  V30 5246 H 481.188 -0.688347 5.47691 0
M  V30 5247 H 483.664 -1.66253 3.81444 0
M  V30 5248 H 482.54 -2.59307 4.83788 0
M  V30 5249 H 482.801 -3.08087 3.17072 0
M  V30 5250 N 481.861 -1.55662 -0.24637 0
M  V30 5251 C 483.109 -1.77168 -0.972411 0
M  V30 5252 C 483.43 -0.590827 -1.85834 0
M  V30 5253 O 482.7 0.393365 -1.9191 0
M  V30 5254 H 481.28 -0.653405 -0.362038 0
M  V30 5255 H 483.942 -1.93101 -0.264189 0
M  V30 5256 H 483.038 -2.68335 -1.59382 0
M  V30 5257 N 483.339 0.512053 -1.4905 0
M  V30 5258 C 484.564 1.2959 -1.6193 0
M  V30 5259 C 484.989 1.85906 -0.286454 0
M  V30 5260 O 484.347 1.65312 0.744426 0
M  V30 5261 C 484.395 2.40987 -2.68249 0
M  V30 5262 O 483.499 3.44531 -2.26654 0
M  V30 5263 H 482.84 0.383053 -0.542371 0
M  V30 5264 H 485.37 0.614231 -1.95162 0
M  V30 5265 H 485.38 2.86913 -2.90078 0
M  V30 5266 H 484.055 1.99361 -3.65004 0
M  V30 5267 H 482.632 3.046 -2.15112 0
M  V30 5268 N 484.817 1.37938 0.762283 0
M  V30 5269 C 486.066 1.32989 1.51647 0
M  V30 5270 C 486.379 -0.0802922 1.95435 0
M  V30 5271 O 487.585 -0.252295 2.70325 0
M  V30 5272 C 486.041 2.33485 2.73885 0
M  V30 5273 C 485.649 3.80079 2.37157 0
M  V30 5274 C 487.393 2.37563 3.51801 0
M  V30 5275 C 485.3 4.72283 3.55954 0
M  V30 5276 H 484.23 0.494301 0.56937 0
M  V30 5277 H 486.881 1.63448 0.834083 0
M  V30 5278 H 485.263 1.96056 3.44061 0
M  V30 5279 H 486.437 4.26398 1.74704 0
M  V30 5280 H 484.752 3.79037 1.72395 0
M  V30 5281 H 487.349 3.0365 4.40114 0
M  V30 5282 H 487.692 1.39199 3.92338 0
M  V30 5283 H 488.225 2.73747 2.8863 0
M  V30 5284 H 484.964 5.7181 3.2049 0
M  V30 5285 H 484.484 4.30663 4.1748 0
M  V30 5286 H 486.163 4.89876 4.22647 0
M  V30 5287 N 486.295 -0.989507 1.22664 0
M  V30 5288 C 487.711 -1.25395 0.987331 0
M  V30 5289 C 487.911 -1.9899 -0.317056 0
M  V30 5290 O 486.967 -2.30141 -1.03882 0
M  V30 5291 C 488.28 -2.06242 2.18826 0
M  V30 5292 C 489.828 -2.19413 2.23219 0
M  V30 5293 C 490.303 -3.03648 3.42873 0
M  V30 5294 N 491.794 -3.11234 3.43056 0
M  V30 5295 C 492.529 -3.7671 4.32293 0
M  V30 5296 N 492.025 -4.44085 5.31752 0
M  V30 5297 N 493.818 -3.73505 4.2006 0
M  V30 5298 H 485.969 -0.496212 2.06522 0
M  V30 5299 H 488.232 -0.281784 0.905153 0
M  V30 5300 H 487.938 -1.59531 3.13437 0
M  V30 5301 H 487.812 -3.06996 2.19165 0
M  V30 5302 H 490.199 -2.65336 1.29154 0
M  V30 5303 H 490.28 -1.18078 2.26917 0
M  V30 5304 H 489.924 -2.58424 4.37241 0
M  V30 5305 H 489.854 -4.05132 3.36416 0
M  V30 5306 H 492.345 -2.63287 2.71088 0
M  V30 5307 H 492.658 -4.91797 5.96117 0
M  V30 5308 H 491.003 -4.42822 5.35662 0
M  V30 5309 H 494.194 -3.20033 3.41609 0
M  V30 5310 H 494.367 -4.24253 4.8981 0
M  V30 5311 N 487.773 -1.03688 -1.18687 0
M  V30 5312 C 489.022 -0.733235 -1.879 0
M  V30 5313 C 489.335 0.741745 -1.8099 0
M  V30 5314 O 490.541 1.15875 -2.4553 0
M  V30 5315 C 488.997 -1.26127 -3.37076 0
M  V30 5316 C 488.605 -2.76461 -3.52524 0
M  V30 5317 C 490.349 -1.03398 -4.11715 0
M  V30 5318 C 488.256 -3.22642 -4.95637 0
M  V30 5319 H 487.186 -0.270584 -0.703776 0
M  V30 5320 H 489.837 -1.25222 -1.34133 0
M  V30 5321 H 488.219 -0.670165 -3.90288 0
M  V30 5322 H 489.393 -3.41296 -3.09602 0
M  V30 5323 H 487.708 -2.97559 -2.91286 0
M  V30 5324 H 490.305 -1.3542 -5.17267 0
M  V30 5325 H 490.648 0.0289246 -4.1629 0
M  V30 5326 H 491.181 -1.5895 -3.64664 0
M  V30 5327 H 487.92 -4.28296 -4.96228 0
M  V30 5328 H 487.44 -2.62539 -5.39289 0
M  V30 5329 H 489.119 -3.16444 -5.64333 0
M  V30 5330 N 489.251 1.34841 -0.815825 0
M  V30 5331 C 490.481 2.02436 -0.412695 0
M  V30 5332 C 490.889 1.61604 0.983906 0
M  V30 5333 O 490.232 0.813729 1.64694 0
M  V30 5334 C 490.294 3.56953 -0.427182 0
M  V30 5335 C 489.958 4.21083 -1.77589 0
M  V30 5336 C 490.955 4.42107 -2.73564 0
M  V30 5337 C 488.64 4.58006 -2.06243 0
M  V30 5338 C 490.634 4.99169 -3.9637 0
M  V30 5339 C 488.321 5.1478 -3.2931 0
M  V30 5340 C 489.319 5.35304 -4.24191 0
M  V30 5341 O 489.007 5.90878 -5.45086 0
M  V30 5342 H 488.739 0.655631 -0.164695 0
M  V30 5343 H 491.293 1.73246 -1.1034 0
M  V30 5344 H 489.523 3.85372 0.320175 0
M  V30 5345 H 491.212 4.05875 -0.0450875 0
M  V30 5346 H 491.978 4.13953 -2.52721 0
M  V30 5347 H 487.857 4.41339 -1.33196 0
M  V30 5348 H 491.401 5.15105 -4.70439 0
M  V30 5349 H 487.298 5.42362 -3.5002 0
M  V30 5350 H 488.066 6.0932 -5.46508 0
M  V30 5351 N 490.729 0.570148 1.46925 0
M  V30 5352 C 491.976 0.0509529 2.02436 0
M  V30 5353 C 492.304 -1.30405 1.44308 0
M  V30 5354 O 491.559 -1.86493 0.593198 0
M  V30 5355 C 491.858 -0.0780336 3.57315 0
M  V30 5356 C 491.524 1.20775 4.34424 0
M  V30 5357 C 490.186 1.56004 4.5521 0
M  V30 5358 C 492.538 2.0592 4.78797 0
M  V30 5359 C 489.866 2.76201 5.17619 0
M  V30 5360 C 492.218 3.25332 5.42533 0
M  V30 5361 C 490.882 3.60859 5.61549 0
M  V30 5362 H 490.152 0.018645 0.740765 0
M  V30 5363 H 492.799 0.744262 1.76445 0
M  V30 5364 H 491.104 -0.854394 3.82371 0
M  V30 5365 H 492.801 -0.495312 3.97929 0
M  V30 5366 H 489.391 0.923469 4.18533 0
M  V30 5367 H 493.575 1.80008 4.62505 0
M  V30 5368 H 488.831 3.0388 5.30535 0
M  V30 5369 H 493.005 3.91586 5.75876 0
M  V30 5370 H 490.632 4.54088 6.09678 0
M  V30 5371 N 492.207 -1.54576 0.307264 0
M  V30 5372 C 493.484 -1.92377 -0.353605 0
M  V30 5373 C 493.864 -1.23517 -1.71192 0
M  V30 5374 O 493.212 -0.373101 -2.25433 0
M  V30 5375 C 493.422 -3.45928 -0.462039 0
M  V30 5376 C 494.77 -4.18278 -0.729975 0
M  V30 5377 O 495.794 -3.51997 -0.545605 0
M  V30 5378 O 494.653 -5.3563 -1.08454 0
M  V30 5379 H 491.747 -0.802747 -0.198812 0
M  V30 5380 H 494.293 -1.65929 0.355783 0
M  V30 5381 H 493.065 -3.88187 0.492592 0
M  V30 5382 H 492.688 -3.78431 -1.21965 0
M  V30 5383 N 493.685 -0.035106 -1.57561 0
M  V30 5384 C 495.101 0.321334 -1.56332 0
M  V30 5385 C 495.301 1.72509 -1.04129 0
M  V30 5386 O 494.357 2.4287 -0.690694 0
M  V30 5387 C 495.67 0.164469 -3.0025 0
M  V30 5388 C 497.218 0.236786 -3.12103 0
M  V30 5389 C 497.693 0.10864 -4.57871 0
M  V30 5390 N 499.184 0.165433 -4.62904 0
M  V30 5391 C 499.919 0.0901506 -5.73329 0
M  V30 5392 N 499.415 -0.0365606 -6.9279 0
M  V30 5393 N 501.208 0.144572 -5.61914 0
M  V30 5394 H 493.359 -0.952976 -1.89821 0
M  V30 5395 H 495.622 -0.368537 -0.873432 0
M  V30 5396 H 495.328 -0.802746 -3.42416 0
M  V30 5397 H 495.202 0.932194 -3.655 0
M  V30 5398 H 497.589 1.19446 -2.69845 0
M  V30 5399 H 497.67 -0.561419 -2.49563 0
M  V30 5400 H 497.314 -0.845644 -5.00811 0
M  V30 5401 H 497.244 0.925786 -5.18398 0
M  V30 5402 H 499.735 0.263269 -3.76982 0
M  V30 5403 H 500.048 -0.0871487 -7.72751 0
M  V30 5404 H 498.393 -0.0714256 -6.94963 0
M  V30 5405 H 501.584 0.242006 -4.67474 0
M  V30 5406 H 501.757 0.0824413 -6.47948 0
M  V30 5407 N 495.163 1.55791 0.238111 0
M  V30 5408 C 496.44 1.68798 0.98826 0
M  V30 5409 C 496.82 0.577562 2.03045 0
M  V30 5410 O 496.168 -0.41778 2.24648 0
M  V30 5411 C 496.378 3.09454 1.61367 0
M  V30 5412 C 497.726 3.68335 2.11221 0
M  V30 5413 O 498.75 3.1231 1.71292 0
M  V30 5414 O 497.609 4.6657 2.84561 0
M  V30 5415 H 494.703 0.686881 0.460568 0
M  V30 5416 H 497.249 1.68118 0.231202 0
M  V30 5417 H 496.021 3.81726 0.860295 0
M  V30 5418 H 495.644 3.14182 2.4367 0
M  V30 5419 N 496.642 -0.504142 1.49319 0
M  V30 5420 C 497.572 -1.61473 1.68667 0
M  V30 5421 C 498.553 -1.61455 0.535378 0
M  V30 5422 O 499.738 -1.78245 0.770868 0
M  V30 5423 C 496.868 -2.99971 1.75028 0
M  V30 5424 C 495.822 -3.14854 2.89916 0
M  V30 5425 C 495.148 -4.54671 2.81387 0
M  V30 5426 C 496.448 -2.95176 4.30893 0
M  V30 5427 H 498.142 -1.45535 2.61648 0
M  V30 5428 H 495.688 -0.698711 1.25913 0
M  V30 5429 H 497.641 -3.77562 1.8715 0
M  V30 5430 H 496.365 -3.1699 0.786441 0
M  V30 5431 H 495.024 -2.39687 2.77391 0
M  V30 5432 H 494.672 -4.68562 1.82917 0
M  V30 5433 H 494.372 -4.6557 3.58494 0
M  V30 5434 H 495.896 -5.34327 2.95512 0
M  V30 5435 H 497.31 -3.62538 4.44116 0
M  V30 5436 H 495.707 -3.17549 5.09198 0
M  V30 5437 H 496.777 -1.91332 4.45556 0
M  V30 5438 N 498.12 -1.38341 -0.754957 0
M  V30 5439 C 499.07 -1.31964 -1.85929 0
M  V30 5440 C 500.054 -0.204181 -1.59599 0
M  V30 5441 O 501.246 -0.440036 -1.71443 0
M  V30 5442 C 498.375 -1.14565 -3.2362 0
M  V30 5443 C 497.461 -2.30727 -3.55846 0
M  V30 5444 N 497.852 -3.56165 -3.59138 0
M  V30 5445 C 496.15 -2.23249 -3.86104 0
M  V30 5446 C 496.851 -4.32865 -3.88591 0
M  V30 5447 N 495.827 -3.62203 -4.05351 0
M  V30 5448 H 499.629 -2.2694 -1.8675 0
M  V30 5449 H 497.143 -1.31553 -0.952243 0
M  V30 5450 H 499.14 -1.0808 -4.02647 0
M  V30 5451 H 497.8 -0.205212 -3.24051 0
M  V30 5452 H 498.811 -3.89854 -3.40932 0
M  V30 5453 H 495.488 -1.37357 -3.94258 0
M  V30 5454 H 496.878 -5.41504 -3.97773 0
M  V30 5455 N 499.598 0.982988 -1.23187 0
M  V30 5456 C 500.826 1.75921 -1.08901 0
M  V30 5457 C 501.241 1.85341 0.359719 0
M  V30 5458 O 500.598 1.33072 1.24892 0
M  V30 5459 C 500.649 3.18742 -1.70545 0
M  V30 5460 O 500.37 3.09814 -3.09753 0
M  V30 5461 C 501.871 4.1277 -1.61667 0
M  V30 5462 H 499.091 0.552166 -0.381252 0
M  V30 5463 H 501.635 1.23516 -1.62985 0
M  V30 5464 H 499.79 3.68182 -1.20501 0
M  V30 5465 H 500.204 3.99703 -3.39614 0
M  V30 5466 H 501.678 5.10697 -2.09506 0
M  V30 5467 H 502.155 4.3542 -0.575009 0
M  V30 5468 H 502.761 3.69232 -2.11064 0
M  V30 5469 N 501.076 1.04316 1.18135 0
M  V30 5470 C 502.024 0.630175 2.23901 0
M  V30 5471 C 503.018 -0.344254 1.65865 0
M  V30 5472 O 504.224 -0.211273 1.78756 0
M  V30 5473 H 500.599 0.185578 0.728742 0
M  V30 5474 H 502.57 1.53253 2.56039 0
M  V30 5475 C 501.319 0.011666 3.47698 0
M  V30 5476 H 500.642 0.752526 3.92654 0
M  V30 5477 H 502.082 -0.240046 4.2332 0
M  V30 5478 C 500.541 -1.23913 3.13285 0
M  V30 5479 O 501.071 -2.32959 3.27251 0
M  V30 5480 N 499.277 -1.13338 2.67587 0
M  V30 5481 H 498.824 -0.246006 2.56423 0
M  V30 5482 H 498.782 -1.97116 2.44934 0
M  V30 5483 N 502.554 -1.34406 0.822964 0
M  V30 5484 C 503.779 -2.0304 0.423034 0
M  V30 5485 C 504.204 -1.61568 -0.963196 0
M  V30 5486 O 503.562 -0.800339 -1.62678 0
M  V30 5487 C 503.61 -3.56636 0.53321 0
M  V30 5488 O 502.714 -4.09971 -0.446939 0
M  V30 5489 H 502.055 -0.64075 0.174171 0
M  V30 5490 H 504.585 -1.71653 1.11339 0
M  V30 5491 H 504.595 -4.05945 0.408991 0
M  V30 5492 H 503.27 -3.86168 1.54425 0
M  V30 5493 H 501.847 -3.71835 -0.281601 0
M  V30 5494 N 504.032 -0.577932 -1.46621 0
M  V30 5495 C 505.443 -0.150071 -1.86096 0
M  V30 5496 C 505.794 1.28563 -1.48209 0
M  V30 5497 O 504.919 1.97036 -0.894754 0
M  V30 5498 C 505.514 -0.265576 -3.37758 0
M  V30 5499 C 504.073 0.10738 -3.76247 0
M  V30 5500 C 503.22 -0.603711 -2.70649 0
M  V30 5501 H 506.171 -0.786438 -1.37844 0
M  V30 5502 H 506.192 0.510352 -3.77062 0
M  V30 5503 H 505.704 -1.3106 -3.65301 0
M  V30 5504 H 503.805 1.15272 -3.54321 0
M  V30 5505 H 503.918 -0.26561 -4.78363 0
M  V30 5506 H 502.282 -0.0444884 -2.54661 0
M  V30 5507 H 503.065 -1.65029 -3.01032 0
M  V30 5508 N 505.51 1.54411 -0.315457 0
M  V30 5509 C 506.926 1.59556 0.037464 0
M  V30 5510 C 507.126 1.33217 1.5118 0
M  V30 5511 O 506.182 1.11264 2.26664 0
M  V30 5512 C 507.495 2.98372 -0.373477 0
M  V30 5513 C 509.043 3.11324 -0.323452 0
M  V30 5514 C 509.518 4.52472 -0.709433 0
M  V30 5515 N 511.009 4.58437 -0.662524 0
M  V30 5516 C 511.744 5.65751 -0.933474 0
M  V30 5517 N 511.24 6.81039 -1.27114 0
M  V30 5518 N 513.033 5.55489 -0.859573 0
M  V30 5519 H 505.184 1.6979 -1.27614 0
M  V30 5520 H 507.447 0.793732 -0.518356 0
M  V30 5521 H 507.153 3.22618 -1.40037 0
M  V30 5522 H 507.027 3.76264 0.265615 0
M  V30 5523 H 509.414 2.86818 0.694223 0
M  V30 5524 H 509.495 2.35555 -0.997367 0
M  V30 5525 H 509.139 4.7771 -1.72498 0
M  V30 5526 H 509.069 5.26598 -0.0132923 0
M  V30 5527 H 511.56 3.75636 -0.413065 0
M  V30 5528 H 511.873 7.58816 -1.46348 0
M  V30 5529 H 510.218 6.82555 -1.30932 0
M  V30 5530 H 513.409 4.64299 -0.595324 0
M  V30 5531 H 513.582 6.39036 -1.0741 0
M  V30 5532 N 506.988 0.0434614 1.5754 0
M  V30 5533 C 507.938 -0.943039 2.07583 0
M  V30 5534 C 508.922 -1.27662 0.979342 0
M  V30 5535 O 510.114 -1.26034 1.24276 0
M  V30 5536 C 507.243 -2.22056 2.61813 0
M  V30 5537 C 506.329 -1.91471 3.78417 0
M  V30 5538 N 506.72 -1.31214 4.88484 0
M  V30 5539 C 505.018 -2.21384 3.87176 0
M  V30 5540 C 505.719 -1.18084 5.69588 0
M  V30 5541 N 504.695 -1.68116 5.16951 0
M  V30 5542 H 508.497 -0.472354 2.90079 0
M  V30 5543 H 506.011 -0.161191 1.61598 0
M  V30 5544 H 508.008 -2.93618 2.95963 0
M  V30 5545 H 506.668 -2.69738 1.80752 0
M  V30 5546 H 507.679 -0.985318 5.08441 0
M  V30 5547 H 504.356 -2.7164 3.17046 0
M  V30 5548 H 505.746 -0.713684 6.68099 0
M  V30 5549 N 508.466 -1.55915 -0.229846 0
M  V30 5550 C 509.691 -1.8296 -0.976743 0
M  V30 5551 C 510.116 -0.622735 -1.77493 0
M  V30 5552 O 509.474 0.428431 -1.76165 0
M  V30 5553 C 509.522 -3.07916 -1.8767 0
M  V30 5554 O 508.626 -2.86028 -2.97088 0
M  V30 5555 H 507.967 -0.603453 -0.277021 0
M  V30 5556 H 510.497 -2.0312 -0.245669 0
M  V30 5557 H 510.507 -3.37802 -2.2881 0
M  V30 5558 H 509.182 -3.95389 -1.28996 0
M  V30 5559 H 507.759 -2.67355 -2.59954 0
M  V30 5560 N 509.944 0.496216 -1.49584 0
M  V30 5561 C 510.891 1.59722 -1.66606 0
M  V30 5562 C 511.861 1.58158 -0.507477 0
M  V30 5563 O 513.046 1.76072 -0.735076 0
M  V30 5564 C 510.186 2.97844 -1.74308 0
M  V30 5565 C 509.299 3.09388 -3.01502 0
M  V30 5566 C 508.434 4.38271 -3.00153 0
M  V30 5567 C 507.473 4.43466 -4.21906 0
M  V30 5568 N 506.61 5.63784 -4.1844 0
M  V30 5569 H 511.45 1.44515 -2.60613 0
M  V30 5570 H 508.987 0.703048 -1.29212 0
M  V30 5571 H 510.945 3.77907 -1.76754 0
M  V30 5572 H 509.575 3.11743 -0.837619 0
M  V30 5573 H 508.627 2.22357 -3.08645 0
M  V30 5574 H 509.939 3.09085 -3.91494 0
M  V30 5575 H 509.093 5.2666 -3.01188 0
M  V30 5576 H 507.832 4.41146 -2.07947 0
M  V30 5577 H 506.837 3.53478 -4.21109 0
M  V30 5578 H 508.062 4.42303 -5.1531 0
M  V30 5579 H 506.008 5.67491 -3.29074 0
M  V30 5580 H 505.925 5.65118 -5.02173 0
M  V30 5581 H 507.193 6.54367 -4.23585 0
M  V30 5582 N 511.423 1.38739 0.74761 0
M  V30 5583 C 512.671 1.35007 1.50391 0
M  V30 5584 C 512.992 -0.0574274 1.94915 0
M  V30 5585 O 512.262 -1.00628 1.6808 0
M  V30 5586 H 510.842 0.496784 0.557866 0
M  V30 5587 H 513.504 1.73479 0.888319 0
M  V30 5588 H 512.6 2.00474 2.392 0
M  V30 5589 N 512.901 -0.976442 1.23707 0
M  V30 5590 C 514.126 -1.75875 1.09922 0
M  V30 5591 C 514.551 -1.84911 -0.34489 0
M  V30 5592 O 513.909 -1.31363 -1.24954 0
M  V30 5593 C 513.957 -3.16179 1.73388 0
M  V30 5594 O 513.061 -4.00124 0.99871 0
M  V30 5595 H 512.402 -0.540954 0.385052 0
M  V30 5596 H 514.932 -1.22546 1.6384 0
M  V30 5597 H 514.942 -3.66741 1.78788 0
M  V30 5598 H 513.617 -3.08917 2.78466 0
M  V30 5599 H 512.194 -3.58624 1.02193 0
M  V30 5600 N 514.379 -1.04941 -1.1758 0
M  V30 5601 C 515.609 -0.777166 -1.91425 0
M  V30 5602 C 516.017 0.670647 -1.76915 0
M  V30 5603 O 515.36 1.46965 -1.10213 0
M  V30 5604 C 515.422 -1.07495 -3.43052 0
M  V30 5605 C 515.086 -2.51844 -3.81345 0
M  V30 5606 C 516.083 -3.50047 -3.844 0
M  V30 5607 C 513.768 -2.86787 -4.12382 0
M  V30 5608 C 515.762 -4.81239 -4.17957 0
M  V30 5609 C 513.449 -4.18182 -4.45608 0
M  V30 5610 C 514.447 -5.15219 -4.48373 0
M  V30 5611 O 514.135 -6.44258 -4.80819 0
M  V30 5612 H 513.867 -0.282209 -0.614275 0
M  V30 5613 H 516.421 -1.40258 -1.50056 0
M  V30 5614 H 514.651 -0.392437 -3.84704 0
M  V30 5615 H 516.34 -0.78912 -3.98155 0
M  V30 5616 H 517.106 -3.24391 -3.60548 0
M  V30 5617 H 512.985 -2.11922 -4.09402 0
M  V30 5618 H 516.529 -5.56974 -4.2003 0
M  V30 5619 H 512.426 -4.43602 -4.68922 0
M  V30 5620 H 513.194 -6.49041 -4.98686 0
M  V30 5621 N 515.857 1.33968 -0.830081 0
M  V30 5622 C 516.805 2.31301 -0.245435 0
M  V30 5623 C 517.799 1.57734 0.617762 0
M  V30 5624 O 519.005 1.72674 0.508303 0
M  V30 5625 H 515.38 0.749552 -0.0606316 0
M  V30 5626 H 517.351 2.78129 -1.08105 0
M  V30 5627 C 516.1 3.42961 0.572084 0
M  V30 5628 H 515.423 3.99714 -0.0828118 0
M  V30 5629 H 516.863 4.13286 0.94715 0
M  V30 5630 C 515.322 2.88043 1.74737 0
M  V30 5631 O 515.852 2.83508 2.8458 0
M  V30 5632 N 514.058 2.44768 1.56642 0
M  V30 5633 H 513.605 2.48656 0.672901 0
M  V30 5634 H 513.563 2.08375 2.3543 0
M  V30 5635 N 517.335 0.585699 1.46312 0
M  V30 5636 C 518.612 0.00542031 1.95599 0
M  V30 5637 C 518.992 -1.45619 1.52834 0
M  V30 5638 O 518.34 -2.14759 0.780446 0
M  V30 5639 C 518.55 0.180601 3.48532 0
M  V30 5640 C 519.898 0.049979 4.24571 0
M  V30 5641 O 520.922 0.109589 3.56031 0
M  V30 5642 O 519.781 -0.0832226 5.46437 0
M  V30 5643 H 516.875 -0.0481281 0.825598 0
M  V30 5644 H 519.421 0.654227 1.56582 0
M  V30 5645 H 518.193 1.19657 3.72556 0
M  V30 5646 H 517.816 -0.504498 3.94386 0
M  V30 5647 N 518.813 -1.54241 0.323641 0
M  V30 5648 C 520.06 -2.0057 -0.27891 0
M  V30 5649 C 520.388 -1.21181 -1.52136 0
M  V30 5650 O 519.643 -0.282043 -1.93657 0
M  V30 5651 C 519.942 -3.5129 -0.658031 0
M  V30 5652 C 519.608 -4.48281 0.485252 0
M  V30 5653 C 518.27 -4.74519 0.799055 0
M  V30 5654 C 520.622 -5.05909 1.25322 0
M  V30 5655 C 517.95 -5.55643 1.88354 0
M  V30 5656 C 520.302 -5.88215 2.32779 0
M  V30 5657 C 518.966 -6.12755 2.64741 0
M  V30 5658 H 518.236 -0.733938 -0.10206 0
M  V30 5659 H 520.883 -1.862 0.447435 0
M  V30 5660 H 519.188 -3.63388 -1.4648 0
M  V30 5661 H 520.885 -3.84578 -1.1358 0
M  V30 5662 H 517.475 -4.27979 0.230593 0
M  V30 5663 H 521.659 -4.8562 1.02404 0
M  V30 5664 H 516.915 -5.72888 2.13564 0
M  V30 5665 H 521.089 -6.31888 2.92729 0
M  V30 5666 H 518.716 -6.75404 3.48904 0
M  V30 5667 N 520.291 -0.0518155 -1.57515 0
M  V30 5668 C 521.516 0.634896 -1.97443 0
M  V30 5669 C 521.941 1.63546 -0.929207 0
M  V30 5670 O 521.299 1.80981 0.107484 0
M  V30 5671 C 521.347 1.29765 -3.36442 0
M  V30 5672 O 520.451 2.41333 -3.34413 0
M  V30 5673 H 519.792 0.164994 -0.643174 0
M  V30 5674 H 522.322 -0.120407 -2.04245 0
M  V30 5675 H 522.332 1.64918 -3.73184 0
M  V30 5676 H 521.007 0.564361 -4.12053 0
M  V30 5677 H 519.584 2.08122 -3.09418 0
M  V30 5678 N 521.769 1.56035 0.221574 0
M  V30 5679 C 523.016 1.79047 0.94597 0
M  V30 5680 C 523.344 0.62057 1.84334 0
M  V30 5681 O 522.599 -0.395053 1.91671 0
M  V30 5682 C 522.898 3.07813 1.8162 0
M  V30 5683 C 522.564 4.3797 1.07206 0
M  V30 5684 C 521.226 4.73334 0.866508 0
M  V30 5685 C 523.578 5.18326 0.546565 0
M  V30 5686 C 520.906 5.8657 0.123549 0
M  V30 5687 C 523.258 6.32335 -0.18305 0
M  V30 5688 C 521.922 6.66301 -0.399861 0
M  V30 5689 H 521.192 0.655178 0.346155 0
M  V30 5690 H 523.839 1.90299 0.214146 0
M  V30 5691 H 522.144 2.91682 2.61589 0
M  V30 5692 H 523.841 3.2282 2.37884 0
M  V30 5693 H 520.431 4.10202 1.24226 0
M  V30 5694 H 524.615 4.9144 0.692847 0
M  V30 5695 H 519.871 6.11376 -0.0546591 0
M  V30 5696 H 524.045 6.9383 -0.59775 0
M  V30 5697 H 521.672 7.53889 -0.977489 0
M  V30 5698 N 523.247 -0.488276 1.49845 0
M  V30 5699 C 524.493 -1.24341 1.6021 0
M  V30 5700 C 524.826 -1.91967 0.293651 0
M  V30 5701 O 524.101 -1.81323 -0.703718 0
M  V30 5702 C 524.384 -2.3005 2.77036 0
M  V30 5703 C 524.237 -1.66842 4.17713 0
M  V30 5704 C 525.556 -3.31509 2.89464 0
M  V30 5705 H 522.675 -0.450704 0.583125 0
M  V30 5706 H 525.317 -0.539673 1.82174 0
M  V30 5707 H 523.467 -2.90071 2.58439 0
M  V30 5708 H 525.139 -1.1055 4.47858 0
M  V30 5709 H 523.382 -0.972079 4.22768 0
M  V30 5710 H 524.053 -2.43576 4.95353 0
M  V30 5711 H 526.529 -2.81493 3.06433 0
M  V30 5712 H 525.405 -4.02822 3.72861 0
M  V30 5713 H 525.666 -3.94603 1.99351 0
M  V30 5714 N 524.725 -1.39134 -0.740242 0
M  V30 5715 C 525.953 -1.39334 -1.5295 0
M  V30 5716 C 526.368 0.0135008 -1.88795 0
M  V30 5717 O 525.725 0.983524 -1.5373 0
M  V30 5718 C 525.776 -2.2614 -2.82034 0
M  V30 5719 O 525.497 -3.61345 -2.47712 0
M  V30 5720 C 526.998 -2.34666 -3.76094 0
M  V30 5721 H 524.218 -0.476103 -0.472828 0
M  V30 5722 H 526.762 -1.82883 -0.9151 0
M  V30 5723 H 524.917 -1.86018 -3.39818 0
M  V30 5724 H 525.331 -4.07194 -3.30595 0
M  V30 5725 H 526.805 -2.99663 -4.63579 0
M  V30 5726 H 527.282 -1.36426 -4.17474 0
M  V30 5727 H 527.888 -2.75236 -3.2423 0
M  V30 5728 N 526.204 0.969867 -1.24223 0
M  V30 5729 C 527.154 2.04913 -0.999732 0
M  V30 5730 C 528.138 1.60795 0.0580636 0
M  V30 5731 O 529.33 1.76317 -0.155392 0
M  V30 5732 C 526.459 3.37942 -0.604154 0
M  V30 5733 C 525.545 3.88628 -1.69791 0
M  V30 5734 N 525.936 4.12274 -2.93025 0
M  V30 5735 C 524.234 4.17268 -1.57492 0
M  V30 5736 C 524.935 4.53808 -3.63914 0
M  V30 5737 N 523.911 4.58855 -2.91468 0
M  V30 5738 H 527.713 2.21168 -1.93551 0
M  V30 5739 H 525.227 1.15349 -1.14317 0
M  V30 5740 H 527.224 4.14863 -0.411665 0
M  V30 5741 H 525.884 3.23075 0.324465 0
M  V30 5742 H 526.895 3.99789 -3.29225 0
M  V30 5743 H 523.572 4.11346 -0.714175 0
M  V30 5744 H 524.962 4.80534 -4.69614 0
M  V30 5745 N 527.682 1.05563 1.17022 0
M  V30 5746 C 528.91 0.78845 1.91288 0
M  V30 5747 C 529.325 -0.656318 1.77025 0
M  V30 5748 O 528.682 -1.44869 1.10992 0
M  V30 5749 C 528.733 1.16444 3.42232 0
M  V30 5750 O 528.454 2.5525 3.5606 0
M  V30 5751 C 529.955 0.923937 4.33565 0
M  V30 5752 H 527.175 0.286389 0.606813 0
M  V30 5753 H 529.719 1.4073 1.48375 0
M  V30 5754 H 527.874 0.590266 3.82877 0
M  V30 5755 H 528.288 2.70097 4.49609 0
M  V30 5756 H 529.762 1.23672 5.37968 0
M  V30 5757 H 530.239 -0.140688 4.38975 0
M  V30 5758 H 530.845 1.48214 3.98639 0
M  V30 5759 N 529.16 -1.33526 0.837174 0
M  V30 5760 C 530.108 -2.31168 0.257698 0
M  V30 5761 C 531.102 -1.5806 -0.609388 0
M  V30 5762 O 532.308 -1.72941 -0.499139 0
M  V30 5763 H 528.683 -0.74922 0.0646058 0
M  V30 5764 H 530.654 -2.77552 1.09578 0
M  V30 5765 C 529.403 -3.4326 -0.553887 0
M  V30 5766 H 528.726 -3.99665 0.104008 0
M  V30 5767 H 530.166 -4.13782 -0.925219 0
M  V30 5768 C 528.625 -2.88965 -1.73207 0
M  V30 5769 O 529.155 -2.85013 -2.83073 0
M  V30 5770 N 527.361 -2.45596 -1.55342 0
M  V30 5771 H 526.908 -2.49009 -0.659705 0
M  V30 5772 H 526.866 -2.0962 -2.34322 0
M  V30 5773 N 530.638 -0.59345 -1.46 0
M  V30 5774 C 532.054 -0.255965 -1.57534 0
M  V30 5775 C 532.254 1.24167 -1.58697 0
M  V30 5776 O 531.31 2.02398 -1.50968 0
M  V30 5777 C 532.623 -0.91466 -2.86451 0
M  V30 5778 C 534.171 -0.889253 -3.00102 0
M  V30 5779 C 534.646 -1.52769 -4.3177 0
M  V30 5780 N 536.137 -1.49253 -4.38495 0
M  V30 5781 C 536.872 -1.9558 -5.39014 0
M  V30 5782 N 536.368 -2.49929 -6.46148 0
M  V30 5783 N 538.161 -1.86432 -5.30282 0
M  V30 5784 H 530.312 -1.56604 -1.43489 0
M  V30 5785 H 532.575 -0.655207 -0.685133 0
M  V30 5786 H 532.281 -1.96861 -2.91442 0
M  V30 5787 H 532.155 -0.429356 -3.74748 0
M  V30 5788 H 534.542 0.156111 -2.94687 0
M  V30 5789 H 534.623 -1.41268 -2.13253 0
M  V30 5790 H 534.267 -2.57231 -4.37944 0
M  V30 5791 H 534.197 -0.979398 -5.17412 0
M  V30 5792 H 536.688 -1.09536 -3.61677 0
M  V30 5793 H 537.001 -2.83109 -7.19075 0
M  V30 5794 H 535.346 -2.53961 -6.46938 0
M  V30 5795 H 538.537 -1.43722 -4.4549 0
M  V30 5796 H 538.71 -2.22852 -6.08474 0
M  V30 5797 N 532.116 1.54067 -0.331816 0
M  V30 5798 C 533.026 2.28322 0.539104 0
M  V30 5799 C 534.042 1.32985 1.1221 0
M  V30 5800 O 535.218 1.6601 1.1403 0
M  V30 5801 C 532.283 3.03277 1.68 0
M  V30 5802 C 531.344 4.14216 1.12798 0
M  V30 5803 C 530.577 4.85588 2.2145 0
M  V30 5804 O 530.8 4.56536 3.41952 0
M  V30 5805 O 529.734 5.72309 1.86404 0
M  V30 5806 H 533.56 3.03632 -0.0641692 0
M  V30 5807 H 531.145 1.49083 -0.0972365 0
M  V30 5808 H 533.027 3.50189 2.34405 0
M  V30 5809 H 531.702 2.30834 2.2693 0
M  V30 5810 H 530.609 3.71635 0.428782 0
M  V30 5811 H 531.942 4.88727 0.583698 0
M  V30 5812 N 533.594 0.0601682 1.57485 0
M  V30 5813 C 534.842 -0.610386 1.92662 0
M  V30 5814 C 535.163 -1.70849 0.939981 0
M  V30 5815 O 534.433 -1.95895 -0.0137455 0
M  V30 5816 H 533.013 -0.228457 0.711208 0
M  V30 5817 H 535.675 0.115288 1.94559 0
M  V30 5818 H 534.771 -1.0432 2.94149 0
M  V30 5819 N 535.072 -1.5615 -0.213296 0
M  V30 5820 C 536.318 -1.79812 -0.937849 0
M  V30 5821 C 536.651 -0.631201 -1.83656 0
M  V30 5822 O 535.926 0.369165 -1.90964 0
M  V30 5823 C 536.209 -3.13613 -1.76972 0
M  V30 5824 C 536.062 -4.40766 -0.89695 0
M  V30 5825 C 537.381 -3.43931 -2.7459 0
M  V30 5826 H 534.5 -0.654138 -0.339518 0
M  V30 5827 H 537.142 -1.88877 -0.20623 0
M  V30 5828 H 535.292 -3.06015 -2.39347 0
M  V30 5829 H 536.964 -4.60392 -0.289306 0
M  V30 5830 H 535.207 -4.33326 -0.202756 0
M  V30 5831 H 535.878 -5.30843 -1.51358 0
M  V30 5832 H 538.354 -3.5171 -2.22349 0
M  V30 5833 H 537.23 -4.38706 -3.29891 0
M  V30 5834 H 537.491 -2.6651 -3.52739 0
M  V30 5835 N 536.55 0.480323 -1.50102 0
M  V30 5836 C 537.961 1.06142 -1.53593 0
M  V30 5837 C 538.312 1.93335 -0.334055 0
M  V30 5838 O 537.437 2.09188 0.55403 0
M  V30 5839 C 538.032 1.9317 -2.78336 0
M  V30 5840 C 536.591 2.46405 -2.84538 0
M  V30 5841 C 535.738 1.24521 -2.4777 0
M  V30 5842 H 538.689 0.26333 -1.565 0
M  V30 5843 H 538.71 2.78123 -2.59669 0
M  V30 5844 H 538.222 1.29683 -3.65792 0
M  V30 5845 H 536.323 3.13472 -2.01411 0
M  V30 5846 H 536.436 2.82143 -3.87211 0
M  V30 5847 H 534.8 1.57706 -2.00003 0
M  V30 5848 H 535.583 0.627102 -3.37524 0
M  V30 5849 N 538.028 1.39524 0.732853 0
M  V30 5850 C 538.961 1.32806 1.85574 0
M  V30 5851 C 539.939 0.201354 1.61348 0
M  V30 5852 O 541.123 0.38216 1.84585 0
M  V30 5853 C 538.25 1.06271 3.21596 0
M  V30 5854 C 537.296 2.21161 3.64678 0
M  V30 5855 S 538.129 3.83454 3.73796 0
M  V30 5856 C 539.285 3.59149 5.12604 0
M  V30 5857 H 539.518 2.27838 1.9099 0
M  V30 5858 H 537.051 1.25605 0.897927 0
M  V30 5859 H 539.009 0.916461 4.00139 0
M  V30 5860 H 537.67 0.129223 3.13834 0
M  V30 5861 H 536.863 1.98193 4.63396 0
M  V30 5862 H 536.465 2.32 2.93346 0
M  V30 5863 H 538.757 3.16547 5.99003 0
M  V30 5864 H 539.7 4.57335 5.40602 0
M  V30 5865 H 540.108 2.93203 4.82382 0
M  V30 5866 N 539.506 -0.963266 1.24736 0
M  V30 5867 C 540.922 -1.23273 1.01371 0
M  V30 5868 C 541.122 -1.99618 -0.274776 0
M  V30 5869 O 540.178 -2.32293 -0.989769 0
M  V30 5870 C 541.491 -2.01554 2.23152 0
M  V30 5871 C 543.039 -2.14629 2.27823 0
M  V30 5872 C 543.514 -2.96307 3.49237 0
M  V30 5873 N 545.005 -3.03887 3.49581 0
M  V30 5874 C 545.74 -3.67456 4.40186 0
M  V30 5875 N 545.236 -4.32706 5.41052 0
M  V30 5876 N 547.029 -3.64511 4.27888 0
M  V30 5877 H 539.18 -0.452294 2.07528 0
M  V30 5878 H 541.443 -0.262521 0.910926 0
M  V30 5879 H 541.149 -1.52847 3.1675 0
M  V30 5880 H 541.023 -3.02278 2.25628 0
M  V30 5881 H 543.41 -2.62537 1.34753 0
M  V30 5882 H 543.491 -1.13238 2.2937 0
M  V30 5883 H 543.135 -2.49091 4.42624 0
M  V30 5884 H 543.065 -3.97905 3.44933 0
M  V30 5885 H 545.556 -2.57477 2.76611 0
M  V30 5886 H 545.869 -4.79042 6.06415 0
M  V30 5887 H 544.214 -4.31361 5.44934 0
M  V30 5888 H 547.405 -3.12715 3.4832 0
M  V30 5889 H 547.578 -4.13768 4.98698 0
M  V30 5890 N 540.985 -1.06182 -1.16461 0
M  V30 5891 C 541.932 -0.671613 -2.20812 0
M  V30 5892 C 542.902 0.331186 -1.62765 0
M  V30 5893 O 544.087 0.22033 -1.89524 0
M  V30 5894 C 541.227 -0.063029 -3.45042 0
M  V30 5895 C 540.34 -1.11587 -4.1734 0
M  V30 5896 C 539.475 -0.473546 -5.29085 0
M  V30 5897 C 538.514 -1.51 -5.93182 0
M  V30 5898 N 537.651 -0.891118 -6.96422 0
M  V30 5899 H 542.491 -1.56589 -2.53542 0
M  V30 5900 H 540.028 -0.782951 -1.24532 0
M  V30 5901 H 541.986 0.307344 -4.16066 0
M  V30 5902 H 540.616 0.794663 -3.12866 0
M  V30 5903 H 539.668 -1.60396 -3.44931 0
M  V30 5904 H 540.98 -1.90221 -4.61104 0
M  V30 5905 H 540.134 -0.0501432 -6.06679 0
M  V30 5906 H 538.873 0.344687 -4.8648 0
M  V30 5907 H 537.878 -1.94331 -5.14311 0
M  V30 5908 H 539.103 -2.33031 -6.37866 0
M  V30 5909 H 537.049 -0.0935753 -6.55933 0
M  V30 5910 H 536.966 -1.61486 -7.38551 0
M  V30 5911 H 538.234 -0.492822 -7.77941 0
M  V30 5912 N 542.463 1.3308 -0.844243 0
M  V30 5913 C 543.711 1.97215 -0.441676 0
M  V30 5914 C 544.032 1.67185 1.0037 0
M  V30 5915 O 543.302 0.973588 1.69994 0
M  V30 5916 H 541.882 0.72959 -0.160335 0
M  V30 5917 H 544.544 1.62348 -1.07838 0
M  V30 5918 H 543.64 3.06698 -0.57815 0
M  V30 5919 N 543.941 0.601185 1.45683 0
M  V30 5920 C 544.851 -0.123395 2.34275 0
M  V30 5921 C 545.867 -0.86702 1.5086 0
M  V30 5922 O 547.043 -0.826049 1.8368 0
M  V30 5923 C 544.108 -1.11237 3.2837 0
M  V30 5924 C 543.169 -0.371405 4.2769 0
M  V30 5925 C 542.402 -1.31327 5.1729 0
M  V30 5926 O 542.625 -2.55078 5.10188 0
M  V30 5927 O 541.559 -0.813811 5.96373 0
M  V30 5928 H 545.385 0.604483 2.97623 0
M  V30 5929 H 542.97 0.361477 1.44961 0
M  V30 5930 H 544.852 -1.68214 3.8637 0
M  V30 5931 H 543.527 -1.82139 2.67595 0
M  V30 5932 H 542.434 0.24067 3.73325 0
M  V30 5933 H 543.767 0.296998 4.91303 0
M  V30 5934 N 545.419 -1.53889 0.339982 0
M  V30 5935 C 546.369 -2.2165 -0.534354 0
M  V30 5936 C 547.353 -1.20266 -1.06887 0
M  V30 5937 O 548.545 -1.45827 -1.00316 0
M  V30 5938 C 545.674 -2.99014 -1.68659 0
M  V30 5939 C 544.76 -4.07751 -1.16618 0
M  V30 5940 N 545.151 -5.04469 -0.366717 0
M  V30 5941 C 543.449 -4.21998 -1.4434 0
M  V30 5942 C 544.15 -5.81638 -0.0847275 0
M  V30 5943 N 543.126 -5.39388 -0.675391 0
M  V30 5944 H 546.928 -2.93781 0.0835562 0
M  V30 5945 H 544.442 -1.61736 0.146665 0
M  V30 5946 H 546.439 -3.46056 -2.32489 0
M  V30 5947 H 545.099 -2.28408 -2.30781 0
M  V30 5948 H 546.11 -5.17899 -0.00811038 0
M  V30 5949 H 542.787 -3.62612 -2.06928 0
M  V30 5950 H 544.177 -6.69563 0.559943 0
M  V30 5951 N 546.897 -0.0685191 -1.57451 0
M  V30 5952 C 547.827 0.89747 -2.15564 0
M  V30 5953 C 548.808 1.31266 -1.08181 0
M  V30 5954 O 549.993 1.38429 -1.36202 0
M  V30 5955 C 547.123 2.16623 -2.71463 0
M  V30 5956 C 546.077 1.89054 -3.83982 0
M  V30 5957 C 545.403 3.22532 -4.26471 0
M  V30 5958 C 546.703 1.1984 -5.08366 0
M  V30 5959 H 548.397 0.413373 -2.96533 0
M  V30 5960 H 545.943 0.197391 -1.42641 0
M  V30 5961 H 547.896 2.84614 -3.10761 0
M  V30 5962 H 546.62 2.67269 -1.8771 0
M  V30 5963 H 545.279 1.23469 -3.45183 0
M  V30 5964 H 544.927 3.71013 -3.39644 0
M  V30 5965 H 544.627 3.04879 -5.02317 0
M  V30 5966 H 546.151 3.91727 -4.68383 0
M  V30 5967 H 547.565 1.77896 -5.45001 0
M  V30 5968 H 545.962 1.12456 -5.89469 0
M  V30 5969 H 547.032 0.176996 -4.84577 0
M  V30 5970 N 548.375 1.56261 0.205012 0
M  V30 5971 C 549.623 1.79684 0.925096 0
M  V30 5972 C 549.944 0.63989 1.84202 0
M  V30 5973 O 549.214 -0.342345 1.92885 0
M  V30 5974 H 547.794 0.662774 0.344587 0
M  V30 5975 H 550.456 1.93734 0.212899 0
M  V30 5976 H 549.552 2.72467 1.52211 0
M  V30 5977 N 549.853 -0.472356 1.50355 0
M  V30 5978 C 550.763 -1.59637 1.7191 0
M  V30 5979 C 551.779 -1.63247 0.602195 0
M  V30 5980 O 552.955 -1.81139 0.880369 0
M  V30 5981 C 550.02 -2.9586 1.80742 0
M  V30 5982 C 549.081 -3.02649 3.04471 0
M  V30 5983 C 548.314 -4.32374 3.12872 0
M  V30 5984 O 548.537 -5.22807 2.28099 0
M  V30 5985 O 547.471 -4.44728 4.05587 0
M  V30 5986 H 551.297 -1.44373 2.67189 0
M  V30 5987 H 548.882 -0.651717 1.34436 0
M  V30 5988 H 550.764 -3.7677 1.88739 0
M  V30 5989 H 549.439 -3.11325 0.88647 0
M  V30 5990 H 548.346 -2.20821 3.01975 0
M  V30 5991 H 549.679 -2.92119 3.9614 0
M  V30 5992 N 551.331 -1.39911 -0.725443 0
M  V30 5993 C 552.578 -1.37654 -1.48518 0
M  V30 5994 C 552.906 0.0243982 -1.94485 0
M  V30 5995 O 552.161 1.00708 -1.67799 0
M  V30 5996 C 552.46 -2.30368 -2.7325 0
M  V30 5997 C 552.126 -3.77817 -2.461 0
M  V30 5998 C 550.788 -4.17991 -2.38405 0
M  V30 5999 C 553.14 -4.71036 -2.23103 0
M  V30 6000 C 550.468 -5.49433 -2.05768 0
M  V30 6001 C 552.82 -6.02766 -1.9198 0
M  V30 6002 C 551.484 -6.41993 -1.82761 0
M  V30 6003 H 550.754 -0.503713 -0.543465 0
M  V30 6004 H 553.401 -1.7249 -0.831822 0
M  V30 6005 H 551.706 -1.88683 -3.43375 0
M  V30 6006 H 553.403 -2.2591 -3.31309 0
M  V30 6007 H 549.993 -3.45982 -2.52972 0
M  V30 6008 H 554.177 -4.40823 -2.2801 0
M  V30 6009 H 549.433 -5.78738 -1.9716 0
M  V30 6010 H 553.607 -6.74519 -1.73197 0
M  V30 6011 H 551.234 -7.43761 -1.57237 0
M  V30 6012 N 552.809 0.956637 -1.25245 0
M  V30 6013 C 553.757 2.0743 -1.0524 0
M  V30 6014 C 554.751 1.69392 0.0160725 0
M  V30 6015 O 555.957 1.7946 -0.139382 0
M  V30 6016 H 552.332 0.678921 -0.323373 0
M  V30 6017 H 554.303 2.2146 -1.99995 0
M  V30 6018 C 553.052 3.40872 -0.685702 0
M  V30 6019 H 552.375 3.70607 -1.49968 0
M  V30 6020 H 553.815 4.19939 -0.585415 0
M  V30 6021 C 552.274 3.31367 0.608082 0
M  V30 6022 O 552.804 3.66214 1.65076 0
M  V30 6023 N 551.01 2.84486 0.592955 0
M  V30 6024 H 550.557 2.56326 -0.25592 0
M  V30 6025 H 550.515 2.78509 1.45877 0
M  V30 6026 N 554.287 1.06798 1.15896 0
M  V30 6027 C 555.217 0.704677 2.22613 0
M  V30 6028 C 556.198 -0.305252 1.67339 0
M  V30 6029 O 557.383 -0.179247 1.93371 0
M  V30 6030 C 554.513 0.0957325 3.47168 0
M  V30 6031 C 553.467 1.0322 4.15367 0
M  V30 6032 C 552.793 0.286293 5.33933 0
M  V30 6033 C 554.093 2.36341 4.65768 0
M  V30 6034 H 555.787 1.59688 2.53259 0
M  V30 6035 H 553.333 0.769257 1.21731 0
M  V30 6036 H 555.286 -0.170333 4.21056 0
M  V30 6037 H 554.01 -0.831516 3.15838 0
M  V30 6038 H 552.669 1.28309 3.43413 0
M  V30 6039 H 552.317 -0.644237 4.98857 0
M  V30 6040 H 552.017 0.910436 5.80504 0
M  V30 6041 H 553.541 0.0278938 6.10594 0
M  V30 6042 H 554.955 2.1561 5.31211 0
M  V30 6043 H 553.352 2.94299 5.2298 0
M  V30 6044 H 554.422 2.99047 3.81705 0
M  V30 6045 N 555.766 -1.3263 0.851289 0
M  V30 6046 C 557.014 -1.96978 0.452128 0
M  V30 6047 C 557.335 -1.67715 -0.99482 0
M  V30 6048 O 556.605 -0.98259 -1.69476 0
M  V30 6049 H 555.185 -0.72873 0.164202 0
M  V30 6050 H 557.847 -1.61774 1.08698 0
M  V30 6051 H 556.943 -3.06387 0.594407 0
M  V30 6052 N 557.244 -0.608902 -1.45362 0
M  V30 6053 C 558.469 -0.10921 -2.07112 0
M  V30 6054 C 558.894 1.19779 -1.45033 0
M  V30 6055 O 558.252 1.72961 -0.543527 0
M  V30 6056 C 558.3 0.0155745 -3.60597 0
M  V30 6057 O 557.404 1.06546 -3.98399 0
M  V30 6058 H 556.745 -0.0746619 -0.659789 0
M  V30 6059 H 559.275 -0.839283 -1.86594 0
M  V30 6060 H 559.285 0.213364 -4.07442 0
M  V30 6061 H 557.96 -0.938765 -4.05167 0
M  V30 6062 H 556.537 0.844024 -3.63223 0
M  V30 6063 N 558.722 1.53707 -0.348139 0
M  V30 6064 C 559.95 2.05406 0.248224 0
M  V30 6065 C 560.365 1.22282 1.43849 0
M  V30 6066 O 559.722 0.259244 1.80649 0
M  V30 6067 C 559.773 3.55446 0.658793 0
M  V30 6068 O 559.494 4.35417 -0.484149 0
M  V30 6069 C 560.995 4.23335 1.31539 0
M  V30 6070 H 558.215 0.669344 0.0471075 0
M  V30 6071 H 560.759 1.98257 -0.501456 0
M  V30 6072 H 558.914 3.62803 1.35841 0
M  V30 6073 H 559.328 5.24268 -0.155949 0
M  V30 6074 H 560.802 5.29692 1.55338 0
M  V30 6075 H 561.279 3.75967 2.27036 0
M  V30 6076 H 561.885 4.20184 0.657683 0
M  V30 6077 N 560.2 0.0768682 1.57412 0
M  V30 6078 C 561.449 -0.590679 1.92857 0
M  V30 6079 C 561.762 -1.70461 0.959293 0
M  V30 6080 O 562.968 -2.43207 1.20675 0
M  V30 6081 C 561.424 -1.10204 3.42612 0
M  V30 6082 C 561.032 -0.0188447 4.47996 0
M  V30 6083 C 562.776 -1.74336 3.87049 0
M  V30 6084 C 560.683 -0.544536 5.88888 0
M  V30 6085 H 559.613 -0.224411 0.71983 0
M  V30 6086 H 562.264 0.149924 1.82887 0
M  V30 6087 H 560.646 -1.89577 3.47673 0
M  V30 6088 H 561.82 0.755936 4.54557 0
M  V30 6089 H 560.135 0.526555 4.13057 0
M  V30 6090 H 562.732 -2.14708 4.89699 0
M  V30 6091 H 563.075 -2.60537 3.24694 0
M  V30 6092 H 563.608 -1.01577 3.84613 0
M  V30 6093 H 560.347 0.280426 6.549 0
M  V30 6094 H 559.867 -1.28673 5.85836 0
M  V30 6095 H 561.546 -1.01933 6.3892 0
M  V30 6096 N 561.678 -1.56367 -0.196722 0
M  V30 6097 C 562.924 -1.80796 -0.918725 0
M  V30 6098 C 563.257 -0.650645 -1.82976 0
M  V30 6099 O 562.532 0.348889 -1.91345 0
M  V30 6100 C 562.815 -3.15472 -1.73636 0
M  V30 6101 C 562.668 -4.41693 -0.85015 0
M  V30 6102 C 563.987 -3.46824 -2.70927 0
M  V30 6103 H 561.106 -0.657702 -0.332561 0
M  V30 6104 H 563.748 -1.89086 -0.186186 0
M  V30 6105 H 561.898 -3.08536 -2.36088 0
M  V30 6106 H 563.57 -4.60673 -0.240459 0
M  V30 6107 H 561.813 -4.33517 -0.156785 0
M  V30 6108 H 562.484 -5.32419 -1.45719 0
M  V30 6109 H 564.96 -3.54049 -2.18607 0
M  V30 6110 H 563.836 -4.4218 -3.25219 0
M  V30 6111 H 564.097 -2.70236 -3.49893 0
M  V30 6112 N 563.156 0.464375 -1.50603 0
M  V30 6113 C 564.086 1.56944 -1.72889 0
M  V30 6114 C 565.067 1.59979 -0.577997 0
M  V30 6115 O 566.252 1.76138 -0.817855 0
M  V30 6116 C 563.382 2.95225 -1.8292 0
M  V30 6117 C 562.336 3.07056 -2.98162 0
M  V30 6118 C 561.662 4.47051 -2.93343 0
M  V30 6119 C 562.962 2.83648 -4.38567 0
M  V30 6120 H 564.656 1.38547 -2.65415 0
M  V30 6121 H 562.202 0.665082 -1.27721 0
M  V30 6122 H 564.155 3.72467 -1.97095 0
M  V30 6123 H 562.879 3.14793 -0.870209 0
M  V30 6124 H 561.538 2.32248 -2.83648 0
M  V30 6125 H 561.186 4.63547 -1.95276 0
M  V30 6126 H 560.886 4.55902 -3.70712 0
M  V30 6127 H 562.41 5.26304 -3.09575 0
M  V30 6128 H 563.824 3.50636 -4.53572 0
M  V30 6129 H 562.221 3.03937 -5.17438 0
M  V30 6130 H 563.291 1.79451 -4.50472 0
M  V30 6131 N 564.634 1.40294 0.718013 0
M  V30 6132 C 565.883 1.37746 1.4734 0
M  V30 6133 C 566.196 -0.0180754 1.95592 0
M  V30 6134 O 567.402 -0.166166 2.70991 0
M  V30 6135 C 565.858 2.4208 2.66318 0
M  V30 6136 C 565.466 3.87432 2.24945 0
M  V30 6137 C 567.21 2.48635 3.44065 0
M  V30 6138 C 565.117 4.83368 3.40748 0
M  V30 6139 H 564.047 0.512165 0.553356 0
M  V30 6140 H 566.698 1.66019 0.781661 0
M  V30 6141 H 565.08 2.06903 3.3765 0
M  V30 6142 H 566.254 4.3174 1.6105 0
M  V30 6143 H 564.569 3.8433 1.60249 0
M  V30 6144 H 567.166 3.17499 4.30231 0
M  V30 6145 H 567.509 1.51611 3.87711 0
M  V30 6146 H 568.042 2.82791 2.79775 0
M  V30 6147 H 564.781 5.81716 3.02136 0
M  V30 6148 H 564.301 4.43726 4.03568 0
M  V30 6149 H 565.98 5.03074 4.06848 0
M  V30 6150 N 566.112 -0.949982 1.2575 0
M  V30 6151 C 567.359 -1.69515 1.10774 0
M  V30 6152 C 567.687 -1.91316 -0.350479 0
M  V30 6153 O 566.942 -1.48515 -1.27443 0
M  V30 6154 C 567.241 -3.08039 1.81237 0
M  V30 6155 C 566.907 -3.06023 3.31151 0
M  V30 6156 C 565.569 -3.0518 3.72047 0
M  V30 6157 C 567.921 -2.98998 4.26907 0
M  V30 6158 C 565.249 -2.95067 5.07102 0
M  V30 6159 C 567.601 -2.90426 5.61992 0
M  V30 6160 C 566.265 -2.87922 6.0221 0
M  V30 6161 H 565.535 -0.6203 0.405351 0
M  V30 6162 H 568.182 -1.10953 1.56082 0
M  V30 6163 H 566.487 -3.70172 1.28373 0
M  V30 6164 H 568.184 -3.64526 1.67098 0
M  V30 6165 H 564.774 -3.07453 2.98614 0
M  V30 6166 H 568.958 -2.98764 3.963 0
M  V30 6167 H 564.214 -2.915 5.37436 0
M  V30 6168 H 568.388 -2.83952 6.35881 0
M  V30 6169 H 566.015 -2.79841 7.06819 0
M  V30 6170 N 567.59 -1.07411 -1.15328 0
M  V30 6171 C 568.5 -0.706438 -2.23711 0
M  V30 6172 C 569.516 0.282586 -1.7169 0
M  V30 6173 O 570.692 0.129066 -2.00986 0
M  V30 6174 C 567.757 -0.11048 -3.46524 0
M  V30 6175 C 566.818 -1.15282 -4.13532 0
M  V30 6176 C 566.051 -0.585205 -5.30482 0
M  V30 6177 O 566.274 0.598549 -5.67251 0
M  V30 6178 O 565.208 -1.33039 -5.87013 0
M  V30 6179 H 569.034 -1.61031 -2.57493 0
M  V30 6180 H 566.619 -0.847113 -1.23062 0
M  V30 6181 H 568.501 0.21957 -4.20828 0
M  V30 6182 H 567.176 0.766703 -3.14489 0
M  V30 6183 H 566.083 -1.53523 -3.41147 0
M  V30 6184 H 567.416 -2.00192 -4.49649 0
M  V30 6185 N 569.068 1.32177 -0.85831 0
M  V30 6186 C 570.031 2.27086 -0.310588 0
M  V30 6187 C 571.031 1.51751 0.531806 0
M  V30 6188 O 572.221 1.70794 0.34279 0
M  V30 6189 C 569.353 3.36266 0.560179 0
M  V30 6190 H 570.546 2.77045 -1.1483 0
M  V30 6191 H 568.099 1.42911 -0.632942 0
M  V30 6192 H 568.834 2.9158 1.41956 0
M  V30 6193 H 568.619 3.92077 -0.0428473 0
M  V30 6194 H 570.109 4.06974 0.936056 0
M  V30 6195 N 570.547 0.616602 1.45037 0
M  V30 6196 C 571.958 0.199359 1.85633 0
M  V30 6197 C 572.309 -1.24588 1.51566 0
M  V30 6198 O 571.434 -1.94594 0.94668 0
M  V30 6199 C 572.029 0.355033 3.36935 0
M  V30 6200 C 570.588 -0.00758748 3.76399 0
M  V30 6201 C 569.735 0.675256 2.68953 0
M  V30 6202 H 572.686 0.822708 1.3571 0
M  V30 6203 H 572.707 -0.410201 3.78282 0
M  V30 6204 H 572.219 1.40699 3.61698 0
M  V30 6205 H 570.32 -1.05837 3.57252 0
M  V30 6206 H 570.433 0.392346 4.77491 0
M  V30 6207 H 568.797 0.111992 2.54454 0
M  V30 6208 H 569.58 1.72952 2.96551 0
M  V30 6209 N 572.025 -1.5352 0.356285 0
M  V30 6210 C 572.972 -2.25439 -0.494569 0
M  V30 6211 C 573.942 -1.25752 -1.08516 0
M  V30 6212 O 575.127 -1.54513 -1.1194 0
M  V30 6213 C 572.267 -3.04011 -1.63313 0
M  V30 6214 C 571.38 -4.18574 -1.06862 0
M  V30 6215 C 570.515 -4.84607 -2.17552 0
M  V30 6216 C 569.554 -5.91218 -1.58518 0
M  V30 6217 N 568.691 -6.50979 -2.63003 0
M  V30 6218 H 573.531 -2.97737 0.125244 0
M  V30 6219 H 571.068 -1.46916 0.0735789 0
M  V30 6220 H 573.026 -3.47834 -2.30363 0
M  V30 6221 H 571.656 -2.33986 -2.22374 0
M  V30 6222 H 570.708 -3.79303 -0.288672 0
M  V30 6223 H 572.02 -4.95215 -0.596924 0
M  V30 6224 H 571.174 -5.31566 -2.92442 0
M  V30 6225 H 569.913 -4.07418 -2.6807 0
M  V30 6226 H 568.918 -5.4363 -0.821391 0
M  V30 6227 H 570.143 -6.70322 -1.08836 0
M  V30 6228 H 568.089 -5.76648 -3.12751 0
M  V30 6229 H 568.006 -7.23131 -2.20493 0
M  V30 6230 H 569.274 -7.02589 -3.37623 0
M  V30 6231 N 573.503 -0.0852151 -1.57369 0
M  V30 6232 C 574.78 0.622534 -1.85429 0
M  V30 6233 C 575.16 1.86962 -0.980229 0
M  V30 6234 O 574.508 2.28445 -0.0500219 0
M  V30 6235 C 574.718 0.947374 -3.35896 0
M  V30 6236 C 576.066 1.31509 -4.03721 0
M  V30 6237 O 577.09 1.03869 -3.40719 0
M  V30 6238 O 575.949 1.83231 -5.14868 0
M  V30 6239 H 573.043 0.310513 -0.766492 0
M  V30 6240 H 575.589 -0.117164 -1.69295 0
M  V30 6241 H 574.361 0.0622264 -3.91251 0
M  V30 6242 H 573.984 1.74338 -3.5734 0
M  V30 6243 N 574.981 1.5647 0.188427 0
M  V30 6244 C 576.228 1.81013 0.907779 0
M  V30 6245 C 576.556 0.65953 1.82977 0
M  V30 6246 O 575.811 -0.354308 1.92466 0
M  V30 6247 C 576.11 3.11596 1.7505 0
M  V30 6248 C 575.776 4.40145 0.978922 0
M  V30 6249 C 574.438 4.75066 0.765912 0
M  V30 6250 C 576.79 5.19369 0.436498 0
M  V30 6251 C 574.118 5.867 -0.00089868 0
M  V30 6252 C 576.47 6.31805 -0.317136 0
M  V30 6253 C 575.134 6.65303 -0.541103 0
M  V30 6254 H 574.404 0.662373 0.33218 0
M  V30 6255 H 577.051 1.9071 0.173732 0
M  V30 6256 H 575.356 2.97165 2.55343 0
M  V30 6257 H 577.053 3.27793 2.30983 0
M  V30 6258 H 573.643 4.12745 1.15497 0
M  V30 6259 H 577.827 4.92799 0.588449 0
M  V30 6260 H 573.083 6.11122 -0.184329 0
M  V30 6261 H 577.257 6.92406 -0.744788 0
M  V30 6262 H 574.884 7.51646 -1.13718 0
M  V30 6263 N 576.459 -0.456382 1.50847 0
M  V30 6264 C 577.407 -1.57318 1.71329 0
M  V30 6265 C 578.401 -1.59187 0.579287 0
M  V30 6266 O 579.607 -1.6316 0.76018 0
M  V30 6267 H 575.982 -0.5223 0.541024 0
M  V30 6268 H 577.953 -1.3721 2.64983 0
M  V30 6269 C 576.702 -2.95142 1.83811 0
M  V30 6270 H 576.025 -2.94428 2.70467 0
M  V30 6271 H 577.465 -3.72702 2.02161 0
M  V30 6272 C 575.924 -3.31636 0.593224 0
M  V30 6273 O 576.454 -4.00852 -0.260898 0
M  V30 6274 N 574.66 -2.87205 0.442902 0
M  V30 6275 H 574.207 -2.31051 1.13901 0
M  V30 6276 H 574.165 -3.11986 -0.38884 0
M  V30 6277 N 577.937 -1.40673 -0.710563 0
M  V30 6278 C 579.184 -1.39222 -1.47049 0
M  V30 6279 C 579.512 0.0037691 -1.945 0
M  V30 6280 O 578.767 0.989224 -1.68857 0
M  V30 6281 C 579.066 -2.33253 -2.70791 0
M  V30 6282 C 578.732 -3.80406 -2.42079 0
M  V30 6283 C 577.394 -4.20496 -2.33959 0
M  V30 6284 C 579.746 -4.73375 -2.18094 0
M  V30 6285 C 577.074 -5.51584 -1.99929 0
M  V30 6286 C 579.426 -6.04768 -1.85576 0
M  V30 6287 C 578.09 -6.43895 -1.75941 0
M  V30 6288 H 577.36 -0.509449 -0.538092 0
M  V30 6289 H 580.007 -1.73363 -0.81348 0
M  V30 6290 H 578.312 -1.92314 -3.41354 0
M  V30 6291 H 580.009 -2.29412 -3.28894 0
M  V30 6292 H 576.599 -3.48645 -2.49288 0
M  V30 6293 H 580.783 -4.43217 -2.23321 0
M  V30 6294 H 576.039 -5.80797 -1.91011 0
M  V30 6295 H 580.213 -6.76318 -1.66033 0
M  V30 6296 H 577.84 -7.45387 -1.4934 0
M  V30 6297 N 579.415 0.9433 -1.26252 0
M  V30 6298 C 580.347 2.04542 -1.03417 0
M  V30 6299 C 581.36 1.62799 0.0046911 0
M  V30 6300 O 582.549 1.76944 -0.235146 0
M  V30 6301 C 579.649 3.34511 -0.543671 0
M  V30 6302 C 578.822 4.05033 -1.65128 0
M  V30 6303 C 577.881 5.13273 -1.1592 0
M  V30 6304 O 576.907 5.38095 -1.85586 0
M  V30 6305 N 578.109 5.805 -0.00649279 0
M  V30 6306 H 580.874 2.24699 -1.98319 0
M  V30 6307 H 578.435 1.11264 -1.1761 0
M  V30 6308 H 580.427 4.04212 -0.198703 0
M  V30 6309 H 578.997 3.11042 0.311711 0
M  V30 6310 H 578.217 3.29275 -2.16729 0
M  V30 6311 H 579.505 4.48903 -2.39508 0
M  V30 6312 H 578.903 5.62767 0.575347 0
M  V30 6313 H 577.46 6.51201 0.279416 0
M  V30 6314 N 580.893 1.08022 1.14757 0
M  V30 6315 C 581.823 0.728248 2.21853 0
M  V30 6316 C 582.804 -0.287486 1.67653 0
M  V30 6317 O 583.989 -0.158727 1.9355 0
M  V30 6318 C 581.119 0.132549 3.47047 0
M  V30 6319 C 580.073 1.07619 4.14249 0
M  V30 6320 C 579.399 0.342907 5.33599 0
M  V30 6321 C 580.699 2.41268 4.63235 0
M  V30 6322 H 582.393 1.62365 2.51551 0
M  V30 6323 H 579.939 0.782125 1.20908 0
M  V30 6324 H 581.892 -0.125665 4.21213 0
M  V30 6325 H 580.616 -0.797971 3.16702 0
M  V30 6326 H 579.275 1.31944 3.42033 0
M  V30 6327 H 578.923 -0.59129 4.99513 0
M  V30 6328 H 578.623 0.971955 5.79506 0
M  V30 6329 H 580.147 0.0926538 6.1053 0
M  V30 6330 H 581.561 2.21232 5.28894 0
M  V30 6331 H 579.958 2.9983 5.19829 0
M  V30 6332 H 581.028 3.03079 3.78512 0
M  V30 6333 N 582.371 -1.3172 0.865308 0
M  V30 6334 C 583.318 -2.2863 0.315736 0
M  V30 6335 C 584.288 -1.55524 -0.583213 0
M  V30 6336 O 585.473 -1.83694 -0.51585 0
M  V30 6337 C 582.613 -3.41735 -0.480773 0
M  V30 6338 C 581.726 -4.297 0.445167 0
M  V30 6339 C 580.861 -5.29944 -0.365012 0
M  V30 6340 C 579.9 -6.09554 0.557651 0
M  V30 6341 N 579.037 -7.01768 -0.215994 0
M  V30 6342 H 583.877 -2.75026 1.14736 0
M  V30 6343 H 581.414 -1.35302 0.577209 0
M  V30 6344 H 583.372 -4.06045 -0.958306 0
M  V30 6345 H 582.002 -2.96461 -1.27714 0
M  V30 6346 H 581.054 -3.65875 1.04113 0
M  V30 6347 H 582.366 -4.85295 1.15284 0
M  V30 6348 H 581.52 -5.99908 -0.905255 0
M  V30 6349 H 580.259 -4.74994 -1.106 0
M  V30 6350 H 579.264 -5.38485 1.10969 0
M  V30 6351 H 580.489 -6.66591 1.29742 0
M  V30 6352 H 578.435 -6.49232 -0.939878 0
M  V30 6353 H 578.352 -7.54762 0.432431 0
M  V30 6354 H 579.62 -7.76002 -0.737618 0
M  V30 6355 N 583.85 -0.624285 -1.44708 0
M  V30 6356 C 585.077 -0.132919 -2.06473 0
M  V30 6357 C 585.493 1.18967 -1.46602 0
M  V30 6358 O 584.85 1.72824 -0.586341 0
M  V30 6359 C 584.901 -0.00465418 -3.615 0
M  V30 6360 O 584.622 -1.27494 -4.19138 0
M  V30 6361 C 586.123 0.516213 -4.40284 0
M  V30 6362 H 583.343 -0.0765201 -0.666623 0
M  V30 6363 H 585.887 -0.856751 -1.85688 0
M  V30 6364 H 584.042 0.669583 -3.8157 0
M  V30 6365 H 584.456 -1.11536 -5.12504 0
M  V30 6366 H 585.93 0.554994 -5.49203 0
M  V30 6367 H 586.407 1.5419 -4.11245 0
M  V30 6368 H 587.013 -0.124542 -4.25118 0
M  V30 6369 N 585.328 1.53329 -0.364422 0
M  V30 6370 C 586.576 2.00842 0.225189 0
M  V30 6371 C 586.897 1.25345 1.49378 0
M  V30 6372 O 586.167 0.366396 1.92443 0
M  V30 6373 H 584.747 0.742009 0.0862027 0
M  V30 6374 H 587.409 1.8863 -0.490389 0
M  V30 6375 H 586.505 3.08795 0.452987 0
M  V30 6376 N 586.806 0.0935595 1.57322 0
M  V30 6377 C 587.738 -0.895923 2.10964 0
M  V30 6378 C 588.751 -1.24705 1.04654 0
M  V30 6379 O 589.94 -1.20044 1.32105 0
M  V30 6380 C 587.04 -2.20546 2.57318 0
M  V30 6381 C 586.213 -2.0299 3.87445 0
M  V30 6382 C 585.272 -3.17443 4.19662 0
M  V30 6383 O 584.298 -2.91474 4.88909 0
M  V30 6384 N 585.5 -4.43168 3.74943 0
M  V30 6385 H 588.265 -0.437788 2.96485 0
M  V30 6386 H 585.826 -0.0915863 1.61641 0
M  V30 6387 H 587.818 -2.9606 2.75917 0
M  V30 6388 H 586.388 -2.57789 1.76816 0
M  V30 6389 H 585.608 -1.11815 3.78009 0
M  V30 6390 H 586.896 -1.88535 4.7258 0
M  V30 6391 H 586.294 -4.67149 3.19043 0
M  V30 6392 H 584.851 -5.15637 3.987 0
M  V30 6393 N 588.284 -1.56567 -0.180126 0
M  V30 6394 C 589.231 -1.95725 -1.22313 0
M  V30 6395 C 590.201 -0.819911 -1.44453 0
M  V30 6396 O 591.386 -1.07931 -1.57339 0
M  V30 6397 C 588.526 -2.31484 -2.55947 0
M  V30 6398 C 587.639 -3.58354 -2.4126 0
M  V30 6399 C 586.774 -3.83366 -3.67701 0
M  V30 6400 C 585.813 -5.03612 -3.47909 0
M  V30 6401 N 584.95 -5.24802 -4.66398 0
M  V30 6402 H 589.79 -2.84642 -0.882198 0
M  V30 6403 H 587.327 -1.4085 -0.42422 0
M  V30 6404 H 589.285 -2.50237 -3.33822 0
M  V30 6405 H 587.915 -1.45689 -2.88053 0
M  V30 6406 H 586.967 -3.47565 -1.54606 0
M  V30 6407 H 588.279 -4.46386 -2.22577 0
M  V30 6408 H 587.433 -4.02439 -4.54013 0
M  V30 6409 H 586.172 -2.93692 -3.89353 0
M  V30 6410 H 585.177 -4.84447 -2.59983 0
M  V30 6411 H 586.402 -5.94809 -3.27688 0
M  V30 6412 H 584.348 -4.38079 -4.88286 0
M  V30 6413 H 584.265 -6.07041 -4.50596 0
M  V30 6414 H 585.533 -5.48346 -5.54019 0
M  V30 6415 N 589.762 0.448376 -1.51087 0
M  V30 6416 C 591.011 1.19561 -1.62444 0
M  V30 6417 C 591.324 1.92602 -0.341151 0
M  V30 6418 O 592.53 2.69439 -0.333936 0
M  V30 6419 C 590.986 2.17373 -2.8684 0
M  V30 6420 C 590.594 1.5003 -4.22131 0
M  V30 6421 C 592.338 2.92597 -3.0755 0
M  V30 6422 C 590.245 2.46262 -5.37689 0
M  V30 6423 H 589.175 0.449975 -0.605011 0
M  V30 6424 H 591.826 0.463735 -1.77544 0
M  V30 6425 H 590.208 2.93948 -2.65349 0
M  V30 6426 H 591.382 0.790886 -4.53962 0
M  V30 6427 H 589.697 0.870011 -4.0721 0
M  V30 6428 H 592.294 3.64663 -3.91056 0
M  V30 6429 H 592.637 3.53306 -2.20183 0
M  V30 6430 H 593.17 2.23131 -3.29329 0
M  V30 6431 H 589.909 1.90258 -6.27281 0
M  V30 6432 H 589.429 3.15289 -5.10248 0
M  V30 6433 H 591.108 3.07623 -5.6919 0
M  V30 6434 N 591.24 1.41047 0.703093 0
M  V30 6435 C 592.656 1.23351 1.01275 0
M  V30 6436 C 592.856 0.11754 2.01157 0
M  V30 6437 O 591.912 -0.520518 2.47077 0
M  V30 6438 C 593.225 2.58001 1.54454 0
M  V30 6439 C 594.773 2.65119 1.66376 0
M  V30 6440 C 595.248 4.00067 2.22958 0
M  V30 6441 N 596.739 4.01875 2.30328 0
M  V30 6442 C 597.474 5.03087 2.75119 0
M  V30 6443 N 596.97 6.14692 3.19571 0
M  V30 6444 N 598.763 4.90451 2.74616 0
M  V30 6445 H 590.914 2.1236 0.0412686 0
M  V30 6446 H 593.177 0.944543 0.08089 0
M  V30 6447 H 592.883 3.40378 0.88521 0
M  V30 6448 H 592.757 2.79962 2.52786 0
M  V30 6449 H 595.144 1.83106 2.31422 0
M  V30 6450 H 595.225 2.46975 0.666089 0
M  V30 6451 H 594.869 4.82526 1.58529 0
M  V30 6452 H 594.799 4.15547 3.23462 0
M  V30 6453 H 597.29 3.21291 1.98949 0
M  V30 6454 H 597.603 6.87799 3.52352 0
M  V30 6455 H 595.948 6.18239 3.17498 0
M  V30 6456 H 599.139 4.0235 2.39233 0
M  V30 6457 H 599.312 5.6947 3.09206 0
M  V30 6458 N 592.718 -0.936591 1.26751 0
M  V30 6459 C 593.965 -1.68331 1.12566 0
M  V30 6460 C 594.293 -1.91677 -0.330168 0
M  V30 6461 O 593.548 -1.49859 -1.2586 0
M  V30 6462 C 593.847 -3.06099 1.84494 0
M  V30 6463 C 593.513 -3.02493 3.34378 0
M  V30 6464 C 592.175 -3.01217 3.75262 0
M  V30 6465 C 594.527 -2.94453 4.30055 0
M  V30 6466 C 591.855 -2.89672 5.10203 0
M  V30 6467 C 594.207 -2.84449 5.65041 0
M  V30 6468 C 592.871 -2.81518 6.0523 0
M  V30 6469 H 592.141 -0.615965 0.411907 0
M  V30 6470 H 594.788 -1.09292 1.5725 0
M  V30 6471 H 593.093 -3.6879 1.32292 0
M  V30 6472 H 594.79 -3.62733 1.70955 0
M  V30 6473 H 591.38 -3.04269 3.01858 0
M  V30 6474 H 595.564 -2.94544 3.99447 0
M  V30 6475 H 590.82 -2.85783 5.40498 0
M  V30 6476 H 594.994 -2.77192 6.38856 0
M  V30 6477 H 592.621 -2.72329 7.09747 0
M  V30 6478 N 594.196 -1.08629 -1.14182 0
M  V30 6479 C 595.444 -0.815731 -1.84906 0
M  V30 6480 C 595.765 0.660441 -1.83475 0
M  V30 6481 O 595.035 1.47888 -1.28476 0
M  V30 6482 H 593.615 -0.298773 -0.684648 0
M  V30 6483 H 596.277 -1.37274 -1.38354 0
M  V30 6484 H 595.373 -1.16193 -2.89665 0
M  V30 6485 N 595.674 1.31259 -0.872281 0
M  V30 6486 C 596.584 2.32221 -0.333255 0
M  V30 6487 C 597.6 1.6481 0.558013 0
M  V30 6488 O 598.776 1.96212 0.454175 0
M  V30 6489 C 595.841 3.43708 0.454479 0
M  V30 6490 C 594.902 4.26774 -0.465024 0
M  V30 6491 C 594.135 5.32937 0.28521 0
M  V30 6492 O 594.358 5.49968 1.513 0
M  V30 6493 O 593.292 6.00834 -0.358126 0
M  V30 6494 H 597.118 2.80252 -1.17016 0
M  V30 6495 H 594.703 1.352 -0.635724 0
M  V30 6496 H 596.585 4.11656 0.900963 0
M  V30 6497 H 595.26 2.97836 1.26789 0
M  V30 6498 H 594.167 3.61571 -0.960055 0
M  V30 6499 H 595.5 4.76217 -1.2441 0
M  V30 6500 N 597.152 0.631951 1.44375 0
M  V30 6501 C 598.115 -0.0628142 2.29114 0
M  V30 6502 C 599.115 -0.771494 1.41084 0
M  V30 6503 O 600.305 -0.615959 1.62947 0
M  V30 6504 C 597.437 -1.09953 3.22681 0
M  V30 6505 H 598.63 0.682509 2.92031 0
M  V30 6506 H 596.183 0.392128 1.51301 0
M  V30 6507 H 596.918 -1.87481 2.64616 0
M  V30 6508 H 596.703 -0.595286 3.87555 0
M  V30 6509 H 598.193 -1.58538 3.86336 0
M  V30 6510 N 598.631 -1.53133 0.372548 0
M  V30 6511 C 599.561 -2.28876 -0.462412 0
M  V30 6512 C 600.542 -1.31583 -1.07796 0
M  V30 6513 O 601.727 -1.60461 -1.09389 0
M  V30 6514 C 598.857 -3.08317 -1.59868 0
M  V30 6515 C 597.811 -4.13355 -1.11003 0
M  V30 6516 C 597.137 -4.8092 -2.33708 0
M  V30 6517 C 598.437 -5.21955 -0.18983 0
M  V30 6518 H 600.131 -2.9892 0.169511 0
M  V30 6519 H 597.677 -1.43761 0.0829658 0
M  V30 6520 H 599.63 -3.60055 -2.18949 0
M  V30 6521 H 598.354 -2.35976 -2.25794 0
M  V30 6522 H 597.013 -3.62573 -0.541869 0
M  V30 6523 H 596.661 -4.05144 -2.98106 0
M  V30 6524 H 596.361 -5.51904 -2.01682 0
M  V30 6525 H 597.885 -5.35455 -2.93462 0
M  V30 6526 H 599.299 -5.69153 -0.688319 0
M  V30 6527 H 597.696 -6.00087 0.0398887 0
M  V30 6528 H 598.766 -4.78811 0.766057 0
M  V30 6529 N 600.109 -0.101901 -1.5727 0
M  V30 6530 C 601.357 0.559091 -1.94213 0
M  V30 6531 C 601.678 1.68297 -0.984948 0
M  V30 6532 O 600.948 1.95863 -0.0381975 0
M  V30 6533 H 599.528 0.20952 -0.717015 0
M  V30 6534 H 602.19 -0.166831 -1.94185 0
M  V30 6535 H 601.286 0.96485 -2.96811 0
M  V30 6536 N 601.587 1.56661 0.17182 0
M  V30 6537 C 602.812 1.86459 0.908165 0
M  V30 6538 C 603.237 0.688181 1.75059 0
M  V30 6539 O 602.595 -0.362753 1.77634 0
M  V30 6540 C 602.643 3.14669 1.76112 0
M  V30 6541 O 601.747 2.96858 2.86268 0
M  V30 6542 H 601.088 0.613318 0.254434 0
M  V30 6543 H 603.618 2.03892 0.170113 0
M  V30 6544 H 603.628 3.46061 2.16115 0
M  V30 6545 H 602.303 3.99905 1.14233 0
M  V30 6546 H 600.88 2.76819 2.49852 0
M  V30 6547 N 603.065 -0.440357 1.51323 0
M  V30 6548 C 603.995 -1.54174 1.75364 0
M  V30 6549 C 604.976 -1.59039 0.603375 0
M  V30 6550 O 606.161 -1.74815 0.845774 0
M  V30 6551 C 603.291 -2.92277 1.87593 0
M  V30 6552 C 602.245 -3.02274 3.03009 0
M  V30 6553 C 601.571 -4.42327 3.00418 0
M  V30 6554 C 602.871 -2.76634 4.43024 0
M  V30 6555 H 604.565 -1.34307 2.67585 0
M  V30 6556 H 602.111 -0.644678 1.28763 0
M  V30 6557 H 604.064 -3.69284 2.02995 0
M  V30 6558 H 602.788 -3.13369 0.920179 0
M  V30 6559 H 601.447 -2.27706 2.87307 0
M  V30 6560 H 601.095 -4.60382 2.02626 0
M  V30 6561 H 600.795 -4.49946 3.77918 0
M  V30 6562 H 602.319 -5.21312 3.17909 0
M  V30 6563 H 603.733 -3.43376 4.59093 0
M  V30 6564 H 602.13 -2.95666 5.22208 0
M  V30 6565 H 603.2 -1.72262 4.5327 0
M  V30 6566 O 604.582 -1.5049 -0.586098 0
M  V30 6567 H 605.273 -1.48724 -1.241 0
M  V30 END ATOM
M  V30 BEGIN BOND
M  V30 END BOND
M  V30 END CTAB
M  END
$$$$
