drugbank_target|Q9UHI5 Large neutral amino acids transporter small subunit 2 (DB00120; DB00160)
 OpenBabel12092119403D

  0  0  0     0  0            999 V3000
M  V30 BEGIN CTAB
M  V30 COUNTS 8322 8432 0 0 0
M  V30 BEGIN ATOM
M  V30 1 H -0.908 1.98254 -0.117106 0
M  V30 2 N 0 1.576 0 0
M  V30 3 C 0.933 2.03868 1.02534 0
M  V30 4 C 1.911 0.928543 1.3348 0
M  V30 5 O 3.095 1.19667 1.45644 0
M  V30 6 C 0.222 2.43627 2.35294 0
M  V30 7 C -0.732 3.65373 2.2001 0
M  V30 8 S 0.101 5.13292 1.52614 0
M  V30 9 C 1.257 5.56322 2.86805 0
M  V30 10 H 1.49 2.90518 0.631377 0
M  V30 11 H -0.977 1.52953 0.210867 0
M  V30 12 H 0.981 2.67203 3.11629 0
M  V30 13 H -0.358 1.57376 2.7183 0
M  V30 14 H -1.165 3.90944 3.18086 0
M  V30 15 H -1.563 3.418 1.51819 0
M  V30 16 H 0.729 5.58782 3.83104 0
M  V30 17 H 1.672 6.56266 2.65933 0
M  V30 18 H 2.08 4.83886 2.90714 0
M  V30 19 N 1.4781 -0.272755 1.55222 0
M  V30 20 C 2.3881 -1.35918 1.91216 0
M  V30 21 C 3.4041 -1.54026 0.809436 0
M  V30 22 O 4.5801 -1.68148 1.10852 0
M  V30 23 C 1.6451 -2.69834 2.17693 0
M  V30 24 C 0.7061 -2.6047 3.41253 0
M  V30 25 C -0.0609 -3.88 3.66458 0
M  V30 26 O 0.1621 -4.88693 2.94169 0
M  V30 27 O -0.9039 -3.88189 4.59992 0
M  V30 28 H 2.9221 -1.0839 2.83699 0
M  V30 29 H 0.5071 -0.471301 1.41771 0
M  V30 30 H 2.3891 -3.49017 2.36147 0
M  V30 31 H 1.0641 -2.97148 1.28392 0
M  V30 32 H -0.0289 -1.79663 3.28134 0
M  V30 33 H 1.3041 -2.38106 4.30774 0
M  V30 34 N 2.9562 -1.48159 -0.537278 0
M  V30 35 C 3.8662 -1.64807 -1.6696 0
M  V30 36 C 4.8822 -0.530651 -1.65711 0
M  V30 37 O 6.0582 -0.800784 -1.84796 0
M  V30 38 C 3.1232 -1.67708 -3.03438 0
M  V30 39 C 2.1842 -2.91025 -3.156 0
M  V30 40 C 1.4172 -2.93778 -4.45567 0
M  V30 41 O 1.6402 -2.05153 -5.3223 0
M  V30 42 O 0.5742 -3.85868 -4.61941 0
M  V30 43 H 4.4002 -2.6066 -1.55853 0
M  V30 44 H 1.9852 -1.31475 -0.709549 0
M  V30 45 H 3.8672 -1.7218 -3.84619 0
M  V30 46 H 2.5422 -0.750278 -3.14885 0
M  V30 47 H 1.4492 -2.92089 -2.33741 0
M  V30 48 H 2.7822 -3.83065 -3.09066 0
M  V30 49 N 4.4343 0.785586 -1.36625 0
M  V30 50 C 5.6823 1.54057 -1.30808 0
M  V30 51 C 6.0033 1.94683 0.111157 0
M  V30 52 O 5.2733 1.65241 1.05224 0
M  V30 53 H 3.8533 0.571354 -0.481211 0
M  V30 54 H 6.5153 0.935821 -1.70963 0
M  V30 55 H 5.6113 2.44637 -1.93801 0
M  V30 56 N 5.9124 1.20967 1.01018 0
M  V30 57 C 6.8754 0.965918 2.07853 0
M  V30 58 C 7.8754 -0.0610545 1.60684 0
M  V30 59 O 9.0654 0.175681 1.73312 0
M  V30 60 C 6.1974 0.455513 3.37843 0
M  V30 61 H 7.3904 1.91365 2.3091 0
M  V30 62 H 4.9434 1.02594 1.17916 0
M  V30 63 H 5.6784 -0.497381 3.20463 0
M  V30 64 H 5.4634 1.19622 3.73407 0
M  V30 65 H 6.9534 0.304667 4.16487 0
M  V30 66 N 7.3905 -1.2043 1.01659 0
M  V30 67 C 8.8065 -1.41852 0.731442 0
M  V30 68 C 9.0065 -1.89358 -0.688898 0
M  V30 69 O 8.0625 -2.06247 -1.45666 0
M  V30 70 C 9.3755 -2.44019 1.75714 0
M  V30 71 C 10.9235 -2.57785 1.77527 0
M  V30 72 C 11.3985 -3.63194 2.79023 0
M  V30 73 N 12.8895 -3.70678 2.77763 0
M  V30 74 C 13.6245 -4.51897 3.52954 0
M  V30 75 N 13.1205 -5.36921 4.37821 0
M  V30 76 N 14.9135 -4.4643 3.41551 0
M  V30 77 H 7.0645 -0.879093 1.93354 0
M  V30 78 H 9.3275 -0.448425 0.835236 0
M  V30 79 H 9.0335 -2.1611 2.77469 0
M  V30 80 H 8.9075 -3.43007 1.56927 0
M  V30 81 H 11.2945 -2.85023 0.764569 0
M  V30 82 H 11.3755 -1.58992 2.00387 0
M  V30 83 H 11.0195 -3.36699 3.80258 0
M  V30 84 H 10.9495 -4.61609 2.53425 0
M  V30 85 H 13.4405 -3.09944 2.16201 0
M  V30 86 H 13.7535 -5.95981 4.91962 0
M  V30 87 H 12.0985 -5.36424 4.41899 0
M  V30 88 H 15.2895 -3.79042 2.74672 0
M  V30 89 H 15.4625 -5.09491 4.00404 0
M  V30 90 N 8.8686 -0.792821 -1.36206 0
M  V30 91 C 9.8186 -0.166598 -2.27391 0
M  V30 92 C 10.8026 0.651479 -1.47121 0
M  V30 93 O 11.9946 0.510994 -1.69463 0
M  V30 94 C 9.1236 0.695033 -3.36191 0
M  V30 95 C 8.2096 -0.132019 -4.23894 0
M  V30 96 N 8.6006 -1.18822 -4.91645 0
M  V30 97 C 6.8986 0.0885952 -4.45912 0
M  V30 98 C 7.5996 -1.69198 -5.56549 0
M  V30 99 N 6.5756 -1.00065 -5.34311 0
M  V30 100 H 10.3776 -0.974947 -2.77258 0
M  V30 101 H 7.8916 -0.632616 -1.49572 0
M  V30 102 H 9.8886 1.1596 -4.00448 0
M  V30 103 H 8.5486 1.50189 -2.87877 0
M  V30 104 H 9.5596 -1.57069 -4.93507 0
M  V30 105 H 6.2366 0.865688 -4.08426 0
M  V30 106 H 7.6266 -2.57395 -6.20643 0
M  V30 107 N 10.3467 1.47872 -0.545128 0
M  V30 108 C 11.7627 1.5829 -0.204032 0
M  V30 109 C 11.9627 1.54529 1.29317 0
M  V30 110 O 11.0187 1.44232 2.07252 0
M  V30 111 C 12.3317 2.89304 -0.819987 0
M  V30 112 C 13.8797 3.02864 -0.790105 0
M  V30 113 C 14.3547 4.3656 -1.38491 0
M  V30 114 N 15.8457 4.43165 -1.34755 0
M  V30 115 C 16.5807 5.45153 -1.77753 0
M  V30 116 N 16.0767 6.54016 -2.2855 0
M  V30 117 N 17.8697 5.36125 -1.68897 0
M  V30 118 H 10.0207 1.4856 -1.51802 0
M  V30 119 H 12.2837 0.706305 -0.632327 0
M  V30 120 H 11.9897 2.97757 -1.87173 0
M  V30 121 H 11.8637 3.75957 -0.305915 0
M  V30 122 H 14.2507 2.94014 0.252913 0
M  V30 123 H 14.3317 2.17782 -1.34181 0
M  V30 124 H 13.9757 4.46164 -2.42693 0
M  V30 125 H 13.9057 5.20353 -0.808754 0
M  V30 126 H 16.3967 3.65083 -0.975855 0
M  V30 127 H 16.7097 7.27994 -2.59314 0
M  V30 128 H 15.0547 6.54938 -2.32553 0
M  V30 129 H 18.2457 4.49975 -1.28998 0
M  V30 130 H 18.4187 6.15472 -2.02726 0
M  V30 131 N 11.8248 0.280983 1.55075 0
M  V30 132 C 12.7728 -0.619864 2.24188 0
M  V30 133 C 13.7668 -1.15315 1.24092 0
M  V30 134 O 14.9728 -1.1061 1.42005 0
M  V30 135 H 11.3478 -0.218459 0.719569 0
M  V30 136 H 13.3188 -0.0141831 2.98397 0
M  V30 137 C 12.0678 -1.7899 2.98091 0
M  V30 138 H 11.3908 -1.38874 3.74905 0
M  V30 139 H 12.8308 -2.39672 3.49762 0
M  V30 140 C 11.2898 -2.68192 2.03899 0
M  V30 141 O 11.8198 -3.6872 1.594 0
M  V30 142 N 10.0258 -2.35488 1.70275 0
M  V30 143 H 9.5728 -1.53787 2.06658 0
M  V30 144 H 9.5308 -2.95442 1.07524 0
M  V30 145 N 13.3029 -1.57598 0.00835791 0
M  V30 146 C 14.2509 -2.10078 -0.998508 0
M  V30 147 C 15.2449 -1.02262 -1.35051 0
M  V30 148 O 16.4509 -1.20719 -1.33518 0
M  V30 149 H 12.8259 -0.670903 -0.339696 0
M  V30 150 H 14.7969 -2.93648 -0.530398 0
M  V30 151 C 13.5459 -2.62615 -2.27879 0
M  V30 152 H 12.8689 -3.45213 -2.01662 0
M  V30 153 H 14.3089 -3.03004 -2.96588 0
M  V30 154 C 12.7679 -1.54407 -2.99433 0
M  V30 155 O 13.2979 -0.931812 -3.90743 0
M  V30 156 N 11.5039 -1.2695 -2.61404 0
M  V30 157 H 11.0509 -1.76924 -1.87232 0
M  V30 158 H 11.0089 -0.547704 -3.09593 0
M  V30 159 N 14.781 0.264519 -1.55364 0
M  V30 160 C 16.009 1.013 -1.80405 0
M  V30 161 C 16.424 1.79618 -0.581622 0
M  V30 162 O 15.781 1.76879 0.449468 0
M  V30 163 C 15.832 1.96487 -3.03439 0
M  V30 164 O 15.553 1.21341 -4.20961 0
M  V30 165 C 17.054 2.83079 -3.41147 0
M  V30 166 H 14.274 0.298875 -0.600762 0
M  V30 167 H 16.818 0.292736 -2.02394 0
M  V30 168 H 14.973 2.63965 -2.83551 0
M  V30 169 H 15.387 1.85573 -4.90574 0
M  V30 170 H 16.861 3.4565 -4.30384 0
M  V30 171 H 17.338 3.53286 -2.60932 0
M  V30 172 H 17.944 2.2108 -3.63323 0
M  V30 173 N 16.2591 1.48442 0.529413 0
M  V30 174 C 17.1691 1.6569 1.66084 0
M  V30 175 C 18.1851 0.539432 1.65427 0
M  V30 176 O 19.3611 0.810572 1.84368 0
M  V30 177 C 16.4261 1.69315 3.02545 0
M  V30 178 C 15.4871 2.92694 3.14052 0
M  V30 179 C 14.7201 2.96137 4.44003 0
M  V30 180 O 14.9431 2.07973 5.31134 0
M  V30 181 O 13.8771 3.88312 4.59888 0
M  V30 182 H 17.7031 2.61483 1.54469 0
M  V30 183 H 15.2881 1.3185 0.702567 0
M  V30 184 H 17.1701 1.74217 3.83701 0
M  V30 185 H 15.8451 0.766966 3.14483 0
M  V30 186 H 14.7521 2.93324 2.32189 0
M  V30 187 H 16.0851 3.84699 3.0703 0
M  V30 188 N 17.7372 -0.778329 1.37039 0
M  V30 189 C 18.6842 -1.89139 1.32269 0
M  V30 190 C 19.6542 -1.65017 0.189387 0
M  V30 191 O 20.8392 -1.87024 0.377693 0
M  V30 192 C 17.9792 -3.26112 1.12894 0
M  V30 193 C 17.0922 -3.62233 2.35396 0
M  V30 194 C 16.2272 -4.8838 2.08946 0
M  V30 195 C 15.2662 -5.17212 3.2735 0
M  V30 196 N 14.4032 -6.34546 3.00492 0
M  V30 197 H 19.2432 -1.92552 2.27437 0
M  V30 198 H 16.7802 -0.941473 1.13025 0
M  V30 199 H 18.7382 -4.05116 0.996835 0
M  V30 200 H 17.3682 -3.22091 0.213758 0
M  V30 201 H 16.4202 -2.78265 2.5937 0
M  V30 202 H 17.7322 -3.79481 3.23721 0
M  V30 203 H 16.8862 -5.75274 1.92729 0
M  V30 204 H 15.6252 -4.73222 1.17949 0
M  V30 205 H 14.6302 -4.28796 3.44113 0
M  V30 206 H 15.8552 -5.34283 4.19188 0
M  V30 207 H 13.8012 -6.20759 2.12118 0
M  V30 208 H 13.7182 -6.52179 3.82358 0
M  V30 209 H 14.9862 -7.24394 2.87879 0
M  V30 210 N 19.2153 -1.21501 -1.00376 0
M  V30 211 C 20.1623 -0.975387 -2.09177 0
M  V30 212 C 21.1323 0.0990615 -1.65804 0
M  V30 213 O 22.3173 -0.0483147 -1.90739 0
M  V30 214 C 19.4573 -0.547507 -3.40729 0
M  V30 215 C 18.5703 -1.69153 -3.97506 0
M  V30 216 C 17.7053 -1.2127 -5.17172 0
M  V30 217 C 16.7443 -2.32897 -5.66061 0
M  V30 218 N 15.8813 -1.86138 -6.76976 0
M  V30 219 H 20.7213 -1.9068 -2.29009 0
M  V30 220 H 18.2583 -0.950257 -1.12288 0
M  V30 221 H 20.2163 -0.280667 -4.16255 0
M  V30 222 H 18.8463 0.346904 -3.20931 0
M  V30 223 H 17.8983 -2.07298 -3.18954 0
M  V30 224 H 19.2103 -2.5316 -4.29781 0
M  V30 225 H 18.3643 -0.902591 -5.99948 0
M  V30 226 H 17.1033 -0.342692 -4.86495 0
M  V30 227 H 16.1083 -2.64709 -4.81881 0
M  V30 228 H 17.3333 -3.20396 -5.98768 0
M  V30 229 H 15.2793 -1.01484 -6.48103 0
M  V30 230 H 15.1963 -2.63717 -7.08512 0
M  V30 231 H 16.4643 -1.58165 -7.63285 0
M  V30 232 N 20.6934 1.19889 -1.02296 0
M  V30 233 C 21.6434 2.20777 -0.56934 0
M  V30 234 C 22.6274 1.56379 0.378741 0
M  V30 235 O 23.8194 1.75859 0.200673 0
M  V30 236 C 20.9484 3.43196 0.0845077 0
M  V30 237 C 20.0344 4.14749 -0.88566 0
M  V30 238 N 20.4254 4.62584 -2.04573 0
M  V30 239 C 18.7234 4.40347 -0.707835 0
M  V30 240 C 19.4244 5.17466 -2.65714 0
M  V30 241 N 18.4004 5.0791 -1.93723 0
M  V30 242 H 22.2024 2.55434 -1.45365 0
M  V30 243 H 19.7164 1.35897 -0.88915 0
M  V30 244 H 21.7134 4.14707 0.427067 0
M  V30 245 H 20.3734 3.10042 0.964574 0
M  V30 246 H 21.3844 4.57597 -2.4254 0
M  V30 247 H 18.0614 4.17317 0.12364 0
M  V30 248 H 19.4514 5.64808 -3.63925 0
M  V30 249 N 22.1715 0.800033 1.35784 0
M  V30 250 C 23.5825 0.439142 1.81462 0
M  V30 251 C 23.9335 -1.03813 1.66485 0
M  V30 252 O 23.0585 -1.80626 1.19177 0
M  V30 253 C 23.6535 0.790314 3.29453 0
M  V30 254 C 22.2125 0.482111 3.733 0
M  V30 255 C 21.3595 1.01938 2.57883 0
M  V30 256 H 24.3105 0.992254 1.23855 0
M  V30 257 H 24.3315 0.0853677 3.80404 0
M  V30 258 H 23.8435 1.86554 3.40322 0
M  V30 259 H 21.9445 -0.584652 3.67984 0
M  V30 260 H 22.0575 1.01015 4.6833 0
M  V30 261 H 20.4215 0.442043 2.50835 0
M  V30 262 H 21.2045 2.10059 2.71533 0
M  V30 263 N 23.6496 -1.47581 0.552962 0
M  V30 264 C 24.8976 -2.02082 0.0272703 0
M  V30 265 C 25.2186 -1.4301 -1.32563 0
M  V30 266 O 24.4886 -0.603745 -1.86365 0
M  V30 267 H 23.0686 -0.746966 0.00709182 0
M  V30 268 H 25.7306 -1.81033 0.722008 0
M  V30 269 H 24.8266 -3.12034 -0.0639951 0
M  V30 270 N 25.1277 -0.289203 -1.54924 0
M  V30 271 C 26.3757 0.322879 -1.99504 0
M  V30 272 C 26.6967 1.55313 -1.1791 0
M  V30 273 O 25.9667 1.94001 -0.272097 0
M  V30 274 H 24.5467 0.122291 -0.736922 0
M  V30 275 H 27.2087 -0.397802 -1.90797 0
M  V30 276 H 26.3047 0.603061 -3.06218 0
M  V30 277 N 26.6058 1.57591 -0.0167156 0
M  V30 278 C 27.8538 1.90906 0.663285 0
M  V30 279 C 28.1748 0.892509 1.73376 0
M  V30 280 O 27.4448 -0.0677623 1.95783 0
M  V30 281 H 26.0248 0.704637 0.247983 0
M  V30 282 H 28.6868 1.94803 -0.0615909 0
M  V30 283 H 27.7828 2.9116 1.12393 0
M  V30 284 N 28.0839 -0.256276 1.55502 0
M  V30 285 C 28.9939 -1.33882 1.92647 0
M  V30 286 C 30.0099 -1.53159 0.825727 0
M  V30 287 O 31.1859 -1.66963 1.12629 0
M  V30 288 C 28.2509 -2.6751 2.20543 0
M  V30 289 C 27.3119 -2.56836 3.43997 0
M  V30 290 C 26.5449 -3.84092 3.70553 0
M  V30 291 O 26.7679 -4.85545 2.99336 0
M  V30 292 O 25.7019 -3.83288 4.64084 0
M  V30 293 H 29.5279 -1.05374 2.84833 0
M  V30 294 H 27.1129 -0.456237 1.42263 0
M  V30 295 H 28.9949 -3.46492 2.39835 0
M  V30 296 H 27.6699 -2.9577 1.31536 0
M  V30 297 H 26.5769 -1.76172 3.30021 0
M  V30 298 H 27.9099 -2.33523 4.33275 0
M  V30 299 N 29.562 -1.4872 -0.521534 0
M  V30 300 C 30.787 -1.61101 -1.30618 0
M  V30 301 C 31.212 -0.274611 -1.86085 0
M  V30 302 O 30.57 0.754937 -1.64834 0
M  V30 303 C 30.618 -2.66709 -2.4269 0
M  V30 304 O 29.722 -2.24456 -3.45967 0
M  V30 305 H 29.063 -0.539921 -0.386499 0
M  V30 306 H 31.593 -1.94767 -0.626645 0
M  V30 307 H 31.603 -2.88245 -2.88754 0
M  V30 308 H 30.278 -3.63727 -2.01682 0
M  V30 309 H 28.855 -2.13168 -3.05964 0
M  V30 310 N 31.0401 0.771051 -1.3745 0
M  V30 311 C 32.3171 1.519 -1.23231 0
M  V30 312 C 32.6971 2.10383 0.173809 0
M  V30 313 O 32.0451 1.95583 1.18151 0
M  V30 314 C 32.2551 2.59933 -2.32886 0
M  V30 315 C 33.6031 3.27316 -2.70461 0
M  V30 316 O 34.6271 2.70228 -2.32068 0
M  V30 317 O 33.4861 4.30531 -3.36608 0
M  V30 318 H 30.5801 0.672803 -0.480901 0
M  V30 319 H 33.1261 0.807957 -1.49232 0
M  V30 320 H 31.8981 2.14842 -3.27045 0
M  V30 321 H 31.5211 3.38637 -2.08353 0
M  V30 322 N 32.5182 1.22032 0.997298 0
M  V30 323 C 33.4812 0.987909 2.06816 0
M  V30 324 C 34.4812 -0.0440084 1.6074 0
M  V30 325 O 35.6712 0.194053 1.73116 0
M  V30 326 C 32.8032 0.49132 3.37341 0
M  V30 327 H 33.9962 1.93803 2.28868 0
M  V30 328 H 31.5492 1.03838 1.16822 0
M  V30 329 H 32.2842 -0.463364 3.20973 0
M  V30 330 H 32.0692 1.23575 3.72118 0
M  V30 331 H 33.5592 0.348824 4.16141 0
M  V30 332 N 33.9963 -1.19345 1.0293 0
M  V30 333 C 35.2213 -1.93538 0.745511 0
M  V30 334 C 35.6463 -1.75007 -0.689511 0
M  V30 335 O 35.0043 -1.05265 -1.47611 0
M  V30 336 C 35.0523 -3.43336 1.10239 0
M  V30 337 O 34.1563 -4.11806 0.221289 0
M  V30 338 H 33.4973 -0.604193 0.275404 0
M  V30 339 H 36.0273 -1.5141 1.37609 0
M  V30 340 H 36.0373 -3.94004 1.05947 0
M  V30 341 H 34.7123 -3.56146 2.14786 0
M  V30 342 H 33.2893 -3.715 0.322842 0
M  V30 343 N 35.4744 -0.807222 -1.35358 0
M  V30 344 C 36.8854 -0.44876 -1.81226 0
M  V30 345 C 37.2364 1.02929 -1.67033 0
M  V30 346 O 36.3614 1.79991 -1.20133 0
M  V30 347 C 36.9564 -0.807774 -3.2903 0
M  V30 348 C 35.5154 -0.501901 -3.73039 0
M  V30 349 C 34.6624 -1.03304 -2.57339 0
M  V30 350 H 37.6134 -0.998808 -1.23327 0
M  V30 351 H 37.6344 -0.10554 -3.80354 0
M  V30 352 H 37.1464 -1.88357 -3.39328 0
M  V30 353 H 35.2474 0.565128 -3.68289 0
M  V30 354 H 35.3604 -1.03497 -4.67787 0
M  V30 355 H 33.7244 -0.455339 -2.50597 0
M  V30 356 H 34.5074 -2.11496 -2.70415 0
M  V30 357 N 36.9525 1.47285 -0.560781 0
M  V30 358 C 37.8625 2.33846 0.187954 0
M  V30 359 C 38.8785 1.48412 0.908293 0
M  V30 360 O 40.0545 1.81332 0.876388 0
M  V30 361 C 37.1195 3.25178 1.2025 0
M  V30 362 C 36.1805 4.26504 0.489208 0
M  V30 363 C 35.4135 5.13472 1.45542 0
M  V30 364 O 35.6365 5.02959 2.6905 0
M  V30 365 O 34.5705 5.93902 0.977963 0
M  V30 366 H 38.3965 2.99177 -0.522177 0
M  V30 367 H 35.9815 1.45903 -0.321364 0
M  V30 368 H 37.8635 3.81584 1.78805 0
M  V30 369 H 36.5385 2.6247 1.89449 0
M  V30 370 H 35.4455 3.73847 -0.137627 0
M  V30 371 H 36.7785 4.91935 -0.161399 0
M  V30 372 N 38.4306 0.297415 1.54768 0
M  V30 373 C 39.3936 -0.567375 2.22066 0
M  V30 374 C 40.3936 -1.06409 1.20556 0
M  V30 375 O 41.5836 -0.960691 1.45315 0
M  V30 376 C 38.7156 -1.78517 2.90421 0
M  V30 377 H 39.9086 0.0205534 2.99893 0
M  V30 378 H 37.4616 0.0482163 1.56226 0
M  V30 379 H 38.1966 -2.41303 2.16664 0
M  V30 380 H 37.9816 -1.43669 3.64831 0
M  V30 381 H 39.4716 -2.39964 3.41771 0
M  V30 382 N 39.9087 -1.5758 0.0250728 0
M  V30 383 C 41.1567 -1.91255 -0.653151 0
M  V30 384 C 41.4777 -0.901691 -1.729 0
M  V30 385 O 40.7477 0.0573785 -1.95816 0
M  V30 386 H 39.3277 -0.705942 -0.244243 0
M  V30 387 H 41.9897 -1.94767 0.0719209 0
M  V30 388 H 41.0857 -2.91752 -1.10847 0
M  V30 389 N 41.3868 0.248026 -1.55636 0
M  V30 390 C 42.6118 0.998028 -1.81808 0
M  V30 391 C 43.0368 1.78207 -0.601979 0
M  V30 392 O 42.3948 1.75653 0.448961 0
M  V30 393 C 42.4428 1.9125 -3.05705 0
M  V30 394 O 41.5468 3.00406 -2.82542 0
M  V30 395 H 40.8878 0.284045 -0.600179 0
M  V30 396 H 43.4178 0.269357 -2.02819 0
M  V30 397 H 43.4278 2.32737 -3.35108 0
M  V30 398 H 42.1028 1.33602 -3.93857 0
M  V30 399 H 40.6798 2.63056 -2.64303 0
M  V30 400 N 42.8649 1.48995 0.513639 0
M  V30 401 C 44.1129 1.57531 1.26604 0
M  V30 402 C 44.4339 0.258236 1.93283 0
M  V30 403 O 43.7039 -0.721502 1.8213 0
M  V30 404 H 42.2839 0.580387 0.470276 0
M  V30 405 H 44.9459 1.85552 0.596373 0
M  V30 406 H 44.0419 2.36486 2.03669 0
M  V30 407 N 44.343 -0.763751 1.37857 0
M  V30 408 C 45.591 -1.51957 1.33243 0
M  V30 409 C 45.912 -1.94835 -0.0801709 0
M  V30 410 O 45.182 -1.66894 -1.02582 0
M  V30 411 H 43.762 -0.563626 0.49024 0
M  V30 412 H 46.424 -0.908504 1.7243 0
M  V30 413 H 45.52 -2.41523 1.97669 0
M  V30 414 N 45.8211 -1.22559 -0.990812 0
M  V30 415 C 47.0691 -1.04933 -1.72724 0
M  V30 416 C 47.3901 0.416158 -1.90508 0
M  V30 417 O 46.6601 1.29918 -1.46622 0
M  V30 418 H 45.2401 -0.385296 -0.639965 0
M  V30 419 H 47.9021 -1.54105 -1.19322 0
M  V30 420 H 46.9981 -1.52886 -2.72089 0
M  V30 421 N 47.2992 1.18797 -1.03562 0
M  V30 422 C 48.5472 1.88278 -0.734569 0
M  V30 423 C 48.8682 1.8043 0.739586 0
M  V30 424 O 48.1382 1.21925 1.53333 0
M  V30 425 H 46.7182 0.696991 -0.268725 0
M  V30 426 H 49.3802 1.44192 -1.31129 0
M  V30 427 H 48.4762 2.94443 -1.03489 0
M  V30 428 N 48.7773 0.814389 1.34928 0
M  V30 429 C 50.0233 0.399013 1.98836 0
M  V30 430 C 50.3563 -1.03314 1.64438 0
M  V30 431 O 49.6313 -1.71811 0.911659 0
M  V30 432 C 49.9143 0.591629 3.55207 0
M  V30 433 C 49.7673 2.06928 3.99376 0
M  V30 434 C 51.0863 0.022199 4.40094 0
M  V30 435 H 48.2053 0.146451 0.722303 0
M  V30 436 H 50.8473 1.02537 1.59957 0
M  V30 437 H 48.9973 0.0584441 3.88456 0
M  V30 438 H 50.6693 2.66544 3.76499 0
M  V30 439 H 48.9123 2.56287 3.49999 0
M  V30 440 H 49.5833 2.1549 5.08201 0
M  V30 441 H 52.0593 0.477643 4.13349 0
M  V30 442 H 50.9353 0.186832 5.48582 0
M  V30 443 H 51.1963 -1.07215 4.28902 0
M  V30 444 N 50.2554 -1.46986 0.568584 0
M  V30 445 C 51.2184 -2.28624 -0.162366 0
M  V30 446 C 52.2184 -1.37596 -0.832103 0
M  V30 447 O 53.4084 -1.60115 -0.68622 0
M  V30 448 C 50.5404 -3.17596 -1.23878 0
M  V30 449 H 51.7334 -2.94722 0.554899 0
M  V30 450 H 49.2864 -1.52863 0.325976 0
M  V30 451 H 50.0214 -2.56214 -1.98808 0
M  V30 452 H 49.8064 -3.846 -0.763219 0
M  V30 453 H 51.2964 -3.79078 -1.75185 0
M  V30 454 N 51.7335 -0.305618 -1.54608 0
M  V30 455 C 52.6635 0.561482 -2.26649 0
M  V30 456 C 53.6445 1.13415 -1.26772 0
M  V30 457 O 54.8295 1.16262 -1.55553 0
M  V30 458 C 51.9595 1.73122 -3.01075 0
M  V30 459 C 50.9135 1.2887 -4.08138 0
M  V30 460 C 50.2395 2.54396 -4.70305 0
M  V30 461 C 51.5395 0.416578 -5.20636 0
M  V30 462 H 53.2335 -0.0393902 -2.99374 0
M  V30 463 H 50.7795 -0.020385 -1.43986 0
M  V30 464 H 52.7325 2.34396 -3.50195 0
M  V30 465 H 51.4565 2.3584 -2.25936 0
M  V30 466 H 50.1155 0.698991 -3.59875 0
M  V30 467 H 49.7635 3.15439 -3.918 0
M  V30 468 H 49.4635 2.25486 -5.42614 0
M  V30 469 H 50.9875 3.16464 -5.2219 0
M  V30 470 H 52.4015 0.935116 -5.65622 0
M  V30 471 H 50.7985 0.221046 -5.99693 0
M  V30 472 H 51.8685 -0.557162 -4.81688 0
M  V30 473 N 53.2116 1.57565 -0.0334293 0
M  V30 474 C 54.1586 2.10478 0.946981 0
M  V30 475 C 55.1286 1.00787 1.32027 0
M  V30 476 O 56.3136 1.28232 1.41284 0
M  V30 477 C 53.4536 2.63994 2.22263 0
M  V30 478 C 52.5666 3.87709 1.90541 0
M  V30 479 C 51.7016 4.29604 3.12433 0
M  V30 480 C 50.7406 5.46065 2.76549 0
M  V30 481 N 49.8776 5.83096 3.9108 0
M  V30 482 H 54.7176 2.93963 0.488846 0
M  V30 483 H 52.2546 1.45296 0.22969 0
M  V30 484 H 54.2126 2.93114 2.96884 0
M  V30 485 H 52.8426 1.83333 2.65685 0
M  V30 486 H 51.8946 3.65291 1.06144 0
M  V30 487 H 53.2066 4.72403 1.60116 0
M  V30 488 H 52.3606 4.60182 3.9537 0
M  V30 489 H 51.0996 3.43685 3.46023 0
M  V30 490 H 50.1046 5.15176 1.92026 0
M  V30 491 H 51.3296 6.33685 2.44171 0
M  V30 492 H 49.2756 5.00132 4.24504 0
M  V30 493 H 49.1926 6.6244 3.64293 0
M  V30 494 H 50.4606 6.18282 4.74708 0
M  V30 495 N 54.6897 -0.239769 1.55765 0
M  V30 496 C 55.6367 -1.29696 1.90913 0
M  V30 497 C 56.6067 -1.47478 0.764164 0
M  V30 498 O 57.7917 -1.61345 1.01845 0
M  V30 499 C 54.9317 -2.64598 2.21544 0
M  V30 500 C 54.0447 -2.54765 3.48882 0
M  V30 501 C 53.1797 -3.82069 3.69049 0
M  V30 502 C 52.2187 -3.66883 4.89963 0
M  V30 503 N 51.3557 -4.86094 5.06614 0
M  V30 504 H 56.1957 -0.990224 2.81067 0
M  V30 505 H 53.7327 -0.477684 1.39128 0
M  V30 506 H 55.6907 -3.43132 2.3731 0
M  V30 507 H 54.3207 -2.93405 1.34585 0
M  V30 508 H 53.3727 -1.67763 3.41409 0
M  V30 509 H 54.6847 -2.39457 4.37563 0
M  V30 510 H 53.8387 -4.69046 3.84812 0
M  V30 511 H 52.5777 -4.00282 2.78614 0
M  V30 512 H 51.5827 -2.78289 4.74168 0
M  V30 513 H 52.8077 -3.50157 5.81865 0
M  V30 514 H 50.7537 -5.04655 4.19117 0
M  V30 515 H 50.6707 -4.73443 5.89396 0
M  V30 516 H 51.9387 -5.74549 5.26795 0
M  V30 517 N 56.1678 -1.49265 -0.50573 0
M  V30 518 C 57.0778 -1.68312 -1.63427 0
M  V30 519 C 58.0938 -0.565682 -1.64548 0
M  V30 520 O 59.2698 -0.839801 -1.83055 0
M  V30 521 C 56.3348 -1.74107 -2.99813 0
M  V30 522 C 55.3958 -2.97653 -3.09356 0
M  V30 523 C 54.6288 -3.03163 -4.39236 0
M  V30 524 O 54.8518 -2.16396 -5.27758 0
M  V30 525 O 53.7858 -3.9558 -4.53652 0
M  V30 526 H 57.6118 -2.63907 -1.50289 0
M  V30 527 H 55.1968 -1.32951 -0.681502 0
M  V30 528 H 57.0788 -1.803 -3.80881 0
M  V30 529 H 55.7538 -0.816901 -3.13223 0
M  V30 530 H 54.6608 -2.96981 -2.27493 0
M  V30 531 H 55.9938 -3.89535 -3.00871 0
M  V30 532 N 57.6459 0.756429 -1.3826 0
M  V30 533 C 58.8949 1.51082 -1.3363 0
M  V30 534 C 59.2079 1.95467 0.0720068 0
M  V30 535 O 60.4139 2.7043 0.240834 0
M  V30 536 C 58.8699 2.72893 -2.34644 0
M  V30 537 C 58.4779 2.35544 -3.81081 0
M  V30 538 C 60.2219 3.50791 -2.39052 0
M  V30 539 C 58.1289 3.53948 -4.73787 0
M  V30 540 H 57.0589 0.56727 -0.49671 0
M  V30 541 H 59.7099 0.827147 -1.638 0
M  V30 542 H 58.0919 3.43227 -1.97513 0
M  V30 543 H 59.2659 1.72894 -4.27135 0
M  V30 544 H 57.5809 1.70786 -3.79764 0
M  V30 545 H 60.1779 4.38823 -3.05513 0
M  V30 546 H 60.5209 3.91745 -1.40861 0
M  V30 547 H 61.0539 2.87467 -2.74968 0
M  V30 548 H 57.7929 3.18064 -5.73163 0
M  V30 549 H 57.3129 4.15651 -4.32428 0
M  V30 550 H 58.9919 4.20566 -4.91663 0
M  V30 551 N 59.124 1.23083 0.984299 0
M  V30 552 C 60.372 1.05848 1.72165 0
M  V30 553 C 60.693 -0.406049 1.90726 0
M  V30 554 O 59.963 -1.29139 1.47309 0
M  V30 555 H 58.543 0.388685 0.637913 0
M  V30 556 H 61.205 1.54736 1.18503 0
M  V30 557 H 60.301 1.54327 2.71274 0
M  V30 558 N 60.6021 -1.18246 1.0419 0
M  V30 559 C 61.5321 -2.24127 0.654914 0
M  V30 560 C 62.5131 -1.66617 -0.342451 0
M  V30 561 O 63.6981 -1.92924 -0.222277 0
M  V30 562 C 60.8281 -3.47295 0.0183757 0
M  V30 563 C 59.7821 -4.17563 0.939414 0
M  V30 564 C 59.1081 -5.34438 0.167286 0
M  V30 565 C 60.4081 -4.70917 2.25908 0
M  V30 566 H 62.1021 -2.56753 1.54007 0
M  V30 567 H 59.6481 -1.23414 0.74195 0
M  V30 568 H 61.6011 -4.20572 -0.264082 0
M  V30 569 H 60.3251 -3.13907 -0.901664 0
M  V30 570 H 58.9841 -3.46186 1.20628 0
M  V30 571 H 58.6321 -4.97298 -0.7552 0
M  V30 572 H 58.3321 -5.82388 0.780901 0
M  V30 573 H 59.8561 -6.10504 -0.108125 0
M  V30 574 H 61.2701 -5.35882 2.03724 0
M  V30 575 H 59.6671 -5.29406 2.82577 0
M  V30 576 H 60.7371 -3.88272 2.9047 0
M  V30 577 N 62.0802 -0.821533 -1.34494 0
M  V30 578 C 63.3262 -0.409552 -1.98622 0
M  V30 579 C 63.6592 1.0244 -1.64984 0
M  V30 580 O 62.9342 1.71325 -0.920758 0
M  V30 581 C 63.2172 -0.610458 -3.54888 0
M  V30 582 C 63.0702 -2.09043 -3.98273 0
M  V30 583 C 64.3892 -0.0455379 -4.40076 0
M  V30 584 H 61.5082 -0.15028 -0.721516 0
M  V30 585 H 64.1502 -1.03384 -1.59411 0
M  V30 586 H 62.3002 -0.079044 -3.8842 0
M  V30 587 H 63.9722 -2.68537 -3.75081 0
M  V30 588 H 62.2152 -2.58139 -3.48635 0
M  V30 589 H 62.8862 -2.18182 -5.07051 0
M  V30 590 H 65.3622 -0.499557 -4.1309 0
M  V30 591 H 64.2382 -0.215922 -5.48475 0
M  V30 592 H 64.4992 1.04939 -4.29465 0
M  V30 593 N 63.5583 1.46682 -0.576371 0
M  V30 594 C 64.7833 2.07304 -0.0630475 0
M  V30 595 C 65.2083 1.42329 1.2298 0
M  V30 596 O 64.5663 0.504865 1.74129 0
M  V30 597 C 64.6143 3.60472 0.095895 0
M  V30 598 O 63.7183 3.95927 1.15394 0
M  V30 599 H 63.0593 0.661288 -0.0599463 0
M  V30 600 H 65.5893 1.88417 -0.797511 0
M  V30 601 H 65.5993 4.06865 0.304071 0
M  V30 602 H 64.2743 4.07157 -0.84828 0
M  V30 603 H 62.8513 3.61252 0.924724 0
M  V30 604 N 65.0364 0.313813 1.54444 0
M  V30 605 C 65.9994 -0.54379 2.22656 0
M  V30 606 C 66.9994 -1.05124 1.21678 0
M  V30 607 O 68.1894 -0.945225 1.46325 0
M  V30 608 C 65.3214 -1.75427 2.92298 0
M  V30 609 H 66.5144 0.0523599 2.99854 0
M  V30 610 H 64.0674 0.0647834 1.56166 0
M  V30 611 H 64.8024 -2.38991 2.19211 0
M  V30 612 H 64.5874 -1.39791 3.66334 0
M  V30 613 H 66.0774 -2.36325 3.44297 0
M  V30 614 N 66.5145 -1.57545 0.0417849 0
M  V30 615 C 67.7545 -1.94185 -0.63809 0
M  V30 616 C 68.1185 -0.919339 -1.68559 0
M  V30 617 O 69.3195 -1.17236 -2.41886 0
M  V30 618 C 67.5905 -3.35672 -1.22714 0
M  V30 619 S 69.1495 -3.94256 -1.92633 0
M  V30 620 H 65.9675 -0.679353 -0.209764 0
M  V30 621 H 68.5695 -1.95199 0.108479 0
M  V30 622 H 67.2735 -4.07898 -0.452503 0
M  V30 623 H 66.8045 -3.38132 -2.01073 0
M  V30 624 H 68.8195 -3.7872 -3.20602 0
M  V30 625 N 67.9926 0.231505 -1.5589 0
M  V30 626 C 69.2406 0.955461 -1.78088 0
M  V30 627 C 69.5616 1.85262 -0.608533 0
M  V30 628 O 68.8316 1.92277 0.375035 0
M  V30 629 H 67.4116 0.355787 -0.656829 0
M  V30 630 H 70.0736 0.245751 -1.93344 0
M  V30 631 H 69.1696 1.56814 -2.69844 0
M  V30 632 N 69.4707 1.49531 0.497807 0
M  V30 633 C 70.7197 1.58426 1.24837 0
M  V30 634 C 71.0327 0.277643 1.93619 0
M  V30 635 O 72.2387 0.24517 2.70391 0
M  V30 636 C 70.6947 2.79538 2.26686 0
M  V30 637 C 70.3027 4.16971 1.63828 0
M  V30 638 C 72.0467 2.97764 3.0255 0
M  V30 639 C 69.9537 5.29301 2.63807 0
M  V30 640 H 68.8837 0.58989 0.469623 0
M  V30 641 H 71.5347 1.75923 0.521857 0
M  V30 642 H 69.9167 2.55542 3.02514 0
M  V30 643 H 71.0907 4.51116 0.939711 0
M  V30 644 H 69.4057 4.04129 1.00342 0
M  V30 645 H 72.0027 3.78856 3.77323 0
M  V30 646 H 72.3457 2.08448 3.60354 0
M  V30 647 H 72.8787 3.21815 2.33838 0
M  V30 648 H 69.6177 6.20687 2.10779 0
M  V30 649 H 69.1377 4.99606 3.31894 0
M  V30 650 H 70.8167 5.58768 3.2617 0
M  V30 651 N 70.9488 -0.749086 1.3866 0
M  V30 652 C 72.1978 -1.50371 1.3443 0
M  V30 653 C 72.5108 -1.95503 -0.0616397 0
M  V30 654 O 73.7168 -2.70554 -0.226489 0
M  V30 655 C 72.1728 -2.71644 2.36088 0
M  V30 656 C 71.7808 -2.3352 3.82325 0
M  V30 657 C 73.5248 -3.49518 2.40909 0
M  V30 658 C 71.4318 -3.51431 4.75658 0
M  V30 659 H 70.3618 -0.564628 0.499712 0
M  V30 660 H 73.0128 -0.818449 1.64237 0
M  V30 661 H 71.3948 -3.42175 1.9933 0
M  V30 662 H 72.5688 -1.70627 4.28046 0
M  V30 663 H 70.8838 -1.6877 3.80665 0
M  V30 664 H 73.4808 -4.37197 3.07836 0
M  V30 665 H 73.8238 -3.90992 1.42937 0
M  V30 666 H 74.3568 -2.86005 2.76489 0
M  V30 667 H 71.0958 -3.15019 5.74842 0
M  V30 668 H 70.6158 -4.13352 4.34627 0
M  V30 669 H 72.2948 -4.17953 4.93887 0
M  V30 670 N 72.4269 -1.23603 -0.977757 0
M  V30 671 C 73.6729 -1.07129 -1.72195 0
M  V30 672 C 74.0059 0.390501 -1.90233 0
M  V30 673 O 73.2809 1.28902 -1.45653 0
M  V30 674 C 73.5639 -1.80031 -3.11867 0
M  V30 675 C 73.4169 -3.33899 -3.01383 0
M  V30 676 C 74.7359 -1.56492 -4.11337 0
M  V30 677 H 71.8549 -0.390571 -0.624999 0
M  V30 678 H 74.4969 -1.52142 -1.13811 0
M  V30 679 H 72.6469 -1.41768 -3.6171 0
M  V30 680 H 74.3189 -3.81699 -2.59043 0
M  V30 681 H 72.5619 -3.62796 -2.37827 0
M  V30 682 H 73.2329 -3.801 -4.00285 0
M  V30 683 H 75.7089 -1.89757 -3.70313 0
M  V30 684 H 74.5849 -2.09973 -5.07151 0
M  V30 685 H 74.8459 -0.500874 -4.39254 0
M  V30 686 N 73.905 1.17692 -1.04816 0
M  V30 687 C 75.153 1.87488 -0.754497 0
M  V30 688 C 75.474 1.81205 0.720407 0
M  V30 689 O 74.744 1.23544 1.52032 0
M  V30 690 H 73.324 0.694101 -0.276102 0
M  V30 691 H 75.986 1.42793 -1.32651 0
M  V30 692 H 75.082 2.93328 -1.06606 0
M  V30 693 N 75.3831 0.828654 1.34056 0
M  V30 694 C 76.3311 0.242973 2.31327 0
M  V30 695 C 77.3251 -0.61944 1.57668 0
M  V30 696 O 78.5311 -0.51014 1.7262 0
M  V30 697 H 74.9061 0.059834 0.749616 0
M  V30 698 H 76.8771 1.07809 2.78244 0
M  V30 699 C 75.6261 -0.575733 3.429 0
M  V30 700 H 74.9491 0.0785582 3.99723 0
M  V30 701 H 76.3891 -0.951547 4.13185 0
M  V30 702 C 74.8481 -1.75044 2.87856 0
M  V30 703 O 75.3781 -2.84882 2.83205 0
M  V30 704 N 73.5841 -1.56903 2.44602 0
M  V30 705 H 73.1311 -0.675547 2.48584 0
M  V30 706 H 73.0891 -2.35652 2.08124 0
M  V30 707 N 76.8612 -1.46375 0.584142 0
M  V30 708 C 78.1102 -2.01585 0.0679741 0
M  V30 709 C 78.4232 -1.46109 -1.30045 0
M  V30 710 O 79.6292 -1.93148 -1.90804 0
M  V30 711 C 78.0852 -3.5983 0.0709207 0
M  V30 712 C 77.6932 -4.24303 1.43775 0
M  V30 713 C 79.4372 -4.22693 -0.391228 0
M  V30 714 C 77.3442 -5.74631 1.39834 0
M  V30 715 H 76.2742 -0.753689 0.0216421 0
M  V30 716 H 78.9252 -1.68093 0.736001 0
M  V30 717 H 77.3072 -3.90405 -0.663299 0
M  V30 718 H 78.4812 -4.05335 2.19181 0
M  V30 719 H 76.7962 -3.73539 1.84004 0
M  V30 720 H 79.3932 -5.3289 -0.439524 0
M  V30 721 H 79.7362 -3.91728 -1.40906 0
M  V30 722 H 80.2692 -3.96749 0.288974 0
M  V30 723 H 77.0082 -6.10258 2.39303 0
M  V30 724 H 76.5282 -5.95858 0.686505 0
M  V30 725 H 78.2072 -6.37375 1.11187 0
M  V30 726 N 78.3393 -0.321999 -1.54275 0
M  V30 727 C 79.5883 0.281931 -1.9972 0
M  V30 728 C 79.9013 1.53369 -1.21397 0
M  V30 729 O 81.1073 2.21352 -1.57211 0
M  V30 730 C 79.5633 0.5529 -3.55628 0
M  V30 731 C 79.1713 -0.681721 -4.42783 0
M  V30 732 C 80.9153 1.11687 -4.09544 0
M  V30 733 C 78.8223 -0.382742 -5.9016 0
M  V30 734 H 77.7523 0.109124 -0.746062 0
M  V30 735 H 80.4033 -0.43398 -1.78294 0
M  V30 736 H 78.7853 1.32896 -3.73035 0
M  V30 737 H 79.9593 -1.45723 -4.37151 0
M  V30 738 H 78.2743 -1.1658 -3.99748 0
M  V30 739 H 80.8713 1.35515 -5.17242 0
M  V30 740 H 81.2143 2.06575 -3.61431 0
M  V30 741 H 81.7473 0.402032 -3.95763 0
M  V30 742 H 78.4863 -1.30076 -6.42464 0
M  V30 743 H 78.0063 0.355094 -5.98748 0
M  V30 744 H 79.6853 0.00800157 -6.47 0
M  V30 745 N 79.8174 1.5752 -0.0501392 0
M  V30 746 C 81.0654 1.9227 0.622642 0
M  V30 747 C 81.3864 0.929083 1.71444 0
M  V30 748 O 80.6564 -0.0262186 1.95882 0
M  V30 749 H 79.2364 0.709739 0.232981 0
M  V30 750 H 81.8984 1.94628 -0.102898 0
M  V30 751 H 80.9944 2.93479 1.06191 0
M  V30 752 N 81.2955 -0.223234 1.56011 0
M  V30 753 C 82.5205 -0.968978 1.83373 0
M  V30 754 C 82.9455 -1.77227 0.630254 0
M  V30 755 O 82.3035 -1.76345 -0.420959 0
M  V30 756 C 82.3515 -1.86363 3.08709 0
M  V30 757 O 81.4555 -2.95873 2.87285 0
M  V30 758 H 80.7965 -0.274461 0.604622 0
M  V30 759 H 83.3265 -0.237056 2.03222 0
M  V30 760 H 83.3365 -2.27376 3.38768 0
M  V30 761 H 82.0115 -1.27319 3.95933 0
M  V30 762 H 80.5885 -2.58818 2.68454 0
M  V30 763 N 82.7736 -1.49793 -0.48987 0
M  V30 764 C 84.0216 -1.59525 -1.24081 0
M  V30 765 C 84.3426 -0.288953 -1.92847 0
M  V30 766 O 83.6126 0.692436 -1.83254 0
M  V30 767 H 82.1926 -0.587796 -0.460983 0
M  V30 768 H 84.8546 -1.86477 -0.566778 0
M  V30 769 H 83.9506 -2.39696 -1.99881 0
M  V30 770 N 84.2517 0.741722 -1.39055 0
M  V30 771 C 85.5007 1.49656 -1.35225 0
M  V30 772 C 85.8137 1.95533 0.0512708 0
M  V30 773 O 87.0197 2.7067 0.212138 0
M  V30 774 C 85.4757 2.70389 -2.37525 0
M  V30 775 C 85.0837 2.31489 -3.83558 0
M  V30 776 C 86.8277 3.48236 -2.42759 0
M  V30 777 C 84.7347 3.48903 -4.77515 0
M  V30 778 H 83.6647 0.56197 -0.502699 0
M  V30 779 H 86.3157 0.809727 -1.64668 0
M  V30 780 H 84.6977 3.41113 -2.01142 0
M  V30 781 H 85.8717 1.68354 -4.28945 0
M  V30 782 H 84.1867 1.66749 -3.81554 0
M  V30 783 H 86.7837 4.35558 -3.1015 0
M  V30 784 H 87.1267 3.90229 -1.45008 0
M  V30 785 H 87.6597 2.84535 -2.78002 0
M  V30 786 H 84.3987 3.11966 -5.76504 0
M  V30 787 H 83.9187 4.11041 -4.36813 0
M  V30 788 H 85.5977 4.15328 -4.96096 0
M  V30 789 N 85.7298 1.2412 0.971189 0
M  V30 790 C 86.9768 1.07881 1.71371 0
M  V30 791 C 87.3048 -0.382901 1.90694 0
M  V30 792 O 86.5598 -1.29945 1.46331 0
M  V30 793 C 86.8588 1.75983 3.11071 0
M  V30 794 C 86.5248 3.25909 3.11599 0
M  V30 795 C 85.1868 3.66813 3.11451 0
M  V30 796 C 87.5388 4.21771 3.062 0
M  V30 797 C 84.8668 5.02021 3.03631 0
M  V30 798 C 87.2188 5.56982 2.99923 0
M  V30 799 C 85.8828 5.97237 2.98102 0
M  V30 800 H 85.1528 0.394764 0.62709 0
M  V30 801 H 87.7998 1.54176 1.13587 0
M  V30 802 H 86.1048 1.22072 3.72298 0
M  V30 803 H 87.8018 1.60887 3.6731 0
M  V30 804 H 84.3918 2.93353 3.12477 0
M  V30 805 H 88.5758 3.91172 3.05447 0
M  V30 806 H 83.8318 5.32411 3.0058 0
M  V30 807 H 88.0058 6.30969 2.94704 0
M  V30 808 H 85.6328 7.01967 2.91798 0
M  V30 809 N 87.2079 -1.17134 1.05439 0
M  V30 810 C 88.4539 -1.87733 0.767077 0
M  V30 811 C 88.7869 -1.8098 -0.704253 0
M  V30 812 O 88.0619 -1.21951 -1.5152 0
M  V30 813 C 88.3449 -3.37659 1.25133 0
M  V30 814 C 88.1979 -3.53149 2.78578 0
M  V30 815 C 89.5169 -4.31768 0.852324 0
M  V30 816 H 86.6359 -0.681687 0.280129 0
M  V30 817 H 89.2779 -1.37732 1.30881 0
M  V30 818 H 87.4279 -3.80373 0.790469 0
M  V30 819 H 89.0999 -3.19434 3.32806 0
M  V30 820 H 87.3429 -2.95345 3.17732 0
M  V30 821 H 88.0139 -4.58403 3.07523 0
M  V30 822 H 90.4899 -3.96909 1.24911 0
M  V30 823 H 89.3659 -5.35199 1.21873 0
M  V30 824 H 89.6269 -4.41429 -0.243485 0
M  V30 825 N 88.686 -0.835752 -1.33615 0
M  V30 826 C 89.911 -0.442389 -2.02627 0
M  V30 827 C 90.336 0.947735 -1.62479 0
M  V30 828 O 89.694 1.61907 -0.815826 0
M  V30 829 C 89.742 -0.567216 -3.56111 0
M  V30 830 O 88.846 0.407799 -4.10379 0
M  V30 831 H 88.187 -0.180278 -0.639059 0
M  V30 832 H 90.717 -1.12972 -1.70583 0
M  V30 833 H 90.727 -0.447708 -4.05536 0
M  V30 834 H 89.402 -1.58103 -3.84677 0
M  V30 835 H 87.979 0.246107 -3.72087 0
M  V30 836 N 90.1641 1.46063 -0.591896 0
M  V30 837 C 91.5751 1.85944 -0.167822 0
M  V30 838 C 91.9261 1.49429 1.27143 0
M  V30 839 O 91.0511 0.913515 1.96173 0
M  V30 840 C 91.6461 3.37489 -0.297794 0
M  V30 841 C 90.2051 3.76332 0.0714732 0
M  V30 842 C 89.3521 2.7006 -0.629509 0
M  V30 843 H 92.3031 1.37087 -0.799555 0
M  V30 844 H 92.3241 3.77532 0.474349 0
M  V30 845 H 91.8361 3.64034 -1.3454 0
M  V30 846 H 89.9371 3.55405 1.11886 0
M  V30 847 H 90.0501 4.78088 -0.311245 0
M  V30 848 H 88.4141 2.54607 -0.0687867 0
M  V30 849 H 89.1971 2.99444 -1.67894 0
M  V30 850 N 91.6422 0.330177 1.54103 0
M  V30 851 C 92.5892 -0.532762 2.24567 0
M  V30 852 C 93.5592 -1.10635 1.23892 0
M  V30 853 O 94.7442 -1.14546 1.5259 0
M  V30 854 C 91.8842 -1.6845 3.01195 0
M  V30 855 C 90.9972 -1.13951 4.167 0
M  V30 856 C 90.1322 -2.25746 4.80845 0
M  V30 857 C 89.1712 -1.6853 5.88442 0
M  V30 858 N 88.3082 -2.74014 6.46421 0
M  V30 859 H 93.1482 0.0746905 2.97906 0
M  V30 860 H 90.6852 0.048632 1.4702 0
M  V30 861 H 92.6432 -2.36234 3.43874 0
M  V30 862 H 91.2732 -2.26314 2.30178 0
M  V30 863 H 90.3252 -0.35301 3.78758 0
M  V30 864 H 91.6372 -0.680892 4.94131 0
M  V30 865 H 90.7912 -3.01422 5.26526 0
M  V30 866 H 89.5302 -2.74947 4.0281 0
M  V30 867 H 88.5352 -0.913543 5.42157 0
M  V30 868 H 89.7602 -1.20198 6.68378 0
M  V30 869 H 87.7062 -3.22494 5.71256 0
M  V30 870 H 87.6232 -2.32735 7.19285 0
M  V30 871 H 88.8912 -3.49499 6.96757 0
M  V30 872 N 93.1203 -1.57491 0.0584922 0
M  V30 873 C 94.3683 -1.92597 -0.612436 0
M  V30 874 C 94.6893 -0.938162 -1.70949 0
M  V30 875 O 93.9593 0.0158301 -1.95894 0
M  V30 876 H 92.5393 -0.710964 -0.229214 0
M  V30 877 H 95.2013 -1.94571 0.113218 0
M  V30 878 H 94.2973 -2.94038 -1.04633 0
M  V30 879 N 94.5984 0.214957 -1.56127 0
M  V30 880 C 95.8444 0.939762 -1.79712 0
M  V30 881 C 96.1774 1.83723 -0.629247 0
M  V30 882 O 95.4524 1.90925 0.371197 0
M  V30 883 C 95.7354 1.77306 -3.13424 0
M  V30 884 C 95.5884 0.90164 -4.40671 0
M  V30 885 C 96.9074 2.74956 -3.43638 0
M  V30 886 H 94.0264 0.340214 -0.653776 0
M  V30 887 H 96.6684 0.20824 -1.88855 0
M  V30 888 H 94.8184 2.39673 -3.0576 0
M  V30 889 H 96.4904 0.294206 -4.60361 0
M  V30 890 H 94.7334 0.207368 -4.33304 0
M  V30 891 H 95.4044 1.51923 -5.30682 0
M  V30 892 H 97.8804 2.22724 -3.51473 0
M  V30 893 H 96.7564 3.30358 -4.38355 0
M  V30 894 H 97.0174 3.53023 -2.66134 0
M  V30 895 N 96.0765 1.50051 0.48192 0
M  V30 896 C 97.0065 1.71046 1.58951 0
M  V30 897 C 97.9875 0.559288 1.60642 0
M  V30 898 O 99.1725 0.797243 1.77081 0
M  V30 899 C 96.3025 1.79462 2.97339 0
M  V30 900 C 95.2565 2.94558 3.10515 0
M  V30 901 C 94.5825 2.88105 4.50444 0
M  V30 902 C 95.8825 4.35227 2.88747 0
M  V30 903 H 97.5765 2.6378 1.41635 0
M  V30 904 H 95.1225 1.26936 0.679942 0
M  V30 905 H 97.0755 1.92734 3.74742 0
M  V30 906 H 95.7995 0.833412 3.15788 0
M  V30 907 H 94.4585 2.80918 2.35543 0
M  V30 908 H 94.1065 1.89853 4.65795 0
M  V30 909 H 93.8065 3.65366 4.60197 0
M  V30 910 H 95.3305 3.03412 5.29881 0
M  V30 911 H 96.7445 4.49449 3.55905 0
M  V30 912 H 95.1415 5.13856 3.09955 0
M  V30 913 H 96.2115 4.48347 1.84696 0
M  V30 914 N 97.5546 -0.734337 1.39446 0
M  V30 915 C 98.4646 -1.87879 1.40495 0
M  V30 916 C 99.4806 -1.714 0.299672 0
M  V30 917 O 100.657 -1.93991 0.541249 0
M  V30 918 C 97.7216 -3.23477 1.24754 0
M  V30 919 C 96.7826 -3.52344 2.45259 0
M  V30 920 C 96.0156 -4.81473 2.30259 0
M  V30 921 O 96.2386 -5.55237 1.30643 0
M  V30 922 O 95.1726 -5.10254 3.19256 0
M  V30 923 H 98.9986 -1.89949 2.36966 0
M  V30 924 H 96.5836 -0.882243 1.20569 0
M  V30 925 H 98.4656 -4.04509 1.18111 0
M  V30 926 H 97.1406 -3.22176 0.313781 0
M  V30 927 H 96.0476 -2.71396 2.57478 0
M  V30 928 H 97.3806 -3.58426 3.37331 0
M  V30 929 N 99.0327 -1.24633 -0.964593 0
M  V30 930 C 99.9807 -1.03917 -2.08096 0
M  V30 931 C 100.975 0.0268581 -1.69379 0
M  V30 932 O 102.181 -0.127952 -1.79545 0
M  V30 933 H 98.5557 -0.319044 -0.680966 0
M  V30 934 H 100.527 -1.98581 -2.22729 0
M  V30 935 C 99.2757 -0.663983 -3.41301 0
M  V30 936 H 98.5987 -1.47605 -3.71555 0
M  V30 937 H 100.039 -0.558663 -4.20303 0
M  V30 938 C 98.4977 0.629169 -3.30973 0
M  V30 939 O 99.0277 1.67404 -3.65156 0
M  V30 940 N 97.2337 0.611057 -2.84103 0
M  V30 941 H 96.7807 -0.239593 -2.56483 0
M  V30 942 H 96.7387 1.47647 -2.77575 0
M  V30 943 N 100.511 1.16574 -1.06058 0
M  V30 944 C 101.474 2.19085 -0.673392 0
M  V30 945 C 102.474 1.5835 0.279648 0
M  V30 946 O 103.664 1.74088 0.0623488 0
M  V30 947 C 100.796 3.40899 0.00954234 0
M  V30 948 H 101.989 2.54853 -1.58081 0
M  V30 949 H 99.5418 1.30808 -0.855516 0
M  V30 950 H 100.277 3.10684 0.929826 0
M  V30 951 H 100.062 3.86233 -0.67573 0
M  V30 952 H 101.552 4.1675 0.266245 0
M  V30 953 N 101.989 0.842826 1.3317 0
M  V30 954 C 103.237 0.439577 1.97262 0
M  V30 955 C 103.558 -1.00548 1.67078 0
M  V30 956 O 102.828 -1.70098 0.971779 0
M  V30 957 H 101.408 0.159558 0.72976 0
M  V30 958 H 104.07 1.07665 1.62463 0
M  V30 959 H 103.166 0.574886 3.0676 0
M  V30 960 N 103.467 -1.45747 0.599634 0
M  V30 961 C 104.692 -2.07178 0.0960198 0
M  V30 962 C 105.117 -1.44268 -1.207 0
M  V30 963 O 104.475 -0.532503 -1.73303 0
M  V30 964 C 104.523 -3.60579 -0.0385348 0
M  V30 965 O 103.627 -3.97713 -1.0908 0
M  V30 966 H 102.968 -0.660251 0.0704593 0
M  V30 967 H 105.498 -1.87124 0.827385 0
M  V30 968 H 105.508 -4.07298 -0.239304 0
M  V30 969 H 104.183 -4.05756 0.912947 0
M  V30 970 H 102.76 -3.62678 -0.867135 0
M  V30 971 N 104.945 -0.338344 -1.53925 0
M  V30 972 C 106.191 0.260143 -2.01125 0
M  V30 973 C 106.524 1.50617 -1.22589 0
M  V30 974 O 105.799 1.91979 -0.312113 0
M  V30 975 C 106.082 0.579499 -3.55407 0
M  V30 976 C 105.935 -0.678264 -4.44657 0
M  V30 977 C 107.254 1.39122 -4.17532 0
M  V30 978 H 104.373 0.0930772 -0.731099 0
M  V30 979 H 107.015 -0.457852 -1.84401 0
M  V30 980 H 105.165 1.19118 -3.69788 0
M  V30 981 H 106.837 -1.31631 -4.42121 0
M  V30 982 H 105.08 -1.3042 -4.13731 0
M  V30 983 H 105.751 -0.410143 -5.50474 0
M  V30 984 H 108.227 0.874035 -4.06817 0
M  V30 985 H 107.103 1.58342 -5.25565 0
M  V30 986 H 107.364 2.39178 -3.71815 0
M  V30 987 N 106.423 1.57458 -0.0668435 0
M  V30 988 C 107.671 1.92919 0.602214 0
M  V30 989 C 107.992 0.947215 1.70449 0
M  V30 990 O 107.262 -0.00544117 1.95899 0
M  V30 991 H 105.842 0.71217 0.22544 0
M  V30 992 H 108.504 1.94508 -0.123535 0
M  V30 993 H 107.6 2.94589 1.03073 0
M  V30 994 N 107.901 -0.206675 1.56239 0
M  V30 995 C 108.831 -1.25909 1.96645 0
M  V30 996 C 109.812 -1.48097 0.836734 0
M  V30 997 O 110.997 -1.6003 1.10019 0
M  V30 998 C 108.127 -2.6058 2.29599 0
M  V30 999 C 107.081 -2.53024 3.452 0
M  V30 1000 C 106.407 -3.91861 3.63798 0
M  V30 1001 C 107.707 -2.06524 4.79734 0
M  V30 1002 H 109.401 -0.923369 2.84806 0
M  V30 1003 H 106.947 -0.442735 1.37025 0
M  V30 1004 H 108.9 -3.34375 2.56459 0
M  V30 1005 H 107.624 -2.95869 1.38307 0
M  V30 1006 H 106.283 -1.81684 3.18412 0
M  V30 1007 H 105.931 -4.24483 2.69857 0
M  V30 1008 H 105.631 -3.87683 4.4156 0
M  V30 1009 H 107.155 -4.67296 3.93022 0
M  V30 1010 H 108.569 -2.70072 5.05702 0
M  V30 1011 H 106.966 -2.13374 5.60885 0
M  V30 1012 H 108.036 -1.01802 4.74093 0
M  V30 1013 N 109.379 -1.50304 -0.473955 0
M  V30 1014 C 110.342 -1.6841 -1.55469 0
M  V30 1015 C 111.342 -0.554905 -1.50922 0
M  V30 1016 O 112.532 -0.821882 -1.53593 0
M  V30 1017 C 109.664 -1.70667 -2.95102 0
M  V30 1018 H 110.857 -2.64828 -1.40733 0
M  V30 1019 H 108.41 -1.39742 -0.700132 0
M  V30 1020 H 109.145 -0.75932 -3.15285 0
M  V30 1021 H 108.93 -2.52698 -2.9981 0
M  V30 1022 H 110.42 -1.8664 -3.73571 0
M  V30 1023 N 110.857 0.726932 -1.39834 0
M  V30 1024 C 111.787 1.85405 -1.41941 0
M  V30 1025 C 112.768 1.67751 -0.281728 0
M  V30 1026 O 113.953 1.8795 -0.488717 0
M  V30 1027 C 111.083 3.23243 -1.2701 0
M  V30 1028 C 110.037 3.55549 -2.38262 0
M  V30 1029 C 109.363 4.9241 -2.08415 0
M  V30 1030 C 110.663 3.577 -3.80589 0
M  V30 1031 H 112.357 1.83899 -2.36266 0
M  V30 1032 H 109.903 0.883349 -1.13723 0
M  V30 1033 H 111.856 4.01775 -1.27103 0
M  V30 1034 H 110.58 3.25296 -0.291564 0
M  V30 1035 H 109.239 2.79351 -2.37399 0
M  V30 1036 H 108.887 4.91052 -1.0898 0
M  V30 1037 H 108.587 5.14992 -2.82943 0
M  V30 1038 H 110.111 5.73289 -2.10171 0
M  V30 1039 H 111.525 4.26293 -3.83337 0
M  V30 1040 H 109.922 3.91804 -4.54543 0
M  V30 1041 H 110.992 2.57328 -4.10987 0
M  V30 1042 N 112.336 1.25143 0.95797 0
M  V30 1043 C 113.585 1.0909 1.69654 0
M  V30 1044 C 113.898 -0.368548 1.92097 0
M  V30 1045 O 115.104 -0.649455 2.63618 0
M  V30 1046 C 113.56 1.90395 3.05414 0
M  V30 1047 C 113.168 3.4081 2.90779 0
M  V30 1048 C 114.912 1.82901 3.83076 0
M  V30 1049 C 112.819 4.14423 4.21909 0
M  V30 1050 H 111.749 0.404625 0.636235 0
M  V30 1051 H 114.4 1.4931 1.06672 0
M  V30 1052 H 112.782 1.42996 3.69281 0
M  V30 1053 H 113.956 3.95859 2.35865 0
M  V30 1054 H 112.271 3.49361 2.26575 0
M  V30 1055 H 114.868 2.35196 4.80195 0
M  V30 1056 H 115.211 0.796224 4.08615 0
M  V30 1057 H 115.744 2.28033 3.25954 0
M  V30 1058 H 112.483 5.18102 4.01561 0
M  V30 1059 H 112.003 3.64159 4.76601 0
M  V30 1060 H 113.682 4.21956 4.90471 0
M  V30 1061 N 113.814 -1.1601 1.06675 0
M  V30 1062 C 115.06 -1.86909 0.786945 0
M  V30 1063 C 115.393 -1.81717 -0.685018 0
M  V30 1064 O 114.668 -1.23551 -1.50218 0
M  V30 1065 C 114.951 -3.36313 1.28707 0
M  V30 1066 C 114.804 -3.50175 2.82308 0
M  V30 1067 C 116.123 -4.3084 0.898071 0
M  V30 1068 H 113.242 -0.678677 0.287343 0
M  V30 1069 H 115.884 -1.36336 1.32334 0
M  V30 1070 H 114.034 -3.79513 0.830768 0
M  V30 1071 H 115.706 -3.15886 3.36175 0
M  V30 1072 H 113.949 -2.91959 3.20847 0
M  V30 1073 H 114.62 -4.55116 3.12368 0
M  V30 1074 H 117.096 -3.95561 1.29114 0
M  V30 1075 H 115.972 -5.33876 1.27543 0
M  V30 1076 H 116.233 -4.41662 -0.196651 0
M  V30 1077 N 115.292 -0.849877 -1.32721 0
M  V30 1078 C 116.538 -0.460855 -1.9811 0
M  V30 1079 C 116.893 0.971716 -1.66059 0
M  V30 1080 O 116.186 1.67184 -0.935944 0
M  V30 1081 C 116.38 -0.631272 -3.51781 0
M  V30 1082 C 116.209 -2.07886 -3.98765 0
M  V30 1083 C 114.979 -2.71637 -4.26077 0
M  V30 1084 C 117.177 -3.04889 -4.14182 0
M  V30 1085 N 115.159 -4.07356 -4.59276 0
M  V30 1086 C 116.53 -4.25583 -4.50865 0
M  V30 1087 C 118.585 -3.01148 -3.96503 0
M  V30 1088 C 117.288 -5.43027 -4.71714 0
M  V30 1089 C 119.314 -4.17832 -4.18533 0
M  V30 1090 C 118.676 -5.37284 -4.55528 0
M  V30 1091 H 114.775 -0.217283 -0.751207 0
M  V30 1092 H 117.359 -1.10026 -1.60631 0
M  V30 1093 H 115.53 -0.0215966 -3.88394 0
M  V30 1094 H 117.262 -0.212614 -4.04141 0
M  V30 1095 H 114.017 -2.22705 -4.17971 0
M  V30 1096 H 114.441 -4.77351 -4.80068 0
M  V30 1097 H 119.083 -2.0992 -3.67006 0
M  V30 1098 H 116.801 -6.34791 -5.00066 0
M  V30 1099 H 120.387 -4.16368 -4.06361 0
M  V30 1100 H 119.267 -6.26071 -4.72234 0
M  V30 1101 N 116.77 1.45427 -0.607355 0
M  V30 1102 C 118.019 2.01452 -0.100036 0
M  V30 1103 C 118.332 1.48159 1.27704 0
M  V30 1104 O 119.538 1.96159 1.87707 0
M  V30 1105 C 117.994 3.59672 -0.128158 0
M  V30 1106 C 117.602 4.21962 -1.50507 0
M  V30 1107 C 119.346 4.23262 0.323932 0
M  V30 1108 C 117.253 5.72333 -1.48959 0
M  V30 1109 H 116.183 0.75325 -0.0336299 0
M  V30 1110 H 118.834 1.66901 -0.76265 0
M  V30 1111 H 117.216 3.91411 0.601105 0
M  V30 1112 H 118.39 4.01796 -2.25602 0
M  V30 1113 H 116.705 3.70565 -1.89923 0
M  V30 1114 H 119.302 5.33522 0.354691 0
M  V30 1115 H 119.645 3.93921 1.34656 0
M  V30 1116 H 120.178 3.96239 -0.352056 0
M  V30 1117 H 116.917 6.06373 -2.48981 0
M  V30 1118 H 116.437 5.94691 -0.781214 0
M  V30 1119 H 118.116 6.35525 -1.21313 0
M  V30 1120 N 118.248 0.346503 1.53744 0
M  V30 1121 C 119.494 -0.249473 2.0126 0
M  V30 1122 C 119.827 -1.49965 1.23386 0
M  V30 1123 O 119.102 -1.91811 0.32229 0
M  V30 1124 C 119.385 -0.560643 3.55709 0
M  V30 1125 C 119.238 0.701836 4.44291 0
M  V30 1126 C 120.557 -1.36905 4.18264 0
M  V30 1127 H 117.676 -0.0891987 0.731582 0
M  V30 1128 H 120.318 0.467624 1.84156 0
M  V30 1129 H 118.468 -1.17156 3.70414 0
M  V30 1130 H 120.14 1.33974 4.41417 0
M  V30 1131 H 118.383 1.32612 4.13033 0
M  V30 1132 H 119.054 0.43933 5.50249 0
M  V30 1133 H 121.53 -0.852448 4.07275 0
M  V30 1134 H 120.406 -1.55553 5.26398 0
M  V30 1135 H 120.667 -2.37203 3.73078 0
M  V30 1136 N 119.726 -1.57421 0.075193 0
M  V30 1137 C 120.954 -1.97946 -0.602076 0
M  V30 1138 C 121.369 -0.953674 -1.62943 0
M  V30 1139 O 120.726 0.0592551 -1.82404 0
M  V30 1140 C 120.777 -3.38546 -1.26762 0
M  V30 1141 O 120.498 -4.37195 -0.281376 0
M  V30 1142 C 121.999 -3.93966 -2.03239 0
M  V30 1143 H 119.219 -0.650918 -0.162931 0
M  V30 1144 H 121.763 -2.03959 0.148601 0
M  V30 1145 H 119.918 -3.33609 -1.96936 0
M  V30 1146 H 120.332 -5.18975 -0.759267 0
M  V30 1147 H 121.806 -4.94555 -2.45193 0
M  V30 1148 H 122.283 -3.30693 -2.8903 0
M  V30 1149 H 122.889 -4.02315 -1.37924 0
M  V30 1150 N 121.204 0.198386 -1.56346 0
M  V30 1151 C 122.452 0.91747 -1.80075 0
M  V30 1152 C 122.773 1.83929 -0.647692 0
M  V30 1153 O 122.043 1.93029 0.334166 0
M  V30 1154 H 120.623 0.341774 -0.664228 0
M  V30 1155 H 123.285 0.204684 -1.93822 0
M  V30 1156 H 122.381 1.51055 -2.7311 0
M  V30 1157 N 122.682 1.50554 0.465978 0
M  V30 1158 C 123.929 1.61798 1.21768 0
M  V30 1159 C 124.257 0.320696 1.91838 0
M  V30 1160 O 123.512 -0.693724 1.82992 0
M  V30 1161 C 123.811 2.75152 2.28093 0
M  V30 1162 C 123.477 4.15454 1.75239 0
M  V30 1163 C 122.139 4.53628 1.60546 0
M  V30 1164 C 124.491 5.03121 1.36083 0
M  V30 1165 C 121.819 5.77204 1.05128 0
M  V30 1166 C 124.171 6.27249 0.821056 0
M  V30 1167 C 122.835 6.64221 0.660795 0
M  V30 1168 H 122.105 0.592063 0.445582 0
M  V30 1169 H 124.752 1.84503 0.512927 0
M  V30 1170 H 123.057 2.46556 3.04496 0
M  V30 1171 H 124.754 2.81055 2.86023 0
M  V30 1172 H 121.344 3.85341 1.87644 0
M  V30 1173 H 125.528 4.74257 1.46267 0
M  V30 1174 H 120.784 6.0452 0.91462 0
M  V30 1175 H 124.958 6.94537 0.509018 0
M  V30 1176 H 122.585 7.59854 0.229226 0
M  V30 1177 N 124.16 -0.719506 1.40217 0
M  V30 1178 C 125.409 -1.47486 1.37589 0
M  V30 1179 C 125.722 -1.9559 -0.0201568 0
M  V30 1180 O 126.928 -2.70973 -0.169049 0
M  V30 1181 C 125.384 -2.66575 2.41796 0
M  V30 1182 C 124.992 -2.25358 3.87192 0
M  V30 1183 C 126.736 -3.4433 2.48269 0
M  V30 1184 C 124.643 -3.41262 4.83005 0
M  V30 1185 H 123.573 -0.553901 0.511576 0
M  V30 1186 H 126.224 -0.783427 1.65936 0
M  V30 1187 H 124.606 -3.3787 2.06543 0
M  V30 1188 H 125.78 -1.61509 4.31569 0
M  V30 1189 H 124.095 -1.60657 3.84159 0
M  V30 1190 H 126.692 -4.30569 3.17041 0
M  V30 1191 H 127.035 -3.87872 1.51198 0
M  V30 1192 H 127.568 -2.80076 2.82493 0
M  V30 1193 H 124.307 -3.02755 5.81394 0
M  V30 1194 H 123.827 -4.0404 4.43297 0
M  V30 1195 H 125.506 -4.07383 5.02641 0
M  V30 1196 N 125.638 -1.25649 -0.95132 0
M  V30 1197 C 126.866 -1.13343 -1.73092 0
M  V30 1198 C 127.281 0.312434 -1.86197 0
M  V30 1199 O 126.638 1.21465 -1.36207 0
M  V30 1200 C 126.689 -1.78602 -3.14299 0
M  V30 1201 O 126.41 -3.17537 -3.01831 0
M  V30 1202 C 127.911 -1.72119 -4.08522 0
M  V30 1203 H 125.131 -0.395181 -0.542285 0
M  V30 1204 H 127.675 -1.66076 -1.19328 0
M  V30 1205 H 125.83 -1.29832 -3.64996 0
M  V30 1206 H 126.244 -3.49676 -3.90931 0
M  V30 1207 H 127.718 -2.22435 -5.052 0
M  V30 1208 H 128.195 -0.685635 -4.33815 0
M  V30 1209 H 128.801 -2.20393 -3.63741 0
M  V30 1210 N 127.117 1.15442 -1.07289 0
M  V30 1211 C 128.363 1.86489 -0.796846 0
M  V30 1212 C 128.696 1.82078 0.675371 0
M  V30 1213 O 127.971 1.24346 1.4956 0
M  V30 1214 C 128.254 3.35626 -1.30489 0
M  V30 1215 C 128.107 3.48673 -2.84161 0
M  V30 1216 C 129.426 4.30357 -0.920907 0
M  V30 1217 H 126.545 0.677144 -0.290939 0
M  V30 1218 H 129.187 1.35633 -1.33056 0
M  V30 1219 H 127.337 3.79068 -0.850883 0
M  V30 1220 H 129.009 3.14099 -3.37846 0
M  V30 1221 H 127.252 2.90253 -3.22391 0
M  V30 1222 H 127.923 4.53453 -3.14777 0
M  V30 1223 H 130.399 3.94871 -1.3121 0
M  V30 1224 H 129.275 5.33193 -1.30372 0
M  V30 1225 H 129.536 4.4176 0.173226 0
M  V30 1226 N 128.595 0.856903 1.32268 0
M  V30 1227 C 129.841 0.462069 1.97466 0
M  V30 1228 C 130.174 -0.980298 1.67642 0
M  V30 1229 O 129.449 -1.68824 0.965858 0
M  V30 1230 C 129.732 0.704336 3.53145 0
M  V30 1231 C 129.585 2.19529 3.9259 0
M  V30 1232 C 130.904 0.1622 4.39801 0
M  V30 1233 H 128.023 0.169357 0.717278 0
M  V30 1234 H 130.665 1.07574 1.56614 0
M  V30 1235 H 128.815 0.181999 3.88073 0
M  V30 1236 H 130.487 2.78387 3.67829 0
M  V30 1237 H 128.73 2.67292 3.41668 0
M  V30 1238 H 129.401 2.31549 5.01088 0
M  V30 1239 H 131.877 0.608905 4.11621 0
M  V30 1240 H 130.753 0.361265 5.4771 0
M  V30 1241 H 131.014 -0.935158 4.32096 0
M  V30 1242 N 130.073 -1.45103 0.615059 0
M  V30 1243 C 131.321 -2.01784 0.112955 0
M  V30 1244 C 131.642 -1.48504 -1.26378 0
M  V30 1245 O 130.912 -0.682245 -1.83636 0
M  V30 1246 H 129.492 -0.745993 0.0387668 0
M  V30 1247 H 132.154 -1.77808 0.798141 0
M  V30 1248 H 131.25 -3.12025 0.0684069 0
M  V30 1249 N 131.551 -0.354651 -1.53558 0
M  V30 1250 C 132.514 0.484566 -2.24019 0
M  V30 1251 C 133.514 1.01861 -1.24422 0
M  V30 1252 O 134.704 0.906097 -1.4878 0
M  V30 1253 C 131.836 1.67615 -2.96847 0
M  V30 1254 H 133.029 -0.131843 -2.9961 0
M  V30 1255 H 130.582 -0.106165 -1.55939 0
M  V30 1256 H 131.317 2.33095 -2.25471 0
M  V30 1257 H 131.102 1.30029 -3.69912 0
M  V30 1258 H 132.592 2.27114 -3.50441 0
M  V30 1259 N 133.029 1.57378 -0.0835403 0
M  V30 1260 C 133.959 2.1641 0.87686 0
M  V30 1261 C 134.94 1.09429 1.30228 0
M  V30 1262 O 136.125 1.37516 1.37124 0
M  V30 1263 C 133.255 2.73517 2.14022 0
M  V30 1264 C 132.209 3.85769 1.85381 0
M  V30 1265 C 131.535 4.29529 3.18448 0
M  V30 1266 C 132.835 5.09486 1.14984 0
M  V30 1267 H 134.529 2.96914 0.385059 0
M  V30 1268 H 132.075 1.42823 0.18377 0
M  V30 1269 H 134.028 3.13463 2.81636 0
M  V30 1270 H 132.752 1.90252 2.65465 0
M  V30 1271 H 131.411 3.46345 1.20169 0
M  V30 1272 H 131.059 3.43169 3.67755 0
M  V30 1273 H 130.759 5.05204 3.00071 0
M  V30 1274 H 132.283 4.72099 3.8724 0
M  V30 1275 H 133.697 5.46674 1.72687 0
M  V30 1276 H 132.094 5.90515 1.06826 0
M  V30 1277 H 133.164 4.84724 0.130749 0
M  V30 1278 N 134.507 -0.190092 1.56449 0
M  V30 1279 C 135.747 -0.916414 1.82705 0
M  V30 1280 C 136.111 -1.80235 0.661763 0
M  V30 1281 O 137.312 -2.56484 0.80433 0
M  V30 1282 C 135.583 -1.70691 3.14005 0
M  V30 1283 S 137.142 -2.48457 3.61683 0
M  V30 1284 H 133.96 -0.307281 0.64117 0
M  V30 1285 H 136.562 -0.179433 1.94675 0
M  V30 1286 H 135.266 -1.04677 3.96826 0
M  V30 1287 H 134.797 -2.48562 3.04927 0
M  V30 1288 H 136.812 -3.72756 3.27517 0
M  V30 1289 N 135.985 -1.50799 -0.457987 0
M  V30 1290 C 137.215 -1.65977 -1.23025 0
M  V30 1291 C 137.623 -0.347918 -1.85974 0
M  V30 1292 O 136.966 0.68148 -1.70592 0
M  V30 1293 C 137.028 -2.70309 -2.3701 0
M  V30 1294 C 136.692 -4.135 -1.94594 0
M  V30 1295 C 137.689 -4.98949 -1.46101 0
M  V30 1296 C 135.374 -4.5949 -2.02915 0
M  V30 1297 C 137.368 -6.28442 -1.06489 0
M  V30 1298 C 135.055 -5.88984 -1.62914 0
M  V30 1299 C 136.053 -6.73286 -1.1478 0
M  V30 1300 O 135.741 -8.00362 -0.75339 0
M  V30 1301 H 135.473 -0.56064 -0.377702 0
M  V30 1302 H 138.027 -1.97857 -0.551537 0
M  V30 1303 H 136.257 -2.337 -3.08093 0
M  V30 1304 H 137.946 -2.74574 -2.98938 0
M  V30 1305 H 138.712 -4.6463 -1.39084 0
M  V30 1306 H 134.591 -3.94009 -2.39328 0
M  V30 1307 H 138.135 -6.94194 -0.688488 0
M  V30 1308 H 134.032 -6.22822 -1.69595 0
M  V30 1309 H 134.8 -8.13744 -0.88108 0
M  V30 1310 N 137.463 0.71206 -1.40597 0
M  V30 1311 C 138.426 1.80785 -1.40888 0
M  V30 1312 C 139.426 1.57937 -0.302103 0
M  V30 1313 O 140.616 1.64913 -0.561182 0
M  V30 1314 C 137.748 3.18927 -1.20409 0
M  V30 1315 H 138.941 1.81924 -2.38419 0
M  V30 1316 H 136.494 0.91805 -1.26497 0
M  V30 1317 H 137.229 3.23436 -0.236522 0
M  V30 1318 H 137.014 3.36911 -2.00582 0
M  V30 1319 H 138.504 3.98949 -1.23408 0
M  V30 1320 N 138.941 1.26152 0.944643 0
M  V30 1321 C 139.851 1.09176 2.07648 0
M  V30 1322 C 140.867 0.0261935 1.7398 0
M  V30 1323 O 142.043 0.229208 2.00091 0
M  V30 1324 C 139.108 0.722915 3.39079 0
M  V30 1325 C 138.169 1.86752 3.86552 0
M  V30 1326 C 137.402 1.51617 5.11711 0
M  V30 1327 O 137.625 0.416331 5.68879 0
M  V30 1328 O 136.559 2.34975 5.54139 0
M  V30 1329 H 140.385 2.0412 2.24875 0
M  V30 1330 H 137.97 1.05182 1.061 0
M  V30 1331 H 139.852 0.529787 4.18056 0
M  V30 1332 H 138.527 -0.197159 3.23099 0
M  V30 1333 H 137.434 2.11558 3.08535 0
M  V30 1334 H 138.767 2.76719 4.07047 0
M  V30 1335 N 140.419 -1.14872 1.07899 0
M  V30 1336 C 141.349 -2.2193 0.725887 0
M  V30 1337 C 142.33 -1.67622 -0.28927 0
M  V30 1338 O 143.515 -1.93533 -0.160787 0
M  V30 1339 C 140.645 -3.47061 0.128856 0
M  V30 1340 C 139.599 -4.14363 1.07178 0
M  V30 1341 C 138.925 -5.33636 0.337229 0
M  V30 1342 C 140.225 -4.63492 2.40775 0
M  V30 1343 H 141.919 -2.51724 1.62097 0
M  V30 1344 H 139.465 -1.20991 0.780838 0
M  V30 1345 H 141.418 -4.21199 -0.130147 0
M  V30 1346 H 140.142 -3.16617 -0.80134 0
M  V30 1347 H 138.801 -3.42173 1.3158 0
M  V30 1348 H 138.449 -4.99449 -0.596606 0
M  V30 1349 H 138.149 -5.79609 0.965788 0
M  V30 1350 H 139.673 -6.10539 0.0861567 0
M  V30 1351 H 141.087 -5.2913 2.20669 0
M  V30 1352 H 139.484 -5.20148 2.99276 0
M  V30 1353 H 140.554 -3.78834 3.02676 0
M  V30 1354 N 141.898 -0.863906 -1.31812 0
M  V30 1355 C 143.146 -0.470904 -1.96537 0
M  V30 1356 C 143.467 0.978771 -1.68657 0
M  V30 1357 O 142.737 1.6853 -0.998717 0
M  V30 1358 H 141.317 -0.171148 -0.72713 0
M  V30 1359 H 143.979 -1.10236 -1.60729 0
M  V30 1360 H 143.075 -0.623616 -3.05806 0
M  V30 1361 N 143.376 1.44774 -0.622745 0
M  V30 1362 C 144.622 2.0242 -0.124083 0
M  V30 1363 C 144.955 1.4881 1.24777 0
M  V30 1364 O 144.23 0.668799 1.8264 0
M  V30 1365 C 144.513 3.59957 -0.101619 0
M  V30 1366 C 144.366 4.23867 -1.50521 0
M  V30 1367 C 145.685 4.36284 0.578272 0
M  V30 1368 H 142.804 0.735528 -0.0465645 0
M  V30 1369 H 145.446 1.72447 -0.797617 0
M  V30 1370 H 143.596 3.85623 0.471934 0
M  V30 1371 H 145.268 4.09336 -2.12701 0
M  V30 1372 H 143.511 3.81684 -2.06154 0
M  V30 1373 H 144.182 5.32843 -1.4416 0
M  V30 1374 H 146.658 4.16001 0.0906057 0
M  V30 1375 H 145.534 5.46004 0.563149 0
M  V30 1376 H 145.795 4.10271 1.64713 0
M  V30 1377 N 144.854 0.36279 1.53368 0
M  V30 1378 C 146.082 -0.228613 2.05633 0
M  V30 1379 C 146.497 -1.42676 1.23649 0
M  V30 1380 O 145.854 -1.80394 0.27647 0
M  V30 1381 C 145.905 -0.624845 3.56059 0
M  V30 1382 O 145.626 0.525675 4.34935 0
M  V30 1383 C 147.127 -1.27493 4.24571 0
M  V30 1384 H 144.347 -0.0407183 0.669763 0
M  V30 1385 H 146.891 0.520352 1.97769 0
M  V30 1386 H 145.046 -1.32373 3.64083 0
M  V30 1387 H 145.46 0.205969 5.24095 0
M  V30 1388 H 146.934 -1.50277 5.31151 0
M  V30 1389 H 147.411 -2.23439 3.78116 0
M  V30 1390 H 148.017 -0.617558 4.20792 0
M  V30 1391 N 146.332 -1.57332 0.0918853 0
M  V30 1392 C 147.581 -1.93412 -0.572249 0
M  V30 1393 C 147.894 -0.975515 -1.69538 0
M  V30 1394 O 149.1 -1.22991 -2.42045 0
M  V30 1395 C 147.556 -3.43648 -1.0693 0
M  V30 1396 C 147.164 -4.47994 0.0239049 0
M  V30 1397 C 148.908 -3.88695 -1.70635 0
M  V30 1398 C 146.815 -5.89381 -0.488319 0
M  V30 1399 H 145.745 -0.721939 -0.217532 0
M  V30 1400 H 148.396 -1.82735 0.167369 0
M  V30 1401 H 146.778 -3.49466 -1.8625 0
M  V30 1402 H 147.952 -4.53815 0.799277 0
M  V30 1403 H 146.267 -4.12536 0.565946 0
M  V30 1404 H 148.864 -4.91725 -2.10025 0
M  V30 1405 H 149.207 -3.27166 -2.57426 0
M  V30 1406 H 149.74 -3.85564 -0.979023 0
M  V30 1407 H 146.479 -6.54602 0.342906 0
M  V30 1408 H 145.999 -5.87037 -1.23077 0
M  V30 1409 H 147.678 -6.39863 -0.958317 0
M  V30 1410 N 147.81 0.181792 -1.56548 0
M  V30 1411 C 149.221 0.745244 -1.71181 0
M  V30 1412 C 149.572 1.83262 -0.70068 0
M  V30 1413 O 148.697 2.15946 0.140154 0
M  V30 1414 C 149.292 1.35859 -3.10367 0
M  V30 1415 C 147.851 1.86898 -3.2672 0
M  V30 1416 C 146.998 0.743942 -2.67134 0
M  V30 1417 H 149.949 -0.0434661 -1.5864 0
M  V30 1418 H 149.97 2.22817 -3.08436 0
M  V30 1419 H 149.482 0.566948 -3.83937 0
M  V30 1420 H 147.583 2.68738 -2.5809 0
M  V30 1421 H 147.696 2.02162 -4.34359 0
M  V30 1422 H 146.06 1.16169 -2.26665 0
M  V30 1423 H 146.843 -0.035676 -3.43281 0
M  V30 1424 N 149.288 1.51039 0.449983 0
M  V30 1425 C 150.235 1.71439 1.54523 0
M  V30 1426 C 151.205 0.555871 1.56522 0
M  V30 1427 O 152.39 0.788871 1.73728 0
M  V30 1428 C 149.53 1.83384 2.92343 0
M  V30 1429 C 148.643 3.10873 2.9997 0
M  V30 1430 C 147.778 3.13488 4.28834 0
M  V30 1431 C 146.817 4.35343 4.30282 0
M  V30 1432 N 145.954 4.35579 5.5065 0
M  V30 1433 H 150.794 2.64934 1.36433 0
M  V30 1434 H 148.331 1.31312 0.662982 0
M  V30 1435 H 150.289 1.88291 3.72293 0
M  V30 1436 H 148.919 0.933086 3.0902 0
M  V30 1437 H 147.971 3.15336 2.12761 0
M  V30 1438 H 149.283 4.00814 2.96901 0
M  V30 1439 H 148.437 3.17241 5.17149 0
M  V30 1440 H 147.176 2.21414 4.34543 0
M  V30 1441 H 146.181 4.3178 3.40362 0
M  V30 1442 H 147.406 5.28668 4.26248 0
M  V30 1443 H 145.352 3.46369 5.57104 0
M  V30 1444 H 145.269 5.19313 5.49409 0
M  V30 1445 H 146.537 4.43507 6.41032 0
M  V30 1446 N 150.766 -0.704594 1.40972 0
M  V30 1447 C 151.991 -1.49858 1.43378 0
M  V30 1448 C 152.416 -1.88061 0.038184 0
M  V30 1449 O 151.774 -1.5402 -0.956425 0
M  V30 1450 C 151.822 -2.74333 2.34038 0
M  V30 1451 O 150.926 -3.7147 1.7912 0
M  V30 1452 H 150.267 -0.45139 0.486974 0
M  V30 1453 H 152.797 -0.866832 1.8533 0
M  V30 1454 H 152.807 -3.22741 2.49604 0
M  V30 1455 H 151.482 -2.45863 3.35446 0
M  V30 1456 H 150.059 -3.30363 1.72958 0
M  V30 1457 N 152.244 -1.26651 -0.937939 0
M  V30 1458 C 153.492 -1.12165 -1.68118 0
M  V30 1459 C 153.813 0.334983 -1.92101 0
M  V30 1460 O 153.083 1.23583 -1.52 0
M  V30 1461 H 151.663 -0.412093 -0.623048 0
M  V30 1462 H 154.325 -1.59027 -1.12678 0
M  V30 1463 H 153.421 -1.64289 -2.6536 0
M  V30 1464 N 153.722 1.14298 -1.08507 0
M  V30 1465 C 154.97 1.84993 -0.813763 0
M  V30 1466 C 155.291 1.83405 0.662393 0
M  V30 1467 O 154.561 1.28319 1.48024 0
M  V30 1468 H 153.141 0.684966 -0.298045 0
M  V30 1469 H 155.803 1.385 -1.37126 0
M  V30 1470 H 154.899 2.89788 -1.15884 0
M  V30 1471 N 155.201 0.870884 1.31352 0
M  V30 1472 C 156.478 0.402907 1.91405 0
M  V30 1473 C 156.858 -1.11512 1.79244 0
M  V30 1474 O 156.206 -1.94411 1.2007 0
M  V30 1475 C 156.416 0.885301 3.37585 0
M  V30 1476 C 157.764 0.911971 4.14691 0
M  V30 1477 O 158.788 0.831016 3.46371 0
M  V30 1478 O 157.647 1.02927 5.3672 0
M  V30 1479 H 154.741 0.120698 0.818145 0
M  V30 1480 H 157.287 0.958857 1.40014 0
M  V30 1481 H 156.059 1.92889 3.40455 0
M  V30 1482 H 155.682 0.307714 3.96407 0
M  V30 1483 N 156.679 -1.44442 0.630414 0
M  V30 1484 C 157.909 -2.06115 0.141465 0
M  V30 1485 C 158.317 -1.47179 -1.1889 0
M  V30 1486 O 157.66 -0.588873 -1.74006 0
M  V30 1487 C 157.722 -3.59467 -0.0484355 0
M  V30 1488 C 157.386 -4.40864 1.20366 0
M  V30 1489 C 158.383 -4.74391 2.12719 0
M  V30 1490 C 156.068 -4.8125 1.43887 0
M  V30 1491 C 158.062 -5.47186 3.26904 0
M  V30 1492 C 155.749 -5.53795 2.5837 0
M  V30 1493 C 156.747 -5.86682 3.49705 0
M  V30 1494 O 156.435 -6.57749 4.62191 0
M  V30 1495 H 156.167 -0.671648 0.0765792 0
M  V30 1496 H 158.721 -1.86312 0.864695 0
M  V30 1497 H 156.951 -3.77758 -0.826803 0
M  V30 1498 H 158.64 -4.02909 -0.491849 0
M  V30 1499 H 159.406 -4.43728 1.95781 0
M  V30 1500 H 155.285 -4.55073 0.736853 0
M  V30 1501 H 158.829 -5.72773 3.98217 0
M  V30 1502 H 154.726 -5.83872 2.75251 0
M  V30 1503 H 155.494 -6.76217 4.61164 0
M  V30 1504 N 158.157 -0.370918 -1.53173 0
M  V30 1505 C 159.382 0.220293 -2.06227 0
M  V30 1506 C 159.807 1.41243 -1.24225 0
M  V30 1507 O 159.165 1.79387 -0.262645 0
M  V30 1508 C 159.213 0.586663 -3.55796 0
M  V30 1509 O 158.317 1.68317 -3.76488 0
M  V30 1510 H 157.658 0.0308099 -0.663285 0
M  V30 1511 H 160.188 -0.533068 -1.97534 0
M  V30 1512 H 160.198 0.85617 -3.98916 0
M  V30 1513 H 158.873 -0.285013 -4.14922 0
M  V30 1514 H 157.45 1.40881 -3.45264 0
M  V30 1515 N 159.635 1.57281 -0.100228 0
M  V30 1516 C 160.865 1.98591 0.569681 0
M  V30 1517 C 161.273 0.978315 1.61943 0
M  V30 1518 O 160.616 -0.0396108 1.83657 0
M  V30 1519 C 160.678 3.36282 1.271 0
M  V30 1520 C 160.342 4.55488 0.371409 0
M  V30 1521 C 161.339 5.18491 -0.382504 0
M  V30 1522 C 159.024 5.01474 0.287965 0
M  V30 1523 C 161.018 6.25852 -1.20779 0
M  V30 1524 C 158.705 6.08701 -0.540965 0
M  V30 1525 C 159.703 6.70755 -1.28749 0
M  V30 1526 O 159.391 7.75914 -2.10269 0
M  V30 1527 H 159.123 0.65752 0.156982 0
M  V30 1528 H 161.677 2.0463 -0.177734 0
M  V30 1529 H 159.907 3.26941 2.0651 0
M  V30 1530 H 161.596 3.62005 1.83595 0
M  V30 1531 H 162.362 4.83891 -0.3278 0
M  V30 1532 H 158.241 4.52932 0.858689 0
M  V30 1533 H 161.785 6.74218 -1.79096 0
M  V30 1534 H 157.682 6.42732 -0.597131 0
M  V30 1535 H 158.45 7.92925 -2.03007 0
M  V30 1536 N 161.113 -0.173488 1.56642 0
M  V30 1537 C 162.359 -0.891784 1.8214 0
M  V30 1538 C 162.692 -1.8199 0.677736 0
M  V30 1539 O 161.967 -1.91842 -0.320446 0
M  V30 1540 C 162.25 -1.68933 3.18015 0
M  V30 1541 C 162.103 -0.784487 4.42906 0
M  V30 1542 C 163.422 -2.65748 3.50808 0
M  V30 1543 H 160.541 -0.322761 0.662567 0
M  V30 1544 H 163.183 -0.158095 1.89341 0
M  V30 1545 H 161.333 -2.31482 3.12007 0
M  V30 1546 H 163.005 -0.172046 4.60979 0
M  V30 1547 H 161.248 -0.0924117 4.33702 0
M  V30 1548 H 161.919 -1.37799 5.34524 0
M  V30 1549 H 164.395 -2.13327 3.57255 0
M  V30 1550 H 163.271 -3.18619 4.4696 0
M  V30 1551 H 163.532 -3.45842 2.75401 0
M  V30 1552 N 162.591 -1.51276 -0.441967 0
M  V30 1553 C 163.538 -1.72256 -1.53612 0
M  V30 1554 C 164.508 -0.564164 -1.56225 0
M  V30 1555 O 165.693 -0.798074 -1.73307 0
M  V30 1556 C 162.833 -1.84932 -2.91366 0
M  V30 1557 C 161.946 -3.12459 -2.98317 0
M  V30 1558 C 161.081 -3.15758 -4.27166 0
M  V30 1559 C 160.12 -4.37619 -4.27967 0
M  V30 1560 N 159.257 -4.38493 -5.48333 0
M  V30 1561 H 164.097 -2.65654 -1.35026 0
M  V30 1562 H 161.634 -1.31662 -0.656009 0
M  V30 1563 H 163.592 -1.90263 -3.7129 0
M  V30 1564 H 162.222 -0.949461 -3.08521 0
M  V30 1565 H 161.274 -3.1646 -2.11086 0
M  V30 1566 H 162.586 -4.02382 -2.94771 0
M  V30 1567 H 161.74 -3.19979 -5.15459 0
M  V30 1568 H 160.479 -2.23715 -4.33362 0
M  V30 1569 H 159.484 -4.33579 -3.38067 0
M  V30 1570 H 160.709 -5.30921 -4.23438 0
M  V30 1571 H 158.655 -3.49318 -5.55259 0
M  V30 1572 H 158.572 -5.22219 -5.46647 0
M  V30 1573 H 159.84 -4.469 -6.38671 0
M  V30 1574 N 164.069 0.697108 -1.41344 0
M  V30 1575 C 165.346 1.45154 -1.31109 0
M  V30 1576 C 165.726 2.11009 0.0620449 0
M  V30 1577 O 165.074 2.01571 1.07618 0
M  V30 1578 C 165.284 2.47223 -2.46337 0
M  V30 1579 C 166.632 3.1252 -2.87431 0
M  V30 1580 O 167.656 2.57547 -2.46065 0
M  V30 1581 O 166.515 4.12083 -3.58957 0
M  V30 1582 H 163.609 0.646365 -0.515889 0
M  V30 1583 H 166.155 0.727716 -1.53305 0
M  V30 1584 H 164.927 1.97204 -3.37974 0
M  V30 1585 H 164.55 3.27116 -2.2601 0
M  V30 1586 N 165.547 1.27147 0.931209 0
M  V30 1587 C 166.796 1.12664 1.67302 0
M  V30 1588 C 167.109 -0.327718 1.92835 0
M  V30 1589 O 168.315 -0.593392 2.64936 0
M  V30 1590 C 166.771 1.9683 3.01307 0
M  V30 1591 C 166.379 3.46901 2.83485 0
M  V30 1592 C 168.123 1.90985 3.79111 0
M  V30 1593 C 166.03 4.23279 4.13024 0
M  V30 1594 H 164.96 0.41803 0.627509 0
M  V30 1595 H 167.611 1.51539 1.03481 0
M  V30 1596 H 165.993 1.50797 3.66164 0
M  V30 1597 H 167.167 4.00773 2.27415 0
M  V30 1598 H 165.482 3.54088 2.19113 0
M  V30 1599 H 168.079 2.45328 4.75098 0
M  V30 1600 H 168.422 0.882718 4.06834 0
M  V30 1601 H 168.955 2.34895 3.21044 0
M  V30 1602 H 165.694 5.26503 3.90481 0
M  V30 1603 H 165.214 3.74186 4.6877 0
M  V30 1604 H 166.893 4.32265 4.81411 0
M  V30 1605 N 167.025 -1.13721 1.09112 0
M  V30 1606 C 168.272 -1.84924 0.825192 0
M  V30 1607 C 168.6 -1.83347 -0.649151 0
M  V30 1608 O 167.855 -1.26449 -1.49362 0
M  V30 1609 C 168.154 -3.32861 1.30146 0
M  V30 1610 C 167.82 -3.54621 2.78486 0
M  V30 1611 C 166.482 -3.60268 3.18999 0
M  V30 1612 C 168.834 -3.62855 3.74146 0
M  V30 1613 C 166.162 -3.71679 4.53951 0
M  V30 1614 C 168.514 -3.75793 5.08883 0
M  V30 1615 C 167.178 -3.79692 5.4899 0
M  V30 1616 H 166.448 -0.676684 0.301959 0
M  V30 1617 H 169.095 -1.3428 1.36533 0
M  V30 1618 H 167.4 -3.85835 0.681064 0
M  V30 1619 H 169.097 -3.86395 1.07236 0
M  V30 1620 H 165.687 -3.50879 2.46134 0
M  V30 1621 H 169.871 -3.57775 3.43963 0
M  V30 1622 H 165.127 -3.72963 4.84467 0
M  V30 1623 H 169.301 -3.81107 5.82864 0
M  V30 1624 H 166.928 -3.88287 6.53558 0
M  V30 1625 N 168.503 -0.877838 -1.30888 0
M  V30 1626 C 169.751 -0.491723 -1.96027 0
M  V30 1627 C 170.072 0.960827 -1.69685 0
M  V30 1628 O 169.342 1.67462 -1.01654 0
M  V30 1629 H 167.922 -0.17885 -0.725273 0
M  V30 1630 H 170.584 -1.11935 -1.59551 0
M  V30 1631 H 169.68 -0.656016 -3.05128 0
M  V30 1632 N 169.982 1.44106 -0.638065 0
M  V30 1633 C 171.23 2.01579 -0.145043 0
M  V30 1634 C 171.551 1.50496 1.24 0
M  V30 1635 O 170.821 0.711374 1.82527 0
M  V30 1636 H 169.401 0.745282 -0.05063 0
M  V30 1637 H 172.063 1.76516 -0.826327 0
M  V30 1638 H 171.159 3.11877 -0.118039 0
M  V30 1639 N 171.46 0.379036 1.52974 0
M  V30 1640 C 172.39 -0.452706 2.29069 0
M  V30 1641 C 173.371 -1.07237 1.32039 0
M  V30 1642 O 174.556 -1.08708 1.60923 0
M  V30 1643 C 171.686 -1.5856 3.08992 0
M  V30 1644 C 170.64 -1.0925 4.13822 0
M  V30 1645 C 169.966 -2.31668 4.81907 0
M  V30 1646 C 171.266 -0.167702 5.22031 0
M  V30 1647 H 172.96 0.182181 2.98845 0
M  V30 1648 H 170.506 0.0890592 1.43724 0
M  V30 1649 H 172.459 -2.1742 3.6098 0
M  V30 1650 H 171.183 -2.24792 2.36931 0
M  V30 1651 H 169.842 -0.526494 3.628 0
M  V30 1652 H 169.49 -2.96386 4.06404 0
M  V30 1653 H 169.19 -1.9934 5.52754 0
M  V30 1654 H 170.714 -2.91189 5.36695 0
M  V30 1655 H 172.128 -0.664186 5.6944 0
M  V30 1656 H 170.525 0.0653265 6.00064 0
M  V30 1657 H 171.595 0.786347 4.78482 0
M  V30 1658 N 172.938 -1.57226 0.108567 0
M  V30 1659 C 173.901 -2.13602 -0.831082 0
M  V30 1660 C 174.901 -1.06841 -1.20173 0
M  V30 1661 O 176.091 -1.32666 -1.12895 0
M  V30 1662 C 173.223 -2.66769 -2.12243 0
M  V30 1663 H 174.416 -2.97951 -0.341317 0
M  V30 1664 H 171.969 -1.55667 -0.14057 0
M  V30 1665 H 172.704 -1.85977 -2.65675 0
M  V30 1666 H 172.489 -3.44839 -1.86625 0
M  V30 1667 H 173.979 -3.10332 -2.79435 0
M  V30 1668 N 174.416 0.165178 -1.56732 0
M  V30 1669 C 175.664 0.879068 -1.8198 0
M  V30 1670 C 175.985 1.82514 -0.686561 0
M  V30 1671 O 175.255 1.93694 0.293146 0
M  V30 1672 H 173.835 0.327608 -0.671329 0
M  V30 1673 H 176.497 0.163526 -1.94213 0
M  V30 1674 H 175.593 1.45228 -2.76252 0
M  V30 1675 N 175.894 1.51508 0.433938 0
M  V30 1676 C 177.141 1.64345 1.18309 0
M  V30 1677 C 177.469 0.361315 1.91115 0
M  V30 1678 O 176.724 -0.654753 1.84422 0
M  V30 1679 C 177.023 2.79928 2.22205 0
M  V30 1680 C 176.689 4.19078 1.66387 0
M  V30 1681 C 175.351 4.56932 1.50887 0
M  V30 1682 C 177.703 5.05894 1.25381 0
M  V30 1683 C 175.031 5.79305 0.928608 0
M  V30 1684 C 177.383 6.2885 0.687823 0
M  V30 1685 C 176.047 6.65473 0.519755 0
M  V30 1686 H 175.317 0.601381 0.432923 0
M  V30 1687 H 177.964 1.85549 0.473676 0
M  V30 1688 H 176.269 2.52959 2.99197 0
M  V30 1689 H 177.966 2.87059 2.79997 0
M  V30 1690 H 174.556 3.89234 1.79428 0
M  V30 1691 H 178.74 4.77253 1.36175 0
M  V30 1692 H 173.996 6.06324 0.786186 0
M  V30 1693 H 178.17 6.95461 0.361581 0
M  V30 1694 H 175.797 7.6017 0.0679979 0
M  V30 1695 N 177.372 -0.689602 1.41712 0
M  V30 1696 C 178.302 -1.81577 1.46806 0
M  V30 1697 C 179.283 -1.66945 0.326105 0
M  V30 1698 O 180.468 -1.86588 0.538377 0
M  V30 1699 C 177.598 -3.19762 1.35535 0
M  V30 1700 C 176.552 -3.49107 2.47605 0
M  V30 1701 C 175.878 -4.86711 2.21397 0
M  V30 1702 C 177.178 -3.47483 3.89939 0
M  V30 1703 H 178.872 -1.7757 2.41058 0
M  V30 1704 H 176.418 -0.852887 1.16025 0
M  V30 1705 H 178.371 -3.98263 1.3771 0
M  V30 1706 H 177.095 -3.24409 0.377708 0
M  V30 1707 H 175.754 -2.72959 2.44722 0
M  V30 1708 H 175.402 -4.8799 1.21961 0
M  V30 1709 H 175.102 -5.0731 2.96497 0
M  V30 1710 H 176.626 -5.67515 2.25297 0
M  V30 1711 H 178.04 -4.1598 3.94505 0
M  V30 1712 H 176.437 -3.79615 4.64771 0
M  V30 1713 H 177.507 -2.46341 4.17665 0
M  V30 1714 N 178.85 -1.27639 -0.924453 0
M  V30 1715 C 180.266 -1.05113 -1.20097 0
M  V30 1716 C 180.466 0.213262 -2.00368 0
M  V30 1717 O 179.522 0.91787 -2.35226 0
M  V30 1718 C 180.835 -2.29244 -1.94596 0
M  V30 1719 C 182.383 -2.34315 -2.07522 0
M  V30 1720 C 182.858 -3.58183 -2.85427 0
M  V30 1721 N 184.349 -3.5876 -2.92994 0
M  V30 1722 C 185.084 -4.51277 -3.53746 0
M  V30 1723 N 184.58 -5.54102 -4.15863 0
M  V30 1724 N 186.373 -4.38894 -3.51181 0
M  V30 1725 H 178.524 -2.08821 -0.388264 0
M  V30 1726 H 180.787 -0.918568 -0.234385 0
M  V30 1727 H 180.493 -3.21301 -1.43034 0
M  V30 1728 H 180.367 -2.34816 -2.95197 0
M  V30 1729 H 182.754 -1.42762 -2.58269 0
M  V30 1730 H 182.835 -2.32744 -1.06131 0
M  V30 1731 H 182.479 -4.50074 -2.35363 0
M  V30 1732 H 182.409 -3.57006 -3.8711 0
M  V30 1733 H 184.9 -2.84398 -2.4885 0
M  V30 1734 H 185.213 -6.20859 -4.60168 0
M  V30 1735 H 183.558 -5.57941 -4.144 0
M  V30 1736 H 186.749 -3.57772 -3.01856 0
M  V30 1737 H 186.922 -5.11186 -3.98237 0
M  V30 1738 N 180.328 1.1314 -1.09713 0
M  V30 1739 C 181.258 2.20748 -0.761102 0
M  V30 1740 C 182.239 1.68061 0.262566 0
M  V30 1741 O 183.424 1.93765 0.129977 0
M  V30 1742 C 180.554 3.46812 -0.184054 0
M  V30 1743 C 179.508 4.12606 -1.13757 0
M  V30 1744 C 178.834 5.33031 -0.422083 0
M  V30 1745 C 180.134 4.59603 -2.48118 0
M  V30 1746 H 181.828 2.49113 -1.66082 0
M  V30 1747 H 179.374 1.19734 -0.799987 0
M  V30 1748 H 181.327 4.21353 0.0631215 0
M  V30 1749 H 180.051 3.17851 0.750868 0
M  V30 1750 H 178.71 3.40036 -1.37007 0
M  V30 1751 H 178.358 5.00335 0.517072 0
M  V30 1752 H 178.058 5.77999 -1.05788 0
M  V30 1753 H 179.582 6.10325 -0.183277 0
M  V30 1754 H 180.996 5.25552 -2.29059 0
M  V30 1755 H 179.393 5.15321 -3.07514 0
M  V30 1756 H 180.463 3.73971 -3.08665 0
M  V30 1757 N 181.806 0.884767 1.30421 0
M  V30 1758 C 183.052 0.513218 1.96819 0
M  V30 1759 C 183.407 -0.927347 1.68577 0
M  V30 1760 O 182.7 -1.64644 0.979941 0
M  V30 1761 C 182.894 0.724318 3.49983 0
M  V30 1762 C 182.723 2.18385 3.93113 0
M  V30 1763 C 181.493 2.82839 4.18725 0
M  V30 1764 C 183.691 3.15763 4.05953 0
M  V30 1765 N 181.673 4.1939 4.48314 0
M  V30 1766 C 183.044 4.37387 4.39423 0
M  V30 1767 C 185.099 3.11555 3.88379 0
M  V30 1768 C 183.802 5.55343 4.5715 0
M  V30 1769 C 185.828 4.28782 4.07308 0
M  V30 1770 C 185.19 5.49172 4.41123 0
M  V30 1771 H 181.289 0.237123 0.745182 0
M  V30 1772 H 183.873 1.14246 1.57658 0
M  V30 1773 H 182.044 0.124565 3.882 0
M  V30 1774 H 183.776 0.31969 4.03435 0
M  V30 1775 H 180.531 2.33708 4.11919 0
M  V30 1776 H 180.955 4.89911 4.67243 0
M  V30 1777 H 185.597 2.19576 3.61312 0
M  V30 1778 H 183.315 6.47826 4.8306 0
M  V30 1779 H 186.901 4.26995 3.95179 0
M  V30 1780 H 185.781 6.38371 4.55469 0
M  V30 1781 N 183.284 -1.43765 0.645699 0
M  V30 1782 C 184.533 -2.01116 0.153412 0
M  V30 1783 C 184.846 -1.51493 -1.23731 0
M  V30 1784 O 186.052 -2.01067 -1.8244 0
M  V30 1785 C 184.508 -3.59206 0.223473 0
M  V30 1786 C 184.116 -4.17823 1.61642 0
M  V30 1787 C 185.86 -4.23972 -0.211597 0
M  V30 1788 C 183.767 -5.68183 1.64081 0
M  V30 1789 H 182.697 -0.752093 0.0535891 0
M  V30 1790 H 185.348 -1.6482 0.806633 0
M  V30 1791 H 183.73 -3.92867 -0.497118 0
M  V30 1792 H 184.904 -3.95674 2.36176 0
M  V30 1793 H 183.219 -3.65399 1.99681 0
M  V30 1794 H 185.816 -5.34275 -0.213112 0
M  V30 1795 H 186.159 -3.97352 -1.24165 0
M  V30 1796 H 186.692 -3.95166 0.456988 0
M  V30 1797 H 183.431 -5.99559 2.64971 0
M  V30 1798 H 182.951 -5.9241 0.938611 0
M  V30 1799 H 184.63 -6.32085 1.3812 0
M  V30 1800 N 184.763 -0.387143 -1.52771 0
M  V30 1801 C 185.726 0.436939 -2.24997 0
M  V30 1802 C 186.726 0.991991 -1.26555 0
M  V30 1803 O 187.916 0.874335 -1.50669 0
M  V30 1804 C 185.048 1.61281 -3.00335 0
M  V30 1805 H 186.241 -0.195365 -2.99263 0
M  V30 1806 H 183.794 -0.139218 -1.55679 0
M  V30 1807 H 184.529 2.2826 -2.30364 0
M  V30 1808 H 184.314 1.22154 -3.72587 0
M  V30 1809 H 185.804 2.19629 -3.5518 0
M  V30 1810 N 186.241 1.57166 -0.116904 0
M  V30 1811 C 187.487 1.95412 0.542405 0
M  V30 1812 C 187.82 1.00019 1.66463 0
M  V30 1813 O 187.095 0.0370346 1.94465 0
M  V30 1814 C 187.378 3.43615 1.07708 0
M  V30 1815 C 187.231 4.49781 -0.0415868 0
M  V30 1816 C 188.55 3.93616 1.96861 0
M  V30 1817 H 185.669 0.710543 0.195696 0
M  V30 1818 H 188.311 1.89027 -0.192038 0
M  V30 1819 H 186.461 3.49187 1.70296 0
M  V30 1820 H 188.133 4.56308 -0.676793 0
M  V30 1821 H 186.376 4.28033 -0.705019 0
M  V30 1822 H 187.047 5.50733 0.373717 0
M  V30 1823 H 189.523 3.90335 1.44146 0
M  V30 1824 H 188.399 4.97838 2.3119 0
M  V30 1825 H 188.66 3.34188 2.89432 0
M  V30 1826 N 187.719 -0.156864 1.56817 0
M  V30 1827 C 188.649 -1.19589 2.00551 0
M  V30 1828 C 189.63 -1.4536 0.883426 0
M  V30 1829 O 190.815 -1.56449 1.15054 0
M  V30 1830 C 187.945 -2.53143 2.37773 0
M  V30 1831 C 186.899 -2.41913 3.53075 0
M  V30 1832 C 186.225 -3.80088 3.76081 0
M  V30 1833 C 187.525 -1.91157 4.86062 0
M  V30 1834 H 189.219 -0.832293 2.87599 0
M  V30 1835 H 186.765 -0.398918 1.38364 0
M  V30 1836 H 188.718 -3.26047 2.66967 0
M  V30 1837 H 187.442 -2.91319 1.4765 0
M  V30 1838 H 186.101 -1.71462 3.24031 0
M  V30 1839 H 185.749 -4.15683 2.83225 0
M  V30 1840 H 185.449 -3.73439 4.53671 0
M  V30 1841 H 186.973 -4.54556 4.0769 0
M  V30 1842 H 188.387 -2.53846 5.14038 0
M  V30 1843 H 186.784 -1.95422 5.67389 0
M  V30 1844 H 187.854 -0.866673 4.77092 0
M  V30 1845 N 189.197 -1.51736 -0.425897 0
M  V30 1846 C 190.443 -1.65214 -1.1761 0
M  V30 1847 C 190.776 -0.372778 -1.90589 0
M  V30 1848 O 190.051 0.628139 -1.84078 0
M  V30 1849 C 190.334 -2.86312 -2.18398 0
M  V30 1850 C 190.187 -4.24254 -1.49426 0
M  V30 1851 C 191.506 -3.02925 -3.19256 0
M  V30 1852 H 188.625 -0.601263 -0.426206 0
M  V30 1853 H 191.267 -1.8425 -0.463882 0
M  V30 1854 H 189.417 -2.70213 -2.79137 0
M  V30 1855 H 191.089 -4.52046 -0.919362 0
M  V30 1856 H 189.332 -4.26426 -0.796432 0
M  V30 1857 H 190.003 -5.05001 -2.22885 0
M  V30 1858 H 192.479 -3.1781 -2.68581 0
M  V30 1859 H 191.355 -3.89199 -3.8706 0
M  V30 1860 H 191.616 -2.15497 -3.86023 0
M  V30 1861 N 190.675 0.682077 -1.42076 0
M  V30 1862 C 191.924 1.43786 -1.41451 0
M  V30 1863 C 192.237 1.95574 -0.0317074 0
M  V30 1864 O 193.443 2.71326 0.0971462 0
M  V30 1865 C 191.899 2.60071 -2.48779 0
M  V30 1866 C 191.507 2.15013 -3.93031 0
M  V30 1867 C 193.251 3.37626 -2.57311 0
M  V30 1868 C 191.158 3.28336 -4.91883 0
M  V30 1869 H 190.088 0.540143 -0.526082 0
M  V30 1870 H 192.739 0.739157 -1.67955 0
M  V30 1871 H 191.121 3.32275 -2.15429 0
M  V30 1872 H 192.295 1.5001 -4.35699 0
M  V30 1873 H 190.61 1.50416 -3.88284 0
M  V30 1874 H 193.207 4.22012 -3.28345 0
M  V30 1875 H 193.55 3.83727 -1.61429 0
M  V30 1876 H 194.083 2.72488 -2.89819 0
M  V30 1877 H 190.822 2.87234 -5.89217 0
M  V30 1878 H 190.342 3.92145 -4.53853 0
M  V30 1879 H 192.021 3.93913 -5.13265 0
M  V30 1880 N 192.153 1.28127 0.917671 0
M  V30 1881 C 193.383 1.17722 1.6978 0
M  V30 1882 C 193.791 -0.267261 1.87303 0
M  V30 1883 O 193.134 -1.19286 1.39702 0
M  V30 1884 C 193.196 1.79958 3.11216 0
M  V30 1885 C 192.86 3.29187 3.16993 0
M  V30 1886 C 193.857 4.25679 2.98485 0
M  V30 1887 C 191.542 3.70075 3.39632 0
M  V30 1888 C 193.536 5.61035 3.02521 0
M  V30 1889 C 191.223 5.05557 3.433 0
M  V30 1890 C 192.221 6.00847 3.24764 0
M  V30 1891 O 191.909 7.33859 3.28187 0
M  V30 1892 H 191.641 0.409788 0.537634 0
M  V30 1893 H 194.195 1.69694 1.15728 0
M  V30 1894 H 192.425 1.22475 3.66793 0
M  V30 1895 H 194.114 1.64125 3.71238 0
M  V30 1896 H 194.88 3.95426 2.80826 0
M  V30 1897 H 190.759 2.96373 3.53106 0
M  V30 1898 H 194.303 6.35388 2.87971 0
M  V30 1899 H 190.2 5.35462 3.60486 0
M  V30 1900 H 190.968 7.42436 3.44575 0
M  V30 1901 N 193.631 -1.12557 1.10312 0
M  V30 1902 C 195.042 -1.65574 0.862678 0
M  V30 1903 C 195.393 -1.86566 -0.607256 0
M  V30 1904 O 194.518 -1.59121 -1.46662 0
M  V30 1905 C 195.113 -3.00776 1.55947 0
M  V30 1906 C 193.672 -3.50748 1.36576 0
M  V30 1907 C 192.819 -2.25797 1.60968 0
M  V30 1908 H 195.77 -0.963552 1.26101 0
M  V30 1909 H 195.791 -3.67185 0.997753 0
M  V30 1910 H 195.303 -2.85465 2.62928 0
M  V30 1911 H 193.404 -3.71245 0.317531 0
M  V30 1912 H 193.517 -4.30289 2.10686 0
M  V30 1913 H 191.881 -2.32841 1.03234 0
M  V30 1914 H 192.664 -2.13043 2.69198 0
M  V30 1915 N 195.109 -0.891671 -1.2995 0
M  V30 1916 C 196.337 -0.52866 -2.00032 0
M  V30 1917 C 196.752 0.884574 -1.66795 0
M  V30 1918 O 196.109 1.5827 -0.908669 0
M  V30 1919 C 196.16 -0.701814 -3.54622 0
M  V30 1920 O 195.881 -2.05942 -3.86678 0
M  V30 1921 C 197.382 -0.342683 -4.41973 0
M  V30 1922 H 194.602 -0.203659 -0.639347 0
M  V30 1923 H 197.146 -1.19881 -1.65677 0
M  V30 1924 H 195.301 -0.0789468 -3.8732 0
M  V30 1925 H 195.715 -2.08291 -4.81368 0
M  V30 1926 H 197.189 -0.514709 -5.49595 0
M  V30 1927 H 197.666 0.71975 -4.33262 0
M  V30 1928 H 198.272 -0.942154 -4.14733 0
M  V30 1929 N 196.587 1.43421 -0.653314 0
M  V30 1930 C 197.535 2.32546 0.0501531 0
M  V30 1931 C 198.529 1.48617 0.812985 0
M  V30 1932 O 199.735 1.64825 0.723375 0
M  V30 1933 H 196.11 0.751185 0.0350032 0
M  V30 1934 H 198.081 2.89602 -0.719261 0
M  V30 1935 C 196.83 3.32925 1.00279 0
M  V30 1936 H 196.153 3.97532 0.425236 0
M  V30 1937 H 197.593 3.9792 1.46409 0
M  V30 1938 C 196.052 2.63532 2.09886 0
M  V30 1939 O 196.582 2.45092 3.18265 0
M  V30 1940 N 194.788 2.22905 1.86445 0
M  V30 1941 H 194.335 2.38103 0.98309 0
M  V30 1942 H 194.293 1.76805 2.59976 0
M  V30 1943 N 198.065 0.39524 1.52563 0
M  V30 1944 C 198.997 -0.472201 2.24283 0
M  V30 1945 C 200.01 -1.02178 1.26742 0
M  V30 1946 O 201.199 -0.923097 1.52778 0
M  V30 1947 C 198.299 -1.66775 2.95024 0
M  V30 1948 C 197.472 -1.2445 4.19322 0
M  V30 1949 C 196.531 -2.30539 4.7301 0
M  V30 1950 O 195.557 -1.91702 5.35947 0
M  V30 1951 N 196.759 -3.6253 4.53379 0
M  V30 1952 H 199.524 0.142282 2.99362 0
M  V30 1953 H 197.085 0.2219 1.60372 0
M  V30 1954 H 199.077 -2.37283 3.27839 0
M  V30 1955 H 197.647 -2.18845 2.23217 0
M  V30 1956 H 196.867 -0.368069 3.92478 0
M  V30 1957 H 198.155 -0.938457 5.0007 0
M  V30 1958 H 197.553 -3.96841 4.03154 0
M  V30 1959 H 196.11 -4.29055 4.90668 0
M  V30 1960 N 199.544 -1.57102 0.125237 0
M  V30 1961 C 200.507 -2.14471 -0.80838 0
M  V30 1962 C 201.507 -1.0811 -1.19033 0
M  V30 1963 O 202.697 -1.33856 -1.11482 0
M  V30 1964 C 199.829 -2.69005 -2.09402 0
M  V30 1965 H 201.022 -2.98297 -0.309696 0
M  V30 1966 H 198.575 -1.55807 -0.124051 0
M  V30 1967 H 199.31 -1.88785 -2.63687 0
M  V30 1968 H 199.095 -3.46799 -1.82957 0
M  V30 1969 H 200.585 -3.13278 -2.76128 0
M  V30 1970 N 201.022 0.148545 -1.56898 0
M  V30 1971 C 202.268 0.862694 -1.83536 0
M  V30 1972 C 202.601 1.80889 -0.706604 0
M  V30 1973 O 201.876 1.92328 0.289885 0
M  V30 1974 C 202.159 1.63853 -3.20662 0
M  V30 1975 C 202.012 0.713925 -4.44098 0
M  V30 1976 C 203.331 2.60133 -3.54991 0
M  V30 1977 H 200.45 0.312179 -0.667618 0
M  V30 1978 H 203.092 0.127953 -1.89569 0
M  V30 1979 H 201.242 2.26489 -3.1565 0
M  V30 1980 H 202.914 0.098686 -4.61194 0
M  V30 1981 H 201.157 0.0234019 -4.33794 0
M  V30 1982 H 201.828 1.29278 -5.36648 0
M  V30 1983 H 204.304 2.07616 -3.60603 0
M  V30 1984 H 203.18 3.11468 -4.51972 0
M  V30 1985 H 203.441 3.41417 -2.80868 0
M  V30 1986 N 202.5 1.5196 0.417844 0
M  V30 1987 C 203.749 1.6482 1.16264 0
M  V30 1988 C 204.062 0.379886 1.91876 0
M  V30 1989 O 205.268 0.388154 2.68711 0
M  V30 1990 C 203.724 2.91161 2.1155 0
M  V30 1991 C 203.332 4.25068 1.41495 0
M  V30 1992 C 205.076 3.13383 2.86341 0
M  V30 1993 C 202.983 5.42541 2.35379 0
M  V30 1994 H 201.913 0.613954 0.437694 0
M  V30 1995 H 204.564 1.78442 0.427871 0
M  V30 1996 H 202.946 2.71218 2.88543 0
M  V30 1997 H 204.12 4.55463 0.699263 0
M  V30 1998 H 202.435 4.0888 0.787792 0
M  V30 1999 H 205.032 3.98324 3.5671 0
M  V30 2000 H 205.375 2.27256 3.48798 0
M  V30 2001 H 205.908 3.33757 2.1645 0
M  V30 2002 H 202.647 6.30987 1.77582 0
M  V30 2003 H 202.167 5.16497 3.04945 0
M  V30 2004 H 203.846 5.75272 2.96093 0
M  V30 2005 N 203.978 -0.674533 1.42435 0
M  V30 2006 C 204.941 -1.76986 1.45632 0
M  V30 2007 C 205.941 -1.5708 0.343871 0
M  V30 2008 O 207.131 -1.63367 0.604709 0
M  V30 2009 C 204.263 -3.15623 1.28822 0
M  V30 2010 H 205.456 -1.75539 2.43158 0
M  V30 2011 H 203.009 -0.884189 1.28887 0
M  V30 2012 H 203.744 -3.22696 0.322193 0
M  V30 2013 H 203.529 -3.31475 2.09444 0
M  V30 2014 H 205.019 -3.95537 1.33942 0
M  V30 2015 N 205.456 -1.28612 -0.910864 0
M  V30 2016 C 206.386 -1.15326 -2.03032 0
M  V30 2017 C 207.367 -0.0502924 -1.70026 0
M  V30 2018 O 208.552 -0.227797 -1.92859 0
M  V30 2019 C 205.682 -0.817343 -3.37545 0
M  V30 2020 C 204.636 -1.8754 -3.84724 0
M  V30 2021 C 203.962 -1.39305 -5.16235 0
M  V30 2022 C 205.262 -3.28244 -4.06267 0
M  V30 2023 H 206.956 -2.08975 -2.14406 0
M  V30 2024 H 204.502 -1.00612 -1.03021 0
M  V30 2025 H 206.455 -0.711151 -4.15356 0
M  V30 2026 H 205.179 0.154846 -3.26233 0
M  V30 2027 H 203.838 -1.97079 -3.09121 0
M  V30 2028 H 203.486 -0.409846 -5.01328 0
M  V30 2029 H 203.186 -2.10057 -5.48771 0
M  V30 2030 H 204.71 -1.30014 -5.96598 0
M  V30 2031 H 206.124 -3.21611 -4.74594 0
M  V30 2032 H 204.521 -3.96855 -4.5014 0
M  V30 2033 H 205.591 -3.72048 -3.10979 0
M  V30 2034 N 206.934 1.1197 -1.10907 0
M  V30 2035 C 208.162 1.87402 -0.876824 0
M  V30 2036 C 208.577 1.79894 0.573025 0
M  V30 2037 O 207.934 1.17629 1.39534 0
M  V30 2038 C 207.985 3.36428 -1.32282 0
M  V30 2039 O 207.706 3.43765 -2.71582 0
M  V30 2040 C 209.207 4.28783 -1.12518 0
M  V30 2041 H 206.427 0.592793 -0.314384 0
M  V30 2042 H 208.971 1.41649 -1.47499 0
M  V30 2043 H 207.126 3.79706 -0.768229 0
M  V30 2044 H 207.54 4.3652 -2.90776 0
M  V30 2045 H 209.014 5.31613 -1.48633 0
M  V30 2046 H 209.491 4.39153 -0.0642394 0
M  V30 2047 H 210.097 3.91291 -1.66648 0
M  V30 2048 N 208.412 0.89855 1.29475 0
M  V30 2049 C 209.659 0.523882 1.95606 0
M  V30 2050 C 209.987 -0.929608 1.70847 0
M  V30 2051 O 209.242 -1.67401 1.01367 0
M  V30 2052 C 209.541 0.761398 3.49195 0
M  V30 2053 C 209.207 2.19207 3.94029 0
M  V30 2054 C 207.869 2.58326 4.05982 0
M  V30 2055 C 210.221 3.12379 4.17216 0
M  V30 2056 C 207.549 3.898 4.38489 0
M  V30 2057 C 209.901 4.43401 4.51197 0
M  V30 2058 C 208.565 4.82394 4.61359 0
M  V30 2059 H 207.835 0.191702 0.715773 0
M  V30 2060 H 210.482 1.13699 1.54094 0
M  V30 2061 H 208.787 0.0653622 3.91745 0
M  V30 2062 H 210.484 0.450904 3.98457 0
M  V30 2063 H 207.074 1.87846 3.85242 0
M  V30 2064 H 211.258 2.83371 4.07449 0
M  V30 2065 H 206.514 4.19734 4.44559 0
M  V30 2066 H 210.688 5.15623 4.68087 0
M  V30 2067 H 208.315 5.84306 4.86303 0
M  V30 2068 N 209.89 -1.43072 0.660911 0
M  V30 2069 C 211.115 -2.06584 0.183805 0
M  V30 2070 C 211.54 -1.49257 -1.14472 0
M  V30 2071 O 210.898 -0.605528 -1.70889 0
M  V30 2072 C 210.946 -3.60418 0.114434 0
M  V30 2073 O 210.05 -4.01981 -0.921137 0
M  V30 2074 H 209.391 -0.656669 0.0983994 0
M  V30 2075 H 211.921 -1.83447 0.906006 0
M  V30 2076 H 211.931 -4.07946 -0.0663394 0
M  V30 2077 H 210.606 -4.01519 1.08422 0
M  V30 2078 H 209.183 -3.66029 -0.71253 0
M  V30 2079 N 211.368 -0.403325 -1.52352 0
M  V30 2080 C 212.316 0.439752 -2.28405 0
M  V30 2081 C 213.31 1.05089 -1.32863 0
M  V30 2082 O 214.516 0.989759 -1.50345 0
M  V30 2083 H 210.891 0.160587 -0.734653 0
M  V30 2084 H 212.862 -0.222983 -2.97566 0
M  V30 2085 C 211.611 1.54736 -3.11371 0
M  V30 2086 H 210.934 1.08643 -3.84755 0
M  V30 2087 H 212.374 2.1112 -3.67701 0
M  V30 2088 C 210.833 2.51141 -2.24566 0
M  V30 2089 O 211.363 3.54887 -1.88196 0
M  V30 2090 N 209.569 2.21213 -1.8845 0
M  V30 2091 H 209.116 1.36878 -2.18225 0
M  V30 2092 H 209.074 2.85963 -1.30662 0
M  V30 2093 N 212.846 1.57033 -0.133567 0
M  V30 2094 C 214.076 1.99754 0.527429 0
M  V30 2095 C 214.484 1.01245 1.59832 0
M  V30 2096 O 213.827 -0.000645496 1.837 0
M  V30 2097 C 213.889 3.38903 1.19939 0
M  V30 2098 C 213.553 4.56174 0.274709 0
M  V30 2099 C 214.55 5.17563 -0.492398 0
M  V30 2100 C 212.235 5.01972 0.18153 0
M  V30 2101 C 214.229 6.2315 -1.34027 0
M  V30 2102 C 211.916 6.07416 -0.669958 0
M  V30 2103 C 212.914 6.67874 -1.42947 0
M  V30 2104 O 212.602 7.71279 -2.2668 0
M  V30 2105 H 212.334 0.660702 0.142999 0
M  V30 2106 H 214.888 2.04207 -0.221099 0
M  V30 2107 H 213.118 3.31248 1.99528 0
M  V30 2108 H 214.807 3.65818 1.75875 0
M  V30 2109 H 215.573 4.83087 -0.430367 0
M  V30 2110 H 211.452 4.54652 0.762422 0
M  V30 2111 H 214.996 6.70268 -1.93357 0
M  V30 2112 H 210.893 6.41321 -0.73333 0
M  V30 2113 H 211.661 7.88441 -2.1978 0
M  V30 2114 N 214.325 -0.140222 1.56975 0
M  V30 2115 C 215.571 -0.852949 1.83991 0
M  V30 2116 C 215.904 -1.80512 0.716187 0
M  V30 2117 O 215.179 -1.92479 -0.279681 0
M  V30 2118 C 215.462 -1.6215 3.21527 0
M  V30 2119 C 215.315 -0.690363 4.4447 0
M  V30 2120 C 216.634 -2.58247 3.56366 0
M  V30 2121 H 213.753 -0.308634 0.669264 0
M  V30 2122 H 216.395 -0.117898 1.89634 0
M  V30 2123 H 214.545 -2.24812 3.16847 0
M  V30 2124 H 216.217 -0.0742264 4.6124 0
M  V30 2125 H 214.46 -0.000396433 4.338 0
M  V30 2126 H 215.131 -1.2643 5.37326 0
M  V30 2127 H 217.607 -2.05701 3.61699 0
M  V30 2128 H 216.483 -3.09067 4.53617 0
M  V30 2129 H 216.744 -3.39923 2.82674 0
M  V30 2130 N 215.803 -1.52179 -0.40978 0
M  V30 2131 C 216.733 -1.78435 -1.5061 0
M  V30 2132 C 217.714 -0.635295 -1.57791 0
M  V30 2133 O 218.899 -0.880823 -1.73076 0
M  V30 2134 C 216.029 -1.93444 -2.88439 0
M  V30 2135 C 214.983 -3.09038 -2.96108 0
M  V30 2136 C 214.309 -3.09268 -4.36185 0
M  V30 2137 C 215.609 -4.48508 -2.67652 0
M  V30 2138 H 217.303 -2.70237 -1.28889 0
M  V30 2139 H 214.849 -1.30036 -0.618605 0
M  V30 2140 H 216.802 -2.10394 -3.65119 0
M  V30 2141 H 215.526 -0.983129 -3.11452 0
M  V30 2142 H 214.185 -2.91837 -2.21872 0
M  V30 2143 H 213.833 -2.11861 -4.56206 0
M  V30 2144 H 213.533 -3.86907 -4.42241 0
M  V30 2145 H 215.057 -3.28348 -5.14801 0
M  V30 2146 H 216.471 -4.65918 -3.34056 0
M  V30 2147 H 214.868 -5.28059 -2.85085 0
M  V30 2148 H 215.938 -4.56649 -1.63095 0
M  V30 2149 N 217.281 0.66697 -1.42791 0
M  V30 2150 C 218.213 1.7925 -1.42836 0
M  V30 2151 C 219.226 1.59496 -0.326333 0
M  V30 2152 O 220.415 1.6847 -0.589916 0
M  V30 2153 C 217.515 3.16476 -1.21229 0
M  V30 2154 C 216.688 3.63011 -2.44013 0
M  V30 2155 C 215.747 4.78993 -2.17834 0
M  V30 2156 O 214.773 4.89137 -2.91091 0
M  V30 2157 N 215.975 5.68248 -1.18635 0
M  V30 2158 H 218.74 1.79695 -2.39854 0
M  V30 2159 H 216.301 0.850338 -1.37771 0
M  V30 2160 H 218.293 3.91734 -1.01621 0
M  V30 2161 H 216.863 3.10884 -0.32706 0
M  V30 2162 H 216.083 2.78346 -2.79137 0
M  V30 2163 H 217.371 3.90845 -3.25757 0
M  V30 2164 H 216.769 5.62712 -0.580615 0
M  V30 2165 H 215.326 6.43285 -1.05013 0
M  V30 2166 N 218.759 1.29093 0.90403 0
M  V30 2167 C 220.17 1.15186 1.46932 0
M  V30 2168 C 220.521 -0.254587 1.94541 0
M  V30 2169 O 219.646 -1.14972 1.83332 0
M  V30 2170 C 220.241 2.08492 2.67051 0
M  V30 2171 C 218.8 1.98621 3.19729 0
M  V30 2172 C 217.947 1.9967 1.92425 0
M  V30 2173 H 220.898 1.41641 0.715789 0
M  V30 2174 H 220.919 1.65461 3.42641 0
M  V30 2175 H 220.431 3.10847 2.3237 0
M  V30 2176 H 218.532 0.993389 3.59114 0
M  V30 2177 H 218.645 2.86068 3.8432 0
M  V30 2178 H 217.009 1.44208 2.09943 0
M  V30 2179 H 217.792 3.03721 1.60026 0
M  V30 2180 N 220.237 -1.11381 1.11499 0
M  V30 2181 C 221.167 -2.19509 0.796125 0
M  V30 2182 C 222.148 -1.68458 -0.235796 0
M  V30 2183 O 223.333 -1.93947 -0.0991344 0
M  V30 2184 C 220.463 -3.46475 0.239205 0
M  V30 2185 C 219.417 -4.10744 1.20307 0
M  V30 2186 C 218.743 -5.32293 0.50683 0
M  V30 2187 C 220.043 -4.55597 2.55399 0
M  V30 2188 H 221.737 -2.46439 1.70024 0
M  V30 2189 H 219.283 -1.18446 0.818935 0
M  V30 2190 H 221.236 -4.214 0.00392006 0
M  V30 2191 H 219.96 -3.19006 -0.700206 0
M  V30 2192 H 218.619 -3.37813 1.42399 0
M  V30 2193 H 218.267 -5.01095 -0.437408 0
M  V30 2194 H 217.967 -5.76243 1.1497 0
M  V30 2195 H 219.491 -6.09956 0.280351 0
M  V30 2196 H 220.905 -5.21841 2.37391 0
M  V30 2197 H 219.302 -5.10363 3.15673 0
M  V30 2198 H 220.372 -3.69013 3.14575 0
M  V30 2199 N 221.715 -0.905404 -1.28997 0
M  V30 2200 C 222.962 -0.534248 -1.95325 0
M  V30 2201 C 223.29 0.920535 -1.71337 0
M  V30 2202 O 222.545 1.66861 -1.02254 0
M  V30 2203 C 222.844 -0.779906 -3.48787 0
M  V30 2204 C 222.51 -2.21293 -3.92861 0
M  V30 2205 C 221.172 -2.60475 -4.04606 0
M  V30 2206 C 223.524 -3.14587 -4.15553 0
M  V30 2207 C 220.852 -3.9212 -4.36416 0
M  V30 2208 C 223.204 -4.45787 -4.48839 0
M  V30 2209 C 221.868 -4.84834 -4.58794 0
M  V30 2210 H 221.138 -0.195495 -0.714747 0
M  V30 2211 H 223.785 -1.14514 -1.53488 0
M  V30 2212 H 222.09 -0.0861365 -3.91705 0
M  V30 2213 H 223.787 -0.472029 -3.98212 0
M  V30 2214 H 220.377 -1.89887 -3.84241 0
M  V30 2215 H 224.561 -2.85528 -4.0594 0
M  V30 2216 H 219.817 -4.22086 -4.42327 0
M  V30 2217 H 223.991 -5.18098 -4.65346 0
M  V30 2218 H 221.618 -5.86877 -4.83197 0
M  V30 2219 N 223.193 1.4272 -0.668489 0
M  V30 2220 C 224.604 1.84793 -0.266151 0
M  V30 2221 C 224.955 1.55959 1.19043 0
M  V30 2222 O 224.08 1.01622 1.91055 0
M  V30 2223 C 224.675 3.35436 -0.476271 0
M  V30 2224 C 223.234 3.76182 -0.128113 0
M  V30 2225 C 222.381 2.66344 -0.771777 0
M  V30 2226 H 225.332 1.32656 -0.871098 0
M  V30 2227 H 225.353 3.79515 0.273561 0
M  V30 2228 H 224.865 3.5639 -1.53647 0
M  V30 2229 H 222.966 3.60836 0.928891 0
M  V30 2230 H 223.079 4.75766 -0.564231 0
M  V30 2231 H 221.443 2.53885 -0.203652 0
M  V30 2232 H 222.226 2.90123 -1.83531 0
M  V30 2233 N 224.671 0.411399 1.52136 0
M  V30 2234 C 225.899 -0.163076 2.06256 0
M  V30 2235 C 226.314 -1.3867 1.28125 0
M  V30 2236 O 225.671 -1.79423 0.333721 0
M  V30 2237 C 225.722 -0.511252 3.57867 0
M  V30 2238 O 225.443 0.66378 4.33042 0
M  V30 2239 C 226.944 -1.13921 4.28412 0
M  V30 2240 H 224.164 -0.0193897 0.67072 0
M  V30 2241 H 226.708 0.583007 1.96013 0
M  V30 2242 H 224.863 -1.20723 3.6811 0
M  V30 2243 H 225.277 0.372601 5.23175 0
M  V30 2244 H 226.751 -1.33302 5.35663 0
M  V30 2245 H 227.228 -2.11296 3.85033 0
M  V30 2246 H 227.834 -0.483373 4.22544 0
M  V30 2247 N 226.149 -1.5696 0.141893 0
M  V30 2248 C 227.389 -1.9785 -0.513304 0
M  V30 2249 C 227.753 -1.02467 -1.62371 0
M  V30 2250 O 228.954 -1.32382 -2.33941 0
M  V30 2251 C 227.225 -3.42797 -1.01118 0
M  V30 2252 S 228.784 -4.05709 -1.67169 0
M  V30 2253 H 225.602 -0.691318 -0.166135 0
M  V30 2254 H 228.204 -1.94114 0.232398 0
M  V30 2255 H 226.908 -4.0995 -0.192179 0
M  V30 2256 H 226.439 -3.50235 -1.79162 0
M  V30 2257 H 228.454 -3.98342 -2.95868 0
M  V30 2258 N 227.627 0.131896 -1.57047 0
M  V30 2259 C 228.874 0.841932 -1.84168 0
M  V30 2260 C 229.202 1.8048 -0.725066 0
M  V30 2261 O 228.457 1.93618 0.284692 0
M  V30 2262 C 228.756 1.63703 -3.17704 0
M  V30 2263 C 228.422 0.81961 -4.43388 0
M  V30 2264 C 227.084 0.594148 -4.77518 0
M  V30 2265 C 229.436 0.248977 -5.20605 0
M  V30 2266 C 226.764 -0.212409 -5.86315 0
M  V30 2267 C 229.116 -0.544701 -6.30251 0
M  V30 2268 C 227.78 -0.780599 -6.6292 0
M  V30 2269 H 227.05 0.308085 -0.673917 0
M  V30 2270 H 229.697 0.104867 -1.91213 0
M  V30 2271 H 228.002 2.44464 -3.06177 0
M  V30 2272 H 229.699 2.19015 -3.35907 0
M  V30 2273 H 226.289 1.00542 -4.16641 0
M  V30 2274 H 230.473 0.410408 -4.946 0
M  V30 2275 H 225.729 -0.404524 -6.1006 0
M  V30 2276 H 229.903 -0.993922 -6.89271 0
M  V30 2277 H 227.53 -1.40742 -7.47058 0
M  V30 2278 N 229.106 1.52395 0.401703 0
M  V30 2279 C 230.517 1.58899 0.980202 0
M  V30 2280 C 230.868 0.434032 1.91339 0
M  V30 2281 O 229.993 -0.444619 2.11783 0
M  V30 2282 C 230.588 2.87994 1.78451 0
M  V30 2283 C 229.147 2.96953 2.31292 0
M  V30 2284 C 228.294 2.53903 1.11483 0
M  V30 2285 H 231.245 1.57657 0.18168 0
M  V30 2286 H 231.266 2.73765 2.64259 0
M  V30 2287 H 230.778 3.72035 1.10506 0
M  V30 2288 H 228.879 2.17422 3.02586 0
M  V30 2289 H 228.992 4.01344 2.61649 0
M  V30 2290 H 227.356 2.07925 1.47104 0
M  V30 2291 H 228.139 3.40326 0.450928 0
M  V30 2292 N 230.584 -0.659388 1.43143 0
M  V30 2293 C 231.995 -1.24041 1.39537 0
M  V30 2294 C 232.346 -1.95963 0.0963364 0
M  V30 2295 O 231.471 -2.00892 -0.804438 0
M  V30 2296 C 232.066 -2.25601 2.52764 0
M  V30 2297 C 230.625 -2.79195 2.52443 0
M  V30 2298 C 229.772 -1.53743 2.30778 0
M  V30 2299 H 232.723 -0.451792 1.52133 0
M  V30 2300 H 232.744 -3.07651 2.23899 0
M  V30 2301 H 232.256 -1.73226 3.47296 0
M  V30 2302 H 230.357 -3.35649 1.61773 0
M  V30 2303 H 230.47 -3.2716 3.50004 0
M  V30 2304 H 228.834 -1.80869 1.79328 0
M  V30 2305 H 229.617 -1.03312 3.27386 0
M  V30 2306 N 232.062 -1.29571 -0.897171 0
M  V30 2307 C 232.972 -1.16808 -2.03453 0
M  V30 2308 C 233.988 -0.0907471 -1.73763 0
M  V30 2309 O 235.164 -0.303312 -1.99103 0
M  V30 2310 C 232.229 -0.848264 -3.36163 0
M  V30 2311 C 231.29 -2.0097 -3.79354 0
M  V30 2312 C 230.523 -1.70505 -5.05731 0
M  V30 2313 O 230.746 -0.62718 -5.66941 0
M  V30 2314 O 229.68 -2.5538 -5.45036 0
M  V30 2315 H 233.506 -2.12325 -2.17144 0
M  V30 2316 H 231.091 -1.09047 -1.02123 0
M  V30 2317 H 232.973 -0.684581 -4.15802 0
M  V30 2318 H 231.648 0.0771071 -3.23608 0
M  V30 2319 H 230.555 -2.22863 -3.00471 0
M  V30 2320 H 231.888 -2.91636 -3.96496 0
M  V30 2321 N 233.54 1.10788 -1.12088 0
M  V30 2322 C 234.765 1.87002 -0.896949 0
M  V30 2323 C 235.19 1.79933 0.548261 0
M  V30 2324 O 234.548 1.16662 1.38779 0
M  V30 2325 C 234.596 3.3349 -1.37174 0
M  V30 2326 O 233.7 4.08745 -0.547831 0
M  V30 2327 H 233.041 0.580397 -0.322545 0
M  V30 2328 H 235.571 1.39996 -1.49206 0
M  V30 2329 H 235.581 3.84339 -1.36922 0
M  V30 2330 H 234.256 3.37951 -2.42408 0
M  V30 2331 H 232.833 3.6776 -0.617034 0
M  V30 2332 N 235.018 0.912232 1.28515 0
M  V30 2333 C 236.266 0.543523 1.94654 0
M  V30 2334 C 236.587 -0.9155 1.72173 0
M  V30 2335 O 235.857 -1.64708 1.06058 0
M  V30 2336 H 234.437 0.198017 0.720277 0
M  V30 2337 H 237.099 1.16126 1.56527 0
M  V30 2338 H 236.195 0.736684 3.03281 0
M  V30 2339 N 236.496 -1.42363 0.676048 0
M  V30 2340 C 237.426 -2.33497 0.0124832 0
M  V30 2341 C 238.407 -1.50748 -0.787981 0
M  V30 2342 O 239.592 -1.79346 -0.744884 0
M  V30 2343 C 236.722 -3.34377 -0.938582 0
M  V30 2344 C 235.676 -4.27289 -0.246622 0
M  V30 2345 C 235.002 -5.18386 -1.31071 0
M  V30 2346 C 236.302 -5.14916 0.875125 0
M  V30 2347 H 237.996 -2.89233 0.773593 0
M  V30 2348 H 235.542 -1.39073 0.37346 0
M  V30 2349 H 237.495 -3.97044 -1.41188 0
M  V30 2350 H 236.219 -2.76947 -1.73113 0
M  V30 2351 H 234.878 -3.66018 0.206456 0
M  V30 2352 H 234.526 -4.57282 -2.09528 0
M  V30 2353 H 234.226 -5.81378 -0.852839 0
M  V30 2354 H 235.75 -5.83929 -1.78492 0
M  V30 2355 H 237.164 -5.71262 0.482983 0
M  V30 2356 H 235.561 -5.86747 1.25887 0
M  V30 2357 H 236.631 -4.53242 1.72335 0
M  V30 2358 N 237.974 -0.419461 -1.51915 0
M  V30 2359 C 239.39 -0.0708431 -1.59443 0
M  V30 2360 C 239.59 1.41796 -1.43164 0
M  V30 2361 O 238.646 2.18596 -1.26381 0
M  V30 2362 C 239.959 -0.574991 -2.95151 0
M  V30 2363 C 241.507 -0.533867 -3.08413 0
M  V30 2364 C 241.982 -1.01469 -4.46618 0
M  V30 2365 N 243.473 -0.971939 -4.52888 0
M  V30 2366 C 244.208 -1.31505 -5.58116 0
M  V30 2367 N 243.704 -1.73014 -6.70849 0
M  V30 2368 N 245.497 -1.23436 -5.48379 0
M  V30 2369 H 237.648 -1.38836 -1.60743 0
M  V30 2370 H 239.911 -0.570998 -0.756747 0
M  V30 2371 H 239.617 -1.61597 -3.12377 0
M  V30 2372 H 239.491 0.00979777 -3.77199 0
M  V30 2373 H 241.878 0.498086 -2.90866 0
M  V30 2374 H 241.959 -1.15484 -2.28248 0
M  V30 2375 H 241.603 -2.04502 -4.6491 0
M  V30 2376 H 241.533 -0.370433 -5.25295 0
M  V30 2377 H 244.024 -0.666893 -3.71969 0
M  V30 2378 H 244.337 -1.97479 -7.47143 0
M  V30 2379 H 242.682 -1.76926 -6.72103 0
M  V30 2380 H 245.873 -0.908869 -4.59192 0
M  V30 2381 H 246.046 -1.50506 -6.30279 0
M  V30 2382 N 239.452 1.56882 -0.150215 0
M  V30 2383 C 240.382 2.19935 0.784284 0
M  V30 2384 C 241.363 1.14854 1.25469 0
M  V30 2385 O 242.548 1.43209 1.31168 0
M  V30 2386 C 239.678 2.82349 2.02229 0
M  V30 2387 C 238.632 3.93285 1.68853 0
M  V30 2388 C 237.958 4.42649 2.99944 0
M  V30 2389 C 239.258 5.13904 0.932714 0
M  V30 2390 H 240.952 2.9828 0.258781 0
M  V30 2391 H 238.498 1.43473 0.123029 0
M  V30 2392 H 240.451 3.25126 2.68088 0
M  V30 2393 H 239.175 2.0134 2.57157 0
M  V30 2394 H 237.834 3.5113 1.05371 0
M  V30 2395 H 237.482 3.58458 3.52869 0
M  V30 2396 H 237.182 5.17476 2.78374 0
M  V30 2397 H 238.706 4.88099 3.66868 0
M  V30 2398 H 240.12 5.53506 1.49345 0
M  V30 2399 H 238.517 5.94515 0.81684 0
M  V30 2400 H 239.587 4.84842 -0.0749568 0
M  V30 2401 N 240.93 -0.123565 1.57115 0
M  V30 2402 C 241.86 -1.15309 2.03042 0
M  V30 2403 C 242.841 -1.43454 0.914061 0
M  V30 2404 O 244.026 -1.53973 1.18347 0
M  V30 2405 C 241.156 -2.48043 2.43089 0
M  V30 2406 C 240.11 -2.3437 3.58127 0
M  V30 2407 C 239.436 -3.72026 3.84059 0
M  V30 2408 C 240.736 -1.80804 4.90007 0
M  V30 2409 H 242.43 -0.771102 2.893 0
M  V30 2410 H 239.976 -0.369479 1.39179 0
M  V30 2411 H 241.929 -3.20311 2.73823 0
M  V30 2412 H 240.653 -2.88122 1.53796 0
M  V30 2413 H 239.312 -1.64551 3.27595 0
M  V30 2414 H 238.96 -4.09582 2.91979 0
M  V30 2415 H 238.66 -3.63732 4.6149 0
M  V30 2416 H 240.184 -4.45806 4.1724 0
M  V30 2417 H 241.598 -2.42886 5.19307 0
M  V30 2418 H 239.995 -1.83343 5.71407 0
M  V30 2419 H 241.065 -0.76528 4.78823 0
M  V30 2420 N 242.408 -1.52605 -0.393616 0
M  V30 2421 C 243.371 -1.76415 -1.46323 0
M  V30 2422 C 244.371 -0.634126 -1.47768 0
M  V30 2423 O 245.561 -0.902142 -1.4902 0
M  V30 2424 C 242.693 -1.8607 -2.85641 0
M  V30 2425 H 243.886 -2.71916 -1.26498 0
M  V30 2426 H 241.439 -1.43257 -0.625073 0
M  V30 2427 H 242.174 -0.925378 -3.10817 0
M  V30 2428 H 241.959 -2.68235 -2.85993 0
M  V30 2429 H 243.449 -2.06179 -3.63153 0
M  V30 2430 N 243.887 0.651787 -1.4349 0
M  V30 2431 C 244.85 1.74647 -1.48429 0
M  V30 2432 C 245.85 1.56513 -0.368817 0
M  V30 2433 O 247.04 1.62385 -0.630623 0
M  V30 2434 C 244.172 3.13533 -1.33827 0
M  V30 2435 H 245.365 1.71649 -2.4592 0
M  V30 2436 H 242.918 0.863573 -1.30277 0
M  V30 2437 H 243.653 3.22142 -0.37349 0
M  V30 2438 H 243.438 3.28101 -2.14691 0
M  V30 2439 H 244.928 3.93356 -1.40218 0
M  V30 2440 N 245.365 1.30045 0.890287 0
M  V30 2441 C 246.614 1.17929 1.63633 0
M  V30 2442 C 246.927 -0.266204 1.9378 0
M  V30 2443 O 248.133 -0.508804 2.6669 0
M  V30 2444 C 246.589 2.06317 2.94892 0
M  V30 2445 C 246.197 3.55745 2.72305 0
M  V30 2446 C 247.941 2.0295 3.72843 0
M  V30 2447 C 245.848 4.36205 3.99348 0
M  V30 2448 H 244.778 0.437782 0.613892 0
M  V30 2449 H 247.429 1.54754 0.986075 0
M  V30 2450 H 245.811 1.6237 3.61182 0
M  V30 2451 H 246.985 4.07805 2.1455 0
M  V30 2452 H 245.3 3.6088 2.07737 0
M  V30 2453 H 247.897 2.60319 4.67053 0
M  V30 2454 H 248.24 1.0117 4.0382 0
M  V30 2455 H 248.773 2.4499 3.13408 0
M  V30 2456 H 245.512 5.38659 3.73533 0
M  V30 2457 H 245.032 3.8891 4.56628 0
M  V30 2458 H 246.711 4.47362 4.67415 0
M  V30 2459 N 246.843 -1.10192 1.12674 0
M  V30 2460 C 248.083 -1.83825 0.893736 0
M  V30 2461 C 248.447 -1.83341 -0.570082 0
M  V30 2462 O 249.648 -2.52553 -0.920354 0
M  V30 2463 C 247.919 -3.26405 1.45582 0
M  V30 2464 S 249.478 -4.17136 1.36171 0
M  V30 2465 H 246.296 -0.633732 0.322342 0
M  V30 2466 H 248.898 -1.32581 1.43675 0
M  V30 2467 H 247.602 -3.24329 2.51473 0
M  V30 2468 H 247.133 -3.82721 0.910405 0
M  V30 2469 H 249.148 -4.95069 0.334863 0
M  V30 2470 N 248.321 -0.919034 -1.28029 0
M  V30 2471 C 249.251 -0.428581 -2.29533 0
M  V30 2472 C 250.232 0.50659 -1.62381 0
M  V30 2473 O 251.417 0.413195 -1.89753 0
M  V30 2474 C 248.547 0.327388 -3.45753 0
M  V30 2475 C 247.501 -0.519137 -4.2484 0
M  V30 2476 C 246.827 0.365486 -5.33449 0
M  V30 2477 C 248.127 -1.77914 -4.91064 0
M  V30 2478 H 249.821 -1.27687 -2.70807 0
M  V30 2479 H 247.367 -0.615428 -1.30186 0
M  V30 2480 H 249.32 0.681378 -4.15855 0
M  V30 2481 H 248.044 1.20963 -3.03374 0
M  V30 2482 H 246.703 -0.855717 -3.56473 0
M  V30 2483 H 246.351 1.24642 -4.87312 0
M  V30 2484 H 246.051 -0.197356 -5.87268 0
M  V30 2485 H 247.575 0.715241 -6.06396 0
M  V30 2486 H 248.989 -1.49374 -5.53498 0
M  V30 2487 H 247.386 -2.2848 -5.54903 0
M  V30 2488 H 248.456 -2.50382 -4.15255 0
M  V30 2489 N 249.799 1.42003 -0.683588 0
M  V30 2490 C 250.729 2.33487 -0.024866 0
M  V30 2491 C 251.71 1.51163 0.779975 0
M  V30 2492 O 252.895 1.79739 0.735362 0
M  V30 2493 C 250.025 3.3487 0.920836 0
M  V30 2494 C 248.979 4.27414 0.223958 0
M  V30 2495 C 248.305 5.19074 1.2832 0
M  V30 2496 C 249.605 5.14445 -0.90242 0
M  V30 2497 H 251.299 2.88819 -0.788921 0
M  V30 2498 H 248.845 1.38873 -0.38083 0
M  V30 2499 H 250.798 3.97787 1.39081 0
M  V30 2500 H 249.522 2.77861 1.71642 0
M  V30 2501 H 248.181 3.65904 -0.225864 0
M  V30 2502 H 247.829 4.58387 2.071 0
M  V30 2503 H 247.529 5.81822 0.821995 0
M  V30 2504 H 249.053 5.84867 1.75392 0
M  V30 2505 H 250.467 5.70998 -0.513272 0
M  V30 2506 H 248.864 5.86072 -1.28997 0
M  V30 2507 H 249.934 4.52322 -1.74737 0
M  V30 2508 N 251.277 0.427512 1.51691 0
M  V30 2509 C 252.207 -0.3796 2.30394 0
M  V30 2510 C 253.188 -1.02982 1.35384 0
M  V30 2511 O 254.373 -1.03534 1.643 0
M  V30 2512 C 251.503 -1.48649 3.1388 0
M  V30 2513 C 250.457 -0.960294 4.17088 0
M  V30 2514 C 249.783 -2.16219 4.89033 0
M  V30 2515 C 251.083 -0.00153679 5.223 0
M  V30 2516 H 252.777 0.277164 2.98114 0
M  V30 2517 H 250.323 0.134739 1.43368 0
M  V30 2518 H 252.276 -2.05826 3.67714 0
M  V30 2519 H 251 -2.1714 2.43962 0
M  V30 2520 H 249.659 -0.410806 3.64291 0
M  V30 2521 H 249.307 -2.83307 4.15628 0
M  V30 2522 H 249.007 -1.81654 5.58816 0
M  V30 2523 H 250.531 -2.73968 5.45687 0
M  V30 2524 H 251.945 -0.482687 5.71264 0
M  V30 2525 H 250.342 0.256199 5.99553 0
M  V30 2526 H 251.412 0.938174 4.75738 0
M  V30 2527 N 252.755 -1.56801 0.158532 0
M  V30 2528 C 253.685 -2.20347 -0.772609 0
M  V30 2529 C 254.666 -1.15518 -1.24859 0
M  V30 2530 O 255.851 -1.43902 -1.30406 0
M  V30 2531 C 252.981 -2.83417 -2.00729 0
M  V30 2532 C 251.935 -3.94174 -1.66765 0
M  V30 2533 C 251.261 -4.44233 -2.97592 0
M  V30 2534 C 252.561 -5.14392 -0.905447 0
M  V30 2535 H 254.255 -2.98413 -0.242959 0
M  V30 2536 H 251.801 -1.43537 -0.115419 0
M  V30 2537 H 253.754 -3.26543 -2.6636 0
M  V30 2538 H 252.478 -2.02701 -2.56086 0
M  V30 2539 H 251.137 -3.51684 -1.03508 0
M  V30 2540 H 250.785 -3.60325 -3.50963 0
M  V30 2541 H 250.485 -5.18945 -2.75626 0
M  V30 2542 H 252.009 -4.90037 -3.64274 0
M  V30 2543 H 253.423 -5.5429 -1.46408 0
M  V30 2544 H 251.82 -5.9494 -0.7853 0
M  V30 2545 H 252.89 -4.84795 0.100668 0
M  V30 2546 N 254.233 0.115231 -1.57178 0
M  V30 2547 C 255.461 0.836437 -1.89239 0
M  V30 2548 C 255.876 1.73256 -0.750175 0
M  V30 2549 O 255.233 1.80357 0.278832 0
M  V30 2550 C 255.284 1.66671 -3.20785 0
M  V30 2551 O 255.005 0.806652 -4.3061 0
M  V30 2552 C 256.506 2.49274 -3.66575 0
M  V30 2553 H 253.726 0.240253 -0.626514 0
M  V30 2554 H 256.27 0.0984932 -2.04263 0
M  V30 2555 H 254.425 2.35737 -3.0742 0
M  V30 2556 H 254.839 1.37969 -5.06028 0
M  V30 2557 H 256.313 3.03055 -4.6137 0
M  V30 2558 H 256.79 3.26807 -2.93417 0
M  V30 2559 H 257.396 1.85443 -3.82741 0
M  V30 2560 N 255.711 1.52812 0.385517 0
M  V30 2561 C 256.957 1.69225 1.12847 0
M  V30 2562 C 257.312 0.42864 1.87564 0
M  V30 2563 O 256.605 -0.57779 1.8268 0
M  V30 2564 C 256.799 2.86856 2.13187 0
M  V30 2565 C 256.628 4.24535 1.48325 0
M  V30 2566 C 255.398 4.89701 1.24585 0
M  V30 2567 C 257.596 5.05794 0.931501 0
M  V30 2568 N 255.578 6.11353 0.558644 0
M  V30 2569 C 256.949 6.1888 0.372552 0
M  V30 2570 C 259.004 4.90963 0.828248 0
M  V30 2571 C 257.707 7.18757 -0.279556 0
M  V30 2572 C 259.733 5.91095 0.189956 0
M  V30 2573 C 259.095 7.03489 -0.358207 0
M  V30 2574 H 255.194 0.67268 0.39878 0
M  V30 2575 H 257.778 1.9017 0.417528 0
M  V30 2576 H 255.949 2.67484 2.81614 0
M  V30 2577 H 257.681 2.92188 2.80014 0
M  V30 2578 H 254.436 4.48485 1.52178 0
M  V30 2579 H 254.86 6.76606 0.230983 0
M  V30 2580 H 259.502 4.04274 1.23784 0
M  V30 2581 H 257.22 8.05052 -0.701152 0
M  V30 2582 H 260.806 5.81694 0.111264 0
M  V30 2583 H 259.686 7.79642 -0.844314 0
M  V30 2584 N 257.189 -0.644168 1.43834 0
M  V30 2585 C 258.435 -1.40603 1.46146 0
M  V30 2586 C 258.768 -1.93997 0.0887717 0
M  V30 2587 O 258.043 -1.72854 -0.891724 0
M  V30 2588 C 258.326 -2.58086 2.51124 0
M  V30 2589 C 258.179 -2.10126 3.97702 0
M  V30 2590 C 259.498 -3.60291 2.52742 0
M  V30 2591 H 256.617 -0.509905 0.532134 0
M  V30 2592 H 259.259 -0.729502 1.75437 0
M  V30 2593 H 257.409 -3.15801 2.26278 0
M  V30 2594 H 259.081 -1.57342 4.33637 0
M  V30 2595 H 257.324 -1.41419 4.10101 0
M  V30 2596 H 257.995 -2.94649 4.66783 0
M  V30 2597 H 260.471 -3.12352 2.7491 0
M  V30 2598 H 259.347 -4.40032 3.28121 0
M  V30 2599 H 259.608 -4.1349 1.56455 0
M  V30 2600 N 258.668 -1.30515 -0.883378 0
M  V30 2601 C 259.616 -1.16941 -2.01066 0
M  V30 2602 C 260.61 -0.0809148 -1.69207 0
M  V30 2603 O 261.816 -0.241877 -1.78367 0
M  V30 2604 H 258.191 -0.361705 -0.659298 0
M  V30 2605 H 260.162 -2.12344 -2.09649 0
M  V30 2606 C 258.911 -0.879694 -3.36388 0
M  V30 2607 H 258.234 -1.70936 -3.61415 0
M  V30 2608 H 259.674 -0.82483 -4.159 0
M  V30 2609 C 258.133 0.417409 -3.34304 0
M  V30 2610 O 258.663 1.43843 -3.75063 0
M  V30 2611 N 256.869 0.429141 -2.87414 0
M  V30 2612 H 256.416 -0.402222 -2.5444 0
M  V30 2613 H 256.374 1.29696 -2.86403 0
M  V30 2614 N 260.146 1.09593 -1.13257 0
M  V30 2615 C 261.386 1.83349 -0.903472 0
M  V30 2616 C 261.75 1.83641 0.560351 0
M  V30 2617 O 262.951 2.53037 0.906947 0
M  V30 2618 C 261.222 3.25629 -1.47311 0
M  V30 2619 S 262.781 4.16408 -1.38382 0
M  V30 2620 H 259.599 0.632014 -0.325699 0
M  V30 2621 H 262.201 1.31817 -1.44376 0
M  V30 2622 H 260.905 3.22991 -2.53189 0
M  V30 2623 H 260.436 3.82233 -0.930689 0
M  V30 2624 H 262.451 4.94884 -0.361113 0
M  V30 2625 N 261.624 0.925811 1.2754 0
M  V30 2626 C 262.849 0.580924 1.99098 0
M  V30 2627 C 263.274 -0.833555 1.68622 0
M  V30 2628 O 262.632 -1.55903 0.925422 0
M  V30 2629 C 262.68 0.811186 3.51358 0
M  V30 2630 O 261.784 -0.124129 4.12213 0
M  V30 2631 H 261.125 0.223873 0.625122 0
M  V30 2632 H 263.655 1.24455 1.62395 0
M  V30 2633 H 263.665 0.72601 4.01489 0
M  V30 2634 H 262.34 1.84227 3.72872 0
M  V30 2635 H 260.917 0.0108006 3.72898 0
M  V30 2636 N 263.102 -1.41638 0.69111 0
M  V30 2637 C 264.327 -2.06148 0.227583 0
M  V30 2638 C 264.752 -1.51652 -1.11281 0
M  V30 2639 O 264.11 -0.64164 -1.69566 0
M  V30 2640 C 264.158 -3.60095 0.190858 0
M  V30 2641 O 263.262 -4.03845 -0.835664 0
M  V30 2642 H 262.603 -0.654434 0.112306 0
M  V30 2643 H 265.133 -1.81484 0.944714 0
M  V30 2644 H 265.143 -4.07995 0.020207 0
M  V30 2645 H 263.818 -3.99129 1.16915 0
M  V30 2646 H 262.395 -3.67458 -0.63473 0
M  V30 2647 N 264.58 -0.43555 -1.51462 0
M  V30 2648 C 265.826 0.131709 -2.02372 0
M  V30 2649 C 266.159 1.42516 -1.3192 0
M  V30 2650 O 265.434 1.89606 -0.433573 0
M  V30 2651 C 265.717 0.352301 -3.58373 0
M  V30 2652 C 265.57 -0.959676 -4.39443 0
M  V30 2653 C 266.889 1.12286 -4.25535 0
M  V30 2654 H 264.008 0.0463936 -0.735538 0
M  V30 2655 H 266.65 -0.574197 -1.81116 0
M  V30 2656 H 264.8 0.9536 -3.76615 0
M  V30 2657 H 266.472 -1.59482 -4.32855 0
M  V30 2658 H 264.715 -1.56468 -4.04599 0
M  V30 2659 H 265.386 -0.759394 -5.46752 0
M  V30 2660 H 267.862 0.613545 -4.11552 0
M  V30 2661 H 266.738 1.24598 -5.34571 0
M  V30 2662 H 266.999 2.15048 -3.86273 0
M  V30 2663 N 266.058 1.56714 -0.166846 0
M  V30 2664 C 267.474 1.58473 0.189372 0
M  V30 2665 C 267.674 1.18201 1.63189 0
M  V30 2666 O 266.73 0.891528 2.36237 0
M  V30 2667 C 268.043 3.00573 -0.0873872 0
M  V30 2668 C 269.591 3.1299 -0.0252443 0
M  V30 2669 C 270.066 4.57174 -0.274934 0
M  V30 2670 N 271.557 4.62665 -0.222553 0
M  V30 2671 C 272.292 5.72072 -0.389985 0
M  V30 2672 N 271.788 6.90054 -0.616229 0
M  V30 2673 N 273.581 5.61153 -0.326202 0
M  V30 2674 H 265.732 1.8118 -1.10849 0
M  V30 2675 H 267.995 0.839525 -0.440342 0
M  V30 2676 H 267.701 3.34497 -1.0865 0
M  V30 2677 H 267.575 3.72019 0.623037 0
M  V30 2678 H 269.962 2.78895 0.96444 0
M  V30 2679 H 270.043 2.43989 -0.768309 0
M  V30 2680 H 269.687 4.91976 -1.26181 0
M  V30 2681 H 269.617 5.24328 0.48869 0
M  V30 2682 H 272.108 3.77863 -0.0531512 0
M  V30 2683 H 272.421 7.69311 -0.733559 0
M  V30 2684 H 270.766 6.91927 -0.652791 0
M  V30 2685 H 273.957 4.67859 -0.150072 0
M  V30 2686 H 274.13 6.46364 -0.460116 0
M  V30 2687 N 267.536 -0.106894 1.57237 0
M  V30 2688 C 268.782 -0.808678 1.86633 0
M  V30 2689 C 269.137 -1.76917 0.756178 0
M  V30 2690 O 268.43 -1.90055 -0.242834 0
M  V30 2691 C 268.624 -1.58628 3.20268 0
M  V30 2692 C 268.453 -0.702592 4.44178 0
M  V30 2693 C 267.223 -0.352808 5.04067 0
M  V30 2694 C 269.421 -0.0148031 5.14298 0
M  V30 2695 N 267.403 0.540279 6.11518 0
M  V30 2696 C 268.774 0.736809 6.15606 0
M  V30 2697 C 270.829 0.0603524 4.97863 0
M  V30 2698 C 269.532 1.55654 7.02257 0
M  V30 2699 C 271.558 0.866942 5.85011 0
M  V30 2700 C 270.92 1.60671 6.85831 0
M  V30 2701 H 267.019 -0.27246 0.733001 0
M  V30 2702 H 269.603 -0.0717858 1.94568 0
M  V30 2703 H 267.774 -2.29413 3.13408 0
M  V30 2704 H 269.506 -2.23434 3.3743 0
M  V30 2705 H 266.261 -0.697802 4.68431 0
M  V30 2706 H 266.685 0.979029 6.69884 0
M  V30 2707 H 271.327 -0.497236 4.19866 0
M  V30 2708 H 269.045 2.12524 7.79653 0
M  V30 2709 H 272.631 0.927612 5.74358 0
M  V30 2710 H 271.511 2.2208 7.52097 0
M  V30 2711 N 269.014 -1.53014 -0.377408 0
M  V30 2712 C 269.977 -1.77957 -1.44444 0
M  V30 2713 C 270.977 -0.649763 -1.47087 0
M  V30 2714 O 272.167 -0.917897 -1.48055 0
M  V30 2715 C 269.299 -1.89089 -2.83651 0
M  V30 2716 H 270.492 -2.73243 -1.23606 0
M  V30 2717 H 268.045 -1.43912 -0.609844 0
M  V30 2718 H 268.78 -0.958293 -3.09818 0
M  V30 2719 H 268.565 -2.71254 -2.83132 0
M  V30 2720 H 270.055 -2.1002 -3.60945 0
M  V30 2721 N 270.492 0.636531 -1.44174 0
M  V30 2722 C 271.72 1.42353 -1.50144 0
M  V30 2723 C 272.135 1.88389 -0.124575 0
M  V30 2724 O 271.492 1.6051 0.868489 0
M  V30 2725 C 271.543 2.64744 -2.46156 0
M  V30 2726 O 271.264 2.20629 -3.7849 0
M  V30 2727 C 272.765 3.57929 -2.61537 0
M  V30 2728 H 269.985 0.436752 -0.5094 0
M  V30 2729 H 272.529 0.778933 -1.89084 0
M  V30 2730 H 270.684 3.25307 -2.10366 0
M  V30 2731 H 271.098 2.99938 -4.30276 0
M  V30 2732 H 272.572 4.40428 -3.32757 0
M  V30 2733 H 273.049 4.06382 -1.66585 0
M  V30 2734 H 273.655 3.03238 -2.98206 0
M  V30 2735 N 271.97 1.30982 0.876444 0
M  V30 2736 C 273.386 1.09498 1.16113 0
M  V30 2737 C 273.586 -0.13875 2.01022 0
M  V30 2738 O 272.642 -0.829935 2.38471 0
M  V30 2739 C 273.955 2.36308 1.85954 0
M  V30 2740 C 275.503 2.41856 1.98683 0
M  V30 2741 C 275.978 3.6853 2.71937 0
M  V30 2742 N 277.469 3.69387 2.79477 0
M  V30 2743 C 278.204 4.64096 3.36753 0
M  V30 2744 N 277.7 5.69155 3.95012 0
M  V30 2745 N 279.493 4.51626 3.3465 0
M  V30 2746 H 271.644 2.10118 0.310494 0
M  V30 2747 H 273.907 0.926634 0.200131 0
M  V30 2748 H 273.613 3.26388 1.31011 0
M  V30 2749 H 273.487 2.4561 2.86278 0
M  V30 2750 H 275.874 1.52249 2.52793 0
M  V30 2751 H 275.955 2.36523 0.9742 0
M  V30 2752 H 275.599 4.58499 2.18496 0
M  V30 2753 H 275.529 3.71127 3.73593 0
M  V30 2754 H 278.02 2.93438 2.38123 0
M  V30 2755 H 278.333 6.3751 4.36808 0
M  V30 2756 H 276.678 5.72937 3.93406 0
M  V30 2757 H 279.869 3.68728 2.8837 0
M  V30 2758 H 280.042 5.25614 3.7899 0
M  V30 2759 N 273.449 -1.08991 1.13837 0
M  V30 2760 C 274.695 -1.81526 0.90422 0
M  V30 2761 C 275.028 -1.85706 -0.568066 0
M  V30 2762 O 274.303 -1.32855 -1.42056 0
M  V30 2763 C 274.586 -3.27447 1.49835 0
M  V30 2764 C 274.439 -3.31512 3.04006 0
M  V30 2765 C 275.758 -4.24256 1.17025 0
M  V30 2766 H 272.877 -0.659029 0.329923 0
M  V30 2767 H 275.519 -1.27644 1.40737 0
M  V30 2768 H 273.669 -3.73462 1.07044 0
M  V30 2769 H 275.341 -2.93867 3.55584 0
M  V30 2770 H 273.584 -2.70963 3.38765 0
M  V30 2771 H 274.255 -4.34329 3.40679 0
M  V30 2772 H 276.731 -3.86549 1.54009 0
M  V30 2773 H 275.607 -5.24684 1.61237 0
M  V30 2774 H 275.868 -4.42019 0.0846274 0
M  V30 2775 N 274.927 -0.932562 -1.27047 0
M  V30 2776 C 275.859 -0.392734 -2.2581 0
M  V30 2777 C 276.872 0.479241 -1.55586 0
M  V30 2778 O 278.061 0.291078 -1.76111 0
M  V30 2779 C 275.161 0.455456 -3.35826 0
M  V30 2780 C 274.334 -0.398355 -4.35582 0
M  V30 2781 C 273.393 0.387985 -5.24768 0
M  V30 2782 O 272.419 -0.206003 -5.68827 0
M  V30 2783 N 273.621 1.68664 -5.55457 0
M  V30 2784 H 276.386 -1.24173 -2.72766 0
M  V30 2785 H 273.947 -0.800511 -1.40725 0
M  V30 2786 H 275.939 0.988692 -3.92437 0
M  V30 2787 H 274.509 1.20522 -2.88432 0
M  V30 2788 H 273.729 -1.11286 -3.78165 0
M  V30 2789 H 275.017 -0.981889 -4.99236 0
M  V30 2790 H 274.415 2.19147 -5.21528 0
M  V30 2791 H 272.972 2.1663 -6.14748 0
M  V30 2792 N 276.405 1.4127 -0.698611 0
M  V30 2793 C 277.682 1.94955 -0.158762 0
M  V30 2794 C 278.062 1.63781 1.33188 0
M  V30 2795 O 277.41 0.946423 2.07979 0
M  V30 2796 C 277.62 3.46044 -0.453309 0
M  V30 2797 C 278.968 4.22872 -0.382707 0
M  V30 2798 O 279.992 3.54076 -0.388396 0
M  V30 2799 O 278.851 5.45407 -0.345463 0
M  V30 2800 H 275.945 0.82683 -0.0167505 0
M  V30 2801 H 278.491 1.50971 -0.77498 0
M  V30 2802 H 277.263 3.62028 -1.48498 0
M  V30 2803 H 276.886 3.97128 0.19373 0
M  V30 2804 N 277.883 0.443576 1.51229 0
M  V30 2805 C 279.132 -0.122332 2.01329 0
M  V30 2806 C 279.445 -1.43237 1.33201 0
M  V30 2807 O 280.651 -2.0816 1.74304 0
M  V30 2808 C 279.107 -0.268551 3.58897 0
M  V30 2809 C 278.715 1.03142 4.35965 0
M  V30 2810 C 280.459 -0.787894 4.17124 0
M  V30 2811 C 278.366 0.850504 5.85252 0
M  V30 2812 H 277.296 -0.0494929 0.752374 0
M  V30 2813 H 279.947 0.574289 1.74282 0
M  V30 2814 H 278.329 -1.02832 3.82415 0
M  V30 2815 H 279.503 1.80001 4.24189 0
M  V30 2816 H 277.818 1.47977 3.89219 0
M  V30 2817 H 280.415 -0.939841 5.26375 0
M  V30 2818 H 280.758 -1.77201 3.76703 0
M  V30 2819 H 281.291 -0.0862669 3.97706 0
M  V30 2820 H 278.03 1.80718 6.30096 0
M  V30 2821 H 277.55 0.121825 5.99676 0
M  V30 2822 H 279.229 0.506163 6.45017 0
M  V30 2823 N 279.361 -1.56624 0.175154 0
M  V30 2824 C 280.608 -1.96999 -0.468811 0
M  V30 2825 C 280.936 -1.06129 -1.62994 0
M  V30 2826 O 280.191 -0.0961771 -1.95464 0
M  V30 2827 C 280.49 -3.43419 -0.989864 0
M  V30 2828 C 280.156 -4.50866 0.0557687 0
M  V30 2829 C 278.818 -4.79975 0.343134 0
M  V30 2830 C 281.17 -5.15551 0.765308 0
M  V30 2831 C 278.498 -5.71066 1.34536 0
M  V30 2832 C 280.85 -6.07724 1.75654 0
M  V30 2833 C 279.514 -6.35199 2.05132 0
M  V30 2834 H 278.784 -0.720869 -0.17155 0
M  V30 2835 H 281.431 -1.89616 0.267924 0
M  V30 2836 H 279.736 -3.47772 -1.80449 0
M  V30 2837 H 281.433 -3.72002 -1.49719 0
M  V30 2838 H 278.023 -4.28229 -0.178381 0
M  V30 2839 H 282.207 -4.9317 0.556513 0
M  V30 2840 H 277.463 -5.90635 1.57988 0
M  V30 2841 H 281.637 -6.56912 2.31169 0
M  V30 2842 H 279.264 -7.05584 2.8294 0
M  V30 2843 N 280.839 0.0985539 -1.57292 0
M  V30 2844 C 282.067 0.816318 -1.90115 0
M  V30 2845 C 282.482 1.72451 -0.768509 0
M  V30 2846 O 281.839 1.80643 0.259687 0
M  V30 2847 C 281.89 1.63259 -3.22535 0
M  V30 2848 O 281.611 0.760934 -4.31441 0
M  V30 2849 C 283.112 2.45372 -3.69199 0
M  V30 2850 H 280.332 0.233595 -0.629027 0
M  V30 2851 H 282.876 0.0768229 -2.04356 0
M  V30 2852 H 281.031 2.32463 -3.09903 0
M  V30 2853 H 281.445 1.32595 -5.07463 0
M  V30 2854 H 282.919 2.98144 -4.64558 0
M  V30 2855 H 283.396 3.23677 -2.96867 0
M  V30 2856 H 284.002 1.81373 -3.84687 0
M  V30 2857 N 282.317 1.53212 0.369288 0
M  V30 2858 C 283.28 1.7872 1.43498 0
M  V30 2859 C 284.28 0.657554 1.46741 0
M  V30 2860 O 285.47 0.925736 1.47566 0
M  V30 2861 C 282.602 1.90591 2.82645 0
M  V30 2862 H 283.795 2.73894 1.22156 0
M  V30 2863 H 281.348 1.44233 0.602203 0
M  V30 2864 H 282.083 0.974709 3.09306 0
M  V30 2865 H 281.868 2.72751 2.8169 0
M  V30 2866 H 283.358 2.11931 3.59826 0
M  V30 2867 N 283.795 -0.628877 1.44509 0
M  V30 2868 C 285.043 -1.38565 1.4712 0
M  V30 2869 C 285.364 -1.94712 0.105899 0
M  V30 2870 O 284.634 -1.75912 -0.862079 0
M  V30 2871 H 283.214 -0.514333 0.541729 0
M  V30 2872 H 285.876 -0.740018 1.80305 0
M  V30 2873 H 284.972 -2.21583 2.19789 0
M  V30 2874 N 285.273 -1.31445 -0.869486 0
M  V30 2875 C 286.22 -1.19135 -1.97675 0
M  V30 2876 C 287.19 -0.0770266 -1.65921 0
M  V30 2877 O 288.375 -0.249972 -1.89155 0
M  V30 2878 C 285.515 -0.905149 -3.33018 0
M  V30 2879 C 284.628 -2.10285 -3.77365 0
M  V30 2880 C 283.763 -1.75339 -5.01427 0
M  V30 2881 C 282.802 -2.91515 -5.38224 0
M  V30 2882 N 281.939 -2.56762 -6.53466 0
M  V30 2883 H 286.779 -2.13853 -2.07535 0
M  V30 2884 H 284.316 -1.06379 -1.01597 0
M  V30 2885 H 286.274 -0.719765 -4.10944 0
M  V30 2886 H 284.904 0.00519624 -3.228 0
M  V30 2887 H 283.956 -2.39899 -2.95216 0
M  V30 2888 H 285.268 -2.97237 -4.00564 0
M  V30 2889 H 284.422 -1.53266 -5.87022 0
M  V30 2890 H 283.161 -0.855801 -4.80133 0
M  V30 2891 H 282.166 -3.14237 -4.51149 0
M  V30 2892 H 283.391 -3.81985 -5.61484 0
M  V30 2893 H 281.337 -1.69526 -6.33717 0
M  V30 2894 H 281.254 -3.37243 -6.76612 0
M  V30 2895 H 282.522 -2.38083 -7.42251 0
M  V30 2896 N 286.751 1.08385 -1.14413 0
M  V30 2897 C 287.681 2.17321 -0.854044 0
M  V30 2898 C 288.662 1.69024 0.191049 0
M  V30 2899 O 289.847 1.94141 0.0476779 0
M  V30 2900 C 286.977 3.45719 -0.330983 0
M  V30 2901 C 285.931 4.07409 -1.31155 0
M  V30 2902 C 285.257 5.30762 -0.64778 0
M  V30 2903 C 286.557 4.48665 -2.67388 0
M  V30 2904 H 288.251 2.41845 -1.76498 0
M  V30 2905 H 285.797 1.16233 -0.850051 0
M  V30 2906 H 287.75 4.21241 -0.115645 0
M  V30 2907 H 286.474 3.2075 0.615381 0
M  V30 2908 H 285.133 3.33919 -1.51306 0
M  V30 2909 H 284.781 5.02078 0.304398 0
M  V30 2910 H 284.481 5.72992 -1.30207 0
M  V30 2911 H 286.005 6.08998 -0.441972 0
M  V30 2912 H 287.419 5.15364 -2.51143 0
M  V30 2913 H 285.816 5.01814 -3.29093 0
M  V30 2914 H 286.886 3.60543 -3.24248 0
M  V30 2915 N 288.23 0.939286 1.26551 0
M  V30 2916 C 289.16 0.465044 2.28822 0
M  V30 2917 C 290.141 -0.480692 1.63167 0
M  V30 2918 O 291.326 -0.382955 1.90387 0
M  V30 2919 C 288.456 -0.27234 3.46231 0
M  V30 2920 C 287.41 0.58666 4.2396 0
M  V30 2921 C 286.736 -0.280573 5.33963 0
M  V30 2922 C 288.036 1.85704 4.88171 0
M  V30 2923 H 289.73 1.31979 2.68741 0
M  V30 2924 H 287.276 0.636061 1.29191 0
M  V30 2925 H 289.229 -0.615133 4.16886 0
M  V30 2926 H 287.953 -1.16121 3.0526 0
M  V30 2927 H 286.612 0.91232 3.55067 0
M  V30 2928 H 286.26 -1.16874 4.89234 0
M  V30 2929 H 285.96 0.29076 5.8688 0
M  V30 2930 H 287.484 -0.618678 6.07458 0
M  V30 2931 H 288.898 1.58161 5.51052 0
M  V30 2932 H 287.295 2.37279 5.51197 0
M  V30 2933 H 288.365 2.56957 4.11219 0
M  V30 2934 N 289.708 -1.40897 0.706093 0
M  V30 2935 C 290.671 -2.29131 0.0562841 0
M  V30 2936 C 291.671 -1.44901 -0.697166 0
M  V30 2937 O 292.861 -1.65926 -0.530484 0
M  V30 2938 C 289.993 -3.27957 -0.93043 0
M  V30 2939 H 291.186 -2.88091 0.833284 0
M  V30 2940 H 288.739 -1.4906 0.470192 0
M  V30 2941 H 289.474 -2.73997 -1.73482 0
M  V30 2942 H 289.259 -3.90124 -0.393166 0
M  V30 2943 H 290.749 -3.94049 -1.38256 0
M  V30 2944 N 291.186 -0.45159 -1.50991 0
M  V30 2945 C 292.116 0.342898 -2.30969 0
M  V30 2946 C 293.097 1.00815 -1.37005 0
M  V30 2947 O 294.282 1.00907 -1.65926 0
M  V30 2948 C 291.412 1.43637 -3.16205 0
M  V30 2949 C 290.366 0.893818 -4.18563 0
M  V30 2950 C 289.692 2.08411 -4.92411 0
M  V30 2951 C 290.992 -0.0815568 -5.22236 0
M  V30 2952 H 292.686 -0.324556 -2.97636 0
M  V30 2953 H 290.232 -0.157531 -1.43136 0
M  V30 2954 H 292.185 1.9995 -3.70942 0
M  V30 2955 H 290.909 2.13232 -2.47386 0
M  V30 2956 H 289.568 0.352798 -3.64898 0
M  V30 2957 H 289.216 2.76658 -4.20082 0
M  V30 2958 H 288.916 1.72741 -5.61636 0
M  V30 2959 H 290.44 2.65251 -5.49976 0
M  V30 2960 H 291.854 0.391742 -5.7196 0
M  V30 2961 H 290.251 -0.351551 -5.99069 0
M  V30 2962 H 291.321 -1.01374 -4.74185 0
M  V30 2963 N 292.664 1.56529 -0.183458 0
M  V30 2964 C 293.627 2.17324 0.728223 0
M  V30 2965 C 294.627 1.12453 1.14939 0
M  V30 2966 O 295.817 1.37902 1.06437 0
M  V30 2967 C 292.949 2.76591 1.99274 0
M  V30 2968 H 294.142 2.99241 0.198772 0
M  V30 2969 H 291.695 1.5616 0.0661391 0
M  V30 2970 H 292.43 1.98441 2.56499 0
M  V30 2971 H 292.215 3.5335 1.69959 0
M  V30 2972 H 293.705 3.23311 2.6431 0
M  V30 2973 N 294.142 -0.090211 1.57342 0
M  V30 2974 C 295.072 -1.10976 2.05443 0
M  V30 2975 C 296.053 -1.41482 0.944284 0
M  V30 2976 O 297.238 -1.51428 1.21586 0
M  V30 2977 C 294.368 -2.42831 2.48295 0
M  V30 2978 C 293.322 -2.26721 3.63018 0
M  V30 2979 C 292.648 -3.63796 3.91863 0
M  V30 2980 C 293.948 -1.7037 4.93732 0
M  V30 2981 H 295.642 -0.709564 2.9087 0
M  V30 2982 H 293.188 -0.339874 1.39932 0
M  V30 2983 H 295.141 -3.14431 2.80555 0
M  V30 2984 H 293.865 -2.84795 1.59873 0
M  V30 2985 H 292.524 -1.57565 3.31012 0
M  V30 2986 H 292.172 -4.03297 3.00601 0
M  V30 2987 H 291.872 -3.53861 4.69101 0
M  V30 2988 H 293.396 -4.36855 4.26603 0
M  V30 2989 H 294.81 -2.31816 5.24342 0
M  V30 2990 H 293.207 -1.71181 5.75167 0
M  V30 2991 H 294.277 -0.663542 4.80339 0
M  V30 2992 N 295.62 -1.53406 -0.361157 0
M  V30 2993 C 296.869 -1.69022 -1.10066 0
M  V30 2994 C 297.182 -0.450838 -1.90333 0
M  V30 2995 O 298.388 -0.487617 -2.67085 0
M  V30 2996 C 296.844 -2.98812 -2.00598 0
M  V30 2997 C 296.452 -4.30027 -1.25621 0
M  V30 2998 C 298.196 -3.23795 -2.74513 0
M  V30 2999 C 296.103 -5.50903 -2.1508 0
M  V30 3000 H 295.033 -0.629776 -0.414606 0
M  V30 3001 H 297.684 -1.79907 -0.361348 0
M  V30 3002 H 296.066 -2.8174 -2.78278 0
M  V30 3003 H 297.24 -4.57745 -0.529739 0
M  V30 3004 H 295.555 -4.11522 -0.635496 0
M  V30 3005 H 298.152 -4.11289 -3.41681 0
M  V30 3006 H 298.495 -2.40045 -3.40123 0
M  V30 3007 H 299.028 -3.41561 -2.03914 0
M  V30 3008 H 295.767 -6.37143 -1.54041 0
M  V30 3009 H 295.287 -5.27459 -2.85565 0
M  V30 3010 H 296.966 -5.85865 -2.74538 0
M  V30 3011 N 297.098 0.621204 -1.44841 0
M  V30 3012 C 298.347 1.37658 -1.47422 0
M  V30 3013 C 298.66 1.95264 -0.114629 0
M  V30 3014 O 299.866 2.71494 -0.0180199 0
M  V30 3015 C 298.322 2.49285 -2.59586 0
M  V30 3016 C 297.93 1.98149 -4.01797 0
M  V30 3017 C 299.674 3.26409 -2.71399 0
M  V30 3018 C 297.581 3.07178 -5.05367 0
M  V30 3019 H 296.511 0.517344 -0.548517 0
M  V30 3020 H 299.162 0.667257 -1.70938 0
M  V30 3021 H 297.544 3.22839 -2.29328 0
M  V30 3022 H 298.718 1.31395 -4.41669 0
M  V30 3023 H 297.033 1.33812 -3.94314 0
M  V30 3024 H 299.63 4.07706 -3.45948 0
M  V30 3025 H 299.973 3.76535 -1.77559 0
M  V30 3026 H 300.506 2.5995 -3.01116 0
M  V30 3027 H 297.245 2.61985 -6.00869 0
M  V30 3028 H 296.765 3.72542 -4.70077 0
M  V30 3029 H 298.444 3.71789 -5.29511 0
M  V30 3030 N 298.576 1.31904 0.862503 0
M  V30 3031 C 299.825 1.21373 1.61094 0
M  V30 3032 C 300.138 -0.22504 1.94301 0
M  V30 3033 O 301.344 -0.452121 2.67709 0
M  V30 3034 C 299.8 2.12525 2.9045 0
M  V30 3035 C 299.408 3.61441 2.64697 0
M  V30 3036 C 301.152 2.10813 3.68454 0
M  V30 3037 C 299.059 4.44578 3.90006 0
M  V30 3038 H 297.989 0.450705 0.604468 0
M  V30 3039 H 300.64 1.56811 0.953027 0
M  V30 3040 H 299.022 1.69994 3.57656 0
M  V30 3041 H 300.196 4.12264 2.05851 0
M  V30 3042 H 298.511 3.65205 2.00036 0
M  V30 3043 H 301.108 2.70167 4.61426 0
M  V30 3044 H 301.451 1.09713 4.01583 0
M  V30 3045 H 301.984 2.51583 3.08141 0
M  V30 3046 H 298.723 5.46461 3.62023 0
M  V30 3047 H 298.243 3.98508 4.48276 0
M  V30 3048 H 299.922 4.57176 4.5782 0
M  V30 3049 N 300.054 -1.07777 1.14986 0
M  V30 3050 C 300.987 -2.14228 0.786243 0
M  V30 3051 C 301.965 -1.60888 -0.235347 0
M  V30 3052 O 303.149 -1.88099 -0.122909 0
M  V30 3053 C 300.276 -3.38281 0.168433 0
M  V30 3054 C 299.322 -4.10387 1.16123 0
M  V30 3055 S 300.155 -4.62371 2.70135 0
M  V30 3056 C 301.311 -5.89704 2.09762 0
M  V30 3057 H 301.544 -2.44741 1.68787 0
M  V30 3058 H 299.077 -1.19984 0.971756 0
M  V30 3059 H 301.035 -4.10098 -0.181588 0
M  V30 3060 H 299.696 -3.05953 -0.710725 0
M  V30 3061 H 298.889 -4.99431 0.677086 0
M  V30 3062 H 298.491 -3.44513 1.45556 0
M  V30 3063 H 300.783 -6.61648 1.45701 0
M  V30 3064 H 301.726 -6.42824 2.96955 0
M  V30 3065 H 302.134 -5.4302 1.54239 0
M  V30 3066 N 301.532 -0.945985 -1.26051 0
M  V30 3067 C 302.78 -0.594941 -1.93145 0
M  V30 3068 C 303.101 0.86953 -1.7454 0
M  V30 3069 O 302.371 1.61838 -1.10387 0
M  V30 3070 H 300.951 -0.217044 -0.714773 0
M  V30 3071 H 303.613 -1.20235 -1.53393 0
M  V30 3072 H 302.709 -0.816835 -3.01221 0
M  V30 3073 N 303.011 1.40521 -0.713556 0
M  V30 3074 C 304.26 2.00155 -0.249192 0
M  V30 3075 C 304.573 1.57224 1.16362 0
M  V30 3076 O 305.779 2.09542 1.72639 0
M  V30 3077 C 304.235 3.5773 -0.3946 0
M  V30 3078 C 303.843 4.09635 -1.81392 0
M  V30 3079 C 305.587 4.24499 0.00907364 0
M  V30 3080 C 303.494 5.59707 -1.91003 0
M  V30 3081 H 302.424 0.74868 -0.0894114 0
M  V30 3082 H 305.075 1.60784 -0.884352 0
M  V30 3083 H 303.457 3.94792 0.30911 0
M  V30 3084 H 304.631 3.83955 -2.54785 0
M  V30 3085 H 302.946 3.55456 -2.16888 0
M  V30 3086 H 305.543 5.34683 -0.0420404 0
M  V30 3087 H 305.886 4.02824 1.05065 0
M  V30 3088 H 306.419 3.92536 -0.645007 0
M  V30 3089 H 303.158 5.86234 -2.93275 0
M  V30 3090 H 302.678 5.87258 -1.22019 0
M  V30 3091 H 304.357 6.24776 -1.6812 0
M  V30 3092 N 304.489 0.459591 1.5075 0
M  V30 3093 C 305.735 -0.0994966 2.02556 0
M  V30 3094 C 306.068 -1.40399 1.3417 0
M  V30 3095 O 305.343 -1.88892 0.463683 0
M  V30 3096 C 305.626 -0.295242 3.58888 0
M  V30 3097 C 305.479 1.02947 4.37861 0
M  V30 3098 C 306.798 -1.05502 4.27267 0
M  V30 3099 H 303.917 -0.034686 0.736183 0
M  V30 3100 H 306.559 0.602938 1.8018 0
M  V30 3101 H 304.709 -0.893563 3.78084 0
M  V30 3102 H 306.381 1.66348 4.30263 0
M  V30 3103 H 304.624 1.62885 4.02058 0
M  V30 3104 H 305.295 0.846281 5.45474 0
M  V30 3105 H 307.771 -0.547993 4.12476 0
M  V30 3106 H 306.647 -1.16077 5.36486 0
M  V30 3107 H 306.908 -2.08875 3.89645 0
M  V30 3108 N 305.967 -1.56429 0.191757 0
M  V30 3109 C 306.899 -2.16154 -0.762245 0
M  V30 3110 C 307.912 -1.12247 -1.17917 0
M  V30 3111 O 309.101 -1.39353 -1.11548 0
M  V30 3112 C 306.201 -2.70606 -2.04024 0
M  V30 3113 C 305.374 -3.99381 -1.78364 0
M  V30 3114 C 304.433 -4.38692 -2.90578 0
M  V30 3115 O 303.459 -5.06179 -2.6033 0
M  V30 3116 N 304.661 -4.01922 -4.18854 0
M  V30 3117 H 307.426 -2.98643 -0.251526 0
M  V30 3118 H 304.987 -1.61897 0.00967373 0
M  V30 3119 H 306.979 -2.93891 -2.78227 0
M  V30 3120 H 305.549 -1.9259 -2.46227 0
M  V30 3121 H 304.769 -3.84262 -0.879581 0
M  V30 3122 H 306.057 -4.83445 -1.58614 0
M  V30 3123 H 305.455 -3.47631 -4.46283 0
M  V30 3124 H 304.012 -4.30165 -4.89695 0
M  V30 3125 N 307.445 0.0818655 -1.57387 0
M  V30 3126 C 308.694 0.781681 -1.85937 0
M  V30 3127 C 309.007 1.79246 -0.782957 0
M  V30 3128 O 310.213 2.54112 -0.955987 0
M  V30 3129 C 308.669 1.44109 -3.29789 0
M  V30 3130 C 308.277 0.469396 -4.45534 0
M  V30 3131 C 310.021 2.12386 -3.67549 0
M  V30 3132 C 307.928 1.13415 -5.80423 0
M  V30 3133 H 306.858 0.295682 -0.693605 0
M  V30 3134 H 309.509 0.0348051 -1.83467 0
M  V30 3135 H 307.891 2.23588 -3.2684 0
M  V30 3136 H 309.065 -0.294856 -4.59856 0
M  V30 3137 H 307.38 -0.108383 -4.16259 0
M  V30 3138 H 309.977 2.62878 -4.65617 0
M  V30 3139 H 310.32 2.91877 -2.96839 0
M  V30 3140 H 310.853 1.39751 -3.72444 0
M  V30 3141 H 307.592 0.379771 -6.54399 0
M  V30 3142 H 307.112 1.8695 -5.69921 0
M  V30 3143 H 308.791 1.65686 -6.25426 0
M  V30 3144 N 308.923 1.53595 0.353017 0
M  V30 3145 C 310.163 1.72094 1.10286 0
M  V30 3146 C 310.527 0.469217 1.86178 0
M  V30 3147 O 311.728 0.531083 2.63501 0
M  V30 3148 C 309.999 2.94386 2.02661 0
M  V30 3149 S 311.558 3.33651 2.84996 0
M  V30 3150 H 308.376 0.605433 0.372789 0
M  V30 3151 H 310.978 1.91722 0.38248 0
M  V30 3152 H 309.682 3.83669 1.45691 0
M  V30 3153 H 309.213 2.77197 2.79152 0
M  V30 3154 H 311.228 2.86645 4.0503 0
M  V30 3155 N 310.401 -0.613514 1.45168 0
M  V30 3156 C 311.348 -1.72456 1.53387 0
M  V30 3157 C 312.318 -1.6169 0.380191 0
M  V30 3158 O 313.503 -1.81356 0.592836 0
M  V30 3159 C 310.643 -3.10753 1.50088 0
M  V30 3160 C 309.756 -3.32368 2.75963 0
M  V30 3161 C 308.891 -4.60737 2.64376 0
M  V30 3162 C 307.93 -4.7559 3.85332 0
M  V30 3163 N 307.067 -5.95253 3.72315 0
M  V30 3164 H 311.907 -1.64768 2.48305 0
M  V30 3165 H 309.444 -0.803503 1.23216 0
M  V30 3166 H 311.402 -3.90758 1.46164 0
M  V30 3167 H 310.032 -3.17413 0.587243 0
M  V30 3168 H 309.084 -2.4618 2.89999 0
M  V30 3169 H 310.396 -3.39218 3.65695 0
M  V30 3170 H 309.55 -5.48928 2.58385 0
M  V30 3171 H 308.289 -4.56275 1.72233 0
M  V30 3172 H 307.294 -3.85824 3.91688 0
M  V30 3173 H 308.519 -4.81854 4.78533 0
M  V30 3174 H 306.465 -5.91847 2.82937 0
M  V30 3175 H 306.382 -6.03236 4.55677 0
M  V30 3176 H 307.65 -6.85958 3.70246 0
M  V30 3177 N 311.879 -1.3236 -0.855495 0
M  V30 3178 C 313.127 -1.22629 -1.60644 0
M  V30 3179 C 313.448 0.212136 -1.93843 0
M  V30 3180 O 312.718 1.13666 -1.59552 0
M  V30 3181 H 311.298 -0.450882 -0.595579 0
M  V30 3182 H 313.96 -1.65871 -1.02337 0
M  V30 3183 H 313.056 -1.80832 -2.54374 0
M  V30 3184 N 313.357 1.07166 -1.15556 0
M  V30 3185 C 314.267 2.17947 -0.868116 0
M  V30 3186 C 315.283 1.73297 0.156297 0
M  V30 3187 O 316.459 2.01392 -0.0182327 0
M  V30 3188 C 313.524 3.44789 -0.36355 0
M  V30 3189 C 312.585 4.03996 -1.45209 0
M  V30 3190 C 311.818 5.24783 -0.971508 0
M  V30 3191 O 312.041 5.70109 0.182194 0
M  V30 3192 O 310.975 5.75715 -1.75603 0
M  V30 3193 H 314.801 2.4503 -1.79427 0
M  V30 3194 H 312.386 1.16539 -0.934824 0
M  V30 3195 H 314.268 4.21307 -0.0887113 0
M  V30 3196 H 312.943 3.19253 0.534708 0
M  V30 3197 H 311.85 3.29009 -1.78056 0
M  V30 3198 H 313.183 4.33808 -2.32533 0
M  V30 3199 N 314.835 0.952656 1.25548 0
M  V30 3200 C 316.065 0.622592 1.96996 0
M  V30 3201 C 316.473 -0.809112 1.71026 0
M  V30 3202 O 315.816 -1.55258 0.981861 0
M  V30 3203 C 315.878 0.798946 3.5051 0
M  V30 3204 C 315.542 2.20744 4.00151 0
M  V30 3205 C 316.539 3.18394 4.11001 0
M  V30 3206 C 314.224 2.5311 4.33867 0
M  V30 3207 C 316.218 4.46504 4.54877 0
M  V30 3208 C 313.905 3.8145 4.7743 0
M  V30 3209 C 314.903 4.77959 4.87897 0
M  V30 3210 O 314.591 6.04012 5.30494 0
M  V30 3211 H 314.323 0.232503 0.634758 0
M  V30 3212 H 316.877 1.2789 1.60728 0
M  V30 3213 H 315.107 0.0854903 3.86605 0
M  V30 3214 H 316.796 0.47023 4.03167 0
M  V30 3215 H 317.562 2.94715 3.85186 0
M  V30 3216 H 313.441 1.78719 4.24948 0
M  V30 3217 H 316.985 5.21835 4.62962 0
M  V30 3218 H 312.882 4.04936 5.0269 0
M  V30 3219 H 313.65 6.0736 5.48685 0
M  V30 3220 N 316.313 -1.40141 0.720998 0
M  V30 3221 C 317.56 -2.00787 0.262842 0
M  V30 3222 C 317.888 -1.5718 -1.14563 0
M  V30 3223 O 317.143 -0.785391 -1.79249 0
M  V30 3224 C 317.442 -3.56165 0.296892 0
M  V30 3225 C 317.108 -4.19373 1.65641 0
M  V30 3226 C 315.77 -4.36352 2.02855 0
M  V30 3227 C 318.122 -4.54578 2.54968 0
M  V30 3228 C 315.45 -4.8582 3.28931 0
M  V30 3229 C 317.802 -5.05447 3.80402 0
M  V30 3230 C 316.466 -5.20635 4.17726 0
M  V30 3231 H 315.736 -0.734731 0.0961807 0
M  V30 3232 H 318.383 -1.67673 0.925093 0
M  V30 3233 H 316.688 -3.8922 -0.448932 0
M  V30 3234 H 318.385 -4.00929 -0.0755208 0
M  V30 3235 H 314.975 -4.06549 1.35704 0
M  V30 3236 H 319.159 -4.41091 2.27491 0
M  V30 3237 H 314.415 -4.95764 3.57811 0
M  V30 3238 H 318.589 -5.31663 4.49786 0
M  V30 3239 H 316.216 -5.58728 5.15487 0
M  V30 3240 N 317.792 -0.46758 -1.50504 0
M  V30 3241 C 319.038 0.0808869 -2.03239 0
M  V30 3242 C 319.393 1.37721 -1.34353 0
M  V30 3243 O 318.686 1.86016 -0.459194 0
M  V30 3244 C 318.88 0.323995 -3.55928 0
M  V30 3245 C 318.709 -0.947215 -4.39611 0
M  V30 3246 C 317.479 -1.48951 -4.82848 0
M  V30 3247 C 319.677 -1.84166 -4.80195 0
M  V30 3248 N 317.659 -2.71011 -5.50842 0
M  V30 3249 C 319.03 -2.90815 -5.47564 0
M  V30 3250 C 321.085 -1.85246 -4.62156 0
M  V30 3251 C 319.788 -3.98529 -5.98805 0
M  V30 3252 C 321.814 -2.91914 -5.14335 0
M  V30 3253 C 321.176 -3.97282 -5.81676 0
M  V30 3254 H 317.275 -0.0103394 -0.781932 0
M  V30 3255 H 319.859 -0.635003 -1.84054 0
M  V30 3256 H 318.03 1.00892 -3.75067 0
M  V30 3257 H 319.762 0.866492 -3.95315 0
M  V30 3258 H 316.517 -1.03918 -4.62058 0
M  V30 3259 H 316.941 -3.32988 -5.89447 0
M  V30 3260 H 321.583 -1.05103 -4.09528 0
M  V30 3261 H 319.301 -4.79491 -6.50472 0
M  V30 3262 H 322.887 -2.93729 -5.0221 0
M  V30 3263 H 321.767 -4.78462 -6.21324 0
M  V30 3264 N 319.27 1.56325 -0.20005 0
M  V30 3265 C 320.2 2.22318 0.713916 0
M  V30 3266 C 321.181 1.18788 1.21752 0
M  V30 3267 O 322.366 1.47309 1.26545 0
M  V30 3268 C 319.496 2.88639 1.93144 0
M  V30 3269 C 318.45 3.98457 1.56255 0
M  V30 3270 C 317.776 4.51967 2.85709 0
M  V30 3271 C 319.076 5.16612 0.768747 0
M  V30 3272 H 320.77 2.98952 0.163755 0
M  V30 3273 H 318.316 1.43792 0.0773219 0
M  V30 3274 H 320.269 3.33491 2.57608 0
M  V30 3275 H 318.993 2.09419 2.50621 0
M  V30 3276 H 317.652 3.54305 0.941471 0
M  V30 3277 H 317.3 3.69503 3.41287 0
M  V30 3278 H 317 5.26071 2.6177 0
M  V30 3279 H 318.524 4.99523 3.51154 0
M  V30 3280 H 319.938 5.57977 1.3166 0
M  V30 3281 H 318.335 5.96812 0.627286 0
M  V30 3282 H 319.405 4.84358 -0.229168 0
M  V30 3283 N 320.748 -0.0735177 1.57428 0
M  V30 3284 C 321.658 -1.10547 2.06922 0
M  V30 3285 C 322.674 -1.42506 0.998402 0
M  V30 3286 O 323.85 -1.52717 1.31299 0
M  V30 3287 C 320.915 -2.40019 2.50184 0
M  V30 3288 C 319.976 -2.15046 3.71556 0
M  V30 3289 C 319.209 -3.38345 4.12745 0
M  V30 3290 O 319.432 -4.47399 3.53822 0
M  V30 3291 O 318.366 -3.2666 5.05546 0
M  V30 3292 H 322.192 -0.715013 2.95163 0
M  V30 3293 H 319.777 -0.287531 1.46607 0
M  V30 3294 H 321.659 -3.16218 2.78539 0
M  V30 3295 H 320.334 -2.78447 1.65072 0
M  V30 3296 H 319.241 -1.36558 3.48285 0
M  V30 3297 H 320.574 -1.81499 4.57514 0
M  V30 3298 N 322.226 -1.5378 -0.344866 0
M  V30 3299 C 323.637 -1.62428 -0.920552 0
M  V30 3300 C 323.988 -0.504747 -1.89596 0
M  V30 3301 O 323.113 0.365711 -2.13287 0
M  V30 3302 C 323.708 -2.94419 -1.67639 0
M  V30 3303 C 322.267 -3.05333 -2.20111 0
M  V30 3304 C 321.414 -2.57866 -1.01982 0
M  V30 3305 H 324.365 -1.58222 -0.123042 0
M  V30 3306 H 324.386 -2.83384 -2.53917 0
M  V30 3307 H 323.898 -3.7588 -0.966224 0
M  V30 3308 H 321.999 -2.28502 -2.94308 0
M  V30 3309 H 322.112 -4.10778 -2.46573 0
M  V30 3310 H 320.476 -2.13241 -1.39285 0
M  V30 3311 H 321.259 -3.41765 -0.324308 0
M  V30 3312 N 323.704 0.605807 -1.45491 0
M  V30 3313 C 324.651 1.7164 -1.54299 0
M  V30 3314 C 325.621 1.61486 -0.388761 0
M  V30 3315 O 326.806 1.81039 -0.602445 0
M  V30 3316 C 323.946 3.09953 -1.51734 0
M  V30 3317 C 323.059 3.309 -2.77721 0
M  V30 3318 C 322.194 4.59329 -2.66816 0
M  V30 3319 C 321.233 4.7354 -3.87848 0
M  V30 3320 N 320.37 5.9327 -3.75467 0
M  V30 3321 H 325.21 1.63449 -2.49176 0
M  V30 3322 H 322.747 0.796957 -1.23641 0
M  V30 3323 H 324.705 3.89977 -1.48235 0
M  V30 3324 H 323.335 3.17098 -0.604068 0
M  V30 3325 H 322.387 2.44639 -2.913 0
M  V30 3326 H 323.699 3.37274 -3.67488 0
M  V30 3327 H 322.853 5.4755 -2.61292 0
M  V30 3328 H 321.592 4.55355 -1.74651 0
M  V30 3329 H 320.597 3.83741 -3.93729 0
M  V30 3330 H 321.822 4.79309 -4.81082 0
M  V30 3331 H 319.768 5.90338 -2.86072 0
M  V30 3332 H 319.685 6.00811 -4.5887 0
M  V30 3333 H 320.953 6.83984 -3.73879 0
M  V30 3334 N 325.182 1.32811 0.848464 0
M  V30 3335 C 326.13 1.22231 1.97895 0
M  V30 3336 C 327.124 0.125749 1.68933 0
M  V30 3337 O 328.33 0.289083 1.77663 0
M  V30 3338 H 324.705 0.379058 0.649476 0
M  V30 3339 H 326.676 2.17828 2.03945 0
M  V30 3340 C 325.425 0.968572 3.33937 0
M  V30 3341 H 324.748 1.80458 3.56756 0
M  V30 3342 H 326.188 0.934808 4.13567 0
M  V30 3343 C 324.647 -0.328628 3.35293 0
M  V30 3344 O 325.177 -1.33848 3.78745 0
M  V30 3345 N 323.383 -0.352788 2.88451 0
M  V30 3346 H 322.93 0.469541 2.53285 0
M  V30 3347 H 322.888 -1.22057 2.89741 0
M  V30 3348 N 326.66 -1.06551 1.16123 0
M  V30 3349 C 327.623 -2.12132 0.867906 0
M  V30 3350 C 328.623 -1.60224 -0.135944 0
M  V30 3351 O 329.813 -1.73943 0.0946422 0
M  V30 3352 C 326.945 -3.396 0.297419 0
M  V30 3353 H 328.138 -2.39586 1.80385 0
M  V30 3354 H 325.691 -1.22574 0.969812 0
M  V30 3355 H 326.426 -3.17794 -0.64633 0
M  V30 3356 H 326.211 -3.78581 1.02073 0
M  V30 3357 H 327.701 -4.17455 0.110052 0
M  V30 3358 N 328.138 -0.959301 -1.25041 0
M  V30 3359 C 329.385 -0.616611 -1.92884 0
M  V30 3360 C 329.713 0.847036 -1.75087 0
M  V30 3361 O 328.968 1.62374 -1.09239 0
M  V30 3362 C 329.267 -0.927136 -3.45165 0
M  V30 3363 C 328.933 -2.37757 -3.83122 0
M  V30 3364 C 327.595 -2.77402 -3.93194 0
M  V30 3365 C 329.947 -3.31929 -4.01836 0
M  V30 3366 C 327.275 -4.10277 -4.19392 0
M  V30 3367 C 329.627 -4.64423 -4.29528 0
M  V30 3368 C 328.291 -5.03857 -4.37818 0
M  V30 3369 H 327.561 -0.225634 -0.705812 0
M  V30 3370 H 330.208 -1.20921 -1.48493 0
M  V30 3371 H 328.513 -0.252195 -3.90987 0
M  V30 3372 H 330.21 -0.6405 -3.95852 0
M  V30 3373 H 326.8 -2.06013 -3.75841 0
M  V30 3374 H 330.984 -3.02488 -3.93465 0
M  V30 3375 H 326.24 -4.40467 -4.24027 0
M  V30 3376 H 330.414 -5.37369 -4.42953 0
M  V30 3377 H 328.041 -6.06843 -4.57871 0
M  V30 3378 N 329.616 1.39756 -0.72842 0
M  V30 3379 C 330.526 2.34444 -0.0855374 0
M  V30 3380 C 331.542 1.57976 0.729356 0
M  V30 3381 O 332.718 1.90301 0.659346 0
M  V30 3382 C 329.783 3.36965 0.815798 0
M  V30 3383 C 328.844 4.29299 -0.0105996 0
M  V30 3384 C 328.077 5.26923 0.84781 0
M  V30 3385 O 328.3 5.30859 2.08673 0
M  V30 3386 O 327.234 6.01249 0.279969 0
M  V30 3387 H 331.06 2.91065 -0.866892 0
M  V30 3388 H 328.645 1.4117 -0.48902 0
M  V30 3389 H 330.527 3.99804 1.33171 0
M  V30 3390 H 329.202 2.82739 1.57608 0
M  V30 3391 H 328.109 3.69703 -0.571877 0
M  V30 3392 H 329.442 4.86712 -0.73295 0
M  V30 3393 N 331.094 0.475555 1.50254 0
M  V30 3394 C 332.042 -0.330276 2.30243 0
M  V30 3395 C 333.036 -0.986306 1.37726 0
M  V30 3396 O 334.242 -0.9169 1.54897 0
M  V30 3397 H 330.617 -0.125353 0.741479 0
M  V30 3398 H 332.588 0.364702 2.96163 0
M  V30 3399 C 331.337 -1.39704 3.18399 0
M  V30 3400 H 330.66 -0.901621 3.89501 0
M  V30 3401 H 332.1 -1.93336 3.77355 0
M  V30 3402 C 330.559 -2.4014 2.36293 0
M  V30 3403 O 331.089 -3.45504 2.04914 0
M  V30 3404 N 329.295 -2.1197 1.98789 0
M  V30 3405 H 328.842 -1.2631 2.24507 0
M  V30 3406 H 328.8 -2.79403 1.44157 0
M  V30 3407 N 332.573 -1.56217 0.208337 0
M  V30 3408 C 333.82 -1.97949 -0.42692 0
M  V30 3409 C 334.148 -1.09562 -1.60706 0
M  V30 3410 O 333.403 -0.137616 -1.95216 0
M  V30 3411 C 333.702 -3.45441 -0.916797 0
M  V30 3412 C 333.368 -4.50646 0.151391 0
M  V30 3413 C 332.03 -4.79139 0.444867 0
M  V30 3414 C 334.382 -5.13811 0.874492 0
M  V30 3415 C 331.71 -5.68084 1.46619 0
M  V30 3416 C 334.062 -6.03861 1.88506 0
M  V30 3417 C 332.726 -6.30704 2.18559 0
M  V30 3418 H 331.996 -0.724345 -0.156221 0
M  V30 3419 H 334.643 -1.89006 0.308084 0
M  V30 3420 H 332.948 -3.51521 -1.73032 0
M  V30 3421 H 334.645 -3.75094 -1.41794 0
M  V30 3422 H 331.235 -4.28511 -0.0875068 0
M  V30 3423 H 335.419 -4.91879 0.660996 0
M  V30 3424 H 330.675 -5.87151 1.7048 0
M  V30 3425 H 334.849 -6.51861 2.45051 0
M  V30 3426 H 332.476 -6.99424 2.97843 0
M  V30 3427 N 334.051 0.0651679 -1.57465 0
M  V30 3428 C 334.983 1.10359 -2.00882 0
M  V30 3429 C 335.996 1.346 -0.915788 0
M  V30 3430 O 337.185 1.32723 -1.1936 0
M  V30 3431 C 334.285 2.45312 -2.33828 0
M  V30 3432 C 333.458 2.40934 -3.65061 0
M  V30 3433 C 332.517 3.58047 -3.85602 0
M  V30 3434 O 331.543 3.39175 -4.57109 0
M  V30 3435 N 332.745 4.78637 -3.28462 0
M  V30 3436 H 335.51 0.733807 -2.90578 0
M  V30 3437 H 333.071 0.253719 -1.599 0
M  V30 3438 H 335.063 3.22314 -2.44737 0
M  V30 3439 H 333.633 2.74267 -1.49988 0
M  V30 3440 H 332.853 1.49273 -3.64844 0
M  V30 3441 H 334.141 2.35117 -4.51218 0
M  V30 3442 H 333.539 4.96872 -2.70433 0
M  V30 3443 H 332.096 5.53127 -3.44809 0
M  V30 3444 N 335.529 1.53961 0.336706 0
M  V30 3445 C 336.439 1.85432 1.43708 0
M  V30 3446 C 337.455 0.745053 1.57242 0
M  V30 3447 O 338.631 1.03804 1.72588 0
M  V30 3448 C 335.696 2.06349 2.78605 0
M  V30 3449 C 334.757 3.30191 2.74358 0
M  V30 3450 C 333.99 3.50101 4.02822 0
M  V30 3451 O 334.213 2.7371 5.00439 0
M  V30 3452 O 333.147 4.43547 4.06878 0
M  V30 3453 H 336.973 2.78975 1.20028 0
M  V30 3454 H 334.558 1.39701 0.52952 0
M  V30 3455 H 336.44 2.21513 3.58483 0
M  V30 3456 H 335.115 1.15995 3.02203 0
M  V30 3457 H 334.022 3.20425 1.93078 0
M  V30 3458 H 335.355 4.2056 2.55715 0
M  V30 3459 N 337.007 -0.598083 1.45811 0
M  V30 3460 C 338.418 -1.18011 1.44673 0
M  V30 3461 C 338.769 -1.95378 0.179364 0
M  V30 3462 O 337.894 -2.04124 -0.718509 0
M  V30 3463 C 338.489 -2.14677 2.62105 0
M  V30 3464 C 337.048 -2.68236 2.64057 0
M  V30 3465 C 336.195 -1.43816 2.37091 0
M  V30 3466 H 339.146 -0.38686 1.53913 0
M  V30 3467 H 339.167 -2.97878 2.36746 0
M  V30 3468 H 338.679 -1.5834 3.5433 0
M  V30 3469 H 336.78 -3.28486 1.75864 0
M  V30 3470 H 336.893 -3.12021 3.63566 0
M  V30 3471 H 335.257 -1.731 1.86838 0
M  V30 3472 H 336.04 -0.893333 3.31473 0
M  V30 3473 N 338.485 -1.33259 -0.841409 0
M  V30 3474 C 339.762 -1.15174 -1.58096 0
M  V30 3475 C 340.142 0.282858 -2.09196 0
M  V30 3476 O 339.49 1.28151 -1.89181 0
M  V30 3477 C 339.7 -2.1907 -2.71679 0
M  V30 3478 C 341.048 -2.53093 -3.40924 0
M  V30 3479 O 342.072 -2.17717 -2.81918 0
M  V30 3480 O 340.931 -3.1379 -4.47435 0
M  V30 3481 H 338.025 -0.445303 -0.696875 0
M  V30 3482 H 340.571 -1.44833 -0.884385 0
M  V30 3483 H 339.343 -3.15443 -2.31541 0
M  V30 3484 H 338.966 -1.90481 -3.49002 0
M  V30 3485 N 339.963 1.05934 -1.16686 0
M  V30 3486 C 341.212 1.78188 -0.945085 0
M  V30 3487 C 341.525 1.88338 0.528021 0
M  V30 3488 O 342.731 2.57258 0.867799 0
M  V30 3489 C 341.187 3.20277 -1.64167 0
M  V30 3490 C 340.795 3.18281 -3.15279 0
M  V30 3491 C 342.539 3.97039 -1.502 0
M  V30 3492 C 340.446 4.55112 -3.7766 0
M  V30 3493 H 339.376 0.667866 -0.349959 0
M  V30 3494 H 342.027 1.18794 -1.39858 0
M  V30 3495 H 340.409 3.79952 -1.11589 0
M  V30 3496 H 341.583 2.68167 -3.74731 0
M  V30 3497 H 339.898 2.55018 -3.29173 0
M  V30 3498 H 342.495 4.98194 -1.94183 0
M  V30 3499 H 342.838 4.13845 -0.451461 0
M  V30 3500 H 343.371 3.43894 -1.99954 0
M  V30 3501 H 340.11 4.43512 -4.82677 0
M  V30 3502 H 339.63 5.05406 -3.22994 0
M  V30 3503 H 341.309 5.24064 -3.79428 0
M  V30 3504 N 341.441 0.965919 1.2453 0
M  V30 3505 C 342.689 0.625593 1.92174 0
M  V30 3506 C 343.01 -0.841652 1.75901 0
M  V30 3507 O 342.28 -1.60061 1.12948 0
M  V30 3508 H 340.86 0.228388 0.71123 0
M  V30 3509 H 343.522 1.2266 1.51461 0
M  V30 3510 H 342.618 0.864653 2.99884 0
M  V30 3511 N 342.919 -1.39368 0.735821 0
M  V30 3512 C 343.849 -2.33234 0.111506 0
M  V30 3513 C 344.83 -1.53954 -0.723334 0
M  V30 3514 O 346.015 -1.82344 -0.668147 0
M  V30 3515 C 343.145 -3.38057 -0.795917 0
M  V30 3516 C 342.099 -4.2795 -0.065172 0
M  V30 3517 C 341.425 -5.23479 -1.08967 0
M  V30 3518 C 342.725 -5.10741 1.09273 0
M  V30 3519 H 344.419 -2.85692 0.895571 0
M  V30 3520 H 341.965 -1.37364 0.432109 0
M  V30 3521 H 343.918 -4.02675 -1.24221 0
M  V30 3522 H 342.642 -2.8404 -1.61211 0
M  V30 3523 H 341.301 -3.64813 0.361511 0
M  V30 3524 H 340.949 -4.65758 -1.89944 0
M  V30 3525 H 340.649 -5.84472 -0.605489 0
M  V30 3526 H 342.173 -5.90974 -1.53565 0
M  V30 3527 H 343.587 -5.68699 0.724841 0
M  V30 3528 H 341.984 -5.8088 1.50659 0
M  V30 3529 H 343.054 -4.45525 1.91404 0
M  V30 3530 N 344.397 -0.483516 -1.5 0
M  V30 3531 C 345.643 0.0672592 -2.02688 0
M  V30 3532 C 345.976 1.38247 -1.36387 0
M  V30 3533 O 345.251 1.88131 -0.493675 0
M  V30 3534 C 345.534 0.238109 -3.59312 0
M  V30 3535 C 345.387 -1.099 -4.36168 0
M  V30 3536 C 346.706 0.986916 -4.28892 0
M  V30 3537 H 343.825 0.0229696 -0.736642 0
M  V30 3538 H 346.467 -0.631527 -1.79197 0
M  V30 3539 H 344.617 0.8333 -3.79458 0
M  V30 3540 H 346.289 -1.73172 -4.27562 0
M  V30 3541 H 344.532 -1.69261 -3.99416 0
M  V30 3542 H 345.203 -0.932954 -5.44059 0
M  V30 3543 H 347.679 0.482302 -4.13295 0
M  V30 3544 H 346.555 1.07527 -5.38265 0
M  V30 3545 H 346.816 2.0265 -3.92919 0
M  V30 3546 N 345.875 1.56104 -0.216619 0
M  V30 3547 C 346.838 2.18819 0.681962 0
M  V30 3548 C 347.838 1.14866 1.12528 0
M  V30 3549 O 349.028 1.40128 1.03488 0
M  V30 3550 C 346.16 2.80756 1.93362 0
M  V30 3551 H 347.353 2.99595 0.135254 0
M  V30 3552 H 344.906 1.56265 0.0330003 0
M  V30 3553 H 345.641 2.03837 2.52232 0
M  V30 3554 H 345.426 3.56876 1.62426 0
M  V30 3555 H 346.916 3.28844 2.57393 0
M  V30 3556 N 347.353 -0.0568162 1.57498 0
M  V30 3557 C 348.283 -1.06593 2.0775 0
M  V30 3558 C 349.264 -1.39448 0.974082 0
M  V30 3559 O 350.449 -1.48815 1.24771 0
M  V30 3560 C 347.579 -2.37509 2.5339 0
M  V30 3561 C 346.533 -2.1897 3.67745 0
M  V30 3562 C 345.859 -3.55402 3.99492 0
M  V30 3563 C 347.159 -1.59859 4.97235 0
M  V30 3564 H 348.853 -0.647706 2.9231 0
M  V30 3565 H 346.399 -0.310116 1.40621 0
M  V30 3566 H 348.352 -3.08409 2.87162 0
M  V30 3567 H 347.076 -2.8134 1.65878 0
M  V30 3568 H 345.735 -1.50508 3.3428 0
M  V30 3569 H 345.383 -3.9683 3.09088 0
M  V30 3570 H 345.083 -3.43831 4.76502 0
M  V30 3571 H 346.607 -4.27708 4.35773 0
M  V30 3572 H 348.021 -2.20642 5.29141 0
M  V30 3573 H 346.418 -1.58942 5.78669 0
M  V30 3574 H 347.488 -0.561506 4.81638 0
M  V30 3575 N 348.832 -1.54138 -0.328536 0
M  V30 3576 C 349.795 -1.82462 -1.38709 0
M  V30 3577 C 350.795 -0.696229 -1.44946 0
M  V30 3578 O 351.985 -0.964535 -1.4506 0
M  V30 3579 C 349.117 -1.98018 -2.77492 0
M  V30 3580 H 350.31 -2.77037 -1.14851 0
M  V30 3581 H 347.863 -1.45779 -0.563751 0
M  V30 3582 H 348.598 -1.05637 -3.06613 0
M  V30 3583 H 348.383 -2.80124 -2.74359 0
M  V30 3584 H 349.873 -2.21396 -3.54081 0
M  V30 3585 N 350.31 0.590341 -1.46126 0
M  V30 3586 C 351.557 1.34882 -1.5104 0
M  V30 3587 C 351.885 1.93849 -0.159021 0
M  V30 3588 O 351.14 1.76544 0.844436 0
M  V30 3589 C 351.439 2.5032 -2.55097 0
M  V30 3590 C 351.105 2.09394 -3.99331 0
M  V30 3591 C 349.767 1.97947 -4.38601 0
M  V30 3592 C 352.119 1.77712 -4.89967 0
M  V30 3593 C 349.447 1.53065 -5.66381 0
M  V30 3594 C 351.799 1.34312 -6.18177 0
M  V30 3595 C 350.463 1.21436 -6.56361 0
M  V30 3596 H 349.733 0.493568 -0.552695 0
M  V30 3597 H 352.38 0.665539 -1.79563 0
M  V30 3598 H 350.685 3.24062 -2.20207 0
M  V30 3599 H 352.382 3.08541 -2.56132 0
M  V30 3600 H 348.972 2.19235 -3.68285 0
M  V30 3601 H 353.156 1.85445 -4.60352 0
M  V30 3602 H 348.412 1.41733 -5.94745 0
M  V30 3603 H 352.586 1.08849 -6.87841 0
M  V30 3604 H 350.213 0.864345 -7.5527 0
M  V30 3605 N 351.788 1.33704 0.83433 0
M  V30 3606 C 352.718 1.26967 1.95963 0
M  V30 3607 C 353.699 0.149337 1.69443 0
M  V30 3608 O 354.884 0.339852 1.91203 0
M  V30 3609 C 352.014 1.01275 3.32206 0
M  V30 3610 C 350.968 2.09652 3.73136 0
M  V30 3611 C 350.294 1.69166 5.07235 0
M  V30 3612 C 351.594 3.51372 3.86439 0
M  V30 3613 H 353.288 2.2112 2.01857 0
M  V30 3614 H 350.834 1.06447 0.969793 0
M  V30 3615 H 352.787 0.952106 4.10503 0
M  V30 3616 H 351.511 0.0356203 3.26581 0
M  V30 3617 H 350.17 2.14766 2.97104 0
M  V30 3618 H 349.818 0.701437 4.98085 0
M  V30 3619 H 349.518 2.41694 5.35591 0
M  V30 3620 H 351.042 1.64576 5.88003 0
M  V30 3621 H 352.456 3.48734 4.55036 0
M  V30 3622 H 350.853 4.22425 4.26236 0
M  V30 3623 H 351.923 3.89546 2.88759 0
M  V30 3624 N 353.266 -1.05314 1.17247 0
M  V30 3625 C 354.198 -2.13023 0.845812 0
M  V30 3626 C 355.211 -1.62096 -0.151246 0
M  V30 3627 O 356.4 -1.78343 0.0748818 0
M  V30 3628 C 353.5 -3.38047 0.240292 0
M  V30 3629 C 352.673 -4.18255 1.27991 0
M  V30 3630 C 351.732 -5.21625 0.692375 0
M  V30 3631 O 350.758 -5.52619 1.36385 0
M  V30 3632 N 351.96 -5.78201 -0.516178 0
M  V30 3633 H 354.725 -2.41642 1.77283 0
M  V30 3634 H 352.286 -1.21401 1.07115 0
M  V30 3635 H 354.278 -4.04359 -0.16603 0
M  V30 3636 H 352.848 -3.06972 -0.590487 0
M  V30 3637 H 352.068 -3.47451 1.86203 0
M  V30 3638 H 353.356 -4.68643 1.98119 0
M  V30 3639 H 352.754 -5.55301 -1.07969 0
M  V30 3640 H 351.311 -6.4604 -0.86458 0
M  V30 3641 N 354.744 -0.972509 -1.24016 0
M  V30 3642 C 355.992 -0.635776 -1.91839 0
M  V30 3643 C 356.313 0.832312 -1.76345 0
M  V30 3644 O 355.583 1.5946 -1.13795 0
M  V30 3645 H 354.163 -0.232157 -0.710009 0
M  V30 3646 H 356.825 -1.23462 -1.50809 0
M  V30 3647 H 355.921 -0.880545 -2.99421 0
M  V30 3648 N 356.222 1.38976 -0.743202 0
M  V30 3649 C 357.447 2.05161 -0.303936 0
M  V30 3650 C 357.872 1.55677 1.05576 0
M  V30 3651 O 357.23 0.704131 1.67068 0
M  V30 3652 C 357.278 3.59138 -0.324373 0
M  V30 3653 O 356.382 4.06668 0.685204 0
M  V30 3654 H 355.723 0.649815 -0.136518 0
M  V30 3655 H 358.253 1.77852 -1.01142 0
M  V30 3656 H 358.263 4.07639 -0.171618 0
M  V30 3657 H 356.938 3.94515 -1.31647 0
M  V30 3658 H 355.515 3.69561 0.497913 0
M  V30 3659 N 357.7 0.491464 1.49741 0
M  V30 3660 C 358.947 -0.0564256 2.02421 0
M  V30 3661 C 359.275 -1.37872 1.37192 0
M  V30 3662 O 358.53 -1.89375 0.493508 0
M  V30 3663 C 358.829 -0.267329 3.56399 0
M  V30 3664 C 358.495 0.975775 4.40215 0
M  V30 3665 C 357.157 1.31655 4.62839 0
M  V30 3666 C 359.509 1.80251 4.89039 0
M  V30 3667 C 356.837 2.48375 5.31532 0
M  V30 3668 C 359.189 2.96116 5.59015 0
M  V30 3669 C 357.853 3.30585 5.79888 0
M  V30 3670 H 357.123 -0.0206476 0.740712 0
M  V30 3671 H 359.77 0.649686 1.80143 0
M  V30 3672 H 358.075 -1.05588 3.77304 0
M  V30 3673 H 359.772 -0.705549 3.94744 0
M  V30 3674 H 356.362 0.700315 4.2284 0
M  V30 3675 H 360.546 1.55239 4.71396 0
M  V30 3676 H 355.802 2.7533 5.45897 0
M  V30 3677 H 359.976 3.60509 5.95824 0
M  V30 3678 H 357.603 4.21132 6.32892 0
M  V30 3679 N 359.178 -1.55987 0.224894 0
M  V30 3680 C 360.141 -2.19178 -0.670348 0
M  V30 3681 C 361.141 -1.15461 -1.11917 0
M  V30 3682 O 362.331 -1.40675 -1.02743 0
M  V30 3683 C 359.463 -2.81777 -1.9187 0
M  V30 3684 H 360.656 -2.99662 -0.119364 0
M  V30 3685 H 358.209 -1.5628 -0.0247128 0
M  V30 3686 H 358.944 -2.05172 -2.51147 0
M  V30 3687 H 358.729 -3.57732 -1.60531 0
M  V30 3688 H 360.219 -3.30205 -2.55645 0
M  V30 3689 N 360.656 0.0484629 -1.57525 0
M  V30 3690 C 361.886 0.754326 -1.92337 0
M  V30 3691 C 362.294 1.70443 -0.82132 0
M  V30 3692 O 361.637 1.82466 0.21254 0
M  V30 3693 C 361.699 1.58231 -3.22805 0
M  V30 3694 C 361.363 0.799074 -4.4996 0
M  V30 3695 C 362.36 0.1079 -5.19788 0
M  V30 3696 C 360.045 0.759345 -4.96527 0
M  V30 3697 C 362.039 -0.612516 -6.3445 0
M  V30 3698 C 359.726 0.0351713 -6.1109 0
M  V30 3699 C 360.724 -0.649537 -6.79904 0
M  V30 3700 O 360.412 -1.36199 -7.92278 0
M  V30 3701 H 360.144 0.218257 -0.639797 0
M  V30 3702 H 362.698 0.0159295 -2.05394 0
M  V30 3703 H 360.928 2.36406 -3.06021 0
M  V30 3704 H 362.617 2.16898 -3.43089 0
M  V30 3705 H 363.383 0.129748 -4.84826 0
M  V30 3706 H 359.262 1.28177 -4.42822 0
M  V30 3707 H 362.806 -1.14751 -6.88097 0
M  V30 3708 H 358.703 0.0113314 -6.45499 0
M  V30 3709 H 359.471 -1.27366 -8.0853 0
M  V30 3710 N 362.134 1.5431 0.320358 0
M  V30 3711 C 363.382 1.72327 1.05583 0
M  V30 3712 C 363.703 0.50149 1.88441 0
M  V30 3713 O 362.973 -0.48448 1.89815 0
M  V30 3714 H 361.553 0.635387 0.3928 0
M  V30 3715 H 364.215 1.91621 0.356019 0
M  V30 3716 H 363.311 2.60426 1.72003 0
M  V30 3717 N 363.613 -0.582584 1.46437 0
M  V30 3718 C 364.861 -1.33814 1.51453 0
M  V30 3719 C 365.182 -1.94277 0.167792 0
M  V30 3720 O 364.452 -1.78566 -0.805677 0
M  V30 3721 H 363.032 -0.496838 0.557818 0
M  V30 3722 H 365.694 -0.682281 1.82568 0
M  V30 3723 H 364.79 -2.14479 2.26728 0
M  V30 3724 N 365.091 -1.34144 -0.827227 0
M  V30 3725 C 366.337 -1.27455 -1.58515 0
M  V30 3726 C 366.692 0.155271 -1.91772 0
M  V30 3727 O 365.985 1.10042 -1.56848 0
M  V30 3728 C 366.179 -2.09464 -2.89585 0
M  V30 3729 C 366.008 -3.60276 -2.69131 0
M  V30 3730 C 364.778 -4.29565 -2.66087 0
M  V30 3731 C 366.976 -4.54367 -2.40947 0
M  V30 3732 N 364.958 -5.66252 -2.37132 0
M  V30 3733 C 366.329 -5.79027 -2.21648 0
M  V30 3734 C 368.384 -4.43327 -2.26639 0
M  V30 3735 C 367.087 -6.93891 -1.89492 0
M  V30 3736 C 369.113 -5.58019 -1.95878 0
M  V30 3737 C 368.475 -6.81695 -1.774 0
M  V30 3738 H 364.574 -0.521614 -0.582617 0
M  V30 3739 H 367.158 -1.68811 -0.970105 0
M  V30 3740 H 365.329 -1.70411 -3.49019 0
M  V30 3741 H 367.061 -1.94453 -3.54923 0
M  V30 3742 H 363.816 -3.81959 -2.80008 0
M  V30 3743 H 364.24 -6.38338 -2.25507 0
M  V30 3744 H 368.882 -3.48333 -2.39633 0
M  V30 3745 H 366.6 -7.88871 -1.75236 0
M  V30 3746 H 370.186 -5.5142 -1.85546 0
M  V30 3747 H 369.066 -7.68942 -1.53941 0
M  V30 3748 N 366.569 1.04691 -1.17803 0
M  V30 3749 C 367.517 2.14665 -0.895635 0
M  V30 3750 C 368.511 1.68806 0.141679 0
M  V30 3751 O 369.717 1.79999 -0.00587914 0
M  V30 3752 H 366.092 0.701038 -0.272121 0
M  V30 3753 H 368.063 2.35685 -1.83017 0
M  V30 3754 C 366.812 3.45019 -0.430962 0
M  V30 3755 H 366.135 3.8071 -1.22064 0
M  V30 3756 H 367.575 4.23125 -0.272301 0
M  V30 3757 C 366.034 3.25943 0.852207 0
M  V30 3758 O 366.564 3.5296 1.91786 0
M  V30 3759 N 364.77 2.79304 0.802346 0
M  V30 3760 H 364.317 2.57518 -0.0650788 0
M  V30 3761 H 364.275 2.66921 1.66134 0
M  V30 3762 N 368.047 0.979072 1.23499 0
M  V30 3763 C 369.294 0.647219 1.91878 0
M  V30 3764 C 369.622 -0.819074 1.76413 0
M  V30 3765 O 368.877 -1.60616 1.11808 0
M  V30 3766 C 369.176 0.981932 3.43646 0
M  V30 3767 C 368.842 2.43822 3.79291 0
M  V30 3768 C 367.504 2.83622 3.88731 0
M  V30 3769 C 369.856 3.3828 3.96505 0
M  V30 3770 C 367.184 4.16897 4.12812 0
M  V30 3771 C 369.536 4.71197 4.22085 0
M  V30 3772 C 368.2 5.10758 4.29747 0
M  V30 3773 H 367.47 0.236834 0.702133 0
M  V30 3774 H 370.117 1.23268 1.46551 0
M  V30 3775 H 368.422 0.314365 3.90537 0
M  V30 3776 H 370.119 0.703395 3.94783 0
M  V30 3777 H 366.709 2.11966 3.72516 0
M  V30 3778 H 370.893 3.0871 3.88603 0
M  V30 3779 H 366.149 4.47157 4.16966 0
M  V30 3780 H 370.323 5.44348 4.34348 0
M  V30 3781 H 367.95 6.1405 4.48159 0
M  V30 3782 N 369.525 -1.3858 0.750561 0
M  V30 3783 C 370.455 -2.33102 0.136237 0
M  V30 3784 C 371.436 -1.54713 -0.706965 0
M  V30 3785 O 372.621 -1.83043 -0.648769 0
M  V30 3786 C 369.751 -3.38882 -0.760017 0
M  V30 3787 C 368.705 -4.27995 -0.0197785 0
M  V30 3788 C 368.031 -5.24605 -1.03408 0
M  V30 3789 C 369.331 -5.09554 1.14684 0
M  V30 3790 H 371.025 -2.84726 0.925822 0
M  V30 3791 H 368.571 -1.36898 0.446654 0
M  V30 3792 H 370.524 -4.0397 -1.19943 0
M  V30 3793 H 369.248 -2.85734 -1.58189 0
M  V30 3794 H 367.907 -3.64409 0.400184 0
M  V30 3795 H 367.555 -4.67746 -1.84994 0
M  V30 3796 H 367.255 -5.85081 -0.543464 0
M  V30 3797 H 368.779 -5.9257 -1.47288 0
M  V30 3798 H 370.193 -5.67899 0.785118 0
M  V30 3799 H 368.59 -5.7925 1.56812 0
M  V30 3800 H 369.66 -4.4347 1.96118 0
M  V30 3801 N 371.003 -0.499398 -1.49478 0
M  V30 3802 C 371.951 0.293604 -2.3074 0
M  V30 3803 C 372.945 0.96427 -1.39277 0
M  V30 3804 O 374.151 0.892141 -1.56336 0
M  V30 3805 H 370.526 0.113541 -0.743379 0
M  V30 3806 H 372.497 -0.411772 -2.95545 0
M  V30 3807 C 371.246 1.3462 -3.20582 0
M  V30 3808 H 370.569 0.83954 -3.90886 0
M  V30 3809 H 372.009 1.87308 -3.80384 0
M  V30 3810 C 370.468 2.36351 -2.40083 0
M  V30 3811 O 370.998 3.422 -2.10385 0
M  V30 3812 N 369.204 2.0878 -2.02137 0
M  V30 3813 H 368.751 1.22723 -2.26488 0
M  V30 3814 H 368.709 2.77075 -1.48583 0
M  V30 3815 N 372.481 1.55866 -0.233164 0
M  V30 3816 C 373.711 2.02704 0.399325 0
M  V30 3817 C 374.119 1.11204 1.53069 0
M  V30 3818 O 373.462 0.116182 1.83332 0
M  V30 3819 C 373.524 3.45844 0.981429 0
M  V30 3820 C 373.188 4.56997 -0.0159561 0
M  V30 3821 C 374.185 5.13384 -0.820552 0
M  V30 3822 C 371.87 5.0211 -0.138072 0
M  V30 3823 C 373.864 6.13365 -1.73386 0
M  V30 3824 C 371.551 6.01926 -1.0549 0
M  V30 3825 C 372.549 6.57431 -1.85132 0
M  V30 3826 O 372.237 7.55302 -2.75272 0
M  V30 3827 H 371.969 0.668459 0.100692 0
M  V30 3828 H 374.523 2.02387 -0.35052 0
M  V30 3829 H 372.753 3.43267 1.78058 0
M  V30 3830 H 374.442 3.76262 1.52255 0
M  V30 3831 H 375.208 4.79372 -0.736721 0
M  V30 3832 H 371.087 4.5858 0.471737 0
M  V30 3833 H 374.631 6.56614 -2.35592 0
M  V30 3834 H 370.528 6.35359 -1.1397 0
M  V30 3835 H 371.296 7.72867 -2.69477 0
M  V30 3836 N 373.959 -0.0401083 1.57549 0
M  V30 3837 C 375.205 -0.734211 1.89043 0
M  V30 3838 C 375.538 -1.75591 0.829535 0
M  V30 3839 O 374.813 -1.93868 -0.156706 0
M  V30 3840 C 375.096 -1.41374 3.31188 0
M  V30 3841 C 374.949 -0.406299 4.47961 0
M  V30 3842 C 376.268 -2.35061 3.72068 0
M  V30 3843 H 373.387 -0.265447 0.687537 0
M  V30 3844 H 376.029 0.00294087 1.9 0
M  V30 3845 H 374.179 -2.04206 3.30503 0
M  V30 3846 H 375.851 0.219255 4.60779 0
M  V30 3847 H 374.094 0.275485 4.32924 0
M  V30 3848 H 374.765 -0.920022 5.44279 0
M  V30 3849 H 377.241 -1.82282 3.74049 0
M  V30 3850 H 376.117 -2.79593 4.72355 0
M  V30 3851 H 376.378 -3.21258 3.0372 0
M  V30 3852 N 375.437 -1.54477 -0.31217 0
M  V30 3853 C 376.665 -1.77205 -1.068 0
M  V30 3854 C 377.08 -0.526114 -1.81321 0
M  V30 3855 O 376.437 0.503647 -1.75413 0
M  V30 3856 C 376.488 -2.97253 -2.05725 0
M  V30 3857 O 376.209 -4.1703 -1.34228 0
M  V30 3858 C 377.71 -3.32281 -2.93435 0
M  V30 3859 H 374.93 -0.591287 -0.317208 0
M  V30 3860 H 377.474 -2.01398 -0.354834 0
M  V30 3861 H 375.629 -2.753 -2.72559 0
M  V30 3862 H 376.043 -4.84636 -2.00571 0
M  V30 3863 H 377.517 -4.19551 -3.58721 0
M  V30 3864 H 377.994 -2.49945 -3.61143 0
M  V30 3865 H 378.6 -3.56353 -2.32147 0
M  V30 3866 N 376.915 0.57481 -1.46744 0
M  V30 3867 C 377.825 1.711 -1.60505 0
M  V30 3868 C 378.841 1.67008 -0.488307 0
M  V30 3869 O 380.017 1.86774 -0.753495 0
M  V30 3870 C 377.082 3.07608 -1.59932 0
M  V30 3871 C 376.143 3.22904 -2.82898 0
M  V30 3872 C 375.376 4.529 -2.82343 0
M  V30 3873 O 375.599 5.37278 -1.91542 0
M  V30 3874 O 374.533 4.71611 -3.73987 0
M  V30 3875 H 378.359 1.62436 -2.56609 0
M  V30 3876 H 375.944 0.742779 -1.29627 0
M  V30 3877 H 377.826 3.88877 -1.62336 0
M  V30 3878 H 376.501 3.16692 -0.669898 0
M  V30 3879 H 375.408 2.41099 -2.86046 0
M  V30 3880 H 376.741 3.18715 -3.75076 0
M  V30 3881 N 378.394 1.34581 0.820102 0
M  V30 3882 C 379.304 1.28471 1.96297 0
M  V30 3883 C 380.32 0.191902 1.72939 0
M  V30 3884 O 381.496 0.418879 1.96996 0
M  V30 3885 C 378.561 1.04281 3.30645 0
M  V30 3886 C 377.622 2.22745 3.66992 0
M  V30 3887 C 376.855 1.997 4.9493 0
M  V30 3888 O 377.078 0.956656 5.6232 0
M  V30 3889 O 376.012 2.86723 5.2922 0
M  V30 3890 H 379.838 2.24624 2.04396 0
M  V30 3891 H 377.423 1.14816 0.955913 0
M  V30 3892 H 379.305 0.925841 4.11104 0
M  V30 3893 H 377.98 0.111697 3.23507 0
M  V30 3894 H 376.887 2.40003 2.86966 0
M  V30 3895 H 378.22 3.14257 3.78819 0
M  V30 3896 N 379.872 -1.04064 1.18357 0
M  V30 3897 C 380.802 -2.14001 0.934113 0
M  V30 3898 C 381.783 -1.69616 -0.128186 0
M  V30 3899 O 382.968 -1.94185 0.0244093 0
M  V30 3900 C 380.098 -3.44253 0.459066 0
M  V30 3901 C 379.052 -4.02261 1.46185 0
M  V30 3902 C 378.378 -5.27992 0.844322 0
M  V30 3903 C 379.678 -4.38432 2.83856 0
M  V30 3904 H 381.372 -2.35127 1.85352 0
M  V30 3905 H 378.918 -1.12998 0.892604 0
M  V30 3906 H 380.871 -4.20522 0.271907 0
M  V30 3907 H 379.595 -3.22813 -0.495912 0
M  V30 3908 H 378.254 -3.28074 1.63595 0
M  V30 3909 H 377.902 -5.02862 -0.117845 0
M  V30 3910 H 377.602 -5.67765 1.51384 0
M  V30 3911 H 379.126 -6.06938 0.667693 0
M  V30 3912 H 380.54 -5.05688 2.70098 0
M  V30 3913 H 378.937 -4.89254 3.47491 0
M  V30 3914 H 380.007 -3.4826 3.37406 0
M  V30 3915 N 381.35 -0.985608 -1.22978 0
M  V30 3916 C 382.596 -0.65836 -1.91816 0
M  V30 3917 C 382.929 0.806692 -1.76653 0
M  V30 3918 O 382.204 1.58252 -1.13078 0
M  V30 3919 C 382.487 -1.056 -3.44268 0
M  V30 3920 C 382.34 -2.57906 -3.68516 0
M  V30 3921 C 383.659 -0.603781 -4.35939 0
M  V30 3922 H 380.778 -0.24065 -0.696604 0
M  V30 3923 H 383.42 -1.22783 -1.44998 0
M  V30 3924 H 381.57 -0.571445 -3.84274 0
M  V30 3925 H 383.242 -3.13976 -3.3796 0
M  V30 3926 H 381.485 -3.00305 -3.13048 0
M  V30 3927 H 382.156 -2.80779 -4.75255 0
M  V30 3928 H 384.632 -1.01987 -4.03408 0
M  V30 3929 H 383.508 -0.910383 -5.41298 0
M  V30 3930 H 383.769 0.495761 -4.39312 0
M  V30 3931 N 382.828 1.3818 -0.7579 0
M  V30 3932 C 384.105 1.94106 -0.241306 0
M  V30 3933 C 384.485 1.69282 1.26122 0
M  V30 3934 O 383.833 1.03378 2.03777 0
M  V30 3935 C 384.043 3.43809 -0.59967 0
M  V30 3936 C 385.391 4.20868 -0.561717 0
M  V30 3937 O 386.415 3.5211 -0.538222 0
M  V30 3938 O 385.274 5.43451 -0.576478 0
M  V30 3939 H 382.368 0.825376 -0.0518042 0
M  V30 3940 H 384.914 1.47548 -0.838315 0
M  V30 3941 H 383.686 3.55403 -1.6372 0
M  V30 3942 H 383.309 3.97592 0.0251197 0
M  V30 3943 N 384.306 0.507319 1.49211 0
M  V30 3944 C 385.717 0.0611118 1.866 0
M  V30 3945 C 386.068 -1.35488 1.41907 0
M  V30 3946 O 385.193 -2.0108 0.799726 0
M  V30 3947 C 385.788 0.104125 3.3864 0
M  V30 3948 C 384.347 -0.28677 3.75306 0
M  V30 3949 C 383.494 0.473893 2.73221 0
M  V30 3950 H 386.445 0.719775 1.41439 0
M  V30 3951 H 386.466 -0.689672 3.74198 0
M  V30 3952 H 385.978 1.13482 3.71138 0
M  V30 3953 H 384.079 -1.32046 3.48417 0
M  V30 3954 H 384.192 0.0370745 4.79086 0
M  V30 3955 H 382.556 -0.0770644 2.54583 0
M  V30 3956 H 383.339 1.50478 3.08563 0
M  V30 3957 N 385.784 -1.5574 0.241426 0
M  V30 3958 C 387.014 -2.02913 -0.38857 0
M  V30 3959 C 387.422 -1.12014 -1.52478 0
M  V30 3960 O 386.765 -0.125903 -1.83268 0
M  V30 3961 C 386.827 -3.4636 -0.963075 0
M  V30 3962 C 386.491 -4.56982 0.0401916 0
M  V30 3963 C 387.488 -5.12941 0.847766 0
M  V30 3964 C 385.173 -5.0203 0.164699 0
M  V30 3965 C 387.167 -6.12437 1.76636 0
M  V30 3966 C 384.854 -6.01358 1.0868 0
M  V30 3967 C 385.852 -6.5644 1.88616 0
M  V30 3968 O 385.54 -7.53831 2.79273 0
M  V30 3969 H 385.272 -0.668983 -0.0971452 0
M  V30 3970 H 387.826 -2.02198 0.361248 0
M  V30 3971 H 386.056 -3.44206 -1.76235 0
M  V30 3972 H 387.745 -3.77065 -1.50257 0
M  V30 3973 H 388.511 -4.78974 0.762133 0
M  V30 3974 H 384.39 -4.58824 -0.447411 0
M  V30 3975 H 387.934 -6.55355 2.39071 0
M  V30 3976 H 383.831 -6.34746 1.17338 0
M  V30 3977 H 384.599 -7.71428 2.73572 0
M  V30 3978 N 387.262 0.0317525 -1.57568 0
M  V30 3979 C 388.209 1.0332 -2.06382 0
M  V30 3980 C 389.179 1.36082 -0.952414 0
M  V30 3981 O 390.364 1.46466 -1.2228 0
M  V30 3982 C 387.504 2.32989 -2.54578 0
M  V30 3983 C 386.617 2.0641 -3.79498 0
M  V30 3984 C 385.752 3.2993 -4.16317 0
M  V30 3985 C 384.791 2.98893 -5.34162 0
M  V30 3986 N 383.928 4.14857 -5.66426 0
M  V30 3987 H 388.768 0.609982 -2.9169 0
M  V30 3988 H 386.305 0.289573 -1.44222 0
M  V30 3989 H 388.263 3.0875 -2.80587 0
M  V30 3990 H 386.893 2.73039 -1.7219 0
M  V30 3991 H 385.945 1.21158 -3.6059 0
M  V30 3992 H 387.257 1.79513 -4.65378 0
M  V30 3993 H 386.411 4.1406 -4.4344 0
M  V30 3994 H 385.15 3.59938 -3.29083 0
M  V30 3995 H 384.155 2.13164 -5.06795 0
M  V30 3996 H 385.38 2.70165 -6.23047 0
M  V30 3997 H 383.326 4.44821 -4.82151 0
M  V30 3998 H 383.243 3.91374 -6.4681 0
M  V30 3999 H 384.511 4.99868 -5.98124 0
M  V30 4000 N 388.74 1.54641 0.303973 0
M  V30 4001 C 389.688 1.86137 1.39484 0
M  V30 4002 C 390.682 0.734854 1.52631 0
M  V30 4003 O 391.888 0.918803 1.54784 0
M  V30 4004 H 388.263 0.590324 0.465856 0
M  V30 4005 H 390.234 2.77324 1.10154 0
M  V30 4006 C 388.983 2.12274 2.75382 0
M  V30 4007 H 388.306 2.98429 2.66046 0
M  V30 4008 H 389.746 2.38254 3.5073 0
M  V30 4009 C 388.205 0.920365 3.24085 0
M  V30 4010 O 388.735 0.139377 4.01458 0
M  V30 4011 N 386.941 0.726566 2.81371 0
M  V30 4012 H 386.488 1.36332 2.18567 0
M  V30 4013 H 386.446 -0.0763799 3.14307 0
M  V30 4014 N 390.218 -0.567019 1.47046 0
M  V30 4015 C 391.148 -1.68482 1.61667 0
M  V30 4016 C 392.129 -1.6358 0.466418 0
M  V30 4017 O 393.314 -1.81354 0.694574 0
M  V30 4018 C 390.444 -3.07124 1.62148 0
M  V30 4019 C 389.398 -3.26867 2.76301 0
M  V30 4020 C 388.724 -4.66196 2.61849 0
M  V30 4021 C 390.024 -3.13186 4.17986 0
M  V30 4022 H 391.718 -1.56502 2.5524 0
M  V30 4023 H 389.264 -0.751486 1.22836 0
M  V30 4024 H 391.217 -3.8516 1.70968 0
M  V30 4025 H 389.941 -3.2004 0.651287 0
M  V30 4026 H 388.6 -2.51237 2.66975 0
M  V30 4027 H 388.248 -4.75898 1.62879 0
M  V30 4028 H 387.948 -4.80356 3.38425 0
M  V30 4029 H 389.472 -5.46379 2.72584 0
M  V30 4030 H 390.886 -3.81049 4.2834 0
M  V30 4031 H 389.283 -3.3886 4.95272 0
M  V30 4032 H 390.353 -2.10057 4.3704 0
M  V30 4033 N 391.696 -1.35014 -0.812953 0
M  V30 4034 C 393.107 -1.25035 -1.38648 0
M  V30 4035 C 393.458 0.119967 -1.95833 0
M  V30 4036 O 392.583 1.02069 -1.90816 0
M  V30 4037 C 393.178 -2.26394 -2.52054 0
M  V30 4038 C 391.737 -2.20175 -3.05287 0
M  V30 4039 C 390.884 -2.12451 -1.78213 0
M  V30 4040 H 393.835 -1.46235 -0.616516 0
M  V30 4041 H 393.856 -1.88672 -3.30429 0
M  V30 4042 H 393.368 -3.26116 -2.10404 0
M  V30 4043 H 391.469 -1.23841 -3.51417 0
M  V30 4044 H 391.582 -3.11863 -3.63701 0
M  V30 4045 H 389.946 -1.58328 -1.9951 0
M  V30 4046 H 390.729 -3.14024 -1.38723 0
M  V30 4047 N 393.175 1.03435 -1.18907 0
M  V30 4048 C 394.591 1.28973 -0.940111 0
M  V30 4049 C 394.791 1.97676 0.390691 0
M  V30 4050 O 393.847 2.26127 1.12352 0
M  V30 4051 C 395.16 2.14221 -2.11021 0
M  V30 4052 C 396.708 2.27547 -2.14922 0
M  V30 4053 C 397.183 3.16164 -3.31367 0
M  V30 4054 N 398.674 3.23752 -3.31269 0
M  V30 4055 C 399.409 3.92495 -4.18014 0
M  V30 4056 N 398.905 4.63515 -5.14904 0
M  V30 4057 N 400.698 3.88838 -4.05908 0
M  V30 4058 H 392.849 0.57252 -2.04538 0
M  V30 4059 H 395.112 0.315184 -0.894071 0
M  V30 4060 H 394.818 1.71054 -3.073 0
M  V30 4061 H 394.692 3.14919 -2.0762 0
M  V30 4062 H 397.079 2.69947 -1.19217 0
M  V30 4063 H 397.16 1.26418 -2.22378 0
M  V30 4064 H 396.804 2.74474 -4.27348 0
M  V30 4065 H 396.734 4.17339 -3.21148 0
M  V30 4066 H 399.225 2.73167 -2.61129 0
M  V30 4067 H 399.538 5.13583 -5.77453 0
M  V30 4068 H 397.883 4.62398 -5.18857 0
M  V30 4069 H 401.074 3.32491 -3.29495 0
M  V30 4070 H 401.247 4.4214 -4.73726 0
M  V30 4071 N 394.653 0.992116 1.22453 0
M  V30 4072 C 395.616 0.546883 2.2258 0
M  V30 4073 C 396.616 -0.369829 1.56489 0
M  V30 4074 O 397.806 -0.161896 1.73446 0
M  V30 4075 C 394.938 -0.204659 3.40285 0
M  V30 4076 H 396.131 1.43234 2.63484 0
M  V30 4077 H 393.684 0.779239 1.3549 0
M  V30 4078 H 394.419 -1.10614 3.04853 0
M  V30 4079 H 394.204 0.45354 3.89468 0
M  V30 4080 H 395.694 -0.504358 4.14543 0
M  V30 4081 N 396.131 -1.37776 0.765217 0
M  V30 4082 C 397.38 -1.99092 0.323307 0
M  V30 4083 C 397.693 -1.61434 -1.10446 0
M  V30 4084 O 398.899 -2.15805 -1.64743 0
M  V30 4085 C 397.355 -3.56019 0.527098 0
M  V30 4086 C 396.963 -4.0262 1.96471 0
M  V30 4087 C 398.707 -4.2424 0.148483 0
M  V30 4088 C 396.614 -5.52233 2.11644 0
M  V30 4089 H 395.544 -0.744846 0.117137 0
M  V30 4090 H 398.195 -1.57391 0.943417 0
M  V30 4091 H 396.577 -3.95667 -0.162372 0
M  V30 4092 H 397.751 -3.74234 2.68859 0
M  V30 4093 H 396.066 -3.47161 2.29931 0
M  V30 4094 H 398.663 -5.34159 0.240456 0
M  V30 4095 H 399.006 -4.06446 -0.900422 0
M  V30 4096 H 399.539 -3.89872 0.79025 0
M  V30 4097 H 396.278 -5.74945 3.1483 0
M  V30 4098 H 395.798 -5.82324 1.4373 0
M  V30 4099 H 397.477 -6.18106 1.91193 0
M  V30 4100 N 397.609 -0.515225 -1.4894 0
M  V30 4101 C 398.856 0.024215 -2.02486 0
M  V30 4102 C 399.184 1.35671 -1.39368 0
M  V30 4103 O 398.439 1.88566 -0.523574 0
M  V30 4104 C 398.738 0.210595 -3.56779 0
M  V30 4105 C 398.404 -1.04569 -4.38607 0
M  V30 4106 C 397.066 -1.39002 -4.60686 0
M  V30 4107 C 399.418 -1.88008 -4.86109 0
M  V30 4108 C 396.746 -2.568 -5.27514 0
M  V30 4109 C 399.098 -3.04972 -5.54234 0
M  V30 4110 C 397.762 -3.39768 -5.74555 0
M  V30 4111 H 397.032 0.00886088 -0.740947 0
M  V30 4112 H 399.679 -0.678263 -1.79086 0
M  V30 4113 H 397.984 0.99572 -3.78936 0
M  V30 4114 H 399.681 0.642659 -3.95817 0
M  V30 4115 H 396.271 -0.767497 -4.21672 0
M  V30 4116 H 400.455 -1.62719 -4.68867 0
M  V30 4117 H 395.711 -2.8398 -5.41447 0
M  V30 4118 H 399.885 -3.69943 -5.90013 0
M  V30 4119 H 397.512 -4.31148 -6.26112 0
M  V30 4120 N 399.087 1.5561 -0.249682 0
M  V30 4121 C 400.336 1.98187 0.37479 0
M  V30 4122 C 400.649 1.14111 1.58865 0
M  V30 4123 O 401.855 1.46714 2.28445 0
M  V30 4124 C 400.311 3.52661 0.718192 0
M  V30 4125 C 399.919 4.45481 -0.474428 0
M  V30 4126 C 401.663 4.03888 1.3067 0
M  V30 4127 C 399.57 5.91303 -0.107026 0
M  V30 4128 H 398.5 0.740159 0.143808 0
M  V30 4129 H 401.151 1.80125 -0.350336 0
M  V30 4130 H 399.533 3.66429 1.50152 0
M  V30 4131 H 400.707 4.43473 -1.25172 0
M  V30 4132 H 399.022 4.04751 -0.978052 0
M  V30 4133 H 401.619 5.10358 1.59496 0
M  V30 4134 H 401.962 3.51401 2.23211 0
M  V30 4135 H 402.495 3.93457 0.586211 0
M  V30 4136 H 399.234 6.47833 -0.999642 0
M  V30 4137 H 398.754 5.9644 0.634013 0
M  V30 4138 H 400.433 6.46258 0.309807 0
M  V30 4139 N 400.565 -0.0233959 1.57583 0
M  V30 4140 C 401.79 -0.728376 1.94189 0
M  V30 4141 C 402.215 -1.67793 0.850119 0
M  V30 4142 O 401.573 -1.80262 -0.19371 0
M  V30 4143 C 401.621 -1.45669 3.29868 0
M  V30 4144 O 400.725 -2.57013 3.22518 0
M  V30 4145 H 400.066 -0.195493 0.63457 0
M  V30 4146 H 402.596 0.0228214 2.04587 0
M  V30 4147 H 402.606 -1.82535 3.6489 0
M  V30 4148 H 401.281 -0.760314 4.08891 0
M  V30 4149 H 399.858 -2.22648 2.99136 0
M  V30 4150 N 402.043 -1.548 -0.295768 0
M  V30 4151 C 403.292 -1.73538 -1.02798 0
M  V30 4152 C 403.605 -0.531159 -1.8825 0
M  V30 4153 O 404.811 -0.600458 -2.64777 0
M  V30 4154 C 403.267 -3.07051 -1.87744 0
M  V30 4155 C 402.875 -4.34968 -1.07269 0
M  V30 4156 C 404.619 -3.35146 -2.60533 0
M  V30 4157 C 402.526 -5.5953 -1.91521 0
M  V30 4158 H 401.456 -0.646794 -0.387522 0
M  V30 4159 H 404.107 -1.81278 -0.284718 0
M  V30 4160 H 402.489 -2.93289 -2.66078 0
M  V30 4161 H 403.663 -4.5958 -0.335117 0
M  V30 4162 H 401.978 -4.13847 -0.460384 0
M  V30 4163 H 404.575 -4.2541 -3.23929 0
M  V30 4164 H 404.918 -2.54255 -3.29636 0
M  V30 4165 H 405.451 -3.49902 -1.89244 0
M  V30 4166 H 402.19 -6.43103 -1.26878 0
M  V30 4167 H 401.71 -5.39096 -2.62937 0
M  V30 4168 H 403.389 -5.96982 -2.49442 0
M  V30 4169 N 403.521 0.559213 -1.47345 0
M  V30 4170 C 404.932 1.14134 -1.47751 0
M  V30 4171 C 405.283 1.94834 -0.231103 0
M  V30 4172 O 404.408 2.05957 0.664137 0
M  V30 4173 C 405.003 2.07653 -2.67705 0
M  V30 4174 C 403.562 2.61141 -2.71076 0
M  V30 4175 C 402.709 1.3748 -2.40821 0
M  V30 4176 H 405.66 0.345917 -1.54884 0
M  V30 4177 H 405.681 2.91497 -2.44561 0
M  V30 4178 H 405.193 1.4889 -3.58404 0
M  V30 4179 H 403.294 3.23707 -1.84511 0
M  V30 4180 H 403.407 3.02272 -3.7171 0
M  V30 4181 H 401.771 1.68086 -1.91362 0
M  V30 4182 H 402.554 0.805135 -3.33725 0
M  V30 4183 N 404.999 1.35443 0.805782 0
M  V30 4184 C 405.929 1.31095 1.93226 0
M  V30 4185 C 406.91 0.185244 1.69088 0
M  V30 4186 O 408.095 0.380332 1.90439 0
M  V30 4187 C 405.225 1.08299 3.29983 0
M  V30 4188 C 404.179 2.17519 3.68605 0
M  V30 4189 C 403.505 1.79887 5.03532 0
M  V30 4190 C 404.805 3.5949 3.78898 0
M  V30 4191 H 406.499 2.25352 1.97122 0
M  V30 4192 H 404.045 1.0848 0.946996 0
M  V30 4193 H 405.998 1.03897 4.08391 0
M  V30 4194 H 404.722 0.104885 3.26432 0
M  V30 4195 H 403.381 2.2102 2.92482 0
M  V30 4196 H 403.029 0.80693 4.96485 0
M  V30 4197 H 402.729 2.53001 5.30344 0
M  V30 4198 H 404.253 1.77011 5.84379 0
M  V30 4199 H 405.667 3.58307 4.47536 0
M  V30 4200 H 404.064 4.31371 4.1718 0
M  V30 4201 H 405.134 3.95584 2.80431 0
M  V30 4202 N 406.477 -1.02803 1.19454 0
M  V30 4203 C 407.723 -1.76478 0.999171 0
M  V30 4204 C 408.056 -1.88456 -0.468828 0
M  V30 4205 O 407.331 -1.40198 -1.34814 0
M  V30 4206 C 407.614 -3.19044 1.66981 0
M  V30 4207 C 407.467 -3.14932 3.21151 0
M  V30 4208 C 408.786 -4.17456 1.39349 0
M  V30 4209 H 405.905 -0.640614 0.364393 0
M  V30 4210 H 408.547 -1.20005 1.47305 0
M  V30 4211 H 406.697 -3.67263 1.2669 0
M  V30 4212 H 408.369 -2.74605 3.70661 0
M  V30 4213 H 406.612 -2.52625 3.52652 0
M  V30 4214 H 407.283 -4.1566 3.63223 0
M  V30 4215 H 409.759 -3.77842 1.74283 0
M  V30 4216 H 408.635 -5.154 1.88823 0
M  V30 4217 H 408.896 -4.40949 0.318813 0
M  V30 4218 N 407.956 -0.998596 -1.21925 0
M  V30 4219 C 409.184 -0.696286 -1.94832 0
M  V30 4220 C 409.599 0.740032 -1.73692 0
M  V30 4221 O 408.956 1.5 -1.03953 0
M  V30 4222 C 409.007 -0.999833 -3.47398 0
M  V30 4223 O 408.728 -2.37972 -3.67833 0
M  V30 4224 C 410.229 -0.716025 -4.37479 0
M  V30 4225 H 407.449 -0.257111 -0.619786 0
M  V30 4226 H 409.993 -1.33491 -1.54921 0
M  V30 4227 H 408.148 -0.406918 -3.85257 0
M  V30 4228 H 408.562 -2.48338 -4.61983 0
M  V30 4229 H 410.036 -0.978642 -5.43256 0
M  V30 4230 H 410.513 0.349968 -4.37803 0
M  V30 4231 H 411.119 -1.29025 -4.05256 0
M  V30 4232 N 409.434 1.37368 -0.772513 0
M  V30 4233 C 410.681 1.99673 -0.337182 0
M  V30 4234 C 411.009 1.61324 1.0865 0
M  V30 4235 O 410.264 0.851377 1.7621 0
M  V30 4236 C 410.563 3.54817 -0.428876 0
M  V30 4237 C 410.229 4.12936 -1.81092 0
M  V30 4238 C 408.891 4.28523 -2.1891 0
M  V30 4239 C 411.243 4.44801 -2.71664 0
M  V30 4240 C 408.571 4.73277 -3.46735 0
M  V30 4241 C 410.923 4.90981 -3.98899 0
M  V30 4242 C 409.587 5.04773 -4.36761 0
M  V30 4243 H 408.857 0.730656 -0.123384 0
M  V30 4244 H 411.504 1.64124 -0.986686 0
M  V30 4245 H 409.809 3.90618 0.304167 0
M  V30 4246 H 411.506 4.00933 -0.0733334 0
M  V30 4247 H 408.096 4.01233 -1.50699 0
M  V30 4248 H 412.28 4.32344 -2.43706 0
M  V30 4249 H 407.536 4.82142 -3.75964 0
M  V30 4250 H 411.71 5.14603 -4.69208 0
M  V30 4251 H 409.337 5.39211 -5.35868 0
M  V30 4252 N 410.912 0.523116 1.48665 0
M  V30 4253 C 412.158 -0.0134963 2.02796 0
M  V30 4254 C 412.491 -1.34582 1.40004 0
M  V30 4255 O 411.766 -1.86756 0.543381 0
M  V30 4256 C 412.049 -0.14276 3.59817 0
M  V30 4257 C 411.902 1.21425 4.331 0
M  V30 4258 C 413.221 -0.872856 4.31357 0
M  V30 4259 H 410.34 -0.00343074 0.736992 0
M  V30 4260 H 412.982 0.678816 1.7746 0
M  V30 4261 H 411.132 -0.732401 3.81534 0
M  V30 4262 H 412.804 1.84447 4.2282 0
M  V30 4263 H 411.047 1.79791 3.94788 0
M  V30 4264 H 411.718 1.07687 5.41394 0
M  V30 4265 H 414.194 -0.372555 4.14429 0
M  V30 4266 H 413.07 -0.932185 5.40927 0
M  V30 4267 H 413.331 -1.92161 3.98154 0
M  V30 4268 N 412.39 -1.55475 0.257931 0
M  V30 4269 C 413.62 -2.03314 -0.367026 0
M  V30 4270 C 414.028 -1.13625 -1.51281 0
M  V30 4271 O 413.371 -0.145334 -1.83124 0
M  V30 4272 C 413.433 -3.47362 -0.926284 0
M  V30 4273 C 413.097 -4.56914 0.0886584 0
M  V30 4274 C 414.094 -5.12013 0.902123 0
M  V30 4275 C 411.779 -5.01827 0.217936 0
M  V30 4276 C 413.773 -6.10529 1.83122 0
M  V30 4277 C 411.46 -6.00172 1.15052 0
M  V30 4278 C 412.458 -6.54402 1.95568 0
M  V30 4279 O 412.146 -7.50827 2.87253 0
M  V30 4280 H 411.878 -0.669976 -0.0900443 0
M  V30 4281 H 414.432 -2.01804 0.382673 0
M  V30 4282 H 412.662 -3.46056 -1.72575 0
M  V30 4283 H 414.351 -3.78637 -1.46249 0
M  V30 4284 H 415.117 -4.78139 0.812891 0
M  V30 4285 H 410.996 -4.59272 -0.398721 0
M  V30 4286 H 414.54 -6.52783 2.46008 0
M  V30 4287 H 410.437 -6.33465 1.24064 0
M  V30 4288 H 411.205 -7.68483 2.81739 0
M  V30 4289 N 413.868 0.0150385 -1.57593 0
M  V30 4290 C 415.114 0.704043 -1.90187 0
M  V30 4291 C 415.447 1.74249 -0.857366 0
M  V30 4292 O 414.722 1.94092 0.125843 0
M  V30 4293 C 415.005 1.36087 -3.33395 0
M  V30 4294 C 414.858 0.334981 -4.48551 0
M  V30 4295 C 416.177 2.29112 -3.7576 0
M  V30 4296 H 413.296 0.254475 -0.691673 0
M  V30 4297 H 415.938 -0.0331678 -1.89971 0
M  V30 4298 H 414.088 1.98922 -3.3371 0
M  V30 4299 H 415.76 -0.292534 -4.60372 0
M  V30 4300 H 414.003 -0.344325 -4.32431 0
M  V30 4301 H 414.674 0.833316 -5.45674 0
M  V30 4302 H 417.15 1.76308 -3.76902 0
M  V30 4303 H 416.026 2.72043 -4.76743 0
M  V30 4304 H 416.287 3.16385 -3.08793 0
M  V30 4305 N 415.346 1.54954 0.287554 0
M  V30 4306 C 416.593 1.74873 1.02106 0
M  V30 4307 C 416.921 0.541829 1.86801 0
M  V30 4308 O 416.176 -0.475992 1.89823 0
M  V30 4309 C 416.475 2.99833 1.94512 0
M  V30 4310 C 416.141 4.33029 1.25686 0
M  V30 4311 C 414.803 4.69233 1.06649 0
M  V30 4312 C 417.155 5.15542 0.765913 0
M  V30 4313 C 414.483 5.85518 0.372222 0
M  V30 4314 C 416.835 6.32542 0.0853101 0
M  V30 4315 C 415.499 6.67398 -0.1169 0
M  V30 4316 H 414.769 0.639906 0.373632 0
M  V30 4317 H 417.416 1.89219 0.294665 0
M  V30 4318 H 415.721 2.80325 2.73725 0
M  V30 4319 H 417.418 3.1244 2.51361 0
M  V30 4320 H 414.008 4.04564 1.41512 0
M  V30 4321 H 418.192 4.88059 0.90066 0
M  V30 4322 H 413.448 6.11057 0.204695 0
M  V30 4323 H 417.622 6.95741 -0.302936 0
M  V30 4324 H 415.249 7.57357 -0.656859 0
M  V30 4325 N 416.824 -0.551391 1.4764 0
M  V30 4326 C 417.787 -1.64007 1.60107 0
M  V30 4327 C 418.787 -1.53601 0.47576 0
M  V30 4328 O 419.977 -1.57655 0.740988 0
M  V30 4329 C 417.109 -3.03569 1.55108 0
M  V30 4330 H 418.302 -1.543 2.57161 0
M  V30 4331 H 415.855 -0.771776 1.35917 0
M  V30 4332 H 416.59 -3.18804 0.594519 0
M  V30 4333 H 416.375 -3.12532 2.36783 0
M  V30 4334 H 417.865 -3.82762 1.66982 0
M  V30 4335 N 418.302 -1.35869 -0.798587 0
M  V30 4336 C 419.25 -1.29491 -1.93222 0
M  V30 4337 C 420.244 -0.18836 -1.6835 0
M  V30 4338 O 421.45 -0.354822 -1.76468 0
M  V30 4339 H 417.825 -0.402901 -0.63496 0
M  V30 4340 H 419.796 -2.25247 -1.9572 0
M  V30 4341 C 418.545 -1.09184 -3.30112 0
M  V30 4342 H 417.868 -1.93574 -3.49813 0
M  V30 4343 H 419.308 -1.08766 -4.09812 0
M  V30 4344 C 417.767 0.203959 -3.36282 0
M  V30 4345 O 418.297 1.19699 -3.83451 0
M  V30 4346 N 416.503 0.245488 -2.89561 0
M  V30 4347 H 416.05 -0.563223 -2.51367 0
M  V30 4348 H 416.008 1.11219 -2.94071 0
M  V30 4349 N 419.78 1.02168 -1.19998 0
M  V30 4350 C 421.026 1.75945 -1.00852 0
M  V30 4351 C 421.359 1.88702 0.458828 0
M  V30 4352 O 420.634 1.40911 1.34069 0
M  V30 4353 C 420.917 3.18154 -1.68671 0
M  V30 4354 C 420.77 3.13224 -3.22817 0
M  V30 4355 C 422.089 4.16711 -1.41561 0
M  V30 4356 H 419.208 0.638673 -0.367785 0
M  V30 4357 H 421.85 1.19222 -1.4794 0
M  V30 4358 H 420 3.66586 -1.28636 0
M  V30 4359 H 421.672 2.72635 -3.72112 0
M  V30 4360 H 419.915 2.50751 -3.53986 0
M  V30 4361 H 420.586 4.13728 -3.65422 0
M  V30 4362 H 423.062 3.76913 -1.76284 0
M  V30 4363 H 421.938 5.14391 -1.91553 0
M  V30 4364 H 422.199 4.40774 -0.342193 0
M  V30 4365 N 421.258 1.00505 1.21394 0
M  V30 4366 C 422.221 0.570459 2.21987 0
M  V30 4367 C 423.221 -0.353211 1.56873 0
M  V30 4368 O 424.411 -0.14349 1.73608 0
M  V30 4369 C 421.543 -0.168555 3.40483 0
M  V30 4370 H 422.736 1.46021 2.6195 0
M  V30 4371 H 420.289 0.793565 1.34656 0
M  V30 4372 H 421.024 -1.07374 3.06009 0
M  V30 4373 H 420.809 0.494823 3.88965 0
M  V30 4374 H 422.299 -0.460362 4.15055 0
M  V30 4375 N 422.737 -1.36956 0.779787 0
M  V30 4376 C 423.967 -2.03459 0.358877 0
M  V30 4377 C 424.375 -1.58939 -1.02641 0
M  V30 4378 O 423.718 -0.769777 -1.66794 0
M  V30 4379 C 423.78 -3.5796 0.332393 0
M  V30 4380 C 423.444 -4.25644 1.66362 0
M  V30 4381 C 424.441 -4.49205 2.61746 0
M  V30 4382 C 422.126 -4.63313 1.94027 0
M  V30 4383 C 424.12 -5.09503 3.82996 0
M  V30 4384 C 421.807 -5.2333 3.15546 0
M  V30 4385 C 422.805 -5.46363 4.0985 0
M  V30 4386 O 422.493 -6.05122 5.29228 0
M  V30 4387 H 422.225 -0.659767 0.147254 0
M  V30 4388 H 424.779 -1.76111 1.05708 0
M  V30 4389 H 423.009 -3.84388 -0.422237 0
M  V30 4390 H 424.698 -4.05852 -0.0625389 0
M  V30 4391 H 425.464 -4.20508 2.41657 0
M  V30 4392 H 421.343 -4.44715 1.21448 0
M  V30 4393 H 424.887 -5.27397 4.56617 0
M  V30 4394 H 420.784 -5.51451 3.35517 0
M  V30 4395 H 421.552 -6.23595 5.30161 0
M  V30 4396 N 424.215 -0.530993 -1.48385 0
M  V30 4397 C 425.461 0.00274135 -2.028 0
M  V30 4398 C 425.794 1.33838 -1.40716 0
M  V30 4399 O 425.069 1.86465 -0.553277 0
M  V30 4400 C 425.352 0.123676 -3.59888 0
M  V30 4401 C 425.205 -1.2372 -4.3245 0
M  V30 4402 C 426.524 0.849967 -4.31814 0
M  V30 4403 H 423.643 -0.000477758 -0.737 0
M  V30 4404 H 426.285 -0.688217 -1.77098 0
M  V30 4405 H 424.435 0.712157 -3.81917 0
M  V30 4406 H 426.107 -1.86687 -4.21836 0
M  V30 4407 H 424.35 -1.81882 -3.93829 0
M  V30 4408 H 425.021 -1.10557 -5.40815 0
M  V30 4409 H 427.497 0.350572 -4.14621 0
M  V30 4410 H 426.373 0.903486 -5.41413 0
M  V30 4411 H 426.634 1.90047 -3.99167 0
M  V30 4412 N 425.693 1.55336 -0.266172 0
M  V30 4413 C 426.921 2.03801 0.356756 0
M  V30 4414 C 427.336 1.14485 1.50129 0
M  V30 4415 O 426.693 0.163121 1.8177 0
M  V30 4416 C 426.744 3.51455 0.846281 0
M  V30 4417 O 426.465 4.37371 -0.252663 0
M  V30 4418 C 427.966 4.15767 1.53794 0
M  V30 4419 H 425.186 0.665906 0.0825218 0
M  V30 4420 H 427.73 2.00636 -0.39566 0
M  V30 4421 H 425.885 3.55092 1.54881 0
M  V30 4422 H 426.299 5.24358 0.122173 0
M  V30 4423 H 427.773 5.20714 1.83198 0
M  V30 4424 H 428.25 3.63404 2.46646 0
M  V30 4425 H 428.856 4.16107 0.879488 0
M  V30 4426 N 427.171 -0.0066808 1.57599 0
M  V30 4427 C 428.134 -0.985035 2.06953 0
M  V30 4428 C 429.134 -1.27663 0.977687 0
M  V30 4429 O 430.324 -1.22293 1.24057 0
M  V30 4430 C 427.456 -2.3118 2.50536 0
M  V30 4431 H 428.649 -0.558255 2.94658 0
M  V30 4432 H 426.202 -0.254011 1.54222 0
M  V30 4433 H 426.937 -2.78561 1.66054 0
M  V30 4434 H 426.722 -2.11338 3.3027 0
M  V30 4435 H 428.212 -3.01377 2.8907 0
M  V30 4436 N 428.649 -1.55105 -0.279332 0
M  V30 4437 C 429.582 -1.82467 -1.37044 0
M  V30 4438 C 430.56 -0.677261 -1.47824 0
M  V30 4439 O 431.744 -0.919578 -1.64548 0
M  V30 4440 C 428.871 -1.98066 -2.7475 0
M  V30 4441 C 427.917 -3.20594 -2.81286 0
M  V30 4442 S 428.75 -4.78116 -2.41175 0
M  V30 4443 C 429.906 -4.9668 -3.80867 0
M  V30 4444 H 430.139 -2.74728 -1.1363 0
M  V30 4445 H 427.672 -1.46794 -0.478625 0
M  V30 4446 H 429.63 -2.07739 -3.54055 0
M  V30 4447 H 428.291 -1.06704 -2.9542 0
M  V30 4448 H 427.484 -3.28376 -3.82341 0
M  V30 4449 H 427.086 -3.09479 -2.09996 0
M  V30 4450 H 429.378 -4.82033 -4.76078 0
M  V30 4451 H 430.321 -5.98741 -3.78041 0
M  V30 4452 H 430.729 -4.24698 -3.71876 0
M  V30 4453 N 430.127 0.543554 -1.4793 0
M  V30 4454 C 431.352 1.32995 -1.59145 0
M  V30 4455 C 431.777 1.86472 -0.246956 0
M  V30 4456 O 431.135 1.63696 0.779324 0
M  V30 4457 C 431.183 2.46623 -2.63077 0
M  V30 4458 O 430.287 3.49261 -2.19295 0
M  V30 4459 H 429.628 0.394472 -0.534124 0
M  V30 4460 H 432.158 0.655489 -1.93816 0
M  V30 4461 H 432.168 2.93001 -2.83926 0
M  V30 4462 H 430.843 2.07059 -3.60693 0
M  V30 4463 H 429.42 3.09094 -2.08603 0
M  V30 4464 N 431.605 1.3629 0.791371 0
M  V30 4465 C 433.016 1.27225 1.36641 0
M  V30 4466 C 433.367 -0.0887968 1.95999 0
M  V30 4467 O 432.492 -0.990207 1.92416 0
M  V30 4468 C 433.087 2.30375 2.48421 0
M  V30 4469 C 431.646 2.25004 3.01746 0
M  V30 4470 C 430.793 2.15259 1.7481 0
M  V30 4471 H 433.744 1.47198 0.593173 0
M  V30 4472 H 433.765 1.93905 3.27385 0
M  V30 4473 H 433.277 3.29422 2.05189 0
M  V30 4474 H 431.378 1.29417 3.49403 0
M  V30 4475 H 431.491 3.1761 3.58693 0
M  V30 4476 H 429.855 1.61482 1.96966 0
M  V30 4477 H 430.638 3.16191 1.33709 0
M  V30 4478 N 433.083 -1.0153 1.20538 0
M  V30 4479 C 434.015 -2.10224 0.913155 0
M  V30 4480 C 435.028 -1.62495 -0.0995998 0
M  V30 4481 O 436.217 -1.78014 0.131582 0
M  V30 4482 C 433.317 -3.37111 0.347717 0
M  V30 4483 C 432.49 -4.13971 1.41233 0
M  V30 4484 C 431.549 -5.19158 0.857976 0
M  V30 4485 O 430.575 -5.48 1.53897 0
M  V30 4486 N 431.777 -5.7955 -0.331966 0
M  V30 4487 H 434.542 -2.35879 1.84881 0
M  V30 4488 H 432.103 -1.17931 1.10923 0
M  V30 4489 H 434.095 -4.04683 -0.0373026 0
M  V30 4490 H 432.665 -3.08696 -0.492527 0
M  V30 4491 H 431.885 -3.41351 1.97163 0
M  V30 4492 H 433.173 -4.62103 2.12928 0
M  V30 4493 H 432.571 -5.58455 -0.902478 0
M  V30 4494 H 431.128 -6.48464 -0.65861 0
M  V30 4495 N 434.561 -1.01147 -1.20859 0
M  V30 4496 C 435.471 -0.58686 -2.27141 0
M  V30 4497 C 436.487 0.373198 -1.69951 0
M  V30 4498 O 437.663 0.235423 -2.00019 0
M  V30 4499 C 434.728 0.0733602 -3.46622 0
M  V30 4500 C 433.789 -0.931995 -4.19061 0
M  V30 4501 C 433.022 -0.303186 -5.32838 0
M  V30 4502 O 433.245 0.898395 -5.63281 0
M  V30 4503 O 432.179 -1.01735 -5.9324 0
M  V30 4504 H 436.005 -1.47155 -2.65667 0
M  V30 4505 H 433.59 -0.780689 -1.2738 0
M  V30 4506 H 435.472 0.442333 -4.19072 0
M  V30 4507 H 434.147 0.932329 -3.09983 0
M  V30 4508 H 433.054 -1.35224 -3.48805 0
M  V30 4509 H 434.387 -1.76076 -4.59628 0
M  V30 4510 N 436.039 1.36541 -0.78704 0
M  V30 4511 C 436.969 2.32659 -0.197992 0
M  V30 4512 C 437.95 1.56533 0.665697 0
M  V30 4513 O 439.135 1.84698 0.60001 0
M  V30 4514 C 436.265 3.40778 0.669901 0
M  V30 4515 C 435.219 4.27897 -0.0937039 0
M  V30 4516 C 434.545 5.27163 0.894629 0
M  V30 4517 C 435.845 5.06334 -1.28154 0
M  V30 4518 H 437.539 2.82171 -1.00099 0
M  V30 4519 H 435.085 1.35665 -0.482793 0
M  V30 4520 H 437.038 4.07008 1.09191 0
M  V30 4521 H 435.762 2.89827 1.50558 0
M  V30 4522 H 434.421 3.6322 -0.49666 0
M  V30 4523 H 434.069 4.72486 1.72527 0
M  V30 4524 H 433.769 5.86317 0.388149 0
M  V30 4525 H 435.293 5.96266 1.31525 0
M  V30 4526 H 436.707 5.65617 -0.93541 0
M  V30 4527 H 435.104 5.74888 -1.72115 0
M  V30 4528 H 436.174 4.38114 -2.07807 0
M  V30 4529 N 437.518 0.538854 1.48102 0
M  V30 4530 C 438.448 -0.207654 2.32575 0
M  V30 4531 C 439.429 -0.926559 1.4265 0
M  V30 4532 O 440.614 -0.91061 1.71527 0
M  V30 4533 C 437.744 -1.24957 3.24042 0
M  V30 4534 C 436.698 -0.648263 4.23062 0
M  V30 4535 C 436.024 -1.79348 5.03725 0
M  V30 4536 C 437.324 0.385897 5.20872 0
M  V30 4537 H 439.018 0.497534 2.95237 0
M  V30 4538 H 436.564 0.240715 1.41974 0
M  V30 4539 H 438.517 -1.77983 3.81969 0
M  V30 4540 H 437.241 -1.98446 2.59397 0
M  V30 4541 H 435.9 -0.139452 3.66335 0
M  V30 4542 H 435.548 -2.51696 4.35498 0
M  V30 4543 H 435.248 -1.39702 5.70751 0
M  V30 4544 H 436.772 -2.32735 5.64506 0
M  V30 4545 H 438.186 -0.057607 5.73271 0
M  V30 4546 H 436.583 0.700227 5.96001 0
M  V30 4547 H 437.653 1.28848 4.67468 0
M  V30 4548 N 438.996 -1.55193 0.274407 0
M  V30 4549 C 439.959 -2.212 -0.600279 0
M  V30 4550 C 440.959 -1.18963 -1.08187 0
M  V30 4551 O 442.149 -1.43873 -0.982158 0
M  V30 4552 C 439.281 -2.87739 -1.82809 0
M  V30 4553 H 440.474 -2.9989 -0.0239682 0
M  V30 4554 H 438.027 -1.5628 0.0250192 0
M  V30 4555 H 438.762 -2.13058 -2.44493 0
M  V30 4556 H 438.547 -3.62658 -1.49069 0
M  V30 4557 H 440.037 -3.38171 -2.45011 0
M  V30 4558 N 440.474 -0.00167713 -1.576 0
M  V30 4559 C 441.699 0.69739 -1.95323 0
M  V30 4560 C 442.124 1.6642 -0.876706 0
M  V30 4561 O 441.482 1.80548 0.165007 0
M  V30 4562 C 441.53 1.40403 -3.32144 0
M  V30 4563 O 440.634 2.5185 -3.26566 0
M  V30 4564 H 439.975 0.185373 -0.637599 0
M  V30 4565 H 442.505 -0.0553665 -2.04525 0
M  V30 4566 H 442.515 1.76707 -3.67748 0
M  V30 4567 H 441.19 0.695167 -4.10049 0
M  V30 4568 H 439.767 2.17861 -3.0264 0
M  V30 4569 N 441.952 1.55251 0.271103 0
M  V30 4570 C 442.9 1.89054 1.35504 0
M  V30 4571 C 443.894 0.767064 1.51038 0
M  V30 4572 O 445.1 0.951429 1.528 0
M  V30 4573 H 441.475 0.600072 0.45323 0
M  V30 4574 H 443.446 2.79598 1.04247 0
M  V30 4575 C 442.195 2.18068 2.70817 0
M  V30 4576 H 441.518 3.04005 2.59656 0
M  V30 4577 H 442.958 2.4564 3.45597 0
M  V30 4578 C 441.417 0.988901 3.2206 0
M  V30 4579 O 441.947 0.224501 4.01072 0
M  V30 4580 N 440.153 0.786085 2.79766 0
M  V30 4581 H 439.7 1.40937 2.15626 0
M  V30 4582 H 439.658 -0.00969349 3.14399 0
M  V30 4583 N 443.43 -0.535701 1.48216 0
M  V30 4584 C 444.393 -1.623 1.61838 0
M  V30 4585 C 445.393 -1.53087 0.492024 0
M  V30 4586 O 446.583 -1.5686 0.757668 0
M  V30 4587 C 443.715 -3.01907 1.58319 0
M  V30 4588 H 444.908 -1.51564 2.58783 0
M  V30 4589 H 442.461 -0.757317 1.36727 0
M  V30 4590 H 443.196 -3.18155 0.628299 0
M  V30 4591 H 442.981 -3.10003 2.40085 0
M  V30 4592 H 444.471 -3.80969 1.71033 0
M  V30 4593 N 444.908 -1.36708 -0.784132 0
M  V30 4594 C 446.154 -1.31426 -1.54451 0
M  V30 4595 C 446.487 0.10476 -1.93917 0
M  V30 4596 O 445.762 1.05934 -1.6312 0
M  V30 4597 C 446.045 -2.24189 -2.818 0
M  V30 4598 C 445.898 -3.74813 -2.48667 0
M  V30 4599 C 447.217 -2.15626 -3.83658 0
M  V30 4600 H 444.336 -0.478739 -0.560337 0
M  V30 4601 H 446.978 -1.67305 -0.900498 0
M  V30 4602 H 445.128 -1.93722 -3.36755 0
M  V30 4603 H 446.8 -4.15823 -1.99722 0
M  V30 4604 H 445.043 -3.93989 -1.81535 0
M  V30 4605 H 445.714 -4.35138 -3.39646 0
M  V30 4606 H 448.19 -2.42456 -3.38163 0
M  V30 4607 H 447.066 -2.82694 -4.70506 0
M  V30 4608 H 447.327 -1.14522 -4.27009 0
M  V30 4609 N 446.386 1.0089 -1.21074 0
M  V30 4610 C 447.349 2.0775 -0.968129 0
M  V30 4611 C 448.349 1.6069 0.0593445 0
M  V30 4612 O 449.539 1.73293 -0.177525 0
M  V30 4613 C 446.671 3.37794 -0.459108 0
M  V30 4614 H 447.864 2.30707 -1.9161 0
M  V30 4615 H 445.417 1.17807 -1.02719 0
M  V30 4616 H 446.152 3.20516 0.49397 0
M  V30 4617 H 445.937 3.7328 -1.20019 0
M  V30 4618 H 447.427 4.16454 -0.309099 0
M  V30 4619 N 447.864 1.01787 1.20321 0
M  V30 4620 C 449.11 0.708985 1.90003 0
M  V30 4621 C 449.443 -0.759572 1.78729 0
M  V30 4622 O 448.718 -1.55198 1.17234 0
M  V30 4623 C 449.001 1.1469 3.41348 0
M  V30 4624 C 448.854 2.67586 3.61549 0
M  V30 4625 C 450.173 0.71915 4.34185 0
M  V30 4626 H 447.292 0.259034 0.689978 0
M  V30 4627 H 449.934 1.26584 1.41692 0
M  V30 4628 H 448.084 0.673128 3.82624 0
M  V30 4629 H 449.756 3.22826 3.29517 0
M  V30 4630 H 447.999 3.085 3.04976 0
M  V30 4631 H 448.67 2.93281 4.67643 0
M  V30 4632 H 451.146 1.12647 4.00562 0
M  V30 4633 H 450.022 1.05358 5.38694 0
M  V30 4634 H 450.283 -0.379111 4.40472 0
M  V30 4635 N 449.342 -1.36122 0.79427 0
M  V30 4636 C 450.57 -2.03362 0.380989 0
M  V30 4637 C 450.985 -1.59881 -1.00416 0
M  V30 4638 O 450.342 -0.790515 -1.6449 0
M  V30 4639 C 450.393 -3.58804 0.440649 0
M  V30 4640 O 450.114 -4.007 1.77118 0
M  V30 4641 C 451.615 -4.43296 0.0186117 0
M  V30 4642 H 448.835 -0.652526 0.156367 0
M  V30 4643 H 451.379 -1.73998 1.07447 0
M  V30 4644 H 449.534 -3.8686 -0.204458 0
M  V30 4645 H 449.948 -4.95309 1.72538 0
M  V30 4646 H 451.422 -5.51887 0.111488 0
M  V30 4647 H 451.899 -4.2684 -1.03461 0
M  V30 4648 H 452.505 -4.20512 0.636395 0
M  V30 4649 N 450.82 -0.546701 -1.47814 0
M  V30 4650 C 452.067 -0.0187407 -2.02491 0
M  V30 4651 C 452.395 1.32685 -1.42215 0
M  V30 4652 O 451.65 1.87413 -0.563454 0
M  V30 4653 C 451.949 0.134869 -3.57145 0
M  V30 4654 C 451.615 -1.13849 -4.3629 0
M  V30 4655 C 450.277 -1.48743 -4.57634 0
M  V30 4656 C 452.629 -1.98277 -4.82012 0
M  V30 4657 C 449.957 -2.67932 -5.21948 0
M  V30 4658 C 452.309 -3.16659 -5.4764 0
M  V30 4659 C 450.973 -3.51879 -5.67219 0
M  V30 4660 H 450.243 -0.0068577 -0.740968 0
M  V30 4661 H 452.89 -0.716097 -1.77607 0
M  V30 4662 H 451.195 0.915118 -3.80963 0
M  V30 4663 H 452.892 0.558556 -3.97091 0
M  V30 4664 H 449.482 -0.856767 -4.19949 0
M  V30 4665 H 453.666 -1.72628 -4.6531 0
M  V30 4666 H 448.922 -2.95401 -5.35302 0
M  V30 4667 H 453.096 -3.82374 -5.82033 0
M  V30 4668 H 450.723 -4.44331 -6.16825 0
M  V30 4669 N 452.299 1.55045 -0.282633 0
M  V30 4670 C 453.547 1.99365 0.331334 0
M  V30 4671 C 453.868 1.1725 1.55812 0
M  V30 4672 O 453.138 0.263871 1.94115 0
M  V30 4673 H 451.718 0.736397 0.125414 0
M  V30 4674 H 454.38 1.90964 -0.389711 0
M  V30 4675 H 453.476 3.0596 0.616036 0
M  V30 4676 N 453.777 0.010035 1.57597 0
M  V30 4677 C 454.687 -0.994226 2.12491 0
M  V30 4678 C 455.703 -1.37013 1.07254 0
M  V30 4679 O 456.879 -1.45542 1.3921 0
M  V30 4680 C 453.944 -2.2642 2.62555 0
M  V30 4681 C 453.005 -1.95049 3.82432 0
M  V30 4682 C 452.238 -3.15991 4.30099 0
M  V30 4683 O 452.461 -4.28015 3.7704 0
M  V30 4684 O 451.395 -2.99403 5.22151 0
M  V30 4685 H 455.221 -0.557549 2.98538 0
M  V30 4686 H 452.806 -0.209413 1.47925 0
M  V30 4687 H 454.688 -3.01009 2.9491 0
M  V30 4688 H 453.363 -2.69306 1.796 0
M  V30 4689 H 452.27 -1.17904 3.55034 0
M  V30 4690 H 453.603 -1.56992 4.66491 0
M  V30 4691 N 455.255 -1.55392 -0.262866 0
M  V30 4692 C 456.202 -1.88966 -1.32516 0
M  V30 4693 C 457.172 -0.742187 -1.48596 0
M  V30 4694 O 458.357 -0.99439 -1.62839 0
M  V30 4695 C 455.497 -2.17592 -2.67858 0
M  V30 4696 C 454.61 -3.45061 -2.59917 0
M  V30 4697 C 453.745 -3.63336 -3.87505 0
M  V30 4698 C 452.784 -4.84462 -3.74116 0
M  V30 4699 N 451.921 -4.99342 -4.93561 0
M  V30 4700 H 456.761 -2.79566 -1.03184 0
M  V30 4701 H 454.298 -1.38404 -0.498285 0
M  V30 4702 H 456.256 -2.3219 -3.46617 0
M  V30 4703 H 454.886 -1.30215 -2.95371 0
M  V30 4704 H 453.938 -3.38881 -1.72812 0
M  V30 4705 H 455.25 -4.3396 -2.45926 0
M  V30 4706 H 454.404 -3.77807 -4.74707 0
M  V30 4707 H 453.143 -2.72641 -4.04374 0
M  V30 4708 H 452.148 -4.69985 -2.85297 0
M  V30 4709 H 453.373 -5.76603 -3.58757 0
M  V30 4710 H 451.319 -4.1158 -5.10821 0
M  V30 4711 H 451.236 -5.82303 -4.82141 0
M  V30 4712 H 452.504 -5.18208 -5.82306 0
M  V30 4713 N 456.733 0.527833 -1.48498 0
M  V30 4714 C 457.663 1.64136 -1.66077 0
M  V30 4715 C 458.644 1.62286 -0.509625 0
M  V30 4716 O 459.829 1.79449 -0.742413 0
M  V30 4717 C 456.959 3.02717 -1.70234 0
M  V30 4718 C 455.913 3.19426 -2.8487 0
M  V30 4719 C 455.239 4.5909 -2.74118 0
M  V30 4720 C 456.539 3.01993 -4.26142 0
M  V30 4721 H 458.233 1.4968 -2.593 0
M  V30 4722 H 455.779 0.718654 -1.24785 0
M  V30 4723 H 457.732 3.80491 -1.8112 0
M  V30 4724 H 456.456 3.18201 -0.735911 0
M  V30 4725 H 455.115 2.4407 -2.73542 0
M  V30 4726 H 454.763 4.71413 -1.7544 0
M  V30 4727 H 454.463 4.71214 -3.51042 0
M  V30 4728 H 455.987 5.3896 -2.86974 0
M  V30 4729 H 457.401 3.69558 -4.38292 0
M  V30 4730 H 455.798 3.2561 -5.04082 0
M  V30 4731 H 456.868 1.98396 -4.42456 0
M  V30 4732 N 458.211 1.37122 0.776871 0
M  V30 4733 C 459.141 1.35164 1.90402 0
M  V30 4734 C 460.122 0.221069 1.68657 0
M  V30 4735 O 461.307 0.420642 1.8959 0
M  V30 4736 C 458.437 1.15274 3.27611 0
M  V30 4737 C 457.391 2.25289 3.63908 0
M  V30 4738 C 456.717 1.90527 4.99603 0
M  V30 4739 C 458.017 3.67446 3.71188 0
M  V30 4740 H 459.711 2.29482 1.92297 0
M  V30 4741 H 457.257 1.10465 0.923773 0
M  V30 4742 H 459.21 1.12536 4.06096 0
M  V30 4743 H 457.934 0.174102 3.26136 0
M  V30 4744 H 456.593 2.27174 2.87728 0
M  V30 4745 H 456.241 0.91206 4.94662 0
M  V30 4746 H 455.941 2.64193 5.24858 0
M  V30 4747 H 457.465 1.89367 5.80493 0
M  V30 4748 H 458.879 3.67719 4.39836 0
M  V30 4749 H 457.276 4.40123 4.07936 0
M  V30 4750 H 458.346 4.01443 2.71977 0
M  V30 4751 N 459.689 -1.00246 1.21608 0
M  V30 4752 C 460.937 -1.73717 1.0328 0
M  V30 4753 C 461.258 -1.90102 -0.434318 0
M  V30 4754 O 460.528 -1.45376 -1.31311 0
M  V30 4755 H 459.108 -0.643613 0.379172 0
M  V30 4756 H 461.77 -1.20787 1.52959 0
M  V30 4757 H 460.866 -2.73535 1.50283 0
M  V30 4758 N 461.167 -1.02423 -1.1978 0
M  V30 4759 C 462.413 -0.719051 -1.89625 0
M  V30 4760 C 462.746 0.750083 -1.7913 0
M  V30 4761 O 462.021 1.54574 -1.18056 0
M  V30 4762 C 462.304 -1.16499 -3.40735 0
M  V30 4763 C 462.157 -2.695 -3.60125 0
M  V30 4764 C 463.476 -0.742166 -4.33797 0
M  V30 4765 H 460.595 -0.26269 -0.688595 0
M  V30 4766 H 463.237 -1.27333 -1.41018 0
M  V30 4767 H 461.387 -0.69341 -3.82262 0
M  V30 4768 H 463.059 -3.24569 -3.278 0
M  V30 4769 H 461.302 -3.10113 -3.03336 0
M  V30 4770 H 461.973 -2.95757 -4.66081 0
M  V30 4771 H 464.449 -1.1477 -3.99959 0
M  V30 4772 H 463.325 -1.08213 -5.38127 0
M  V30 4773 H 463.586 0.355747 -4.40666 0
M  V30 4774 N 462.645 1.35699 -0.801477 0
M  V30 4775 C 463.578 2.2768 -0.153922 0
M  V30 4776 C 464.556 1.47832 0.67709 0
M  V30 4777 O 465.74 1.77104 0.645474 0
M  V30 4778 C 462.867 3.2943 0.786986 0
M  V30 4779 C 461.913 4.26485 0.0362447 0
M  V30 4780 S 462.746 5.19573 -1.2963 0
M  V30 4781 C 463.902 6.24866 -0.359705 0
M  V30 4782 H 464.135 2.82254 -0.9338 0
M  V30 4783 H 461.668 1.42421 -0.596283 0
M  V30 4784 H 463.626 3.8855 1.32436 0
M  V30 4785 H 462.287 2.73745 1.54021 0
M  V30 4786 H 461.48 4.98378 0.750668 0
M  V30 4787 H 461.082 3.71508 -0.431017 0
M  V30 4788 H 463.374 6.75957 0.456954 0
M  V30 4789 H 464.317 7.00307 -1.04768 0
M  V30 4790 H 464.725 5.64484 0.0423274 0
M  V30 4791 N 464.123 0.554532 1.47522 0
M  V30 4792 C 465.086 -0.184174 2.28459 0
M  V30 4793 C 466.086 -0.845195 1.36796 0
M  V30 4794 O 467.276 -0.701467 1.59452 0
M  V30 4795 C 464.408 -1.26903 3.16399 0
M  V30 4796 H 465.601 0.526751 2.95238 0
M  V30 4797 H 463.154 0.311375 1.53167 0
M  V30 4798 H 463.889 -2.01244 2.54306 0
M  V30 4799 H 463.674 -0.799883 3.83854 0
M  V30 4800 H 465.164 -1.78794 3.77389 0
M  V30 4801 N 465.601 -1.54893 0.290851 0
M  V30 4802 C 466.847 -2.00949 -0.314784 0
M  V30 4803 C 467.202 -1.1757 -1.52299 0
M  V30 4804 O 466.495 -0.241558 -1.90071 0
M  V30 4805 C 466.689 -3.49815 -0.732397 0
M  V30 4806 C 466.518 -4.47603 0.433799 0
M  V30 4807 C 465.288 -4.96806 0.922599 0
M  V30 4808 C 467.486 -4.98233 1.27546 0
M  V30 4809 N 465.468 -5.78426 2.05662 0
M  V30 4810 C 466.839 -5.77455 2.25712 0
M  V30 4811 C 468.894 -4.80439 1.307 0
M  V30 4812 C 467.597 -6.40778 3.26796 0
M  V30 4813 C 469.623 -5.44574 2.30637 0
M  V30 4814 C 468.985 -6.23619 3.27533 0
M  V30 4815 H 465.084 -0.777905 -0.0799257 0
M  V30 4816 H 467.668 -1.9015 0.418458 0
M  V30 4817 H 465.839 -3.60925 -1.43483 0
M  V30 4818 H 467.571 -3.82681 -1.31671 0
M  V30 4819 H 464.326 -4.70961 0.49926 0
M  V30 4820 H 464.75 -6.23923 2.62772 0
M  V30 4821 H 469.392 -4.18918 0.571622 0
M  V30 4822 H 467.11 -7.01439 4.01258 0
M  V30 4823 H 470.696 -5.32739 2.33838 0
M  V30 4824 H 469.576 -6.72367 4.03599 0
M  V30 4825 N 467.08 -0.0183926 -1.57589 0
M  V30 4826 C 468.329 0.66185 -1.90532 0
M  V30 4827 C 468.642 1.73904 -0.895366 0
M  V30 4828 O 469.848 2.47518 -1.11566 0
M  V30 4829 C 468.304 1.22844 -3.38286 0
M  V30 4830 C 467.912 0.185103 -4.47617 0
M  V30 4831 C 469.656 1.88581 -3.80312 0
M  V30 4832 C 467.563 0.762723 -5.86461 0
M  V30 4833 H 466.493 0.250972 -0.711006 0
M  V30 4834 H 469.144 -0.0819435 -1.83317 0
M  V30 4835 H 467.526 2.0235 -3.40398 0
M  V30 4836 H 468.7 -0.58671 -4.5705 0
M  V30 4837 H 467.015 -0.372889 -4.14727 0
M  V30 4838 H 469.612 2.32735 -4.81392 0
M  V30 4839 H 469.955 2.72408 -3.14801 0
M  V30 4840 H 470.488 1.15782 -3.80578 0
M  V30 4841 H 467.227 -0.0371713 -6.55489 0
M  V30 4842 H 466.747 1.50327 -5.80656 0
M  V30 4843 H 468.426 1.25576 -6.34697 0
M  V30 4844 N 468.558 1.5553 0.254621 0
M  V30 4845 C 469.491 1.84624 1.34124 0
M  V30 4846 C 470.469 0.700693 1.46728 0
M  V30 4847 O 471.653 0.94564 1.63064 0
M  V30 4848 C 468.78 2.02412 2.71564 0
M  V30 4849 C 467.826 3.25028 2.7615 0
M  V30 4850 S 468.659 4.81893 2.33538 0
M  V30 4851 C 469.815 5.02677 3.72917 0
M  V30 4852 H 470.048 2.76501 1.09245 0
M  V30 4853 H 467.581 1.47537 0.455211 0
M  V30 4854 H 469.539 2.13345 3.50705 0
M  V30 4855 H 468.2 1.11391 2.93685 0
M  V30 4856 H 467.393 3.34418 3.77069 0
M  V30 4857 H 466.995 3.12781 2.05046 0
M  V30 4858 H 469.287 4.89546 4.68349 0
M  V30 4859 H 470.23 6.0468 3.68467 0
M  V30 4860 H 470.638 4.30561 3.65072 0
M  V30 4861 N 470.036 -0.519951 1.48776 0
M  V30 4862 C 471.447 -1.10177 1.50725 0
M  V30 4863 C 471.798 -1.94153 0.282678 0
M  V30 4864 O 470.923 -2.07645 -0.609298 0
M  V30 4865 C 471.518 -2.00482 2.73116 0
M  V30 4866 C 470.077 -2.53862 2.77905 0
M  V30 4867 C 469.224 -1.31047 2.44381 0
M  V30 4868 H 472.175 -0.30473 1.55747 0
M  V30 4869 H 472.196 -2.8491 2.52203 0
M  V30 4870 H 471.708 -1.39335 3.62225 0
M  V30 4871 H 469.809 -3.18702 1.93029 0
M  V30 4872 H 469.922 -2.9231 3.79594 0
M  V30 4873 H 468.286 -1.62953 1.95751 0
M  V30 4874 H 469.069 -0.71637 3.35743 0
M  V30 4875 N 471.514 -1.37532 -0.769588 0
M  V30 4876 C 472.763 -1.32183 -1.5235 0
M  V30 4877 C 473.076 0.0906555 -1.9539 0
M  V30 4878 O 474.282 0.266628 -2.70188 0
M  V30 4879 C 472.738 -2.32029 -2.75119 0
M  V30 4880 C 472.346 -3.78816 -2.3917 0
M  V30 4881 C 474.09 -2.35694 -3.53056 0
M  V30 4882 C 471.997 -4.70388 -3.58453 0
M  V30 4883 H 470.927 -0.491275 -0.571984 0
M  V30 4884 H 473.578 -1.63004 -0.842739 0
M  V30 4885 H 471.96 -1.94229 -3.45096 0
M  V30 4886 H 473.134 -4.25466 -1.76962 0
M  V30 4887 H 471.449 -3.78117 -1.74402 0
M  V30 4888 H 474.046 -3.01312 -4.41718 0
M  V30 4889 H 474.389 -1.37117 -3.93071 0
M  V30 4890 H 474.922 -2.72212 -2.90078 0
M  V30 4891 H 471.661 -5.70102 -3.23518 0
M  V30 4892 H 471.181 -4.28442 -4.19758 0
M  V30 4893 H 472.86 -4.87628 -4.25239 0
M  V30 4894 N 472.992 0.995999 -1.22138 0
M  V30 4895 C 474.217 1.77601 -1.0711 0
M  V30 4896 C 474.642 1.84339 0.374264 0
M  V30 4897 O 474 1.29359 1.27028 0
M  V30 4898 C 474.048 3.18897 -1.68336 0
M  V30 4899 O 473.152 4.01663 -0.934928 0
M  V30 4900 H 472.493 0.547011 -0.376397 0
M  V30 4901 H 475.023 1.25137 -1.6187 0
M  V30 4902 H 475.033 3.69539 -1.72931 0
M  V30 4903 H 473.708 3.13308 -2.73516 0
M  V30 4904 H 472.285 3.60204 -0.964751 0
M  V30 4905 N 474.47 1.03057 1.19235 0
M  V30 4906 C 475.716 0.729098 1.89241 0
M  V30 4907 C 476.049 -0.740573 1.79525 0
M  V30 4908 O 475.324 -1.53946 1.18874 0
M  V30 4909 C 475.607 1.18304 3.40112 0
M  V30 4910 C 475.46 2.71406 3.5869 0
M  V30 4911 C 476.779 0.765161 4.33397 0
M  V30 4912 H 473.898 0.266338 0.687192 0
M  V30 4913 H 476.54 1.28079 1.40341 0
M  V30 4914 H 474.69 0.713672 3.81889 0
M  V30 4915 H 476.362 3.26303 3.26074 0
M  V30 4916 H 474.605 3.11717 3.01687 0
M  V30 4917 H 475.276 2.98225 4.64506 0
M  V30 4918 H 477.752 1.16889 3.99345 0
M  V30 4919 H 476.628 1.11065 5.37546 0
M  V30 4920 H 476.889 -0.332372 4.40849 0
M  V30 4921 N 475.948 -1.35272 0.808662 0
M  V30 4922 C 476.911 -2.28082 0.226093 0
M  V30 4923 C 477.911 -1.49673 -0.587762 0
M  V30 4924 O 479.101 -1.69404 -0.405943 0
M  V30 4925 C 476.233 -3.33955 -0.684596 0
M  V30 4926 H 477.426 -2.81116 1.04469 0
M  V30 4927 H 474.979 -1.45162 0.579466 0
M  V30 4928 H 475.714 -2.86111 -1.5268 0
M  V30 4929 H 475.499 -3.91965 -0.102699 0
M  V30 4930 H 476.989 -4.03219 -1.08646 0
M  V30 4931 N 477.426 -0.562348 -1.47226 0
M  V30 4932 C 478.356 0.170627 -2.32876 0
M  V30 4933 C 479.337 0.903748 -1.44106 0
M  V30 4934 O 480.522 0.883206 -1.72954 0
M  V30 4935 C 477.652 1.19786 -3.25989 0
M  V30 4936 C 476.606 0.580875 -4.2404 0
M  V30 4937 C 475.932 1.71311 -5.06514 0
M  V30 4938 C 477.232 -0.468714 -5.20193 0
M  V30 4939 H 478.926 -0.544441 -2.94408 0
M  V30 4940 H 476.472 -0.263271 -1.41573 0
M  V30 4941 H 478.425 1.71884 -3.84752 0
M  V30 4942 H 477.149 1.94294 -2.62521 0
M  V30 4943 H 475.808 0.0811538 -3.6651 0
M  V30 4944 H 475.456 2.44736 -4.39447 0
M  V30 4945 H 475.156 1.30604 -5.72902 0
M  V30 4946 H 476.68 2.23725 -5.68137 0
M  V30 4947 H 478.094 -0.0336028 -5.7329 0
M  V30 4948 H 476.491 -0.794957 -5.94811 0
M  V30 4949 H 477.561 -1.36269 -4.65359 0
M  V30 4950 N 478.904 1.54736 -0.299062 0
M  V30 4951 C 480.129 2.04975 0.316254 0
M  V30 4952 C 480.554 1.17501 1.46885 0
M  V30 4953 O 479.912 0.178678 1.80417 0
M  V30 4954 C 479.96 3.52672 0.751997 0
M  V30 4955 O 479.064 3.68226 1.85697 0
M  V30 4956 H 478.405 0.661126 0.0617175 0
M  V30 4957 H 480.935 1.99805 -0.440341 0
M  V30 4958 H 480.945 3.94488 1.04133 0
M  V30 4959 H 479.62 4.158 -0.0911482 0
M  V30 4960 H 478.197 3.38316 1.56834 0
M  V30 4961 N 480.382 0.0267497 1.57577 0
M  V30 4962 C 481.61 -0.662661 1.96001 0
M  V30 4963 C 482.025 -1.65799 0.903117 0
M  V30 4964 O 481.382 -1.82135 -0.115317 0
M  V30 4965 C 481.433 -1.37112 3.34488 0
M  V30 4966 O 481.154 -0.415683 4.36123 0
M  V30 4967 C 482.655 -2.15257 3.8753 0
M  V30 4968 H 479.875 -0.18287 0.6456 0
M  V30 4969 H 482.419 0.0858116 2.0432 0
M  V30 4970 H 480.574 -2.07101 3.27395 0
M  V30 4971 H 480.988 -0.918496 5.16395 0
M  V30 4972 H 482.462 -2.60285 4.86781 0
M  V30 4973 H 482.939 -2.99063 3.21649 0
M  V30 4974 H 483.545 -1.50231 3.97883 0
M  V30 4975 N 481.861 -1.55662 -0.24637 0
M  V30 4976 C 483.108 -1.77519 -0.974335 0
M  V30 4977 C 483.436 -0.591165 -1.85298 0
M  V30 4978 O 482.691 0.425497 -1.91018 0
M  V30 4979 C 482.99 -3.04885 -1.86494 0
M  V30 4980 C 482.656 -4.36209 -1.14161 0
M  V30 4981 C 481.318 -4.71896 -0.941701 0
M  V30 4982 C 483.67 -5.17391 -0.628957 0
M  V30 4983 C 480.998 -5.86299 -0.216852 0
M  V30 4984 C 483.35 -6.32546 0.0824273 0
M  V30 4985 C 482.014 -6.66853 0.293807 0
M  V30 4986 H 481.284 -0.649588 -0.356535 0
M  V30 4987 H 483.931 -1.89934 -0.244394 0
M  V30 4988 H 482.236 -2.87484 -2.66196 0
M  V30 4989 H 483.933 -3.18994 -2.42989 0
M  V30 4990 H 480.523 -4.08174 -1.30736 0
M  V30 4991 H 484.707 -4.90276 -0.770943 0
M  V30 4992 H 479.963 -6.11385 -0.0426124 0
M  V30 4993 H 484.137 -6.94693 0.487292 0
M  V30 4994 H 481.764 -7.55349 0.857428 0
M  V30 4995 N 483.339 0.512053 -1.4905 0
M  V30 4996 C 484.587 1.26436 -1.57665 0
M  V30 4997 C 484.908 1.93255 -0.260293 0
M  V30 4998 O 484.178 1.82206 0.719564 0
M  V30 4999 H 482.758 0.469658 -0.580888 0
M  V30 5000 H 485.42 0.594398 -1.85615 0
M  V30 5001 H 484.516 2.03417 -2.36702 0
M  V30 5002 N 484.817 1.37938 0.762283 0
M  V30 5003 C 486.065 1.33404 1.51815 0
M  V30 5004 C 486.386 -0.0780975 1.94844 0
M  V30 5005 O 485.656 -1.02405 1.67003 0
M  V30 5006 H 484.236 0.490839 0.563104 0
M  V30 5007 H 486.898 1.72527 0.906669 0
M  V30 5008 H 485.994 1.97926 2.41313 0
M  V30 5009 N 486.295 -0.989507 1.22664 0
M  V30 5010 C 487.541 -1.7321 1.05481 0
M  V30 5011 C 487.874 -1.89852 -0.408635 0
M  V30 5012 O 487.149 -1.44416 -1.30285 0
M  V30 5013 C 487.432 -3.1357 1.77047 0
M  V30 5014 C 487.285 -3.04555 3.31008 0
M  V30 5015 C 488.604 -4.12812 1.5256 0
M  V30 5016 H 485.723 -0.628697 0.384589 0
M  V30 5017 H 488.365 -1.15258 1.51049 0
M  V30 5018 H 486.515 -3.63046 1.3831 0
M  V30 5019 H 488.187 -2.62674 3.7921 0
M  V30 5020 H 486.43 -2.41278 3.6051 0
M  V30 5021 H 487.101 -4.03894 3.76263 0
M  V30 5022 H 489.577 -3.72106 1.86215 0
M  V30 5023 H 488.453 -5.09132 2.05124 0
M  V30 5024 H 488.714 -4.39711 0.458936 0
M  V30 5025 N 487.773 -1.03688 -1.18687 0
M  V30 5026 C 488.721 -0.618292 -2.24232 0
M  V30 5027 C 489.715 0.353045 -1.6568 0
M  V30 5028 O 490.921 0.220749 -1.78641 0
M  V30 5029 H 487.296 -0.181711 -0.729716 0
M  V30 5030 H 489.267 -1.51893 -2.56848 0
M  V30 5031 C 488.016 0.00677342 -3.47699 0
M  V30 5032 H 487.339 -0.731692 -3.93047 0
M  V30 5033 H 488.779 0.262492 -4.23187 0
M  V30 5034 C 487.238 1.25572 -3.12623 0
M  V30 5035 O 487.768 2.34691 -3.26011 0
M  V30 5036 N 485.974 1.14755 -2.66982 0
M  V30 5037 H 485.521 0.259601 -2.56289 0
M  V30 5038 H 485.479 1.98412 -2.43885 0
M  V30 5039 N 489.251 1.34841 -0.815825 0
M  V30 5040 C 490.499 1.98107 -0.399744 0
M  V30 5041 C 490.82 1.65019 1.03894 0
M  V30 5042 O 490.09 0.937311 1.72021 0
M  V30 5043 H 488.67 0.732827 -0.144823 0
M  V30 5044 H 491.332 1.64599 -1.0437 0
M  V30 5045 H 490.428 3.07856 -0.512965 0
M  V30 5046 N 490.729 0.570148 1.46925 0
M  V30 5047 C 491.954 0.0542592 2.07329 0
M  V30 5048 C 492.379 -1.23582 1.41806 0
M  V30 5049 O 491.737 -1.74341 0.497479 0
M  V30 5050 C 491.785 -0.111175 3.60429 0
M  V30 5051 O 490.889 -1.17071 3.95434 0
M  V30 5052 H 490.23 0.0571425 0.661537 0
M  V30 5053 H 492.76 0.789516 1.88753 0
M  V30 5054 H 492.77 -0.321315 4.06733 0
M  V30 5055 H 491.445 0.831012 4.07513 0
M  V30 5056 H 490.022 -0.940029 3.60857 0
M  V30 5057 N 492.207 -1.54576 0.307264 0
M  V30 5058 C 493.137 -2.26708 -0.55907 0
M  V30 5059 C 494.118 -1.26893 -1.1328 0
M  V30 5060 O 495.303 -1.55677 -1.16097 0
M  V30 5061 C 492.433 -3.01259 -1.72801 0
M  V30 5062 C 491.387 -4.08275 -1.28435 0
M  V30 5063 C 490.713 -4.70575 -2.53895 0
M  V30 5064 C 492.013 -5.2068 -0.411038 0
M  V30 5065 H 493.707 -2.9937 0.042576 0
M  V30 5066 H 491.253 -1.43983 0.0219173 0
M  V30 5067 H 493.206 -3.50444 -2.34023 0
M  V30 5068 H 491.93 -2.26187 -2.356 0
M  V30 5069 H 490.589 -3.59949 -0.695161 0
M  V30 5070 H 490.237 -3.92136 -3.15021 0
M  V30 5071 H 489.937 -5.42854 -2.24908 0
M  V30 5072 H 491.461 -5.22527 -3.15908 0
M  V30 5073 H 492.875 -5.65721 -0.929097 0
M  V30 5074 H 491.272 -5.99716 -0.214664 0
M  V30 5075 H 492.342 -4.81629 0.562287 0
M  V30 5076 N 493.685 -0.035106 -1.57561 0
M  V30 5077 C 494.932 0.642229 -1.92046 0
M  V30 5078 C 495.26 1.7179 -0.91206 0
M  V30 5079 O 494.515 1.95544 0.0781153 0
M  V30 5080 C 494.814 1.29149 -3.3325 0
M  V30 5081 C 494.48 0.345604 -4.49574 0
M  V30 5082 C 493.142 0.0852775 -4.81124 0
M  V30 5083 C 495.494 -0.303569 -5.20315 0
M  V30 5084 C 492.822 -0.831927 -5.80772 0
M  V30 5085 C 495.174 -1.20886 -6.20942 0
M  V30 5086 C 493.838 -1.47802 -6.50931 0
M  V30 5087 H 493.108 0.235008 -0.702746 0
M  V30 5088 H 495.755 -0.0981529 -1.91248 0
M  V30 5089 H 494.06 2.10676 -3.30337 0
M  V30 5090 H 495.757 1.82223 -3.57205 0
M  V30 5091 H 492.347 0.558683 -4.24943 0
M  V30 5092 H 496.531 -0.115515 -4.96166 0
M  V30 5093 H 491.787 -1.0481 -6.02349 0
M  V30 5094 H 495.961 -1.71804 -6.74875 0
M  V30 5095 H 493.588 -2.19039 -7.2796 0
M  V30 5096 N 495.163 1.55791 0.238111 0
M  V30 5097 C 496.391 1.82098 0.982233 0
M  V30 5098 C 496.806 0.612025 1.78605 0
M  V30 5099 O 496.163 -0.419381 1.77616 0
M  V30 5100 C 496.214 3.0673 1.91309 0
M  V30 5101 O 495.935 4.2296 1.14179 0
M  V30 5102 C 497.436 3.45903 2.77248 0
M  V30 5103 H 494.656 0.605748 0.288635 0
M  V30 5104 H 497.2 2.02862 0.258341 0
M  V30 5105 H 495.355 2.87991 2.59114 0
M  V30 5106 H 495.769 4.93653 1.7722 0
M  V30 5107 H 497.243 4.36189 3.38295 0
M  V30 5108 H 497.72 2.66891 3.48806 0
M  V30 5109 H 498.326 3.67024 2.14881 0
M  V30 5110 N 496.642 -0.504142 1.49319 0
M  V30 5111 C 497.867 -1.28729 1.62615 0
M  V30 5112 C 498.292 -1.85752 0.296309 0
M  V30 5113 O 497.65 -1.65704 -0.735649 0
M  V30 5114 C 497.698 -2.39561 2.69524 0
M  V30 5115 O 496.802 -3.43324 2.28478 0
M  V30 5116 H 496.143 -0.380172 0.544395 0
M  V30 5117 H 498.673 -0.603872 1.95485 0
M  V30 5118 H 498.683 -2.8537 2.91595 0
M  V30 5119 H 497.358 -1.97423 3.66056 0
M  V30 5120 H 495.935 -3.03455 2.16725 0
M  V30 5121 N 498.12 -1.38341 -0.754957 0
M  V30 5122 C 499.345 -1.37882 -1.5493 0
M  V30 5123 C 499.77 0.0296385 -1.88077 0
M  V30 5124 O 499.128 1.01133 -1.50472 0
M  V30 5125 C 499.176 -2.23996 -2.82592 0
M  V30 5126 O 498.28 -1.65612 -3.77686 0
M  V30 5127 H 497.621 -0.470384 -0.468652 0
M  V30 5128 H 500.151 -1.82084 -0.933082 0
M  V30 5129 H 500.161 -2.37806 -3.3153 0
M  V30 5130 H 498.836 -3.26365 -2.57796 0
M  V30 5131 H 497.413 -1.60936 -3.36384 0
M  V30 5132 N 499.598 0.982988 -1.23187 0
M  V30 5133 C 501.014 1.2487 -0.993967 0
M  V30 5134 C 501.214 1.99155 0.306498 0
M  V30 5135 O 500.27 2.30688 1.0266 0
M  V30 5136 C 501.583 2.05078 -2.19917 0
M  V30 5137 C 503.131 2.18227 -2.2438 0
M  V30 5138 C 503.606 3.01825 -3.44479 0
M  V30 5139 N 505.097 3.09411 -3.44702 0
M  V30 5140 C 505.832 3.74412 -4.34285 0
M  V30 5141 N 505.328 4.41259 -5.341 0
M  V30 5142 N 507.121 3.71273 -4.22035 0
M  V30 5143 H 499.272 0.485253 -2.06783 0
M  V30 5144 H 501.535 0.276979 -0.906635 0
M  V30 5145 H 501.241 1.57867 -3.14279 0
M  V30 5146 H 501.115 3.05829 -2.2079 0
M  V30 5147 H 503.502 2.64648 -1.30559 0
M  V30 5148 H 503.583 1.16873 -2.2754 0
M  V30 5149 H 503.227 2.56102 -4.38605 0
M  V30 5150 H 503.157 4.03342 -3.38559 0
M  V30 5151 H 505.648 2.61845 -2.7248 0
M  V30 5152 H 505.961 4.88629 -5.98717 0
M  V30 5153 H 504.306 4.39975 -5.38002 0
M  V30 5154 H 507.497 3.18217 -3.43301 0
M  V30 5155 H 507.67 4.21649 -4.92053 0
M  V30 5156 N 501.076 1.04316 1.18135 0
M  V30 5157 C 502.006 0.657299 2.24058 0
M  V30 5158 C 502.987 -0.340678 1.66654 0
M  V30 5159 O 504.172 -0.220223 1.92947 0
M  V30 5160 C 501.302 0.0220715 3.47293 0
M  V30 5161 C 500.256 0.943857 4.17463 0
M  V30 5162 C 499.582 0.172973 5.3442 0
M  V30 5163 C 500.882 2.26409 4.70677 0
M  V30 5164 H 502.576 1.5428 2.56589 0
M  V30 5165 H 500.122 0.743263 1.23335 0
M  V30 5166 H 502.075 -0.259607 4.206 0
M  V30 5167 H 500.799 -0.898323 3.14003 0
M  V30 5168 H 499.458 1.20996 3.46057 0
M  V30 5169 H 499.106 -0.749907 4.97379 0
M  V30 5170 H 498.806 0.787098 5.82304 0
M  V30 5171 H 500.33 -0.101628 6.10515 0
M  V30 5172 H 501.744 2.04294 5.35665 0
M  V30 5173 H 500.141 2.8314 5.29105 0
M  V30 5174 H 501.211 2.90883 3.87962 0
M  V30 5175 N 502.554 -1.34406 0.822964 0
M  V30 5176 C 503.801 -1.98284 0.411057 0
M  V30 5177 C 504.129 -1.65245 -1.02588 0
M  V30 5178 O 503.384 -0.91619 -1.72929 0
M  V30 5179 C 503.683 -3.52981 0.560268 0
M  V30 5180 C 503.349 -4.05931 1.96293 0
M  V30 5181 C 502.011 -4.20103 2.34664 0
M  V30 5182 C 504.363 -4.34412 2.87985 0
M  V30 5183 C 501.691 -4.60082 3.64062 0
M  V30 5184 C 504.043 -4.75838 4.16847 0
M  V30 5185 C 502.707 -4.88215 4.55195 0
M  V30 5186 H 501.977 -0.725573 0.150416 0
M  V30 5187 H 504.624 -1.60349 1.04692 0
M  V30 5188 H 502.929 -3.91477 -0.158982 0
M  V30 5189 H 504.626 -4.00385 0.222087 0
M  V30 5190 H 501.216 -3.95363 1.65487 0
M  V30 5191 H 505.4 -4.23001 2.59584 0
M  V30 5192 H 500.656 -4.67856 3.93599 0
M  V30 5193 H 504.83 -4.96834 4.87984 0
M  V30 5194 H 502.457 -5.18952 5.55512 0
M  V30 5195 N 504.032 -0.577932 -1.46621 0
M  V30 5196 C 505.279 -0.0616879 -2.02406 0
M  V30 5197 C 505.607 1.29638 -1.44997 0
M  V30 5198 O 504.862 1.86176 -0.60308 0
M  V30 5199 C 505.161 0.0590832 -3.57351 0
M  V30 5200 C 504.827 -1.23077 -4.33777 0
M  V30 5201 C 503.489 -1.58416 -4.54376 0
M  V30 5202 C 505.841 -2.08457 -4.77698 0
M  V30 5203 C 503.169 -2.78943 -5.16147 0
M  V30 5204 C 505.521 -3.28204 -5.408 0
M  V30 5205 C 504.185 -3.63832 -5.59627 0
M  V30 5206 H 503.455 -0.0225732 -0.740656 0
M  V30 5207 H 506.102 -0.753609 -1.76048 0
M  V30 5208 H 504.407 0.834104 -3.82818 0
M  V30 5209 H 506.104 0.474202 -3.98186 0
M  V30 5210 H 502.694 -0.945652 -4.18038 0
M  V30 5211 H 506.878 -1.82459 -4.61544 0
M  V30 5212 H 502.134 -3.06689 -5.28916 0
M  V30 5213 H 506.308 -3.94634 -5.73792 0
M  V30 5214 H 503.935 -4.57315 -6.07262 0
M  V30 5215 N 505.51 1.54411 -0.315457 0
M  V30 5216 C 506.473 2.22713 0.54142 0
M  V30 5217 C 507.473 1.2179 1.04995 0
M  V30 5218 O 508.663 1.46426 0.943667 0
M  V30 5219 C 505.795 2.92485 1.75116 0
M  V30 5220 H 506.988 2.99849 -0.0555508 0
M  V30 5221 H 504.541 1.56159 -0.0664453 0
M  V30 5222 H 505.276 2.19466 2.38758 0
M  V30 5223 H 505.061 3.66483 1.39401 0
M  V30 5224 H 506.551 3.44548 2.35959 0
M  V30 5225 N 506.988 0.0434614 1.5754 0
M  V30 5226 C 508.236 -0.630786 1.92004 0
M  V30 5227 C 508.557 -1.71836 0.921807 0
M  V30 5228 O 507.827 -1.9587 -0.034522 0
M  V30 5229 H 506.407 -0.235988 0.708745 0
M  V30 5230 H 509.069 0.0946462 1.9467 0
M  V30 5231 H 508.165 -1.07434 2.93026 0
M  V30 5232 N 508.466 -1.55915 -0.229846 0
M  V30 5233 C 509.429 -1.90914 -1.26824 0
M  V30 5234 C 510.429 -0.786999 -1.40225 0
M  V30 5235 O 511.619 -1.05484 -1.38632 0
M  V30 5236 C 508.751 -2.15264 -2.64337 0
M  V30 5237 H 509.944 -2.8378 -0.969998 0
M  V30 5238 H 507.497 -1.49069 -0.4699 0
M  V30 5239 H 508.232 -1.24923 -2.99274 0
M  V30 5240 H 508.017 -2.97005 -2.55989 0
M  V30 5241 H 509.507 -2.43467 -3.39284 0
M  V30 5242 N 509.944 0.496216 -1.49584 0
M  V30 5243 C 511.36 0.827814 -1.36453 0
M  V30 5244 C 511.56 1.97464 -0.401285 0
M  V30 5245 O 510.616 2.51958 0.165296 0
M  V30 5246 C 511.929 1.16352 -2.77277 0
M  V30 5247 C 513.477 1.27145 -2.86013 0
M  V30 5248 C 513.952 1.64042 -4.27615 0
M  V30 5249 N 515.443 1.71082 -4.30448 0
M  V30 5250 C 516.178 2.01085 -5.36984 0
M  V30 5251 N 515.674 2.2928 -6.5376 0
M  V30 5252 N 517.467 2.02376 -5.24405 0
M  V30 5253 H 509.618 -0.259947 -2.10803 0
M  V30 5254 H 511.881 -0.0537163 -0.946477 0
M  V30 5255 H 511.587 0.394153 -3.49484 0
M  V30 5256 H 511.461 2.10582 -3.12946 0
M  V30 5257 H 513.848 2.03152 -2.1404 0
M  V30 5258 H 513.929 0.309542 -2.5392 0
M  V30 5259 H 513.573 0.88583 -5.00115 0
M  V30 5260 H 513.503 2.6134 -4.57175 0
M  V30 5261 H 515.994 1.51434 -3.46232 0
M  V30 5262 H 516.307 2.51376 -7.30774 0
M  V30 5263 H 514.652 2.26726 -6.56978 0
M  V30 5264 H 517.843 1.79829 -4.32179 0
M  V30 5265 H 518.016 2.25425 -6.07526 0
M  V30 5266 N 511.423 1.38739 0.74761 0
M  V30 5267 C 512.333 1.38696 1.89211 0
M  V30 5268 C 513.349 0.283303 1.71678 0
M  V30 5269 O 514.525 0.522713 1.94498 0
M  V30 5270 C 511.59 1.21662 3.24653 0
M  V30 5271 C 510.651 2.41886 3.54669 0
M  V30 5272 C 509.884 2.25655 4.83648 0
M  V30 5273 O 510.107 1.25339 5.56459 0
M  V30 5274 O 509.041 3.14372 5.13277 0
M  V30 5275 H 512.867 2.35143 1.92202 0
M  V30 5276 H 510.452 1.19721 0.893708 0
M  V30 5277 H 512.334 1.14246 4.05618 0
M  V30 5278 H 511.009 0.283024 3.2246 0
M  V30 5279 H 509.916 2.54877 2.73841 0
M  V30 5280 H 511.249 3.33895 3.61628 0
M  V30 5281 N 512.901 -0.976442 1.23707 0
M  V30 5282 C 514.149 -1.71487 1.06942 0
M  V30 5283 C 514.47 -1.9098 -0.393897 0
M  V30 5284 O 513.74 -1.48128 -1.28198 0
M  V30 5285 H 512.32 -0.635425 0.392739 0
M  V30 5286 H 514.982 -1.17515 1.55487 0
M  V30 5287 H 514.078 -2.70286 1.56051 0
M  V30 5288 N 514.379 -1.04941 -1.1758 0
M  V30 5289 C 515.329 -0.618378 -2.19454 0
M  V30 5290 C 516.313 0.343813 -1.57184 0
M  V30 5291 O 517.505 0.16145 -1.76262 0
M  V30 5292 C 514.634 0.00803847 -3.43299 0
M  V30 5293 C 513.72 -0.977827 -4.12673 0
M  V30 5294 N 514.111 -2.14826 -4.57912 0
M  V30 5295 C 512.409 -0.805748 -4.38661 0
M  V30 5296 C 513.11 -2.77174 -5.11419 0
M  V30 5297 N 512.086 -2.04989 -5.03468 0
M  V30 5298 H 515.888 -1.51018 -2.52132 0
M  V30 5299 H 513.402 -0.919201 -1.33882 0
M  V30 5300 H 515.399 0.334584 -4.15555 0
M  V30 5301 H 514.059 0.895272 -3.12114 0
M  V30 5302 H 515.07 -2.52673 -4.52081 0
M  V30 5303 H 511.747 0.0306506 -4.17489 0
M  V30 5304 H 513.137 -3.76416 -5.56562 0
M  V30 5305 N 515.857 1.33968 -0.830081 0
M  V30 5306 C 516.787 2.31911 -0.271911 0
M  V30 5307 C 517.768 1.58571 0.61556 0
M  V30 5308 O 518.953 1.86514 0.540946 0
M  V30 5309 C 516.083 3.42737 0.561146 0
M  V30 5310 C 515.037 4.27383 -0.229789 0
M  V30 5311 C 514.363 5.29742 0.726463 0
M  V30 5312 C 515.663 5.02 -1.44197 0
M  V30 5313 H 517.357 2.78844 -1.09025 0
M  V30 5314 H 514.903 1.34061 -0.52571 0
M  V30 5315 H 516.856 4.10276 0.961867 0
M  V30 5316 H 515.58 2.94471 1.41261 0
M  V30 5317 H 514.239 3.61456 -0.611964 0
M  V30 5318 H 513.887 4.77736 1.57408 0
M  V30 5319 H 513.587 5.87255 0.20142 0
M  V30 5320 H 515.111 6.00149 1.12489 0
M  V30 5321 H 516.525 5.62355 -1.11488 0
M  V30 5322 H 514.922 5.69122 -1.90317 0
M  V30 5323 H 515.992 4.31281 -2.2164 0
M  V30 5324 N 517.335 0.585699 1.46312 0
M  V30 5325 C 518.746 0.159938 1.86014 0
M  V30 5326 C 519.097 -1.27775 1.48889 0
M  V30 5327 O 518.222 -1.96559 0.90519 0
M  V30 5328 C 518.817 0.283485 3.37612 0
M  V30 5329 C 517.376 -0.0874256 3.76298 0
M  V30 5330 C 516.523 0.618055 2.70325 0
M  V30 5331 H 519.474 0.793737 1.37425 0
M  V30 5332 H 519.495 -0.490348 3.77327 0
M  V30 5333 H 519.007 1.32995 3.64601 0
M  V30 5334 H 517.108 -1.13391 3.54927 0
M  V30 5335 H 517.221 0.290975 4.78216 0
M  V30 5336 H 515.585 0.057993 2.54634 0
M  V30 5337 H 516.368 1.66623 3.00153 0
M  V30 5338 N 518.813 -1.54241 0.323641 0
M  V30 5339 C 520.038 -2.05452 -0.283605 0
M  V30 5340 C 520.463 -1.19823 -1.44997 0
M  V30 5341 O 519.821 -0.207358 -1.8011 0
M  V30 5342 C 519.869 -3.53823 -0.695795 0
M  V30 5343 O 518.973 -3.71134 -1.79815 0
M  V30 5344 H 518.314 -0.662024 -0.0511917 0
M  V30 5345 H 520.844 -1.99079 0.472073 0
M  V30 5346 H 520.854 -3.96094 -0.978434 0
M  V30 5347 H 519.529 -4.15602 0.157287 0
M  V30 5348 H 518.106 -3.40768 -1.51431 0
M  V30 5349 N 520.291 -0.0518155 -1.57515 0
M  V30 5350 C 521.537 0.622745 -1.93002 0
M  V30 5351 C 521.87 1.70456 -0.930499 0
M  V30 5352 O 521.145 1.94452 0.0434086 0
M  V30 5353 C 521.428 1.21824 -3.38867 0
M  V30 5354 C 521.281 0.144434 -4.49568 0
M  V30 5355 C 522.6 2.12968 -3.8514 0
M  V30 5356 H 519.719 0.22491 -0.701844 0
M  V30 5357 H 522.361 -0.113711 -1.89659 0
M  V30 5358 H 520.511 1.8459 -3.41846 0
M  V30 5359 H 522.183 -0.48753 -4.58717 0
M  V30 5360 H 520.426 -0.527424 -4.30582 0
M  V30 5361 H 521.097 0.601127 -5.48717 0
M  V30 5362 H 523.573 1.60163 -3.8404 0
M  V30 5363 H 522.449 2.51578 -4.87852 0
M  V30 5364 H 522.71 3.03004 -3.21934 0
M  V30 5365 N 521.769 1.56035 0.221574 0
M  V30 5366 C 522.699 1.95434 1.2778 0
M  V30 5367 C 523.68 0.822564 1.48889 0
M  V30 5368 O 524.865 1.08486 1.61072 0
M  V30 5369 C 521.995 2.27102 2.62759 0
M  V30 5370 C 520.949 3.4277 2.56306 0
M  V30 5371 C 520.275 3.60043 3.95314 0
M  V30 5372 C 521.575 4.77742 2.11093 0
M  V30 5373 H 523.269 2.83912 0.950504 0
M  V30 5374 H 520.815 1.36596 0.455791 0
M  V30 5375 H 522.768 2.53256 3.36807 0
M  V30 5376 H 521.492 1.35478 2.97176 0
M  V30 5377 H 520.151 3.16664 1.84715 0
M  V30 5378 H 519.799 2.65794 4.27039 0
M  V30 5379 H 519.499 4.37841 3.91879 0
M  V30 5380 H 521.023 3.88545 4.71025 0
M  V30 5381 H 522.437 5.03102 2.74885 0
M  V30 5382 H 520.834 5.58823 2.18716 0
M  V30 5383 H 521.904 4.731 1.06321 0
M  V30 5384 N 523.247 -0.488276 1.49845 0
M  V30 5385 C 524.21 -1.57069 1.66919 0
M  V30 5386 C 525.21 -1.51445 0.540479 0
M  V30 5387 O 526.4 -1.5437 0.807188 0
M  V30 5388 C 523.532 -2.96718 1.67844 0
M  V30 5389 H 524.725 -1.43254 2.63474 0
M  V30 5390 H 522.278 -0.713435 1.39068 0
M  V30 5391 H 523.013 -3.15996 0.7292 0
M  V30 5392 H 522.798 -3.02208 2.49826 0
M  V30 5393 H 524.288 -3.75335 1.83066 0
M  V30 5394 N 524.725 -1.39134 -0.740242 0
M  V30 5395 C 525.658 -1.3182 -1.86276 0
M  V30 5396 C 526.636 -0.192794 -1.61453 0
M  V30 5397 O 527.82 -0.372365 -1.84786 0
M  V30 5398 C 524.947 -1.04564 -3.22155 0
M  V30 5399 C 523.993 -2.19224 -3.65846 0
M  V30 5400 S 524.826 -3.81466 -3.75824 0
M  V30 5401 C 525.982 -3.56425 -5.14502 0
M  V30 5402 H 526.215 -2.26822 -1.92195 0
M  V30 5403 H 523.748 -1.25127 -0.904576 0
M  V30 5404 H 525.706 -0.895228 -4.00619 0
M  V30 5405 H 524.367 -0.112578 -3.13898 0
M  V30 5406 H 523.56 -1.95732 -4.6444 0
M  V30 5407 H 523.162 -2.30441 -2.94572 0
M  V30 5408 H 525.454 -3.13366 -6.00673 0
M  V30 5409 H 526.397 -4.54462 -5.43019 0
M  V30 5410 H 526.805 -2.90641 -4.8393 0
M  V30 5411 N 526.204 0.969867 -1.24223 0
M  V30 5412 C 527.453 1.70687 -1.07466 0
M  V30 5413 C 527.766 1.91736 0.386861 0
M  V30 5414 O 528.972 2.62986 0.674581 0
M  V30 5415 C 527.428 3.07217 -1.87472 0
M  V30 5416 C 527.036 2.94018 -3.3802 0
M  V30 5417 C 528.78 3.84804 -1.79237 0
M  V30 5418 C 526.687 4.25844 -4.10379 0
M  V30 5419 H 525.617 0.640067 -0.398536 0
M  V30 5420 H 528.268 1.08092 -1.48285 0
M  V30 5421 H 526.65 3.70628 -1.39466 0
M  V30 5422 H 527.824 2.39632 -3.9359 0
M  V30 5423 H 526.139 2.29898 -3.47183 0
M  V30 5424 H 528.736 4.82417 -2.30603 0
M  V30 5425 H 529.079 4.09356 -0.757197 0
M  V30 5426 H 529.612 3.28115 -2.24912 0
M  V30 5427 H 526.351 4.06486 -5.14246 0
M  V30 5428 H 525.871 4.80054 -3.59594 0
M  V30 5429 H 527.55 4.94475 -4.17257 0
M  V30 5430 N 527.682 1.05563 1.17022 0
M  V30 5431 C 528.632 0.630007 2.19123 0
M  V30 5432 C 529.616 -0.335472 1.57364 0
M  V30 5433 O 530.808 -0.1521 1.76345 0
M  V30 5434 C 527.937 0.0101676 3.43298 0
M  V30 5435 C 527.023 0.999698 4.12149 0
M  V30 5436 N 527.414 2.17251 4.56766 0
M  V30 5437 C 525.712 0.829 4.38228 0
M  V30 5438 C 526.413 2.79883 5.09942 0
M  V30 5439 N 525.389 2.07656 5.02374 0
M  V30 5440 H 529.191 1.52353 2.51328 0
M  V30 5441 H 526.705 0.926288 1.33393 0
M  V30 5442 H 528.702 -0.312541 4.15727 0
M  V30 5443 H 527.362 -0.878707 3.12584 0
M  V30 5444 H 528.373 2.55067 4.50734 0
M  V30 5445 H 525.05 -0.00850974 4.17499 0
M  V30 5446 H 526.44 3.79362 5.54558 0
M  V30 5447 N 529.16 -1.33526 0.837174 0
M  V30 5448 C 530.406 -1.9813 0.432704 0
M  V30 5449 C 530.739 -1.66168 -1.00508 0
M  V30 5450 O 530.014 -0.94069 -1.70239 0
M  V30 5451 C 530.297 -3.54151 0.651834 0
M  V30 5452 C 530.15 -3.95806 2.13676 0
M  V30 5453 C 531.469 -4.39993 0.0968937 0
M  V30 5454 H 528.588 -0.719713 0.15869 0
M  V30 5455 H 531.23 -1.58193 1.05237 0
M  V30 5456 H 529.38 -3.88301 0.124369 0
M  V30 5457 H 531.052 -3.71921 2.72896 0
M  V30 5458 H 529.295 -3.45599 2.62191 0
M  V30 5459 H 529.966 -5.0447 2.24084 0
M  V30 5460 H 532.442 -4.12479 0.547733 0
M  V30 5461 H 531.318 -5.48186 0.279917 0
M  V30 5462 H 531.579 -4.3066 -0.9992 0
M  V30 5463 N 530.638 -0.59345 -1.46 0
M  V30 5464 C 531.585 0.133618 -2.30413 0
M  V30 5465 C 532.555 0.873736 -1.41262 0
M  V30 5466 O 533.74 0.862279 -1.70204 0
M  V30 5467 C 530.88 1.13434 -3.25924 0
M  V30 5468 C 529.993 0.39656 -4.30176 0
M  V30 5469 C 529.128 1.38575 -5.12806 0
M  V30 5470 C 528.167 0.634984 -6.08797 0
M  V30 5471 N 527.304 1.57276 -6.84258 0
M  V30 5472 H 532.144 -0.592252 -2.92055 0
M  V30 5473 H 529.681 -0.303874 -1.43927 0
M  V30 5474 H 531.639 1.72752 -3.79753 0
M  V30 5475 H 530.269 1.82779 -2.66067 0
M  V30 5476 H 529.321 -0.311861 -3.79119 0
M  V30 5477 H 530.633 -0.189869 -4.98438 0
M  V30 5478 H 529.787 2.05141 -5.70966 0
M  V30 5479 H 528.526 2.00611 -4.44529 0
M  V30 5480 H 527.531 -0.0443925 -5.49782 0
M  V30 5481 H 528.756 0.0198678 -6.79097 0
M  V30 5482 H 526.702 2.18103 -6.18682 0
M  V30 5483 H 526.619 1.03941 -7.48821 0
M  V30 5484 H 527.887 2.22844 -7.46968 0
M  V30 5485 N 532.116 1.54067 -0.331816 0
M  V30 5486 C 533.532 1.59587 0.0205388 0
M  V30 5487 C 533.732 1.34813 1.49759 0
M  V30 5488 O 532.788 1.13661 2.25471 0
M  V30 5489 C 534.101 2.97959 -0.405103 0
M  V30 5490 C 535.649 3.10964 -0.356454 0
M  V30 5491 C 536.124 4.51694 -0.757384 0
M  V30 5492 N 537.615 4.57709 -0.71111 0
M  V30 5493 C 538.35 5.64729 -0.993427 0
M  V30 5494 N 537.846 6.79652 -1.3433 0
M  V30 5495 N 539.639 5.54546 -0.918442 0
M  V30 5496 H 531.79 1.68426 -1.29407 0
M  V30 5497 H 534.053 0.78819 -0.526745 0
M  V30 5498 H 533.759 3.21115 -1.43451 0
M  V30 5499 H 533.633 3.76524 0.225692 0
M  V30 5500 H 536.02 2.87538 0.663763 0
M  V30 5501 H 536.101 2.34484 -1.02229 0
M  V30 5502 H 535.745 4.75853 -1.77555 0
M  V30 5503 H 535.675 5.26555 -0.0691444 0
M  V30 5504 H 538.166 3.75176 -0.452883 0
M  V30 5505 H 538.479 7.57221 -1.54388 0
M  V30 5506 H 536.824 6.81128 -1.38164 0
M  V30 5507 H 540.015 4.63641 -0.644536 0
M  V30 5508 H 540.188 6.37861 -1.14181 0
M  V30 5509 N 533.594 0.0601682 1.57485 0
M  V30 5510 C 534.834 -0.615384 1.94916 0
M  V30 5511 C 535.198 -1.67475 0.938948 0
M  V30 5512 O 536.399 -2.40502 1.20051 0
M  V30 5513 C 534.67 -1.18788 3.37082 0
M  V30 5514 S 536.229 -1.88018 3.96478 0
M  V30 5515 H 533.047 -0.201821 0.681754 0
M  V30 5516 H 535.649 0.131252 1.95059 0
M  V30 5517 H 534.353 -0.404869 4.08398 0
M  V30 5518 H 533.884 -1.97114 3.40455 0
M  V30 5519 H 535.899 -3.16161 3.82435 0
M  V30 5520 N 535.072 -1.5615 -0.213296 0
M  V30 5521 C 536.3 -1.83638 -0.953139 0
M  V30 5522 C 536.715 -0.640362 -1.77609 0
M  V30 5523 O 536.072 0.391071 -1.78261 0
M  V30 5524 C 536.123 -3.09735 -1.86405 0
M  V30 5525 O 535.844 -4.24723 -1.07435 0
M  V30 5526 C 537.345 -3.5027 -2.71709 0
M  V30 5527 H 534.565 -0.610263 -0.278962 0
M  V30 5528 H 537.109 -2.03247 -0.226035 0
M  V30 5529 H 535.264 -2.92077 -2.545 0
M  V30 5530 H 535.678 -4.9641 -1.69343 0
M  V30 5531 H 537.152 -4.41515 -3.31313 0
M  V30 5532 H 537.629 -2.72406 -3.44516 0
M  V30 5533 H 538.235 -3.70396 -2.09015 0
M  V30 5534 N 536.55 0.480323 -1.50102 0
M  V30 5535 C 537.961 1.06142 -1.53593 0
M  V30 5536 C 538.312 1.93335 -0.334055 0
M  V30 5537 O 537.437 2.09188 0.55403 0
M  V30 5538 C 538.032 1.9317 -2.78336 0
M  V30 5539 C 536.591 2.46405 -2.84538 0
M  V30 5540 C 535.738 1.24521 -2.4777 0
M  V30 5541 H 538.689 0.26333 -1.565 0
M  V30 5542 H 538.71 2.78123 -2.59669 0
M  V30 5543 H 538.222 1.29683 -3.65792 0
M  V30 5544 H 536.323 3.13472 -2.01411 0
M  V30 5545 H 536.436 2.82143 -3.87211 0
M  V30 5546 H 534.8 1.57706 -2.00003 0
M  V30 5547 H 535.583 0.627102 -3.37524 0
M  V30 5548 N 538.028 1.39524 0.732853 0
M  V30 5549 C 539.277 1.36175 1.48792 0
M  V30 5550 C 539.59 -0.0388195 1.95561 0
M  V30 5551 O 540.796 -0.194899 2.708 0
M  V30 5552 C 539.252 2.39242 2.68871 0
M  V30 5553 C 538.86 3.85024 2.29042 0
M  V30 5554 C 540.604 2.44972 3.46683 0
M  V30 5555 C 538.511 4.79727 3.45856 0
M  V30 5556 H 537.441 0.506267 0.558757 0
M  V30 5557 H 540.092 1.65181 0.799226 0
M  V30 5558 H 538.474 2.0331 3.39825 0
M  V30 5559 H 539.648 4.30008 1.6562 0
M  V30 5560 H 537.963 3.82609 1.64316 0
M  V30 5561 H 540.56 3.12918 4.33574 0
M  V30 5562 H 540.903 1.4749 3.89297 0
M  V30 5563 H 541.436 2.79808 2.82759 0
M  V30 5564 H 538.175 5.78479 3.08289 0
M  V30 5565 H 537.695 4.39421 4.08251 0
M  V30 5566 H 539.374 4.98731 4.12161 0
M  V30 5567 N 539.506 -0.963266 1.24736 0
M  V30 5568 C 540.917 -1.52145 1.08207 0
M  V30 5569 C 541.268 -1.93142 -0.345061 0
M  V30 5570 O 540.393 -1.77769 -1.23399 0
M  V30 5571 C 540.988 -2.76486 1.95808 0
M  V30 5572 C 539.547 -3.28646 1.8349 0
M  V30 5573 C 538.694 -2.01529 1.90476 0
M  V30 5574 H 541.645 -0.781083 1.38148 0
M  V30 5575 H 541.666 -3.49986 1.49297 0
M  V30 5576 H 541.178 -2.46617 2.99669 0
M  V30 5577 H 539.279 -3.63357 0.824787 0
M  V30 5578 H 539.392 -3.97246 2.67829 0
M  V30 5579 H 537.756 -2.16442 1.34258 0
M  V30 5580 H 538.539 -1.7402 2.95926 0
M  V30 5581 N 540.985 -1.06182 -1.16461 0
M  V30 5582 C 541.948 -0.675723 -2.19013 0
M  V30 5583 C 542.948 0.277963 -1.58379 0
M  V30 5584 O 544.138 0.0604962 -1.74095 0
M  V30 5585 C 541.27 0.00591459 -3.40899 0
M  V30 5586 H 542.463 -1.58353 -2.54685 0
M  V30 5587 H 540.016 -0.856908 -1.30716 0
M  V30 5588 H 540.751 0.92652 -3.10783 0
M  V30 5589 H 540.536 -0.67984 -3.86161 0
M  V30 5590 H 542.026 0.26181 -4.16778 0
M  V30 5591 N 542.463 1.3308 -0.844243 0
M  V30 5592 C 543.393 2.3161 -0.296493 0
M  V30 5593 C 544.374 1.59215 0.598707 0
M  V30 5594 O 545.559 1.87077 0.521134 0
M  V30 5595 C 542.689 3.43313 0.524762 0
M  V30 5596 C 541.643 4.27115 -0.275106 0
M  V30 5597 C 540.969 5.30483 0.670236 0
M  V30 5598 C 542.269 5.00443 -1.49514 0
M  V30 5599 H 543.963 2.77672 -1.11976 0
M  V30 5600 H 541.509 1.33496 -0.539899 0
M  V30 5601 H 543.462 4.11273 0.918298 0
M  V30 5602 H 542.186 2.95952 1.3813 0
M  V30 5603 H 540.845 3.60787 -0.650267 0
M  V30 5604 H 540.493 4.79379 1.52332 0
M  V30 5605 H 540.193 5.87435 0.139123 0
M  V30 5606 H 541.717 6.01308 1.06117 0
M  V30 5607 H 543.131 5.61141 -1.17447 0
M  V30 5608 H 541.528 5.67071 -1.96343 0
M  V30 5609 H 542.598 4.28906 -2.26202 0
M  V30 5610 N 543.941 0.601185 1.45683 0
M  V30 5611 C 544.871 -0.108824 2.33246 0
M  V30 5612 C 545.852 -0.865223 1.46451 0
M  V30 5613 O 547.037 -0.83704 1.75235 0
M  V30 5614 C 544.167 -1.11101 3.2905 0
M  V30 5615 C 543.121 -0.468244 4.25431 0
M  V30 5616 C 542.447 -1.57822 5.10878 0
M  V30 5617 C 543.747 0.606469 5.18767 0
M  V30 5618 H 545.441 0.622306 2.92861 0
M  V30 5619 H 542.987 0.300714 1.40825 0
M  V30 5620 H 544.94 -1.61622 3.89174 0
M  V30 5621 H 543.664 -1.87265 2.67581 0
M  V30 5622 H 542.323 0.0160484 3.66596 0
M  V30 5623 H 541.971 -2.32998 4.45781 0
M  V30 5624 H 541.671 -1.15369 5.76163 0
M  V30 5625 H 543.195 -2.08583 5.73869 0
M  V30 5626 H 544.609 0.185589 5.73 0
M  V30 5627 H 543.006 0.952381 5.92494 0
M  V30 5628 H 544.076 1.48559 4.61582 0
M  V30 5629 N 545.419 -1.53889 0.339982 0
M  V30 5630 C 546.666 -2.00855 -0.257621 0
M  V30 5631 C 546.994 -1.22788 -1.50842 0
M  V30 5632 O 546.249 -0.302567 -1.93347 0
M  V30 5633 C 546.548 -3.51968 -0.620735 0
M  V30 5634 C 546.214 -4.47741 0.532771 0
M  V30 5635 C 544.876 -4.73645 0.849339 0
M  V30 5636 C 547.228 -5.04551 1.3068 0
M  V30 5637 C 544.556 -5.53614 1.94237 0
M  V30 5638 C 546.908 -5.85713 2.39005 0
M  V30 5639 C 545.572 -6.09912 2.71225 0
M  V30 5640 H 544.842 -0.734979 -0.0942703 0
M  V30 5641 H 547.489 -1.85714 0.467159 0
M  V30 5642 H 545.794 -3.64921 -1.42618 0
M  V30 5643 H 547.491 -3.85762 -1.09495 0
M  V30 5644 H 544.081 -4.27711 0.275973 0
M  V30 5645 H 548.265 -4.84507 1.07549 0
M  V30 5646 H 543.521 -5.7059 2.19628 0
M  V30 5647 H 547.695 -6.28748 2.99415 0
M  V30 5648 H 545.322 -6.71665 3.56047 0
M  V30 5649 N 546.897 -0.0685191 -1.57451 0
M  V30 5650 C 548.125 0.610462 -1.97689 0
M  V30 5651 C 548.54 1.63346 -0.946758 0
M  V30 5652 O 547.897 1.82377 0.0669868 0
M  V30 5653 C 547.948 1.28196 -3.38006 0
M  V30 5654 O 547.669 0.299906 -4.37072 0
M  V30 5655 C 549.17 2.04907 -3.931 0
M  V30 5656 H 546.39 0.165689 -0.650222 0
M  V30 5657 H 548.934 -0.139953 -2.04021 0
M  V30 5658 H 547.089 1.98348 -3.32771 0
M  V30 5659 H 547.503 0.78126 -5.18649 0
M  V30 5660 H 548.977 2.47287 -4.93511 0
M  V30 5661 H 549.454 2.9043 -3.29465 0
M  V30 5662 H 550.06 1.39629 -4.01726 0
M  V30 5663 N 548.375 1.56261 0.205012 0
M  V30 5664 C 549.615 1.81823 0.933806 0
M  V30 5665 C 549.979 0.644534 1.80858 0
M  V30 5666 O 551.18 0.779819 2.5724 0
M  V30 5667 C 549.451 3.12362 1.7368 0
M  V30 5668 S 551.01 3.59296 2.51897 0
M  V30 5669 H 547.828 0.638209 0.313386 0
M  V30 5670 H 550.43 1.94495 0.198001 0
M  V30 5671 H 549.134 3.95809 1.08459 0
M  V30 5672 H 548.665 3.02542 2.5146 0
M  V30 5673 H 550.68 3.23945 3.75864 0
M  V30 5674 N 549.853 -0.472356 1.50355 0
M  V30 5675 C 551.102 -1.2213 1.60522 0
M  V30 5676 C 551.415 -1.9312 0.310466 0
M  V30 5677 O 552.621 -2.69936 0.291029 0
M  V30 5678 C 551.077 -2.21909 2.83345 0
M  V30 5679 C 550.685 -1.56727 4.19691 0
M  V30 5680 C 552.429 -2.97453 3.02856 0
M  V30 5681 C 550.336 -2.54785 5.33703 0
M  V30 5682 H 549.266 -0.459543 0.597776 0
M  V30 5683 H 551.917 -0.491922 1.76783 0
M  V30 5684 H 550.299 -2.98133 2.60639 0
M  V30 5685 H 551.473 -0.863007 4.52646 0
M  V30 5686 H 549.788 -0.934685 4.05774 0
M  V30 5687 H 552.385 -3.70838 3.85205 0
M  V30 5688 H 552.728 -3.56764 2.14534 0
M  V30 5689 H 553.261 -2.28342 3.25737 0
M  V30 5690 H 550 -2.00214 6.24175 0
M  V30 5691 H 549.52 -3.23367 5.05167 0
M  V30 5692 H 551.199 -3.16639 5.64224 0
M  V30 5693 N 551.331 -1.39911 -0.725443 0
M  V30 5694 C 552.556 -1.41137 -1.5197 0
M  V30 5695 C 552.981 -0.010262 -1.88097 0
M  V30 5696 O 552.339 0.979184 -1.52583 0
M  V30 5697 C 552.387 -2.2994 -2.77777 0
M  V30 5698 O 551.491 -1.73586 -3.74088 0
M  V30 5699 H 550.832 -0.480219 -0.458569 0
M  V30 5700 H 553.362 -1.84023 -0.894249 0
M  V30 5701 H 553.372 -2.44785 -3.26411 0
M  V30 5702 H 552.047 -3.31759 -2.50816 0
M  V30 5703 H 550.624 -1.68035 -3.32894 0
M  V30 5704 N 552.809 0.956637 -1.25245 0
M  V30 5705 C 554.037 1.73571 -1.12608 0
M  V30 5706 C 554.452 1.86063 0.320324 0
M  V30 5707 O 553.809 1.35691 1.22042 0
M  V30 5708 C 553.86 3.15053 -1.77268 0
M  V30 5709 O 553.581 3.03174 -3.16255 0
M  V30 5710 C 555.082 4.09248 -1.70386 0
M  V30 5711 H 552.302 0.543955 -0.392879 0
M  V30 5712 H 554.846 1.20031 -1.65568 0
M  V30 5713 H 553.001 3.65543 -1.28284 0
M  V30 5714 H 553.415 3.9241 -3.48015 0
M  V30 5715 H 554.889 5.06138 -2.20291 0
M  V30 5716 H 555.366 4.34102 -0.667239 0
M  V30 5717 H 555.972 3.64672 -2.18849 0
M  V30 5718 N 554.287 1.06798 1.15896 0
M  V30 5719 C 555.217 0.704677 2.22613 0
M  V30 5720 C 556.198 -0.305252 1.67339 0
M  V30 5721 O 557.383 -0.179247 1.93371 0
M  V30 5722 C 554.513 0.0957325 3.47168 0
M  V30 5723 C 553.467 1.0322 4.15367 0
M  V30 5724 C 552.793 0.286293 5.33933 0
M  V30 5725 C 554.093 2.36341 4.65768 0
M  V30 5726 H 555.787 1.59688 2.53259 0
M  V30 5727 H 553.333 0.769257 1.21731 0
M  V30 5728 H 555.286 -0.170333 4.21056 0
M  V30 5729 H 554.01 -0.831516 3.15838 0
M  V30 5730 H 552.669 1.28309 3.43413 0
M  V30 5731 H 552.317 -0.644237 4.98857 0
M  V30 5732 H 552.017 0.910436 5.80504 0
M  V30 5733 H 553.541 0.0278938 6.10594 0
M  V30 5734 H 554.955 2.1561 5.31211 0
M  V30 5735 H 553.352 2.94299 5.2298 0
M  V30 5736 H 554.422 2.99047 3.81705 0
M  V30 5737 N 555.766 -1.3263 0.851289 0
M  V30 5738 C 556.696 -2.31449 0.308771 0
M  V30 5739 C 557.677 -1.59531 -0.590255 0
M  V30 5740 O 558.862 -1.87351 -0.511205 0
M  V30 5741 C 555.992 -3.43586 -0.506548 0
M  V30 5742 C 554.946 -4.26963 0.297753 0
M  V30 5743 C 554.272 -5.30831 -0.642094 0
M  V30 5744 C 555.572 -4.99643 1.52166 0
M  V30 5745 H 557.266 -2.77074 1.13447 0
M  V30 5746 H 554.812 -1.33207 0.546971 0
M  V30 5747 H 556.765 -4.11754 -0.896474 0
M  V30 5748 H 555.489 -2.96681 -1.36558 0
M  V30 5749 H 554.148 -3.60437 0.669391 0
M  V30 5750 H 553.796 -4.8018 -1.49788 0
M  V30 5751 H 553.496 -5.87501 -0.107968 0
M  V30 5752 H 555.02 -6.01862 -1.02927 0
M  V30 5753 H 556.434 -5.6051 1.20421 0
M  V30 5754 H 554.831 -5.66022 1.99347 0
M  V30 5755 H 555.901 -4.27701 2.28474 0
M  V30 5756 N 557.244 -0.608902 -1.45362 0
M  V30 5757 C 558.177 0.158059 -2.27652 0
M  V30 5758 C 559.155 0.872397 -1.37215 0
M  V30 5759 O 560.339 0.881002 -1.66645 0
M  V30 5760 C 557.466 1.22896 -3.15617 0
M  V30 5761 C 556.512 0.617607 -4.22005 0
M  V30 5762 S 557.345 -0.575518 -5.32398 0
M  V30 5763 C 558.501 0.495938 -6.23932 0
M  V30 5764 H 558.734 -0.540095 -2.92353 0
M  V30 5765 H 556.267 -0.396456 -1.49223 0
M  V30 5766 H 558.225 1.84195 -3.66855 0
M  V30 5767 H 556.886 1.89919 -2.50179 0
M  V30 5768 H 556.079 1.42341 -4.83482 0
M  V30 5769 H 555.681 0.0797273 -3.73915 0
M  V30 5770 H 557.973 1.37465 -6.63408 0
M  V30 5771 H 558.916 -0.0827108 -7.08052 0
M  V30 5772 H 559.324 0.811856 -5.58631 0
M  V30 5773 N 558.722 1.53707 -0.348139 0
M  V30 5774 C 559.652 2.28111 0.498766 0
M  V30 5775 C 560.633 1.29851 1.09876 0
M  V30 5776 O 561.818 1.587 1.11928 0
M  V30 5777 C 558.948 3.05735 1.64753 0
M  V30 5778 C 557.902 4.11537 1.17565 0
M  V30 5779 C 557.228 4.77142 2.4133 0
M  V30 5780 C 558.528 5.21587 0.272844 0
M  V30 5781 H 560.222 2.99152 -0.121934 0
M  V30 5782 H 557.768 1.43875 -0.0600842 0
M  V30 5783 H 559.721 3.56526 2.24649 0
M  V30 5784 H 558.445 2.32354 2.2952 0
M  V30 5785 H 557.104 3.61665 0.599483 0
M  V30 5786 H 556.752 4.0035 3.04514 0
M  V30 5787 H 556.452 5.48626 2.10436 0
M  V30 5788 H 557.976 5.30719 3.01943 0
M  V30 5789 H 559.39 5.67986 0.778779 0
M  V30 5790 H 557.787 6.00074 0.0555849 0
M  V30 5791 H 558.857 4.79969 -0.689785 0
M  V30 5792 N 560.2 0.0768682 1.57412 0
M  V30 5793 C 561.446 -0.591961 1.93968 0
M  V30 5794 C 561.779 -1.68954 0.9575 0
M  V30 5795 O 561.054 -1.94496 -0.0124675 0
M  V30 5796 C 561.337 -1.16418 3.40762 0
M  V30 5797 C 561.19 -0.0728933 4.49741 0
M  V30 5798 C 562.509 -2.06814 3.88479 0
M  V30 5799 H 559.628 -0.213716 0.705333 0
M  V30 5800 H 562.27 0.14387 1.89455 0
M  V30 5801 H 560.42 -1.79128 3.4474 0
M  V30 5802 H 562.092 0.560446 4.57883 0
M  V30 5803 H 560.335 0.595859 4.29688 0
M  V30 5804 H 561.006 -0.513755 5.49604 0
M  V30 5805 H 563.482 -1.54033 3.8654 0
M  V30 5806 H 562.358 -2.43785 4.91793 0
M  V30 5807 H 562.619 -2.97844 3.26713 0
M  V30 5808 N 561.678 -1.56367 -0.196722 0
M  V30 5809 C 562.906 -1.84639 -0.933608 0
M  V30 5810 C 563.321 -0.659164 -1.76919 0
M  V30 5811 O 562.678 0.372142 -1.78665 0
M  V30 5812 C 562.729 -3.11694 -1.83109 0
M  V30 5813 O 562.45 -4.25838 -1.02924 0
M  V30 5814 C 563.951 -3.53132 -2.67979 0
M  V30 5815 H 561.171 -0.613188 -0.272473 0
M  V30 5816 H 563.715 -2.03475 -0.204465 0
M  V30 5817 H 561.87 -2.94759 -2.51387 0
M  V30 5818 H 562.284 -4.98178 -1.64069 0
M  V30 5819 H 563.758 -4.45005 -3.26611 0
M  V30 5820 H 564.235 -2.76045 -3.41608 0
M  V30 5821 H 564.841 -3.72592 -2.05074 0
M  V30 5822 N 563.156 0.464375 -1.50603 0
M  V30 5823 C 564.381 1.24372 -1.65971 0
M  V30 5824 C 564.806 1.84901 -0.345453 0
M  V30 5825 O 564.164 1.67596 0.691457 0
M  V30 5826 C 564.212 2.32331 -2.7578 0
M  V30 5827 O 563.316 3.37146 -2.375 0
M  V30 5828 H 562.657 0.365604 -0.554283 0
M  V30 5829 H 565.187 0.55183 -1.97018 0
M  V30 5830 H 565.197 2.77539 -2.99059 0
M  V30 5831 H 563.872 1.87648 -3.71162 0
M  V30 5832 H 562.449 2.97602 -2.24694 0
M  V30 5833 N 564.634 1.40294 0.718013 0
M  V30 5834 C 565.911 1.2894 1.47084 0
M  V30 5835 C 566.291 -0.0933625 2.10893 0
M  V30 5836 O 565.639 -1.10598 1.99951 0
M  V30 5837 C 565.849 2.4264 2.50852 0
M  V30 5838 C 567.197 2.8276 3.16752 0
M  V30 5839 O 568.221 2.42215 2.61171 0
M  V30 5840 O 567.08 3.528 4.17366 0
M  V30 5841 H 564.174 0.506236 0.653952 0
M  V30 5842 H 566.72 1.52208 0.750394 0
M  V30 5843 H 565.492 3.35009 2.022 0
M  V30 5844 H 565.115 2.21129 3.30435 0
M  V30 5845 N 566.112 -0.949982 1.2575 0
M  V30 5846 C 567.045 -2.047 1.00862 0
M  V30 5847 C 568.023 -1.62475 -0.0636982 0
M  V30 5848 O 569.207 -1.88343 0.0769153 0
M  V30 5849 C 566.334 -3.34597 0.525613 0
M  V30 5850 C 565.38 -3.95788 1.58916 0
M  V30 5851 S 566.213 -4.31175 3.17567 0
M  V30 5852 C 567.369 -5.64183 2.71013 0
M  V30 5853 H 567.602 -2.25497 1.93749 0
M  V30 5854 H 565.135 -1.09022 1.09332 0
M  V30 5855 H 567.093 -4.09716 0.25359 0
M  V30 5856 H 565.754 -3.11758 -0.382828 0
M  V30 5857 H 564.947 -4.89457 1.20201 0
M  V30 5858 H 564.549 -3.27168 1.81211 0
M  V30 5859 H 566.841 -6.42504 2.14928 0
M  V30 5860 H 567.784 -6.07774 3.6334 0
M  V30 5861 H 568.192 -5.2364 2.1086 0
M  V30 5862 N 567.59 -1.07411 -1.15328 0
M  V30 5863 C 568.82 -0.817595 -1.89734 0
M  V30 5864 C 569.228 0.63297 -1.78298 0
M  V30 5865 O 568.571 1.44594 -1.13306 0
M  V30 5866 C 568.633 -1.14748 -3.40695 0
M  V30 5867 C 568.297 -2.59876 -3.75917 0
M  V30 5868 C 569.294 -3.58122 -3.76888 0
M  V30 5869 C 566.979 -2.95469 -4.06206 0
M  V30 5870 C 568.973 -4.89996 -4.07655 0
M  V30 5871 C 566.66 -4.2754 -4.36638 0
M  V30 5872 C 567.658 -5.24614 -4.37344 0
M  V30 5873 O 567.346 -6.54312 -4.67045 0
M  V30 5874 H 567.078 -0.295175 -0.608151 0
M  V30 5875 H 569.632 -1.43409 -1.47048 0
M  V30 5876 H 567.862 -0.47395 -3.83785 0
M  V30 5877 H 569.551 -0.873397 -3.96392 0
M  V30 5878 H 570.317 -3.31966 -3.53587 0
M  V30 5879 H 566.196 -2.20558 -4.04815 0
M  V30 5880 H 569.74 -5.65759 -4.08121 0
M  V30 5881 H 565.637 -4.53449 -4.59407 0
M  V30 5882 H 566.405 -6.59473 -4.84807 0
M  V30 5883 N 569.068 1.32177 -0.85831 0
M  V30 5884 C 570.296 2.01313 -0.477582 0
M  V30 5885 C 570.711 1.6449 0.926736 0
M  V30 5886 O 570.068 0.868096 1.60531 0
M  V30 5887 C 570.119 3.56293 -0.611337 0
M  V30 5888 O 569.84 3.91794 -1.96034 0
M  V30 5889 C 571.341 4.42702 -0.230093 0
M  V30 5890 H 568.561 0.644323 -0.187322 0
M  V30 5891 H 571.105 1.68674 -1.15626 0
M  V30 5892 H 569.26 3.87395 0.0196494 0
M  V30 5893 H 569.674 4.86513 -1.95973 0
M  V30 5894 H 571.148 5.50727 -0.374674 0
M  V30 5895 H 571.625 4.3129 0.829779 0
M  V30 5896 H 572.231 4.16997 -0.836302 0
M  V30 5897 N 570.547 0.616602 1.45037 0
M  V30 5898 C 571.477 -0.0840787 2.33349 0
M  V30 5899 C 572.458 -0.849641 1.4736 0
M  V30 5900 O 573.643 -0.818407 1.76113 0
M  V30 5901 C 570.773 -1.07604 3.3021 0
M  V30 5902 C 569.727 -0.423096 4.25904 0
M  V30 5903 C 569.053 -1.52394 5.12523 0
M  V30 5904 C 570.353 0.661457 5.18095 0
M  V30 5905 H 572.047 0.653333 2.92185 0
M  V30 5906 H 569.593 0.315634 1.40498 0
M  V30 5907 H 571.546 -1.57485 3.90866 0
M  V30 5908 H 570.27 -1.84416 2.69552 0
M  V30 5909 H 568.929 0.05493 3.66559 0
M  V30 5910 H 568.577 -2.28257 4.48227 0
M  V30 5911 H 568.277 -1.09251 5.77354 0
M  V30 5912 H 569.801 -2.02485 5.76049 0
M  V30 5913 H 571.215 0.246353 5.7277 0
M  V30 5914 H 569.612 1.01517 5.91451 0
M  V30 5915 H 570.682 1.53446 4.59981 0
M  V30 5916 N 572.025 -1.5352 0.356285 0
M  V30 5917 C 573.274 -2.00298 -0.237373 0
M  V30 5918 C 573.587 -1.24784 -1.50627 0
M  V30 5919 O 574.793 -1.62103 -2.17795 0
M  V30 5920 C 573.249 -3.56771 -0.473545 0
M  V30 5921 C 572.857 -4.41154 0.780183 0
M  V30 5922 C 574.601 -4.1193 -1.02537 0
M  V30 5923 C 572.508 -5.89161 0.514108 0
M  V30 5924 H 571.438 -0.748307 -0.092478 0
M  V30 5925 H 574.089 -1.77283 0.473588 0
M  V30 5926 H 572.471 -3.75902 -1.24553 0
M  V30 5927 H 573.645 -4.33797 1.55425 0
M  V30 5928 H 571.96 -3.97052 1.25455 0
M  V30 5929 H 574.557 -5.20133 -1.2396 0
M  V30 5930 H 574.9 -3.65943 -1.98473 0
M  V30 5931 H 575.433 -3.96561 -0.313775 0
M  V30 5932 H 572.172 -6.39408 1.44355 0
M  V30 5933 H 571.692 -5.9939 -0.221632 0
M  V30 5934 H 573.371 -6.46857 0.136122 0
M  V30 5935 N 573.503 -0.0852151 -1.57369 0
M  V30 5936 C 574.451 0.894856 -2.14698 0
M  V30 5937 C 575.445 1.29903 -1.08727 0
M  V30 5938 O 576.651 1.27471 -1.27088 0
M  V30 5939 H 573.026 0.306569 -0.686673 0
M  V30 5940 H 574.997 0.386542 -2.95886 0
M  V30 5941 C 573.746 2.14798 -2.73417 0
M  V30 5942 H 573.069 1.84585 -3.54638 0
M  V30 5943 H 574.509 2.81456 -3.1711 0
M  V30 5944 C 572.968 2.91546 -1.68828 0
M  V30 5945 O 573.498 3.85733 -1.12129 0
M  V30 5946 N 571.704 2.54901 -1.39549 0
M  V30 5947 H 571.251 1.7838 -1.85845 0
M  V30 5948 H 571.209 3.06553 -0.698054 0
M  V30 5949 N 574.981 1.5647 0.188427 0
M  V30 5950 C 576.211 1.84863 0.922463 0
M  V30 5951 C 576.619 0.666413 1.77075 0
M  V30 5952 O 575.962 -0.374044 1.79852 0
M  V30 5953 C 576.024 3.07447 1.86324 0
M  V30 5954 C 575.688 4.41066 1.19625 0
M  V30 5955 C 576.685 5.16767 0.569946 0
M  V30 5956 C 574.37 4.87802 1.19811 0
M  V30 5957 C 576.364 6.37384 -0.045594 0
M  V30 5958 C 574.051 6.08353 0.57874 0
M  V30 5959 C 575.049 6.82987 -0.0420259 0
M  V30 5960 O 574.737 8.01254 -0.651675 0
M  V30 5961 H 574.469 0.61784 0.274316 0
M  V30 5962 H 577.023 2.04437 0.198613 0
M  V30 5963 H 575.253 2.83774 2.62696 0
M  V30 5964 H 576.942 3.2243 2.46564 0
M  V30 5965 H 577.708 4.81749 0.560601 0
M  V30 5966 H 573.587 4.29662 1.67069 0
M  V30 5967 H 577.131 6.95578 -0.530731 0
M  V30 5968 H 573.028 6.42838 0.58561 0
M  V30 5969 H 573.796 8.16655 -0.549236 0
M  V30 5970 N 576.459 -0.456382 1.50847 0
M  V30 5971 C 577.705 -1.20914 1.62811 0
M  V30 5972 C 578.038 -1.91301 0.334304 0
M  V30 5973 O 577.313 -1.82775 -0.665098 0
M  V30 5974 C 577.596 -2.24122 2.81853 0
M  V30 5975 C 577.449 -1.57944 4.21158 0
M  V30 5976 C 578.768 -3.25295 2.96431 0
M  V30 5977 H 575.887 -0.438233 0.592554 0
M  V30 5978 H 578.529 -0.50091 1.83278 0
M  V30 5979 H 576.679 -2.84524 2.64534 0
M  V30 5980 H 578.351 -1.01025 4.50102 0
M  V30 5981 H 576.594 -0.882185 4.24735 0
M  V30 5982 H 577.265 -2.33014 5.00408 0
M  V30 5983 H 579.741 -2.7493 3.12335 0
M  V30 5984 H 578.617 -3.94822 3.81322 0
M  V30 5985 H 578.878 -3.90286 2.07676 0
M  V30 5986 N 577.937 -1.40673 -0.710563 0
M  V30 5987 C 579.185 -1.38947 -1.46759 0
M  V30 5988 C 579.506 0.00572879 -1.94999 0
M  V30 5989 O 578.776 0.961358 -1.70689 0
M  V30 5990 H 577.356 -0.5114 -0.544499 0
M  V30 5991 H 580.018 -1.75773 -0.842012 0
M  V30 5992 H 579.114 -2.06745 -2.33801 0
M  V30 5993 N 579.415 0.9433 -1.26252 0
M  V30 5994 C 580.662 1.68925 -1.11672 0
M  V30 5995 C 580.99 1.91499 0.340329 0
M  V30 5996 O 580.245 1.49189 1.26653 0
M  V30 5997 C 580.544 3.07073 -1.82868 0
M  V30 5998 C 580.21 3.04262 -3.32769 0
M  V30 5999 C 578.872 3.03203 -3.7366 0
M  V30 6000 C 581.224 2.96729 -4.28487 0
M  V30 6001 C 578.552 2.92373 -5.0866 0
M  V30 6002 C 580.904 2.87442 -5.63525 0
M  V30 6003 C 579.568 2.84724 -6.03729 0
M  V30 6004 H 578.838 0.618141 -0.408635 0
M  V30 6005 H 581.485 1.10124 -1.56668 0
M  V30 6006 H 579.79 3.69486 -1.30335 0
M  V30 6007 H 581.487 3.63635 -1.69029 0
M  V30 6008 H 578.077 3.05865 -3.00241 0
M  V30 6009 H 582.261 2.96658 -3.97879 0
M  V30 6010 H 577.517 2.88645 -5.38975 0
M  V30 6011 H 581.691 2.80576 -6.37377 0
M  V30 6012 H 579.318 2.76089 -7.08293 0
M  V30 6013 N 580.893 1.08022 1.14757 0
M  V30 6014 C 582.142 0.802468 1.8505 0
M  V30 6015 C 582.455 -0.674061 1.83619 0
M  V30 6016 O 583.661 -1.06683 2.49662 0
M  V30 6017 C 582.117 1.38551 3.32162 0
M  V30 6018 C 581.725 2.89354 3.42021 0
M  V30 6019 C 583.469 1.18608 4.07594 0
M  V30 6020 C 581.376 3.40815 4.83321 0
M  V30 6021 H 580.306 0.296518 0.693248 0
M  V30 6022 H 582.957 1.30114 1.29393 0
M  V30 6023 H 581.339 0.814556 3.87532 0
M  V30 6024 H 582.513 3.52552 2.96722 0
M  V30 6025 H 580.828 3.08165 2.80041 0
M  V30 6026 H 583.425 1.54525 5.11885 0
M  V30 6027 H 583.768 0.125599 4.1611 0
M  V30 6028 H 584.301 1.72375 3.58513 0
M  V30 6029 H 581.04 4.46418 4.79991 0
M  V30 6030 H 580.56 2.82374 5.29174 0
M  V30 6031 H 582.239 3.37171 5.522 0
M  V30 6032 N 582.371 -1.3172 0.865308 0
M  V30 6033 C 583.319 -2.30569 0.306674 0
M  V30 6034 C 584.313 -1.59317 -0.575724 0
M  V30 6035 O 585.519 -1.73961 -0.462343 0
M  V30 6036 H 581.894 -0.747681 0.0804834 0
M  V30 6037 H 583.865 -2.75165 1.15441 0
M  V30 6038 C 582.614 -3.44358 -0.480952 0
M  V30 6039 H 581.937 -3.99354 0.18876 0
M  V30 6040 H 583.377 -4.15652 -0.837241 0
M  V30 6041 C 581.836 -2.92574 -1.67039 0
M  V30 6042 O 582.366 -2.90954 -2.76964 0
M  V30 6043 N 580.572 -2.48835 -1.50097 0
M  V30 6044 H 580.119 -2.50353 -0.606738 0
M  V30 6045 H 580.077 -2.14543 -2.29823 0
M  V30 6046 N 583.85 -0.624285 -1.44708 0
M  V30 6047 C 585.08 -0.132726 -2.06173 0
M  V30 6048 C 585.488 1.19513 -1.46674 0
M  V30 6049 O 584.831 1.74254 -0.581491 0
M  V30 6050 C 584.893 0.0636732 -3.59444 0
M  V30 6051 C 584.557 -1.18496 -4.4137 0
M  V30 6052 C 585.553 -2.10706 -4.75288 0
M  V30 6053 C 583.239 -1.41846 -4.81856 0
M  V30 6054 C 585.233 -3.24582 -5.48567 0
M  V30 6055 C 582.92 -2.5602 -5.54885 0
M  V30 6056 C 583.918 -3.47215 -5.88159 0
M  V30 6057 O 583.606 -4.59399 -6.59703 0
M  V30 6058 H 583.338 -0.0737313 -0.671967 0
M  V30 6059 H 585.892 -0.856789 -1.86677 0
M  V30 6060 H 584.122 0.842809 -3.77404 0
M  V30 6061 H 585.811 0.508924 -4.02697 0
M  V30 6062 H 586.577 -1.93898 -4.44554 0
M  V30 6063 H 582.456 -0.717556 -4.55381 0
M  V30 6064 H 586 -3.95785 -5.74456 0
M  V30 6065 H 581.897 -2.72774 -5.85034 0
M  V30 6066 H 582.665 -4.58293 -6.78166 0
M  V30 6067 N 585.328 1.53329 -0.364422 0
M  V30 6068 C 586.258 2.28627 0.474543 0
M  V30 6069 C 587.239 1.31009 1.08492 0
M  V30 6070 O 588.424 1.59878 1.10239 0
M  V30 6071 C 585.554 3.07465 1.61501 0
M  V30 6072 C 584.508 4.1276 1.13194 0
M  V30 6073 C 583.834 4.79674 2.36255 0
M  V30 6074 C 585.134 5.21847 0.217507 0
M  V30 6075 H 586.828 2.99005 -0.153656 0
M  V30 6076 H 584.374 1.43803 -0.0753406 0
M  V30 6077 H 586.327 3.58889 2.20855 0
M  V30 6078 H 585.051 2.34775 2.27042 0
M  V30 6079 H 583.71 3.62281 0.56109 0
M  V30 6080 H 583.358 4.03557 3.00251 0
M  V30 6081 H 583.058 5.50827 2.04606 0
M  V30 6082 H 584.582 5.33892 2.96297 0
M  V30 6083 H 585.996 5.6878 0.718493 0
M  V30 6084 H 584.393 6.00099 -0.00806408 0
M  V30 6085 H 585.463 4.7921 -0.740653 0
M  V30 6086 N 586.806 0.0935595 1.57322 0
M  V30 6087 C 588.053 -0.570509 1.94297 0
M  V30 6088 C 588.381 -1.68286 0.97519 0
M  V30 6089 O 587.636 -1.95699 -0.00548655 0
M  V30 6090 C 587.935 -1.16692 3.37813 0
M  V30 6091 C 587.601 -0.178509 4.50547 0
M  V30 6092 C 586.263 0.0933475 4.81109 0
M  V30 6093 C 588.615 0.496472 5.1883 0
M  V30 6094 C 585.943 1.0469 5.77284 0
M  V30 6095 C 588.295 1.43849 6.16028 0
M  V30 6096 C 586.959 1.71859 6.44997 0
M  V30 6097 H 586.229 -0.208764 0.710984 0
M  V30 6098 H 588.876 0.169066 1.90752 0
M  V30 6099 H 587.181 -1.98271 3.37929 0
M  V30 6100 H 588.878 -1.6884 3.63722 0
M  V30 6101 H 585.468 -0.400584 4.26724 0
M  V30 6102 H 589.652 0.299584 4.95395 0
M  V30 6103 H 584.908 1.27094 5.98044 0
M  V30 6104 H 589.082 1.96734 6.68034 0
M  V30 6105 H 586.709 2.45906 7.19329 0
M  V30 6106 N 588.284 -1.56567 -0.180126 0
M  V30 6107 C 589.514 -1.85349 -0.912647 0
M  V30 6108 C 589.922 -0.675795 -1.76719 0
M  V30 6109 O 589.265 0.3645 -1.80047 0
M  V30 6110 C 589.327 -3.08431 -1.84691 0
M  V30 6111 C 588.991 -4.41694 -1.17284 0
M  V30 6112 C 589.988 -5.17062 -0.542532 0
M  V30 6113 C 587.673 -4.8843 -1.17223 0
M  V30 6114 C 589.667 -6.37351 0.0793953 0
M  V30 6115 C 587.354 -6.08652 -0.54647 0
M  V30 6116 C 588.352 -6.82955 0.0782458 0
M  V30 6117 O 588.04 -8.00897 0.694158 0
M  V30 6118 H 587.772 -0.619286 -0.271036 0
M  V30 6119 H 590.326 -2.0454 -0.187768 0
M  V30 6120 H 588.556 -2.85163 -2.61188 0
M  V30 6121 H 590.245 -3.23733 -2.44851 0
M  V30 6122 H 591.011 -4.8204 -0.535045 0
M  V30 6123 H 586.89 -4.30542 -1.64788 0
M  V30 6124 H 590.434 -6.95287 0.567612 0
M  V30 6125 H 586.331 -6.4314 -0.55151 0
M  V30 6126 H 587.099 -8.16352 0.592537 0
M  V30 6127 N 589.762 0.448376 -1.51087 0
M  V30 6128 C 591.01 1.19635 -1.62886 0
M  V30 6129 C 591.331 1.91977 -0.342024 0
M  V30 6130 O 590.601 1.85094 0.641636 0
M  V30 6131 H 589.181 0.444598 -0.600285 0
M  V30 6132 H 591.843 0.515138 -1.87969 0
M  V30 6133 H 590.939 1.93194 -2.45117 0
M  V30 6134 N 591.24 1.41047 0.703093 0
M  V30 6135 C 592.486 1.40207 1.46526 0
M  V30 6136 C 592.819 0.00847763 1.94198 0
M  V30 6137 O 592.094 -0.962437 1.69019 0
M  V30 6138 C 592.377 2.40238 2.6825 0
M  V30 6139 C 592.23 3.88674 2.26391 0
M  V30 6140 C 593.549 2.37627 3.70434 0
M  V30 6141 H 590.668 0.510594 0.531472 0
M  V30 6142 H 593.31 1.72271 0.801422 0
M  V30 6143 H 591.46 2.13026 3.24888 0
M  V30 6144 H 593.132 4.2676 1.75138 0
M  V30 6145 H 591.375 4.03903 1.58255 0
M  V30 6146 H 592.046 4.542 3.13698 0
M  V30 6147 H 594.522 2.61759 3.23452 0
M  V30 6148 H 593.398 3.09645 4.53223 0
M  V30 6149 H 593.659 1.39223 4.19606 0
M  V30 6150 N 592.718 -0.936591 1.26751 0
M  V30 6151 C 593.946 -1.71758 1.15355 0
M  V30 6152 C 594.361 -1.86549 -0.290683 0
M  V30 6153 O 593.718 -1.37616 -1.19868 0
M  V30 6154 C 593.769 -3.12193 1.82258 0
M  V30 6155 O 593.49 -2.98105 3.21038 0
M  V30 6156 C 594.991 -4.06485 1.76875 0
M  V30 6157 H 592.211 -0.537636 0.401483 0
M  V30 6158 H 594.755 -1.17382 1.67457 0
M  V30 6159 H 592.91 -3.63456 1.34083 0
M  V30 6160 H 593.324 -3.86824 3.54214 0
M  V30 6161 H 594.798 -5.02569 2.28316 0
M  V30 6162 H 595.275 -4.32986 0.736216 0
M  V30 6163 H 595.881 -3.61144 2.24623 0
M  V30 6164 N 594.196 -1.08629 -1.14182 0
M  V30 6165 C 595.442 -0.818556 -1.85546 0
M  V30 6166 C 595.775 0.654076 -1.82854 0
M  V30 6167 O 595.05 1.48099 -1.26083 0
M  V30 6168 C 595.333 -1.34397 -3.3408 0
M  V30 6169 C 595.186 -2.8821 -3.45333 0
M  V30 6170 C 596.505 -0.971069 -4.29253 0
M  V30 6171 H 593.624 -0.298821 -0.673702 0
M  V30 6172 H 596.266 -1.34629 -1.34071 0
M  V30 6173 H 594.416 -0.895064 -3.78049 0
M  V30 6174 H 596.088 -3.41488 -3.10134 0
M  V30 6175 H 594.331 -3.25756 -2.86471 0
M  V30 6176 H 595.002 -3.20047 -4.49749 0
M  V30 6177 H 597.478 -1.35809 -3.93313 0
M  V30 6178 H 596.354 -1.36586 -5.31635 0
M  V30 6179 H 596.615 0.121659 -4.41933 0
M  V30 6180 N 595.674 1.31259 -0.872281 0
M  V30 6181 C 596.637 2.26744 -0.334656 0
M  V30 6182 C 597.637 1.52307 0.515681 0
M  V30 6183 O 598.827 1.71148 0.324656 0
M  V30 6184 C 595.959 3.36841 0.524482 0
M  V30 6185 H 597.152 2.75812 -1.17762 0
M  V30 6186 H 594.705 1.42232 -0.648064 0
M  V30 6187 H 595.44 2.93069 1.38855 0
M  V30 6188 H 595.225 3.92009 -0.0844299 0
M  V30 6189 H 596.715 4.07944 0.892838 0
M  V30 6190 N 597.152 0.631951 1.44375 0
M  V30 6191 C 598.4 0.136497 2.01639 0
M  V30 6192 C 598.721 -1.24637 1.49969 0
M  V30 6193 O 597.991 -1.82827 0.70363 0
M  V30 6194 H 596.571 0.0474703 0.74549 0
M  V30 6195 H 599.233 0.818837 1.76865 0
M  V30 6196 H 598.329 0.104817 3.11924 0
M  V30 6197 N 598.631 -1.53133 0.372548 0
M  V30 6198 C 599.563 -2.23557 -0.505444 0
M  V30 6199 C 600.576 -1.25211 -1.04049 0
M  V30 6200 O 601.765 -1.51391 -0.945675 0
M  V30 6201 C 598.865 -2.92516 -1.71136 0
M  V30 6202 C 598.038 -4.17428 -1.30661 0
M  V30 6203 C 597.097 -4.69535 -2.37536 0
M  V30 6204 O 596.123 -5.33042 -1.99637 0
M  V30 6205 N 597.325 -4.47947 -3.6922 0
M  V30 6206 H 600.09 -2.9954 0.0978259 0
M  V30 6207 H 597.651 -1.60684 0.198068 0
M  V30 6208 H 599.643 -3.24281 -2.42124 0
M  V30 6209 H 598.213 -2.19944 -2.22134 0
M  V30 6210 H 597.433 -3.91888 -0.426292 0
M  V30 6211 H 598.721 -4.98622 -1.01259 0
M  V30 6212 H 598.119 -3.97219 -4.02783 0
M  V30 6213 H 596.676 -4.84245 -4.36292 0
M  V30 6214 N 600.109 -0.101901 -1.5727 0
M  V30 6215 C 601.358 0.559922 -1.93772 0
M  V30 6216 C 601.671 1.68913 -0.98629 0
M  V30 6217 O 602.877 2.41256 -1.24529 0
M  V30 6218 C 601.333 1.04739 -3.44322 0
M  V30 6219 C 600.941 -0.05243 -4.47969 0
M  V30 6220 C 602.685 1.68157 -3.89774 0
M  V30 6221 C 600.592 0.450781 -5.8968 0
M  V30 6222 H 599.522 0.212931 -0.723309 0
M  V30 6223 H 602.173 -0.179001 -1.82625 0
M  V30 6224 H 600.555 1.84021 -3.50645 0
M  V30 6225 H 601.729 -0.828157 -4.53297 0
M  V30 6226 H 600.044 -0.592202 -4.12167 0
M  V30 6227 H 602.641 2.0689 -4.93052 0
M  V30 6228 H 602.984 2.55338 -3.28798 0
M  V30 6229 H 603.517 0.954453 -3.8618 0
M  V30 6230 H 600.256 -0.38458 -6.54371 0
M  V30 6231 H 599.776 1.19336 -5.87809 0
M  V30 6232 H 601.455 0.917555 -6.40461 0
M  V30 6233 N 601.587 1.56661 0.17182 0
M  V30 6234 C 602.833 1.82235 0.889845 0
M  V30 6235 C 603.166 0.679673 1.81918 0
M  V30 6236 O 602.441 -0.318404 1.91876 0
M  V30 6237 C 602.724 3.18195 1.68595 0
M  V30 6238 C 602.577 4.42989 0.779773 0
M  V30 6239 C 603.896 3.5109 2.65375 0
M  V30 6240 H 601.015 0.66291 0.322056 0
M  V30 6241 H 603.657 1.89358 0.15608 0
M  V30 6242 H 601.807 3.12253 2.3115 0
M  V30 6243 H 603.479 4.60997 0.16714 0
M  V30 6244 H 601.722 4.33711 0.0877964 0
M  V30 6245 H 602.393 5.3467 1.3723 0
M  V30 6246 H 604.869 3.57482 2.12946 0
M  V30 6247 H 603.745 4.47298 3.18144 0
M  V30 6248 H 604.006 2.75768 3.45549 0
M  V30 6249 N 603.065 -0.440357 1.51323 0
M  V30 6250 C 603.995 -1.54174 1.75364 0
M  V30 6251 C 604.976 -1.59039 0.603375 0
M  V30 6252 O 606.161 -1.74815 0.845774 0
M  V30 6253 C 603.291 -2.92277 1.87593 0
M  V30 6254 C 602.245 -3.02274 3.03009 0
M  V30 6255 C 601.571 -4.42327 3.00418 0
M  V30 6256 C 602.871 -2.76634 4.43024 0
M  V30 6257 H 604.565 -1.34307 2.67585 0
M  V30 6258 H 602.111 -0.644678 1.28763 0
M  V30 6259 H 604.064 -3.69284 2.02995 0
M  V30 6260 H 602.788 -3.13369 0.920179 0
M  V30 6261 H 601.447 -2.27706 2.87307 0
M  V30 6262 H 601.095 -4.60382 2.02626 0
M  V30 6263 H 600.795 -4.49946 3.77918 0
M  V30 6264 H 602.319 -5.21312 3.17909 0
M  V30 6265 H 603.733 -3.43376 4.59093 0
M  V30 6266 H 602.13 -2.95666 5.22208 0
M  V30 6267 H 603.2 -1.72262 4.5327 0
M  V30 6268 N 604.543 -1.41418 -0.695603 0
M  V30 6269 C 605.959 -1.23887 -1.00619 0
M  V30 6270 C 606.159 -0.128206 -2.01092 0
M  V30 6271 O 605.215 0.507408 -2.47349 0
M  V30 6272 C 606.528 -2.58816 -1.53083 0
M  V30 6273 C 608.076 -2.65998 -1.64967 0
M  V30 6274 C 608.551 -4.01244 -2.20833 0
M  V30 6275 N 610.042 -4.0309 -2.28194 0
M  V30 6276 C 610.777 -5.04539 -2.72448 0
M  V30 6277 N 610.273 -6.16378 -3.16306 0
M  V30 6278 N 612.066 -4.91901 -2.72011 0
M  V30 6279 H 604.217 -2.12379 -0.0300061 0
M  V30 6280 H 606.48 -0.944958 -0.0758797 0
M  V30 6281 H 606.186 -3.40842 -0.867147 0
M  V30 6282 H 606.06 -2.81299 -2.51298 0
M  V30 6283 H 608.447 -1.84331 -2.30448 0
M  V30 6284 H 608.528 -2.47325 -0.652982 0
M  V30 6285 H 608.172 -4.83359 -1.55968 0
M  V30 6286 H 608.102 -4.17257 -3.21254 0
M  V30 6287 H 610.593 -3.22341 -1.97242 0
M  V30 6288 H 610.906 -6.89658 -3.487 0
M  V30 6289 H 609.251 -6.19914 -3.14215 0
M  V30 6290 H 612.442 -4.03613 -2.37095 0
M  V30 6291 H 612.615 -5.71102 -3.06181 0
M  V30 6292 N 606.021 0.929856 -1.27246 0
M  V30 6293 C 607.267 1.6802 -1.14634 0
M  V30 6294 C 607.622 1.89965 0.305151 0
M  V30 6295 O 606.915 1.47737 1.22001 0
M  V30 6296 C 607.109 3.05116 -1.86115 0
M  V30 6297 C 606.938 2.96549 -3.38066 0
M  V30 6298 C 605.708 2.98947 -4.0738 0
M  V30 6299 C 607.906 2.7583 -4.34077 0
M  V30 6300 N 605.888 2.80799 -5.45917 0
M  V30 6301 C 607.259 2.66364 -5.59866 0
M  V30 6302 C 609.314 2.60701 -4.24193 0
M  V30 6303 C 608.017 2.43313 -6.76898 0
M  V30 6304 C 610.043 2.39026 -5.40944 0
M  V30 6305 C 609.405 2.30302 -6.65688 0
M  V30 6306 H 605.504 0.62172 -0.474329 0
M  V30 6307 H 608.088 1.09947 -1.60685 0
M  V30 6308 H 606.259 3.61306 -1.42522 0
M  V30 6309 H 607.991 3.69076 -1.66027 0
M  V30 6310 H 604.746 3.09093 -3.58829 0
M  V30 6311 H 605.17 2.74861 -6.18692 0
M  V30 6312 H 609.812 2.66206 -3.28473 0
M  V30 6313 H 607.53 2.36548 -7.72704 0
M  V30 6314 H 611.116 2.28208 -5.35175 0
M  V30 6315 H 609.996 2.13756 -7.54505 0
M  V30 6316 N 607.499 1.09233 1.13605 0
M  V30 6317 C 608.446 0.729921 2.18954 0
M  V30 6318 C 609.416 -0.287916 1.63586 0
M  V30 6319 O 610.601 -0.170003 1.90041 0
M  V30 6320 C 607.741 0.154489 3.44754 0
M  V30 6321 C 606.854 1.22613 4.14234 0
M  V30 6322 C 605.989 0.613657 5.27644 0
M  V30 6323 C 605.028 1.66674 5.8897 0
M  V30 6324 N 604.165 1.07545 6.93814 0
M  V30 6325 H 609.005 1.63257 2.49302 0
M  V30 6326 H 606.542 0.815693 1.22413 0
M  V30 6327 H 608.5 -0.196923 4.16735 0
M  V30 6328 H 607.13 -0.711433 3.14863 0
M  V30 6329 H 606.182 1.69485 3.40557 0
M  V30 6330 H 607.494 2.0238 4.55899 0
M  V30 6331 H 606.648 0.210976 6.06333 0
M  V30 6332 H 605.387 -0.215584 4.87223 0
M  V30 6333 H 604.392 2.07899 5.08978 0
M  V30 6334 H 605.617 2.49861 6.31464 0
M  V30 6335 H 603.563 0.267451 6.55455 0
M  V30 6336 H 603.48 1.81011 7.3401 0
M  V30 6337 H 604.748 0.698906 7.7636 0
M  V30 6338 N 608.977 -1.30795 0.87923 0
M  V30 6339 C 609.924 -2.28282 0.339968 0
M  V30 6340 C 610.894 -1.56134 -0.566685 0
M  V30 6341 O 612.079 -1.84231 -0.496338 0
M  V30 6342 C 609.219 -3.42225 -0.444501 0
M  V30 6343 C 608.332 -4.29204 0.490717 0
M  V30 6344 C 607.467 -5.30302 -0.308784 0
M  V30 6345 C 606.506 -6.08929 0.622272 0
M  V30 6346 N 605.643 -7.01957 -0.14155 0
M  V30 6347 H 610.483 -2.73794 1.17647 0
M  V30 6348 H 608.02 -1.34682 0.591527 0
M  V30 6349 H 609.978 -4.07038 -0.915186 0
M  V30 6350 H 608.608 -2.97799 -1.24562 0
M  V30 6351 H 607.66 -3.6475 1.07988 0
M  V30 6352 H 608.972 -4.84045 1.20425 0
M  V30 6353 H 608.126 -6.00835 -0.841575 0
M  V30 6354 H 606.865 -4.7614 -1.05556 0
M  V30 6355 H 605.87 -5.37278 1.16674 0
M  V30 6356 H 607.095 -6.65178 1.36804 0
M  V30 6357 H 605.041 -6.50192 -0.870966 0
M  V30 6358 H 604.958 -7.54261 0.51246 0
M  V30 6359 H 606.226 -7.76741 -0.655271 0
M  V30 6360 N 610.455 -0.639598 -1.44038 0
M  V30 6361 C 611.866 -0.228866 -1.85292 0
M  V30 6362 C 612.217 1.22161 -1.53529 0
M  V30 6363 O 611.342 1.93064 -0.977518 0
M  V30 6364 C 611.937 -0.408592 -3.36327 0
M  V30 6365 C 610.496 -0.0522953 -3.76364 0
M  V30 6366 C 609.643 -0.717959 -2.67844 0
M  V30 6367 H 612.594 -0.844194 -1.34384 0
M  V30 6368 H 612.615 0.349968 -3.78887 0
M  V30 6369 H 612.127 -1.46435 -3.59414 0
M  V30 6370 H 610.228 1.0014 -3.58891 0
M  V30 6371 H 610.341 -0.468261 -4.76806 0
M  V30 6372 H 608.705 -0.152459 -2.54243 0
M  V30 6373 H 609.488 -1.77648 -2.93762 0
M  V30 6374 N 611.933 1.52934 -0.380664 0
M  V30 6375 C 613.21 1.93845 0.261417 0
M  V30 6376 C 613.59 1.31544 1.65104 0
M  V30 6377 O 612.938 0.480234 2.23397 0
M  V30 6378 C 613.148 3.47739 0.296466 0
M  V30 6379 C 614.496 4.21284 0.529578 0
M  V30 6380 O 615.52 3.54199 0.377041 0
M  V30 6381 O 614.379 5.40195 0.827753 0
M  V30 6382 H 611.473 0.811318 0.160285 0
M  V30 6383 H 614.019 1.64042 -0.434544 0
M  V30 6384 H 612.791 3.85395 -0.67724 0
M  V30 6385 H 612.414 3.8382 1.0377 0
M  V30 6386 N 613.412 0.11024 1.57214 0
M  V30 6387 C 614.661 -0.549638 1.94067 0
M  V30 6388 C 614.974 -1.68388 0.995234 0
M  V30 6389 O 616.18 -2.40593 1.25807 0
M  V30 6390 C 614.636 -1.02912 3.44873 0
M  V30 6391 C 614.244 0.0761861 4.47935 0
M  V30 6392 C 615.988 -1.66087 3.9066 0
M  V30 6393 C 613.895 -0.419502 5.8991 0
M  V30 6394 H 612.825 -0.209092 0.724428 0
M  V30 6395 H 615.476 0.188683 1.82527 0
M  V30 6396 H 613.858 -1.82159 3.51616 0
M  V30 6397 H 615.032 0.852185 4.52851 0
M  V30 6398 H 613.347 0.614052 4.11847 0
M  V30 6399 H 615.944 -2.04272 4.94143 0
M  V30 6400 H 616.287 -2.53591 3.30148 0
M  V30 6401 H 616.82 -0.933959 3.86681 0
M  V30 6402 H 613.559 0.419277 6.54158 0
M  V30 6403 H 613.079 -1.16217 5.88433 0
M  V30 6404 H 614.758 -0.883577 6.40938 0
M  V30 6405 N 614.89 -1.56749 -0.16351 0
M  V30 6406 C 616.301 -1.72039 -0.725216 0
M  V30 6407 C 616.652 -0.72202 -1.82432 0
M  V30 6408 O 615.777 0.114942 -2.16095 0
M  V30 6409 C 616.372 -3.11932 -1.32227 0
M  V30 6410 C 614.931 -3.28879 -1.83072 0
M  V30 6411 C 614.078 -2.67984 -0.712716 0
M  V30 6412 H 617.029 -1.58579 0.0619772 0
M  V30 6413 H 617.05 -3.11015 -2.19202 0
M  V30 6414 H 616.562 -3.84572 -0.522103 0
M  V30 6415 H 614.663 -2.61209 -2.65708 0
M  V30 6416 H 614.776 -4.36688 -1.97079 0
M  V30 6417 H 613.14 -2.28005 -1.13515 0
M  V30 6418 H 613.923 -3.43216 0.0757361 0
M  V30 6419 N 616.368 0.432326 -1.51554 0
M  V30 6420 C 617.784 0.769195 -1.39841 0
M  V30 6421 C 617.984 1.95584 -0.484675 0
M  V30 6422 O 617.04 2.52433 0.0582829 0
M  V30 6423 C 618.353 1.04487 -2.81963 0
M  V30 6424 C 619.901 1.149 -2.91148 0
M  V30 6425 C 620.376 1.45758 -4.34187 0
M  V30 6426 N 621.867 1.52671 -4.37317 0
M  V30 6427 C 622.602 1.78129 -5.4503 0
M  V30 6428 N 622.098 2.01345 -6.62897 0
M  V30 6429 N 623.891 1.79953 -5.32516 0
M  V30 6430 H 616.042 -0.349122 -2.09511 0
M  V30 6431 H 618.305 -0.0938113 -0.943347 0
M  V30 6432 H 618.011 0.24557 -3.50842 0
M  V30 6433 H 617.885 1.97119 -3.21596 0
M  V30 6434 H 620.272 1.93891 -2.22464 0
M  V30 6435 H 620.353 0.201568 -2.55005 0
M  V30 6436 H 619.997 0.672917 -5.03423 0
M  V30 6437 H 619.927 2.41715 -4.67848 0
M  V30 6438 H 622.418 1.36612 -3.52343 0
M  V30 6439 H 622.731 2.20155 -7.40778 0
M  V30 6440 H 621.076 1.98657 -6.66003 0
M  V30 6441 H 624.267 1.61337 -4.39418 0
M  V30 6442 H 624.44 1.99455 -6.1654 0
M  V30 6443 N 617.846 1.41785 0.688094 0
M  V30 6444 C 619.257 1.3701 1.26828 0
M  V30 6445 C 619.608 0.056835 1.96118 0
M  V30 6446 O 618.733 -0.84475 1.99231 0
M  V30 6447 C 619.328 2.48168 2.30648 0
M  V30 6448 C 617.887 2.46766 2.84224 0
M  V30 6449 C 617.034 2.27633 1.58361 0
M  V30 6450 H 619.985 1.51192 0.482351 0
M  V30 6451 H 620.006 2.17655 3.121 0
M  V30 6452 H 619.518 3.43735 1.80188 0
M  V30 6453 H 617.619 1.54978 3.3884 0
M  V30 6454 H 617.732 3.43342 3.34145 0
M  V30 6455 H 616.096 1.75648 1.84445 0
M  V30 6456 H 616.879 3.25238 1.09887 0
M  V30 6457 N 619.324 -0.923095 1.27737 0
M  V30 6458 C 620.573 -1.66581 1.13727 0
M  V30 6459 C 620.886 -1.9304 -0.315433 0
M  V30 6460 O 622.092 -2.65309 -0.57651 0
M  V30 6461 C 620.548 -3.00047 1.98745 0
M  V30 6462 C 620.156 -2.8127 3.48699 0
M  V30 6463 C 621.9 -3.77887 1.93395 0
M  V30 6464 C 619.807 -4.1032 4.25901 0
M  V30 6465 H 618.737 -0.624834 0.422017 0
M  V30 6466 H 621.388 -1.02514 1.52194 0
M  V30 6467 H 619.77 -3.65197 1.53125 0
M  V30 6468 H 620.944 -2.24859 4.02213 0
M  V30 6469 H 619.259 -2.16854 3.55476 0
M  V30 6470 H 621.856 -4.73526 2.48348 0
M  V30 6471 H 622.199 -4.06264 0.908605 0
M  V30 6472 H 622.732 -3.19541 2.36935 0
M  V30 6473 H 619.471 -3.8712 5.28978 0
M  V30 6474 H 618.991 -4.66377 3.77163 0
M  V30 6475 H 620.67 -4.78648 4.35321 0
M  V30 6476 N 620.802 -1.09834 -1.13024 0
M  V30 6477 C 621.749 -0.741522 -2.18564 0
M  V30 6478 C 622.719 0.279236 -1.63736 0
M  V30 6479 O 623.904 0.159923 -1.90129 0
M  V30 6480 C 621.044 -0.17277 -3.44667 0
M  V30 6481 C 620.157 -1.24808 -4.13578 0
M  V30 6482 C 619.292 -0.641631 -5.27311 0
M  V30 6483 C 618.331 -1.69795 -5.88078 0
M  V30 6484 N 617.468 -1.11223 -6.93234 0
M  V30 6485 H 622.308 -1.64576 -2.48432 0
M  V30 6486 H 619.845 -0.822174 -1.21978 0
M  V30 6487 H 621.803 0.17482 -4.16834 0
M  V30 6488 H 620.433 0.694725 -3.15235 0
M  V30 6489 H 619.485 -1.71288 -3.39653 0
M  V30 6490 H 620.797 -2.04795 -4.54819 0
M  V30 6491 H 619.951 -0.243128 -6.06213 0
M  V30 6492 H 618.69 0.189742 -4.87331 0
M  V30 6493 H 617.695 -2.10595 -5.07868 0
M  V30 6494 H 618.92 -2.53206 -6.3013 0
M  V30 6495 H 616.866 -0.302208 -6.55304 0
M  V30 6496 H 616.783 -1.84901 -7.3304 0
M  V30 6497 H 618.051 -0.740068 -7.75979 0
M  V30 6498 N 622.28 1.30327 -0.886154 0
M  V30 6499 C 623.529 1.95373 -0.501243 0
M  V30 6500 C 623.842 1.70722 0.954634 0
M  V30 6501 O 625.048 2.29761 1.44644 0
M  V30 6502 C 623.504 3.49828 -0.845493 0
M  V30 6503 C 623.112 3.83296 -2.31922 0
M  V30 6504 C 624.856 4.2118 -0.529838 0
M  V30 6505 C 622.763 5.30935 -2.60504 0
M  V30 6506 H 621.693 0.731274 -0.183722 0
M  V30 6507 H 624.344 1.48258 -1.08129 0
M  V30 6508 H 622.726 3.95522 -0.19452 0
M  V30 6509 H 623.9 3.48508 -3.01461 0
M  V30 6510 H 622.215 3.2505 -2.60253 0
M  V30 6511 H 624.812 5.29825 -0.720401 0
M  V30 6512 H 625.155 4.12902 0.530828 0
M  V30 6513 H 625.688 3.81173 -1.13806 0
M  V30 6514 H 622.427 5.44265 -3.65316 0
M  V30 6515 H 621.947 5.67019 -1.95575 0
M  V30 6516 H 623.626 5.98381 -2.46066 0
M  V30 6517 N 623.758 0.647228 1.43697 0
M  V30 6518 C 624.706 -0.0600105 2.32523 0
M  V30 6519 C 625.7 -0.819277 1.48271 0
M  V30 6520 O 626.906 -0.730356 1.64517 0
M  V30 6521 H 623.281 -0.0381872 0.75103 0
M  V30 6522 H 625.252 0.706978 2.89904 0
M  V30 6523 C 624.001 -1.0169 3.32497 0
M  V30 6524 H 623.324 -0.442083 3.97348 0
M  V30 6525 H 624.764 -1.48095 3.97296 0
M  V30 6526 C 623.223 -2.11002 2.6264 0
M  V30 6527 O 623.753 -3.19302 2.4374 0
M  V30 6528 N 621.959 -1.87388 2.22113 0
M  V30 6529 H 621.506 -0.993174 2.37684 0
M  V30 6530 H 621.464 -2.60723 1.75701 0
M  V30 6531 N 625.236 -1.5273 0.388769 0
M  V30 6532 C 626.166 -2.29353 -0.438111 0
M  V30 6533 C 627.147 -1.32719 -1.06394 0
M  V30 6534 O 628.332 -1.61612 -1.07681 0
M  V30 6535 C 625.462 -3.09995 -1.56589 0
M  V30 6536 C 624.416 -4.14509 -1.06613 0
M  V30 6537 C 623.742 -4.83372 -2.28594 0
M  V30 6538 C 625.042 -5.22127 -0.134459 0
M  V30 6539 H 626.736 -2.98723 0.201206 0
M  V30 6540 H 624.282 -1.43665 0.0982089 0
M  V30 6541 H 626.235 -3.62357 -2.15118 0
M  V30 6542 H 624.959 -2.38357 -2.23279 0
M  V30 6543 H 623.618 -3.63128 -0.503383 0
M  V30 6544 H 623.266 -4.08283 -2.93792 0
M  V30 6545 H 622.966 -5.54012 -1.95817 0
M  V30 6546 H 624.49 -5.38538 -2.87766 0
M  V30 6547 H 625.904 -5.69851 -0.627914 0
M  V30 6548 H 624.301 -6.00011 0.103534 0
M  V30 6549 H 625.371 -4.77971 0.816798 0
M  V30 6550 N 626.714 -0.118576 -1.57153 0
M  V30 6551 C 627.644 0.828436 -2.1831 0
M  V30 6552 C 628.625 1.27758 -1.12303 0
M  V30 6553 O 629.81 1.34026 -1.40537 0
M  V30 6554 C 626.94 2.07876 -2.78217 0
M  V30 6555 C 625.894 1.76742 -3.89803 0
M  V30 6556 C 625.22 3.08801 -4.36516 0
M  V30 6557 C 626.52 1.03606 -5.11921 0
M  V30 6558 H 628.214 0.318824 -2.97698 0
M  V30 6559 H 625.76 0.151911 -1.43196 0
M  V30 6560 H 627.713 2.74584 -3.19659 0
M  V30 6561 H 626.437 2.61161 -1.96118 0
M  V30 6562 H 625.096 1.12424 -3.48936 0
M  V30 6563 H 624.744 3.6002 -3.51276 0
M  V30 6564 H 624.444 2.88743 -5.11763 0
M  V30 6565 H 625.968 3.76627 -4.80608 0
M  V30 6566 H 627.382 1.60467 -5.50385 0
M  V30 6567 H 625.779 0.936454 -5.92748 0
M  V30 6568 H 626.849 0.0227421 -4.84895 0
M  V30 6569 N 628.193 1.56834 0.155195 0
M  V30 6570 C 629.44 1.82898 0.869179 0
M  V30 6571 C 629.768 0.698194 1.81537 0
M  V30 6572 O 629.023 -0.313404 1.93174 0
M  V30 6573 C 629.322 3.15239 1.68402 0
M  V30 6574 C 628.988 4.42123 0.885341 0
M  V30 6575 C 627.65 4.76583 0.664971 0
M  V30 6576 C 630.002 5.20178 0.326234 0
M  V30 6577 C 627.33 5.86566 -0.125346 0
M  V30 6578 C 629.682 6.3099 -0.45108 0
M  V30 6579 C 628.346 6.64006 -0.682102 0
M  V30 6580 H 627.616 0.66927 0.318055 0
M  V30 6581 H 630.263 1.91036 0.133241 0
M  V30 6582 H 628.568 3.02515 2.48982 0
M  V30 6583 H 630.265 3.32618 2.23978 0
M  V30 6584 H 626.855 4.15102 1.06716 0
M  V30 6585 H 631.039 4.93936 0.483787 0
M  V30 6586 H 626.295 6.10594 -0.313915 0
M  V30 6587 H 630.469 6.9067 -0.89149 0
M  V30 6588 H 628.096 7.49065 -1.29636 0
M  V30 6589 N 629.671 -0.424282 1.51781 0
M  V30 6590 C 631.082 -1.00368 1.57427 0
M  V30 6591 C 631.433 -1.91962 0.40558 0
M  V30 6592 O 630.558 -2.111 -0.47601 0
M  V30 6593 C 631.153 -1.82707 2.85313 0
M  V30 6594 C 629.712 -2.35675 2.93487 0
M  V30 6595 C 628.859 -1.1524 2.5222 0
M  V30 6596 H 631.81 -0.205064 1.5737 0
M  V30 6597 H 631.831 -2.68294 2.69812 0
M  V30 6598 H 631.343 -1.16017 3.70353 0
M  V30 6599 H 629.444 -3.05781 2.12906 0
M  V30 6600 H 629.557 -2.67578 3.97415 0
M  V30 6601 H 627.921 -1.50174 2.05718 0
M  V30 6602 H 628.704 -0.5014 3.39619 0
M  V30 6603 N 631.149 -1.42148 -0.680565 0
M  V30 6604 C 632.398 -1.41604 -1.43636 0
M  V30 6605 C 632.711 -0.0337887 -1.95571 0
M  V30 6606 O 633.917 0.0942588 -2.71336 0
M  V30 6607 C 632.373 -2.49056 -2.59806 0
M  V30 6608 C 631.981 -3.9326 -2.14594 0
M  V30 6609 C 633.725 -2.5767 -3.37352 0
M  V30 6610 C 631.632 -4.92232 -3.27813 0
M  V30 6611 H 630.562 -0.526656 -0.539583 0
M  V30 6612 H 633.213 -1.68033 -0.737369 0
M  V30 6613 H 631.595 -2.15782 -3.32045 0
M  V30 6614 H 632.769 -4.35858 -1.49546 0
M  V30 6615 H 631.084 -3.88443 -1.50002 0
M  V30 6616 H 633.681 -3.28794 -4.21662 0
M  V30 6617 H 634.024 -1.61837 -3.83555 0
M  V30 6618 H 634.557 -2.90109 -2.72179 0
M  V30 6619 H 631.296 -5.89522 -2.86607 0
M  V30 6620 H 630.816 -4.5427 -3.91661 0
M  V30 6621 H 632.495 -5.13684 -3.93367 0
M  V30 6622 N 632.627 0.916307 -1.28225 0
M  V30 6623 C 633.876 1.65975 -1.14608 0
M  V30 6624 C 634.189 1.93204 0.305191 0
M  V30 6625 O 635.395 2.65611 0.562432 0
M  V30 6626 C 633.851 2.98989 -2.00333 0
M  V30 6627 C 633.459 2.79417 -3.50186 0
M  V30 6628 C 635.203 3.76856 -1.95397 0
M  V30 6629 C 633.11 4.08056 -4.28071 0
M  V30 6630 H 632.04 0.622587 -0.425324 0
M  V30 6631 H 634.691 1.01705 -1.52736 0
M  V30 6632 H 633.073 3.6438 -1.5506 0
M  V30 6633 H 634.247 2.22723 -4.034 0
M  V30 6634 H 632.562 2.14966 -3.56621 0
M  V30 6635 H 635.159 4.72203 -2.50856 0
M  V30 6636 H 635.502 4.05776 -0.930137 0
M  V30 6637 H 636.035 3.1828 -2.38626 0
M  V30 6638 H 632.774 3.8431 -5.31024 0
M  V30 6639 H 632.294 4.64371 -3.79631 0
M  V30 6640 H 633.973 4.76333 -4.37854 0
M  V30 6641 N 634.105 1.10431 1.1244 0
M  V30 6642 C 635.335 0.867612 1.87499 0
M  V30 6643 C 635.743 -0.585475 1.79913 0
M  V30 6644 O 635.086 -1.41539 1.171 0
M  V30 6645 C 635.148 1.2374 3.37533 0
M  V30 6646 C 634.812 2.69751 3.68895 0
M  V30 6647 C 635.809 3.67988 3.67261 0
M  V30 6648 C 633.494 3.06135 3.98229 0
M  V30 6649 C 635.488 5.00632 3.9452 0
M  V30 6650 C 633.175 4.38967 4.25149 0
M  V30 6651 C 634.173 5.36025 4.23281 0
M  V30 6652 O 633.861 6.66465 4.49533 0
M  V30 6653 H 633.593 0.311196 0.600111 0
M  V30 6654 H 636.147 1.47257 1.43194 0
M  V30 6655 H 634.377 0.575537 3.82393 0
M  V30 6656 H 636.066 0.978187 3.93937 0
M  V30 6657 H 636.832 3.41224 3.44661 0
M  V30 6658 H 632.711 2.31214 3.98825 0
M  V30 6659 H 636.255 5.7638 3.92978 0
M  V30 6660 H 632.152 4.6547 4.47223 0
M  V30 6661 H 632.92 6.72095 4.67152 0
M  V30 6662 N 635.583 -1.29855 0.893053 0
M  V30 6663 C 636.513 -2.3035 0.382249 0
M  V30 6664 C 637.494 -1.61328 -0.539203 0
M  V30 6665 O 638.679 -1.88882 -0.451342 0
M  V30 6666 C 635.809 -3.45024 -0.396983 0
M  V30 6667 C 634.763 -4.258 0.433437 0
M  V30 6668 C 634.089 -5.32605 -0.472889 0
M  V30 6669 C 635.389 -4.94549 1.67984 0
M  V30 6670 H 637.083 -2.73325 1.22205 0
M  V30 6671 H 634.629 -1.314 0.589073 0
M  V30 6672 H 636.582 -4.14398 -0.765024 0
M  V30 6673 H 635.306 -3.00875 -1.2705 0
M  V30 6674 H 633.965 -3.58125 0.783723 0
M  V30 6675 H 633.613 -4.84702 -1.34435 0
M  V30 6676 H 633.313 -5.87547 0.0789958 0
M  V30 6677 H 634.837 -6.04832 -0.837269 0
M  V30 6678 H 636.251 -5.56395 1.38192 0
M  V30 6679 H 634.648 -5.59393 2.17254 0
M  V30 6680 H 635.718 -4.20215 2.41965 0
M  V30 6681 N 637.061 -0.65484 -1.43351 0
M  V30 6682 C 637.991 0.0221809 -2.33489 0
M  V30 6683 C 638.972 0.810272 -1.49561 0
M  V30 6684 O 640.157 0.771426 -1.78221 0
M  V30 6685 C 637.287 0.988117 -3.32947 0
M  V30 6686 C 636.241 0.310026 -4.26876 0
M  V30 6687 C 635.567 1.38752 -5.16384 0
M  V30 6688 C 636.867 -0.798589 -5.16159 0
M  V30 6689 H 638.561 -0.730571 -2.9035 0
M  V30 6690 H 636.107 -0.352773 -1.39612 0
M  V30 6691 H 638.06 1.47067 -3.94904 0
M  V30 6692 H 636.784 1.77205 -2.74346 0
M  V30 6693 H 635.443 -0.152097 -3.66284 0
M  V30 6694 H 635.091 2.16293 -4.54121 0
M  V30 6695 H 634.791 0.939051 -5.80048 0
M  V30 6696 H 636.315 1.87141 -5.81215 0
M  V30 6697 H 637.729 -0.398126 -5.71916 0
M  V30 6698 H 636.126 -1.17163 -5.88552 0
M  V30 6699 H 637.196 -1.65588 -4.55751 0
M  V30 6700 N 638.539 1.52521 -0.396863 0
M  V30 6701 C 639.786 2.01672 0.182898 0
M  V30 6702 C 640.114 1.28302 1.46181 0
M  V30 6703 O 639.369 0.374118 1.92091 0
M  V30 6704 C 639.668 3.5403 0.489677 0
M  V30 6705 C 639.334 4.45456 -0.698581 0
M  V30 6706 C 637.996 4.70166 -1.02454 0
M  V30 6707 C 640.348 4.99354 -1.49316 0
M  V30 6708 C 637.676 5.46024 -2.1465 0
M  V30 6709 C 640.028 5.76439 -2.60579 0
M  V30 6710 C 638.692 5.99426 -2.93675 0
M  V30 6711 H 637.962 0.737971 0.066927 0
M  V30 6712 H 640.609 1.83853 -0.535764 0
M  V30 6713 H 638.914 3.69963 1.28976 0
M  V30 6714 H 640.611 3.8956 0.951018 0
M  V30 6715 H 637.201 4.26392 -0.434525 0
M  V30 6716 H 641.385 4.80182 -1.25457 0
M  V30 6717 H 636.641 5.62046 -2.40654 0
M  V30 6718 H 640.815 6.17202 -3.22544 0
M  V30 6719 H 638.442 6.57988 -3.80731 0
M  V30 6720 N 640.017 0.126909 1.57088 0
M  V30 6721 C 641.263 -0.523662 1.96543 0
M  V30 6722 C 641.618 -1.63783 1.0096 0
M  V30 6723 O 640.911 -1.91556 0.0410175 0
M  V30 6724 C 641.105 -1.095 3.40212 0
M  V30 6725 C 640.934 -0.037715 4.49684 0
M  V30 6726 C 639.704 0.396823 5.03739 0
M  V30 6727 C 641.902 0.746245 5.08857 0
M  V30 6728 N 639.884 1.43905 5.96795 0
M  V30 6729 C 641.255 1.63947 5.97931 0
M  V30 6730 C 643.31 0.796259 4.91492 0
M  V30 6731 C 642.013 2.57837 6.715 0
M  V30 6732 C 644.039 1.7229 5.65747 0
M  V30 6733 C 643.401 2.60369 6.54513 0
M  V30 6734 H 639.5 -0.161016 0.765244 0
M  V30 6735 H 642.084 0.21686 1.93489 0
M  V30 6736 H 640.255 -1.80521 3.43899 0
M  V30 6737 H 641.987 -1.71054 3.66773 0
M  V30 6738 H 638.742 0.00290406 4.736 0
M  V30 6739 H 639.166 1.95932 6.48027 0
M  V30 6740 H 643.808 0.129412 4.22602 0
M  V30 6741 H 641.526 3.25532 7.39631 0
M  V30 6742 H 645.112 1.76715 5.54313 0
M  V30 6743 H 643.992 3.30906 7.10965 0
M  V30 6744 N 641.495 -1.56914 -0.146875 0
M  V30 6745 C 642.458 -1.97368 -1.16526 0
M  V30 6746 C 643.458 -0.860223 -1.35856 0
M  V30 6747 O 644.648 -1.12684 -1.32846 0
M  V30 6748 C 641.78 -2.28974 -2.52555 0
M  V30 6749 H 642.973 -2.88523 -0.818209 0
M  V30 6750 H 640.526 -1.5135 -0.390221 0
M  V30 6751 H 641.261 -1.40611 -2.92231 0
M  V30 6752 H 641.046 -3.10157 -2.39886 0
M  V30 6753 H 642.536 -2.61109 -3.25902 0
M  V30 6754 N 642.974 0.416227 -1.52004 0
M  V30 6755 C 644.221 1.16383 -1.65714 0
M  V30 6756 C 644.549 1.9068 -0.383594 0
M  V30 6757 O 643.804 1.85174 0.633185 0
M  V30 6758 C 644.103 2.18923 -2.82502 0
M  V30 6759 C 643.769 1.61485 -4.20991 0
M  V30 6760 C 642.431 1.45545 -4.58661 0
M  V30 6761 C 644.783 1.19468 -5.07323 0
M  V30 6762 C 642.111 0.860937 -5.80349 0
M  V30 6763 C 644.463 0.614386 -6.29609 0
M  V30 6764 C 643.127 0.442056 -6.66035 0
M  V30 6765 H 642.397 0.425875 -0.606392 0
M  V30 6766 H 645.044 0.45199 -1.8609 0
M  V30 6767 H 643.349 2.96225 -2.56433 0
M  V30 6768 H 645.046 2.76628 -2.90307 0
M  V30 6769 H 641.636 1.74873 -3.91302 0
M  V30 6770 H 645.82 1.30596 -4.78809 0
M  V30 6771 H 641.076 0.715372 -6.072 0
M  V30 6772 H 645.25 0.280393 -6.95835 0
M  V30 6773 H 642.877 -0.0207218 -7.60197 0
M  V30 6774 N 644.452 1.42507 0.673017 0
M  V30 6775 C 645.382 1.48916 1.79851 0
M  V30 6776 C 646.363 0.345566 1.66553 0
M  V30 6777 O 647.548 0.560116 1.85947 0
M  V30 6778 C 644.678 1.39258 3.18158 0
M  V30 6779 C 643.632 2.51662 3.46194 0
M  V30 6780 C 642.958 2.27062 4.84094 0
M  V30 6781 C 644.258 3.93968 3.42909 0
M  V30 6782 H 645.952 2.43114 1.74745 0
M  V30 6783 H 643.498 1.17013 0.839288 0
M  V30 6784 H 645.451 1.42349 3.96629 0
M  V30 6785 H 644.175 0.415542 3.23946 0
M  V30 6786 H 642.834 2.47891 2.70084 0
M  V30 6787 H 642.482 1.27648 4.86534 0
M  V30 6788 H 642.182 3.02398 5.03815 0
M  V30 6789 H 643.706 2.31905 5.64847 0
M  V30 6790 H 645.12 3.99332 4.11347 0
M  V30 6791 H 643.517 4.6917 3.74165 0
M  V30 6792 H 644.587 4.20512 2.41449 0
M  V30 6793 N 645.93 -0.909495 1.28709 0
M  V30 6794 C 646.86 -2.0291 1.15542 0
M  V30 6795 C 647.841 -1.7002 0.0521017 0
M  V30 6796 O 649.026 -1.92835 0.229849 0
M  V30 6797 C 646.156 -3.37458 0.820935 0
M  V30 6798 C 645.11 -3.84524 1.87949 0
M  V30 6799 C 644.436 -5.16086 1.39854 0
M  V30 6800 C 645.736 -4.05918 3.28676 0
M  V30 6801 H 647.43 -2.14183 2.09203 0
M  V30 6802 H 644.976 -1.02913 1.00722 0
M  V30 6803 H 646.929 -4.1528 0.715571 0
M  V30 6804 H 645.653 -3.26249 -0.151374 0
M  V30 6805 H 644.312 -3.08911 1.97408 0
M  V30 6806 H 643.96 -5.01284 0.41518 0
M  V30 6807 H 643.66 -5.48547 2.1064 0
M  V30 6808 H 645.184 -5.96459 1.30649 0
M  V30 6809 H 646.598 -4.74252 3.22115 0
M  V30 6810 H 644.995 -4.49717 3.97334 0
M  V30 6811 H 646.065 -3.10583 3.72379 0
M  V30 6812 N 647.408 -1.11026 -1.11852 0
M  V30 6813 C 648.654 -0.857729 -1.83768 0
M  V30 6814 C 648.987 0.615143 -1.842 0
M  V30 6815 O 648.262 1.45391 -1.29196 0
M  V30 6816 C 648.545 -1.41453 -3.31154 0
M  V30 6817 C 648.398 -2.95471 -3.39142 0
M  V30 6818 C 649.717 -1.0619 -4.27097 0
M  V30 6819 H 646.836 -0.313044 -0.667212 0
M  V30 6820 H 649.478 -1.37443 -1.31185 0
M  V30 6821 H 647.628 -0.975052 -3.76065 0
M  V30 6822 H 649.3 -3.4799 -3.02821 0
M  V30 6823 H 647.543 -3.31759 -2.79497 0
M  V30 6824 H 648.214 -3.29515 -4.42859 0
M  V30 6825 H 650.69 -1.44122 -3.90344 0
M  V30 6826 H 649.566 -1.47832 -5.28618 0
M  V30 6827 H 649.827 0.0278912 -4.42091 0
M  V30 6828 N 648.886 1.2938 -0.899927 0
M  V30 6829 C 650.133 1.9555 -0.525963 0
M  V30 6830 C 650.461 1.70945 0.927789 0
M  V30 6831 O 649.716 1.01545 1.67293 0
M  V30 6832 C 650.015 3.49114 -0.765113 0
M  V30 6833 C 649.681 3.93796 -2.19626 0
M  V30 6834 C 648.343 4.05707 -2.58758 0
M  V30 6835 C 650.695 4.16883 -3.12823 0
M  V30 6836 C 648.023 4.38074 -3.90267 0
M  V30 6837 C 650.375 4.50725 -4.4388 0
M  V30 6838 C 649.039 4.60845 -4.82885 0
M  V30 6839 H 648.309 0.715569 -0.192463 0
M  V30 6840 H 650.956 1.53972 -1.13863 0
M  V30 6841 H 649.261 3.91738 -0.069531 0
M  V30 6842 H 650.958 3.98409 -0.455144 0
M  V30 6843 H 647.548 3.85042 -1.88256 0
M  V30 6844 H 651.732 4.07147 -2.83804 0
M  V30 6845 H 646.988 4.44112 -4.20207 0
M  V30 6846 H 651.162 4.67538 -5.16121 0
M  V30 6847 H 648.789 4.85681 -5.84823 0
M  V30 6848 N 650.364 0.662433 1.43002 0
M  V30 6849 C 651.589 0.186003 2.06564 0
M  V30 6850 C 652.014 -1.14314 1.49379 0
M  V30 6851 O 651.372 -1.70824 0.607346 0
M  V30 6852 C 651.42 0.118269 3.60406 0
M  V30 6853 O 650.524 -0.916859 4.02079 0
M  V30 6854 H 649.865 0.0990981 0.656563 0
M  V30 6855 H 652.395 0.907958 1.8335 0
M  V30 6856 H 652.405 -0.0619981 4.07953 0
M  V30 6857 H 651.08 1.08849 4.01403 0
M  V30 6858 H 649.657 -0.708635 3.66105 0
M  V30 6859 N 651.842 -1.52309 0.404946 0
M  V30 6860 C 652.772 -2.29805 -0.41376 0
M  V30 6861 C 653.753 -1.3384 -1.0498 0
M  V30 6862 O 654.938 -1.62745 -1.05961 0
M  V30 6863 C 652.068 -3.11639 -1.53292 0
M  V30 6864 C 651.022 -4.15616 -1.02211 0
M  V30 6865 C 650.348 -4.8577 -2.23455 0
M  V30 6866 C 651.648 -5.2224 -0.0790725 0
M  V30 6867 H 653.342 -2.98493 0.232878 0
M  V30 6868 H 650.888 -1.43552 0.113441 0
M  V30 6869 H 652.841 -3.64618 -2.11262 0
M  V30 6870 H 651.565 -2.40712 -2.20738 0
M  V30 6871 H 650.224 -3.63641 -0.46484 0
M  V30 6872 H 649.872 -4.11376 -2.89445 0
M  V30 6873 H 649.572 -5.56058 -1.89929 0
M  V30 6874 H 651.096 -5.4156 -2.82038 0
M  V30 6875 H 652.51 -5.70485 -0.567438 0
M  V30 6876 H 650.907 -5.99867 0.167167 0
M  V30 6877 H 651.977 -4.77078 0.867447 0
M  V30 6878 N 653.32 -0.135238 -1.57019 0
M  V30 6879 C 654.566 0.513232 -1.96818 0
M  V30 6880 C 654.921 1.63245 -1.01827 0
M  V30 6881 O 654.214 1.91532 -0.0511756 0
M  V30 6882 C 654.408 1.07694 -3.40788 0
M  V30 6883 C 654.237 0.0138667 -4.49698 0
M  V30 6884 C 653.007 -0.423532 -5.03522 0
M  V30 6885 C 655.205 -0.77322 -5.08454 0
M  V30 6886 N 653.187 -1.47068 -5.96024 0
M  V30 6887 C 654.558 -1.67115 -5.97053 0
M  V30 6888 C 656.613 -0.822313 -4.91063 0
M  V30 6889 C 655.316 -2.61395 -6.70123 0
M  V30 6890 C 657.342 -1.75288 -5.64826 0
M  V30 6891 C 656.704 -2.63836 -6.53123 0
M  V30 6892 H 652.803 0.156956 -0.766087 0
M  V30 6893 H 655.387 -0.227118 -1.93371 0
M  V30 6894 H 653.558 1.78694 -3.44852 0
M  V30 6895 H 655.29 1.69106 -3.67675 0
M  V30 6896 H 652.045 -0.0280202 -4.73592 0
M  V30 6897 H 652.469 -1.99366 -6.46979 0
M  V30 6898 H 657.111 -0.151822 -4.22527 0
M  V30 6899 H 654.829 -3.2945 -7.37895 0
M  V30 6900 H 658.415 -1.79652 -5.53368 0
M  V30 6901 H 657.295 -3.34672 -7.092 0
M  V30 6902 N 654.798 1.5699 0.138552 0
M  V30 6903 C 656.023 1.88344 0.86841 0
M  V30 6904 C 656.448 0.725159 1.7356 0
M  V30 6905 O 655.806 -0.324992 1.78363 0
M  V30 6906 C 655.854 3.18334 1.69398 0
M  V30 6907 O 654.958 3.02863 2.79907 0
M  V30 6908 H 654.299 0.618577 0.241367 0
M  V30 6909 H 656.829 2.04207 0.126826 0
M  V30 6910 H 656.839 3.50567 2.08726 0
M  V30 6911 H 655.514 4.02238 1.05725 0
M  V30 6912 H 654.091 2.82056 2.43924 0
M  V30 6913 N 656.276 -0.40816 1.52223 0
M  V30 6914 C 657.186 -1.52202 1.78526 0
M  V30 6915 C 658.202 -1.60546 0.670892 0
M  V30 6916 O 659.378 -1.77242 0.956404 0
M  V30 6917 C 656.443 -2.87928 1.93128 0
M  V30 6918 C 655.504 -2.89463 3.17033 0
M  V30 6919 C 654.737 -4.18715 3.30929 0
M  V30 6920 O 654.96 -5.12662 2.50067 0
M  V30 6921 O 653.894 -4.27125 4.24084 0
M  V30 6922 H 657.72 -1.32911 2.73072 0
M  V30 6923 H 655.305 -0.594112 1.37079 0
M  V30 6924 H 657.187 -3.68426 2.04549 0
M  V30 6925 H 655.862 -3.07285 1.01772 0
M  V30 6926 H 654.769 -2.07815 3.11069 0
M  V30 6927 H 656.102 -2.75055 4.08174 0
M  V30 6928 N 657.755 -1.42862 -0.66545 0
M  V30 6929 C 659.166 -1.3901 -1.24632 0
M  V30 6930 C 659.517 -0.0880285 -1.96002 0
M  V30 6931 O 658.642 0.812947 -2.0055 0
M  V30 6932 C 659.237 -2.51806 -2.2667 0
M  V30 6933 C 657.796 -2.51257 -2.80262 0
M  V30 6934 C 656.943 -2.30124 -1.5472 0
M  V30 6935 H 659.894 -1.5194 -0.458237 0
M  V30 6936 H 659.915 -2.22593 -3.08598 0
M  V30 6937 H 659.427 -3.46558 -1.74697 0
M  V30 6938 H 657.528 -1.60349 -3.36332 0
M  V30 6939 H 657.641 -3.48614 -3.28641 0
M  V30 6940 H 656.005 -1.7856 -1.81627 0
M  V30 6941 H 656.788 -3.26945 -1.04699 0
M  V30 6942 N 659.233 0.902656 -1.29189 0
M  V30 6943 C 660.479 1.65532 -1.17163 0
M  V30 6944 C 660.812 1.92216 0.276879 0
M  V30 6945 O 660.087 1.53048 1.20027 0
M  V30 6946 C 660.37 3.00629 -1.98228 0
M  V30 6947 C 660.223 2.81029 -3.51202 0
M  V30 6948 C 661.542 4.01321 -1.80635 0
M  V30 6949 H 658.661 0.60071 -0.426985 0
M  V30 6950 H 661.303 1.04578 -1.5863 0
M  V30 6951 H 659.453 3.52656 -1.62991 0
M  V30 6952 H 661.125 2.35927 -3.96404 0
M  V30 6953 H 659.368 2.1587 -3.76275 0
M  V30 6954 H 660.039 3.77014 -4.03192 0
M  V30 6955 H 662.515 3.58394 -2.11406 0
M  V30 6956 H 661.391 4.93792 -2.3971 0
M  V30 6957 H 661.652 4.35505 -0.760754 0
M  V30 6958 N 660.711 1.11618 1.11262 0
M  V30 6959 C 661.957 0.867463 1.83311 0
M  V30 6960 C 662.29 -0.605366 1.84524 0
M  V30 6961 O 661.565 -1.44704 1.29965 0
M  V30 6962 C 661.848 1.43207 3.30399 0
M  V30 6963 C 661.701 2.97265 3.3757 0
M  V30 6964 C 663.02 1.08454 4.26528 0
M  V30 6965 H 660.139 0.316578 0.665543 0
M  V30 6966 H 662.781 1.38137 1.30454 0
M  V30 6967 H 660.931 0.994982 3.75543 0
M  V30 6968 H 662.603 3.49591 3.00971 0
M  V30 6969 H 660.846 3.33237 2.77733 0
M  V30 6970 H 661.517 3.31859 4.41105 0
M  V30 6971 H 663.993 1.4619 3.89574 0
M  V30 6972 H 662.869 1.50633 5.27826 0
M  V30 6973 H 663.13 -0.00444568 4.421 0
M  V30 6974 N 662.189 -1.289 0.906776 0
M  V30 6975 C 663.429 -1.97046 0.543329 0
M  V30 6976 C 663.793 -1.69862 -0.895034 0
M  V30 6977 O 664.994 -2.31521 -1.36571 0
M  V30 6978 C 663.265 -3.47489 0.835833 0
M  V30 6979 S 664.824 -4.3498 0.577756 0
M  V30 6980 H 661.642 -0.681908 0.201302 0
M  V30 6981 H 664.244 -1.5657 1.17073 0
M  V30 6982 H 662.948 -3.64768 1.88075 0
M  V30 6983 H 662.479 -3.92907 0.196817 0
M  V30 6984 H 664.494 -4.92868 -0.574052 0
M  V30 6985 N 663.667 -0.670007 -1.42649 0
M  V30 6986 C 664.915 -0.18991 -2.01206 0
M  V30 6987 C 665.236 1.20617 -1.53221 0
M  V30 6988 O 664.506 1.80898 -0.751856 0
M  V30 6989 H 663.086 -0.0672189 -0.743969 0
M  V30 6990 H 665.748 -0.865442 -1.74631 0
M  V30 6991 H 664.844 -0.187481 -3.11536 0
M  V30 6992 N 665.145 1.52092 -0.413018 0
M  V30 6993 C 666.394 2.01041 0.16287 0
M  V30 6994 C 666.707 1.30288 1.45892 0
M  V30 6995 O 667.913 1.70075 2.11629 0
M  V30 6996 C 666.369 3.58283 0.340806 0
M  V30 6997 C 665.977 4.37955 -0.943377 0
M  V30 6998 C 667.721 4.15452 0.871774 0
M  V30 6999 C 665.628 5.86847 -0.732417 0
M  V30 7000 H 664.558 0.751224 0.0646414 0
M  V30 7001 H 667.209 1.75404 -0.539059 0
M  V30 7002 H 665.591 3.80266 1.10516 0
M  V30 7003 H 666.765 4.2773 -1.71418 0
M  V30 7004 H 665.08 3.92122 -1.40105 0
M  V30 7005 H 667.677 5.24375 1.0457 0
M  V30 7006 H 668.02 3.73057 1.84755 0
M  V30 7007 H 668.553 3.97452 0.166377 0
M  V30 7008 H 665.292 6.33609 -1.67986 0
M  V30 7009 H 664.812 5.998 -0.000980058 0
M  V30 7010 H 666.491 6.45906 -0.376105 0
M  V30 7011 N 666.623 0.143563 1.56945 0
M  V30 7012 C 667.871 -0.507402 1.95627 0
M  V30 7013 C 668.192 -1.65626 1.02922 0
M  V30 7014 O 667.462 -1.95693 0.0901136 0
M  V30 7015 H 666.042 -0.190436 0.722318 0
M  V30 7016 H 668.704 0.218257 1.93674 0
M  V30 7017 H 667.8 -0.885816 2.99265 0
M  V30 7018 N 668.101 -1.57061 -0.130224 0
M  V30 7019 C 669.031 -2.02552 -1.16168 0
M  V30 7020 C 670.012 -0.907971 -1.4384 0
M  V30 7021 O 671.197 -1.17693 -1.54473 0
M  V30 7022 C 668.327 -2.42035 -2.49071 0
M  V30 7023 C 667.281 -3.5713 -2.35886 0
M  V30 7024 C 666.607 -3.82478 -3.7365 0
M  V30 7025 C 667.907 -4.89236 -1.8288 0
M  V30 7026 H 669.601 -2.8897 -0.783359 0
M  V30 7027 H 667.147 -1.39021 -0.375376 0
M  V30 7028 H 669.1 -2.72462 -3.21469 0
M  V30 7029 H 667.824 -1.52573 -2.88771 0
M  V30 7030 H 666.483 -3.26895 -1.65938 0
M  V30 7031 H 666.131 -2.9024 -4.10816 0
M  V30 7032 H 665.831 -4.59944 -3.65685 0
M  V30 7033 H 667.355 -4.15347 -4.47571 0
M  V30 7034 H 668.769 -5.18272 -2.45085 0
M  V30 7035 H 667.166 -5.70624 -1.85763 0
M  V30 7036 H 668.236 -4.78494 -0.785571 0
M  V30 7037 N 669.579 0.400081 -1.52437 0
M  V30 7038 C 670.542 1.4707 -1.75793 0
M  V30 7039 C 671.542 1.48036 -0.627856 0
M  V30 7040 O 672.732 1.49401 -0.895817 0
M  V30 7041 C 669.864 2.86427 -1.84858 0
M  V30 7042 H 671.057 1.27649 -2.71377 0
M  V30 7043 H 668.61 0.631141 -1.42991 0
M  V30 7044 H 669.345 3.11207 -0.912194 0
M  V30 7045 H 669.13 2.87128 -2.6702 0
M  V30 7046 H 670.62 3.64023 -2.04638 0
M  V30 7047 N 671.057 1.43213 0.657864 0
M  V30 7048 C 672.306 1.43871 1.41365 0
M  V30 7049 C 672.619 0.064898 1.95492 0
M  V30 7050 O 673.825 -0.0510796 2.71452 0
M  V30 7051 C 672.281 2.53158 2.55811 0
M  V30 7052 C 671.889 3.96624 2.08311 0
M  V30 7053 C 673.633 2.63004 3.3321 0
M  V30 7054 C 671.54 4.97385 3.1994 0
M  V30 7055 H 670.47 0.535174 0.531136 0
M  V30 7056 H 673.121 1.69185 0.710543 0
M  V30 7057 H 671.503 2.21037 3.2857 0
M  V30 7058 H 672.677 4.38182 1.42593 0
M  V30 7059 H 670.992 3.90781 1.43804 0
M  V30 7060 H 673.589 3.3546 4.16378 0
M  V30 7061 H 673.932 1.67918 3.80932 0
M  V30 7062 H 674.465 2.94403 2.67529 0
M  V30 7063 H 671.204 5.94007 2.77192 0
M  V30 7064 H 670.724 4.60444 3.84385 0
M  V30 7065 H 672.403 5.19877 3.85145 0
M  V30 7066 N 672.536 -0.895792 1.29666 0
M  V30 7067 C 673.469 -2.00238 1.09453 0
M  V30 7068 C 674.447 -1.62599 0.00527044 0
M  V30 7069 O 675.631 -1.87847 0.156729 0
M  V30 7070 C 672.758 -3.32066 0.667054 0
M  V30 7071 C 671.804 -3.88691 1.7556 0
M  V30 7072 S 672.637 -4.17317 3.35569 0
M  V30 7073 C 673.793 -5.52181 2.94698 0
M  V30 7074 H 674.026 -2.17076 2.03138 0
M  V30 7075 H 671.559 -1.04287 1.13858 0
M  V30 7076 H 673.517 -4.08272 0.427136 0
M  V30 7077 H 672.178 -3.13101 -0.250256 0
M  V30 7078 H 671.371 -4.83918 1.40853 0
M  V30 7079 H 670.973 -3.19187 1.94924 0
M  V30 7080 H 673.265 -6.3281 2.41986 0
M  V30 7081 H 674.208 -5.91817 3.88791 0
M  V30 7082 H 674.616 -5.14225 2.32879 0
M  V30 7083 N 674.014 -1.12206 -1.10668 0
M  V30 7084 C 674.944 -0.810086 -2.18997 0
M  V30 7085 C 675.925 0.225065 -1.68604 0
M  V30 7086 O 677.11 0.086783 -1.94006 0
M  V30 7087 C 674.24 -0.261262 -3.46316 0
M  V30 7088 C 673.194 -1.2292 -4.09969 0
M  V30 7089 C 672.52 -0.540713 -5.31959 0
M  V30 7090 C 673.82 -2.58295 -4.53962 0
M  V30 7091 H 675.514 -1.7159 -2.45352 0
M  V30 7092 H 673.06 -0.82646 -1.17922 0
M  V30 7093 H 675.013 -0.0307522 -4.21389 0
M  V30 7094 H 673.737 0.679879 -3.19445 0
M  V30 7095 H 672.396 -1.44548 -3.369 0
M  V30 7096 H 672.044 0.405492 -5.01363 0
M  V30 7097 H 671.744 -1.18637 -5.75499 0
M  V30 7098 H 673.268 -0.319184 -6.09765 0
M  V30 7099 H 674.682 -2.40709 -5.20319 0
M  V30 7100 H 673.079 -3.18916 -5.08343 0
M  V30 7101 H 674.149 -3.16918 -3.67002 0
M  V30 7102 N 675.492 1.28418 -0.913599 0
M  V30 7103 C 676.72 1.99106 -0.562536 0
M  V30 7104 C 677.135 1.68273 0.856137 0
M  V30 7105 O 676.492 0.935401 1.56705 0
M  V30 7106 C 676.543 3.5338 -0.761903 0
M  V30 7107 O 676.264 3.83127 -2.12475 0
M  V30 7108 C 677.765 4.41328 -0.417651 0
M  V30 7109 H 674.985 0.635798 -0.214481 0
M  V30 7110 H 677.529 1.63618 -1.22676 0
M  V30 7111 H 675.684 3.8713 -0.144676 0
M  V30 7112 H 676.098 4.77763 -2.16431 0
M  V30 7113 H 677.572 5.48642 -0.607919 0
M  V30 7114 H 678.049 4.34422 0.646108 0
M  V30 7115 H 678.655 4.13074 -1.01241 0
M  V30 7116 N 676.97 0.677563 1.42291 0
M  V30 7117 C 678.218 0.200578 2.01102 0
M  V30 7118 C 678.539 -1.19803 1.53858 0
M  V30 7119 O 677.809 -1.80496 0.761439 0
M  V30 7120 H 676.389 0.0711634 0.743603 0
M  V30 7121 H 679.051 0.874691 1.7417 0
M  V30 7122 H 678.147 0.204 3.11433 0
M  V30 7123 N 678.448 -1.51871 0.421078 0
M  V30 7124 C 679.694 -2.02237 -0.151014 0
M  V30 7125 C 680.027 -1.30554 -1.43768 0
M  V30 7126 O 679.302 -0.41546 -1.90011 0
M  V30 7127 C 679.585 -3.5802 -0.386482 0
M  V30 7128 C 679.438 -4.40339 0.9177 0
M  V30 7129 C 680.757 -4.24444 -1.16342 0
M  V30 7130 H 677.876 -0.735062 -0.0534102 0
M  V30 7131 H 680.518 -1.81656 0.556888 0
M  V30 7132 H 678.668 -3.75688 -0.989494 0
M  V30 7133 H 680.34 -4.34357 1.55344 0
M  V30 7134 H 678.583 -4.06073 1.526 0
M  V30 7135 H 679.254 -5.47451 0.707187 0
M  V30 7136 H 681.73 -4.10948 -0.652788 0
M  V30 7137 H 680.606 -5.33358 -1.29693 0
M  V30 7138 H 680.867 -3.84204 -2.18724 0
M  V30 7139 N 679.926 -0.151884 -1.56866 0
M  V30 7140 C 681.337 0.368128 -1.83035 0
M  V30 7141 C 681.688 1.64402 -1.07082 0
M  V30 7142 O 680.813 2.14056 -0.317647 0
M  V30 7143 C 681.408 0.674676 -3.32014 0
M  V30 7144 C 679.967 1.13919 -3.58747 0
M  V30 7145 C 679.114 0.164833 -2.7681 0
M  V30 7146 H 682.065 -0.376499 -1.54169 0
M  V30 7147 H 682.086 1.52883 -3.48435 0
M  V30 7148 H 681.598 -0.254113 -3.87267 0
M  V30 7149 H 679.699 2.08375 -3.08886 0
M  V30 7150 H 679.812 1.06179 -4.67186 0
M  V30 7151 H 678.176 0.658419 -2.46043 0
M  V30 7152 H 678.959 -0.757633 -3.34836 0
M  V30 7153 N 681.404 1.57128 0.121893 0
M  V30 7154 C 682.65 1.84974 0.831418 0
M  V30 7155 C 682.983 0.737204 1.79663 0
M  V30 7156 O 682.258 -0.257199 1.92792 0
M  V30 7157 C 682.541 3.23397 1.58386 0
M  V30 7158 C 682.394 4.45246 0.638445 0
M  V30 7159 C 683.713 3.59355 2.54071 0
M  V30 7160 H 680.832 0.67282 0.300803 0
M  V30 7161 H 683.474 1.89759 0.0957587 0
M  V30 7162 H 681.624 3.19449 2.21098 0
M  V30 7163 H 683.296 4.61295 0.0203925 0
M  V30 7164 H 681.539 4.33771 -0.05023 0
M  V30 7165 H 682.21 5.38765 1.20151 0
M  V30 7166 H 684.686 3.64075 2.01465 0
M  V30 7167 H 683.562 4.57193 3.03752 0
M  V30 7168 H 683.823 2.86622 3.36601 0
M  V30 7169 N 682.882 -0.391992 1.52647 0
M  V30 7170 C 684.112 -1.15692 1.71169 0
M  V30 7171 C 684.52 -1.84285 0.428444 0
M  V30 7172 O 683.863 -1.73393 -0.606669 0
M  V30 7173 C 683.925 -2.25033 2.80357 0
M  V30 7174 C 683.589 -1.76433 4.21569 0
M  V30 7175 C 684.586 -1.2427 5.0483 0
M  V30 7176 C 682.271 -1.82746 4.67877 0
M  V30 7177 C 684.265 -0.790657 6.32477 0
M  V30 7178 C 681.952 -1.37153 5.9551 0
M  V30 7179 C 682.95 -0.853997 6.7764 0
M  V30 7180 O 682.638 -0.404708 8.02881 0
M  V30 7181 H 682.37 -0.35297 0.576531 0
M  V30 7182 H 684.924 -0.464994 2.00067 0
M  V30 7183 H 683.154 -2.97641 2.46874 0
M  V30 7184 H 684.843 -2.86718 2.87311 0
M  V30 7185 H 685.609 -1.18752 4.70237 0
M  V30 7186 H 681.488 -2.21971 4.04042 0
M  V30 7187 H 685.032 -0.386024 6.96531 0
M  V30 7188 H 680.929 -1.42356 6.29607 0
M  V30 7189 H 681.697 -0.526459 8.16805 0
M  V30 7190 N 684.36 -1.4356 -0.65026 0
M  V30 7191 C 685.607 -1.45333 -1.41012 0
M  V30 7192 C 685.935 -0.0787282 -1.94341 0
M  V30 7193 O 685.19 0.916715 -1.72901 0
M  V30 7194 C 685.489 -2.44528 -2.60654 0
M  V30 7195 C 685.155 -3.90331 -2.25727 0
M  V30 7196 C 683.817 -4.3004 -2.15914 0
M  V30 7197 C 686.169 -4.822 -1.97821 0
M  V30 7198 C 683.497 -5.59568 -1.76354 0
M  V30 7199 C 685.849 -6.12095 -1.59759 0
M  V30 7200 C 684.513 -6.50778 -1.48473 0
M  V30 7201 H 683.783 -0.531813 -0.516 0
M  V30 7202 H 686.43 -1.76657 -0.739219 0
M  V30 7203 H 684.735 -2.06619 -3.3289 0
M  V30 7204 H 686.432 -2.43155 -3.18868 0
M  V30 7205 H 683.022 -3.58905 -2.34276 0
M  V30 7206 H 687.206 -4.5229 -2.04322 0
M  V30 7207 H 682.462 -5.88376 -1.66205 0
M  V30 7208 H 686.636 -6.82751 -1.37198 0
M  V30 7209 H 684.263 -7.5105 -1.17591 0
M  V30 7210 N 685.838 0.888903 -1.30139 0
M  V30 7211 C 686.768 2.01046 -1.18755 0
M  V30 7212 C 687.749 1.69916 -0.0791438 0
M  V30 7213 O 688.934 1.92445 -0.260498 0
M  V30 7214 C 686.064 3.36109 -0.874518 0
M  V30 7215 C 685.018 3.81486 -1.94043 0
M  V30 7216 C 684.344 5.13796 -1.48047 0
M  V30 7217 C 685.644 4.00637 -3.35093 0
M  V30 7218 H 687.338 2.10828 -2.12584 0
M  V30 7219 H 684.884 1.01298 -1.02346 0
M  V30 7220 H 686.837 4.14089 -0.781548 0
M  V30 7221 H 685.561 3.26449 0.0994519 0
M  V30 7222 H 684.22 3.05731 -2.02297 0
M  V30 7223 H 683.868 5.0056 -0.494878 0
M  V30 7224 H 683.568 5.45127 -2.19341 0
M  V30 7225 H 685.092 5.94305 -1.40121 0
M  V30 7226 H 686.506 4.69067 -3.2962 0
M  V30 7227 H 684.903 4.43339 -4.04438 0
M  V30 7228 H 685.973 3.0462 -3.77273 0
M  V30 7229 N 687.317 1.12792 1.10072 0
M  V30 7230 C 688.565 0.883796 1.81751 0
M  V30 7231 C 688.886 -0.591891 1.858 0
M  V30 7232 O 688.156 -1.43017 1.33876 0
M  V30 7233 H 686.736 0.323978 0.673088 0
M  V30 7234 H 689.398 1.42314 1.33164 0
M  V30 7235 H 688.494 1.26863 2.85153 0
M  V30 7236 N 688.795 -1.27931 0.920396 0
M  V30 7237 C 690.041 -1.94977 0.557832 0
M  V30 7238 C 690.374 -1.72224 -0.897365 0
M  V30 7239 O 689.649 -1.04705 -1.63912 0
M  V30 7240 C 689.932 -3.49289 0.875741 0
M  V30 7241 C 689.785 -3.81416 2.38416 0
M  V30 7242 C 691.104 -4.38486 0.376517 0
M  V30 7243 H 688.223 -0.708164 0.20414 0
M  V30 7244 H 690.865 -1.5118 1.15085 0
M  V30 7245 H 689.015 -3.86724 0.371062 0
M  V30 7246 H 690.687 -3.53813 2.95997 0
M  V30 7247 H 688.93 -3.28225 2.83639 0
M  V30 7248 H 689.601 -4.89198 2.55713 0
M  V30 7249 H 692.077 -4.08161 0.808945 0
M  V30 7250 H 690.953 -5.45296 0.627976 0
M  V30 7251 H 691.214 -4.36143 -0.723293 0
M  V30 7252 N 690.273 -0.685099 -1.4193 0
M  V30 7253 C 691.503 -0.220052 -2.05425 0
M  V30 7254 C 691.911 1.13185 -1.51611 0
M  V30 7255 O 691.254 1.71631 -0.654875 0
M  V30 7256 C 691.316 -0.0888364 -3.5939 0
M  V30 7257 C 690.98 -1.37109 -4.35947 0
M  V30 7258 C 691.977 -2.30675 -4.65924 0
M  V30 7259 C 689.662 -1.62155 -4.75406 0
M  V30 7260 C 691.656 -3.47556 -5.34306 0
M  V30 7261 C 689.343 -2.79324 -5.43527 0
M  V30 7262 C 690.341 -3.71848 -5.72903 0
M  V30 7263 O 690.029 -4.86966 -6.39624 0
M  V30 7264 H 689.761 -0.102165 -0.668235 0
M  V30 7265 H 692.315 -0.935194 -1.82875 0
M  V30 7266 H 690.545 0.681981 -3.80639 0
M  V30 7267 H 692.234 0.337669 -4.04493 0
M  V30 7268 H 693 -2.12579 -4.3593 0
M  V30 7269 H 688.879 -0.910053 -4.51928 0
M  V30 7270 H 692.423 -4.19794 -5.57153 0
M  V30 7271 H 688.32 -2.97342 -5.72938 0
M  V30 7272 H 689.088 -4.86644 -6.58118 0
M  V30 7273 N 691.751 1.51645 -0.429126 0
M  V30 7274 C 692.997 2.02967 0.132584 0
M  V30 7275 C 693.352 1.30804 1.41096 0
M  V30 7276 O 692.645 0.411705 1.87124 0
M  V30 7277 C 692.839 3.54989 0.414472 0
M  V30 7278 C 692.668 4.41879 -0.83503 0
M  V30 7279 C 691.438 4.86482 -1.36614 0
M  V30 7280 C 693.636 4.84727 -1.71886 0
M  V30 7281 N 691.618 5.5756 -2.56904 0
M  V30 7282 C 692.989 5.54788 -2.76786 0
M  V30 7283 C 695.044 4.66721 -1.73425 0
M  V30 7284 C 693.747 6.08753 -3.8316 0
M  V30 7285 C 695.773 5.21597 -2.7873 0
M  V30 7286 C 695.135 5.91598 -3.8235 0
M  V30 7287 H 691.234 0.781942 0.00956367 0
M  V30 7288 H 693.818 1.8561 -0.587957 0
M  V30 7289 H 691.989 3.72378 1.10405 0
M  V30 7290 H 693.721 3.92982 0.966817 0
M  V30 7291 H 690.476 4.64553 -0.921255 0
M  V30 7292 H 690.9 5.97731 -3.17879 0
M  V30 7293 H 695.542 4.1207 -0.946467 0
M  V30 7294 H 693.26 6.62464 -4.62782 0
M  V30 7295 H 696.846 5.09522 -2.80853 0
M  V30 7296 H 695.726 6.33299 -4.62495 0
M  V30 7297 N 693.229 0.160201 1.56784 0
M  V30 7298 C 694.161 -0.80564 2.14574 0
M  V30 7299 C 695.174 -1.20154 1.09849 0
M  V30 7300 O 696.363 -1.14333 1.37078 0
M  V30 7301 C 693.463 -2.09434 2.6644 0
M  V30 7302 C 692.636 -1.86375 3.95706 0
M  V30 7303 C 691.695 -2.99358 4.32749 0
M  V30 7304 O 690.721 -2.70475 5.00831 0
M  V30 7305 N 691.923 -4.26867 3.93402 0
M  V30 7306 H 694.688 -0.311644 2.98075 0
M  V30 7307 H 692.249 -0.0229465 1.61884 0
M  V30 7308 H 694.241 -2.84091 2.88226 0
M  V30 7309 H 692.811 -2.50057 1.8759 0
M  V30 7310 H 692.031 -0.956821 3.82412 0
M  V30 7311 H 693.319 -1.68322 4.80151 0
M  V30 7312 H 692.717 -4.53197 3.38569 0
M  V30 7313 H 691.274 -4.98263 4.20211 0
M  V30 7314 N 694.707 -1.5719 -0.113559 0
M  V30 7315 C 695.657 -1.97166 -1.14497 0
M  V30 7316 C 696.641 -0.847413 -1.36776 0
M  V30 7317 O 697.833 -1.11114 -1.37777 0
M  V30 7318 C 694.962 -2.38411 -2.47013 0
M  V30 7319 C 694.048 -3.5748 -2.28185 0
M  V30 7320 N 694.439 -4.72998 -1.79182 0
M  V30 7321 C 692.737 -3.63218 -2.58821 0
M  V30 7322 C 693.438 -5.55007 -1.74191 0
M  V30 7323 N 692.414 -4.9765 -2.18735 0
M  V30 7324 H 696.216 -2.83937 -0.758733 0
M  V30 7325 H 693.73 -1.59191 -0.321234 0
M  V30 7326 H 695.727 -2.65269 -3.21618 0
M  V30 7327 H 694.387 -1.53007 -2.8639 0
M  V30 7328 H 695.398 -4.96109 -1.48649 0
M  V30 7329 H 692.075 -2.88434 -3.01847 0
M  V30 7330 H 693.465 -6.57678 -1.37512 0
M  V30 7331 N 696.185 0.383891 -1.52853 0
M  V30 7332 C 697.132 1.46924 -1.77995 0
M  V30 7333 C 698.102 1.53958 -0.623396 0
M  V30 7334 O 699.287 1.70134 -0.863657 0
M  V30 7335 C 696.427 2.84093 -1.95921 0
M  V30 7336 C 695.54 2.86171 -3.23621 0
M  V30 7337 C 694.675 4.14799 -3.31836 0
M  V30 7338 C 693.714 4.10948 -4.53639 0
M  V30 7339 N 692.851 5.31192 -4.59107 0
M  V30 7340 H 697.691 1.24786 -2.70615 0
M  V30 7341 H 695.228 0.605265 -1.34071 0
M  V30 7342 H 697.186 3.63755 -2.04299 0
M  V30 7343 H 695.816 3.04671 -1.06656 0
M  V30 7344 H 694.868 1.9885 -3.24288 0
M  V30 7345 H 696.18 2.79194 -4.13343 0
M  V30 7346 H 695.334 5.02867 -3.39425 0
M  V30 7347 H 694.073 4.24505 -2.40097 0
M  V30 7348 H 693.078 3.21268 -4.46169 0
M  V30 7349 H 694.303 4.0286 -5.467 0
M  V30 7350 H 692.249 5.41518 -3.70262 0
M  V30 7351 H 692.166 5.26311 -5.42708 0
M  V30 7352 H 693.434 6.21143 -4.70958 0
M  V30 7353 N 697.663 1.43903 0.642637 0
M  V30 7354 C 699.074 1.40975 1.22404 0
M  V30 7355 C 699.425 0.1192 1.95838 0
M  V30 7356 O 698.55 -0.780939 2.01818 0
M  V30 7357 C 699.145 2.5538 2.22636 0
M  V30 7358 C 697.704 2.55684 2.76229 0
M  V30 7359 C 696.851 2.32556 1.51039 0
M  V30 7360 H 699.802 1.5265 0.434006 0
M  V30 7361 H 699.823 2.27474 3.05017 0
M  V30 7362 H 699.335 3.49294 1.69161 0
M  V30 7363 H 697.436 1.65679 3.33738 0
M  V30 7364 H 697.549 3.53799 3.23053 0
M  V30 7365 H 695.913 1.81427 1.78764 0
M  V30 7366 H 696.696 3.28569 0.99484 0
M  V30 7367 N 699.141 -0.881989 1.30609 0
M  V30 7368 C 700.088 -1.98803 1.17244 0
M  V30 7369 C 701.058 -1.65987 0.0611905 0
M  V30 7370 O 702.243 -1.89385 0.231911 0
M  V30 7371 C 699.383 -3.33867 0.87333 0
M  V30 7372 C 698.496 -3.79354 2.06675 0
M  V30 7373 C 697.631 -5.03078 1.70547 0
M  V30 7374 C 696.67 -5.40981 2.86366 0
M  V30 7375 N 695.807 -6.55886 2.50514 0
M  V30 7376 H 700.647 -2.09566 2.11863 0
M  V30 7377 H 698.184 -1.02607 1.05405 0
M  V30 7378 H 700.142 -4.11612 0.680519 0
M  V30 7379 H 698.772 -3.2278 -0.0359983 0
M  V30 7380 H 697.824 -2.97492 2.37071 0
M  V30 7381 H 699.136 -4.03382 2.93401 0
M  V30 7382 H 698.29 -5.88457 1.47658 0
M  V30 7383 H 697.029 -4.80927 0.809947 0
M  V30 7384 H 696.034 -4.54127 3.09917 0
M  V30 7385 H 697.259 -5.65104 3.76609 0
M  V30 7386 H 695.205 -6.35306 1.63471 0
M  V30 7387 H 695.122 -6.79799 3.30771 0
M  V30 7388 H 696.39 -7.44489 2.30989 0
M  V30 7389 N 700.619 -1.13374 -1.09472 0
M  V30 7390 C 701.859 -0.905422 -1.83252 0
M  V30 7391 C 702.223 0.558396 -1.83701 0
M  V30 7392 O 703.424 0.904254 -2.53134 0
M  V30 7393 C 701.695 -1.47658 -3.25472 0
M  V30 7394 S 703.254 -1.38825 -4.16261 0
M  V30 7395 H 700.072 -0.326371 -0.631667 0
M  V30 7396 H 702.674 -1.44517 -1.31663 0
M  V30 7397 H 701.378 -2.53533 -3.22722 0
M  V30 7398 H 700.909 -0.934756 -3.82133 0
M  V30 7399 H 702.924 -0.366379 -4.94846 0
M  V30 7400 N 702.098 1.27442 -0.927168 0
M  V30 7401 C 703.345 1.94391 -0.567324 0
M  V30 7402 C 703.673 1.72875 0.891321 0
M  V30 7403 O 702.928 1.05071 1.65102 0
M  V30 7404 C 703.227 3.47413 -0.838994 0
M  V30 7405 C 702.893 3.89049 -2.2793 0
M  V30 7406 C 701.555 4.00127 -2.67305 0
M  V30 7407 C 703.907 4.10154 -3.21595 0
M  V30 7408 C 701.235 4.29697 -3.99471 0
M  V30 7409 C 703.587 4.41208 -4.53341 0
M  V30 7410 C 702.251 4.50499 -4.92551 0
M  V30 7411 H 701.521 0.711325 -0.207598 0
M  V30 7412 H 704.168 1.51523 -1.17103 0
M  V30 7413 H 702.473 3.91503 -0.152609 0
M  V30 7414 H 704.17 3.97354 -0.53955 0
M  V30 7415 H 700.76 3.80962 -1.96381 0
M  V30 7416 H 704.944 4.01036 -2.92377 0
M  V30 7417 H 700.2 4.35099 -4.29533 0
M  V30 7418 H 704.374 4.56486 -5.25922 0
M  V30 7419 H 702.001 4.73167 -5.94994 0
M  V30 7420 N 703.576 0.692616 1.41565 0
M  V30 7421 C 704.801 0.229776 2.06123 0
M  V30 7422 C 705.226 -1.11119 1.5177 0
M  V30 7423 O 704.584 -1.69498 0.643444 0
M  V30 7424 C 704.632 0.19469 3.60074 0
M  V30 7425 O 703.736 -0.831366 4.03933 0
M  V30 7426 H 703.077 0.113002 0.654314 0
M  V30 7427 H 705.607 0.946645 1.81383 0
M  V30 7428 H 705.617 0.0245487 4.07993 0
M  V30 7429 H 704.292 1.17339 3.99004 0
M  V30 7430 H 702.869 -0.630819 3.67526 0
M  V30 7431 N 705.054 -1.51416 0.437162 0
M  V30 7432 C 706.331 -1.94682 -0.189292 0
M  V30 7433 C 706.711 -1.37581 -1.60108 0
M  V30 7434 O 706.059 -0.562815 -2.2146 0
M  V30 7435 C 706.269 -3.48599 -0.167201 0
M  V30 7436 C 707.617 -4.2296 -0.372856 0
M  V30 7437 O 708.641 -3.55354 -0.245323 0
M  V30 7438 O 707.5 -5.42895 -0.626693 0
M  V30 7439 H 704.594 -0.816708 -0.130063 0
M  V30 7440 H 707.14 -1.62316 0.495128 0
M  V30 7441 H 705.912 -3.82616 0.81981 0
M  V30 7442 H 705.535 -3.87406 -0.894537 0
M  V30 7443 N 706.532 -0.168513 -1.56696 0
M  V30 7444 C 707.779 0.477158 -1.96798 0
M  V30 7445 C 708.107 1.63442 -1.05437 0
M  V30 7446 O 707.362 1.95503 -0.0878903 0
M  V30 7447 C 707.661 1.00441 -3.42996 0
M  V30 7448 C 707.327 -0.0366556 -4.50885 0
M  V30 7449 C 705.989 -0.322785 -4.80116 0
M  V30 7450 C 708.341 -0.743447 -5.1587 0
M  V30 7451 C 705.669 -1.32114 -5.71632 0
M  V30 7452 C 708.021 -1.73077 -6.08463 0
M  V30 7453 C 706.685 -2.02437 -6.36062 0
M  V30 7454 H 705.955 0.174604 -0.720135 0
M  V30 7455 H 708.602 -0.259884 -1.89728 0
M  V30 7456 H 706.907 1.81922 -3.47004 0
M  V30 7457 H 708.604 1.51294 -3.71364 0
M  V30 7458 H 705.194 0.196532 -4.28149 0
M  V30 7459 H 709.378 -0.535602 -4.93401 0
M  V30 7460 H 704.634 -1.55482 -5.913 0
M  V30 7461 H 708.808 -2.28382 -6.57886 0
M  V30 7462 H 706.435 -2.79946 -7.06777 0
M  V30 7463 N 708.01 1.57248 0.105221 0
M  V30 7464 C 709.259 1.84756 0.809198 0
M  V30 7465 C 709.572 0.756262 1.80389 0
M  V30 7466 O 710.778 0.918158 2.55504 0
M  V30 7467 C 709.234 3.27613 1.48989 0
M  V30 7468 C 708.842 4.44788 0.535484 0
M  V30 7469 C 710.586 3.64356 2.17819 0
M  V30 7470 C 708.493 5.78676 1.22019 0
M  V30 7471 H 707.423 0.689139 0.305946 0
M  V30 7472 H 710.074 1.83395 0.0620371 0
M  V30 7473 H 708.456 3.23485 2.28415 0
M  V30 7474 H 709.63 4.60243 -0.226557 0
M  V30 7475 H 707.945 4.16374 -0.0465769 0
M  V30 7476 H 710.542 4.61663 2.69761 0
M  V30 7477 H 710.885 2.92474 2.96251 0
M  V30 7478 H 711.418 3.70328 1.45264 0
M  V30 7479 H 708.157 6.53763 0.476875 0
M  V30 7480 H 707.677 5.67083 1.9539 0
M  V30 7481 H 709.356 6.22897 1.74952 0
M  V30 7482 N 709.488 -0.375779 1.53054 0
M  V30 7483 C 710.398 -1.48381 1.81715 0
M  V30 7484 C 711.414 -1.59087 0.704795 0
M  V30 7485 O 712.59 -1.75174 0.993785 0
M  V30 7486 C 709.655 -2.83767 1.99192 0
M  V30 7487 C 708.716 -2.82673 3.23102 0
M  V30 7488 C 707.949 -4.11601 3.39736 0
M  V30 7489 O 708.172 -5.07243 2.60885 0
M  V30 7490 O 707.106 -4.18034 4.33049 0
M  V30 7491 H 710.932 -1.27089 2.7583 0
M  V30 7492 H 708.517 -0.564902 1.38308 0
M  V30 7493 H 710.399 -3.64004 2.12318 0
M  V30 7494 H 709.074 -3.05057 1.08267 0
M  V30 7495 H 707.981 -2.0117 3.15407 0
M  V30 7496 H 709.314 -2.66335 4.13916 0
M  V30 7497 N 710.966 -1.44241 -0.634997 0
M  V30 7498 C 711.896 -1.53632 -1.7584 0
M  V30 7499 C 712.877 -0.389603 -1.65578 0
M  V30 7500 O 714.062 -0.609219 -1.84397 0
M  V30 7501 C 711.192 -1.47644 -3.14354 0
M  V30 7502 C 710.146 -2.60752 -3.394 0
M  V30 7503 C 709.472 -2.39817 -4.77904 0
M  V30 7504 C 710.772 -4.02921 -3.32343 0
M  V30 7505 H 712.466 -2.47662 -1.68238 0
M  V30 7506 H 710.012 -1.19197 -0.807969 0
M  V30 7507 H 711.965 -1.52815 -3.92716 0
M  V30 7508 H 710.689 -0.501284 -3.2273 0
M  V30 7509 H 709.348 -2.54965 -2.63417 0
M  V30 7510 H 708.996 -1.40502 -4.82978 0
M  V30 7511 H 708.696 -3.15649 -4.9562 0
M  V30 7512 H 710.22 -2.46799 -5.585 0
M  V30 7513 H 711.634 -4.10098 -4.00615 0
M  V30 7514 H 710.031 -4.78925 -3.61595 0
M  V30 7515 H 711.101 -4.26766 -2.30215 0
M  V30 7516 N 712.444 0.87505 -1.31075 0
M  V30 7517 C 713.374 1.99775 -1.20881 0
M  V30 7518 C 714.355 1.69822 -0.0971612 0
M  V30 7519 O 715.54 1.92158 -0.280895 0
M  V30 7520 C 712.67 3.35163 -0.910118 0
M  V30 7521 C 711.624 3.79406 -1.98078 0
M  V30 7522 C 710.95 5.12197 -1.53488 0
M  V30 7523 C 712.25 3.97061 -3.39323 0
M  V30 7524 H 713.944 2.08562 -2.14808 0
M  V30 7525 H 711.49 1.00207 -1.03415 0
M  V30 7526 H 713.443 4.13237 -0.825423 0
M  V30 7527 H 712.167 3.26536 0.064822 0
M  V30 7528 H 710.826 3.03568 -2.05528 0
M  V30 7529 H 710.474 5.00007 -0.547941 0
M  V30 7530 H 710.174 5.4277 -2.2511 0
M  V30 7531 H 711.698 5.92785 -1.46417 0
M  V30 7532 H 713.112 4.65545 -3.34576 0
M  V30 7533 H 711.509 4.39025 -4.09118 0
M  V30 7534 H 712.579 3.00601 -3.80483 0
M  V30 7535 N 713.922 1.13953 1.08869 0
M  V30 7536 C 715.15 0.92817 1.84912 0
M  V30 7537 C 715.565 -0.523197 1.81406 0
M  V30 7538 O 714.922 -1.36237 1.21432 0
M  V30 7539 C 714.973 1.41509 3.32652 0
M  V30 7540 O 714.694 2.80959 3.36145 0
M  V30 7541 C 716.195 1.243 4.25517 0
M  V30 7542 H 713.415 0.330612 0.583898 0
M  V30 7543 H 715.959 1.51349 1.37527 0
M  V30 7544 H 714.114 0.872648 3.77444 0
M  V30 7545 H 714.528 3.02704 4.28335 0
M  V30 7546 H 716.002 1.63237 5.27312 0
M  V30 7547 H 716.479 0.18532 4.38809 0
M  V30 7548 H 717.085 1.77375 3.86546 0
M  V30 7549 N 715.4 -1.26948 0.933913 0
M  V30 7550 C 716.33 -2.29017 0.45534 0
M  V30 7551 C 717.311 -1.62961 -0.487605 0
M  V30 7552 O 718.496 -1.90223 -0.391022 0
M  V30 7553 C 715.626 -3.46112 -0.287015 0
M  V30 7554 C 714.58 -4.24205 0.568682 0
M  V30 7555 C 713.906 -5.3384 -0.303206 0
M  V30 7556 C 715.206 -4.88954 1.83633 0
M  V30 7557 H 716.9 -2.69298 1.30839 0
M  V30 7558 H 714.446 -1.29459 0.630579 0
M  V30 7559 H 716.399 -4.16622 -0.6328 0
M  V30 7560 H 715.123 -3.04765 -1.17414 0
M  V30 7561 H 713.782 -3.5545 0.897261 0
M  V30 7562 H 713.43 -4.88734 -1.18947 0
M  V30 7563 H 713.13 -5.86998 0.265879 0
M  V30 7564 H 714.654 -6.0719 -0.644423 0
M  V30 7565 H 716.068 -5.51717 1.55823 0
M  V30 7566 H 714.465 -5.52198 2.34941 0
M  V30 7567 H 715.535 -4.12305 2.55211 0
M  V30 7568 N 716.879 -0.700114 -1.41195 0
M  V30 7569 C 718.125 -0.233351 -2.01453 0
M  V30 7570 C 718.458 1.16548 -1.55339 0
M  V30 7571 O 717.733 1.78756 -0.766575 0
M  V30 7572 C 718.016 -0.2961 -3.58881 0
M  V30 7573 C 717.869 -1.7322 -4.15108 0
M  V30 7574 C 719.188 0.341525 -4.38773 0
M  V30 7575 H 716.307 -0.0862667 -0.731934 0
M  V30 7576 H 718.949 -0.889693 -1.67882 0
M  V30 7577 H 717.099 0.262736 -3.87611 0
M  V30 7578 H 718.771 -2.34523 -3.97236 0
M  V30 7579 H 717.014 -2.2649 -3.69979 0
M  V30 7580 H 717.685 -1.7276 -5.24269 0
M  V30 7581 H 720.161 -0.134461 -4.15883 0
M  V30 7582 H 719.037 0.267098 -5.4825 0
M  V30 7583 H 719.298 1.42289 -4.18577 0
M  V30 7584 N 718.357 1.51182 -0.445186 0
M  V30 7585 C 719.582 2.07056 0.119445 0
M  V30 7586 C 720.007 1.30966 1.35016 0
M  V30 7587 O 719.365 0.349827 1.77893 0
M  V30 7588 C 719.413 3.58234 0.412428 0
M  V30 7589 O 718.517 3.84249 1.49754 0
M  V30 7590 H 717.858 0.663998 -0.00157797 0
M  V30 7591 H 720.388 1.94699 -0.628779 0
M  V30 7592 H 720.398 4.02617 0.660583 0
M  V30 7593 H 719.073 4.13038 -0.487049 0
M  V30 7594 H 717.65 3.51724 1.23873 0
M  V30 7595 N 719.835 0.176821 1.56605 0
M  V30 7596 C 720.767 -0.782836 2.15417 0
M  V30 7597 C 721.78 -1.18982 1.11117 0
M  V30 7598 O 722.969 -1.12872 1.38283 0
M  V30 7599 C 720.069 -2.06596 2.68647 0
M  V30 7600 C 719.242 -1.82167 3.9766 0
M  V30 7601 C 718.301 -2.94751 4.35899 0
M  V30 7602 O 717.327 -2.65148 5.03672 0
M  V30 7603 N 718.529 -4.2267 3.97907 0
M  V30 7604 H 721.294 -0.280012 2.98389 0
M  V30 7605 H 718.855 -0.00577529 1.61899 0
M  V30 7606 H 720.847 -2.81018 2.91223 0
M  V30 7607 H 719.417 -2.48054 1.90232 0
M  V30 7608 H 718.637 -0.916208 3.83405 0
M  V30 7609 H 719.925 -1.6322 4.81909 0
M  V30 7610 H 719.323 -4.4958 3.43357 0
M  V30 7611 H 717.88 -4.93778 4.25472 0
M  V30 7612 N 721.313 -1.57302 -0.09688 0
M  V30 7613 C 722.26 -2.01933 -1.11766 0
M  V30 7614 C 723.23 -0.895329 -1.39904 0
M  V30 7615 O 724.415 -1.16119 -1.51397 0
M  V30 7616 C 721.555 -2.44726 -2.43317 0
M  V30 7617 C 720.668 -3.70639 -2.21925 0
M  V30 7618 C 719.803 -4.02318 -3.46862 0
M  V30 7619 C 718.842 -5.21346 -3.20725 0
M  V30 7620 N 717.979 -5.48787 -4.37924 0
M  V30 7621 H 722.819 -2.88919 -0.730075 0
M  V30 7622 H 720.356 -1.42901 -0.348962 0
M  V30 7623 H 722.314 -2.6758 -3.20088 0
M  V30 7624 H 720.944 -1.60753 -2.79926 0
M  V30 7625 H 719.996 -3.55271 -1.35965 0
M  V30 7626 H 721.308 -4.57557 -1.98603 0
M  V30 7627 H 720.462 -4.25939 -4.32042 0
M  V30 7628 H 719.201 -3.13918 -3.73238 0
M  V30 7629 H 718.206 -4.97547 -2.33938 0
M  V30 7630 H 719.431 -6.11343 -2.95697 0
M  V30 7631 H 717.377 -4.63346 -4.64378 0
M  V30 7632 H 717.294 -6.30073 -4.17785 0
M  V30 7633 H 718.562 -5.76943 -5.24173 0
M  V30 7634 N 722.791 0.367657 -1.53252 0
M  V30 7635 C 723.724 1.47264 -1.74323 0
M  V30 7636 C 724.702 1.51458 -0.591535 0
M  V30 7637 O 725.886 1.69542 -0.823883 0
M  V30 7638 C 723.013 2.85637 -1.82015 0
M  V30 7639 C 722.059 2.99176 -3.03967 0
M  V30 7640 S 722.892 2.68147 -4.63527 0
M  V30 7641 C 724.048 4.08673 -4.74065 0
M  V30 7642 H 724.281 1.29169 -2.67773 0
M  V30 7643 H 721.814 0.561866 -1.43814 0
M  V30 7644 H 723.772 3.65365 -1.87132 0
M  V30 7645 H 722.433 3.01043 -0.896195 0
M  V30 7646 H 721.626 4.00511 -3.05953 0
M  V30 7647 H 721.228 2.27367 -2.96952 0
M  V30 7648 H 723.52 5.02889 -4.53992 0
M  V30 7649 H 724.463 4.11693 -5.7612 0
M  V30 7650 H 724.871 3.95576 -4.02716 0
M  V30 7651 N 724.269 1.44576 0.627338 0
M  V30 7652 C 725.509 1.49083 1.39834 0
M  V30 7653 C 725.873 0.121643 1.91614 0
M  V30 7654 O 727.074 0.0413885 2.68768 0
M  V30 7655 C 725.345 2.52467 2.52973 0
M  V30 7656 S 726.904 2.7605 3.41089 0
M  V30 7657 H 723.722 0.527252 0.476997 0
M  V30 7658 H 726.324 1.81525 0.725872 0
M  V30 7659 H 725.028 3.50646 2.13249 0
M  V30 7660 H 724.559 2.2161 3.25042 0
M  V30 7661 H 726.574 2.07932 4.50531 0
M  V30 7662 N 725.747 -0.868086 1.31537 0
M  V30 7663 C 726.993 -1.62367 1.2151 0
M  V30 7664 C 727.326 -1.92883 -0.225819 0
M  V30 7665 O 726.601 -1.56176 -1.15927 0
M  V30 7666 C 726.884 -2.95268 2.06129 0
M  V30 7667 C 726.737 -2.71619 3.58529 0
M  V30 7668 C 728.056 -3.96391 1.91212 0
M  V30 7669 H 725.175 -0.589178 0.442762 0
M  V30 7670 H 727.817 -1.00336 1.61347 0
M  V30 7671 H 725.967 -3.4821 1.72284 0
M  V30 7672 H 727.639 -2.25334 4.0252 0
M  V30 7673 H 725.882 -2.05817 3.81866 0
M  V30 7674 H 726.553 -3.66192 4.13047 0
M  V30 7675 H 729.029 -3.52663 2.20834 0
M  V30 7676 H 727.905 -4.87263 2.52718 0
M  V30 7677 H 728.166 -4.33335 0.875953 0
M  V30 7678 N 727.225 -1.14528 -1.08264 0
M  V30 7679 C 728.471 -0.91576 -1.80947 0
M  V30 7680 C 728.804 0.55623 -1.86064 0
M  V30 7681 O 728.079 1.41207 -1.33756 0
M  V30 7682 C 728.362 -1.51917 -3.26486 0
M  V30 7683 C 728.215 -3.06111 -3.2957 0
M  V30 7684 C 729.534 -1.19724 -4.23502 0
M  V30 7685 H 726.653 -0.334113 -0.656915 0
M  V30 7686 H 729.295 -1.41547 -1.26746 0
M  V30 7687 H 727.445 -1.0942 -3.72773 0
M  V30 7688 H 729.117 -3.57448 -2.91597 0
M  V30 7689 H 727.36 -3.40483 -2.688 0
M  V30 7690 H 728.031 -3.43438 -4.32151 0
M  V30 7691 H 730.507 -1.56467 -3.85561 0
M  V30 7692 H 729.383 -1.64575 -5.23647 0
M  V30 7693 H 729.644 -0.112771 -4.41956 0
M  V30 7694 N 728.703 1.26451 -0.940633 0
M  V30 7695 C 729.949 1.94065 -0.58878 0
M  V30 7696 C 730.282 1.7363 0.869853 0
M  V30 7697 O 729.557 1.073 1.62225 0
M  V30 7698 C 729.84 3.47852 -0.931199 0
M  V30 7699 C 729.693 3.77575 -2.44453 0
M  V30 7700 C 731.012 4.37832 -0.446229 0
M  V30 7701 H 728.131 0.704827 -0.21538 0
M  V30 7702 H 730.773 1.4933 -1.17475 0
M  V30 7703 H 728.923 3.86085 -0.432539 0
M  V30 7704 H 730.595 3.49059 -3.01588 0
M  V30 7705 H 728.838 3.23671 -2.88825 0
M  V30 7706 H 729.509 4.85068 -2.63464 0
M  V30 7707 H 731.985 4.06822 -0.873778 0
M  V30 7708 H 730.861 5.44228 -0.714648 0
M  V30 7709 H 731.122 4.37239 0.653815 0
M  V30 7710 N 730.181 0.707592 1.40822 0
M  V30 7711 C 731.411 0.252706 2.05049 0
M  V30 7712 C 731.819 -1.10758 1.53393 0
M  V30 7713 O 731.162 -1.70567 0.682097 0
M  V30 7714 C 731.224 0.146001 3.59203 0
M  V30 7715 C 730.888 1.44027 4.33711 0
M  V30 7716 C 731.885 2.38058 4.62195 0
M  V30 7717 C 729.57 1.69698 4.72766 0
M  V30 7718 C 731.564 3.56013 5.28709 0
M  V30 7719 C 729.251 2.87936 5.39014 0
M  V30 7720 C 730.249 3.80915 5.66915 0
M  V30 7721 O 729.937 4.9708 6.31796 0
M  V30 7722 H 729.669 0.112784 0.666525 0
M  V30 7723 H 732.223 0.96417 1.81364 0
M  V30 7724 H 730.453 -0.621338 3.81676 0
M  V30 7725 H 732.142 -0.273275 4.04979 0
M  V30 7726 H 732.908 2.19487 4.32493 0
M  V30 7727 H 728.787 0.981835 4.50423 0
M  V30 7728 H 732.331 4.28604 5.50404 0
M  V30 7729 H 728.228 3.06419 5.68135 0
M  V30 7730 H 728.996 4.97053 6.50293 0
M  V30 7731 N 731.66 -1.50943 0.453197 0
M  V30 7732 C 733.071 -1.86699 -0.00619892 0
M  V30 7733 C 733.422 -1.3693 -1.40515 0
M  V30 7734 O 732.547 -0.726715 -2.03833 0
M  V30 7735 C 733.142 -3.38795 -0.018025 0
M  V30 7736 C 731.701 -3.74028 -0.421885 0
M  V30 7737 C 730.848 -2.74752 0.375087 0
M  V30 7738 H 733.799 -1.43942 0.668317 0
M  V30 7739 H 733.82 -3.71468 -0.824125 0
M  V30 7740 H 733.332 -3.74988 1.00028 0
M  V30 7741 H 731.433 -3.43431 -1.44521 0
M  V30 7742 H 731.546 -4.78908 -0.135664 0
M  V30 7743 H 729.91 -2.5414 -0.168794 0
M  V30 7744 H 730.693 -3.13787 1.39256 0
M  V30 7745 N 733.138 -0.185124 -1.56509 0
M  V30 7746 C 734.048 0.751908 -2.22224 0
M  V30 7747 C 735.064 1.24244 -1.21817 0
M  V30 7748 O 736.24 1.29169 -1.54523 0
M  V30 7749 C 733.305 1.95837 -2.86092 0
M  V30 7750 C 732.366 1.51337 -4.01741 0
M  V30 7751 C 731.599 2.66233 -4.62554 0
M  V30 7752 O 731.822 3.8346 -4.22273 0
M  V30 7753 O 730.756 2.39517 -5.52191 0
M  V30 7754 H 734.582 0.222304 -3.02885 0
M  V30 7755 H 732.167 0.0437141 -1.49336 0
M  V30 7756 H 734.049 2.66368 -3.26536 0
M  V30 7757 H 732.724 2.47677 -2.08417 0
M  V30 7758 H 731.631 0.777155 -3.65939 0
M  V30 7759 H 732.964 1.04175 -4.81049 0
M  V30 7760 N 734.616 1.57351 0.0885366 0
M  V30 7761 C 735.862 1.86696 0.791996 0
M  V30 7762 C 736.195 0.775148 1.78059 0
M  V30 7763 O 735.47 -0.216247 1.93294 0
M  V30 7764 C 735.753 3.26684 1.51491 0
M  V30 7765 C 735.606 4.465 0.543858 0
M  V30 7766 C 736.925 3.64664 2.46391 0
M  V30 7767 H 734.044 0.679049 0.286463 0
M  V30 7768 H 736.686 1.89919 0.0554866 0
M  V30 7769 H 734.836 3.24067 2.14273 0
M  V30 7770 H 736.508 4.61235 -0.0774597 0
M  V30 7771 H 734.751 4.33567 -0.142228 0
M  V30 7772 H 735.422 5.41192 1.08696 0
M  V30 7773 H 737.898 3.68267 1.93698 0
M  V30 7774 H 736.774 4.63534 2.93986 0
M  V30 7775 H 737.035 2.93698 3.30445 0
M  V30 7776 N 736.094 -0.359525 1.53444 0
M  V30 7777 C 737.004 -1.46445 1.83278 0
M  V30 7778 C 738.02 -1.5833 0.721629 0
M  V30 7779 O 739.196 -1.7411 1.01231 0
M  V30 7780 C 736.261 -2.81638 2.02191 0
M  V30 7781 C 735.322 -2.7923 3.26082 0
M  V30 7782 C 734.555 -4.07974 3.44082 0
M  V30 7783 O 734.778 -5.04447 2.66251 0
M  V30 7784 O 733.712 -4.13417 4.37458 0
M  V30 7785 H 737.538 -1.24156 2.77162 0
M  V30 7786 H 735.123 -0.550201 1.389 0
M  V30 7787 H 737.005 -3.61732 2.16167 0
M  V30 7788 H 735.68 -3.03892 1.11496 0
M  V30 7789 H 734.587 -1.97813 3.17523 0
M  V30 7790 H 735.92 -2.6193 4.16718 0
M  V30 7791 N 737.572 -1.44907 -0.619662 0
M  V30 7792 C 738.988 -1.29046 -0.939107 0
M  V30 7793 C 739.188 -0.23462 -2.00129 0
M  V30 7794 O 738.244 0.37558 -2.49691 0
M  V30 7795 C 739.557 -2.66567 -1.39149 0
M  V30 7796 C 741.105 -2.74368 -1.50635 0
M  V30 7797 C 741.58 -4.12386 -1.99253 0
M  V30 7798 N 743.071 -4.1462 -2.06506 0
M  V30 7799 C 743.806 -5.18272 -2.4532 0
M  V30 7800 N 743.302 -6.32278 -2.83189 0
M  V30 7801 N 745.095 -5.05628 -2.45554 0
M  V30 7802 H 737.246 -2.12239 0.0826135 0
M  V30 7803 H 739.509 -0.947652 -0.0256829 0
M  V30 7804 H 739.215 -3.4496 -0.685254 0
M  V30 7805 H 739.089 -2.94224 -2.36034 0
M  V30 7806 H 741.476 -1.96287 -2.20353 0
M  V30 7807 H 741.557 -2.50439 -0.520963 0
M  V30 7808 H 741.201 -4.90947 -1.30127 0
M  V30 7809 H 741.131 -4.33699 -2.98684 0
M  V30 7810 H 743.622 -3.32343 -1.79878 0
M  V30 7811 H 743.935 -7.07172 -3.11652 0
M  V30 7812 H 742.28 -6.35699 -2.80913 0
M  V30 7813 H 745.471 -4.15613 -2.15367 0
M  V30 7814 H 745.644 -5.86529 -2.75478 0
M  V30 7815 N 739.05 0.861098 -1.31996 0
M  V30 7816 C 740.298 1.61162 -1.21947 0
M  V30 7817 C 740.619 1.93751 0.220351 0
M  V30 7818 O 739.889 1.59069 1.14341 0
M  V30 7819 H 738.469 0.597485 -0.448353 0
M  V30 7820 H 741.131 1.03039 -1.65436 0
M  V30 7821 H 740.227 2.55138 -1.79752 0
M  V30 7822 N 740.528 1.15101 1.07655 0
M  V30 7823 C 741.753 0.948177 1.84457 0
M  V30 7824 C 742.178 -0.498432 1.81376 0
M  V30 7825 O 741.536 -1.35509 1.20445 0
M  V30 7826 C 741.584 1.46318 3.29581 0
M  V30 7827 O 740.688 0.660342 4.07079 0
M  V30 7828 H 740.029 0.338428 0.571281 0
M  V30 7829 H 742.559 1.5301 1.35828 0
M  V30 7830 H 742.569 1.47468 3.80417 0
M  V30 7831 H 741.244 2.51635 3.31138 0
M  V30 7832 H 739.821 0.718216 3.65918 0
M  V30 7833 N 742.006 -1.2595 0.947325 0
M  V30 7834 C 743.254 -1.93081 0.596996 0
M  V30 7835 C 743.575 -1.74632 -0.867672 0
M  V30 7836 O 742.845 -1.1056 -1.6172 0
M  V30 7837 H 741.425 -0.714542 0.217805 0
M  V30 7838 H 744.087 -1.53265 1.20398 0
M  V30 7839 H 743.183 -3.01134 0.82004 0
M  V30 7840 N 743.484 -0.715051 -1.40445 0
M  V30 7841 C 744.712 -0.263959 -2.05209 0
M  V30 7842 C 745.127 1.09403 -1.53871 0
M  V30 7843 O 744.484 1.68746 -0.695064 0
M  V30 7844 C 744.535 -0.234545 -3.60738 0
M  V30 7845 O 744.256 -1.53891 -4.10182 0
M  V30 7846 C 745.757 0.235164 -4.42676 0
M  V30 7847 H 742.977 -0.11876 -0.660407 0
M  V30 7848 H 745.521 -0.973107 -1.79864 0
M  V30 7849 H 743.676 0.425563 -3.85055 0
M  V30 7850 H 744.09 -1.43903 -5.04373 0
M  V30 7851 H 745.564 0.204598 -5.51621 0
M  V30 7852 H 746.041 1.27724 -4.20218 0
M  V30 7853 H 746.647 -0.394649 -4.23465 0
M  V30 7854 N 744.962 1.50701 -0.461195 0
M  V30 7855 C 745.872 2.32069 0.343661 0
M  V30 7856 C 746.888 1.42016 1.00535 0
M  V30 7857 O 748.064 1.75077 0.995498 0
M  V30 7858 C 745.129 3.16424 1.41692 0
M  V30 7859 C 744.19 4.22286 0.772869 0
M  V30 7860 C 743.423 5.02609 1.79499 0
M  V30 7861 O 743.646 4.83874 3.0203 0
M  V30 7862 O 742.58 5.86047 1.3723 0
M  V30 7863 H 746.406 3.01996 -0.321268 0
M  V30 7864 H 743.991 1.47723 -0.223235 0
M  V30 7865 H 745.873 3.68795 2.03883 0
M  V30 7866 H 744.548 2.49236 2.0655 0
M  V30 7867 H 743.455 3.73931 0.112277 0
M  V30 7868 H 744.788 4.91915 0.167399 0
M  V30 7869 N 746.441 0.193421 1.56409 0
M  V30 7870 C 747.351 -0.740112 2.2262 0
M  V30 7871 C 748.367 -1.23597 1.22474 0
M  V30 7872 O 749.543 -1.28348 1.55206 0
M  V30 7873 C 746.608 -1.94317 2.87127 0
M  V30 7874 C 745.669 -1.49205 4.02538 0
M  V30 7875 C 744.902 -2.63776 4.63959 0
M  V30 7876 O 745.125 -3.81215 4.24301 0
M  V30 7877 O 744.059 -2.36585 5.53454 0
M  V30 7878 H 747.885 -0.206238 3.02999 0
M  V30 7879 H 745.47 -0.0357938 1.49357 0
M  V30 7880 H 747.352 -2.64633 3.27944 0
M  V30 7881 H 746.027 -2.46568 2.09728 0
M  V30 7882 H 744.934 -0.757738 3.66346 0
M  V30 7883 H 746.267 -1.01622 4.81595 0
M  V30 7884 N 747.919 -1.57396 -0.0801906 0
M  V30 7885 C 748.882 -2.02133 -1.0805 0
M  V30 7886 C 749.882 -0.91707 -1.32085 0
M  V30 7887 O 751.072 -1.18217 -1.27947 0
M  V30 7888 C 748.204 -2.39479 -2.42616 0
M  V30 7889 H 749.397 -2.91733 -0.6951 0
M  V30 7890 H 746.95 -1.52869 -0.325677 0
M  V30 7891 H 747.685 -1.52879 -2.86004 0
M  V30 7892 H 747.47 -3.20052 -2.26515 0
M  V30 7893 H 748.96 -2.74697 -3.14534 0
M  V30 7894 N 749.397 0.351382 -1.53633 0
M  V30 7895 C 750.345 1.45142 -1.8176 0
M  V30 7896 C 751.339 1.54819 -0.687571 0
M  V30 7897 O 752.545 1.57536 -0.870772 0
M  V30 7898 H 748.92 0.483789 -0.575719 0
M  V30 7899 H 750.891 1.1863 -2.73806 0
M  V30 7900 C 749.64 2.81779 -2.03706 0
M  V30 7901 H 748.963 2.75097 -2.90107 0
M  V30 7902 H 750.403 3.5789 -2.27356 0
M  V30 7903 C 748.862 3.26762 -0.820271 0
M  V30 7904 O 749.392 4.01697 -0.0158603 0
M  V30 7905 N 747.598 2.83472 -0.639699 0
M  V30 7906 H 747.145 2.22655 -1.29547 0
M  V30 7907 H 747.103 3.13924 0.172995 0
M  V30 7908 N 750.875 1.45233 0.611969 0
M  V30 7909 C 751.785 1.56098 1.7513 0
M  V30 7910 C 752.801 0.445646 1.68196 0
M  V30 7911 O 753.977 0.705718 1.88631 0
M  V30 7912 C 751.042 1.52052 3.11579 0
M  V30 7913 C 750.103 2.74589 3.29999 0
M  V30 7914 C 749.336 2.70726 4.59938 0
M  V30 7915 O 749.559 1.77806 5.41979 0
M  V30 7916 O 748.493 3.61864 4.80976 0
M  V30 7917 H 752.319 2.52392 1.68914 0
M  V30 7918 H 749.904 1.27695 0.775528 0
M  V30 7919 H 751.786 1.52387 3.92882 0
M  V30 7920 H 750.461 0.589085 3.18295 0
M  V30 7921 H 749.368 2.79817 2.48301 0
M  V30 7922 H 750.701 3.66843 3.28157 0
M  V30 7923 N 752.353 -0.854086 1.3245 0
M  V30 7924 C 753.63 -1.59188 1.1366 0
M  V30 7925 C 754.01 -2.08917 -0.302807 0
M  V30 7926 O 753.358 -1.8795 -1.29951 0
M  V30 7927 C 753.568 -2.73757 2.16467 0
M  V30 7928 C 754.916 -3.43323 2.49829 0
M  V30 7929 O 755.94 -2.83983 2.15017 0
M  V30 7930 O 754.799 -4.50409 3.09506 0
M  V30 7931 H 751.893 -0.701092 0.438633 0
M  V30 7932 H 754.439 -0.898165 1.43983 0
M  V30 7933 H 753.211 -2.3454 3.1322 0
M  V30 7934 H 752.834 -3.50804 1.87142 0
M  V30 7935 N 753.831 -1.1567 -1.07043 0
M  V30 7936 C 754.764 -0.799867 -2.13723 0
M  V30 7937 C 755.742 0.225098 -1.61034 0
M  V30 7938 O 756.926 0.11093 -1.88173 0
M  V30 7939 C 754.053 -0.18997 -3.38167 0
M  V30 7940 C 753.099 -1.18733 -4.0964 0
M  V30 7941 S 753.932 -2.73074 -4.60642 0
M  V30 7942 C 755.088 -2.13512 -5.88356 0
M  V30 7943 H 755.321 -1.70342 -2.43661 0
M  V30 7944 H 752.854 -0.979377 -1.19363 0
M  V30 7945 H 754.812 0.155471 -4.10205 0
M  V30 7946 H 753.473 0.691229 -3.064 0
M  V30 7947 H 752.666 -0.708873 -4.9899 0
M  V30 7948 H 752.268 -1.47747 -3.43579 0
M  V30 7949 H 754.56 -1.49911 -6.60706 0
M  V30 7950 H 755.503 -3.01042 -6.40921 0
M  V30 7951 H 755.911 -1.57693 -5.42027 0
M  V30 7952 N 755.309 1.25446 -0.953992 0
M  V30 7953 C 756.219 2.29632 -0.480264 0
M  V30 7954 C 757.235 1.68025 0.452071 0
M  V30 7955 O 758.411 1.98703 0.328472 0
M  V30 7956 C 755.476 3.45903 0.234974 0
M  V30 7957 C 754.537 4.22953 -0.735495 0
M  V30 7958 C 753.77 5.33672 -0.0542957 0
M  V30 7959 O 753.993 5.58477 1.16018 0
M  V30 7960 O 752.927 5.9734 -0.739509 0
M  V30 7961 H 756.753 2.72242 -1.34602 0
M  V30 7962 H 754.338 1.30883 -0.720419 0
M  V30 7963 H 756.22 4.16552 0.637341 0
M  V30 7964 H 754.895 3.05296 1.07592 0
M  V30 7965 H 753.802 3.54734 -1.18806 0
M  V30 7966 H 755.135 4.67341 -1.54444 0
M  V30 7967 N 756.787 0.722489 1.40064 0
M  V30 7968 C 757.697 0.0755984 2.34478 0
M  V30 7969 C 758.713 -0.736046 1.57665 0
M  V30 7970 O 759.889 -0.667407 1.9002 0
M  V30 7971 C 756.954 -0.830075 3.36616 0
M  V30 7972 C 756.015 -0.00759884 4.29299 0
M  V30 7973 C 755.248 -0.870139 5.26559 0
M  V30 7974 O 755.471 -2.10921 5.2997 0
M  V30 7975 O 754.405 -0.305454 6.01124 0
M  V30 7976 H 758.231 0.854545 2.9143 0
M  V30 7977 H 755.816 0.483032 1.41376 0
M  V30 7978 H 757.698 -1.34864 3.99236 0
M  V30 7979 H 756.373 -1.58805 2.82069 0
M  V30 7980 H 755.28 0.556199 3.69942 0
M  V30 7981 H 756.613 0.712312 4.87018 0
M  V30 7982 N 758.265 -1.50454 0.469181 0
M  V30 7983 C 759.197 -2.26319 -0.362247 0
M  V30 7984 C 760.21 -1.31574 -0.958751 0
M  V30 7985 O 761.399 -1.57099 -0.847482 0
M  V30 7986 C 758.499 -3.02808 -1.52187 0
M  V30 7987 C 757.672 -4.24893 -1.03849 0
M  V30 7988 C 756.731 -4.83691 -2.07194 0
M  V30 7989 O 755.757 -5.44659 -1.65333 0
M  V30 7990 N 756.959 -4.70522 -3.39985 0
M  V30 7991 H 759.724 -2.98312 0.288124 0
M  V30 7992 H 757.285 -1.59099 0.299856 0
M  V30 7993 H 759.277 -3.39023 -2.21011 0
M  V30 7994 H 757.847 -2.33625 -2.07697 0
M  V30 7995 H 757.067 -3.93806 -0.176203 0
M  V30 7996 H 758.355 -5.04053 -0.693435 0
M  V30 7997 H 757.753 -4.2203 -3.76706 0
M  V30 7998 H 756.31 -5.11011 -4.04612 0
M  V30 7999 N 759.743 -0.201713 -1.56304 0
M  V30 8000 C 760.675 0.748466 -2.16635 0
M  V30 8001 C 761.688 1.172 -1.12996 0
M  V30 8002 O 762.877 1.10658 -1.40061 0
M  V30 8003 C 759.977 2.02296 -2.719 0
M  V30 8004 C 759.15 1.75818 -4.00508 0
M  V30 8005 C 758.209 2.87779 -4.40533 0
M  V30 8006 O 757.235 2.57101 -5.07826 0
M  V30 8007 N 758.437 4.16287 -4.04581 0
M  V30 8008 H 761.202 0.232505 -2.98797 0
M  V30 8009 H 758.763 -0.0199822 -1.61888 0
M  V30 8010 H 760.755 2.7635 -2.95657 0
M  V30 8011 H 759.325 2.44996 -1.94154 0
M  V30 8012 H 758.545 0.855095 -3.84814 0
M  V30 8013 H 759.833 1.55532 -4.84445 0
M  V30 8014 H 759.231 4.44061 -3.50466 0
M  V30 8015 H 757.788 4.86946 -4.33274 0
M  V30 8016 N 761.222 1.57436 0.0718424 0
M  V30 8017 C 762.154 2.00412 1.1121 0
M  V30 8018 C 763.167 0.910074 1.34987 0
M  V30 8019 O 764.356 1.18796 1.33228 0
M  V30 8020 C 761.456 2.32786 2.46301 0
M  V30 8021 C 760.629 3.64036 2.4248 0
M  V30 8022 C 759.688 3.8408 3.59679 0
M  V30 8023 O 758.714 4.55667 3.4111 0
M  V30 8024 N 759.916 3.2643 4.80025 0
M  V30 8025 H 762.681 2.90264 0.746118 0
M  V30 8026 H 760.242 1.59791 0.260495 0
M  V30 8027 H 762.234 2.43368 3.23348 0
M  V30 8028 H 760.804 1.48824 2.74901 0
M  V30 8029 H 760.024 3.64208 1.50818 0
M  V30 8030 H 761.312 4.50217 2.37027 0
M  V30 8031 H 760.71 2.68325 4.98014 0
M  V30 8032 H 759.267 3.42461 5.54584 0
M  V30 8033 N 762.7 -0.34323 1.53817 0
M  V30 8034 C 764.111 -0.918823 1.62525 0
M  V30 8035 C 764.462 -1.89542 0.506765 0
M  V30 8036 O 763.587 -2.13326 -0.363441 0
M  V30 8037 C 764.182 -1.67326 2.94597 0
M  V30 8038 C 762.741 -2.19786 3.05567 0
M  V30 8039 C 761.888 -1.01708 2.57974 0
M  V30 8040 H 764.839 -0.121358 1.58235 0
M  V30 8041 H 764.86 -2.53615 2.83654 0
M  V30 8042 H 764.372 -0.962223 3.75983 0
M  V30 8043 H 762.473 -2.94065 2.28816 0
M  V30 8044 H 762.586 -2.46135 4.1104 0
M  V30 8045 H 760.95 -1.39058 2.13389 0
M  V30 8046 H 761.733 -0.320671 3.41799 0
M  V30 8047 N 764.178 -1.45556 -0.604258 0
M  V30 8048 C 765.111 -1.48975 -1.72863 0
M  V30 8049 C 766.089 -0.345803 -1.5888 0
M  V30 8050 O 767.273 -0.546796 -1.80395 0
M  V30 8051 C 764.4 -1.34794 -3.10722 0
M  V30 8052 C 763.446 -2.53096 -3.43285 0
M  V30 8053 S 764.279 -4.15551 -3.37754 0
M  V30 8054 C 765.435 -4.03842 -4.78187 0
M  V30 8055 H 765.668 -2.44108 -1.69701 0
M  V30 8056 H 763.201 -1.33179 -0.781194 0
M  V30 8057 H 765.159 -1.273 -3.90263 0
M  V30 8058 H 763.82 -0.411254 -3.11396 0
M  V30 8059 H 763.013 -2.39109 -4.4367 0
M  V30 8060 H 762.615 -2.57469 -2.71267 0
M  V30 8061 H 764.907 -3.69191 -5.6807 0
M  V30 8062 H 765.85 -5.0415 -4.97231 0
M  V30 8063 H 766.258 -3.35443 -4.54025 0
M  V30 8064 N 765.656 0.84705 -1.32902 0
M  V30 8065 C 766.886 1.63166 -1.26729 0
M  V30 8066 C 767.294 1.88474 0.165595 0
M  V30 8067 O 766.637 1.45947 1.11558 0
M  V30 8068 C 766.699 3.0103 -1.96522 0
M  V30 8069 C 766.363 2.9873 -3.45846 0
M  V30 8070 C 767.36 2.75032 -4.41196 0
M  V30 8071 C 765.045 3.19125 -3.87898 0
M  V30 8072 C 767.039 2.71743 -5.76571 0
M  V30 8073 C 764.726 3.15462 -5.2338 0
M  V30 8074 C 765.724 2.91801 -6.17528 0
M  V30 8075 O 765.412 2.88027 -7.5053 0
M  V30 8076 H 765.144 0.51469 -0.438258 0
M  V30 8077 H 767.698 1.06383 -1.75704 0
M  V30 8078 H 765.928 3.59634 -1.42128 0
M  V30 8079 H 767.617 3.61821 -1.83958 0
M  V30 8080 H 768.383 2.59034 -4.10032 0
M  V30 8081 H 764.262 3.36565 -3.15032 0
M  V30 8082 H 767.806 2.53194 -6.5003 0
M  V30 8083 H 763.703 3.31006 -5.54171 0
M  V30 8084 H 764.471 3.03927 -7.59981 0
M  V30 8085 N 767.134 1.16236 1.06428 0
M  V30 8086 C 768.066 0.825446 2.1382 0
M  V30 8087 C 769.079 -0.166707 1.61944 0
M  V30 8088 O 770.268 0.0578606 1.78406 0
M  V30 8089 C 767.368 0.208023 3.38261 0
M  V30 8090 C 766.541 1.23994 4.19457 0
M  V30 8091 C 765.6 0.642569 5.22262 0
M  V30 8092 O 764.626 1.31106 5.53895 0
M  V30 8093 N 765.828 -0.571327 5.77682 0
M  V30 8094 H 768.593 1.7497 2.43322 0
M  V30 8095 H 766.154 1.05951 1.22417 0
M  V30 8096 H 768.146 -0.204608 4.04182 0
M  V30 8097 H 766.716 -0.619752 3.06395 0
M  V30 8098 H 765.936 1.82879 3.49212 0
M  V30 8099 H 767.224 1.93638 4.70512 0
M  V30 8100 H 766.622 -1.13263 5.54245 0
M  V30 8101 H 765.179 -0.926187 6.45186 0
M  V30 8102 N 768.612 -1.24939 0.960631 0
M  V30 8103 C 770.023 -1.74701 0.658529 0
M  V30 8104 C 770.374 -1.77967 -0.825959 0
M  V30 8105 O 769.499 -1.40444 -1.64634 0
M  V30 8106 C 770.094 -3.17263 1.18867 0
M  V30 8107 C 768.653 -3.64561 0.936614 0
M  V30 8108 C 767.8 -2.43423 1.32817 0
M  V30 8109 H 770.751 -1.10741 1.13676 0
M  V30 8110 H 770.772 -3.76481 0.551589 0
M  V30 8111 H 770.284 -3.14854 2.26912 0
M  V30 8112 H 768.385 -3.72378 -0.128608 0
M  V30 8113 H 768.498 -4.52392 1.57729 0
M  V30 8114 H 766.862 -2.43513 0.746548 0
M  V30 8115 H 767.645 -2.437 2.41796 0
M  V30 8116 N 770.09 -0.729906 -1.39679 0
M  V30 8117 C 771.318 -0.285709 -2.04918 0
M  V30 8118 C 771.733 1.07765 -1.55023 0
M  V30 8119 O 771.09 1.67999 -0.712923 0
M  V30 8120 C 771.141 -0.272793 -3.60469 0
M  V30 8121 O 770.862 -1.58233 -4.08527 0
M  V30 8122 C 772.363 0.188199 -4.429 0
M  V30 8123 H 769.583 -0.125758 -0.65911 0
M  V30 8124 H 772.127 -0.992129 -1.78821 0
M  V30 8125 H 770.282 0.384699 -3.85485 0
M  V30 8126 H 770.696 -1.49245 -5.02818 0
M  V30 8127 H 772.17 0.14608 -5.51807 0
M  V30 8128 H 772.647 1.2326 -4.21549 0
M  V30 8129 H 773.253 -0.439541 -4.23023 0
M  V30 8130 N 771.568 1.50203 -0.477153 0
M  V30 8131 C 772.979 1.86685 -0.0235041 0
M  V30 8132 C 773.33 1.39148 1.38319 0
M  V30 8133 O 772.455 0.759051 2.02651 0
M  V30 8134 C 773.05 3.38781 -0.0358767 0
M  V30 8135 C 771.609 3.74652 0.362327 0
M  V30 8136 C 770.756 2.7412 -0.41875 0
M  V30 8137 H 773.707 1.4286 -0.691133 0
M  V30 8138 H 773.728 3.72732 0.764924 0
M  V30 8139 H 773.24 3.73349 -1.05981 0
M  V30 8140 H 771.341 3.45686 1.39039 0
M  V30 8141 H 771.454 4.79063 0.059457 0
M  V30 8142 H 769.818 2.54376 0.128341 0
M  V30 8143 H 770.601 3.11532 -1.44231 0
M  V30 8144 N 773.046 0.209999 1.56195 0
M  V30 8145 C 774.274 -0.429996 2.02382 0
M  V30 8146 C 774.689 -1.54159 1.08998 0
M  V30 8147 O 774.046 -1.82239 0.0974856 0
M  V30 8148 C 774.097 -0.972433 3.48175 0
M  V30 8149 O 773.818 0.0948231 4.37997 0
M  V30 8150 C 775.319 -1.68683 4.09952 0
M  V30 8151 H 772.539 -0.106475 0.662498 0
M  V30 8152 H 775.083 0.323072 2.01932 0
M  V30 8153 H 773.238 -1.67582 3.49278 0
M  V30 8154 H 773.652 -0.31113 5.23576 0
M  V30 8155 H 775.126 -2.01851 5.13771 0
M  V30 8156 H 775.603 -2.59587 3.54276 0
M  V30 8157 H 776.209 -1.02893 4.12666 0
M  V30 8158 N 774.524 -1.57472 -0.0634922 0
M  V30 8159 C 775.471 -2.04258 -1.07457 0
M  V30 8160 C 776.441 -0.924804 -1.37973 0
M  V30 8161 O 777.626 -1.19305 -1.48899 0
M  V30 8162 C 774.766 -2.49832 -2.38071 0
M  V30 8163 C 773.879 -3.75263 -2.14014 0
M  V30 8164 C 773.014 -4.09585 -3.38251 0
M  V30 8165 C 772.053 -5.28032 -3.09594 0
M  V30 8166 N 771.19 -5.57953 -4.26185 0
M  V30 8167 H 776.03 -2.90402 -0.668626 0
M  V30 8168 H 773.567 -1.43609 -0.318572 0
M  V30 8169 H 775.525 -2.7431 -3.14341 0
M  V30 8170 H 774.155 -1.66654 -2.76453 0
M  V30 8171 H 773.207 -3.58075 -1.28399 0
M  V30 8172 H 774.519 -4.61667 -1.88852 0
M  V30 8173 H 773.673 -4.35008 -4.2291 0
M  V30 8174 H 772.412 -3.21765 -3.66495 0
M  V30 8175 H 771.417 -5.02397 -2.23332 0
M  V30 8176 H 772.642 -6.17477 -2.82663 0
M  V30 8177 H 770.588 -4.73092 -4.54445 0
M  V30 8178 H 770.505 -6.38793 -4.04326 0
M  V30 8179 H 771.773 -5.87931 -5.11817 0
M  V30 8180 N 776.003 0.335068 -1.53997 0
M  V30 8181 C 777.28 1.09188 -1.62288 0
M  V30 8182 C 777.66 2.0626 -0.449458 0
M  V30 8183 O 777.008 2.21596 0.557444 0
M  V30 8184 C 777.218 1.80403 -2.98757 0
M  V30 8185 C 778.566 2.33841 -3.54406 0
M  V30 8186 O 779.59 1.90487 -3.00987 0
M  V30 8187 O 778.449 3.1318 -4.47862 0
M  V30 8188 H 775.543 0.502621 -0.656736 0
M  V30 8189 H 778.089 0.33588 -1.66343 0
M  V30 8190 H 776.861 1.09732 -3.75599 0
M  V30 8191 H 776.484 2.62841 -2.9833 0
M  V30 8192 N 777.481 1.45874 0.596531 0
M  V30 8193 C 778.428 1.55389 1.70655 0
M  V30 8194 C 779.398 0.399036 1.61236 0
M  V30 8195 O 780.583 0.61396 1.80652 0
M  V30 8196 C 777.723 1.53705 3.0898 0
M  V30 8197 C 776.836 2.79823 3.29125 0
M  V30 8198 C 775.971 2.69735 4.5762 0
M  V30 8199 C 775.01 3.90856 4.71061 0
M  V30 8200 N 774.147 3.79237 5.90867 0
M  V30 8201 H 778.987 2.50211 1.61859 0
M  V30 8202 H 776.524 1.24146 0.789069 0
M  V30 8203 H 778.482 1.50715 3.89026 0
M  V30 8204 H 777.112 0.624247 3.16706 0
M  V30 8205 H 776.164 2.92852 2.42779 0
M  V30 8206 H 777.476 3.69628 3.34927 0
M  V30 8207 H 776.63 2.64773 5.45875 0
M  V30 8208 H 775.369 1.77547 4.54234 0
M  V30 8209 H 774.374 3.96164 3.81227 0
M  V30 8210 H 775.599 4.84124 4.76236 0
M  V30 8211 H 773.545 2.89825 5.88504 0
M  V30 8212 H 773.462 4.62686 5.97877 0
M  V30 8213 H 774.73 3.78227 6.8159 0
M  V30 8214 N 778.959 -0.83999 1.33349 0
M  V30 8215 C 780.236 -1.57973 1.15342 0
M  V30 8216 C 780.616 -2.09226 -0.280632 0
M  V30 8217 O 779.964 -1.89317 -1.2795 0
M  V30 8218 C 780.174 -2.71446 2.19359 0
M  V30 8219 C 781.522 -3.40654 2.53456 0
M  V30 8220 O 782.546 -2.81686 2.18017 0
M  V30 8221 O 781.405 -4.47101 3.14266 0
M  V30 8222 H 778.499 -0.6964 0.446044 0
M  V30 8223 H 781.045 -0.882843 1.44927 0
M  V30 8224 H 779.817 -2.31205 3.1569 0
M  V30 8225 H 779.44 -3.488 1.90852 0
M  V30 8226 N 780.437 -1.16799 -1.0581 0
M  V30 8227 C 781.683 -0.953935 -1.78963 0
M  V30 8228 C 782.016 0.516638 -1.87202 0
M  V30 8229 O 781.291 1.38338 -1.36721 0
M  V30 8230 C 781.574 -1.58808 -3.23191 0
M  V30 8231 C 781.427 -3.13032 -3.23003 0
M  V30 8232 C 782.746 -1.2868 -4.20867 0
M  V30 8233 H 779.865 -0.347972 -0.64968 0
M  V30 8234 H 782.507 -1.44204 -1.23715 0
M  V30 8235 H 780.657 -1.17303 -3.70368 0
M  V30 8236 H 782.329 -3.63553 -2.83949 0
M  V30 8237 H 780.572 -3.46108 -2.61518 0
M  V30 8238 H 781.243 -3.52527 -4.24769 0
M  V30 8239 H 783.719 -1.6461 -3.82155 0
M  V30 8240 H 782.595 -1.75645 -5.20038 0
M  V30 8241 H 782.856 -0.206491 -4.41618 0
M  V30 8242 N 781.915 1.24427 -0.967243 0
M  V30 8243 C 782.878 2.23637 -0.501927 0
M  V30 8244 C 783.878 1.55712 0.401283 0
M  V30 8245 O 785.068 1.73085 0.196808 0
M  V30 8246 C 782.2 3.39804 0.273176 0
M  V30 8247 H 783.393 2.66317 -1.37897 0
M  V30 8248 H 780.946 1.37033 -0.751783 0
M  V30 8249 H 781.681 3.02562 1.16733 0
M  V30 8250 H 781.466 3.90303 -0.37498 0
M  V30 8251 H 782.956 4.13443 0.587776 0
M  V30 8252 N 783.393 0.737304 1.3929 0
M  V30 8253 C 784.641 0.285691 2.00071 0
M  V30 8254 C 784.962 -1.13169 1.58801 0
M  V30 8255 O 784.232 -1.77104 0.837308 0
M  V30 8256 H 782.812 0.102638 0.739915 0
M  V30 8257 H 785.474 0.947775 1.70303 0
M  V30 8258 H 784.57 0.335906 3.10287 0
M  V30 8259 N 784.871 -1.49948 0.485112 0
M  V30 8260 C 785.803 -2.26691 -0.338222 0
M  V30 8261 C 786.816 -1.32584 -0.944742 0
M  V30 8262 O 788.005 -1.57989 -0.830772 0
M  V30 8263 C 785.105 -3.04405 -1.48966 0
M  V30 8264 C 784.278 -4.25971 -0.993371 0
M  V30 8265 C 783.337 -4.85861 -2.02052 0
M  V30 8266 O 782.363 -5.46382 -1.59547 0
M  V30 8267 N 783.565 -4.74101 -3.34975 0
M  V30 8268 H 786.33 -2.97989 0.319748 0
M  V30 8269 H 783.891 -1.58772 0.316714 0
M  V30 8270 H 785.883 -3.41348 -2.17403 0
M  V30 8271 H 784.453 -2.35815 -2.05207 0
M  V30 8272 H 783.673 -3.93971 -0.134424 0
M  V30 8273 H 784.961 -5.0476 -0.639934 0
M  V30 8274 H 784.359 -4.26002 -3.72208 0
M  V30 8275 H 782.916 -5.15274 -3.9917 0
M  V30 8276 N 786.349 -0.21828 -1.56081 0
M  V30 8277 C 787.76 0.290166 -1.84431 0
M  V30 8278 C 788.111 1.59712 -1.13958 0
M  V30 8279 O 787.236 2.12516 -0.40815 0
M  V30 8280 C 787.831 0.53325 -3.34577 0
M  V30 8281 C 786.39 0.986011 -3.63256 0
M  V30 8282 C 785.537 0.0472798 -2.7726 0
M  V30 8283 H 788.488 -0.441548 -1.52434 0
M  V30 8284 H 788.509 1.37967 -3.54606 0
M  V30 8285 H 788.021 -0.418137 -3.85841 0
M  V30 8286 H 786.122 1.95087 -3.17446 0
M  V30 8287 H 786.235 0.862684 -4.71269 0
M  V30 8288 H 784.599 0.553471 -2.48614 0
M  V30 8289 H 785.382 -0.898966 -3.31321 0
M  V30 8290 N 787.827 1.57504 0.0551401 0
M  V30 8291 C 788.759 2.0158 1.09078 0
M  V30 8292 C 789.772 0.92434 1.34014 0
M  V30 8293 O 790.961 1.20202 1.31961 0
M  V30 8294 C 788.061 2.35385 2.43818 0
M  V30 8295 C 787.234 3.66588 2.38605 0
M  V30 8296 C 786.293 3.87874 3.55585 0
M  V30 8297 O 785.319 4.59259 3.36258 0
M  V30 8298 N 786.521 3.31503 4.76536 0
M  V30 8299 H 789.286 2.91039 0.71529 0
M  V30 8300 H 786.847 1.60058 0.243532 0
M  V30 8301 H 788.839 2.46784 3.20749 0
M  V30 8302 H 787.409 1.51731 2.73307 0
M  V30 8303 H 786.629 3.65787 1.46947 0
M  V30 8304 H 787.917 4.52706 2.32239 0
M  V30 8305 H 787.315 2.73592 4.9514 0
M  V30 8306 H 785.872 3.48324 5.50921 0
M  V30 8307 N 789.305 -0.326896 1.54172 0
M  V30 8308 C 790.716 -0.901533 1.63491 0
M  V30 8309 C 791.067 -1.88994 0.52684 0
M  V30 8310 O 790.192 -2.137 -0.340794 0
M  V30 8311 C 790.787 -1.64192 2.96355 0
M  V30 8312 C 789.346 -2.16533 3.07881 0
M  V30 8313 C 788.493 -0.98966 2.59039 0
M  V30 8314 H 791.444 -0.104568 1.58355 0
M  V30 8315 H 791.465 -2.50592 2.86328 0
M  V30 8316 H 790.977 -0.922291 3.76982 0
M  V30 8317 H 789.078 -2.91622 2.31922 0
M  V30 8318 H 789.191 -2.41762 4.13628 0
M  V30 8319 H 787.555 -1.36787 2.14852 0
M  V30 8320 H 788.338 -0.284401 3.4212 0
M  V30 8321 O 790.822 -1.54423 -0.472853 0
M  V30 8322 H 791.513 -1.5752 -1.12726 0
M  V30 END ATOM
M  V30 BEGIN BOND
M  V30 END BOND
M  V30 END CTAB
M  END
$$$$
