drugbank_target|Q9UHW9 Solute carrier family 12 member 6 (DB00761)
 OpenBabel12092119253D

  0  0  0     0  0            999 V3000
M  V30 BEGIN CTAB
M  V30 COUNTS 17999 18193 0 0 0
M  V30 BEGIN ATOM
M  V30 1 H -0.908 1.98254 -0.117106 0
M  V30 2 N 0 1.576 0 0
M  V30 3 C 0.933 2.03868 1.02534 0
M  V30 4 C 1.911 0.928543 1.3348 0
M  V30 5 O 3.095 1.19667 1.45644 0
M  V30 6 C 0.222 2.43627 2.35294 0
M  V30 7 C -0.732 3.65373 2.2001 0
M  V30 8 S 0.101 5.13292 1.52614 0
M  V30 9 C 1.257 5.56322 2.86805 0
M  V30 10 H 1.49 2.90518 0.631377 0
M  V30 11 H -0.977 1.52953 0.210867 0
M  V30 12 H 0.981 2.67203 3.11629 0
M  V30 13 H -0.358 1.57376 2.7183 0
M  V30 14 H -1.165 3.90944 3.18086 0
M  V30 15 H -1.563 3.418 1.51819 0
M  V30 16 H 0.729 5.58782 3.83104 0
M  V30 17 H 1.672 6.56266 2.65933 0
M  V30 18 H 2.08 4.83886 2.90714 0
M  V30 19 N 1.4781 -0.272755 1.55222 0
M  V30 20 C 2.4281 -1.33946 1.84506 0
M  V30 21 C 3.4121 -1.44682 0.70399 0
M  V30 22 O 4.6041 -1.48358 0.965338 0
M  V30 23 C 1.7331 -2.69968 2.12067 0
M  V30 24 C 0.8191 -2.63341 3.32434 0
M  V30 25 N 1.2101 -2.26335 4.52334 0
M  V30 26 C -0.4919 -2.94402 3.35028 0
M  V30 27 C 0.2091 -2.29705 5.34425 0
M  V30 28 N -0.8149 -2.68188 4.72838 0
M  V30 29 H 2.9871 -1.04343 2.74754 0
M  V30 30 H 0.5011 -0.481389 1.55101 0
M  V30 31 H 2.4981 -3.46916 2.31202 0
M  V30 32 H 1.1581 -3.00459 1.23103 0
M  V30 33 H 2.1691 -1.98309 4.78429 0
M  V30 34 H -1.1539 -3.29603 2.56257 0
M  V30 35 H 0.2361 -2.03653 6.40293 0
M  V30 36 N 2.9562 -1.48159 -0.537278 0
M  V30 37 C 4.3672 -1.49429 -1.11928 0
M  V30 38 C 4.7182 -0.26 -1.9447 0
M  V30 39 O 3.8432 0.633489 -2.0692 0
M  V30 40 C 4.4382 -2.70758 -2.03656 0
M  V30 41 C 2.9972 -2.74923 -2.57088 0
M  V30 42 C 2.1442 -2.42835 -1.3389 0
M  V30 43 H 5.0952 -1.55381 -0.322886 0
M  V30 44 H 5.1162 -2.48861 -2.87834 0
M  V30 45 H 4.6282 -3.60575 -1.43553 0
M  V30 46 H 2.7292 -1.89296 -3.20933 0
M  V30 47 H 2.8422 -3.76157 -2.9672 0
M  V30 48 H 1.2062 -1.93836 -1.65226 0
M  V30 49 H 1.9892 -3.34884 -0.755504 0
M  V30 50 N 4.4343 0.785586 -1.36625 0
M  V30 51 C 5.8453 1.36101 -1.27803 0
M  V30 52 C 6.1963 1.96035 0.0804875 0
M  V30 53 O 5.3213 1.92834 0.982042 0
M  V30 54 C 5.9163 2.47442 -2.31426 0
M  V30 55 C 4.4753 3.00789 -2.26281 0
M  V30 56 C 3.6223 1.73896 -2.15999 0
M  V30 57 H 6.5733 0.586928 -1.47448 0
M  V30 58 H 6.5943 3.2656 -1.95291 0
M  V30 59 H 6.1063 2.03791 -3.30289 0
M  V30 60 H 4.2073 3.48851 -1.30896 0
M  V30 61 H 4.3203 3.57343 -3.19128 0
M  V30 62 H 2.6843 1.9628 -1.62316 0
M  V30 63 H 3.4673 1.32368 -3.16755 0
M  V30 64 N 5.9124 1.20967 1.01018 0
M  V30 65 C 6.8224 0.980157 2.13143 0
M  V30 66 C 7.8384 -0.0660665 1.73875 0
M  V30 67 O 9.0144 0.122821 2.01025 0
M  V30 68 C 6.0794 0.54216 3.42435 0
M  V30 69 C 5.1404 1.65999 3.95908 0
M  V30 70 C 4.3734 1.2428 5.19028 0
M  V30 71 O 4.5964 0.114196 5.70286 0
M  V30 72 O 3.5304 2.05271 5.65816 0
M  V30 73 H 7.3564 1.91913 2.35379 0
M  V30 74 H 4.9414 0.994099 1.11526 0
M  V30 75 H 6.8234 0.30744 4.20277 0
M  V30 76 H 5.4984 -0.36815 3.216 0
M  V30 77 H 4.4054 1.94906 3.19316 0
M  V30 78 H 5.7384 2.54753 4.21143 0
M  V30 79 N 7.3905 -1.2043 1.01659 0
M  V30 80 C 8.6185 -1.93777 0.725132 0
M  V30 81 C 9.0335 -1.74772 -0.714166 0
M  V30 82 O 8.3905 -1.06169 -1.4844 0
M  V30 83 C 8.4415 -3.45876 1.05129 0
M  V30 84 O 8.1625 -3.6426 2.43406 0
M  V30 85 C 9.6635 -4.36368 0.780891 0
M  V30 86 H 6.8835 -0.615901 0.266284 0
M  V30 87 H 9.4275 -1.52922 1.35776 0
M  V30 88 H 7.5825 -3.8461 0.464065 0
M  V30 89 H 7.9965 -4.58246 2.55169 0
M  V30 90 H 9.4705 -5.41743 1.05918 0
M  V30 91 H 9.9475 -4.38275 -0.284937 0
M  V30 92 H 10.5535 -4.03296 1.35027 0
M  V30 93 N 8.8686 -0.792821 -1.36206 0
M  V30 94 C 10.0966 -0.378825 -2.03402 0
M  V30 95 C 10.5116 1.00586 -1.59774 0
M  V30 96 O 9.8686 1.64574 -0.788764 0
M  V30 97 C 9.9196 -0.43683 -3.58851 0
M  V30 98 O 9.6406 -1.76691 -4.00889 0
M  V30 99 C 11.1416 -0.0138943 -4.43298 0
M  V30 100 H 8.3616 -0.155673 -0.652692 0
M  V30 101 H 10.9056 -1.07261 -1.74113 0
M  V30 102 H 9.0606 0.208575 -3.86838 0
M  V30 103 H 9.4746 -1.72011 -4.95492 0
M  V30 104 H 10.9486 -0.105615 -5.51899 0
M  V30 105 H 11.4256 1.03915 -4.2673 0
M  V30 106 H 12.0316 -0.63192 -4.20579 0
M  V30 107 N 10.3467 1.47872 -0.545128 0
M  V30 108 C 11.5747 2.06889 -0.021084 0
M  V30 109 C 11.9897 1.39955 1.2672 0
M  V30 110 O 11.3467 0.492036 1.75742 0
M  V30 111 C 11.3977 3.60996 0.190817 0
M  V30 112 O 11.1187 4.25419 -1.04644 0
M  V30 113 C 12.6197 4.36849 0.753521 0
M  V30 114 H 9.8397 0.669785 -0.0403635 0
M  V30 115 H 12.3837 1.90049 -0.755095 0
M  V30 116 H 10.5387 3.77391 0.87492 0
M  V30 117 H 10.9527 5.17785 -0.836611 0
M  V30 118 H 12.4267 5.45399 0.851139 0
M  V30 119 H 12.9037 4.02306 1.762 0
M  V30 120 H 13.5097 4.25169 0.105503 0
M  V30 121 N 11.8248 0.280983 1.55075 0
M  V30 122 C 12.7718 -0.603937 2.22758 0
M  V30 123 C 13.7418 -1.1452 1.20309 0
M  V30 124 O 14.9268 -1.19343 1.48869 0
M  V30 125 C 12.0668 -1.77947 2.95684 0
M  V30 126 C 11.1798 -1.2715 4.12864 0
M  V30 127 C 10.3148 -2.4093 4.7342 0
M  V30 128 C 9.3538 -1.87165 5.82783 0
M  V30 129 N 8.4908 -2.94441 6.37377 0
M  V30 130 H 13.3308 -0.020124 2.97993 0
M  V30 131 H 10.8678 0.00183425 1.471 0
M  V30 132 H 12.8258 -2.47055 3.36184 0
M  V30 133 H 11.4558 -2.33522 2.22861 0
M  V30 134 H 10.5078 -0.473331 3.77444 0
M  V30 135 H 11.8198 -0.837751 4.91715 0
M  V30 136 H 10.9738 -3.18021 5.1667 0
M  V30 137 H 9.7128 -2.87623 3.93859 0
M  V30 138 H 8.7178 -1.08556 5.38976 0
M  V30 139 H 9.9428 -1.41401 6.64216 0
M  V30 140 H 7.8888 -3.40505 5.60707 0
M  V30 141 H 7.8058 -2.55501 7.11516 0
M  V30 142 H 9.0738 -3.71489 6.85285 0
M  V30 143 N 13.3029 -1.57598 0.00835791 0
M  V30 144 C 14.2359 -2.04409 -1.01451 0
M  V30 145 C 15.2139 -0.935609 -1.32985 0
M  V30 146 O 16.3979 -1.20437 -1.45007 0
M  V30 147 C 13.5249 -2.44872 -2.33999 0
M  V30 148 C 12.5709 -3.66535 -2.18069 0
M  V30 149 S 13.4039 -5.14095 -1.4989 0
M  V30 150 C 14.5599 -5.57835 -2.8385 0
M  V30 151 H 14.7929 -2.90849 -0.615961 0
M  V30 152 H 12.3259 -1.53063 -0.202752 0
M  V30 153 H 14.2839 -2.68852 -3.10208 0
M  V30 154 H 12.9449 -1.58815 -2.70992 0
M  V30 155 H 12.1379 -3.92626 -3.16008 0
M  V30 156 H 11.7399 -3.426 -1.50004 0
M  V30 157 H 14.0319 -5.60806 -3.80136 0
M  V30 158 H 14.9749 -6.57667 -2.62449 0
M  V30 159 H 15.3829 -4.85421 -2.88144 0
M  V30 160 N 14.781 0.264519 -1.55364 0
M  V30 161 C 15.744 1.31046 -1.88042 0
M  V30 162 C 16.744 1.41943 -0.755569 0
M  V30 163 O 17.934 1.40947 -1.02369 0
M  V30 164 C 15.066 2.69067 -2.09323 0
M  V30 165 H 16.259 1.03297 -2.81549 0
M  V30 166 H 13.812 0.502989 -1.47986 0
M  V30 167 H 14.547 3.01982 -1.18226 0
M  V30 168 H 14.332 2.62542 -2.91229 0
M  V30 169 H 15.822 3.44623 -2.35848 0
M  V30 170 N 16.2591 1.48442 0.529413 0
M  V30 171 C 17.4841 1.60406 1.31471 0
M  V30 172 C 17.9091 0.264738 1.86228 0
M  V30 173 O 17.2671 -0.763668 1.64432 0
M  V30 174 C 17.3151 2.65419 2.44101 0
M  V30 175 O 16.4191 2.22618 3.47153 0
M  V30 176 H 15.7601 0.537863 0.389357 0
M  V30 177 H 18.2901 1.94432 0.636965 0
M  V30 178 H 18.3001 2.86709 2.90279 0
M  V30 179 H 16.9751 3.62652 2.03608 0
M  V30 180 H 15.5521 2.11543 3.0709 0
M  V30 181 N 17.7372 -0.778329 1.37039 0
M  V30 182 C 18.9832 -1.53892 1.32079 0
M  V30 183 C 19.3162 -1.9396 -0.0965386 0
M  V30 184 O 18.5912 -1.63568 -1.05242 0
M  V30 185 C 18.8742 -2.80847 2.25382 0
M  V30 186 C 18.7272 -2.47076 3.75864 0
M  V30 187 C 20.0462 -3.82741 2.1725 0
M  V30 188 H 17.1652 -0.558303 0.48111 0
M  V30 189 H 19.8072 -0.893397 1.67685 0
M  V30 190 H 17.9572 -3.35931 1.95148 0
M  V30 191 H 19.6292 -1.97957 4.16666 0
M  V30 192 H 17.8722 -1.79863 3.94755 0
M  V30 193 H 18.5432 -3.37798 4.36574 0
M  V30 194 H 21.0192 -3.37133 2.43887 0
M  V30 195 H 19.8952 -4.69303 2.84686 0
M  V30 196 H 20.1562 -4.2652 1.16331 0
M  V30 197 N 19.2153 -1.21501 -1.00376 0
M  V30 198 C 20.6313 -0.972629 -1.26539 0
M  V30 199 C 20.8313 0.340257 -1.98606 0
M  V30 200 O 19.8873 1.06561 -2.28913 0
M  V30 201 C 21.2003 -2.16404 -2.08781 0
M  V30 202 C 22.7483 -2.20643 -2.22004 0
M  V30 203 C 23.2233 -3.39306 -3.07629 0
M  V30 204 N 24.7143 -3.39401 -3.15217 0
M  V30 205 C 25.4493 -4.27867 -3.81729 0
M  V30 206 N 24.9453 -5.26533 -4.5026 0
M  V30 207 N 26.7383 -4.15672 -3.78382 0
M  V30 208 H 18.8893 -2.05929 -0.520281 0
M  V30 209 H 21.1523 -0.901803 -0.292328 0
M  V30 210 H 20.8583 -3.11554 -1.63178 0
M  V30 211 H 20.7323 -2.15567 -3.09533 0
M  V30 212 H 23.1193 -1.26048 -2.66825 0
M  V30 213 H 23.2003 -2.25523 -1.20718 0
M  V30 214 H 22.8443 -4.34195 -2.63509 0
M  V30 215 H 22.7743 -3.31665 -4.09031 0
M  V30 216 H 25.2653 -2.67997 -2.66432 0
M  V30 217 H 25.5783 -5.90337 -4.98721 0
M  V30 218 H 23.9233 -5.30457 -4.49044 0
M  V30 219 H 27.1143 -3.3785 -3.23998 0
M  V30 220 H 27.2873 -4.84825 -4.2994 0
M  V30 221 N 20.6934 1.19889 -1.02296 0
M  V30 222 C 21.9404 1.8942 -0.715972 0
M  V30 223 C 22.2684 1.79251 0.754944 0
M  V30 224 O 21.5234 1.17526 1.56481 0
M  V30 225 C 21.8224 3.39883 -1.10518 0
M  V30 226 C 21.4884 3.70254 -2.57337 0
M  V30 227 C 20.1504 3.78254 -2.97452 0
M  V30 228 C 22.5024 3.84052 -3.52354 0
M  V30 229 C 19.8304 3.97514 -4.31509 0
M  V30 230 C 22.1824 4.04824 -4.86108 0
M  V30 231 C 20.8464 4.11054 -5.25919 0
M  V30 232 H 20.1164 0.693138 -0.261993 0
M  V30 233 H 22.7634 1.42012 -1.28472 0
M  V30 234 H 21.0684 3.8915 -0.454953 0
M  V30 235 H 22.7654 3.9199 -0.845261 0
M  V30 236 H 19.3554 3.64632 -2.25258 0
M  V30 237 H 23.5394 3.77221 -3.22518 0
M  V30 238 H 18.7954 4.00574 -4.61898 0
M  V30 239 H 22.9694 4.14442 -5.59653 0
M  V30 240 H 20.5964 4.2573 -6.29808 0
M  V30 241 N 22.1715 0.800033 1.35784 0
M  V30 242 C 23.1045 0.151499 2.27697 0
M  V30 243 C 24.0825 -0.678663 1.4776 0
M  V30 244 O 25.2665 -0.647358 1.77035 0
M  V30 245 C 22.3935 -0.790492 3.29346 0
M  V30 246 C 21.4395 -0.0407832 4.26481 0
M  V30 247 S 22.2725 1.29077 5.19711 0
M  V30 248 C 23.4285 0.353055 6.24903 0
M  V30 249 H 23.6615 0.930796 2.82353 0
M  V30 250 H 21.1945 0.594767 1.42485 0
M  V30 251 H 23.1525 -1.3285 3.88409 0
M  V30 252 H 21.8135 -1.54312 2.73581 0
M  V30 253 H 21.0065 -0.755971 4.98298 0
M  V30 254 H 20.6085 0.427063 3.71554 0
M  V30 255 H 22.9005 -0.464147 6.75908 0
M  V30 256 H 23.8435 1.04023 7.00418 0
M  V30 257 H 24.2515 -0.0483344 5.64479 0
M  V30 258 N 23.6496 -1.47581 0.552962 0
M  V30 259 C 24.8956 -2.02782 0.0273648 0
M  V30 260 C 25.2286 -1.42687 -1.31734 0
M  V30 261 O 24.5036 -0.580897 -1.85623 0
M  V30 262 C 24.7866 -3.60031 -0.0702371 0
M  V30 263 C 24.6396 -4.30566 1.30126 0
M  V30 264 C 25.9586 -4.33028 -0.785771 0
M  V30 265 H 23.0776 -0.736912 0.0114185 0
M  V30 266 H 25.7196 -1.76056 0.714432 0
M  V30 267 H 23.8696 -3.82932 -0.655382 0
M  V30 268 H 25.5416 -4.19018 1.92929 0
M  V30 269 H 23.7846 -3.91086 1.87709 0
M  V30 270 H 24.4556 -5.39114 1.18573 0
M  V30 271 H 26.9316 -4.15095 -0.288982 0
M  V30 272 H 25.8076 -5.42695 -0.823013 0
M  V30 273 H 26.0686 -4.01945 -1.841 0
M  V30 274 N 25.1277 -0.289203 -1.54924 0
M  V30 275 C 26.3557 0.326463 -2.04308 0
M  V30 276 C 26.7707 1.48413 -1.16701 0
M  V30 277 O 26.1277 1.81507 -0.190087 0
M  V30 278 C 26.1787 0.794014 -3.52672 0
M  V30 279 O 25.8997 -0.317564 -4.36948 0
M  V30 280 C 27.4007 1.47605 -4.18004 0
M  V30 281 H 24.6207 0.0726272 -0.667058 0
M  V30 282 H 27.1647 -0.425401 -2.00026 0
M  V30 283 H 25.3197 1.49593 -3.57352 0
M  V30 284 H 25.7337 0.0443186 -5.24481 0
M  V30 285 H 27.2077 1.75447 -5.23376 0
M  V30 286 H 27.6847 2.41224 -3.67025 0
M  V30 287 H 28.2907 0.81762 -4.17367 0
M  V30 288 N 26.6058 1.57591 -0.0167156 0
M  V30 289 C 28.0168 1.79201 0.523834 0
M  V30 290 C 28.3678 0.925796 1.72984 0
M  V30 291 O 27.4928 0.132792 2.15992 0
M  V30 292 C 28.0878 3.25 0.957091 0
M  V30 293 C 26.6468 3.47648 1.44283 0
M  V30 294 C 25.7938 2.74374 0.401757 0
M  V30 295 H 28.7448 1.56831 -0.242816 0
M  V30 296 H 28.7658 3.34031 1.82219 0
M  V30 297 H 28.2778 3.88019 0.0791415 0
M  V30 298 H 26.3788 2.89866 2.34113 0
M  V30 299 H 26.4918 4.56352 1.45877 0
M  V30 300 H 24.8558 2.39485 0.867121 0
M  V30 301 H 25.6388 3.40102 -0.467513 0
M  V30 302 N 28.0839 -0.256276 1.55502 0
M  V30 303 C 29.3119 -1.00342 1.8094 0
M  V30 304 C 29.7269 -1.79307 0.59114 0
M  V30 305 O 29.0839 -1.77114 -0.440081 0
M  V30 306 C 29.1349 -1.94875 3.04476 0
M  V30 307 O 28.8559 -1.19107 4.21598 0
M  V30 308 C 30.3569 -2.81266 3.42644 0
M  V30 309 H 27.5769 -0.295685 0.602338 0
M  V30 310 H 30.1209 -0.281998 2.02546 0
M  V30 311 H 28.2759 -2.62457 2.84947 0
M  V30 312 H 28.6899 -1.82969 4.91551 0
M  V30 313 H 30.1639 -3.43362 4.32211 0
M  V30 314 H 30.6409 -3.51897 2.62802 0
M  V30 315 H 31.2469 -2.1915 3.64491 0
M  V30 316 N 29.562 -1.4872 -0.521534 0
M  V30 317 C 30.509 -1.63871 -1.62527 0
M  V30 318 C 31.479 -0.480559 -1.58996 0
M  V30 319 O 32.664 -0.705085 -1.77294 0
M  V30 320 C 29.804 -1.69227 -3.00759 0
M  V30 321 C 28.917 -2.96207 -3.14461 0
M  V30 322 C 28.052 -2.92671 -4.43303 0
M  V30 323 C 27.091 -4.14318 -4.50563 0
M  V30 324 N 26.228 -4.0881 -5.70805 0
M  V30 325 H 31.068 -2.58123 -1.48918 0
M  V30 326 H 28.605 -1.28 -0.724878 0
M  V30 327 H 30.563 -1.70314 -3.80853 0
M  V30 328 H 29.193 -0.784586 -3.1312 0
M  V30 329 H 28.245 -3.04826 -2.27564 0
M  V30 330 H 29.557 -3.86192 -3.15686 0
M  V30 331 H 28.711 -2.92206 -5.31696 0
M  V30 332 H 27.45 -2.00429 -4.44612 0
M  V30 333 H 26.455 -4.15049 -3.60575 0
M  V30 334 H 27.68 -5.07729 -4.50986 0
M  V30 335 H 25.626 -3.19394 -5.72995 0
M  V30 336 H 25.543 -4.92509 -5.7356 0
M  V30 337 H 26.811 -4.12418 -6.61462 0
M  V30 338 N 31.0401 0.771051 -1.3745 0
M  V30 339 C 32.2891 1.52491 -1.3202 0
M  V30 340 C 32.6021 1.9538 0.0927347 0
M  V30 341 O 33.8081 2.70159 0.269503 0
M  V30 342 C 32.2641 2.75366 -2.31736 0
M  V30 343 C 31.8721 2.39573 -3.78562 0
M  V30 344 C 33.6161 3.53307 -2.35318 0
M  V30 345 C 31.5231 3.58954 -4.70007 0
M  V30 346 H 30.4531 0.572506 -0.490666 0
M  V30 347 H 33.1041 0.844474 -1.62914 0
M  V30 348 H 31.4861 3.45303 -1.93861 0
M  V30 349 H 32.6601 1.77415 -4.25277 0
M  V30 350 H 30.9751 1.74805 -3.77932 0
M  V30 351 H 33.5721 4.42039 -3.00842 0
M  V30 352 H 33.9151 3.93217 -1.36698 0
M  V30 353 H 34.4481 2.90367 -2.71904 0
M  V30 354 H 31.1871 3.24125 -5.69757 0
M  V30 355 H 30.7071 4.20214 -4.27996 0
M  V30 356 H 32.3861 4.25758 -4.87175 0
M  V30 357 N 32.5182 1.22032 0.997298 0
M  V30 358 C 33.7952 0.950823 1.70935 0
M  V30 359 C 34.1752 -0.535292 2.042 0
M  V30 360 O 33.5232 -1.50217 1.72183 0
M  V30 361 C 33.7332 1.84386 2.96315 0
M  V30 362 C 35.0812 2.09732 3.69185 0
M  V30 363 O 36.1052 1.81798 3.06314 0
M  V30 364 O 34.9642 2.57018 4.82291 0
M  V30 365 H 32.0582 0.357204 0.745878 0
M  V30 366 H 34.6042 1.32997 1.05404 0
M  V30 367 H 33.3762 2.84928 2.68201 0
M  V30 368 H 32.9992 1.46602 3.69586 0
M  V30 369 N 33.9963 -1.19345 1.0293 0
M  V30 370 C 35.2733 -1.84811 0.640642 0
M  V30 371 C 35.6533 -1.91855 -0.88062 0
M  V30 372 O 35.0013 -1.43587 -1.7775 0
M  V30 373 C 35.2113 -3.23755 1.30321 0
M  V30 374 C 36.5593 -3.99912 1.42673 0
M  V30 375 O 37.5833 -3.33155 1.26041 0
M  V30 376 O 36.4423 -5.19494 1.6967 0
M  V30 377 H 33.5363 -0.796443 0.222726 0
M  V30 378 H 36.0823 -1.26831 1.12748 0
M  V30 379 H 34.8543 -3.13466 2.34211 0
M  V30 380 H 34.4773 -3.89381 0.804261 0
M  V30 381 N 35.4744 -0.807222 -1.35358 0
M  V30 382 C 36.7234 -0.384376 -1.98004 0
M  V30 383 C 37.0364 1.0543 -1.64754 0
M  V30 384 O 38.2424 1.58029 -2.20769 0
M  V30 385 C 36.6984 -0.636326 -3.5423 0
M  V30 386 C 36.3064 -2.08759 -3.96388 0
M  V30 387 C 38.0504 -0.278869 -4.23583 0
M  V30 388 C 35.9574 -2.28525 -5.45463 0
M  V30 389 H 34.8874 -0.139986 -0.740891 0
M  V30 390 H 37.5384 -0.991369 -1.54415 0
M  V30 391 H 35.9204 0.0406256 -3.95979 0
M  V30 392 H 37.0944 -2.8024 -3.6579 0
M  V30 393 H 35.4094 -2.40497 -3.39926 0
M  V30 394 H 38.0064 -0.404599 -5.33167 0
M  V30 395 H 38.3494 0.775012 -4.09022 0
M  V30 396 H 38.8824 -0.909764 -3.87257 0
M  V30 397 H 35.6214 -3.32361 -5.64992 0
M  V30 398 H 35.1414 -1.61569 -5.77629 0
M  V30 399 H 36.8204 -2.10109 -6.11934 0
M  V30 400 N 36.9525 1.47285 -0.560781 0
M  V30 401 C 38.3635 1.86258 -0.128343 0
M  V30 402 C 38.7145 1.46699 1.30284 0
M  V30 403 O 37.8395 0.871698 1.98067 0
M  V30 404 C 38.4345 3.38044 -0.22614 0
M  V30 405 C 36.9935 3.76096 0.151283 0
M  V30 406 C 36.1405 2.71335 -0.572084 0
M  V30 407 H 39.0915 1.38752 -0.770297 0
M  V30 408 H 39.1125 3.76441 0.554322 0
M  V30 409 H 38.6245 3.66806 -1.26788 0
M  V30 410 H 36.7255 3.52951 1.19399 0
M  V30 411 H 36.8385 4.78641 -0.209765 0
M  V30 412 H 35.2025 2.54696 -0.0147653 0
M  V30 413 H 35.9855 3.02938 -1.61504 0
M  V30 414 N 38.4306 0.297415 1.54768 0
M  V30 415 C 39.6786 -0.312295 1.99673 0
M  V30 416 C 39.9996 -1.54686 1.18732 0
M  V30 417 O 39.2696 -1.93854 0.282382 0
M  V30 418 H 37.8496 -0.118381 0.73756 0
M  V30 419 H 40.5116 0.407915 1.90583 0
M  V30 420 H 39.6076 -0.586813 3.06534 0
M  V30 421 N 39.9087 -1.5758 0.0250728 0
M  V30 422 C 40.8387 -2.13007 -0.956575 0
M  V30 423 C 41.8197 -1.0452 -1.342 0
M  V30 424 O 43.0047 -1.32332 -1.42133 0
M  V30 425 C 40.1347 -2.65386 -2.24026 0
M  V30 426 C 39.0887 -3.78623 -1.99571 0
M  V30 427 C 38.4147 -4.17414 -3.3417 0
M  V30 428 C 39.7147 -5.04867 -1.33814 0
M  V30 429 H 41.4087 -2.9528 -0.494991 0
M  V30 430 H 38.9547 -1.42042 -0.236651 0
M  V30 431 H 40.9077 -3.02794 -2.93076 0
M  V30 432 H 39.6317 -1.80268 -2.72343 0
M  V30 433 H 38.2907 -3.41646 -1.32941 0
M  V30 434 H 37.9387 -3.29284 -3.80238 0
M  V30 435 H 37.6387 -4.93719 -3.18615 0
M  V30 436 H 39.1627 -4.57402 -4.04495 0
M  V30 437 H 40.5767 -5.39888 -1.92857 0
M  V30 438 H 38.9737 -5.86144 -1.28669 0
M  V30 439 H 40.0437 -4.83904 -0.310561 0
M  V30 440 N 41.3868 0.248026 -1.55636 0
M  V30 441 C 42.6118 0.998028 -1.81808 0
M  V30 442 C 43.0368 1.78207 -0.601979 0
M  V30 443 O 42.3948 1.75653 0.448961 0
M  V30 444 C 42.4428 1.9125 -3.05705 0
M  V30 445 O 41.5468 3.00406 -2.82542 0
M  V30 446 H 40.8878 0.284045 -0.600179 0
M  V30 447 H 43.4178 0.269357 -2.02819 0
M  V30 448 H 43.4278 2.32737 -3.35108 0
M  V30 449 H 42.1028 1.33602 -3.93857 0
M  V30 450 H 40.6798 2.63056 -2.64303 0
M  V30 451 N 42.8649 1.48995 0.513639 0
M  V30 452 C 44.1419 1.48338 1.27495 0
M  V30 453 C 44.5219 0.204065 2.10111 0
M  V30 454 O 43.8699 -0.813881 2.13514 0
M  V30 455 C 44.0799 2.75498 2.14247 0
M  V30 456 C 45.4279 3.24484 2.73852 0
M  V30 457 O 46.4519 2.76528 2.24523 0
M  V30 458 O 45.3109 4.07974 3.6362 0
M  V30 459 H 42.4049 0.593149 0.576284 0
M  V30 460 H 44.9509 1.61246 0.528948 0
M  V30 461 H 43.7229 3.60109 1.53092 0
M  V30 462 H 43.3459 2.6539 2.96064 0
M  V30 463 N 44.343 -0.763751 1.37857 0
M  V30 464 C 45.571 -1.55293 1.36718 0
M  V30 465 C 45.986 -1.88745 -0.0455434 0
M  V30 466 O 45.343 -1.52039 -1.00947 0
M  V30 467 C 45.394 -2.85831 2.2132 0
M  V30 468 O 45.115 -2.5381 3.57089 0
M  V30 469 C 46.616 -3.80023 2.28249 0
M  V30 470 H 43.836 -0.480841 0.468009 0
M  V30 471 H 46.38 -0.946009 1.81303 0
M  V30 472 H 44.535 -3.42926 1.80223 0
M  V30 473 H 44.949 -3.37459 4.01524 0
M  V30 474 H 46.423 -4.68599 2.91752 0
M  V30 475 H 46.9 -4.1973 1.2932 0
M  V30 476 H 47.506 -3.28855 2.69693 0
M  V30 477 N 45.8211 -1.22559 -0.990812 0
M  V30 478 C 47.0461 -1.07862 -1.77145 0
M  V30 479 C 47.4711 0.366447 -1.84496 0
M  V30 480 O 46.8291 1.26478 -1.29896 0
M  V30 481 C 46.8771 -1.69686 -3.18181 0
M  V30 482 O 45.9811 -0.951946 -4.01263 0
M  V30 483 H 45.3221 -0.378712 -0.545411 0
M  V30 484 H 47.8521 -1.62399 -1.2445 0
M  V30 485 H 47.8621 -1.74496 -3.68802 0
M  V30 486 H 46.5371 -2.74841 -3.12146 0
M  V30 487 H 45.1141 -0.980011 -3.59792 0
M  V30 488 N 47.2992 1.18797 -1.03562 0
M  V30 489 C 48.7102 1.70322 -0.764676 0
M  V30 490 C 49.0612 1.82708 0.714996 0
M  V30 491 O 48.1862 1.50299 1.55689 0
M  V30 492 C 48.7812 3.09356 -1.38145 0
M  V30 493 C 47.3402 3.58114 -1.15895 0
M  V30 494 C 46.4872 2.34798 -1.4753 0
M  V30 495 H 49.4382 1.03543 -1.20268 0
M  V30 496 H 49.4592 3.72378 -0.781977 0
M  V30 497 H 48.9712 3.00309 -2.45837 0
M  V30 498 H 47.0722 3.72464 -0.100544 0
M  V30 499 H 47.1852 4.4184 -1.8524 0
M  V30 500 H 45.5492 2.38464 -0.894829 0
M  V30 501 H 46.3322 2.28375 -2.56319 0
M  V30 502 N 48.7773 0.814389 1.34928 0
M  V30 503 C 50.0543 0.321363 1.92942 0
M  V30 504 C 50.4343 -1.19014 1.74353 0
M  V30 505 O 49.7823 -1.99328 1.11716 0
M  V30 506 C 49.9923 0.741323 3.41036 0
M  V30 507 C 51.3403 0.735266 4.18185 0
M  V30 508 O 52.3643 0.68336 3.49584 0
M  V30 509 O 51.2233 0.800703 5.40602 0
M  V30 510 H 48.3173 0.0858893 0.822528 0
M  V30 511 H 50.8633 0.898609 1.43955 0
M  V30 512 H 49.6353 1.78276 3.4833 0
M  V30 513 H 49.2583 0.139307 3.97356 0
M  V30 514 N 50.2554 -1.46986 0.568584 0
M  V30 515 C 51.1854 -2.32946 -0.160753 0
M  V30 516 C 52.1664 -1.44487 -0.897631 0
M  V30 517 O 53.3514 -1.73327 -0.875867 0
M  V30 518 C 50.4814 -3.26494 -1.18403 0
M  V30 519 C 49.4354 -4.24282 -0.562895 0
M  V30 520 C 48.7614 -5.07236 -1.69163 0
M  V30 521 C 50.0614 -5.19989 0.490761 0
M  V30 522 H 51.7554 -2.94175 0.556916 0
M  V30 523 H 49.3014 -1.4146 0.26927 0
M  V30 524 H 51.2544 -3.85477 -1.70251 0
M  V30 525 H 49.9784 -2.63343 -1.93179 0
M  V30 526 H 48.6374 -3.66541 -0.0656164 0
M  V30 527 H 48.2854 -4.4048 -2.42871 0
M  V30 528 H 47.9854 -5.7345 -1.28174 0
M  V30 529 H 49.5094 -5.6908 -2.21314 0
M  V30 530 H 50.9234 -5.73271 0.0579047 0
M  V30 531 H 49.3204 -5.94469 0.820165 0
M  V30 532 H 50.3904 -4.64777 1.3824 0
M  V30 533 N 51.7335 -0.305618 -1.54608 0
M  V30 534 C 52.9585 0.307562 -2.05107 0
M  V30 535 C 53.3835 1.46385 -1.18123 0
M  V30 536 O 52.7415 1.8034 -0.186324 0
M  V30 537 C 52.7895 0.73704 -3.52987 0
M  V30 538 O 51.8935 1.84134 -3.6901 0
M  V30 539 H 51.2345 0.0589143 -0.661381 0
M  V30 540 H 53.7645 -0.448807 -1.99617 0
M  V30 541 H 53.7745 1.02459 -3.94925 0
M  V30 542 H 52.4495 -0.108773 -4.15758 0
M  V30 543 H 51.0265 1.55398 -3.38978 0
M  V30 544 N 53.2116 1.57565 -0.0334293 0
M  V30 545 C 54.4366 1.96689 0.657895 0
M  V30 546 C 54.8616 0.910057 1.64619 0
M  V30 547 O 54.2196 -0.128598 1.80843 0
M  V30 548 C 54.2676 3.34905 1.33683 0
M  V30 549 O 53.3716 3.31574 2.45219 0
M  V30 550 H 52.7126 0.641205 0.172489 0
M  V30 551 H 55.2426 2.04372 -0.0965621 0
M  V30 552 H 55.2526 3.71234 1.69262 0
M  V30 553 H 53.9276 4.11366 0.612411 0
M  V30 554 H 52.5046 3.06968 2.11719 0
M  V30 555 N 54.6897 -0.239769 1.55765 0
M  V30 556 C 56.1057 -0.588624 1.48349 0
M  V30 557 C 56.3057 -1.88005 0.72502 0
M  V30 558 O 55.3617 -2.51186 0.257269 0
M  V30 559 C 56.6747 -0.68474 2.928 0
M  V30 560 C 58.2227 -0.77659 3.03213 0
M  V30 561 C 58.6977 -0.904207 4.48986 0
M  V30 562 N 60.1887 -0.968896 4.52953 0
M  V30 563 C 60.9237 -1.08703 5.63002 0
M  V30 564 N 60.4197 -1.17026 6.82845 0
M  V30 565 N 62.2127 -1.12074 5.50814 0
M  V30 566 H 54.3637 0.607911 2.03515 0
M  V30 567 H 56.6267 0.21083 0.924259 0
M  V30 568 H 56.3327 0.194284 3.51163 0
M  V30 569 H 56.2067 -1.55435 3.43686 0
M  V30 570 H 58.5937 -1.64606 2.44926 0
M  V30 571 H 58.6747 0.118315 2.55526 0
M  V30 572 H 58.3187 -0.0392633 5.07885 0
M  V30 573 H 58.2487 -1.81426 4.9436 0
M  V30 574 H 60.7397 -0.915633 3.6664 0
M  V30 575 H 61.0527 -1.25966 7.62465 0
M  V30 576 H 59.3977 -1.13971 6.85591 0
M  V30 577 H 62.5887 -1.05226 4.5612 0
M  V30 578 H 62.7617 -1.20936 6.36615 0
M  V30 579 N 56.1678 -1.49265 -0.50573 0
M  V30 580 C 57.3928 -1.62478 -1.28902 0
M  V30 581 C 57.8178 -0.294332 -1.85783 0
M  V30 582 O 57.1758 0.737412 -1.65626 0
M  V30 583 C 57.2238 -2.69268 -2.39848 0
M  V30 584 O 56.3278 -2.28113 -3.43567 0
M  V30 585 H 55.6688 -0.54399 -0.380751 0
M  V30 586 H 58.1988 -1.95421 -0.605952 0
M  V30 587 H 58.2088 -2.91291 -2.85681 0
M  V30 588 H 56.8838 -3.65846 -1.97812 0
M  V30 589 H 55.4608 -2.16401 -3.03685 0
M  V30 590 N 57.6459 0.756429 -1.3826 0
M  V30 591 C 58.8709 1.55077 -1.37717 0
M  V30 592 C 59.2959 1.88073 0.03164 0
M  V30 593 O 58.6539 1.50364 1.01293 0
M  V30 594 C 58.7019 2.8283 -2.23695 0
M  V30 595 O 57.8059 3.77862 -1.6521 0
M  V30 596 H 57.1469 0.469152 -0.469885 0
M  V30 597 H 59.6769 0.935019 -1.81985 0
M  V30 598 H 59.6869 3.31783 -2.37453 0
M  V30 599 H 58.3619 2.58144 -3.2609 0
M  V30 600 H 56.9389 3.36555 -1.60578 0
M  V30 601 N 59.124 1.23083 0.984299 0
M  V30 602 C 60.349 1.088 1.76571 0
M  V30 603 C 60.774 -0.356657 1.84688 0
M  V30 604 O 60.132 -1.25788 1.30565 0
M  V30 605 C 60.18 1.71371 3.17277 0
M  V30 606 O 59.284 0.973213 4.00752 0
M  V30 607 H 58.625 0.381599 0.543395 0
M  V30 608 H 61.155 1.63057 1.23587 0
M  V30 609 H 61.165 1.76449 3.67872 0
M  V30 610 H 59.84 2.76493 3.10684 0
M  V30 611 H 58.417 0.999078 3.59267 0
M  V30 612 N 60.6021 -1.18246 1.0419 0
M  V30 613 C 62.0181 -1.40269 0.761366 0
M  V30 614 C 62.2181 -1.90777 -0.648578 0
M  V30 615 O 61.2741 -2.0929 -1.41258 0
M  V30 616 C 62.5871 -2.40237 1.8085 0
M  V30 617 C 64.1351 -2.53961 1.82955 0
M  V30 618 C 64.6101 -3.57194 2.86664 0
M  V30 619 N 66.1011 -3.64702 2.85563 0
M  V30 620 C 66.8361 -4.44309 3.6246 0
M  V30 621 N 66.3321 -5.27514 4.49111 0
M  V30 622 N 68.1251 -4.39084 3.50944 0
M  V30 623 H 60.2761 -0.837882 1.95175 0
M  V30 624 H 62.5391 -0.430608 0.84456 0
M  V30 625 H 62.2451 -2.10176 2.81991 0
M  V30 626 H 62.1191 -3.39601 1.64168 0
M  V30 627 H 64.5061 -2.83338 0.824855 0
M  V30 628 H 64.5871 -1.54706 2.03715 0
M  V30 629 H 64.2311 -3.28558 3.87314 0
M  V30 630 H 64.1611 -4.5613 2.6316 0
M  V30 631 H 66.6521 -3.05289 2.22727 0
M  V30 632 H 66.9651 -5.85411 5.04493 0
M  V30 633 H 65.3101 -5.2693 4.53178 0
M  V30 634 H 68.5011 -3.7313 2.82651 0
M  V30 635 H 68.6741 -5.00883 4.11121 0
M  V30 636 N 62.0802 -0.821533 -1.34494 0
M  V30 637 C 63.3262 -0.409552 -1.98622 0
M  V30 638 C 63.6592 1.0244 -1.64984 0
M  V30 639 O 62.9342 1.71325 -0.920758 0
M  V30 640 C 63.2172 -0.610458 -3.54888 0
M  V30 641 C 63.0702 -2.09043 -3.98273 0
M  V30 642 C 64.3892 -0.0455379 -4.40076 0
M  V30 643 H 61.5082 -0.15028 -0.721516 0
M  V30 644 H 64.1502 -1.03384 -1.59411 0
M  V30 645 H 62.3002 -0.079044 -3.8842 0
M  V30 646 H 63.9722 -2.68537 -3.75081 0
M  V30 647 H 62.2152 -2.58139 -3.48635 0
M  V30 648 H 62.8862 -2.18182 -5.07051 0
M  V30 649 H 65.3622 -0.499557 -4.1309 0
M  V30 650 H 64.2382 -0.215922 -5.48475 0
M  V30 651 H 64.4992 1.04939 -4.29465 0
M  V30 652 N 63.5583 1.46682 -0.576371 0
M  V30 653 C 64.9743 1.57822 -0.237562 0
M  V30 654 C 65.1743 1.57237 1.26011 0
M  V30 655 O 64.2303 1.48596 2.04146 0
M  V30 656 C 65.5433 2.87499 -0.881168 0
M  V30 657 C 67.0913 3.01119 -0.85417 0
M  V30 658 C 67.5663 4.33524 -1.4772 0
M  V30 659 N 69.0573 4.40207 -1.44125 0
M  V30 660 C 69.7923 5.4126 -1.89276 0
M  V30 661 N 69.2883 6.49021 -2.42371 0
M  V30 662 N 71.0813 5.32422 -1.80231 0
M  V30 663 H 63.2323 1.45306 -1.54919 0
M  V30 664 H 65.4953 0.692733 -0.647167 0
M  V30 665 H 65.2013 2.9372 -1.93447 0
M  V30 666 H 65.0753 3.75224 -0.385592 0
M  V30 667 H 67.4623 2.94485 0.190491 0
M  V30 668 H 67.5433 2.14887 -1.3877 0
M  V30 669 H 67.1873 4.40916 -2.52103 0
M  V30 670 H 67.1173 5.1852 -0.918947 0
M  V30 671 H 69.6083 3.62931 -1.05307 0
M  V30 672 H 69.9213 7.2233 -2.74698 0
M  V30 673 H 68.2663 6.49858 -2.46393 0
M  V30 674 H 71.4573 4.47137 -1.38514 0
M  V30 675 H 71.6303 6.11034 -2.15735 0
M  V30 676 N 65.0364 0.313813 1.54444 0
M  V30 677 C 66.2834 -0.291675 2.00388 0
M  V30 678 C 66.6114 -1.52904 1.2021 0
M  V30 679 O 65.8664 -1.93833 0.269707 0
M  V30 680 C 66.1654 -0.680386 3.50864 0
M  V30 681 C 65.8314 0.456699 4.48581 0
M  V30 682 C 64.4934 0.768824 4.75018 0
M  V30 683 C 66.8454 1.22098 5.06697 0
M  V30 684 C 64.1734 1.84812 5.56831 0
M  V30 685 C 66.5254 2.29029 5.89685 0
M  V30 686 C 65.1894 2.60834 6.14428 0
M  V30 687 H 64.4594 -0.106732 0.733273 0
M  V30 688 H 67.1064 0.43557 1.86481 0
M  V30 689 H 65.4114 -1.48791 3.62448 0
M  V30 690 H 67.1084 -1.16026 3.83847 0
M  V30 691 H 63.6984 0.203337 4.28117 0
M  V30 692 H 67.8824 0.993096 4.86263 0
M  V30 693 H 63.1384 2.09912 5.74236 0
M  V30 694 H 67.3124 2.887 6.33739 0
M  V30 695 H 64.9394 3.44596 6.77612 0
M  V30 696 N 66.5145 -1.57545 0.0417849 0
M  V30 697 C 67.7395 -1.97035 -0.647455 0
M  V30 698 C 68.1645 -0.918775 -1.64135 0
M  V30 699 O 67.5225 0.119006 -1.80909 0
M  V30 700 C 67.5705 -3.35609 -1.31905 0
M  V30 701 O 66.6745 -3.3287 -2.43457 0
M  V30 702 H 66.0155 -0.64211 -0.169086 0
M  V30 703 H 68.5455 -2.04318 0.107399 0
M  V30 704 H 68.5555 -3.72126 -1.67291 0
M  V30 705 H 67.2305 -4.11685 -0.590586 0
M  V30 706 H 65.8075 -3.08087 -2.10088 0
M  V30 707 N 67.9926 0.231505 -1.5589 0
M  V30 708 C 69.2176 0.978689 -1.82856 0
M  V30 709 C 69.6426 1.77559 -0.620846 0
M  V30 710 O 69.0006 1.76119 0.430305 0
M  V30 711 C 69.0486 1.87997 -3.07716 0
M  V30 712 O 68.1526 2.97393 -2.85712 0
M  V30 713 H 67.4936 0.277663 -0.603158 0
M  V30 714 H 70.0236 0.24783 -2.03093 0
M  V30 715 H 70.0336 2.2917 -3.37558 0
M  V30 716 H 68.7086 1.29417 -3.95252 0
M  V30 717 H 67.2856 2.60238 -2.67078 0
M  V30 718 N 69.4707 1.49531 0.497807 0
M  V30 719 C 70.8867 1.36365 0.829266 0
M  V30 720 C 71.0867 0.399184 1.97506 0
M  V30 721 O 70.1427 -0.167977 2.51941 0
M  V30 722 C 71.4557 2.77153 1.16647 0
M  V30 723 C 73.0037 2.85877 1.27449 0
M  V30 724 C 73.4787 4.2744 1.64497 0
M  V30 725 N 74.9697 4.30265 1.7154 0
M  V30 726 C 75.7047 5.3677 2.01656 0
M  V30 727 N 75.2007 6.53516 2.29976 0
M  V30 728 N 76.9937 5.24189 2.02934 0
M  V30 729 H 69.1447 2.10831 -0.257703 0
M  V30 730 H 71.4077 0.946534 -0.0527091 0
M  V30 731 H 71.1137 3.49442 0.397872 0
M  V30 732 H 70.9877 3.12722 2.10915 0
M  V30 733 H 73.3747 2.13824 2.0338 0
M  V30 734 H 73.4557 2.53887 0.312244 0
M  V30 735 H 73.0997 5.00021 0.891151 0
M  V30 736 H 73.0297 4.56896 2.61827 0
M  V30 737 H 75.5207 3.4607 1.51802 0
M  V30 738 H 75.8337 7.30506 2.52153 0
M  V30 739 H 74.1787 6.56737 2.27425 0
M  V30 740 H 77.3697 4.31988 1.80289 0
M  V30 741 H 77.5427 6.07286 2.26071 0
M  V30 742 N 70.9488 -0.749086 1.3866 0
M  V30 743 C 71.8588 -1.89358 1.38494 0
M  V30 744 C 72.8748 -1.71708 0.281476 0
M  V30 745 O 74.0508 -1.94554 0.520643 0
M  V30 746 C 71.1158 -3.24782 1.21316 0
M  V30 747 C 70.1768 -3.54926 2.41508 0
M  V30 748 C 69.4098 -4.83888 2.2514 0
M  V30 749 O 69.6328 -5.56592 1.24746 0
M  V30 750 O 68.5668 -5.13612 3.13826 0
M  V30 751 H 72.3928 -1.92452 2.34938 0
M  V30 752 H 69.9778 -0.894981 1.19626 0
M  V30 753 H 71.8598 -4.05739 1.13814 0
M  V30 754 H 70.5348 -3.2249 0.279592 0
M  V30 755 H 69.4418 -2.74112 2.54585 0
M  V30 756 H 70.7748 -3.61983 3.3351 0
M  V30 757 N 72.4269 -1.23603 -0.977757 0
M  V30 758 C 73.6519 -1.09735 -1.75991 0
M  V30 759 C 74.0769 0.346858 -1.84874 0
M  V30 760 O 73.4349 1.25093 -1.3123 0
M  V30 761 C 73.4829 -1.73051 -3.16363 0
M  V30 762 O 72.5869 -0.994452 -4.0023 0
M  V30 763 H 71.9279 -0.384476 -0.541364 0
M  V30 764 H 74.4579 -1.6371 -1.2272 0
M  V30 765 H 74.4679 -1.78398 -3.66931 0
M  V30 766 H 73.1429 -2.78137 -3.09213 0
M  V30 767 H 71.7199 -1.01812 -3.58732 0
M  V30 768 N 73.905 1.17692 -1.04816 0
M  V30 769 C 75.151 1.88137 -0.75711 0
M  V30 770 C 75.484 1.80604 0.713841 0
M  V30 771 O 74.759 1.21146 1.52164 0
M  V30 772 C 75.042 3.38318 -1.2334 0
M  V30 773 C 74.895 3.54622 -2.76701 0
M  V30 774 C 76.214 4.32214 -0.829415 0
M  V30 775 H 73.333 0.683163 -0.27651 0
M  V30 776 H 75.975 1.38424 -1.30149 0
M  V30 777 H 74.125 3.80787 -0.770286 0
M  V30 778 H 75.797 3.21194 -3.31107 0
M  V30 779 H 74.04 2.97026 -3.16161 0
M  V30 780 H 74.711 4.60028 -3.05088 0
M  V30 781 H 77.187 3.97565 -1.22805 0
M  V30 782 H 76.063 5.35838 -1.19033 0
M  V30 783 H 76.324 4.41294 0.266891 0
M  V30 784 N 75.3831 0.828654 1.34056 0
M  V30 785 C 76.7941 0.477534 1.8049 0
M  V30 786 C 77.1451 -1.00258 1.6865 0
M  V30 787 O 76.2701 -1.78057 1.22982 0
M  V30 788 C 76.8651 0.860018 3.27703 0
M  V30 789 C 75.4241 0.561185 3.72193 0
M  V30 790 C 74.5711 1.07385 2.55663 0
M  V30 791 H 77.5221 1.0183 1.21722 0
M  V30 792 H 77.5431 0.166038 3.80138 0
M  V30 793 H 77.0551 1.93731 3.36288 0
M  V30 794 H 75.1561 -0.506465 3.69142 0
M  V30 795 H 75.2691 1.10926 4.66082 0
M  V30 796 H 73.6331 0.495149 2.49841 0
M  V30 797 H 74.4161 2.15771 2.67016 0
M  V30 798 N 76.8612 -1.46375 0.584142 0
M  V30 799 C 77.7712 -2.34115 -0.150728 0
M  V30 800 C 78.7872 -1.49838 -0.884567 0
M  V30 801 O 79.9632 -1.82704 -0.847429 0
M  V30 802 C 77.0282 -3.2705 -1.15062 0
M  V30 803 C 76.0892 -4.27228 -0.421293 0
M  V30 804 C 75.3222 -5.15722 -1.37355 0
M  V30 805 O 75.5452 -5.07176 -2.61014 0
M  V30 806 O 74.4792 -5.95383 -0.883355 0
M  V30 807 H 78.3052 -2.98309 0.569708 0
M  V30 808 H 75.8902 -1.45373 0.344535 0
M  V30 809 H 77.7722 -3.84381 -1.72712 0
M  V30 810 H 76.4472 -2.65451 -1.8525 0
M  V30 811 H 75.3542 -3.7358 0.197085 0
M  V30 812 H 76.6872 -4.91616 0.239641 0
M  V30 813 N 78.3393 -0.321999 -1.54275 0
M  V30 814 C 79.5673 0.283052 -2.04955 0
M  V30 815 C 79.9823 1.45904 -1.19823 0
M  V30 816 O 79.3393 1.81063 -0.228545 0
M  V30 817 C 79.3903 0.719028 -3.54277 0
M  V30 818 O 79.1113 -0.410175 -4.36176 0
M  V30 819 C 80.6123 1.38705 -4.21041 0
M  V30 820 H 77.8323 0.0584616 -0.668448 0
M  V30 821 H 80.3763 -0.467734 -1.99079 0
M  V30 822 H 78.5313 1.41979 -3.60445 0
M  V30 823 H 78.9453 -0.0669416 -5.24457 0
M  V30 824 H 80.4193 1.64306 -5.2698 0
M  V30 825 H 80.8963 2.33385 -3.72059 0
M  V30 826 H 81.5023 0.728906 -4.19007 0
M  V30 827 N 79.8174 1.5752 -0.0501392 0
M  V30 828 C 81.0424 1.97376 0.636997 0
M  V30 829 C 81.4674 0.927466 1.63645 0
M  V30 830 O 80.8254 -0.10941 1.8097 0
M  V30 831 C 80.8734 3.36304 1.30123 0
M  V30 832 O 79.9774 3.34156 2.41689 0
M  V30 833 H 79.3184 0.642998 0.165679 0
M  V30 834 H 81.8484 2.04258 -0.118233 0
M  V30 835 H 81.8584 3.73008 1.65315 0
M  V30 836 H 80.5334 4.11993 0.568746 0
M  V30 837 H 79.1104 3.09196 2.08451 0
M  V30 838 N 81.2955 -0.223234 1.56011 0
M  V30 839 C 82.7115 -0.572856 1.48965 0
M  V30 840 C 82.9115 -1.87225 0.74492 0
M  V30 841 O 81.9675 -2.50899 0.283896 0
M  V30 842 C 83.2805 -0.653646 2.9351 0
M  V30 843 C 84.8285 -0.744386 3.0402 0
M  V30 844 C 85.3035 -0.856535 4.49919 0
M  V30 845 N 86.7945 -0.9208 4.53955 0
M  V30 846 C 87.5295 -1.02726 5.64123 0
M  V30 847 N 87.0255 -1.09777 6.84047 0
M  V30 848 N 88.8185 -1.06226 5.51971 0
M  V30 849 H 80.9695 0.629462 2.02858 0
M  V30 850 H 83.2325 0.220621 0.921971 0
M  V30 851 H 82.9385 0.231518 3.50937 0
M  V30 852 H 82.8125 -1.51781 3.45315 0
M  V30 853 H 85.1995 -1.61999 2.46658 0
M  V30 854 H 85.2805 0.14541 2.55386 0
M  V30 855 H 84.9245 0.0146069 5.07898 0
M  V30 856 H 84.8545 -1.76172 4.96257 0
M  V30 857 H 87.3455 -0.876694 3.6759 0
M  V30 858 H 87.6585 -1.17872 7.63758 0
M  V30 859 H 86.0035 -1.06693 6.86762 0
M  V30 860 H 89.1945 -1.00382 4.5721 0
M  V30 861 H 89.3675 -1.14177 6.37862 0
M  V30 862 N 82.7736 -1.49793 -0.48987 0
M  V30 863 C 83.9986 -1.63836 -1.27172 0
M  V30 864 C 84.4236 -0.31402 -1.8546 0
M  V30 865 O 83.7816 0.719803 -1.66399 0
M  V30 866 C 83.8296 -2.71797 -2.36978 0
M  V30 867 O 82.9336 -2.31744 -3.41128 0
M  V30 868 H 82.2746 -0.547997 -0.37496 0
M  V30 869 H 84.8046 -1.96053 -0.585191 0
M  V30 870 H 84.8146 -2.94305 -2.82575 0
M  V30 871 H 83.4896 -3.67923 -1.93921 0
M  V30 872 H 82.0666 -2.1961 -3.01373 0
M  V30 873 N 84.2517 0.741722 -1.39055 0
M  V30 874 C 85.1617 1.88621 -1.39496 0
M  V30 875 C 86.1777 1.71557 -0.290578 0
M  V30 876 O 87.3537 1.94275 -0.530954 0
M  V30 877 C 84.4187 3.24134 -1.23037 0
M  V30 878 C 83.4797 3.5364 -2.43387 0
M  V30 879 C 82.7127 4.82687 -2.27703 0
M  V30 880 O 82.9357 5.55922 -1.27696 0
M  V30 881 O 81.8697 5.1194 -3.16545 0
M  V30 882 H 85.6957 1.91203 -2.35956 0
M  V30 883 H 83.2807 0.888625 -1.20099 0
M  V30 884 H 85.1627 4.0513 -1.15964 0
M  V30 885 H 83.8377 3.22337 -0.296691 0
M  V30 886 H 82.7447 2.72758 -2.56035 0
M  V30 887 H 84.0777 3.60209 -3.35425 0
M  V30 888 N 85.7298 1.2412 0.971189 0
M  V30 889 C 87.1408 1.07236 1.52831 0
M  V30 890 C 87.4918 -0.357352 1.92918 0
M  V30 891 O 86.6168 -1.24528 1.76979 0
M  V30 892 C 87.2118 1.94043 2.77728 0
M  V30 893 C 85.7708 1.81394 3.29808 0
M  V30 894 C 84.9178 1.89189 2.02738 0
M  V30 895 H 87.8688 1.37648 0.789864 0
M  V30 896 H 87.8898 1.47066 3.5093 0
M  V30 897 H 87.4018 2.98093 2.4852 0
M  V30 898 H 85.5028 0.801634 3.63874 0
M  V30 899 H 85.6158 2.65294 3.98944 0
M  V30 900 H 83.9798 1.32877 2.17292 0
M  V30 901 H 84.7628 2.94812 1.759 0
M  V30 902 N 87.2079 -1.17134 1.05439 0
M  V30 903 C 88.1409 -2.2012 0.601855 0
M  V30 904 C 89.1189 -1.58314 -0.370854 0
M  V30 905 O 90.3029 -1.8638 -0.281882 0
M  V30 906 C 87.4299 -3.38491 -0.118868 0
M  V30 907 C 86.4759 -4.18752 0.809242 0
M  V30 908 S 87.3089 -4.83602 2.29977 0
M  V30 909 C 88.4649 -6.0536 1.59029 0
M  V30 910 H 88.6979 -2.58165 1.47438 0
M  V30 911 H 86.2309 -1.27788 0.866573 0
M  V30 912 H 88.1889 -4.07084 -0.528495 0
M  V30 913 H 86.8499 -2.98829 -0.967465 0
M  V30 914 H 86.0429 -5.03373 0.251379 0
M  V30 915 H 85.6449 -3.5561 1.15835 0
M  V30 916 H 87.9369 -6.71615 0.891017 0
M  V30 917 H 88.8799 -6.65679 2.41407 0
M  V30 918 H 89.2879 -5.54138 1.07663 0
M  V30 919 N 88.686 -0.835752 -1.33615 0
M  V30 920 C 89.911 -0.442389 -2.02627 0
M  V30 921 C 90.336 0.947735 -1.62479 0
M  V30 922 O 89.694 1.61907 -0.815826 0
M  V30 923 C 89.742 -0.567216 -3.56111 0
M  V30 924 O 88.846 0.407799 -4.10379 0
M  V30 925 H 88.187 -0.180278 -0.639059 0
M  V30 926 H 90.717 -1.12972 -1.70583 0
M  V30 927 H 90.727 -0.447708 -4.05536 0
M  V30 928 H 89.402 -1.58103 -3.84677 0
M  V30 929 H 87.979 0.246107 -3.72087 0
M  V30 930 N 90.1641 1.46063 -0.591896 0
M  V30 931 C 91.0741 2.34192 0.13831 0
M  V30 932 C 92.0901 1.50305 0.876608 0
M  V30 933 O 93.2661 1.8315 0.837728 0
M  V30 934 C 90.3311 3.27656 1.13326 0
M  V30 935 C 89.3921 4.27445 0.39863 0
M  V30 936 C 88.6251 5.16443 1.34618 0
M  V30 937 O 88.8481 5.08553 2.58321 0
M  V30 938 O 87.7821 5.95843 0.851768 0
M  V30 939 H 91.6081 2.98002 -0.58552 0
M  V30 940 H 89.1931 1.45188 -0.352239 0
M  V30 941 H 91.0751 3.85291 1.70671 0
M  V30 942 H 89.7501 2.6643 1.83839 0
M  V30 943 H 88.6571 3.73471 -0.216895 0
M  V30 944 H 89.9901 4.91482 -0.265709 0
M  V30 945 N 91.6422 0.330177 1.54103 0
M  V30 946 C 92.5752 -0.575477 2.20825 0
M  V30 947 C 93.5532 -1.11064 1.18758 0
M  V30 948 O 94.7372 -1.17341 1.47524 0
M  V30 949 C 91.8642 -1.79032 2.87516 0
M  V30 950 C 90.9102 -1.38581 4.03358 0
M  V30 951 S 91.7432 -0.416911 5.33875 0
M  V30 952 C 92.8992 -1.63889 6.04062 0
M  V30 953 H 93.1322 -0.00872114 2.97299 0
M  V30 954 H 90.6652 0.114254 1.53977 0
M  V30 955 H 92.6232 -2.48734 3.2656 0
M  V30 956 H 91.2842 -2.32827 2.10832 0
M  V30 957 H 90.4772 -2.29123 4.48908 0
M  V30 958 H 90.0792 -0.768419 3.66021 0
M  V30 959 H 92.3712 -2.57536 6.26643 0
M  V30 960 H 93.3142 -1.22542 6.97416 0
M  V30 961 H 93.7222 -1.82887 5.34053 0
M  V30 962 N 93.1203 -1.57491 0.0584922 0
M  V30 963 C 94.3453 -1.97711 -0.62652 0
M  V30 964 C 94.7703 -0.936132 -1.63151 0
M  V30 965 O 94.1283 0.099811 -1.81025 0
M  V30 966 C 94.1763 -3.36989 -1.28338 0
M  V30 967 O 93.2803 -3.35433 -2.39913 0
M  V30 968 H 92.6213 -0.643868 -0.162266 0
M  V30 969 H 95.1513 -2.04193 0.129064 0
M  V30 970 H 95.1613 -3.73879 -1.63335 0
M  V30 971 H 93.8363 -4.12289 -0.546889 0
M  V30 972 H 92.4133 -3.10298 -2.06809 0
M  V30 973 N 94.5984 0.214957 -1.56127 0
M  V30 974 C 95.8464 0.936518 -1.79091 0
M  V30 975 C 96.1674 1.84606 -0.628148 0
M  V30 976 O 95.4374 1.92664 0.35462 0
M  V30 977 H 94.0174 0.3488 -0.660566 0
M  V30 978 H 96.6794 0.22523 -1.93594 0
M  V30 979 H 95.7754 1.53943 -2.71492 0
M  V30 980 N 96.0765 1.50051 0.48192 0
M  V30 981 C 97.0395 1.67584 1.5636 0
M  V30 982 C 98.0395 0.546894 1.51214 0
M  V30 983 O 99.2295 0.813725 1.54026 0
M  V30 984 C 96.3615 1.691 2.96003 0
M  V30 985 H 97.5545 2.64078 1.42136 0
M  V30 986 H 95.1075 1.39369 0.707533 0
M  V30 987 H 95.8425 0.742589 3.15684 0
M  V30 988 H 95.6275 2.51105 3.01146 0
M  V30 989 H 97.1175 1.84656 3.74556 0
M  V30 990 N 97.5546 -0.734337 1.39446 0
M  V30 991 C 98.7826 -1.52358 1.39981 0
M  V30 992 C 99.1976 -1.88799 -0.0054975 0
M  V30 993 O 98.5546 -1.54146 -0.976998 0
M  V30 994 C 98.6056 -2.81072 2.27333 0
M  V30 995 O 98.3266 -2.46178 3.62392 0
M  V30 996 C 99.8276 -3.75096 2.36259 0
M  V30 997 H 97.0476 -0.470806 0.478103 0
M  V30 998 H 99.5916 -0.907339 1.83269 0
M  V30 999 H 97.7466 -3.39026 1.87457 0
M  V30 1000 H 98.1606 -3.28866 4.08592 0
M  V30 1001 H 99.6346 -4.62305 3.01626 0
M  V30 1002 H 100.112 -4.16892 1.38194 0
M  V30 1003 H 100.718 -3.23061 2.76608 0
M  V30 1004 N 99.0327 -1.24633 -0.964593 0
M  V30 1005 C 100.261 -1.11501 -1.74285 0
M  V30 1006 C 100.676 0.332165 -1.85855 0
M  V30 1007 O 100.033 1.22903 -1.34911 0
M  V30 1008 C 100.084 -1.75258 -3.16175 0
M  V30 1009 O 99.8047 -3.14318 -3.05182 0
M  V30 1010 C 101.306 -1.67776 -4.10324 0
M  V30 1011 H 98.5257 -0.389407 -0.546446 0
M  V30 1012 H 101.07 -1.64801 -1.21083 0
M  V30 1013 H 99.2247 -1.25954 -3.66353 0
M  V30 1014 H 99.6387 -3.4551 -3.94618 0
M  V30 1015 H 101.113 -2.17064 -5.0753 0
M  V30 1016 H 101.59 -0.639584 -4.34518 0
M  V30 1017 H 102.196 -2.16522 -3.66058 0
M  V30 1018 N 100.511 1.16574 -1.06058 0
M  V30 1019 C 101.736 1.91493 -0.796562 0
M  V30 1020 C 102.161 1.76773 0.642868 0
M  V30 1021 O 101.519 1.09142 1.44768 0
M  V30 1022 C 101.567 3.40293 -1.19303 0
M  V30 1023 O 100.671 4.11074 -0.330394 0
M  V30 1024 H 100.012 0.596678 -0.291326 0
M  V30 1025 H 102.542 1.47708 -1.41575 0
M  V30 1026 H 102.552 3.91057 -1.16356 0
M  V30 1027 H 101.227 3.50326 -2.24153 0
M  V30 1028 H 99.8038 3.70513 -0.421225 0
M  V30 1029 N 101.989 0.842826 1.3317 0
M  V30 1030 C 102.919 0.294028 2.31641 0
M  V30 1031 C 103.9 -0.600401 1.59151 0
M  V30 1032 O 105.085 -0.523124 1.87022 0
M  V30 1033 C 102.215 -0.528416 3.43257 0
M  V30 1034 C 101.169 0.27056 4.27144 0
M  V30 1035 C 100.495 -0.675881 5.30411 0
M  V30 1036 C 101.795 1.48981 5.00602 0
M  V30 1037 H 103.489 1.11681 2.77791 0
M  V30 1038 H 101.035 0.538478 1.33553 0
M  V30 1039 H 102.988 -0.922674 4.11175 0
M  V30 1040 H 101.712 -1.38445 2.95805 0
M  V30 1041 H 100.371 0.646427 3.60856 0
M  V30 1042 H 100.019 -1.52842 4.79216 0
M  V30 1043 H 99.7189 -0.145374 5.8742 0
M  V30 1044 H 101.243 -1.06757 6.01195 0
M  V30 1045 H 102.657 1.16849 5.61266 0
M  V30 1046 H 101.054 1.95739 5.6728 0
M  V30 1047 H 102.124 2.25746 4.29147 0
M  V30 1048 N 103.467 -1.45747 0.599634 0
M  V30 1049 C 104.43 -2.28917 -0.113835 0
M  V30 1050 C 105.43 -1.3933 -0.802729 0
M  V30 1051 O 106.62 -1.61534 -0.652103 0
M  V30 1052 C 103.752 -3.20152 -1.17114 0
M  V30 1053 H 104.945 -2.93478 0.617289 0
M  V30 1054 H 102.498 -1.52137 0.358327 0
M  V30 1055 H 103.233 -2.60374 -1.93329 0
M  V30 1056 H 103.018 -3.86133 -0.681468 0
M  V30 1057 H 104.508 -3.82708 -1.67105 0
M  V30 1058 N 104.945 -0.338344 -1.53925 0
M  V30 1059 C 106.173 0.261298 -2.05243 0
M  V30 1060 C 106.588 1.44625 -1.21363 0
M  V30 1061 O 105.945 1.80811 -0.247736 0
M  V30 1062 C 105.996 0.681412 -3.5502 0
M  V30 1063 O 105.717 -0.456414 -4.35716 0
M  V30 1064 C 107.218 1.34232 -4.22489 0
M  V30 1065 H 104.438 0.0513685 -0.669031 0
M  V30 1066 H 106.982 -0.488822 -1.98572 0
M  V30 1067 H 105.137 1.38148 -3.61931 0
M  V30 1068 H 105.551 -0.122564 -5.24357 0
M  V30 1069 H 107.025 1.58708 -5.28693 0
M  V30 1070 H 107.502 2.29426 -3.74514 0
M  V30 1071 H 108.108 0.684424 -4.19757 0
M  V30 1072 N 106.423 1.57458 -0.0668435 0
M  V30 1073 C 107.669 1.93587 0.6043 0
M  V30 1074 C 108.002 0.946722 1.69561 0
M  V30 1075 O 107.277 -0.0248516 1.94484 0
M  V30 1076 C 107.56 3.40014 1.18585 0
M  V30 1077 C 107.413 4.49685 0.101529 0
M  V30 1078 C 108.732 3.87154 2.09284 0
M  V30 1079 H 105.851 0.703958 0.218202 0
M  V30 1080 H 108.493 1.89542 -0.131804 0
M  V30 1081 H 106.643 3.43592 1.81319 0
M  V30 1082 H 108.315 4.5823 -0.531279 0
M  V30 1083 H 106.558 4.30059 -0.568487 0
M  V30 1084 H 107.229 5.49266 0.54874 0
M  V30 1085 H 109.705 3.85551 1.56491 0
M  V30 1086 H 108.581 4.90231 2.46911 0
M  V30 1087 H 108.842 3.2481 2.99918 0
M  V30 1088 N 107.901 -0.206675 1.56239 0
M  V30 1089 C 108.864 -1.23976 1.92776 0
M  V30 1090 C 109.864 -1.39041 0.807729 0
M  V30 1091 O 111.054 -1.37051 1.0753 0
M  V30 1092 C 108.186 -2.61112 2.19165 0
M  V30 1093 H 109.379 -0.927764 2.85189 0
M  V30 1094 H 106.932 -0.447718 1.4975 0
M  V30 1095 H 107.667 -2.97386 1.29352 0
M  V30 1096 H 107.452 -2.51552 3.00772 0
M  V30 1097 H 108.942 -3.35633 2.48476 0
M  V30 1098 N 109.379 -1.50304 -0.473955 0
M  V30 1099 C 110.309 -1.71886 -1.58042 0
M  V30 1100 C 111.29 -0.567799 -1.60344 0
M  V30 1101 O 112.475 -0.806623 -1.76656 0
M  V30 1102 C 109.605 -1.81036 -2.96384 0
M  V30 1103 C 108.559 -2.962 -3.08949 0
M  V30 1104 C 107.885 -2.9049 -4.48909 0
M  V30 1105 C 109.185 -4.36752 -2.86434 0
M  V30 1106 H 110.879 -2.64527 -1.40234 0
M  V30 1107 H 108.425 -1.27295 -0.673201 0
M  V30 1108 H 110.378 -1.94719 -3.73714 0
M  V30 1109 H 109.102 -0.850147 -3.15341 0
M  V30 1110 H 107.761 -2.82164 -2.3405 0
M  V30 1111 H 107.409 -1.92321 -4.64781 0
M  V30 1112 H 107.109 -3.67802 -4.58253 0
M  V30 1113 H 108.633 -3.06218 -5.28264 0
M  V30 1114 H 110.047 -4.5133 -3.53517 0
M  V30 1115 H 108.444 -5.15493 -3.07225 0
M  V30 1116 H 109.514 -4.49321 -1.82316 0
M  V30 1117 N 110.857 0.726932 -1.39834 0
M  V30 1118 C 112.134 1.47902 -1.28001 0
M  V30 1119 C 112.514 2.1083 0.106789 0
M  V30 1120 O 111.862 1.99242 1.11869 0
M  V30 1121 C 112.072 2.52392 -2.41038 0
M  V30 1122 C 113.42 3.18546 -2.80737 0
M  V30 1123 O 114.444 2.62708 -2.40547 0
M  V30 1124 O 113.303 4.19604 -3.50135 0
M  V30 1125 H 110.397 0.657163 -0.502062 0
M  V30 1126 H 112.943 0.760071 -1.51727 0
M  V30 1127 H 111.715 2.04329 -3.33715 0
M  V30 1128 H 111.338 3.31837 -2.19021 0
M  V30 1129 N 112.336 1.25143 0.95797 0
M  V30 1130 C 113.747 1.08851 1.51685 0
M  V30 1131 C 114.098 -0.33687 1.93286 0
M  V30 1132 O 113.223 -1.22644 1.7829 0
M  V30 1133 C 113.818 1.96978 2.75654 0
M  V30 1134 C 112.377 1.84881 3.27866 0
M  V30 1135 C 111.524 1.91329 2.0072 0
M  V30 1136 H 114.475 1.38478 0.77522 0
M  V30 1137 H 114.496 1.5078 3.4935 0
M  V30 1138 H 114.008 3.00712 2.45345 0
M  V30 1139 H 112.109 0.840182 3.63004 0
M  V30 1140 H 112.222 2.6951 3.96107 0
M  V30 1141 H 110.586 1.35174 2.15871 0
M  V30 1142 H 111.369 2.96661 1.72764 0
M  V30 1143 N 113.814 -1.1601 1.06675 0
M  V30 1144 C 115.225 -1.68235 0.809565 0
M  V30 1145 C 115.576 -1.8454 -0.666303 0
M  V30 1146 O 114.701 -1.54374 -1.5165 0
M  V30 1147 C 115.296 -3.05585 1.46299 0
M  V30 1148 C 113.855 -3.54915 1.25349 0
M  V30 1149 C 113.002 -2.30804 1.53703 0
M  V30 1150 H 115.953 -1.00318 1.22971 0
M  V30 1151 H 115.974 -3.70174 0.880431 0
M  V30 1152 H 115.486 -2.93686 2.53713 0
M  V30 1153 H 113.587 -3.72067 0.199261 0
M  V30 1154 H 113.7 -4.36774 1.9689 0
M  V30 1155 H 112.064 -2.36007 0.957739 0
M  V30 1156 H 112.847 -2.21499 2.62284 0
M  V30 1157 N 115.292 -0.849877 -1.32721 0
M  V30 1158 C 116.517 -0.463856 -2.02146 0
M  V30 1159 C 116.942 0.930449 -1.63476 0
M  V30 1160 O 116.3 1.61033 -0.832952 0
M  V30 1161 C 116.348 -0.604955 -3.55489 0
M  V30 1162 O 115.452 0.36425 -4.10788 0
M  V30 1163 H 114.793 -0.187046 -0.637111 0
M  V30 1164 H 117.323 -1.14775 -1.69375 0
M  V30 1165 H 117.333 -0.490696 -4.05038 0
M  V30 1166 H 116.008 -1.62174 -3.82978 0
M  V30 1167 H 114.585 0.206628 -3.72327 0
M  V30 1168 N 116.77 1.45427 -0.607355 0
M  V30 1169 C 118.047 1.9557 -0.0344566 0
M  V30 1170 C 118.427 1.54979 1.43334 0
M  V30 1171 O 117.775 0.812241 2.13576 0
M  V30 1172 C 117.985 3.48226 -0.232321 0
M  V30 1173 C 119.333 4.2445 -0.113001 0
M  V30 1174 O 120.357 3.55829 -0.162431 0
M  V30 1175 O 119.216 5.465 0.00209442 0
M  V30 1176 H 116.31 0.826222 0.0358667 0
M  V30 1177 H 118.856 1.55594 -0.6774 0
M  V30 1178 H 117.628 3.70739 -1.25174 0
M  V30 1179 H 117.251 3.95092 0.445896 0
M  V30 1180 N 118.248 0.346503 1.53744 0
M  V30 1181 C 119.664 -0.00530975 1.59599 0
M  V30 1182 C 119.864 -1.48465 1.36236 0
M  V30 1183 O 118.92 -2.24376 1.15808 0
M  V30 1184 C 120.233 0.433516 2.97559 0
M  V30 1185 C 121.781 0.386111 3.10609 0
M  V30 1186 C 122.256 0.800451 4.50951 0
M  V30 1187 N 123.747 0.754753 4.5701 0
M  V30 1188 C 124.482 1.04727 5.63755 0
M  V30 1189 N 123.978 1.4081 6.7834 0
M  V30 1190 N 125.771 0.971316 5.53644 0
M  V30 1191 H 117.922 1.31009 1.67184 0
M  V30 1192 H 120.185 0.534242 0.783128 0
M  V30 1193 H 119.891 1.46509 3.19731 0
M  V30 1194 H 119.765 -0.189753 3.76722 0
M  V30 1195 H 122.152 -0.636295 2.88158 0
M  V30 1196 H 122.233 1.04462 2.33498 0
M  V30 1197 H 121.877 1.82088 4.74137 0
M  V30 1198 H 121.807 0.119386 5.26465 0
M  V30 1199 H 124.298 0.488662 3.74727 0
M  V30 1200 H 124.611 1.61607 7.55714 0
M  V30 1201 H 122.956 1.44657 6.79779 0
M  V30 1202 H 126.147 0.688748 4.63005 0
M  V30 1203 H 126.32 1.20263 6.36742 0
M  V30 1204 N 119.726 -1.57421 0.075193 0
M  V30 1205 C 120.954 -1.97946 -0.602076 0
M  V30 1206 C 121.369 -0.953674 -1.62943 0
M  V30 1207 O 120.726 0.0592551 -1.82404 0
M  V30 1208 C 120.777 -3.38546 -1.26762 0
M  V30 1209 O 120.498 -4.37195 -0.281376 0
M  V30 1210 C 121.999 -3.93966 -2.03239 0
M  V30 1211 H 119.219 -0.650918 -0.162931 0
M  V30 1212 H 121.763 -2.03959 0.148601 0
M  V30 1213 H 119.918 -3.33609 -1.96936 0
M  V30 1214 H 120.332 -5.18975 -0.759267 0
M  V30 1215 H 121.806 -4.94555 -2.45193 0
M  V30 1216 H 122.283 -3.30693 -2.8903 0
M  V30 1217 H 122.889 -4.02315 -1.37924 0
M  V30 1218 N 121.204 0.198386 -1.56346 0
M  V30 1219 C 122.429 0.939682 -1.84891 0
M  V30 1220 C 122.854 1.76202 -0.658369 0
M  V30 1221 O 122.212 1.76993 0.392851 0
M  V30 1222 C 122.26 1.81428 -3.11635 0
M  V30 1223 O 121.364 2.91265 -2.91956 0
M  V30 1224 H 120.705 0.264807 -0.608912 0
M  V30 1225 H 123.235 0.204695 -2.03573 0
M  V30 1226 H 123.245 2.21958 -3.42343 0
M  V30 1227 H 121.92 1.21004 -3.97908 0
M  V30 1228 H 120.497 2.54514 -2.72538 0
M  V30 1229 N 122.682 1.50554 0.465978 0
M  V30 1230 C 123.632 1.66177 1.56106 0
M  V30 1231 C 124.616 0.516265 1.52393 0
M  V30 1232 O 125.808 0.770906 1.5933 0
M  V30 1233 C 122.937 1.76396 2.94515 0
M  V30 1234 C 122.023 2.9664 3.03093 0
M  V30 1235 N 122.414 4.20245 2.81474 0
M  V30 1236 C 120.712 2.95304 3.34233 0
M  V30 1237 C 121.413 5.01259 2.95151 0
M  V30 1238 N 120.389 4.35318 3.25576 0
M  V30 1239 H 124.191 2.59434 1.38099 0
M  V30 1240 H 121.705 1.47808 0.6728 0
M  V30 1241 H 123.702 1.85694 3.73261 0
M  V30 1242 H 122.362 0.843017 3.13565 0
M  V30 1243 H 123.373 4.4966 2.56956 0
M  V30 1244 H 120.05 2.12729 3.59239 0
M  V30 1245 H 121.44 6.09564 2.82632 0
M  V30 1246 N 124.16 -0.719506 1.40217 0
M  V30 1247 C 125.571 -1.29848 1.34151 0
M  V30 1248 C 125.922 -1.96196 0.0131349 0
M  V30 1249 O 125.047 -1.973 -0.88892 0
M  V30 1250 C 125.642 -2.36118 2.42968 0
M  V30 1251 C 124.201 -2.8965 2.40374 0
M  V30 1252 C 123.348 -1.63393 2.24049 0
M  V30 1253 H 126.299 -0.51591 1.5008 0
M  V30 1254 H 126.32 -3.16871 2.10649 0
M  V30 1255 H 125.832 -1.878 3.39636 0
M  V30 1256 H 123.933 -3.42208 1.47392 0
M  V30 1257 H 124.046 -3.4171 3.35814 0
M  V30 1258 H 122.41 -1.88312 1.71495 0
M  V30 1259 H 123.193 -1.17104 3.2271 0
M  V30 1260 N 125.638 -1.25649 -0.95132 0
M  V30 1261 C 126.57 -1.02112 -2.05197 0
M  V30 1262 C 127.583 0.0150571 -1.62793 0
M  V30 1263 O 128.772 -0.223874 -1.77091 0
M  V30 1264 C 125.872 -0.522361 -3.3485 0
M  V30 1265 C 125.045 -1.62546 -4.06076 0
M  V30 1266 C 124.104 -1.12649 -5.14001 0
M  V30 1267 O 123.13 -1.82156 -5.39266 0
M  V30 1268 N 124.332 0.03047 -5.80492 0
M  V30 1269 H 127.097 -1.96885 -2.25957 0
M  V30 1270 H 124.658 -1.16899 -1.1201 0
M  V30 1271 H 126.65 -0.172961 -4.0433 0
M  V30 1272 H 125.22 0.33151 -3.10837 0
M  V30 1273 H 124.44 -2.14628 -3.30649 0
M  V30 1274 H 125.728 -2.36644 -4.50419 0
M  V30 1275 H 125.126 0.611169 -5.62389 0
M  V30 1276 H 123.683 0.320875 -6.5101 0
M  V30 1277 N 127.117 1.15442 -1.07289 0
M  V30 1278 C 128.394 1.82306 -0.708792 0
M  V30 1279 C 128.774 1.94991 0.808807 0
M  V30 1280 O 128.122 1.50085 1.72298 0
M  V30 1281 C 128.332 3.18695 -1.42247 0
M  V30 1282 C 129.68 3.94341 -1.57417 0
M  V30 1283 O 130.704 3.28247 -1.38319 0
M  V30 1284 O 129.563 5.12839 -1.88834 0
M  V30 1285 H 126.657 0.787628 -0.252132 0
M  V30 1286 H 129.203 1.22559 -1.17377 0
M  V30 1287 H 127.975 3.04557 -2.45684 0
M  V30 1288 H 127.598 3.86128 -0.948223 0
M  V30 1289 N 128.595 0.856903 1.32268 0
M  V30 1290 C 129.841 0.462069 1.97466 0
M  V30 1291 C 130.174 -0.980298 1.67642 0
M  V30 1292 O 129.449 -1.68824 0.965858 0
M  V30 1293 C 129.732 0.704336 3.53145 0
M  V30 1294 C 129.585 2.19529 3.9259 0
M  V30 1295 C 130.904 0.1622 4.39801 0
M  V30 1296 H 128.023 0.169357 0.717278 0
M  V30 1297 H 130.665 1.07574 1.56614 0
M  V30 1298 H 128.815 0.181999 3.88073 0
M  V30 1299 H 130.487 2.78387 3.67829 0
M  V30 1300 H 128.73 2.67292 3.41668 0
M  V30 1301 H 129.401 2.31549 5.01088 0
M  V30 1302 H 131.877 0.608905 4.11621 0
M  V30 1303 H 130.753 0.361265 5.4771 0
M  V30 1304 H 131.014 -0.935158 4.32096 0
M  V30 1305 N 130.073 -1.45103 0.615059 0
M  V30 1306 C 131.322 -2.01396 0.110718 0
M  V30 1307 C 131.635 -1.48834 -1.26916 0
M  V30 1308 O 132.841 -1.97152 -1.86664 0
M  V30 1309 C 131.297 -3.59599 0.14723 0
M  V30 1310 C 130.905 -4.21158 1.52743 0
M  V30 1311 C 132.649 -4.23428 -0.30148 0
M  V30 1312 C 130.556 -5.71535 1.51992 0
M  V30 1313 H 129.486 -0.753061 0.0376241 0
M  V30 1314 H 132.137 -1.66494 0.77149 0
M  V30 1315 H 130.519 -3.91724 -0.580339 0
M  V30 1316 H 131.693 -4.00594 2.2773 0
M  V30 1317 H 130.008 -3.69552 1.91886 0
M  V30 1318 H 132.605 -5.33703 -0.326392 0
M  V30 1319 H 132.948 -3.94629 -1.32565 0
M  V30 1320 H 133.481 -3.96047 0.373065 0
M  V30 1321 H 130.22 -6.05044 2.52193 0
M  V30 1322 H 129.74 -5.94268 0.81274 0
M  V30 1323 H 131.419 -6.34873 1.24681 0
M  V30 1324 N 131.551 -0.354651 -1.53558 0
M  V30 1325 C 132.461 0.50515 -2.29097 0
M  V30 1326 C 133.477 1.10223 -1.34636 0
M  V30 1327 O 134.653 1.11553 -1.67684 0
M  V30 1328 C 131.718 1.63479 -3.05738 0
M  V30 1329 C 130.779 1.06636 -4.15845 0
M  V30 1330 C 130.012 2.14217 -4.88822 0
M  V30 1331 O 130.235 3.35137 -4.61562 0
M  V30 1332 O 129.169 1.77887 -5.75013 0
M  V30 1333 H 132.995 -0.109237 -3.03503 0
M  V30 1334 H 130.58 -0.119357 -1.48922 0
M  V30 1335 H 132.462 2.2918 -3.5363 0
M  V30 1336 H 131.137 2.23478 -2.34178 0
M  V30 1337 H 130.044 0.373565 -3.7223 0
M  V30 1338 H 131.377 0.511081 -4.89539 0
M  V30 1339 N 133.029 1.57378 -0.0835403 0
M  V30 1340 C 134.306 1.85363 0.624507 0
M  V30 1341 C 134.686 0.978239 1.87066 0
M  V30 1342 O 134.034 0.0475908 2.2845 0
M  V30 1343 C 134.244 3.35795 0.950947 0
M  V30 1344 C 135.592 4.03581 1.31939 0
M  V30 1345 O 136.616 3.40609 1.04232 0
M  V30 1346 O 135.475 5.14672 1.83779 0
M  V30 1347 H 132.569 0.766162 0.311329 0
M  V30 1348 H 135.115 1.69307 -0.115362 0
M  V30 1349 H 133.887 3.91244 0.0663899 0
M  V30 1350 H 133.51 3.57154 1.74719 0
M  V30 1351 N 134.507 -0.190092 1.56449 0
M  V30 1352 C 135.437 -1.23816 1.97969 0
M  V30 1353 C 136.418 -1.47201 0.852395 0
M  V30 1354 O 137.603 -1.58854 1.1171 0
M  V30 1355 C 134.733 -2.5813 2.3235 0
M  V30 1356 C 133.687 -2.49348 3.47864 0
M  V30 1357 C 133.013 -3.8798 3.67934 0
M  V30 1358 C 134.313 -2.01424 4.81898 0
M  V30 1359 H 136.007 -0.89311 2.85769 0
M  V30 1360 H 133.553 -0.428177 1.37487 0
M  V30 1361 H 135.506 -3.31637 2.59991 0
M  V30 1362 H 134.23 -2.94386 1.41438 0
M  V30 1363 H 132.889 -1.78297 3.20321 0
M  V30 1364 H 132.537 -4.21597 2.74344 0
M  V30 1365 H 132.237 -3.82978 4.45648 0
M  V30 1366 H 133.761 -4.63101 3.97957 0
M  V30 1367 H 135.175 -2.64693 5.08538 0
M  V30 1368 H 133.572 -2.07413 5.63116 0
M  V30 1369 H 134.642 -0.967677 4.75146 0
M  V30 1370 N 135.985 -1.50799 -0.457987 0
M  V30 1371 C 137.21 -1.66496 -1.23668 0
M  V30 1372 C 137.635 -0.353288 -1.84752 0
M  V30 1373 O 136.993 0.684346 -1.67888 0
M  V30 1374 C 137.041 -2.76763 -2.3116 0
M  V30 1375 O 136.145 -2.38928 -3.36136 0
M  V30 1376 H 135.486 -0.555828 -0.363252 0
M  V30 1377 H 138.016 -1.9725 -0.543474 0
M  V30 1378 H 138.026 -3.00232 -2.76269 0
M  V30 1379 H 136.701 -3.71954 -1.86073 0
M  V30 1380 H 135.278 -2.25953 -2.96647 0
M  V30 1381 N 137.463 0.71206 -1.40597 0
M  V30 1382 C 138.395 1.83704 -1.37061 0
M  V30 1383 C 139.408 1.60453 -0.275426 0
M  V30 1384 O 140.597 1.70262 -0.53602 0
M  V30 1385 C 137.697 3.20172 -1.11099 0
M  V30 1386 C 136.87 3.7059 -2.3234 0
M  V30 1387 C 135.929 4.85681 -2.02485 0
M  V30 1388 O 134.955 4.9815 -2.75382 0
M  V30 1389 N 136.157 5.71735 -1.00497 0
M  V30 1390 H 138.922 1.87235 -2.34016 0
M  V30 1391 H 136.483 0.893739 -1.34996 0
M  V30 1392 H 138.475 3.94768 -0.891064 0
M  V30 1393 H 137.045 3.11767 -0.227989 0
M  V30 1394 H 136.265 2.87085 -2.7014 0
M  V30 1395 H 137.553 4.01011 -3.13157 0
M  V30 1396 H 136.951 5.64275 -0.401298 0
M  V30 1397 H 135.508 6.463 -0.844942 0
M  V30 1398 N 138.941 1.26152 0.944643 0
M  V30 1399 C 139.889 1.07215 2.06417 0
M  V30 1400 C 140.883 9.2007e-05 1.694 0
M  V30 1401 O 142.089 0.1565 1.79318 0
M  V30 1402 H 138.464 0.329837 0.675805 0
M  V30 1403 H 140.435 2.02099 2.19541 0
M  V30 1404 C 139.184 0.718197 3.40202 0
M  V30 1405 H 138.507 1.53497 3.69159 0
M  V30 1406 H 139.947 0.625459 4.19361 0
M  V30 1407 C 138.406 -0.576435 3.31932 0
M  V30 1408 O 138.936 -1.61574 3.67773 0
M  V30 1409 N 137.142 -0.565781 2.85039 0
M  V30 1410 H 136.689 0.280367 2.5607 0
M  V30 1411 H 136.647 -1.43213 2.79888 0
M  V30 1412 N 140.419 -1.14872 1.07899 0
M  V30 1413 C 141.644 -1.90202 0.826926 0
M  V30 1414 C 142.069 -1.77774 -0.614664 0
M  V30 1415 O 141.427 -1.11431 -1.43013 0
M  V30 1416 C 141.475 -3.38352 1.24702 0
M  V30 1417 O 140.579 -4.10497 0.39575 0
M  V30 1418 H 139.92 -0.591968 0.300782 0
M  V30 1419 H 142.45 -1.45437 1.43907 0
M  V30 1420 H 142.46 -3.89156 1.22563 0
M  V30 1421 H 141.135 -3.46715 2.29698 0
M  V30 1422 H 139.712 -3.69796 0.480117 0
M  V30 1423 N 141.898 -0.863906 -1.31812 0
M  V30 1424 C 143.147 -0.46801 -1.96195 0
M  V30 1425 C 143.46 0.983474 -1.69077 0
M  V30 1426 O 144.666 1.48523 -2.27273 0
M  V30 1427 C 143.122 -0.785995 -3.51212 0
M  V30 1428 C 142.73 -2.25383 -3.87178 0
M  V30 1429 C 144.474 -0.458274 -4.22019 0
M  V30 1430 C 142.381 -2.51455 -5.3528 0
M  V30 1431 H 141.311 -0.171283 -0.734287 0
M  V30 1432 H 143.962 -1.05597 -1.50072 0
M  V30 1433 H 142.344 -0.127359 -3.95795 0
M  V30 1434 H 143.518 -2.95502 -3.53575 0
M  V30 1435 H 141.833 -2.54698 -3.2942 0
M  V30 1436 H 144.43 -0.630369 -5.30971 0
M  V30 1437 H 144.773 0.600834 -4.11941 0
M  V30 1438 H 145.306 -1.07319 -3.8305 0
M  V30 1439 H 142.045 -3.56025 -5.50387 0
M  V30 1440 H 141.565 -1.85923 -5.70257 0
M  V30 1441 H 143.244 -2.35874 -6.02472 0
M  V30 1442 N 143.376 1.44774 -0.622745 0
M  V30 1443 C 144.604 2.06487 -0.130722 0
M  V30 1444 C 145.019 1.46476 1.19123 0
M  V30 1445 O 144.376 0.584502 1.72887 0
M  V30 1446 C 144.427 3.615 -0.000807207 0
M  V30 1447 O 144.148 4.19274 -1.27048 0
M  V30 1448 C 145.649 4.40229 0.520898 0
M  V30 1449 H 142.869 0.666704 -0.0758106 0
M  V30 1450 H 145.413 1.85779 -0.854774 0
M  V30 1451 H 143.568 3.81498 0.673643 0
M  V30 1452 H 143.982 5.12622 -1.1099 0
M  V30 1453 H 145.456 5.49144 0.560838 0
M  V30 1454 H 145.933 4.1108 1.54627 0
M  V30 1455 H 146.539 4.25131 -0.120018 0
M  V30 1456 N 144.854 0.36279 1.53368 0
M  V30 1457 C 146.102 -0.227326 2.00817 0
M  V30 1458 C 146.423 -1.49511 1.25186 0
M  V30 1459 O 145.693 -1.92482 0.364348 0
M  V30 1460 H 144.273 -0.0869923 0.741917 0
M  V30 1461 H 146.935 0.488381 1.88682 0
M  V30 1462 H 146.031 -0.456273 3.08747 0
M  V30 1463 N 146.332 -1.57332 0.0918853 0
M  V30 1464 C 147.242 -2.17368 -0.882505 0
M  V30 1465 C 148.258 -1.14226 -1.31257 0
M  V30 1466 O 149.434 -1.46582 -1.38115 0
M  V30 1467 C 146.499 -2.73962 -2.12476 0
M  V30 1468 C 145.56 -3.92048 -1.7492 0
M  V30 1469 C 144.793 -4.45933 -2.93223 0
M  V30 1470 O 145.016 -3.98764 -4.07852 0
M  V30 1471 O 143.95 -5.36999 -2.71875 0
M  V30 1472 H 147.776 -3.01031 -0.40172 0
M  V30 1473 H 145.361 -1.48813 -0.132291 0
M  V30 1474 H 147.243 -3.10147 -2.85283 0
M  V30 1475 H 145.918 -1.93347 -2.59613 0
M  V30 1476 H 144.825 -3.6068 -0.993025 0
M  V30 1477 H 146.158 -4.74017 -1.32548 0
M  V30 1478 N 147.81 0.181792 -1.56548 0
M  V30 1479 C 148.76 1.22961 -1.92002 0
M  V30 1480 C 149.744 1.40331 -0.787146 0
M  V30 1481 O 150.936 1.42478 -1.05019 0
M  V30 1482 C 148.065 2.57144 -2.27446 0
M  V30 1483 C 147.151 2.43512 -3.47222 0
M  V30 1484 N 147.542 1.99577 -4.64761 0
M  V30 1485 C 145.84 2.74368 -3.51622 0
M  V30 1486 C 146.541 1.98156 -5.46909 0
M  V30 1487 N 145.517 2.40164 -4.8767 0
M  V30 1488 H 149.319 0.881462 -2.8037 0
M  V30 1489 H 146.833 0.390141 -1.57644 0
M  V30 1490 H 148.83 3.32847 -2.51035 0
M  V30 1491 H 147.49 2.92771 -1.40411 0
M  V30 1492 H 148.501 1.70078 -4.89177 0
M  V30 1493 H 145.178 3.14102 -2.75038 0
M  V30 1494 H 146.568 1.65975 -6.51077 0
M  V30 1495 N 149.288 1.51039 0.449983 0
M  V30 1496 C 150.513 1.6715 1.22783 0
M  V30 1497 C 150.938 0.363081 1.84563 0
M  V30 1498 O 150.296 -0.675433 1.68249 0
M  V30 1499 C 150.344 2.77985 2.29689 0
M  V30 1500 O 149.448 2.40707 3.34864 0
M  V30 1501 H 148.789 0.557746 0.360299 0
M  V30 1502 H 151.319 1.97535 0.533005 0
M  V30 1503 H 151.329 3.01693 2.74673 0
M  V30 1504 H 150.004 3.72935 1.84098 0
M  V30 1505 H 148.581 2.27523 2.95445 0
M  V30 1506 N 150.766 -0.704594 1.40972 0
M  V30 1507 C 151.698 -1.82974 1.38033 0
M  V30 1508 C 152.711 -1.60305 0.283931 0
M  V30 1509 O 153.9 -1.69975 0.545042 0
M  V30 1510 C 151 -3.19578 1.12795 0
M  V30 1511 C 150.173 -3.69352 2.34302 0
M  V30 1512 C 149.232 -4.84601 2.05058 0
M  V30 1513 O 148.258 -4.96682 2.7802 0
M  V30 1514 N 149.46 -5.71194 1.03528 0
M  V30 1515 H 152.225 -1.85991 2.35005 0
M  V30 1516 H 149.786 -0.886567 1.35468 0
M  V30 1517 H 151.778 -3.9429 0.911987 0
M  V30 1518 H 150.348 -3.11642 0.24452 0
M  V30 1519 H 149.568 -2.85649 2.71659 0
M  V30 1520 H 150.856 -3.99345 3.1528 0
M  V30 1521 H 150.254 -5.64054 0.431217 0
M  V30 1522 H 148.811 -6.45843 0.879205 0
M  V30 1523 N 152.244 -1.26651 -0.937939 0
M  V30 1524 C 153.174 -1.10993 -2.05433 0
M  V30 1525 C 154.155 -0.0142161 -1.70094 0
M  V30 1526 O 155.34 -0.186837 -1.93299 0
M  V30 1527 C 152.47 -0.745561 -3.39203 0
M  V30 1528 C 151.424 -1.79337 -3.88616 0
M  V30 1529 C 150.75 -1.28324 -5.19073 0
M  V30 1530 C 152.05 -3.19553 -4.13138 0
M  V30 1531 H 153.744 -2.0438 -2.1879 0
M  V30 1532 H 151.29 -0.984041 -1.05131 0
M  V30 1533 H 153.243 -0.622888 -4.16771 0
M  V30 1534 H 151.967 0.22401 -3.25831 0
M  V30 1535 H 150.626 -1.90477 -3.13231 0
M  V30 1536 H 150.274 -0.303414 -5.02084 0
M  V30 1537 H 149.974 -1.98369 -5.53103 0
M  V30 1538 H 151.498 -1.1733 -5.99221 0
M  V30 1539 H 152.912 -3.11471 -4.81309 0
M  V30 1540 H 151.309 -3.87218 -4.58457 0
M  V30 1541 H 152.379 -3.65368 -3.18801 0
M  V30 1542 N 153.722 1.14298 -1.08507 0
M  V30 1543 C 154.652 2.21542 -0.737646 0
M  V30 1544 C 155.633 1.67773 0.280377 0
M  V30 1545 O 156.818 1.93616 0.150521 0
M  V30 1546 C 153.948 3.46988 -0.147259 0
M  V30 1547 C 152.902 4.13789 -1.09374 0
M  V30 1548 C 152.228 5.33449 -0.365524 0
M  V30 1549 C 153.528 4.62208 -2.4323 0
M  V30 1550 H 155.222 2.5086 -1.6343 0
M  V30 1551 H 152.768 1.20576 -0.787243 0
M  V30 1552 H 154.721 4.21262 0.107808 0
M  V30 1553 H 153.445 3.17037 0.784538 0
M  V30 1554 H 152.104 3.4147 -1.33393 0
M  V30 1555 H 151.752 4.99759 0.57011 0
M  V30 1556 H 151.452 5.79088 -0.996512 0
M  V30 1557 H 152.976 6.10485 -0.118534 0
M  V30 1558 H 154.39 5.27952 -2.23472 0
M  V30 1559 H 152.787 5.18553 -3.02031 0
M  V30 1560 H 153.857 3.77224 -3.04681 0
M  V30 1561 N 155.201 0.870884 1.31352 0
M  V30 1562 C 156.478 0.402907 1.91405 0
M  V30 1563 C 156.858 -1.11512 1.79244 0
M  V30 1564 O 156.206 -1.94411 1.2007 0
M  V30 1565 C 156.416 0.885301 3.37585 0
M  V30 1566 C 157.764 0.911971 4.14691 0
M  V30 1567 O 158.788 0.831016 3.46371 0
M  V30 1568 O 157.647 1.02927 5.3672 0
M  V30 1569 H 154.741 0.120698 0.818145 0
M  V30 1570 H 157.287 0.958857 1.40014 0
M  V30 1571 H 156.059 1.92889 3.40455 0
M  V30 1572 H 155.682 0.307714 3.96407 0
M  V30 1573 N 156.679 -1.44442 0.630414 0
M  V30 1574 C 157.956 -1.9549 0.0655657 0
M  V30 1575 C 158.336 -1.5724 -1.40851 0
M  V30 1576 O 157.684 -0.846116 -2.12257 0
M  V30 1577 C 157.894 -3.47812 0.287691 0
M  V30 1578 C 159.242 -4.24216 0.180513 0
M  V30 1579 O 160.266 -3.55526 0.219019 0
M  V30 1580 O 159.125 -5.46434 0.0848493 0
M  V30 1581 H 156.219 -0.826688 -0.0227177 0
M  V30 1582 H 158.765 -1.54496 0.702068 0
M  V30 1583 H 157.537 -3.687 1.31056 0
M  V30 1584 H 157.16 -3.95751 -0.382984 0
M  V30 1585 N 158.157 -0.370918 -1.53173 0
M  V30 1586 C 159.405 0.216673 -2.00935 0
M  V30 1587 C 159.726 1.48845 -1.25977 0
M  V30 1588 O 158.996 1.92286 -0.374551 0
M  V30 1589 H 157.576 0.0830565 -0.742368 0
M  V30 1590 H 160.238 -0.49838 -1.8842 0
M  V30 1591 H 159.334 0.439893 -3.08984 0
M  V30 1592 N 159.635 1.57281 -0.100228 0
M  V30 1593 C 160.585 2.10848 0.86759 0
M  V30 1594 C 161.569 1.02473 1.24049 0
M  V30 1595 O 162.761 1.28739 1.21471 0
M  V30 1596 C 159.89 2.69648 2.12474 0
M  V30 1597 C 158.976 3.85074 1.77704 0
M  V30 1598 N 159.367 4.92897 1.13518 0
M  V30 1599 C 157.665 3.94905 2.07282 0
M  V30 1600 C 158.366 5.73475 0.974735 0
M  V30 1601 N 157.342 5.22675 1.4937 0
M  V30 1602 H 161.144 2.91594 0.367471 0
M  V30 1603 H 158.658 1.62074 0.102829 0
M  V30 1604 H 160.655 3.06356 2.82757 0
M  V30 1605 H 159.315 1.90359 2.63047 0
M  V30 1606 H 160.326 5.11662 0.801381 0
M  V30 1607 H 157.003 3.26633 2.60033 0
M  V30 1608 H 158.393 6.70238 0.472364 0
M  V30 1609 N 161.113 -0.173488 1.56642 0
M  V30 1610 C 162.06 -1.21482 1.96242 0
M  V30 1611 C 163.03 -1.44104 0.826027 0
M  V30 1612 O 164.215 -1.5688 1.08597 0
M  V30 1613 C 161.355 -2.54964 2.32567 0
M  V30 1614 C 160.468 -2.39739 3.59373 0
M  V30 1615 C 159.603 -3.66072 3.84921 0
M  V30 1616 C 158.642 -3.45771 5.05083 0
M  V30 1617 N 157.779 -4.64169 5.26775 0
M  V30 1618 H 162.619 -0.870123 2.85014 0
M  V30 1619 H 160.156 -0.418245 1.41029 0
M  V30 1620 H 162.114 -3.32758 2.5165 0
M  V30 1621 H 160.744 -2.87433 1.46908 0
M  V30 1622 H 159.796 -1.53131 3.48217 0
M  V30 1623 H 161.108 -2.20683 4.47326 0
M  V30 1624 H 160.262 -4.52303 4.0436 0
M  V30 1625 H 159.001 -3.88105 2.9534 0
M  V30 1626 H 158.006 -2.57927 4.85545 0
M  V30 1627 H 159.231 -3.25163 5.96193 0
M  V30 1628 H 157.177 -4.86425 4.40144 0
M  V30 1629 H 157.094 -4.48019 6.08946 0
M  V30 1630 H 158.362 -5.51689 5.5069 0
M  V30 1631 N 162.591 -1.51276 -0.441967 0
M  V30 1632 C 163.538 -1.72256 -1.53612 0
M  V30 1633 C 164.508 -0.564164 -1.56225 0
M  V30 1634 O 165.693 -0.798074 -1.73307 0
M  V30 1635 C 162.833 -1.84932 -2.91366 0
M  V30 1636 C 161.946 -3.12459 -2.98317 0
M  V30 1637 C 161.081 -3.15758 -4.27166 0
M  V30 1638 C 160.12 -4.37619 -4.27967 0
M  V30 1639 N 159.257 -4.38493 -5.48333 0
M  V30 1640 H 164.097 -2.65654 -1.35026 0
M  V30 1641 H 161.634 -1.31662 -0.656009 0
M  V30 1642 H 163.592 -1.90263 -3.7129 0
M  V30 1643 H 162.222 -0.949461 -3.08521 0
M  V30 1644 H 161.274 -3.1646 -2.11086 0
M  V30 1645 H 162.586 -4.02382 -2.94771 0
M  V30 1646 H 161.74 -3.19979 -5.15459 0
M  V30 1647 H 160.479 -2.23715 -4.33362 0
M  V30 1648 H 159.484 -4.33579 -3.38067 0
M  V30 1649 H 160.709 -5.30921 -4.23438 0
M  V30 1650 H 158.655 -3.49318 -5.55259 0
M  V30 1651 H 158.572 -5.22219 -5.46647 0
M  V30 1652 H 159.84 -4.469 -6.38671 0
M  V30 1653 N 164.069 0.697108 -1.41344 0
M  V30 1654 C 165.032 1.79281 -1.42797 0
M  V30 1655 C 166.032 1.57607 -0.318837 0
M  V30 1656 O 167.222 1.64309 -0.578642 0
M  V30 1657 C 164.354 3.17632 -1.23785 0
M  V30 1658 H 165.547 1.79385 -2.40335 0
M  V30 1659 H 163.1 0.904582 -1.27464 0
M  V30 1660 H 163.835 3.23167 -0.270814 0
M  V30 1661 H 163.62 3.34765 -2.04144 0
M  V30 1662 H 165.11 3.97617 -1.27633 0
M  V30 1663 N 165.547 1.27147 0.931209 0
M  V30 1664 C 166.963 1.04475 1.20653 0
M  V30 1665 C 167.163 -0.223885 2.00252 0
M  V30 1666 O 166.219 -0.930332 2.34736 0
M  V30 1667 C 167.532 2.28209 1.95809 0
M  V30 1668 C 169.08 2.33211 2.08762 0
M  V30 1669 C 169.555 3.56665 2.87323 0
M  V30 1670 N 171.046 3.57201 2.94892 0
M  V30 1671 C 171.781 4.49395 3.56134 0
M  V30 1672 N 171.277 5.51889 4.18796 0
M  V30 1673 N 173.07 4.37026 3.53504 0
M  V30 1674 H 165.221 2.08612 0.399333 0
M  V30 1675 H 167.484 0.917312 0.239253 0
M  V30 1676 H 167.19 3.20538 1.44736 0
M  V30 1677 H 167.064 2.33247 2.96438 0
M  V30 1678 H 169.451 1.41391 2.59023 0
M  V30 1679 H 169.532 2.32178 1.07364 0
M  V30 1680 H 169.176 4.4882 2.37746 0
M  V30 1681 H 169.106 3.54948 3.88998 0
M  V30 1682 H 171.597 2.83074 2.50354 0
M  V30 1683 H 171.91 6.18409 4.63454 0
M  V30 1684 H 170.255 5.55735 4.17353 0
M  V30 1685 H 173.446 3.56166 3.03749 0
M  V30 1686 H 173.619 5.09067 4.00942 0
M  V30 1687 N 167.025 -1.13721 1.09112 0
M  V30 1688 C 167.973 -2.21103 0.722219 0
M  V30 1689 C 168.967 -1.67147 -0.275374 0
M  V30 1690 O 170.173 -1.79477 -0.137176 0
M  V30 1691 H 166.548 -0.720445 0.215553 0
M  V30 1692 H 168.519 -2.49483 1.63709 0
M  V30 1693 C 167.268 -3.47352 0.15543 0
M  V30 1694 H 166.591 -3.89206 0.914246 0
M  V30 1695 H 168.031 -4.2395 -0.0647967 0
M  V30 1696 C 166.49 -3.1814 -1.10852 0
M  V30 1697 O 167.02 -3.36604 -2.19227 0
M  V30 1698 N 165.226 -2.72045 -1.02176 0
M  V30 1699 H 164.773 -2.57221 -0.139764 0
M  V30 1700 H 164.731 -2.52875 -1.8682 0
M  V30 1701 N 168.503 -0.877838 -1.30888 0
M  V30 1702 C 169.466 -0.344265 -2.266 0
M  V30 1703 C 170.466 0.50922 -1.52524 0
M  V30 1704 O 171.656 0.317398 -1.71284 0
M  V30 1705 C 168.788 0.510198 -3.37061 0
M  V30 1706 H 169.981 -1.1893 -2.7531 0
M  V30 1707 H 167.534 -0.654088 -1.41956 0
M  V30 1708 H 168.269 1.37612 -2.93655 0
M  V30 1709 H 168.054 -0.101047 -3.9197 0
M  V30 1710 H 169.544 0.875537 -4.08319 0
M  V30 1711 N 169.982 1.44106 -0.638065 0
M  V30 1712 C 171.212 2.06037 -0.152394 0
M  V30 1713 C 171.62 1.47808 1.18108 0
M  V30 1714 O 170.963 0.598092 1.73691 0
M  V30 1715 C 171.025 3.59488 0.0293714 0
M  V30 1716 C 170.689 4.4022 -1.22702 0
M  V30 1717 C 171.686 4.73256 -2.15232 0
M  V30 1718 C 169.371 4.8048 -1.46437 0
M  V30 1719 C 171.365 5.45444 -3.29802 0
M  V30 1720 C 169.052 5.52417 -2.61303 0
M  V30 1721 C 170.05 5.84819 -3.52811 0
M  V30 1722 O 169.738 6.55289 -4.65673 0
M  V30 1723 H 169.47 0.671233 -0.0801401 0
M  V30 1724 H 172.024 1.85851 -0.874563 0
M  V30 1725 H 170.254 3.78191 0.806758 0
M  V30 1726 H 171.943 4.03164 0.470475 0
M  V30 1727 H 172.709 4.42684 -1.98131 0
M  V30 1728 H 168.588 4.54676 -0.760977 0
M  V30 1729 H 172.132 5.70653 -4.01249 0
M  V30 1730 H 168.029 5.82404 -2.78344 0
M  V30 1731 H 168.797 6.73762 -4.64744 0
M  V30 1732 N 171.46 0.379036 1.52974 0
M  V30 1733 C 172.39 -0.452706 2.29069 0
M  V30 1734 C 173.371 -1.07237 1.32039 0
M  V30 1735 O 174.556 -1.08708 1.60923 0
M  V30 1736 C 171.686 -1.5856 3.08992 0
M  V30 1737 C 170.64 -1.0925 4.13822 0
M  V30 1738 C 169.966 -2.31668 4.81907 0
M  V30 1739 C 171.266 -0.167702 5.22031 0
M  V30 1740 H 172.96 0.182181 2.98845 0
M  V30 1741 H 170.506 0.0890592 1.43724 0
M  V30 1742 H 172.459 -2.1742 3.6098 0
M  V30 1743 H 171.183 -2.24792 2.36931 0
M  V30 1744 H 169.842 -0.526494 3.628 0
M  V30 1745 H 169.49 -2.96386 4.06404 0
M  V30 1746 H 169.19 -1.9934 5.52754 0
M  V30 1747 H 170.714 -2.91189 5.36695 0
M  V30 1748 H 172.128 -0.664186 5.6944 0
M  V30 1749 H 170.525 0.0653265 6.00064 0
M  V30 1750 H 171.595 0.786347 4.78482 0
M  V30 1751 N 172.938 -1.57226 0.108567 0
M  V30 1752 C 173.886 -2.16002 -0.862885 0
M  V30 1753 C 174.88 -1.10644 -1.28274 0
M  V30 1754 O 176.086 -1.28966 -1.2557 0
M  V30 1755 H 172.461 -0.691148 -0.296342 0
M  V30 1756 H 174.432 -2.96427 -0.342575 0
M  V30 1757 C 173.181 -2.76576 -2.10716 0
M  V30 1758 H 172.504 -3.5734 -1.793 0
M  V30 1759 H 173.944 -3.21253 -2.76717 0
M  V30 1760 C 172.403 -1.73137 -2.89007 0
M  V30 1761 O 172.933 -1.17842 -3.84026 0
M  V30 1762 N 171.139 -1.43317 -2.52801 0
M  V30 1763 H 170.686 -1.88473 -1.75601 0
M  V30 1764 H 170.644 -0.743485 -3.05483 0
M  V30 1765 N 174.416 0.165178 -1.56732 0
M  V30 1766 C 175.364 1.22369 -1.97809 0
M  V30 1767 C 176.358 1.45488 -0.867741 0
M  V30 1768 O 177.564 1.45995 -1.05288 0
M  V30 1769 H 173.939 0.411486 -0.629431 0
M  V30 1770 H 175.91 0.850425 -2.86025 0
M  V30 1771 C 174.659 2.55403 -2.35934 0
M  V30 1772 H 173.982 2.38438 -3.20916 0
M  V30 1773 H 175.422 3.2814 -2.68514 0
M  V30 1774 C 173.881 3.14611 -1.20506 0
M  V30 1775 O 174.411 3.98626 -0.496016 0
M  V30 1776 N 172.617 2.7379 -0.97403 0
M  V30 1777 H 172.164 2.0557 -1.55238 0
M  V30 1778 H 172.122 3.1374 -0.203573 0
M  V30 1779 N 175.894 1.51508 0.433938 0
M  V30 1780 C 177.119 1.68443 1.21003 0
M  V30 1781 C 177.544 0.382636 1.84167 0
M  V30 1782 O 176.902 -0.65755 1.68956 0
M  V30 1783 C 176.95 2.80405 2.26727 0
M  V30 1784 O 176.054 2.44245 3.32292 0
M  V30 1785 H 175.395 0.561536 0.354363 0
M  V30 1786 H 177.925 1.9809 0.512024 0
M  V30 1787 H 177.935 3.0459 2.71457 0
M  V30 1788 H 176.61 3.74867 1.80132 0
M  V30 1789 H 175.187 2.30644 2.93015 0
M  V30 1790 N 177.372 -0.689602 1.41712 0
M  V30 1791 C 178.32 -1.82475 1.44242 0
M  V30 1792 C 179.314 -1.66354 0.319774 0
M  V30 1793 O 180.52 -1.73143 0.492089 0
M  V30 1794 H 176.895 -0.601416 0.451445 0
M  V30 1795 H 178.866 -1.77458 2.39899 0
M  V30 1796 C 177.615 -3.20535 1.3473 0
M  V30 1797 H 176.938 -3.33559 2.20405 0
M  V30 1798 H 178.378 -4.00023 1.40562 0
M  V30 1799 C 176.837 -3.36846 0.0603281 0
M  V30 1800 O 177.367 -3.91656 -0.892663 0
M  V30 1801 N 175.573 -2.90595 -0.0177039 0
M  V30 1802 H 175.12 -2.46178 0.758572 0
M  V30 1803 H 175.078 -3.01886 -0.878201 0
M  V30 1804 N 178.85 -1.27639 -0.924453 0
M  V30 1805 C 180.08 -1.16819 -1.70402 0
M  V30 1806 C 180.488 0.277191 -1.87158 0
M  V30 1807 O 179.831 1.20025 -1.39067 0
M  V30 1808 C 179.893 -1.78305 -3.12166 0
M  V30 1809 C 179.557 -3.27502 -3.18734 0
M  V30 1810 C 180.554 -4.2409 -3.00738 0
M  V30 1811 C 178.239 -3.68269 -3.4159 0
M  V30 1812 C 180.233 -5.59422 -3.05492 0
M  V30 1813 C 177.92 -5.0373 -3.45977 0
M  V30 1814 C 178.918 -5.99116 -3.27946 0
M  V30 1815 O 178.606 -7.32108 -3.32074 0
M  V30 1816 H 178.338 -0.406931 -0.539799 0
M  V30 1817 H 180.892 -1.69078 -1.16626 0
M  V30 1818 H 179.122 -1.20528 -3.67437 0
M  V30 1819 H 180.811 -1.62154 -3.72103 0
M  V30 1820 H 181.577 -3.93931 -2.82919 0
M  V30 1821 H 177.456 -2.94496 -3.54673 0
M  V30 1822 H 181 -6.33852 -2.91337 0
M  V30 1823 H 176.897 -5.33543 -3.63321 0
M  V30 1824 H 177.665 -7.40598 -3.48507 0
M  V30 1825 N 180.328 1.1314 -1.09713 0
M  V30 1826 C 181.238 2.22242 -0.751367 0
M  V30 1827 C 182.254 1.72224 0.247938 0
M  V30 1828 O 183.43 2.01205 0.0885463 0
M  V30 1829 C 180.495 3.46231 -0.180274 0
M  V30 1830 C 179.556 4.11125 -1.2359 0
M  V30 1831 C 178.789 5.29195 -0.691966 0
M  V30 1832 O 179.012 5.68342 0.48414 0
M  V30 1833 O 177.946 5.84214 -1.44838 0
M  V30 1834 H 181.772 2.54197 -1.66186 0
M  V30 1835 H 179.357 1.21331 -0.871735 0
M  V30 1836 H 181.239 4.21185 0.134739 0
M  V30 1837 H 179.914 3.1597 0.703185 0
M  V30 1838 H 178.821 3.37985 -1.60366 0
M  V30 1839 H 180.154 4.45524 -2.09211 0
M  V30 1840 N 181.806 0.884767 1.30421 0
M  V30 1841 C 182.716 0.355398 2.31892 0
M  V30 1842 C 183.732 -0.542261 1.65335 0
M  V30 1843 O 184.908 -0.435432 1.96637 0
M  V30 1844 C 181.973 -0.421661 3.44126 0
M  V30 1845 C 181.034 0.505727 4.26311 0
M  V30 1846 C 180.267 -0.234343 5.33185 0
M  V30 1847 O 180.49 -1.46045 5.51386 0
M  V30 1848 O 179.424 0.415443 6.00465 0
M  V30 1849 H 183.25 1.19685 2.79122 0
M  V30 1850 H 180.835 0.648596 1.34587 0
M  V30 1851 H 182.717 -0.861641 4.12497 0
M  V30 1852 H 181.392 -1.23942 2.99032 0
M  V30 1853 H 180.299 0.994513 3.60639 0
M  V30 1854 H 181.632 1.28948 4.75009 0
M  V30 1855 N 183.284 -1.43765 0.645699 0
M  V30 1856 C 184.532 -2.01499 0.155731 0
M  V30 1857 C 184.853 -1.51151 -1.232 0
M  V30 1858 O 184.123 -0.721044 -1.82148 0
M  V30 1859 H 182.703 -0.745003 0.0545817 0
M  V30 1860 H 185.365 -1.76075 0.835677 0
M  V30 1861 H 184.461 -3.1181 0.134577 0
M  V30 1862 N 184.763 -0.387143 -1.52771 0
M  V30 1863 C 186.04 0.253197 -1.93954 0
M  V30 1864 C 186.42 1.64545 -1.32243 0
M  V30 1865 O 185.768 2.23191 -0.489699 0
M  V30 1866 C 185.978 0.281722 -3.47861 0
M  V30 1867 C 187.326 0.511715 -4.21505 0
M  V30 1868 O 188.35 0.362023 -3.54356 0
M  V30 1869 O 187.209 0.804847 -5.40541 0
M  V30 1870 H 184.303 0.156845 -0.811991 0
M  V30 1871 H 186.849 -0.441494 -1.63856 0
M  V30 1872 H 185.621 -0.693571 -3.85104 0
M  V30 1873 H 185.244 1.02142 -3.84256 0
M  V30 1874 N 186.241 1.57166 -0.116904 0
M  V30 1875 C 187.151 2.18745 0.847812 0
M  V30 1876 C 188.167 1.163 1.29423 0
M  V30 1877 O 189.343 1.48761 1.35765 0
M  V30 1878 C 186.408 2.77307 2.0809 0
M  V30 1879 C 185.469 3.94781 1.68661 0
M  V30 1880 C 184.702 4.50541 2.86091 0
M  V30 1881 O 184.925 4.05202 4.01456 0
M  V30 1882 O 183.859 5.41256 2.63298 0
M  V30 1883 H 187.685 3.01632 0.353778 0
M  V30 1884 H 185.27 1.49005 0.108599 0
M  V30 1885 H 187.152 3.14647 2.80313 0
M  V30 1886 H 185.827 1.97452 2.56504 0
M  V30 1887 H 184.734 3.62214 0.935518 0
M  V30 1888 H 186.067 4.76065 1.24991 0
M  V30 1889 N 187.719 -0.156864 1.56817 0
M  V30 1890 C 188.949 -0.885031 1.86684 0
M  V30 1891 C 189.357 -1.75696 0.701954 0
M  V30 1892 O 188.7 -1.80569 -0.337732 0
M  V30 1893 C 188.762 -1.80092 3.11138 0
M  V30 1894 C 188.426 -1.10714 4.43386 0
M  V30 1895 C 189.423 -0.465714 5.1781 0
M  V30 1896 C 187.108 -1.09959 4.90117 0
M  V30 1897 C 189.102 0.174002 6.37162 0
M  V30 1898 C 186.789 -0.456055 6.09396 0
M  V30 1899 C 187.787 0.179622 6.82764 0
M  V30 1900 O 187.475 0.812975 7.99779 0
M  V30 1901 H 187.207 -0.261813 0.623242 0
M  V30 1902 H 189.761 -0.157383 2.04796 0
M  V30 1903 H 187.991 -2.56926 2.89009 0
M  V30 1904 H 189.68 -2.40018 3.27332 0
M  V30 1905 H 190.446 -0.463427 4.82781 0
M  V30 1906 H 186.325 -1.58378 4.3294 0
M  V30 1907 H 189.869 0.670765 6.94368 0
M  V30 1908 H 185.766 -0.455975 6.43888 0
M  V30 1909 H 186.534 0.71366 8.15383 0
M  V30 1910 N 189.197 -1.51736 -0.425897 0
M  V30 1911 C 190.444 -1.6497 -1.17436 0
M  V30 1912 C 190.772 -0.371445 -1.9092 0
M  V30 1913 O 190.027 0.644963 -1.84767 0
M  V30 1914 C 190.326 -2.81103 -2.20717 0
M  V30 1915 C 189.992 -4.19954 -1.64162 0
M  V30 1916 C 188.654 -4.57725 -1.48462 0
M  V30 1917 C 191.006 -5.06552 -1.22696 0
M  V30 1918 C 188.334 -5.79789 -0.897873 0
M  V30 1919 C 190.686 -6.29205 -0.654464 0
M  V30 1920 C 189.35 -6.6574 -0.484456 0
M  V30 1921 H 188.62 -0.603668 -0.429727 0
M  V30 1922 H 191.267 -1.85798 -0.463829 0
M  V30 1923 H 189.572 -2.54542 -2.97852 0
M  V30 1924 H 191.269 -2.8854 -2.78471 0
M  V30 1925 H 187.859 -3.90181 -1.77361 0
M  V30 1926 H 192.043 -4.77968 -1.33642 0
M  V30 1927 H 187.299 -6.06733 -0.75402 0
M  V30 1928 H 191.473 -6.95643 -0.324694 0
M  V30 1929 H 189.1 -7.60195 -0.0276833 0
M  V30 1930 N 190.675 0.682077 -1.42076 0
M  V30 1931 C 191.952 1.43755 -1.32642 0
M  V30 1932 C 192.332 2.11063 0.0396611 0
M  V30 1933 O 191.68 2.02701 1.05474 0
M  V30 1934 C 191.89 2.44596 -2.48946 0
M  V30 1935 C 193.238 3.09454 -2.9073 0
M  V30 1936 O 194.262 2.54922 -2.48783 0
M  V30 1937 O 193.121 4.08253 -3.63307 0
M  V30 1938 H 190.215 0.640857 -0.522715 0
M  V30 1939 H 192.761 0.711415 -1.54068 0
M  V30 1940 H 191.533 1.93609 -3.40046 0
M  V30 1941 H 191.156 3.24701 -2.29467 0
M  V30 1942 N 192.153 1.28127 0.917671 0
M  V30 1943 C 193.1 1.11717 2.0196 0
M  V30 1944 C 194.07 0.0153929 1.66093 0
M  V30 1945 O 195.255 0.179596 1.89953 0
M  V30 1946 C 192.395 0.780927 3.36148 0
M  V30 1947 C 191.508 1.96135 3.84909 0
M  V30 1948 C 190.643 1.56609 5.0759 0
M  V30 1949 C 189.682 2.71339 5.48673 0
M  V30 1950 N 188.819 2.32332 6.62545 0
M  V30 1951 H 193.659 2.06003 2.15329 0
M  V30 1952 H 191.196 1.02535 1.05475 0
M  V30 1953 H 193.154 0.56675 4.13333 0
M  V30 1954 H 191.784 -0.124998 3.22558 0
M  V30 1955 H 190.836 2.28777 3.03916 0
M  V30 1956 H 192.148 2.82165 4.1132 0
M  V30 1957 H 191.302 1.31374 5.92305 0
M  V30 1958 H 190.041 0.677014 4.82978 0
M  V30 1959 H 189.046 2.97276 4.62501 0
M  V30 1960 H 190.271 3.60882 5.75274 0
M  V30 1961 H 188.217 1.45889 6.39572 0
M  V30 1962 H 188.134 3.11899 6.88662 0
M  V30 1963 H 189.402 2.10371 7.50576 0
M  V30 1964 N 193.631 -1.12557 1.10312 0
M  V30 1965 C 194.579 -2.20325 0.745629 0
M  V30 1966 C 195.573 -1.67429 -0.25763 0
M  V30 1967 O 196.779 -1.79612 -0.118132 0
M  V30 1968 H 193.154 -0.718118 0.223182 0
M  V30 1969 H 195.125 -2.47733 1.66346 0
M  V30 1970 C 193.874 -3.47168 0.192262 0
M  V30 1971 H 193.197 -3.88215 0.955475 0
M  V30 1972 H 194.637 -4.23995 -0.0198274 0
M  V30 1973 C 193.096 -3.19298 -1.07472 0
M  V30 1974 O 193.626 -3.3891 -2.15645 0
M  V30 1975 N 191.832 -2.73113 -0.992847 0
M  V30 1976 H 191.379 -2.57354 -0.112474 0
M  V30 1977 H 191.337 -2.54842 -1.84127 0
M  V30 1978 N 195.109 -0.891671 -1.2995 0
M  V30 1979 C 196.039 -0.379797 -2.30391 0
M  V30 1980 C 197.02 0.540919 -1.6127 0
M  V30 1981 O 198.205 0.453352 -1.88834 0
M  V30 1982 C 195.335 0.400654 -3.44981 0
M  V30 1983 C 194.289 -0.428905 -4.25846 0
M  V30 1984 C 193.615 0.478557 -5.32554 0
M  V30 1985 C 194.915 -1.67458 -4.94727 0
M  V30 1986 H 196.609 -1.21914 -2.73454 0
M  V30 1987 H 194.155 -0.587675 -1.31462 0
M  V30 1988 H 196.108 0.769434 -4.14316 0
M  V30 1989 H 194.832 1.27371 -3.0074 0
M  V30 1990 H 193.491 -0.779911 -3.58208 0
M  V30 1991 H 193.139 1.34951 -4.84559 0
M  V30 1992 H 192.839 -0.0727433 -5.87555 0
M  V30 1993 H 194.363 0.843705 -6.04743 0
M  V30 1994 H 195.777 -1.376 -5.56542 0
M  V30 1995 H 194.174 -2.16659 -5.59624 0
M  V30 1996 H 195.244 -2.41518 -4.20473 0
M  V30 1997 N 196.587 1.43421 -0.653314 0
M  V30 1998 C 197.55 2.29182 0.0287951 0
M  V30 1999 C 198.55 1.42213 0.750465 0
M  V30 2000 O 199.74 1.63843 0.591701 0
M  V30 2001 C 196.872 3.24278 1.05151 0
M  V30 2002 H 198.065 2.90985 -0.725786 0
M  V30 2003 H 195.618 1.50702 -0.414545 0
M  V30 2004 H 196.353 2.6737 1.83532 0
M  V30 2005 H 196.138 3.88396 0.537687 0
M  V30 2006 H 197.628 3.88647 1.52786 0
M  V30 2007 N 198.065 0.39524 1.52563 0
M  V30 2008 C 198.995 -0.428384 2.29537 0
M  V30 2009 C 199.976 -1.05831 1.33169 0
M  V30 2010 O 201.161 -1.06995 1.62067 0
M  V30 2011 C 198.291 -1.55274 3.10656 0
M  V30 2012 C 197.245 -1.04855 4.14957 0
M  V30 2013 C 196.571 -2.26543 4.84337 0
M  V30 2014 C 197.871 -0.112324 5.22179 0
M  V30 2015 H 199.565 0.213867 2.98635 0
M  V30 2016 H 197.111 0.104298 1.43622 0
M  V30 2017 H 199.064 -2.1358 3.63265 0
M  V30 2018 H 197.788 -2.22266 2.39302 0
M  V30 2019 H 196.447 -0.487985 3.63338 0
M  V30 2020 H 196.095 -2.92059 4.09525 0
M  V30 2021 H 195.795 -1.93466 5.54837 0
M  V30 2022 H 197.319 -2.85481 5.39753 0
M  V30 2023 H 198.733 -0.603752 5.70112 0
M  V30 2024 H 197.13 0.128968 5.99961 0
M  V30 2025 H 198.2 0.837052 4.77621 0
M  V30 2026 N 199.544 -1.57102 0.125237 0
M  V30 2027 C 200.791 -1.95407 -0.531248 0
M  V30 2028 C 201.119 -1.0089 -1.66287 0
M  V30 2029 O 200.374 -0.0339431 -1.95671 0
M  V30 2030 C 200.673 -3.40096 -1.09862 0
M  V30 2031 C 200.339 -4.50815 -0.0876989 0
M  V30 2032 C 199.001 -4.80824 0.19026 0
M  V30 2033 C 201.353 -5.17724 0.600902 0
M  V30 2034 C 198.681 -5.75058 1.163 0
M  V30 2035 C 201.033 -6.13005 1.56231 0
M  V30 2036 C 199.697 -6.41403 1.8482 0
M  V30 2037 H 198.967 -0.715046 -0.194397 0
M  V30 2038 H 201.614 -1.90373 0.207463 0
M  V30 2039 H 199.919 -3.41855 -1.91422 0
M  V30 2040 H 201.616 -3.6705 -1.61478 0
M  V30 2041 H 198.206 -4.27444 -0.314528 0
M  V30 2042 H 202.39 -4.94691 0.399333 0
M  V30 2043 H 197.646 -5.95362 1.39117 0
M  V30 2044 H 201.82 -6.63934 2.10153 0
M  V30 2045 H 199.447 -7.14229 2.60349 0
M  V30 2046 N 201.022 0.148545 -1.56898 0
M  V30 2047 C 201.932 1.20293 -2.01412 0
M  V30 2048 C 202.948 1.47107 -0.929273 0
M  V30 2049 O 204.124 1.58807 -1.23863 0
M  V30 2050 C 201.189 2.51682 -2.38447 0
M  V30 2051 C 200.25 2.32529 -3.60872 0
M  V30 2052 C 199.483 3.57653 -3.96132 0
M  V30 2053 O 199.706 4.63771 -3.32073 0
M  V30 2054 O 198.64 3.50408 -4.89385 0
M  V30 2055 H 202.466 0.855025 -2.91416 0
M  V30 2056 H 200.051 0.357151 -1.45068 0
M  V30 2057 H 201.933 3.29147 -2.63135 0
M  V30 2058 H 200.608 2.86006 -1.51599 0
M  V30 2059 H 199.515 1.53019 -3.41373 0
M  V30 2060 H 200.848 2.03121 -4.48333 0
M  V30 2061 N 202.5 1.5196 0.417844 0
M  V30 2062 C 203.41 1.77554 1.53336 0
M  V30 2063 C 204.426 0.660655 1.6097 0
M  V30 2064 O 205.602 0.945099 1.77848 0
M  V30 2065 C 202.667 1.91291 2.89152 0
M  V30 2066 C 201.728 3.15183 2.91475 0
M  V30 2067 C 200.961 3.28256 4.20813 0
M  V30 2068 O 201.184 2.46798 5.14244 0
M  V30 2069 O 200.118 4.21356 4.29817 0
M  V30 2070 H 203.944 2.7222 1.34647 0
M  V30 2071 H 201.529 1.36698 0.602828 0
M  V30 2072 H 203.411 2.02199 3.69721 0
M  V30 2073 H 202.086 0.998129 3.07927 0
M  V30 2074 H 200.993 3.09739 2.09791 0
M  V30 2075 H 202.326 4.06414 2.77648 0
M  V30 2076 N 203.978 -0.674533 1.42435 0
M  V30 2077 C 204.888 -1.81751 1.48337 0
M  V30 2078 C 205.904 -1.69975 0.372099 0
M  V30 2079 O 207.08 -1.91521 0.62304 0
M  V30 2080 C 204.145 -3.17895 1.38361 0
M  V30 2081 C 203.206 -3.41625 2.59982 0
M  V30 2082 C 202.439 -4.71274 2.50473 0
M  V30 2083 O 202.662 -5.49197 1.54075 0
M  V30 2084 O 201.596 -4.96254 3.4061 0
M  V30 2085 H 205.422 -1.79728 2.44809 0
M  V30 2086 H 203.007 -0.830312 1.24202 0
M  V30 2087 H 204.889 -3.99136 1.35161 0
M  V30 2088 H 203.564 -3.20555 0.450144 0
M  V30 2089 H 202.471 -2.60231 2.68757 0
M  V30 2090 H 203.804 -3.43796 3.52229 0
M  V30 2091 N 205.456 -1.28612 -0.910864 0
M  V30 2092 C 206.389 -1.07109 -2.01502 0
M  V30 2093 C 207.367 0.013706 -1.62594 0
M  V30 2094 O 208.551 -0.134796 -1.88017 0
M  V30 2095 C 205.678 -0.628255 -3.32822 0
M  V30 2096 C 204.724 -1.71012 -3.90714 0
M  V30 2097 S 205.557 -3.30676 -4.21205 0
M  V30 2098 C 206.713 -2.88234 -5.55583 0
M  V30 2099 H 206.946 -2.00591 -2.19432 0
M  V30 2100 H 204.479 -1.12633 -1.05609 0
M  V30 2101 H 206.437 -0.37946 -4.08742 0
M  V30 2102 H 205.098 0.28678 -3.12788 0
M  V30 2103 H 204.291 -1.35195 -4.85529 0
M  V30 2104 H 203.893 -1.91186 -3.21441 0
M  V30 2105 H 206.185 -2.34584 -6.35591 0
M  V30 2106 H 207.128 -3.81857 -5.96314 0
M  V30 2107 H 207.536 -2.26862 -5.16908 0
M  V30 2108 N 206.934 1.1197 -1.10907 0
M  V30 2109 C 208.211 1.79959 -0.766432 0
M  V30 2110 C 208.591 1.97466 0.746363 0
M  V30 2111 O 207.939 1.55491 1.67436 0
M  V30 2112 C 208.149 3.14009 -1.52314 0
M  V30 2113 C 209.497 3.89134 -1.69883 0
M  V30 2114 O 210.521 3.2368 -1.48692 0
M  V30 2115 O 209.38 5.06572 -2.05054 0
M  V30 2116 H 206.474 0.779208 -0.277062 0
M  V30 2117 H 209.02 1.18762 -1.21217 0
M  V30 2118 H 207.792 2.96587 -2.55249 0
M  V30 2119 H 207.415 3.82915 -1.07059 0
M  V30 2120 N 208.412 0.89855 1.29475 0
M  V30 2121 C 209.64 0.539261 1.99749 0
M  V30 2122 C 210.055 -0.875716 1.67262 0
M  V30 2123 O 209.412 -1.57786 0.917049 0
M  V30 2124 C 209.463 0.72061 3.54245 0
M  V30 2125 O 209.184 2.07989 3.8558 0
M  V30 2126 C 210.685 0.366118 4.41786 0
M  V30 2127 H 207.905 0.207047 0.638258 0
M  V30 2128 H 210.449 1.20758 1.65039 0
M  V30 2129 H 208.604 0.0994862 3.87272 0
M  V30 2130 H 209.018 2.10841 4.80257 0
M  V30 2131 H 210.492 0.543848 5.49314 0
M  V30 2132 H 210.969 -0.696763 4.33638 0
M  V30 2133 H 211.575 0.964135 4.14228 0
M  V30 2134 N 209.89 -1.43072 0.660911 0
M  V30 2135 C 211.306 -1.56169 0.329173 0
M  V30 2136 C 211.506 -1.64317 -1.16629 0
M  V30 2137 O 210.562 -1.60245 -1.95135 0
M  V30 2138 C 211.875 -2.81873 1.04729 0
M  V30 2139 C 213.423 -2.95627 1.02828 0
M  V30 2140 C 213.898 -4.24174 1.72744 0
M  V30 2141 N 215.389 -4.31055 1.69545 0
M  V30 2142 C 216.124 -5.29304 2.20511 0
M  V30 2143 N 215.62 -6.33786 2.79799 0
M  V30 2144 N 217.413 -5.21008 2.10966 0
M  V30 2145 H 209.564 -1.36027 1.63127 0
M  V30 2146 H 211.827 -0.653823 0.686454 0
M  V30 2147 H 211.533 -2.81942 2.10242 0
M  V30 2148 H 211.407 -3.72338 0.603702 0
M  V30 2149 H 213.794 -2.95094 -0.0184742 0
M  V30 2150 H 213.875 -2.06431 1.51063 0
M  V30 2151 H 213.519 -4.25467 2.7738 0
M  V30 2152 H 213.449 -5.1228 1.2197 0
M  V30 2153 H 215.94 -3.56174 1.26288 0
M  V30 2154 H 216.253 -7.05086 3.16344 0
M  V30 2155 H 214.598 -6.34387 2.83863 0
M  V30 2156 H 217.789 -4.38301 1.64347 0
M  V30 2157 H 217.962 -5.97416 2.50993 0
M  V30 2158 N 211.368 -0.403325 -1.52352 0
M  V30 2159 C 212.779 0.0675782 -1.86578 0
M  V30 2160 C 213.13 1.44941 -1.32236 0
M  V30 2161 O 212.255 2.06112 -0.659307 0
M  V30 2162 C 212.85 0.129404 -3.38553 0
M  V30 2163 C 211.409 0.544629 -3.72439 0
M  V30 2164 C 210.556 -0.284551 -2.75836 0
M  V30 2165 H 213.507 -0.620631 -1.46061 0
M  V30 2166 H 213.528 0.94581 -3.68558 0
M  V30 2167 H 213.04 -0.87645 -3.78074 0
M  V30 2168 H 211.141 1.55734 -3.38493 0
M  V30 2169 H 211.254 0.293046 -4.78203 0
M  V30 2170 H 209.618 0.252258 -2.53448 0
M  V30 2171 H 210.401 -1.28865 -3.18196 0
M  V30 2172 N 212.846 1.57033 -0.133567 0
M  V30 2173 C 213.793 2.16074 0.811208 0
M  V30 2174 C 214.763 1.08979 1.2535 0
M  V30 2175 O 215.948 1.36958 1.32843 0
M  V30 2176 C 213.088 2.77595 2.05024 0
M  V30 2177 C 212.201 3.99042 1.65498 0
M  V30 2178 C 211.336 4.48603 2.84479 0
M  V30 2179 C 210.375 5.62547 2.41262 0
M  V30 2180 N 209.512 6.06787 3.53206 0
M  V30 2181 H 214.352 2.96477 0.300906 0
M  V30 2182 H 211.889 1.46462 0.136822 0
M  V30 2183 H 213.847 3.11402 2.77642 0
M  V30 2184 H 212.477 1.99859 2.53488 0
M  V30 2185 H 211.529 3.71302 0.826981 0
M  V30 2186 H 212.841 4.81629 1.29748 0
M  V30 2187 H 211.995 4.84395 3.65303 0
M  V30 2188 H 210.734 3.64995 3.23465 0
M  V30 2189 H 209.739 5.26345 1.58874 0
M  V30 2190 H 210.964 6.47931 2.03377 0
M  V30 2191 H 208.91 5.26117 3.91838 0
M  V30 2192 H 208.827 6.84266 3.21427 0
M  V30 2193 H 210.095 6.4722 4.34427 0
M  V30 2194 N 214.325 -0.140222 1.56975 0
M  V30 2195 C 215.571 -0.852949 1.83991 0
M  V30 2196 C 215.904 -1.80512 0.716187 0
M  V30 2197 O 215.179 -1.92479 -0.279681 0
M  V30 2198 C 215.462 -1.6215 3.21527 0
M  V30 2199 C 215.315 -0.690363 4.4447 0
M  V30 2200 C 216.634 -2.58247 3.56366 0
M  V30 2201 H 213.753 -0.308634 0.669264 0
M  V30 2202 H 216.395 -0.117898 1.89634 0
M  V30 2203 H 214.545 -2.24812 3.16847 0
M  V30 2204 H 216.217 -0.0742264 4.6124 0
M  V30 2205 H 214.46 -0.000396433 4.338 0
M  V30 2206 H 215.131 -1.2643 5.37326 0
M  V30 2207 H 217.607 -2.05701 3.61699 0
M  V30 2208 H 216.483 -3.09067 4.53617 0
M  V30 2209 H 216.744 -3.39923 2.82674 0
M  V30 2210 N 215.803 -1.52179 -0.40978 0
M  V30 2211 C 217.028 -1.70347 -1.18308 0
M  V30 2212 C 217.453 -0.411887 -1.83535 0
M  V30 2213 O 216.811 0.630587 -1.6998 0
M  V30 2214 C 216.859 -2.83977 -2.22238 0
M  V30 2215 O 215.963 -2.495 -3.28365 0
M  V30 2216 H 215.304 -0.567103 -0.345384 0
M  V30 2217 H 217.834 -1.98879 -0.480445 0
M  V30 2218 H 217.844 -3.0887 -2.66577 0
M  V30 2219 H 216.519 -3.77685 -1.74146 0
M  V30 2220 H 215.096 -2.35277 -2.89308 0
M  V30 2221 N 217.281 0.66697 -1.42791 0
M  V30 2222 C 218.506 1.46004 -1.47301 0
M  V30 2223 C 218.931 1.87894 -0.0880317 0
M  V30 2224 O 218.289 1.56502 0.915253 0
M  V30 2225 C 218.337 2.68031 -2.41229 0
M  V30 2226 O 217.441 3.6659 -1.88906 0
M  V30 2227 H 216.782 0.43832 -0.49877 0
M  V30 2228 H 219.312 0.817391 -1.87563 0
M  V30 2229 H 219.322 3.1601 -2.58073 0
M  V30 2230 H 217.997 2.36883 -3.41847 0
M  V30 2231 H 216.574 3.25661 -1.81656 0
M  V30 2232 N 218.759 1.29093 0.90403 0
M  V30 2233 C 219.689 1.16401 2.02418 0
M  V30 2234 C 220.67 0.0593085 1.69997 0
M  V30 2235 O 221.855 0.238021 1.92736 0
M  V30 2236 C 218.985 0.835233 3.37107 0
M  V30 2237 C 217.939 1.89578 3.83724 0
M  V30 2238 C 217.265 1.42041 5.15489 0
M  V30 2239 C 218.565 3.30394 4.04521 0
M  V30 2240 H 220.259 2.10109 2.13295 0
M  V30 2241 H 217.805 1.01157 1.02486 0
M  V30 2242 H 219.758 0.733169 4.14973 0
M  V30 2243 H 218.482 -0.137543 3.2631 0
M  V30 2244 H 217.141 1.98715 3.08071 0
M  V30 2245 H 216.789 0.436426 5.01103 0
M  V30 2246 H 216.489 2.12964 5.4765 0
M  V30 2247 H 218.013 1.33176 5.959 0
M  V30 2248 H 219.427 3.24123 4.72882 0
M  V30 2249 H 217.824 3.99237 4.48029 0
M  V30 2250 H 218.894 3.73692 3.09002 0
M  V30 2251 N 220.237 -1.11381 1.11499 0
M  V30 2252 C 221.167 -2.19509 0.796125 0
M  V30 2253 C 222.148 -1.68458 -0.235796 0
M  V30 2254 O 223.333 -1.93947 -0.0991344 0
M  V30 2255 C 220.463 -3.46475 0.239205 0
M  V30 2256 C 219.417 -4.10744 1.20307 0
M  V30 2257 C 218.743 -5.32293 0.50683 0
M  V30 2258 C 220.043 -4.55597 2.55399 0
M  V30 2259 H 221.737 -2.46439 1.70024 0
M  V30 2260 H 219.283 -1.18446 0.818935 0
M  V30 2261 H 221.236 -4.214 0.00392006 0
M  V30 2262 H 219.96 -3.19006 -0.700206 0
M  V30 2263 H 218.619 -3.37813 1.42399 0
M  V30 2264 H 218.267 -5.01095 -0.437408 0
M  V30 2265 H 217.967 -5.76243 1.1497 0
M  V30 2266 H 219.491 -6.09956 0.280351 0
M  V30 2267 H 220.905 -5.21841 2.37391 0
M  V30 2268 H 219.302 -5.10363 3.15673 0
M  V30 2269 H 220.372 -3.69013 3.14575 0
M  V30 2270 N 221.715 -0.905404 -1.28997 0
M  V30 2271 C 222.663 -0.377431 -2.29517 0
M  V30 2272 C 223.657 0.526461 -1.61012 0
M  V30 2273 O 224.863 0.40863 -1.753 0
M  V30 2274 H 221.238 -0.103437 -0.744852 0
M  V30 2275 H 223.209 -1.23848 -2.71485 0
M  V30 2276 C 221.958 0.374833 -3.45674 0
M  V30 2277 H 221.281 -0.311474 -3.98585 0
M  V30 2278 H 222.721 0.70903 -4.1803 0
M  V30 2279 C 221.18 1.57963 -2.97572 0
M  V30 2280 O 221.71 2.67886 -2.99333 0
M  V30 2281 N 219.916 1.42375 -2.53333 0
M  V30 2282 H 219.463 0.529466 -2.521 0
M  V30 2283 H 219.421 2.23117 -2.21509 0
M  V30 2284 N 223.193 1.4272 -0.668489 0
M  V30 2285 C 224.609 1.55992 -0.33745 0
M  V30 2286 C 224.809 1.64933 1.15756 0
M  V30 2287 O 223.865 1.61278 1.94282 0
M  V30 2288 C 225.178 2.81314 -1.06222 0
M  V30 2289 C 226.726 2.95078 -1.04394 0
M  V30 2290 C 227.201 4.23252 -1.74991 0
M  V30 2291 N 228.692 4.3015 -1.71829 0
M  V30 2292 C 229.427 5.28127 -2.23315 0
M  V30 2293 N 228.923 6.32293 -2.83156 0
M  V30 2294 N 230.716 5.19882 -2.13726 0
M  V30 2295 H 222.867 1.3516 -1.63846 0
M  V30 2296 H 225.13 0.650174 -0.689912 0
M  V30 2297 H 224.836 2.80823 -2.11734 0
M  V30 2298 H 224.71 3.72012 -0.62344 0
M  V30 2299 H 227.097 2.951 0.0028244 0
M  V30 2300 H 227.178 2.05627 -1.52155 0
M  V30 2301 H 226.822 4.2399 -2.79633 0
M  V30 2302 H 226.752 5.11626 -1.24685 0
M  V30 2303 H 229.243 3.55499 -1.28175 0
M  V30 2304 H 229.556 7.03398 -3.20079 0
M  V30 2305 H 227.901 6.32873 -2.87223 0
M  V30 2306 H 231.092 4.37423 -1.66669 0
M  V30 2307 H 231.265 5.96077 -2.54158 0
M  V30 2308 N 224.671 0.411399 1.52136 0
M  V30 2309 C 225.604 -0.457614 2.23565 0
M  V30 2310 C 226.582 -1.04613 1.24478 0
M  V30 2311 O 227.766 -1.09356 1.53536 0
M  V30 2312 C 224.893 -1.6354 2.96602 0
M  V30 2313 C 223.939 -1.17005 4.10137 0
M  V30 2314 S 224.772 -0.13333 5.35334 0
M  V30 2315 C 225.928 -1.31638 6.119 0
M  V30 2316 H 226.161 0.148883 2.96927 0
M  V30 2317 H 223.694 0.195713 1.53155 0
M  V30 2318 H 225.652 -2.31074 3.39286 0
M  V30 2319 H 224.313 -2.21324 2.22878 0
M  V30 2320 H 223.506 -2.05005 4.60422 0
M  V30 2321 H 223.108 -0.573319 3.6958 0
M  V30 2322 H 225.4 -2.23957 6.39413 0
M  V30 2323 H 226.343 -0.854014 7.02931 0
M  V30 2324 H 226.751 -1.54321 5.42997 0
M  V30 2325 N 226.149 -1.5696 0.141893 0
M  V30 2326 C 227.112 -2.15316 -0.785587 0
M  V30 2327 C 228.112 -1.09366 -1.1788 0
M  V30 2328 O 229.302 -1.35031 -1.10056 0
M  V30 2329 C 226.434 -2.71211 -2.06537 0
M  V30 2330 H 227.627 -2.98608 -0.278041 0
M  V30 2331 H 225.18 -1.5593 -0.107519 0
M  V30 2332 H 225.915 -1.91571 -2.6167 0
M  V30 2333 H 225.7 -3.4872 -1.79268 0
M  V30 2334 H 227.19 -3.16189 -2.72789 0
M  V30 2335 N 227.627 0.131896 -1.57047 0
M  V30 2336 C 228.575 1.18146 -2.0036 0
M  V30 2337 C 229.569 1.43614 -0.898406 0
M  V30 2338 O 230.775 1.43729 -1.08361 0
M  V30 2339 H 227.15 0.398042 -0.638018 0
M  V30 2340 H 229.121 0.789564 -2.87765 0
M  V30 2341 C 227.87 2.50341 -2.41298 0
M  V30 2342 H 227.193 2.31578 -3.25902 0
M  V30 2343 H 228.633 3.22371 -2.75414 0
M  V30 2344 C 227.092 3.11984 -1.27153 0
M  V30 2345 O 227.622 3.97484 -0.580459 0
M  V30 2346 N 225.828 2.71662 -1.03189 0
M  V30 2347 H 225.375 2.02231 -1.59564 0
M  V30 2348 H 225.333 3.13238 -0.270077 0
M  V30 2349 N 229.106 1.52395 0.401703 0
M  V30 2350 C 230.336 1.70429 1.1678 0
M  V30 2351 C 230.744 0.416702 1.84554 0
M  V30 2352 O 230.087 -0.617697 1.73003 0
M  V30 2353 C 230.149 2.78919 2.26814 0
M  V30 2354 C 229.813 4.20437 1.79113 0
M  V30 2355 C 230.81 5.04028 1.27482 0
M  V30 2356 C 228.495 4.66704 1.85722 0
M  V30 2357 C 230.489 6.31961 0.830913 0
M  V30 2358 C 228.176 5.94625 1.40942 0
M  V30 2359 C 229.174 6.77082 0.897128 0
M  V30 2360 O 228.862 8.02607 0.455822 0
M  V30 2361 H 228.594 0.574272 0.356634 0
M  V30 2362 H 231.148 1.99767 0.477724 0
M  V30 2363 H 229.378 2.44973 2.99207 0
M  V30 2364 H 231.067 2.8548 2.88541 0
M  V30 2365 H 231.833 4.69471 1.21744 0
M  V30 2366 H 227.712 4.0262 2.24539 0
M  V30 2367 H 231.256 6.96271 0.430368 0
M  V30 2368 H 227.153 6.28688 1.46362 0
M  V30 2369 H 227.921 8.16453 0.578457 0
M  V30 2370 N 230.584 -0.659388 1.43143 0
M  V30 2371 C 231.812 -1.44723 1.47861 0
M  V30 2372 C 232.227 -1.88563 0.0945886 0
M  V30 2373 O 231.584 -1.59108 -0.893915 0
M  V30 2374 C 231.635 -2.68627 2.41913 0
M  V30 2375 O 231.356 -2.26623 3.74932 0
M  V30 2376 C 232.857 -3.62045 2.55809 0
M  V30 2377 H 230.077 -0.444801 0.502387 0
M  V30 2378 H 232.621 -0.808916 1.87821 0
M  V30 2379 H 230.776 -3.28613 2.05164 0
M  V30 2380 H 231.19 -3.06745 4.2545 0
M  V30 2381 H 232.664 -4.45666 3.25708 0
M  V30 2382 H 233.141 -4.08981 1.60099 0
M  V30 2383 H 233.747 -3.07944 2.93344 0
M  V30 2384 N 232.062 -1.29571 -0.897171 0
M  V30 2385 C 233.01 -1.14802 -2.02295 0
M  V30 2386 C 234.004 -0.0629637 -1.69283 0
M  V30 2387 O 235.21 -0.222945 -1.78614 0
M  V30 2388 H 231.585 -0.354692 -0.663097 0
M  V30 2389 H 233.556 -2.10108 -2.11889 0
M  V30 2390 C 232.305 -0.843966 -3.37302 0
M  V30 2391 H 231.628 -1.67093 -3.63208 0
M  V30 2392 H 233.068 -0.780672 -4.16751 0
M  V30 2393 C 231.527 0.452843 -3.33843 0
M  V30 2394 O 232.057 1.47813 -3.73516 0
M  V30 2395 N 230.263 0.459601 -2.86943 0
M  V30 2396 H 229.81 -0.375213 -2.54853 0
M  V30 2397 H 229.768 1.32726 -2.85011 0
M  V30 2398 N 233.54 1.10788 -1.12088 0
M  V30 2399 C 234.47 2.19083 -0.807755 0
M  V30 2400 C 235.451 1.6858 0.226859 0
M  V30 2401 O 236.636 1.93997 0.0888475 0
M  V30 2402 C 233.766 3.46344 -0.257576 0
M  V30 2403 C 232.72 4.101 -1.22483 0
M  V30 2404 C 232.046 5.32016 -0.535052 0
M  V30 2405 C 233.346 4.54236 -2.57811 0
M  V30 2406 H 235.04 2.45534 -1.71328 0
M  V30 2407 H 232.586 1.1801 -0.825205 0
M  V30 2408 H 234.539 4.21392 -0.0262679 0
M  V30 2409 H 233.263 3.19373 0.683278 0
M  V30 2410 H 231.922 3.37054 -1.44189 0
M  V30 2411 H 231.57 5.01319 0.410827 0
M  V30 2412 H 231.27 5.75625 -1.18024 0
M  V30 2413 H 232.794 6.09799 -0.312695 0
M  V30 2414 H 234.208 5.20575 -2.40155 0
M  V30 2415 H 232.605 5.08682 -3.18375 0
M  V30 2416 H 233.675 3.6734 -3.16528 0
M  V30 2417 N 235.018 0.912232 1.28515 0
M  V30 2418 C 236.246 0.560416 1.99166 0
M  V30 2419 C 236.661 -0.857927 1.68182 0
M  V30 2420 O 236.018 -1.56805 0.933733 0
M  V30 2421 C 236.069 0.758142 3.53461 0
M  V30 2422 O 235.79 2.12067 3.83352 0
M  V30 2423 C 237.291 0.412954 4.41372 0
M  V30 2424 H 234.511 0.213805 0.636026 0
M  V30 2425 H 237.055 1.22502 1.63749 0
M  V30 2426 H 235.21 0.140556 3.87145 0
M  V30 2427 H 235.624 2.15923 4.77993 0
M  V30 2428 H 237.098 0.60208 5.48707 0
M  V30 2429 H 237.575 -0.65073 4.34353 0
M  V30 2430 H 238.181 1.00802 4.13182 0
M  V30 2431 N 236.496 -1.42363 0.676048 0
M  V30 2432 C 237.428 -2.29164 -0.0404605 0
M  V30 2433 C 238.441 -1.43747 -0.764245 0
M  V30 2434 O 239.63 -1.67453 -0.618195 0
M  V30 2435 C 236.73 -3.21196 -1.08103 0
M  V30 2436 C 235.903 -4.35273 -0.430812 0
M  V30 2437 C 234.962 -5.08017 -1.37133 0
M  V30 2438 O 233.988 -5.62494 -0.87116 0
M  V30 2439 N 235.19 -5.13647 -2.70456 0
M  V30 2440 H 237.955 -2.91298 0.704667 0
M  V30 2441 H 235.516 -1.53303 0.520559 0
M  V30 2442 H 237.508 -3.66728 -1.71152 0
M  V30 2443 H 236.078 -2.60505 -1.72788 0
M  V30 2444 H 235.298 -3.92372 0.379209 0
M  V30 2445 H 236.586 -5.08795 0.0221132 0
M  V30 2446 H 235.984 -4.708 -3.1363 0
M  V30 2447 H 234.541 -5.62821 -3.28749 0
M  V30 2448 N 237.974 -0.419461 -1.51915 0
M  V30 2449 C 239.222 0.152637 -2.01523 0
M  V30 2450 C 239.543 1.44762 -1.30649 0
M  V30 2451 O 238.813 1.90997 -0.435535 0
M  V30 2452 H 237.393 0.0593966 -0.744635 0
M  V30 2453 H 240.055 -0.558073 -1.86739 0
M  V30 2454 H 239.151 0.341369 -3.10227 0
M  V30 2455 N 239.452 1.56882 -0.150215 0
M  V30 2456 C 240.415 2.1573 0.774157 0
M  V30 2457 C 241.415 1.0999 1.17298 0
M  V30 2458 O 242.605 1.35613 1.09338 0
M  V30 2459 C 239.737 2.72302 2.05096 0
M  V30 2460 H 240.93 2.98752 0.262201 0
M  V30 2461 H 238.483 1.55985 0.099248 0
M  V30 2462 H 239.218 1.92956 2.6065 0
M  V30 2463 H 239.003 3.49665 1.77416 0
M  V30 2464 H 240.493 3.17632 2.71109 0
M  V30 2465 N 240.93 -0.123565 1.57115 0
M  V30 2466 C 241.877 -1.15177 2.00007 0
M  V30 2467 C 242.847 -1.41403 0.871454 0
M  V30 2468 O 244.032 -1.53346 1.13533 0
M  V30 2469 C 241.172 -2.47436 2.40561 0
M  V30 2470 C 240.285 -2.28184 3.66819 0
M  V30 2471 C 239.42 -3.53641 3.96373 0
M  V30 2472 C 238.459 -3.29528 5.15827 0
M  V30 2473 N 237.596 -4.47175 5.41275 0
M  V30 2474 H 242.436 -0.779008 2.87638 0
M  V30 2475 H 239.973 -0.373166 1.42288 0
M  V30 2476 H 241.931 -3.24584 2.62109 0
M  V30 2477 H 240.561 -2.82614 1.55978 0
M  V30 2478 H 239.613 -1.41976 3.52912 0
M  V30 2479 H 240.925 -2.0634 4.5412 0
M  V30 2480 H 240.079 -4.39209 4.18545 0
M  V30 2481 H 238.818 -3.78512 3.07538 0
M  V30 2482 H 237.823 -2.42349 4.93505 0
M  V30 2483 H 239.048 -3.06031 6.06236 0
M  V30 2484 H 236.994 -4.72175 4.55397 0
M  V30 2485 H 236.911 -4.28419 6.22891 0
M  V30 2486 H 238.179 -5.3389 5.67963 0
M  V30 2487 N 242.408 -1.52605 -0.393616 0
M  V30 2488 C 243.318 -1.79971 -1.50492 0
M  V30 2489 C 244.334 -0.686181 -1.59899 0
M  V30 2490 O 245.51 -0.973274 -1.76322 0
M  V30 2491 C 242.575 -1.95867 -2.86072 0
M  V30 2492 C 241.636 -3.19781 -2.86424 0
M  V30 2493 C 240.869 -3.34909 -4.15538 0
M  V30 2494 O 241.092 -2.54948 -5.10253 0
M  V30 2495 O 240.026 -4.28141 -4.23059 0
M  V30 2496 H 243.852 -2.74328 -1.30299 0
M  V30 2497 H 241.437 -1.3764 -0.581005 0
M  V30 2498 H 243.319 -2.08056 -3.66457 0
M  V30 2499 H 241.994 -1.04699 -3.063 0
M  V30 2500 H 240.901 -3.13038 -2.04837 0
M  V30 2501 H 242.234 -4.1078 -2.71147 0
M  V30 2502 N 243.887 0.651787 -1.4349 0
M  V30 2503 C 244.837 1.75783 -1.45205 0
M  V30 2504 C 245.821 1.57679 -0.320328 0
M  V30 2505 O 247.013 1.67767 -0.564211 0
M  V30 2506 C 244.142 3.14377 -1.3792 0
M  V30 2507 C 243.228 3.38023 -2.56127 0
M  V30 2508 N 243.619 3.32135 -3.81471 0
M  V30 2509 C 241.917 3.68747 -2.50882 0
M  V30 2510 C 242.618 3.55902 -4.60118 0
M  V30 2511 N 241.594 3.77783 -3.90872 0
M  V30 2512 H 245.396 1.69657 -2.39987 0
M  V30 2513 H 242.91 0.853508 -1.38163 0
M  V30 2514 H 244.907 3.93666 -1.37231 0
M  V30 2515 H 243.567 3.21683 -0.441596 0
M  V30 2516 H 244.578 3.11515 -4.13738 0
M  V30 2517 H 241.255 3.8316 -1.65816 0
M  V30 2518 H 242.645 3.57116 -5.69138 0
M  V30 2519 N 245.365 1.30045 0.890287 0
M  V30 2520 C 246.275 1.17885 2.02831 0
M  V30 2521 C 247.291 0.0999609 1.73713 0
M  V30 2522 O 248.467 0.313867 1.98939 0
M  V30 2523 C 245.532 0.866079 3.35708 0
M  V30 2524 C 244.593 2.02979 3.78283 0
M  V30 2525 C 243.826 1.73184 5.0482 0
M  V30 2526 O 244.049 0.657237 5.66601 0
M  V30 2527 O 242.983 2.58267 5.43674 0
M  V30 2528 H 246.809 2.13474 2.16015 0
M  V30 2529 H 244.394 1.09587 1.01543 0
M  V30 2530 H 246.276 0.706623 4.15433 0
M  V30 2531 H 244.951 -0.0599443 3.23644 0
M  V30 2532 H 243.858 2.24454 2.99285 0
M  V30 2533 H 245.191 2.93734 3.94944 0
M  V30 2534 N 246.843 -1.10192 1.12674 0
M  V30 2535 C 247.753 -2.20172 0.810026 0
M  V30 2536 C 248.769 -1.72821 -0.202188 0
M  V30 2537 O 249.945 -2.01369 -0.0351691 0
M  V30 2538 C 247.01 -3.45631 0.272007 0
M  V30 2539 C 246.071 -4.07704 1.34447 0
M  V30 2540 C 245.304 -5.27175 0.832029 0
M  V30 2541 O 245.527 -5.69425 -0.333284 0
M  V30 2542 O 244.461 -5.80168 1.60277 0
M  V30 2543 H 248.287 -2.49701 1.72867 0
M  V30 2544 H 245.872 -1.18977 0.903597 0
M  V30 2545 H 247.754 -4.21394 -0.0230219 0
M  V30 2546 H 246.429 -3.17723 -0.619164 0
M  V30 2547 H 245.336 -3.33614 1.6927 0
M  V30 2548 H 246.669 -4.3982 2.2095 0
M  V30 2549 N 248.321 -0.919034 -1.28029 0
M  V30 2550 C 249.284 -0.416182 -2.2539 0
M  V30 2551 C 250.284 0.460438 -1.54067 0
M  V30 2552 O 251.474 0.262744 -1.72207 0
M  V30 2553 C 248.606 0.402707 -3.38513 0
M  V30 2554 H 249.799 -1.27629 -2.71387 0
M  V30 2555 H 247.352 -0.698919 -1.39803 0
M  V30 2556 H 248.087 1.282 -2.97885 0
M  V30 2557 H 247.872 -0.225698 -3.9145 0
M  V30 2558 H 249.362 0.745191 -4.10897 0
M  V30 2559 N 249.799 1.42003 -0.683588 0
M  V30 2560 C 250.709 2.34597 -0.0109075 0
M  V30 2561 C 251.725 1.55576 0.779245 0
M  V30 2562 O 252.901 1.88107 0.719555 0
M  V30 2563 C 249.966 3.34199 0.922588 0
M  V30 2564 C 249.027 4.29115 0.125984 0
M  V30 2565 C 248.26 5.23959 1.01502 0
M  V30 2566 O 248.483 5.23952 2.25456 0
M  V30 2567 O 247.417 6.00053 0.47111 0
M  V30 2568 H 251.243 2.93675 -0.773853 0
M  V30 2569 H 248.828 1.42654 -0.443861 0
M  V30 2570 H 250.71 3.95365 1.45823 0
M  V30 2571 H 249.385 2.77582 1.66523 0
M  V30 2572 H 248.292 3.71335 -0.453969 0
M  V30 2573 H 249.625 4.88798 -0.577736 0
M  V30 2574 N 251.277 0.427512 1.51691 0
M  V30 2575 C 252.225 -0.403359 2.29076 0
M  V30 2576 C 253.219 -1.02962 1.34518 0
M  V30 2577 O 254.425 -0.965715 1.51901 0
M  V30 2578 H 250.8 -0.148879 0.737115 0
M  V30 2579 H 252.771 0.270295 2.97173 0
M  V30 2580 C 251.52 -1.49763 3.13794 0
M  V30 2581 H 250.843 -1.02508 3.86435 0
M  V30 2582 H 252.283 -2.05244 3.71014 0
M  V30 2583 C 250.742 -2.47536 2.28533 0
M  V30 2584 O 251.272 -3.51848 1.93819 0
M  V30 2585 N 249.478 -2.18187 1.91945 0
M  V30 2586 H 249.025 -1.33389 2.20375 0
M  V30 2587 H 248.983 -2.83848 1.35195 0
M  V30 2588 N 252.755 -1.56801 0.158532 0
M  V30 2589 C 254.004 -1.95665 -0.489702 0
M  V30 2590 C 254.317 -1.04654 -1.65248 0
M  V30 2591 O 255.523 -1.33146 -2.3661 0
M  V30 2592 C 253.979 -3.47874 -0.922582 0
M  V30 2593 C 253.587 -4.47489 0.213893 0
M  V30 2594 C 255.331 -3.95583 -1.53996 0
M  V30 2595 C 253.238 -5.90921 -0.237903 0
M  V30 2596 H 252.168 -0.730516 -0.186716 0
M  V30 2597 H 254.819 -1.81861 0.244722 0
M  V30 2598 H 253.201 -3.57051 -1.71261 0
M  V30 2599 H 254.375 -4.50017 0.991036 0
M  V30 2600 H 252.69 -4.09764 0.740407 0
M  V30 2601 H 255.287 -5.0019 -1.8898 0
M  V30 2602 H 255.63 -3.37789 -2.43319 0
M  V30 2603 H 256.163 -3.8937 -0.814611 0
M  V30 2604 H 252.902 -6.52559 0.620236 0
M  V30 2605 H 252.422 -5.91729 -0.980676 0
M  V30 2606 H 254.101 -6.43352 -0.686067 0
M  V30 2607 N 254.233 0.115231 -1.57178 0
M  V30 2608 C 255.461 0.836437 -1.89239 0
M  V30 2609 C 255.876 1.73256 -0.750175 0
M  V30 2610 O 255.233 1.80357 0.278832 0
M  V30 2611 C 255.284 1.66671 -3.20785 0
M  V30 2612 O 255.005 0.806652 -4.3061 0
M  V30 2613 C 256.506 2.49274 -3.66575 0
M  V30 2614 H 253.726 0.240253 -0.626514 0
M  V30 2615 H 256.27 0.0984932 -2.04263 0
M  V30 2616 H 254.425 2.35737 -3.0742 0
M  V30 2617 H 254.839 1.37969 -5.06028 0
M  V30 2618 H 256.313 3.03055 -4.6137 0
M  V30 2619 H 256.79 3.26807 -2.93417 0
M  V30 2620 H 257.396 1.85443 -3.82741 0
M  V30 2621 N 255.711 1.52812 0.385517 0
M  V30 2622 C 256.621 1.80766 1.49535 0
M  V30 2623 C 257.637 0.694651 1.59532 0
M  V30 2624 O 258.813 0.982611 1.75803 0
M  V30 2625 C 255.878 1.97381 2.85029 0
M  V30 2626 C 254.939 3.21295 2.84724 0
M  V30 2627 C 254.172 3.37108 4.13756 0
M  V30 2628 O 254.395 2.5765 5.08893 0
M  V30 2629 O 253.329 4.30378 4.20783 0
M  V30 2630 H 257.155 2.75015 1.28842 0
M  V30 2631 H 254.74 1.37946 0.573697 0
M  V30 2632 H 256.622 2.09996 3.65349 0
M  V30 2633 H 255.297 1.06322 3.05741 0
M  V30 2634 H 254.204 3.1412 2.03174 0
M  V30 2635 H 255.537 4.12212 2.68965 0
M  V30 2636 N 257.189 -0.644168 1.43834 0
M  V30 2637 C 258.437 -1.40117 1.45642 0
M  V30 2638 C 258.758 -1.94814 0.0852413 0
M  V30 2639 O 258.028 -1.74988 -0.880688 0
M  V30 2640 H 256.608 -0.52005 0.536243 0
M  V30 2641 H 259.27 -0.7591 1.7951 0
M  V30 2642 H 258.366 -2.23902 2.17427 0
M  V30 2643 N 258.668 -1.30515 -0.883378 0
M  V30 2644 C 259.615 -1.17032 -1.98927 0
M  V30 2645 C 260.585 -0.0594241 -1.65994 0
M  V30 2646 O 261.77 -0.229895 -1.8941 0
M  V30 2647 C 258.91 -0.869777 -3.33959 0
M  V30 2648 C 258.023 -2.06271 -3.79574 0
M  V30 2649 C 257.158 -1.70011 -5.03259 0
M  V30 2650 C 256.197 -2.8579 -5.41286 0
M  V30 2651 N 255.334 -2.49816 -6.56153 0
M  V30 2652 H 260.174 -2.1164 -2.09792 0
M  V30 2653 H 257.711 -1.05296 -1.02719 0
M  V30 2654 H 259.669 -0.676138 -4.11685 0
M  V30 2655 H 258.299 0.0394332 -3.22776 0
M  V30 2656 H 257.351 -2.36755 -2.97744 0
M  V30 2657 H 258.663 -2.92971 -4.03694 0
M  V30 2658 H 257.817 -1.47032 -5.88614 0
M  V30 2659 H 256.556 -0.804829 -4.81013 0
M  V30 2660 H 255.561 -3.09434 -4.54456 0
M  V30 2661 H 256.786 -3.76008 -5.65504 0
M  V30 2662 H 254.732 -1.62795 -6.35479 0
M  V30 2663 H 254.649 -3.30048 -6.8015 0
M  V30 2664 H 255.917 -2.30197 -7.44735 0
M  V30 2665 N 260.146 1.09593 -1.13257 0
M  V30 2666 C 261.093 2.1618 -0.808381 0
M  V30 2667 C 262.063 1.64517 0.228754 0
M  V30 2668 O 263.248 1.9053 0.101381 0
M  V30 2669 C 260.388 3.43973 -0.278675 0
M  V30 2670 C 259.501 4.09545 -1.37466 0
M  V30 2671 C 258.636 5.25088 -0.803479 0
M  V30 2672 C 257.675 5.82579 -1.87799 0
M  V30 2673 N 256.812 6.89486 -1.32488 0
M  V30 2674 H 261.652 2.43254 -1.72138 0
M  V30 2675 H 259.189 1.19392 -0.859294 0
M  V30 2676 H 261.147 4.17174 0.0465583 0
M  V30 2677 H 259.777 3.17223 0.597459 0
M  V30 2678 H 258.829 3.34226 -1.81652 0
M  V30 2679 H 260.141 4.48307 -2.18684 0
M  V30 2680 H 259.295 6.05178 -0.429427 0
M  V30 2681 H 258.034 4.87684 0.0397956 0
M  V30 2682 H 257.039 5.01152 -2.26113 0
M  V30 2683 H 258.264 6.22045 -2.72463 0
M  V30 2684 H 256.21 6.54064 -0.503575 0
M  V30 2685 H 256.127 7.27007 -2.07355 0
M  V30 2686 H 257.395 7.73336 -0.978336 0
M  V30 2687 N 261.624 0.925811 1.2754 0
M  V30 2688 C 262.571 0.422045 2.26908 0
M  V30 2689 C 263.541 -0.510029 1.58076 0
M  V30 2690 O 264.726 -0.429599 1.85901 0
M  V30 2691 C 261.866 -0.320837 3.43605 0
M  V30 2692 C 260.979 0.64513 4.27156 0
M  V30 2693 C 260.114 -0.117405 5.3107 0
M  V30 2694 C 259.153 0.841391 6.0629 0
M  V30 2695 N 258.29 0.111604 7.02011 0
M  V30 2696 H 263.13 1.27441 2.69375 0
M  V30 2697 H 260.667 0.639697 1.32462 0
M  V30 2698 H 262.625 -0.76785 4.10073 0
M  V30 2699 H 261.255 -1.13745 3.02096 0
M  V30 2700 H 260.307 1.21067 3.6062 0
M  V30 2701 H 261.619 1.37797 4.79389 0
M  V30 2702 H 260.773 -0.624422 6.03478 0
M  V30 2703 H 259.512 -0.883219 4.79636 0
M  V30 2704 H 258.517 1.35967 5.32722 0
M  V30 2705 H 259.742 1.60696 6.59813 0
M  V30 2706 H 257.688 -0.635999 6.5291 0
M  V30 2707 H 257.605 0.784044 7.51923 0
M  V30 2708 H 258.873 -0.374823 7.78598 0
M  V30 2709 N 263.102 -1.41638 0.69111 0
M  V30 2710 C 264.513 -1.84346 0.295517 0
M  V30 2711 C 264.864 -1.57833 -1.16547 0
M  V30 2712 O 263.989 -1.04648 -1.89414 0
M  V30 2713 C 264.584 -3.34636 0.529575 0
M  V30 2714 C 263.143 -3.7593 0.187944 0
M  V30 2715 C 262.29 -2.65082 0.814052 0
M  V30 2716 H 265.241 -1.31253 0.892092 0
M  V30 2717 H 265.262 -3.79903 -0.213148 0
M  V30 2718 H 264.774 -3.53901 1.59297 0
M  V30 2719 H 262.875 -3.62268 -0.871367 0
M  V30 2720 H 262.988 -4.74808 0.63985 0
M  V30 2721 H 261.352 -2.53528 0.244017 0
M  V30 2722 H 262.135 -2.87167 1.88123 0
M  V30 2723 N 264.58 -0.43555 -1.51462 0
M  V30 2724 C 265.808 0.130242 -2.0649 0
M  V30 2725 C 266.223 1.36614 -1.30315 0
M  V30 2726 O 265.58 1.78869 -0.362223 0
M  V30 2727 C 265.631 0.454253 -3.58635 0
M  V30 2728 O 265.352 -0.73259 -4.31931 0
M  V30 2729 C 266.853 1.07091 -4.3017 0
M  V30 2730 H 264.073 0.00871669 -0.670943 0
M  V30 2731 H 266.617 -0.614117 -1.95061 0
M  V30 2732 H 264.772 1.14851 -3.69984 0
M  V30 2733 H 265.186 -0.455787 -5.22516 0
M  V30 2734 H 266.66 1.24764 -5.37716 0
M  V30 2735 H 267.137 2.05144 -3.88346 0
M  V30 2736 H 267.743 0.416089 -4.2326 0
M  V30 2737 N 266.058 1.56714 -0.166846 0
M  V30 2738 C 267.005 2.17746 0.765193 0
M  V30 2739 C 267.975 1.11614 1.23011 0
M  V30 2740 O 269.16 1.39745 1.29908 0
M  V30 2741 C 266.3 2.81882 1.9909 0
M  V30 2742 C 265.413 4.02462 1.56997 0
M  V30 2743 C 264.548 4.54537 2.749 0
M  V30 2744 C 263.587 5.67538 2.29275 0
M  V30 2745 N 262.724 6.14142 3.40255 0
M  V30 2746 H 267.564 2.97048 0.237952 0
M  V30 2747 H 265.101 1.4672 0.105725 0
M  V30 2748 H 267.059 3.17221 2.70974 0
M  V30 2749 H 265.689 2.05191 2.49192 0
M  V30 2750 H 264.741 3.72973 0.748037 0
M  V30 2751 H 266.053 4.84273 1.19503 0
M  V30 2752 H 265.207 4.92035 3.54946 0
M  V30 2753 H 263.946 3.71774 3.1565 0
M  V30 2754 H 262.951 5.29597 1.47674 0
M  V30 2755 H 264.176 6.52099 1.89588 0
M  V30 2756 H 262.122 5.3431 3.8059 0
M  V30 2757 H 262.039 6.9093 3.06841 0
M  V30 2758 H 263.307 6.56289 4.206 0
M  V30 2759 N 267.536 -0.106894 1.57237 0
M  V30 2760 C 268.764 -0.826389 1.8968 0
M  V30 2761 C 269.179 -1.72856 0.759353 0
M  V30 2762 O 268.536 -1.80503 -0.269263 0
M  V30 2763 C 268.587 -1.64967 3.21665 0
M  V30 2764 O 268.308 -0.783804 4.31031 0
M  V30 2765 C 269.809 -2.47326 3.67892 0
M  V30 2766 H 267.029 -0.236927 0.627779 0
M  V30 2767 H 269.573 -0.0876593 2.04312 0
M  V30 2768 H 267.728 -2.34103 3.08666 0
M  V30 2769 H 268.142 -1.35284 5.06753 0
M  V30 2770 H 269.616 -3.00604 4.6297 0
M  V30 2771 H 270.093 -3.25247 2.95146 0
M  V30 2772 H 270.699 -1.83411 3.83719 0
M  V30 2773 N 269.014 -1.53014 -0.377408 0
M  V30 2774 C 270.425 -1.60438 -0.954798 0
M  V30 2775 C 270.776 -0.464418 -1.90624 0
M  V30 2776 O 269.901 0.41087 -2.12464 0
M  V30 2777 C 270.496 -2.90797 -1.73847 0
M  V30 2778 C 269.055 -3.00595 -2.26538 0
M  V30 2779 C 268.202 -2.55645 -1.07429 0
M  V30 2780 H 271.153 -1.57926 -0.156575 0
M  V30 2781 H 271.174 -2.77935 -2.5987 0
M  V30 2782 H 270.686 -3.73746 -1.04574 0
M  V30 2783 H 268.787 -2.22208 -2.99089 0
M  V30 2784 H 268.9 -4.05456 -2.5523 0
M  V30 2785 H 267.264 -2.10239 -1.43777 0
M  V30 2786 H 268.047 -3.41 -0.396728 0
M  V30 2787 N 270.492 0.636531 -1.44174 0
M  V30 2788 C 271.424 1.7618 -1.46606 0
M  V30 2789 C 272.437 1.58768 -0.360091 0
M  V30 2790 O 273.626 1.67181 -0.625518 0
M  V30 2791 C 270.726 3.13833 -1.27915 0
M  V30 2792 C 269.899 3.57753 -2.51658 0
M  V30 2793 C 268.958 4.74265 -2.27945 0
M  V30 2794 O 267.984 4.82852 -3.01401 0
M  V30 2795 N 269.186 5.65604 -1.30662 0
M  V30 2796 H 271.951 1.74567 -2.43612 0
M  V30 2797 H 269.512 0.820924 -1.39544 0
M  V30 2798 H 271.504 3.8949 -1.09907 0
M  V30 2799 H 270.074 3.10121 -0.39293 0
M  V30 2800 H 269.294 2.72362 -2.84978 0
M  V30 2801 H 270.582 3.83847 -3.33974 0
M  V30 2802 H 269.98 5.61354 -0.699844 0
M  V30 2803 H 268.537 6.40913 -1.18634 0
M  V30 2804 N 271.97 1.30982 0.876444 0
M  V30 2805 C 272.903 1.12414 1.98591 0
M  V30 2806 C 273.881 0.0294078 1.62573 0
M  V30 2807 O 275.065 0.184598 1.87594 0
M  V30 2808 C 272.192 0.716276 3.3104 0
M  V30 2809 C 271.238 1.81311 3.86042 0
M  V30 2810 S 272.071 3.41727 4.1229 0
M  V30 2811 C 273.227 3.02863 5.47745 0
M  V30 2812 H 273.46 2.06338 2.14037 0
M  V30 2813 H 270.993 1.15393 1.02586 0
M  V30 2814 H 272.951 0.487697 4.07593 0
M  V30 2815 H 271.612 -0.203749 3.13438 0
M  V30 2816 H 270.805 1.48021 4.81774 0
M  V30 2817 H 270.407 1.99641 3.16259 0
M  V30 2818 H 272.699 2.51353 6.29148 0
M  V30 2819 H 273.642 3.97533 5.8598 0
M  V30 2820 H 274.05 2.40487 5.10711 0
M  V30 2821 N 273.449 -1.08991 1.13837 0
M  V30 2822 C 274.697 -1.80899 0.901098 0
M  V30 2823 C 275.018 -1.86356 -0.574134 0
M  V30 2824 O 274.288 -1.35235 -1.41733 0
M  V30 2825 H 272.868 -0.669966 0.330386 0
M  V30 2826 H 275.53 -1.318 1.43578 0
M  V30 2827 H 274.626 -2.83929 1.29578 0
M  V30 2828 N 274.927 -0.932562 -1.27047 0
M  V30 2829 C 276.155 -0.592031 -1.98249 0
M  V30 2830 C 276.57 0.831062 -1.69525 0
M  V30 2831 O 275.927 1.55299 -0.958561 0
M  V30 2832 C 275.978 -0.814279 -3.5221 0
M  V30 2833 O 275.699 -2.18139 -3.7993 0
M  V30 2834 C 277.2 -0.483121 -4.4066 0
M  V30 2835 H 274.42 -0.223896 -0.632544 0
M  V30 2836 H 276.964 -1.25091 -1.61779 0
M  V30 2837 H 275.119 -0.20213 -3.86872 0
M  V30 2838 H 275.533 -2.235 -4.74498 0
M  V30 2839 H 277.007 -0.689298 -5.47679 0
M  V30 2840 H 277.484 0.581546 -4.35333 0
M  V30 2841 H 278.09 -1.07362 -4.11526 0
M  V30 2842 N 276.405 1.4127 -0.698611 0
M  V30 2843 C 277.652 2.0118 -0.230865 0
M  V30 2844 C 277.98 1.55338 1.17049 0
M  V30 2845 O 277.235 0.756775 1.80475 0
M  V30 2846 C 277.534 3.56592 -0.240192 0
M  V30 2847 C 277.2 4.21955 -1.58948 0
M  V30 2848 C 275.862 4.39524 -1.95887 0
M  V30 2849 C 278.214 4.58576 -2.47704 0
M  V30 2850 C 275.542 4.90992 -3.2116 0
M  V30 2851 C 277.894 5.11435 -3.72313 0
M  V30 2852 C 276.558 5.27215 -4.0939 0
M  V30 2853 H 275.828 0.736169 -0.0844796 0
M  V30 2854 H 278.475 1.69124 -0.8983 0
M  V30 2855 H 276.78 3.88456 0.510797 0
M  V30 2856 H 278.477 4.00758 0.139296 0
M  V30 2857 H 275.067 4.08657 -1.29219 0
M  V30 2858 H 279.251 4.44654 -2.20445 0
M  V30 2859 H 274.507 5.01393 -3.49878 0
M  V30 2860 H 278.681 5.38752 -4.4127 0
M  V30 2861 H 276.308 5.66859 -5.06533 0
M  V30 2862 N 277.883 0.443576 1.51229 0
M  V30 2863 C 278.816 -0.410089 2.24485 0
M  V30 2864 C 279.794 -1.01949 1.26669 0
M  V30 2865 O 280.978 -1.06075 1.55821 0
M  V30 2866 C 278.105 -1.57211 3.00004 0
M  V30 2867 C 277.151 -1.08279 4.12526 0
M  V30 2868 S 277.984 -0.0197476 5.35496 0
M  V30 2869 C 279.14 -1.18629 6.14555 0
M  V30 2870 H 279.373 0.211832 2.96544 0
M  V30 2871 H 276.906 0.228156 1.52705 0
M  V30 2872 H 278.864 -2.23825 3.44111 0
M  V30 2873 H 277.525 -2.16547 2.27522 0
M  V30 2874 H 276.718 -1.95193 4.64667 0
M  V30 2875 H 276.32 -0.494797 3.70713 0
M  V30 2876 H 278.612 -2.10344 6.4402 0
M  V30 2877 H 279.555 -0.70472 7.04584 0
M  V30 2878 H 279.963 -1.42768 5.46148 0
M  V30 2879 N 279.361 -1.56624 0.175154 0
M  V30 2880 C 280.609 -1.96609 -0.467885 0
M  V30 2881 C 280.93 -1.06238 -1.63519 0
M  V30 2882 O 280.2 -0.129523 -1.95471 0
M  V30 2883 H 278.78 -0.726008 -0.175845 0
M  V30 2884 H 281.442 -1.93195 0.257234 0
M  V30 2885 H 280.538 -3.00989 -0.825342 0
M  V30 2886 N 280.839 0.0985539 -1.57292 0
M  V30 2887 C 282.085 0.803867 -1.86188 0
M  V30 2888 C 282.418 1.78549 -0.763794 0
M  V30 2889 O 281.693 1.93153 0.22855 0
M  V30 2890 C 281.976 1.53568 -3.25713 0
M  V30 2891 C 281.829 0.572277 -4.46145 0
M  V30 2892 C 283.148 2.48708 -3.63087 0
M  V30 2893 H 280.267 0.290781 -0.677211 0
M  V30 2894 H 282.909 0.0675783 -1.8988 0
M  V30 2895 H 281.059 2.16332 -3.22696 0
M  V30 2896 H 282.731 -0.0480894 -4.61275 0
M  V30 2897 H 280.974 -0.114618 -4.33649 0
M  V30 2898 H 281.645 1.12139 -5.40489 0
M  V30 2899 H 284.121 1.96039 -3.67026 0
M  V30 2900 H 282.997 2.96932 -4.61652 0
M  V30 2901 H 283.258 3.32309 -2.91588 0
M  V30 2902 N 282.317 1.53212 0.369288 0
M  V30 2903 C 283.547 1.72868 1.13139 0
M  V30 2904 C 283.955 0.455754 1.83629 0
M  V30 2905 O 283.298 -0.580861 1.74275 0
M  V30 2906 C 283.36 2.83667 2.20847 0
M  V30 2907 C 283.024 4.24142 1.70155 0
M  V30 2908 C 284.021 5.06619 1.16763 0
M  V30 2909 C 281.706 4.70539 1.7578 0
M  V30 2910 C 283.7 6.33581 0.696678 0
M  V30 2911 C 281.387 5.97481 1.28297 0
M  V30 2912 C 282.385 6.78833 0.753307 0
M  V30 2913 O 282.073 8.03393 0.285475 0
M  V30 2914 H 281.805 0.581707 0.344373 0
M  V30 2915 H 284.359 2.00736 0.435243 0
M  V30 2916 H 282.589 2.51265 2.93944 0
M  V30 2917 H 284.278 2.91536 2.82421 0
M  V30 2918 H 285.044 4.71948 1.11758 0
M  V30 2919 H 280.923 4.07293 2.15949 0
M  V30 2920 H 284.467 6.97027 0.282581 0
M  V30 2921 H 280.364 6.31651 1.32994 0
M  V30 2922 H 281.132 8.17497 0.405145 0
M  V30 2923 N 283.795 -0.628877 1.44509 0
M  V30 2924 C 284.725 -1.75187 1.54376 0
M  V30 2925 C 285.706 -1.65411 0.396618 0
M  V30 2926 O 286.891 -1.84137 0.617031 0
M  V30 2927 C 284.021 -3.13725 1.48976 0
M  V30 2928 C 282.975 -3.38291 2.62189 0
M  V30 2929 C 282.301 -4.76883 2.41841 0
M  V30 2930 C 283.601 -3.30632 4.04326 0
M  V30 2931 H 285.295 -1.67187 2.48373 0
M  V30 2932 H 282.841 -0.802909 1.19538 0
M  V30 2933 H 284.794 -3.92064 1.54478 0
M  V30 2934 H 283.518 -3.22515 0.514961 0
M  V30 2935 H 282.177 -2.62334 2.56079 0
M  V30 2936 H 281.825 -4.82378 1.42548 0
M  V30 2937 H 281.525 -4.94278 3.17747 0
M  V30 2938 H 283.049 -5.57449 2.49165 0
M  V30 2939 H 284.463 -3.98873 4.11793 0
M  V30 2940 H 282.86 -3.59561 4.80454 0
M  V30 2941 H 283.93 -2.28404 4.27738 0
M  V30 2942 N 285.273 -1.31445 -0.869486 0
M  V30 2943 C 286.684 -1.19042 -1.43826 0
M  V30 2944 C 287.035 0.202919 -1.95148 0
M  V30 2945 O 286.16 1.10071 -1.86315 0
M  V30 2946 C 286.755 -2.15499 -2.6143 0
M  V30 2947 C 285.314 -2.07028 -3.14351 0
M  V30 2948 C 284.461 -2.04701 -1.87063 0
M  V30 2949 H 287.412 -1.43489 -0.677984 0
M  V30 2950 H 287.433 -1.74488 -3.38134 0
M  V30 2951 H 286.945 -3.16899 -2.24046 0
M  V30 2952 H 285.046 -1.08825 -3.56354 0
M  V30 2953 H 285.159 -2.96157 -3.766 0
M  V30 2954 H 283.523 -1.49724 -2.06046 0
M  V30 2955 H 284.306 -3.07857 -1.51917 0
M  V30 2956 N 286.751 1.08385 -1.14413 0
M  V30 2957 C 287.991 1.8238 -0.922868 0
M  V30 2958 C 288.355 1.84225 0.540842 0
M  V30 2959 O 289.556 2.53985 0.880058 0
M  V30 2960 C 287.827 3.24048 -1.50757 0
M  V30 2961 S 289.386 4.14917 -1.4279 0
M  V30 2962 H 286.204 0.628524 -0.332384 0
M  V30 2963 H 288.806 1.30278 -1.45766 0
M  V30 2964 H 287.51 3.20288 -2.56601 0
M  V30 2965 H 287.041 3.81224 -0.971178 0
M  V30 2966 H 289.056 4.94473 -0.413582 0
M  V30 2967 N 288.23 0.939286 1.26551 0
M  V30 2968 C 289.16 0.465044 2.28822 0
M  V30 2969 C 290.141 -0.480692 1.63167 0
M  V30 2970 O 291.326 -0.382955 1.90387 0
M  V30 2971 C 288.456 -0.27234 3.46231 0
M  V30 2972 C 287.41 0.58666 4.2396 0
M  V30 2973 C 286.736 -0.280573 5.33963 0
M  V30 2974 C 288.036 1.85704 4.88171 0
M  V30 2975 H 289.73 1.31979 2.68741 0
M  V30 2976 H 287.276 0.636061 1.29191 0
M  V30 2977 H 289.229 -0.615133 4.16886 0
M  V30 2978 H 287.953 -1.16121 3.0526 0
M  V30 2979 H 286.612 0.91232 3.55067 0
M  V30 2980 H 286.26 -1.16874 4.89234 0
M  V30 2981 H 285.96 0.29076 5.8688 0
M  V30 2982 H 287.484 -0.618678 6.07458 0
M  V30 2983 H 288.898 1.58161 5.51052 0
M  V30 2984 H 287.295 2.37279 5.51197 0
M  V30 2985 H 288.365 2.56957 4.11219 0
M  V30 2986 N 289.708 -1.40897 0.706093 0
M  V30 2987 C 290.64 -2.29199 0.00815776 0
M  V30 2988 C 291.653 -1.45336 -0.733582 0
M  V30 2989 O 292.842 -1.68727 -0.582537 0
M  V30 2990 C 289.942 -3.23417 -1.01265 0
M  V30 2991 C 289.115 -4.36089 -0.338387 0
M  V30 2992 C 288.174 -5.10811 -1.26326 0
M  V30 2993 O 287.2 -5.64215 -0.751651 0
M  V30 2994 N 288.402 -5.19269 -2.595 0
M  V30 2995 H 291.167 -2.89738 0.766297 0
M  V30 2996 H 288.728 -1.52164 0.55296 0
M  V30 2997 H 290.72 -3.70276 -1.63334 0
M  V30 2998 H 289.29 -2.64112 -1.67223 0
M  V30 2999 H 288.51 -3.91479 0.462352 0
M  V30 3000 H 289.798 -5.08634 0.130031 0
M  V30 3001 H 289.196 -4.77347 -3.03573 0
M  V30 3002 H 287.753 -5.69667 -3.16737 0
M  V30 3003 N 291.186 -0.45159 -1.50991 0
M  V30 3004 C 292.134 0.366864 -2.29689 0
M  V30 3005 C 293.128 1.00809 -1.36139 0
M  V30 3006 O 294.334 0.941427 -1.53418 0
M  V30 3007 H 290.709 0.137133 -0.739391 0
M  V30 3008 H 292.68 -0.317538 -2.96706 0
M  V30 3009 C 291.429 1.44751 -3.16137 0
M  V30 3010 H 290.752 0.963473 -3.88017 0
M  V30 3011 H 292.192 1.99315 -3.74232 0
M  V30 3012 C 290.651 2.43869 -2.32442 0
M  V30 3013 O 291.181 3.4872 -1.99392 0
M  V30 3014 N 289.387 2.15105 -1.95392 0
M  V30 3015 H 288.934 1.29866 -2.22469 0
M  V30 3016 H 288.892 2.81661 -1.39693 0
M  V30 3017 N 292.664 1.56529 -0.183458 0
M  V30 3018 C 293.913 1.96419 0.458511 0
M  V30 3019 C 294.226 1.0727 1.63562 0
M  V30 3020 O 295.432 1.36893 2.34462 0
M  V30 3021 C 293.888 3.49298 0.867122 0
M  V30 3022 C 293.496 4.47092 -0.285057 0
M  V30 3023 C 295.24 3.97983 1.47683 0
M  V30 3024 C 293.147 5.91225 0.143862 0
M  V30 3025 H 292.077 0.733394 0.175071 0
M  V30 3026 H 294.728 1.81448 -0.273624 0
M  V30 3027 H 293.11 3.59731 1.65559 0
M  V30 3028 H 294.284 4.48383 -1.0625 0
M  V30 3029 H 292.599 4.08535 -0.805503 0
M  V30 3030 H 295.196 5.03134 1.80999 0
M  V30 3031 H 295.539 3.41618 2.37914 0
M  V30 3032 H 296.072 3.90617 0.752562 0
M  V30 3033 H 292.811 6.5149 -0.723974 0
M  V30 3034 H 292.331 5.93214 0.886413 0
M  V30 3035 H 294.01 6.44362 0.583628 0
M  V30 3036 N 294.142 -0.090211 1.57342 0
M  V30 3037 C 295.389 -0.792807 1.86335 0
M  V30 3038 C 295.717 -1.78494 0.772662 0
M  V30 3039 O 294.972 -1.94305 -0.233258 0
M  V30 3040 C 295.271 -1.55222 3.21933 0
M  V30 3041 C 294.937 -0.701765 4.45406 0
M  V30 3042 C 293.599 -0.467334 4.78925 0
M  V30 3043 C 295.951 -0.11086 5.21082 0
M  V30 3044 C 293.279 0.367785 5.85546 0
M  V30 3045 C 295.631 0.711609 6.28585 0
M  V30 3046 C 294.295 0.956086 6.60617 0
M  V30 3047 H 293.565 -0.290109 0.681849 0
M  V30 3048 H 296.212 -0.0541332 1.91423 0
M  V30 3049 H 294.517 -2.3626 3.12551 0
M  V30 3050 H 296.214 -2.10032 3.41595 0
M  V30 3051 H 292.804 -0.894598 4.1916 0
M  V30 3052 H 296.988 -0.279129 4.95514 0
M  V30 3053 H 292.244 0.566128 6.08773 0
M  V30 3054 H 296.418 1.17632 6.86393 0
M  V30 3055 H 294.045 1.60499 7.43064 0
M  V30 3056 N 295.62 -1.53406 -0.361157 0
M  V30 3057 C 296.868 -1.69467 -1.10115 0
M  V30 3058 C 297.189 -0.451352 -1.89705 0
M  V30 3059 O 296.459 0.534636 -1.88463 0
M  V30 3060 H 295.039 -0.624749 -0.409508 0
M  V30 3061 H 297.701 -1.90609 -0.406699 0
M  V30 3062 H 296.797 -2.55774 -1.78847 0
M  V30 3063 N 297.098 0.621204 -1.44841 0
M  V30 3064 C 298.344 1.3826 -1.48365 0
M  V30 3065 C 298.677 1.93831 -0.119624 0
M  V30 3066 O 297.952 1.74251 0.864111 0
M  V30 3067 C 298.235 2.54058 -2.55199 0
M  V30 3068 C 298.088 2.03772 -4.00995 0
M  V30 3069 C 299.407 3.56225 -2.58442 0
M  V30 3070 H 296.526 0.501374 -0.540179 0
M  V30 3071 H 299.168 0.7015 -1.76576 0
M  V30 3072 H 297.318 3.12162 -2.31274 0
M  V30 3073 H 298.99 1.50423 -4.36086 0
M  V30 3074 H 297.233 1.34876 -4.12299 0
M  V30 3075 H 297.904 2.87185 -4.71411 0
M  V30 3076 H 300.38 3.07939 -2.79844 0
M  V30 3077 H 299.256 4.34756 -3.3508 0
M  V30 3078 H 299.517 4.10949 -1.63013 0
M  V30 3079 N 298.576 1.31904 0.862503 0
M  V30 3080 C 299.825 1.21373 1.61094 0
M  V30 3081 C 300.138 -0.22504 1.94301 0
M  V30 3082 O 301.344 -0.452121 2.67709 0
M  V30 3083 C 299.8 2.12525 2.9045 0
M  V30 3084 C 299.408 3.61441 2.64697 0
M  V30 3085 C 301.152 2.10813 3.68454 0
M  V30 3086 C 299.059 4.44578 3.90006 0
M  V30 3087 H 297.989 0.450705 0.604468 0
M  V30 3088 H 300.64 1.56811 0.953027 0
M  V30 3089 H 299.022 1.69994 3.57656 0
M  V30 3090 H 300.196 4.12264 2.05851 0
M  V30 3091 H 298.511 3.65205 2.00036 0
M  V30 3092 H 301.108 2.70167 4.61426 0
M  V30 3093 H 301.451 1.09713 4.01583 0
M  V30 3094 H 301.984 2.51583 3.08141 0
M  V30 3095 H 298.723 5.46461 3.62023 0
M  V30 3096 H 298.243 3.98508 4.48276 0
M  V30 3097 H 299.922 4.57176 4.5782 0
M  V30 3098 N 300.054 -1.07777 1.14986 0
M  V30 3099 C 300.984 -2.16865 0.865557 0
M  V30 3100 C 301.965 -1.69123 -0.182083 0
M  V30 3101 O 303.15 -1.94164 -0.0373815 0
M  V30 3102 C 300.28 -3.45539 0.349313 0
M  V30 3103 C 299.234 -4.06708 1.33313 0
M  V30 3104 C 298.56 -5.30411 0.675918 0
M  V30 3105 C 299.86 -4.47241 2.69764 0
M  V30 3106 H 301.554 -2.40905 1.77778 0
M  V30 3107 H 299.1 -1.15781 0.856203 0
M  V30 3108 H 301.053 -4.21174 0.137983 0
M  V30 3109 H 299.777 -3.21072 -0.598362 0
M  V30 3110 H 298.436 -3.33112 1.53075 0
M  V30 3111 H 298.084 -5.02232 -0.277767 0
M  V30 3112 H 297.784 -5.72293 1.33244 0
M  V30 3113 H 299.308 -6.08755 0.474262 0
M  V30 3114 H 300.722 -5.14025 2.53873 0
M  V30 3115 H 299.119 -5.00062 3.3175 0
M  V30 3116 H 300.189 -3.58818 3.26156 0
M  V30 3117 N 301.532 -0.945985 -1.26051 0
M  V30 3118 C 302.779 -0.596118 -1.93527 0
M  V30 3119 C 303.107 0.865559 -1.74179 0
M  V30 3120 O 302.362 1.63524 -1.0751 0
M  V30 3121 C 302.661 -0.890475 -3.46129 0
M  V30 3122 C 302.327 -2.3368 -3.85622 0
M  V30 3123 C 300.989 -2.73216 -3.96114 0
M  V30 3124 C 303.341 -3.27648 -4.05334 0
M  V30 3125 C 300.669 -4.05806 -4.2372 0
M  V30 3126 C 303.021 -4.59841 -4.3443 0
M  V30 3127 C 301.685 -4.99185 -4.43137 0
M  V30 3128 H 300.955 -0.218135 -0.708165 0
M  V30 3129 H 303.602 -1.1934 -1.49768 0
M  V30 3130 H 301.907 -0.210711 -3.91233 0
M  V30 3131 H 303.604 -0.598478 -3.96509 0
M  V30 3132 H 300.194 -2.02015 -3.78005 0
M  V30 3133 H 304.378 -2.98298 -3.96651 0
M  V30 3134 H 299.634 -4.35945 -4.28675 0
M  V30 3135 H 303.808 -5.32641 -4.48628 0
M  V30 3136 H 301.435 -6.01952 -4.64282 0
M  V30 3137 N 303.011 1.40521 -0.713556 0
M  V30 3138 C 303.941 2.33381 -0.0743864 0
M  V30 3139 C 304.922 1.52784 0.747735 0
M  V30 3140 O 306.107 1.81258 0.697071 0
M  V30 3141 C 303.237 3.36748 0.849598 0
M  V30 3142 C 302.191 4.27793 0.133247 0
M  V30 3143 C 301.517 5.21679 1.17281 0
M  V30 3144 C 302.817 5.12415 -1.01134 0
M  V30 3145 H 304.511 2.87081 -0.850007 0
M  V30 3146 H 302.057 1.38034 -0.410201 0
M  V30 3147 H 304.01 4.00648 1.30612 0
M  V30 3148 H 302.734 2.81439 1.65709 0
M  V30 3149 H 301.393 3.65342 -0.303426 0
M  V30 3150 H 301.041 4.62677 1.9733 0
M  V30 3151 H 300.741 5.83435 0.698397 0
M  V30 3152 H 302.265 5.88456 1.62947 0
M  V30 3153 H 303.679 5.69781 -0.634274 0
M  V30 3154 H 302.076 5.83203 -1.41399 0
M  V30 3155 H 303.146 4.48514 -1.84292 0
M  V30 3156 N 304.489 0.459591 1.5075 0
M  V30 3157 C 305.905 0.113092 1.59199 0
M  V30 3158 C 306.105 -1.37951 1.46874 0
M  V30 3159 O 305.161 -2.15168 1.32132 0
M  V30 3160 C 306.474 0.653043 2.93523 0
M  V30 3161 C 308.022 0.615449 3.0689 0
M  V30 3162 C 308.497 1.13275 4.43771 0
M  V30 3163 N 309.988 1.09167 4.50152 0
M  V30 3164 C 310.723 1.46256 5.54434 0
M  V30 3165 N 310.219 1.90739 6.66026 0
M  V30 3166 N 312.012 1.37932 5.44914 0
M  V30 3167 H 304.163 1.43049 1.57005 0
M  V30 3168 H 306.426 0.590861 0.741341 0
M  V30 3169 H 306.132 1.69822 3.07983 0
M  V30 3170 H 306.006 0.0902132 3.77092 0
M  V30 3171 H 308.393 -0.420793 2.92084 0
M  V30 3172 H 308.474 1.21495 2.25106 0
M  V30 3173 H 308.118 2.16757 4.59324 0
M  V30 3174 H 308.048 0.509576 5.24129 0
M  V30 3175 H 310.539 0.76528 3.7007 0
M  V30 3176 H 310.852 2.17218 7.41644 0
M  V30 3177 H 309.197 1.94683 6.67176 0
M  V30 3178 H 312.388 1.0303 4.56621 0
M  V30 3179 H 312.561 1.67164 6.26067 0
M  V30 3180 N 305.967 -1.56429 0.191757 0
M  V30 3181 C 306.897 -2.21937 -0.725696 0
M  V30 3182 C 307.878 -1.1814 -1.2238 0
M  V30 3183 O 309.063 -1.46636 -1.27325 0
M  V30 3184 C 306.193 -2.87611 -1.94672 0
M  V30 3185 C 305.147 -3.97623 -1.58366 0
M  V30 3186 C 304.473 -4.50446 -2.88102 0
M  V30 3187 C 305.773 -5.16197 -0.796133 0
M  V30 3188 H 307.467 -2.98861 -0.179606 0
M  V30 3189 H 305.013 -1.43749 -0.0849464 0
M  V30 3190 H 306.966 -3.3212 -2.59373 0
M  V30 3191 H 305.69 -2.08087 -2.51728 0
M  V30 3192 H 304.349 -3.53801 -0.960247 0
M  V30 3193 H 303.997 -3.67688 -3.43241 0
M  V30 3194 H 303.697 -5.24675 -2.64556 0
M  V30 3195 H 305.221 -4.97654 -3.53798 0
M  V30 3196 H 306.635 -5.57271 -1.34618 0
M  V30 3197 H 305.032 -5.96471 -0.658928 0
M  V30 3198 H 306.102 -4.84473 0.203478 0
M  V30 3199 N 307.445 0.0818655 -1.57387 0
M  V30 3200 C 308.673 0.796108 -1.9097 0
M  V30 3201 C 309.088 1.71626 -0.786757 0
M  V30 3202 O 308.445 1.80908 0.240513 0
M  V30 3203 C 308.496 1.59829 -3.24248 0
M  V30 3204 O 308.217 0.715131 -4.32224 0
M  V30 3205 C 309.718 2.41442 -3.7178 0
M  V30 3206 H 306.938 0.22691 -0.631469 0
M  V30 3207 H 309.482 0.0551439 -2.04426 0
M  V30 3208 H 307.637 2.29163 -3.12351 0
M  V30 3209 H 308.051 1.27205 -5.08841 0
M  V30 3210 H 309.525 2.932 -4.67694 0
M  V30 3211 H 310.002 3.2051 -3.00283 0
M  V30 3212 H 310.608 1.77283 -3.86589 0
M  V30 3213 N 308.923 1.53595 0.353017 0
M  V30 3214 C 310.169 1.71581 1.09232 0
M  V30 3215 C 310.524 0.468328 1.86613 0
M  V30 3216 O 309.817 -0.538911 1.83865 0
M  V30 3217 C 310.011 2.91313 2.07054 0
M  V30 3218 C 309.84 4.27585 1.39287 0
M  V30 3219 C 308.61 4.92233 1.1417 0
M  V30 3220 C 310.808 5.07656 0.824005 0
M  V30 3221 N 308.79 6.124 0.428841 0
M  V30 3222 C 310.161 6.19531 0.241195 0
M  V30 3223 C 312.216 4.92609 0.723922 0
M  V30 3224 C 310.919 7.18002 -0.431952 0
M  V30 3225 C 312.945 5.91365 0.0645334 0
M  V30 3226 C 312.307 7.02571 -0.507347 0
M  V30 3227 H 308.406 0.680987 0.384422 0
M  V30 3228 H 310.99 1.91013 0.377096 0
M  V30 3229 H 309.161 2.73398 2.75877 0
M  V30 3230 H 310.893 2.98062 2.73753 0
M  V30 3231 H 307.648 4.51612 1.42631 0
M  V30 3232 H 308.072 6.76944 0.0874131 0
M  V30 3233 H 312.714 4.06808 1.15181 0
M  V30 3234 H 310.432 8.03384 -0.871758 0
M  V30 3235 H 314.018 5.81799 -0.0121469 0
M  V30 3236 H 312.898 7.77675 -1.0095 0
M  V30 3237 N 310.401 -0.613514 1.45168 0
M  V30 3238 C 311.647 -1.37471 1.49096 0
M  V30 3239 C 311.98 -1.93765 0.129901 0
M  V30 3240 O 311.255 -1.74707 -0.854858 0
M  V30 3241 C 311.538 -2.52701 2.56542 0
M  V30 3242 C 311.391 -2.01643 4.0207 0
M  V30 3243 C 312.71 -3.54849 2.60327 0
M  V30 3244 H 309.829 -0.498502 0.54283 0
M  V30 3245 H 312.471 -0.692125 1.76945 0
M  V30 3246 H 310.621 -3.10931 2.32926 0
M  V30 3247 H 312.293 -1.48108 4.36877 0
M  V30 3248 H 310.536 -1.32688 4.13009 0
M  V30 3249 H 311.207 -2.84681 4.72928 0
M  V30 3250 H 313.683 -3.0645 2.81474 0
M  V30 3251 H 312.559 -4.32973 3.37381 0
M  V30 3252 H 312.82 -4.10079 1.6519 0
M  V30 3253 N 311.879 -1.3236 -0.855495 0
M  V30 3254 C 313.125 -1.23054 -1.612 0
M  V30 3255 C 313.458 0.207404 -1.93089 0
M  V30 3256 O 312.733 1.14432 -1.57275 0
M  V30 3257 C 313.016 -2.08937 -2.93287 0
M  V30 3258 C 312.869 -3.61105 -2.68185 0
M  V30 3259 C 314.188 -1.94986 -3.94549 0
M  V30 3260 H 311.307 -0.448364 -0.584926 0
M  V30 3261 H 313.949 -1.62297 -0.987917 0
M  V30 3262 H 312.099 -1.75599 -3.46551 0
M  V30 3263 H 313.771 -4.04652 -2.21483 0
M  V30 3264 H 312.014 -3.83813 -2.02164 0
M  V30 3265 H 312.685 -4.16522 -3.62234 0
M  V30 3266 H 315.161 -2.24189 -3.5054 0
M  V30 3267 H 314.037 -2.57356 -4.84829 0
M  V30 3268 H 314.298 -0.917263 -4.3248 0
M  V30 3269 N 313.357 1.07166 -1.15556 0
M  V30 3270 C 314.605 1.79443 -0.929764 0
M  V30 3271 C 314.926 1.87246 0.544414 0
M  V30 3272 O 314.196 1.37473 1.39564 0
M  V30 3273 H 312.776 0.664625 -0.341003 0
M  V30 3274 H 315.438 1.29499 -1.45657 0
M  V30 3275 H 314.534 2.81832 -1.34079 0
M  V30 3276 N 314.835 0.952656 1.25548 0
M  V30 3277 C 316.063 0.623496 1.97282 0
M  V30 3278 C 316.478 -0.803987 1.70826 0
M  V30 3279 O 315.835 -1.53755 0.983147 0
M  V30 3280 C 315.886 0.870209 3.5087 0
M  V30 3281 O 315.607 2.24156 3.76412 0
M  V30 3282 C 317.108 0.553164 4.39835 0
M  V30 3283 H 314.328 0.233931 0.628902 0
M  V30 3284 H 316.872 1.27649 1.59768 0
M  V30 3285 H 315.027 0.263652 3.86502 0
M  V30 3286 H 315.441 2.31021 4.70882 0
M  V30 3287 H 316.915 0.776342 5.46513 0
M  V30 3288 H 317.392 -0.512215 4.36203 0
M  V30 3289 H 317.998 1.13896 4.09766 0
M  V30 3290 N 316.313 -1.40141 0.720998 0
M  V30 3291 C 317.276 -2.29058 0.0805834 0
M  V30 3292 C 318.276 -1.45632 -0.681758 0
M  V30 3293 O 319.466 -1.6648 -0.512856 0
M  V30 3294 C 316.598 -3.28925 -0.895593 0
M  V30 3295 H 317.791 -2.87191 0.863793 0
M  V30 3296 H 315.344 -1.48553 0.485975 0
M  V30 3297 H 316.079 -2.75822 -1.70566 0
M  V30 3298 H 315.864 -3.90519 -0.351766 0
M  V30 3299 H 317.354 -3.95494 -1.34069 0
M  V30 3300 N 317.792 -0.46758 -1.50504 0
M  V30 3301 C 319.04 0.0884469 -2.01906 0
M  V30 3302 C 319.361 1.40532 -1.35188 0
M  V30 3303 O 318.631 1.89515 -0.496079 0
M  V30 3304 H 317.211 0.0356765 -0.746148 0
M  V30 3305 H 319.873 -0.6172 -1.84869 0
M  V30 3306 H 318.969 0.2425 -3.11156 0
M  V30 3307 N 319.27 1.56325 -0.20005 0
M  V30 3308 C 320.516 1.98012 0.438059 0
M  V30 3309 C 320.849 1.08702 1.60927 0
M  V30 3310 O 320.124 0.140064 1.93995 0
M  V30 3311 C 320.407 3.48841 0.893419 0
M  V30 3312 C 320.26 4.48928 -0.279947 0
M  V30 3313 C 321.579 4.03498 1.75719 0
M  V30 3314 H 318.698 0.719918 0.157757 0
M  V30 3315 H 321.34 1.87743 -0.291968 0
M  V30 3316 H 319.49 3.57723 1.51547 0
M  V30 3317 H 321.162 4.52079 -0.91772 0
M  V30 3318 H 319.405 4.23694 -0.930919 0
M  V30 3319 H 320.076 5.5194 0.0812601 0
M  V30 3320 H 322.552 3.97427 1.23253 0
M  V30 3321 H 321.428 5.09393 2.04476 0
M  V30 3322 H 321.689 3.4906 2.71311 0
M  V30 3323 N 320.748 -0.0735177 1.57428 0
M  V30 3324 C 321.678 -1.0879 2.06608 0
M  V30 3325 C 322.659 -1.40473 0.959237 0
M  V30 3326 O 323.844 -1.5013 1.23185 0
M  V30 3327 C 320.974 -2.40183 2.50857 0
M  V30 3328 C 319.928 -2.22858 3.65402 0
M  V30 3329 C 319.254 -3.59619 3.957 0
M  V30 3330 C 320.554 -1.65123 4.95511 0
M  V30 3331 H 322.248 -0.678673 2.91607 0
M  V30 3332 H 319.794 -0.325013 1.40284 0
M  V30 3333 H 321.747 -3.11437 2.83874 0
M  V30 3334 H 320.471 -2.83083 1.62885 0
M  V30 3335 H 319.13 -1.54045 3.32664 0
M  V30 3336 H 318.778 -4.00086 3.04861 0
M  V30 3337 H 318.478 -3.48866 4.72828 0
M  V30 3338 H 320.002 -4.32306 4.31212 0
M  V30 3339 H 321.416 -2.26241 5.26771 0
M  V30 3340 H 319.813 -1.65071 5.7695 0
M  V30 3341 H 320.883 -0.612559 4.81015 0
M  V30 3342 N 322.226 -1.5378 -0.344866 0
M  V30 3343 C 323.158 -1.77988 -1.44406 0
M  V30 3344 C 324.171 -0.661138 -1.48771 0
M  V30 3345 O 325.36 -0.937842 -1.51877 0
M  V30 3346 C 322.46 -1.86345 -2.8307 0
M  V30 3347 C 321.633 -3.16256 -3.0216 0
M  V30 3348 C 320.692 -3.15588 -4.21059 0
M  V30 3349 O 319.718 -3.89314 -4.15239 0
M  V30 3350 N 320.92 -2.37864 -5.29529 0
M  V30 3351 H 323.685 -2.72839 -1.24012 0
M  V30 3352 H 321.246 -1.52814 -0.534737 0
M  V30 3353 H 323.238 -1.83351 -3.60783 0
M  V30 3354 H 321.808 -0.986858 -2.96614 0
M  V30 3355 H 321.028 -3.32385 -2.11929 0
M  V30 3356 H 322.316 -4.0207 -3.11797 0
M  V30 3357 H 321.714 -1.77514 -5.37127 0
M  V30 3358 H 320.271 -2.40668 -6.05741 0
M  V30 3359 N 323.704 0.605807 -1.45491 0
M  V30 3360 C 324.667 1.69836 -1.5391 0
M  V30 3361 C 325.667 1.55261 -0.418424 0
M  V30 3362 O 326.857 1.60296 -0.681965 0
M  V30 3363 C 323.989 3.09117 -1.43734 0
M  V30 3364 H 325.182 1.63738 -2.51257 0
M  V30 3365 H 322.735 0.821689 -1.32959 0
M  V30 3366 H 323.47 3.20791 -0.475788 0
M  V30 3367 H 323.255 3.21104 -2.25021 0
M  V30 3368 H 324.745 3.88696 -1.52661 0
M  V30 3369 N 325.182 1.32811 0.848464 0
M  V30 3370 C 326.429 1.23724 1.60308 0
M  V30 3371 C 326.757 -0.1994 1.93475 0
M  V30 3372 O 326.012 -1.15406 1.5805 0
M  V30 3373 C 326.311 2.04831 2.92881 0
M  V30 3374 C 325.977 3.54125 2.79117 0
M  V30 3375 C 324.639 3.94829 2.7507 0
M  V30 3376 C 326.991 4.49036 2.64606 0
M  V30 3377 C 324.319 5.28675 2.544 0
M  V30 3378 C 326.671 5.83033 2.4547 0
M  V30 3379 C 325.335 6.22931 2.39819 0
M  V30 3380 H 324.605 0.452737 0.586609 0
M  V30 3381 H 327.252 1.64301 0.983743 0
M  V30 3382 H 325.557 1.57001 3.58968 0
M  V30 3383 H 327.254 1.95164 3.50303 0
M  V30 3384 H 323.844 3.21801 2.83094 0
M  V30 3385 H 328.028 4.18505 2.66772 0
M  V30 3386 H 323.284 5.58637 2.48465 0
M  V30 3387 H 327.458 6.56186 2.33222 0
M  V30 3388 H 325.085 7.26584 2.23562 0
M  V30 3389 N 326.66 -1.06551 1.16123 0
M  V30 3390 C 327.623 -2.12132 0.867906 0
M  V30 3391 C 328.623 -1.60224 -0.135944 0
M  V30 3392 O 329.813 -1.73943 0.0946422 0
M  V30 3393 C 326.945 -3.396 0.297419 0
M  V30 3394 H 328.138 -2.39586 1.80385 0
M  V30 3395 H 325.691 -1.22574 0.969812 0
M  V30 3396 H 326.426 -3.17794 -0.64633 0
M  V30 3397 H 326.211 -3.78581 1.02073 0
M  V30 3398 H 327.701 -4.17455 0.110052 0
M  V30 3399 N 328.138 -0.959301 -1.25041 0
M  V30 3400 C 329.387 -0.612254 -1.92183 0
M  V30 3401 C 329.7 0.855347 -1.75907 0
M  V30 3402 O 330.906 1.31256 -2.37664 0
M  V30 3403 C 329.362 -1.04435 -3.44414 0
M  V30 3404 C 328.97 -2.53482 -3.69393 0
M  V30 3405 C 330.714 -0.770055 -4.17457 0
M  V30 3406 C 328.621 -2.90468 -5.15153 0
M  V30 3407 H 327.551 -0.225279 -0.719559 0
M  V30 3408 H 330.202 -1.16438 -1.41825 0
M  V30 3409 H 328.584 -0.4206 -3.9376 0
M  V30 3410 H 329.758 -3.20916 -3.30681 0
M  V30 3411 H 328.073 -2.78432 -3.0962 0
M  V30 3412 H 330.67 -1.02249 -5.24832 0
M  V30 3413 H 331.013 0.293611 -4.15263 0
M  V30 3414 H 331.546 -1.35437 -3.74034 0
M  V30 3415 H 328.285 -3.95871 -5.22462 0
M  V30 3416 H 327.805 -2.27711 -5.54894 0
M  V30 3417 H 329.484 -2.79914 -5.83315 0
M  V30 3418 N 329.616 1.39756 -0.72842 0
M  V30 3419 C 330.862 2.00942 -0.273892 0
M  V30 3420 C 331.195 1.57656 1.13394 0
M  V30 3421 O 330.47 0.802434 1.77176 0
M  V30 3422 C 330.753 3.58211 -0.368346 0
M  V30 3423 C 330.606 4.11534 -1.81548 0
M  V30 3424 C 331.925 4.39372 0.253054 0
M  V30 3425 H 329.044 0.730047 -0.100996 0
M  V30 3426 H 331.686 1.66056 -0.923337 0
M  V30 3427 H 329.836 3.88061 0.184588 0
M  V30 3428 H 331.508 3.92431 -2.42478 0
M  V30 3429 H 329.751 3.65341 -2.33898 0
M  V30 3430 H 330.422 5.20682 -1.83288 0
M  V30 3431 H 332.898 4.15527 -0.218224 0
M  V30 3432 H 331.774 5.48677 0.156585 0
M  V30 3433 H 332.035 4.21358 1.33826 0
M  V30 3434 N 331.094 0.475555 1.50254 0
M  V30 3435 C 332.024 -0.30611 2.31485 0
M  V30 3436 C 333.005 -0.986228 1.38591 0
M  V30 3437 O 334.19 -0.982541 1.67511 0
M  V30 3438 C 331.32 -1.38588 3.1845 0
M  V30 3439 C 330.274 -0.827115 4.19932 0
M  V30 3440 C 329.6 -2.00551 4.95665 0
M  V30 3441 C 330.9 0.16463 5.2204 0
M  V30 3442 H 332.594 0.371866 2.97082 0
M  V30 3443 H 330.14 0.180282 1.42867 0
M  V30 3444 H 332.093 -1.94023 3.74076 0
M  V30 3445 H 330.817 -2.09269 2.50747 0
M  V30 3446 H 329.476 -0.294702 3.65414 0
M  V30 3447 H 329.124 -2.6994 4.2443 0
M  V30 3448 H 328.824 -1.63784 5.64313 0
M  V30 3449 H 330.348 -2.56468 5.54127 0
M  V30 3450 H 331.762 -0.300699 5.72511 0
M  V30 3451 H 330.159 0.446813 5.98434 0
M  V30 3452 H 331.229 1.08905 4.72512 0
M  V30 3453 N 332.573 -1.56217 0.208337 0
M  V30 3454 C 333.822 -1.97124 -0.427204 0
M  V30 3455 C 334.135 -1.09859 -1.61835 0
M  V30 3456 O 335.341 -1.40606 -2.32255 0
M  V30 3457 C 333.797 -3.50633 -0.811442 0
M  V30 3458 C 333.405 -4.46582 0.35615 0
M  V30 3459 C 335.149 -4.00282 -1.41332 0
M  V30 3460 C 333.056 -5.91379 -0.0497852 0
M  V30 3461 H 331.986 -0.736086 -0.163381 0
M  V30 3462 H 334.637 -1.8099 0.302456 0
M  V30 3463 H 333.019 -3.62319 -1.59815 0
M  V30 3464 H 334.193 -4.46636 1.1337 0
M  V30 3465 H 332.508 -4.07202 0.870396 0
M  V30 3466 H 335.105 -5.0595 -1.72972 0
M  V30 3467 H 335.448 -3.45359 -2.32449 0
M  V30 3468 H 335.981 -3.91764 -0.690323 0
M  V30 3469 H 332.72 -6.50255 0.827529 0
M  V30 3470 H 332.24 -5.94549 -0.791926 0
M  V30 3471 H 333.919 -6.45209 -0.481042 0
M  V30 3472 N 334.051 0.0651679 -1.57465 0
M  V30 3473 C 335.291 0.768329 -1.8941 0
M  V30 3474 C 335.655 1.74406 -0.802894 0
M  V30 3475 O 336.856 2.49281 -1.0056 0
M  V30 3476 C 335.127 1.45199 -3.26576 0
M  V30 3477 S 336.686 2.1893 -3.80283 0
M  V30 3478 H 333.504 0.255359 -0.663561 0
M  V30 3479 H 336.106 0.024167 -1.95485 0
M  V30 3480 H 334.81 0.728123 -4.03889 0
M  V30 3481 H 334.341 2.23545 -3.23715 0
M  V30 3482 H 336.356 3.45551 -3.56102 0
M  V30 3483 N 335.529 1.53961 0.336706 0
M  V30 3484 C 336.769 1.73254 1.08454 0
M  V30 3485 C 337.133 0.488937 1.8567 0
M  V30 3486 O 338.334 0.559001 2.62923 0
M  V30 3487 C 336.605 2.96519 1.99528 0
M  V30 3488 S 338.164 3.36655 2.81441 0
M  V30 3489 H 334.982 0.609353 0.366347 0
M  V30 3490 H 337.584 1.92117 0.362124 0
M  V30 3491 H 336.288 3.85193 1.41614 0
M  V30 3492 H 335.819 2.80142 2.76196 0
M  V30 3493 H 337.834 2.90925 4.01967 0
M  V30 3494 N 337.007 -0.598083 1.45811 0
M  V30 3495 C 338.247 -1.36802 1.5187 0
M  V30 3496 C 338.611 -1.9133 0.160224 0
M  V30 3497 O 339.812 -2.6863 0.0955302 0
M  V30 3498 C 338.083 -2.47835 2.57513 0
M  V30 3499 S 339.642 -3.35458 2.82866 0
M  V30 3500 H 336.46 -0.466278 0.536755 0
M  V30 3501 H 339.062 -0.689152 1.82951 0
M  V30 3502 H 337.766 -2.06141 3.54872 0
M  V30 3503 H 337.297 -3.20512 2.28114 0
M  V30 3504 H 339.312 -4.46251 2.16967 0
M  V30 3505 N 338.485 -1.33259 -0.841409 0
M  V30 3506 C 339.725 -1.25902 -1.61022 0
M  V30 3507 C 340.089 0.173325 -1.91216 0
M  V30 3508 O 341.29 0.370824 -2.6623 0
M  V30 3509 C 339.561 -2.10735 -2.88662 0
M  V30 3510 S 341.12 -2.20541 -3.79351 0
M  V30 3511 H 337.938 -0.447958 -0.552137 0
M  V30 3512 H 340.54 -1.68263 -0.995382 0
M  V30 3513 H 339.244 -3.1384 -2.64448 0
M  V30 3514 H 338.775 -1.69201 -3.55154 0
M  V30 3515 H 340.79 -1.36462 -4.77067 0
M  V30 3516 N 339.963 1.05934 -1.16686 0
M  V30 3517 C 341.191 1.8249 -0.974929 0
M  V30 3518 C 341.606 1.82679 0.476861 0
M  V30 3519 O 340.963 1.2486 1.33103 0
M  V30 3520 C 341.014 3.28943 -1.49929 0
M  V30 3521 O 340.735 3.28886 -2.89423 0
M  V30 3522 C 342.236 4.22215 -1.35089 0
M  V30 3523 H 339.456 0.575295 -0.345365 0
M  V30 3524 H 342 1.33631 -1.548 0
M  V30 3525 H 340.155 3.751 -0.968423 0
M  V30 3526 H 340.569 4.20493 -3.13506 0
M  V30 3527 H 342.043 5.22987 -1.76603 0
M  V30 3528 H 342.52 4.38195 -0.296935 0
M  V30 3529 H 343.126 3.81907 -1.87155 0
M  V30 3530 N 341.441 0.965919 1.2453 0
M  V30 3531 C 342.374 0.4393 2.23932 0
M  V30 3532 C 343.352 -0.485615 1.55179 0
M  V30 3533 O 344.536 -0.417402 1.83821 0
M  V30 3534 C 341.663 -0.366042 3.36716 0
M  V30 3535 C 340.709 0.5009 4.23548 0
M  V30 3536 S 341.542 1.94002 4.99123 0
M  V30 3537 C 342.698 1.14342 6.15367 0
M  V30 3538 H 342.931 1.28167 2.68254 0
M  V30 3539 H 340.464 0.770819 1.33782 0
M  V30 3540 H 342.422 -0.824724 4.0213 0
M  V30 3541 H 341.083 -1.18337 2.90956 0
M  V30 3542 H 340.276 -0.117341 5.03863 0
M  V30 3543 H 339.878 0.89524 3.63127 0
M  V30 3544 H 342.17 0.397572 6.76332 0
M  V30 3545 H 343.113 1.92089 6.81548 0
M  V30 3546 H 343.521 0.668579 5.60527 0
M  V30 3547 N 342.919 -1.39368 0.735821 0
M  V30 3548 C 343.849 -2.33234 0.111506 0
M  V30 3549 C 344.83 -1.53954 -0.723334 0
M  V30 3550 O 346.015 -1.82344 -0.668147 0
M  V30 3551 C 343.145 -3.38057 -0.795917 0
M  V30 3552 C 342.099 -4.2795 -0.065172 0
M  V30 3553 C 341.425 -5.23479 -1.08967 0
M  V30 3554 C 342.725 -5.10741 1.09273 0
M  V30 3555 H 344.419 -2.85692 0.895571 0
M  V30 3556 H 341.965 -1.37364 0.432109 0
M  V30 3557 H 343.918 -4.02675 -1.24221 0
M  V30 3558 H 342.642 -2.8404 -1.61211 0
M  V30 3559 H 341.301 -3.64813 0.361511 0
M  V30 3560 H 340.949 -4.65758 -1.89944 0
M  V30 3561 H 340.649 -5.84472 -0.605489 0
M  V30 3562 H 342.173 -5.90974 -1.53565 0
M  V30 3563 H 343.587 -5.68699 0.724841 0
M  V30 3564 H 341.984 -5.8088 1.50659 0
M  V30 3565 H 343.054 -4.45525 1.91404 0
M  V30 3566 N 344.397 -0.483516 -1.5 0
M  V30 3567 C 345.625 0.0644831 -2.06799 0
M  V30 3568 C 346.04 1.32399 -1.34596 0
M  V30 3569 O 345.397 1.77626 -0.418946 0
M  V30 3570 C 345.448 0.339927 -3.59898 0
M  V30 3571 O 345.169 -0.869635 -4.29382 0
M  V30 3572 C 346.67 0.933515 -4.33359 0
M  V30 3573 H 343.89 -0.0126333 -0.670881 0
M  V30 3574 H 346.434 -0.675864 -1.93009 0
M  V30 3575 H 344.589 1.03022 -3.7345 0
M  V30 3576 H 345.003 -0.62179 -5.20801 0
M  V30 3577 H 346.477 1.07593 -5.41413 0
M  V30 3578 H 346.954 1.92685 -3.94676 0
M  V30 3579 H 347.56 0.281221 -4.24369 0
M  V30 3580 N 345.875 1.56104 -0.216619 0
M  V30 3581 C 346.838 2.18819 0.681962 0
M  V30 3582 C 347.838 1.14866 1.12528 0
M  V30 3583 O 349.028 1.40128 1.03488 0
M  V30 3584 C 346.16 2.80756 1.93362 0
M  V30 3585 H 347.353 2.99595 0.135254 0
M  V30 3586 H 344.906 1.56265 0.0330003 0
M  V30 3587 H 345.641 2.03837 2.52232 0
M  V30 3588 H 345.426 3.56876 1.62426 0
M  V30 3589 H 346.916 3.28844 2.57393 0
M  V30 3590 N 347.353 -0.0568162 1.57498 0
M  V30 3591 C 348.602 -0.752001 1.87157 0
M  V30 3592 C 348.915 -1.77978 0.811375 0
M  V30 3593 O 350.121 -2.52559 0.996293 0
M  V30 3594 C 348.577 -1.38844 3.3204 0
M  V30 3595 C 348.185 -0.398456 4.46225 0
M  V30 3596 C 349.929 -2.06512 3.70882 0
M  V30 3597 C 347.836 -1.04166 5.82154 0
M  V30 3598 H 346.766 -0.28461 0.698222 0
M  V30 3599 H 349.417 -0.00561272 1.83499 0
M  V30 3600 H 347.799 -2.1836 3.30356 0
M  V30 3601 H 348.973 0.367977 4.59328 0
M  V30 3602 H 347.288 0.174592 4.16034 0
M  V30 3603 H 349.885 -2.55437 4.6974 0
M  V30 3604 H 350.228 -2.87117 3.01445 0
M  V30 3605 H 350.761 -1.33808 3.7462 0
M  V30 3606 H 347.5 -0.275614 6.5492 0
M  V30 3607 H 347.02 -1.7786 5.72823 0
M  V30 3608 H 348.699 -1.55715 6.27982 0
M  V30 3609 N 348.832 -1.54138 -0.328536 0
M  V30 3610 C 350.057 -1.76378 -1.09112 0
M  V30 3611 C 350.482 -0.508596 -1.81094 0
M  V30 3612 O 349.84 0.539598 -1.73084 0
M  V30 3613 C 349.888 -2.95358 -2.06872 0
M  V30 3614 O 348.992 -2.66556 -3.14677 0
M  V30 3615 H 348.333 -0.584614 -0.314838 0
M  V30 3616 H 350.863 -2.01146 -0.374348 0
M  V30 3617 H 350.873 -3.22566 -2.4983 0
M  V30 3618 H 349.548 -3.86385 -1.5388 0
M  V30 3619 H 348.125 -2.50282 -2.7643 0
M  V30 3620 N 350.31 0.590341 -1.46126 0
M  V30 3621 C 351.243 1.71434 -1.50617 0
M  V30 3622 C 352.221 1.58543 -0.360948 0
M  V30 3623 O 353.405 1.79865 -0.563985 0
M  V30 3624 C 350.532 3.09422 -1.37753 0
M  V30 3625 C 349.578 3.40854 -2.5636 0
M  V30 3626 S 350.411 3.33773 -4.18755 0
M  V30 3627 C 351.567 4.74312 -4.08386 0
M  V30 3628 H 351.8 1.67364 -2.45717 0
M  V30 3629 H 349.333 0.76845 -1.33919 0
M  V30 3630 H 351.291 3.8903 -1.31018 0
M  V30 3631 H 349.952 3.10989 -0.440949 0
M  V30 3632 H 349.145 4.41368 -2.43332 0
M  V30 3633 H 348.747 2.68798 -2.60046 0
M  V30 3634 H 351.039 5.64522 -3.74595 0
M  V30 3635 H 351.982 4.92397 -5.08872 0
M  V30 3636 H 352.39 4.50803 -3.3976 0
M  V30 3637 N 351.788 1.33704 0.83433 0
M  V30 3638 C 353.013 1.28615 1.62705 0
M  V30 3639 C 353.438 -0.139242 1.87584 0
M  V30 3640 O 352.796 -1.09734 1.4432 0
M  V30 3641 C 352.844 2.07139 2.95171 0
M  V30 3642 O 351.948 1.4331 3.86699 0
M  V30 3643 H 351.289 0.44226 0.49528 0
M  V30 3644 H 353.819 1.76335 1.03766 0
M  V30 3645 H 353.829 2.18073 3.44831 0
M  V30 3646 H 352.504 3.10779 2.76386 0
M  V30 3647 H 351.081 1.4105 3.45195 0
M  V30 3648 N 353.266 -1.05314 1.17247 0
M  V30 3649 C 354.229 -2.112 0.890357 0
M  V30 3650 C 355.229 -1.60359 -0.118943 0
M  V30 3651 O 356.419 -1.73833 0.113086 0
M  V30 3652 C 353.551 -3.39266 0.333422 0
M  V30 3653 H 354.744 -2.37659 1.82916 0
M  V30 3654 H 352.297 -1.21538 0.982758 0
M  V30 3655 H 353.032 -3.18462 -0.612587 0
M  V30 3656 H 352.817 -3.77477 1.06082 0
M  V30 3657 H 354.307 -4.17315 0.154322 0
M  V30 3658 N 354.744 -0.972509 -1.24016 0
M  V30 3659 C 355.993 -0.632603 -1.91523 0
M  V30 3660 C 356.306 0.836641 -1.76804 0
M  V30 3661 O 357.512 1.28728 -2.39043 0
M  V30 3662 C 355.968 -1.08082 -3.43287 0
M  V30 3663 C 355.576 -2.57386 -3.66683 0
M  V30 3664 C 357.32 -0.814288 -4.16617 0
M  V30 3665 C 355.227 -2.95915 -5.12043 0
M  V30 3666 H 354.157 -0.232898 -0.717129 0
M  V30 3667 H 356.808 -1.17936 -1.40582 0
M  V30 3668 H 355.19 -0.462339 -3.93292 0
M  V30 3669 H 356.364 -3.24405 -3.27258 0
M  V30 3670 H 354.679 -2.81701 -3.06649 0
M  V30 3671 H 357.276 -1.0781 -5.23718 0
M  V30 3672 H 357.619 0.24955 -4.15551 0
M  V30 3673 H 358.152 -1.39397 -3.72577 0
M  V30 3674 H 354.891 -4.0139 -5.18234 0
M  V30 3675 H 354.411 -2.33584 -5.52448 0
M  V30 3676 H 356.09 -2.86086 -5.80314 0
M  V30 3677 N 356.222 1.38976 -0.743202 0
M  V30 3678 C 357.185 2.28901 -0.117014 0
M  V30 3679 C 358.185 1.46698 0.658503 0
M  V30 3680 O 359.375 1.67274 0.486305 0
M  V30 3681 C 356.507 3.30309 0.84315 0
M  V30 3682 H 357.7 2.8578 -0.909373 0
M  V30 3683 H 355.253 1.47761 -0.509547 0
M  V30 3684 H 355.988 2.785 1.66157 0
M  V30 3685 H 355.773 3.91029 0.289594 0
M  V30 3686 H 357.263 3.97577 1.2776 0
M  V30 3687 N 357.7 0.491464 1.49741 0
M  V30 3688 C 358.928 -0.0535151 2.06831 0
M  V30 3689 C 359.343 -1.31683 1.35296 0
M  V30 3690 O 358.7 -1.77402 0.42836 0
M  V30 3691 C 358.751 -0.320835 3.60073 0
M  V30 3692 O 358.472 0.892394 4.28915 0
M  V30 3693 C 359.973 -0.910519 4.33848 0
M  V30 3694 H 357.193 0.0161909 0.670805 0
M  V30 3695 H 359.737 0.68609 1.92647 0
M  V30 3696 H 357.892 -1.0104 3.73991 0
M  V30 3697 H 358.306 0.649401 5.20464 0
M  V30 3698 H 359.78 -1.04721 5.41976 0
M  V30 3699 H 360.257 -1.90589 3.95692 0
M  V30 3700 H 360.863 -0.258712 4.24512 0
M  V30 3701 N 359.178 -1.55987 0.224894 0
M  V30 3702 C 360.126 -2.21808 -0.700283 0
M  V30 3703 C 361.12 -1.19854 -1.19714 0
M  V30 3704 O 362.326 -1.37925 -1.15658 0
M  V30 3705 H 358.701 -0.711226 -0.244258 0
M  V30 3706 H 360.672 -2.98152 -0.121749 0
M  V30 3707 C 359.421 -2.91444 -1.8962 0
M  V30 3708 H 358.744 -3.69655 -1.52299 0
M  V30 3709 H 360.184 -3.40894 -2.52125 0
M  V30 3710 C 358.643 -1.94098 -2.75368 0
M  V30 3711 O 359.173 -1.46004 -3.74227 0
M  V30 3712 N 357.379 -1.61675 -2.41474 0
M  V30 3713 H 356.926 -2.00979 -1.61137 0
M  V30 3714 H 356.884 -0.968036 -2.99126 0
M  V30 3715 N 360.656 0.0484629 -1.57525 0
M  V30 3716 C 361.904 0.741657 -1.88 0
M  V30 3717 C 362.225 1.76918 -0.820054 0
M  V30 3718 O 361.495 1.95335 0.148661 0
M  V30 3719 H 360.075 0.276908 -0.69378 0
M  V30 3720 H 362.737 0.019013 -1.94891 0
M  V30 3721 H 361.833 1.24336 -2.86264 0
M  V30 3722 N 362.134 1.5431 0.320358 0
M  V30 3723 C 363.38 1.72924 1.05949 0
M  V30 3724 C 363.713 0.503185 1.87568 0
M  V30 3725 O 362.988 -0.499839 1.87968 0
M  V30 3726 C 363.271 3.00676 1.98156 0
M  V30 3727 C 363.124 4.3354 1.19845 0
M  V30 3728 C 364.443 3.24198 2.9763 0
M  V30 3729 H 361.562 0.629195 0.383774 0
M  V30 3730 H 364.204 1.87008 0.335854 0
M  V30 3731 H 362.354 2.888 2.59859 0
M  V30 3732 H 364.026 4.57305 0.605773 0
M  V30 3733 H 362.269 4.309 0.500784 0
M  V30 3734 H 362.94 5.19156 1.87567 0
M  V30 3735 H 365.416 3.35557 2.4605 0
M  V30 3736 H 364.292 4.14938 3.59329 0
M  V30 3737 H 364.553 2.41577 3.7026 0
M  V30 3738 N 363.613 -0.582584 1.46437 0
M  V30 3739 C 364.859 -1.34278 1.51978 0
M  V30 3740 C 365.192 -1.93446 0.170973 0
M  V30 3741 O 364.467 -1.76481 -0.817608 0
M  V30 3742 C 364.75 -2.47203 2.61845 0
M  V30 3743 C 364.603 -1.93069 4.06257 0
M  V30 3744 C 365.922 -3.49247 2.67795 0
M  V30 3745 H 363.041 -0.486876 0.553282 0
M  V30 3746 H 365.683 -0.654437 1.78374 0
M  V30 3747 H 363.833 -3.0592 2.39469 0
M  V30 3748 H 365.505 -1.38808 4.3992 0
M  V30 3749 H 363.748 -1.23898 4.1573 0
M  V30 3750 H 364.419 -2.74586 4.7886 0
M  V30 3751 H 366.895 -3.00411 2.8791 0
M  V30 3752 H 365.771 -4.25719 3.46489 0
M  V30 3753 H 366.032 -4.06482 1.73852 0
M  V30 3754 N 365.091 -1.34144 -0.827227 0
M  V30 3755 C 366.502 -1.23557 -1.39966 0
M  V30 3756 C 366.853 0.140731 -1.95695 0
M  V30 3757 O 365.978 1.04087 -1.89723 0
M  V30 3758 C 366.573 -2.23708 -2.54441 0
M  V30 3759 C 365.132 -2.16924 -3.07605 0
M  V30 3760 C 364.279 -2.10549 -1.80456 0
M  V30 3761 H 367.23 -1.45573 -0.631991 0
M  V30 3762 H 367.251 -1.85157 -3.32411 0
M  V30 3763 H 366.763 -3.23866 -2.13851 0
M  V30 3764 H 364.864 -1.20107 -3.52711 0
M  V30 3765 H 364.977 -3.07988 -3.66988 0
M  V30 3766 H 363.341 -1.56203 -2.01178 0
M  V30 3767 H 364.124 -3.12535 -1.42046 0
M  V30 3768 N 366.569 1.04691 -1.17803 0
M  V30 3769 C 367.532 2.10724 -0.901545 0
M  V30 3770 C 368.532 1.6042 0.110437 0
M  V30 3771 O 369.722 1.7377 -0.122303 0
M  V30 3772 C 366.854 3.39084 -0.351409 0
M  V30 3773 H 368.047 2.36686 -1.84174 0
M  V30 3774 H 365.6 1.21015 -0.98919 0
M  V30 3775 H 366.335 3.18782 0.59569 0
M  V30 3776 H 366.12 3.76909 -1.08083 0
M  V30 3777 H 367.61 4.17227 -0.176451 0
M  V30 3778 N 368.047 0.979072 1.23499 0
M  V30 3779 C 369.295 0.645941 1.91499 0
M  V30 3780 C 369.616 -0.822948 1.76784 0
M  V30 3781 O 368.886 -1.58854 1.14639 0
M  V30 3782 H 367.466 0.235919 0.708767 0
M  V30 3783 H 370.128 1.2426 1.50152 0
M  V30 3784 H 369.224 0.896411 2.9895 0
M  V30 3785 N 369.525 -1.3858 0.750561 0
M  V30 3786 C 370.773 -1.99789 0.30477 0
M  V30 3787 C 371.094 -1.59874 -1.11649 0
M  V30 3788 O 370.364 -0.85417 -1.76297 0
M  V30 3789 H 368.944 -0.738902 0.109694 0
M  V30 3790 H 371.606 -1.69391 0.963983 0
M  V30 3791 H 370.702 -3.09952 0.365499 0
M  V30 3792 N 371.003 -0.499398 -1.49478 0
M  V30 3793 C 372.228 0.044722 -2.07352 0
M  V30 3794 C 372.653 1.30207 -1.35749 0
M  V30 3795 O 372.011 1.76516 -0.413732 0
M  V30 3796 C 372.059 0.283013 -3.59488 0
M  V30 3797 O 371.163 1.35804 -3.89398 0
M  V30 3798 H 370.504 -0.0255147 -0.66351 0
M  V30 3799 H 373.034 -0.698561 -1.92305 0
M  V30 3800 H 373.044 0.515007 -4.04737 0
M  V30 3801 H 371.719 -0.635636 -4.11014 0
M  V30 3802 H 370.296 1.11113 -3.55961 0
M  V30 3803 N 372.481 1.55866 -0.233164 0
M  V30 3804 C 373.711 2.02704 0.399325 0
M  V30 3805 C 374.119 1.11204 1.53069 0
M  V30 3806 O 373.462 0.116182 1.83332 0
M  V30 3807 C 373.524 3.45844 0.981429 0
M  V30 3808 C 373.188 4.56997 -0.0159561 0
M  V30 3809 C 374.185 5.13384 -0.820552 0
M  V30 3810 C 371.87 5.0211 -0.138072 0
M  V30 3811 C 373.864 6.13365 -1.73386 0
M  V30 3812 C 371.551 6.01926 -1.0549 0
M  V30 3813 C 372.549 6.57431 -1.85132 0
M  V30 3814 O 372.237 7.55302 -2.75272 0
M  V30 3815 H 371.969 0.668459 0.100692 0
M  V30 3816 H 374.523 2.02387 -0.35052 0
M  V30 3817 H 372.753 3.43267 1.78058 0
M  V30 3818 H 374.442 3.76262 1.52255 0
M  V30 3819 H 375.208 4.79372 -0.736721 0
M  V30 3820 H 371.087 4.5858 0.471737 0
M  V30 3821 H 374.631 6.56614 -2.35592 0
M  V30 3822 H 370.528 6.35359 -1.1397 0
M  V30 3823 H 371.296 7.72867 -2.69477 0
M  V30 3824 N 373.959 -0.0401083 1.57549 0
M  V30 3825 C 375.206 -0.733125 1.88763 0
M  V30 3826 C 375.534 -1.75946 0.829058 0
M  V30 3827 O 374.789 -1.94949 -0.171323 0
M  V30 3828 C 375.088 -1.44902 3.26708 0
M  V30 3829 C 374.754 -0.559707 4.47413 0
M  V30 3830 C 373.416 -0.314731 4.8017 0
M  V30 3831 C 375.768 0.0549743 5.21171 0
M  V30 3832 C 373.096 0.553886 5.8408 0
M  V30 3833 C 375.448 0.911229 6.26003 0
M  V30 3834 C 374.112 1.16577 6.57241 0
M  V30 3835 H 373.382 -0.268269 0.690733 0
M  V30 3836 H 376.029 0.00679408 1.91499 0
M  V30 3837 H 374.334 -2.26197 3.1991 0
M  V30 3838 H 376.031 -1.99058 3.48105 0
M  V30 3839 H 372.621 -0.760793 4.21794 0
M  V30 3840 H 376.805 -0.121344 4.96152 0
M  V30 3841 H 372.061 0.759518 6.06664 0
M  V30 3842 H 376.235 1.3941 6.82303 0
M  V30 3843 H 373.862 1.84058 7.37582 0
M  V30 3844 N 375.437 -1.54477 -0.31217 0
M  V30 3845 C 376.37 -1.79519 -1.40884 0
M  V30 3846 C 377.348 -0.645753 -1.49227 0
M  V30 3847 O 378.532 -0.884468 -1.66461 0
M  V30 3848 C 375.659 -1.92194 -2.78889 0
M  V30 3849 C 374.705 -3.14555 -2.88023 0
M  V30 3850 S 375.538 -4.72893 -2.51262 0
M  V30 3851 C 376.694 -4.8849 -3.91317 0
M  V30 3852 H 376.927 -2.72256 -1.19432 0
M  V30 3853 H 374.46 -1.45746 -0.509654 0
M  V30 3854 H 376.418 -2.00182 -3.58382 0
M  V30 3855 H 375.079 -1.00414 -2.97617 0
M  V30 3856 H 374.272 -3.20193 -3.89221 0
M  V30 3857 H 373.874 -3.04955 -2.16514 0
M  V30 3858 H 376.166 -4.71826 -4.86196 0
M  V30 3859 H 377.109 -5.90588 -3.90656 0
M  V30 3860 H 377.517 -4.16715 -3.80801 0
M  V30 3861 N 376.915 0.57481 -1.46744 0
M  V30 3862 C 378.164 1.32898 -1.51727 0
M  V30 3863 C 378.477 1.948 -0.176692 0
M  V30 3864 O 379.683 2.71299 -0.104385 0
M  V30 3865 C 378.139 2.40901 -2.67385 0
M  V30 3866 C 377.747 1.85266 -4.07898 0
M  V30 3867 C 379.491 3.17609 -2.81646 0
M  V30 3868 C 377.398 2.90945 -5.14883 0
M  V30 3869 H 376.328 0.499631 -0.564699 0
M  V30 3870 H 378.979 0.612536 -1.72975 0
M  V30 3871 H 377.361 3.15379 -2.39483 0
M  V30 3872 H 378.535 1.17278 -4.45626 0
M  V30 3873 H 376.85 1.21199 -3.98371 0
M  V30 3874 H 379.447 3.96493 -3.58744 0
M  V30 3875 H 379.79 3.70696 -1.89448 0
M  V30 3876 H 380.323 2.50239 -3.09233 0
M  V30 3877 H 377.062 2.42736 -6.089 0
M  V30 3878 H 376.582 3.57398 -4.81691 0
M  V30 3879 H 378.261 3.54755 -5.41071 0
M  V30 3880 N 378.394 1.34581 0.820102 0
M  V30 3881 C 379.619 1.30333 1.61332 0
M  V30 3882 C 380.044 -0.119339 1.87721 0
M  V30 3883 O 379.402 -1.08197 1.45475 0
M  V30 3884 C 379.45 2.10258 2.92957 0
M  V30 3885 O 378.554 1.47404 3.85157 0
M  V30 3886 H 377.895 0.447488 0.490561 0
M  V30 3887 H 380.425 1.77425 1.01889 0
M  V30 3888 H 380.435 2.21718 3.42498 0
M  V30 3889 H 379.11 3.13693 2.73074 0
M  V30 3890 H 377.687 1.44703 3.43679 0
M  V30 3891 N 379.872 -1.04064 1.18357 0
M  V30 3892 C 381.288 -1.2947 0.933258 0
M  V30 3893 C 381.488 -1.97466 -0.401169 0
M  V30 3894 O 380.544 -2.25528 -1.13549 0
M  V30 3895 C 381.857 -2.15337 2.09882 0
M  V30 3896 C 383.405 -2.28683 2.13712 0
M  V30 3897 C 383.88 -3.17917 3.29686 0
M  V30 3898 N 385.371 -3.25504 3.29547 0
M  V30 3899 C 386.106 -3.94706 4.15926 0
M  V30 3900 N 385.602 -4.66239 5.12439 0
M  V30 3901 N 387.395 -3.90986 4.0384 0
M  V30 3902 H 379.546 -0.583359 2.04232 0
M  V30 3903 H 381.809 -0.319921 0.892387 0
M  V30 3904 H 381.515 -1.72682 3.06389 0
M  V30 3905 H 381.389 -3.16015 2.05947 0
M  V30 3906 H 383.776 -2.70575 1.17784 0
M  V30 3907 H 383.857 -1.27596 2.21705 0
M  V30 3908 H 383.501 -2.76736 4.25887 0
M  V30 3909 H 383.431 -4.19036 3.1893 0
M  V30 3910 H 385.922 -2.74547 2.59677 0
M  V30 3911 H 386.235 -5.16638 5.74722 0
M  V30 3912 H 384.58 -4.65143 5.16398 0
M  V30 3913 H 387.771 -3.34234 3.27727 0
M  V30 3914 H 387.944 -4.44646 4.71375 0
M  V30 3915 N 381.35 -0.985608 -1.22978 0
M  V30 3916 C 382.313 -0.535071 -2.22867 0
M  V30 3917 C 383.313 0.378123 -1.56291 0
M  V30 3918 O 384.503 0.171092 -1.73358 0
M  V30 3919 C 381.635 0.222702 -3.40172 0
M  V30 3920 H 382.828 -1.41835 -2.6424 0
M  V30 3921 H 380.381 -0.772042 -1.35901 0
M  V30 3922 H 381.116 1.12229 -3.04262 0
M  V30 3923 H 380.901 -0.43288 -3.89703 0
M  V30 3924 H 382.391 0.526335 -4.1427 0
M  V30 3925 N 382.828 1.3818 -0.7579 0
M  V30 3926 C 383.758 2.33027 -0.148597 0
M  V30 3927 C 384.739 1.55085 0.69875 0
M  V30 3928 O 385.924 1.83384 0.639053 0
M  V30 3929 C 383.054 3.3928 0.742034 0
M  V30 3930 C 382.008 4.28 -0.00291946 0
M  V30 3931 C 381.334 5.25146 1.00625 0
M  V30 3932 C 382.634 5.08938 -1.17385 0
M  V30 3933 H 384.328 2.84231 -0.940909 0
M  V30 3934 H 381.874 1.36659 -0.453908 0
M  V30 3935 H 383.827 4.046 1.17799 0
M  V30 3936 H 382.551 2.86569 1.56671 0
M  V30 3937 H 381.21 3.64192 -0.419504 0
M  V30 3938 H 380.858 4.68721 1.8251 0
M  V30 3939 H 380.558 5.85361 0.512428 0
M  V30 3940 H 382.082 5.93342 1.44143 0
M  V30 3941 H 383.496 5.67474 -0.815224 0
M  V30 3942 H 381.893 5.7841 -1.59882 0
M  V30 3943 H 382.963 4.42424 -1.98468 0
M  V30 3944 N 384.306 0.507319 1.49211 0
M  V30 3945 C 385.554 -0.0348839 2.0207 0
M  V30 3946 C 385.875 -1.36898 1.38866 0
M  V30 3947 O 385.145 -1.88133 0.546151 0
M  V30 3948 H 383.725 -0.0158812 0.746831 0
M  V30 3949 H 386.387 0.665998 1.83168 0
M  V30 3950 H 385.483 -0.159917 3.1169 0
M  V30 3951 N 385.784 -1.5574 0.241426 0
M  V30 3952 C 387.195 -1.84842 -0.262755 0
M  V30 3953 C 387.546 -1.16317 -1.58003 0
M  V30 3954 O 386.671 -0.439653 -2.11887 0
M  V30 3955 C 387.266 -3.35332 -0.483523 0
M  V30 3956 C 385.825 -3.6468 -0.931977 0
M  V30 3957 C 384.972 -2.77299 -0.0061151 0
M  V30 3958 H 387.923 -1.51761 0.464129 0
M  V30 3959 H 387.944 -3.56615 -1.32688 0
M  V30 3960 H 387.456 -3.85178 0.47537 0
M  V30 3961 H 385.557 -3.20307 -1.90353 0
M  V30 3962 H 385.67 -4.72498 -0.792628 0
M  V30 3963 H 384.034 -2.49408 -0.516503 0
M  V30 3964 H 384.817 -3.2995 0.948052 0
M  V30 3965 N 387.262 0.0317525 -1.57568 0
M  V30 3966 C 388.172 1.05021 -2.0978 0
M  V30 3967 C 389.188 1.39809 -1.03583 0
M  V30 3968 O 390.364 1.49182 -1.35302 0
M  V30 3969 C 387.429 2.33301 -2.56459 0
M  V30 3970 C 386.49 2.0512 -3.77127 0
M  V30 3971 C 385.723 3.27283 -4.2157 0
M  V30 3972 O 385.946 4.37861 -3.65559 0
M  V30 3973 O 384.88 3.13141 -5.14029 0
M  V30 3974 H 388.706 0.636505 -2.96955 0
M  V30 3975 H 386.291 0.248559 -1.47318 0
M  V30 3976 H 388.173 3.08722 -2.86825 0
M  V30 3977 H 386.848 2.73973 -1.72397 0
M  V30 3978 H 385.755 1.27276 -3.51784 0
M  V30 3979 H 387.088 1.69305 -4.62165 0
M  V30 3980 N 388.74 1.54641 0.303973 0
M  V30 3981 C 389.987 1.7378 1.03955 0
M  V30 3982 C 390.315 0.521986 1.87365 0
M  V30 3983 O 389.57 -0.496099 1.89308 0
M  V30 3984 C 389.869 2.97753 1.97681 0
M  V30 3985 C 389.535 4.31671 1.30271 0
M  V30 3986 C 388.197 4.68075 1.11619 0
M  V30 3987 C 390.549 5.147 0.82055 0
M  V30 3988 C 387.877 5.8509 0.434304 0
M  V30 3989 C 390.229 6.32416 0.152395 0
M  V30 3990 C 388.893 6.67484 -0.0461067 0
M  V30 3991 H 388.163 0.635908 0.380398 0
M  V30 3992 H 390.81 1.88896 0.314718 0
M  V30 3993 H 389.115 2.77406 2.76682 0
M  V30 3994 H 390.812 3.09756 2.54661 0
M  V30 3995 H 387.402 4.03041 1.45795 0
M  V30 3996 H 391.586 4.87077 0.952374 0
M  V30 3997 H 386.842 6.10806 0.269495 0
M  V30 3998 H 391.016 6.96023 -0.229126 0
M  V30 3999 H 388.643 7.58011 -0.576494 0
M  V30 4000 N 390.218 -0.567019 1.47046 0
M  V30 4001 C 391.466 -1.322 1.52864 0
M  V30 4002 C 391.787 -1.94088 0.188388 0
M  V30 4003 O 391.057 -1.7941 -0.786693 0
M  V30 4004 H 389.637 -0.490894 0.563056 0
M  V30 4005 H 392.299 -0.662879 1.83281 0
M  V30 4006 H 391.395 -2.12062 2.2899 0
M  V30 4007 N 391.696 -1.35014 -0.812953 0
M  V30 4008 C 392.944 -1.27678 -1.56661 0
M  V30 4009 C 393.265 0.150359 -1.94419 0
M  V30 4010 O 392.535 1.08532 -1.63088 0
M  V30 4011 H 391.115 -0.469602 -0.580933 0
M  V30 4012 H 393.777 -1.69043 -0.970076 0
M  V30 4013 H 392.873 -1.88833 -2.48492 0
M  V30 4014 N 393.175 1.03435 -1.18907 0
M  V30 4015 C 394.138 2.09756 -0.923844 0
M  V30 4016 C 395.138 1.60528 0.093416 0
M  V30 4017 O 396.328 1.73631 -0.140727 0
M  V30 4018 C 393.46 3.38692 -0.387354 0
M  V30 4019 H 394.653 2.34719 -1.86674 0
M  V30 4020 H 392.206 1.19959 -1.00197 0
M  V30 4021 H 392.941 3.19396 0.561845 0
M  V30 4022 H 392.726 3.75742 -1.12074 0
M  V30 4023 H 394.216 4.17016 -0.220694 0
M  V30 4024 N 394.653 0.992116 1.22453 0
M  V30 4025 C 395.899 0.668523 1.91464 0
M  V30 4026 C 396.232 -0.797313 1.77078 0
M  V30 4027 O 395.507 -1.5765 1.13916 0
M  V30 4028 C 395.79 1.07424 3.43703 0
M  V30 4029 C 395.643 2.59857 3.67143 0
M  V30 4030 C 396.962 0.626891 4.35612 0
M  V30 4031 H 394.081 0.244341 0.695318 0
M  V30 4032 H 396.723 1.2355 1.44345 0
M  V30 4033 H 394.873 0.591816 3.83966 0
M  V30 4034 H 396.545 3.15764 3.3629 0
M  V30 4035 H 394.788 3.01961 3.11451 0
M  V30 4036 H 395.459 2.83296 4.73759 0
M  V30 4037 H 397.935 1.04125 4.02861 0
M  V30 4038 H 396.811 0.939076 5.40807 0
M  V30 4039 H 397.072 -0.472457 4.39568 0
M  V30 4040 N 396.131 -1.37776 0.765217 0
M  V30 4041 C 397.379 -1.99454 0.325943 0
M  V30 4042 C 397.7 -1.61049 -1.09947 0
M  V30 4043 O 396.97 -0.872821 -1.75381 0
M  V30 4044 H 395.55 -0.737697 0.117525 0
M  V30 4045 H 398.212 -1.68359 0.981895 0
M  V30 4046 H 397.308 -3.09547 0.398353 0
M  V30 4047 N 397.609 -0.515225 -1.4894 0
M  V30 4048 C 398.539 0.244628 -2.32215 0
M  V30 4049 C 399.52 0.949136 -1.41157 0
M  V30 4050 O 400.705 0.937783 -1.70057 0
M  V30 4051 C 397.835 1.30096 -3.22013 0
M  V30 4052 C 396.789 0.715486 -4.21977 0
M  V30 4053 C 396.115 1.87339 -5.00808 0
M  V30 4054 C 397.415 -0.302982 -5.2142 0
M  V30 4055 H 399.109 -0.450501 -2.95991 0
M  V30 4056 H 396.655 -0.218098 -1.42339 0
M  V30 4057 H 398.608 1.84037 -3.79089 0
M  V30 4058 H 397.332 2.02547 -2.56207 0
M  V30 4059 H 395.991 0.197715 -3.66066 0
M  V30 4060 H 395.639 2.58592 -4.31438 0
M  V30 4061 H 395.339 1.48764 -5.68457 0
M  V30 4062 H 396.863 2.41686 -5.60732 0
M  V30 4063 H 398.277 0.148802 -5.73107 0
M  V30 4064 H 396.674 -0.60532 -5.97039 0
M  V30 4065 H 397.744 -1.21395 -4.69459 0
M  V30 4066 N 399.087 1.5561 -0.249682 0
M  V30 4067 C 400.327 2.00916 0.37579 0
M  V30 4068 C 400.691 1.13409 1.54927 0
M  V30 4069 O 401.892 1.48183 2.24266 0
M  V30 4070 C 400.163 3.48949 0.772633 0
M  V30 4071 S 401.722 4.16261 1.38824 0
M  V30 4072 H 398.54 0.70112 0.118117 0
M  V30 4073 H 401.142 1.92052 -0.365567 0
M  V30 4074 H 399.846 4.103 -0.090683 0
M  V30 4075 H 399.377 3.61745 1.5461 0
M  V30 4076 H 401.392 4.17778 2.67724 0
M  V30 4077 N 400.565 -0.0233959 1.57583 0
M  V30 4078 C 401.812 -0.713063 1.8953 0
M  V30 4079 C 402.14 -1.75056 0.847673 0
M  V30 4080 O 401.395 -1.95119 -0.150636 0
M  V30 4081 C 401.694 -1.41428 3.28227 0
M  V30 4082 C 401.36 -0.512222 4.47981 0
M  V30 4083 C 400.022 -0.263785 4.80476 0
M  V30 4084 C 402.374 0.110248 5.21083 0
M  V30 4085 C 399.702 0.615804 5.83459 0
M  V30 4086 C 402.054 0.977573 6.25001 0
M  V30 4087 C 400.718 1.23542 6.55968 0
M  V30 4088 H 399.988 -0.260928 0.69354 0
M  V30 4089 H 402.635 0.0271047 1.91481 0
M  V30 4090 H 400.94 -2.22791 3.22291 0
M  V30 4091 H 402.637 -1.95355 3.50196 0
M  V30 4092 H 399.227 -0.716013 4.22577 0
M  V30 4093 H 403.411 -0.0687137 4.96252 0
M  V30 4094 H 398.667 0.82382 6.05824 0
M  V30 4095 H 402.841 1.46638 6.80786 0
M  V30 4096 H 400.468 1.91871 7.35588 0
M  V30 4097 N 402.043 -1.548 -0.295768 0
M  V30 4098 C 403.273 -1.78069 -1.04762 0
M  V30 4099 C 403.681 -0.542847 -1.81245 0
M  V30 4100 O 403.024 0.497051 -1.76848 0
M  V30 4101 C 403.086 -2.93881 -2.07061 0
M  V30 4102 C 402.75 -4.31777 -1.49725 0
M  V30 4103 C 403.747 -5.11613 -0.924581 0
M  V30 4104 C 401.432 -4.78389 -1.5313 0
M  V30 4105 C 403.426 -6.36184 -0.393594 0
M  V30 4106 C 401.113 -6.02921 -0.996447 0
M  V30 4107 C 402.111 -6.81654 -0.428569 0
M  V30 4108 O 401.799 -8.0384 0.0981593 0
M  V30 4109 H 401.531 -0.597475 -0.316226 0
M  V30 4110 H 404.085 -2.02584 -0.338973 0
M  V30 4111 H 402.315 -2.65003 -2.81621 0
M  V30 4112 H 404.004 -3.04679 -2.6819 0
M  V30 4113 H 404.77 -4.76743 -0.891136 0
M  V30 4114 H 400.649 -4.17132 -1.9627 0
M  V30 4115 H 404.193 -6.97582 0.0503014 0
M  V30 4116 H 400.09 -6.37277 -1.02706 0
M  V30 4117 H 400.858 -8.18499 -0.0146455 0
M  V30 4118 N 403.521 0.559213 -1.47345 0
M  V30 4119 C 404.451 1.67622 -1.62558 0
M  V30 4120 C 405.432 1.63331 -0.475087 0
M  V30 4121 O 406.617 1.80983 -0.704182 0
M  V30 4122 C 403.747 3.0626 -1.63774 0
M  V30 4123 C 402.701 3.25397 -2.7803 0
M  V30 4124 C 402.027 4.64801 -2.64318 0
M  V30 4125 C 403.327 3.10965 -4.19641 0
M  V30 4126 H 405.021 1.55146 -2.56067 0
M  V30 4127 H 402.567 0.744961 -1.23233 0
M  V30 4128 H 404.52 3.84247 -1.73008 0
M  V30 4129 H 403.244 3.1969 -0.66825 0
M  V30 4130 H 401.903 2.49817 -2.68304 0
M  V30 4131 H 401.551 4.75028 -1.65401 0
M  V30 4132 H 401.251 4.78555 -3.40968 0
M  V30 4133 H 402.775 5.44926 -2.75478 0
M  V30 4134 H 404.189 3.78772 -4.30354 0
M  V30 4135 H 402.586 3.36229 -4.97062 0
M  V30 4136 H 403.656 2.07736 -4.38148 0
M  V30 4137 N 404.999 1.35443 0.805782 0
M  V30 4138 C 406.247 1.28507 1.55982 0
M  V30 4139 C 406.568 -0.140046 1.94496 0
M  V30 4140 O 405.838 -1.07666 1.63661 0
M  V30 4141 H 404.418 0.472676 0.578434 0
M  V30 4142 H 407.08 1.69555 0.961098 0
M  V30 4143 H 406.176 1.90148 2.47488 0
M  V30 4144 N 406.477 -1.02803 1.19454 0
M  V30 4145 C 407.705 -1.79841 1.02297 0
M  V30 4146 C 408.12 -1.83879 -0.428259 0
M  V30 4147 O 407.477 -1.28345 -1.29745 0
M  V30 4148 C 407.528 -3.24852 1.58598 0
M  V30 4149 O 407.249 -3.21097 2.98041 0
M  V30 4150 C 408.75 -4.18485 1.46236 0
M  V30 4151 H 405.97 -0.565936 0.360496 0
M  V30 4152 H 408.514 -1.2948 1.58288 0
M  V30 4153 H 406.669 -3.72401 1.06753 0
M  V30 4154 H 407.083 -4.12033 3.24545 0
M  V30 4155 H 408.557 -5.18121 1.90407 0
M  V30 4156 H 409.034 -4.37254 0.41301 0
M  V30 4157 H 409.64 -3.76811 1.97215 0
M  V30 4158 N 407.956 -0.998596 -1.21925 0
M  V30 4159 C 409.184 -0.696286 -1.94832 0
M  V30 4160 C 409.599 0.740032 -1.73692 0
M  V30 4161 O 408.956 1.5 -1.03953 0
M  V30 4162 C 409.007 -0.999833 -3.47398 0
M  V30 4163 O 408.728 -2.37972 -3.67833 0
M  V30 4164 C 410.229 -0.716025 -4.37479 0
M  V30 4165 H 407.449 -0.257111 -0.619786 0
M  V30 4166 H 409.993 -1.33491 -1.54921 0
M  V30 4167 H 408.148 -0.406918 -3.85257 0
M  V30 4168 H 408.562 -2.48338 -4.61983 0
M  V30 4169 H 410.036 -0.978642 -5.43256 0
M  V30 4170 H 410.513 0.349968 -4.37803 0
M  V30 4171 H 411.119 -1.29025 -4.05256 0
M  V30 4172 N 409.434 1.37368 -0.772513 0
M  V30 4173 C 410.681 1.99673 -0.337182 0
M  V30 4174 C 411.009 1.61324 1.0865 0
M  V30 4175 O 410.264 0.851377 1.7621 0
M  V30 4176 C 410.563 3.54817 -0.428876 0
M  V30 4177 C 410.229 4.12936 -1.81092 0
M  V30 4178 C 408.891 4.28523 -2.1891 0
M  V30 4179 C 411.243 4.44801 -2.71664 0
M  V30 4180 C 408.571 4.73277 -3.46735 0
M  V30 4181 C 410.923 4.90981 -3.98899 0
M  V30 4182 C 409.587 5.04773 -4.36761 0
M  V30 4183 H 408.857 0.730656 -0.123384 0
M  V30 4184 H 411.504 1.64124 -0.986686 0
M  V30 4185 H 409.809 3.90618 0.304167 0
M  V30 4186 H 411.506 4.00933 -0.0733334 0
M  V30 4187 H 408.096 4.01233 -1.50699 0
M  V30 4188 H 412.28 4.32344 -2.43706 0
M  V30 4189 H 407.536 4.82142 -3.75964 0
M  V30 4190 H 411.71 5.14603 -4.69208 0
M  V30 4191 H 409.337 5.39211 -5.35868 0
M  V30 4192 N 410.912 0.523116 1.48665 0
M  V30 4193 C 411.875 -0.232592 2.28017 0
M  V30 4194 C 412.875 -0.874021 1.34972 0
M  V30 4195 O 414.065 -0.735132 1.57929 0
M  V30 4196 C 411.197 -1.33586 3.13636 0
M  V30 4197 H 412.39 0.464008 2.96289 0
M  V30 4198 H 409.943 0.278816 1.53793 0
M  V30 4199 H 410.678 -2.06593 2.4998 0
M  V30 4200 H 410.463 -0.881125 3.82071 0
M  V30 4201 H 411.953 -1.86759 3.73511 0
M  V30 4202 N 412.39 -1.55475 0.257931 0
M  V30 4203 C 413.353 -2.20551 -0.623706 0
M  V30 4204 C 414.353 -1.17809 -1.09443 0
M  V30 4205 O 415.543 -1.42823 -0.997362 0
M  V30 4206 C 412.675 -2.85784 -1.8585 0
M  V30 4207 H 413.868 -2.99848 -0.0557743 0
M  V30 4208 H 411.421 -1.56298 0.0084422 0
M  V30 4209 H 412.156 -2.10453 -2.46739 0
M  V30 4210 H 411.941 -3.61057 -1.52907 0
M  V30 4211 H 413.431 -3.35553 -2.48584 0
M  V30 4212 N 413.868 0.0150385 -1.57593 0
M  V30 4213 C 414.831 0.995996 -2.06428 0
M  V30 4214 C 415.831 1.2818 -0.970903 0
M  V30 4215 O 417.021 1.22949 -1.23406 0
M  V30 4216 C 414.153 2.32506 -2.49307 0
M  V30 4217 H 415.346 0.573873 -2.94358 0
M  V30 4218 H 412.899 0.262186 -1.54085 0
M  V30 4219 H 413.634 2.79438 -1.64575 0
M  V30 4220 H 413.419 2.13087 -3.29145 0
M  V30 4221 H 414.909 3.02906 -2.87468 0
M  V30 4222 N 415.346 1.54954 0.287554 0
M  V30 4223 C 416.279 1.81737 1.3801 0
M  V30 4224 C 417.257 0.669412 1.48181 0
M  V30 4225 O 418.441 0.910839 1.65033 0
M  V30 4226 C 415.568 1.96606 2.75796 0
M  V30 4227 C 414.614 3.19098 2.82982 0
M  V30 4228 S 415.447 4.7683 2.43707 0
M  V30 4229 C 416.603 4.94653 3.83496 0
M  V30 4230 H 416.836 2.74122 1.15085 0
M  V30 4231 H 414.369 1.46538 0.486403 0
M  V30 4232 H 416.327 2.05858 3.55152 0
M  V30 4233 H 414.988 1.05136 2.95982 0
M  V30 4234 H 414.181 3.26344 3.84077 0
M  V30 4235 H 413.783 3.08361 2.11635 0
M  V30 4236 H 416.075 4.79502 4.78628 0
M  V30 4237 H 417.018 5.96728 3.8121 0
M  V30 4238 H 417.426 4.2272 3.74123 0
M  V30 4239 N 416.824 -0.551391 1.4764 0
M  V30 4240 C 418.054 -1.33163 1.57959 0
M  V30 4241 C 418.462 -1.87785 0.23094 0
M  V30 4242 O 417.805 -1.65996 -0.786825 0
M  V30 4243 C 417.867 -2.53449 2.54958 0
M  V30 4244 C 417.531 -2.20071 4.00522 0
M  V30 4245 C 418.528 -1.77017 4.88836 0
M  V30 4246 C 416.213 -2.31252 4.45901 0
M  V30 4247 C 418.207 -1.4558 6.20552 0
M  V30 4248 C 415.894 -1.99427 5.77644 0
M  V30 4249 C 416.892 -1.56659 6.64791 0
M  V30 4250 O 416.58 -1.25242 7.94084 0
M  V30 4251 H 416.312 -0.412022 0.535923 0
M  V30 4252 H 418.866 -0.674186 1.9402 0
M  V30 4253 H 417.096 -3.22104 2.13976 0
M  V30 4254 H 418.785 -3.15523 2.55343 0
M  V30 4255 H 419.551 -1.67867 4.55023 0
M  V30 4256 H 415.43 -2.63498 3.78272 0
M  V30 4257 H 418.974 -1.12125 6.8853 0
M  V30 4258 H 414.871 -2.08211 6.10998 0
M  V30 4259 H 415.639 -1.38822 8.06642 0
M  V30 4260 N 418.302 -1.35869 -0.798587 0
M  V30 4261 C 419.551 -1.28921 -1.5512 0
M  V30 4262 C 419.864 0.13208 -1.95154 0
M  V30 4263 O 421.07 0.323879 -2.69561 0
M  V30 4264 C 419.526 -2.26141 -2.79979 0
M  V30 4265 C 419.134 -3.73658 -2.47151 0
M  V30 4266 C 420.878 -2.28152 -3.57976 0
M  V30 4267 C 418.785 -4.62679 -3.6835 0
M  V30 4268 H 417.715 -0.479031 -0.582276 0
M  V30 4269 H 420.366 -1.61179 -0.877125 0
M  V30 4270 H 418.748 -1.86865 -3.49138 0
M  V30 4271 H 419.922 -4.21616 -1.85947 0
M  V30 4272 H 418.237 -3.74333 -1.82383 0
M  V30 4273 H 420.834 -2.91875 -4.4801 0
M  V30 4274 H 421.177 -1.28748 -3.95891 0
M  V30 4275 H 421.71 -2.65998 -2.95787 0
M  V30 4276 H 418.449 -5.63111 -3.35538 0
M  V30 4277 H 417.969 -4.19442 -4.28752 0
M  V30 4278 H 419.648 -4.78498 -4.35487 0
M  V30 4279 N 419.78 1.02168 -1.19998 0
M  V30 4280 C 420.71 2.12488 -0.96804 0
M  V30 4281 C 421.691 1.69799 0.101185 0
M  V30 4282 O 422.876 1.94121 -0.0552993 0
M  V30 4283 C 420.006 3.43479 -0.513776 0
M  V30 4284 C 418.96 3.99884 -1.52566 0
M  V30 4285 C 418.286 5.26582 -0.928214 0
M  V30 4286 C 419.586 4.33861 -2.90795 0
M  V30 4287 H 421.28 2.32149 -1.89069 0
M  V30 4288 H 418.826 1.11564 -0.910468 0
M  V30 4289 H 420.779 4.20036 -0.338774 0
M  V30 4290 H 419.503 3.23561 0.444493 0
M  V30 4291 H 418.162 3.25429 -1.68794 0
M  V30 4292 H 417.81 5.02986 0.0378289 0
M  V30 4293 H 417.51 5.65284 -1.60397 0
M  V30 4294 H 419.034 6.05799 -0.764167 0
M  V30 4295 H 420.448 5.01327 -2.78109 0
M  V30 4296 H 418.845 4.83664 -3.55231 0
M  V30 4297 H 419.915 3.42848 -3.42904 0
M  V30 4298 N 421.258 1.00505 1.21394 0
M  V30 4299 C 422.506 0.686415 1.90086 0
M  V30 4300 C 422.827 -0.785264 1.7849 0
M  V30 4301 O 422.097 -1.56387 1.17983 0
M  V30 4302 H 420.677 0.2509 0.703604 0
M  V30 4303 H 423.339 1.27417 1.47482 0
M  V30 4304 H 422.435 0.959621 2.96981 0
M  V30 4305 N 422.737 -1.36956 0.779787 0
M  V30 4306 C 423.7 -2.2851 0.177662 0
M  V30 4307 C 424.7 -1.48393 -0.619377 0
M  V30 4308 O 425.89 -1.68505 -0.441785 0
M  V30 4309 C 423.022 -3.32428 -0.755279 0
M  V30 4310 H 424.215 -2.83269 0.984823 0
M  V30 4311 H 421.768 -1.46358 0.548544 0
M  V30 4312 H 422.503 -2.82808 -1.58714 0
M  V30 4313 H 422.288 -3.91659 -0.185817 0
M  V30 4314 H 423.778 -4.00824 -1.17174 0
M  V30 4315 N 424.215 -0.530993 -1.48385 0
M  V30 4316 C 425.464 0.00474348 -2.01699 0
M  V30 4317 C 425.777 1.35227 -1.41325 0
M  V30 4318 O 426.983 1.97643 -1.86144 0
M  V30 4319 C 425.439 0.0588473 -3.59852 0
M  V30 4320 C 425.047 -1.28385 -4.2921 0
M  V30 4321 C 426.791 0.543358 -4.21008 0
M  V30 4322 C 424.698 -1.19028 -5.79298 0
M  V30 4323 H 423.628 0.00554317 -0.75398 0
M  V30 4324 H 426.279 -0.674924 -1.70637 0
M  V30 4325 H 424.661 0.803612 -3.8776 0
M  V30 4326 H 425.835 -2.04426 -4.12973 0
M  V30 4327 H 424.15 -1.70418 -3.7993 0
M  V30 4328 H 426.747 0.631351 -5.3096 0
M  V30 4329 H 427.09 1.54937 -3.86394 0
M  V30 4330 H 427.623 -0.145754 -3.97533 0
M  V30 4331 H 424.362 -2.17147 -6.18488 0
M  V30 4332 H 423.882 -0.471246 -5.97946 0
M  V30 4333 H 425.561 -0.881365 -6.40969 0
M  V30 4334 N 425.693 1.55336 -0.266172 0
M  V30 4335 C 426.603 2.2583 0.635458 0
M  V30 4336 C 427.619 1.28106 1.17749 0
M  V30 4337 O 428.795 1.61024 1.20968 0
M  V30 4338 C 425.86 2.95879 1.80712 0
M  V30 4339 C 424.921 4.09059 1.30265 0
M  V30 4340 C 424.154 4.75759 2.41846 0
M  V30 4341 O 424.377 4.41622 3.61007 0
M  V30 4342 O 423.311 5.63888 2.1051 0
M  V30 4343 H 427.137 3.03631 0.0646693 0
M  V30 4344 H 424.722 1.49361 -0.0339177 0
M  V30 4345 H 426.604 3.39932 2.49047 0
M  V30 4346 H 425.279 2.21002 2.36516 0
M  V30 4347 H 424.186 3.69482 0.586019 0
M  V30 4348 H 425.519 4.85811 0.790458 0
M  V30 4349 N 427.171 -0.0066808 1.57599 0
M  V30 4350 C 428.42 -0.692078 1.89455 0
M  V30 4351 C 428.733 -1.75306 0.867586 0
M  V30 4352 O 429.939 -2.49262 1.07614 0
M  V30 4353 C 428.395 -1.2821 3.36289 0
M  V30 4354 C 428.003 -0.256291 4.47266 0
M  V30 4355 C 429.747 -1.94608 3.77264 0
M  V30 4356 C 427.654 -0.855927 5.85173 0
M  V30 4357 H 426.584 -0.262252 0.706923 0
M  V30 4358 H 429.235 0.052769 1.83424 0
M  V30 4359 H 427.617 -2.0774 3.37135 0
M  V30 4360 H 428.791 0.513923 4.57925 0
M  V30 4361 H 427.106 0.306862 4.15268 0
M  V30 4362 H 429.703 -2.40364 4.77629 0
M  V30 4363 H 430.046 -2.77382 3.10427 0
M  V30 4364 H 430.579 -1.21822 3.78688 0
M  V30 4365 H 427.318 -0.0671161 6.55466 0
M  V30 4366 H 426.838 -1.59546 5.78191 0
M  V30 4367 H 428.517 -1.35658 6.32618 0
M  V30 4368 N 428.649 -1.55105 -0.279332 0
M  V30 4369 C 429.896 -1.75412 -1.01177 0
M  V30 4370 C 430.224 -0.551728 -1.86511 0
M  V30 4371 O 429.479 0.465919 -1.90073 0
M  V30 4372 C 429.778 -3.0086 -1.92919 0
M  V30 4373 C 429.444 -4.33689 -1.23387 0
M  V30 4374 C 428.106 -4.69792 -1.04159 0
M  V30 4375 C 430.458 -5.15941 -0.738562 0
M  V30 4376 C 427.786 -5.85707 -0.341166 0
M  V30 4377 C 430.138 -6.32579 -0.0517636 0
M  V30 4378 C 428.802 -6.67326 0.152292 0
M  V30 4379 H 428.072 -0.641879 -0.370233 0
M  V30 4380 H 430.719 -1.89373 -0.284627 0
M  V30 4381 H 429.024 -2.81773 -2.72234 0
M  V30 4382 H 430.721 -3.13768 -2.49701 0
M  V30 4383 H 427.311 -4.05309 -1.39364 0
M  V30 4384 H 431.495 -4.8853 -0.874764 0
M  V30 4385 H 426.751 -6.11157 -0.172287 0
M  V30 4386 H 430.925 -6.9557 0.339828 0
M  V30 4387 H 428.552 -7.56998 0.697014 0
M  V30 4388 N 430.127 0.543554 -1.4793 0
M  V30 4389 C 431.057 1.65888 -1.64327 0
M  V30 4390 C 432.038 1.62818 -0.492383 0
M  V30 4391 O 433.223 1.80226 -0.723338 0
M  V30 4392 C 430.353 3.04506 -1.67013 0
M  V30 4393 C 429.307 3.2243 -2.81466 0
M  V30 4394 C 428.633 4.61972 -2.69233 0
M  V30 4395 C 429.933 3.06496 -4.22915 0
M  V30 4396 H 431.627 1.52421 -2.57698 0
M  V30 4397 H 429.173 0.731849 -1.24016 0
M  V30 4398 H 431.126 3.82391 -1.77074 0
M  V30 4399 H 429.85 3.18964 -0.70212 0
M  V30 4400 H 428.509 2.46957 -2.70938 0
M  V30 4401 H 428.157 4.73247 -1.7043 0
M  V30 4402 H 427.857 4.74911 -3.46025 0
M  V30 4403 H 429.381 5.41974 -2.81242 0
M  V30 4404 H 430.795 3.74186 -4.34348 0
M  V30 4405 H 429.192 3.30938 -5.006 0
M  V30 4406 H 430.262 2.03077 -4.40327 0
M  V30 4407 N 431.605 1.3629 0.791371 0
M  V30 4408 C 432.851 1.30605 1.55146 0
M  V30 4409 C 433.184 -0.115042 1.93859 0
M  V30 4410 O 432.459 -1.06798 1.62556 0
M  V30 4411 C 432.742 2.22692 2.82985 0
M  V30 4412 C 432.595 3.73489 2.50651 0
M  V30 4413 C 433.914 2.13588 3.84796 0
M  V30 4414 H 431.033 0.475761 0.562868 0
M  V30 4415 H 433.675 1.66825 0.909358 0
M  V30 4416 H 431.825 1.91933 3.37778 0
M  V30 4417 H 433.497 4.14758 2.01924 0
M  V30 4418 H 431.74 3.93021 1.83622 0
M  V30 4419 H 432.411 4.3333 3.41949 0
M  V30 4420 H 434.887 2.40659 3.39445 0
M  V30 4421 H 433.763 2.80195 4.71998 0
M  V30 4422 H 434.024 1.12256 4.27611 0
M  V30 4423 N 433.083 -1.0153 1.20538 0
M  V30 4424 C 434.313 -1.78487 1.04048 0
M  V30 4425 C 434.721 -1.84631 -0.413292 0
M  V30 4426 O 434.064 -1.29919 -1.29872 0
M  V30 4427 C 434.126 -3.24367 1.55003 0
M  V30 4428 C 433.79 -3.41827 3.0332 0
M  V30 4429 C 434.787 -3.30941 4.00966 0
M  V30 4430 C 432.472 -3.67602 3.42307 0
M  V30 4431 C 434.466 -3.45577 5.35589 0
M  V30 4432 C 432.153 -3.81881 4.77085 0
M  V30 4433 C 433.151 -3.70874 5.73534 0
M  V30 4434 O 432.839 -3.84714 7.05868 0
M  V30 4435 H 432.571 -0.568108 0.366373 0
M  V30 4436 H 435.125 -1.28677 1.60098 0
M  V30 4437 H 433.355 -3.75266 0.933397 0
M  V30 4438 H 435.044 -3.82963 1.34514 0
M  V30 4439 H 435.81 -3.10964 3.72191 0
M  V30 4440 H 431.689 -3.75256 2.67776 0
M  V30 4441 H 435.233 -3.36902 6.10854 0
M  V30 4442 H 431.13 -4.01359 5.0555 0
M  V30 4443 H 431.898 -4.01724 7.13134 0
M  V30 4444 N 434.561 -1.01147 -1.20859 0
M  V30 4445 C 435.81 -0.693214 -1.89413 0
M  V30 4446 C 436.123 0.779969 -1.79376 0
M  V30 4447 O 437.329 1.21057 -2.43017 0
M  V30 4448 C 435.785 -1.18949 -3.39675 0
M  V30 4449 C 435.393 -2.68921 -3.58309 0
M  V30 4450 C 437.137 -0.94642 -4.13815 0
M  V30 4451 C 435.044 -3.12056 -5.0237 0
M  V30 4452 H 433.974 -0.255595 -0.709357 0
M  V30 4453 H 436.625 -1.22349 -1.36759 0
M  V30 4454 H 435.007 -0.587228 -3.91622 0
M  V30 4455 H 436.181 -3.34652 -3.16772 0
M  V30 4456 H 434.496 -2.91314 -2.97532 0
M  V30 4457 H 437.093 -1.24417 -5.20023 0
M  V30 4458 H 437.436 0.117219 -4.16135 0
M  V30 4459 H 437.969 -1.5118 -3.67953 0
M  V30 4460 H 434.708 -4.17674 -5.05202 0
M  V30 4461 H 434.228 -2.51041 -5.44737 0
M  V30 4462 H 435.907 -3.04403 -5.70918 0
M  V30 4463 N 436.039 1.36541 -0.78704 0
M  V30 4464 C 437.285 1.99599 -0.358872 0
M  V30 4465 C 437.618 1.62323 1.06606 0
M  V30 4466 O 436.893 0.876858 1.73613 0
M  V30 4467 C 437.176 3.56327 -0.519944 0
M  V30 4468 C 437.029 4.03464 -1.98839 0
M  V30 4469 C 438.348 4.4005 0.0664737 0
M  V30 4470 H 435.467 0.725107 -0.131869 0
M  V30 4471 H 438.109 1.6199 -0.992936 0
M  V30 4472 H 436.259 3.88495 0.0198321 0
M  V30 4473 H 437.931 3.81793 -2.58905 0
M  V30 4474 H 436.174 3.55092 -2.49183 0
M  V30 4475 H 436.845 5.12439 -2.05207 0
M  V30 4476 H 439.321 4.14228 -0.394267 0
M  V30 4477 H 438.197 5.48847 -0.0762682 0
M  V30 4478 H 438.458 4.26655 1.15835 0
M  V30 4479 N 437.518 0.538854 1.48102 0
M  V30 4480 C 438.929 0.100679 1.86428 0
M  V30 4481 C 439.28 -1.32447 1.44749 0
M  V30 4482 O 438.405 -1.99339 0.842199 0
M  V30 4483 C 439 0.175933 3.38343 0
M  V30 4484 C 437.559 -0.207098 3.7583 0
M  V30 4485 C 436.706 0.531741 2.72154 0
M  V30 4486 H 439.657 0.749614 1.3988 0
M  V30 4487 H 439.678 -0.610144 3.75576 0
M  V30 4488 H 439.19 1.21328 3.68648 0
M  V30 4489 H 437.291 -1.24626 3.5114 0
M  V30 4490 H 437.404 0.138687 4.78899 0
M  V30 4491 H 435.768 -0.0230462 2.5469 0
M  V30 4492 H 436.551 1.56989 3.05302 0
M  V30 4493 N 438.996 -1.55193 0.274407 0
M  V30 4494 C 440.412 -1.59401 -0.0797543 0
M  V30 4495 C 440.612 -1.29162 -1.54659 0
M  V30 4496 O 439.668 -1.05215 -2.29534 0
M  V30 4497 C 440.981 -2.99257 0.294238 0
M  V30 4498 C 442.529 -3.12072 0.240796 0
M  V30 4499 C 443.004 -4.54194 0.589218 0
M  V30 4500 N 444.495 -4.60033 0.540744 0
M  V30 4501 C 445.23 -5.68027 0.783147 0
M  V30 4502 N 444.726 -6.8417 1.09013 0
M  V30 4503 N 446.519 -5.57572 0.711993 0
M  V30 4504 H 438.67 -1.73113 1.23067 0
M  V30 4505 H 440.933 -0.807197 0.497129 0
M  V30 4506 H 440.639 -3.26217 1.31435 0
M  V30 4507 H 440.513 -3.75427 -0.365281 0
M  V30 4508 H 442.9 -2.84877 -0.770024 0
M  V30 4509 H 442.981 -2.38117 0.934563 0
M  V30 4510 H 442.625 -4.82115 1.59772 0
M  V30 4511 H 442.555 -5.26448 -0.126331 0
M  V30 4512 H 445.046 -3.76599 0.313327 0
M  V30 4513 H 445.359 -7.6243 1.26178 0
M  V30 4514 H 443.704 -6.85787 1.12789 0
M  V30 4515 H 446.895 -4.65714 0.472014 0
M  V30 4516 H 447.068 -6.41659 0.90429 0
M  V30 4517 N 440.474 -0.00167713 -1.576 0
M  V30 4518 C 441.437 0.974046 -2.07473 0
M  V30 4519 C 442.437 1.27143 -0.984444 0
M  V30 4520 O 443.627 1.21633 -1.24703 0
M  V30 4521 C 440.759 2.29849 -2.51759 0
M  V30 4522 H 441.952 0.54262 -2.9495 0
M  V30 4523 H 439.505 0.245829 -1.54355 0
M  V30 4524 H 440.24 2.77677 -1.67529 0
M  V30 4525 H 440.025 2.09584 -3.31386 0
M  V30 4526 H 441.515 2.9984 -2.90664 0
M  V30 4527 N 441.952 1.55251 0.271103 0
M  V30 4528 C 442.915 1.87484 1.31842 0
M  V30 4529 C 443.915 0.749545 1.42262 0
M  V30 4530 O 445.105 1.01771 1.4138 0
M  V30 4531 C 442.237 2.0818 2.69951 0
M  V30 4532 H 443.43 2.81108 1.0449 0
M  V30 4533 H 440.983 1.47771 0.509258 0
M  V30 4534 H 441.718 1.16944 3.02481 0
M  V30 4535 H 441.503 2.90114 2.63774 0
M  V30 4536 H 442.993 2.34385 3.4562 0
M  V30 4537 N 443.43 -0.535701 1.48216 0
M  V30 4538 C 444.679 -1.28828 1.55197 0
M  V30 4539 C 444.992 -1.94263 0.228278 0
M  V30 4540 O 446.198 -2.70927 0.176278 0
M  V30 4541 C 444.654 -2.33727 2.73678 0
M  V30 4542 C 444.262 -1.74386 4.12666 0
M  V30 4543 C 446.006 -3.1003 2.89968 0
M  V30 4544 C 443.913 -2.77192 5.22416 0
M  V30 4545 H 442.843 -0.484484 0.577747 0
M  V30 4546 H 445.494 -0.56646 1.74538 0
M  V30 4547 H 443.876 -3.08919 2.4776 0
M  V30 4548 H 445.05 -1.05421 4.48579 0
M  V30 4549 H 443.365 -1.10595 4.01445 0
M  V30 4550 H 445.962 -3.86842 3.6913 0
M  V30 4551 H 446.305 -3.65542 1.9921 0
M  V30 4552 H 446.838 -2.41952 3.15759 0
M  V30 4553 H 443.577 -2.26507 6.15122 0
M  V30 4554 H 443.097 -3.44502 4.90998 0
M  V30 4555 H 444.776 -3.40285 5.50286 0
M  V30 4556 N 444.908 -1.36708 -0.784132 0
M  V30 4557 C 446.155 -1.31231 -1.54222 0
M  V30 4558 C 446.483 0.106864 -1.94206 0
M  V30 4559 O 445.738 1.07734 -1.63376 0
M  V30 4560 C 446.037 -2.18571 -2.82774 0
M  V30 4561 C 445.703 -3.67039 -2.61903 0
M  V30 4562 C 444.365 -4.07503 -2.55919 0
M  V30 4563 C 446.717 -4.61149 -2.4288 0
M  V30 4564 C 444.045 -5.40211 -2.28886 0
M  V30 4565 C 446.397 -5.94081 -2.17373 0
M  V30 4566 C 445.061 -6.33664 -2.09825 0
M  V30 4567 H 444.331 -0.48021 -0.56434 0
M  V30 4568 H 446.978 -1.68807 -0.904233 0
M  V30 4569 H 445.283 -1.73949 -3.51068 0
M  V30 4570 H 446.98 -2.11655 -3.40592 0
M  V30 4571 H 443.57 -3.34941 -2.67418 0
M  V30 4572 H 447.754 -4.30756 -2.46501 0
M  V30 4573 H 443.01 -5.69855 -2.21529 0
M  V30 4574 H 447.184 -6.66566 -2.01649 0
M  V30 4575 H 444.811 -7.36423 -1.88641 0
M  V30 4576 N 446.386 1.0089 -1.21074 0
M  V30 4577 C 447.336 2.0799 -0.934034 0
M  V30 4578 C 448.32 1.60529 0.10919 0
M  V30 4579 O 449.512 1.76722 -0.0992198 0
M  V30 4580 C 446.641 3.39693 -0.496334 0
M  V30 4581 C 445.727 3.93833 -1.57341 0
M  V30 4582 N 446.118 4.21388 -2.7976 0
M  V30 4583 C 444.416 4.22067 -1.44137 0
M  V30 4584 C 445.117 4.65156 -3.49292 0
M  V30 4585 N 444.093 4.67895 -2.76722 0
M  V30 4586 H 447.895 2.27213 -1.86417 0
M  V30 4587 H 445.409 1.18927 -1.10589 0
M  V30 4588 H 447.406 4.15962 -0.279471 0
M  V30 4589 H 446.066 3.21879 0.427084 0
M  V30 4590 H 447.077 4.10061 -3.1634 0
M  V30 4591 H 443.754 4.1341 -0.582947 0
M  V30 4592 H 445.144 4.95231 -4.54088 0
M  V30 4593 N 447.864 1.01787 1.20321 0
M  V30 4594 C 449.089 0.727009 1.9424 0
M  V30 4595 C 449.514 -0.706179 1.74341 0
M  V30 4596 O 448.872 -1.48609 1.03852 0
M  V30 4597 C 448.92 1.06958 3.44372 0
M  V30 4598 O 448.024 0.181983 4.11998 0
M  V30 4599 H 447.365 0.269626 0.606793 0
M  V30 4600 H 449.895 1.36158 1.52716 0
M  V30 4601 H 449.905 1.02182 3.94997 0
M  V30 4602 H 448.58 2.11378 3.58179 0
M  V30 4603 H 447.157 0.287378 3.71791 0
M  V30 4604 N 449.342 -1.36122 0.79427 0
M  V30 4605 C 450.619 -1.93398 0.292685 0
M  V30 4606 C 450.999 -1.72567 -1.21589 0
M  V30 4607 O 450.347 -1.08745 -2.00965 0
M  V30 4608 C 450.557 -3.42099 0.690614 0
M  V30 4609 C 451.905 -4.19231 0.673105 0
M  V30 4610 O 452.929 -3.50559 0.631389 0
M  V30 4611 O 451.788 -5.41732 0.720362 0
M  V30 4612 H 448.882 -0.823712 0.0736693 0
M  V30 4613 H 451.428 -1.45273 0.87714 0
M  V30 4614 H 450.2 -3.50938 1.73085 0
M  V30 4615 H 449.823 -3.97519 0.0803036 0
M  V30 4616 N 450.82 -0.546701 -1.47814 0
M  V30 4617 C 452.097 0.0464413 -1.95545 0
M  V30 4618 C 452.477 1.4962 -1.48919 0
M  V30 4619 O 451.825 2.16752 -0.723232 0
M  V30 4620 C 452.035 -0.0881298 -3.48889 0
M  V30 4621 C 453.383 0.0626059 -4.24554 0
M  V30 4622 O 454.407 -0.0151555 -3.56197 0
M  V30 4623 O 453.266 0.228071 -5.46024 0
M  V30 4624 H 450.36 0.0700004 -0.824032 0
M  V30 4625 H 452.906 -0.612482 -1.58262 0
M  V30 4626 H 451.678 -1.09737 -3.75597 0
M  V30 4627 H 451.301 0.608886 -3.9291 0
M  V30 4628 N 452.299 1.55045 -0.282633 0
M  V30 4629 C 453.262 2.21515 0.588539 0
M  V30 4630 C 454.262 1.19535 1.07554 0
M  V30 4631 O 455.452 1.44391 0.974514 0
M  V30 4632 C 452.584 2.88704 1.8128 0
M  V30 4633 H 453.777 2.99899 0.00806397 0
M  V30 4634 H 451.33 1.56265 -0.0333067 0
M  V30 4635 H 452.065 2.14352 2.43359 0
M  V30 4636 H 451.85 3.63443 1.47144 0
M  V30 4637 H 453.34 3.39465 2.43214 0
M  V30 4638 N 453.777 0.010035 1.57597 0
M  V30 4639 C 454.707 -0.976857 2.12084 0
M  V30 4640 C 455.688 -1.35191 1.03235 0
M  V30 4641 O 456.873 -1.43389 1.3097 0
M  V30 4642 C 454.003 -2.26548 2.63236 0
M  V30 4643 C 452.957 -2.03175 3.76701 0
M  V30 4644 C 452.283 -3.38138 4.14206 0
M  V30 4645 C 453.583 -1.38625 5.03568 0
M  V30 4646 H 455.277 -0.523145 2.94794 0
M  V30 4647 H 452.823 -0.250195 1.4181 0
M  V30 4648 H 454.776 -2.95952 2.99984 0
M  V30 4649 H 453.5 -2.74051 1.77661 0
M  V30 4650 H 452.159 -1.36195 3.40362 0
M  V30 4651 H 451.807 -3.83363 3.25641 0
M  V30 4652 H 451.507 -3.23312 4.90656 0
M  V30 4653 H 453.031 -4.08841 4.53521 0
M  V30 4654 H 454.445 -1.98 5.38023 0
M  V30 4655 H 452.842 -1.34256 5.84889 0
M  V30 4656 H 453.912 -0.356722 4.83586 0
M  V30 4657 N 455.255 -1.55392 -0.262866 0
M  V30 4658 C 456.202 -1.88966 -1.32516 0
M  V30 4659 C 457.172 -0.742187 -1.48596 0
M  V30 4660 O 458.357 -0.99439 -1.62839 0
M  V30 4661 C 455.497 -2.17592 -2.67858 0
M  V30 4662 C 454.61 -3.45061 -2.59917 0
M  V30 4663 C 453.745 -3.63336 -3.87505 0
M  V30 4664 C 452.784 -4.84462 -3.74116 0
M  V30 4665 N 451.921 -4.99342 -4.93561 0
M  V30 4666 H 456.761 -2.79566 -1.03184 0
M  V30 4667 H 454.298 -1.38404 -0.498285 0
M  V30 4668 H 456.256 -2.3219 -3.46617 0
M  V30 4669 H 454.886 -1.30215 -2.95371 0
M  V30 4670 H 453.938 -3.38881 -1.72812 0
M  V30 4671 H 455.25 -4.3396 -2.45926 0
M  V30 4672 H 454.404 -3.77807 -4.74707 0
M  V30 4673 H 453.143 -2.72641 -4.04374 0
M  V30 4674 H 452.148 -4.69985 -2.85297 0
M  V30 4675 H 453.373 -5.76603 -3.58757 0
M  V30 4676 H 451.319 -4.1158 -5.10821 0
M  V30 4677 H 451.236 -5.82303 -4.82141 0
M  V30 4678 H 452.504 -5.18208 -5.82306 0
M  V30 4679 N 456.733 0.527833 -1.48498 0
M  V30 4680 C 457.643 1.65907 -1.65867 0
M  V30 4681 C 458.659 1.6537 -0.541192 0
M  V30 4682 O 459.835 1.84282 -0.812534 0
M  V30 4683 C 456.9 3.02364 -1.69637 0
M  V30 4684 C 455.961 3.1374 -2.93028 0
M  V30 4685 C 455.194 4.43688 -2.96609 0
M  V30 4686 O 455.417 5.30913 -2.08538 0
M  V30 4687 O 454.351 4.59475 -3.88802 0
M  V30 4688 H 458.177 1.5419 -2.61647 0
M  V30 4689 H 455.762 0.701163 -1.31924 0
M  V30 4690 H 457.644 3.83515 -1.74625 0
M  V30 4691 H 456.319 3.14401 -0.770312 0
M  V30 4692 H 455.226 2.31877 -2.93571 0
M  V30 4693 H 456.559 3.06621 -3.85026 0
M  V30 4694 N 458.211 1.37122 0.776871 0
M  V30 4695 C 459.436 1.354 1.57104 0
M  V30 4696 C 459.861 -0.0595562 1.88006 0
M  V30 4697 O 459.219 -1.03514 1.48844 0
M  V30 4698 C 459.267 2.19472 2.8612 0
M  V30 4699 O 458.371 1.59582 3.80273 0
M  V30 4700 H 457.712 0.462869 0.476076 0
M  V30 4701 H 460.242 1.80577 0.961932 0
M  V30 4702 H 460.252 2.32502 3.35271 0
M  V30 4703 H 458.927 3.22222 2.62956 0
M  V30 4704 H 457.504 1.55564 3.38902 0
M  V30 4705 N 459.689 -1.00246 1.21608 0
M  V30 4706 C 460.652 -2.07233 0.979133 0
M  V30 4707 C 461.652 -1.6072 -0.0508219 0
M  V30 4708 O 462.842 -1.73196 0.186712 0
M  V30 4709 C 459.974 -3.37546 0.477016 0
M  V30 4710 H 461.167 -2.29687 1.92831 0
M  V30 4711 H 458.72 -1.17261 1.03342 0
M  V30 4712 H 459.455 -3.20773 -0.476966 0
M  V30 4713 H 459.24 -3.72638 1.21997 0
M  V30 4714 H 460.73 -4.16285 0.331181 0
M  V30 4715 N 461.167 -1.02423 -1.1978 0
M  V30 4716 C 462.13 -0.605703 -2.21052 0
M  V30 4717 C 463.13 0.328209 -1.57415 0
M  V30 4718 O 464.32 0.115853 -1.73814 0
M  V30 4719 C 461.452 0.114366 -3.40708 0
M  V30 4720 H 462.645 -1.5017 -2.59594 0
M  V30 4721 H 460.198 -0.814888 -1.33376 0
M  V30 4722 H 460.933 1.02492 -3.07678 0
M  V30 4723 H 460.718 -0.556641 -3.88129 0
M  V30 4724 H 462.208 0.394272 -4.15735 0
M  V30 4725 N 462.645 1.35699 -0.801477 0
M  V30 4726 C 463.578 2.2768 -0.153922 0
M  V30 4727 C 464.556 1.47832 0.67709 0
M  V30 4728 O 465.74 1.77104 0.645474 0
M  V30 4729 C 462.867 3.2943 0.786986 0
M  V30 4730 C 461.913 4.26485 0.0362447 0
M  V30 4731 S 462.746 5.19573 -1.2963 0
M  V30 4732 C 463.902 6.24866 -0.359705 0
M  V30 4733 H 464.135 2.82254 -0.9338 0
M  V30 4734 H 461.668 1.42421 -0.596283 0
M  V30 4735 H 463.626 3.8855 1.32436 0
M  V30 4736 H 462.287 2.73745 1.54021 0
M  V30 4737 H 461.48 4.98378 0.750668 0
M  V30 4738 H 461.082 3.71508 -0.431017 0
M  V30 4739 H 463.374 6.75957 0.456954 0
M  V30 4740 H 464.317 7.00307 -1.04768 0
M  V30 4741 H 464.725 5.64484 0.0423274 0
M  V30 4742 N 464.123 0.554532 1.47522 0
M  V30 4743 C 465.053 -0.182974 2.32782 0
M  V30 4744 C 466.034 -0.911377 1.43624 0
M  V30 4745 O 467.219 -0.892366 1.72483 0
M  V30 4746 C 464.349 -1.21513 3.25349 0
M  V30 4747 C 463.303 -0.603355 4.23726 0
M  V30 4748 C 462.629 -1.73995 5.05598 0
M  V30 4749 C 463.929 0.441121 5.20434 0
M  V30 4750 H 465.623 0.52882 2.94693 0
M  V30 4751 H 463.169 0.255759 1.41711 0
M  V30 4752 H 465.122 -1.73922 3.83835 0
M  V30 4753 H 463.846 -1.95683 2.61487 0
M  V30 4754 H 462.505 -0.10059 3.66462 0
M  V30 4755 H 462.153 -2.47063 4.38143 0
M  V30 4756 H 461.853 -1.3364 5.72201 0
M  V30 4757 H 463.377 -2.26735 5.66942 0
M  V30 4758 H 464.791 0.00319931 5.733 0
M  V30 4759 H 463.188 0.763402 5.95224 0
M  V30 4760 H 464.258 1.33799 4.66075 0
M  V30 4761 N 465.601 -1.54893 0.290851 0
M  V30 4762 C 466.549 -2.24579 -0.605576 0
M  V30 4763 C 467.543 -1.24824 -1.14522 0
M  V30 4764 O 468.749 -1.42706 -1.09704 0
M  V30 4765 H 465.124 -0.720946 -0.213872 0
M  V30 4766 H 467.095 -2.984 0.0048173 0
M  V30 4767 C 465.844 -2.99224 -1.77088 0
M  V30 4768 H 465.167 -3.75782 -1.36484 0
M  V30 4769 H 466.607 -3.51281 -2.3744 0
M  V30 4770 C 465.066 -2.05602 -2.66888 0
M  V30 4771 O 465.596 -1.61745 -3.67698 0
M  V30 4772 N 463.802 -1.71771 -2.34399 0
M  V30 4773 H 463.349 -2.07633 -1.52468 0
M  V30 4774 H 463.307 -1.09403 -2.94751 0
M  V30 4775 N 467.08 -0.0183926 -1.57589 0
M  V30 4776 C 468.028 0.985111 -2.10709 0
M  V30 4777 C 469.022 1.34397 -1.0312 0
M  V30 4778 O 470.228 1.32746 -1.21567 0
M  V30 4779 H 466.603 0.335418 -0.673052 0
M  V30 4780 H 468.574 0.511689 -2.9398 0
M  V30 4781 C 467.323 2.26202 -2.64061 0
M  V30 4782 H 466.646 1.9946 -3.4649 0
M  V30 4783 H 468.086 2.94652 -3.04887 0
M  V30 4784 C 466.545 2.98444 -1.5631 0
M  V30 4785 O 467.075 3.90142 -0.956674 0
M  V30 4786 N 465.281 2.6059 -1.28612 0
M  V30 4787 H 464.828 1.86101 -1.78112 0
M  V30 4788 H 464.786 3.09238 -0.567406 0
M  V30 4789 N 468.558 1.5553 0.254621 0
M  V30 4790 C 469.491 1.84624 1.34124 0
M  V30 4791 C 470.469 0.700693 1.46728 0
M  V30 4792 O 471.653 0.94564 1.63064 0
M  V30 4793 C 468.78 2.02412 2.71564 0
M  V30 4794 C 467.826 3.25028 2.7615 0
M  V30 4795 S 468.659 4.81893 2.33538 0
M  V30 4796 C 469.815 5.02677 3.72917 0
M  V30 4797 H 470.048 2.76501 1.09245 0
M  V30 4798 H 467.581 1.47537 0.455211 0
M  V30 4799 H 469.539 2.13345 3.50705 0
M  V30 4800 H 468.2 1.11391 2.93685 0
M  V30 4801 H 467.393 3.34418 3.77069 0
M  V30 4802 H 466.995 3.12781 2.05046 0
M  V30 4803 H 469.287 4.89546 4.68349 0
M  V30 4804 H 470.23 6.0468 3.68467 0
M  V30 4805 H 470.638 4.30561 3.65072 0
M  V30 4806 N 470.036 -0.519951 1.48776 0
M  V30 4807 C 471.452 -0.849418 1.35119 0
M  V30 4808 C 471.652 -1.98077 0.36982 0
M  V30 4809 O 470.708 -2.51664 -0.205359 0
M  V30 4810 C 472.021 -1.20748 2.75391 0
M  V30 4811 C 473.569 -1.31679 2.83954 0
M  V30 4812 C 474.044 -1.70824 4.24951 0
M  V30 4813 N 475.535 -1.77908 4.27672 0
M  V30 4814 C 476.27 -2.09603 5.33717 0
M  V30 4815 N 475.766 -2.39652 6.5003 0
M  V30 4816 N 477.559 -2.10694 5.21119 0
M  V30 4817 H 469.71 0.226377 2.1119 0
M  V30 4818 H 471.973 0.0386519 0.947212 0
M  V30 4819 H 471.679 -0.449703 3.48813 0
M  V30 4820 H 471.553 -2.15534 3.09556 0
M  V30 4821 H 473.94 -2.06532 2.10781 0
M  V30 4822 H 474.021 -0.3499 2.53396 0
M  V30 4823 H 473.665 -0.965282 4.98643 0
M  V30 4824 H 473.595 -2.6858 4.52959 0
M  V30 4825 H 476.086 -1.56923 3.43779 0
M  V30 4826 H 476.399 -2.6297 7.26682 0
M  V30 4827 H 474.744 -2.37149 6.53288 0
M  V30 4828 H 477.935 -1.86682 4.29264 0
M  V30 4829 H 478.108 -2.35062 6.03863 0
M  V30 4830 N 471.514 -1.37532 -0.769588 0
M  V30 4831 C 472.76 -1.33057 -1.53048 0
M  V30 4832 C 473.093 0.0841865 -1.94017 0
M  V30 4833 O 472.368 1.04198 -1.64235 0
M  V30 4834 C 472.651 -2.27166 -2.79406 0
M  V30 4835 C 472.504 -3.77429 -2.44677 0
M  V30 4836 C 473.823 -2.19683 -3.81349 0
M  V30 4837 H 470.942 -0.484655 -0.555228 0
M  V30 4838 H 473.584 -1.68251 -0.882702 0
M  V30 4839 H 471.734 -1.97283 -3.34682 0
M  V30 4840 H 473.406 -4.17918 -1.953 0
M  V30 4841 H 471.649 -3.95892 -1.77346 0
M  V30 4842 H 472.32 -4.38716 -3.35011 0
M  V30 4843 H 474.796 -2.46029 -3.35573 0
M  V30 4844 H 473.672 -2.87668 -4.67481 0
M  V30 4845 H 473.933 -1.19045 -4.25771 0
M  V30 4846 N 472.992 0.995999 -1.22138 0
M  V30 4847 C 474.222 1.76809 -1.06874 0
M  V30 4848 C 474.63 1.85265 0.383866 0
M  V30 4849 O 473.973 1.31969 1.27789 0
M  V30 4850 C 474.035 3.2186 -1.60144 0
M  V30 4851 C 473.699 3.36958 -3.0872 0
M  V30 4852 C 474.696 3.2452 -4.0618 0
M  V30 4853 C 472.381 3.62109 -3.48112 0
M  V30 4854 C 474.375 3.37013 -5.41019 0
M  V30 4855 C 472.062 3.74243 -4.831 0
M  V30 4856 C 473.06 3.61702 -5.79362 0
M  V30 4857 O 472.748 3.73436 -7.119 0
M  V30 4858 H 472.48 0.562207 -0.375365 0
M  V30 4859 H 475.034 1.26113 -1.62125 0
M  V30 4860 H 473.264 3.73734 -0.992981 0
M  V30 4861 H 474.953 3.80775 -1.40589 0
M  V30 4862 H 475.719 3.05004 -3.77091 0
M  V30 4863 H 471.598 3.70949 -2.73712 0
M  V30 4864 H 475.142 3.27141 -6.16137 0
M  V30 4865 H 471.039 3.93266 -5.11872 0
M  V30 4866 H 471.807 3.90328 -7.19435 0
M  V30 4867 N 474.47 1.03057 1.19235 0
M  V30 4868 C 475.718 0.726581 1.88587 0
M  V30 4869 C 476.039 -0.747227 1.80115 0
M  V30 4870 O 475.309 -1.53849 1.21274 0
M  V30 4871 H 473.889 0.265768 0.698124 0
M  V30 4872 H 476.551 1.30516 1.44746 0
M  V30 4873 H 475.647 1.0224 2.94879 0
M  V30 4874 N 475.948 -1.35272 0.808662 0
M  V30 4875 C 477.176 -2.02946 0.402537 0
M  V30 4876 C 477.591 -1.60937 -0.987147 0
M  V30 4877 O 476.948 -0.807917 -1.63643 0
M  V30 4878 C 476.999 -3.58317 0.47868 0
M  V30 4879 O 476.72 -3.98799 1.81358 0
M  V30 4880 C 478.221 -4.43251 0.0656281 0
M  V30 4881 H 475.441 -0.650831 0.163279 0
M  V30 4882 H 477.985 -1.72849 1.09286 0
M  V30 4883 H 476.14 -3.87055 -0.163415 0
M  V30 4884 H 476.554 -4.93451 1.77781 0
M  V30 4885 H 478.028 -5.51738 0.170017 0
M  V30 4886 H 478.505 -4.27913 -0.989278 0
M  V30 4887 H 479.111 -4.19813 0.68096 0
M  V30 4888 N 477.426 -0.562348 -1.47226 0
M  V30 4889 C 478.389 0.172056 -2.28553 0
M  V30 4890 C 479.389 0.837928 -1.37242 0
M  V30 4891 O 480.579 0.693001 -1.59822 0
M  V30 4892 C 477.711 1.25223 -3.17068 0
M  V30 4893 H 478.904 -0.542401 -2.94954 0
M  V30 4894 H 476.457 -0.319493 -1.53 0
M  V30 4895 H 477.192 1.99892 -2.55369 0
M  V30 4896 H 476.977 0.779515 -3.84273 0
M  V30 4897 H 478.467 1.76791 -3.78332 0
M  V30 4898 N 478.904 1.54736 -0.299062 0
M  V30 4899 C 480.151 2.00101 0.310784 0
M  V30 4900 C 480.479 1.18746 1.54045 0
M  V30 4901 O 479.734 0.251198 1.94081 0
M  V30 4902 C 480.033 3.50199 0.713835 0
M  V30 4903 C 479.699 4.48997 -0.413873 0
M  V30 4904 C 478.361 4.7573 -0.723462 0
M  V30 4905 C 480.713 5.07839 -1.17257 0
M  V30 4906 C 478.041 5.5857 -1.79491 0
M  V30 4907 C 480.393 5.91844 -2.23392 0
M  V30 4908 C 479.057 6.16889 -2.54959 0
M  V30 4909 H 478.327 0.732221 0.113724 0
M  V30 4910 H 480.974 1.86888 -0.417756 0
M  V30 4911 H 479.279 3.61012 1.52243 0
M  V30 4912 H 480.976 3.82723 1.19684 0
M  V30 4913 H 477.566 4.28292 -0.162476 0
M  V30 4914 H 481.75 4.87188 -0.946651 0
M  V30 4915 H 477.006 5.76213 -2.04423 0
M  V30 4916 H 481.18 6.36465 -2.8264 0
M  V30 4917 H 478.807 6.80869 -3.38114 0
M  V30 4918 N 480.382 0.0267497 1.57577 0
M  V30 4919 C 481.312 -0.954308 2.13108 0
M  V30 4920 C 482.293 -1.34088 1.04663 0
M  V30 4921 O 483.478 -1.41992 1.32484 0
M  V30 4922 C 480.608 -2.23744 2.65624 0
M  V30 4923 C 479.562 -1.99168 3.78835 0
M  V30 4924 C 478.888 -3.33726 4.17769 0
M  V30 4925 C 480.188 -1.33277 5.0501 0
M  V30 4926 H 481.882 -0.491848 2.95332 0
M  V30 4927 H 479.428 -0.23514 1.42067 0
M  V30 4928 H 481.381 -2.92754 3.03106 0
M  V30 4929 H 480.105 -2.72151 1.80558 0
M  V30 4930 H 478.764 -1.32577 3.41788 0
M  V30 4931 H 478.412 -3.79888 3.29688 0
M  V30 4932 H 478.112 -3.18089 4.94058 0
M  V30 4933 H 479.636 -4.04008 4.57832 0
M  V30 4934 H 481.05 -1.92283 5.40093 0
M  V30 4935 H 479.447 -1.28045 5.8628 0
M  V30 4936 H 480.517 -0.305411 4.83937 0
M  V30 4937 N 481.861 -1.55662 -0.24637 0
M  V30 4938 C 483.107 -1.77782 -0.975779 0
M  V30 4939 C 483.44 -0.592103 -1.84953 0
M  V30 4940 O 482.715 0.409588 -1.90138 0
M  V30 4941 C 482.998 -3.09788 -1.83584 0
M  V30 4942 C 482.851 -4.38764 -0.990241 0
M  V30 4943 C 484.17 -3.38029 -2.81823 0
M  V30 4944 H 481.289 -0.646789 -0.353317 0
M  V30 4945 H 483.931 -1.88398 -0.246248 0
M  V30 4946 H 482.081 -3.00869 -2.45784 0
M  V30 4947 H 483.753 -4.59675 -0.386897 0
M  V30 4948 H 481.996 -4.32798 -0.294626 0
M  V30 4949 H 482.667 -5.27514 -1.62584 0
M  V30 4950 H 485.143 -3.46915 -2.2976 0
M  V30 4951 H 484.019 -4.3161 -3.39122 0
M  V30 4952 H 484.28 -2.58968 -3.58313 0
M  V30 4953 N 483.339 0.512053 -1.4905 0
M  V30 4954 C 484.269 1.62365 -1.67809 0
M  V30 4955 C 485.25 1.61737 -0.526809 0
M  V30 4956 O 486.435 1.78651 -0.761404 0
M  V30 4957 C 483.565 3.00895 -1.73435 0
M  V30 4958 C 482.519 3.16387 -2.88242 0
M  V30 4959 C 481.845 4.56157 -2.78971 0
M  V30 4960 C 483.145 2.97457 -4.29321 0
M  V30 4961 H 484.839 1.46921 -2.60873 0
M  V30 4962 H 482.385 0.705379 -1.2554 0
M  V30 4963 H 484.338 3.78549 -1.85145 0
M  V30 4964 H 483.062 3.17403 -0.769619 0
M  V30 4965 H 481.721 2.41155 -2.76116 0
M  V30 4966 H 481.369 4.69525 -1.8043 0
M  V30 4967 H 481.069 4.67465 -3.5602 0
M  V30 4968 H 482.593 5.35886 -2.92675 0
M  V30 4969 H 484.007 3.64888 -4.42187 0
M  V30 4970 H 482.404 3.20245 -5.07507 0
M  V30 4971 H 483.474 1.93692 -4.44535 0
M  V30 4972 N 484.817 1.37938 0.762283 0
M  V30 4973 C 485.75 1.2884 1.88349 0
M  V30 4974 C 486.728 0.167084 1.61739 0
M  V30 4975 O 487.912 0.34292 1.85355 0
M  V30 4976 C 485.039 0.994257 3.23778 0
M  V30 4977 C 484.085 2.13376 3.69287 0
M  V30 4978 S 484.918 3.75439 3.81845 0
M  V30 4979 C 486.074 3.48195 5.20107 0
M  V30 4980 H 486.307 2.23736 1.95779 0
M  V30 4981 H 483.84 1.23672 0.924368 0
M  V30 4982 H 485.798 0.83138 4.01993 0
M  V30 4983 H 484.459 0.0626251 3.14038 0
M  V30 4984 H 483.652 1.88319 4.67495 0
M  V30 4985 H 483.254 2.25726 2.98201 0
M  V30 4986 H 485.546 3.0377 6.05583 0
M  V30 4987 H 486.489 4.45765 5.50181 0
M  V30 4988 H 486.897 2.82905 4.88493 0
M  V30 4989 N 486.295 -0.989507 1.22664 0
M  V30 4990 C 487.541 -1.7321 1.05481 0
M  V30 4991 C 487.874 -1.89852 -0.408635 0
M  V30 4992 O 487.149 -1.44416 -1.30285 0
M  V30 4993 C 487.432 -3.1357 1.77047 0
M  V30 4994 C 487.285 -3.04555 3.31008 0
M  V30 4995 C 488.604 -4.12812 1.5256 0
M  V30 4996 H 485.723 -0.628697 0.384589 0
M  V30 4997 H 488.365 -1.15258 1.51049 0
M  V30 4998 H 486.515 -3.63046 1.3831 0
M  V30 4999 H 488.187 -2.62674 3.7921 0
M  V30 5000 H 486.43 -2.41278 3.6051 0
M  V30 5001 H 487.101 -4.03894 3.76263 0
M  V30 5002 H 489.577 -3.72106 1.86215 0
M  V30 5003 H 488.453 -5.09132 2.05124 0
M  V30 5004 H 488.714 -4.39711 0.458936 0
M  V30 5005 N 487.773 -1.03688 -1.18687 0
M  V30 5006 C 488.703 -0.645407 -2.24403 0
M  V30 5007 C 489.684 0.349511 -1.66471 0
M  V30 5008 O 490.869 0.230453 -1.92828 0
M  V30 5009 C 487.999 -0.00365337 -3.473 0
M  V30 5010 C 486.953 -0.921705 -4.17958 0
M  V30 5011 C 486.279 -0.144629 -5.34504 0
M  V30 5012 C 487.579 -2.23909 -4.71871 0
M  V30 5013 H 489.273 -1.52917 -2.57404 0
M  V30 5014 H 486.819 -0.736711 -1.23728 0
M  V30 5015 H 488.772 0.281908 -4.20456 0
M  V30 5016 H 487.496 0.914963 -3.13522 0
M  V30 5017 H 486.155 -1.19159 -3.46694 0
M  V30 5018 H 485.803 0.776274 -4.96974 0
M  V30 5019 H 485.503 -0.756206 -5.82714 0
M  V30 5020 H 487.027 0.134004 -6.10453 0
M  V30 5021 H 488.441 -2.0145 -5.36741 0
M  V30 5022 H 486.838 -2.8033 -5.30599 0
M  V30 5023 H 487.908 -2.88822 -3.895 0
M  V30 5024 N 489.251 1.34841 -0.815825 0
M  V30 5025 C 490.497 1.98793 -0.401129 0
M  V30 5026 C 490.83 1.64548 1.03139 0
M  V30 5027 O 490.105 0.913487 1.71714 0
M  V30 5028 C 490.388 3.55143 -0.595409 0
M  V30 5029 C 490.241 3.99155 -2.07352 0
M  V30 5030 C 491.56 4.40092 -0.0268823 0
M  V30 5031 H 488.679 0.722146 -0.14722 0
M  V30 5032 H 491.321 1.59847 -1.02707 0
M  V30 5033 H 489.471 3.8845 -0.0625779 0
M  V30 5034 H 491.143 3.76216 -2.66945 0
M  V30 5035 H 489.386 3.49726 -2.56659 0
M  V30 5036 H 490.057 5.07971 -2.1603 0
M  V30 5037 H 492.533 4.13298 -0.482042 0
M  V30 5038 H 491.409 5.48562 -0.19267 0
M  V30 5039 H 491.67 4.29016 1.06759 0
M  V30 5040 N 490.729 0.570148 1.46925 0
M  V30 5041 C 491.975 0.0510284 2.02736 0
M  V30 5042 C 492.308 -1.3006 1.44215 0
M  V30 5043 O 491.583 -1.84932 0.602521 0
M  V30 5044 C 491.866 -0.028215 3.60089 0
M  V30 5045 C 491.719 1.35142 4.29018 0
M  V30 5046 C 493.038 -0.735181 4.33916 0
M  V30 5047 H 490.157 0.0200178 0.736728 0
M  V30 5048 H 492.799 0.73493 1.75211 0
M  V30 5049 H 490.949 -0.610648 3.83671 0
M  V30 5050 H 492.621 1.97806 4.16738 0
M  V30 5051 H 490.864 1.9226 3.88868 0
M  V30 5052 H 491.535 1.24857 5.37694 0
M  V30 5053 H 494.011 -0.240519 4.15404 0
M  V30 5054 H 492.887 -0.759622 5.43618 0
M  V30 5055 H 493.148 -1.79397 4.04066 0
M  V30 5056 N 492.207 -1.54576 0.307264 0
M  V30 5057 C 493.454 -2.00263 -0.300167 0
M  V30 5058 C 493.782 -1.19561 -1.53413 0
M  V30 5059 O 493.037 -0.261487 -1.93945 0
M  V30 5060 C 493.336 -3.50572 -0.695253 0
M  V30 5061 C 493.002 -4.48771 0.437679 0
M  V30 5062 C 491.664 -4.7534 0.748681 0
M  V30 5063 C 494.016 -5.0721 1.19949 0
M  V30 5064 C 491.344 -5.5761 1.8245 0
M  V30 5065 C 493.696 -5.90651 2.26527 0
M  V30 5066 C 492.36 -6.15528 2.58227 0
M  V30 5067 H 491.63 -0.732814 -0.109839 0
M  V30 5068 H 494.277 -1.86664 0.427661 0
M  V30 5069 H 492.582 -3.61814 -1.50326 0
M  V30 5070 H 494.279 -3.83352 -1.17653 0
M  V30 5071 H 490.869 -4.282 0.185187 0
M  V30 5072 H 495.053 -4.86679 0.972474 0
M  V30 5073 H 490.309 -5.75121 2.07476 0
M  V30 5074 H 494.483 -6.34957 2.86011 0
M  V30 5075 H 492.11 -6.79066 3.4172 0
M  V30 5076 N 493.685 -0.035106 -1.57561 0
M  V30 5077 C 494.934 0.641604 -1.91223 0
M  V30 5078 C 495.247 1.72944 -0.913761 0
M  V30 5079 O 496.453 2.46321 -1.14185 0
M  V30 5080 C 494.909 1.19249 -3.3957 0
M  V30 5081 C 494.517 0.137616 -4.47789 0
M  V30 5082 C 496.261 1.84537 -3.82291 0
M  V30 5083 C 494.168 0.700478 -5.87237 0
M  V30 5084 H 493.098 0.243417 -0.713627 0
M  V30 5085 H 495.749 -0.101382 -1.8322 0
M  V30 5086 H 494.131 1.98728 -3.42525 0
M  V30 5087 H 495.305 -0.635153 -4.56402 0
M  V30 5088 H 493.62 -0.416855 -4.14308 0
M  V30 5089 H 496.217 2.27616 -4.83834 0
M  V30 5090 H 496.56 2.69054 -3.17672 0
M  V30 5091 H 497.093 1.11739 -3.81784 0
M  V30 5092 H 493.832 -0.106693 -6.55413 0
M  V30 5093 H 493.352 1.4416 -5.82218 0
M  V30 5094 H 495.031 1.18837 -6.35993 0
M  V30 5095 N 495.163 1.55791 0.238111 0
M  V30 5096 C 496.411 1.77681 0.963001 0
M  V30 5097 C 496.732 0.600674 1.85518 0
M  V30 5098 O 496.002 -0.383182 1.92116 0
M  V30 5099 H 494.582 0.655315 0.358568 0
M  V30 5100 H 497.244 1.93239 0.253945 0
M  V30 5101 H 496.34 2.69177 1.57956 0
M  V30 5102 N 496.642 -0.504142 1.49319 0
M  V30 5103 C 497.888 -1.26033 1.58882 0
M  V30 5104 C 498.221 -1.92268 0.273274 0
M  V30 5105 O 497.496 -1.80567 -0.72291 0
M  V30 5106 C 497.779 -2.32976 2.7458 0
M  V30 5107 C 497.632 -1.71263 4.1592 0
M  V30 5108 C 498.951 -3.34561 2.85932 0
M  V30 5109 H 496.07 -0.456863 0.578312 0
M  V30 5110 H 498.712 -0.558965 1.81592 0
M  V30 5111 H 496.862 -2.92796 2.55348 0
M  V30 5112 H 498.534 -1.15294 4.4666 0
M  V30 5113 H 496.777 -1.01686 4.21714 0
M  V30 5114 H 497.448 -2.48816 4.92742 0
M  V30 5115 H 499.924 -2.84727 3.0343 0
M  V30 5116 H 498.8 -4.06754 3.68568 0
M  V30 5117 H 499.061 -3.96695 1.95154 0
M  V30 5118 N 498.12 -1.38341 -0.754957 0
M  V30 5119 C 499.536 -1.19508 -1.05783 0
M  V30 5120 C 499.736 -0.0428005 -2.01455 0
M  V30 5121 O 498.792 0.611861 -2.44975 0
M  V30 5122 C 500.105 -2.52091 -1.63923 0
M  V30 5123 C 501.653 -2.58762 -1.76101 0
M  V30 5124 C 502.128 -3.91517 -2.37652 0
M  V30 5125 N 503.619 -3.93049 -2.45085 0
M  V30 5126 C 504.354 -4.9253 -2.93602 0
M  V30 5127 N 503.85 -6.02408 -3.42165 0
M  V30 5128 N 505.643 -4.79921 -2.92629 0
M  V30 5129 H 497.794 -2.1206 -0.120056 0
M  V30 5130 H 500.057 -0.94089 -0.11589 0
M  V30 5131 H 499.763 -3.36858 -1.01093 0
M  V30 5132 H 499.637 -2.70388 -2.63003 0
M  V30 5133 H 502.024 -1.74391 -2.38058 0
M  V30 5134 H 502.105 -2.44333 -0.757294 0
M  V30 5135 H 501.749 -4.76309 -1.76329 0
M  V30 5136 H 501.679 -4.03256 -3.38662 0
M  V30 5137 H 504.17 -3.13685 -2.10736 0
M  V30 5138 H 504.483 -6.74248 -3.77637 0
M  V30 5139 H 502.828 -6.0603 -3.40225 0
M  V30 5140 H 506.019 -3.93194 -2.54001 0
M  V30 5141 H 506.192 -5.57601 -3.30128 0
M  V30 5142 N 499.598 0.982988 -1.23187 0
M  V30 5143 C 500.828 1.75666 -1.08743 0
M  V30 5144 C 501.236 1.85662 0.364195 0
M  V30 5145 O 500.579 1.33317 1.26382 0
M  V30 5146 C 500.641 3.20144 -1.63549 0
M  V30 5147 C 500.305 3.33665 -3.12277 0
M  V30 5148 C 501.302 3.20194 -4.096 0
M  V30 5149 C 498.987 3.58397 -3.51933 0
M  V30 5150 C 500.981 3.31256 -5.44563 0
M  V30 5151 C 498.668 3.69098 -4.87042 0
M  V30 5152 C 499.666 3.55537 -5.83166 0
M  V30 5153 O 499.354 3.65864 -7.1582 0
M  V30 5154 H 499.086 0.558194 -0.381307 0
M  V30 5155 H 501.64 1.24387 -1.63454 0
M  V30 5156 H 499.87 3.72659 -1.03256 0
M  V30 5157 H 501.559 3.79262 -1.4462 0
M  V30 5158 H 502.325 3.00987 -3.80305 0
M  V30 5159 H 498.204 3.68025 -2.77631 0
M  V30 5160 H 501.748 3.20588 -6.19572 0
M  V30 5161 H 497.645 3.87814 -5.16014 0
M  V30 5162 H 498.413 3.82675 -7.23534 0
M  V30 5163 N 501.076 1.04316 1.18135 0
M  V30 5164 C 502.322 0.749128 1.88457 0
M  V30 5165 C 502.655 -0.72149 1.803 0
M  V30 5166 O 501.93 -1.52676 1.205 0
M  V30 5167 C 502.213 1.21905 3.38838 0
M  V30 5168 C 502.066 2.75195 3.55792 0
M  V30 5169 C 503.385 0.811085 4.32561 0
M  V30 5170 H 500.504 0.273611 0.684329 0
M  V30 5171 H 503.146 1.29561 1.38975 0
M  V30 5172 H 501.296 0.754137 3.8111 0
M  V30 5173 H 502.968 3.29743 3.22595 0
M  V30 5174 H 501.211 3.14899 2.98364 0
M  V30 5175 H 501.882 3.03135 4.61317 0
M  V30 5176 H 504.358 1.21118 3.98082 0
M  V30 5177 H 503.234 1.16761 5.36338 0
M  V30 5178 H 503.495 -0.285596 4.41177 0
M  V30 5179 N 502.554 -1.34406 0.822964 0
M  V30 5180 C 503.502 -2.31428 0.233165 0
M  V30 5181 C 504.496 -1.57404 -0.626118 0
M  V30 5182 O 505.702 -1.72402 -0.517453 0
M  V30 5183 H 502.077 -0.749863 0.0566557 0
M  V30 5184 H 504.048 -2.78699 1.06628 0
M  V30 5185 C 502.797 -3.42653 -0.590264 0
M  V30 5186 H 502.12 -3.99753 0.0616129 0
M  V30 5187 H 503.56 -4.12778 -0.969054 0
M  V30 5188 C 502.019 -2.87112 -1.76262 0
M  V30 5189 O 502.549 -2.81995 -2.8608 0
M  V30 5190 N 500.755 -2.43934 -1.57938 0
M  V30 5191 H 500.302 -2.48296 -0.686078 0
M  V30 5192 H 500.26 -2.07123 -2.36532 0
M  V30 5193 N 504.032 -0.577932 -1.46621 0
M  V30 5194 C 504.979 0.158048 -2.30258 0
M  V30 5195 C 505.949 0.888669 -1.40328 0
M  V30 5196 O 507.134 0.880283 -1.6928 0
M  V30 5197 C 504.274 1.16884 -3.24703 0
M  V30 5198 C 503.387 0.442163 -4.29731 0
M  V30 5199 C 502.522 1.44007 -5.11308 0
M  V30 5200 C 501.561 0.69952 -6.0809 0
M  V30 5201 N 500.698 1.64525 -6.82551 0
M  V30 5202 H 505.538 -0.561242 -2.92667 0
M  V30 5203 H 503.075 -0.288591 -1.44241 0
M  V30 5204 H 505.033 1.7677 -3.779 0
M  V30 5205 H 503.663 1.85591 -2.64113 0
M  V30 5206 H 502.715 -0.271632 -3.79429 0
M  V30 5207 H 504.027 -0.136992 -4.98612 0
M  V30 5208 H 503.181 2.11186 -5.68758 0
M  V30 5209 H 501.92 2.05315 -4.42377 0
M  V30 5210 H 500.925 0.0139217 -5.49798 0
M  V30 5211 H 502.15 0.091894 -6.79038 0
M  V30 5212 H 500.096 2.24653 -6.16334 0
M  V30 5213 H 500.013 1.11878 -7.47676 0
M  V30 5214 H 501.281 2.30754 -7.44562 0
M  V30 5215 N 505.51 1.54411 -0.315457 0
M  V30 5216 C 506.757 2.00419 0.289543 0
M  V30 5217 C 507.085 1.20373 1.52776 0
M  V30 5218 O 506.34 0.271769 1.93804 0
M  V30 5219 C 506.639 3.50936 0.676652 0
M  V30 5220 C 506.305 4.48532 -0.461472 0
M  V30 5221 C 504.967 4.74936 -0.773879 0
M  V30 5222 C 507.319 5.06567 -1.22637 0
M  V30 5223 C 504.647 5.56634 -1.85405 0
M  V30 5224 C 506.999 5.89441 -2.29657 0
M  V30 5225 C 505.663 6.1415 -2.61488 0
M  V30 5226 H 504.933 0.733386 0.105951 0
M  V30 5227 H 507.58 1.86434 -0.437554 0
M  V30 5228 H 505.885 3.62606 1.48405 0
M  V30 5229 H 507.582 3.83971 1.15618 0
M  V30 5230 H 504.172 4.28096 -0.207893 0
M  V30 5231 H 508.356 4.86157 -0.998271 0
M  V30 5232 H 503.612 5.74012 -2.10523 0
M  V30 5233 H 507.786 6.33432 -2.89374 0
M  V30 5234 H 505.413 6.77245 -3.45317 0
M  V30 5235 N 506.988 0.0434614 1.5754 0
M  V30 5236 C 507.951 -0.918696 2.09982 0
M  V30 5237 C 508.951 -1.24488 1.01781 0
M  V30 5238 O 510.141 -1.18284 1.27885 0
M  V30 5239 C 507.273 -2.23093 2.57764 0
M  V30 5240 H 508.466 -0.464229 2.96285 0
M  V30 5241 H 506.019 -0.204818 1.54952 0
M  V30 5242 H 506.754 -2.73137 1.74832 0
M  V30 5243 H 506.539 -2.00724 3.36827 0
M  V30 5244 H 508.029 -2.92028 2.98512 0
M  V30 5245 N 508.466 -1.55915 -0.229846 0
M  V30 5246 C 509.691 -1.8296 -0.976743 0
M  V30 5247 C 510.116 -0.622735 -1.77493 0
M  V30 5248 O 509.474 0.428431 -1.76165 0
M  V30 5249 C 509.522 -3.07916 -1.8767 0
M  V30 5250 O 508.626 -2.86028 -2.97088 0
M  V30 5251 H 507.967 -0.603453 -0.277021 0
M  V30 5252 H 510.497 -2.0312 -0.245669 0
M  V30 5253 H 510.507 -3.37802 -2.2881 0
M  V30 5254 H 509.182 -3.95389 -1.28996 0
M  V30 5255 H 507.759 -2.67355 -2.59954 0
M  V30 5256 N 509.944 0.496216 -1.49584 0
M  V30 5257 C 510.874 1.60576 -1.69521 0
M  V30 5258 C 511.855 1.61169 -0.543933 0
M  V30 5259 O 513.04 1.77834 -0.78031 0
M  V30 5260 C 510.17 2.99038 -1.76616 0
M  V30 5261 C 509.124 3.13312 -2.91581 0
M  V30 5262 C 508.45 4.53172 -2.83794 0
M  V30 5263 C 509.75 2.92886 -4.32452 0
M  V30 5264 H 511.444 1.44146 -2.62416 0
M  V30 5265 H 508.99 0.692024 -1.26282 0
M  V30 5266 H 510.943 3.76564 -1.8915 0
M  V30 5267 H 509.667 3.16568 -0.80324 0
M  V30 5268 H 508.326 2.38213 -2.78658 0
M  V30 5269 H 507.974 4.67585 -1.854 0
M  V30 5270 H 507.674 4.63662 -3.60958 0
M  V30 5271 H 509.198 5.32752 -2.98342 0
M  V30 5272 H 510.612 3.60178 -4.46032 0
M  V30 5273 H 509.009 3.14844 -5.10875 0
M  V30 5274 H 510.079 1.88966 -4.46565 0
M  V30 5275 N 511.423 1.38739 0.74761 0
M  V30 5276 C 512.67 1.35274 1.50689 0
M  V30 5277 C 512.998 -0.0553359 1.94421 0
M  V30 5278 O 512.253 -1.03365 1.66175 0
M  V30 5279 C 512.552 2.25992 2.7688 0
M  V30 5280 C 512.218 3.73854 2.5208 0
M  V30 5281 C 510.88 4.14145 2.45025 0
M  V30 5282 C 513.232 4.67427 2.30568 0
M  V30 5283 C 510.56 5.4609 2.14483 0
M  V30 5284 C 512.912 5.99635 2.01545 0
M  V30 5285 C 511.576 6.39004 1.92951 0
M  V30 5286 H 510.846 0.495003 0.55141 0
M  V30 5287 H 513.493 1.71145 0.859158 0
M  V30 5288 H 511.798 1.83196 3.46333 0
M  V30 5289 H 513.495 2.20611 3.34861 0
M  V30 5290 H 510.085 3.41913 2.58444 0
M  V30 5291 H 514.269 4.3714 2.34994 0
M  V30 5292 H 509.525 5.75528 2.06342 0
M  V30 5293 H 513.699 6.71678 1.83906 0
M  V30 5294 H 511.326 7.41165 1.6905 0
M  V30 5295 N 512.901 -0.976442 1.23707 0
M  V30 5296 C 513.831 -2.08749 1.04624 0
M  V30 5297 C 514.812 -1.70057 -0.0380956 0
M  V30 5298 O 515.997 -1.93782 0.127308 0
M  V30 5299 C 513.127 -3.41335 0.640902 0
M  V30 5300 C 512.081 -3.93947 1.67302 0
M  V30 5301 C 511.407 -5.22774 1.12301 0
M  V30 5302 C 512.707 -4.22769 3.06697 0
M  V30 5303 H 514.401 -2.24972 1.97555 0
M  V30 5304 H 511.947 -1.08108 0.951247 0
M  V30 5305 H 513.9 -4.18489 0.494434 0
M  V30 5306 H 512.624 -3.24988 -0.324099 0
M  V30 5307 H 511.283 -3.18941 1.80755 0
M  V30 5308 H 510.931 -5.0278 0.148877 0
M  V30 5309 H 510.631 -5.58942 1.81267 0
M  V30 5310 H 512.155 -6.02546 0.988479 0
M  V30 5311 H 513.569 -4.90659 2.96524 0
M  V30 5312 H 511.966 -4.70147 3.72937 0
M  V30 5313 H 513.036 -3.29885 3.55392 0
M  V30 5314 N 514.379 -1.04941 -1.1758 0
M  V30 5315 C 515.342 -0.652456 -2.19717 0
M  V30 5316 C 516.342 0.294745 -1.58076 0
M  V30 5317 O 517.532 0.0789579 -1.74021 0
M  V30 5318 C 514.664 0.0420712 -3.40874 0
M  V30 5319 H 515.857 -1.55642 -2.5635 0
M  V30 5320 H 513.41 -0.842995 -1.31618 0
M  V30 5321 H 514.145 0.95943 -3.09783 0
M  V30 5322 H 513.93 -0.638844 -3.86861 0
M  V30 5323 H 515.42 0.306 -4.16477 0
M  V30 5324 N 515.857 1.33968 -0.830081 0
M  V30 5325 C 517.097 1.99879 -0.427521 0
M  V30 5326 C 517.461 1.64355 0.992546 0
M  V30 5327 O 518.662 2.23164 1.49837 0
M  V30 5328 C 516.933 3.51771 -0.631815 0
M  V30 5329 S 518.492 4.37608 -0.323168 0
M  V30 5330 H 515.31 0.692485 -0.161202 0
M  V30 5331 H 517.912 1.63129 -1.07745 0
M  V30 5332 H 516.616 3.75113 -1.66488 0
M  V30 5333 H 516.147 3.93386 0.0325936 0
M  V30 5334 H 518.162 4.88683 0.860432 0
M  V30 5335 N 517.335 0.585699 1.46312 0
M  V30 5336 C 518.581 0.0725284 2.0267 0
M  V30 5337 C 518.914 -1.28523 1.45586 0
M  V30 5338 O 518.189 -1.84283 0.622101 0
M  V30 5339 C 518.472 0.0099788 3.60099 0
M  V30 5340 C 518.325 1.39685 4.27561 0
M  V30 5341 C 519.644 -0.689117 4.34671 0
M  V30 5342 H 516.763 0.0278307 0.736474 0
M  V30 5343 H 519.405 0.753472 1.74421 0
M  V30 5344 H 517.555 -0.56992 3.84297 0
M  V30 5345 H 519.227 2.02215 4.14617 0
M  V30 5346 H 517.47 1.96374 3.86807 0
M  V30 5347 H 518.141 1.30553 5.36339 0
M  V30 5348 H 520.617 -0.196446 4.15636 0
M  V30 5349 H 519.493 -0.701921 5.44393 0
M  V30 5350 H 519.754 -1.75101 4.05946 0
M  V30 5351 N 518.813 -1.54241 0.323641 0
M  V30 5352 C 520.062 -1.9975 -0.279806 0
M  V30 5353 C 520.375 -1.2156 -1.5324 0
M  V30 5354 O 521.581 -1.57447 -2.21185 0
M  V30 5355 C 520.037 -3.55686 -0.549115 0
M  V30 5356 C 519.645 -4.4271 0.686432 0
M  V30 5357 C 521.389 -4.09663 -1.11251 0
M  V30 5358 C 519.296 -5.90119 0.389022 0
M  V30 5359 H 518.226 -0.746177 -0.10833 0
M  V30 5360 H 520.877 -1.78248 0.435877 0
M  V30 5361 H 519.259 -3.73176 -1.32499 0
M  V30 5362 H 520.433 -4.36996 1.46188 0
M  V30 5363 H 518.748 -3.99623 1.17005 0
M  V30 5364 H 521.345 -5.17386 -1.34965 0
M  V30 5365 H 521.688 -3.61651 -2.06191 0
M  V30 5366 H 522.221 -3.95806 -0.39782 0
M  V30 5367 H 518.96 -6.42326 1.30759 0
M  V30 5368 H 518.48 -5.98785 -0.348722 0
M  V30 5369 H 520.159 -6.47 -0.0011164 0
M  V30 5370 N 520.291 -0.0518155 -1.57515 0
M  V30 5371 C 521.537 0.622745 -1.93002 0
M  V30 5372 C 521.87 1.70456 -0.930499 0
M  V30 5373 O 521.145 1.94452 0.0434086 0
M  V30 5374 C 521.428 1.21824 -3.38867 0
M  V30 5375 C 521.281 0.144434 -4.49568 0
M  V30 5376 C 522.6 2.12968 -3.8514 0
M  V30 5377 H 519.719 0.22491 -0.701844 0
M  V30 5378 H 522.361 -0.113711 -1.89659 0
M  V30 5379 H 520.511 1.8459 -3.41846 0
M  V30 5380 H 522.183 -0.48753 -4.58717 0
M  V30 5381 H 520.426 -0.527424 -4.30582 0
M  V30 5382 H 521.097 0.601127 -5.48717 0
M  V30 5383 H 523.573 1.60163 -3.8404 0
M  V30 5384 H 522.449 2.51578 -4.87852 0
M  V30 5385 H 522.71 3.03004 -3.21934 0
M  V30 5386 N 521.769 1.56035 0.221574 0
M  V30 5387 C 522.994 1.83476 0.967026 0
M  V30 5388 C 523.419 0.632139 1.7716 0
M  V30 5389 O 522.777 -0.419082 1.7639 0
M  V30 5390 C 522.825 3.08907 1.86034 0
M  V30 5391 O 521.929 2.876 2.95567 0
M  V30 5392 H 521.27 0.604913 0.273817 0
M  V30 5393 H 523.8 2.03247 0.234893 0
M  V30 5394 H 523.81 3.3901 2.27016 0
M  V30 5395 H 522.485 3.96068 1.26898 0
M  V30 5396 H 521.062 2.6873 2.58532 0
M  V30 5397 N 523.247 -0.488276 1.49845 0
M  V30 5398 C 524.496 -1.23826 1.59217 0
M  V30 5399 C 524.809 -1.93439 0.289966 0
M  V30 5400 O 526.015 -2.70229 0.262382 0
M  V30 5401 C 524.471 -2.24902 2.80976 0
M  V30 5402 C 524.079 -1.6117 4.18005 0
M  V30 5403 C 525.823 -3.00648 2.99685 0
M  V30 5404 C 523.73 -2.60431 5.3097 0
M  V30 5405 H 522.66 -0.465858 0.592868 0
M  V30 5406 H 525.311 -0.510645 1.76252 0
M  V30 5407 H 523.693 -3.0088 2.57463 0
M  V30 5408 H 524.867 -0.910968 4.51706 0
M  V30 5409 H 523.182 -0.97767 4.0476 0
M  V30 5410 H 525.779 -3.74903 3.81251 0
M  V30 5411 H 526.122 -3.5902 2.10738 0
M  V30 5412 H 526.655 -2.31784 3.23297 0
M  V30 5413 H 523.394 -2.06823 6.22017 0
M  V30 5414 H 522.914 -3.28707 5.01709 0
M  V30 5415 H 524.593 -3.22606 5.60834 0
M  V30 5416 N 524.725 -1.39134 -0.740242 0
M  V30 5417 C 525.655 -1.40165 -1.86751 0
M  V30 5418 C 526.636 -0.265708 -1.68012 0
M  V30 5419 O 527.821 -0.47076 -1.88408 0
M  V30 5420 C 524.951 -1.2392 -3.2444 0
M  V30 5421 C 523.905 -2.34858 -3.57807 0
M  V30 5422 C 523.231 -2.03707 -4.94376 0
M  V30 5423 C 524.531 -3.77159 -3.61315 0
M  V30 5424 H 526.225 -2.345 -1.86145 0
M  V30 5425 H 523.771 -1.12875 -0.89416 0
M  V30 5426 H 525.724 -1.23263 -4.02969 0
M  V30 5427 H 524.448 -0.26051 -3.25559 0
M  V30 5428 H 523.107 -2.34723 -2.81604 0
M  V30 5429 H 522.755 -1.04289 -4.9207 0
M  V30 5430 H 522.455 -2.78016 -5.17669 0
M  V30 5431 H 523.979 -2.04691 -5.75268 0
M  V30 5432 H 525.393 -3.79252 -4.29931 0
M  V30 5433 H 523.79 -4.50784 -3.96124 0
M  V30 5434 H 524.86 -4.08513 -2.61238 0
M  V30 5435 N 526.204 0.969867 -1.24223 0
M  V30 5436 C 527.167 2.04564 -1.03373 0
M  V30 5437 C 528.167 1.60798 0.00819206 0
M  V30 5438 O 529.357 1.72641 -0.232567 0
M  V30 5439 C 526.489 3.36163 -0.566343 0
M  V30 5440 H 527.682 2.24494 -1.98853 0
M  V30 5441 H 525.235 1.1448 -1.06415 0
M  V30 5442 H 525.97 3.21925 0.391751 0
M  V30 5443 H 525.755 3.69273 -1.31834 0
M  V30 5444 H 527.245 4.1526 -0.441435 0
M  V30 5445 N 527.682 1.05563 1.17022 0
M  V30 5446 C 528.931 0.763036 1.8671 0
M  V30 5447 C 529.244 -0.712857 1.82147 0
M  V30 5448 O 530.45 -1.11955 2.47343 0
M  V30 5449 C 528.906 1.31474 3.35026 0
M  V30 5450 C 528.514 2.82034 3.48081 0
M  V30 5451 C 530.258 1.09935 4.10018 0
M  V30 5452 C 528.165 3.30486 4.90442 0
M  V30 5453 H 527.095 0.281747 0.699382 0
M  V30 5454 H 529.746 1.2734 1.32124 0
M  V30 5455 H 528.128 0.732171 3.89173 0
M  V30 5456 H 529.302 3.46178 3.04133 0
M  V30 5457 H 527.617 3.02156 2.86515 0
M  V30 5458 H 530.214 1.43632 5.15048 0
M  V30 5459 H 530.557 0.0373072 4.16283 0
M  V30 5460 H 531.09 1.64732 3.62089 0
M  V30 5461 H 527.829 4.36137 4.89352 0
M  V30 5462 H 527.349 2.71086 5.35044 0
M  V30 5463 H 529.028 3.25382 5.59227 0
M  V30 5464 N 529.16 -1.33526 0.837174 0
M  V30 5465 C 530.39 -2.01754 0.444848 0
M  V30 5466 C 530.798 -1.63149 -0.958072 0
M  V30 5467 O 530.141 -0.839827 -1.63379 0
M  V30 5468 C 530.203 -3.56228 0.483917 0
M  V30 5469 C 529.867 -4.18205 1.84265 0
M  V30 5470 C 530.864 -4.37699 2.80563 0
M  V30 5471 C 528.549 -4.54667 2.13503 0
M  V30 5472 C 530.543 -4.928 4.04261 0
M  V30 5473 C 528.23 -5.09475 3.37458 0
M  V30 5474 C 529.228 -5.28488 4.32654 0
M  V30 5475 O 528.916 -5.82132 5.54417 0
M  V30 5476 H 528.648 -0.652928 0.175104 0
M  V30 5477 H 531.202 -1.71469 1.13082 0
M  V30 5478 H 529.432 -3.85833 -0.258826 0
M  V30 5479 H 531.121 -4.05752 0.109653 0
M  V30 5480 H 531.887 -4.0988 2.59274 0
M  V30 5481 H 527.766 -4.39164 1.40201 0
M  V30 5482 H 531.31 -5.07555 4.78574 0
M  V30 5483 H 527.207 -5.36725 3.58604 0
M  V30 5484 H 527.975 -6.00548 5.56133 0
M  V30 5485 N 530.638 -0.59345 -1.46 0
M  V30 5486 C 531.601 0.123538 -2.28867 0
M  V30 5487 C 532.601 0.808628 -1.38989 0
M  V30 5488 O 533.791 0.658945 -1.61256 0
M  V30 5489 C 530.923 1.1847 -3.19653 0
M  V30 5490 H 532.116 -0.604843 -2.93737 0
M  V30 5491 H 529.669 -0.351875 -1.52288 0
M  V30 5492 H 530.404 1.94431 -2.59552 0
M  V30 5493 H 530.189 0.69783 -3.8584 0
M  V30 5494 H 531.679 1.68726 -3.81997 0
M  V30 5495 N 532.116 1.54067 -0.331816 0
M  V30 5496 C 533.364 2.00319 0.267739 0
M  V30 5497 C 533.685 1.22148 1.52003 0
M  V30 5498 O 532.955 0.325494 1.93177 0
M  V30 5499 H 531.535 0.740014 0.101922 0
M  V30 5500 H 534.197 1.89628 -0.450267 0
M  V30 5501 H 533.293 3.07765 0.518385 0
M  V30 5502 N 533.594 0.0601682 1.57485 0
M  V30 5503 C 534.557 -0.896373 2.10945 0
M  V30 5504 C 535.557 -1.23402 1.03095 0
M  V30 5505 O 536.747 -1.16921 1.29132 0
M  V30 5506 C 533.879 -2.20346 2.60116 0
M  V30 5507 H 535.072 -0.432778 2.96761 0
M  V30 5508 H 532.625 -0.188372 1.55161 0
M  V30 5509 H 533.36 -2.71268 1.7772 0
M  V30 5510 H 533.145 -1.9714 3.38937 0
M  V30 5511 H 534.635 -2.88846 3.01592 0
M  V30 5512 N 535.072 -1.5615 -0.213296 0
M  V30 5513 C 536.321 -1.78743 -0.93455 0
M  V30 5514 C 536.634 -0.630199 -1.8517 0
M  V30 5515 O 537.84 -0.739966 -2.61222 0
M  V30 5516 C 536.296 -3.16571 -1.71203 0
M  V30 5517 C 535.904 -4.40043 -0.840617 0
M  V30 5518 C 537.648 -3.48485 -2.42401 0
M  V30 5519 C 535.555 -5.68895 -1.61592 0
M  V30 5520 H 534.485 -0.666426 -0.352692 0
M  V30 5521 H 537.136 -1.82532 -0.188227 0
M  V30 5522 H 535.518 -3.06981 -2.50157 0
M  V30 5523 H 536.692 -4.6071 -0.0910326 0
M  V30 5524 H 535.007 -4.15706 -0.240365 0
M  V30 5525 H 537.604 -4.41983 -3.00924 0
M  V30 5526 H 537.947 -2.71371 -3.15695 0
M  V30 5527 H 538.48 -3.59442 -1.7043 0
M  V30 5528 H 535.219 -6.48925 -0.926106 0
M  V30 5529 H 534.739 -5.52275 -2.33991 0
M  V30 5530 H 536.418 -6.09365 -2.17447 0
M  V30 5531 N 536.55 0.480323 -1.50102 0
M  V30 5532 C 537.497 1.57946 -1.6829 0
M  V30 5533 C 538.467 1.57611 -0.524223 0
M  V30 5534 O 539.652 1.75282 -0.753709 0
M  V30 5535 C 536.792 2.95978 -1.77457 0
M  V30 5536 C 535.905 3.06173 -3.04766 0
M  V30 5537 C 535.04 4.35063 -3.04784 0
M  V30 5538 C 534.079 4.38966 -4.26586 0
M  V30 5539 N 533.216 5.59314 -4.24396 0
M  V30 5540 H 538.056 1.41743 -2.62131 0
M  V30 5541 H 535.593 0.689304 -1.2995 0
M  V30 5542 H 537.551 3.76011 -1.80752 0
M  V30 5543 H 536.181 3.10837 -0.870637 0
M  V30 5544 H 535.233 2.19071 -3.10986 0
M  V30 5545 H 536.545 3.04916 -3.9475 0
M  V30 5546 H 535.699 5.23436 -3.06757 0
M  V30 5547 H 534.438 4.38915 -2.12614 0
M  V30 5548 H 533.443 3.48992 -4.24835 0
M  V30 5549 H 534.668 4.36813 -5.19972 0
M  V30 5550 H 532.614 5.63969 -3.35074 0
M  V30 5551 H 532.531 5.5976 -5.08138 0
M  V30 5552 H 533.799 6.49837 -4.30502 0
M  V30 5553 N 538.028 1.39524 0.732853 0
M  V30 5554 C 539.253 1.40329 1.52717 0
M  V30 5555 C 539.678 0.000286574 1.881 0
M  V30 5556 O 539.036 -0.987262 1.52062 0
M  V30 5557 C 539.084 2.28464 2.78992 0
M  V30 5558 O 538.188 1.716 3.75003 0
M  V30 5559 H 537.529 0.47778 0.461109 0
M  V30 5560 H 540.059 1.83546 0.903996 0
M  V30 5561 H 540.069 2.43051 3.27705 0
M  V30 5562 H 538.744 3.30425 2.52572 0
M  V30 5563 H 537.321 1.66267 3.33781 0
M  V30 5564 N 539.506 -0.963266 1.24736 0
M  V30 5565 C 540.731 -1.74699 1.11781 0
M  V30 5566 C 541.156 -1.85267 -0.325258 0
M  V30 5567 O 540.514 -1.32681 -1.23553 0
M  V30 5568 C 540.562 -3.14322 1.76731 0
M  V30 5569 O 539.666 -3.99043 1.04109 0
M  V30 5570 H 539.007 -0.53684 0.390767 0
M  V30 5571 H 541.537 -1.20801 1.65131 0
M  V30 5572 H 541.547 -3.64824 1.82668 0
M  V30 5573 H 540.222 -3.05946 2.81726 0
M  V30 5574 H 538.799 -3.5752 1.05991 0
M  V30 5575 N 540.985 -1.06182 -1.16461 0
M  V30 5576 C 542.232 -0.777863 -1.86964 0
M  V30 5577 C 542.56 0.695602 -1.81636 0
M  V30 5578 O 541.815 1.52532 -1.22607 0
M  V30 5579 C 542.114 -1.21633 -3.36066 0
M  V30 5580 C 541.78 -2.69371 -3.61594 0
M  V30 5581 C 540.442 -3.09727 -3.6827 0
M  V30 5582 C 542.794 -3.64791 -3.7226 0
M  V30 5583 C 540.122 -4.44345 -3.83112 0
M  V30 5584 C 542.474 -4.99155 -3.88623 0
M  V30 5585 C 541.138 -5.39149 -3.93541 0
M  V30 5586 H 540.408 -0.28464 -0.68415 0
M  V30 5587 H 543.055 -1.33071 -1.37711 0
M  V30 5588 H 541.36 -0.582651 -3.87443 0
M  V30 5589 H 543.057 -0.973682 -3.88999 0
M  V30 5590 H 539.647 -2.37124 -3.57029 0
M  V30 5591 H 543.831 -3.34746 -3.66413 0
M  V30 5592 H 539.087 -4.74819 -3.85172 0
M  V30 5593 H 543.261 -5.72976 -3.95817 0
M  V30 5594 H 540.888 -6.43464 -4.04794 0
M  V30 5595 N 542.463 1.3308 -0.844243 0
M  V30 5596 C 543.426 2.27403 -0.286485 0
M  V30 5597 C 544.426 1.51179 0.547872 0
M  V30 5598 O 545.616 1.70421 0.360886 0
M  V30 5599 C 542.748 3.35653 0.595813 0
M  V30 5600 H 543.941 2.78248 -1.11885 0
M  V30 5601 H 541.494 1.43574 -0.617749 0
M  V30 5602 H 542.229 2.90058 1.4504 0
M  V30 5603 H 542.014 3.921 -0.00125994 0
M  V30 5604 H 543.504 4.05958 0.979168 0
M  V30 5605 N 543.941 0.601185 1.45683 0
M  V30 5606 C 545.352 0.179659 1.85834 0
M  V30 5607 C 545.703 -1.26189 1.50236 0
M  V30 5608 O 544.828 -1.95587 0.925987 0
M  V30 5609 C 545.423 0.319277 3.37292 0
M  V30 5610 C 543.982 -0.0475092 3.7637 0
M  V30 5611 C 543.129 0.646692 2.69654 0
M  V30 5612 H 546.08 0.808268 1.36575 0
M  V30 5613 H 546.101 -0.4503 3.77826 0
M  V30 5614 H 545.613 1.36855 3.6317 0
M  V30 5615 H 543.714 -1.0962 3.5611 0
M  V30 5616 H 543.827 0.34168 4.7788 0
M  V30 5617 H 542.191 0.0849971 2.54558 0
M  V30 5618 H 542.974 1.69797 2.98369 0
M  V30 5619 N 545.419 -1.53889 0.339982 0
M  V30 5620 C 546.83 -1.86139 -0.144671 0
M  V30 5621 C 547.181 -1.2613 -1.50285 0
M  V30 5622 O 546.306 -0.573515 -2.08662 0
M  V30 5623 C 546.901 -3.37728 -0.269285 0
M  V30 5624 C 545.46 -3.69868 -0.698168 0
M  V30 5625 C 544.607 -2.76777 0.170249 0
M  V30 5626 H 547.558 -1.48503 0.559704 0
M  V30 5627 H 547.579 -3.64331 -1.0974 0
M  V30 5628 H 547.091 -3.81375 0.719366 0
M  V30 5629 H 545.192 -3.31764 -1.69597 0
M  V30 5630 H 545.305 -4.76582 -0.490533 0
M  V30 5631 H 543.669 -2.52188 -0.356844 0
M  V30 5632 H 544.452 -3.23253 1.15597 0
M  V30 5633 N 546.897 -0.0685191 -1.57451 0
M  V30 5634 C 547.847 0.909895 -2.09057 0
M  V30 5635 C 548.831 1.26088 -0.999528 0
M  V30 5636 O 550.023 1.24041 -1.26265 0
M  V30 5637 C 547.152 2.17863 -2.65312 0
M  V30 5638 C 546.238 1.85427 -3.81415 0
M  V30 5639 N 546.629 1.23426 -4.9051 0
M  V30 5640 C 544.927 2.15196 -3.90649 0
M  V30 5641 C 545.628 1.09008 -5.71395 0
M  V30 5642 N 544.604 1.59871 -5.1956 0
M  V30 5643 H 548.406 0.426145 -2.90794 0
M  V30 5644 H 545.92 0.135462 -1.61834 0
M  V30 5645 H 547.917 2.88872 -3.00597 0
M  V30 5646 H 546.577 2.66829 -1.85021 0
M  V30 5647 H 547.588 0.904305 -5.09944 0
M  V30 5648 H 544.265 2.66562 -3.21327 0
M  V30 5649 H 545.655 0.607305 -6.6915 0
M  V30 5650 N 548.375 1.56261 0.205012 0
M  V30 5651 C 549.622 1.8004 0.926927 0
M  V30 5652 C 549.95 0.640086 1.83666 0
M  V30 5653 O 549.205 -0.374702 1.92079 0
M  V30 5654 C 549.504 3.09722 1.78345 0
M  V30 5655 C 549.17 4.39082 1.02555 0
M  V30 5656 C 547.832 4.74226 0.816256 0
M  V30 5657 C 550.184 5.18877 0.491559 0
M  V30 5658 C 547.512 5.86668 0.0613287 0
M  V30 5659 C 549.864 6.32105 -0.250107 0
M  V30 5660 C 548.528 6.6584 -0.470508 0
M  V30 5661 H 547.798 0.658812 0.339187 0
M  V30 5662 H 550.445 1.90515 0.19395 0
M  V30 5663 H 548.75 2.9444 2.5848 0
M  V30 5664 H 550.447 3.25324 2.34446 0
M  V30 5665 H 547.037 4.11497 1.19868 0
M  V30 5666 H 551.221 4.92147 0.640684 0
M  V30 5667 H 546.477 6.11283 -0.119501 0
M  V30 5668 H 550.651 6.93157 -0.671307 0
M  V30 5669 H 548.278 7.5281 -1.05739 0
M  V30 5670 N 549.853 -0.472356 1.50355 0
M  V30 5671 C 551.264 -1.05326 1.54154 0
M  V30 5672 C 551.615 -1.93155 0.344303 0
M  V30 5673 O 550.74 -2.09479 -0.542928 0
M  V30 5674 C 551.335 -1.91691 2.79356 0
M  V30 5675 C 549.894 -2.44892 2.8584 0
M  V30 5676 C 549.041 -1.23205 2.48426 0
M  V30 5677 H 551.992 -0.255027 1.56637 0
M  V30 5678 H 552.013 -2.76742 2.6114 0
M  V30 5679 H 551.525 -1.27741 3.66475 0
M  V30 5680 H 549.626 -3.12399 2.0307 0
M  V30 5681 H 549.739 -2.80086 3.88701 0
M  V30 5682 H 548.103 -1.56643 2.00836 0
M  V30 5683 H 548.886 -0.609194 3.37852 0
M  V30 5684 N 551.331 -1.39911 -0.725443 0
M  V30 5685 C 552.577 -1.37858 -1.48738 0
M  V30 5686 C 552.91 0.0224187 -1.94187 0
M  V30 5687 O 552.185 0.989204 -1.67466 0
M  V30 5688 C 552.468 -2.3594 -2.72038 0
M  V30 5689 C 552.321 -3.85023 -2.32546 0
M  V30 5690 C 553.64 -2.31704 -3.74167 0
M  V30 5691 H 550.759 -0.502074 -0.539528 0
M  V30 5692 H 553.401 -1.70974 -0.828728 0
M  V30 5693 H 551.551 -2.0783 -3.28236 0
M  V30 5694 H 553.223 -4.2392 -1.81905 0
M  V30 5695 H 551.466 -4.01334 -1.64661 0
M  V30 5696 H 552.137 -4.49152 -3.20884 0
M  V30 5697 H 554.613 -2.5658 -3.27576 0
M  V30 5698 H 553.489 -3.02395 -4.58092 0
M  V30 5699 H 553.75 -1.3253 -4.21768 0
M  V30 5700 N 552.809 0.956637 -1.25245 0
M  V30 5701 C 554.049 1.71585 -1.11076 0
M  V30 5702 C 554.413 1.88916 0.34277 0
M  V30 5703 O 555.614 2.61875 0.606227 0
M  V30 5704 C 553.885 3.06267 -1.84215 0
M  V30 5705 S 555.444 3.97469 -1.85914 0
M  V30 5706 H 552.262 0.589803 -0.397055 0
M  V30 5707 H 554.864 1.14114 -1.58739 0
M  V30 5708 H 553.568 2.91322 -2.89067 0
M  V30 5709 H 553.099 3.688 -1.36931 0
M  V30 5710 H 555.114 4.87316 -0.93474 0
M  V30 5711 N 554.287 1.06798 1.15896 0
M  V30 5712 C 555.22 0.627503 2.19403 0
M  V30 5713 C 556.198 -0.352352 1.58736 0
M  V30 5714 O 557.382 -0.260111 1.86697 0
M  V30 5715 C 554.509 -0.079356 3.38607 0
M  V30 5716 C 553.555 0.858057 4.17779 0
M  V30 5717 S 554.388 2.35605 4.80885 0
M  V30 5718 C 555.544 1.66083 6.03463 0
M  V30 5719 H 555.777 1.50441 2.56427 0
M  V30 5720 H 553.31 0.881427 1.26768 0
M  V30 5721 H 555.268 -0.48095 4.07673 0
M  V30 5722 H 553.929 -0.932524 2.99938 0
M  V30 5723 H 553.122 0.310108 5.03045 0
M  V30 5724 H 552.724 1.19977 3.54234 0
M  V30 5725 H 555.016 0.969337 6.7053 0
M  V30 5726 H 555.959 2.49159 6.62816 0
M  V30 5727 H 556.367 1.14122 5.52844 0
M  V30 5728 N 555.766 -1.3263 0.851289 0
M  V30 5729 C 556.696 -2.31449 0.308771 0
M  V30 5730 C 557.677 -1.59531 -0.590255 0
M  V30 5731 O 558.862 -1.87351 -0.511205 0
M  V30 5732 C 555.992 -3.43586 -0.506548 0
M  V30 5733 C 554.946 -4.26963 0.297753 0
M  V30 5734 C 554.272 -5.30831 -0.642094 0
M  V30 5735 C 555.572 -4.99643 1.52166 0
M  V30 5736 H 557.266 -2.77074 1.13447 0
M  V30 5737 H 554.812 -1.33207 0.546971 0
M  V30 5738 H 556.765 -4.11754 -0.896474 0
M  V30 5739 H 555.489 -2.96681 -1.36558 0
M  V30 5740 H 554.148 -3.60437 0.669391 0
M  V30 5741 H 553.796 -4.8018 -1.49788 0
M  V30 5742 H 553.496 -5.87501 -0.107968 0
M  V30 5743 H 555.02 -6.01862 -1.02927 0
M  V30 5744 H 556.434 -5.6051 1.20421 0
M  V30 5745 H 554.831 -5.66022 1.99347 0
M  V30 5746 H 555.901 -4.27701 2.28474 0
M  V30 5747 N 557.244 -0.608902 -1.45362 0
M  V30 5748 C 558.492 -0.104401 -2.0183 0
M  V30 5749 C 558.813 1.27007 -1.47967 0
M  V30 5750 O 558.083 1.83924 -0.674455 0
M  V30 5751 H 556.663 -0.0356042 -0.746151 0
M  V30 5752 H 559.325 -0.790596 -1.78145 0
M  V30 5753 H 558.421 -0.0551793 -3.12051 0
M  V30 5754 N 558.722 1.53707 -0.348139 0
M  V30 5755 C 559.67 2.26671 0.521808 0
M  V30 5756 C 560.664 1.28988 1.09811 0
M  V30 5757 O 561.87 1.4668 1.04332 0
M  V30 5758 H 558.245 0.728387 0.186968 0
M  V30 5759 H 560.216 2.98176 -0.115563 0
M  V30 5760 C 558.965 3.05591 1.6586 0
M  V30 5761 H 558.288 3.80589 1.22443 0
M  V30 5762 H 559.728 3.59851 2.24239 0
M  V30 5763 C 558.187 2.15366 2.59073 0
M  V30 5764 O 558.717 1.7528 3.61441 0
M  V30 5765 N 556.923 1.80352 2.27863 0
M  V30 5766 H 556.47 2.13149 1.44656 0
M  V30 5767 H 556.428 1.20268 2.90488 0
M  V30 5768 N 560.2 0.0768682 1.57412 0
M  V30 5769 C 561.616 -0.279772 1.57129 0
M  V30 5770 C 561.816 -1.69688 1.08666 0
M  V30 5771 O 560.872 -2.40953 0.754843 0
M  V30 5772 C 562.185 -0.0848055 3.0058 0
M  V30 5773 C 563.733 -0.153954 3.12621 0
M  V30 5774 C 564.208 0.0127946 4.57998 0
M  V30 5775 N 565.699 -0.0426435 4.6318 0
M  V30 5776 C 566.434 0.0618892 5.73367 0
M  V30 5777 N 565.93 0.220229 6.9245 0
M  V30 5778 N 567.723 0.00446072 5.621 0
M  V30 5779 H 559.874 1.00297 1.87228 0
M  V30 5780 H 562.137 0.391565 0.863354 0
M  V30 5781 H 561.843 0.89325 3.40168 0
M  V30 5782 H 561.717 -0.834961 3.67843 0
M  V30 5783 H 564.104 -1.1225 2.72917 0
M  V30 5784 H 564.185 0.627389 2.47987 0
M  V30 5785 H 563.829 0.978128 4.98392 0
M  V30 5786 H 563.759 -0.788016 5.20671 0
M  V30 5787 H 566.25 -0.163226 3.77547 0
M  V30 5788 H 566.563 0.291999 7.72248 0
M  V30 5789 H 564.908 0.255658 6.9453 0
M  V30 5790 H 568.099 -0.117979 4.67951 0
M  V30 5791 H 568.272 0.0893796 6.47938 0
M  V30 5792 N 561.678 -1.56367 -0.196722 0
M  V30 5793 C 562.906 -1.84639 -0.933608 0
M  V30 5794 C 563.321 -0.659164 -1.76919 0
M  V30 5795 O 562.678 0.372142 -1.78665 0
M  V30 5796 C 562.729 -3.11694 -1.83109 0
M  V30 5797 O 562.45 -4.25838 -1.02924 0
M  V30 5798 C 563.951 -3.53132 -2.67979 0
M  V30 5799 H 561.171 -0.613188 -0.272473 0
M  V30 5800 H 563.715 -2.03475 -0.204465 0
M  V30 5801 H 561.87 -2.94759 -2.51387 0
M  V30 5802 H 562.284 -4.98178 -1.64069 0
M  V30 5803 H 563.758 -4.45005 -3.26611 0
M  V30 5804 H 564.235 -2.76045 -3.41608 0
M  V30 5805 H 564.841 -3.72592 -2.05074 0
M  V30 5806 N 563.156 0.464375 -1.50603 0
M  V30 5807 C 564.086 1.56944 -1.72889 0
M  V30 5808 C 565.067 1.59979 -0.577997 0
M  V30 5809 O 566.252 1.76138 -0.817855 0
M  V30 5810 C 563.382 2.95225 -1.8292 0
M  V30 5811 C 562.336 3.07056 -2.98162 0
M  V30 5812 C 561.662 4.47051 -2.93343 0
M  V30 5813 C 562.962 2.83648 -4.38567 0
M  V30 5814 H 564.656 1.38547 -2.65415 0
M  V30 5815 H 562.202 0.665082 -1.27721 0
M  V30 5816 H 564.155 3.72467 -1.97095 0
M  V30 5817 H 562.879 3.14793 -0.870209 0
M  V30 5818 H 561.538 2.32248 -2.83648 0
M  V30 5819 H 561.186 4.63547 -1.95276 0
M  V30 5820 H 560.886 4.55902 -3.70712 0
M  V30 5821 H 562.41 5.26304 -3.09575 0
M  V30 5822 H 563.824 3.50636 -4.53572 0
M  V30 5823 H 562.221 3.03937 -5.17438 0
M  V30 5824 H 563.291 1.79451 -4.50472 0
M  V30 5825 N 564.634 1.40294 0.718013 0
M  V30 5826 C 565.859 1.41941 1.5122 0
M  V30 5827 C 566.284 0.0202371 1.88089 0
M  V30 5828 O 565.642 -0.971078 1.53101 0
M  V30 5829 C 565.69 2.3141 2.76554 0
M  V30 5830 O 564.794 1.75567 3.73162 0
M  V30 5831 H 564.135 0.482644 0.456016 0
M  V30 5832 H 566.665 1.84494 0.884478 0
M  V30 5833 H 566.675 2.46513 3.25108 0
M  V30 5834 H 565.35 3.33085 2.49053 0
M  V30 5835 H 563.927 1.69798 3.31999 0
M  V30 5836 N 566.112 -0.949982 1.2575 0
M  V30 5837 C 567.337 -1.73503 1.13628 0
M  V30 5838 C 567.762 -1.85601 -0.30559 0
M  V30 5839 O 567.12 -1.33984 -1.22139 0
M  V30 5840 C 567.168 -3.1243 1.80055 0
M  V30 5841 O 566.272 -3.97916 1.08336 0
M  V30 5842 H 565.613 -0.532665 0.396439 0
M  V30 5843 H 568.143 -1.19043 1.66403 0
M  V30 5844 H 568.153 -3.62866 1.86527 0
M  V30 5845 H 566.828 -3.02941 2.84956 0
M  V30 5846 H 565.405 -3.56375 1.09777 0
M  V30 5847 N 567.59 -1.07411 -1.15328 0
M  V30 5848 C 569.006 -0.799759 -1.38116 0
M  V30 5849 C 569.206 0.59572 -1.92493 0
M  V30 5850 O 568.262 1.35433 -2.13106 0
M  V30 5851 C 569.575 -1.87407 -2.35158 0
M  V30 5852 C 571.123 -1.89889 -2.48819 0
M  V30 5853 C 571.598 -2.96406 -3.49153 0
M  V30 5854 N 573.089 -2.95512 -3.56689 0
M  V30 5855 C 573.824 -3.74575 -4.34144 0
M  V30 5856 N 573.32 -4.63488 -5.14928 0
M  V30 5857 N 575.113 -3.62919 -4.29239 0
M  V30 5858 H 567.264 -1.97411 -0.78374 0
M  V30 5859 H 569.527 -0.856113 -0.407154 0
M  V30 5860 H 569.233 -2.8768 -2.0232 0
M  V30 5861 H 569.107 -1.73471 -3.34944 0
M  V30 5862 H 571.494 -0.902677 -2.80955 0
M  V30 5863 H 571.575 -2.07904 -1.49029 0
M  V30 5864 H 571.219 -3.96227 -3.17752 0
M  V30 5865 H 571.149 -2.75638 -4.48699 0
M  V30 5866 H 573.64 -2.31061 -2.99031 0
M  V30 5867 H 573.953 -5.20445 -5.71276 0
M  V30 5868 H 572.298 -4.67537 -5.14232 0
M  V30 5869 H 575.489 -2.92833 -3.65194 0
M  V30 5870 H 575.662 -4.24777 -4.89355 0
M  V30 5871 N 569.068 1.32177 -0.85831 0
M  V30 5872 C 570.018 2.26307 -0.277307 0
M  V30 5873 C 571.002 1.50123 0.578946 0
M  V30 5874 O 572.194 1.71754 0.427731 0
M  V30 5875 C 569.323 3.39181 0.530232 0
M  V30 5876 C 568.409 4.22746 -0.338613 0
M  V30 5877 N 568.8 4.85265 -1.4266 0
M  V30 5878 C 567.098 4.45813 -0.129 0
M  V30 5879 C 567.799 5.47634 -1.96142 0
M  V30 5880 N 566.775 5.28794 -1.26007 0
M  V30 5881 H 570.577 2.72173 -1.10902 0
M  V30 5882 H 568.091 1.46308 -0.704816 0
M  V30 5883 H 570.088 4.05628 0.962904 0
M  V30 5884 H 568.748 2.9486 1.35969 0
M  V30 5885 H 569.759 4.85259 -1.80953 0
M  V30 5886 H 566.436 4.12163 0.665451 0
M  V30 5887 H 567.826 6.0735 -2.8736 0
M  V30 5888 N 570.547 0.616602 1.45037 0
M  V30 5889 C 571.796 0.112861 2.01384 0
M  V30 5890 C 572.109 -1.26758 1.48969 0
M  V30 5891 O 573.315 -1.86454 1.9735 0
M  V30 5892 C 571.771 0.151057 3.59583 0
M  V30 5893 C 571.379 1.53191 4.20995 0
M  V30 5894 C 573.123 -0.296974 4.2346 0
M  V30 5895 C 571.03 1.526 5.71373 0
M  V30 5896 H 569.96 0.0384254 0.75302 0
M  V30 5897 H 572.611 0.773262 1.66412 0
M  V30 5898 H 570.993 -0.57617 3.91786 0
M  V30 5899 H 572.167 2.28156 4.00352 0
M  V30 5900 H 570.482 1.92279 3.69348 0
M  V30 5901 H 573.079 -0.320712 5.33737 0
M  V30 5902 H 573.422 -1.32145 3.9477 0
M  V30 5903 H 573.955 0.377279 3.96007 0
M  V30 5904 H 570.694 2.52837 6.04776 0
M  V30 5905 H 570.214 0.819064 5.94181 0
M  V30 5906 H 571.893 1.25357 6.3474 0
M  V30 5907 N 572.025 -1.5352 0.356285 0
M  V30 5908 C 573.302 -1.93405 -0.292223 0
M  V30 5909 C 573.682 -1.28901 -1.67176 0
M  V30 5910 O 573.03 -0.444632 -2.24132 0
M  V30 5911 C 573.24 -3.47223 -0.35175 0
M  V30 5912 C 574.588 -4.20389 -0.596534 0
M  V30 5913 O 575.612 -3.53554 -0.433344 0
M  V30 5914 O 574.471 -5.3881 -0.913589 0
M  V30 5915 H 571.565 -0.808666 -0.173172 0
M  V30 5916 H 574.111 -1.64713 0.408391 0
M  V30 5917 H 572.883 -3.86423 0.615841 0
M  V30 5918 H 572.506 -3.8212 -1.09864 0
M  V30 5919 N 573.503 -0.0852151 -1.57369 0
M  V30 5920 C 574.749 0.581666 -1.94279 0
M  V30 5921 C 575.082 1.68444 -0.966446 0
M  V30 5922 O 574.357 1.945 0.00215277 0
M  V30 5923 C 574.64 1.14609 -3.41375 0
M  V30 5924 C 574.493 0.0490414 -4.49773 0
M  V30 5925 C 575.812 2.04751 -3.8957 0
M  V30 5926 H 572.931 0.209972 -0.706456 0
M  V30 5927 H 575.573 -0.153915 -1.89376 0
M  V30 5928 H 573.723 1.77297 -3.45685 0
M  V30 5929 H 575.395 -0.584721 -4.57579 0
M  V30 5930 H 573.638 -0.618638 -4.29366 0
M  V30 5931 H 574.309 0.484601 -5.49869 0
M  V30 5932 H 576.785 1.51981 -3.87351 0
M  V30 5933 H 575.661 2.41173 -4.93079 0
M  V30 5934 H 575.922 2.96107 -3.28288 0
M  V30 5935 N 574.981 1.5647 0.188427 0
M  V30 5936 C 576.221 1.82803 0.914469 0
M  V30 5937 C 576.585 0.663681 1.80165 0
M  V30 5938 O 577.786 0.807059 2.56398 0
M  V30 5939 C 576.057 3.14187 1.70357 0
M  V30 5940 S 577.616 3.61947 2.48072 0
M  V30 5941 H 574.434 0.641497 0.306599 0
M  V30 5942 H 577.036 1.94694 0.177361 0
M  V30 5943 H 575.74 3.96937 1.04255 0
M  V30 5944 H 575.271 3.05192 2.48237 0
M  V30 5945 H 577.286 3.27913 3.72407 0
M  V30 5946 N 576.459 -0.456382 1.50847 0
M  V30 5947 C 577.684 -1.2349 1.66628 0
M  V30 5948 C 578.109 -1.84715 0.355254 0
M  V30 5949 O 577.467 -1.67961 -0.682559 0
M  V30 5950 C 577.515 -2.30865 2.77009 0
M  V30 5951 O 576.619 -3.35882 2.39285 0
M  V30 5952 H 575.96 -0.36266 0.556214 0
M  V30 5953 H 578.49 -0.541374 1.97308 0
M  V30 5954 H 578.5 -2.75949 3.00526 0
M  V30 5955 H 577.175 -1.85677 3.72152 0
M  V30 5956 H 575.752 -2.96406 2.26269 0
M  V30 5957 N 577.937 -1.40673 -0.710563 0
M  V30 5958 C 578.884 -1.41336 -1.82463 0
M  V30 5959 C 579.854 -0.269648 -1.63897 0
M  V30 5960 O 581.039 -0.468463 -1.8496 0
M  V30 5961 C 578.179 -1.28665 -3.20218 0
M  V30 5962 C 577.292 -2.52784 -3.5032 0
M  V30 5963 C 576.427 -2.32517 -4.77608 0
M  V30 5964 C 575.466 -3.52187 -5.0063 0
M  V30 5965 N 574.603 -3.31084 -6.19135 0
M  V30 5966 H 579.443 -2.36558 -1.8123 0
M  V30 5967 H 576.98 -1.17483 -0.885226 0
M  V30 5968 H 578.938 -1.19324 -3.99772 0
M  V30 5969 H 577.568 -0.370602 -3.20666 0
M  V30 5970 H 576.62 -2.72634 -2.65283 0
M  V30 5971 H 577.932 -3.41845 -3.63241 0
M  V30 5972 H 577.086 -2.20558 -5.65189 0
M  V30 5973 H 575.825 -1.40889 -4.66906 0
M  V30 5974 H 574.83 -3.64617 -4.11502 0
M  V30 5975 H 576.055 -4.44749 -5.13201 0
M  V30 5976 H 574.001 -2.42143 -6.09674 0
M  V30 5977 H 573.918 -4.13713 -6.32754 0
M  V30 5978 H 575.186 -3.22868 -7.0949 0
M  V30 5979 N 579.415 0.9433 -1.26252 0
M  V30 5980 C 580.643 1.72367 -1.14443 0
M  V30 5981 C 581.058 1.86392 0.300572 0
M  V30 5982 O 580.415 1.36978 1.20596 0
M  V30 5983 C 580.466 3.13155 -1.806 0
M  V30 5984 O 580.187 2.99803 -3.19452 0
M  V30 5985 C 581.688 4.07417 -1.74717 0
M  V30 5986 H 578.908 0.539758 -0.398626 0
M  V30 5987 H 581.452 1.18268 -1.66832 0
M  V30 5988 H 579.607 3.64162 -1.32154 0
M  V30 5989 H 580.021 3.88697 -3.52158 0
M  V30 5990 H 581.495 5.03773 -2.25647 0
M  V30 5991 H 581.972 4.3337 -0.713244 0
M  V30 5992 H 582.578 3.6233 -2.22704 0
M  V30 5993 N 580.893 1.08022 1.14757 0
M  V30 5994 C 581.84 0.706657 2.19716 0
M  V30 5995 C 582.81 -0.30525 1.63271 0
M  V30 5996 O 583.995 -0.19015 1.8985 0
M  V30 5997 C 581.135 0.117914 3.44898 0
M  V30 5998 C 580.248 1.18212 4.15512 0
M  V30 5999 C 579.383 0.557659 5.28265 0
M  V30 6000 C 578.422 1.60418 5.90705 0
M  V30 6001 N 577.559 1.0018 6.94916 0
M  V30 6002 H 582.399 1.60603 2.51019 0
M  V30 6003 H 579.936 0.802664 1.23271 0
M  V30 6004 H 581.894 -0.241112 4.16503 0
M  V30 6005 H 580.524 -0.744788 3.1409 0
M  V30 6006 H 579.576 1.65863 3.42335 0
M  V30 6007 H 580.888 1.97533 4.5802 0
M  V30 6008 H 580.042 0.146654 6.06523 0
M  V30 6009 H 578.781 -0.267249 4.86967 0
M  V30 6010 H 577.786 2.02489 5.11154 0
M  V30 6011 H 579.011 2.43149 6.34078 0
M  V30 6012 H 576.957 0.197917 6.55701 0
M  V30 6013 H 576.874 1.73216 7.35889 0
M  V30 6014 H 578.142 0.616523 7.77058 0
M  V30 6015 N 582.371 -1.3172 0.865308 0
M  V30 6016 C 583.281 -2.32394 0.320935 0
M  V30 6017 C 584.297 -1.64511 -0.566746 0
M  V30 6018 O 585.473 -1.95969 -0.464575 0
M  V30 6019 C 582.538 -3.43462 -0.472701 0
M  V30 6020 C 581.599 -4.27015 0.442385 0
M  V30 6021 C 580.832 -5.32779 -0.313469 0
M  V30 6022 O 581.055 -5.49158 -1.54214 0
M  V30 6023 O 579.989 -6.01015 0.326257 0
M  V30 6024 H 583.815 -2.80868 1.15528 0
M  V30 6025 H 581.4 -1.35535 0.628545 0
M  V30 6026 H 583.282 -4.11172 -0.922781 0
M  V30 6027 H 581.957 -2.97159 -1.28367 0
M  V30 6028 H 580.864 -3.62075 0.940866 0
M  V30 6029 H 582.197 -4.76871 1.21882 0
M  V30 6030 N 583.85 -0.624285 -1.44708 0
M  V30 6031 C 585.099 -0.123539 -2.01321 0
M  V30 6032 C 585.412 1.25966 -1.49639 0
M  V30 6033 O 586.618 1.85405 -1.98336 0
M  V30 6034 C 585.074 -0.170124 -3.59498 0
M  V30 6035 C 584.682 -1.55421 -4.20176 0
M  V30 6036 C 586.426 0.274513 -4.23611 0
M  V30 6037 C 584.332 -1.55628 -5.70556 0
M  V30 6038 H 583.263 -0.0424183 -0.752806 0
M  V30 6039 H 585.913 -0.782076 -1.65999 0
M  V30 6040 H 584.296 0.555385 -3.92086 0
M  V30 6041 H 585.47 -2.30276 -3.99136 0
M  V30 6042 H 583.784 -1.94235 -3.68323 0
M  V30 6043 H 586.382 0.292402 -5.339 0
M  V30 6044 H 586.725 1.3005 -3.95465 0
M  V30 6045 H 587.258 -0.398275 -3.95801 0
M  V30 6046 H 583.997 -2.56041 -6.03426 0
M  V30 6047 H 583.517 -0.850563 -5.93739 0
M  V30 6048 H 585.196 -1.28721 -6.34066 0
M  V30 6049 N 585.328 1.53329 -0.364422 0
M  V30 6050 C 586.276 2.27212 0.497737 0
M  V30 6051 C 587.27 1.30146 1.08437 0
M  V30 6052 O 588.476 1.47778 1.0277 0
M  V30 6053 H 584.851 0.730329 0.179232 0
M  V30 6054 H 586.822 2.98037 -0.147182 0
M  V30 6055 C 585.571 3.07333 1.6261 0
M  V30 6056 H 584.894 3.81866 1.184 0
M  V30 6057 H 586.334 3.62209 2.20409 0
M  V30 6058 C 584.793 2.18102 2.56775 0
M  V30 6059 O 585.323 1.79104 3.59562 0
M  V30 6060 N 583.529 1.82759 2.25937 0
M  V30 6061 H 583.076 2.14671 1.42387 0
M  V30 6062 H 583.034 1.23342 2.89196 0
M  V30 6063 N 586.806 0.0935595 1.57322 0
M  V30 6064 C 587.754 -0.883457 2.15169 0
M  V30 6065 C 588.748 -1.29324 1.09415 0
M  V30 6066 O 589.954 -1.26795 1.27762 0
M  V30 6067 H 586.329 -0.302923 0.688289 0
M  V30 6068 H 588.3 -0.370845 2.96087 0
M  V30 6069 C 587.049 -2.13345 2.74552 0
M  V30 6070 H 586.372 -1.82702 3.55612 0
M  V30 6071 H 587.812 -2.7977 3.18598 0
M  V30 6072 C 586.271 -2.90646 1.70371 0
M  V30 6073 O 586.801 -3.85133 1.14173 0
M  V30 6074 N 585.007 -2.54157 1.40899 0
M  V30 6075 H 584.554 -1.77391 1.86789 0
M  V30 6076 H 584.512 -3.06178 0.714301 0
M  V30 6077 N 588.284 -1.56567 -0.180126 0
M  V30 6078 C 589.217 -1.90813 -1.25163 0
M  V30 6079 C 590.195 -0.7699 -1.43218 0
M  V30 6080 O 591.379 -1.02236 -1.58367 0
M  V30 6081 C 588.506 -2.15138 -2.61597 0
M  V30 6082 C 587.552 -3.37834 -2.60328 0
M  V30 6083 S 588.385 -4.92486 -2.1028 0
M  V30 6084 C 589.541 -5.19896 -3.48509 0
M  V30 6085 H 589.774 -2.81398 -0.959283 0
M  V30 6086 H 587.307 -1.49541 -0.3843 0
M  V30 6087 H 589.265 -2.29835 -3.40127 0
M  V30 6088 H 587.926 -1.25276 -2.88036 0
M  V30 6089 H 587.119 -3.52027 -3.60684 0
M  V30 6090 H 586.721 -3.22208 -1.8989 0
M  V30 6091 H 589.013 -5.11334 -4.44459 0
M  V30 6092 H 589.956 -6.21571 -3.39198 0
M  V30 6093 H 590.364 -4.47489 -3.44114 0
M  V30 6094 N 589.762 0.448376 -1.51087 0
M  V30 6095 C 590.99 1.22143 -1.66999 0
M  V30 6096 C 591.405 1.85283 -0.362699 0
M  V30 6097 O 590.762 1.70236 0.65772 0
M  V30 6098 C 590.813 2.31357 -2.7777 0
M  V30 6099 O 590.534 1.70801 -4.03434 0
M  V30 6100 C 592.035 3.21836 -3.04855 0
M  V30 6101 H 589.255 0.368558 -0.560719 0
M  V30 6102 H 591.799 0.532618 -1.97442 0
M  V30 6103 H 589.954 2.95973 -2.49958 0
M  V30 6104 H 590.368 2.42895 -4.64868 0
M  V30 6105 H 591.842 3.94627 -3.85971 0
M  V30 6106 H 592.319 3.81949 -2.16821 0
M  V30 6107 H 592.925 2.62933 -3.34285 0
M  V30 6108 N 591.24 1.41047 0.703093 0
M  V30 6109 C 592.486 1.40207 1.46526 0
M  V30 6110 C 592.819 0.00847763 1.94198 0
M  V30 6111 O 592.094 -0.962437 1.69019 0
M  V30 6112 C 592.377 2.40238 2.6825 0
M  V30 6113 C 592.23 3.88674 2.26391 0
M  V30 6114 C 593.549 2.37627 3.70434 0
M  V30 6115 H 590.668 0.510594 0.531472 0
M  V30 6116 H 593.31 1.72271 0.801422 0
M  V30 6117 H 591.46 2.13026 3.24888 0
M  V30 6118 H 593.132 4.2676 1.75138 0
M  V30 6119 H 591.375 4.03903 1.58255 0
M  V30 6120 H 592.046 4.542 3.13698 0
M  V30 6121 H 594.522 2.61759 3.23452 0
M  V30 6122 H 593.398 3.09645 4.53223 0
M  V30 6123 H 593.659 1.39223 4.19606 0
M  V30 6124 N 592.718 -0.936591 1.26751 0
M  V30 6125 C 594.129 -1.49816 1.1141 0
M  V30 6126 C 594.48 -1.9383 -0.304015 0
M  V30 6127 O 593.605 -1.80346 -1.196 0
M  V30 6128 C 594.2 -2.72271 2.01629 0
M  V30 6129 C 592.759 -3.2468 1.9042 0
M  V30 6130 C 591.906 -1.97444 1.94708 0
M  V30 6131 H 594.857 -0.751604 1.39773 0
M  V30 6132 H 594.878 -3.46741 1.56688 0
M  V30 6133 H 594.39 -2.40205 3.04833 0
M  V30 6134 H 592.491 -3.61525 0.901674 0
M  V30 6135 H 592.604 -3.91476 2.76195 0
M  V30 6136 H 590.968 -2.13545 1.38818 0
M  V30 6137 H 591.751 -1.67703 2.9955 0
M  V30 6138 N 594.196 -1.08629 -1.14182 0
M  V30 6139 C 595.421 -0.83902 -1.89671 0
M  V30 6140 C 595.846 0.603332 -1.78161 0
M  V30 6141 O 595.204 1.42301 -1.12339 0
M  V30 6142 C 595.252 -1.26854 -3.37551 0
M  V30 6143 O 594.356 -0.42188 -4.10236 0
M  V30 6144 H 593.697 -0.304545 -0.590041 0
M  V30 6145 H 596.227 -1.4483 -1.44518 0
M  V30 6146 H 596.237 -1.25038 -3.88368 0
M  V30 6147 H 594.912 -2.31901 -3.45246 0
M  V30 6148 H 593.489 -0.503654 -3.69483 0
M  V30 6149 N 595.674 1.31259 -0.872281 0
M  V30 6150 C 596.621 2.28459 -0.327857 0
M  V30 6151 C 597.591 1.55831 0.574957 0
M  V30 6152 O 598.776 1.83965 0.506101 0
M  V30 6153 C 595.916 3.41985 0.462644 0
M  V30 6154 C 595.029 4.29458 -0.467949 0
M  V30 6155 C 594.164 5.30131 0.336903 0
M  V30 6156 C 593.203 6.0925 -0.58997 0
M  V30 6157 N 592.34 7.01872 0.178775 0
M  V30 6158 H 597.18 2.74414 -1.16193 0
M  V30 6159 H 594.717 1.34994 -0.584376 0
M  V30 6160 H 596.675 4.06547 0.936759 0
M  V30 6161 H 595.305 2.97134 1.2614 0
M  V30 6162 H 594.357 3.65318 -1.06052 0
M  V30 6163 H 595.669 4.84677 -1.17856 0
M  V30 6164 H 594.823 6.0038 0.873427 0
M  V30 6165 H 593.562 4.75573 1.08079 0
M  V30 6166 H 592.567 5.37889 -1.13823 0
M  V30 6167 H 593.792 6.65894 -1.33275 0
M  V30 6168 H 591.738 6.49721 0.905435 0
M  V30 6169 H 591.655 7.54522 -0.472452 0
M  V30 6170 H 592.923 7.76382 0.696454 0
M  V30 6171 N 597.152 0.631951 1.44375 0
M  V30 6172 C 598.082 -0.0593243 2.33425 0
M  V30 6173 C 599.063 -0.833964 1.48253 0
M  V30 6174 O 600.248 -0.799682 1.76971 0
M  V30 6175 C 597.378 -1.04096 3.31333 0
M  V30 6176 C 596.332 -0.377899 4.26328 0
M  V30 6177 C 595.658 -1.4695 5.14111 0
M  V30 6178 C 596.958 0.716371 5.17364 0
M  V30 6179 H 598.652 0.684287 2.91475 0
M  V30 6180 H 596.198 0.330518 1.40156 0
M  V30 6181 H 598.151 -1.53331 3.92514 0
M  V30 6182 H 596.875 -1.81547 2.71493 0
M  V30 6183 H 595.534 0.0938054 3.6648 0
M  V30 6184 H 595.182 -2.2349 4.50623 0
M  V30 6185 H 594.882 -1.03121 5.78481 0
M  V30 6186 H 596.406 -1.96363 5.78164 0
M  V30 6187 H 597.82 0.307089 5.72477 0
M  V30 6188 H 596.217 1.07784 5.90341 0
M  V30 6189 H 597.287 1.58316 4.58327 0
M  V30 6190 N 598.631 -1.53133 0.372548 0
M  V30 6191 C 599.877 -2.02336 -0.207823 0
M  V30 6192 C 600.232 -1.25477 -1.45853 0
M  V30 6193 O 599.525 -0.341971 -1.88524 0
M  V30 6194 C 599.719 -3.53206 -0.545938 0
M  V30 6195 C 599.548 -4.44674 0.670454 0
M  V30 6196 C 598.318 -4.91217 1.18465 0
M  V30 6197 C 600.516 -4.90772 1.53777 0
M  V30 6198 N 598.498 -5.66711 2.36034 0
M  V30 6199 C 599.869 -5.64678 2.56004 0
M  V30 6200 C 601.924 -4.72836 1.55983 0
M  V30 6201 C 600.627 -6.22555 3.60303 0
M  V30 6202 C 602.653 -5.31583 2.59179 0
M  V30 6203 C 602.015 -6.05381 3.6013 0
M  V30 6204 H 598.114 -0.781048 -0.0385783 0
M  V30 6205 H 600.698 -1.87665 0.518664 0
M  V30 6206 H 598.869 -3.68024 -1.24149 0
M  V30 6207 H 600.601 -3.89123 -1.112 0
M  V30 6208 H 597.356 -4.67652 0.748205 0
M  V30 6209 H 597.78 -6.09117 2.95475 0
M  V30 6210 H 602.422 -4.15299 0.792877 0
M  V30 6211 H 600.14 -6.79183 4.37876 0
M  V30 6212 H 603.726 -5.19595 2.61749 0
M  V30 6213 H 602.606 -6.50028 4.38672 0
M  V30 6214 N 600.109 -0.101901 -1.5727 0
M  V30 6215 C 601.357 0.559091 -1.94213 0
M  V30 6216 C 601.678 1.68297 -0.984948 0
M  V30 6217 O 600.948 1.95863 -0.0381975 0
M  V30 6218 H 599.528 0.20952 -0.717015 0
M  V30 6219 H 602.19 -0.166831 -1.94185 0
M  V30 6220 H 601.286 0.96485 -2.96811 0
M  V30 6221 N 601.587 1.56661 0.17182 0
M  V30 6222 C 602.834 1.81965 0.888529 0
M  V30 6223 C 603.162 0.6789 1.82267 0
M  V30 6224 O 602.417 -0.333875 1.92831 0
M  V30 6225 C 602.716 3.13435 1.71736 0
M  V30 6226 C 602.382 4.41159 0.932184 0
M  V30 6227 C 601.044 4.75851 0.715481 0
M  V30 6228 C 603.396 5.19803 0.381387 0
M  V30 6229 C 600.724 5.86666 -0.063126 0
M  V30 6230 C 603.076 6.31433 -0.384129 0
M  V30 6231 C 601.74 6.64692 -0.611637 0
M  V30 6232 H 601.01 0.665859 0.325136 0
M  V30 6233 H 603.657 1.90884 0.153495 0
M  V30 6234 H 601.962 2.99857 2.52177 0
M  V30 6235 H 603.659 3.30224 2.27493 0
M  V30 6236 H 600.249 4.13947 1.11112 0
M  V30 6237 H 604.433 4.93396 0.536148 0
M  V30 6238 H 599.689 6.10892 -0.249136 0
M  V30 6239 H 603.863 6.91577 -0.818185 0
M  V30 6240 H 601.49 7.50398 -1.21684 0
M  V30 6241 N 603.065 -0.440357 1.51323 0
M  V30 6242 C 604.312 -1.19004 1.63842 0
M  V30 6243 C 604.64 -1.91266 0.35321 0
M  V30 6244 O 603.895 -1.84143 -0.662565 0
M  V30 6245 C 604.194 -2.2339 2.78984 0
M  V30 6246 C 603.86 -1.68162 4.18369 0
M  V30 6247 C 602.522 -1.52823 4.56288 0
M  V30 6248 C 604.874 -1.27524 5.05358 0
M  V30 6249 C 602.202 -0.953157 5.78906 0
M  V30 6250 C 604.554 -0.714474 6.28552 0
M  V30 6251 C 603.218 -0.547961 6.65247 0
M  V30 6252 H 602.488 -0.435468 0.59954 0
M  V30 6253 H 605.135 -0.481538 1.85347 0
M  V30 6254 H 603.44 -3.00267 2.51688 0
M  V30 6255 H 605.137 -2.81211 2.85869 0
M  V30 6256 H 601.727 -1.81077 3.8847 0
M  V30 6257 H 605.911 -1.38197 4.76671 0
M  V30 6258 H 601.167 -0.811882 6.05986 0
M  V30 6259 H 605.341 -0.391059 6.95301 0
M  V30 6260 H 602.968 -0.100222 7.60134 0
M  V30 6261 N 604.543 -1.41418 -0.695603 0
M  V30 6262 C 605.783 -1.42241 -1.46788 0
M  V30 6263 C 606.147 -0.0300827 -1.91976 0
M  V30 6264 O 607.348 0.0868914 -2.6866 0
M  V30 6265 C 605.619 -2.4011 -2.6473 0
M  V30 6266 S 607.178 -2.59462 -3.53871 0
M  V30 6267 H 603.996 -0.503893 -0.50161 0
M  V30 6268 H 606.598 -1.77855 -0.811654 0
M  V30 6269 H 605.302 -3.40073 -2.29736 0
M  V30 6270 H 604.833 -2.05849 -3.35246 0
M  V30 6271 H 606.848 -1.862 -4.59939 0
M  V30 6272 N 606.021 0.929856 -1.27246 0
M  V30 6273 C 606.969 2.05151 -1.09616 0
M  V30 6274 C 607.963 1.69388 -0.0198617 0
M  V30 6275 O 609.169 1.79124 -0.177417 0
M  V30 6276 H 605.544 0.671909 -0.337701 0
M  V30 6277 H 607.515 2.17168 -2.04648 0
M  V30 6278 C 606.264 3.3934 -0.757851 0
M  V30 6279 H 605.587 3.67343 -1.57795 0
M  V30 6280 H 607.027 4.18603 -0.674358 0
M  V30 6281 C 605.486 3.32582 0.537658 0
M  V30 6282 O 606.016 3.69633 1.57271 0
M  V30 6283 N 604.222 2.8568 0.532478 0
M  V30 6284 H 603.769 2.55725 -0.310233 0
M  V30 6285 H 603.727 2.81541 1.39936 0
M  V30 6286 N 607.499 1.09233 1.13605 0
M  V30 6287 C 608.724 0.849067 1.89224 0
M  V30 6288 C 609.149 -0.593875 1.78479 0
M  V30 6289 O 608.507 -1.41703 1.13092 0
M  V30 6290 C 608.555 1.28642 3.36873 0
M  V30 6291 O 607.659 0.44363 4.10007 0
M  V30 6292 H 607 0.30767 0.588417 0
M  V30 6293 H 609.53 1.45595 1.43748 0
M  V30 6294 H 609.54 1.27096 3.87699 0
M  V30 6295 H 608.215 2.33729 3.44011 0
M  V30 6296 H 606.792 0.523241 3.69211 0
M  V30 6297 N 608.977 -1.30795 0.87923 0
M  V30 6298 C 610.202 -2.01063 0.508769 0
M  V30 6299 C 610.627 -1.65508 -0.893803 0
M  V30 6300 O 609.985 -0.868616 -1.59138 0
M  V30 6301 C 610.033 -3.54054 0.683991 0
M  V30 6302 O 609.137 -4.11498 -0.272654 0
M  V30 6303 H 608.478 -0.632786 0.201191 0
M  V30 6304 H 611.008 -1.66776 1.18519 0
M  V30 6305 H 611.018 -4.03845 0.580798 0
M  V30 6306 H 609.693 -3.79271 1.70665 0
M  V30 6307 H 608.27 -3.72695 -0.12364 0
M  V30 6308 N 610.455 -0.639598 -1.44038 0
M  V30 6309 C 611.387 0.0987684 -2.28987 0
M  V30 6310 C 612.4 0.80058 -1.41755 0
M  V30 6311 O 613.589 0.660611 -1.65826 0
M  V30 6312 C 610.689 1.16242 -3.18341 0
M  V30 6313 C 609.862 0.541447 -4.34036 0
M  V30 6314 C 608.921 1.50017 -5.04362 0
M  V30 6315 O 607.947 1.01403 -5.60095 0
M  V30 6316 N 609.149 2.83441 -5.06598 0
M  V30 6317 H 611.914 -0.630305 -2.92997 0
M  V30 6318 H 609.475 -0.481376 -1.54578 0
M  V30 6319 H 611.467 1.80429 -3.62253 0
M  V30 6320 H 610.037 1.79362 -2.56024 0
M  V30 6321 H 609.257 -0.27923 -3.9321 0
M  V30 6322 H 610.545 0.107379 -5.08687 0
M  V30 6323 H 609.943 3.2551 -4.62666 0
M  V30 6324 H 608.5 3.42966 -5.54272 0
M  V30 6325 N 611.933 1.52934 -0.380664 0
M  V30 6326 C 613.18 2.01467 0.204278 0
M  V30 6327 C 613.508 1.26744 1.47533 0
M  V30 6328 O 612.763 0.353723 1.92477 0
M  V30 6329 C 613.062 3.5349 0.527199 0
M  V30 6330 C 612.728 4.46171 -0.651295 0
M  V30 6331 C 611.39 4.71227 -0.974619 0
M  V30 6332 C 613.742 5.00909 -1.44012 0
M  V30 6333 C 611.07 5.4827 -2.08847 0
M  V30 6334 C 613.422 5.7917 -2.5445 0
M  V30 6335 C 612.086 6.02507 -2.87301 0
M  V30 6336 H 611.356 0.73722 0.0747504 0
M  V30 6337 H 614.003 1.84411 -0.516234 0
M  V30 6338 H 612.308 3.68574 1.32892 0
M  V30 6339 H 614.005 3.88529 0.992283 0
M  V30 6340 H 610.595 4.26829 -0.389276 0
M  V30 6341 H 614.779 4.81485 -1.20357 0
M  V30 6342 H 610.035 5.64567 -2.34679 0
M  V30 6343 H 614.209 6.20588 -3.1598 0
M  V30 6344 H 611.836 6.61989 -3.7373 0
M  V30 6345 N 613.412 0.11024 1.57214 0
M  V30 6346 C 614.659 -0.54987 1.94891 0
M  V30 6347 C 614.987 -1.67243 0.992984 0
M  V30 6348 O 614.242 -1.95694 0.0152703 0
M  V30 6349 C 614.541 -1.13102 3.39032 0
M  V30 6350 C 614.207 -0.130713 4.5071 0
M  V30 6351 C 612.869 0.14437 4.80983 0
M  V30 6352 C 615.221 0.551472 5.18274 0
M  V30 6353 C 612.549 1.10807 5.76141 0
M  V30 6354 C 614.901 1.50375 6.14467 0
M  V30 6355 C 613.565 1.78691 6.43138 0
M  V30 6356 H 612.835 -0.201212 0.713158 0
M  V30 6357 H 615.482 0.189288 1.90562 0
M  V30 6358 H 613.787 -1.94675 3.40013 0
M  V30 6359 H 615.484 -1.64973 3.65493 0
M  V30 6360 H 612.074 -0.355301 4.27125 0
M  V30 6361 H 616.258 0.35211 4.95049 0
M  V30 6362 H 611.514 1.3343 5.96663 0
M  V30 6363 H 615.688 2.03808 6.65909 0
M  V30 6364 H 613.315 2.53522 7.1668 0
M  V30 6365 N 614.89 -1.56749 -0.16351 0
M  V30 6366 C 615.838 -1.97939 -1.22159 0
M  V30 6367 C 616.832 -0.869288 -1.45395 0
M  V30 6368 O 618.038 -1.05443 -1.45883 0
M  V30 6369 H 614.413 -0.629869 -0.410815 0
M  V30 6370 H 616.384 -2.86115 -0.847381 0
M  V30 6371 C 615.133 -2.36206 -2.55151 0
M  V30 6372 H 614.456 -3.2117 -2.38097 0
M  V30 6373 H 615.896 -2.68863 -3.27854 0
M  V30 6374 C 614.355 -1.20841 -3.14482 0
M  V30 6375 O 614.885 -0.500258 -3.98573 0
M  V30 6376 N 613.091 -0.976943 -2.73686 0
M  V30 6377 H 612.638 -1.55457 -2.05404 0
M  V30 6378 H 612.596 -0.206912 -3.13718 0
M  V30 6379 N 616.368 0.432326 -1.51554 0
M  V30 6380 C 617.331 1.50765 -1.72634 0
M  V30 6381 C 618.331 1.49334 -0.596314 0
M  V30 6382 O 619.521 1.51268 -0.863925 0
M  V30 6383 C 616.653 2.90284 -1.7874 0
M  V30 6384 H 617.846 1.33377 -2.68609 0
M  V30 6385 H 615.399 0.661329 -1.4162 0
M  V30 6386 H 616.134 3.13071 -0.845977 0
M  V30 6387 H 615.919 2.92727 -2.6087 0
M  V30 6388 H 617.409 3.68282 -1.96871 0
M  V30 6389 N 617.846 1.41785 0.688094 0
M  V30 6390 C 619.074 1.44915 1.47673 0
M  V30 6391 C 619.489 0.0565786 1.88715 0
M  V30 6392 O 618.846 -0.92579 1.57275 0
M  V30 6393 C 618.897 2.36452 2.73446 0
M  V30 6394 O 618.618 3.7029 2.34131 0
M  V30 6395 C 620.119 2.48463 3.67125 0
M  V30 6396 H 617.339 0.493324 0.454832 0
M  V30 6397 H 619.883 1.86153 0.846594 0
M  V30 6398 H 618.038 1.98502 3.3268 0
M  V30 6399 H 618.452 4.19183 3.15255 0
M  V30 6400 H 619.926 3.16662 4.52138 0
M  V30 6401 H 620.403 1.51826 4.12123 0
M  V30 6402 H 621.009 2.8708 3.13792 0
M  V30 6403 N 619.324 -0.923095 1.27737 0
M  V30 6404 C 620.564 -1.6858 1.15586 0
M  V30 6405 C 620.928 -1.89758 -0.292562 0
M  V30 6406 O 622.129 -2.6339 -0.536583 0
M  V30 6407 C 620.4 -3.01275 1.92271 0
M  V30 6408 S 621.959 -3.924 1.96387 0
M  V30 6409 H 618.777 -0.579069 0.412554 0
M  V30 6410 H 621.379 -1.09866 1.61709 0
M  V30 6411 H 620.083 -2.83556 2.96689 0
M  V30 6412 H 619.614 -3.6504 1.46661 0
M  V30 6413 H 621.629 -4.84667 1.06361 0
M  V30 6414 N 620.802 -1.09834 -1.13024 0
M  V30 6415 C 622.079 -0.749225 -1.80682 0
M  V30 6416 C 622.459 0.765171 -1.96744 0
M  V30 6417 O 621.807 1.68912 -1.53886 0
M  V30 6418 C 622.017 -1.49311 -3.15448 0
M  V30 6419 C 623.365 -1.66162 -3.90737 0
M  V30 6420 O 624.389 -1.45597 -3.25085 0
M  V30 6421 O 623.248 -2.00211 -5.08505 0
M  V30 6422 H 620.342 -0.269614 -0.781817 0
M  V30 6423 H 622.888 -1.20078 -1.19914 0
M  V30 6424 H 621.66 -2.52407 -2.99009 0
M  V30 6425 H 621.283 -1.034 -3.8392 0
M  V30 6426 N 622.28 1.30327 -0.886154 0
M  V30 6427 C 623.19 2.31854 -0.357866 0
M  V30 6428 C 624.206 1.65392 0.540502 0
M  V30 6429 O 625.382 1.96683 0.433339 0
M  V30 6430 C 622.447 3.44171 0.417999 0
M  V30 6431 C 621.508 4.26257 -0.510263 0
M  V30 6432 C 620.741 5.3321 0.228669 0
M  V30 6433 O 620.964 5.51542 1.45458 0
M  V30 6434 O 619.898 6.0042 -0.421832 0
M  V30 6435 H 623.724 2.78995 -1.19982 0
M  V30 6436 H 621.309 1.34518 -0.650028 0
M  V30 6437 H 623.191 4.12588 0.857251 0
M  V30 6438 H 621.866 2.99164 1.23623 0
M  V30 6439 H 620.773 3.60533 -0.99835 0
M  V30 6440 H 622.106 4.74871 -1.29454 0
M  V30 6441 N 623.758 0.647228 1.43697 0
M  V30 6442 C 624.988 0.16551 2.05936 0
M  V30 6443 C 625.396 -1.17164 1.48557 0
M  V30 6444 O 624.739 -1.73307 0.60914 0
M  V30 6445 C 624.801 -0.00648082 3.59499 0
M  V30 6446 C 624.465 1.25503 4.39429 0
M  V30 6447 C 625.462 2.18241 4.71876 0
M  V30 6448 C 623.147 1.49494 4.79538 0
M  V30 6449 C 625.141 3.33268 5.43333 0
M  V30 6450 C 622.828 2.64815 5.50742 0
M  V30 6451 C 623.826 3.56528 5.82561 0
M  V30 6452 O 623.514 4.69836 6.52311 0
M  V30 6453 H 623.246 0.0844124 0.670709 0
M  V30 6454 H 625.8 0.88638 1.8529 0
M  V30 6455 H 624.03 -0.782661 3.78697 0
M  V30 6456 H 625.719 -0.444794 4.03456 0
M  V30 6457 H 626.485 2.00946 4.41413 0
M  V30 6458 H 622.364 0.789912 4.54182 0
M  V30 6459 H 625.908 4.04874 5.68087 0
M  V30 6460 H 621.805 2.82047 5.8062 0
M  V30 6461 H 622.573 4.69024 6.70789 0
M  V30 6462 N 625.236 -1.5273 0.388769 0
M  V30 6463 C 626.483 -2.01573 -0.19359 0
M  V30 6464 C 626.811 -1.27525 -1.46859 0
M  V30 6465 O 626.066 -0.363926 -1.92286 0
M  V30 6466 C 626.365 -3.53765 -0.508445 0
M  V30 6467 C 626.031 -4.4582 0.674947 0
M  V30 6468 C 624.693 -4.70703 0.999596 0
M  V30 6469 C 627.045 -5.00138 1.46666 0
M  V30 6470 C 624.373 -5.47155 2.11751 0
M  V30 6471 C 626.725 -5.77812 2.57518 0
M  V30 6472 C 625.389 -6.00975 2.90492 0
M  V30 6473 H 624.659 -0.737606 -0.0708397 0
M  V30 6474 H 627.306 -1.84134 0.526006 0
M  V30 6475 H 625.611 -3.69274 -1.30936 0
M  V30 6476 H 627.308 -3.8905 -0.971664 0
M  V30 6477 H 623.898 -4.26616 0.411906 0
M  V30 6478 H 628.082 -4.8084 1.22909 0
M  V30 6479 H 623.338 -5.63314 2.3767 0
M  V30 6480 H 627.512 -6.18904 3.19267 0
M  V30 6481 H 625.139 -6.59998 3.77236 0
M  V30 6482 N 626.714 -0.118576 -1.57153 0
M  V30 6483 C 627.96 0.540326 -1.95469 0
M  V30 6484 C 628.293 1.66356 -1.00196 0
M  V30 6485 O 627.568 1.94461 -0.039104 0
M  V30 6486 C 627.851 1.07342 -3.43729 0
M  V30 6487 C 627.704 -0.0463732 -4.49776 0
M  V30 6488 C 629.023 1.96442 -3.93826 0
M  V30 6489 H 626.142 0.19494 -0.710751 0
M  V30 6490 H 628.784 -0.19405 -1.89006 0
M  V30 6491 H 626.934 1.69925 -3.49368 0
M  V30 6492 H 628.606 -0.681648 -4.56236 0
M  V30 6493 H 626.849 -0.709574 -4.27957 0
M  V30 6494 H 627.52 0.367856 -5.50773 0
M  V30 6495 H 629.996 1.43731 -3.90488 0
M  V30 6496 H 628.872 2.3066 -4.98084 0
M  V30 6497 H 629.133 2.89077 -3.34495 0
M  V30 6498 N 628.193 1.56834 0.155195 0
M  V30 6499 C 629.143 1.94061 1.19684 0
M  V30 6500 C 630.127 0.810851 1.38975 0
M  V30 6501 O 631.319 1.07422 1.40675 0
M  V30 6502 C 628.448 2.31778 2.53247 0
M  V30 6503 C 627.534 3.51305 2.37583 0
M  V30 6504 N 627.925 4.68081 1.9166 0
M  V30 6505 C 626.223 3.56228 2.6836 0
M  V30 6506 C 626.924 5.50193 1.88845 0
M  V30 6507 N 625.9 4.91676 2.31852 0
M  V30 6508 H 629.702 2.81826 0.833747 0
M  V30 6509 H 627.216 1.58284 0.363328 0
M  V30 6510 H 629.213 2.56649 3.28538 0
M  V30 6511 H 627.873 1.4536 2.90346 0
M  V30 6512 H 628.884 4.91993 1.6175 0
M  V30 6513 H 625.561 2.8033 3.09389 0
M  V30 6514 H 626.951 6.53801 1.54901 0
M  V30 6515 N 629.671 -0.424282 1.51781 0
M  V30 6516 C 630.619 -1.53649 1.74628 0
M  V30 6517 C 631.613 -1.57923 0.612922 0
M  V30 6518 O 632.819 -1.61511 0.794618 0
M  V30 6519 H 629.194 -0.510706 0.551981 0
M  V30 6520 H 631.165 -1.31558 2.67834 0
M  V30 6521 C 629.914 -2.91177 1.9003 0
M  V30 6522 H 629.237 -2.88625 2.76651 0
M  V30 6523 H 630.677 -3.6833 2.10021 0
M  V30 6524 C 629.136 -3.30303 0.663435 0
M  V30 6525 O 629.666 -4.01315 -0.175812 0
M  V30 6526 N 627.872 -2.86201 0.503723 0
M  V30 6527 H 627.419 -2.28583 1.18776 0
M  V30 6528 H 627.377 -3.12741 -0.322575 0
M  V30 6529 N 631.149 -1.42148 -0.680565 0
M  V30 6530 C 632.097 -1.45401 -1.81552 0
M  V30 6531 C 633.091 -0.33036 -1.66147 0
M  V30 6532 O 634.297 -0.503103 -1.72826 0
M  V30 6533 H 630.672 -0.455265 -0.59853 0
M  V30 6534 H 632.643 -2.41024 -1.75926 0
M  V30 6535 C 631.392 -1.36769 -3.19671 0
M  V30 6536 H 630.715 -2.22525 -3.32149 0
M  V30 6537 H 632.155 -1.43106 -3.9912 0
M  V30 6538 C 630.614 -0.0817752 -3.36801 0
M  V30 6539 O 631.144 0.867707 -3.92216 0
M  V30 6540 N 629.35 -0.000799811 -2.906 0
M  V30 6541 H 628.897 -0.774231 -2.4569 0
M  V30 6542 H 628.855 0.858961 -3.02439 0
M  V30 6543 N 632.627 0.916307 -1.28225 0
M  V30 6544 C 633.873 1.66765 -1.154 0
M  V30 6545 C 634.206 1.91912 0.297251 0
M  V30 6546 O 633.481 1.51766 1.21644 0
M  V30 6547 C 633.764 3.02715 -1.95028 0
M  V30 6548 C 633.617 2.84738 -3.48201 0
M  V30 6549 C 634.936 4.03215 -1.76369 0
M  V30 6550 H 632.055 0.605205 -0.42059 0
M  V30 6551 H 634.697 1.06255 -1.57512 0
M  V30 6552 H 632.847 3.54365 -1.59242 0
M  V30 6553 H 634.519 2.40118 -3.9388 0
M  V30 6554 H 632.762 2.19848 -3.73964 0
M  V30 6555 H 633.433 3.8127 -3.99171 0
M  V30 6556 H 635.909 3.60617 -2.07593 0
M  V30 6557 H 634.785 4.96306 -2.34459 0
M  V30 6558 H 635.046 4.36288 -0.71452 0
M  V30 6559 N 634.105 1.10431 1.1244 0
M  V30 6560 C 635.333 0.868872 1.87772 0
M  V30 6561 C 635.748 -0.580645 1.7965 0
M  V30 6562 O 635.105 -1.40031 1.17036 0
M  V30 6563 C 635.156 1.30855 3.36986 0
M  V30 6564 O 634.877 2.70123 3.44914 0
M  V30 6565 C 636.378 1.107 4.29256 0
M  V30 6566 H 633.598 0.311868 0.59412 0
M  V30 6567 H 636.142 1.46897 1.42273 0
M  V30 6568 H 634.297 0.752126 3.80029 0
M  V30 6569 H 634.711 2.88923 4.37748 0
M  V30 6570 H 636.185 1.46378 5.32238 0
M  V30 6571 H 636.662 0.0456228 4.39176 0
M  V30 6572 H 637.268 1.64988 3.91994 0
M  V30 6573 N 635.583 -1.29855 0.893053 0
M  V30 6574 C 636.808 -2.00512 0.530066 0
M  V30 6575 C 637.233 -1.66446 -0.876199 0
M  V30 6576 O 636.591 -0.885446 -1.58207 0
M  V30 6577 C 636.639 -3.53308 0.721505 0
M  V30 6578 O 635.743 -4.11764 -0.228994 0
M  V30 6579 H 635.084 -0.630617 0.207891 0
M  V30 6580 H 637.614 -1.6551 1.20282 0
M  V30 6581 H 637.624 -4.03206 0.623599 0
M  V30 6582 H 636.299 -3.77439 1.74678 0
M  V30 6583 H 634.876 -3.72805 -0.0841034 0
M  V30 6584 N 637.061 -0.65484 -1.43351 0
M  V30 6585 C 638.31 -0.166215 -2.01014 0
M  V30 6586 C 638.623 1.22764 -1.52278 0
M  V30 6587 O 639.829 1.81156 -2.02224 0
M  V30 6588 C 638.285 -0.246341 -3.59056 0
M  V30 6589 C 637.893 -1.64299 -4.16785 0
M  V30 6590 C 639.637 0.184597 -4.24098 0
M  V30 6591 C 637.544 -1.67695 -5.67126 0
M  V30 6592 H 636.474 -0.0583769 -0.751737 0
M  V30 6593 H 639.125 -0.817111 -1.64303 0
M  V30 6594 H 637.507 0.472092 -3.93176 0
M  V30 6595 H 638.681 -2.3869 -3.94162 0
M  V30 6596 H 636.996 -2.02004 -3.6412 0
M  V30 6597 H 639.593 0.179088 -5.344 0
M  V30 6598 H 639.936 1.21632 -3.98135 0
M  V30 6599 H 640.469 -0.482141 -3.94867 0
M  V30 6600 H 637.208 -2.68783 -5.9786 0
M  V30 6601 H 636.728 -0.976313 -5.91801 0
M  V30 6602 H 638.407 -1.42142 -6.31193 0
M  V30 6603 N 638.539 1.52521 -0.396863 0
M  V30 6604 C 639.471 2.24333 0.469814 0
M  V30 6605 C 640.484 1.2685 1.02043 0
M  V30 6606 O 641.673 1.52876 0.92147 0
M  V30 6607 C 638.773 2.95202 1.66461 0
M  V30 6608 C 637.946 4.19454 1.24003 0
M  V30 6609 C 637.005 4.73255 2.30036 0
M  V30 6610 O 636.031 5.36151 1.91131 0
M  V30 6611 N 637.233 4.53765 3.62047 0
M  V30 6612 H 639.998 2.99347 -0.145468 0
M  V30 6613 H 637.559 1.60348 -0.223606 0
M  V30 6614 H 639.551 3.28092 2.36934 0
M  V30 6615 H 638.121 2.2345 2.18607 0
M  V30 6616 H 637.341 3.92517 0.363892 0
M  V30 6617 H 638.629 5.0017 0.933135 0
M  V30 6618 H 638.027 4.03576 3.96412 0
M  V30 6619 H 636.584 4.91124 4.28533 0
M  V30 6620 N 640.017 0.126909 1.57088 0
M  V30 6621 C 641.265 -0.528123 1.95078 0
M  V30 6622 C 641.586 -1.66708 1.0116 0
M  V30 6623 O 640.856 -1.95777 0.0693527 0
M  V30 6624 H 639.436 -0.198087 0.720257 0
M  V30 6625 H 642.098 0.197703 1.93895 0
M  V30 6626 H 641.194 -0.917507 2.98309 0
M  V30 6627 N 641.495 -1.56914 -0.146875 0
M  V30 6628 C 642.744 -1.82546 -0.857898 0
M  V30 6629 C 643.057 -0.708169 -1.8233 0
M  V30 6630 O 644.263 -0.850093 -2.57848 0
M  V30 6631 C 642.719 -3.23548 -1.57623 0
M  V30 6632 C 642.327 -4.43212 -0.653224 0
M  V30 6633 C 644.071 -3.58453 -2.27402 0
M  V30 6634 C 641.978 -5.75237 -1.37318 0
M  V30 6635 H 640.908 -0.680786 -0.32411 0
M  V30 6636 H 643.559 -1.83166 -0.110639 0
M  V30 6637 H 641.941 -3.17315 -2.36912 0
M  V30 6638 H 643.115 -4.60682 0.104452 0
M  V30 6639 H 641.43 -4.16351 -0.0638336 0
M  V30 6640 H 644.027 -4.54349 -2.81907 0
M  V30 6641 H 644.37 -2.84516 -3.03901 0
M  V30 6642 H 644.903 -3.66347 -1.55032 0
M  V30 6643 H 641.642 -6.52269 -0.650041 0
M  V30 6644 H 641.162 -5.61703 -2.10357 0
M  V30 6645 H 642.841 -6.18039 -1.91406 0
M  V30 6646 N 642.974 0.416227 -1.52004 0
M  V30 6647 C 644.385 0.995319 -1.57957 0
M  V30 6648 C 644.736 1.91744 -0.415754 0
M  V30 6649 O 643.861 2.11349 0.464808 0
M  V30 6650 C 644.456 1.81191 -2.86278 0
M  V30 6651 C 643.015 2.34115 -2.94732 0
M  V30 6652 C 642.162 1.139 -2.52828 0
M  V30 6653 H 645.113 0.196716 -1.57476 0
M  V30 6654 H 645.134 2.66859 -2.71231 0
M  V30 6655 H 644.646 1.14051 -3.70963 0
M  V30 6656 H 642.747 3.04647 -2.14525 0
M  V30 6657 H 642.86 2.65466 -3.98829 0
M  V30 6658 H 641.224 1.49081 -2.06511 0
M  V30 6659 H 642.007 0.483383 -3.3988 0
M  V30 6660 N 644.452 1.42507 0.673017 0
M  V30 6661 C 645.7 1.42789 1.43023 0
M  V30 6662 C 646.021 0.0459738 1.94946 0
M  V30 6663 O 645.291 -0.915765 1.73178 0
M  V30 6664 H 643.871 0.525657 0.530748 0
M  V30 6665 H 646.533 1.77944 0.795113 0
M  V30 6666 H 645.629 2.12872 2.28237 0
M  V30 6667 N 645.93 -0.909495 1.28709 0
M  V30 6668 C 646.86 -2.0291 1.15542 0
M  V30 6669 C 647.841 -1.7002 0.0521017 0
M  V30 6670 O 649.026 -1.92835 0.229849 0
M  V30 6671 C 646.156 -3.37458 0.820935 0
M  V30 6672 C 645.11 -3.84524 1.87949 0
M  V30 6673 C 644.436 -5.16086 1.39854 0
M  V30 6674 C 645.736 -4.05918 3.28676 0
M  V30 6675 H 647.43 -2.14183 2.09203 0
M  V30 6676 H 644.976 -1.02913 1.00722 0
M  V30 6677 H 646.929 -4.1528 0.715571 0
M  V30 6678 H 645.653 -3.26249 -0.151374 0
M  V30 6679 H 644.312 -3.08911 1.97408 0
M  V30 6680 H 643.96 -5.01284 0.41518 0
M  V30 6681 H 643.66 -5.48547 2.1064 0
M  V30 6682 H 645.184 -5.96459 1.30649 0
M  V30 6683 H 646.598 -4.74252 3.22115 0
M  V30 6684 H 644.995 -4.49717 3.97334 0
M  V30 6685 H 646.065 -3.10583 3.72379 0
M  V30 6686 N 647.408 -1.11026 -1.11852 0
M  V30 6687 C 648.371 -0.768006 -2.1595 0
M  V30 6688 C 649.371 0.210538 -1.59416 0
M  V30 6689 O 650.561 -0.0133978 -1.74195 0
M  V30 6690 C 647.693 -0.138678 -3.40618 0
M  V30 6691 H 648.886 -1.69012 -2.4774 0
M  V30 6692 H 646.439 -0.911578 -1.26964 0
M  V30 6693 H 647.174 0.793872 -3.14433 0
M  V30 6694 H 646.959 -0.843012 -3.8293 0
M  V30 6695 H 648.449 0.0848039 -4.17514 0
M  V30 6696 N 648.886 1.2938 -0.899927 0
M  V30 6697 C 650.111 2.00228 -0.540692 0
M  V30 6698 C 650.536 1.66909 0.867359 0
M  V30 6699 O 649.894 0.893824 1.57735 0
M  V30 6700 C 649.942 3.52921 -0.740232 0
M  V30 6701 O 649.046 4.11879 0.207154 0
M  V30 6702 H 648.387 0.629505 -0.211233 0
M  V30 6703 H 650.917 1.6487 -1.21158 0
M  V30 6704 H 650.927 4.0287 -0.644973 0
M  V30 6705 H 649.602 3.76508 -1.76677 0
M  V30 6706 H 648.179 3.72845 0.0643315 0
M  V30 6707 N 650.364 0.662433 1.43002 0
M  V30 6708 C 651.612 0.179237 2.01304 0
M  V30 6709 C 651.933 -1.21428 1.52579 0
M  V30 6710 O 651.203 -1.81294 0.742252 0
M  V30 6711 H 649.783 0.0632725 0.744316 0
M  V30 6712 H 652.445 0.856169 1.75088 0
M  V30 6713 H 651.541 0.170957 3.11631 0
M  V30 6714 N 651.842 -1.52309 0.404946 0
M  V30 6715 C 653.091 -2.00952 -0.173529 0
M  V30 6716 C 653.404 -1.29512 -1.46581 0
M  V30 6717 O 654.61 -1.6895 -2.12528 0
M  V30 6718 C 653.066 -3.58097 -0.359801 0
M  V30 6719 C 652.674 -4.38449 0.920138 0
M  V30 6720 C 654.418 -4.14984 -0.893794 0
M  V30 6721 C 652.325 -5.87227 0.701285 0
M  V30 6722 H 651.255 -0.750871 -0.0686244 0
M  V30 6723 H 653.906 -1.75687 0.529749 0
M  V30 6724 H 652.288 -3.79675 -1.12531 0
M  V30 6725 H 653.462 -4.28633 1.69147 0
M  V30 6726 H 651.777 -3.92859 1.38024 0
M  V30 6727 H 654.374 -5.23813 -1.0735 0
M  V30 6728 H 654.717 -3.72072 -1.8673 0
M  V30 6729 H 655.25 -3.97358 -0.187453 0
M  V30 6730 H 651.989 -6.34491 1.64624 0
M  V30 6731 H 651.509 -5.99792 -0.0308288 0
M  V30 6732 H 653.188 -6.46096 0.341846 0
M  V30 6733 N 653.32 -0.135238 -1.57019 0
M  V30 6734 C 654.569 0.518694 -1.94917 0
M  V30 6735 C 654.882 1.66783 -1.0219 0
M  V30 6736 O 656.088 2.38561 -1.29619 0
M  V30 6737 C 654.544 0.974123 -3.46466 0
M  V30 6738 C 654.152 -0.147439 -4.47757 0
M  V30 6739 C 655.896 1.59851 -3.93253 0
M  V30 6740 C 653.803 0.325599 -5.90503 0
M  V30 6741 H 652.733 0.19754 -0.727663 0
M  V30 6742 H 655.384 -0.217698 -1.82204 0
M  V30 6743 H 653.766 1.76542 -3.5447 0
M  V30 6744 H 654.94 -0.924122 -4.51438 0
M  V30 6745 H 653.255 -0.679496 -4.10818 0
M  V30 6746 H 655.852 1.96385 -4.9733 0
M  V30 6747 H 656.195 2.48306 -3.3414 0
M  V30 6748 H 656.728 0.872323 -3.88118 0
M  V30 6749 H 653.467 -0.523295 -6.53408 0
M  V30 6750 H 652.987 1.06841 -5.90208 0
M  V30 6751 H 654.666 0.781498 -6.42263 0
M  V30 6752 N 654.798 1.5699 0.138552 0
M  V30 6753 C 656.026 1.87976 0.864437 0
M  V30 6754 C 656.441 0.724372 1.74351 0
M  V30 6755 O 655.798 -0.305575 1.79924 0
M  V30 6756 C 655.849 3.18276 1.71414 0
M  V30 6757 O 655.57 4.29365 0.870487 0
M  V30 6758 C 657.071 3.62834 2.54688 0
M  V30 6759 H 654.291 0.622878 0.249528 0
M  V30 6760 H 656.835 2.04094 0.128805 0
M  V30 6761 H 654.99 3.03886 2.40274 0
M  V30 6762 H 655.404 5.03924 1.45466 0
M  V30 6763 H 656.878 4.5682 3.0987 0
M  V30 6764 H 657.355 2.88533 3.31127 0
M  V30 6765 H 657.961 3.79946 1.91105 0
M  V30 6766 N 656.276 -0.40816 1.52223 0
M  V30 6767 C 657.186 -1.52202 1.78526 0
M  V30 6768 C 658.202 -1.60546 0.670892 0
M  V30 6769 O 659.378 -1.77242 0.956404 0
M  V30 6770 C 656.443 -2.87928 1.93128 0
M  V30 6771 C 655.504 -2.89463 3.17033 0
M  V30 6772 C 654.737 -4.18715 3.30929 0
M  V30 6773 O 654.96 -5.12662 2.50067 0
M  V30 6774 O 653.894 -4.27125 4.24084 0
M  V30 6775 H 657.72 -1.32911 2.73072 0
M  V30 6776 H 655.305 -0.594112 1.37079 0
M  V30 6777 H 657.187 -3.68426 2.04549 0
M  V30 6778 H 655.862 -3.07285 1.01772 0
M  V30 6779 H 654.769 -2.07815 3.11069 0
M  V30 6780 H 656.102 -2.75055 4.08174 0
M  V30 6781 N 657.755 -1.42862 -0.66545 0
M  V30 6782 C 658.703 -1.47319 -1.8 0
M  V30 6783 C 659.697 -0.347963 -1.65788 0
M  V30 6784 O 660.903 -0.521406 -1.72283 0
M  V30 6785 H 657.278 -0.461588 -0.593667 0
M  V30 6786 H 659.249 -2.42876 -1.7336 0
M  V30 6787 C 657.998 -1.40152 -3.18203 0
M  V30 6788 H 657.321 -2.26035 -3.2977 0
M  V30 6789 H 658.761 -1.47331 -3.9758 0
M  V30 6790 C 657.22 -0.117493 -3.36695 0
M  V30 6791 O 657.75 0.826058 -3.93115 0
M  V30 6792 N 655.956 -0.0316218 -2.90583 0
M  V30 6793 H 655.503 -0.800247 -2.44855 0
M  V30 6794 H 655.461 0.826835 -3.03333 0
M  V30 6795 N 659.233 0.902656 -1.29189 0
M  V30 6796 C 660.163 2.02294 -1.16616 0
M  V30 6797 C 661.144 1.6999 -0.0611175 0
M  V30 6798 O 662.329 1.9271 -0.240072 0
M  V30 6799 C 659.459 3.37018 -0.83882 0
M  V30 6800 C 658.413 3.83522 -1.89986 0
M  V30 6801 C 657.739 5.15337 -1.42589 0
M  V30 6802 C 659.039 4.04169 -3.30824 0
M  V30 6803 H 660.733 2.13071 -2.10336 0
M  V30 6804 H 658.279 1.02378 -1.01266 0
M  V30 6805 H 660.232 4.14895 -0.737584 0
M  V30 6806 H 658.956 3.26325 0.134071 0
M  V30 6807 H 657.615 3.07859 -1.99043 0
M  V30 6808 H 657.263 5.01056 -0.441759 0
M  V30 6809 H 656.963 5.47423 -2.13547 0
M  V30 6810 H 658.487 5.95758 -1.3381 0
M  V30 6811 H 659.901 4.72537 -3.24626 0
M  V30 6812 H 658.298 4.47604 -3.99713 0
M  V30 6813 H 659.368 3.08604 -3.74021 0
M  V30 6814 N 660.711 1.11618 1.11262 0
M  V30 6815 C 661.957 0.877377 1.83504 0
M  V30 6816 C 662.312 -0.590606 1.83111 0
M  V30 6817 O 661.605 -1.43057 1.27456 0
M  V30 6818 C 661.799 1.37529 3.2988 0
M  V30 6819 C 661.628 2.89014 3.4453 0
M  V30 6820 C 660.398 3.57157 3.57445 0
M  V30 6821 C 662.596 3.8706 3.38658 0
M  V30 6822 N 660.578 4.96842 3.60585 0
M  V30 6823 C 661.949 5.12825 3.4844 0
M  V30 6824 C 664.004 3.79593 3.22201 0
M  V30 6825 C 662.707 6.32002 3.43462 0
M  V30 6826 C 664.733 4.98282 3.18542 0
M  V30 6827 C 664.095 6.22901 3.28897 0
M  V30 6828 H 660.194 0.37422 0.686646 0
M  V30 6829 H 662.778 1.42087 1.33114 0
M  V30 6830 H 660.949 0.85895 3.78783 0
M  V30 6831 H 662.681 1.07944 3.90039 0
M  V30 6832 H 659.436 3.07628 3.60086 0
M  V30 6833 H 659.86 5.69674 3.65788 0
M  V30 6834 H 664.502 2.84149 3.1308 0
M  V30 6835 H 662.22 7.27721 3.51352 0
M  V30 6836 H 665.806 4.94226 3.06972 0
M  V30 6837 H 664.686 7.13202 3.26056 0
M  V30 6838 N 662.189 -1.289 0.906776 0
M  V30 6839 C 663.414 -1.99939 0.551303 0
M  V30 6840 C 663.839 -1.67366 -0.858496 0
M  V30 6841 O 663.197 -0.902176 -1.57259 0
M  V30 6842 C 663.245 -3.52523 0.758937 0
M  V30 6843 O 662.349 -4.11983 -0.185308 0
M  V30 6844 H 661.69 -0.628376 0.214568 0
M  V30 6845 H 664.22 -1.64225 1.2203 0
M  V30 6846 H 664.23 -4.02522 0.666329 0
M  V30 6847 H 662.905 -3.75566 1.78671 0
M  V30 6848 H 661.482 -3.72873 -0.0445577 0
M  V30 6849 N 663.667 -0.670007 -1.42649 0
M  V30 6850 C 664.615 0.0230106 -2.32589 0
M  V30 6851 C 665.609 0.795585 -1.49555 0
M  V30 6852 O 666.815 0.70409 -1.65658 0
M  V30 6853 H 663.19 0.0262342 -0.751542 0
M  V30 6854 H 665.161 -0.753009 -2.88743 0
M  V30 6855 C 663.91 0.963872 -3.34073 0
M  V30 6856 H 663.233 0.378813 -3.98001 0
M  V30 6857 H 664.673 1.41755 -3.99602 0
M  V30 6858 C 663.132 2.06797 -2.65964 0
M  V30 6859 O 663.662 3.15383 -2.48789 0
M  V30 6860 N 661.868 1.83831 -2.25066 0
M  V30 6861 H 661.415 0.955235 -2.39234 0
M  V30 6862 H 661.373 2.57895 -1.79827 0
M  V30 6863 N 665.145 1.52092 -0.413018 0
M  V30 6864 C 666.375 2.05974 0.160648 0
M  V30 6865 C 666.783 1.28267 1.39084 0
M  V30 6866 O 666.126 0.328805 1.80733 0
M  V30 6867 C 666.188 3.54918 0.572169 0
M  V30 6868 C 665.852 4.53705 -0.547826 0
M  V30 6869 C 666.849 5.00342 -1.41259 0
M  V30 6870 C 664.534 4.97089 -0.721627 0
M  V30 6871 C 666.528 5.89011 -2.43607 0
M  V30 6872 C 664.215 5.85554 -1.74841 0
M  V30 6873 C 665.213 6.3141 -2.60403 0
M  V30 6874 O 664.901 7.18123 -3.61323 0
M  V30 6875 H 664.633 0.675636 0.0221936 0
M  V30 6876 H 667.187 1.96931 -0.58373 0
M  V30 6877 H 665.417 3.61661 1.36889 0
M  V30 6878 H 667.106 3.91428 1.0742 0
M  V30 6879 H 667.872 4.67537 -1.28974 0
M  V30 6880 H 663.751 4.60954 -0.0652911 0
M  V30 6881 H 667.295 6.24725 -3.10425 0
M  V30 6882 H 663.192 6.17773 -1.87156 0
M  V30 6883 H 663.96 7.36244 -3.57613 0
M  V30 6884 N 666.623 0.143563 1.56945 0
M  V30 6885 C 667.553 -0.7936 2.196 0
M  V30 6886 C 668.534 -1.25955 1.14321 0
M  V30 6887 O 669.719 -1.31773 1.42651 0
M  V30 6888 C 666.849 -2.03424 2.81489 0
M  V30 6889 C 665.803 -1.70519 3.92565 0
M  V30 6890 C 665.129 -3.01817 4.41373 0
M  V30 6891 C 666.429 -0.95449 5.13504 0
M  V30 6892 H 668.123 -0.271423 2.98167 0
M  V30 6893 H 665.669 -0.12911 1.4342 0
M  V30 6894 H 667.622 -2.69463 3.23987 0
M  V30 6895 H 666.346 -2.58008 2.00248 0
M  V30 6896 H 665.005 -1.06859 3.5068 0
M  V30 6897 H 664.653 -3.54386 3.56959 0
M  V30 6898 H 664.353 -2.80565 5.16292 0
M  V30 6899 H 665.877 -3.68934 4.86539 0
M  V30 6900 H 667.291 -1.5169 5.52868 0
M  V30 6901 H 665.688 -0.842035 5.94163 0
M  V30 6902 H 666.758 0.0544033 4.84869 0
M  V30 6903 N 668.101 -1.57061 -0.130224 0
M  V30 6904 C 669.512 -1.73539 -0.68856 0
M  V30 6905 C 669.863 -0.760554 -1.80859 0
M  V30 6906 O 668.988 0.0690796 -2.1629 0
M  V30 6907 C 669.583 -3.14666 -1.25581 0
M  V30 6908 C 668.142 -3.32689 -1.76055 0
M  V30 6909 C 667.289 -2.69436 -0.655712 0
M  V30 6910 H 670.24 -1.58412 0.0956002 0
M  V30 6911 H 670.261 -3.15595 -2.12556 0
M  V30 6912 H 669.773 -3.85593 -0.440412 0
M  V30 6913 H 667.874 -2.66786 -2.60108 0
M  V30 6914 H 667.987 -4.4077 -1.87772 0
M  V30 6915 H 666.351 -2.30362 -1.08654 0
M  V30 6916 H 667.134 -3.42979 0.14852 0
M  V30 6917 N 669.579 0.400081 -1.52437 0
M  V30 6918 C 670.526 1.48803 -1.76426 0
M  V30 6919 C 671.496 1.5461 -0.607032 0
M  V30 6920 O 672.681 1.71041 -0.845563 0
M  V30 6921 C 669.821 2.86156 -1.92896 0
M  V30 6922 C 668.934 2.89587 -3.20567 0
M  V30 6923 C 668.069 4.18296 -3.27417 0
M  V30 6924 C 667.108 4.15736 -4.49255 0
M  V30 6925 N 666.245 5.36032 -4.53447 0
M  V30 6926 H 671.085 1.27649 -2.69276 0
M  V30 6927 H 668.622 0.619451 -1.33421 0
M  V30 6928 H 670.58 3.65901 -2.00429 0
M  V30 6929 H 669.21 3.05785 -1.03418 0
M  V30 6930 H 668.262 2.02278 -3.22161 0
M  V30 6931 H 669.574 2.83562 -4.10358 0
M  V30 6932 H 668.728 5.06439 -3.34072 0
M  V30 6933 H 667.467 4.27028 -2.35581 0
M  V30 6934 H 666.472 3.25982 -4.42737 0
M  V30 6935 H 667.697 4.08636 -5.42396 0
M  V30 6936 H 665.643 5.45415 -3.64498 0
M  V30 6937 H 665.56 5.32038 -5.37096 0
M  V30 6938 H 666.828 6.26104 -4.64343 0
M  V30 6939 N 671.057 1.43213 0.657864 0
M  V30 6940 C 672.305 1.44298 1.41501 0
M  V30 6941 C 672.626 0.0666478 1.94886 0
M  V30 6942 O 671.896 -0.897345 1.74139 0
M  V30 6943 H 670.476 0.531257 0.525143 0
M  V30 6944 H 673.138 1.78777 0.776195 0
M  V30 6945 H 672.234 2.1528 2.25966 0
M  V30 6946 N 672.536 -0.895792 1.29666 0
M  V30 6947 C 673.446 -2.03329 1.17024 0
M  V30 6948 C 674.462 -1.73753 0.0925962 0
M  V30 6949 O 675.638 -1.99071 0.305431 0
M  V30 6950 C 672.703 -3.36072 0.851841 0
M  V30 6951 C 671.764 -3.7914 2.01373 0
M  V30 6952 C 670.997 -5.05549 1.71043 0
M  V30 6953 O 671.22 -5.66874 0.633213 0
M  V30 6954 O 670.154 -5.44764 2.5596 0
M  V30 6955 H 673.98 -2.16918 2.12556 0
M  V30 6956 H 671.565 -1.02007 1.09156 0
M  V30 6957 H 673.447 -4.15729 0.689006 0
M  V30 6958 H 672.122 -3.23616 -0.0736634 0
M  V30 6959 H 671.029 -3.00233 2.23183 0
M  V30 6960 H 672.362 -3.96186 2.92058 0
M  V30 6961 N 674.014 -1.12206 -1.10668 0
M  V30 6962 C 675.263 -0.870595 -1.81944 0
M  V30 6963 C 675.576 0.605447 -1.85994 0
M  V30 6964 O 676.782 0.973433 -2.53449 0
M  V30 6965 C 675.238 -1.50783 -3.26791 0
M  V30 6966 C 674.846 -3.01849 -3.31046 0
M  V30 6967 C 676.59 -1.33653 -4.02911 0
M  V30 6968 C 674.497 -3.58518 -4.70339 0
M  V30 6969 H 673.427 -0.322043 -0.681765 0
M  V30 6970 H 676.078 -1.34827 -1.24475 0
M  V30 6971 H 674.46 -0.957825 -3.84242 0
M  V30 6972 H 675.634 -3.63321 -2.83433 0
M  V30 6973 H 673.949 -3.18346 -2.68411 0
M  V30 6974 H 676.546 -1.73416 -5.05797 0
M  V30 6975 H 676.889 -0.279949 -4.15358 0
M  V30 6976 H 677.422 -1.85562 -3.51868 0
M  V30 6977 H 674.161 -4.63925 -4.63091 0
M  V30 6978 H 673.681 -3.01819 -5.18329 0
M  V30 6979 H 675.36 -3.57434 -5.39305 0
M  V30 6980 N 675.492 1.28418 -0.913599 0
M  V30 6981 C 676.741 1.94265 -0.542572 0
M  V30 6982 C 677.054 1.72709 0.918207 0
M  V30 6983 O 678.26 2.32778 1.39738 0
M  V30 6984 C 676.716 3.47956 -0.919507 0
M  V30 6985 C 676.324 3.78291 -2.4 0
M  V30 6986 C 678.068 4.19962 -0.619057 0
M  V30 6987 C 675.975 5.2529 -2.71707 0
M  V30 6988 H 674.905 0.727213 -0.199192 0
M  V30 6989 H 677.556 1.45931 -1.11249 0
M  V30 6990 H 675.938 3.9502 -0.278372 0
M  V30 6991 H 677.112 3.42035 -3.08786 0
M  V30 6992 H 675.427 3.19456 -2.67089 0
M  V30 6993 H 678.024 5.28178 -0.832623 0
M  V30 6994 H 678.367 4.13935 0.443126 0
M  V30 6995 H 678.9 3.78674 -1.21865 0
M  V30 6996 H 675.639 5.36394 -3.76778 0
M  V30 6997 H 675.159 5.62743 -2.07559 0
M  V30 6998 H 676.838 5.93027 -2.58703 0
M  V30 6999 N 676.97 0.677563 1.42291 0
M  V30 7000 C 677.88 0.000962654 2.346 0
M  V30 7001 C 678.896 -0.785833 1.55244 0
M  V30 7002 O 680.072 -0.727523 1.87801 0
M  V30 7003 C 677.137 -0.936746 3.33805 0
M  V30 7004 C 676.198 -0.144173 4.29058 0
M  V30 7005 C 675.431 -1.03722 5.23524 0
M  V30 7006 O 675.654 -2.27675 5.22992 0
M  V30 7007 O 674.588 -0.496542 5.99848 0
M  V30 7008 H 678.414 0.761397 2.94001 0
M  V30 7009 H 675.999 0.43781 1.42841 0
M  V30 7010 H 677.881 -1.47497 3.94744 0
M  V30 7011 H 676.556 -1.67698 2.76874 0
M  V30 7012 H 675.463 0.438224 3.71524 0
M  V30 7013 H 676.796 0.55701 4.89038 0
M  V30 7014 N 678.448 -1.51871 0.421078 0
M  V30 7015 C 679.395 -2.27334 -0.398508 0
M  V30 7016 C 680.365 -1.30241 -1.03085 0
M  V30 7017 O 681.55 -1.59121 -1.05285 0
M  V30 7018 C 678.69 -3.10664 -1.50272 0
M  V30 7019 C 677.803 -4.2273 -0.890122 0
M  V30 7020 C 676.938 -4.93399 -1.96803 0
M  V30 7021 C 675.977 -5.97409 -1.333 0
M  V30 7022 N 675.114 -6.61548 -2.35156 0
M  V30 7023 H 679.954 -2.96938 0.251411 0
M  V30 7024 H 677.491 -1.46472 0.135825 0
M  V30 7025 H 679.449 -3.57292 -2.15403 0
M  V30 7026 H 678.079 -2.43207 -2.1225 0
M  V30 7027 H 677.131 -3.80186 -0.127537 0
M  V30 7028 H 678.443 -4.97302 -0.386349 0
M  V30 7029 H 677.597 -5.43491 -2.69633 0
M  V30 7030 H 676.336 -4.18421 -2.50549 0
M  V30 7031 H 675.341 -5.46624 -0.59008 0
M  V30 7032 H 676.566 -6.74335 -0.803076 0
M  V30 7033 H 674.512 -5.89394 -2.88012 0
M  V30 7034 H 674.429 -7.31832 -1.89624 0
M  V30 7035 H 675.697 -7.16276 -3.0752 0
M  V30 7036 N 679.926 -0.151884 -1.56866 0
M  V30 7037 C 681.337 0.368128 -1.83035 0
M  V30 7038 C 681.688 1.64402 -1.07082 0
M  V30 7039 O 680.813 2.14056 -0.317647 0
M  V30 7040 C 681.408 0.674676 -3.32014 0
M  V30 7041 C 679.967 1.13919 -3.58747 0
M  V30 7042 C 679.114 0.164833 -2.7681 0
M  V30 7043 H 682.065 -0.376499 -1.54169 0
M  V30 7044 H 682.086 1.52883 -3.48435 0
M  V30 7045 H 681.598 -0.254113 -3.87267 0
M  V30 7046 H 679.699 2.08375 -3.08886 0
M  V30 7047 H 679.812 1.06179 -4.67186 0
M  V30 7048 H 678.176 0.658419 -2.46043 0
M  V30 7049 H 678.959 -0.757633 -3.34836 0
M  V30 7050 N 681.404 1.57128 0.121893 0
M  V30 7051 C 682.629 1.89254 0.848385 0
M  V30 7052 C 683.054 0.743527 1.72781 0
M  V30 7053 O 682.412 -0.306056 1.78698 0
M  V30 7054 C 682.46 3.20113 1.66012 0
M  V30 7055 O 681.564 3.05815 2.76679 0
M  V30 7056 H 680.905 0.621103 0.234793 0
M  V30 7057 H 683.435 2.0433 0.10516 0
M  V30 7058 H 683.445 3.52761 2.04996 0
M  V30 7059 H 682.12 4.03336 1.01452 0
M  V30 7060 H 680.697 2.84627 2.40918 0
M  V30 7061 N 682.882 -0.391992 1.52647 0
M  V30 7062 C 683.845 -1.46135 1.7657 0
M  V30 7063 C 684.845 -1.47701 0.635698 0
M  V30 7064 O 686.035 -1.48924 0.903728 0
M  V30 7065 C 683.167 -2.85443 1.86374 0
M  V30 7066 H 684.36 -1.26208 2.72051 0
M  V30 7067 H 681.913 -0.623549 1.43323 0
M  V30 7068 H 682.648 -3.10718 0.928685 0
M  V30 7069 H 682.433 -2.85708 2.68539 0
M  V30 7070 H 683.923 -3.62933 2.06566 0
M  V30 7071 N 684.36 -1.4356 -0.65026 0
M  V30 7072 C 685.307 -1.48948 -1.76304 0
M  V30 7073 C 686.277 -0.338919 -1.62605 0
M  V30 7074 O 687.462 -0.54649 -1.82806 0
M  V30 7075 C 684.602 -1.42131 -3.14472 0
M  V30 7076 C 683.715 -2.67415 -3.39284 0
M  V30 7077 C 682.85 -2.52565 -4.67316 0
M  V30 7078 C 681.889 -3.73103 -4.85243 0
M  V30 7079 N 681.026 -3.57046 -6.04535 0
M  V30 7080 H 685.866 -2.44032 -1.71034 0
M  V30 7081 H 683.403 -1.21131 -0.834601 0
M  V30 7082 H 685.361 -1.36172 -3.94351 0
M  V30 7083 H 683.991 -0.506273 -3.18805 0
M  V30 7084 H 683.043 -2.8364 -2.53481 0
M  V30 7085 H 684.355 -3.56943 -3.48415 0
M  V30 7086 H 683.509 -2.44331 -5.55326 0
M  V30 7087 H 682.248 -1.60566 -4.60511 0
M  V30 7088 H 681.253 -3.81743 -3.95667 0
M  V30 7089 H 682.478 -4.66115 -4.93876 0
M  V30 7090 H 680.424 -2.67783 -5.98856 0
M  V30 7091 H 680.341 -4.40178 -6.14638 0
M  V30 7092 H 681.609 -3.52669 -6.95158 0
M  V30 7093 N 685.838 0.888903 -1.30139 0
M  V30 7094 C 687.063 1.67884 -1.21777 0
M  V30 7095 C 687.488 1.86848 0.216689 0
M  V30 7096 O 686.846 1.39659 1.15608 0
M  V30 7097 C 686.894 3.03483 -1.94757 0
M  V30 7098 O 685.998 3.92294 -1.27198 0
M  V30 7099 H 685.339 0.513144 -0.421402 0
M  V30 7100 H 687.869 1.10968 -1.71893 0
M  V30 7101 H 687.879 3.53553 -2.03627 0
M  V30 7102 H 686.554 2.89 -2.99085 0
M  V30 7103 H 685.131 3.50732 -1.26655 0
M  V30 7104 N 687.317 1.12792 1.10072 0
M  V30 7105 C 688.542 0.908838 1.86427 0
M  V30 7106 C 688.967 -0.536793 1.80278 0
M  V30 7107 O 688.325 -1.38033 1.17543 0
M  V30 7108 C 688.373 1.39295 3.3261 0
M  V30 7109 O 687.477 0.573846 4.08388 0
M  V30 7110 H 686.818 0.326234 0.578331 0
M  V30 7111 H 689.348 1.50094 1.39043 0
M  V30 7112 H 689.358 1.39366 3.83459 0
M  V30 7113 H 688.033 2.44555 3.36401 0
M  V30 7114 H 686.61 0.640438 3.67359 0
M  V30 7115 N 688.795 -1.27931 0.920396 0
M  V30 7116 C 690.072 -1.89728 0.475687 0
M  V30 7117 C 690.452 -1.8337 -1.04588 0
M  V30 7118 O 689.8 -1.27404 -1.89685 0
M  V30 7119 C 690.01 -3.33959 1.01354 0
M  V30 7120 C 691.358 -4.10907 1.06963 0
M  V30 7121 O 692.382 -3.42945 0.962646 0
M  V30 7122 O 691.241 -5.32399 1.23343 0
M  V30 7123 H 688.335 -0.81294 0.151845 0
M  V30 7124 H 690.881 -1.36252 1.01161 0
M  V30 7125 H 689.653 -3.32843 2.05746 0
M  V30 7126 H 689.276 -3.94944 0.458829 0
M  V30 7127 N 690.273 -0.685099 -1.4193 0
M  V30 7128 C 691.519 -0.211971 -2.01689 0
M  V30 7129 C 691.852 1.18189 -1.54094 0
M  V30 7130 O 691.127 1.79559 -0.747572 0
M  V30 7131 C 691.41 -0.258019 -3.59174 0
M  V30 7132 C 691.263 -1.68807 -4.16922 0
M  V30 7133 C 692.582 0.388044 -4.38386 0
M  V30 7134 H 689.701 -0.0784987 -0.732808 0
M  V30 7135 H 692.343 -0.871837 -1.68816 0
M  V30 7136 H 690.493 0.303832 -3.8731 0
M  V30 7137 H 692.165 -2.30296 -3.99702 0
M  V30 7138 H 690.408 -2.22553 -3.72361 0
M  V30 7139 H 691.079 -1.6719 -5.26072 0
M  V30 7140 H 693.555 -0.0903432 -4.16002 0
M  V30 7141 H 692.431 0.325232 -5.47936 0
M  V30 7142 H 692.692 1.4672 -4.17044 0
M  V30 7143 N 691.751 1.51645 -0.429126 0
M  V30 7144 C 692.681 2.30434 0.377148 0
M  V30 7145 C 693.662 1.35493 1.02838 0
M  V30 7146 O 694.847 1.6441 1.03359 0
M  V30 7147 C 691.977 3.14038 1.48315 0
M  V30 7148 C 690.931 4.1719 0.955855 0
M  V30 7149 C 690.257 4.89263 2.15698 0
M  V30 7150 C 691.557 5.223 -0.00402136 0
M  V30 7151 H 693.251 2.98085 -0.280336 0
M  V30 7152 H 690.797 1.43354 -0.136265 0
M  V30 7153 H 692.75 3.67933 2.05435 0
M  V30 7154 H 691.474 2.44193 2.16881 0
M  V30 7155 H 690.133 3.64335 0.406929 0
M  V30 7156 H 689.781 4.15929 2.82864 0
M  V30 7157 H 689.481 5.59009 1.81059 0
M  V30 7158 H 691.005 5.45978 2.73387 0
M  V30 7159 H 692.419 5.71315 0.476607 0
M  V30 7160 H 690.816 5.99525 -0.26258 0
M  V30 7161 H 691.886 4.75638 -0.943236 0
M  V30 7162 N 693.229 0.160201 1.56784 0
M  V30 7163 C 694.477 -0.486625 1.96154 0
M  V30 7164 C 694.798 -1.64525 1.04673 0
M  V30 7165 O 694.068 -1.95586 0.110864 0
M  V30 7166 H 692.648 -0.182764 0.724297 0
M  V30 7167 H 695.31 0.238787 1.93432 0
M  V30 7168 H 694.406 -0.854025 3.00188 0
M  V30 7169 N 694.707 -1.5719 -0.113559 0
M  V30 7170 C 695.932 -1.89702 -0.838336 0
M  V30 7171 C 696.357 -0.752679 -1.72384 0
M  V30 7172 O 695.715 0.296575 -1.78858 0
M  V30 7173 C 695.763 -3.20989 -1.64312 0
M  V30 7174 O 694.867 -3.07278 -2.75053 0
M  V30 7175 H 694.208 -0.622339 -0.231496 0
M  V30 7176 H 696.738 -2.04382 -0.0943228 0
M  V30 7177 H 696.748 -3.53843 -2.03123 0
M  V30 7178 H 695.423 -4.03869 -0.993119 0
M  V30 7179 H 694 -2.85901 -2.39406 0
M  V30 7180 N 696.185 0.383891 -1.52853 0
M  V30 7181 C 697.115 1.47559 -1.80965 0
M  V30 7182 C 698.096 1.5669 -0.661986 0
M  V30 7183 O 699.281 1.71556 -0.910072 0
M  V30 7184 C 696.411 2.85114 -1.98312 0
M  V30 7185 C 695.365 2.9082 -3.14019 0
M  V30 7186 C 694.691 4.30873 -3.16627 0
M  V30 7187 C 695.991 2.60001 -4.52986 0
M  V30 7188 H 697.685 1.24283 -2.72386 0
M  V30 7189 H 695.231 0.596445 -1.31067 0
M  V30 7190 H 697.184 3.61496 -2.16561 0
M  V30 7191 H 695.908 3.09738 -1.03585 0
M  V30 7192 H 694.567 2.16886 -2.9556 0
M  V30 7193 H 694.215 4.52545 -2.19573 0
M  V30 7194 H 693.915 4.3561 -3.94357 0
M  V30 7195 H 695.439 5.09154 -3.37038 0
M  V30 7196 H 696.853 3.261 -4.71521 0
M  V30 7197 H 695.25 2.76081 -5.32822 0
M  V30 7198 H 696.32 1.5532 -4.59351 0
M  V30 7199 N 697.663 1.43903 0.642637 0
M  V30 7200 C 698.611 1.50164 1.77634 0
M  V30 7201 C 699.605 0.374294 1.65213 0
M  V30 7202 O 700.811 0.548748 1.71431 0
M  V30 7203 H 697.186 0.470974 0.586249 0
M  V30 7204 H 699.157 2.45603 1.69474 0
M  V30 7205 C 697.906 1.45196 3.15933 0
M  V30 7206 H 697.229 2.31253 3.26132 0
M  V30 7207 H 698.669 1.53638 3.95185 0
M  V30 7208 C 697.128 0.171043 3.36466 0
M  V30 7209 O 697.658 -0.763413 3.94379 0
M  V30 7210 N 695.864 0.077847 2.90496 0
M  V30 7211 H 695.411 0.8391 2.43551 0
M  V30 7212 H 695.369 -0.778473 3.0461 0
M  V30 7213 N 699.141 -0.881989 1.30609 0
M  V30 7214 C 700.091 -1.97539 1.13852 0
M  V30 7215 C 701.075 -1.60813 0.0528428 0
M  V30 7216 O 702.267 -1.74827 0.276484 0
M  V30 7217 C 699.396 -3.32977 0.835519 0
M  V30 7218 C 698.482 -3.76008 1.96159 0
M  V30 7219 N 698.873 -3.91109 3.20729 0
M  V30 7220 C 697.171 -4.05427 1.85863 0
M  V30 7221 C 697.872 -4.27661 3.94311 0
M  V30 7222 N 696.848 -4.37686 3.22385 0
M  V30 7223 H 700.65 -2.07309 2.08327 0
M  V30 7224 H 698.164 -1.072 1.21992 0
M  V30 7225 H 700.161 -4.11041 0.696477 0
M  V30 7226 H 698.821 -3.24542 -0.101135 0
M  V30 7227 H 699.832 -3.7616 3.55984 0
M  V30 7228 H 696.509 -4.05449 0.995847 0
M  V30 7229 H 697.899 -4.47042 5.01601 0
M  V30 7230 N 700.619 -1.13374 -1.09472 0
M  V30 7231 C 701.529 -0.824029 -2.19652 0
M  V30 7232 C 702.545 0.19118 -1.72947 0
M  V30 7233 O 703.721 0.0223464 -2.01388 0
M  V30 7234 C 700.786 -0.294009 -3.45451 0
M  V30 7235 C 699.847 -1.3704 -4.0684 0
M  V30 7236 C 699.08 -0.86558 -5.26634 0
M  V30 7237 O 699.303 0.29702 -5.69626 0
M  V30 7238 O 698.237 -1.63968 -5.79136 0
M  V30 7239 H 702.063 -1.74454 -2.48595 0
M  V30 7240 H 699.648 -0.911155 -1.18399 0
M  V30 7241 H 701.53 -0.00381039 -4.214 0
M  V30 7242 H 700.205 0.598921 -3.18111 0
M  V30 7243 H 699.112 -1.71391 -3.3253 0
M  V30 7244 H 700.445 -2.23746 -4.38405 0
M  V30 7245 N 702.098 1.27442 -0.927168 0
M  V30 7246 C 703.328 1.9821 -0.582775 0
M  V30 7247 C 703.736 1.69361 0.843406 0
M  V30 7248 O 703.079 0.950381 1.57205 0
M  V30 7249 C 703.141 3.52048 -0.728165 0
M  V30 7250 C 702.805 4.04518 -2.12637 0
M  V30 7251 C 703.802 4.17332 -3.10048 0
M  V30 7252 C 701.487 4.38879 -2.44317 0
M  V30 7253 C 703.481 4.6378 -4.37249 0
M  V30 7254 C 701.168 4.85018 -3.71753 0
M  V30 7255 C 702.166 4.97428 -4.68033 0
M  V30 7256 O 701.854 5.42556 -5.93202 0
M  V30 7257 H 701.586 0.639314 -0.219667 0
M  V30 7258 H 704.14 1.63272 -1.24626 0
M  V30 7259 H 702.37 3.86699 -0.00758143 0
M  V30 7260 H 704.059 4.04033 -0.388906 0
M  V30 7261 H 704.825 3.91046 -2.86894 0
M  V30 7262 H 700.704 4.28462 -1.70121 0
M  V30 7263 H 704.248 4.73382 -5.12402 0
M  V30 7264 H 700.145 5.10746 -3.94726 0
M  V30 7265 H 700.913 5.60811 -5.96182 0
M  V30 7266 N 703.576 0.692616 1.41565 0
M  V30 7267 C 704.822 0.222664 2.01574 0
M  V30 7268 C 705.155 -1.1737 1.54719 0
M  V30 7269 O 704.43 -1.79161 0.757084 0
M  V30 7270 C 704.713 0.277064 3.59033 0
M  V30 7271 C 704.566 1.71016 4.16021 0
M  V30 7272 C 705.885 -0.36479 4.38586 0
M  V30 7273 H 703.004 0.0823839 0.732381 0
M  V30 7274 H 705.646 0.880778 1.68352 0
M  V30 7275 H 703.796 -0.283288 3.87466 0
M  V30 7276 H 705.468 2.32413 3.98475 0
M  V30 7277 H 703.711 2.24525 3.71175 0
M  V30 7278 H 704.382 1.69978 5.25178 0
M  V30 7279 H 706.858 0.112404 4.15948 0
M  V30 7280 H 705.734 -0.296169 5.481 0
M  V30 7281 H 705.995 -1.44506 4.17816 0
M  V30 7282 N 705.054 -1.51416 0.437162 0
M  V30 7283 C 705.984 -2.30631 -0.364922 0
M  V30 7284 C 706.965 -1.36037 -1.02118 0
M  V30 7285 O 708.15 -1.64956 -1.02485 0
M  V30 7286 C 705.28 -3.1482 -1.46648 0
M  V30 7287 C 704.234 -4.17691 -0.933717 0
M  V30 7288 C 703.56 -4.904 -2.13101 0
M  V30 7289 C 704.86 -5.2229 0.0317201 0
M  V30 7290 H 706.554 -2.97932 0.29614 0
M  V30 7291 H 704.1 -1.4328 0.143865 0
M  V30 7292 H 706.053 -3.69017 -2.03481 0
M  V30 7293 H 704.777 -2.4534 -2.15583 0
M  V30 7294 H 703.436 -3.64545 -0.387602 0
M  V30 7295 H 703.084 -4.17423 -2.80654 0
M  V30 7296 H 702.784 -5.59962 -1.78092 0
M  V30 7297 H 704.308 -5.4742 -2.70487 0
M  V30 7298 H 705.722 -5.7156 -0.446302 0
M  V30 7299 H 704.119 -5.99378 0.29437 0
M  V30 7300 H 705.189 -4.75131 0.968447 0
M  V30 7301 N 706.532 -0.168513 -1.56696 0
M  V30 7302 C 707.778 0.477865 -1.9709 0
M  V30 7303 C 708.111 1.63084 -1.05438 0
M  V30 7304 O 707.386 1.94238 -0.10095 0
M  V30 7305 C 707.669 0.963521 -3.4697 0
M  V30 7306 C 707.522 -0.189443 -4.49401 0
M  V30 7307 C 708.841 1.83813 -3.99876 0
M  V30 7308 H 705.96 0.172229 -0.716593 0
M  V30 7309 H 708.602 -0.254083 -1.88293 0
M  V30 7310 H 706.752 1.58724 -3.54597 0
M  V30 7311 H 708.424 -0.826451 -4.53836 0
M  V30 7312 H 706.667 -0.845366 -4.25483 0
M  V30 7313 H 707.338 0.192446 -5.51664 0
M  V30 7314 H 709.814 1.31235 -3.94863 0
M  V30 7315 H 708.69 2.14697 -5.0517 0
M  V30 7316 H 708.951 2.78289 -3.43523 0
M  V30 7317 N 708.01 1.57248 0.105221 0
M  V30 7318 C 709.287 1.76566 0.841647 0
M  V30 7319 C 709.667 0.747566 1.9742 0
M  V30 7320 O 709.015 -0.225886 2.27381 0
M  V30 7321 C 709.225 3.22016 1.3456 0
M  V30 7322 C 710.573 3.84911 1.79244 0
M  V30 7323 O 711.597 3.25703 1.44207 0
M  V30 7324 O 710.456 4.89008 2.43995 0
M  V30 7325 H 707.55 0.723443 0.400698 0
M  V30 7326 H 710.096 1.69472 0.0878893 0
M  V30 7327 H 708.868 3.87644 0.533685 0
M  V30 7328 H 708.491 3.33703 2.16167 0
M  V30 7329 N 709.488 -0.375779 1.53054 0
M  V30 7330 C 710.737 -1.11674 1.67964 0
M  V30 7331 C 711.05 -1.90755 0.432655 0
M  V30 7332 O 712.256 -2.67538 0.462109 0
M  V30 7333 C 710.712 -2.0344 2.96884 0
M  V30 7334 C 710.32 -1.29719 4.28809 0
M  V30 7335 C 712.064 -2.7759 3.2116 0
M  V30 7336 C 709.971 -2.20327 5.48826 0
M  V30 7337 H 708.901 -0.420597 0.625791 0
M  V30 7338 H 711.552 -0.378499 1.79554 0
M  V30 7339 H 709.934 -2.80953 2.79072 0
M  V30 7340 H 711.108 -0.573394 4.57219 0
M  V30 7341 H 709.423 -0.674735 4.10897 0
M  V30 7342 H 712.02 -3.4559 4.0801 0
M  V30 7343 H 712.363 -3.42399 2.36789 0
M  V30 7344 H 712.896 -2.07164 3.396 0
M  V30 7345 H 709.635 -1.60113 6.35645 0
M  V30 7346 H 709.155 -2.90585 5.2471 0
M  V30 7347 H 710.834 -2.80116 5.83219 0
M  V30 7348 N 710.966 -1.44241 -0.634997 0
M  V30 7349 C 712.194 -1.50296 -1.42193 0
M  V30 7350 C 712.609 -0.12658 -1.88375 0
M  V30 7351 O 711.966 0.86678 -1.60603 0
M  V30 7352 C 712.017 -2.46437 -2.64482 0
M  V30 7353 O 711.738 -3.78724 -2.20226 0
M  V30 7354 C 713.239 -2.61918 -3.57651 0
M  V30 7355 H 710.459 -0.509865 -0.43621 0
M  V30 7356 H 713.003 -1.89167 -0.776921 0
M  V30 7357 H 711.158 -2.10712 -3.25083 0
M  V30 7358 H 711.572 -4.30595 -2.9948 0
M  V30 7359 H 713.046 -3.33225 -4.40074 0
M  V30 7360 H 713.523 -1.67017 -4.06204 0
M  V30 7361 H 714.129 -2.98528 -3.02921 0
M  V30 7362 N 712.444 0.87505 -1.31075 0
M  V30 7363 C 713.672 1.66058 -1.23419 0
M  V30 7364 C 714.087 1.87723 0.201347 0
M  V30 7365 O 713.444 1.43178 1.13165 0
M  V30 7366 C 713.495 3.03142 -1.96945 0
M  V30 7367 O 713.216 2.82448 -3.34895 0
M  V30 7368 C 714.717 3.97583 -1.96067 0
M  V30 7369 H 711.937 0.517868 -0.426677 0
M  V30 7370 H 714.481 1.09258 -1.72867 0
M  V30 7371 H 712.636 3.56645 -1.51271 0
M  V30 7372 H 713.05 3.69483 -3.72267 0
M  V30 7373 H 714.524 4.91104 -2.52034 0
M  V30 7374 H 715.001 4.2898 -0.941961 0
M  V30 7375 H 715.607 3.50015 -2.41597 0
M  V30 7376 N 713.922 1.13953 1.08869 0
M  V30 7377 C 715.147 0.928559 1.85452 0
M  V30 7378 C 715.572 -0.517642 1.80837 0
M  V30 7379 O 714.93 -1.36779 1.19001 0
M  V30 7380 C 714.978 1.42814 3.31114 0
M  V30 7381 O 714.082 0.617129 4.07756 0
M  V30 7382 H 713.423 0.33235 0.574839 0
M  V30 7383 H 715.953 1.5156 1.37443 0
M  V30 7384 H 715.963 1.43425 3.8196 0
M  V30 7385 H 714.638 2.48109 3.33788 0
M  V30 7386 H 713.215 0.679365 3.66659 0
M  V30 7387 N 715.4 -1.26948 0.933913 0
M  V30 7388 C 716.647 -1.94087 0.577625 0
M  V30 7389 C 716.975 -1.73345 -0.88214 0
M  V30 7390 O 716.23 -1.05945 -1.64542 0
M  V30 7391 C 716.529 -3.46963 0.857406 0
M  V30 7392 C 716.195 -3.87834 2.2999 0
M  V30 7393 C 714.857 -3.98704 2.69423 0
M  V30 7394 C 717.209 -4.08442 3.23766 0
M  V30 7395 C 714.537 -4.27573 4.01744 0
M  V30 7396 C 716.889 -4.38798 4.55675 0
M  V30 7397 C 715.553 -4.47881 4.94934 0
M  V30 7398 H 714.823 -0.710215 0.211368 0
M  V30 7399 H 717.47 -1.50899 1.17905 0
M  V30 7400 H 715.775 -3.91416 0.173369 0
M  V30 7401 H 717.472 -3.97062 0.560615 0
M  V30 7402 H 714.062 -3.79916 1.98399 0
M  V30 7403 H 718.246 -3.99479 2.94499 0
M  V30 7404 H 713.502 -4.32815 4.31834 0
M  V30 7405 H 717.676 -4.5369 5.28335 0
M  V30 7406 H 715.303 -4.70005 5.97495 0
M  V30 7407 N 716.879 -0.700114 -1.41195 0
M  V30 7408 C 718.107 -0.242179 -2.05478 0
M  V30 7409 C 718.522 1.11029 -1.52702 0
M  V30 7410 O 717.879 1.69473 -0.677127 0
M  V30 7411 C 717.93 -0.196271 -3.60967 0
M  V30 7412 O 717.651 -1.49532 -4.11791 0
M  V30 7413 C 719.152 0.282102 -4.42401 0
M  V30 7414 H 716.372 -0.111749 -0.661629 0
M  V30 7415 H 718.916 -0.953975 -1.80885 0
M  V30 7416 H 717.071 0.46638 -3.84582 0
M  V30 7417 H 717.485 -1.38545 -5.05871 0
M  V30 7418 H 718.959 0.263093 -5.51373 0
M  V30 7419 H 719.436 1.32174 -4.1884 0
M  V30 7420 H 720.042 -0.349712 -4.2386 0
M  V30 7421 N 718.357 1.51182 -0.445186 0
M  V30 7422 C 719.287 2.30821 0.352686 0
M  V30 7423 C 720.268 1.36576 1.01395 0
M  V30 7424 O 721.453 1.65497 1.01609 0
M  V30 7425 C 718.583 3.15593 1.44976 0
M  V30 7426 C 717.537 4.1818 0.911553 0
M  V30 7427 C 716.863 4.91523 2.10497 0
M  V30 7428 C 718.163 5.22266 -0.059418 0
M  V30 7429 H 719.857 2.97771 -0.311936 0
M  V30 7430 H 717.403 1.43201 -0.151461 0
M  V30 7431 H 719.356 3.70091 2.01521 0
M  V30 7432 H 718.08 2.4648 2.14278 0
M  V30 7433 H 716.739 3.64746 0.368264 0
M  V30 7434 H 716.387 4.18906 2.78437 0
M  V30 7435 H 716.087 5.60898 1.7512 0
M  V30 7436 H 717.611 5.48847 2.6758 0
M  V30 7437 H 719.025 5.71789 0.415985 0
M  V30 7438 H 717.422 5.99213 -0.326152 0
M  V30 7439 H 718.492 4.7461 -0.993631 0
M  V30 7440 N 719.835 0.176821 1.56605 0
M  V30 7441 C 720.765 -0.746841 2.21234 0
M  V30 7442 C 721.746 -1.23502 1.16967 0
M  V30 7443 O 722.931 -1.28718 1.45414 0
M  V30 7444 C 720.061 -1.97407 2.8574 0
M  V30 7445 C 719.015 -1.62153 3.96094 0
M  V30 7446 C 718.341 -2.92387 4.47676 0
M  V30 7447 C 719.641 -0.845353 5.15413 0
M  V30 7448 H 721.335 -0.208116 2.98676 0
M  V30 7449 H 718.881 -0.0986594 1.43662 0
M  V30 7450 H 720.834 -2.62531 3.2963 0
M  V30 7451 H 719.558 -2.53703 2.05676 0
M  V30 7452 H 718.217 -0.993964 3.52868 0
M  V30 7453 H 717.865 -3.46734 3.64396 0
M  V30 7454 H 717.565 -2.69551 5.22127 0
M  V30 7455 H 719.089 -3.5853 4.94255 0
M  V30 7456 H 720.503 -1.39929 5.55961 0
M  V30 7457 H 718.9 -0.715814 5.95815 0
M  V30 7458 H 719.97 0.157239 4.84645 0
M  V30 7459 N 721.313 -1.57302 -0.09688 0
M  V30 7460 C 722.559 -1.86273 -0.801885 0
M  V30 7461 C 722.892 -0.765694 -1.78468 0
M  V30 7462 O 722.167 0.226495 -1.93177 0
M  V30 7463 C 722.45 -3.25876 -1.53221 0
M  V30 7464 C 722.303 -4.46205 -0.567529 0
M  V30 7465 C 723.622 -3.63352 -2.48321 0
M  V30 7466 H 720.741 -0.67752 -0.29006 0
M  V30 7467 H 723.383 -1.89887 -0.0655577 0
M  V30 7468 H 721.533 -3.22926 -2.15988 0
M  V30 7469 H 723.205 -4.6127 0.0529982 0
M  V30 7470 H 721.448 -4.33636 0.119233 0
M  V30 7471 H 722.119 -5.40608 -1.11564 0
M  V30 7472 H 724.595 -3.67234 -1.95648 0
M  V30 7473 H 723.471 -4.61968 -2.9644 0
M  V30 7474 H 723.732 -2.91941 -3.31998 0
M  V30 7475 N 722.791 0.367657 -1.53252 0
M  V30 7476 C 724.039 1.10832 -1.68999 0
M  V30 7477 C 724.36 1.89894 -0.443306 0
M  V30 7478 O 723.63 1.88235 0.54262 0
M  V30 7479 H 722.21 0.412153 -0.623008 0
M  V30 7480 H 724.872 0.414775 -1.90435 0
M  V30 7481 H 723.968 1.7993 -2.55013 0
M  V30 7482 N 724.269 1.44576 0.627338 0
M  V30 7483 C 725.518 1.46837 1.38281 0
M  V30 7484 C 725.831 0.10635 1.95311 0
M  V30 7485 O 727.037 0.00651084 2.71499 0
M  V30 7486 C 725.493 2.58527 2.50384 0
M  V30 7487 C 725.101 4.00953 1.99851 0
M  V30 7488 C 726.845 2.70013 3.27557 0
M  V30 7489 C 724.752 5.0406 3.09318 0
M  V30 7490 H 723.682 0.546319 0.519664 0
M  V30 7491 H 726.333 1.70654 0.674497 0
M  V30 7492 H 724.715 2.27957 3.23808 0
M  V30 7493 H 725.889 4.41108 1.33267 0
M  V30 7494 H 724.204 3.93743 1.35482 0
M  V30 7495 H 726.801 3.44217 4.09168 0
M  V30 7496 H 727.144 1.75961 3.77284 0
M  V30 7497 H 727.677 3.00011 2.61224 0
M  V30 7498 H 724.416 5.99753 2.6453 0
M  V30 7499 H 723.936 4.68493 3.74532 0
M  V30 7500 H 725.615 5.2793 3.74031 0
M  V30 7501 N 725.747 -0.868086 1.31537 0
M  V30 7502 C 726.994 -1.62127 1.2133 0
M  V30 7503 C 727.322 -1.93158 -0.2281 0
M  V30 7504 O 726.577 -1.5632 -1.1774 0
M  V30 7505 C 726.876 -2.95889 2.0046 0
M  V30 7506 C 726.542 -2.84343 3.49943 0
M  V30 7507 C 725.204 -2.80901 3.90702 0
M  V30 7508 C 727.556 -2.71243 4.45058 0
M  V30 7509 C 724.884 -2.6222 5.24841 0
M  V30 7510 C 727.236 -2.54098 5.79325 0
M  V30 7511 C 725.9 -2.4904 6.19302 0
M  V30 7512 H 725.17 -0.593265 0.443979 0
M  V30 7513 H 727.817 -1.00803 1.62822 0
M  V30 7514 H 726.122 -3.61259 1.51655 0
M  V30 7515 H 727.819 -3.53161 1.89942 0
M  V30 7516 H 724.409 -2.8784 3.17563 0
M  V30 7517 H 728.593 -2.72956 4.14498 0
M  V30 7518 H 723.849 -2.56731 5.54887 0
M  V30 7519 H 728.023 -2.42938 6.52652 0
M  V30 7520 H 725.65 -2.34324 7.23185 0
M  V30 7521 N 727.225 -1.14528 -1.08264 0
M  V30 7522 C 728.472 -0.914405 -1.80679 0
M  V30 7523 C 728.8 0.558952 -1.86295 0
M  V30 7524 O 728.055 1.43017 -1.33584 0
M  V30 7525 C 728.354 -1.46226 -3.26117 0
M  V30 7526 C 728.02 -2.95451 -3.40616 0
M  V30 7527 C 726.682 -3.36191 -3.4428 0
M  V30 7528 C 729.034 -3.91399 -3.44175 0
M  V30 7529 C 726.362 -4.71539 -3.49096 0
M  V30 7530 C 728.714 -5.26606 -3.50526 0
M  V30 7531 C 727.378 -5.66856 -3.52464 0
M  V30 7532 H 726.648 -0.334604 -0.661151 0
M  V30 7533 H 729.295 -1.4292 -1.27461 0
M  V30 7534 H 727.6 -0.868442 -3.82054 0
M  V30 7535 H 729.297 -1.25955 -3.80705 0
M  V30 7536 H 725.887 -2.62955 -3.38456 0
M  V30 7537 H 730.071 -3.61004 -3.40573 0
M  V30 7538 H 725.327 -5.02082 -3.4889 0
M  V30 7539 H 729.501 -6.00758 -3.52225 0
M  V30 7540 H 727.128 -6.71718 -3.55948 0
M  V30 7541 N 728.703 1.26451 -0.940633 0
M  V30 7542 C 730.114 1.75726 -0.630653 0
M  V30 7543 C 730.465 1.76631 0.854167 0
M  V30 7544 O 729.59 1.37807 1.66848 0
M  V30 7545 C 730.185 3.19114 -1.13805 0
M  V30 7546 C 728.744 3.66005 -0.878497 0
M  V30 7547 C 727.891 2.45505 -1.28928 0
M  V30 7548 H 730.842 1.12535 -1.119 0
M  V30 7549 H 730.863 3.77311 -0.491625 0
M  V30 7550 H 730.375 3.18424 -2.21874 0
M  V30 7551 H 728.476 3.72126 0.187833 0
M  V30 7552 H 728.589 4.54844 -1.50512 0
M  V30 7553 H 726.953 2.4467 -0.707713 0
M  V30 7554 H 727.736 2.47516 -2.37888 0
M  V30 7555 N 730.181 0.707592 1.40822 0
M  V30 7556 C 731.406 0.251626 2.05868 0
M  V30 7557 C 731.831 -1.09503 1.5294 0
M  V30 7558 O 731.189 -1.68806 0.661385 0
M  V30 7559 C 731.237 0.23287 3.59847 0
M  V30 7560 O 730.341 -0.788477 4.04792 0
M  V30 7561 H 729.682 0.119936 0.653078 0
M  V30 7562 H 732.212 0.96583 1.80369 0
M  V30 7563 H 732.222 0.0678204 4.07944 0
M  V30 7564 H 730.897 1.21565 3.97737 0
M  V30 7565 H 729.474 -0.591802 3.68174 0
M  V30 7566 N 731.66 -1.50943 0.453197 0
M  V30 7567 C 732.906 -2.02512 -0.108082 0
M  V30 7568 C 733.239 -1.33574 -1.40967 0
M  V30 7569 O 732.514 -0.455671 -1.89087 0
M  V30 7570 C 732.797 -3.58759 -0.310453 0
M  V30 7571 C 732.65 -4.38293 1.0109 0
M  V30 7572 C 733.969 -4.26816 -1.07313 0
M  V30 7573 H 731.088 -0.73603 -0.0378064 0
M  V30 7574 H 733.73 -1.80433 0.595295 0
M  V30 7575 H 731.88 -3.77702 -0.909582 0
M  V30 7576 H 733.552 -4.30964 1.64523 0
M  V30 7577 H 731.795 -4.02745 1.61179 0
M  V30 7578 H 732.466 -5.45828 0.82315 0
M  V30 7579 H 734.942 -4.1224 -0.565473 0
M  V30 7580 H 733.818 -5.35989 -1.1835 0
M  V30 7581 H 734.079 -3.88757 -2.10525 0
M  V30 7582 N 733.138 -0.185124 -1.56509 0
M  V30 7583 C 734.366 0.462139 -2.01673 0
M  V30 7584 C 734.781 1.55873 -1.06532 0
M  V30 7585 O 734.138 1.82371 -0.0684805 0
M  V30 7586 C 734.189 1.0277 -3.46584 0
M  V30 7587 O 733.91 -0.0251296 -4.38093 0
M  V30 7588 C 735.411 1.75183 -4.07217 0
M  V30 7589 H 732.631 0.117001 -0.660721 0
M  V30 7590 H 735.175 -0.290905 -2.0242 0
M  V30 7591 H 733.33 1.73118 -3.46568 0
M  V30 7592 H 733.744 0.394387 -5.23015 0
M  V30 7593 H 735.218 2.09999 -5.10494 0
M  V30 7594 H 735.695 2.6519 -3.50101 0
M  V30 7595 H 736.301 1.09445 -4.10977 0
M  V30 7596 N 734.616 1.57351 0.0885366 0
M  V30 7597 C 735.864 1.86051 0.789262 0
M  V30 7598 C 736.185 0.774763 1.78948 0
M  V30 7599 O 735.455 -0.198324 1.94894 0
M  V30 7600 H 734.035 0.686508 0.294475 0
M  V30 7601 H 736.697 1.94779 0.0686055 0
M  V30 7602 H 735.793 2.83007 1.31581 0
M  V30 7603 N 736.094 -0.359525 1.53444 0
M  V30 7604 C 737.343 -1.09886 1.69139 0
M  V30 7605 C 737.656 -1.90285 0.452863 0
M  V30 7606 O 738.862 -2.67033 0.490459 0
M  V30 7607 C 737.318 -2.0028 2.99025 0
M  V30 7608 C 736.926 -1.25164 4.30161 0
M  V30 7609 C 738.67 -2.74168 3.24086 0
M  V30 7610 C 736.577 -2.14494 5.51132 0
M  V30 7611 H 735.507 -0.413936 0.630217 0
M  V30 7612 H 738.158 -0.359434 1.79945 0
M  V30 7613 H 736.54 -2.77978 2.82036 0
M  V30 7614 H 737.714 -0.524867 4.57801 0
M  V30 7615 H 736.029 -0.631116 4.11589 0
M  V30 7616 H 738.626 -3.41243 4.11652 0
M  V30 7617 H 738.969 -3.39868 2.40407 0
M  V30 7618 H 739.502 -2.0355 3.41778 0
M  V30 7619 H 736.241 -1.53362 6.37307 0
M  V30 7620 H 735.761 -2.85004 5.27762 0
M  V30 7621 H 737.44 -2.73914 5.86157 0
M  V30 7622 N 737.572 -1.44907 -0.619662 0
M  V30 7623 C 738.505 -1.47133 -1.74434 0
M  V30 7624 C 739.483 -0.328933 -1.59238 0
M  V30 7625 O 740.667 -0.527632 -1.80965 0
M  V30 7626 C 737.794 -1.31491 -3.12134 0
M  V30 7627 C 736.84 -2.49441 -3.4595 0
M  V30 7628 S 737.673 -4.11945 -3.42142 0
M  V30 7629 C 738.829 -3.98747 -4.82443 0
M  V30 7630 H 739.062 -2.42295 -1.7228 0
M  V30 7631 H 736.595 -1.32343 -0.795276 0
M  V30 7632 H 738.553 -1.23153 -3.91591 0
M  V30 7633 H 737.214 -0.378203 -3.11815 0
M  V30 7634 H 736.407 -2.3439 -4.46181 0
M  V30 7635 H 736.009 -2.54577 -2.73982 0
M  V30 7636 H 738.301 -3.63145 -5.71954 0
M  V30 7637 H 739.244 -4.98848 -5.0255 0
M  V30 7638 H 739.652 -3.30608 -4.57557 0
M  V30 7639 N 739.05 0.861098 -1.31996 0
M  V30 7640 C 740.013 1.95068 -1.20338 0
M  V30 7641 C 741.013 1.60289 -0.128114 0
M  V30 7642 O 742.203 1.70048 -0.378044 0
M  V30 7643 C 739.335 3.30153 -0.849205 0
M  V30 7644 H 740.528 2.06833 -2.17164 0
M  V30 7645 H 738.081 1.05049 -1.15734 0
M  V30 7646 H 738.816 3.24087 0.117508 0
M  V30 7647 H 738.601 3.56771 -1.62655 0
M  V30 7648 H 740.091 4.10025 -0.791782 0
M  V30 7649 N 740.528 1.15101 1.07655 0
M  V30 7650 C 741.776 0.922149 1.79836 0
M  V30 7651 C 742.097 -0.552346 1.87014 0
M  V30 7652 O 741.367 -1.40145 1.3688 0
M  V30 7653 H 739.947 0.338182 0.666064 0
M  V30 7654 H 742.609 1.45107 1.30115 0
M  V30 7655 H 741.705 1.32883 2.82398 0
M  V30 7656 N 742.006 -1.2595 0.947325 0
M  V30 7657 C 743.231 -1.98083 0.614633 0
M  V30 7658 C 743.656 -1.70013 -0.804815 0
M  V30 7659 O 743.014 -0.95175 -1.54309 0
M  V30 7660 C 743.062 -3.4993 0.870706 0
M  V30 7661 O 742.166 -4.12364 -0.0541451 0
M  V30 7662 H 741.507 -0.621232 0.234451 0
M  V30 7663 H 744.037 -1.60259 1.27193 0
M  V30 7664 H 744.047 -4.00198 0.794051 0
M  V30 7665 H 742.722 -3.69691 1.90529 0
M  V30 7666 H 741.299 -3.72826 0.0740917 0
M  V30 7667 N 743.484 -0.715051 -1.40445 0
M  V30 7668 C 744.432 -0.0509974 -2.32544 0
M  V30 7669 C 745.426 0.747602 -1.52011 0
M  V30 7670 O 746.632 0.651031 -1.67814 0
M  V30 7671 H 743.007 0.00231113 -0.751996 0
M  V30 7672 H 744.978 -0.84449 -2.86201 0
M  V30 7673 C 743.727 0.857101 -3.3697 0
M  V30 7674 H 743.05 0.252 -3.99005 0
M  V30 7675 H 744.49 1.28971 -4.03909 0
M  V30 7676 C 742.949 1.98231 -2.72408 0
M  V30 7677 O 743.479 3.07309 -2.58697 0
M  V30 7678 N 741.685 1.76577 -2.308 0
M  V30 7679 H 741.232 0.878641 -2.42152 0
M  V30 7680 H 741.19 2.52043 -1.87941 0
M  V30 7681 N 744.962 1.50701 -0.461195 0
M  V30 7682 C 746.378 1.59187 -0.114786 0
M  V30 7683 C 746.578 1.4702 1.37794 0
M  V30 7684 O 745.634 1.32361 2.15027 0
M  V30 7685 C 746.947 2.93453 -0.656167 0
M  V30 7686 C 748.495 3.06824 -0.618715 0
M  V30 7687 C 748.97 4.4365 -1.13747 0
M  V30 7688 N 750.461 4.50035 -1.09646 0
M  V30 7689 C 751.196 5.54278 -1.46846 0
M  V30 7690 N 750.692 6.65822 -1.91448 0
M  V30 7691 N 752.485 5.44767 -1.38512 0
M  V30 7692 H 744.636 1.56853 -1.43216 0
M  V30 7693 H 746.899 0.740712 -0.59165 0
M  V30 7694 H 746.605 3.07802 -1.7015 0
M  V30 7695 H 746.479 3.77082 -0.0942261 0
M  V30 7696 H 748.866 2.92129 0.417685 0
M  V30 7697 H 748.947 2.24976 -1.21734 0
M  V30 7698 H 748.591 4.59093 -2.17245 0
M  V30 7699 H 748.521 5.24074 -0.515153 0
M  V30 7700 H 751.012 3.69988 -0.769217 0
M  V30 7701 H 751.325 7.41413 -2.18007 0
M  V30 7702 H 749.67 6.66968 -1.95393 0
M  V30 7703 H 752.861 4.56511 -1.03516 0
M  V30 7704 H 753.034 6.25889 -1.6783 0
M  V30 7705 N 746.441 0.193421 1.56409 0
M  V30 7706 C 747.666 -0.454552 2.02358 0
M  V30 7707 C 748.091 -1.54516 1.07268 0
M  V30 7708 O 747.449 -1.81214 0.0558962 0
M  V30 7709 C 747.497 -0.989469 3.46759 0
M  V30 7710 O 746.601 -2.10244 3.54783 0
M  V30 7711 H 745.942 -0.106417 0.655417 0
M  V30 7712 H 748.472 0.303807 2.02332 0
M  V30 7713 H 748.482 -1.30649 3.86516 0
M  V30 7714 H 747.157 -0.191083 4.15461 0
M  V30 7715 H 745.734 -1.79419 3.26899 0
M  V30 7716 N 747.919 -1.57396 -0.0801906 0
M  V30 7717 C 749.167 -1.86467 -0.779384 0
M  V30 7718 C 749.488 -0.784243 -1.78535 0
M  V30 7719 O 748.758 0.187986 -1.94996 0
M  V30 7720 H 747.338 -0.68806 -0.29083 0
M  V30 7721 H 750 -1.94813 -0.0582749 0
M  V30 7722 H 749.096 -2.83701 -1.30078 0
M  V30 7723 N 749.397 0.351382 -1.53633 0
M  V30 7724 C 750.674 1.10903 -1.6112 0
M  V30 7725 C 751.054 2.06725 -0.427556 0
M  V30 7726 O 750.402 2.20992 0.580916 0
M  V30 7727 C 750.612 1.83561 -2.96827 0
M  V30 7728 C 751.96 2.37587 -3.51906 0
M  V30 7729 O 752.984 1.93669 -2.9895 0
M  V30 7730 O 751.843 3.17913 -4.44515 0
M  V30 7731 H 748.937 0.509558 -0.651368 0
M  V30 7732 H 751.483 0.353504 -1.65977 0
M  V30 7733 H 750.255 1.1371 -3.74414 0
M  V30 7734 H 749.878 2.6599 -2.95525 0
M  V30 7735 N 750.875 1.45233 0.611969 0
M  V30 7736 C 751.805 1.5641 1.73373 0
M  V30 7737 C 752.786 0.415896 1.64937 0
M  V30 7738 O 753.971 0.638478 1.83404 0
M  V30 7739 C 751.101 1.52627 3.11965 0
M  V30 7740 C 750.055 2.66119 3.35208 0
M  V30 7741 C 749.381 2.4739 4.74028 0
M  V30 7742 C 750.681 4.08157 3.25891 0
M  V30 7743 H 752.375 2.50307 1.64277 0
M  V30 7744 H 749.921 1.20467 0.788904 0
M  V30 7745 H 751.874 1.59043 3.90235 0
M  V30 7746 H 750.598 0.552564 3.21892 0
M  V30 7747 H 749.257 2.59123 2.59327 0
M  V30 7748 H 748.905 1.48168 4.80682 0
M  V30 7749 H 748.605 3.23494 4.90536 0
M  V30 7750 H 750.129 2.55653 5.54503 0
M  V30 7751 H 751.543 4.1642 3.9404 0
M  V30 7752 H 749.94 4.84617 3.5393 0
M  V30 7753 H 751.01 4.30374 2.23397 0
M  V30 7754 N 752.353 -0.854086 1.3245 0
M  V30 7755 C 753.3 -1.96271 1.21434 0
M  V30 7756 C 754.27 -1.6582 0.0963851 0
M  V30 7757 O 755.455 -1.88851 0.27203 0
M  V30 7758 C 752.595 -3.31939 0.943952 0
M  V30 7759 C 751.708 -3.74885 2.14675 0
M  V30 7760 C 750.843 -4.99347 1.81179 0
M  V30 7761 C 749.882 -5.34785 2.97777 0
M  V30 7762 N 749.019 -6.50425 2.6437 0
M  V30 7763 H 753.859 -2.05025 2.16261 0
M  V30 7764 H 751.396 -1.00348 1.07558 0
M  V30 7765 H 753.354 -4.10076 0.767675 0
M  V30 7766 H 751.984 -3.22784 0.0324763 0
M  V30 7767 H 751.036 -2.92396 2.43328 0
M  V30 7768 H 752.348 -3.97068 3.01891 0
M  V30 7769 H 751.502 -5.85193 1.60107 0
M  V30 7770 H 750.241 -4.79101 0.911777 0
M  V30 7771 H 749.246 -4.47451 3.1948 0
M  V30 7772 H 750.471 -5.56988 3.88511 0
M  V30 7773 H 748.417 -6.31695 1.7691 0
M  V30 7774 H 748.334 -6.7263 3.45116 0
M  V30 7775 H 749.602 -7.39422 2.46729 0
M  V30 7776 N 753.831 -1.1567 -1.07043 0
M  V30 7777 C 755.108 -0.843948 -1.76456 0
M  V30 7778 C 755.488 0.659806 -2.00524 0
M  V30 7779 O 754.836 1.60518 -1.62623 0
M  V30 7780 C 755.046 -1.65822 -3.0709 0
M  V30 7781 C 756.394 -1.8664 -3.8138 0
M  V30 7782 O 757.418 -1.62624 -3.1691 0
M  V30 7783 O 756.277 -2.26884 -4.97178 0
M  V30 7784 H 753.371 -0.310677 -0.766426 0
M  V30 7785 H 755.917 -1.26266 -1.1338 0
M  V30 7786 H 754.689 -2.67902 -2.85209 0
M  V30 7787 H 754.312 -1.23605 -3.77899 0
M  V30 7788 N 755.309 1.25446 -0.953992 0
M  V30 7789 C 756.272 2.24156 -0.478179 0
M  V30 7790 C 757.272 1.55278 0.417776 0
M  V30 7791 O 758.462 1.72866 0.215155 0
M  V30 7792 C 755.594 3.39495 0.309202 0
M  V30 7793 H 756.787 2.67764 -1.35064 0
M  V30 7794 H 754.34 1.37822 -0.737206 0
M  V30 7795 H 755.075 3.01307 1.19936 0
M  V30 7796 H 754.86 3.90679 -0.333562 0
M  V30 7797 H 756.35 4.12796 0.631594 0
M  V30 7798 N 756.787 0.722489 1.40064 0
M  V30 7799 C 757.719 0.0349057 2.29173 0
M  V30 7800 C 758.732 -0.716571 1.46182 0
M  V30 7801 O 759.921 -0.562806 1.69395 0
M  V30 7802 C 757.021 -0.974839 3.24577 0
M  V30 7803 C 756.194 -0.287471 4.36454 0
M  V30 7804 C 755.253 -1.20356 5.12251 0
M  V30 7805 O 754.279 -0.685753 5.65054 0
M  V30 7806 N 755.481 -2.53422 5.22262 0
M  V30 7807 H 758.246 0.800058 2.88824 0
M  V30 7808 H 755.807 0.57068 1.51509 0
M  V30 7809 H 757.799 -1.59002 3.72157 0
M  V30 7810 H 756.369 -1.6413 2.66046 0
M  V30 7811 H 755.589 0.508008 3.90913 0
M  V30 7812 H 756.877 0.189382 5.08447 0
M  V30 7813 H 756.275 -2.97981 4.80857 0
M  V30 7814 H 754.832 -3.10067 5.73325 0
M  V30 7815 N 758.265 -1.50454 0.469181 0
M  V30 7816 C 759.212 -2.28486 -0.325982 0
M  V30 7817 C 760.182 -1.33455 -0.988893 0
M  V30 7818 O 761.367 -1.6239 -1.0017 0
M  V30 7819 C 758.507 -3.15288 -1.40313 0
M  V30 7820 C 757.62 -4.25348 -0.755183 0
M  V30 7821 C 756.755 -4.9941 -1.81006 0
M  V30 7822 C 755.794 -6.01348 -1.14226 0
M  V30 7823 N 754.931 -6.68695 -2.1399 0
M  V30 7824 H 759.771 -2.95987 0.345753 0
M  V30 7825 H 757.308 -1.45965 0.182355 0
M  V30 7826 H 759.266 -3.63964 -2.03927 0
M  V30 7827 H 757.896 -2.49837 -2.04405 0
M  V30 7828 H 756.948 -3.80399 -0.00651901 0
M  V30 7829 H 758.26 -4.98279 -0.227941 0
M  V30 7830 H 757.414 -5.51794 -2.52206 0
M  V30 7831 H 756.153 -4.26181 -2.3711 0
M  V30 7832 H 755.158 -5.48225 -0.415876 0
M  V30 7833 H 756.383 -6.76548 -0.588135 0
M  V30 7834 H 754.329 -5.98258 -2.69115 0
M  V30 7835 H 754.246 -7.37495 -1.66246 0
M  V30 7836 H 755.514 -7.25697 -2.84576 0
M  V30 7837 N 759.743 -0.201713 -1.56304 0
M  V30 7838 C 760.968 0.443815 -2.02596 0
M  V30 7839 C 761.393 1.53945 -1.08086 0
M  V30 7840 O 760.751 1.81182 -0.0655056 0
M  V30 7841 C 760.799 0.971066 -3.47279 0
M  V30 7842 O 759.903 2.0836 -3.55893 0
M  V30 7843 H 759.244 0.10294 -0.655972 0
M  V30 7844 H 761.774 -0.314533 -2.02168 0
M  V30 7845 H 761.784 1.28598 -3.87204 0
M  V30 7846 H 760.459 0.169048 -4.15556 0
M  V30 7847 H 759.036 1.77683 -3.27846 0
M  V30 7848 N 761.222 1.57436 0.0718424 0
M  V30 7849 C 762.471 1.86431 0.769826 0
M  V30 7850 C 762.784 0.794355 1.78744 0
M  V30 7851 O 763.99 0.972148 2.53499 0
M  V30 7852 C 762.446 3.307 1.42006 0
M  V30 7853 C 762.054 4.45824 0.441017 0
M  V30 7854 C 763.798 3.68894 2.10041 0
M  V30 7855 C 761.705 5.81134 1.09717 0
M  V30 7856 H 760.635 0.695474 0.291259 0
M  V30 7857 H 763.286 1.83485 0.0231224 0
M  V30 7858 H 761.668 3.28257 2.21502 0
M  V30 7859 H 762.842 4.59659 -0.32413 0
M  V30 7860 H 761.157 4.16181 -0.134886 0
M  V30 7861 H 763.754 4.67281 2.59908 0
M  V30 7862 H 764.097 2.98692 2.89981 0
M  V30 7863 H 764.63 3.73326 1.37376 0
M  V30 7864 H 761.369 6.54628 0.338095 0
M  V30 7865 H 760.889 5.711 1.83317 0
M  V30 7866 H 762.568 6.26468 1.617 0
M  V30 7867 N 762.7 -0.34323 1.53817 0
M  V30 7868 C 764.111 -0.918823 1.62525 0
M  V30 7869 C 764.462 -1.89542 0.506765 0
M  V30 7870 O 763.587 -2.13326 -0.363441 0
M  V30 7871 C 764.182 -1.67326 2.94597 0
M  V30 7872 C 762.741 -2.19786 3.05567 0
M  V30 7873 C 761.888 -1.01708 2.57974 0
M  V30 7874 H 764.839 -0.121358 1.58235 0
M  V30 7875 H 764.86 -2.53615 2.83654 0
M  V30 7876 H 764.372 -0.962223 3.75983 0
M  V30 7877 H 762.473 -2.94065 2.28816 0
M  V30 7878 H 762.586 -2.46135 4.1104 0
M  V30 7879 H 760.95 -1.39058 2.13389 0
M  V30 7880 H 761.733 -0.320671 3.41799 0
M  V30 7881 N 764.178 -1.45556 -0.604258 0
M  V30 7882 C 765.427 -1.49019 -1.35928 0
M  V30 7883 C 765.74 -0.137409 -1.95117 0
M  V30 7884 O 766.946 -0.0497032 -2.71455 0
M  V30 7885 C 765.402 -2.62477 -2.46239 0
M  V30 7886 C 765.01 -4.04082 -1.93447 0
M  V30 7887 C 766.754 -2.7519 -3.23219 0
M  V30 7888 C 764.661 -5.08917 -3.0126 0
M  V30 7889 H 763.591 -0.554518 -0.510907 0
M  V30 7890 H 766.242 -1.71705 -0.647262 0
M  V30 7891 H 764.624 -2.3308 -3.2014 0
M  V30 7892 H 765.798 -4.43173 -1.26232 0
M  V30 7893 H 764.113 -3.95849 -1.29201 0
M  V30 7894 H 766.71 -3.50683 -4.0364 0
M  V30 7895 H 767.053 -1.81941 -3.74437 0
M  V30 7896 H 767.586 -3.04129 -2.56418 0
M  V30 7897 H 764.325 -6.03886 -2.54955 0
M  V30 7898 H 763.845 -4.74393 -3.67031 0
M  V30 7899 H 765.524 -5.33814 -3.65584 0
M  V30 7900 N 765.656 0.84705 -1.32902 0
M  V30 7901 C 766.904 1.5986 -1.2365 0
M  V30 7902 C 767.225 1.93974 0.199789 0
M  V30 7903 O 766.495 1.60273 1.12648 0
M  V30 7904 H 765.075 0.592696 -0.454665 0
M  V30 7905 H 767.737 1.01278 -1.66519 0
M  V30 7906 H 766.833 2.53218 -1.82448 0
M  V30 7907 N 767.134 1.16236 1.06428 0
M  V30 7908 C 768.362 0.967184 1.82902 0
M  V30 7909 C 768.777 -0.484601 1.82475 0
M  V30 7910 O 768.134 -1.33631 1.24294 0
M  V30 7911 C 768.185 1.48534 3.29576 0
M  V30 7912 O 767.906 2.88026 3.3011 0
M  V30 7913 C 769.407 1.33298 4.22784 0
M  V30 7914 H 766.627 0.342923 0.576754 0
M  V30 7915 H 769.171 1.54232 1.34286 0
M  V30 7916 H 767.326 0.952513 3.75508 0
M  V30 7917 H 767.74 3.11721 4.21818 0
M  V30 7918 H 769.214 1.74385 5.23731 0
M  V30 7919 H 769.691 0.278356 4.38317 0
M  V30 7920 H 770.297 1.85535 3.82697 0
M  V30 7921 N 768.612 -1.24939 0.960631 0
M  V30 7922 C 769.861 -1.92118 0.614298 0
M  V30 7923 C 770.174 -1.75998 -0.853474 0
M  V30 7924 O 771.38 -2.37804 -1.31003 0
M  V30 7925 C 769.836 -3.44303 1.04801 0
M  V30 7926 C 769.444 -3.69123 2.53875 0
M  V30 7927 C 771.188 -4.17375 0.774497 0
M  V30 7928 C 769.095 -5.14843 2.91016 0
M  V30 7929 H 768.025 -0.719319 0.226045 0
M  V30 7930 H 770.676 -1.41701 1.16589 0
M  V30 7931 H 769.058 -3.93715 0.42479 0
M  V30 7932 H 770.232 -3.30339 3.21267 0
M  V30 7933 H 768.547 -3.09323 2.78762 0
M  V30 7934 H 771.144 -5.24723 1.02808 0
M  V30 7935 H 771.487 -4.15294 -0.289192 0
M  V30 7936 H 772.02 -3.7389 1.35835 0
M  V30 7937 H 768.759 -5.2204 3.96427 0
M  V30 7938 H 768.279 -5.54652 2.28302 0
M  V30 7939 H 769.958 -5.83017 2.80535 0
M  V30 7940 N 770.09 -0.729906 -1.39679 0
M  V30 7941 C 771.02 -0.101618 -2.33279 0
M  V30 7942 C 772.001 0.729854 -1.53646 0
M  V30 7943 O 773.186 0.67587 -1.82059 0
M  V30 7944 C 770.316 0.81024 -3.37716 0
M  V30 7945 C 769.27 0.0833126 -4.27919 0
M  V30 7946 C 768.596 1.11185 -5.23012 0
M  V30 7947 C 769.896 -1.07107 -5.112 0
M  V30 7948 H 771.59 -0.883452 -2.86069 0
M  V30 7949 H 769.136 -0.426283 -1.37546 0
M  V30 7950 H 771.089 1.25927 -4.02145 0
M  V30 7951 H 769.813 1.62413 -2.83354 0
M  V30 7952 H 768.472 -0.346043 -3.64963 0
M  V30 7953 H 768.12 1.91917 -4.64948 0
M  V30 7954 H 767.82 0.63026 -5.8421 0
M  V30 7955 H 769.344 1.56068 -5.90318 0
M  V30 7956 H 770.758 -0.700726 -5.69002 0
M  V30 7957 H 769.155 -1.48196 -5.81514 0
M  V30 7958 H 770.225 -1.89513 -4.46332 0
M  V30 7959 N 771.568 1.50203 -0.477153 0
M  V30 7960 C 772.531 2.27194 0.302599 0
M  V30 7961 C 773.531 1.32221 0.915112 0
M  V30 7962 O 774.721 1.55593 0.783348 0
M  V30 7963 C 771.853 3.0938 1.43167 0
M  V30 7964 H 773.046 2.97575 -0.372678 0
M  V30 7965 H 770.599 1.54578 -0.231392 0
M  V30 7966 H 771.334 2.43509 2.14182 0
M  V30 7967 H 771.119 3.79181 0.998197 0
M  V30 7968 H 772.609 3.67592 1.98157 0
M  V30 7969 N 773.046 0.209999 1.56195 0
M  V30 7970 C 774.295 -0.425106 1.97169 0
M  V30 7971 C 774.608 -1.61718 1.10031 0
M  V30 7972 O 775.814 -2.32105 1.40853 0
M  V30 7973 C 774.27 -0.80771 3.50719 0
M  V30 7974 C 773.878 0.360902 4.46544 0
M  V30 7975 C 775.622 -1.40906 4.00432 0
M  V30 7976 C 773.529 -0.0434919 5.91384 0
M  V30 7977 H 772.459 -0.162598 0.736259 0
M  V30 7978 H 775.11 0.304382 1.80958 0
M  V30 7979 H 773.492 -1.59429 3.62489 0
M  V30 7980 H 774.666 1.13846 4.46515 0
M  V30 7981 H 772.981 0.874729 4.07109 0
M  V30 7982 H 775.578 -1.72433 5.06133 0
M  V30 7983 H 775.921 -2.32081 3.45607 0
M  V30 7984 H 776.454 -0.686154 3.91838 0
M  V30 7985 H 773.193 0.834448 6.50167 0
M  V30 7986 H 772.713 -0.785598 5.94633 0
M  V30 7987 H 774.392 -0.474176 6.4526 0
M  V30 7988 N 774.524 -1.57472 -0.0634922 0
M  V30 7989 C 775.454 -2.07297 -1.07473 0
M  V30 7990 C 776.435 -0.968162 -1.39859 0
M  V30 7991 O 777.62 -1.24139 -1.49343 0
M  V30 7992 C 774.75 -2.52381 -2.38581 0
M  V30 7993 C 773.704 -3.66813 -2.20526 0
M  V30 7994 C 773.03 -3.97982 -3.57092 0
M  V30 7995 C 774.33 -4.96553 -1.61965 0
M  V30 7996 H 776.024 -2.92033 -0.660092 0
M  V30 7997 H 773.57 -1.40488 -0.316074 0
M  V30 7998 H 775.523 -2.85852 -3.09624 0
M  V30 7999 H 774.247 -1.64684 -2.8204 0
M  V30 8000 H 772.906 -3.33639 -1.51924 0
M  V30 8001 H 772.554 -3.07403 -3.98136 0
M  V30 8002 H 772.254 -4.7504 -3.45848 0
M  V30 8003 H 773.778 -4.33956 -4.29552 0
M  V30 8004 H 775.192 -5.28201 -2.22883 0
M  V30 8005 H 773.589 -5.7799 -1.61394 0
M  V30 8006 H 774.659 -4.81396 -0.581918 0
M  V30 8007 N 776.003 0.335068 -1.53997 0
M  V30 8008 C 777.231 1.09418 -1.756 0
M  V30 8009 C 777.646 1.82083 -0.499138 0
M  V30 8010 O 777.003 1.74646 0.529631 0
M  V30 8011 C 777.054 2.10115 -2.94166 0
M  V30 8012 O 776.775 1.40404 -4.14992 0
M  V30 8013 C 778.276 2.98336 -3.27888 0
M  V30 8014 H 775.496 0.32595 -0.586513 0
M  V30 8015 H 778.04 0.384693 -2.00849 0
M  V30 8016 H 776.195 2.76616 -2.71224 0
M  V30 8017 H 776.609 2.07743 -4.81605 0
M  V30 8018 H 778.083 3.6491 -4.1418 0
M  V30 8019 H 778.56 3.64814 -2.44556 0
M  V30 8020 H 779.166 2.37412 -3.52868 0
M  V30 8021 N 777.481 1.45874 0.596531 0
M  V30 8022 C 778.709 1.54013 1.38158 0
M  V30 8023 C 779.124 0.17648 1.87973 0
M  V30 8024 O 778.481 -0.823895 1.62844 0
M  V30 8025 C 778.532 2.53363 2.57855 0
M  V30 8026 O 778.253 3.8443 2.10108 0
M  V30 8027 C 779.754 2.71308 3.50581 0
M  V30 8028 H 776.974 0.521251 0.422538 0
M  V30 8029 H 779.518 1.9116 0.726493 0
M  V30 8030 H 777.673 2.19257 3.19382 0
M  V30 8031 H 778.087 4.38384 2.87958 0
M  V30 8032 H 779.561 3.44776 4.31084 0
M  V30 8033 H 780.038 1.77728 4.01633 0
M  V30 8034 H 780.644 3.06455 2.94899 0
M  V30 8035 N 778.959 -0.83999 1.33349 0
M  V30 8036 C 780.184 -1.63249 1.27924 0
M  V30 8037 C 780.609 -1.87523 -0.147193 0
M  V30 8038 O 779.967 -1.43853 -1.10345 0
M  V30 8039 C 780.015 -2.96046 2.05886 0
M  V30 8040 O 779.119 -3.87303 1.4167 0
M  V30 8041 H 778.46 -0.49715 0.440157 0
M  V30 8042 H 780.99 -1.04512 1.75893 0
M  V30 8043 H 781 -3.45752 2.16609 0
M  V30 8044 H 779.675 -2.77701 3.09605 0
M  V30 8045 H 778.252 -3.45789 1.39585 0
M  V30 8046 N 780.437 -1.16799 -1.0581 0
M  V30 8047 C 781.684 -0.952524 -1.78699 0
M  V30 8048 C 782.012 0.51931 -1.87439 0
M  V30 8049 O 781.267 1.40151 -1.36587 0
M  V30 8050 C 781.566 -1.53111 -3.22942 0
M  V30 8051 C 781.232 -3.0261 -3.34273 0
M  V30 8052 C 779.894 -3.43418 -3.37072 0
M  V30 8053 C 782.246 -3.98611 -3.35795 0
M  V30 8054 C 779.574 -4.78838 -3.39015 0
M  V30 8055 C 781.926 -5.33923 -3.39277 0
M  V30 8056 C 780.59 -5.74205 -3.40361 0
M  V30 8057 H 779.86 -0.348553 -0.653905 0
M  V30 8058 H 782.507 -1.45591 -1.244 0
M  V30 8059 H 780.812 -0.949286 -3.80126 0
M  V30 8060 H 782.509 -1.34002 -3.77948 0
M  V30 8061 H 779.099 -2.70075 -3.32803 0
M  V30 8062 H 783.283 -3.68146 -3.32839 0
M  V30 8063 H 778.539 -5.09369 -3.38161 0
M  V30 8064 H 782.713 -6.08094 -3.39403 0
M  V30 8065 H 780.34 -6.79117 -3.4162 0
M  V30 8066 N 781.915 1.24427 -0.967243 0
M  V30 8067 C 783.161 1.92772 -0.629812 0
M  V30 8068 C 783.494 1.75436 0.832827 0
M  V30 8069 O 782.769 1.10716 1.59913 0
M  V30 8070 C 783.052 3.45798 -1.00477 0
M  V30 8071 C 782.905 3.72304 -2.52407 0
M  V30 8072 C 784.224 4.36787 -0.538999 0
M  V30 8073 H 781.343 0.700099 -0.230282 0
M  V30 8074 H 783.985 1.46805 -1.20616 0
M  V30 8075 H 782.135 3.8508 -0.514336 0
M  V30 8076 H 783.807 3.42584 -3.08924 0
M  V30 8077 H 782.05 3.17472 -2.95625 0
M  V30 8078 H 782.721 4.7937 -2.73693 0
M  V30 8079 H 785.197 4.04877 -0.959874 0
M  V30 8080 H 784.073 5.4259 -0.829926 0
M  V30 8081 H 784.334 4.38527 0.560923 0
M  V30 8082 N 783.393 0.737304 1.3929 0
M  V30 8083 C 784.623 0.296143 2.04467 0
M  V30 8084 C 785.031 -1.0748 1.55707 0
M  V30 8085 O 784.374 -1.69082 0.718123 0
M  V30 8086 C 784.436 0.222161 3.58813 0
M  V30 8087 C 784.1 1.53195 4.30558 0
M  V30 8088 C 785.097 2.47809 4.57041 0
M  V30 8089 C 782.782 1.79688 4.6906 0
M  V30 8090 C 784.776 3.67147 5.21039 0
M  V30 8091 C 782.463 2.99304 5.32785 0
M  V30 8092 C 783.461 3.92855 5.58708 0
M  V30 8093 O 783.149 5.1037 6.2111 0
M  V30 8094 H 782.881 0.126896 0.663983 0
M  V30 8095 H 785.435 1.00242 1.79278 0
M  V30 8096 H 783.665 -0.540239 3.82908 0
M  V30 8097 H 785.354 -0.187311 4.05468 0
M  V30 8098 H 786.12 2.28611 4.2774 0
M  V30 8099 H 781.999 1.07716 4.48239 0
M  V30 8100 H 785.543 4.40183 5.41188 0
M  V30 8101 H 781.44 3.18401 5.61508 0
M  V30 8102 H 782.208 5.10735 6.39603 0
M  V30 8103 N 784.871 -1.49948 0.485112 0
M  V30 8104 C 785.801 -2.31675 -0.291364 0
M  V30 8105 C 786.782 -1.39216 -0.977383 0
M  V30 8106 O 787.967 -1.68133 -0.971855 0
M  V30 8107 C 785.097 -3.19326 -1.36558 0
M  V30 8108 C 784.051 -4.2045 -0.800359 0
M  V30 8109 C 783.377 -4.96931 -1.97391 0
M  V30 8110 C 784.677 -5.21925 0.197867 0
M  V30 8111 H 786.371 -2.96839 0.390775 0
M  V30 8112 H 783.917 -1.42749 0.189375 0
M  V30 8113 H 785.87 -3.75304 -1.91638 0
M  V30 8114 H 784.594 -2.52074 -2.07668 0
M  V30 8115 H 783.253 -3.65594 -0.271428 0
M  V30 8116 H 782.901 -4.26141 -2.67232 0
M  V30 8117 H 782.601 -5.65344 -1.60187 0
M  V30 8118 H 784.125 -5.55749 -2.52935 0
M  V30 8119 H 785.539 -5.72691 -0.264239 0
M  V30 8120 H 783.936 -5.98138 0.484908 0
M  V30 8121 H 785.006 -4.71809 1.11912 0
M  V30 8122 N 786.349 -0.21828 -1.56081 0
M  V30 8123 C 787.574 0.422302 -2.03055 0
M  V30 8124 C 787.999 1.5279 -1.09713 0
M  V30 8125 O 787.357 1.81102 -0.0847187 0
M  V30 8126 C 787.405 0.934177 -3.48289 0
M  V30 8127 O 786.509 2.04574 -3.58083 0
M  V30 8128 H 785.85 0.0959764 -0.657027 0
M  V30 8129 H 788.38 -0.335958 -2.01823 0
M  V30 8130 H 788.39 1.24484 -3.88546 0
M  V30 8131 H 787.065 0.124963 -4.15712 0
M  V30 8132 H 785.642 1.74196 -3.29712 0
M  V30 8133 N 787.827 1.57504 0.0551401 0
M  V30 8134 C 788.775 2.05884 1.08233 0
M  V30 8135 C 789.769 0.967383 1.39061 0
M  V30 8136 O 790.975 1.15242 1.38273 0
M  V30 8137 H 787.35 0.656673 0.366449 0
M  V30 8138 H 789.321 2.91273 0.648269 0
M  V30 8139 C 788.07 2.53221 2.38273 0
M  V30 8140 H 787.393 3.36809 2.15406 0
M  V30 8141 H 788.833 2.9081 3.08554 0
M  V30 8142 C 787.292 1.42218 3.05411 0
M  V30 8143 O 787.822 0.773638 3.9418 0
M  V30 8144 N 786.028 1.16316 2.66306 0
M  V30 8145 H 785.575 1.69237 1.94207 0
M  V30 8146 H 785.533 0.422534 3.11548 0
M  V30 8147 N 789.305 -0.326896 1.54172 0
M  V30 8148 C 790.551 -1.06681 1.72473 0
M  V30 8149 C 790.884 -1.87779 0.49523 0
M  V30 8150 O 790.159 -1.87754 -0.507803 0
M  V30 8151 C 790.442 -1.99429 2.99834 0
M  V30 8152 C 790.295 -1.21682 4.33028 0
M  V30 8153 C 791.614 -2.99002 3.22933 0
M  V30 8154 H 788.733 -0.386438 0.627563 0
M  V30 8155 H 791.375 -0.343779 1.86864 0
M  V30 8156 H 789.525 -2.61081 2.87696 0
M  V30 8157 H 791.197 -0.625153 4.57044 0
M  V30 8158 H 789.44 -0.519045 4.30684 0
M  V30 8159 H 790.111 -1.89766 5.18356 0
M  V30 8160 H 792.587 -2.4747 3.34511 0
M  V30 8161 H 791.463 -3.61085 4.13412 0
M  V30 8162 H 791.724 -3.71281 2.40006 0
M  V30 8163 N 790.784 -1.46188 -0.588786 0
M  V30 8164 C 792.03 -1.51407 -1.34921 0
M  V30 8165 C 792.363 -0.162771 -1.93517 0
M  V30 8166 O 791.638 0.825082 -1.76132 0
M  V30 8167 C 791.921 -2.60795 -2.48311 0
M  V30 8168 C 791.774 -4.05435 -1.94789 0
M  V30 8169 C 793.093 -2.66313 -3.50379 0
M  V30 8170 H 790.212 -0.551213 -0.489217 0
M  V30 8171 H 792.854 -1.78095 -0.661993 0
M  V30 8172 H 791.004 -2.3817 -3.06932 0
M  V30 8173 H 792.676 -4.39328 -1.40672 0
M  V30 8174 H 790.919 -4.15202 -1.25659 0
M  V30 8175 H 791.59 -4.77691 -2.76613 0
M  V30 8176 H 794.066 -2.86634 -3.01629 0
M  V30 8177 H 792.942 -3.44681 -4.27184 0
M  V30 8178 H 793.203 -1.72127 -4.07216 0
M  V30 8179 N 792.262 0.832906 -1.33792 0
M  V30 8180 C 793.192 1.95828 -1.27176 0
M  V30 8181 C 794.173 1.69427 -0.15114 0
M  V30 8182 O 795.358 1.91167 -0.341886 0
M  V30 8183 C 792.488 3.32098 -1.01629 0
M  V30 8184 C 791.442 3.72912 -2.10049 0
M  V30 8185 C 790.768 5.07054 -1.69706 0
M  V30 8186 C 792.068 3.86064 -3.51783 0
M  V30 8187 H 793.762 2.01622 -2.21334 0
M  V30 8188 H 791.308 0.96866 -1.0655 0
M  V30 8189 H 793.261 4.10402 -0.956474 0
M  V30 8190 H 791.985 3.26577 -0.0390956 0
M  V30 8191 H 790.644 2.96876 -2.15082 0
M  V30 8192 H 790.292 4.9801 -0.706737 0
M  V30 8193 H 789.992 5.35333 -2.42264 0
M  V30 8194 H 791.516 5.87827 -1.65202 0
M  V30 8195 H 792.93 4.54665 -3.49218 0
M  V30 8196 H 791.327 4.25787 -4.22878 0
M  V30 8197 H 792.397 2.88344 -3.89854 0
M  V30 8198 N 793.74 1.17359 1.05189 0
M  V30 8199 C 794.987 0.961987 1.78191 0
M  V30 8200 C 795.315 -0.509363 1.87712 0
M  V30 8201 O 794.57 -1.39425 1.37329 0
M  V30 8202 C 794.869 1.54821 3.22126 0
M  V30 8203 C 794.535 3.04378 3.32663 0
M  V30 8204 C 793.197 3.45201 3.35246 0
M  V30 8205 C 795.549 4.00387 3.33677 0
M  V30 8206 C 792.877 4.80629 3.36471 0
M  V30 8207 C 795.229 5.35715 3.36441 0
M  V30 8208 C 793.893 5.76002 3.37311 0
M  V30 8209 H 793.163 0.352016 0.652047 0
M  V30 8210 H 795.81 1.46249 1.23627 0
M  V30 8211 H 794.115 0.969432 3.79617 0
M  V30 8212 H 795.812 1.36004 3.77232 0
M  V30 8213 H 792.402 2.71836 3.31366 0
M  V30 8214 H 796.586 3.69906 3.30882 0
M  V30 8215 H 791.842 5.11155 3.35455 0
M  V30 8216 H 796.016 6.09886 3.36173 0
M  V30 8217 H 793.643 6.80919 3.38013 0
M  V30 8218 N 795.218 -1.23913 0.973828 0
M  V30 8219 C 796.466 -1.91771 0.637817 0
M  V30 8220 C 796.787 -1.76434 -0.830435 0
M  V30 8221 O 796.057 -1.13965 -1.59339 0
M  V30 8222 H 794.637 -0.709761 0.232912 0
M  V30 8223 H 797.299 -1.50677 1.23622 0
M  V30 8224 H 796.395 -2.99327 0.883731 0
M  V30 8225 N 796.696 -0.74468 -1.38897 0
M  V30 8226 C 797.659 -0.11945 -2.28889 0
M  V30 8227 C 798.659 0.656942 -1.46768 0
M  V30 8228 O 799.849 0.484525 -1.67326 0
M  V30 8229 C 796.981 0.839635 -3.30398 0
M  V30 8230 H 798.174 -0.912414 -2.85683 0
M  V30 8231 H 795.727 -0.511119 -1.47707 0
M  V30 8232 H 796.462 1.6586 -2.78677 0
M  V30 8233 H 796.247 0.285432 -3.9106 0
M  V30 8234 H 797.737 1.27337 -3.97712 0
M  V30 8235 N 798.174 1.49689 -0.493057 0
M  V30 8236 C 799.414 2.04332 0.0527374 0
M  V30 8237 C 799.778 1.36522 1.35003 0
M  V30 8238 O 800.979 1.81842 1.97957 0
M  V30 8239 C 799.25 3.56782 0.210044 0
M  V30 8240 S 800.809 4.32998 0.711232 0
M  V30 8241 H 797.627 0.710978 0.00554853 0
M  V30 8242 H 800.229 1.83835 -0.665213 0
M  V30 8243 H 798.933 4.03681 -0.739566 0
M  V30 8244 H 798.464 3.81671 0.953468 0
M  V30 8245 H 800.479 4.54916 1.98156 0
M  V30 8246 N 799.652 0.226554 1.55963 0
M  V30 8247 C 800.901 -0.40417 1.97609 0
M  V30 8248 C 801.214 -1.60541 1.1174 0
M  V30 8249 O 802.42 -2.30598 1.43307 0
M  V30 8250 C 800.876 -0.770466 3.51556 0
M  V30 8251 C 800.484 0.408244 4.46136 0
M  V30 8252 C 802.228 -1.36651 4.01904 0
M  V30 8253 C 800.135 0.0192347 5.91397 0
M  V30 8254 H 799.065 -0.15478 0.737943 0
M  V30 8255 H 801.716 0.323558 1.80625 0
M  V30 8256 H 800.098 -1.55575 3.6416 0
M  V30 8257 H 801.272 1.18575 4.45283 0
M  V30 8258 H 799.587 0.917859 4.06158 0
M  V30 8259 H 802.184 -1.67055 5.07934 0
M  V30 8260 H 802.527 -2.28403 3.48049 0
M  V30 8261 H 803.06 -0.644556 3.92543 0
M  V30 8262 H 799.799 0.90336 6.49245 0
M  V30 8263 H 799.319 -0.722485 5.95433 0
M  V30 8264 H 800.998 -0.405711 6.45727 0
M  V30 8265 N 801.13 -1.57531 -0.0467866 0
M  V30 8266 C 802.04 -2.08768 -1.07018 0
M  V30 8267 C 803.056 -1.02245 -1.40791 0
M  V30 8268 O 804.232 -1.33873 -1.50466 0
M  V30 8269 C 801.297 -2.54221 -2.35738 0
M  V30 8270 C 800.358 -3.75152 -2.08709 0
M  V30 8271 C 799.591 -4.18428 -3.31291 0
M  V30 8272 O 799.814 -3.61365 -4.4133 0
M  V30 8273 O 798.748 -5.11018 -3.18032 0
M  V30 8274 H 802.574 -2.96334 -0.664812 0
M  V30 8275 H 800.159 -1.47074 -0.262605 0
M  V30 8276 H 802.041 -2.83866 -3.11445 0
M  V30 8277 H 800.716 -1.69774 -2.75605 0
M  V30 8278 H 799.623 -3.50553 -1.30627 0
M  V30 8279 H 800.956 -4.60528 -1.73708 0
M  V30 8280 N 802.608 0.318715 -1.54344 0
M  V30 8281 C 803.856 1.054 -1.72439 0
M  V30 8282 C 804.177 1.88388 -0.503495 0
M  V30 8283 O 803.447 1.89866 0.48246 0
M  V30 8284 H 802.027 0.392124 -0.635805 0
M  V30 8285 H 804.689 0.35398 -1.91659 0
M  V30 8286 H 803.785 1.71726 -2.60608 0
M  V30 8287 N 804.086 1.46499 0.581025 0
M  V30 8288 C 805.332 1.52121 1.34116 0
M  V30 8289 C 805.665 0.173031 1.93428 0
M  V30 8290 O 804.94 -0.815729 1.76568 0
M  V30 8291 C 805.223 2.62108 2.46924 0
M  V30 8292 C 805.076 4.06462 1.92636 0
M  V30 8293 C 806.395 2.68167 3.48962 0
M  V30 8294 H 803.514 0.5538 0.486287 0
M  V30 8295 H 806.156 1.78443 0.652538 0
M  V30 8296 H 804.306 2.39794 3.05665 0
M  V30 8297 H 805.978 4.40068 1.3834 0
M  V30 8298 H 804.221 4.15862 1.23455 0
M  V30 8299 H 804.892 4.79152 2.74076 0
M  V30 8300 H 807.368 2.8823 3.00104 0
M  V30 8301 H 806.244 3.46942 4.2535 0
M  V30 8302 H 806.505 1.74284 4.06297 0
M  V30 8303 N 805.565 -0.825799 1.34232 0
M  V30 8304 C 806.811 -1.58419 1.26614 0
M  V30 8305 C 807.144 -1.93503 -0.164341 0
M  V30 8306 O 806.419 -1.59785 -1.109 0
M  V30 8307 C 806.702 -2.8856 2.15418 0
M  V30 8308 C 806.555 -2.60075 3.66989 0
M  V30 8309 C 807.874 -3.90107 2.03726 0
M  V30 8310 H 804.993 -0.574794 0.461282 0
M  V30 8311 H 807.635 -0.951519 1.64457 0
M  V30 8312 H 805.785 -3.42553 1.83275 0
M  V30 8313 H 807.457 -2.12414 4.09485 0
M  V30 8314 H 805.7 -1.93565 3.88221 0
M  V30 8315 H 806.371 -3.52866 4.24488 0
M  V30 8316 H 808.847 -3.45459 2.31942 0
M  V30 8317 H 807.723 -4.78976 2.68092 0
M  V30 8318 H 807.984 -4.30329 1.01337 0
M  V30 8319 N 807.043 -1.17915 -1.04565 0
M  V30 8320 C 807.973 -0.925033 -2.14395 0
M  V30 8321 C 808.954 0.135375 -1.6956 0
M  V30 8322 O 810.139 -0.0161774 -1.94193 0
M  V30 8323 C 807.269 -0.444469 -3.44444 0
M  V30 8324 C 806.223 -1.44478 -4.02877 0
M  V30 8325 C 805.549 -0.821933 -5.28345 0
M  V30 8326 C 806.849 -2.81995 -4.39632 0
M  V30 8327 H 808.543 -1.84354 -2.35911 0
M  V30 8328 H 806.089 -0.887806 -1.13375 0
M  V30 8329 H 808.042 -0.254078 -4.20633 0
M  V30 8330 H 806.766 0.509592 -3.226 0
M  V30 8331 H 805.425 -1.62203 -3.28764 0
M  V30 8332 H 805.073 0.139161 -5.02807 0
M  V30 8333 H 804.773 -1.48976 -5.68401 0
M  V30 8334 H 806.297 -0.641959 -6.07216 0
M  V30 8335 H 807.711 -2.67952 -5.06828 0
M  V30 8336 H 806.108 -3.45414 -4.90723 0
M  V30 8337 H 807.178 -3.35927 -3.49687 0
M  V30 8338 N 808.521 1.23394 -0.980386 0
M  V30 8339 C 809.937 1.43961 -0.689008 0
M  V30 8340 C 810.137 1.87229 0.744809 0
M  V30 8341 O 809.193 2.01831 1.51725 0
M  V30 8342 C 810.506 2.49128 -1.68392 0
M  V30 8343 C 812.054 2.62941 -1.69796 0
M  V30 8344 C 812.529 3.71317 -2.68118 0
M  V30 8345 N 814.02 3.7876 -2.66636 0
M  V30 8346 C 814.755 4.62176 -3.39383 0
M  V30 8347 N 814.251 5.49682 -4.21688 0
M  V30 8348 N 816.044 4.56372 -3.28147 0
M  V30 8349 H 808.195 0.936106 -1.90659 0
M  V30 8350 H 810.458 0.473023 -0.821555 0
M  V30 8351 H 810.164 2.24252 -2.70931 0
M  V30 8352 H 810.038 3.47514 -1.46675 0
M  V30 8353 H 812.425 2.87168 -0.679617 0
M  V30 8354 H 812.506 1.64871 -1.95579 0
M  V30 8355 H 812.15 3.4784 -3.70095 0
M  V30 8356 H 812.08 4.68929 -2.3961 0
M  V30 8357 H 814.571 3.16226 -2.06904 0
M  V30 8358 H 814.884 6.10323 -4.74053 0
M  V30 8359 H 813.229 5.49306 -4.25779 0
M  V30 8360 H 816.42 3.87029 -2.63299 0
M  V30 8361 H 816.593 5.21153 -3.85102 0
M  V30 8362 N 809.999 0.752036 1.385 0
M  V30 8363 C 811.276 0.233075 1.94206 0
M  V30 8364 C 811.656 -1.26838 1.68746 0
M  V30 8365 O 811.004 -2.04214 1.02513 0
M  V30 8366 C 811.214 0.58509 3.44061 0
M  V30 8367 C 812.562 0.543871 4.21102 0
M  V30 8368 O 813.586 0.523291 3.52335 0
M  V30 8369 O 812.445 0.553436 5.4369 0
M  V30 8370 H 809.539 0.0483049 0.825588 0
M  V30 8371 H 812.085 0.832053 1.47902 0
M  V30 8372 H 810.857 1.62212 3.56094 0
M  V30 8373 H 810.48 -0.0419738 3.97578 0
M  V30 8374 N 811.477 -1.49425 0.500989 0
M  V30 8375 C 812.424 -2.29126 -0.277443 0
M  V30 8376 C 813.394 -1.35522 -0.960363 0
M  V30 8377 O 814.579 -1.64479 -0.967027 0
M  V30 8378 C 811.719 -3.18193 -1.33593 0
M  V30 8379 C 810.832 -4.26854 -0.664791 0
M  V30 8380 C 809.967 -5.03137 -1.70372 0
M  V30 8381 C 809.006 -6.03635 -1.01445 0
M  V30 8382 N 808.143 -6.73083 -1.99758 0
M  V30 8383 H 812.983 -2.95187 0.408458 0
M  V30 8384 H 810.52 -1.45546 0.213275 0
M  V30 8385 H 812.478 -3.68207 -1.96161 0
M  V30 8386 H 811.108 -2.54116 -1.9906 0
M  V30 8387 H 810.16 -3.80328 0.0741708 0
M  V30 8388 H 811.472 -4.9865 -0.122197 0
M  V30 8389 H 810.626 -5.5702 -2.40445 0
M  V30 8390 H 809.365 -4.31114 -2.28017 0
M  V30 8391 H 808.37 -5.48984 -0.299496 0
M  V30 8392 H 809.595 -6.77644 -0.444497 0
M  V30 8393 H 807.541 -6.03832 -2.56365 0
M  V30 8394 H 807.458 -7.40855 -1.50565 0
M  V30 8395 H 808.726 -7.3157 -2.69119 0
M  V30 8396 N 812.955 -0.234822 -1.55841 0
M  V30 8397 C 814.202 0.39326 -1.98645 0
M  V30 8398 C 814.53 1.58823 -1.12274 0
M  V30 8399 O 813.785 1.94954 -0.170731 0
M  V30 8400 C 814.084 0.858032 -3.46947 0
M  V30 8401 C 813.75 -0.227858 -4.50324 0
M  V30 8402 C 812.412 -0.526128 -4.78315 0
M  V30 8403 C 814.764 -0.961576 -5.12253 0
M  V30 8404 C 812.092 -1.5624 -5.65514 0
M  V30 8405 C 814.444 -1.98728 -6.00575 0
M  V30 8406 C 813.108 -2.29233 -6.26904 0
M  V30 8407 H 812.378 0.143904 -0.726892 0
M  V30 8408 H 815.025 -0.34012 -1.88455 0
M  V30 8409 H 813.33 1.67041 -3.54408 0
M  V30 8410 H 815.027 1.35407 -3.77447 0
M  V30 8411 H 811.617 0.0147624 -4.28597 0
M  V30 8412 H 815.801 -0.744388 -4.90686 0
M  V30 8413 H 811.057 -1.80422 -5.84173 0
M  V30 8414 H 815.231 -2.5608 -6.47608 0
M  V30 8415 H 812.858 -3.09671 -6.94268 0
M  V30 8416 N 814.433 1.57553 0.0384317 0
M  V30 8417 C 815.681 1.88468 0.729672 0
M  V30 8418 C 816.002 0.831302 1.76393 0
M  V30 8419 O 815.272 -0.13622 1.95426 0
M  V30 8420 H 813.852 0.695529 0.272485 0
M  V30 8421 H 816.514 1.94899 0.0066032 0
M  V30 8422 H 815.61 2.8705 1.22511 0
M  V30 8423 N 815.911 -0.310526 1.54511 0
M  V30 8424 C 817.188 -1.06593 1.64004 0
M  V30 8425 C 817.568 -2.05519 0.482216 0
M  V30 8426 O 816.916 -2.22455 -0.52212 0
M  V30 8427 C 817.126 -1.75627 3.01589 0
M  V30 8428 C 818.474 -2.28173 3.58081 0
M  V30 8429 O 819.498 -1.85674 3.03979 0
M  V30 8430 O 818.357 -3.06015 4.52788 0
M  V30 8431 H 815.451 -0.492109 0.664649 0
M  V30 8432 H 817.997 -0.309374 1.66856 0
M  V30 8433 H 816.769 -1.03743 3.77297 0
M  V30 8434 H 816.392 -2.58061 3.02473 0
M  V30 8435 N 817.389 -1.46805 -0.573248 0
M  V30 8436 C 818.352 -1.57655 -1.66366 0
M  V30 8437 C 819.352 -0.452905 -1.5429 0
M  V30 8438 O 820.542 -0.717502 -1.58737 0
M  V30 8439 C 817.674 -1.50584 -3.05839 0
M  V30 8440 H 818.867 -2.54842 -1.581 0
M  V30 8441 H 816.42 -1.34756 -0.791868 0
M  V30 8442 H 817.155 -0.547127 -3.19651 0
M  V30 8443 H 816.94 -2.32118 -3.16012 0
M  V30 8444 H 818.43 -1.61282 -3.85199 0
M  V30 8445 N 818.867 0.818669 -1.34668 0
M  V30 8446 C 820.113 1.57746 -1.27453 0
M  V30 8447 C 820.446 1.93588 0.154077 0
M  V30 8448 O 819.721 1.60371 1.10051 0
M  V30 8449 C 820.004 2.87414 -2.16945 0
M  V30 8450 C 819.857 2.58125 -3.68363 0
M  V30 8451 C 821.176 3.89021 -2.05792 0
M  V30 8452 H 818.295 0.572339 -0.464324 0
M  V30 8453 H 820.937 0.942784 -1.64959 0
M  V30 8454 H 819.087 3.41576 -1.85089 0
M  V30 8455 H 820.759 2.10239 -4.10606 0
M  V30 8456 H 819.002 1.91503 -3.89242 0
M  V30 8457 H 819.673 3.5061 -4.26353 0
M  V30 8458 H 822.149 3.44224 -2.33771 0
M  V30 8459 H 821.025 4.77548 -2.70628 0
M  V30 8460 H 821.286 4.29786 -1.03618 0
M  V30 8461 N 820.346 1.18468 1.03938 0
M  V30 8462 C 821.293 0.912859 2.1198 0
M  V30 8463 C 822.263 -0.14824 1.65437 0
M  V30 8464 O 823.448 -0.008331 1.90798 0
M  V30 8465 C 820.588 0.446114 3.42204 0
M  V30 8466 C 819.701 1.57278 4.02353 0
M  V30 8467 C 818.836 1.05863 5.20544 0
M  V30 8468 C 817.875 2.1599 5.72726 0
M  V30 8469 N 817.012 1.65959 6.82204 0
M  V30 8470 H 821.852 1.83798 2.34569 0
M  V30 8471 H 819.389 0.916504 1.15059 0
M  V30 8472 H 821.347 0.15697 4.16905 0
M  V30 8473 H 819.977 -0.442025 3.19759 0
M  V30 8474 H 819.029 1.97737 3.24968 0
M  V30 8475 H 820.341 2.40289 4.37107 0
M  V30 8476 H 819.495 0.724087 6.02364 0
M  V30 8477 H 818.234 0.198116 4.87297 0
M  V30 8478 H 817.239 2.50287 4.89527 0
M  V30 8479 H 818.464 3.02479 6.08016 0
M  V30 8480 H 816.41 0.82199 6.5083 0
M  V30 8481 H 816.327 2.42567 7.16029 0
M  V30 8482 H 817.595 1.35436 7.67644 0
M  V30 8483 N 821.824 -1.22873 0.986916 0
M  V30 8484 C 823.072 -1.91084 0.658121 0
M  V30 8485 C 823.393 -1.77304 -0.811675 0
M  V30 8486 O 822.663 -1.15649 -1.58121 0
M  V30 8487 H 821.243 -0.707251 0.240427 0
M  V30 8488 H 823.905 -1.49357 1.25213 0
M  V30 8489 H 823.001 -2.98373 0.915428 0
M  V30 8490 N 823.302 -0.75937 -1.38099 0
M  V30 8491 C 824.25 -0.124954 -2.32264 0
M  V30 8492 C 825.244 0.698863 -1.54312 0
M  V30 8493 O 826.45 0.597312 -1.698 0
M  V30 8494 H 822.825 -0.0216142 -0.751689 0
M  V30 8495 H 824.796 -0.935115 -2.83369 0
M  V30 8496 C 823.545 0.749463 -3.39527 0
M  V30 8497 H 822.868 0.124932 -3.99605 0
M  V30 8498 H 824.308 1.16055 -4.07808 0
M  V30 8499 C 822.767 1.89464 -2.78577 0
M  V30 8500 O 823.297 2.98923 -2.68343 0
M  V30 8501 N 821.503 1.69145 -2.36301 0
M  V30 8502 H 821.05 0.801157 -2.44825 0
M  V30 8503 H 821.008 2.45936 -1.95864 0
M  V30 8504 N 824.78 1.49157 -0.508906 0
M  V30 8505 C 825.71 2.32109 0.254469 0
M  V30 8506 C 826.691 1.40754 0.955111 0
M  V30 8507 O 827.876 1.69658 0.944983 0
M  V30 8508 C 825.006 3.21458 1.3146 0
M  V30 8509 C 823.96 4.2167 0.733368 0
M  V30 8510 C 823.286 5.00009 1.8946 0
M  V30 8511 C 824.586 5.21544 -0.280875 0
M  V30 8512 H 826.28 2.9618 -0.43795 0
M  V30 8513 H 823.826 1.4243 -0.212062 0
M  V30 8514 H 825.779 3.78305 1.85643 0
M  V30 8515 H 824.503 2.55346 2.03632 0
M  V30 8516 H 823.162 3.65979 0.213231 0
M  V30 8517 H 822.81 4.30338 2.60419 0
M  V30 8518 H 822.51 5.67821 1.51173 0
M  V30 8519 H 824.034 5.59702 2.44061 0
M  V30 8520 H 825.448 5.73039 0.173095 0
M  V30 8521 H 823.845 5.97291 -0.580006 0
M  V30 8522 H 824.915 4.69969 -1.19404 0
M  V30 8523 N 826.258 0.243083 1.55714 0
M  V30 8524 C 827.504 -0.383287 1.99145 0
M  V30 8525 C 827.837 -1.57868 1.13098 0
M  V30 8526 O 827.112 -1.93535 0.193509 0
M  V30 8527 C 827.395 -0.796879 3.51172 0
M  V30 8528 C 827.248 0.403642 4.47985 0
M  V30 8529 C 828.567 -1.64525 4.08191 0
M  V30 8530 H 825.686 -0.137843 0.723995 0
M  V30 8531 H 828.328 0.343631 1.86867 0
M  V30 8532 H 826.478 -1.41625 3.61766 0
M  V30 8533 H 828.15 1.04204 4.49376 0
M  V30 8534 H 826.393 1.04741 4.20965 0
M  V30 8535 H 827.064 0.0709794 5.51954 0
M  V30 8536 H 829.54 -1.12246 4.00674 0
M  V30 8537 H 828.416 -1.9035 5.14838 0
M  V30 8538 H 828.677 -2.61582 3.56409 0
M  V30 8539 N 827.736 -1.57571 -0.0300757 0
M  V30 8540 C 828.982 -1.89506 -0.722159 0
M  V30 8541 C 829.315 -0.840699 -1.7506 0
M  V30 8542 O 828.59 0.144358 -1.93964 0
M  V30 8543 C 828.873 -3.32081 -1.39262 0
M  V30 8544 C 828.726 -4.48211 -0.377768 0
M  V30 8545 C 830.045 -3.73557 -2.32687 0
M  V30 8546 H 827.164 -0.689213 -0.261064 0
M  V30 8547 H 829.806 -1.89994 0.0150388 0
M  V30 8548 H 827.956 -3.31796 -2.02098 0
M  V30 8549 H 829.628 -4.6063 0.248591 0
M  V30 8550 H 827.871 -4.3274 0.303045 0
M  V30 8551 H 828.542 -5.44854 -0.885347 0
M  V30 8552 H 831.018 -3.75202 -1.79896 0
M  V30 8553 H 829.894 -4.74125 -2.7658 0
M  V30 8554 H 830.155 -3.05759 -3.19317 0
M  V30 8555 N 829.214 0.302327 -1.54673 0
M  V30 8556 C 830.462 1.03565 -1.73547 0
M  V30 8557 C 830.783 1.87843 -0.523448 0
M  V30 8558 O 830.053 1.90367 0.462295 0
M  V30 8559 H 828.633 0.385358 -0.639928 0
M  V30 8560 H 831.295 0.333632 -1.92023 0
M  V30 8561 H 830.391 1.68952 -2.62415 0
M  V30 8562 N 830.692 1.47107 0.565454 0
M  V30 8563 C 831.92 1.56909 1.3486 0
M  V30 8564 C 832.335 0.216312 1.87557 0
M  V30 8565 O 831.692 -0.789168 1.64555 0
M  V30 8566 C 831.743 2.58776 2.52423 0
M  V30 8567 O 831.464 3.888 2.01906 0
M  V30 8568 C 832.965 2.78683 3.44747 0
M  V30 8569 H 830.185 0.530096 0.411387 0
M  V30 8570 H 832.729 1.92658 0.685782 0
M  V30 8571 H 830.884 2.25983 3.1466 0
M  V30 8572 H 831.298 4.44393 2.78595 0
M  V30 8573 H 832.772 3.53842 4.23674 0
M  V30 8574 H 833.249 1.86208 3.97773 0
M  V30 8575 H 833.855 3.12641 2.88333 0
M  V30 8576 N 832.17 -0.811516 1.35101 0
M  V30 8577 C 833.1 -1.9378 1.30275 0
M  V30 8578 C 834.081 -1.69165 0.178075 0
M  V30 8579 O 835.266 -1.90599 0.372256 0
M  V30 8580 C 832.396 -3.30439 1.06899 0
M  V30 8581 C 831.35 -3.69523 2.15955 0
M  V30 8582 C 830.676 -5.0429 1.77751 0
M  V30 8583 C 831.976 -3.80419 3.57881 0
M  V30 8584 H 833.67 -1.98075 2.24514 0
M  V30 8585 H 831.216 -0.951586 1.08078 0
M  V30 8586 H 833.169 -4.08828 1.02164 0
M  V30 8587 H 831.893 -3.26473 0.0910462 0
M  V30 8588 H 830.552 -2.93416 2.19778 0
M  V30 8589 H 830.2 -4.96823 0.785876 0
M  V30 8590 H 829.9 -5.31411 2.5075 0
M  V30 8591 H 831.424 -5.85125 1.74533 0
M  V30 8592 H 832.838 -4.49051 3.56407 0
M  V30 8593 H 831.235 -4.19005 4.29598 0
M  V30 8594 H 832.305 -2.82105 3.94391 0
M  V30 8595 N 833.648 -1.19017 -1.03309 0
M  V30 8596 C 834.873 -1.01598 -1.80811 0
M  V30 8597 C 835.298 0.430773 -1.83101 0
M  V30 8598 O 834.656 1.30946 -1.25391 0
M  V30 8599 C 834.704 -1.5845 -3.23923 0
M  V30 8600 O 833.808 -0.810972 -4.04348 0
M  V30 8601 H 833.149 -0.359398 -0.558327 0
M  V30 8602 H 835.679 -1.57945 -1.30055 0
M  V30 8603 H 835.689 -1.61486 -3.74682 0
M  V30 8604 H 834.364 -2.63752 -3.21571 0
M  V30 8605 H 832.941 -0.85353 -3.63 0
M  V30 8606 N 835.127 1.22348 -0.993418 0
M  V30 8607 C 836.373 1.91689 -0.680217 0
M  V30 8608 C 836.728 1.75912 0.779269 0
M  V30 8609 O 836.021 1.11761 1.55628 0
M  V30 8610 C 836.215 3.42477 -1.02197 0
M  V30 8611 C 836.044 3.72923 -2.51313 0
M  V30 8612 C 834.814 3.9291 -3.17726 0
M  V30 8613 C 837.012 3.7736 -3.49434 0
M  V30 8614 N 834.994 4.10672 -4.56313 0
M  V30 8615 C 836.365 4.00269 -4.73481 0
M  V30 8616 C 838.42 3.60211 -3.43733 0
M  V30 8617 C 837.123 4.0781 -5.92523 0
M  V30 8618 C 839.149 3.69011 -4.62152 0
M  V30 8619 C 838.511 3.92371 -5.85 0
M  V30 8620 H 834.61 0.722086 -0.300193 0
M  V30 8621 H 837.194 1.47273 -1.27353 0
M  V30 8622 H 835.365 3.85699 -0.457223 0
M  V30 8623 H 837.097 3.99204 -0.664702 0
M  V30 8624 H 833.852 3.90345 -2.68193 0
M  V30 8625 H 834.276 4.2348 -5.28199 0
M  V30 8626 H 838.918 3.41137 -2.49771 0
M  V30 8627 H 836.636 4.25688 -6.86888 0
M  V30 8628 H 840.222 3.5708 -4.59331 0
M  V30 8629 H 839.102 3.9901 -6.75101 0
M  V30 8630 N 836.605 0.766683 1.37694 0
M  V30 8631 C 838.016 0.394761 1.82479 0
M  V30 8632 C 838.367 -1.07842 1.63904 0
M  V30 8633 O 837.492 -1.83479 1.14737 0
M  V30 8634 C 838.087 0.70974 3.31283 0
M  V30 8635 C 836.646 0.390936 3.74364 0
M  V30 8636 C 835.793 0.956192 2.60293 0
M  V30 8637 H 838.744 0.961756 1.26238 0
M  V30 8638 H 838.765 -0.00742144 3.80499 0
M  V30 8639 H 838.277 1.782 3.4477 0
M  V30 8640 H 836.378 -0.674213 3.66449 0
M  V30 8641 H 836.491 0.895645 4.70654 0
M  V30 8642 H 834.855 0.380744 2.51838 0
M  V30 8643 H 835.638 2.03375 2.76575 0
M  V30 8644 N 838.083 -1.48885 0.516809 0
M  V30 8645 C 839.308 -2.0739 -0.0205201 0
M  V30 8646 C 839.733 -1.37259 -1.28614 0
M  V30 8647 O 839.091 -0.434304 -1.76021 0
M  V30 8648 C 839.139 -3.59793 -0.24104 0
M  V30 8649 O 838.243 -3.90957 -1.31251 0
M  V30 8650 H 837.584 -0.663167 0.0332564 0
M  V30 8651 H 840.114 -1.91477 0.720956 0
M  V30 8652 H 840.124 -4.0531 -0.467737 0
M  V30 8653 H 838.799 -4.10244 0.68356 0
M  V30 8654 H 837.376 -3.57234 -1.06951 0
M  V30 8655 N 839.561 -0.251338 -1.55583 0
M  V30 8656 C 840.972 0.25098 -1.85005 0
M  V30 8657 C 841.323 1.57259 -1.17321 0
M  V30 8658 O 840.448 2.11603 -0.453136 0
M  V30 8659 C 841.043 0.462161 -3.35633 0
M  V30 8660 C 839.602 0.908737 -3.65266 0
M  V30 8661 C 838.749 -0.0115418 -2.77298 0
M  V30 8662 H 841.7 -0.473782 -1.51463 0
M  V30 8663 H 841.721 1.30415 -3.57452 0
M  V30 8664 H 841.233 -0.499886 -3.84867 0
M  V30 8665 H 839.334 1.8831 -3.21512 0
M  V30 8666 H 839.447 0.762526 -4.72993 0
M  V30 8667 H 837.811 0.500612 -2.49732 0
M  V30 8668 H 838.594 -0.969042 -3.29339 0
M  V30 8669 N 841.039 1.57585 0.0217189 0
M  V30 8670 C 842.285 1.90733 0.706582 0
M  V30 8671 C 842.64 0.850732 1.7257 0
M  V30 8672 O 841.933 -0.139715 1.9109 0
M  V30 8673 C 842.127 3.28377 1.41079 0
M  V30 8674 C 841.956 4.47327 0.461395 0
M  V30 8675 C 840.726 5.05237 0.0797404 0
M  V30 8676 C 842.924 5.13626 -0.263302 0
M  V30 8677 N 840.906 6.07702 -0.870139 0
M  V30 8678 C 842.277 6.10722 -1.06859 0
M  V30 8679 C 844.332 4.96809 -0.329461 0
M  V30 8680 C 843.035 6.92813 -1.93397 0
M  V30 8681 C 845.061 5.79468 -1.18199 0
M  V30 8682 C 844.423 6.7614 -1.97519 0
M  V30 8683 H 840.522 0.74666 0.232427 0
M  V30 8684 H 843.106 1.94671 -0.0335228 0
M  V30 8685 H 841.277 3.25354 2.12131 0
M  V30 8686 H 843.009 3.49018 2.04862 0
M  V30 8687 H 839.764 4.71519 0.443498 0
M  V30 8688 H 840.188 6.6361 -1.33981 0
M  V30 8689 H 844.83 4.2194 0.269485 0
M  V30 8690 H 842.548 7.67022 -2.54369 0
M  V30 8691 H 846.134 5.68502 -1.23681 0
M  V30 8692 H 845.014 7.38989 -2.62421 0
M  V30 8693 N 842.517 -0.29412 1.54831 0
M  V30 8694 C 843.763 -1.02999 1.74697 0
M  V30 8695 C 844.096 -1.86687 0.534949 0
M  V30 8696 O 843.371 -1.88789 -0.467863 0
M  V30 8697 C 843.654 -1.93024 3.03996 0
M  V30 8698 C 843.507 -1.1247 4.35512 0
M  V30 8699 C 844.826 -2.92085 3.29203 0
M  V30 8700 H 841.945 -0.373039 0.635618 0
M  V30 8701 H 844.587 -0.304065 1.87551 0
M  V30 8702 H 842.737 -2.5492 2.93169 0
M  V30 8703 H 844.409 -0.528067 4.58268 0
M  V30 8704 H 842.652 -0.427574 4.31688 0
M  V30 8705 H 843.323 -1.78728 5.22265 0
M  V30 8706 H 845.799 -2.40319 3.39685 0
M  V30 8707 H 844.675 -3.52234 4.20978 0
M  V30 8708 H 844.936 -3.66107 2.47827 0
M  V30 8709 N 843.995 -1.47404 -0.557645 0
M  V30 8710 C 845.244 -1.53268 -1.31118 0
M  V30 8711 C 845.557 -0.199414 -1.94581 0
M  V30 8712 O 846.763 -0.136039 -2.71159 0
M  V30 8713 C 845.219 -2.70178 -2.37764 0
M  V30 8714 C 844.827 -4.10032 -1.80493 0
M  V30 8715 C 846.571 -2.85334 -3.14301 0
M  V30 8716 C 844.478 -5.18244 -2.84916 0
M  V30 8717 H 843.408 -0.570491 -0.493007 0
M  V30 8718 H 846.059 -1.73678 -0.592308 0
M  V30 8719 H 844.441 -2.43147 -3.12563 0
M  V30 8720 H 845.615 -4.46964 -1.12069 0
M  V30 8721 H 843.93 -3.99759 -1.16542 0
M  V30 8722 H 846.527 -3.63347 -3.92279 0
M  V30 8723 H 846.87 -1.93761 -3.68459 0
M  V30 8724 H 847.403 -3.12133 -2.46613 0
M  V30 8725 H 844.142 -6.11691 -2.35614 0
M  V30 8726 H 843.662 -4.85829 -3.51753 0
M  V30 8727 H 845.341 -5.45174 -3.48417 0
M  V30 8728 N 845.473 0.80434 -1.35529 0
M  V30 8729 C 846.719 1.56385 -1.29118 0
M  V30 8730 C 847.052 1.9374 0.133536 0
M  V30 8731 O 846.327 1.6153 1.08344 0
M  V30 8732 C 846.61 2.85097 -2.19981 0
M  V30 8733 C 846.463 2.54204 -3.7108 0
M  V30 8734 C 847.782 3.86817 -2.09907 0
M  V30 8735 H 844.901 0.567382 -0.470368 0
M  V30 8736 H 847.543 0.925235 -1.6595 0
M  V30 8737 H 845.693 3.39594 -1.88701 0
M  V30 8738 H 847.365 2.05872 -4.12813 0
M  V30 8739 H 845.608 1.87364 -3.91251 0
M  V30 8740 H 846.279 3.46068 -4.30048 0
M  V30 8741 H 848.755 3.41725 -2.37409 0
M  V30 8742 H 847.631 4.7465 -2.75678 0
M  V30 8743 H 847.892 4.28663 -1.08171 0
M  V30 8744 N 846.951 1.19563 1.02676 0
M  V30 8745 C 848.2 0.993864 1.75514 0
M  V30 8746 C 848.513 -0.475882 1.89723 0
M  V30 8747 O 849.719 -0.796525 2.59553 0
M  V30 8748 C 848.175 1.72937 3.15628 0
M  V30 8749 C 847.783 3.23937 3.09466 0
M  V30 8750 C 849.527 1.61092 3.92746 0
M  V30 8751 C 847.434 3.90067 4.44524 0
M  V30 8752 H 846.364 0.368244 0.657961 0
M  V30 8753 H 849.015 1.43081 1.14891 0
M  V30 8754 H 847.397 1.22025 3.76731 0
M  V30 8755 H 848.571 3.81983 2.57731 0
M  V30 8756 H 846.886 3.3608 2.45843 0
M  V30 8757 H 849.483 2.07848 4.92649 0
M  V30 8758 H 849.826 0.565415 4.12442 0
M  V30 8759 H 850.359 2.09361 3.3825 0
M  V30 8760 H 847.098 4.94725 4.30032 0
M  V30 8761 H 846.618 3.36809 4.96306 0
M  V30 8762 H 848.297 3.93736 5.13401 0
M  V30 8763 N 848.429 -1.21819 0.999893 0
M  V30 8764 C 849.677 -1.90375 0.678351 0
M  V30 8765 C 849.998 -1.78155 -0.792824 0
M  V30 8766 O 849.268 -1.17319 -1.56885 0
M  V30 8767 H 847.848 -0.704661 0.247915 0
M  V30 8768 H 850.51 -1.48021 1.2679 0
M  V30 8769 H 849.606 -2.97385 0.947023 0
M  V30 8770 N 849.908 -0.773975 -1.37286 0
M  V30 8771 C 851.133 -0.349561 -2.04433 0
M  V30 8772 C 851.558 1.02082 -1.5799 0
M  V30 8773 O 850.916 1.65458 -0.741172 0
M  V30 8774 C 850.964 -0.404292 -3.58326 0
M  V30 8775 O 850.068 0.594447 -4.08093 0
M  V30 8776 H 849.409 -0.150959 -0.646612 0
M  V30 8777 H 851.939 -1.05079 -1.75555 0
M  V30 8778 H 851.949 -0.262378 -4.07155 0
M  V30 8779 H 850.624 -1.40403 -3.91484 0
M  V30 8780 H 849.201 0.415468 -3.70578 0
M  V30 8781 N 851.386 1.48609 -0.524698 0
M  V30 8782 C 852.633 2.02497 0.0113214 0
M  V30 8783 C 852.961 1.40229 1.34781 0
M  V30 8784 O 852.216 0.53557 1.88229 0
M  V30 8785 C 852.515 3.56906 0.187873 0
M  V30 8786 C 852.181 4.37932 -1.07359 0
M  V30 8787 C 850.843 4.59792 -1.41933 0
M  V30 8788 C 853.195 4.84902 -1.911 0
M  V30 8789 C 850.523 5.25868 -2.60154 0
M  V30 8790 C 852.875 5.52281 -3.08495 0
M  V30 8791 C 851.539 5.7238 -3.4342 0
M  V30 8792 H 850.809 0.740988 0.0041428 0
M  V30 8793 H 853.456 1.78651 -0.689652 0
M  V30 8794 H 851.761 3.79563 0.971572 0
M  V30 8795 H 853.458 3.96218 0.617443 0
M  V30 8796 H 850.048 4.21175 -0.794331 0
M  V30 8797 H 854.232 4.67821 -1.65701 0
M  V30 8798 H 849.488 5.39628 -2.87422 0
M  V30 8799 H 853.662 5.87645 -3.73692 0
M  V30 8800 H 851.289 6.23354 -4.35126 0
M  V30 8801 N 852.864 0.259585 1.55447 0
M  V30 8802 C 854.111 -0.361607 1.99245 0
M  V30 8803 C 854.439 -1.57017 1.14787 0
M  V30 8804 O 853.694 -1.94658 0.201724 0
M  V30 8805 C 853.993 -0.802727 3.48269 0
M  V30 8806 C 853.659 0.299472 4.49904 0
M  V30 8807 C 852.321 0.602157 4.77418 0
M  V30 8808 C 854.673 1.04295 5.10658 0
M  V30 8809 C 852.001 1.65217 5.62957 0
M  V30 8810 C 854.353 2.08257 5.97337 0
M  V30 8811 C 853.017 2.39177 6.23178 0
M  V30 8812 H 852.287 -0.132322 0.72909 0
M  V30 8813 H 854.934 0.370059 1.8789 0
M  V30 8814 H 853.239 -1.61381 3.5702 0
M  V30 8815 H 854.936 -1.29385 3.79553 0
M  V30 8816 H 851.526 0.0534256 4.28567 0
M  V30 8817 H 855.71 0.822358 4.89439 0
M  V30 8818 H 850.966 1.89692 5.81229 0
M  V30 8819 H 855.14 2.6635 6.43452 0
M  V30 8820 H 852.767 3.20677 6.89253 0
M  V30 8821 N 854.342 -1.57594 -0.0133615 0
M  V30 8822 C 855.567 -1.94649 -0.715996 0
M  V30 8823 C 855.992 -0.860786 -1.67249 0
M  V30 8824 O 855.35 0.182228 -1.80382 0
M  V30 8825 C 855.398 -3.30789 -1.43566 0
M  V30 8826 O 854.502 -3.24148 -2.54955 0
M  V30 8827 H 853.843 -0.635801 -0.191449 0
M  V30 8828 H 856.373 -2.04569 0.0358478 0
M  V30 8829 H 856.383 -3.66045 -1.80208 0
M  V30 8830 H 855.058 -4.09367 -0.734263 0
M  V30 8831 H 853.635 -3.00548 -2.20739 0
M  V30 8832 N 855.82 0.285905 -1.54985 0
M  V30 8833 C 857.048 1.03776 -1.78992 0
M  V30 8834 C 857.463 1.80402 -0.556814 0
M  V30 8835 O 856.82 1.76242 0.473801 0
M  V30 8836 C 856.871 2.0065 -3.00702 0
M  V30 8837 O 856.592 1.27131 -4.19249 0
M  V30 8838 C 858.093 2.87753 -3.37214 0
M  V30 8839 H 855.313 0.307126 -0.596586 0
M  V30 8840 H 857.857 0.3206 -2.01971 0
M  V30 8841 H 856.012 2.67847 -2.79887 0
M  V30 8842 H 856.426 1.92316 -4.8797 0
M  V30 8843 H 857.9 3.51548 -4.2558 0
M  V30 8844 H 858.377 3.56848 -2.56039 0
M  V30 8845 H 858.983 2.26065 -3.60242 0
M  V30 8846 N 857.298 1.47698 0.54982 0
M  V30 8847 C 858.538 1.56286 1.31735 0
M  V30 8848 C 858.902 0.223042 1.907 0
M  V30 8849 O 860.103 0.183798 2.68171 0
M  V30 8850 C 858.374 2.65522 2.39234 0
M  V30 8851 S 859.933 2.93742 3.25977 0
M  V30 8852 H 856.751 0.551795 0.448378 0
M  V30 8853 H 859.353 1.85118 0.628629 0
M  V30 8854 H 858.057 3.61457 1.94362 0
M  V30 8855 H 857.588 2.38528 3.12838 0
M  V30 8856 H 859.603 2.31522 4.38876 0
M  V30 8857 N 858.776 -0.797141 1.35954 0
M  V30 8858 C 860.024 -1.55161 1.29497 0
M  V30 8859 C 860.345 -1.94582 -0.127659 0
M  V30 8860 O 859.615 -1.64343 -1.06622 0
M  V30 8861 H 858.195 -0.575413 0.47635 0
M  V30 8862 H 860.857 -0.950282 1.70164 0
M  V30 8863 H 859.953 -2.46272 1.9172 0
M  V30 8864 N 860.254 -1.20106 -1.0204 0
M  V30 8865 C 861.217 -0.948261 -2.08664 0
M  V30 8866 C 862.217 0.0746753 -1.60627 0
M  V30 8867 O 863.407 -0.160981 -1.73455 0
M  V30 8868 C 860.539 -0.426854 -3.38217 0
M  V30 8869 H 861.732 -1.894 -2.32524 0
M  V30 8870 H 859.285 -1.0159 -1.18782 0
M  V30 8871 H 860.02 0.524532 -3.2003 0
M  V30 8872 H 859.805 -1.16451 -3.74408 0
M  V30 8873 H 861.295 -0.269346 -4.1673 0
M  V30 8874 N 861.732 1.21287 -1.00634 0
M  V30 8875 C 862.98 1.90013 -0.688438 0
M  V30 8876 C 863.301 1.78573 0.783365 0
M  V30 8877 O 862.571 1.1815 1.56261 0
M  V30 8878 H 861.151 0.703336 -0.251648 0
M  V30 8879 H 863.813 1.47346 -1.27574 0
M  V30 8880 H 862.909 2.96879 -0.962781 0
M  V30 8881 N 863.21 0.781244 1.36873 0
M  V30 8882 C 864.14 0.188128 2.32741 0
M  V30 8883 C 865.121 -0.672326 1.56249 0
M  V30 8884 O 866.306 -0.607835 1.84442 0
M  V30 8885 C 863.436 -0.684341 3.40491 0
M  V30 8886 C 862.39 0.0755641 4.27933 0
M  V30 8887 C 861.716 -0.916968 5.26779 0
M  V30 8888 C 863.016 1.26006 5.06873 0
M  V30 8889 H 864.71 0.989016 2.82593 0
M  V30 8890 H 862.256 0.477038 1.35869 0
M  V30 8891 H 864.209 -1.10915 4.06541 0
M  V30 8892 H 862.933 -1.51785 2.89187 0
M  V30 8893 H 861.592 0.481258 3.63427 0
M  V30 8894 H 861.24 -1.74528 4.71751 0
M  V30 8895 H 860.94 -0.413 5.86147 0
M  V30 8896 H 862.464 -1.34052 5.95703 0
M  V30 8897 H 863.878 0.911425 5.66009 0
M  V30 8898 H 862.275 1.69676 5.75613 0
M  V30 8899 H 863.345 2.05948 4.38991 0
M  V30 8900 N 864.689 -1.48329 0.532571 0
M  V30 8901 C 865.621 -2.27652 -0.265931 0
M  V30 8902 C 866.634 -1.35522 -0.902083 0
M  V30 8903 O 867.823 -1.60552 -0.780088 0
M  V30 8904 C 864.923 -3.0899 -1.39207 0
M  V30 8905 C 864.096 -4.28915 -0.857349 0
M  V30 8906 C 863.155 -4.92044 -1.86493 0
M  V30 8907 O 862.181 -5.51181 -1.42084 0
M  V30 8908 N 863.383 -4.84518 -3.19723 0
M  V30 8909 H 866.148 -2.96821 0.414389 0
M  V30 8910 H 863.709 -1.57684 0.367066 0
M  V30 8911 H 865.701 -3.48091 -2.06433 0
M  V30 8912 H 864.271 -2.42224 -1.97601 0
M  V30 8913 H 863.491 -3.94199 -0.00901765 0
M  V30 8914 H 864.779 -5.0654 -0.479025 0
M  V30 8915 H 864.177 -4.37628 -3.58467 0
M  V30 8916 H 862.734 -5.27712 -3.82575 0
M  V30 8917 N 866.167 -0.267825 -1.55308 0
M  V30 8918 C 867.392 0.357487 -2.04296 0
M  V30 8919 C 867.817 1.49222 -1.14518 0
M  V30 8920 O 867.175 1.80741 -0.142292 0
M  V30 8921 C 867.223 0.822899 -3.51085 0
M  V30 8922 O 866.327 1.93078 -3.6441 0
M  V30 8923 H 865.668 0.075025 -0.659748 0
M  V30 8924 H 868.198 -0.399996 -2.00652 0
M  V30 8925 H 868.208 1.12059 -3.92309 0
M  V30 8926 H 866.883 -0.0073562 -4.15899 0
M  V30 8927 H 865.46 1.63618 -3.35087 0
M  V30 8928 N 867.645 1.57599 0.00500368 0
M  V30 8929 C 868.575 2.11143 0.99705 0
M  V30 8930 C 869.556 1.0194 1.3617 0
M  V30 8931 O 870.741 1.29596 1.44632 0
M  V30 8932 C 867.871 2.61062 2.2905 0
M  V30 8933 C 866.825 3.74745 2.0676 0
M  V30 8934 C 866.151 4.10961 3.42075 0
M  V30 8935 C 867.451 5.02222 1.43424 0
M  V30 8936 H 869.145 2.94281 0.551251 0
M  V30 8937 H 866.691 1.41565 0.263715 0
M  V30 8938 H 868.644 2.97146 2.98801 0
M  V30 8939 H 867.368 1.75038 2.75734 0
M  V30 8940 H 866.027 3.39047 1.39436 0
M  V30 8941 H 865.675 3.21968 3.86453 0
M  V30 8942 H 865.375 4.87549 3.27979 0
M  V30 8943 H 866.899 4.49599 4.1315 0
M  V30 8944 H 868.313 5.36109 2.03125 0
M  V30 8945 H 866.71 5.83581 1.39831 0
M  V30 8946 H 867.78 4.83224 0.40285 0
M  V30 8947 N 869.123 -0.277682 1.55134 0
M  V30 8948 C 870.351 -1.02826 1.7954 0
M  V30 8949 C 870.766 -1.80105 0.566373 0
M  V30 8950 O 870.123 -1.76491 -0.464448 0
M  V30 8951 C 870.174 -1.99053 3.01762 0
M  V30 8952 O 869.895 -1.24906 4.19917 0
M  V30 8953 C 871.396 -2.85961 3.38735 0
M  V30 8954 H 868.616 -0.303958 0.598206 0
M  V30 8955 H 871.16 -0.309884 2.02138 0
M  V30 8956 H 869.315 -2.66359 2.81303 0
M  V30 8957 H 869.729 -1.89725 4.88983 0
M  V30 8958 H 871.203 -3.49286 4.27438 0
M  V30 8959 H 871.68 -3.55486 2.57928 0
M  V30 8960 H 872.286 -2.24152 3.61436 0
M  V30 8961 N 870.601 -1.47988 -0.541979 0
M  V30 8962 C 871.849 -1.55086 -1.29587 0
M  V30 8963 C 872.17 -0.221304 -1.9374 0
M  V30 8964 O 871.44 0.756128 -1.80719 0
M  V30 8965 H 870.02 -0.571307 -0.481266 0
M  V30 8966 H 872.682 -1.8438 -0.631675 0
M  V30 8967 H 871.778 -2.32556 -2.08144 0
M  V30 8968 N 872.079 0.78992 -1.36375 0
M  V30 8969 C 873.042 1.88414 -1.30509 0
M  V30 8970 C 874.042 1.59384 -0.2129 0
M  V30 8971 O 875.232 1.67805 -0.467651 0
M  V30 8972 C 872.364 3.25188 -1.02302 0
M  V30 8973 H 873.557 1.95031 -2.27822 0
M  V30 8974 H 871.11 0.987664 -1.2114 0
M  V30 8975 H 871.845 3.24254 -0.0544486 0
M  V30 8976 H 871.63 3.47647 -1.81338 0
M  V30 8977 H 873.12 4.05252 -1.00801 0
M  V30 8978 N 873.557 1.20646 1.01402 0
M  V30 8979 C 874.968 1.01823 1.56489 0
M  V30 8980 C 875.319 -0.42463 1.9155 0
M  V30 8981 O 874.444 -1.30644 1.72514 0
M  V30 8982 C 875.039 1.84208 2.84347 0
M  V30 8983 C 873.598 1.69743 3.35953 0
M  V30 8984 C 872.745 1.8198 2.09233 0
M  V30 8985 H 875.696 1.348 0.837539 0
M  V30 8986 H 875.717 1.34698 3.55861 0
M  V30 8987 H 875.229 2.89215 2.58798 0
M  V30 8988 H 873.33 0.673833 3.66456 0
M  V30 8989 H 873.443 2.51173 4.07981 0
M  V30 8990 H 871.807 1.25193 2.21808 0
M  V30 8991 H 872.59 2.88477 1.86107 0
M  V30 8992 N 875.035 -1.20752 1.01276 0
M  V30 8993 C 876.451 -1.42084 0.726934 0
M  V30 8994 C 876.651 -1.89138 -0.694907 0
M  V30 8995 O 875.707 -2.05783 -1.4632 0
M  V30 8996 C 877.02 -2.44575 1.74938 0
M  V30 8997 C 878.568 -2.58347 1.76708 0
M  V30 8998 C 879.043 -3.64078 2.77869 0
M  V30 8999 N 880.534 -3.71558 2.76585 0
M  V30 9000 C 881.269 -4.53016 3.51517 0
M  V30 9001 N 880.765 -5.38309 4.36114 0
M  V30 9002 N 882.558 -4.47512 3.40132 0
M  V30 9003 H 874.709 -0.885228 1.93074 0
M  V30 9004 H 876.972 -0.451075 0.833808 0
M  V30 9005 H 876.678 -2.1699 2.76782 0
M  V30 9006 H 876.552 -3.43503 1.55838 0
M  V30 9007 H 878.939 -2.85265 0.755516 0
M  V30 9008 H 879.02 -1.59628 1.99882 0
M  V30 9009 H 878.664 -3.37905 3.79187 0
M  V30 9010 H 878.594 -4.62412 2.51958 0
M  V30 9011 H 881.085 -3.10629 2.15216 0
M  V30 9012 H 881.398 -5.9754 4.90068 0
M  V30 9013 H 879.743 -5.37824 4.40194 0
M  V30 9014 H 882.934 -3.79912 2.73467 0
M  V30 9015 H 883.107 -5.10759 3.98784 0
M  V30 9016 N 876.513 -0.788492 -1.36457 0
M  V30 9017 C 877.443 -0.200468 -2.32638 0
M  V30 9018 C 878.424 0.664031 -1.56603 0
M  V30 9019 O 879.609 0.598045 -1.84762 0
M  V30 9020 C 876.739 0.666274 -3.40849 0
M  V30 9021 C 875.693 -0.0982574 -4.27887 0
M  V30 9022 C 875.019 0.889018 -5.27258 0
M  V30 9023 C 876.319 -1.28692 -5.06197 0
M  V30 9024 H 878.013 -1.00399 -2.82065 0
M  V30 9025 H 875.559 -0.484237 -1.35614 0
M  V30 9026 H 877.512 1.08757 -4.07124 0
M  V30 9027 H 876.236 1.50249 -2.89987 0
M  V30 9028 H 874.895 -0.500525 -3.63167 0
M  V30 9029 H 874.543 1.72024 -4.7267 0
M  V30 9030 H 874.243 0.381909 -5.86358 0
M  V30 9031 H 875.767 1.30891 -5.96406 0
M  V30 9032 H 877.181 -0.941429 -5.65517 0
M  V30 9033 H 875.578 -1.72726 -5.74705 0
M  V30 9034 H 876.648 -2.08273 -4.37893 0
M  V30 9035 N 877.991 1.48044 -0.54043 0
M  V30 9036 C 878.921 2.32597 0.205178 0
M  V30 9037 C 879.902 1.42748 0.925041 0
M  V30 9038 O 881.087 1.71624 0.908784 0
M  V30 9039 C 878.217 3.24175 1.24612 0
M  V30 9040 C 877.171 4.23131 0.64376 0
M  V30 9041 C 876.497 5.03915 1.78812 0
M  V30 9042 C 877.797 5.20831 -0.39144 0
M  V30 9043 H 879.491 2.95184 -0.500676 0
M  V30 9044 H 877.037 1.41948 -0.242225 0
M  V30 9045 H 878.99 3.82158 1.77576 0
M  V30 9046 H 877.714 2.59608 1.98169 0
M  V30 9047 H 876.373 3.66349 0.135554 0
M  V30 9048 H 876.021 4.35765 2.51232 0
M  V30 9049 H 875.721 5.709 1.39094 0
M  V30 9050 H 877.245 5.64753 2.32134 0
M  V30 9051 H 878.659 5.73277 0.0515064 0
M  V30 9052 H 877.056 5.95926 -0.706569 0
M  V30 9053 H 878.126 4.6733 -1.29345 0
M  V30 9054 N 879.47 0.276058 1.55163 0
M  V30 9055 C 880.402 -0.644254 2.19959 0
M  V30 9056 C 881.415 -1.11675 1.18459 0
M  V30 9057 O 882.604 -1.0385 1.45181 0
M  V30 9058 C 879.704 -1.89093 2.81242 0
M  V30 9059 C 878.877 -1.56509 4.08441 0
M  V30 9060 C 877.936 -2.66433 4.53762 0
M  V30 9061 O 876.962 -2.32579 5.19515 0
M  V30 9062 N 878.164 -3.96509 4.23982 0
M  V30 9063 H 880.929 -0.0896808 2.99566 0
M  V30 9064 H 878.49 0.0971981 1.61608 0
M  V30 9065 H 880.482 -2.61929 3.08505 0
M  V30 9066 H 879.052 -2.35453 2.05622 0
M  V30 9067 H 878.272 -0.670522 3.88455 0
M  V30 9068 H 879.56 -1.32242 4.91314 0
M  V30 9069 H 878.958 -4.26834 3.71254 0
M  V30 9070 H 877.515 -4.6572 4.56014 0
M  V30 9071 N 880.948 -1.576 0.00335426 0
M  V30 9072 C 881.911 -2.07576 -0.971838 0
M  V30 9073 C 882.911 -0.985796 -1.27038 0
M  V30 9074 O 884.101 -1.24833 -1.21501 0
M  V30 9075 C 881.233 -2.52003 -2.29581 0
M  V30 9076 H 882.426 -2.95008 -0.539481 0
M  V30 9077 H 879.979 -1.54381 -0.244186 0
M  V30 9078 H 880.714 -1.67825 -2.77498 0
M  V30 9079 H 880.499 -3.31609 -2.09231 0
M  V30 9080 H 881.989 -2.90983 -2.99531 0
M  V30 9081 N 882.426 0.269451 -1.5528 0
M  V30 9082 C 883.675 0.998381 -1.75258 0
M  V30 9083 C 883.988 1.87321 -0.563034 0
M  V30 9084 O 885.194 2.63719 -0.645313 0
M  V30 9085 C 883.65 1.82505 -3.10193 0
M  V30 9086 C 883.258 0.99871 -4.36726 0
M  V30 9087 C 885.002 2.54807 -3.3952 0
M  V30 9088 C 882.909 1.81997 -5.627 0
M  V30 9089 H 881.839 0.376488 -0.653278 0
M  V30 9090 H 884.49 0.253909 -1.81735 0
M  V30 9091 H 882.872 2.61061 -2.97763 0
M  V30 9092 H 884.046 0.257064 -4.60082 0
M  V30 9093 H 882.361 0.390074 -4.14569 0
M  V30 9094 H 884.958 3.16662 -4.30847 0
M  V30 9095 H 885.301 3.25273 -2.59813 0
M  V30 9096 H 885.834 1.83278 -3.53064 0
M  V30 9097 H 882.573 1.15945 -6.45164 0
M  V30 9098 H 882.093 2.53749 -5.43481 0
M  V30 9099 H 883.772 2.39274 -6.0113 0
M  V30 9100 N 883.904 1.48273 0.534124 0
M  V30 9101 C 884.867 1.6201 1.62127 0
M  V30 9102 C 885.867 0.493653 1.53035 0
M  V30 9103 O 887.057 0.759337 1.56779 0
M  V30 9104 C 884.189 1.5864 3.01739 0
M  V30 9105 H 885.382 2.58944 1.51288 0
M  V30 9106 H 882.935 1.36808 0.755861 0
M  V30 9107 H 883.67 0.631685 3.18088 0
M  V30 9108 H 883.455 2.40415 3.09747 0
M  V30 9109 H 884.945 1.71438 3.80787 0
M  V30 9110 N 885.382 -0.782676 1.36792 0
M  V30 9111 C 886.329 -1.89558 1.31667 0
M  V30 9112 C 887.299 -1.65076 0.184147 0
M  V30 9113 O 888.484 -1.87143 0.371753 0
M  V30 9114 C 885.624 -3.26469 1.11858 0
M  V30 9115 C 884.737 -3.62978 2.34245 0
M  V30 9116 C 883.872 -4.89041 2.07394 0
M  V30 9117 C 882.911 -5.18249 3.25706 0
M  V30 9118 N 882.048 -6.35497 2.98476 0
M  V30 9119 H 886.888 -1.93274 2.26824 0
M  V30 9120 H 884.425 -0.945057 1.12726 0
M  V30 9121 H 886.383 -4.05431 0.983968 0
M  V30 9122 H 885.013 -3.22158 0.203531 0
M  V30 9123 H 884.065 -2.79087 2.58485 0
M  V30 9124 H 885.377 -3.80507 3.22514 0
M  V30 9125 H 884.531 -5.75883 1.90901 0
M  V30 9126 H 883.27 -4.73594 1.16446 0
M  V30 9127 H 882.275 -4.29887 3.4275 0
M  V30 9128 H 883.5 -5.35611 4.1749 0
M  V30 9129 H 881.446 -6.21429 2.10146 0
M  V30 9130 H 881.363 -6.5339 3.80286 0
M  V30 9131 H 882.631 -7.25304 2.85577 0
M  V30 9132 N 886.86 -1.21182 -1.00761 0
M  V30 9133 C 888.137 -0.936297 -1.71735 0
M  V30 9134 C 888.517 0.552585 -2.03739 0
M  V30 9135 O 887.865 1.51672 -1.70903 0
M  V30 9136 C 888.075 -1.81867 -2.97868 0
M  V30 9137 C 889.423 -2.06594 -3.7095 0
M  V30 9138 O 890.447 -1.79194 -3.07844 0
M  V30 9139 O 889.306 -2.5292 -4.84452 0
M  V30 9140 H 886.4 -0.350867 -0.74888 0
M  V30 9141 H 888.946 -1.32098 -1.06527 0
M  V30 9142 H 887.718 -2.82643 -2.70607 0
M  V30 9143 H 887.341 -1.43463 -3.70815 0
M  V30 9144 N 888.338 1.20213 -1.01915 0
M  V30 9145 C 889.286 2.25125 -0.584936 0
M  V30 9146 C 890.28 1.65138 0.377602 0
M  V30 9147 O 891.486 1.78294 0.247245 0
M  V30 9148 H 887.861 0.732333 -0.170858 0
M  V30 9149 H 889.832 2.59075 -1.48063 0
M  V30 9150 C 888.581 3.47651 0.058389 0
M  V30 9151 H 887.904 3.9409 -0.673263 0
M  V30 9152 H 889.344 4.2275 0.325285 0
M  V30 9153 C 887.803 3.10725 1.30199 0
M  V30 9154 O 888.333 3.22491 2.39505 0
M  V30 9155 N 886.539 2.6525 1.18706 0
M  V30 9156 H 886.086 2.55875 0.297618 0
M  V30 9157 H 886.044 2.40913 2.02011 0
M  V30 9158 N 889.816 0.795718 1.36037 0
M  V30 9159 C 891.065 0.367575 1.98322 0
M  V30 9160 C 891.378 -1.06823 1.63854 0
M  V30 9161 O 892.584 -1.59895 2.19421 0
M  V30 9162 C 891.04 0.606272 3.54757 0
M  V30 9163 C 890.648 2.0539 3.98144 0
M  V30 9164 C 892.392 0.242947 4.23804 0
M  V30 9165 C 890.299 2.23893 5.47381 0
M  V30 9166 H 889.229 0.133699 0.742052 0
M  V30 9167 H 891.88 0.978242 1.5525 0
M  V30 9168 H 890.262 -0.0741957 3.9593 0
M  V30 9169 H 891.436 2.77129 3.68152 0
M  V30 9170 H 889.751 2.37607 3.41953 0
M  V30 9171 H 892.348 0.359382 5.33491 0
M  V30 9172 H 892.691 -0.809661 4.08351 0
M  V30 9173 H 893.224 0.876899 3.88015 0
M  V30 9174 H 889.963 3.27559 5.6779 0
M  V30 9175 H 889.483 1.56666 5.78978 0
M  V30 9176 H 891.162 2.04914 6.13693 0
M  V30 9177 N 891.294 -1.47756 0.548274 0
M  V30 9178 C 892.543 -2.01691 0.0187961 0
M  V30 9179 C 892.856 -1.42894 -1.33569 0
M  V30 9180 O 894.062 -1.88438 -1.95457 0
M  V30 9181 C 892.518 -3.59896 -0.016847 0
M  V30 9182 C 892.126 -4.27683 1.33385 0
M  V30 9183 C 893.87 -4.21614 -0.494188 0
M  V30 9184 C 891.777 -5.7787 1.2578 0
M  V30 9185 H 890.707 -0.753993 0.00325648 0
M  V30 9186 H 893.358 -1.69838 0.694792 0
M  V30 9187 H 891.74 -3.88672 -0.758304 0
M  V30 9188 H 892.914 -4.10559 2.09232 0
M  V30 9189 H 891.229 -3.77915 1.7484 0
M  V30 9190 H 893.826 -5.3166 -0.569342 0
M  V30 9191 H 894.169 -3.88176 -1.50417 0
M  V30 9192 H 894.702 -3.97336 0.192138 0
M  V30 9193 H 891.441 -6.15912 2.2435 0
M  V30 9194 H 890.961 -5.97355 0.540997 0
M  V30 9195 H 892.64 -6.39897 0.956109 0
M  V30 9196 N 892.772 -0.284283 -1.55015 0
M  V30 9197 C 894.183 0.211681 -1.85496 0
M  V30 9198 C 894.534 1.54735 -1.2063 0
M  V30 9199 O 893.659 2.10594 -0.497918 0
M  V30 9200 C 894.254 0.390864 -3.36538 0
M  V30 9201 C 892.813 0.831055 -3.67111 0
M  V30 9202 C 891.96 -0.0703581 -2.77211 0
M  V30 9203 H 894.911 -0.505803 -1.50424 0
M  V30 9204 H 894.932 1.22803 -3.60138 0
M  V30 9205 H 894.444 -0.581409 -3.8372 0
M  V30 9206 H 892.545 1.81447 -3.25434 0
M  V30 9207 H 892.658 0.662026 -4.74504 0
M  V30 9208 H 891.022 0.447528 -2.50737 0
M  V30 9209 H 891.805 -1.03868 -3.2721 0
M  V30 9210 N 894.251 1.57596 -0.0117121 0
M  V30 9211 C 895.498 1.91071 0.670667 0
M  V30 9212 C 895.826 0.886457 1.73125 0
M  V30 9213 O 895.081 -0.107135 1.95407 0
M  V30 9214 C 895.38 3.31296 1.34082 0
M  V30 9215 C 895.046 4.49011 0.412305 0
M  V30 9216 C 893.708 4.80945 0.156691 0
M  V30 9217 C 896.06 5.20709 -0.226294 0
M  V30 9218 C 893.388 5.81943 -0.745619 0
M  V30 9219 C 895.74 6.22668 -1.11655 0
M  V30 9220 C 894.404 6.53053 -1.38123 0
M  V30 9221 H 893.674 0.69918 0.245415 0
M  V30 9222 H 896.321 1.91373 -0.0697511 0
M  V30 9223 H 894.626 3.27174 2.15557 0
M  V30 9224 H 896.323 3.54461 1.87506 0
M  V30 9225 H 892.913 4.24067 0.621705 0
M  V30 9226 H 897.097 4.96282 -0.0418456 0
M  V30 9227 H 892.353 6.03839 -0.958566 0
M  V30 9228 H 896.527 6.77351 -1.61767 0
M  V30 9229 H 894.154 7.31132 -2.08208 0
M  V30 9230 N 895.729 -0.261212 1.5542 0
M  V30 9231 C 896.659 -1.32712 1.92119 0
M  V30 9232 C 897.64 -1.50934 0.784406 0
M  V30 9233 O 898.825 -1.63781 1.04352 0
M  V30 9234 C 895.955 -2.68453 2.20341 0
M  V30 9235 C 894.909 -2.64947 3.36136 0
M  V30 9236 C 894.235 -4.04349 3.49865 0
M  V30 9237 C 895.535 -2.23182 4.72215 0
M  V30 9238 H 897.229 -1.02245 2.81401 0
M  V30 9239 H 894.775 -0.490406 1.35392 0
M  V30 9240 H 896.728 -3.43144 2.44603 0
M  V30 9241 H 895.452 -3.00527 1.27871 0
M  V30 9242 H 894.111 -1.92714 3.11861 0
M  V30 9243 H 893.759 -4.33665 2.5484 0
M  V30 9244 H 893.459 -4.02895 4.27726 0
M  V30 9245 H 894.983 -4.80761 3.76432 0
M  V30 9246 H 896.397 -2.87599 4.95943 0
M  V30 9247 H 894.794 -2.32867 5.53076 0
M  V30 9248 H 895.864 -1.18327 4.70241 0
M  V30 9249 N 897.207 -1.48554 -0.526253 0
M  V30 9250 C 898.623 -1.34757 -0.855138 0
M  V30 9251 C 898.823 -0.36142 -1.98232 0
M  V30 9252 O 897.879 0.216026 -2.51574 0
M  V30 9253 C 899.192 -2.74877 -1.21915 0
M  V30 9254 C 900.74 -2.83393 -1.32882 0
M  V30 9255 C 901.215 -4.24223 -1.72624 0
M  V30 9256 N 902.706 -4.26913 -1.7972 0
M  V30 9257 C 903.441 -5.32824 -2.11863 0
M  V30 9258 N 902.937 -6.49008 -2.42405 0
M  V30 9259 N 904.73 -5.20221 -2.12901 0
M  V30 9260 H 896.881 -2.11284 0.217422 0
M  V30 9261 H 899.144 -0.947367 0.0346362 0
M  V30 9262 H 898.85 -3.48619 -0.464486 0
M  V30 9263 H 898.724 -3.0864 -2.16844 0
M  V30 9264 H 901.111 -2.09904 -2.07424 0
M  V30 9265 H 901.192 -2.53245 -0.360638 0
M  V30 9266 H 900.836 -4.98229 -0.986411 0
M  V30 9267 H 900.766 -4.51817 -2.70498 0
M  V30 9268 H 903.257 -3.4311 -1.58379 0
M  V30 9269 H 903.57 -7.25561 -2.66048 0
M  V30 9270 H 901.915 -6.52277 -2.39917 0
M  V30 9271 H 905.106 -4.28469 -1.885 0
M  V30 9272 H 905.279 -6.02861 -2.37619 0
M  V30 9273 N 898.685 0.775411 -1.37205 0
M  V30 9274 C 899.931 1.53611 -1.32407 0
M  V30 9275 C 900.264 1.9398 0.0924103 0
M  V30 9276 O 899.539 1.63791 1.04893 0
M  V30 9277 C 899.822 2.80367 -2.25979 0
M  V30 9278 C 899.675 2.46275 -3.76389 0
M  V30 9279 C 900.994 3.82277 -2.18064 0
M  V30 9280 H 898.113 0.557278 -0.482297 0
M  V30 9281 H 900.755 0.889826 -1.67875 0
M  V30 9282 H 898.905 3.35515 -1.95862 0
M  V30 9283 H 900.577 1.9707 -4.17087 0
M  V30 9284 H 898.82 1.79023 -3.95137 0
M  V30 9285 H 899.491 3.36868 -4.37291 0
M  V30 9286 H 901.967 3.36613 -2.44604 0
M  V30 9287 H 900.843 4.68696 -2.85684 0
M  V30 9288 H 901.104 4.26272 -1.17239 0
M  V30 9289 N 900.163 1.21714 1.00117 0
M  V30 9290 C 901.41 1.0367 1.73951 0
M  V30 9291 C 901.738 -0.429289 1.89703 0
M  V30 9292 O 900.993 -1.33475 1.43119 0
M  V30 9293 C 901.292 1.68345 3.15269 0
M  V30 9294 C 900.958 3.18214 3.19454 0
M  V30 9295 C 899.62 3.59109 3.20303 0
M  V30 9296 C 901.972 4.14179 3.16394 0
M  V30 9297 C 899.3 4.94467 3.15783 0
M  V30 9298 C 901.652 5.49502 3.13416 0
M  V30 9299 C 900.316 5.8979 3.12577 0
M  V30 9300 H 899.586 0.379355 0.63653 0
M  V30 9301 H 902.233 1.51361 1.17312 0
M  V30 9302 H 900.538 1.12957 3.75164 0
M  V30 9303 H 902.235 1.51882 3.71124 0
M  V30 9304 H 898.825 2.85646 3.19538 0
M  V30 9305 H 903.009 3.83607 3.14895 0
M  V30 9306 H 898.265 5.24923 3.13473 0
M  V30 9307 H 902.439 6.23595 3.10003 0
M  V30 9308 H 900.066 6.94643 3.08829 0
M  V30 9309 N 901.641 -1.19671 1.02551 0
M  V30 9310 C 902.889 -1.88894 0.71858 0
M  V30 9311 C 903.21 -1.79797 -0.754856 0
M  V30 9312 O 902.48 -1.20621 -1.54362 0
M  V30 9313 H 901.06 -0.699244 0.262806 0
M  V30 9314 H 903.722 -1.45298 1.29902 0
M  V30 9315 H 902.818 -2.95309 1.00989 0
M  V30 9316 N 903.119 -0.802921 -1.35613 0
M  V30 9317 C 904.069 -0.183492 -2.2726 0
M  V30 9318 C 905.053 0.640527 -1.47601 0
M  V30 9319 O 906.245 0.498386 -1.69838 0
M  V30 9320 C 903.374 0.67003 -3.36698 0
M  V30 9321 C 902.46 -0.163517 -4.23785 0
M  V30 9322 N 902.851 -1.22472 -4.90749 0
M  V30 9323 C 901.149 0.0554547 -4.45966 0
M  V30 9324 C 901.85 -1.73329 -5.55276 0
M  V30 9325 N 900.826 -1.04033 -5.33552 0
M  V30 9326 H 904.628 -0.995525 -2.76526 0
M  V30 9327 H 902.142 -0.643714 -1.49098 0
M  V30 9328 H 904.139 1.12981 -4.01299 0
M  V30 9329 H 902.799 1.48045 -2.88986 0
M  V30 9330 H 903.81 -1.60733 -4.92327 0
M  V30 9331 H 900.487 0.835312 -4.09058 0
M  V30 9332 H 901.877 -2.62 -6.18713 0
M  V30 9333 N 904.597 1.47463 -0.556102 0
M  V30 9334 C 905.822 2.07371 -0.0344729 0
M  V30 9335 C 906.247 1.40621 1.2493 0
M  V30 9336 O 905.605 0.48082 1.74808 0
M  V30 9337 C 905.653 3.60306 0.145563 0
M  V30 9338 O 904.757 3.94299 1.20839 0
M  V30 9339 H 904.098 0.662052 -0.0508274 0
M  V30 9340 H 906.628 1.89498 -0.771469 0
M  V30 9341 H 906.638 4.06408 0.360112 0
M  V30 9342 H 905.313 4.08288 -0.792089 0
M  V30 9343 H 903.89 3.59944 0.97442 0
M  V30 9344 N 906.075 0.2925 1.54862 0
M  V30 9345 C 907.022 -0.587365 2.23201 0
M  V30 9346 C 907.992 -1.13623 1.21157 0
M  V30 9347 O 909.177 -1.18233 1.49752 0
M  V30 9348 C 906.317 -1.75745 2.96998 0
M  V30 9349 C 905.43 -1.24078 4.13798 0
M  V30 9350 C 904.565 -2.37405 4.75197 0
M  V30 9351 C 903.604 -1.82829 5.84157 0
M  V30 9352 N 902.741 -2.89696 6.39547 0
M  V30 9353 H 907.581 0.00202207 2.98 0
M  V30 9354 H 905.118 0.012766 1.47094 0
M  V30 9355 H 907.076 -2.44549 3.38011 0
M  V30 9356 H 905.706 -2.3186 2.24591 0
M  V30 9357 H 904.758 -0.445268 3.77785 0
M  V30 9358 H 906.07 -0.801186 4.92324 0
M  V30 9359 H 905.224 -3.14172 5.19019 0
M  V30 9360 H 903.963 -2.84688 3.95985 0
M  V30 9361 H 902.968 -1.04548 5.39768 0
M  V30 9362 H 904.193 -1.36461 6.65248 0
M  V30 9363 H 902.139 -3.36328 5.63222 0
M  V30 9364 H 902.056 -2.50206 7.13395 0
M  V30 9365 H 903.324 -3.66386 6.88027 0
M  V30 9366 N 907.553 -1.57587 0.0200696 0
M  V30 9367 C 908.516 -2.08595 -0.949767 0
M  V30 9368 C 909.516 -0.999215 -1.25985 0
M  V30 9369 O 910.706 -1.26115 -1.2017 0
M  V30 9370 C 907.838 -2.54424 -2.26895 0
M  V30 9371 H 909.031 -2.95563 -0.508161 0
M  V30 9372 H 906.584 -1.54631 -0.227798 0
M  V30 9373 H 907.319 -1.70758 -2.75703 0
M  V30 9374 H 907.104 -3.3381 -2.05702 0
M  V30 9375 H 908.594 -2.94144 -2.96427 0
M  V30 9376 N 909.032 0.252966 -1.55557 0
M  V30 9377 C 909.98 1.33289 -1.90622 0
M  V30 9378 C 910.974 1.50133 -0.784638 0
M  V30 9379 O 912.18 1.51679 -0.969196 0
M  V30 9380 H 908.555 0.446196 -0.605321 0
M  V30 9381 H 910.526 1.00977 -2.80796 0
M  V30 9382 C 909.275 2.68254 -2.21213 0
M  V30 9383 H 908.598 2.5609 -3.07014 0
M  V30 9384 H 910.038 3.42707 -2.49656 0
M  V30 9385 C 908.497 3.20884 -1.02642 0
M  V30 9386 O 909.027 4.00783 -0.271292 0
M  V30 9387 N 907.233 2.7883 -0.818682 0
M  V30 9388 H 906.78 2.13966 -1.43444 0
M  V30 9389 H 906.738 3.14388 -0.0269989 0
M  V30 9390 N 910.51 1.48831 0.518367 0
M  V30 9391 C 911.758 1.57128 1.27103 0
M  V30 9392 C 912.079 0.252098 1.93364 0
M  V30 9393 O 911.349 -0.727281 1.819 0
M  V30 9394 H 909.929 0.578891 0.472116 0
M  V30 9395 H 912.591 1.85361 0.602262 0
M  V30 9396 H 911.687 2.35838 2.04418 0
M  V30 9397 N 911.988 -0.768124 1.37614 0
M  V30 9398 C 912.898 -1.91249 1.35871 0
M  V30 9399 C 913.914 -1.7208 0.257786 0
M  V30 9400 O 915.09 -1.95253 0.493782 0
M  V30 9401 C 912.155 -3.26423 1.16829 0
M  V30 9402 C 911.216 -3.5822 2.36594 0
M  V30 9403 C 910.449 -4.86945 2.1845 0
M  V30 9404 O 910.672 -5.58258 1.17064 0
M  V30 9405 O 909.606 -5.17888 3.06718 0
M  V30 9406 H 913.432 -1.95671 2.32264 0
M  V30 9407 H 911.017 -0.911382 1.18382 0
M  V30 9408 H 912.899 -4.07269 1.08212 0
M  V30 9409 H 911.574 -3.22845 0.235123 0
M  V30 9410 H 910.481 -2.77594 2.50783 0
M  V30 9411 H 911.814 -3.66545 3.2849 0
M  V30 9412 N 913.466 -1.22244 -0.994698 0
M  V30 9413 C 914.877 -1.043 -1.5485 0
M  V30 9414 C 915.228 0.394102 -1.92201 0
M  V30 9415 O 914.353 1.27883 -1.74571 0
M  V30 9416 C 914.948 -1.88708 -2.8138 0
M  V30 9417 C 913.507 -1.75067 -3.3321 0
M  V30 9418 C 912.654 -1.85286 -2.06312 0
M  V30 9419 H 915.605 -1.36115 -0.815988 0
M  V30 9420 H 915.626 -1.40342 -3.53673 0
M  V30 9421 H 915.138 -2.93296 -2.54164 0
M  V30 9422 H 913.239 -0.732047 -3.65338 0
M  V30 9423 H 913.352 -2.57632 -4.03934 0
M  V30 9424 H 911.716 -1.28706 -2.19788 0
M  V30 9425 H 912.499 -2.91401 -1.81494 0
M  V30 9426 N 914.944 1.19125 -1.03184 0
M  V30 9427 C 916.172 1.92838 -0.74975 0
M  V30 9428 C 916.587 1.75667 0.691851 0
M  V30 9429 O 915.944 1.0805 1.47076 0
M  V30 9430 C 915.995 3.44509 -1.09525 0
M  V30 9431 O 915.716 3.6113 -2.48025 0
M  V30 9432 C 917.217 4.35338 -0.836397 0
M  V30 9433 H 914.437 0.61246 -0.274105 0
M  V30 9434 H 916.981 1.5118 -1.37712 0
M  V30 9435 H 915.136 3.83988 -0.513006 0
M  V30 9436 H 915.55 4.54959 -2.60984 0
M  V30 9437 H 917.024 5.4035 -1.12808 0
M  V30 9438 H 917.501 4.38602 0.229102 0
M  V30 9439 H 918.107 4.01544 -1.40152 0
M  V30 9440 N 916.422 0.810101 1.35185 0
M  V30 9441 C 917.668 0.401839 1.99391 0
M  V30 9442 C 918.023 -1.02059 1.63101 0
M  V30 9443 O 917.316 -1.69889 0.8859 0
M  V30 9444 C 917.51 0.526561 3.535 0
M  V30 9445 C 917.339 1.95956 4.04761 0
M  V30 9446 C 916.109 2.58869 4.33953 0
M  V30 9447 C 918.307 2.92459 4.23051 0
M  V30 9448 N 916.289 3.93542 4.71166 0
M  V30 9449 C 917.66 4.12011 4.633 0
M  V30 9450 C 919.715 2.89244 4.05268 0
M  V30 9451 C 918.418 5.28784 4.87627 0
M  V30 9452 C 920.444 4.05223 4.30753 0
M  V30 9453 C 919.806 5.23524 4.71277 0
M  V30 9454 H 915.905 0.194886 0.757327 0
M  V30 9455 H 918.489 1.05209 1.63827 0
M  V30 9456 H 916.66 -0.0937151 3.88287 0
M  V30 9457 H 918.392 0.0925434 4.04594 0
M  V30 9458 H 915.147 2.10198 4.24398 0
M  V30 9459 H 915.571 4.62889 4.94027 0
M  V30 9460 H 920.213 1.98932 3.73076 0
M  V30 9461 H 917.931 6.19666 5.18691 0
M  V30 9462 H 921.517 4.04121 4.18542 0
M  V30 9463 H 920.397 6.11776 4.90612 0
M  V30 9464 N 917.9 -1.47166 0.563914 0
M  V30 9465 C 918.863 -2.28571 -0.169624 0
M  V30 9466 C 919.863 -1.37331 -0.836467 0
M  V30 9467 O 921.053 -1.59896 -0.6913 0
M  V30 9468 C 918.185 -3.17201 -1.24886 0
M  V30 9469 H 919.378 -2.94896 0.545539 0
M  V30 9470 H 916.931 -1.52966 0.321121 0
M  V30 9471 H 917.666 -2.55582 -1.99621 0
M  V30 9472 H 917.451 -3.84356 -0.775426 0
M  V30 9473 H 918.941 -3.7852 -1.76388 0
M  V30 9474 N 919.378 -0.300708 -1.54705 0
M  V30 9475 C 920.308 0.568675 -2.26469 0
M  V30 9476 C 921.289 1.13817 -1.26411 0
M  V30 9477 O 922.474 1.16756 -1.55183 0
M  V30 9478 C 919.604 1.74077 -3.00524 0
M  V30 9479 C 918.558 1.30165 -4.07727 0
M  V30 9480 C 917.884 2.55888 -4.69495 0
M  V30 9481 C 919.184 0.433106 -5.20501 0
M  V30 9482 H 920.878 -0.0298851 -2.99385 0
M  V30 9483 H 918.424 -0.0158135 -1.43991 0
M  V30 9484 H 920.377 2.35506 -3.49449 0
M  V30 9485 H 919.101 2.36556 -2.25186 0
M  V30 9486 H 917.76 0.710414 -3.59651 0
M  V30 9487 H 917.408 3.16681 -3.90797 0
M  V30 9488 H 917.108 2.27207 -5.41895 0
M  V30 9489 H 918.632 3.18121 -5.21183 0
M  V30 9490 H 920.046 0.95307 -5.65322 0
M  V30 9491 H 918.443 0.240085 -5.9962 0
M  V30 9492 H 919.513 -0.541866 -4.81863 0
M  V30 9493 N 920.856 1.57574 -0.0284266 0
M  V30 9494 C 921.786 2.1321 0.952039 0
M  V30 9495 C 922.767 1.04806 1.33977 0
M  V30 9496 O 923.952 1.32635 1.41851 0
M  V30 9497 C 921.082 2.65862 2.23461 0
M  V30 9498 C 920.036 3.79047 1.98765 0
M  V30 9499 C 919.362 4.18124 3.33281 0
M  V30 9500 C 920.662 5.05151 1.32739 0
M  V30 9501 H 922.356 2.95385 0.488705 0
M  V30 9502 H 919.902 1.42092 0.233628 0
M  V30 9503 H 921.855 3.03417 2.92431 0
M  V30 9504 H 920.579 1.80848 2.71959 0
M  V30 9505 H 919.238 3.41929 1.32213 0
M  V30 9506 H 918.886 3.30092 3.79537 0
M  V30 9507 H 918.586 4.94396 3.17563 0
M  V30 9508 H 920.11 4.58262 4.0352 0
M  V30 9509 H 921.524 5.40297 1.91708 0
M  V30 9510 H 919.921 5.86416 1.27421 0
M  V30 9511 H 920.991 4.83969 0.300261 0
M  V30 9512 N 922.334 -0.244713 1.55689 0
M  V30 9513 C 923.264 -1.30667 1.93516 0
M  V30 9514 C 924.245 -1.50094 0.800371 0
M  V30 9515 O 925.43 -1.62665 1.06083 0
M  V30 9516 C 922.56 -2.66101 2.23176 0
M  V30 9517 C 921.514 -2.61366 3.38927 0
M  V30 9518 C 920.84 -4.00616 3.54134 0
M  V30 9519 C 922.14 -2.18161 4.74555 0
M  V30 9520 H 923.834 -0.992546 2.82469 0
M  V30 9521 H 921.38 -0.476018 1.35905 0
M  V30 9522 H 923.333 -3.4053 2.48228 0
M  V30 9523 H 922.057 -2.99154 1.31051 0
M  V30 9524 H 920.716 -1.89395 3.13887 0
M  V30 9525 H 920.364 -4.30938 2.59426 0
M  V30 9526 H 920.064 -3.98335 4.31975 0
M  V30 9527 H 921.588 -4.76741 3.8151 0
M  V30 9528 H 923.002 -2.82323 4.98965 0
M  V30 9529 H 921.399 -2.26988 5.55515 0
M  V30 9530 H 922.469 -1.13333 4.7147 0
M  V30 9531 N 923.813 -1.49104 -0.510467 0
M  V30 9532 C 925.041 -1.61806 -1.28944 0
M  V30 9533 C 925.456 -0.285774 -1.86625 0
M  V30 9534 O 924.813 0.727551 -1.67371 0
M  V30 9535 C 924.864 -2.67966 -2.42645 0
M  V30 9536 O 924.585 -3.96026 -1.87337 0
M  V30 9537 C 926.086 -2.91286 -3.34166 0
M  V30 9538 H 923.306 -0.544999 -0.391429 0
M  V30 9539 H 925.85 -1.95071 -0.613805 0
M  V30 9540 H 924.005 -2.37505 -3.06056 0
M  V30 9541 H 924.419 -4.54427 -2.61909 0
M  V30 9542 H 925.893 -3.69323 -4.1025 0
M  V30 9543 H 926.37 -2.00842 -3.90588 0
M  V30 9544 H 926.976 -3.23127 -2.76531 0
M  V30 9545 N 925.291 0.760815 -1.38019 0
M  V30 9546 C 926.254 1.85604 -1.34476 0
M  V30 9547 C 927.254 1.58897 -0.24666 0
M  V30 9548 O 928.444 1.66776 -0.50314 0
M  V30 9549 C 925.576 3.22945 -1.09176 0
M  V30 9550 H 926.769 1.90155 -2.31908 0
M  V30 9551 H 924.322 0.961746 -1.23208 0
M  V30 9552 H 925.057 3.24066 -0.123216 0
M  V30 9553 H 924.842 3.43723 -1.88672 0
M  V30 9554 H 926.332 4.03022 -1.09375 0
M  V30 9555 N 926.769 1.22769 0.988202 0
M  V30 9556 C 927.732 1.00325 2.06076 0
M  V30 9557 C 928.732 -0.0320618 1.60768 0
M  V30 9558 O 929.922 0.206912 1.72967 0
M  V30 9559 C 927.054 0.516376 3.36966 0
M  V30 9560 H 928.247 1.95499 2.27421 0
M  V30 9561 H 925.8 1.04704 1.16047 0
M  V30 9562 H 926.535 -0.439498 3.21308 0
M  V30 9563 H 926.32 1.26337 3.71189 0
M  V30 9564 H 927.81 0.37974 4.1587 0
M  V30 9565 N 928.247 -1.18576 1.03814 0
M  V30 9566 C 929.496 -1.87822 0.735235 0
M  V30 9567 C 929.809 -1.81069 -0.739819 0
M  V30 9568 O 931.015 -2.45654 -1.15614 0
M  V30 9569 C 929.471 -3.36941 1.26486 0
M  V30 9570 C 929.079 -3.5223 2.76836 0
M  V30 9571 C 930.823 -4.11604 1.03836 0
M  V30 9572 C 928.73 -4.95294 3.23169 0
M  V30 9573 H 927.66 -0.703487 0.271333 0
M  V30 9574 H 930.311 -1.34 1.25365 0
M  V30 9575 H 928.693 -3.90217 0.674318 0
M  V30 9576 H 929.867 -3.09239 3.41625 0
M  V30 9577 H 928.182 -2.90969 2.97869 0
M  V30 9578 H 930.779 -5.17123 1.3597 0
M  V30 9579 H 931.122 -4.16293 -0.0244945 0
M  V30 9580 H 931.655 -3.64494 1.59338 0
M  V30 9581 H 928.394 -4.95772 4.28824 0
M  V30 9582 H 927.914 -5.3901 2.63113 0
M  V30 9583 H 929.593 -5.63996 3.17045 0
M  V30 9584 N 929.725 -0.817259 -1.34754 0
M  V30 9585 C 930.688 -0.240611 -2.27934 0
M  V30 9586 C 931.688 0.578219 -1.50044 0
M  V30 9587 O 932.878 0.395148 -1.69659 0
M  V30 9588 C 930.01 0.663318 -3.34384 0
M  V30 9589 H 931.203 -1.06257 -2.80445 0
M  V30 9590 H 928.756 -0.588697 -1.4479 0
M  V30 9591 H 929.491 1.50855 -2.87077 0
M  V30 9592 H 929.276 0.0777388 -3.92023 0
M  V30 9593 H 930.766 1.06076 -4.03903 0
M  V30 9594 N 931.203 1.46865 -0.571711 0
M  V30 9595 C 932.113 2.33979 0.170571 0
M  V30 9596 C 933.129 1.49083 0.897239 0
M  V30 9597 O 934.305 1.81979 0.862888 0
M  V30 9598 C 931.37 3.26063 1.17831 0
M  V30 9599 C 930.431 4.26855 0.457499 0
M  V30 9600 C 929.664 5.14539 1.41722 0
M  V30 9601 O 929.887 5.04945 2.65305 0
M  V30 9602 O 928.821 5.94612 0.9338 0
M  V30 9603 H 932.647 2.98781 -0.544396 0
M  V30 9604 H 930.232 1.4566 -0.332198 0
M  V30 9605 H 932.114 3.82903 1.75965 0
M  V30 9606 H 930.789 2.63871 1.87493 0
M  V30 9607 H 929.696 3.73734 -0.165406 0
M  V30 9608 H 931.029 4.91802 -0.197953 0
M  V30 9609 N 932.681 0.308908 1.54543 0
M  V30 9610 C 933.611 -0.556657 2.26768 0
M  V30 9611 C 934.592 -1.13145 1.27013 0
M  V30 9612 O 935.777 -1.15931 1.558 0
M  V30 9613 C 932.907 -1.72481 3.01443 0
M  V30 9614 C 931.861 -1.28001 4.08411 0
M  V30 9615 C 931.187 -2.53395 4.70845 0
M  V30 9616 C 932.487 -0.405497 5.20724 0
M  V30 9617 H 934.181 0.0457618 2.99365 0
M  V30 9618 H 931.727 0.0234495 1.43981 0
M  V30 9619 H 933.68 -2.3365 3.50693 0
M  V30 9620 H 932.404 -2.35359 2.26437 0
M  V30 9621 H 931.063 -0.69133 3.60022 0
M  V30 9622 H 930.711 -3.14604 3.92471 0
M  V30 9623 H 930.411 -2.2433 5.43093 0
M  V30 9624 H 931.935 -3.15352 5.22863 0
M  V30 9625 H 933.349 -0.923076 5.6582 0
M  V30 9626 H 931.746 -0.208282 5.99738 0
M  V30 9627 H 932.816 0.567412 4.81569 0
M  V30 9628 N 934.159 -1.57557 0.0367827 0
M  V30 9629 C 935.407 -1.91735 -0.63892 0
M  V30 9630 C 935.728 -0.914515 -1.72226 0
M  V30 9631 O 934.998 0.0428248 -1.95853 0
M  V30 9632 H 933.578 -0.707738 -0.23899 0
M  V30 9633 H 936.24 -1.94708 0.0863931 0
M  V30 9634 H 935.336 -2.92568 -1.08676 0
M  V30 9635 N 935.637 0.236453 -1.55816 0
M  V30 9636 C 936.886 0.960981 -1.77336 0
M  V30 9637 C 937.199 1.86085 -0.602641 0
M  V30 9638 O 938.405 2.62291 -0.701106 0
M  V30 9639 C 936.861 1.75884 -3.13995 0
M  V30 9640 C 936.469 0.905849 -4.38746 0
M  V30 9641 C 938.213 2.47548 -3.44848 0
M  V30 9642 C 936.12 1.7002 -5.66434 0
M  V30 9643 H 935.05 0.362547 -0.661117 0
M  V30 9644 H 937.701 0.215303 -1.82233 0
M  V30 9645 H 936.083 2.54687 -3.03234 0
M  V30 9646 H 937.257 0.159415 -4.60524 0
M  V30 9647 H 935.572 0.30205 -4.15303 0
M  V30 9648 H 938.169 3.07452 -4.37467 0
M  V30 9649 H 938.512 3.19689 -2.66655 0
M  V30 9650 H 939.045 1.75747 -3.56872 0
M  V30 9651 H 935.784 1.02234 -6.47479 0
M  V30 9652 H 935.304 2.42164 -5.48741 0
M  V30 9653 H 936.983 2.26469 -6.0607 0
M  V30 9654 N 937.115 1.49373 0.502552 0
M  V30 9655 C 938.045 1.68839 1.61294 0
M  V30 9656 C 939.026 0.537096 1.61398 0
M  V30 9657 O 940.211 0.772764 1.78163 0
M  V30 9658 C 937.341 1.75347 2.99784 0
M  V30 9659 C 936.295 2.90251 3.14545 0
M  V30 9660 C 935.621 2.8187 4.54371 0
M  V30 9661 C 936.921 4.31207 2.94717 0
M  V30 9662 H 938.615 2.61803 1.45257 0
M  V30 9663 H 936.161 1.25987 0.697371 0
M  V30 9664 H 938.114 1.87552 3.77362 0
M  V30 9665 H 936.838 0.789814 3.16906 0
M  V30 9666 H 935.497 2.77646 2.39392 0
M  V30 9667 H 935.145 1.83416 4.68367 0
M  V30 9668 H 934.845 3.5899 4.65188 0
M  V30 9669 H 936.369 2.96081 5.34012 0
M  V30 9670 H 937.783 4.44501 3.62065 0
M  V30 9671 H 936.18 5.09536 3.17007 0
M  V30 9672 H 937.25 4.45759 1.90857 0
M  V30 9673 N 938.594 -0.753485 1.38421 0
M  V30 9674 C 939.843 -1.50797 1.33952 0
M  V30 9675 C 940.156 -1.95482 -0.0678464 0
M  V30 9676 O 941.362 -2.7048 -0.235078 0
M  V30 9677 C 939.818 -2.72393 2.35224 0
M  V30 9678 C 939.426 -2.34733 3.81582 0
M  V30 9679 C 941.17 -3.50281 2.39798 0
M  V30 9680 C 939.077 -3.52939 4.7454 0
M  V30 9681 H 938.007 -0.566211 0.497916 0
M  V30 9682 H 940.658 -0.823659 1.63976 0
M  V30 9683 H 939.04 -3.42806 1.98243 0
M  V30 9684 H 940.214 -1.71985 4.27502 0
M  V30 9685 H 938.529 -1.69978 3.80127 0
M  V30 9686 H 941.126 -4.38172 3.06447 0
M  V30 9687 H 941.469 -3.91444 1.41695 0
M  V30 9688 H 942.002 -2.86881 2.75579 0
M  V30 9689 H 938.741 -3.16843 5.73839 0
M  V30 9690 H 938.261 -4.1473 4.33312 0
M  V30 9691 H 939.94 -4.19519 4.92557 0
M  V30 9692 N 940.072 -1.23292 -0.981677 0
M  V30 9693 C 941.035 -1.01417 -2.05542 0
M  V30 9694 C 942.035 0.0235354 -1.60783 0
M  V30 9695 O 943.225 -0.216082 -1.72855 0
M  V30 9696 C 940.357 -0.534239 -3.36688 0
M  V30 9697 H 941.55 -1.96702 -2.26381 0
M  V30 9698 H 939.103 -1.05318 -1.1549 0
M  V30 9699 H 939.838 0.422452 -3.21537 0
M  V30 9700 H 939.623 -1.28304 -3.70514 0
M  V30 9701 H 941.113 -0.40179 -4.15663 0
M  V30 9702 N 941.55 1.18024 -1.04442 0
M  V30 9703 C 942.775 1.92573 -0.770097 0
M  V30 9704 C 943.2 1.75871 0.667169 0
M  V30 9705 O 942.558 1.07136 1.46258 0
M  V30 9706 C 942.606 3.41904 -1.14602 0
M  V30 9707 O 941.71 4.11491 -0.273712 0
M  V30 9708 H 941.051 0.600636 -0.283076 0
M  V30 9709 H 943.581 1.49645 -1.39526 0
M  V30 9710 H 943.591 3.92623 -1.10956 0
M  V30 9711 H 942.266 3.53382 -2.19304 0
M  V30 9712 H 940.843 3.71059 -0.370124 0
M  V30 9713 N 943.028 0.824394 1.34319 0
M  V30 9714 C 943.958 0.262077 2.32025 0
M  V30 9715 C 944.939 -0.622277 1.58309 0
M  V30 9716 O 946.124 -0.548848 1.86283 0
M  V30 9717 C 943.254 -0.57567 3.42496 0
M  V30 9718 C 942.208 0.21167 4.27476 0
M  V30 9719 C 941.534 -0.748913 5.29429 0
M  V30 9720 C 942.834 1.42068 5.02607 0
M  V30 9721 H 944.528 1.07842 2.79304 0
M  V30 9722 H 942.074 0.520022 1.34282 0
M  V30 9723 H 944.027 -0.979251 4.09864 0
M  V30 9724 H 942.751 -1.42508 2.93869 0
M  V30 9725 H 941.41 0.596636 3.61712 0
M  V30 9726 H 941.058 -1.59432 4.77064 0
M  V30 9727 H 940.758 -0.226313 5.87164 0
M  V30 9728 H 942.282 -1.15032 5.99667 0
M  V30 9729 H 943.696 1.09103 5.62823 0
M  V30 9730 H 942.093 1.87903 5.69923 0
M  V30 9731 H 943.163 2.1981 4.32217 0
M  V30 9732 N 944.506 -1.46559 0.579492 0
M  V30 9733 C 945.783 -1.956 -0.00287136 0
M  V30 9734 C 946.163 -1.52215 -1.46266 0
M  V30 9735 O 945.511 -0.771335 -2.15088 0
M  V30 9736 C 945.721 -3.48606 0.165824 0
M  V30 9737 C 947.069 -4.24588 0.0319807 0
M  V30 9738 O 948.093 -3.56075 0.094496 0
M  V30 9739 O 946.952 -5.46396 -0.106386 0
M  V30 9740 H 944.046 -0.825387 -0.0516274 0
M  V30 9741 H 946.592 -1.56858 0.647584 0
M  V30 9742 H 945.364 -3.7306 1.18076 0
M  V30 9743 H 944.987 -3.94169 -0.521212 0
M  V30 9744 N 945.984 -0.3171 -1.54377 0
M  V30 9745 C 946.914 0.544623 -2.2706 0
M  V30 9746 C 947.895 1.12469 -1.27611 0
M  V30 9747 O 949.08 1.15103 -1.56413 0
M  V30 9748 C 946.21 1.70879 -3.02353 0
M  V30 9749 C 945.164 1.25833 -4.09084 0
M  V30 9750 C 944.49 2.50894 -4.72182 0
M  V30 9751 C 945.79 0.377876 -5.20931 0
M  V30 9752 H 947.484 -0.0616372 -2.99337 0
M  V30 9753 H 945.03 -0.0310848 -1.43966 0
M  V30 9754 H 946.983 2.31787 -3.51927 0
M  V30 9755 H 945.707 2.34155 -2.27682 0
M  V30 9756 H 944.366 0.672228 -3.60384 0
M  V30 9757 H 944.014 3.12518 -3.94134 0
M  V30 9758 H 943.714 2.21447 -5.44275 0
M  V30 9759 H 945.238 3.12575 -5.24528 0
M  V30 9760 H 946.652 0.893056 -5.66302 0
M  V30 9761 H 945.049 0.176474 -5.9984 0
M  V30 9762 H 946.119 -0.592943 -4.81261 0
M  V30 9763 N 947.462 1.57535 -0.0451378 0
M  V30 9764 C 948.708 1.92736 0.630921 0
M  V30 9765 C 949.041 0.923265 1.70849 0
M  V30 9766 O 948.316 -0.0516512 1.94431 0
M  V30 9767 C 948.599 3.38348 1.23259 0
M  V30 9768 C 948.452 4.49503 0.16349 0
M  V30 9769 C 949.771 3.84233 2.14599 0
M  V30 9770 H 946.89 0.700884 0.227883 0
M  V30 9771 H 949.532 1.89706 -0.10567 0
M  V30 9772 H 947.682 3.41061 1.86037 0
M  V30 9773 H 949.354 4.58919 -0.46808 0
M  V30 9774 H 947.597 4.30802 -0.509166 0
M  V30 9775 H 948.268 5.48457 0.624382 0
M  V30 9776 H 950.744 3.83358 1.6179 0
M  V30 9777 H 949.62 4.86781 2.53644 0
M  V30 9778 H 949.881 3.20646 3.04366 0
M  V30 9779 N 948.94 -0.228186 1.55939 0
M  V30 9780 C 949.903 -1.26621 1.91049 0
M  V30 9781 C 950.903 -1.40141 0.788491 0
M  V30 9782 O 952.093 -1.3852 1.05631 0
M  V30 9783 C 949.225 -2.64108 2.15545 0
M  V30 9784 H 950.418 -0.966978 2.83883 0
M  V30 9785 H 947.971 -0.468313 1.49119 0
M  V30 9786 H 948.706 -2.99141 1.25241 0
M  V30 9787 H 948.491 -2.55673 2.97277 0
M  V30 9788 H 949.981 -3.39025 2.43827 0
M  V30 9789 N 950.418 -1.49637 -0.494624 0
M  V30 9790 C 951.829 -1.52573 -1.07603 0
M  V30 9791 C 952.18 -0.315591 -1.93645 0
M  V30 9792 O 951.305 0.573966 -2.08649 0
M  V30 9793 C 951.9 -2.7648 -1.95817 0
M  V30 9794 C 950.459 -2.82173 -2.49109 0
M  V30 9795 C 949.606 -2.4657 -1.2688 0
M  V30 9796 H 952.557 -1.56242 -0.278251 0
M  V30 9797 H 952.578 -2.57003 -2.80588 0
M  V30 9798 H 952.09 -3.64538 -1.33167 0
M  V30 9799 H 950.191 -1.9841 -3.15379 0
M  V30 9800 H 950.304 -3.84501 -2.85825 0
M  V30 9801 H 948.668 -1.98489 -1.59607 0
M  V30 9802 H 949.451 -3.3691 -0.659281 0
M  V30 9803 N 951.896 0.746133 -1.38819 0
M  V30 9804 C 953.145 1.50085 -1.34749 0
M  V30 9805 C 953.458 1.95516 0.0574786 0
M  V30 9806 O 954.664 2.70601 0.22073 0
M  V30 9807 C 953.12 2.71141 -2.36665 0
M  V30 9808 C 952.728 2.32706 -3.82821 0
M  V30 9809 C 954.472 3.49005 -2.41652 0
M  V30 9810 C 952.379 3.50418 -4.76405 0
M  V30 9811 H 951.309 0.563563 -0.500912 0
M  V30 9812 H 953.96 0.814951 -1.6441 0
M  V30 9813 H 952.342 3.4175 -2.00058 0
M  V30 9814 H 953.516 1.69715 -4.28408 0
M  V30 9815 H 951.831 1.67959 -3.81023 0
M  V30 9816 H 954.428 4.36541 -3.08766 0
M  V30 9817 H 954.771 3.90687 -1.43769 0
M  V30 9818 H 955.304 2.85416 -2.77097 0
M  V30 9819 H 952.043 3.13795 -5.75511 0
M  V30 9820 H 951.563 4.12426 -4.35505 0
M  V30 9821 H 953.242 4.16901 -4.94775 0
M  V30 9822 N 953.375 1.23811 0.975125 0
M  V30 9823 C 954.305 1.04846 2.08638 0
M  V30 9824 C 955.286 -0.0362859 1.70061 0
M  V30 9825 O 956.471 0.12937 1.93769 0
M  V30 9826 C 953.601 0.644534 3.41267 0
M  V30 9827 C 952.555 1.67722 3.93768 0
M  V30 9828 C 951.881 1.12857 5.22654 0
M  V30 9829 C 953.181 3.07147 4.22443 0
M  V30 9830 H 954.875 1.97795 2.24761 0
M  V30 9831 H 952.421 0.952397 1.08006 0
M  V30 9832 H 954.374 0.498887 4.18436 0
M  V30 9833 H 953.098 -0.320641 3.25022 0
M  V30 9834 H 951.757 1.81095 3.18748 0
M  V30 9835 H 951.405 0.154227 5.02764 0
M  V30 9836 H 951.105 1.81862 5.58749 0
M  V30 9837 H 952.629 0.994891 6.0244 0
M  V30 9838 H 954.043 2.97045 4.90344 0
M  V30 9839 H 952.44 3.73437 4.6975 0
M  V30 9840 H 953.51 3.55743 3.29507 0
M  V30 9841 N 954.853 -1.17469 1.05066 0
M  V30 9842 C 956.078 -1.92162 0.780298 0
M  V30 9843 C 956.503 -1.76222 -0.657832 0
M  V30 9844 O 955.861 -1.0791 -1.45688 0
M  V30 9845 C 955.909 -3.41292 1.16414 0
M  V30 9846 O 955.013 -4.1134 0.295531 0
M  V30 9847 H 954.354 -0.599127 0.286257 0
M  V30 9848 H 956.884 -1.48903 1.40318 0
M  V30 9849 H 956.894 -3.92029 1.13036 0
M  V30 9850 H 955.569 -3.52214 2.21175 0
M  V30 9851 H 954.146 -3.70857 0.389797 0
M  V30 9852 N 956.331 -0.831506 -1.3388 0
M  V30 9853 C 957.264 -0.2046 -2.27281 0
M  V30 9854 C 958.242 0.643992 -1.49303 0
M  V30 9855 O 959.426 0.605863 -1.78498 0
M  V30 9856 C 956.553 0.713409 -3.31101 0
M  V30 9857 C 955.599 -0.0587654 -4.2646 0
M  V30 9858 S 956.432 -1.41172 -5.16557 0
M  V30 9859 C 957.588 -0.498807 -6.23909 0
M  V30 9860 H 957.821 -0.996442 -2.80104 0
M  V30 9861 H 955.354 -0.62786 -1.41058 0
M  V30 9862 H 957.312 1.23748 -3.91403 0
M  V30 9863 H 955.973 1.47885 -2.77108 0
M  V30 9864 H 955.166 0.639466 -4.99927 0
M  V30 9865 H 954.768 -0.513665 -3.70456 0
M  V30 9866 H 957.06 0.306268 -6.76807 0
M  V30 9867 H 958.003 -1.20342 -6.97799 0
M  V30 9868 H 958.411 -0.0834242 -5.64438 0
M  V30 9869 N 957.809 1.4625 -0.587256 0
M  V30 9870 C 959.056 2.02363 -0.0745746 0
M  V30 9871 C 959.384 1.4582 1.28712 0
M  V30 9872 O 958.639 0.614922 1.85788 0
M  V30 9873 C 958.938 3.57382 0.036328 0
M  V30 9874 C 958.604 4.32985 -1.25837 0
M  V30 9875 C 957.266 4.53358 -1.61306 0
M  V30 9876 C 959.618 4.76361 -2.11494 0
M  V30 9877 C 956.946 5.14361 -2.82223 0
M  V30 9878 C 959.298 5.38699 -3.31641 0
M  V30 9879 C 957.962 5.57299 -3.67388 0
M  V30 9880 H 957.232 0.740497 -0.0272888 0
M  V30 9881 H 959.879 1.75565 -0.764804 0
M  V30 9882 H 958.184 3.83342 0.809712 0
M  V30 9883 H 959.881 3.9848 0.448838 0
M  V30 9884 H 956.471 4.17427 -0.972251 0
M  V30 9885 H 960.655 4.60372 -1.85394 0
M  V30 9886 H 955.911 5.26952 -3.10051 0
M  V30 9887 H 960.085 5.71267 -3.9828 0
M  V30 9888 H 957.712 6.04338 -4.61173 0
M  V30 9889 N 959.287 0.325282 1.54207 0
M  V30 9890 C 960.534 -0.276775 2.006 0
M  V30 9891 C 960.862 -1.52007 1.21343 0
M  V30 9892 O 960.117 -1.93627 0.284104 0
M  V30 9893 C 960.416 -0.654292 3.5136 0
M  V30 9894 C 960.082 0.490023 4.48229 0
M  V30 9895 C 958.744 0.804104 4.74434 0
M  V30 9896 C 961.096 1.2586 5.05775 0
M  V30 9897 C 958.424 1.88945 5.55443 0
M  V30 9898 C 960.776 2.33405 5.87967 0
M  V30 9899 C 959.44 2.65393 6.12473 0
M  V30 9900 H 958.71 -0.101279 0.734046 0
M  V30 9901 H 961.357 0.449416 1.86152 0
M  V30 9902 H 959.662 -1.46093 3.63544 0
M  V30 9903 H 961.359 -1.13171 3.84699 0
M  V30 9904 H 957.949 0.235147 4.27954 0
M  V30 9905 H 962.133 1.02921 4.85511 0
M  V30 9906 H 957.389 2.14174 5.7266 0
M  V30 9907 H 961.563 2.93402 6.31576 0
M  V30 9908 H 959.19 3.49622 6.75032 0
M  V30 9909 N 960.765 -1.57509 0.0534917 0
M  V30 9910 C 961.695 -2.14698 -0.917999 0
M  V30 9911 C 962.676 -1.06924 -1.32292 0
M  V30 9912 O 963.861 -1.34875 -1.39723 0
M  V30 9913 C 960.991 -2.69383 -2.19203 0
M  V30 9914 C 959.945 -3.82161 -1.9271 0
M  V30 9915 C 959.271 -4.23373 -3.26587 0
M  V30 9916 C 960.571 -5.07199 -1.24686 0
M  V30 9917 H 962.265 -2.96125 -0.44165 0
M  V30 9918 H 959.811 -1.42446 -0.210993 0
M  V30 9919 H 961.764 -3.08031 -2.87567 0
M  V30 9920 H 960.488 -1.85151 -2.69048 0
M  V30 9921 H 959.147 -3.43989 -1.26757 0
M  V30 9922 H 958.795 -3.36089 -3.74237 0
M  V30 9923 H 958.495 -4.99385 -3.09658 0
M  V30 9924 H 960.019 -4.64623 -3.96178 0
M  V30 9925 H 961.433 -5.43279 -1.83088 0
M  V30 9926 H 959.83 -5.88369 -1.18076 0
M  V30 9927 H 960.9 -4.84386 -0.223227 0
M  V30 9928 N 962.243 0.219913 -1.56058 0
M  V30 9929 C 963.176 1.29978 -1.87566 0
M  V30 9930 C 964.154 1.45131 -0.733203 0
M  V30 9931 O 965.338 1.60917 -0.981729 0
M  V30 9932 C 962.465 2.66988 -2.08411 0
M  V30 9933 C 961.511 2.68842 -3.31099 0
M  V30 9934 S 962.344 2.22745 -4.86975 0
M  V30 9935 C 963.5 3.61627 -5.10859 0
M  V30 9936 H 963.733 1.03059 -2.78866 0
M  V30 9937 H 961.266 0.422233 -1.48514 0
M  V30 9938 H 963.224 3.45866 -2.21104 0
M  V30 9939 H 961.885 2.91131 -1.17905 0
M  V30 9940 H 961.078 3.69526 -3.42734 0
M  V30 9941 H 960.68 1.98028 -3.17271 0
M  V30 9942 H 962.972 4.57328 -4.99857 0
M  V30 9943 H 963.915 3.54906 -6.12737 0
M  V30 9944 H 964.323 3.55391 -4.38586 0
M  V30 9945 N 963.721 1.49897 0.486681 0
M  V30 9946 C 964.961 1.61732 1.24988 0
M  V30 9947 C 965.325 0.303724 1.89582 0
M  V30 9948 O 966.526 0.297373 2.6715 0
M  V30 9949 C 964.797 2.75429 2.27757 0
M  V30 9950 S 966.356 3.07304 3.13225 0
M  V30 9951 H 963.174 0.570316 0.424571 0
M  V30 9952 H 965.776 1.87617 0.549549 0
M  V30 9953 H 964.48 3.69376 1.78857 0
M  V30 9954 H 964.011 2.51582 3.0244 0
M  V30 9955 H 966.026 2.49928 4.28661 0
M  V30 9956 N 965.199 -0.738761 1.39212 0
M  V30 9957 C 966.429 -1.5258 1.39295 0
M  V30 9958 C 966.837 -1.89194 -0.0153 0
M  V30 9959 O 966.18 -1.5435 -0.996073 0
M  V30 9960 C 966.242 -2.84462 2.19822 0
M  V30 9961 C 965.906 -2.70303 3.68491 0
M  V30 9962 C 966.903 -2.39102 4.61656 0
M  V30 9963 C 964.588 -2.87291 4.1203 0
M  V30 9964 C 966.582 -2.25066 5.96342 0
M  V30 9965 C 964.269 -2.72874 5.46793 0
M  V30 9966 C 965.267 -2.41807 6.38763 0
M  V30 9967 O 964.955 -2.27475 7.71045 0
M  V30 9968 H 964.687 -0.478236 0.477772 0
M  V30 9969 H 967.241 -0.920846 1.83602 0
M  V30 9970 H 965.471 -3.47202 1.70257 0
M  V30 9971 H 967.16 -3.46058 2.12129 0
M  V30 9972 H 967.926 -2.25632 4.2932 0
M  V30 9973 H 963.805 -3.10466 3.40781 0
M  V30 9974 H 967.349 -2.00739 6.68094 0
M  V30 9975 H 963.246 -2.85922 5.78722 0
M  V30 9976 H 964.014 -2.42574 7.81729 0
M  V30 9977 N 966.677 -1.24326 -0.968545 0
M  V30 9978 C 967.607 -1.05951 -2.08079 0
M  V30 9979 C 968.588 0.0272666 -1.70078 0
M  V30 9980 O 969.773 -0.139644 -1.93697 0
M  V30 9981 C 966.903 -0.662623 -3.4092 0
M  V30 9982 C 965.857 -1.69807 -3.92873 0
M  V30 9983 C 965.183 -1.15628 -5.22048 0
M  V30 9984 C 966.483 -3.09383 -4.20808 0
M  V30 9985 H 968.177 -1.98984 -2.23709 0
M  V30 9986 H 965.723 -0.958112 -1.075 0
M  V30 9987 H 967.676 -0.521071 -4.18166 0
M  V30 9988 H 966.4 0.303399 -3.25188 0
M  V30 9989 H 965.059 -1.82783 -3.17783 0
M  V30 9990 H 964.707 -0.180888 -5.02675 0
M  V30 9991 H 964.407 -1.84822 -5.57776 0
M  V30 9992 H 965.931 -1.02683 -6.01904 0
M  V30 9993 H 967.345 -2.99642 -4.88761 0
M  V30 9994 H 965.742 -3.75923 -4.67763 0
M  V30 9995 H 966.812 -3.57486 -3.27616 0
M  V30 9996 N 968.156 1.1691 -1.05688 0
M  V30 9997 C 969.403 1.87292 -0.76993 0
M  V30 9998 C 969.731 1.81339 0.703295 0
M  V30 9999 O 968.986 1.21959 1.5305 0
M  V30 10000 C 969.285 3.36578 -1.20207 0
M  V30 10001 C 968.951 3.62732 -2.67836 0
M  V30 10002 C 967.613 3.69579 -3.08163 0
M  V30 10003 C 969.965 3.73803 -3.63209 0
M  V30 10004 C 967.293 3.84992 -4.42717 0
M  V30 10005 C 969.645 3.90735 -4.97503 0
M  V30 10006 C 968.309 3.95823 -5.37476 0
M  V30 10007 H 967.579 0.68535 -0.281737 0
M  V30 10008 H 970.226 1.38274 -1.32486 0
M  V30 10009 H 968.531 3.87687 -0.566222 0
M  V30 10010 H 970.228 3.89409 -0.957183 0
M  V30 10011 H 966.818 3.58031 -2.35609 0
M  V30 10012 H 971.002 3.67829 -3.3319 0
M  V30 10013 H 966.258 3.87181 -4.73182 0
M  V30 10014 H 970.432 3.98243 -5.71293 0
M  V30 10015 H 968.059 4.07518 -6.41742 0
M  V30 10016 N 969.634 0.838594 1.33437 0
M  V30 10017 C 970.88 0.434813 1.98084 0
M  V30 10018 C 971.213 -1.00331 1.66275 0
M  V30 10019 O 970.488 -1.70139 0.942501 0
M  V30 10020 C 970.771 0.655602 3.54082 0
M  V30 10021 C 970.624 2.14097 3.95578 0
M  V30 10022 C 971.943 0.101576 4.39983 0
M  V30 10023 H 969.062 0.159456 0.719544 0
M  V30 10024 H 971.704 1.05406 1.58081 0
M  V30 10025 H 969.854 0.128501 3.88287 0
M  V30 10026 H 971.526 2.73292 3.71631 0
M  V30 10027 H 969.769 2.62558 3.4532 0
M  V30 10028 H 970.44 2.24621 5.04231 0
M  V30 10029 H 972.916 0.552122 4.12421 0
M  V30 10030 H 971.792 0.28575 5.48156 0
M  V30 10031 H 972.053 -0.994616 4.30767 0
M  V30 10032 N 971.112 -1.45937 0.595003 0
M  V30 10033 C 972.06 -2.32155 -0.143798 0
M  V30 10034 C 973.054 -1.45221 -0.872198 0
M  V30 10035 O 974.26 -1.61777 -0.789191 0
M  V30 10036 H 970.635 -0.749165 -0.0652377 0
M  V30 10037 H 972.606 -2.92264 0.602005 0
M  V30 10038 C 971.355 -3.28615 -1.13611 0
M  V30 10039 H 970.678 -3.95496 -0.585044 0
M  V30 10040 H 972.118 -3.91699 -1.62321 0
M  V30 10041 C 970.577 -2.54863 -2.20333 0
M  V30 10042 O 971.107 -2.32071 -3.27881 0
M  V30 10043 N 969.313 -2.15213 -1.95274 0
M  V30 10044 H 968.86 -2.33949 -1.07822 0
M  V30 10045 H 968.818 -1.66188 -2.66888 0
M  V30 10046 N 972.59 -0.333456 -1.54032 0
M  V30 10047 C 973.52 0.52051 -2.27625 0
M  V30 10048 C 974.501 1.1111 -1.28797 0
M  V30 10049 O 975.686 1.13438 -1.57625 0
M  V30 10050 C 972.816 1.67663 -3.04149 0
M  V30 10051 C 971.77 1.21487 -4.10396 0
M  V30 10052 C 971.096 2.45872 -4.74817 0
M  V30 10053 C 972.396 0.322603 -5.21303 0
M  V30 10054 H 974.09 -0.0933823 -2.99254 0
M  V30 10055 H 971.636 -0.0463526 -1.43925 0
M  V30 10056 H 973.589 2.28041 -3.54366 0
M  V30 10057 H 972.313 2.31727 -2.30153 0
M  V30 10058 H 970.972 0.633966 -3.61077 0
M  V30 10059 H 970.62 3.0832 -3.97426 0
M  V30 10060 H 970.32 2.15662 -5.46593 0
M  V30 10061 H 971.844 3.06994 -5.27814 0
M  V30 10062 H 973.258 0.832942 -5.67217 0
M  V30 10063 H 971.655 0.112843 -5.99994 0
M  V30 10064 H 972.725 -0.643954 -4.80605 0
M  V30 10065 N 974.068 1.57479 -0.061844 0
M  V30 10066 C 975.031 2.1104 0.894127 0
M  V30 10067 C 976.031 1.03227 1.23292 0
M  V30 10068 O 977.221 1.29256 1.16784 0
M  V30 10069 C 974.353 2.6035 2.20069 0
M  V30 10070 H 975.546 2.96807 0.429619 0
M  V30 10071 H 973.099 1.55181 0.18672 0
M  V30 10072 H 973.834 1.78008 2.71079 0
M  V30 10073 H 973.619 3.39146 1.9678 0
M  V30 10074 H 975.109 3.019 2.88525 0
M  V30 10075 N 975.546 -0.211634 1.56173 0
M  V30 10076 C 976.786 -0.941505 1.81425 0
M  V30 10077 C 977.15 -1.8113 0.636862 0
M  V30 10078 O 978.351 -2.57568 0.768907 0
M  V30 10079 C 976.622 -1.75002 3.11623 0
M  V30 10080 S 978.181 -2.53418 3.58225 0
M  V30 10081 H 974.999 -0.316088 0.636875 0
M  V30 10082 H 977.601 -0.206244 1.94409 0
M  V30 10083 H 976.305 -1.10136 3.95346 0
M  V30 10084 H 975.836 -2.5274 3.01473 0
M  V30 10085 H 977.851 -3.77234 3.22349 0
M  V30 10086 N 977.024 -1.50153 -0.478725 0
M  V30 10087 C 977.987 -1.67916 -1.56003 0
M  V30 10088 C 978.987 -0.550111 -1.51097 0
M  V30 10089 O 980.177 -0.817001 -1.53853 0
M  V30 10090 C 977.309 -1.6973 -2.95643 0
M  V30 10091 H 978.502 -2.6438 -1.41573 0
M  V30 10092 H 976.055 -1.39519 -0.704565 0
M  V30 10093 H 976.79 -0.749306 -3.15525 0
M  V30 10094 H 976.575 -2.51745 -3.00611 0
M  V30 10095 H 978.065 -1.85453 -3.74162 0
M  V30 10096 N 978.502 0.731368 -1.39602 0
M  V30 10097 C 979.432 1.85855 -1.41351 0
M  V30 10098 C 980.413 1.67839 -0.2764 0
M  V30 10099 O 981.598 1.88104 -0.482747 0
M  V30 10100 C 978.728 3.23644 -1.25983 0
M  V30 10101 C 977.682 3.56304 -2.37132 0
M  V30 10102 C 977.008 4.93069 -2.0685 0
M  V30 10103 C 978.308 3.58906 -3.79452 0
M  V30 10104 H 980.002 1.84648 -2.3568 0
M  V30 10105 H 977.548 0.886955 -1.13442 0
M  V30 10106 H 979.501 4.02176 -1.25826 0
M  V30 10107 H 978.225 3.25387 -0.281234 0
M  V30 10108 H 976.884 2.80104 -2.36511 0
M  V30 10109 H 976.532 4.91396 -1.0742 0
M  V30 10110 H 976.232 5.15888 -2.81306 0
M  V30 10111 H 977.756 5.73953 -2.0835 0
M  V30 10112 H 979.17 4.27508 -3.81982 0
M  V30 10113 H 977.567 3.93246 -4.53297 0
M  V30 10114 H 978.637 2.58631 -4.10168 0
M  V30 10115 N 979.98 1.24838 0.961938 0
M  V30 10116 C 980.912 1.00369 2.06055 0
M  V30 10117 C 981.925 -0.0288583 1.62774 0
M  V30 10118 O 983.114 0.208853 1.77274 0
M  V30 10119 C 980.214 0.493953 3.35281 0
M  V30 10120 C 979.387 1.59097 4.07439 0
M  V30 10121 C 978.446 1.08288 5.14937 0
M  V30 10122 O 977.472 1.77577 5.40791 0
M  V30 10123 N 978.674 -0.0796836 5.80445 0
M  V30 10124 H 981.439 1.94962 2.27618 0
M  V30 10125 H 979 1.15945 1.12997 0
M  V30 10126 H 980.992 0.138675 4.04462 0
M  V30 10127 H 979.562 -0.357851 3.10545 0
M  V30 10128 H 978.782 2.11817 3.32456 0
M  V30 10129 H 980.07 2.32817 4.52409 0
M  V30 10130 H 979.468 -0.658827 5.6185 0
M  V30 10131 H 978.025 -0.376057 6.50714 0
M  V30 10132 N 981.458 -1.16348 1.06306 0
M  V30 10133 C 982.686 -1.90782 0.800614 0
M  V30 10134 C 983.101 -1.77439 -0.645033 0
M  V30 10135 O 982.458 -1.11912 -1.4416 0
M  V30 10136 C 982.509 -3.41484 1.18621 0
M  V30 10137 O 982.23 -3.54428 2.57512 0
M  V30 10138 C 983.731 -4.32968 0.951525 0
M  V30 10139 H 980.951 -0.604977 0.290247 0
M  V30 10140 H 983.495 -1.47476 1.41672 0
M  V30 10141 H 981.65 -3.82493 0.614633 0
M  V30 10142 H 982.064 -4.4788 2.72954 0
M  V30 10143 H 983.538 -5.37169 1.27095 0
M  V30 10144 H 984.015 -4.39055 -0.112734 0
M  V30 10145 H 984.621 -3.97687 1.50749 0
M  V30 10146 N 982.937 -0.845659 -1.3299 0
M  V30 10147 C 983.867 -0.298957 -2.31578 0
M  V30 10148 C 984.848 0.597012 -1.59279 0
M  V30 10149 O 986.033 0.519142 -1.87132 0
M  V30 10150 C 983.163 0.521109 -3.43368 0
M  V30 10151 C 982.117 -0.279651 -4.27085 0
M  V30 10152 C 981.443 0.664591 -5.30554 0
M  V30 10153 C 982.743 -1.50046 -5.00283 0
M  V30 10154 H 984.437 -1.12272 -2.77552 0
M  V30 10155 H 981.983 -0.54132 -1.33438 0
M  V30 10156 H 983.936 0.913921 -4.1137 0
M  V30 10157 H 982.66 1.37815 -2.96099 0
M  V30 10158 H 981.319 -0.654106 -3.60717 0
M  V30 10159 H 980.967 1.51822 -4.79541 0
M  V30 10160 H 980.667 0.132871 -5.8745 0
M  V30 10161 H 982.191 1.05477 -6.01421 0
M  V30 10162 H 983.605 -1.18044 -5.61016 0
M  V30 10163 H 982.002 -1.96946 -5.66862 0
M  V30 10164 H 983.072 -2.26659 -4.28665 0
M  V30 10165 N 984.415 1.45619 -0.602734 0
M  V30 10166 C 985.345 2.33258 0.106342 0
M  V30 10167 C 986.326 1.46543 0.863664 0
M  V30 10168 O 987.511 1.75324 0.835175 0
M  V30 10169 C 984.641 3.29168 1.10751 0
M  V30 10170 C 983.595 4.25481 0.463717 0
M  V30 10171 C 982.921 5.11046 1.57278 0
M  V30 10172 C 984.221 5.18702 -0.61199 0
M  V30 10173 H 985.915 2.92795 -0.625423 0
M  V30 10174 H 983.461 1.40793 -0.302213 0
M  V30 10175 H 985.414 3.89346 1.61208 0
M  V30 10176 H 984.138 2.6778 1.8698 0
M  V30 10177 H 982.797 3.66595 -0.0199496 0
M  V30 10178 H 982.445 4.46029 2.32524 0
M  V30 10179 H 982.145 5.76286 1.14755 0
M  V30 10180 H 983.669 5.74091 2.07972 0
M  V30 10181 H 985.083 5.72979 -0.191686 0
M  V30 10182 H 983.48 5.92393 -0.958686 0
M  V30 10183 H 984.55 4.61424 -1.4905 0
M  V30 10184 N 985.893 0.34162 1.53853 0
M  V30 10185 C 987.309 -0.0103769 1.59597 0
M  V30 10186 C 987.509 -1.48897 1.35764 0
M  V30 10187 O 986.565 -2.24743 1.15095 0
M  V30 10188 C 987.878 0.424067 2.97695 0
M  V30 10189 C 989.426 0.376247 3.1073 0
M  V30 10190 C 989.901 0.786129 4.51203 0
M  V30 10191 N 991.392 0.74024 4.57247 0
M  V30 10192 C 992.127 1.02937 5.64085 0
M  V30 10193 N 991.623 1.38655 6.78783 0
M  V30 10194 N 993.416 0.953734 5.5395 0
M  V30 10195 H 985.567 1.30477 1.67599 0
M  V30 10196 H 987.83 0.531753 0.78482 0
M  V30 10197 H 987.536 1.45493 3.20195 0
M  V30 10198 H 987.41 -0.201713 3.7666 0
M  V30 10199 H 989.797 -0.645441 2.87955 0
M  V30 10200 H 989.878 1.0372 2.33828 0
M  V30 10201 H 989.522 1.80582 4.74713 0
M  V30 10202 H 989.452 0.102671 5.265 0
M  V30 10203 H 991.943 0.476763 3.7488 0
M  V30 10204 H 992.256 1.59206 7.56223 0
M  V30 10205 H 990.601 1.42498 6.80235 0
M  V30 10206 H 993.792 0.674044 4.63222 0
M  V30 10207 H 993.965 1.18241 6.37121 0
M  V30 10208 N 987.371 -1.57444 0.0701946 0
M  V30 10209 C 988.599 -1.97754 -0.608358 0
M  V30 10210 C 989.014 -0.948496 -1.63245 0
M  V30 10211 O 988.371 0.065046 -1.82384 0
M  V30 10212 C 988.422 -3.38142 -1.27836 0
M  V30 10213 O 988.143 -4.37104 -0.295255 0
M  V30 10214 C 989.644 -3.93318 -2.04489 0
M  V30 10215 H 986.864 -0.650398 -0.164997 0
M  V30 10216 H 989.408 -2.04006 0.142124 0
M  V30 10217 H 987.563 -3.32982 -1.97994 0
M  V30 10218 H 987.977 -5.18732 -0.77574 0
M  V30 10219 H 989.451 -4.93774 -2.46762 0
M  V30 10220 H 989.928 -3.29774 -2.90079 0
M  V30 10221 H 990.534 -4.01875 -1.39201 0
M  V30 10222 N 988.849 0.203349 -1.56283 0
M  V30 10223 C 990.26 0.768764 -1.70138 0
M  V30 10224 C 990.611 1.8421 -0.675358 0
M  V30 10225 O 989.736 2.15732 0.1699 0
M  V30 10226 C 990.331 1.40123 -3.08466 0
M  V30 10227 C 988.89 1.91382 -3.24114 0
M  V30 10228 C 988.037 0.780685 -2.66084 0
M  V30 10229 H 990.988 -0.0215997 -1.58685 0
M  V30 10230 H 991.009 2.27046 -3.05336 0
M  V30 10231 H 990.521 0.619805 -3.83119 0
M  V30 10232 H 988.622 2.7227 -2.54362 0
M  V30 10233 H 988.735 2.08128 -4.31531 0
M  V30 10234 H 987.099 1.19281 -2.25042 0
M  V30 10235 H 987.882 0.0116351 -3.43298 0
M  V30 10236 N 990.327 1.50405 0.470755 0
M  V30 10237 C 991.275 1.6982 1.58946 0
M  V30 10238 C 992.269 0.56407 1.59733 0
M  V30 10239 O 993.475 0.744576 1.63878 0
M  V30 10240 H 989.85 0.536016 0.527438 0
M  V30 10241 H 991.821 2.63662 1.39732 0
M  V30 10242 C 990.57 1.80986 2.96883 0
M  V30 10243 H 989.893 2.67645 2.96996 0
M  V30 10244 H 991.333 1.98596 3.74614 0
M  V30 10245 C 989.792 0.561551 3.32187 0
M  V30 10246 O 990.322 -0.299136 4.00585 0
M  V30 10247 N 988.528 0.415476 2.87615 0
M  V30 10248 H 988.075 1.11691 2.32127 0
M  V30 10249 H 988.033 -0.418592 3.11601 0
M  V30 10250 N 991.805 -0.723954 1.39988 0
M  V30 10251 C 993.051 -1.48476 1.3902 0
M  V30 10252 C 993.406 -1.92397 -0.0105439 0
M  V30 10253 O 992.699 -1.64683 -0.979294 0
M  V30 10254 C 992.893 -2.73004 2.30659 0
M  V30 10255 C 992.722 -2.41261 3.79504 0
M  V30 10256 C 991.492 -2.33013 4.48367 0
M  V30 10257 C 993.69 -2.06078 4.71207 0
M  V30 10258 N 991.672 -1.93856 5.82489 0
M  V30 10259 C 993.043 -1.77455 5.94062 0
M  V30 10260 C 995.098 -1.92642 4.59123 0
M  V30 10261 C 993.801 -1.36748 7.06182 0
M  V30 10262 C 995.827 -1.53338 5.71175 0
M  V30 10263 C 995.189 -1.25607 6.93111 0
M  V30 10264 H 991.288 -0.54172 0.563971 0
M  V30 10265 H 993.872 -0.840344 1.75631 0
M  V30 10266 H 992.043 -3.35209 1.96188 0
M  V30 10267 H 993.775 -3.39286 2.20606 0
M  V30 10268 H 990.53 -2.50476 4.01944 0
M  V30 10269 H 990.954 -1.7684 6.53496 0
M  V30 10270 H 995.596 -2.12745 3.65376 0
M  V30 10271 H 993.314 -1.15386 7.9982 0
M  V30 10272 H 996.9 -1.43532 5.63817 0
M  V30 10273 H 995.78 -0.956505 7.78345 0
M  V30 10274 N 993.283 -1.25346 -0.955304 0
M  V30 10275 C 994.699 -1.02154 -1.22625 0
M  V30 10276 C 994.899 0.26206 -1.99789 0
M  V30 10277 O 993.955 0.974958 -2.32918 0
M  V30 10278 C 995.268 -2.2443 -2.00129 0
M  V30 10279 C 996.816 -2.29185 -2.13174 0
M  V30 10280 C 997.291 -3.51117 -2.94077 0
M  V30 10281 N 998.782 -3.51509 -3.01655 0
M  V30 10282 C 999.517 -4.42517 -3.64645 0
M  V30 10283 N 999.013 -5.43796 -4.29252 0
M  V30 10284 N 1000.81 -4.302 -3.61779 0
M  V30 10285 H 992.957 -2.07812 -0.439071 0
M  V30 10286 H 995.22 -0.91258 -0.256715 0
M  V30 10287 H 994.926 -3.17717 -1.50827 0
M  V30 10288 H 994.8 -2.27548 -3.00835 0
M  V30 10289 H 997.187 -1.36422 -2.61674 0
M  V30 10290 H 997.268 -2.30087 -1.11775 0
M  V30 10291 H 996.912 -4.44201 -2.46268 0
M  V30 10292 H 996.842 -3.4746 -3.95701 0
M  V30 10293 H 999.333 -2.78245 -2.55711 0
M  V30 10294 H 999.646 -6.09453 -4.75171 0
M  V30 10295 H 997.991 -5.4767 -4.27882 0
M  V30 10296 H 1001.18 -3.50304 -3.10491 0
M  V30 10297 H 1001.36 -5.01323 -4.10584 0
M  V30 10298 N 994.761 1.15782 -1.06922 0
M  V30 10299 C 996.172 1.68062 -0.813144 0
M  V30 10300 C 996.523 1.84681 0.662374 0
M  V30 10301 O 995.648 1.54696 1.51321 0
M  V30 10302 C 996.243 3.05273 -1.46949 0
M  V30 10303 C 994.802 3.54647 -1.26104 0
M  V30 10304 C 993.949 2.30477 -1.54194 0
M  V30 10305 H 996.9 1.00056 -1.23185 0
M  V30 10306 H 996.921 3.69986 -0.888308 0
M  V30 10307 H 996.433 2.93145 -2.54337 0
M  V30 10308 H 994.534 3.72024 -0.20718 0
M  V30 10309 H 994.647 4.36354 -1.97819 0
M  V30 10310 H 993.011 2.35803 -0.96276 0
M  V30 10311 H 993.794 2.2094 -2.62755 0
M  V30 10312 N 996.239 0.8527 1.3254 0
M  V30 10313 C 997.655 0.542298 1.50104 0
M  V30 10314 C 997.855 -0.927465 1.78886 0
M  V30 10315 O 996.911 -1.7106 1.85728 0
M  V30 10316 C 998.224 1.4276 2.64651 0
M  V30 10317 C 999.772 1.42782 2.78536 0
M  V30 10318 C 1000.25 2.29828 3.9616 0
M  V30 10319 N 1001.74 2.27613 4.03418 0
M  V30 10320 C 1002.47 2.91696 4.93661 0
M  V30 10321 N 1001.97 3.64883 5.88925 0
M  V30 10322 N 1003.76 2.81094 4.86768 0
M  V30 10323 H 995.913 1.80395 1.12123 0
M  V30 10324 H 998.176 0.770394 0.552446 0
M  V30 10325 H 997.882 2.47266 2.50105 0
M  V30 10326 H 997.756 1.11358 3.60388 0
M  V30 10327 H 1000.14 0.390417 2.92506 0
M  V30 10328 H 1000.22 1.78198 1.83519 0
M  V30 10329 H 999.868 3.33635 3.82949 0
M  V30 10330 H 999.798 1.91746 4.9045 0
M  V30 10331 H 1002.29 1.74402 3.3525 0
M  V30 10332 H 1002.6 4.10952 6.54476 0
M  V30 10333 H 1000.95 3.68991 5.88957 0
M  V30 10334 H 1004.14 2.23469 4.11314 0
M  V30 10335 H 1004.31 3.31318 5.56895 0
M  V30 10336 N 997.718 -1.45297 0.610449 0
M  V30 10337 C 998.965 -2.02218 0.106759 0
M  V30 10338 C 999.293 -1.47849 -1.26376 0
M  V30 10339 O 998.548 -0.644402 -1.84786 0
M  V30 10340 C 998.847 -3.57394 0.0205329 0
M  V30 10341 C 998.513 -4.30928 1.32709 0
M  V30 10342 C 997.175 -4.50735 1.68498 0
M  V30 10343 C 999.527 -4.72936 2.19046 0
M  V30 10344 C 996.855 -5.09806 2.90371 0
M  V30 10345 C 999.207 -5.33355 3.40169 0
M  V30 10346 C 997.871 -5.51384 3.76207 0
M  V30 10347 H 997.141 -0.739969 0.039066 0
M  V30 10348 H 999.788 -1.74326 0.792638 0
M  V30 10349 H 998.093 -3.84581 -0.748623 0
M  V30 10350 H 999.79 -3.99144 -0.385386 0
M  V30 10351 H 996.38 -4.15827 1.03854 0
M  V30 10352 H 1000.56 -4.57365 1.92695 0
M  V30 10353 H 995.82 -5.21953 3.18395 0
M  V30 10354 H 999.994 -5.64859 4.07318 0
M  V30 10355 H 997.621 -5.96924 4.70729 0
M  V30 10356 N 999.196 -0.349774 -1.5367 0
M  V30 10357 C 1000.61 0.00191293 -1.596 0
M  V30 10358 C 1000.81 1.48175 -1.36552 0
M  V30 10359 O 999.868 2.24129 -1.16285 0
M  V30 10360 C 1001.18 -0.439848 -2.97466 0
M  V30 10361 C 1002.73 -0.392721 -3.10526 0
M  V30 10362 C 1003.2 -0.810047 -4.5078 0
M  V30 10363 N 1004.69 -0.764478 -4.56848 0
M  V30 10364 C 1005.43 -1.05927 -5.63531 0
M  V30 10365 N 1004.93 -1.42253 -6.78038 0
M  V30 10366 N 1006.72 -0.983098 -5.53436 0
M  V30 10367 H 998.87 -1.31364 -1.66905 0
M  V30 10368 H 1001.13 -0.535908 -0.781989 0
M  V30 10369 H 1000.84 -1.47189 -3.19419 0
M  V30 10370 H 1000.71 0.181735 -3.76762 0
M  V30 10371 H 1003.1 0.630161 -2.88293 0
M  V30 10372 H 1003.18 -1.04959 -2.33275 0
M  V30 10373 H 1002.82 -1.83097 -4.73749 0
M  V30 10374 H 1002.75 -0.130591 -5.26438 0
M  V30 10375 H 1005.25 -0.496637 -3.74622 0
M  V30 10376 H 1005.56 -1.63215 -7.55368 0
M  V30 10377 H 1003.9 -1.46104 -6.79469 0
M  V30 10378 H 1007.09 -0.698601 -4.62858 0
M  V30 10379 H 1007.27 -1.21618 -6.36485 0
M  V30 10380 N 1000.67 1.57404 -0.0785433 0
M  V30 10381 C 1001.9 1.97787 0.596995 0
M  V30 10382 C 1002.31 0.955904 1.63276 0
M  V30 10383 O 1001.65 -0.0649169 1.83585 0
M  V30 10384 C 1001.72 3.34499 1.31723 0
M  V30 10385 C 1001.38 4.54933 0.434144 0
M  V30 10386 C 1002.38 5.18969 -0.311015 0
M  V30 10387 C 1000.06 5.01029 0.357046 0
M  V30 10388 C 1002.06 6.27457 -1.12142 0
M  V30 10389 C 999.744 6.09389 -0.457029 0
M  V30 10390 C 1000.74 6.72466 -1.19493 0
M  V30 10391 O 1000.43 7.78738 -1.99556 0
M  V30 10392 H 1000.16 0.655294 0.166028 0
M  V30 10393 H 1002.72 2.04855 -0.149517 0
M  V30 10394 H 1000.95 3.24064 2.10996 0
M  V30 10395 H 1002.63 3.5944 1.88567 0
M  V30 10396 H 1003.4 4.84297 -0.261084 0
M  V30 10397 H 999.28 4.51706 0.921026 0
M  V30 10398 H 1002.82 6.76622 -1.69788 0
M  V30 10399 H 998.721 6.43494 -0.508499 0
M  V30 10400 H 999.489 7.95648 -1.9206 0
M  V30 10401 N 1002.15 -0.195058 1.56388 0
M  V30 10402 C 1003.38 -0.930291 1.8447 0
M  V30 10403 C 1003.79 -1.77356 0.658901 0
M  V30 10404 O 1003.13 -1.79691 -0.381664 0
M  V30 10405 C 1003.19 -1.87626 3.06654 0
M  V30 10406 C 1002.86 -1.21494 4.40555 0
M  V30 10407 C 1003.86 -0.591847 5.1652 0
M  V30 10408 C 1001.54 -1.21878 4.8729 0
M  V30 10409 C 1003.53 0.0185743 6.37397 0
M  V30 10410 C 1001.22 -0.604524 6.08103 0
M  V30 10411 C 1002.22 0.0130731 6.82999 0
M  V30 10412 O 1001.91 0.617703 8.01523 0
M  V30 10413 H 1001.64 -0.276933 0.616672 0
M  V30 10414 H 1004.19 -0.207277 2.04351 0
M  V30 10415 H 1002.42 -2.63897 2.82658 0
M  V30 10416 H 1004.11 -2.47929 3.21382 0
M  V30 10417 H 1004.88 -0.581018 4.81507 0
M  V30 10418 H 1000.76 -1.68888 4.2895 0
M  V30 10419 H 1004.3 0.50124 6.95797 0
M  V30 10420 H 1000.2 -0.612855 6.42584 0
M  V30 10421 H 1000.97 0.514612 8.16881 0
M  V30 10422 N 1003.63 -1.50653 -0.462772 0
M  V30 10423 C 1004.58 -1.66509 -1.55752 0
M  V30 10424 C 1005.56 -0.519508 -1.52282 0
M  V30 10425 O 1006.76 -0.774296 -1.59166 0
M  V30 10426 C 1003.88 -1.77023 -2.94139 0
M  V30 10427 C 1002.97 -2.97284 -3.02461 0
M  V30 10428 N 1003.36 -4.20843 -2.80579 0
M  V30 10429 C 1001.66 -2.96014 -3.33604 0
M  V30 10430 C 1002.36 -5.01886 -2.94084 0
M  V30 10431 N 1001.34 -4.3601 -3.24648 0
M  V30 10432 H 1005.14 -2.59727 -1.37546 0
M  V30 10433 H 1002.65 -1.47951 -0.669653 0
M  V30 10434 H 1004.65 -1.86488 -3.72864 0
M  V30 10435 H 1003.31 -0.849688 -3.13385 0
M  V30 10436 H 1004.32 -4.50206 -2.55998 0
M  V30 10437 H 1001 -2.13493 -3.58786 0
M  V30 10438 H 1002.39 -6.10164 -2.81334 0
M  V30 10439 N 1005.11 0.71652 -1.4037 0
M  V30 10440 C 1006.35 1.47736 -1.39805 0
M  V30 10441 C 1006.71 1.924 0.000340438 0
M  V30 10442 O 1006 1.652 0.970547 0
M  V30 10443 C 1006.2 2.71777 -2.32103 0
M  V30 10444 C 1006.03 2.39245 -3.80778 0
M  V30 10445 C 1004.8 2.30632 -4.49597 0
M  V30 10446 C 1006.99 2.03576 -4.72294 0
M  V30 10447 N 1004.98 1.90764 -5.83509 0
M  V30 10448 C 1006.35 1.74302 -5.94995 0
M  V30 10449 C 1008.4 1.90204 -4.60138 0
M  V30 10450 C 1007.1 1.33001 -7.06897 0
M  V30 10451 C 1009.13 1.50307 -5.71981 0
M  V30 10452 C 1008.49 1.2193 -6.93767 0
M  V30 10453 H 1004.59 0.538721 -0.566836 0
M  V30 10454 H 1007.18 0.831018 -1.76074 0
M  V30 10455 H 1005.35 3.34163 -1.97963 0
M  V30 10456 H 1007.08 3.38112 -2.22402 0
M  V30 10457 H 1003.83 2.48341 -4.03266 0
M  V30 10458 H 1004.26 1.73372 -6.54424 0
M  V30 10459 H 1008.9 2.10805 -3.66499 0
M  V30 10460 H 1006.62 1.11143 -8.0042 0
M  V30 10461 H 1010.2 1.4054 -5.6457 0
M  V30 10462 H 1009.08 0.915214 -7.78841 0
M  V30 10463 N 1006.59 1.25851 0.948643 0
M  V30 10464 C 1007.55 1.0683 2.0278 0
M  V30 10465 C 1008.55 0.0191016 1.60789 0
M  V30 10466 O 1009.74 0.261836 1.72221 0
M  V30 10467 C 1006.87 0.623318 3.35153 0
M  V30 10468 H 1008.06 2.02635 2.21086 0
M  V30 10469 H 1005.62 1.08343 1.12657 0
M  V30 10470 H 1006.35 -0.337053 3.22544 0
M  V30 10471 H 1006.14 1.38082 3.66982 0
M  V30 10472 H 1007.63 0.511854 4.14451 0
M  V30 10473 N 1008.06 -1.15214 1.07534 0
M  V30 10474 C 1008.99 -2.2216 0.718837 0
M  V30 10475 C 1009.98 -1.6753 -0.29459 0
M  V30 10476 O 1011.16 -1.93481 -0.166931 0
M  V30 10477 C 1008.29 -3.471 0.117836 0
M  V30 10478 C 1007.24 -4.14701 1.05862 0
M  V30 10479 C 1006.57 -5.3374 0.320284 0
M  V30 10480 C 1007.87 -4.64254 2.39302 0
M  V30 10481 H 1009.56 -2.52237 1.61297 0
M  V30 10482 H 1007.11 -1.21239 0.776992 0
M  V30 10483 H 1009.06 -4.21156 -0.143519 0
M  V30 10484 H 1007.79 -3.16361 -0.811389 0
M  V30 10485 H 1006.45 -3.42589 1.30493 0
M  V30 10486 H 1006.09 -4.99257 -0.61246 0
M  V30 10487 H 1005.79 -5.79912 0.947381 0
M  V30 10488 H 1007.32 -6.10563 0.0667721 0
M  V30 10489 H 1008.73 -5.29827 2.18988 0
M  V30 10490 H 1007.13 -5.21095 2.97623 0
M  V30 10491 H 1008.2 -3.79793 3.01472 0
M  V30 10492 N 1009.54 -0.859717 -1.32086 0
M  V30 10493 C 1010.77 -0.478865 -2.01796 0
M  V30 10494 C 1011.19 0.918274 -1.64163 0
M  V30 10495 O 1010.55 1.60409 -0.844896 0
M  V30 10496 C 1010.6 -0.631356 -3.5503 0
M  V30 10497 O 1009.7 0.333712 -4.11048 0
M  V30 10498 H 1009.04 -0.191775 -0.635703 0
M  V30 10499 H 1011.57 -1.16031 -1.68517 0
M  V30 10500 H 1011.58 -0.520783 -4.04663 0
M  V30 10501 H 1010.26 -1.65015 -3.81763 0
M  V30 10502 H 1008.84 0.178953 -3.7247 0
M  V30 10503 N 1011.02 1.44971 -0.618145 0
M  V30 10504 C 1012.27 2.02159 -0.117482 0
M  V30 10505 C 1012.6 1.48517 1.2559 0
M  V30 10506 O 1011.85 0.654192 1.84442 0
M  V30 10507 C 1012.15 3.57378 -0.0394861 0
M  V30 10508 C 1011.82 4.30218 -1.34993 0
M  V30 10509 C 1010.48 4.49835 -1.70886 0
M  V30 10510 C 1012.83 4.71768 -2.21551 0
M  V30 10511 C 1010.16 5.08258 -2.9307 0
M  V30 10512 C 1012.51 5.31543 -3.42993 0
M  V30 10513 C 1011.17 5.49381 -3.79126 0
M  V30 10514 H 1010.44 0.739752 -0.0429897 0
M  V30 10515 H 1013.09 1.73903 -0.801871 0
M  V30 10516 H 1011.4 3.84973 0.728217 0
M  V30 10517 H 1013.09 3.99343 0.364213 0
M  V30 10518 H 1009.68 4.15271 -1.06057 0
M  V30 10519 H 1013.87 4.56336 -1.95117 0
M  V30 10520 H 1009.12 5.20257 -3.21158 0
M  V30 10521 H 1013.3 5.62691 -4.10308 0
M  V30 10522 H 1010.92 5.94419 -4.73888 0
M  V30 10523 N 1012.5 0.357919 1.53482 0
M  V30 10524 C 1013.43 -0.535553 2.21827 0
M  V30 10525 C 1014.41 -1.08904 1.20742 0
M  V30 10526 O 1015.59 -1.14661 1.49616 0
M  V30 10527 C 1012.72 -1.73817 2.90698 0
M  V30 10528 C 1011.77 -1.31283 4.05792 0
M  V30 10529 S 1012.6 -0.320548 5.3454 0
M  V30 10530 C 1013.76 -1.52967 6.0692 0
M  V30 10531 H 1013.99 0.0449045 2.97266 0
M  V30 10532 H 1011.52 0.142009 1.53746 0
M  V30 10533 H 1013.48 -2.42803 3.30994 0
M  V30 10534 H 1012.14 -2.28987 2.14998 0
M  V30 10535 H 1011.33 -2.20989 4.52968 0
M  V30 10536 H 1010.94 -0.702275 3.67347 0
M  V30 10537 H 1013.23 -2.46191 6.31186 0
M  V30 10538 H 1014.17 -1.09943 6.99513 0
M  V30 10539 H 1014.58 -1.73224 5.37265 0
M  V30 10540 N 1013.98 -1.5736 0.0868897 0
M  V30 10541 C 1015.22 -1.9367 -0.577598 0
M  V30 10542 C 1015.55 -0.968844 -1.69229 0
M  V30 10543 O 1014.82 -0.0195061 -1.9589 0
M  V30 10544 H 1013.4 -0.714983 -0.216353 0
M  V30 10545 H 1016.06 -1.94335 0.148294 0
M  V30 10546 H 1015.15 -2.95877 -0.993128 0
M  V30 10547 N 1015.45 0.186762 -1.56489 0
M  V30 10548 C 1016.39 1.25971 -1.9028 0
M  V30 10549 C 1017.37 1.43543 -0.763822 0
M  V30 10550 O 1018.55 1.58799 -1.01564 0
M  V30 10551 C 1015.68 2.62507 -2.14028 0
M  V30 10552 C 1014.72 2.61758 -3.36727 0
M  V30 10553 S 1015.56 2.12366 -4.9159 0
M  V30 10554 C 1016.71 3.5071 -5.18414 0
M  V30 10555 H 1016.94 0.971203 -2.80989 0
M  V30 10556 H 1014.48 0.390636 -1.49377 0
M  V30 10557 H 1016.44 3.41098 -2.28391 0
M  V30 10558 H 1015.1 2.88564 -1.24054 0
M  V30 10559 H 1014.29 3.62173 -3.50495 0
M  V30 10560 H 1013.89 1.91254 -3.214 0
M  V30 10561 H 1016.18 4.46622 -5.09445 0
M  V30 10562 H 1017.13 3.41829 -6.20128 0
M  V30 10563 H 1017.53 3.46008 -4.46026 0
M  V30 10564 N 1016.93 1.50896 0.454776 0
M  V30 10565 C 1018.16 1.66759 1.23313 0
M  V30 10566 C 1018.58 0.35722 1.84677 0
M  V30 10567 O 1017.94 -0.680771 1.68033 0
M  V30 10568 C 1017.99 2.77254 2.3057 0
M  V30 10569 O 1017.09 2.39642 3.35627 0
M  V30 10570 H 1016.43 0.556599 0.362068 0
M  V30 10571 H 1018.96 1.97365 0.539274 0
M  V30 10572 H 1018.97 3.0082 2.75629 0
M  V30 10573 H 1017.65 3.72349 1.85281 0
M  V30 10574 H 1016.23 2.26584 2.96165 0
M  V30 10575 N 1018.41 -0.709066 1.40748 0
M  V30 10576 C 1019.66 -1.4646 1.38681 0
M  V30 10577 C 1019.97 -1.95599 -0.0056209 0
M  V30 10578 O 1021.18 -2.71091 -0.148907 0
M  V30 10579 C 1019.63 -2.64771 2.43771 0
M  V30 10580 C 1019.24 -2.22474 3.88856 0
M  V30 10581 C 1020.99 -3.42475 2.50821 0
M  V30 10582 C 1018.89 -3.37663 4.85528 0
M  V30 10583 H 1017.82 -0.550084 0.515678 0
M  V30 10584 H 1020.47 -0.771074 1.66513 0
M  V30 10585 H 1018.86 -3.36325 2.09048 0
M  V30 10586 H 1020.03 -1.58297 4.32757 0
M  V30 10587 H 1018.35 -1.57798 3.85342 0
M  V30 10588 H 1020.94 -4.28201 3.20232 0
M  V30 10589 H 1021.29 -3.86738 1.54076 0
M  V30 10590 H 1021.82 -2.77969 2.84567 0
M  V30 10591 H 1018.56 -2.98426 5.83628 0
M  V30 10592 H 1018.08 -4.00734 4.46287 0
M  V30 10593 H 1019.76 -4.03636 5.05655 0
M  V30 10594 N 1019.89 -1.26353 -0.941956 0
M  V30 10595 C 1021.13 -1.13071 -1.70277 0
M  V30 10596 C 1021.49 0.320699 -1.89303 0
M  V30 10597 O 1022.69 0.575624 -2.62564 0
M  V30 10598 C 1020.97 -1.87777 -3.04096 0
M  V30 10599 S 1022.52 -1.9054 -3.95272 0
M  V30 10600 H 1019.34 -0.403912 -0.585129 0
M  V30 10601 H 1021.94 -1.6006 -1.12254 0
M  V30 10602 H 1020.65 -2.92447 -2.87929 0
M  V30 10603 H 1020.18 -1.41226 -3.67177 0
M  V30 10604 H 1022.19 -0.991548 -4.86192 0
M  V30 10605 N 1021.37 1.14642 -1.08144 0
M  V30 10606 C 1022.3 2.21775 -0.730609 0
M  V30 10607 C 1023.28 1.67683 0.285702 0
M  V30 10608 O 1024.46 1.93567 0.156667 0
M  V30 10609 C 1021.59 3.47033 -0.136242 0
M  V30 10610 C 1020.55 4.14134 -1.0806 0
M  V30 10611 C 1019.87 5.33563 -0.348585 0
M  V30 10612 C 1021.17 4.62978 -2.41761 0
M  V30 10613 H 1022.87 2.51378 -1.62633 0
M  V30 10614 H 1020.41 1.20825 -0.783411 0
M  V30 10615 H 1022.37 4.21226 0.121182 0
M  V30 10616 H 1021.09 3.16786 0.7946 0
M  V30 10617 H 1019.75 3.41892 -1.32308 0
M  V30 10618 H 1019.4 4.99575 0.585974 0
M  V30 10619 H 1019.1 5.79402 -0.978122 0
M  V30 10620 H 1020.62 6.10519 -0.0991508 0
M  V30 10621 H 1022.04 5.28659 -2.21795 0
M  V30 10622 H 1020.43 5.1951 -3.00383 0
M  V30 10623 H 1021.5 3.78189 -3.03482 0
M  V30 10624 N 1022.85 0.866709 1.31628 0
M  V30 10625 C 1023.81 0.325041 2.26883 0
M  V30 10626 C 1024.81 -0.522133 1.52087 0
M  V30 10627 O 1026 -0.331908 1.71009 0
M  V30 10628 C 1023.13 -0.538756 3.36616 0
M  V30 10629 H 1024.32 1.16592 2.76308 0
M  V30 10630 H 1021.88 0.642029 1.42505 0
M  V30 10631 H 1022.61 -1.40096 2.92478 0
M  V30 10632 H 1022.4 0.0678115 3.92041 0
M  V30 10633 H 1023.89 -0.910123 4.07562 0
M  V30 10634 N 1024.32 -1.44642 0.625825 0
M  V30 10635 C 1025.25 -2.33397 -0.0692188 0
M  V30 10636 C 1026.23 -1.47898 -0.840241 0
M  V30 10637 O 1027.42 -1.7663 -0.807176 0
M  V30 10638 C 1024.55 -3.30888 -1.055 0
M  V30 10639 C 1023.5 -4.26164 -0.395968 0
M  V30 10640 C 1022.83 -5.13483 -1.49128 0
M  V30 10641 C 1024.13 -5.17663 0.694433 0
M  V30 10642 H 1025.82 -2.91763 0.671925 0
M  V30 10643 H 1023.37 -1.40294 0.324573 0
M  V30 10644 H 1025.32 -3.91861 -1.54993 0
M  V30 10645 H 1024.05 -2.7072 -1.82696 0
M  V30 10646 H 1022.71 -3.66516 0.0782691 0
M  V30 10647 H 1022.35 -4.49672 -2.25399 0
M  V30 10648 H 1022.05 -5.78038 -1.05573 0
M  V30 10649 H 1023.58 -5.77327 -1.98813 0
M  V30 10650 H 1024.99 -5.72602 0.282818 0
M  V30 10651 H 1023.39 -5.90793 1.05281 0
M  V30 10652 H 1024.46 -4.58994 1.56372 0
M  V30 10653 N 1025.8 -0.366053 -1.5329 0
M  V30 10654 C 1026.73 0.523781 -2.22108 0
M  V30 10655 C 1027.71 1.08262 -1.21318 0
M  V30 10656 O 1028.9 1.13866 -1.50222 0
M  V30 10657 C 1026.02 1.72273 -2.91616 0
M  V30 10658 C 1025.07 1.29129 -4.06482 0
M  V30 10659 S 1025.9 0.292195 -5.34702 0
M  V30 10660 C 1027.06 1.49746 -6.07723 0
M  V30 10661 H 1027.29 -0.0606687 -2.97238 0
M  V30 10662 H 1024.82 -0.15016 -1.53668 0
M  V30 10663 H 1026.78 2.41045 -3.32277 0
M  V30 10664 H 1025.44 2.27843 -2.16209 0
M  V30 10665 H 1024.64 2.18583 -4.54134 0
M  V30 10666 H 1024.24 0.682783 -3.67715 0
M  V30 10667 H 1026.53 2.4284 -6.32483 0
M  V30 10668 H 1027.47 1.06232 -7.00086 0
M  V30 10669 H 1027.88 1.70373 -5.38176 0
M  V30 10670 N 1027.28 1.57312 -0.0952337 0
M  V30 10671 C 1028.53 1.94358 0.568442 0
M  V30 10672 C 1028.85 0.97698 1.68182 0
M  V30 10673 O 1028.11 -0.00340398 1.957 0
M  V30 10674 C 1028.41 3.37937 1.16332 0
M  V30 10675 C 1028.07 4.50565 0.173715 0
M  V30 10676 C 1026.74 4.81099 -0.0984673 0
M  V30 10677 C 1029.09 5.18777 -0.501992 0
M  V30 10678 C 1026.42 5.77172 -1.05305 0
M  V30 10679 C 1028.77 6.15874 -1.44505 0
M  V30 10680 C 1027.43 6.44813 -1.72546 0
M  V30 10681 H 1026.7 0.711206 0.208007 0
M  V30 10682 H 1029.35 1.90734 -0.171096 0
M  V30 10683 H 1027.65 3.3814 1.97911 0
M  V30 10684 H 1029.35 3.63902 1.68453 0
M  V30 10685 H 1025.94 4.26766 0.396042 0
M  V30 10686 H 1030.13 4.95363 -0.304855 0
M  V30 10687 H 1025.38 5.97909 -1.2773 0
M  V30 10688 H 1029.56 6.67824 -1.97444 0
M  V30 10689 H 1027.18 7.19067 -2.46671 0
M  V30 10690 N 1028.76 -0.17846 1.56586 0
M  V30 10691 C 1030.01 -0.894502 1.8078 0
M  V30 10692 C 1030.32 -1.8372 0.67129 0
M  V30 10693 O 1031.53 -2.59509 0.797971 0
M  V30 10694 C 1029.98 -1.64109 3.20306 0
M  V30 10695 C 1029.59 -0.742387 4.41806 0
M  V30 10696 C 1031.33 -2.34578 3.53798 0
M  V30 10697 C 1029.24 -1.4888 5.72354 0
M  V30 10698 H 1028.17 -0.33776 0.674117 0
M  V30 10699 H 1030.82 -0.14752 1.82906 0
M  V30 10700 H 1029.2 -2.43257 3.12477 0
M  V30 10701 H 1030.38 0.011615 4.60799 0
M  V30 10702 H 1028.69 -0.147705 4.16138 0
M  V30 10703 H 1031.29 -2.91004 4.48577 0
M  V30 10704 H 1031.63 -3.09572 2.78336 0
M  V30 10705 H 1032.17 -1.62381 3.63149 0
M  V30 10706 H 1028.9 -0.781325 6.50827 0
M  V30 10707 H 1028.42 -2.21631 5.57351 0
M  V30 10708 H 1030.1 -2.03819 6.14058 0
M  V30 10709 N 1030.24 -1.51135 -0.446768 0
M  V30 10710 C 1031.46 -1.67411 -1.22427 0
M  V30 10711 C 1031.89 -0.367009 -1.84485 0
M  V30 10712 O 1031.24 0.67185 -1.68392 0
M  V30 10713 C 1031.29 -2.78473 -2.29096 0
M  V30 10714 O 1030.4 -2.41419 -3.34351 0
M  V30 10715 H 1029.74 -0.558512 -0.359111 0
M  V30 10716 H 1032.27 -1.97648 -0.5288 0
M  V30 10717 H 1032.28 -3.02277 -2.7403 0
M  V30 10718 H 1030.95 -3.73326 -1.83304 0
M  V30 10719 H 1029.53 -2.28152 -2.9496 0
M  V30 10720 N 1031.71 0.701592 -1.41122 0
M  V30 10721 C 1032.94 1.49553 -1.43696 0
M  V30 10722 C 1033.36 1.88053 -0.0421865 0
M  V30 10723 O 1032.72 1.54223 0.953144 0
M  V30 10724 C 1032.77 2.73834 -2.34622 0
M  V30 10725 O 1031.87 3.71088 -1.7991 0
M  V30 10726 H 1031.21 0.450352 -0.487933 0
M  V30 10727 H 1033.74 0.862886 -1.85514 0
M  V30 10728 H 1033.75 3.22209 -2.5029 0
M  V30 10729 H 1032.43 2.45149 -3.35969 0
M  V30 10730 H 1031.01 3.29994 -1.73661 0
M  V30 10731 N 1033.19 1.2685 0.935242 0
M  V30 10732 C 1034.44 1.13921 1.68504 0
M  V30 10733 C 1034.79 -0.313201 1.89834 0
M  V30 10734 O 1034.09 -1.22626 1.47219 0
M  V30 10735 C 1034.28 1.8482 3.05903 0
M  V30 10736 C 1034.11 3.36806 2.9798 0
M  V30 10737 C 1032.88 4.06109 3.00672 0
M  V30 10738 C 1035.08 4.32904 2.77667 0
M  V30 10739 N 1033.06 5.44722 2.83111 0
M  V30 10740 C 1034.43 5.58732 2.68735 0
M  V30 10741 C 1036.48 4.23084 2.62496 0
M  V30 10742 C 1035.19 6.75861 2.4618 0
M  V30 10743 C 1037.21 5.39926 2.41317 0
M  V30 10744 C 1036.58 6.64706 2.33121 0
M  V30 10745 H 1032.67 0.471689 0.623725 0
M  V30 10746 H 1035.26 1.60217 1.10628 0
M  V30 10747 H 1033.43 1.40989 3.61907 0
M  V30 10748 H 1035.16 1.64461 3.69777 0
M  V30 10749 H 1031.92 3.57516 3.10611 0
M  V30 10750 H 1032.34 6.17522 2.77481 0
M  V30 10751 H 1036.98 3.27341 2.67596 0
M  V30 10752 H 1034.7 7.71694 2.39821 0
M  V30 10753 H 1038.29 5.34203 2.30475 0
M  V30 10754 H 1037.17 7.53592 2.16952 0
M  V30 10755 N 1034.67 -1.14067 1.0875 0
M  V30 10756 C 1035.9 -1.88767 0.839682 0
M  V30 10757 C 1036.31 -1.79024 -0.612119 0
M  V30 10758 O 1035.65 -1.14986 -1.43262 0
M  V30 10759 C 1035.71 -3.39333 1.18716 0
M  V30 10760 C 1035.38 -3.72858 2.64245 0
M  V30 10761 C 1036.37 -3.72683 3.62496 0
M  V30 10762 C 1034.06 -4.0273 3.0019 0
M  V30 10763 C 1036.05 -4.01909 4.9472 0
M  V30 10764 C 1033.74 -4.31618 4.32607 0
M  V30 10765 C 1034.74 -4.31192 5.29682 0
M  V30 10766 O 1034.43 -4.59377 6.59718 0
M  V30 10767 H 1034.16 -0.604665 0.302253 0
M  V30 10768 H 1036.71 -1.45364 1.45115 0
M  V30 10769 H 1034.94 -3.83205 0.518707 0
M  V30 10770 H 1036.63 -3.95346 0.919599 0
M  V30 10771 H 1037.4 -3.49688 3.3607 0
M  V30 10772 H 1033.28 -4.02213 2.25268 0
M  V30 10773 H 1036.82 -4.01491 5.70483 0
M  V30 10774 H 1032.72 -4.54083 4.58779 0
M  V30 10775 H 1033.49 -4.77078 6.65086 0
M  V30 10776 N 1036.15 -0.873678 -1.31166 0
M  V30 10777 C 1037.38 -0.500317 -2.0045 0
M  V30 10778 C 1037.79 0.912716 -1.65729 0
M  V30 10779 O 1037.13 1.61001 -0.884563 0
M  V30 10780 C 1037.19 -0.58197 -3.54758 0
M  V30 10781 C 1036.86 -1.95728 -4.12964 0
M  V30 10782 C 1037.85 -2.92526 -4.29796 0
M  V30 10783 C 1035.54 -2.2596 -4.48606 0
M  V30 10784 C 1037.53 -4.17697 -4.81464 0
M  V30 10785 C 1035.22 -3.5138 -4.99976 0
M  V30 10786 C 1036.22 -4.47064 -5.16356 0
M  V30 10787 O 1035.9 -5.70259 -5.66621 0
M  V30 10788 H 1035.64 -0.193044 -0.64785 0
M  V30 10789 H 1038.19 -1.17768 -1.68285 0
M  V30 10790 H 1036.42 0.152326 -3.864 0
M  V30 10791 H 1038.11 -0.221506 -4.05295 0
M  V30 10792 H 1038.88 -2.70479 -4.02574 0
M  V30 10793 H 1034.75 -1.52258 -4.3513 0
M  V30 10794 H 1038.3 -4.92389 -4.94165 0
M  V30 10795 H 1034.2 -3.73269 -5.26631 0
M  V30 10796 H 1034.96 -5.72483 -5.84983 0
M  V30 10797 N 1037.63 1.44308 -0.633487 0
M  V30 10798 C 1038.59 2.2912 0.060376 0
M  V30 10799 C 1039.59 1.41166 0.769992 0
M  V30 10800 O 1040.78 1.63012 0.614224 0
M  V30 10801 C 1037.91 3.22798 1.0961 0
M  V30 10802 H 1039.1 2.91958 -0.685617 0
M  V30 10803 H 1036.66 1.51259 -0.393738 0
M  V30 10804 H 1037.39 2.64815 1.87199 0
M  V30 10805 H 1037.18 3.87618 0.591161 0
M  V30 10806 H 1038.67 3.86504 1.58127 0
M  V30 10807 N 1039.1 0.374177 1.53094 0
M  V30 10808 C 1040.35 -0.213981 2.00562 0
M  V30 10809 C 1040.67 -1.4916 1.26533 0
M  V30 10810 O 1041.87 -2.15889 1.64634 0
M  V30 10811 C 1040.33 -0.431876 3.57299 0
M  V30 10812 C 1039.94 0.831615 4.40214 0
M  V30 10813 C 1041.68 -0.977222 4.13099 0
M  V30 10814 C 1039.59 0.582831 5.88521 0
M  V30 10815 H 1038.52 -0.0837386 0.749336 0
M  V30 10816 H 1041.17 0.494245 1.76719 0
M  V30 10817 H 1039.55 -1.20158 3.7733 0
M  V30 10818 H 1040.72 1.60477 4.31953 0
M  V30 10819 H 1039.04 1.30081 3.9556 0
M  V30 10820 H 1041.64 -1.17881 5.21544 0
M  V30 10821 H 1041.98 -1.94189 3.68234 0
M  V30 10822 H 1042.51 -0.267473 3.969 0
M  V30 10823 H 1039.25 1.51807 6.37679 0
M  V30 10824 H 1038.77 -0.151666 5.99608 0
M  V30 10825 H 1040.45 0.211604 6.46654 0
M  V30 10826 N 1040.58 -1.57259 0.103575 0
M  V30 10827 C 1041.83 -1.94945 -0.558953 0
M  V30 10828 C 1042.16 -0.986038 -1.67305 0
M  V30 10829 O 1041.44 -0.0205464 -1.94489 0
M  V30 10830 C 1041.72 -3.42689 -1.10617 0
M  V30 10831 C 1041.57 -4.498 0.00345246 0
M  V30 10832 C 1042.89 -3.91933 -2.00191 0
M  V30 10833 H 1040.01 -0.708859 -0.201713 0
M  V30 10834 H 1042.65 -1.89183 0.176006 0
M  V30 10835 H 1040.8 -3.4773 -1.73251 0
M  V30 10836 H 1042.47 -4.56866 0.638082 0
M  V30 10837 H 1040.72 -4.28615 0.668705 0
M  V30 10838 H 1041.39 -5.50397 -0.420396 0
M  V30 10839 H 1043.86 -3.89098 -1.4745 0
M  V30 10840 H 1042.74 -4.9586 -2.35402 0
M  V30 10841 H 1043 -3.31722 -2.92255 0
M  V30 10842 N 1042.06 0.170153 -1.56679 0
M  V30 10843 C 1043.02 1.19443 -1.95617 0
M  V30 10844 C 1044.02 1.37118 -0.83996 0
M  V30 10845 O 1045.21 1.34504 -1.10699 0
M  V30 10846 C 1042.35 2.55926 -2.25199 0
M  V30 10847 H 1043.54 0.86095 -2.87276 0
M  V30 10848 H 1041.09 0.412646 -1.50755 0
M  V30 10849 H 1041.83 2.94286 -1.36257 0
M  V30 10850 H 1041.61 2.44464 -3.06562 0
M  V30 10851 H 1043.1 3.29742 -2.56242 0
M  V30 10852 N 1043.54 1.5137 0.438746 0
M  V30 10853 C 1044.47 1.67264 1.55236 0
M  V30 10854 C 1045.45 0.520238 1.54053 0
M  V30 10855 O 1046.63 0.743897 1.73201 0
M  V30 10856 C 1043.76 1.68492 2.93816 0
M  V30 10857 C 1042.81 2.8968 3.1303 0
M  V30 10858 S 1043.64 4.50514 2.89478 0
M  V30 10859 C 1044.8 4.54485 4.30342 0
M  V30 10860 H 1045.03 2.61456 1.4152 0
M  V30 10861 H 1042.56 1.41036 0.628341 0
M  V30 10862 H 1044.52 1.69884 3.73697 0
M  V30 10863 H 1043.18 0.754787 3.04896 0
M  V30 10864 H 1042.37 2.86936 4.14347 0
M  V30 10865 H 1041.98 2.86022 2.40972 0
M  V30 10866 H 1044.27 4.30039 5.2352 0
M  V30 10867 H 1045.21 5.56288 4.3812 0
M  V30 10868 H 1045.62 3.83824 4.13931 0
M  V30 10869 N 1045.02 -0.694098 1.41492 0
M  V30 10870 C 1046.26 -1.4563 1.41137 0
M  V30 10871 C 1046.6 -1.94189 0.0208428 0
M  V30 10872 O 1045.87 -1.69628 -0.951655 0
M  V30 10873 C 1046.15 -2.66714 2.41941 0
M  V30 10874 C 1046.01 -2.23912 3.90107 0
M  V30 10875 C 1047.33 -3.68913 2.39981 0
M  V30 10876 H 1044.44 -0.52821 0.513968 0
M  V30 10877 H 1047.09 -0.790437 1.72778 0
M  V30 10878 H 1045.24 -3.23525 2.1509 0
M  V30 10879 H 1046.91 -1.72417 4.27867 0
M  V30 10880 H 1045.15 -1.5568 4.04903 0
M  V30 10881 H 1045.82 -3.108 4.56188 0
M  V30 10882 H 1048.3 -3.21779 2.63813 0
M  V30 10883 H 1047.17 -4.51242 3.12524 0
M  V30 10884 H 1047.44 -4.18711 1.41892 0
M  V30 10885 N 1046.49 -1.27344 -0.928501 0
M  V30 10886 C 1047.74 -1.13019 -1.67061 0
M  V30 10887 C 1048.06 0.323614 -1.92904 0
M  V30 10888 O 1049.26 0.587752 -2.65062 0
M  V30 10889 C 1047.72 -1.97471 -3.00887 0
M  V30 10890 C 1047.33 -3.47504 -2.82746 0
M  V30 10891 C 1049.07 -1.91792 -3.78703 0
M  V30 10892 C 1046.98 -4.24158 -4.12122 0
M  V30 10893 H 1045.91 -0.419364 -0.626618 0
M  V30 10894 H 1048.56 -1.51759 -1.03158 0
M  V30 10895 H 1046.94 -1.51576 -3.65843 0
M  V30 10896 H 1048.11 -4.01256 -2.26562 0
M  V30 10897 H 1046.43 -3.54554 -2.18359 0
M  V30 10898 H 1049.03 -2.46339 -4.74575 0
M  V30 10899 H 1049.37 -0.891375 -4.06645 0
M  V30 10900 H 1049.9 -2.35578 -3.20543 0
M  V30 10901 H 1046.64 -5.27333 -3.89359 0
M  V30 10902 H 1046.16 -3.75183 -4.67972 0
M  V30 10903 H 1047.84 -4.33288 -4.80489 0
M  V30 10904 N 1047.97 1.13488 -1.09353 0
M  V30 10905 C 1048.94 2.17066 -0.735863 0
M  V30 10906 C 1049.94 1.59086 0.234181 0
M  V30 10907 O 1051.13 1.74196 0.012463 0
M  V30 10908 C 1048.26 3.40786 -0.0880975 0
M  V30 10909 H 1049.45 2.50221 -1.65316 0
M  V30 10910 H 1047 1.28304 -0.89263 0
M  V30 10911 H 1047.74 3.1322 0.840462 0
M  V30 10912 H 1047.52 3.8414 -0.786073 0
M  V30 10913 H 1049.01 4.17342 0.146775 0
M  V30 10914 N 1049.45 0.880621 1.30701 0
M  V30 10915 C 1050.7 0.495894 1.95922 0
M  V30 10916 C 1051.02 -0.957214 1.69889 0
M  V30 10917 O 1050.29 -1.67245 1.0201 0
M  V30 10918 H 1048.87 0.180394 0.724891 0
M  V30 10919 H 1051.53 1.12274 1.59313 0
M  V30 10920 H 1050.63 0.662508 3.04987 0
M  V30 10921 N 1050.93 -1.4397 0.641131 0
M  V30 10922 C 1051.86 -2.27948 -0.10731 0
M  V30 10923 C 1052.84 -1.39124 -0.841615 0
M  V30 10924 O 1054.02 -1.68566 -0.843662 0
M  V30 10925 C 1051.15 -3.18277 -1.15835 0
M  V30 10926 C 1050.2 -4.23276 -0.52345 0
M  V30 10927 S 1051.03 -5.30984 0.693969 0
M  V30 10928 C 1052.19 -6.24882 -0.356831 0
M  V30 10929 H 1052.42 -2.91077 0.605083 0
M  V30 10930 H 1049.95 -1.48303 0.429598 0
M  V30 10931 H 1051.91 -3.70867 -1.75977 0
M  V30 10932 H 1050.57 -2.54348 -1.84299 0
M  V30 10933 H 1049.76 -4.86533 -1.31536 0
M  V30 10934 H 1049.37 -3.74 0.00358355 0
M  V30 10935 H 1051.66 -6.66305 -1.22653 0
M  V30 10936 H 1052.6 -7.07692 0.240412 0
M  V30 10937 H 1053.01 -5.60301 -0.687217 0
M  V30 10938 N 1052.41 -0.382291 -1.52893 0
M  V30 10939 C 1053.66 0.203342 -2.00672 0
M  V30 10940 C 1053.97 1.48487 -1.27322 0
M  V30 10941 O 1055.18 2.15013 -1.65776 0
M  V30 10942 C 1053.63 0.412922 -3.57523 0
M  V30 10943 C 1053.24 -0.854949 -4.39767 0
M  V30 10944 C 1054.98 0.955301 -4.13611 0
M  V30 10945 C 1052.89 -0.614033 -5.88204 0
M  V30 10946 H 1051.82 0.0797635 -0.749769 0
M  V30 10947 H 1054.47 -0.50361 -1.76454 0
M  V30 10948 H 1052.85 1.18155 -3.77962 0
M  V30 10949 H 1054.03 -1.62765 -4.31096 0
M  V30 10950 H 1052.34 -1.32176 -3.94865 0
M  V30 10951 H 1054.94 1.15114 -5.22162 0
M  V30 10952 H 1055.28 1.92233 -3.69259 0
M  V30 10953 H 1055.82 0.24642 -3.97036 0
M  V30 10954 H 1052.55 -1.55187 -6.36865 0
M  V30 10955 H 1052.07 0.119865 -5.9968 0
M  V30 10956 H 1053.75 -0.245895 -6.46533 0
M  V30 10957 N 1053.89 1.57202 -0.111913 0
M  V30 10958 C 1055.12 1.99008 0.554907 0
M  V30 10959 C 1055.52 0.990323 1.61212 0
M  V30 10960 O 1054.87 -0.0259612 1.83682 0
M  V30 10961 C 1054.93 3.37218 1.24598 0
M  V30 10962 C 1054.59 4.55752 0.337549 0
M  V30 10963 C 1055.59 5.18192 -0.421026 0
M  V30 10964 C 1053.27 5.01674 0.25069 0
M  V30 10965 C 1055.27 6.24938 -1.25426 0
M  V30 10966 C 1052.96 6.08282 -0.586186 0
M  V30 10967 C 1053.95 6.6978 -1.3373 0
M  V30 10968 O 1053.64 7.7433 -2.16029 0
M  V30 10969 H 1053.37 0.658669 0.152091 0
M  V30 10970 H 1055.93 2.04492 -0.192937 0
M  V30 10971 H 1054.16 3.28467 2.04074 0
M  V30 10972 H 1055.85 3.63359 1.809 0
M  V30 10973 H 1056.61 4.83634 -0.363752 0
M  V30 10974 H 1052.49 4.53558 0.825005 0
M  V30 10975 H 1056.04 6.72869 -1.84102 0
M  V30 10976 H 1051.93 6.42271 -0.64488 0
M  V30 10977 H 1052.7 7.91395 -2.08894 0
M  V30 10978 N 1055.36 -0.161842 1.56767 0
M  V30 10979 C 1056.31 -1.2002 1.97139 0
M  V30 10980 C 1057.28 -1.43486 0.836713 0
M  V30 10981 O 1058.47 -1.56069 1.0976 0
M  V30 10982 C 1055.61 -2.53228 2.34456 0
M  V30 10983 C 1054.72 -2.37062 3.61145 0
M  V30 10984 C 1053.85 -3.63202 3.87631 0
M  V30 10985 C 1052.89 -3.42008 5.07638 0
M  V30 10986 N 1052.03 -4.60242 5.30209 0
M  V30 10987 H 1056.87 -0.848918 2.85653 0
M  V30 10988 H 1054.41 -0.407753 1.41336 0
M  V30 10989 H 1056.36 -3.30879 2.54116 0
M  V30 10990 H 1054.99 -2.86333 1.4904 0
M  V30 10991 H 1054.05 -1.50539 3.49345 0
M  V30 10992 H 1055.36 -2.17353 4.48953 0
M  V30 10993 H 1054.51 -4.49285 4.0771 0
M  V30 10994 H 1053.25 -3.85899 2.98216 0
M  V30 10995 H 1052.26 -2.54312 4.87448 0
M  V30 10996 H 1053.48 -3.20724 5.98593 0
M  V30 10997 H 1051.43 -4.8314 4.43747 0
M  V30 10998 H 1051.34 -4.43481 6.12259 0
M  V30 10999 H 1052.61 -5.47581 5.54775 0
M  V30 11000 N 1056.84 -1.516 -0.430713 0
M  V30 11001 C 1058.07 -1.68169 -1.20011 0
M  V30 11002 C 1058.48 -0.381406 -1.85316 0
M  V30 11003 O 1057.82 0.6506 -1.71793 0
M  V30 11004 C 1057.88 -2.7454 -2.32095 0
M  V30 11005 C 1057.55 -4.16942 -1.87104 0
M  V30 11006 C 1058.55 -5.01503 -1.37078 0
M  V30 11007 C 1056.23 -4.63075 -1.94594 0
M  V30 11008 C 1058.22 -6.3026 -0.951362 0
M  V30 11009 C 1055.91 -5.91827 -1.52264 0
M  V30 11010 C 1056.91 -6.75247 -1.02618 0
M  V30 11011 O 1056.6 -8.01591 -0.608905 0
M  V30 11012 H 1056.33 -0.567361 -0.367528 0
M  V30 11013 H 1058.88 -1.98819 -0.515759 0
M  V30 11014 H 1057.11 -2.39219 -3.03828 0
M  V30 11015 H 1058.8 -2.79921 -2.93937 0
M  V30 11016 H 1059.57 -4.67063 -1.30681 0
M  V30 11017 H 1055.45 -3.98262 -2.32182 0
M  V30 11018 H 1058.99 -6.95323 -0.563163 0
M  V30 11019 H 1054.89 -6.2578 -1.58333 0
M  V30 11020 H 1055.66 -8.15201 -0.73416 0
M  V30 11021 N 1058.32 0.686584 -1.41858 0
M  V30 11022 C 1059.57 1.44235 -1.40994 0
M  V30 11023 C 1059.88 1.95583 -0.0254979 0
M  V30 11024 O 1061.09 2.71294 0.10576 0
M  V30 11025 C 1059.54 2.6086 -2.47952 0
M  V30 11026 C 1059.15 2.16259 -3.92347 0
M  V30 11027 C 1060.9 3.38441 -2.56237 0
M  V30 11028 C 1058.8 3.29896 -4.90838 0
M  V30 11029 H 1057.73 0.54181 -0.524364 0
M  V30 11030 H 1060.38 0.744486 -1.67719 0
M  V30 11031 H 1058.77 3.32957 -2.14373 0
M  V30 11032 H 1059.94 1.51392 -4.35221 0
M  V30 11033 H 1058.25 1.51648 -3.87804 0
M  V30 11034 H 1060.85 4.23052 -3.27003 0
M  V30 11035 H 1061.19 3.84238 -1.6021 0
M  V30 11036 H 1061.73 2.73406 -2.88953 0
M  V30 11037 H 1058.47 2.89104 -5.88302 0
M  V30 11038 H 1057.99 3.93584 -4.52606 0
M  V30 11039 H 1059.67 3.95541 -5.12012 0
M  V30 11040 N 1059.8 1.27835 0.921735 0
M  V30 11041 C 1060.71 1.12904 2.05645 0
M  V30 11042 C 1061.72 0.0575704 1.73905 0
M  V30 11043 O 1062.9 0.265261 1.99645 0
M  V30 11044 C 1059.96 0.783957 3.3772 0
M  V30 11045 C 1059.03 1.93694 3.8312 0
M  V30 11046 C 1058.26 1.60823 5.08893 0
M  V30 11047 O 1058.48 0.518873 5.68035 0
M  V30 11048 O 1057.42 2.44932 5.49811 0
M  V30 11049 H 1061.24 2.08143 2.21157 0
M  V30 11050 H 1058.83 1.07078 1.04185 0
M  V30 11051 H 1060.71 0.605107 4.17033 0
M  V30 11052 H 1059.38 -0.138849 3.23402 0
M  V30 11053 H 1058.29 2.17089 3.04669 0
M  V30 11054 H 1059.62 2.84016 4.0199 0
M  V30 11055 N 1061.28 -1.12907 1.09954 0
M  V30 11056 C 1062.51 -1.87866 0.859656 0
M  V30 11057 C 1062.91 -1.79664 -0.593096 0
M  V30 11058 O 1062.26 -1.16499 -1.42034 0
M  V30 11059 C 1062.32 -3.38055 1.22308 0
M  V30 11060 C 1061.98 -3.70035 2.68185 0
M  V30 11061 C 1062.98 -3.68817 3.66428 0
M  V30 11062 C 1060.66 -3.99523 3.04444 0
M  V30 11063 C 1062.66 -3.96639 4.98955 0
M  V30 11064 C 1060.35 -4.27006 4.37161 0
M  V30 11065 C 1061.34 -4.25549 5.34225 0
M  V30 11066 O 1061.03 -4.52354 6.64553 0
M  V30 11067 H 1060.76 -0.601425 0.308649 0
M  V30 11068 H 1063.32 -1.43817 1.46649 0
M  V30 11069 H 1061.55 -3.82634 0.559322 0
M  V30 11070 H 1063.24 -3.94348 0.961479 0
M  V30 11071 H 1064 -3.46104 3.3976 0
M  V30 11072 H 1059.88 -3.99801 2.29521 0
M  V30 11073 H 1063.43 -3.95418 5.74709 0
M  V30 11074 H 1059.32 -4.49192 4.6357 0
M  V30 11075 H 1060.09 -4.69997 6.70108 0
M  V30 11076 N 1062.75 -0.88754 -1.30232 0
M  V30 11077 C 1063.69 -0.313488 -2.27046 0
M  V30 11078 C 1064.7 0.533383 -1.53814 0
M  V30 11079 O 1065.89 0.352516 -1.74984 0
M  V30 11080 C 1062.99 0.572674 -3.34026 0
M  V30 11081 C 1062.16 -0.245712 -4.36709 0
M  V30 11082 C 1061.22 0.57135 -5.23089 0
M  V30 11083 O 1060.25 -0.00685948 -5.692 0
M  V30 11084 N 1061.45 1.87994 -5.49216 0
M  V30 11085 H 1064.21 -1.14553 -2.76943 0
M  V30 11086 H 1061.77 -0.750785 -1.43439 0
M  V30 11087 H 1063.77 1.12539 -3.88738 0
M  V30 11088 H 1062.34 1.3054 -2.84039 0
M  V30 11089 H 1061.56 -0.979869 -3.81827 0
M  V30 11090 H 1062.84 -0.806618 -5.02366 0
M  V30 11091 H 1062.24 2.3726 -5.13541 0
M  V30 11092 H 1060.8 2.38005 -6.06792 0
M  V30 11093 N 1064.23 1.43628 -0.648757 0
M  V30 11094 C 1065.48 2.01465 -0.16002 0
M  V30 11095 C 1065.8 1.51413 1.22878 0
M  V30 11096 O 1065.07 0.724919 1.81994 0
M  V30 11097 H 1063.65 0.744885 -0.0561672 0
M  V30 11098 H 1066.31 1.75897 -0.839422 0
M  V30 11099 H 1065.41 3.1178 -0.141213 0
M  V30 11100 N 1065.71 0.390394 1.52688 0
M  V30 11101 C 1066.67 -0.432149 2.25089 0
M  V30 11102 C 1067.67 -0.989296 1.26766 0
M  V30 11103 O 1068.86 -0.871126 1.50854 0
M  V30 11104 C 1066 -1.60642 3.00678 0
M  V30 11105 H 1067.19 0.201734 2.99221 0
M  V30 11106 H 1064.74 0.142531 1.55649 0
M  V30 11107 H 1065.48 -2.2777 2.3085 0
M  V30 11108 H 1065.26 -1.21361 3.72846 0
M  V30 11109 H 1066.75 -2.18873 3.55647 0
M  V30 11110 N 1067.19 -1.57141 0.120249 0
M  V30 11111 C 1068.1 -2.18925 -0.843155 0
M  V30 11112 C 1069.11 -1.16575 -1.29175 0
M  V30 11113 O 1070.29 -1.4905 -1.35448 0
M  V30 11114 C 1067.36 -2.7775 -2.075 0
M  V30 11115 C 1066.42 -3.95139 -1.6782 0
M  V30 11116 C 1065.65 -4.51149 -2.85132 0
M  V30 11117 O 1065.87 -4.06056 -4.00593 0
M  V30 11118 O 1064.81 -5.41815 -2.62145 0
M  V30 11119 H 1068.63 -3.01707 -0.347357 0
M  V30 11120 H 1066.22 -1.49028 -0.105427 0
M  V30 11121 H 1068.1 -3.15243 -2.79643 0
M  V30 11122 H 1066.77 -1.97998 -2.56083 0
M  V30 11123 H 1065.68 -3.62412 -0.927807 0
M  V30 11124 H 1067.01 -4.7633 -1.23977 0
M  V30 11125 N 1068.67 0.153526 -1.5685 0
M  V30 11126 C 1069.61 1.18973 -1.97773 0
M  V30 11127 C 1070.58 1.43041 -0.844311 0
M  V30 11128 O 1071.77 1.55484 -1.10586 0
M  V30 11129 C 1068.91 2.51981 -2.35795 0
M  V30 11130 C 1068.02 2.35143 -3.62397 0
M  V30 11131 C 1067.16 3.61141 -3.89552 0
M  V30 11132 C 1066.2 3.39311 -5.09445 0
M  V30 11133 N 1065.33 4.57423 -5.32643 0
M  V30 11134 H 1070.17 0.833758 -2.86099 0
M  V30 11135 H 1067.71 0.400252 -1.4155 0
M  V30 11136 H 1069.67 3.29527 -2.55867 0
M  V30 11137 H 1068.3 2.85539 -1.50557 0
M  V30 11138 H 1067.35 1.48684 -3.50139 0
M  V30 11139 H 1068.66 2.14969 -4.501 0
M  V30 11140 H 1067.82 4.47117 -4.10087 0
M  V30 11141 H 1066.55 3.84312 -3.00259 0
M  V30 11142 H 1065.56 2.51723 -4.8879 0
M  V30 11143 H 1066.78 3.17545 -6.00285 0
M  V30 11144 H 1064.73 4.8078 -4.46303 0
M  V30 11145 H 1064.65 4.40228 -6.14602 0
M  V30 11146 H 1065.92 5.44632 -5.57671 0
M  V30 11147 N 1070.14 1.51827 0.422667 0
M  V30 11148 C 1071.05 1.77066 1.53899 0
M  V30 11149 C 1072.07 0.655541 1.61179 0
M  V30 11150 O 1073.25 0.939448 1.78147 0
M  V30 11151 C 1070.31 1.90372 2.89758 0
M  V30 11152 C 1069.37 3.14256 2.92475 0
M  V30 11153 C 1068.61 3.26918 4.21853 0
M  V30 11154 O 1068.83 2.45164 5.15025 0
M  V30 11155 O 1067.76 4.19989 4.31153 0
M  V30 11156 H 1071.59 2.71791 1.35511 0
M  V30 11157 H 1069.17 1.36506 0.607165 0
M  V30 11158 H 1071.06 2.01024 3.70361 0
M  V30 11159 H 1069.73 0.988347 3.08242 0
M  V30 11160 H 1068.64 3.09072 2.10773 0
M  V30 11161 H 1069.97 4.0553 2.78937 0
M  V30 11162 N 1071.62 -0.679052 1.4222 0
M  V30 11163 C 1072.87 -1.43978 1.43673 0
M  V30 11164 C 1073.22 -1.92333 0.0506711 0
M  V30 11165 O 1072.52 -1.67715 -0.926406 0
M  V30 11166 C 1072.71 -2.65528 2.39227 0
M  V30 11167 C 1072.54 -2.29065 3.86987 0
M  V30 11168 C 1071.31 -2.1863 4.55553 0
M  V30 11169 C 1073.51 -1.90983 4.77525 0
M  V30 11170 N 1071.49 -1.75227 5.88361 0
M  V30 11171 C 1072.86 -1.58465 5.99407 0
M  V30 11172 C 1074.92 -1.77938 4.65019 0
M  V30 11173 C 1073.62 -1.14212 7.10175 0
M  V30 11174 C 1075.64 -1.35089 5.75765 0
M  V30 11175 C 1075.01 -1.03493 6.96756 0
M  V30 11176 H 1071.11 -0.523503 0.58092 0
M  V30 11177 H 1073.69 -0.784043 1.78216 0
M  V30 11178 H 1071.86 -3.28797 2.06753 0
M  V30 11179 H 1073.59 -3.32096 2.31288 0
M  V30 11180 H 1070.35 -2.37562 4.09709 0
M  V30 11181 H 1070.77 -1.5596 6.58791 0
M  V30 11182 H 1075.41 -2.01013 3.71959 0
M  V30 11183 H 1073.13 -0.89882 8.03086 0
M  V30 11184 H 1076.72 -1.25522 5.68098 0
M  V30 11185 H 1075.6 -0.708396 7.80994 0
M  V30 11186 N 1073.1 -1.28322 -0.914942 0
M  V30 11187 C 1074.35 -1.15179 -1.66067 0
M  V30 11188 C 1074.67 0.300279 -1.92674 0
M  V30 11189 O 1073.94 1.20821 -1.54205 0
M  V30 11190 H 1072.52 -0.423264 -0.615513 0
M  V30 11191 H 1075.18 -1.61034 -1.09791 0
M  V30 11192 H 1074.28 -1.69048 -2.62353 0
M  V30 11193 N 1074.58 1.12322 -1.10551 0
M  V30 11194 C 1075.86 1.80201 -0.760715 0
M  V30 11195 C 1076.24 1.97228 0.752628 0
M  V30 11196 O 1075.58 1.54958 1.67929 0
M  V30 11197 C 1075.79 3.14491 -1.51316 0
M  V30 11198 C 1077.14 3.89671 -1.68647 0
M  V30 11199 O 1078.17 3.24151 -1.47664 0
M  V30 11200 O 1077.02 5.0722 -2.03445 0
M  V30 11201 H 1074.12 0.780084 -0.274587 0
M  V30 11202 H 1076.66 1.19147 -1.20839 0
M  V30 11203 H 1075.44 2.97396 -2.54306 0
M  V30 11204 H 1075.06 3.83253 -1.05842 0
M  V30 11205 N 1076.06 0.894434 1.2976 0
M  V30 11206 C 1077.3 0.516646 1.95385 0
M  V30 11207 C 1077.63 -0.939141 1.70895 0
M  V30 11208 O 1076.9 -1.66153 1.03778 0
M  V30 11209 H 1075.48 0.188072 0.722937 0
M  V30 11210 H 1078.14 1.13958 1.58113 0
M  V30 11211 H 1077.23 0.694819 3.04267 0
M  V30 11212 N 1077.53 -1.43282 0.656365 0
M  V30 11213 C 1078.78 -2.00996 0.168354 0
M  V30 11214 C 1079.1 -1.52408 -1.22601 0
M  V30 11215 O 1080.3 -2.02417 -1.80941 0
M  V30 11216 C 1078.76 -3.5903 0.250161 0
M  V30 11217 C 1078.37 -4.1661 1.64742 0
M  V30 11218 C 1080.11 -4.24118 -0.180084 0
M  V30 11219 C 1078.02 -5.66948 1.68299 0
M  V30 11220 H 1076.95 -0.751674 0.0591769 0
M  V30 11221 H 1079.6 -1.64216 0.818859 0
M  V30 11222 H 1077.98 -3.93226 -0.467908 0
M  V30 11223 H 1079.15 -3.93908 2.3911 0
M  V30 11224 H 1077.47 -3.63905 2.02391 0
M  V30 11225 H 1080.07 -5.34419 -0.173401 0
M  V30 11226 H 1080.41 -3.98264 -1.21208 0
M  V30 11227 H 1080.94 -3.94816 0.486343 0
M  V30 11228 H 1077.68 -5.97573 2.69419 0
M  V30 11229 H 1077.2 -5.91697 0.98261 0
M  V30 11230 H 1078.88 -6.31041 1.42813 0
M  V30 11231 N 1079.01 -0.398486 -1.52479 0
M  V30 11232 C 1080.43 -0.0488635 -1.59525 0
M  V30 11233 C 1080.63 1.43756 -1.41197 0
M  V30 11234 O 1079.69 2.20317 -1.23357 0
M  V30 11235 C 1081 -0.534262 -2.95916 0
M  V30 11236 C 1082.55 -0.491314 -3.0912 0
M  V30 11237 C 1083.02 -0.953049 -4.47974 0
M  V30 11238 N 1084.51 -0.909434 -4.54184 0
M  V30 11239 C 1085.25 -1.23801 -5.59876 0
M  V30 11240 N 1084.74 -1.63752 -6.73169 0
M  V30 11241 N 1086.54 -1.15867 -5.50028 0
M  V30 11242 H 1078.69 -1.36608 -1.62641 0
M  V30 11243 H 1080.95 -0.560515 -0.764544 0
M  V30 11244 H 1080.66 -1.57277 -3.14574 0
M  V30 11245 H 1080.53 0.0617787 -3.77149 0
M  V30 11246 H 1082.92 0.538123 -2.90152 0
M  V30 11247 H 1083 -1.12327 -2.29818 0
M  V30 11248 H 1082.64 -1.98076 -4.67684 0
M  V30 11249 H 1082.57 -0.298007 -5.25756 0
M  V30 11250 H 1085.06 -0.615569 -3.72853 0
M  V30 11251 H 1085.38 -1.87163 -7.49793 0
M  V30 11252 H 1083.72 -1.67647 -6.74477 0
M  V30 11253 H 1086.91 -0.845502 -4.60401 0
M  V30 11254 H 1087.09 -1.41805 -6.32294 0
M  V30 11255 N 1080.49 1.57075 -0.12858 0
M  V30 11256 C 1081.74 1.95134 0.526046 0
M  V30 11257 C 1082.06 1.01337 1.66601 0
M  V30 11258 O 1081.33 0.0714361 1.9577 0
M  V30 11259 H 1079.91 0.720468 0.19732 0
M  V30 11260 H 1082.57 1.93874 -0.199767 0
M  V30 11261 H 1081.67 2.98406 0.914332 0
M  V30 11262 N 1081.97 -0.145205 1.5693 0
M  V30 11263 C 1082.9 -1.18096 2.01434 0
M  V30 11264 C 1083.88 -1.447 0.894204 0
M  V30 11265 O 1085.07 -1.55589 1.16214 0
M  V30 11266 C 1082.2 -2.51369 2.39647 0
M  V30 11267 C 1081.15 -2.39283 3.54863 0
M  V30 11268 C 1080.48 -3.77283 3.78895 0
M  V30 11269 C 1081.78 -1.8754 4.87469 0
M  V30 11270 H 1083.47 -0.810897 2.8821 0
M  V30 11271 H 1081.02 -0.388624 1.38657 0
M  V30 11272 H 1082.97 -3.24054 2.69382 0
M  V30 11273 H 1081.69 -2.90214 1.49811 0
M  V30 11274 H 1080.35 -1.6905 3.25296 0
M  V30 11275 H 1080 -4.13567 2.86307 0
M  V30 11276 H 1079.7 -3.70057 4.56433 0
M  V30 11277 H 1081.22 -4.51514 4.11057 0
M  V30 11278 H 1082.64 -2.50019 5.1591 0
M  V30 11279 H 1081.03 -1.912 5.68826 0
M  V30 11280 H 1082.1 -0.831194 4.77723 0
M  V30 11281 N 1083.45 -1.52049 -0.414609 0
M  V30 11282 C 1084.67 -1.6997 -1.18848 0
M  V30 11283 C 1085.1 -0.406058 -1.83665 0
M  V30 11284 O 1084.46 0.635981 -1.69779 0
M  V30 11285 C 1084.5 -2.8327 -2.23138 0
M  V30 11286 O 1083.61 -2.48457 -3.29155 0
M  V30 11287 H 1082.95 -0.566003 -0.347183 0
M  V30 11288 H 1085.48 -1.98726 -0.486757 0
M  V30 11289 H 1085.49 -3.08022 -2.67557 0
M  V30 11290 H 1084.16 -3.7713 -1.75344 0
M  V30 11291 H 1082.74 -2.34357 -2.90054 0
M  V30 11292 N 1084.93 0.6715 -1.42579 0
M  V30 11293 C 1085.86 1.79693 -1.49107 0
M  V30 11294 C 1086.84 1.66516 -0.347338 0
M  V30 11295 O 1088.02 1.85887 -0.562094 0
M  V30 11296 C 1085.15 3.1801 -1.39596 0
M  V30 11297 C 1084.11 3.45926 -2.5203 0
M  V30 11298 C 1083.43 4.83852 -2.27577 0
M  V30 11299 C 1084.73 3.4249 -3.94333 0
M  V30 11300 H 1086.43 1.74486 -2.433 0
M  V30 11301 H 1083.97 0.838042 -1.17102 0
M  V30 11302 H 1085.92 3.96478 -1.42771 0
M  V30 11303 H 1084.65 3.23901 -0.418989 0
M  V30 11304 H 1083.31 2.6982 -2.48178 0
M  V30 11305 H 1082.96 4.86398 -1.28165 0
M  V30 11306 H 1082.66 5.03493 -3.02934 0
M  V30 11307 H 1084.18 5.646 -2.32506 0
M  V30 11308 H 1085.59 4.10922 -3.9977 0
M  V30 11309 H 1083.99 3.73666 -4.69568 0
M  V30 11310 H 1085.06 2.41002 -4.20768 0
M  V30 11311 N 1086.4 1.28806 0.908124 0
M  V30 11312 C 1087.63 1.19271 1.69674 0
M  V30 11313 C 1088.05 -0.244403 1.86505 0
M  V30 11314 O 1087.41 -1.17668 1.37927 0
M  V30 11315 C 1087.46 1.9023 3.06341 0
M  V30 11316 O 1086.56 1.2136 3.94139 0
M  V30 11317 H 1085.9 0.413738 0.519343 0
M  V30 11318 H 1088.43 1.70227 1.13508 0
M  V30 11319 H 1088.44 1.98356 3.56537 0
M  V30 11320 H 1087.12 2.94762 2.93408 0
M  V30 11321 H 1085.7 1.21435 3.52573 0
M  V30 11322 N 1087.88 -1.11734 1.11145 0
M  V30 11323 C 1088.84 -2.15868 0.770303 0
M  V30 11324 C 1089.84 -1.59438 -0.208842 0
M  V30 11325 O 1091.03 -1.74193 0.0152516 0
M  V30 11326 C 1088.17 -3.40603 0.142303 0
M  V30 11327 H 1089.36 -2.4756 1.69276 0
M  V30 11328 H 1086.91 -1.26867 0.912929 0
M  V30 11329 H 1087.65 -3.14517 -0.790526 0
M  V30 11330 H 1087.43 -3.8284 0.847087 0
M  V30 11331 H 1088.92 -4.17523 -0.0803608 0
M  V30 11332 N 1089.36 -0.901303 -1.29284 0
M  V30 11333 C 1090.32 -0.385081 -2.25942 0
M  V30 11334 C 1091.32 0.481626 -1.53418 0
M  V30 11335 O 1092.51 0.286451 -1.71829 0
M  V30 11336 C 1089.64 0.449319 -3.37926 0
M  V30 11337 H 1090.84 -1.23877 -2.7312 0
M  V30 11338 H 1088.39 -0.679586 -1.40753 0
M  V30 11339 H 1089.13 1.32292 -2.9609 0
M  V30 11340 H 1088.91 -0.171731 -3.91724 0
M  V30 11341 H 1090.4 0.801746 -4.09831 0
M  V30 11342 N 1090.84 1.42931 -0.663954 0
M  V30 11343 C 1092.25 1.56098 -0.332496 0
M  V30 11344 C 1092.45 1.64564 1.16279 0
M  V30 11345 O 1091.51 1.6066 1.94794 0
M  V30 11346 C 1092.82 2.81649 -1.05329 0
M  V30 11347 C 1094.37 2.95408 -1.03457 0
M  V30 11348 C 1094.85 4.23805 -1.73647 0
M  V30 11349 N 1096.34 4.30693 -1.70462 0
M  V30 11350 C 1097.07 5.28833 -2.21637 0
M  V30 11351 N 1096.57 6.33189 -2.81147 0
M  V30 11352 N 1098.36 5.20558 -2.12075 0
M  V30 11353 H 1090.51 1.3568 -1.63416 0
M  V30 11354 H 1092.77 0.652361 -0.687844 0
M  V30 11355 H 1092.48 2.81494 -2.10842 0
M  V30 11356 H 1092.35 3.72208 -0.611626 0
M  V30 11357 H 1094.74 2.95097 0.0121936 0
M  V30 11358 H 1094.82 2.06109 -1.51502 0
M  V30 11359 H 1094.47 4.24876 -2.78285 0
M  V30 11360 H 1094.4 5.12019 -1.2306 0
M  V30 11361 H 1096.89 3.55904 -1.27046 0
M  V30 11362 H 1097.2 7.04411 -3.17844 0
M  V30 11363 H 1095.55 6.33781 -2.85212 0
M  V30 11364 H 1098.74 4.3795 -1.6528 0
M  V30 11365 H 1098.91 5.96881 -2.52264 0
M  V30 11366 N 1092.32 0.406567 1.52266 0
M  V30 11367 C 1093.56 -0.170053 2.01785 0
M  V30 11368 C 1093.89 -1.45361 1.2923 0
M  V30 11369 O 1093.15 -1.91849 0.386342 0
M  V30 11370 C 1093.44 -0.467124 3.54334 0
M  V30 11371 C 1093.11 0.72693 4.45002 0
M  V30 11372 C 1091.77 1.05446 4.69505 0
M  V30 11373 C 1094.12 1.52493 4.98393 0
M  V30 11374 C 1091.45 2.18123 5.44646 0
M  V30 11375 C 1093.8 2.64244 5.74768 0
M  V30 11376 C 1092.47 2.97486 5.97544 0
M  V30 11377 H 1091.74 -0.0622267 0.738383 0
M  V30 11378 H 1094.39 0.54746 1.83508 0
M  V30 11379 H 1092.69 -1.26617 3.70777 0
M  V30 11380 H 1094.39 -0.926194 3.90157 0
M  V30 11381 H 1090.98 0.461666 4.26106 0
M  V30 11382 H 1095.16 1.28512 4.79373 0
M  V30 11383 H 1090.42 2.44228 5.60502 0
M  V30 11384 H 1094.59 3.26468 6.15136 0
M  V30 11385 H 1092.22 3.84913 6.5555 0
M  V30 11386 N 1093.79 -1.57004 0.136909 0
M  V30 11387 C 1094.76 -2.15066 -0.792419 0
M  V30 11388 C 1095.76 -1.08991 -1.18226 0
M  V30 11389 O 1096.95 -1.34681 -1.10484 0
M  V30 11390 C 1094.08 -2.70554 -2.07397 0
M  V30 11391 H 1095.27 -2.98519 -0.28752 0
M  V30 11392 H 1092.83 -1.55895 -0.112469 0
M  V30 11393 H 1093.56 -1.90739 -2.62277 0
M  V30 11394 H 1093.35 -3.48149 -1.80374 0
M  V30 11395 H 1094.84 -3.15322 -2.73792 0
M  V30 11396 N 1095.27 0.136881 -1.57004 0
M  V30 11397 C 1096.2 1.17026 -2.02057 0
M  V30 11398 C 1097.18 1.44223 -0.901866 0
M  V30 11399 O 1098.37 1.54971 -1.17037 0
M  V30 11400 C 1095.5 2.50095 -2.40977 0
M  V30 11401 C 1094.45 2.37398 -3.56127 0
M  V30 11402 C 1093.78 3.75268 -3.80891 0
M  V30 11403 C 1095.08 1.84952 -4.88457 0
M  V30 11404 H 1096.77 0.795601 -2.88636 0
M  V30 11405 H 1094.32 0.381266 -1.38861 0
M  V30 11406 H 1096.27 3.22621 -2.71097 0
M  V30 11407 H 1095 2.89416 -1.51348 0
M  V30 11408 H 1093.65 1.67322 -3.26188 0
M  V30 11409 H 1093.3 4.12043 -2.88496 0
M  V30 11410 H 1093 3.67631 -4.5839 0
M  V30 11411 H 1094.53 4.49327 -4.13446 0
M  V30 11412 H 1095.94 2.4728 -5.17229 0
M  V30 11413 H 1094.34 1.88181 -5.69832 0
M  V30 11414 H 1095.41 0.805848 -4.78157 0
M  V30 11415 N 1096.75 1.52266 0.40654 0
M  V30 11416 C 1097.68 1.78755 1.50229 0
M  V30 11417 C 1098.66 0.638652 1.57655 0
M  V30 11418 O 1099.85 0.884505 1.72888 0
M  V30 11419 C 1096.98 1.94057 2.88026 0
M  V30 11420 C 1095.93 3.09667 2.95449 0
M  V30 11421 C 1095.26 3.10196 4.35526 0
M  V30 11422 C 1096.56 4.49077 2.66697 0
M  V30 11423 H 1098.25 2.70511 1.28313 0
M  V30 11424 H 1095.8 1.30167 0.615836 0
M  V30 11425 H 1097.75 2.11171 3.64671 0
M  V30 11426 H 1096.47 0.989755 3.11242 0
M  V30 11427 H 1095.13 2.92308 2.2125 0
M  V30 11428 H 1094.78 2.12831 4.55754 0
M  V30 11429 H 1094.48 3.87847 4.41416 0
M  V30 11430 H 1096 3.29443 5.14101 0
M  V30 11431 H 1097.42 4.66628 3.33064 0
M  V30 11432 H 1095.82 5.28665 2.8396 0
M  V30 11433 H 1096.89 4.56995 1.62122 0
M  V30 11434 N 1098.23 -0.663929 1.42933 0
M  V30 11435 C 1099.64 -0.978346 1.26097 0
M  V30 11436 C 1099.84 -2.00756 0.172968 0
M  V30 11437 O 1098.9 -2.48418 -0.452184 0
M  V30 11438 C 1100.21 -1.4728 2.62162 0
M  V30 11439 C 1101.76 -1.59001 2.69606 0
M  V30 11440 C 1102.24 -2.1184 4.06064 0
M  V30 11441 N 1103.73 -2.19158 4.08074 0
M  V30 11442 C 1104.46 -2.61141 5.10483 0
M  V30 11443 N 1103.96 -3.02498 6.23271 0
M  V30 11444 N 1105.75 -2.60986 4.97838 0
M  V30 11445 H 1097.9 0.0173096 2.12393 0
M  V30 11446 H 1100.17 -0.0548116 0.946414 0
M  V30 11447 H 1099.87 -0.791008 3.42689 0
M  V30 11448 H 1099.75 -2.4497 2.86827 0
M  V30 11449 H 1102.13 -2.26284 1.89418 0
M  V30 11450 H 1102.21 -0.597728 2.48718 0
M  V30 11451 H 1101.86 -1.45162 4.86714 0
M  V30 11452 H 1101.79 -3.1188 4.2431 0
M  V30 11453 H 1104.28 -1.90013 3.26655 0
M  V30 11454 H 1104.59 -3.33251 6.97254 0
M  V30 11455 H 1102.94 -3.00328 6.2676 0
M  V30 11456 H 1106.13 -2.28046 4.08794 0
M  V30 11457 H 1106.3 -2.93384 5.7778 0
M  V30 11458 N 1099.71 -1.29285 -0.901281 0
M  V30 11459 C 1100.64 -1.16832 -2.0217 0
M  V30 11460 C 1101.62 -0.0629265 -1.69984 0
M  V30 11461 O 1102.8 -0.242123 -1.92685 0
M  V30 11462 C 1099.93 -0.842406 -3.36929 0
M  V30 11463 C 1098.89 -1.90394 -3.8332 0
M  V30 11464 C 1098.21 -1.43138 -5.15185 0
M  V30 11465 C 1099.51 -3.31254 -4.03817 0
M  V30 11466 H 1101.21 -2.10562 -2.12847 0
M  V30 11467 H 1098.75 -1.01375 -1.0227 0
M  V30 11468 H 1100.71 -0.741999 -4.14816 0
M  V30 11469 H 1099.43 0.130598 -3.26339 0
M  V30 11470 H 1098.09 -1.99371 -3.07647 0
M  V30 11471 H 1097.74 -0.447091 -5.01009 0
M  V30 11472 H 1097.44 -2.14129 -5.47195 0
M  V30 11473 H 1098.96 -1.34444 -5.95615 0
M  V30 11474 H 1100.37 -3.25129 -4.72191 0
M  V30 11475 H 1098.77 -4.00189 -4.47178 0
M  V30 11476 H 1099.84 -3.74349 -3.08206 0
M  V30 11477 N 1101.18 1.11143 -1.11736 0
M  V30 11478 C 1102.09 2.20851 -0.791331 0
M  V30 11479 C 1103.11 1.72644 0.216833 0
M  V30 11480 O 1104.29 2.01332 0.0522401 0
M  V30 11481 C 1101.35 3.4585 -0.242694 0
M  V30 11482 C 1100.41 4.08829 -1.30986 0
M  V30 11483 C 1099.65 5.27861 -0.787305 0
M  V30 11484 O 1099.87 5.69122 0.381549 0
M  V30 11485 O 1098.8 5.81506 -1.55352 0
M  V30 11486 H 1102.63 2.51158 -1.70744 0
M  V30 11487 H 1100.21 1.19739 -0.893478 0
M  V30 11488 H 1102.1 4.21359 0.0587472 0
M  V30 11489 H 1100.77 3.17187 0.646079 0
M  V30 11490 H 1099.68 3.35037 -1.66436 0
M  V30 11491 H 1101.01 4.41678 -2.17213 0
M  V30 11492 N 1102.66 0.908147 1.28804 0
M  V30 11493 C 1103.57 0.397167 2.31214 0
M  V30 11494 C 1104.59 -0.512352 1.66286 0
M  V30 11495 O 1105.76 -0.399893 1.9739 0
M  V30 11496 C 1102.83 -0.359522 3.44831 0
M  V30 11497 C 1101.89 0.582539 4.25329 0
M  V30 11498 C 1101.12 -0.138133 5.33521 0
M  V30 11499 O 1101.35 -1.36076 5.53931 0
M  V30 11500 O 1100.28 0.523682 5.99618 0
M  V30 11501 H 1104.11 1.247 2.76918 0
M  V30 11502 H 1101.69 0.672766 1.33395 0
M  V30 11503 H 1103.57 -0.787098 4.13984 0
M  V30 11504 H 1102.25 -1.18528 3.01219 0
M  V30 11505 H 1101.16 1.0594 3.58786 0
M  V30 11506 H 1102.49 1.37495 4.72605 0
M  V30 11507 N 1104.14 -1.42577 0.671525 0
M  V30 11508 C 1105.39 -2.01185 0.192051 0
M  V30 11509 C 1105.71 -1.53349 -1.20454 0
M  V30 11510 O 1104.98 -0.753781 -1.80817 0
M  V30 11511 H 1103.56 -0.743898 0.0680106 0
M  V30 11512 H 1106.22 -1.74539 0.8673 0
M  V30 11513 H 1105.32 -3.11516 0.190796 0
M  V30 11514 N 1105.62 -0.414636 -1.52048 0
M  V30 11515 C 1107.03 0.0537107 -1.86623 0
M  V30 11516 C 1107.38 1.43955 -1.3331 0
M  V30 11517 O 1106.51 2.05616 -0.674606 0
M  V30 11518 C 1107.1 0.104241 -3.3864 0
M  V30 11519 C 1105.66 0.516936 -3.72833 0
M  V30 11520 C 1104.81 -0.305042 -2.75617 0
M  V30 11521 H 1107.76 -0.631469 -1.45596 0
M  V30 11522 H 1107.78 0.918395 -3.6925 0
M  V30 11523 H 1107.29 -0.904523 -3.77412 0
M  V30 11524 H 1105.39 1.53214 -3.39641 0
M  V30 11525 H 1105.5 0.2575 -4.78408 0
M  V30 11526 H 1103.87 0.233416 -2.53628 0
M  V30 11527 H 1104.65 -1.31226 -3.1723 0
M  V30 11528 N 1107.1 1.56929 -0.145233 0
M  V30 11529 C 1108.51 1.82877 0.375884 0
M  V30 11530 C 1108.86 1.06384 1.64854 0
M  V30 11531 O 1107.98 0.30857 2.14189 0
M  V30 11532 C 1108.58 3.31725 0.688744 0
M  V30 11533 C 1107.14 3.58261 1.15439 0
M  V30 11534 C 1106.28 2.76737 0.176565 0
M  V30 11535 H 1109.24 1.54328 -0.36996 0
M  V30 11536 H 1109.26 3.47784 1.54359 0
M  V30 11537 H 1108.77 3.87371 -0.237694 0
M  V30 11538 H 1106.87 3.08 2.09683 0
M  V30 11539 H 1106.98 4.66732 1.08158 0
M  V30 11540 H 1105.35 2.45761 0.668843 0
M  V30 11541 H 1106.13 3.35154 -0.743432 0
M  V30 11542 N 1108.58 -0.128553 1.57075 0
M  V30 11543 C 1109.53 -1.16373 1.96065 0
M  V30 11544 C 1110.51 -1.37579 0.834323 0
M  V30 11545 O 1111.7 -1.38831 1.09795 0
M  V30 11546 C 1108.83 -2.49276 2.36043 0
M  V30 11547 C 1107.92 -2.31586 3.55287 0
M  V30 11548 N 1108.31 -1.83688 4.71267 0
M  V30 11549 C 1106.61 -2.62275 3.60732 0
M  V30 11550 C 1107.31 -1.79479 5.53319 0
M  V30 11551 N 1106.28 -2.23474 4.95541 0
M  V30 11552 H 1110.08 -0.785792 2.832 0
M  V30 11553 H 1107.6 -0.33641 1.58877 0
M  V30 11554 H 1109.6 -3.24134 2.62188 0
M  V30 11555 H 1108.26 -2.87837 1.50267 0
M  V30 11556 H 1109.27 -1.53376 4.94668 0
M  V30 11557 H 1105.94 -3.04586 2.85541 0
M  V30 11558 H 1107.33 -1.43781 6.56336 0
M  V30 11559 N 1110.05 -1.5248 -0.398459 0
M  V30 11560 C 1111.28 -1.70925 -1.16586 0
M  V30 11561 C 1111.7 -0.42342 -1.83991 0
M  V30 11562 O 1111.05 0.601395 -1.72306 0
M  V30 11563 C 1111.1 -2.85226 -2.22099 0
M  V30 11564 O 1110.83 -4.08831 -1.57444 0
M  V30 11565 C 1112.33 -3.15272 -3.11639 0
M  V30 11566 H 1109.55 -0.572533 -0.349924 0
M  V30 11567 H 1112.09 -1.99087 -0.467416 0
M  V30 11568 H 1110.25 -2.59553 -2.87595 0
M  V30 11569 H 1110.66 -4.72603 -2.2748 0
M  V30 11570 H 1112.13 -3.98737 -3.81724 0
M  V30 11571 H 1112.61 -2.29262 -3.74614 0
M  V30 11572 H 1113.22 -3.42749 -2.518 0
M  V30 11573 N 1111.53 0.65634 -1.43283 0
M  V30 11574 C 1112.48 1.76934 -1.48199 0
M  V30 11575 C 1113.45 1.62748 -0.332023 0
M  V30 11576 O 1114.63 1.83036 -0.538735 0
M  V30 11577 C 1111.77 3.15072 -1.40797 0
M  V30 11578 C 1110.89 3.40414 -2.65974 0
M  V30 11579 C 1110.02 4.68383 -2.50582 0
M  V30 11580 C 1109.06 4.8682 -3.71043 0
M  V30 11581 N 1108.2 6.06043 -3.5448 0
M  V30 11582 H 1113.04 1.72067 -2.43304 0
M  V30 11583 H 1110.57 0.839728 -1.20777 0
M  V30 11584 H 1112.53 3.94925 -1.345 0
M  V30 11585 H 1111.16 3.19017 -0.492754 0
M  V30 11586 H 1110.21 2.54681 -2.82563 0
M  V30 11587 H 1111.53 3.49925 -3.55463 0
M  V30 11588 H 1110.68 5.56357 -2.41975 0
M  V30 11589 H 1109.42 4.61187 -1.58612 0
M  V30 11590 H 1108.42 3.97282 -3.80062 0
M  V30 11591 H 1109.65 4.95847 -4.64017 0
M  V30 11592 H 1107.6 5.99985 -2.65242 0
M  V30 11593 H 1107.51 6.16498 -4.37568 0
M  V30 11594 H 1108.78 6.96647 -3.49719 0
M  V30 11595 N 1113.01 1.29761 0.894412 0
M  V30 11596 C 1113.96 1.15232 2.0205 0
M  V30 11597 C 1114.95 0.0665664 1.69269 0
M  V30 11598 O 1116.16 0.226746 1.78566 0
M  V30 11599 H 1112.53 0.356102 0.662341 0
M  V30 11600 H 1114.5 2.10559 2.11442 0
M  V30 11601 C 1113.25 0.851143 3.37121 0
M  V30 11602 H 1112.58 1.67865 3.62852 0
M  V30 11603 H 1114.02 0.78954 4.16584 0
M  V30 11604 C 1112.47 -0.445737 3.33938 0
M  V30 11605 O 1113 -1.47017 3.7383 0
M  V30 11606 N 1111.21 -0.453493 2.8704 0
M  V30 11607 H 1110.76 0.380636 2.54772 0
M  V30 11608 H 1110.72 -1.32119 2.85293 0
M  V30 11609 N 1114.49 -1.10549 1.12324 0
M  V30 11610 C 1115.73 -1.82941 0.889043 0
M  V30 11611 C 1116.09 -1.83483 -0.578935 0
M  V30 11612 O 1115.38 -1.28365 -1.42243 0
M  V30 11613 C 1115.58 -3.28997 1.39626 0
M  V30 11614 C 1115.4 -3.42683 2.91202 0
M  V30 11615 C 1114.17 -3.55164 3.59426 0
M  V30 11616 C 1116.37 -3.36187 3.89208 0
M  V30 11617 N 1114.35 -3.57414 4.99128 0
M  V30 11618 C 1115.73 -3.45168 5.15033 0
M  V30 11619 C 1117.78 -3.19778 3.81637 0
M  V30 11620 C 1116.48 -3.39431 6.34176 0
M  V30 11621 C 1118.51 -3.15362 5.003 0
M  V30 11622 C 1117.87 -3.24924 6.24983 0
M  V30 11623 H 1113.97 -0.684249 0.378585 0
M  V30 11624 H 1116.55 -1.32206 1.42932 0
M  V30 11625 H 1114.73 -3.78228 0.883051 0
M  V30 11626 H 1116.46 -3.89343 1.10425 0
M  V30 11627 H 1113.21 -3.5812 3.09914 0
M  V30 11628 H 1113.64 -3.62153 5.71991 0
M  V30 11629 H 1118.28 -3.11264 2.86137 0
M  V30 11630 H 1116 -3.46711 7.29943 0
M  V30 11631 H 1119.58 -3.03819 4.96171 0
M  V30 11632 H 1118.46 -3.21508 7.15264 0
M  V30 11633 N 1115.97 -0.914965 -1.28321 0
M  V30 11634 C 1117.38 -0.613297 -1.47346 0
M  V30 11635 C 1117.58 0.84106 -1.83108 0
M  V30 11636 O 1116.64 1.62004 -1.93678 0
M  V30 11637 C 1117.95 -1.55224 -2.57538 0
M  V30 11638 C 1119.5 -1.55909 -2.71407 0
M  V30 11639 C 1119.97 -2.48468 -3.84744 0
M  V30 11640 N 1121.46 -2.46602 -3.92099 0
M  V30 11641 C 1122.2 -3.14917 -4.79182 0
M  V30 11642 N 1121.7 -3.92566 -5.70845 0
M  V30 11643 N 1123.49 -3.03998 -4.72802 0
M  V30 11644 H 1115.64 -1.85539 -1.03388 0
M  V30 11645 H 1117.9 -0.795875 -0.515061 0
M  V30 11646 H 1117.61 -2.58917 -2.38023 0
M  V30 11647 H 1117.48 -1.28426 -3.54664 0
M  V30 11648 H 1119.87 -0.52953 -2.9031 0
M  V30 11649 H 1119.95 -1.86751 -1.74808 0
M  V30 11650 H 1119.59 -3.51526 -3.66595 0
M  V30 11651 H 1119.52 -2.14928 -4.80743 0
M  V30 11652 H 1122.02 -1.90199 -3.26547 0
M  V30 11653 H 1122.33 -4.41709 -6.34123 0
M  V30 11654 H 1120.67 -3.96671 -5.70681 0
M  V30 11655 H 1123.86 -2.42839 -4.00184 0
M  V30 11656 H 1124.04 -3.57511 -5.40454 0
M  V30 11657 N 1117.44 1.42219 -0.679077 0
M  V30 11658 C 1118.85 1.8459 -0.279877 0
M  V30 11659 C 1119.21 1.56839 1.17881 0
M  V30 11660 O 1118.33 1.03039 1.90294 0
M  V30 11661 C 1118.93 3.35072 -0.501185 0
M  V30 11662 C 1117.48 3.76076 -0.156065 0
M  V30 11663 C 1116.63 2.65763 -0.791549 0
M  V30 11664 H 1119.58 1.32005 -0.880932 0
M  V30 11665 H 1119.6 3.79708 0.245349 0
M  V30 11666 H 1119.12 3.55239 -1.56291 0
M  V30 11667 H 1117.22 3.61516 0.90205 0
M  V30 11668 H 1117.33 4.75334 -0.599572 0
M  V30 11669 H 1115.69 2.53726 -0.222514 0
M  V30 11670 H 1116.48 2.88751 -1.85682 0
M  V30 11671 N 1118.92 0.422693 1.51826 0
M  V30 11672 C 1119.85 -0.43167 2.25098 0
M  V30 11673 C 1120.87 -0.998758 1.28564 0
M  V30 11674 O 1122.06 -0.89539 1.54418 0
M  V30 11675 C 1119.16 -1.61426 2.97985 0
M  V30 11676 C 1118.33 -1.16866 4.21499 0
M  V30 11677 C 1117.39 -2.2197 4.77091 0
M  V30 11678 O 1116.41 -1.82004 5.39317 0
M  V30 11679 N 1117.62 -3.54293 4.59844 0
M  V30 11680 H 1120.38 0.196255 2.99057 0
M  V30 11681 H 1117.94 0.25079 1.59946 0
M  V30 11682 H 1119.93 -2.31331 3.32066 0
M  V30 11683 H 1118.5 -2.14783 2.27128 0
M  V30 11684 H 1117.72 -0.297217 3.93078 0
M  V30 11685 H 1119.01 -0.848106 5.01682 0
M  V30 11686 H 1118.41 -3.89505 4.10247 0
M  V30 11687 H 1116.97 -4.20135 4.98327 0
M  V30 11688 N 1120.4 -1.5685 0.153553 0
M  V30 11689 C 1121.33 -2.20101 -0.779601 0
M  V30 11690 C 1122.31 -1.15121 -1.25225 0
M  V30 11691 O 1123.5 -1.43487 -1.30862 0
M  V30 11692 C 1120.63 -2.82778 -2.01628 0
M  V30 11693 C 1119.58 -3.93643 -1.68015 0
M  V30 11694 C 1118.91 -4.43286 -2.99001 0
M  V30 11695 C 1120.21 -5.14102 -0.921774 0
M  V30 11696 H 1121.9 -2.98334 -0.252432 0
M  V30 11697 H 1119.45 -1.43499 -0.119975 0
M  V30 11698 H 1121.4 -3.25696 -2.67395 0
M  V30 11699 H 1120.12 -2.01887 -2.56728 0
M  V30 11700 H 1118.78 -3.51354 -1.04624 0
M  V30 11701 H 1118.43 -3.59208 -3.52106 0
M  V30 11702 H 1118.13 -5.18068 -2.77272 0
M  V30 11703 H 1119.65 -4.88878 -3.65828 0
M  V30 11704 H 1121.07 -5.53823 -1.48167 0
M  V30 11705 H 1119.46 -5.94687 -0.804185 0
M  V30 11706 H 1120.53 -4.84825 0.0852757 0
M  V30 11707 N 1121.88 0.120221 -1.57141 0
M  V30 11708 C 1122.81 1.14876 -2.03287 0
M  V30 11709 C 1123.79 1.43259 -0.917112 0
M  V30 11710 O 1124.97 1.53721 -1.18674 0
M  V30 11711 C 1122.1 2.47525 -2.43616 0
M  V30 11712 C 1121.06 2.33607 -3.58625 0
M  V30 11713 C 1120.38 3.71207 -3.84849 0
M  V30 11714 C 1121.68 1.79761 -4.90391 0
M  V30 11715 H 1123.38 0.764943 -2.89463 0
M  V30 11716 H 1120.92 0.366516 -1.39258 0
M  V30 11717 H 1122.88 3.19728 -2.74504 0
M  V30 11718 H 1121.6 2.87794 -1.54409 0
M  V30 11719 H 1120.26 1.63853 -3.27945 0
M  V30 11720 H 1119.91 4.0896 -2.9285 0
M  V30 11721 H 1119.61 3.62749 -4.62263 0
M  V30 11722 H 1121.13 4.44917 -4.18188 0
M  V30 11723 H 1122.55 2.4178 -5.19822 0
M  V30 11724 H 1120.94 1.82126 -5.71795 0
M  V30 11725 H 1122.01 0.755087 -4.78985 0
M  V30 11726 N 1123.36 1.52689 0.390367 0
M  V30 11727 C 1124.6 1.67914 1.13722 0
M  V30 11728 C 1124.94 0.417159 1.89667 0
M  V30 11729 O 1124.21 -0.585005 1.85494 0
M  V30 11730 C 1124.49 2.91331 2.11656 0
M  V30 11731 C 1124.35 4.27626 1.39484 0
M  V30 11732 C 1125.67 3.10293 3.12099 0
M  V30 11733 H 1122.78 0.611047 0.412057 0
M  V30 11734 H 1125.43 1.85283 0.420753 0
M  V30 11735 H 1123.58 2.76654 2.72754 0
M  V30 11736 H 1125.25 4.54068 0.813607 0
M  V30 11737 H 1123.49 4.28169 0.69669 0
M  V30 11738 H 1124.16 5.10066 2.11038 0
M  V30 11739 H 1126.64 3.23992 2.6109 0
M  V30 11740 H 1125.51 3.98127 3.7787 0
M  V30 11741 H 1125.78 2.24448 3.80888 0
M  V30 11742 N 1124.83 -0.648732 1.43629 0
M  V30 11743 C 1125.76 -1.77298 1.51947 0
M  V30 11744 C 1126.75 -1.65942 0.373785 0
M  V30 11745 O 1127.93 -1.8497 0.591596 0
M  V30 11746 C 1125.06 -3.15749 1.44638 0
M  V30 11747 C 1124.01 -3.41872 2.57502 0
M  V30 11748 C 1123.34 -4.8017 2.35246 0
M  V30 11749 C 1124.64 -3.36173 3.99731 0
M  V30 11750 H 1126.33 -1.70594 2.46045 0
M  V30 11751 H 1123.88 -0.819306 1.1842 0
M  V30 11752 H 1125.83 -3.94156 1.4906 0
M  V30 11753 H 1124.56 -3.23194 0.470466 0
M  V30 11754 H 1123.22 -2.65838 2.5244 0
M  V30 11755 H 1122.86 -4.84297 1.35887 0
M  V30 11756 H 1122.56 -4.9861 3.10906 0
M  V30 11757 H 1124.09 -5.6083 2.41459 0
M  V30 11758 H 1125.5 -4.0451 4.06257 0
M  V30 11759 H 1123.9 -3.66148 4.75453 0
M  V30 11760 H 1124.97 -2.34277 4.24549 0
M  V30 11761 N 1126.31 -1.30234 -0.887518 0
M  V30 11762 C 1127.24 -1.18969 -2.00919 0
M  V30 11763 C 1128.22 -0.080952 -1.69907 0
M  V30 11764 O 1129.41 -0.262546 -1.92417 0
M  V30 11765 C 1126.54 -0.878094 -3.36016 0
M  V30 11766 C 1125.49 -1.94449 -3.81279 0
M  V30 11767 C 1124.82 -1.48594 -5.13638 0
M  V30 11768 C 1126.12 -3.35519 -4.00281 0
M  V30 11769 H 1127.81 -2.12808 -2.10602 0
M  V30 11770 H 1125.36 -1.02454 -1.01189 0
M  V30 11771 H 1127.31 -0.785954 -4.14006 0
M  V30 11772 H 1126.04 0.0959779 -3.26459 0
M  V30 11773 H 1124.69 -2.02622 -3.05516 0
M  V30 11774 H 1124.34 -0.500204 -5.00507 0
M  V30 11775 H 1124.04 -2.19921 -5.44893 0
M  V30 11776 H 1125.57 -1.40754 -5.94156 0
M  V30 11777 H 1126.98 -3.30119 -4.68716 0
M  V30 11778 H 1125.38 -4.0491 -4.42909 0
M  V30 11779 H 1126.45 -3.77597 -3.04218 0
M  V30 11780 N 1127.79 1.09952 -1.12909 0
M  V30 11781 C 1128.74 2.16436 -0.801514 0
M  V30 11782 C 1129.71 1.64444 0.233976 0
M  V30 11783 O 1130.89 1.90497 0.10743 0
M  V30 11784 C 1128.03 3.4406 -0.267753 0
M  V30 11785 C 1127.15 4.09979 -1.36165 0
M  V30 11786 C 1126.28 5.25341 -0.786803 0
M  V30 11787 C 1125.32 5.83172 -1.85948 0
M  V30 11788 N 1124.46 6.89904 -1.30298 0
M  V30 11789 H 1129.3 2.43799 -1.71365 0
M  V30 11790 H 1126.83 1.19665 -0.855499 0
M  V30 11791 H 1128.79 4.17157 0.0598031 0
M  V30 11792 H 1127.42 3.17031 0.607528 0
M  V30 11793 H 1126.47 3.34801 -1.8059 0
M  V30 11794 H 1127.79 4.48999 -2.17259 0
M  V30 11795 H 1126.94 6.05312 -0.410211 0
M  V30 11796 H 1125.68 4.87669 0.055279 0
M  V30 11797 H 1124.68 5.01867 -2.24521 0
M  V30 11798 H 1125.91 6.22907 -2.70487 0
M  V30 11799 H 1123.85 6.54221 -0.482806 0
M  V30 11800 H 1123.77 7.27662 -2.05046 0
M  V30 11801 H 1125.04 7.73643 -0.953779 0
M  V30 11802 N 1129.27 0.921757 1.27833 0
M  V30 11803 C 1130.2 0.433466 2.29441 0
M  V30 11804 C 1131.18 -0.503133 1.62489 0
M  V30 11805 O 1132.36 -0.409156 1.89841 0
M  V30 11806 C 1129.49 -0.320029 3.45822 0
M  V30 11807 C 1128.45 0.528178 4.24728 0
M  V30 11808 C 1127.77 -0.354132 5.33526 0
M  V30 11809 C 1129.07 1.78959 4.90684 0
M  V30 11810 H 1130.77 1.28263 2.70535 0
M  V30 11811 H 1128.31 0.618197 1.30055 0
M  V30 11812 H 1130.27 -0.672526 4.15999 0
M  V30 11813 H 1128.99 -1.20317 3.0363 0
M  V30 11814 H 1127.65 0.863302 3.5629 0
M  V30 11815 H 1127.3 -1.23605 4.87576 0
M  V30 11816 H 1127 0.209855 5.87225 0
M  V30 11817 H 1128.52 -0.702333 6.06547 0
M  V30 11818 H 1129.94 1.50552 5.53179 0
M  V30 11819 H 1128.33 2.29661 5.54415 0
M  V30 11820 H 1129.4 2.51265 4.14721 0
M  V30 11821 N 1130.75 -1.41857 0.686609 0
M  V30 11822 C 1132.02 -1.95082 0.142228 0
M  V30 11823 C 1132.4 -1.62646 -1.34572 0
M  V30 11824 O 1131.75 -0.928757 -2.08773 0
M  V30 11825 C 1131.96 -3.46415 0.423955 0
M  V30 11826 C 1133.31 -4.23181 0.346842 0
M  V30 11827 O 1134.33 -3.54393 0.358363 0
M  V30 11828 O 1133.19 -5.4568 0.299211 0
M  V30 11829 H 1130.29 -0.826943 0.00974 0
M  V30 11830 H 1132.83 -1.51622 0.762153 0
M  V30 11831 H 1131.6 -3.63273 1.45424 0
M  V30 11832 H 1131.23 -3.96949 -0.227391 0
M  V30 11833 N 1132.22 -0.430739 -1.51599 0
M  V30 11834 C 1133.13 0.390347 -2.3133 0
M  V30 11835 C 1134.15 1.03376 -1.39962 0
M  V30 11836 O 1135.33 1.03057 -1.73035 0
M  V30 11837 C 1132.39 1.48039 -3.13505 0
M  V30 11838 C 1131.45 0.857792 -4.20643 0
M  V30 11839 C 1130.69 1.89589 -4.9889 0
M  V30 11840 O 1130.91 3.11717 -4.77691 0
M  V30 11841 O 1129.84 1.49009 -5.83164 0
M  V30 11842 H 1133.67 -0.260358 -3.02582 0
M  V30 11843 H 1131.25 -0.193428 -1.48143 0
M  V30 11844 H 1133.14 2.11272 -3.64612 0
M  V30 11845 H 1131.81 2.1153 -2.45024 0
M  V30 11846 H 1130.72 0.187592 -3.73629 0
M  V30 11847 H 1132.05 0.266474 -4.91478 0
M  V30 11848 N 1133.7 1.56767 -0.161869 0
M  V30 11849 C 1134.98 1.88245 0.531352 0
M  V30 11850 C 1135.36 1.07025 1.81958 0
M  V30 11851 O 1134.71 0.161385 2.27929 0
M  V30 11852 C 1134.92 3.40117 0.782416 0
M  V30 11853 C 1136.27 4.09655 1.11661 0
M  V30 11854 O 1137.29 3.4538 0.871274 0
M  V30 11855 O 1136.15 5.23192 1.57901 0
M  V30 11856 H 1133.24 0.780725 0.272759 0
M  V30 11857 H 1135.79 1.68522 -0.199597 0
M  V30 11858 H 1134.56 3.91088 -0.128677 0
M  V30 11859 H 1134.18 3.65418 1.56702 0
M  V30 11860 N 1135.18 -0.111886 1.57202 0
M  V30 11861 C 1136.11 -1.13796 2.03894 0
M  V30 11862 C 1137.09 -1.4277 0.924696 0
M  V30 11863 O 1138.28 -1.53089 1.19488 0
M  V30 11864 C 1135.41 -2.46229 2.44925 0
M  V30 11865 C 1134.36 -2.31702 3.59859 0
M  V30 11866 C 1133.69 -3.69161 3.86813 0
M  V30 11867 C 1134.99 -1.77158 4.91337 0
M  V30 11868 H 1136.68 -0.749581 2.89865 0
M  V30 11869 H 1134.23 -0.359126 1.3945 0
M  V30 11870 H 1136.18 -3.18267 2.76195 0
M  V30 11871 H 1134.9 -2.86971 1.55933 0
M  V30 11872 H 1133.56 -1.62112 3.28809 0
M  V30 11873 H 1133.21 -4.07401 2.95015 0
M  V30 11874 H 1132.91 -3.60292 4.6418 0
M  V30 11875 H 1134.43 -4.42693 4.20542 0
M  V30 11876 H 1135.85 -2.3902 5.21097 0
M  V30 11877 H 1134.25 -1.79091 5.72753 0
M  V30 11878 H 1135.32 -0.729675 4.79379 0
M  V30 11879 N 1136.66 -1.52894 -0.382264 0
M  V30 11880 C 1137.61 -1.74531 -1.46707 0
M  V30 11881 C 1138.59 -0.599499 -1.49315 0
M  V30 11882 O 1139.78 -0.857577 -1.54837 0
M  V30 11883 C 1136.91 -1.92366 -2.84342 0
M  V30 11884 C 1136 -3.12899 -2.86278 0
M  V30 11885 N 1136.39 -4.35125 -2.57876 0
M  V30 11886 C 1134.69 -3.13282 -3.17444 0
M  V30 11887 C 1135.39 -5.16769 -2.67066 0
M  V30 11888 N 1134.37 -4.52606 -3.0108 0
M  V30 11889 H 1138.17 -2.66653 -1.23585 0
M  V30 11890 H 1135.68 -1.51292 -0.590286 0
M  V30 11891 H 1137.68 -2.0599 -3.62455 0
M  V30 11892 H 1136.34 -1.01461 -3.08441 0
M  V30 11893 H 1137.35 -4.63143 -2.31774 0
M  V30 11894 H 1134.03 -2.32211 -3.46964 0
M  V30 11895 H 1135.42 -6.24219 -2.48595 0
M  V30 11896 N 1138.14 0.641106 -1.43971 0
M  V30 11897 C 1139.38 1.40291 -1.46445 0
M  V30 11898 C 1139.72 1.93978 -0.0929004 0
M  V30 11899 O 1138.99 1.73043 0.888043 0
M  V30 11900 C 1139.27 2.57551 -2.51673 0
M  V30 11901 C 1139.13 2.09279 -3.98149 0
M  V30 11902 C 1140.45 3.59752 -2.53508 0
M  V30 11903 H 1137.57 0.508771 -0.533218 0
M  V30 11904 H 1140.21 0.725767 -1.75592 0
M  V30 11905 H 1138.36 3.15319 -2.2695 0
M  V30 11906 H 1140.03 1.56418 -4.33971 0
M  V30 11907 H 1138.27 1.40545 -4.10402 0
M  V30 11908 H 1138.94 2.93655 -4.67409 0
M  V30 11909 H 1141.42 3.11766 -2.75574 0
M  V30 11910 H 1140.3 4.39332 -3.29057 0
M  V30 11911 H 1140.56 4.13156 -1.57335 0
M  V30 11912 N 1139.62 1.30703 0.880598 0
M  V30 11913 C 1140.56 1.17455 1.98678 0
M  V30 11914 C 1141.53 0.0629569 1.65981 0
M  V30 11915 O 1142.72 0.233926 1.89361 0
M  V30 11916 C 1139.86 0.876882 3.33774 0
M  V30 11917 C 1138.97 2.07078 3.79134 0
M  V30 11918 C 1138.11 1.71082 5.02896 0
M  V30 11919 C 1137.14 2.86942 5.40676 0
M  V30 11920 N 1136.28 2.51212 6.55619 0
M  V30 11921 H 1141.12 2.12086 2.09341 0
M  V30 11922 H 1138.66 1.05514 1.02495 0
M  V30 11923 H 1140.62 0.684899 4.1154 0
M  V30 11924 H 1139.25 -0.0325633 3.22784 0
M  V30 11925 H 1138.3 2.37388 2.97239 0
M  V30 11926 H 1139.61 2.9383 4.0307 0
M  V30 11927 H 1138.76 1.48284 5.883 0
M  V30 11928 H 1137.5 0.815064 4.80841 0
M  V30 11929 H 1136.51 3.10401 4.53797 0
M  V30 11930 H 1137.73 3.77211 5.64703 0
M  V30 11931 H 1135.68 1.64147 6.35131 0
M  V30 11932 H 1135.6 3.31495 6.79446 0
M  V30 11933 H 1136.86 2.31781 7.44243 0
M  V30 11934 N 1141.09 -1.09351 1.1349 0
M  V30 11935 C 1142.04 -2.14179 0.781739 0
M  V30 11936 C 1143.03 -1.59325 -0.224575 0
M  V30 11937 O 1144.22 -1.76977 -0.0283747 0
M  V30 11938 C 1141.35 -3.42386 0.250278 0
M  V30 11939 C 1140.43 -4.04147 1.28555 0
M  V30 11940 N 1140.83 -4.40451 2.4867 0
M  V30 11941 C 1139.12 -4.31356 1.13351 0
M  V30 11942 C 1139.82 -4.89115 3.14867 0
M  V30 11943 N 1138.8 -4.86618 2.42289 0
M  V30 11944 H 1142.6 -2.40055 1.69561 0
M  V30 11945 H 1140.12 -1.26587 1.01733 0
M  V30 11946 H 1142.11 -4.16895 -0.0209767 0
M  V30 11947 H 1140.77 -3.17965 -0.657904 0
M  V30 11948 H 1141.78 -4.31789 2.8597 0
M  V30 11949 H 1138.46 -4.16536 0.28355 0
M  V30 11950 H 1139.85 -5.26663 4.17224 0
M  V30 11951 N 1142.57 -0.928524 -1.27343 0
M  V30 11952 C 1143.98 -0.613856 -1.7632 0
M  V30 11953 C 1144.33 0.870983 -1.75808 0
M  V30 11954 O 1143.46 1.68155 -1.36209 0
M  V30 11955 C 1144.05 -1.10755 -3.20186 0
M  V30 11956 C 1142.61 -0.843532 -3.66826 0
M  V30 11957 C 1141.76 -1.26579 -2.46724 0
M  V30 11958 H 1144.71 -1.10821 -1.13598 0
M  V30 11959 H 1144.73 -0.455598 -3.77763 0
M  V30 11960 H 1144.24 -2.18825 -3.20526 0
M  V30 11961 H 1142.34 0.223334 -3.7193 0
M  V30 11962 H 1142.46 -1.46165 -4.56259 0
M  V30 11963 H 1140.82 -0.684334 -2.45334 0
M  V30 11964 H 1141.6 -2.35516 -2.49774 0
M  V30 11965 N 1144.05 1.41491 -0.694123 0
M  V30 11966 C 1145.47 1.55358 -0.365532 0
M  V30 11967 C 1145.67 1.66994 1.12762 0
M  V30 11968 O 1144.72 1.64756 1.91342 0
M  V30 11969 C 1146.03 2.79352 -1.11279 0
M  V30 11970 C 1147.58 2.93147 -1.097 0
M  V30 11971 C 1148.06 4.20027 -1.82597 0
M  V30 11972 N 1149.55 4.26981 -1.7956 0
M  V30 11973 C 1150.28 5.24013 -2.32805 0
M  V30 11974 N 1149.78 6.27083 -2.94515 0
M  V30 11975 N 1151.57 5.15943 -2.23069 0
M  V30 11976 H 1143.72 1.32183 -1.66257 0
M  V30 11977 H 1145.99 0.637624 -0.701527 0
M  V30 11978 H 1145.69 2.76958 -2.16765 0
M  V30 11979 H 1145.57 3.70827 -0.690439 0
M  V30 11980 H 1147.95 2.95057 -0.0504037 0
M  V30 11981 H 1148.03 2.02849 -1.55839 0
M  V30 11982 H 1147.68 4.18878 -2.87235 0
M  V30 11983 H 1147.61 5.09294 -1.33893 0
M  V30 11984 H 1150.1 3.53129 -1.34567 0
M  V30 11985 H 1150.41 6.97511 -3.32714 0
M  V30 11986 H 1148.76 6.27589 -2.98592 0
M  V30 11987 H 1151.95 4.34346 -1.74532 0
M  V30 11988 H 1152.12 5.91396 -2.64868 0
M  V30 11989 N 1145.53 0.438773 1.51369 0
M  V30 11990 C 1146.46 -0.362467 2.3067 0
M  V30 11991 C 1147.44 -1.01973 1.36145 0
M  V30 11992 O 1148.62 -1.0231 1.65065 0
M  V30 11993 C 1145.75 -1.46313 3.14976 0
M  V30 11994 C 1144.71 -0.929272 4.1779 0
M  V30 11995 C 1144.03 -2.12579 4.90627 0
M  V30 11996 C 1145.33 0.0372782 5.22287 0
M  V30 11997 H 1147.03 0.29931 2.979 0
M  V30 11998 H 1144.57 0.14539 1.43264 0
M  V30 11999 H 1146.53 -2.03088 3.69233 0
M  V30 12000 H 1145.25 -2.15321 2.45569 0
M  V30 12001 H 1143.91 -0.383722 3.64586 0
M  V30 12002 H 1143.56 -2.8021 4.17722 0
M  V30 12003 H 1143.26 -1.77496 5.60151 0
M  V30 12004 H 1144.78 -2.69905 5.47708 0
M  V30 12005 H 1146.2 -0.44022 5.71607 0
M  V30 12006 H 1144.59 0.300748 5.99346 0
M  V30 12007 H 1145.66 0.973503 4.75027 0
M  V30 12008 N 1147.01 -1.56678 0.170181 0
M  V30 12009 C 1147.94 -2.20916 -0.756213 0
M  V30 12010 C 1148.92 -1.16442 -1.23997 0
M  V30 12011 O 1150.1 -1.44867 -1.29333 0
M  V30 12012 C 1147.23 -2.84901 -1.98617 0
M  V30 12013 C 1146.19 -3.95403 -1.63831 0
M  V30 12014 C 1145.51 -4.46432 -2.94282 0
M  V30 12015 C 1146.81 -5.15051 -0.867195 0
M  V30 12016 H 1148.51 -2.98585 -0.220776 0
M  V30 12017 H 1146.05 -1.43619 -0.104748 0
M  V30 12018 H 1148 -3.28514 -2.63926 0
M  V30 12019 H 1146.73 -2.04598 -2.54572 0
M  V30 12020 H 1145.39 -3.52444 -1.00891 0
M  V30 12021 H 1145.04 -3.62923 -3.48276 0
M  V30 12022 H 1144.74 -5.20979 -2.71762 0
M  V30 12023 H 1146.26 -4.92731 -3.60622 0
M  V30 12024 H 1147.67 -5.55363 -1.42285 0
M  V30 12025 H 1146.07 -5.95507 -0.741065 0
M  V30 12026 H 1147.14 -4.84707 0.136693 0
M  V30 12027 N 1148.48 0.103547 -1.57259 0
M  V30 12028 C 1149.71 0.82235 -1.89855 0
M  V30 12029 C 1150.13 1.72694 -0.76303 0
M  V30 12030 O 1149.48 1.8056 0.265421 0
M  V30 12031 C 1149.53 1.64282 -3.22015 0
M  V30 12032 O 1149.26 0.774628 -4.31197 0
M  V30 12033 C 1150.76 2.46543 -3.68418 0
M  V30 12034 H 1147.98 0.235591 -0.628282 0
M  V30 12035 H 1150.52 0.0833106 -2.0433 0
M  V30 12036 H 1148.68 2.33446 -3.09163 0
M  V30 12037 H 1149.09 1.34205 -5.0704 0
M  V30 12038 H 1150.56 2.99618 -4.63609 0
M  V30 12039 H 1151.04 3.24618 -2.95838 0
M  V30 12040 H 1151.65 1.82594 -3.84109 0
M  V30 12041 N 1149.96 1.53094 0.37415 0
M  V30 12042 C 1151.21 1.68861 1.11769 0
M  V30 12043 C 1151.54 0.436032 1.89549 0
M  V30 12044 O 1150.79 -0.581879 1.86849 0
M  V30 12045 C 1151.09 2.88432 2.11049 0
M  V30 12046 C 1150.76 4.25284 1.49814 0
M  V30 12047 C 1149.42 4.62501 1.32841 0
M  V30 12048 C 1151.77 5.10425 1.05433 0
M  V30 12049 C 1149.1 5.82502 0.700567 0
M  V30 12050 C 1151.45 6.31064 0.440525 0
M  V30 12051 C 1150.11 6.67 0.258216 0
M  V30 12052 H 1149.38 0.617906 0.40899 0
M  V30 12053 H 1152.03 1.87265 0.4005 0
M  V30 12054 H 1150.34 2.64505 2.8904 0
M  V30 12055 H 1152.03 2.97825 2.68517 0
M  V30 12056 H 1148.62 3.95976 1.64016 0
M  V30 12057 H 1152.81 4.82229 1.17342 0
M  V30 12058 H 1148.06 6.08942 0.547652 0
M  V30 12059 H 1152.24 6.96344 0.0883962 0
M  V30 12060 H 1149.86 7.59851 -0.230354 0
M  V30 12061 N 1151.44 -0.633461 1.44309 0
M  V30 12062 C 1152.4 -1.72743 1.50641 0
M  V30 12063 C 1153.4 -1.56031 0.388718 0
M  V30 12064 O 1154.59 -1.61568 0.651251 0
M  V30 12065 C 1151.72 -3.11804 1.37809 0
M  V30 12066 H 1152.92 -1.68503 2.48086 0
M  V30 12067 H 1150.47 -0.846912 1.31366 0
M  V30 12068 H 1151.21 -3.2164 0.414483 0
M  V30 12069 H 1150.99 -3.2534 2.18852 0
M  V30 12070 H 1152.48 -3.91538 1.45216 0
M  V30 12071 N 1152.92 -1.31168 -0.873655 0
M  V30 12072 C 1154.14 -1.23728 -1.66452 0
M  V30 12073 C 1154.57 0.194869 -1.87088 0
M  V30 12074 O 1153.93 1.1397 -1.40998 0
M  V30 12075 C 1153.97 -1.98285 -3.0119 0
M  V30 12076 O 1153.08 -1.31767 -3.90783 0
M  V30 12077 H 1152.42 -0.427362 -0.508191 0
M  V30 12078 H 1154.95 -1.73176 -1.08955 0
M  V30 12079 H 1154.96 -2.0774 -3.51153 0
M  V30 12080 H 1153.63 -3.02437 -2.8549 0
M  V30 12081 H 1152.21 -1.3074 -3.4923 0
M  V30 12082 N 1154.4 1.08748 -1.14068 0
M  V30 12083 C 1155.33 2.1544 -0.782199 0
M  V30 12084 C 1156.34 1.61575 0.199301 0
M  V30 12085 O 1157.53 1.78487 -0.0219044 0
M  V30 12086 C 1154.63 3.38611 -0.13983 0
M  V30 12087 C 1153.8 4.2187 -1.15518 0
M  V30 12088 C 1152.86 5.23451 -0.537216 0
M  V30 12089 O 1151.89 5.56424 -1.1992 0
M  V30 12090 N 1153.09 5.76413 0.6876 0
M  V30 12091 H 1155.86 2.46798 -1.70032 0
M  V30 12092 H 1153.42 1.24527 -1.03463 0
M  V30 12093 H 1155.41 4.03688 0.285999 0
M  V30 12094 H 1153.98 3.05084 0.681357 0
M  V30 12095 H 1153.2 3.52825 -1.75806 0
M  V30 12096 H 1154.49 4.74318 -1.84119 0
M  V30 12097 H 1153.88 5.51851 1.24406 0
M  V30 12098 H 1152.44 6.43189 1.05599 0
M  V30 12099 N 1155.87 0.935264 1.26849 0
M  V30 12100 C 1156.8 0.457776 2.28969 0
M  V30 12101 C 1157.79 -0.48587 1.63013 0
M  V30 12102 O 1158.97 -0.388998 1.90264 0
M  V30 12103 C 1156.1 -0.283332 3.46142 0
M  V30 12104 C 1155.05 0.573196 4.24144 0
M  V30 12105 C 1154.38 -0.297525 5.33872 0
M  V30 12106 C 1155.68 1.84153 4.88759 0
M  V30 12107 H 1157.37 1.31125 2.69159 0
M  V30 12108 H 1154.92 0.631956 1.29392 0
M  V30 12109 H 1156.87 -0.628366 4.16689 0
M  V30 12110 H 1155.6 -1.1709 3.04889 0
M  V30 12111 H 1154.26 0.901043 3.55354 0
M  V30 12112 H 1153.9 -1.18427 4.8886 0
M  V30 12113 H 1153.6 0.272126 5.8697 0
M  V30 12114 H 1155.13 -0.637961 6.07258 0
M  V30 12115 H 1156.54 1.5641 5.51551 0
M  V30 12116 H 1154.94 2.35528 5.51948 0
M  V30 12117 H 1156.01 2.5565 4.12033 0
M  V30 12118 N 1157.35 -1.41121 0.701616 0
M  V30 12119 C 1158.3 -2.30765 0.040121 0
M  V30 12120 C 1159.27 -1.47436 -0.764975 0
M  V30 12121 O 1160.45 -1.76209 -0.731775 0
M  V30 12122 C 1157.59 -3.33535 -0.885903 0
M  V30 12123 C 1156.71 -4.3194 -0.0717765 0
M  V30 12124 C 1155.84 -5.21779 -0.995996 0
M  V30 12125 C 1154.88 -6.11849 -0.175133 0
M  V30 12126 N 1154.02 -6.94151 -1.05348 0
M  V30 12127 H 1158.86 -2.86772 0.810312 0
M  V30 12128 H 1156.4 -1.41233 0.411301 0
M  V30 12129 H 1158.35 -3.91675 -1.4369 0
M  V30 12130 H 1156.98 -2.79065 -1.62243 0
M  V30 12131 H 1156.04 -3.75698 0.596221 0
M  V30 12132 H 1157.35 -4.95597 0.56435 0
M  V30 12133 H 1156.5 -5.84782 -1.61601 0
M  V30 12134 H 1155.24 -4.58363 -1.66597 0
M  V30 12135 H 1154.25 -5.4789 0.457916 0
M  V30 12136 H 1155.47 -6.77322 0.491133 0
M  V30 12137 H 1153.42 -6.33338 -1.70936 0
M  V30 12138 H 1153.33 -7.54518 -0.473065 0
M  V30 12139 H 1154.6 -7.61617 -1.66012 0
M  V30 12140 N 1158.83 -0.446794 -1.51134 0
M  V30 12141 C 1159.79 0.348311 -2.26538 0
M  V30 12142 C 1160.79 0.941566 -1.3035 0
M  V30 12143 O 1161.98 0.814537 -1.53984 0
M  V30 12144 C 1159.12 1.49371 -3.06433 0
M  V30 12145 H 1160.31 -0.312648 -2.98266 0
M  V30 12146 H 1157.86 -0.200201 -1.55013 0
M  V30 12147 H 1158.6 2.19045 -2.39144 0
M  V30 12148 H 1158.38 1.07439 -3.77093 0
M  V30 12149 H 1159.87 2.05522 -3.63525 0
M  V30 12150 N 1160.31 1.56586 -0.178487 0
M  V30 12151 C 1161.56 1.96709 0.4637 0
M  V30 12152 C 1161.88 1.06586 1.63292 0
M  V30 12153 O 1161.15 0.133683 1.95443 0
M  V30 12154 H 1159.73 0.726381 0.174299 0
M  V30 12155 H 1162.39 1.9314 -0.261345 0
M  V30 12156 H 1161.49 3.01164 0.818934 0
M  V30 12157 N 1161.79 -0.095206 1.57312 0
M  V30 12158 C 1162.73 -1.11551 2.02052 0
M  V30 12159 C 1163.7 -1.39808 0.896818 0
M  V30 12160 O 1164.89 -1.51273 1.1628 0
M  V30 12161 C 1162.03 -2.43056 2.44985 0
M  V30 12162 C 1161.14 -2.21531 3.70875 0
M  V30 12163 C 1160.28 -3.46434 4.02687 0
M  V30 12164 C 1159.32 -3.2017 5.21687 0
M  V30 12165 N 1158.45 -4.37339 5.49253 0
M  V30 12166 H 1163.29 -0.727 2.88996 0
M  V30 12167 H 1160.83 -0.347441 1.42938 0
M  V30 12168 H 1162.79 -3.19803 2.67921 0
M  V30 12169 H 1161.42 -2.79754 1.61051 0
M  V30 12170 H 1160.47 -1.35587 3.55416 0
M  V30 12171 H 1161.78 -1.98116 4.57768 0
M  V30 12172 H 1160.94 -4.31589 4.26399 0
M  V30 12173 H 1159.67 -3.72904 3.14315 0
M  V30 12174 H 1158.68 -2.33409 4.97796 0
M  V30 12175 H 1159.9 -2.95047 6.11657 0
M  V30 12176 H 1157.85 -4.63885 4.6384 0
M  V30 12177 H 1157.77 -4.17114 6.30517 0
M  V30 12178 H 1159.04 -5.23559 5.775 0
M  V30 12179 N 1163.26 -1.53291 -0.366026 0
M  V30 12180 C 1164.51 -1.69117 -1.10653 0
M  V30 12181 C 1164.83 -0.445327 -1.89847 0
M  V30 12182 O 1164.1 0.540616 -1.88293 0
M  V30 12183 H 1162.68 -0.623446 -0.41149 0
M  V30 12184 H 1165.35 -1.90479 -0.412749 0
M  V30 12185 H 1164.44 -2.55205 -1.79658 0
M  V30 12186 N 1164.74 0.6258 -1.44643 0
M  V30 12187 C 1165.67 1.74858 -1.54748 0
M  V30 12188 C 1166.65 1.65327 -0.400138 0
M  V30 12189 O 1167.84 1.84005 -0.620948 0
M  V30 12190 C 1164.97 3.13408 -1.49643 0
M  V30 12191 C 1163.92 3.37733 -2.62908 0
M  V30 12192 C 1163.25 4.76367 -2.42855 0
M  V30 12193 C 1164.55 3.29771 -4.05029 0
M  V30 12194 H 1166.24 1.66658 -2.48728 0
M  V30 12195 H 1163.79 0.800363 -1.19709 0
M  V30 12196 H 1165.74 3.91735 -1.55312 0
M  V30 12197 H 1164.47 3.22404 -0.521824 0
M  V30 12198 H 1163.12 2.61788 -2.56637 0
M  V30 12199 H 1162.77 4.82074 -1.43575 0
M  V30 12200 H 1162.47 4.936 -3.18799 0
M  V30 12201 H 1164 5.56917 -2.50351 0
M  V30 12202 H 1165.41 3.97996 -4.12641 0
M  V30 12203 H 1163.81 3.58538 -4.81218 0
M  V30 12204 H 1164.88 2.27493 -4.28223 0
M  V30 12205 N 1166.22 1.31629 0.866686 0
M  V30 12206 C 1167.45 1.24474 1.65269 0
M  V30 12207 C 1167.86 -0.18939 1.87848 0
M  V30 12208 O 1167.22 -1.12251 1.43895 0
M  V30 12209 C 1167.27 1.98872 3.01881 0
M  V30 12210 O 1166.99 3.36687 2.8031 0
M  V30 12211 C 1168.49 1.98595 3.96327 0
M  V30 12212 H 1165.71 0.429966 0.515141 0
M  V30 12213 H 1168.26 1.73559 1.08156 0
M  V30 12214 H 1166.41 1.53539 3.55675 0
M  V30 12215 H 1166.83 3.74612 3.67105 0
M  V30 12216 H 1168.3 2.55156 4.89489 0
M  V30 12217 H 1168.78 0.969257 4.28371 0
M  V30 12218 H 1169.38 2.43821 3.4847 0
M  V30 12219 N 1167.7 -1.08142 1.14644 0
M  V30 12220 C 1168.95 -1.79959 0.910908 0
M  V30 12221 C 1169.26 -1.87296 -0.563866 0
M  V30 12222 O 1170.47 -2.55555 -0.916735 0
M  V30 12223 C 1168.92 -3.23351 1.58025 0
M  V30 12224 C 1168.53 -3.2424 3.09148 0
M  V30 12225 C 1170.28 -3.99834 1.42595 0
M  V30 12226 C 1168.18 -4.62236 3.68906 0
M  V30 12227 H 1167.11 -0.674423 0.33715 0
M  V30 12228 H 1169.76 -1.21441 1.37566 0
M  V30 12229 H 1168.15 -3.82013 1.04318 0
M  V30 12230 H 1169.32 -2.75269 3.69545 0
M  V30 12231 H 1167.63 -2.61253 3.24246 0
M  V30 12232 H 1170.23 -5.01809 1.8464 0
M  V30 12233 H 1170.57 -4.14631 0.372402 0
M  V30 12234 H 1171.11 -3.47648 1.93354 0
M  V30 12235 H 1167.85 -4.52642 4.74126 0
M  V30 12236 H 1167.37 -5.11477 3.1329 0
M  V30 12237 H 1169.05 -5.3121 3.69358 0
M  V30 12238 N 1169.18 -0.941978 -1.26351 0
M  V30 12239 C 1170.42 -0.590845 -1.94002 0
M  V30 12240 C 1170.76 0.868004 -1.73722 0
M  V30 12241 O 1170.03 1.62111 -1.07472 0
M  V30 12242 C 1170.31 -0.934901 -3.47752 0
M  V30 12243 C 1170.17 -2.44855 -3.77314 0
M  V30 12244 C 1171.49 -0.450888 -4.37784 0
M  V30 12245 H 1168.61 -0.21613 -0.704597 0
M  V30 12246 H 1171.25 -1.17634 -1.49205 0
M  V30 12247 H 1169.4 -0.436648 -3.86038 0
M  V30 12248 H 1171.07 -3.01959 -3.48738 0
M  V30 12249 H 1169.31 -2.89169 -3.23363 0
M  V30 12250 H 1169.98 -2.6398 -4.84787 0
M  V30 12251 H 1172.46 -0.878107 -4.06729 0
M  V30 12252 H 1171.34 -0.720439 -5.44152 0
M  V30 12253 H 1171.6 0.649162 -4.37308 0
M  V30 12254 N 1170.66 1.40747 -0.709091 0
M  V30 12255 C 1171.9 2.00606 -0.245324 0
M  V30 12256 C 1172.22 1.56489 1.16346 0
M  V30 12257 O 1171.49 0.801456 1.78755 0
M  V30 12258 H 1170.07 0.741833 -0.0877098 0
M  V30 12259 H 1172.74 1.72178 -0.913271 0
M  V30 12260 H 1171.83 3.10901 -0.273322 0
M  V30 12261 N 1172.13 0.454803 1.50895 0
M  V30 12262 C 1173.36 -0.106259 2.07128 0
M  V30 12263 C 1173.78 -1.3418 1.31823 0
M  V30 12264 O 1173.14 -1.77667 0.361147 0
M  V30 12265 C 1173.19 -0.389609 3.58489 0
M  V30 12266 O 1172.29 -1.47305 3.85195 0
M  V30 12267 H 1171.63 0.00580588 0.663975 0
M  V30 12268 H 1174.16 0.641163 1.94294 0
M  V30 12269 H 1174.17 -0.634934 4.03029 0
M  V30 12270 H 1172.85 0.513338 4.1272 0
M  V30 12271 H 1171.43 -1.21631 3.52506 0
M  V30 12272 N 1173.61 -1.56489 0.186789 0
M  V30 12273 C 1174.86 -1.97634 -0.454831 0
M  V30 12274 C 1175.19 -1.07334 -1.61843 0
M  V30 12275 O 1174.47 -0.123612 -1.94107 0
M  V30 12276 C 1174.75 -3.48071 -0.922962 0
M  V30 12277 C 1174.6 -4.49149 0.241877 0
M  V30 12278 C 1175.92 -4.01994 -1.79134 0
M  V30 12279 H 1173.04 -0.718555 -0.163854 0
M  V30 12280 H 1175.68 -1.87984 0.27604 0
M  V30 12281 H 1173.83 -3.56425 -1.54575 0
M  V30 12282 H 1175.5 -4.52841 0.87936 0
M  V30 12283 H 1173.75 -4.24468 0.894964 0
M  V30 12284 H 1174.42 -5.51851 -0.128051 0
M  V30 12285 H 1176.89 -3.96367 -1.26618 0
M  V30 12286 H 1175.77 -5.07641 -2.08787 0
M  V30 12287 H 1176.03 -3.46747 -2.74261 0
M  V30 12288 N 1175.09 0.086862 -1.5736 0
M  V30 12289 C 1176.34 0.787581 -1.85688 0
M  V30 12290 C 1176.65 1.79494 -0.777263 0
M  V30 12291 O 1177.86 2.54415 -0.947914 0
M  V30 12292 C 1176.31 1.45155 -3.2933 0
M  V30 12293 C 1175.92 0.483539 -4.45383 0
M  V30 12294 C 1177.67 2.13552 -3.66873 0
M  V30 12295 C 1175.57 1.15257 -5.8006 0
M  V30 12296 H 1174.5 0.297882 -0.692663 0
M  V30 12297 H 1177.15 0.0406299 -1.83455 0
M  V30 12298 H 1175.54 2.24625 -3.26128 0
M  V30 12299 H 1176.71 -0.280254 -4.59947 0
M  V30 12300 H 1175.02 -0.0951664 -4.16291 0
M  V30 12301 H 1177.62 2.64355 -4.6478 0
M  V30 12302 H 1177.96 2.92818 -2.95911 0
M  V30 12303 H 1178.5 1.40932 -3.71999 0
M  V30 12304 H 1175.24 0.400546 -6.54275 0
M  V30 12305 H 1174.76 1.88759 -5.69324 0
M  V30 12306 H 1176.44 1.67671 -6.24896 0
M  V30 12307 N 1176.57 1.53483 0.357892 0
M  V30 12308 C 1177.81 1.70289 1.10134 0
M  V30 12309 C 1178.15 0.457296 1.88739 0
M  V30 12310 O 1177.42 -0.545527 1.86693 0
M  V30 12311 C 1177.7 2.95755 2.05429 0
M  V30 12312 C 1177.56 4.30489 1.30382 0
M  V30 12313 C 1178.88 3.16844 3.05447 0
M  V30 12314 H 1176 0.61965 0.399003 0
M  V30 12315 H 1178.64 1.86133 0.381357 0
M  V30 12316 H 1176.79 2.82377 2.66825 0
M  V30 12317 H 1178.46 4.55692 0.71711 0
M  V30 12318 H 1176.7 4.2955 0.605712 0
M  V30 12319 H 1177.37 5.14427 2.00171 0
M  V30 12320 H 1179.85 3.29458 2.54159 0
M  V30 12321 H 1178.73 4.06053 3.69341 0
M  V30 12322 H 1178.99 2.32476 3.76041 0
M  V30 12323 N 1178.05 -0.61812 1.44973 0
M  V30 12324 C 1179.29 -1.37468 1.48145 0
M  V30 12325 C 1179.61 -1.94628 0.120366 0
M  V30 12326 O 1178.88 -1.76548 -0.848982 0
M  V30 12327 H 1177.46 -0.510293 0.545536 0
M  V30 12328 H 1180.13 -0.726598 1.8085 0
M  V30 12329 H 1179.22 -2.19944 2.2143 0
M  V30 12330 N 1179.52 -1.32087 -0.859693 0
M  V30 12331 C 1180.47 -1.20549 -1.98924 0
M  V30 12332 C 1181.47 -0.111422 -1.69033 0
M  V30 12333 O 1182.67 -0.27401 -1.77902 0
M  V30 12334 H 1179.05 -0.373538 -0.652667 0
M  V30 12335 H 1181.02 -2.16091 -2.05785 0
M  V30 12336 C 1179.77 -0.940226 -3.34746 0
M  V30 12337 H 1179.09 -1.77427 -3.58273 0
M  V30 12338 H 1180.53 -0.899712 -4.14344 0
M  V30 12339 C 1178.99 0.357042 -3.35003 0
M  V30 12340 O 1179.52 1.37054 -3.77596 0
M  V30 12341 N 1177.72 0.37723 -2.88141 0
M  V30 12342 H 1177.27 -0.448051 -2.53674 0
M  V30 12343 H 1177.23 1.24509 -2.88695 0
M  V30 12344 N 1181 1.07532 -1.15215 0
M  V30 12345 C 1182.25 1.80093 -0.925891 0
M  V30 12346 C 1182.58 1.86648 0.547079 0
M  V30 12347 O 1181.83 1.34492 1.42164 0
M  V30 12348 C 1182.13 3.2518 -1.483 0
M  V30 12349 C 1181.8 3.38728 -2.97614 0
M  V30 12350 C 1180.46 3.42133 -3.38376 0
M  V30 12351 C 1182.81 3.41676 -3.93583 0
M  V30 12352 C 1180.14 3.46086 -4.73752 0
M  V30 12353 C 1182.49 3.47166 -5.28828 0
M  V30 12354 C 1181.15 3.48847 -5.69089 0
M  V30 12355 H 1180.42 0.659007 -0.338808 0
M  V30 12356 H 1183.07 1.26548 -1.43728 0
M  V30 12357 H 1181.38 3.81493 -0.892751 0
M  V30 12358 H 1183.07 3.79895 -1.28376 0
M  V30 12359 H 1179.66 3.36775 -2.65105 0
M  V30 12360 H 1183.85 3.38268 -3.63165 0
M  V30 12361 H 1179.1 3.45686 -5.04293 0
M  V30 12362 H 1183.28 3.48393 -6.02989 0
M  V30 12363 H 1180.9 3.51663 -6.73971 0
M  V30 12364 N 1182.48 0.948665 1.2585 0
M  V30 12365 C 1183.41 0.482036 2.2847 0
M  V30 12366 C 1184.39 -0.468553 1.63519 0
M  V30 12367 O 1185.58 -0.368796 1.90666 0
M  V30 12368 C 1182.71 -0.246603 3.46423 0
M  V30 12369 C 1181.66 0.61815 4.23513 0
M  V30 12370 C 1180.99 -0.240884 5.34157 0
M  V30 12371 C 1182.29 1.89327 4.86778 0
M  V30 12372 H 1183.98 1.33973 2.67753 0
M  V30 12373 H 1181.53 0.645645 1.28715 0
M  V30 12374 H 1183.48 -0.584135 4.17332 0
M  V30 12375 H 1182.2 -1.13849 3.06114 0
M  V30 12376 H 1180.86 0.938682 3.54379 0
M  V30 12377 H 1180.51 -1.13235 4.90089 0
M  V30 12378 H 1180.21 0.334367 5.86648 0
M  V30 12379 H 1181.73 -0.573517 6.07901 0
M  V30 12380 H 1183.15 1.62252 5.49861 0
M  V30 12381 H 1181.55 2.41369 5.49419 0
M  V30 12382 H 1182.62 2.60006 4.09298 0
M  V30 12383 N 1183.96 -1.40369 0.716545 0
M  V30 12384 C 1184.87 -2.34508 0.065658 0
M  V30 12385 C 1185.88 -1.57352 -0.742723 0
M  V30 12386 O 1187.06 -1.89735 -0.675456 0
M  V30 12387 C 1184.13 -3.36262 -0.844337 0
M  V30 12388 C 1183.19 -4.29292 -0.0257971 0
M  V30 12389 C 1182.42 -5.26185 -0.892452 0
M  V30 12390 O 1182.64 -5.29071 -2.13166 0
M  V30 12391 O 1181.58 -6.0099 -0.330933 0
M  V30 12392 H 1185.4 -2.91789 0.842184 0
M  V30 12393 H 1182.99 -1.41579 0.477034 0
M  V30 12394 H 1184.87 -3.98661 -1.36555 0
M  V30 12395 H 1183.54 -2.81393 -1.59999 0
M  V30 12396 H 1182.45 -3.70175 0.540512 0
M  V30 12397 H 1183.78 -4.87316 0.69166 0
M  V30 12398 N 1185.44 -0.462799 -1.50652 0
M  V30 12399 C 1186.38 0.349784 -2.29955 0
M  V30 12400 C 1187.38 0.997947 -1.36885 0
M  V30 12401 O 1188.58 0.93 -1.54114 0
M  V30 12402 H 1184.96 0.131635 -0.740389 0
M  V30 12403 H 1186.93 -0.33958 -2.96461 0
M  V30 12404 C 1185.68 1.42398 -3.17204 0
M  V30 12405 H 1185 0.934611 -3.88722 0
M  V30 12406 H 1186.44 1.96528 -3.75703 0
M  V30 12407 C 1184.9 2.42135 -2.34248 0
M  V30 12408 O 1185.43 3.47229 -2.01978 0
M  V30 12409 N 1183.64 2.13647 -1.96985 0
M  V30 12410 H 1183.18 1.28209 -2.23428 0
M  V30 12411 H 1183.14 2.80615 -1.41783 0
M  V30 12412 N 1186.91 1.56388 -0.195085 0
M  V30 12413 C 1188.14 2.0167 0.448637 0
M  V30 12414 C 1188.55 1.07439 1.55736 0
M  V30 12415 O 1187.9 0.071441 1.83561 0
M  V30 12416 C 1187.96 3.43348 1.06547 0
M  V30 12417 C 1187.62 4.569 0.0954901 0
M  V30 12418 C 1188.62 5.15232 -0.695116 0
M  V30 12419 C 1186.3 5.02298 -0.0155889 0
M  V30 12420 C 1188.3 6.1741 -1.58377 0
M  V30 12421 C 1185.98 6.0432 -0.907799 0
M  V30 12422 C 1186.98 6.6175 -1.69045 0
M  V30 12423 O 1186.67 7.6179 -2.56771 0
M  V30 12424 H 1186.4 0.665805 0.116962 0
M  V30 12425 H 1188.96 2.03182 -0.301062 0
M  V30 12426 H 1187.19 3.38823 1.86376 0
M  V30 12427 H 1188.88 3.72438 1.61385 0
M  V30 12428 H 1189.64 4.81026 -0.619604 0
M  V30 12429 H 1185.52 4.57293 0.583424 0
M  V30 12430 H 1189.06 6.62164 -2.1951 0
M  V30 12431 H 1184.96 6.37949 -0.984427 0
M  V30 12432 H 1185.73 7.79209 -2.50551 0
M  V30 12433 N 1188.39 -0.0785156 1.57404 0
M  V30 12434 C 1189.64 -0.777399 1.8655 0
M  V30 12435 C 1189.96 -1.78451 0.786142 0
M  V30 12436 O 1189.23 -1.95016 -0.185911 0
M  V30 12437 H 1187.81 -0.290097 0.688369 0
M  V30 12438 H 1190.47 -0.0562017 1.94819 0
M  V30 12439 H 1189.57 -1.29776 2.83839 0
M  V30 12440 N 1189.87 -1.5367 -0.349747 0
M  V30 12441 C 1190.78 -1.84207 -1.45275 0
M  V30 12442 C 1191.8 -0.731695 -1.57868 0
M  V30 12443 O 1192.97 -1.02337 -1.73462 0
M  V30 12444 C 1190.04 -2.0398 -2.80345 0
M  V30 12445 C 1189.1 -3.27853 -2.77148 0
M  V30 12446 C 1188.33 -3.46673 -4.05775 0
M  V30 12447 O 1188.55 -2.69457 -5.02741 0
M  V30 12448 O 1187.49 -4.40082 -4.10623 0
M  V30 12449 H 1191.31 -2.77947 -1.22389 0
M  V30 12450 H 1188.9 -1.39247 -0.541345 0
M  V30 12451 H 1190.78 -2.18466 -3.60348 0
M  V30 12452 H 1189.46 -1.13429 -3.03176 0
M  V30 12453 H 1188.36 -3.18776 -1.95787 0
M  V30 12454 H 1189.7 -4.18377 -2.59271 0
M  V30 12455 N 1191.35 0.610423 -1.45298 0
M  V30 12456 C 1192.31 1.70324 -1.5337 0
M  V30 12457 C 1193.31 1.55393 -0.413492 0
M  V30 12458 O 1194.5 1.60512 -0.676872 0
M  V30 12459 C 1191.63 3.09572 -1.42752 0
M  V30 12460 H 1192.83 1.64535 -2.50736 0
M  V30 12461 H 1190.38 0.825906 -1.32697 0
M  V30 12462 H 1191.11 3.2094 -0.465601 0
M  V30 12463 H 1190.9 3.21817 -2.24 0
M  V30 12464 H 1192.39 3.89178 -1.51427 0
M  V30 12465 N 1192.83 1.32541 0.852676 0
M  V30 12466 C 1193.76 1.24254 1.97694 0
M  V30 12467 C 1194.74 0.125971 1.69633 0
M  V30 12468 O 1195.92 0.31347 1.91653 0
M  V30 12469 C 1193.05 0.966874 3.3357 0
M  V30 12470 C 1192.01 2.0449 3.75989 0
M  V30 12471 C 1191.33 1.6216 5.09518 0
M  V30 12472 C 1192.63 3.46013 3.91244 0
M  V30 12473 H 1194.33 2.18317 2.04886 0
M  V30 12474 H 1191.87 1.05101 0.984371 0
M  V30 12475 H 1193.83 0.895444 4.11776 0
M  V30 12476 H 1192.55 -0.0093893 3.26599 0
M  V30 12477 H 1191.21 2.10651 3.00036 0
M  V30 12478 H 1190.86 0.632729 4.99005 0
M  V30 12479 H 1190.56 2.3429 5.38871 0
M  V30 12480 H 1192.08 1.56457 5.90215 0
M  V30 12481 H 1193.49 3.4243 4.59799 0
M  V30 12482 H 1191.89 4.1651 4.32017 0
M  V30 12483 H 1192.96 3.8553 2.941 0
M  V30 12484 N 1194.3 -1.0692 1.15784 0
M  V30 12485 C 1195.27 -2.12407 0.861167 0
M  V30 12486 C 1196.27 -1.6018 -0.141031 0
M  V30 12487 O 1197.46 -1.73972 0.0891192 0
M  V30 12488 C 1194.59 -3.39693 0.286636 0
M  V30 12489 H 1195.78 -2.40157 1.79623 0
M  V30 12490 H 1193.34 -1.22881 0.965916 0
M  V30 12491 H 1194.07 -3.17587 -0.656417 0
M  V30 12492 H 1193.86 -3.78903 1.0087 0
M  V30 12493 H 1195.35 -4.17488 0.0967971 0
M  V30 12494 N 1195.78 -0.955326 -1.25345 0
M  V30 12495 C 1196.75 -0.480564 -2.24105 0
M  V30 12496 C 1197.75 0.416123 -1.55322 0
M  V30 12497 O 1198.94 0.213315 -1.72889 0
M  V30 12498 C 1196.07 0.305589 -3.39528 0
M  V30 12499 H 1197.26 -1.35349 -2.6762 0
M  V30 12500 H 1194.81 -0.738673 -1.37744 0
M  V30 12501 H 1195.55 1.19615 -3.01434 0
M  V30 12502 H 1195.33 -0.337719 -3.90643 0
M  V30 12503 H 1196.82 0.627201 -4.12863 0
M  V30 12504 N 1197.26 1.39987 -0.723979 0
M  V30 12505 C 1198.17 2.3447 -0.0780936 0
M  V30 12506 C 1199.19 1.57744 0.734368 0
M  V30 12507 O 1200.36 1.90091 0.665385 0
M  V30 12508 C 1197.43 3.36705 0.826492 0
M  V30 12509 C 1196.49 4.293 0.00303036 0
M  V30 12510 C 1195.72 5.26651 0.864535 0
M  V30 12511 O 1195.95 5.30194 2.10357 0
M  V30 12512 O 1194.88 6.01157 0.299057 0
M  V30 12513 H 1198.71 2.91338 -0.857646 0
M  V30 12514 H 1196.29 1.41324 -0.484536 0
M  V30 12515 H 1198.17 3.9938 1.34439 0
M  V30 12516 H 1196.85 2.82237 1.58505 0
M  V30 12517 H 1195.75 3.69883 -0.560136 0
M  V30 12518 H 1197.09 4.86942 -0.717494 0
M  V30 12519 N 1198.74 0.470782 1.50404 0
M  V30 12520 C 1199.67 -0.359838 2.26358 0
M  V30 12521 C 1200.68 -0.95735 1.31676 0
M  V30 12522 O 1201.87 -0.84581 1.57189 0
M  V30 12523 C 1198.97 -1.51864 3.02969 0
M  V30 12524 C 1198.15 -1.03397 4.25003 0
M  V30 12525 C 1197.21 -2.06679 4.83911 0
M  V30 12526 O 1196.23 -1.64754 5.44835 0
M  V30 12527 N 1197.43 -3.39484 4.70883 0
M  V30 12528 H 1200.2 0.291299 2.98281 0
M  V30 12529 H 1197.76 0.301549 1.59067 0
M  V30 12530 H 1199.75 -2.2065 3.39258 0
M  V30 12531 H 1198.32 -2.07448 2.33846 0
M  V30 12532 H 1197.54 -0.172012 3.93825 0
M  V30 12533 H 1198.83 -0.68807 5.04126 0
M  V30 12534 H 1198.23 -3.76256 4.22431 0
M  V30 12535 H 1196.78 -4.04068 5.11441 0
M  V30 12536 N 1200.22 -1.56282 0.203376 0
M  V30 12537 C 1201.45 -2.02198 -0.438572 0
M  V30 12538 C 1201.86 -1.08343 -1.54619 0
M  V30 12539 O 1201.22 -0.0897594 -1.82279 0
M  V30 12540 C 1201.27 -3.4776 -0.987184 0
M  V30 12541 O 1200.99 -4.38034 0.0762552 0
M  V30 12542 C 1202.49 -4.09234 -1.70419 0
M  V30 12543 H 1199.71 -0.662041 -0.109282 0
M  V30 12544 H 1202.25 -2.02067 0.314509 0
M  V30 12545 H 1200.41 -3.48564 -1.69061 0
M  V30 12546 H 1200.82 -5.2344 -0.333322 0
M  V30 12547 H 1202.3 -5.1291 -2.04027 0
M  V30 12548 H 1202.77 -3.53172 -2.61087 0
M  V30 12549 H 1203.38 -4.12226 -1.04641 0
M  V30 12550 N 1201.7 0.070167 -1.57444 0
M  V30 12551 C 1202.94 0.767842 -1.86513 0
M  V30 12552 C 1203.26 1.78659 -0.796257 0
M  V30 12553 O 1204.46 2.53395 -0.974845 0
M  V30 12554 C 1202.92 1.41654 -3.30851 0
M  V30 12555 C 1202.53 0.436273 -4.45871 0
M  V30 12556 C 1204.27 2.09649 -3.69117 0
M  V30 12557 C 1202.18 1.09098 -5.8125 0
M  V30 12558 H 1201.11 0.290519 -0.695784 0
M  V30 12559 H 1203.76 0.0211697 -1.83488 0
M  V30 12560 H 1202.14 2.21153 -3.28493 0
M  V30 12561 H 1203.32 -0.329022 -4.59624 0
M  V30 12562 H 1201.63 -0.139314 -4.16167 0
M  V30 12563 H 1204.23 2.59411 -4.67558 0
M  V30 12564 H 1204.57 2.89663 -2.99 0
M  V30 12565 H 1205.1 1.36979 -3.73472 0
M  V30 12566 H 1201.84 0.331128 -6.54663 0
M  V30 12567 H 1201.36 1.8271 -5.71294 0
M  V30 12568 H 1203.04 1.61034 -6.2664 0
M  V30 12569 N 1203.17 1.53854 0.341593 0
M  V30 12570 C 1204.12 1.81979 1.41959 0
M  V30 12571 C 1205.09 0.665616 1.5218 0
M  V30 12572 O 1206.28 0.910246 1.67688 0
M  V30 12573 C 1203.42 2.03681 2.78583 0
M  V30 12574 C 1202.53 3.31389 2.77137 0
M  V30 12575 C 1201.66 3.43148 4.05491 0
M  V30 12576 C 1200.7 4.64799 3.98282 0
M  V30 12577 N 1199.84 4.73581 5.18329 0
M  V30 12578 H 1204.68 2.73953 1.17275 0
M  V30 12579 H 1202.22 1.35689 0.568062 0
M  V30 12580 H 1204.17 2.14253 3.57983 0
M  V30 12581 H 1202.8 1.15017 3.01614 0
M  V30 12582 H 1201.86 3.29649 1.89832 0
M  V30 12583 H 1203.17 4.20885 2.67689 0
M  V30 12584 H 1202.32 3.53163 4.93316 0
M  V30 12585 H 1201.06 2.51712 4.17723 0
M  V30 12586 H 1200.07 4.54859 3.08842 0
M  V30 12587 H 1201.29 5.57601 3.87631 0
M  V30 12588 H 1199.24 3.85055 5.31102 0
M  V30 12589 H 1199.15 5.57016 5.11145 0
M  V30 12590 H 1200.42 4.87908 6.0792 0
M  V30 12591 N 1204.65 -0.602709 1.4562 0
M  V30 12592 C 1205.6 -1.70753 1.51088 0
M  V30 12593 C 1206.59 -1.56501 0.373662 0
M  V30 12594 O 1207.78 -1.65755 0.620828 0
M  V30 12595 C 1204.91 -3.09515 1.48511 0
M  V30 12596 C 1203.99 -3.29135 2.67453 0
M  V30 12597 N 1204.38 -3.18996 3.92524 0
M  V30 12598 C 1202.68 -3.60019 2.63253 0
M  V30 12599 C 1203.38 -3.40079 4.71933 0
M  V30 12600 N 1202.36 -3.64299 4.03469 0
M  V30 12601 H 1206.16 -1.61414 2.45607 0
M  V30 12602 H 1203.67 -0.806122 1.4098 0
M  V30 12603 H 1205.67 -3.88782 1.50513 0
M  V30 12604 H 1204.33 -3.19999 0.550526 0
M  V30 12605 H 1205.34 -2.97292 4.24073 0
M  V30 12606 H 1202.02 -3.77311 1.78725 0
M  V30 12607 H 1203.41 -3.37593 5.80931 0
M  V30 12608 N 1206.13 -1.32992 -0.845635 0
M  V30 12609 C 1207.06 -1.25301 -1.97033 0
M  V30 12610 C 1208.04 -0.134966 -1.69564 0
M  V30 12611 O 1209.23 -0.323629 -1.91484 0
M  V30 12612 C 1206.36 -0.984551 -3.33052 0
M  V30 12613 C 1205.31 -2.06481 -3.749 0
M  V30 12614 C 1204.64 -1.6486 -5.08651 0
M  V30 12615 C 1205.94 -3.48083 -3.89404 0
M  V30 12616 H 1207.63 -2.194 -2.03725 0
M  V30 12617 H 1205.18 -1.05621 -0.978783 0
M  V30 12618 H 1207.13 -0.917269 -4.11296 0
M  V30 12619 H 1205.85 -0.00793116 -3.26599 0
M  V30 12620 H 1204.51 -2.1224 -2.98915 0
M  V30 12621 H 1204.16 -0.659183 -4.98662 0
M  V30 12622 H 1203.86 -2.37145 -5.37621 0
M  V30 12623 H 1205.38 -1.59585 -5.89377 0
M  V30 12624 H 1206.8 -3.44863 -4.57976 0
M  V30 12625 H 1205.19 -4.18796 -4.29802 0
M  V30 12626 H 1206.26 -3.87084 -2.92051 0
M  V30 12627 N 1207.61 1.06304 -1.1635 0
M  V30 12628 C 1208.54 2.13209 -0.81346 0
M  V30 12629 C 1209.52 1.61174 0.21484 0
M  V30 12630 O 1210.7 1.8824 0.0989458 0
M  V30 12631 C 1207.83 3.38039 -0.211498 0
M  V30 12632 C 1206.88 4.08875 -1.21339 0
M  V30 12633 S 1207.71 4.58894 -2.76001 0
M  V30 12634 C 1208.86 5.86985 -2.17254 0
M  V30 12635 H 1209.1 2.42572 -1.7189 0
M  V30 12636 H 1206.63 1.18737 -0.986957 0
M  V30 12637 H 1208.59 4.10296 0.129349 0
M  V30 12638 H 1207.25 3.06834 0.671705 0
M  V30 12639 H 1206.44 4.98528 -0.740631 0
M  V30 12640 H 1206.04 3.42632 -1.49932 0
M  V30 12641 H 1208.34 6.59738 -1.54115 0
M  V30 12642 H 1209.28 6.38991 -3.05117 0
M  V30 12643 H 1209.69 5.41012 -1.61141 0
M  V30 12644 N 1209.09 0.96196 1.24836 0
M  V30 12645 C 1210 0.494876 2.29321 0
M  V30 12646 C 1211.01 -0.441363 1.68309 0
M  V30 12647 O 1212.19 -0.315814 1.98908 0
M  V30 12648 C 1209.25 -0.212944 3.46045 0
M  V30 12649 C 1208.31 0.762411 4.22476 0
M  V30 12650 C 1207.55 0.0882756 5.33627 0
M  V30 12651 O 1207.77 -1.12459 5.59204 0
M  V30 12652 O 1206.7 0.777529 5.96857 0
M  V30 12653 H 1210.53 1.36333 2.7138 0
M  V30 12654 H 1208.11 0.728738 1.30421 0
M  V30 12655 H 1210 -0.610805 4.1695 0
M  V30 12656 H 1208.67 -1.05645 3.05975 0
M  V30 12657 H 1207.58 1.21062 3.5397 0
M  V30 12658 H 1208.91 1.57416 4.66349 0
M  V30 12659 N 1210.56 -1.39601 0.731392 0
M  V30 12660 C 1211.53 -2.28992 0.0976037 0
M  V30 12661 C 1212.53 -1.46135 -0.670917 0
M  V30 12662 O 1213.72 -1.66856 -0.50047 0
M  V30 12663 C 1210.85 -3.29582 -0.871124 0
M  V30 12664 H 1212.04 -2.86541 0.885112 0
M  V30 12665 H 1209.59 -1.48188 0.497002 0
M  V30 12666 H 1210.33 -2.77082 -1.68512 0
M  V30 12667 H 1210.11 -3.9077 -0.322735 0
M  V30 12668 H 1211.6 -3.96479 -1.31126 0
M  V30 12669 N 1212.04 -0.478751 -1.50152 0
M  V30 12670 C 1212.95 0.316554 -2.32455 0
M  V30 12671 C 1213.97 0.98871 -1.4318 0
M  V30 12672 O 1215.14 0.974998 -1.76226 0
M  V30 12673 C 1212.21 1.3799 -3.18056 0
M  V30 12674 C 1211.27 0.723534 -4.23159 0
M  V30 12675 C 1210.5 1.73621 -5.0467 0
M  V30 12676 O 1210.73 2.96362 -4.87366 0
M  V30 12677 O 1209.66 1.30381 -5.87609 0
M  V30 12678 H 1213.49 -0.356491 -3.016 0
M  V30 12679 H 1211.07 -0.24046 -1.47452 0
M  V30 12680 H 1212.95 1.99565 -3.71149 0
M  V30 12681 H 1211.63 2.03627 -2.5163 0
M  V30 12682 H 1210.54 0.0686296 -3.74037 0
M  V30 12683 H 1211.87 0.109979 -4.92077 0
M  V30 12684 N 1213.52 1.56172 -0.211661 0
M  V30 12685 C 1214.47 2.19849 0.702515 0
M  V30 12686 C 1215.44 1.15091 1.19763 0
M  V30 12687 O 1216.62 1.43408 1.25852 0
M  V30 12688 C 1213.76 2.87468 1.90935 0
M  V30 12689 C 1212.88 4.06794 1.45406 0
M  V30 12690 C 1212.01 4.62224 2.61769 0
M  V30 12691 C 1211.05 5.73872 2.12926 0
M  V30 12692 N 1210.19 6.23635 3.22526 0
M  V30 12693 H 1215.03 2.97608 0.152777 0
M  V30 12694 H 1212.56 1.46962 0.0636596 0
M  V30 12695 H 1214.52 3.24851 2.61777 0
M  V30 12696 H 1213.15 2.12244 2.43213 0
M  V30 12697 H 1212.2 3.74962 0.640907 0
M  V30 12698 H 1213.52 4.87497 1.05584 0
M  V30 12699 H 1212.67 5.01999 3.40709 0
M  V30 12700 H 1211.41 3.80662 3.04873 0
M  V30 12701 H 1210.41 5.33609 1.32445 0
M  V30 12702 H 1211.64 6.57262 1.70833 0
M  V30 12703 H 1209.58 5.44991 3.65131 0
M  V30 12704 H 1209.5 6.99435 2.86926 0
M  V30 12705 H 1210.77 6.68066 4.01631 0
M  V30 12706 N 1215 -0.0618163 1.57479 0
M  V30 12707 C 1216.24 -0.760193 1.88013 0
M  V30 12708 C 1216.58 -1.76718 0.805258 0
M  V30 12709 O 1215.85 -1.93633 -0.183408 0
M  V30 12710 C 1216.14 -1.45924 3.29208 0
M  V30 12711 C 1215.99 -0.467994 4.47359 0
M  V30 12712 C 1217.31 -2.40166 3.68793 0
M  V30 12713 H 1214.43 -0.274896 0.683814 0
M  V30 12714 H 1217.07 -0.0232433 1.89986 0
M  V30 12715 H 1215.22 -2.08741 3.27657 0
M  V30 12716 H 1216.89 0.155735 4.61037 0
M  V30 12717 H 1215.13 0.215797 4.33263 0
M  V30 12718 H 1215.8 -0.994942 5.42959 0
M  V30 12719 H 1218.28 -1.87419 3.71501 0
M  V30 12720 H 1217.16 -2.86076 4.68457 0
M  V30 12721 H 1217.42 -3.25413 2.99264 0
M  V30 12722 N 1216.48 -1.54033 -0.333429 0
M  V30 12723 C 1217.42 -1.82729 -1.40992 0
M  V30 12724 C 1218.39 -0.673677 -1.51825 0
M  V30 12725 O 1219.58 -0.919126 -1.67203 0
M  V30 12726 C 1216.72 -2.05155 -2.77498 0
M  V30 12727 C 1215.83 -3.32854 -2.75376 0
M  V30 12728 C 1214.97 -3.45294 -4.03665 0
M  V30 12729 C 1214.01 -4.66905 -3.95811 0
M  V30 12730 N 1213.14 -4.76323 -5.1581 0
M  V30 12731 H 1217.98 -2.74572 -1.15821 0
M  V30 12732 H 1215.52 -1.35988 -0.560859 0
M  V30 12733 H 1217.48 -2.16148 -3.56841 0
M  V30 12734 H 1216.11 -1.16615 -3.01 0
M  V30 12735 H 1215.16 -3.30651 -1.88081 0
M  V30 12736 H 1216.47 -4.22299 -2.65453 0
M  V30 12737 H 1215.63 -3.55775 -4.91436 0
M  V30 12738 H 1214.36 -2.53924 -4.16382 0
M  V30 12739 H 1213.37 -4.56491 -3.06425 0
M  V30 12740 H 1214.59 -5.59649 -3.84668 0
M  V30 12741 H 1212.54 -3.87866 -5.29052 0
M  V30 12742 H 1212.46 -5.59719 -5.08184 0
M  V30 12743 H 1213.73 -4.91125 -6.05324 0
M  V30 12744 N 1217.95 0.594978 -1.45938 0
M  V30 12745 C 1219.2 1.35093 -1.50314 0
M  V30 12746 C 1219.52 1.94412 -0.151315 0
M  V30 12747 O 1218.79 1.77876 0.820787 0
M  V30 12748 H 1217.37 0.501549 -0.553586 0
M  V30 12749 H 1220.04 0.697735 -1.81983 0
M  V30 12750 H 1219.13 2.16393 -2.24901 0
M  V30 12751 N 1219.43 1.33438 0.838571 0
M  V30 12752 C 1220.68 1.24912 1.59384 0
M  V30 12753 C 1221.01 -0.185017 1.93618 0
M  V30 12754 O 1220.26 -1.14229 1.58904 0
M  V30 12755 C 1220.56 2.07002 2.9135 0
M  V30 12756 C 1220.23 3.5619 2.76477 0
M  V30 12757 C 1218.89 3.96862 2.72129 0
M  V30 12758 C 1221.24 4.5099 2.61261 0
M  V30 12759 C 1218.57 5.30551 2.50464 0
M  V30 12760 C 1220.92 5.84841 2.4113 0
M  V30 12761 C 1219.59 6.24696 2.35183 0
M  V30 12762 H 1218.86 0.457084 0.583228 0
M  V30 12763 H 1221.5 1.65027 0.971506 0
M  V30 12764 H 1219.81 1.59665 3.57791 0
M  V30 12765 H 1221.5 1.97762 3.48843 0
M  V30 12766 H 1218.09 3.23896 2.80695 0
M  V30 12767 H 1222.28 4.20476 2.63655 0
M  V30 12768 H 1217.53 5.60468 2.44307 0
M  V30 12769 H 1221.71 6.57901 2.2834 0
M  V30 12770 H 1219.34 7.28225 2.18156 0
M  V30 12771 N 1220.91 -1.05686 1.16912 0
M  V30 12772 C 1222.15 -1.80177 0.965182 0
M  V30 12773 C 1222.51 -1.85437 -0.497698 0
M  V30 12774 O 1223.72 -2.5597 -0.82054 0
M  V30 12775 C 1221.99 -3.20441 1.58279 0
M  V30 12776 S 1223.55 -4.11472 1.52435 0
M  V30 12777 H 1220.36 -0.620595 0.346962 0
M  V30 12778 H 1222.97 -1.26841 1.48767 0
M  V30 12779 H 1221.67 -3.14211 2.64006 0
M  V30 12780 H 1221.2 -3.78853 1.05989 0
M  V30 12781 H 1223.22 -4.93373 0.528876 0
M  V30 12782 N 1222.39 -0.968567 -1.24324 0
M  V30 12783 C 1223.32 -0.457247 -2.24593 0
M  V30 12784 C 1224.33 0.434483 -1.56895 0
M  V30 12785 O 1225.52 0.240519 -1.76872 0
M  V30 12786 C 1222.62 0.359086 -3.36992 0
M  V30 12787 C 1221.8 -0.522945 -4.34263 0
M  V30 12788 C 1220.85 0.237528 -5.25664 0
M  V30 12789 O 1219.88 -0.368835 -5.68004 0
M  V30 12790 N 1221.08 1.52686 -5.6006 0
M  V30 12791 H 1223.85 -1.31934 -2.69098 0
M  V30 12792 H 1221.41 -0.840488 -1.38374 0
M  V30 12793 H 1223.4 0.87589 -3.95108 0
M  V30 12794 H 1221.97 1.12212 -2.91766 0
M  V30 12795 H 1221.19 -1.22071 -3.74823 0
M  V30 12796 H 1222.48 -1.12447 -4.96219 0
M  V30 12797 H 1221.88 2.0412 -5.2759 0
M  V30 12798 H 1220.43 1.98934 -6.207 0
M  V30 12799 N 1223.87 1.39211 -0.738786 0
M  V30 12800 C 1224.8 2.33209 -0.11647 0
M  V30 12801 C 1225.78 1.54108 0.720056 0
M  V30 12802 O 1226.96 1.82486 0.664264 0
M  V30 12803 C 1224.09 3.38226 0.78872 0
M  V30 12804 C 1223.05 4.27963 0.0560636 0
M  V30 12805 C 1222.37 5.2371 1.07852 0
M  V30 12806 C 1223.67 5.10508 -1.1036 0
M  V30 12807 H 1225.37 2.85501 -0.901649 0
M  V30 12808 H 1222.91 1.37272 -0.435032 0
M  V30 12809 H 1224.87 4.02938 1.23364 0
M  V30 12810 H 1223.59 2.84382 1.60606 0
M  V30 12811 H 1222.25 3.64735 -0.369274 0
M  V30 12812 H 1221.9 4.66161 1.88953 0
M  V30 12813 H 1221.6 5.846 0.593048 0
M  V30 12814 H 1223.12 5.91299 1.52307 0
M  V30 12815 H 1224.53 5.68544 -0.736943 0
M  V30 12816 H 1222.93 5.80558 -1.51895 0
M  V30 12817 H 1224 4.45117 -1.92352 0
M  V30 12818 N 1225.34 0.486708 1.49896 0
M  V30 12819 C 1226.59 -0.0629451 2.02702 0
M  V30 12820 C 1226.92 -1.37956 1.36681 0
M  V30 12821 O 1226.2 -1.88025 0.497678 0
M  V30 12822 C 1226.48 -0.230461 3.59362 0
M  V30 12823 C 1226.33 1.10828 4.35933 0
M  V30 12824 C 1227.65 -0.977785 4.29101 0
M  V30 12825 H 1224.77 -0.0214017 0.736689 0
M  V30 12826 H 1227.41 0.635339 1.79063 0
M  V30 12827 H 1225.56 -0.825222 3.79634 0
M  V30 12828 H 1227.24 1.74082 4.27192 0
M  V30 12829 H 1225.48 1.7011 3.99055 0
M  V30 12830 H 1226.15 0.944532 5.43859 0
M  V30 12831 H 1228.63 -0.473505 4.13397 0
M  V30 12832 H 1227.5 -1.06382 5.38492 0
M  V30 12833 H 1227.76 -2.01813 3.9335 0
M  V30 12834 N 1226.82 -1.56058 0.219941 0
M  V30 12835 C 1228.07 -1.98554 -0.412808 0
M  V30 12836 C 1228.4 -1.10742 -1.5953 0
M  V30 12837 O 1227.68 -0.164757 -1.93801 0
M  V30 12838 C 1227.96 -3.4995 -0.848923 0
M  V30 12839 C 1227.81 -4.48535 0.337094 0
M  V30 12840 C 1229.13 -4.05703 -1.70567 0
M  V30 12841 H 1226.25 -0.721869 -0.148576 0
M  V30 12842 H 1228.89 -1.87356 0.315852 0
M  V30 12843 H 1227.04 -3.59624 -1.46979 0
M  V30 12844 H 1228.72 -4.50874 0.975216 0
M  V30 12845 H 1226.96 -4.22474 0.984798 0
M  V30 12846 H 1227.63 -5.51999 -0.0109665 0
M  V30 12847 H 1230.11 -3.98964 -1.18182 0
M  V30 12848 H 1228.98 -5.11955 -1.97972 0
M  V30 12849 H 1229.24 -3.52487 -2.66844 0
M  V30 12850 N 1228.3 0.053464 -1.57509 0
M  V30 12851 C 1229.26 1.04604 -2.03938 0
M  V30 12852 C 1230.26 1.30509 -0.939357 0
M  V30 12853 O 1231.45 1.25922 -1.20371 0
M  V30 12854 C 1228.59 2.38516 -2.43563 0
M  V30 12855 H 1229.78 0.645484 -2.92871 0
M  V30 12856 H 1227.33 0.299683 -1.534 0
M  V30 12857 H 1228.07 2.83368 -1.57712 0
M  V30 12858 H 1227.85 2.2105 -3.23851 0
M  V30 12859 H 1229.34 3.09826 -2.79996 0
M  V30 12860 N 1229.78 1.54207 0.325255 0
M  V30 12861 C 1230.74 1.82757 1.38321 0
M  V30 12862 C 1231.74 0.699312 1.44797 0
M  V30 12863 O 1232.93 0.96762 1.44854 0
M  V30 12864 C 1230.06 1.98608 2.7707 0
M  V30 12865 H 1231.26 2.7728 1.14261 0
M  V30 12866 H 1228.81 1.45899 0.560647 0
M  V30 12867 H 1229.55 1.0629 3.06387 0
M  V30 12868 H 1229.33 2.80707 2.73763 0
M  V30 12869 H 1230.82 2.2215 3.53609 0
M  V30 12870 N 1231.26 -0.58723 1.46251 0
M  V30 12871 C 1232.2 -1.69662 1.56472 0
M  V30 12872 C 1233.17 -1.60978 0.409294 0
M  V30 12873 O 1234.36 -1.80257 0.625451 0
M  V30 12874 C 1231.5 -3.07996 1.55669 0
M  V30 12875 C 1230.61 -3.27337 2.81913 0
M  V30 12876 C 1229.75 -4.55894 2.72644 0
M  V30 12877 C 1228.79 -4.68562 3.93847 0
M  V30 12878 N 1227.92 -5.8844 3.82991 0
M  V30 12879 H 1232.76 -1.60262 2.51237 0
M  V30 12880 H 1230.3 -0.781148 1.24645 0
M  V30 12881 H 1232.26 -3.88058 1.53189 0
M  V30 12882 H 1230.89 -3.16303 0.6444 0
M  V30 12883 H 1229.94 -2.4091 2.94392 0
M  V30 12884 H 1231.25 -3.32567 3.71754 0
M  V30 12885 H 1230.41 -5.44178 2.68244 0
M  V30 12886 H 1229.15 -4.53094 1.80435 0
M  V30 12887 H 1228.15 -3.78696 3.98584 0
M  V30 12888 H 1229.38 -4.73144 4.87146 0
M  V30 12889 H 1227.32 -5.86647 2.93566 0
M  V30 12890 H 1227.24 -5.94919 4.66484 0
M  V30 12891 H 1228.51 -6.79168 3.82559 0
M  V30 12892 N 1232.74 -1.33881 -0.831482 0
M  V30 12893 C 1233.67 -1.27384 -1.95693 0
M  V30 12894 C 1234.65 -0.152943 -1.69411 0
M  V30 12895 O 1235.83 -0.34392 -1.9113 0
M  V30 12896 C 1232.96 -1.01982 -3.31989 0
M  V30 12897 C 1231.92 -2.10445 -3.72689 0
M  V30 12898 C 1231.24 -1.70245 -5.06873 0
M  V30 12899 C 1232.54 -3.52194 -3.8569 0
M  V30 12900 H 1234.24 -2.21549 -2.01386 0
M  V30 12901 H 1231.78 -1.06653 -0.967526 0
M  V30 12902 H 1233.73 -0.960841 -4.103 0
M  V30 12903 H 1232.46 -0.0425709 -3.26572 0
M  V30 12904 H 1231.12 -2.15398 -2.96647 0
M  V30 12905 H 1230.77 -0.712036 -4.97935 0
M  V30 12906 H 1230.47 -2.42834 -5.35075 0
M  V30 12907 H 1231.99 -1.65827 -5.87651 0
M  V30 12908 H 1233.4 -3.49701 -4.54293 0
M  V30 12909 H 1231.8 -4.23331 -4.25336 0
M  V30 12910 H 1232.87 -3.9016 -2.87929 0
M  V30 12911 N 1234.21 1.05064 -1.1747 0
M  V30 12912 C 1235.63 1.30256 -0.922248 0
M  V30 12913 C 1235.83 1.97119 0.417896 0
M  V30 12914 O 1234.89 2.24557 1.15457 0
M  V30 12915 C 1236.2 2.17109 -2.08049 0
M  V30 12916 C 1237.75 2.30487 -2.11766 0
M  V30 12917 C 1238.22 3.20701 -3.26979 0
M  V30 12918 N 1239.71 3.28287 -3.26775 0
M  V30 12919 C 1240.45 3.98218 -4.12565 0
M  V30 12920 N 1239.94 4.70567 -5.08467 0
M  V30 12921 N 1241.74 3.94395 -4.00511 0
M  V30 12922 H 1233.89 0.600653 -2.0373 0
M  V30 12923 H 1236.15 0.327475 -0.889643 0
M  V30 12924 H 1235.86 1.75273 -3.04914 0
M  V30 12925 H 1235.73 3.1775 -2.03261 0
M  V30 12926 H 1238.12 2.71564 -1.15486 0
M  V30 12927 H 1238.2 1.29471 -2.20615 0
M  V30 12928 H 1237.84 2.80337 -4.23525 0
M  V30 12929 H 1237.77 4.21725 -3.15366 0
M  V30 12930 H 1240.26 2.76739 -2.5734 0
M  V30 12931 H 1240.58 5.21492 -5.70321 0
M  V30 12932 H 1238.92 4.69505 -5.12436 0
M  V30 12933 H 1242.11 3.37 -3.24882 0
M  V30 12934 H 1242.29 4.48626 -4.67588 0
M  V30 12935 N 1235.69 0.975146 1.23809 0
M  V30 12936 C 1236.6 0.51917 2.28783 0
M  V30 12937 C 1237.62 -0.423487 1.68768 0
M  V30 12938 O 1238.79 -0.294699 1.99232 0
M  V30 12939 C 1235.86 -0.176229 3.46252 0
M  V30 12940 C 1234.92 0.807177 4.21643 0
M  V30 12941 C 1234.15 0.144869 5.33503 0
M  V30 12942 O 1234.38 -1.06522 5.60365 0
M  V30 12943 O 1233.31 0.84079 5.95999 0
M  V30 12944 H 1237.14 1.39204 2.69919 0
M  V30 12945 H 1234.72 0.74253 1.29641 0
M  V30 12946 H 1236.6 -0.566547 4.17574 0
M  V30 12947 H 1235.28 -1.02394 3.07078 0
M  V30 12948 H 1234.18 1.2481 3.52666 0
M  V30 12949 H 1235.52 1.62354 4.64653 0
M  V30 12950 N 1237.17 -1.38817 0.746158 0
M  V30 12951 C 1238.42 -1.99885 0.298425 0
M  V30 12952 C 1238.74 -1.59518 -1.12156 0
M  V30 12953 O 1238.01 -0.848568 -1.76568 0
M  V30 12954 H 1236.59 -0.739247 0.107347 0
M  V30 12955 H 1239.25 -1.69696 0.9586 0
M  V30 12956 H 1238.35 -3.10067 0.355656 0
M  V30 12957 N 1238.65 -0.49465 -1.49636 0
M  V30 12958 C 1239.9 0.0539277 -2.01628 0
M  V30 12959 C 1240.21 1.38634 -1.37986 0
M  V30 12960 O 1241.42 2.02123 -1.81269 0
M  V30 12961 C 1239.87 0.146582 -3.59601 0
M  V30 12962 C 1239.48 -1.1788 -4.32213 0
M  V30 12963 C 1241.22 0.645862 -4.19558 0
M  V30 12964 C 1239.13 -1.04866 -5.82028 0
M  V30 12965 H 1238.06 0.0239278 -0.75362 0
M  V30 12966 H 1240.71 -0.633112 -1.72232 0
M  V30 12967 H 1239.09 0.897931 -3.85685 0
M  V30 12968 H 1240.27 -1.94295 -4.17835 0
M  V30 12969 H 1238.58 -1.61102 -3.83973 0
M  V30 12970 H 1241.18 0.76064 -5.29262 0
M  V30 12971 H 1241.52 1.64313 -3.82501 0
M  V30 12972 H 1242.06 -0.04877 -3.9777 0
M  V30 12973 H 1238.79 -2.02 -6.23599 0
M  V30 12974 H 1238.31 -0.325293 -5.98917 0
M  V30 12975 H 1239.99 -0.724799 -6.42927 0
M  V30 12976 N 1240.13 1.55939 -0.228214 0
M  V30 12977 C 1241.35 2.0332 0.409364 0
M  V30 12978 C 1241.78 1.10683 1.52088 0
M  V30 12979 O 1241.13 0.0962484 1.81044 0
M  V30 12980 C 1241.18 3.48877 0.911981 0
M  V30 12981 O 1240.29 3.59378 2.02289 0
M  V30 12982 H 1239.63 0.657625 0.0917909 0
M  V30 12983 H 1242.16 2.01605 -0.348802 0
M  V30 12984 H 1242.17 3.89331 1.22007 0
M  V30 12985 H 1240.84 4.15783 0.0984902 0
M  V30 12986 H 1239.42 3.30815 1.72093 0
M  V30 12987 N 1241.6 -0.0451101 1.57535 0
M  V30 12988 C 1242.55 -1.05817 2.01958 0
M  V30 12989 C 1243.54 -1.32963 0.906077 0
M  V30 12990 O 1244.73 -1.32816 1.16999 0
M  V30 12991 C 1241.86 -2.36414 2.48924 0
M  V30 12992 C 1240.95 -2.12428 3.67063 0
M  V30 12993 N 1241.34 -1.58448 4.80341 0
M  V30 12994 C 1239.63 -2.42785 3.74128 0
M  V30 12995 C 1240.34 -1.49896 5.62055 0
M  V30 12996 N 1239.31 -1.96892 5.0669 0
M  V30 12997 H 1243.11 -0.634569 2.86968 0
M  V30 12998 H 1240.63 -0.251719 1.60437 0
M  V30 12999 H 1242.62 -3.09781 2.79001 0
M  V30 13000 H 1241.28 -2.79467 1.65313 0
M  V30 13001 H 1242.3 -1.26939 5.02102 0
M  V30 13002 H 1238.97 -2.89022 3.01285 0
M  V30 13003 H 1240.36 -1.08788 6.63035 0
M  V30 13004 N 1243.08 -1.54377 -0.317073 0
M  V30 13005 C 1244.01 -1.8721 -1.39552 0
M  V30 13006 C 1244.99 -0.729483 -1.53664 0
M  V30 13007 O 1246.18 -0.983799 -1.67437 0
M  V30 13008 C 1243.31 -2.1052 -2.76222 0
M  V30 13009 C 1242.26 -3.26366 -2.76892 0
M  V30 13010 C 1241.59 -3.35061 -4.16699 0
M  V30 13011 C 1242.89 -4.63862 -2.40061 0
M  V30 13012 H 1244.58 -2.77532 -1.12323 0
M  V30 13013 H 1242.13 -1.33536 -0.538897 0
M  V30 13014 H 1244.08 -2.32073 -3.51739 0
M  V30 13015 H 1242.81 -1.16953 -3.04942 0
M  V30 13016 H 1241.46 -3.0471 -2.03831 0
M  V30 13017 H 1241.11 -2.39041 -4.4257 0
M  V30 13018 H 1240.81 -4.12923 -4.18053 0
M  V30 13019 H 1242.34 -3.58856 -4.94019 0
M  V30 13020 H 1243.75 -4.85252 -3.05292 0
M  V30 13021 H 1242.15 -5.44321 -2.52655 0
M  V30 13022 H 1243.22 -4.6567 -1.35202 0
M  V30 13023 N 1244.56 0.579466 -1.4656 0
M  V30 13024 C 1245.81 1.33379 -1.51304 0
M  V30 13025 C 1246.12 1.94855 -0.170507 0
M  V30 13026 O 1247.33 2.71331 -0.0957704 0
M  V30 13027 C 1245.78 2.41748 -2.66619 0
M  V30 13028 C 1245.39 1.8656 -4.07307 0
M  V30 13029 C 1247.14 3.18502 -2.80636 0
M  V30 13030 C 1245.04 2.92578 -5.13957 0
M  V30 13031 H 1243.97 0.501422 -0.56311 0
M  V30 13032 H 1246.62 0.618025 -1.72779 0
M  V30 13033 H 1245.01 3.16138 -2.3848 0
M  V30 13034 H 1246.18 1.18692 -4.45252 0
M  V30 13035 H 1244.5 1.22464 -3.97984 0
M  V30 13036 H 1247.09 3.9763 -3.57483 0
M  V30 13037 H 1247.44 3.71295 -1.8827 0
M  V30 13038 H 1247.97 2.51219 -3.08437 0
M  V30 13039 H 1244.71 2.44668 -6.08126 0
M  V30 13040 H 1244.23 3.58926 -4.80554 0
M  V30 13041 H 1245.91 3.56471 -5.39942 0
M  V30 13042 N 1246.04 1.3432 0.824371 0
M  V30 13043 C 1246.97 1.21619 1.94271 0
M  V30 13044 C 1247.98 0.143628 1.62165 0
M  V30 13045 O 1249.17 0.395353 1.74067 0
M  V30 13046 C 1246.27 0.846128 3.28167 0
M  V30 13047 C 1245.45 2.01337 3.88307 0
M  V30 13048 C 1244.5 1.62194 5.00579 0
M  V30 13049 O 1243.53 2.33831 5.18953 0
M  V30 13050 N 1244.73 0.535262 5.78027 0
M  V30 13051 H 1247.5 2.17963 2.05699 0
M  V30 13052 H 1245.06 1.27256 1.00088 0
M  V30 13053 H 1247.05 0.566086 4.00721 0
M  V30 13054 H 1245.62 -0.0270764 3.12588 0
M  V30 13055 H 1244.84 2.45823 3.08164 0
M  V30 13056 H 1246.13 2.79404 4.25219 0
M  V30 13057 H 1245.53 -0.0603126 5.65668 0
M  V30 13058 H 1244.08 0.314946 6.51039 0
M  V30 13059 N 1247.52 -1.0444 1.18026 0
M  V30 13060 C 1248.74 -1.81772 0.998684 0
M  V30 13061 C 1249.17 -1.82682 -0.448225 0
M  V30 13062 O 1248.52 -1.24136 -1.32136 0
M  V30 13063 C 1248.57 -3.2542 1.55352 0
M  V30 13064 O 1247.68 -4.05103 0.772351 0
M  V30 13065 H 1247.02 -0.561731 0.354054 0
M  V30 13066 H 1249.55 -1.31557 1.56697 0
M  V30 13067 H 1249.56 -3.76206 1.57903 0
M  V30 13068 H 1248.23 -3.24073 2.60672 0
M  V30 13069 H 1246.81 -3.63798 0.818852 0
M  V30 13070 N 1248.99 -0.981699 -1.2329 0
M  V30 13071 C 1250.23 -0.659348 -1.93473 0
M  V30 13072 C 1250.6 0.792616 -1.74876 0
M  V30 13073 O 1251.8 1.22586 -2.3922 0
M  V30 13074 C 1250.07 -1.04065 -3.41914 0
M  V30 13075 S 1251.63 -0.834964 -4.30783 0
M  V30 13076 H 1248.45 -0.241428 -0.668755 0
M  V30 13077 H 1251.05 -1.26161 -1.49344 0
M  V30 13078 H 1249.75 -2.09398 -3.5296 0
M  V30 13079 H 1249.28 -0.429721 -3.91046 0
M  V30 13080 H 1251.3 0.280447 -4.95407 0
M  V30 13081 N 1250.47 1.3842 -0.753509 0
M  V30 13082 C 1251.72 1.99723 -0.309021 0
M  V30 13083 C 1252.04 1.60111 1.11308 0
M  V30 13084 O 1251.31 0.85792 1.76115 0
M  V30 13085 H 1249.89 0.738667 -0.111266 0
M  V30 13086 H 1252.55 1.69186 -0.967586 0
M  V30 13087 H 1251.65 3.09874 -0.372095 0
M  V30 13088 N 1251.95 0.502579 1.49372 0
M  V30 13089 C 1252.88 -0.264307 2.31999 0
M  V30 13090 C 1253.86 -0.96107 1.40348 0
M  V30 13091 O 1255.05 -0.952167 1.69255 0
M  V30 13092 C 1252.18 -1.32822 3.20898 0
M  V30 13093 C 1251.13 -0.751236 4.21355 0
M  V30 13094 C 1250.46 -1.91578 4.99201 0
M  V30 13095 C 1251.76 0.258764 5.21659 0
M  V30 13096 H 1253.45 0.425391 2.96363 0
M  V30 13097 H 1251 0.206022 1.42519 0
M  V30 13098 H 1252.95 -1.87245 3.77515 0
M  V30 13099 H 1251.67 -2.04712 2.54481 0
M  V30 13100 H 1250.33 -0.228743 3.65886 0
M  V30 13101 H 1249.98 -2.62241 4.2923 0
M  V30 13102 H 1249.68 -1.53578 5.67175 0
M  V30 13103 H 1251.2 -2.46432 5.58663 0
M  V30 13104 H 1252.62 -0.197385 5.7296 0
M  V30 13105 H 1251.02 0.554681 5.97531 0
M  V30 13106 H 1252.09 1.1741 4.70471 0
M  V30 13107 N 1253.43 -1.55816 0.23648 0
M  V30 13108 C 1254.68 -1.98294 -0.390373 0
M  V30 13109 C 1255 -1.12573 -1.59224 0
M  V30 13110 O 1254.27 -0.206128 -1.94813 0
M  V30 13111 H 1252.85 -0.732349 -0.14722 0
M  V30 13112 H 1255.51 -1.92037 0.332848 0
M  V30 13113 H 1254.61 -3.03996 -0.706595 0
M  V30 13114 N 1254.91 0.036755 -1.57557 0
M  V30 13115 C 1256.15 0.727665 -1.88546 0
M  V30 13116 C 1256.48 1.76304 -0.833179 0
M  V30 13117 O 1255.75 1.9544 0.13414 0
M  V30 13118 H 1254.33 0.271744 -0.695819 0
M  V30 13119 H 1256.99 0.00452915 -1.94899 0
M  V30 13120 H 1256.08 1.22205 -2.8718 0
M  V30 13121 N 1256.39 1.54543 0.308881 0
M  V30 13122 C 1257.32 1.79818 1.40502 0
M  V30 13123 C 1258.3 0.648927 1.4909 0
M  V30 13124 O 1259.48 0.888009 1.66273 0
M  V30 13125 C 1256.61 1.92787 2.7848 0
M  V30 13126 C 1255.65 3.15167 2.87353 0
M  V30 13127 S 1256.49 4.73427 2.50255 0
M  V30 13128 C 1257.64 4.89321 3.90276 0
M  V30 13129 H 1257.88 2.7251 1.18852 0
M  V30 13130 H 1255.41 1.45854 0.506551 0
M  V30 13131 H 1257.37 2.00944 3.57955 0
M  V30 13132 H 1256.03 1.01047 2.97403 0
M  V30 13133 H 1255.22 3.2102 3.88538 0
M  V30 13134 H 1254.82 3.05416 2.15864 0
M  V30 13135 H 1257.11 4.7286 4.8519 0
M  V30 13136 H 1258.06 5.91418 3.89398 0
M  V30 13137 H 1258.47 4.17524 3.79913 0
M  V30 13138 N 1257.86 -0.571685 1.46866 0
M  V30 13139 C 1258.81 -1.67992 1.58263 0
M  V30 13140 C 1259.78 -1.60535 0.426345 0
M  V30 13141 O 1260.97 -1.79584 0.644534 0
M  V30 13142 C 1258.11 -3.06327 1.58927 0
M  V30 13143 C 1257.22 -3.24328 2.85369 0
M  V30 13144 C 1256.35 -4.52976 2.77464 0
M  V30 13145 C 1255.39 -4.64359 3.98795 0
M  V30 13146 N 1254.53 -5.84345 3.89211 0
M  V30 13147 H 1259.37 -1.57589 2.52922 0
M  V30 13148 H 1256.91 -0.767883 1.25467 0
M  V30 13149 H 1258.86 -3.86411 1.57296 0
M  V30 13150 H 1257.49 -3.15601 0.677912 0
M  V30 13151 H 1256.55 -2.37774 2.96931 0
M  V30 13152 H 1257.86 -3.28605 3.7526 0
M  V30 13153 H 1257.01 -5.41303 2.74001 0
M  V30 13154 H 1255.75 -4.51155 1.85231 0
M  V30 13155 H 1254.76 -3.74448 4.02578 0
M  V30 13156 H 1255.98 -4.6795 4.92137 0
M  V30 13157 H 1253.93 -5.835 2.99772 0
M  V30 13158 H 1253.84 -5.89938 4.72768 0
M  V30 13159 H 1255.11 -6.75072 3.89741 0
M  V30 13160 N 1259.34 -1.34755 -0.817236 0
M  V30 13161 C 1260.29 -1.23351 -1.91751 0
M  V30 13162 C 1261.28 -0.131215 -1.60364 0
M  V30 13163 O 1262.47 -0.361425 -1.73271 0
M  V30 13164 C 1259.6 -0.996932 -3.28506 0
M  V30 13165 C 1258.68 -2.14265 -3.65993 0
M  V30 13166 N 1259.07 -3.39424 -3.75 0
M  V30 13167 C 1257.37 -2.05416 -3.95879 0
M  V30 13168 C 1258.07 -4.14701 -4.07919 0
M  V30 13169 N 1257.05 -3.43349 -4.21441 0
M  V30 13170 H 1260.85 -2.18191 -1.96901 0
M  V30 13171 H 1258.36 -1.27075 -1.01122 0
M  V30 13172 H 1260.36 -0.89613 -4.07155 0
M  V30 13173 H 1259.02 -0.0572789 -3.24649 0
M  V30 13174 H 1260.03 -3.73907 -3.58349 0
M  V30 13175 H 1256.71 -1.19242 -4.0011 0
M  V30 13176 H 1258.1 -5.22808 -4.22044 0
M  V30 13177 N 1260.82 1.03812 -1.18578 0
M  V30 13178 C 1261.77 2.13994 -0.911563 0
M  V30 13179 C 1262.76 1.68907 0.129131 0
M  V30 13180 O 1263.97 1.7999 -0.0192557 0
M  V30 13181 H 1260.34 0.698996 -0.277324 0
M  V30 13182 H 1262.31 2.34318 -1.84763 0
M  V30 13183 C 1261.06 3.44689 -0.456591 0
M  V30 13184 H 1260.39 3.79793 -1.2489 0
M  V30 13185 H 1261.83 4.22911 -0.303738 0
M  V30 13186 C 1260.28 3.26568 0.827961 0
M  V30 13187 O 1260.81 3.54376 1.89158 0
M  V30 13188 N 1259.02 2.79893 0.781567 0
M  V30 13189 H 1258.57 2.57462 -0.0842145 0
M  V30 13190 H 1258.53 2.68148 1.64146 0
M  V30 13191 N 1262.3 0.988223 1.22768 0
M  V30 13192 C 1263.53 0.679743 1.95415 0
M  V30 13193 C 1263.94 -0.754731 1.73059 0
M  V30 13194 O 1263.3 -1.50876 1.02678 0
M  V30 13195 C 1263.35 0.970344 3.48234 0
M  V30 13196 O 1263.07 2.34845 3.69837 0
M  V30 13197 C 1264.57 0.67891 4.3807 0
M  V30 13198 H 1261.79 0.251847 0.621944 0
M  V30 13199 H 1264.33 1.32173 1.56047 0
M  V30 13200 H 1262.49 0.374241 3.85588 0
M  V30 13201 H 1262.9 2.44412 4.64072 0
M  V30 13202 H 1264.38 0.932549 5.44066 0
M  V30 13203 H 1264.85 -0.387073 4.37491 0
M  V30 13204 H 1265.46 1.25585 4.06335 0
M  V30 13205 N 1263.78 -1.38018 0.760839 0
M  V30 13206 C 1265.02 -2.00248 0.320716 0
M  V30 13207 C 1265.35 -1.60259 -1.09684 0
M  V30 13208 O 1264.63 -0.843567 -1.75255 0
M  V30 13209 C 1264.91 -3.57254 0.451849 0
M  V30 13210 C 1264.77 -4.07185 1.91103 0
M  V30 13211 C 1266.08 -4.39843 -0.150439 0
M  V30 13212 H 1263.2 -0.727491 0.118007 0
M  V30 13213 H 1265.85 -1.63855 0.961842 0
M  V30 13214 H 1264 -3.88386 -0.0939672 0
M  V30 13215 H 1265.67 -3.86665 2.51571 0
M  V30 13216 H 1263.91 -3.59782 2.42362 0
M  V30 13217 H 1264.58 -5.16262 1.9539 0
M  V30 13218 H 1267.06 -4.14905 0.315145 0
M  V30 13219 H 1265.93 -5.48893 -0.0284853 0
M  V30 13220 H 1266.19 -4.24367 -1.23956 0
M  V30 13221 N 1265.25 -0.510493 -1.49103 0
M  V30 13222 C 1266.5 0.030689 -2.02777 0
M  V30 13223 C 1266.83 1.35765 -1.38858 0
M  V30 13224 O 1266.11 1.87209 -0.527528 0
M  V30 13225 C 1266.39 0.173261 -3.59683 0
M  V30 13226 C 1266.24 -1.17749 -4.34114 0
M  V30 13227 C 1267.56 0.909395 -4.30602 0
M  V30 13228 H 1264.68 0.0096789 -0.736936 0
M  V30 13229 H 1267.32 -0.663746 -1.78029 0
M  V30 13230 H 1265.47 0.764721 -3.80899 0
M  V30 13231 H 1267.15 -1.80856 -4.24369 0
M  V30 13232 H 1265.39 -1.76438 -3.96298 0
M  V30 13233 H 1266.06 -1.03094 -5.42287 0
M  V30 13234 H 1268.54 0.407677 -4.14098 0
M  V30 13235 H 1267.41 0.978012 -5.40117 0
M  V30 13236 H 1267.67 1.9553 -3.96511 0
M  V30 13237 N 1266.73 1.55688 -0.24474 0
M  V30 13238 C 1267.66 2.17317 0.696311 0
M  V30 13239 C 1268.64 1.12456 1.17441 0
M  V30 13240 O 1269.83 1.40832 1.25294 0
M  V30 13241 C 1266.95 2.77211 1.94606 0
M  V30 13242 C 1266 3.95107 1.60602 0
M  V30 13243 S 1266.83 5.30765 0.710525 0
M  V30 13244 C 1267.99 5.94111 1.96933 0
M  V30 13245 H 1268.22 2.96799 0.172566 0
M  V30 13246 H 1265.75 1.54372 -0.0292155 0
M  V30 13247 H 1267.71 3.12355 2.66354 0
M  V30 13248 H 1266.37 1.9768 2.44093 0
M  V30 13249 H 1265.57 4.35598 2.53517 0
M  V30 13250 H 1265.17 3.61229 0.968986 0
M  V30 13251 H 1267.46 6.11496 2.91682 0
M  V30 13252 H 1268.4 6.89602 1.60794 0
M  V30 13253 H 1268.81 5.23161 2.12043 0
M  V30 13254 N 1268.21 -0.0283989 1.57574 0
M  V30 13255 C 1269.46 -0.717656 1.88929 0
M  V30 13256 C 1269.78 -1.7586 0.842517 0
M  V30 13257 O 1269.05 -1.95509 -0.123774 0
M  V30 13258 H 1267.63 -0.268051 0.69725 0
M  V30 13259 H 1270.29 0.00580691 1.94899 0
M  V30 13260 H 1269.39 -1.2068 2.87824 0
M  V30 13261 N 1269.69 -1.54705 -0.300681 0
M  V30 13262 C 1270.93 -1.75189 -1.03345 0
M  V30 13263 C 1271.29 -0.531398 -1.84916 0
M  V30 13264 O 1270.58 0.476194 -1.85588 0
M  V30 13265 C 1270.78 -2.98173 -1.97047 0
M  V30 13266 C 1270.6 -4.32067 -1.24694 0
M  V30 13267 C 1269.37 -4.95825 -0.973967 0
M  V30 13268 C 1271.57 -5.1016 -0.651224 0
M  V30 13269 N 1269.55 -6.13503 -0.220737 0
M  V30 13270 C 1270.93 -6.19992 -0.0307781 0
M  V30 13271 C 1272.98 -4.94782 -0.556306 0
M  V30 13272 C 1271.68 -7.16122 0.675403 0
M  V30 13273 C 1273.71 -5.91243 0.136221 0
M  V30 13274 C 1273.07 -7.00444 0.745517 0
M  V30 13275 H 1269.17 -0.693643 -0.361087 0
M  V30 13276 H 1271.75 -1.92183 -0.312046 0
M  V30 13277 H 1269.93 -2.82604 -2.66439 0
M  V30 13278 H 1271.66 -3.07182 -2.63479 0
M  V30 13279 H 1268.41 -4.56193 -1.2722 0
M  V30 13280 H 1268.84 -6.7685 0.142402 0
M  V30 13281 H 1273.48 -4.10483 -1.01307 0
M  V30 13282 H 1271.2 -7.99962 1.14394 0
M  V30 13283 H 1274.78 -5.81422 0.209611 0
M  V30 13284 H 1273.66 -7.73801 1.27287 0
M  V30 13285 N 1271.17 0.563888 -1.47167 0
M  V30 13286 C 1272.58 1.14603 -1.47388 0
M  V30 13287 C 1272.93 1.94907 -0.224916 0
M  V30 13288 O 1272.05 2.05745 0.670672 0
M  V30 13289 C 1272.65 2.08501 -2.67044 0
M  V30 13290 C 1271.21 2.62 -2.70246 0
M  V30 13291 C 1270.35 1.38244 -2.40383 0
M  V30 13292 H 1273.31 0.350833 -1.54774 0
M  V30 13293 H 1273.33 2.92272 -2.43634 0
M  V30 13294 H 1272.84 1.50027 -3.57929 0
M  V30 13295 H 1270.94 3.24292 -1.83482 0
M  V30 13296 H 1271.05 3.0345 -3.70749 0
M  V30 13297 H 1269.42 1.68692 -1.90827 0
M  V30 13298 H 1270.2 0.815726 -3.33468 0
M  V30 13299 N 1272.64 1.35187 0.810078 0
M  V30 13300 C 1273.59 1.27848 1.94313 0
M  V30 13301 C 1274.59 0.174081 1.68503 0
M  V30 13302 O 1275.79 0.339848 1.76763 0
M  V30 13303 H 1272.17 0.397504 0.638353 0
M  V30 13304 H 1274.14 2.23579 1.97623 0
M  V30 13305 C 1272.89 1.06382 3.31026 0
M  V30 13306 H 1272.21 1.90601 3.51441 0
M  V30 13307 H 1273.65 1.05287 4.1072 0
M  V30 13308 C 1272.11 -0.232462 3.36097 0
M  V30 13309 O 1272.64 -1.22946 3.82423 0
M  V30 13310 N 1270.85 -0.270028 2.89343 0
M  V30 13311 H 1270.39 0.541891 2.51836 0
M  V30 13312 H 1270.35 -1.13708 2.93117 0
M  V30 13313 N 1274.12 -1.03182 1.19127 0
M  V30 13314 C 1275.37 -1.76184 0.990134 0
M  V30 13315 C 1275.69 -1.88986 -0.480546 0
M  V30 13316 O 1274.96 -1.4213 -1.34817 0
M  V30 13317 H 1273.54 -0.652668 0.363364 0
M  V30 13318 H 1276.2 -1.24481 1.49968 0
M  V30 13319 H 1275.3 -2.77119 1.43568 0
M  V30 13320 N 1275.6 -0.99472 -1.22242 0
M  V30 13321 C 1276.85 -0.682256 -1.91616 0
M  V30 13322 C 1277.2 0.777397 -1.75995 0
M  V30 13323 O 1276.49 1.55509 -1.11926 0
M  V30 13324 C 1276.69 -1.02561 -3.42368 0
M  V30 13325 C 1276.52 -2.5171 -3.72656 0
M  V30 13326 C 1275.29 -3.18144 -3.92571 0
M  V30 13327 C 1277.49 -3.49835 -3.76988 0
M  V30 13328 N 1275.47 -4.5675 -4.10186 0
M  V30 13329 C 1276.84 -4.73907 -3.99765 0
M  V30 13330 C 1278.89 -3.44116 -3.59845 0
M  V30 13331 C 1277.6 -5.92957 -4.07179 0
M  V30 13332 C 1279.62 -4.62545 -3.68519 0
M  V30 13333 C 1278.98 -5.85417 -3.91748 0
M  V30 13334 H 1275.08 -0.300961 -0.721766 0
M  V30 13335 H 1277.67 -1.2751 -1.47137 0
M  V30 13336 H 1275.84 -0.461327 -3.85651 0
M  V30 13337 H 1277.57 -0.66895 -3.99133 0
M  V30 13338 H 1274.33 -2.68608 -3.9006 0
M  V30 13339 H 1274.75 -5.28649 -4.22917 0
M  V30 13340 H 1279.39 -2.50134 -3.40871 0
M  V30 13341 H 1277.11 -6.87341 -4.24956 0
M  V30 13342 H 1280.7 -4.59711 -3.56591 0
M  V30 13343 H 1279.58 -6.75525 -3.98291 0
M  V30 13344 N 1277.08 1.37613 -0.768148 0
M  V30 13345 C 1278.49 1.53202 -0.44737 0
M  V30 13346 C 1278.69 1.72736 1.03752 0
M  V30 13347 O 1277.75 1.74667 1.8234 0
M  V30 13348 C 1279.06 2.7306 -1.25931 0
M  V30 13349 C 1280.61 2.8692 -1.25084 0
M  V30 13350 C 1281.09 4.09757 -2.04605 0
M  V30 13351 N 1282.58 4.16862 -2.0194 0
M  V30 13352 C 1283.31 5.10936 -2.60254 0
M  V30 13353 N 1282.81 6.1059 -3.27341 0
M  V30 13354 N 1284.6 5.03393 -2.50104 0
M  V30 13355 H 1276.75 1.23184 -1.7303 0
M  V30 13356 H 1279.02 0.599541 -0.73434 0
M  V30 13357 H 1278.72 2.65078 -2.31141 0
M  V30 13358 H 1278.6 3.66646 -0.886036 0
M  V30 13359 H 1280.98 2.94375 -0.206736 0
M  V30 13360 H 1281.06 1.94303 -1.66373 0
M  V30 13361 H 1280.71 4.03063 -3.09035 0
M  V30 13362 H 1280.64 5.01481 -1.60701 0
M  V30 13363 H 1283.13 3.455 -1.53096 0
M  V30 13364 H 1283.44 6.78893 -3.6922 0
M  V30 13365 H 1281.79 6.10879 -3.31439 0
M  V30 13366 H 1284.98 4.24483 -1.9731 0
M  V30 13367 H 1285.15 5.76524 -2.95844 0
M  V30 13368 N 1278.56 0.518393 1.4883 0
M  V30 13369 C 1279.49 -0.287642 2.27388 0
M  V30 13370 C 1280.5 -0.914974 1.34655 0
M  V30 13371 O 1281.69 -0.795373 1.598 0
M  V30 13372 C 1278.79 -1.42149 3.07647 0
M  V30 13373 C 1277.96 -0.898238 4.28078 0
M  V30 13374 C 1277.02 -1.91179 4.90242 0
M  V30 13375 O 1276.05 -1.47337 5.498 0
M  V30 13376 N 1277.25 -3.24331 4.81445 0
M  V30 13377 H 1280.02 0.386047 2.97203 0
M  V30 13378 H 1277.58 0.352002 1.58027 0
M  V30 13379 H 1279.57 -2.09745 3.46106 0
M  V30 13380 H 1278.14 -1.99903 2.40328 0
M  V30 13381 H 1277.36 -0.0466326 3.94172 0
M  V30 13382 H 1278.65 -0.527338 5.0606 0
M  V30 13383 H 1278.04 -3.62627 4.34187 0
M  V30 13384 H 1276.6 -3.87593 5.24037 0
M  V30 13385 N 1280.03 -1.55556 0.252993 0
M  V30 13386 C 1281.26 -2.03945 -0.376965 0
M  V30 13387 C 1281.68 -1.13089 -1.50308 0
M  V30 13388 O 1281.04 -0.125039 -1.80868 0
M  V30 13389 C 1281.09 -3.50284 -0.856363 0
M  V30 13390 O 1280.19 -3.62551 -1.96546 0
M  V30 13391 H 1279.54 -0.659002 -0.081317 0
M  V30 13392 H 1282.07 -2.01024 0.380831 0
M  V30 13393 H 1282.08 -3.91222 -1.15798 0
M  V30 13394 H 1280.75 -4.15887 -0.0323302 0
M  V30 13395 H 1279.33 -3.33511 -1.66808 0
M  V30 13396 N 1281.51 0.0200419 -1.57587 0
M  V30 13397 C 1282.42 1.0346 -2.10555 0
M  V30 13398 C 1283.44 1.39035 -1.0462 0
M  V30 13399 O 1284.61 1.48172 -1.36407 0
M  V30 13400 C 1281.68 2.31389 -2.58186 0
M  V30 13401 C 1280.74 2.02311 -3.7864 0
M  V30 13402 C 1279.97 3.24141 -4.23991 0
M  V30 13403 O 1280.2 4.35132 -3.68803 0
M  V30 13404 O 1279.13 3.09312 -5.16342 0
M  V30 13405 H 1282.96 0.614419 -2.9742 0
M  V30 13406 H 1280.54 0.237604 -1.47498 0
M  V30 13407 H 1282.42 3.06582 -2.89112 0
M  V30 13408 H 1281.1 2.72684 -1.74428 0
M  V30 13409 H 1280.01 1.24658 -3.5272 0
M  V30 13410 H 1281.34 1.65866 -4.6341 0
M  V30 13411 N 1282.99 1.54862 0.292472 0
M  V30 13412 C 1284.27 1.65237 1.04671 0
M  V30 13413 C 1284.65 0.506168 2.04942 0
M  V30 13414 O 1284 -0.496123 2.23049 0
M  V30 13415 C 1284.21 3.03618 1.72095 0
M  V30 13416 C 1285.55 3.6072 2.23979 0
M  V30 13417 O 1286.58 3.06126 1.82114 0
M  V30 13418 O 1285.44 4.56328 3.0071 0
M  V30 13419 H 1282.53 0.670347 0.484319 0
M  V30 13420 H 1285.08 1.67206 0.28988 0
M  V30 13421 H 1283.85 3.78482 0.993324 0
M  V30 13422 H 1283.47 3.05464 2.54514 0
M  V30 13423 N 1284.47 -0.556076 1.47464 0
M  V30 13424 C 1285.43 -1.64515 1.59586 0
M  V30 13425 C 1286.43 -1.53751 0.470881 0
M  V30 13426 O 1287.62 -1.57889 0.735979 0
M  V30 13427 C 1284.75 -3.0406 1.54143 0
M  V30 13428 H 1285.95 -1.55116 2.56669 0
M  V30 13429 H 1283.5 -0.776087 1.35671 0
M  V30 13430 H 1284.23 -3.18991 0.584395 0
M  V30 13431 H 1284.02 -3.13282 2.3579 0
M  V30 13432 H 1285.51 -3.8329 1.65766 0
M  V30 13433 N 1285.95 -1.35615 -0.802897 0
M  V30 13434 C 1287.36 -1.15733 -1.099 0
M  V30 13435 C 1287.56 0.0277094 -2.01481 0
M  V30 13436 O 1286.62 0.697196 -2.42684 0
M  V30 13437 C 1287.93 -2.46201 -1.72643 0
M  V30 13438 C 1289.48 -2.52442 -1.85046 0
M  V30 13439 C 1289.96 -3.82962 -2.51205 0
M  V30 13440 N 1291.45 -3.84234 -2.58686 0
M  V30 13441 C 1292.18 -4.81956 -3.10654 0
M  V30 13442 N 1291.68 -5.90068 -3.63032 0
M  V30 13443 N 1293.47 -4.69389 -3.09241 0
M  V30 13444 H 1285.62 -2.11511 -0.194177 0
M  V30 13445 H 1287.88 -0.936259 -0.148739 0
M  V30 13446 H 1287.59 -3.33114 -1.12817 0
M  V30 13447 H 1287.46 -2.6102 -2.72302 0
M  V30 13448 H 1289.85 -1.65955 -2.44014 0
M  V30 13449 H 1289.93 -2.41534 -0.842316 0
M  V30 13450 H 1289.58 -4.69848 -1.92885 0
M  V30 13451 H 1289.51 -3.9116 -3.52564 0
M  V30 13452 H 1292 -3.0612 -2.21582 0
M  V30 13453 H 1292.31 -6.60623 -4.00996 0
M  V30 13454 H 1290.66 -5.93755 -3.6122 0
M  V30 13455 H 1293.85 -3.84066 -2.67602 0
M  V30 13456 H 1294.02 -5.4571 -3.49435 0
M  V30 13457 N 1287.43 1.02549 -1.19673 0
M  V30 13458 C 1288.39 2.09064 -0.939407 0
M  V30 13459 C 1289.39 1.60593 0.0814837 0
M  V30 13460 O 1290.58 1.73521 -0.153626 0
M  V30 13461 C 1287.71 3.38395 -0.412513 0
M  V30 13462 H 1288.9 2.33325 -1.88413 0
M  V30 13463 H 1286.46 1.19211 -1.01086 0
M  V30 13464 H 1287.19 3.19805 0.538094 0
M  V30 13465 H 1286.98 3.74898 -1.14863 0
M  V30 13466 H 1288.47 4.16841 -0.251678 0
M  V30 13467 N 1288.9 1.00119 1.21713 0
M  V30 13468 C 1290.15 0.692409 1.91252 0
M  V30 13469 C 1290.5 -0.768052 1.76405 0
M  V30 13470 O 1289.8 -1.54913 1.1275 0
M  V30 13471 C 1289.99 1.04376 3.41819 0
M  V30 13472 C 1289.82 2.53682 3.71316 0
M  V30 13473 C 1288.59 3.20222 3.90879 0
M  V30 13474 C 1290.79 3.51829 3.75127 0
M  V30 13475 N 1288.77 4.58919 4.07758 0
M  V30 13476 C 1290.14 4.7602 3.97246 0
M  V30 13477 C 1292.2 3.46019 3.58015 0
M  V30 13478 C 1290.9 5.95108 4.04029 0
M  V30 13479 C 1292.93 4.64492 3.66061 0
M  V30 13480 C 1292.29 5.87486 3.88638 0
M  V30 13481 H 1288.39 0.304785 0.72016 0
M  V30 13482 H 1290.97 1.28289 1.46459 0
M  V30 13483 H 1289.14 0.481773 3.854 0
M  V30 13484 H 1290.87 0.690108 3.98773 0
M  V30 13485 H 1287.63 2.70673 3.8863 0
M  V30 13486 H 1288.05 5.30884 4.20108 0
M  V30 13487 H 1292.69 2.51938 3.3954 0
M  V30 13488 H 1290.41 6.89585 4.21305 0
M  V30 13489 H 1294 4.61595 3.54148 0
M  V30 13490 H 1292.88 6.77628 3.94703 0
M  V30 13491 N 1290.38 -1.37203 0.775435 0
M  V30 13492 C 1291.33 -2.30228 0.162388 0
M  V30 13493 C 1292.3 -1.51284 -0.685747 0
M  V30 13494 O 1293.48 -1.7984 -0.637342 0
M  V30 13495 C 1290.62 -3.37762 -0.707858 0
M  V30 13496 C 1289.74 -4.31714 0.157287 0
M  V30 13497 C 1288.87 -5.26325 -0.718012 0
M  V30 13498 C 1287.91 -6.11918 0.149442 0
M  V30 13499 N 1287.05 -6.9876 -0.684043 0
M  V30 13500 H 1291.89 -2.82073 0.961184 0
M  V30 13501 H 1289.42 -1.38854 0.485587 0
M  V30 13502 H 1291.38 -3.98741 -1.22726 0
M  V30 13503 H 1290.01 -2.87273 -1.47222 0
M  V30 13504 H 1289.06 -3.7201 0.794533 0
M  V30 13505 H 1290.38 -4.91909 0.826262 0
M  V30 13506 H 1289.53 -5.92526 -1.30376 0
M  V30 13507 H 1288.27 -4.6655 -1.42066 0
M  V30 13508 H 1287.27 -5.44692 0.747697 0
M  V30 13509 H 1288.5 -6.73766 0.849476 0
M  V30 13510 H 1286.45 -6.41508 -1.37124 0
M  V30 13511 H 1286.36 -7.55965 -0.0724464 0
M  V30 13512 H 1287.63 -7.69346 -1.25407 0
M  V30 13513 N 1291.86 -0.526279 -1.48553 0
M  V30 13514 C 1293.09 0.0052277 -2.06899 0
M  V30 13515 C 1293.5 1.2849 -1.38332 0
M  V30 13516 O 1292.86 1.76354 -0.469648 0
M  V30 13517 C 1292.91 0.236709 -3.60724 0
M  V30 13518 O 1292.63 -0.992256 -4.26715 0
M  V30 13519 C 1294.13 0.809014 -4.35855 0
M  V30 13520 H 1291.35 -0.0318426 -0.670244 0
M  V30 13521 H 1293.9 -0.730865 -1.90994 0
M  V30 13522 H 1292.05 0.922842 -3.76248 0
M  V30 13523 H 1292.47 -0.770697 -5.18807 0
M  V30 13524 H 1293.94 0.920428 -5.44272 0
M  V30 13525 H 1294.42 1.81302 -4.00033 0
M  V30 13526 H 1295.02 0.159564 -4.25001 0
M  V30 13527 N 1293.34 1.5542 -0.261239 0
M  V30 13528 C 1294.58 1.99284 0.359487 0
M  V30 13529 C 1294.91 1.14954 1.56894 0
M  V30 13530 O 1294.17 0.203796 1.94636 0
M  V30 13531 C 1294.47 3.48354 0.799021 0
M  V30 13532 C 1294.13 4.49872 -0.30426 0
M  V30 13533 C 1292.79 4.77353 -0.607237 0
M  V30 13534 C 1295.15 5.10547 -1.04838 0
M  V30 13535 C 1292.47 5.62781 -1.65816 0
M  V30 13536 C 1294.83 5.97115 -2.08893 0
M  V30 13537 C 1293.49 6.22923 -2.3984 0
M  V30 13538 H 1292.76 0.72923 0.131546 0
M  V30 13539 H 1295.41 1.87851 -0.372058 0
M  V30 13540 H 1293.71 3.57192 1.61001 0
M  V30 13541 H 1295.41 3.7969 1.28981 0
M  V30 13542 H 1292 4.28561 -0.0579863 0
M  V30 13543 H 1296.18 4.89352 -0.827566 0
M  V30 13544 H 1291.44 5.81026 -1.90311 0
M  V30 13545 H 1295.61 6.43168 -2.67035 0
M  V30 13546 H 1293.24 6.88912 -3.2141 0
M  V30 13547 N 1294.82 -0.0116844 1.57596 0
M  V30 13548 C 1296.06 -0.698089 1.89234 0
M  V30 13549 C 1296.38 -1.75581 0.862016 0
M  V30 13550 O 1297.58 -2.49602 1.06822 0
M  V30 13551 C 1296.04 -1.29277 3.3588 0
M  V30 13552 C 1295.65 -0.27049 4.47183 0
M  V30 13553 C 1297.39 -1.95805 3.76644 0
M  V30 13554 C 1295.3 -0.874502 5.84899 0
M  V30 13555 H 1294.23 -0.264495 0.706087 0
M  V30 13556 H 1296.88 0.0469451 1.8344 0
M  V30 13557 H 1295.26 -2.08809 3.36474 0
M  V30 13558 H 1296.44 0.499381 4.58086 0
M  V30 13559 H 1294.75 0.293676 4.15363 0
M  V30 13560 H 1297.35 -2.41879 4.76863 0
M  V30 13561 H 1297.69 -2.78366 3.09545 0
M  V30 13562 H 1298.22 -1.23023 3.78299 0
M  V30 13563 H 1294.96 -0.0879263 6.55441 0
M  V30 13564 H 1294.48 -1.61381 5.77682 0
M  V30 13565 H 1296.16 -1.37665 6.32185 0
M  V30 13566 N 1296.29 -1.55015 -0.284256 0
M  V30 13567 C 1297.54 -1.74744 -1.01532 0
M  V30 13568 C 1297.86 -0.545334 -1.87219 0
M  V30 13569 O 1297.13 0.440046 -1.90894 0
M  V30 13570 H 1295.71 -0.644382 -0.377864 0
M  V30 13571 H 1298.37 -1.92399 -0.311199 0
M  V30 13572 H 1297.47 -2.64369 -1.65878 0
M  V30 13573 N 1297.77 0.548248 -1.47757 0
M  V30 13574 C 1299 1.3302 -1.58472 0
M  V30 13575 C 1299.41 1.87292 -0.238186 0
M  V30 13576 O 1298.77 1.65465 0.76991 0
M  V30 13577 C 1298.82 2.49386 -2.61704 0
M  V30 13578 O 1298.54 1.97355 -3.9113 0
M  V30 13579 C 1300.04 3.41471 -2.82688 0
M  V30 13580 H 1297.26 0.405172 -0.534861 0
M  V30 13581 H 1299.81 0.663251 -1.93446 0
M  V30 13582 H 1297.96 3.12001 -2.29639 0
M  V30 13583 H 1298.38 2.7339 -4.47614 0
M  V30 13584 H 1299.85 4.19516 -3.58762 0
M  V30 13585 H 1300.33 3.95573 -1.90837 0
M  V30 13586 H 1300.93 2.84664 -3.15985 0
M  V30 13587 N 1299.25 1.36039 0.795694 0
M  V30 13588 C 1300.5 1.30112 1.5556 0
M  V30 13589 C 1300.83 -0.121197 1.93821 0
M  V30 13590 O 1300.1 -1.07313 1.62216 0
M  V30 13591 C 1300.39 2.21792 2.8369 0
M  V30 13592 C 1300.24 3.72691 2.51836 0
M  V30 13593 C 1301.56 2.12365 3.85472 0
M  V30 13594 H 1298.68 0.473971 0.564376 0
M  V30 13595 H 1301.32 1.66536 0.91465 0
M  V30 13596 H 1299.47 1.9086 3.38386 0
M  V30 13597 H 1301.14 4.14115 2.0324 0
M  V30 13598 H 1299.38 3.92436 1.84869 0
M  V30 13599 H 1300.06 4.32242 3.43323 0
M  V30 13600 H 1302.53 2.3958 3.40207 0
M  V30 13601 H 1301.41 2.78695 4.72885 0
M  V30 13602 H 1301.67 1.10898 4.27965 0
M  V30 13603 N 1300.73 -1.01913 1.20215 0
M  V30 13604 C 1302.14 -1.27766 0.956459 0
M  V30 13605 C 1302.34 -1.98158 -0.365486 0
M  V30 13606 O 1301.4 -2.27539 -1.09463 0
M  V30 13607 C 1302.71 -2.11516 2.13732 0
M  V30 13608 C 1304.26 -2.24792 2.17802 0
M  V30 13609 C 1304.74 -3.11919 3.35367 0
M  V30 13610 N 1306.23 -3.19507 3.35364 0
M  V30 13611 C 1306.96 -3.8714 4.22978 0
M  V30 13612 N 1306.46 -4.5692 5.20765 0
M  V30 13613 N 1308.25 -3.83638 4.10827 0
M  V30 13614 H 1300.4 -0.546426 2.05251 0
M  V30 13615 H 1302.67 -0.303772 0.898012 0
M  V30 13616 H 1302.37 -1.67127 3.09453 0
M  V30 13617 H 1302.25 -3.12249 2.11614 0
M  V30 13618 H 1304.63 -2.68407 1.22645 0
M  V30 13619 H 1304.71 -1.23576 2.2397 0
M  V30 13620 H 1304.36 -2.6901 4.30809 0
M  V30 13621 H 1304.29 -4.13215 3.26436 0
M  V30 13622 H 1306.78 -2.69819 2.64587 0
M  V30 13623 H 1307.09 -5.06188 5.83947 0
M  V30 13624 H 1305.44 -4.55753 5.24704 0
M  V30 13625 H 1308.63 -3.28268 3.33703 0
M  V30 13626 H 1308.8 -4.36071 4.79318 0
M  V30 13627 N 1302.21 -1.00763 -1.2118 0
M  V30 13628 C 1303.45 -0.692851 -1.90598 0
M  V30 13629 C 1303.79 0.774698 -1.78079 0
M  V30 13630 O 1303.06 1.56186 -1.15914 0
M  V30 13631 C 1303.34 -1.11792 -3.42308 0
M  V30 13632 C 1303.2 -2.64511 -3.63805 0
M  V30 13633 C 1304.52 -0.682314 -4.34779 0
M  V30 13634 H 1301.63 -0.253175 -0.69215 0
M  V30 13635 H 1304.28 -1.25378 -1.4276 0
M  V30 13636 H 1302.43 -0.640665 -3.83181 0
M  V30 13637 H 1304.1 -3.20021 -3.32242 0
M  V30 13638 H 1302.34 -3.05903 -3.0758 0
M  V30 13639 H 1303.01 -2.89306 -4.70113 0
M  V30 13640 H 1305.49 -1.09247 -4.01503 0
M  V30 13641 H 1304.36 -1.00787 -5.39568 0
M  V30 13642 H 1304.63 0.416441 -4.40134 0
M  V30 13643 N 1303.68 1.3679 -0.7827 0
M  V30 13644 C 1304.91 2.03678 -0.363734 0
M  V30 13645 C 1305.33 1.59024 1.01768 0
M  V30 13646 O 1304.68 0.776541 1.65155 0
M  V30 13647 C 1304.74 3.59165 -0.410213 0
M  V30 13648 O 1304.46 4.02188 -1.73714 0
M  V30 13649 C 1305.96 4.43296 0.018972 0
M  V30 13650 H 1303.18 0.653828 -0.150829 0
M  V30 13651 H 1305.72 1.74903 -1.05968 0
M  V30 13652 H 1303.88 3.86673 0.237249 0
M  V30 13653 H 1304.29 4.96754 -1.68332 0
M  V30 13654 H 1305.76 5.51962 -0.0646943 0
M  V30 13655 H 1306.24 4.25948 1.07076 0
M  V30 13656 H 1306.85 4.21036 -0.600721 0
M  V30 13657 N 1305.16 0.53415 1.48272 0
M  V30 13658 C 1306.39 0.00574475 2.06899 0
M  V30 13659 C 1306.81 -1.27754 1.39012 0
M  V30 13660 O 1306.16 -1.76102 0.478993 0
M  V30 13661 C 1306.21 -0.217576 3.60845 0
M  V30 13662 O 1305.93 1.01487 4.26183 0
M  V30 13663 C 1307.44 -0.785888 4.36278 0
M  V30 13664 H 1304.66 0.0353967 0.670066 0
M  V30 13665 H 1307.2 0.740984 1.90603 0
M  V30 13666 H 1305.35 -0.902875 3.76732 0
M  V30 13667 H 1305.77 0.7982 5.18391 0
M  V30 13668 H 1307.24 -0.891551 5.44753 0
M  V30 13669 H 1307.72 -1.79178 4.00989 0
M  V30 13670 H 1308.33 -0.137022 4.25079 0
M  V30 13671 N 1306.64 -1.55279 0.269478 0
M  V30 13672 C 1307.6 -2.21008 -0.607299 0
M  V30 13673 C 1308.6 -1.18619 -1.08564 0
M  V30 13674 O 1309.79 -1.4356 -0.986721 0
M  V30 13675 C 1306.93 -2.87157 -1.83721 0
M  V30 13676 H 1308.12 -2.99881 -0.0334894 0
M  V30 13677 H 1305.67 -1.56287 0.0200573 0
M  V30 13678 H 1306.41 -2.12281 -2.45168 0
M  V30 13679 H 1306.19 -3.62183 -1.5022 0
M  V30 13680 H 1307.68 -3.37391 -2.46083 0
M  V30 13681 N 1308.12 0.00332656 -1.576 0
M  V30 13682 C 1309.08 0.980628 -2.07163 0
M  V30 13683 C 1310.08 1.27455 -0.980402 0
M  V30 13684 O 1311.27 1.22029 -1.24317 0
M  V30 13685 C 1308.4 2.30647 -2.51028 0
M  V30 13686 H 1309.6 0.551982 -2.94776 0
M  V30 13687 H 1307.15 0.250728 -1.54276 0
M  V30 13688 H 1307.88 2.78207 -1.66647 0
M  V30 13689 H 1307.67 2.10635 -3.30719 0
M  V30 13690 H 1309.16 3.00761 -2.89711 0
M  V30 13691 N 1309.6 1.55164 0.276031 0
M  V30 13692 C 1310.55 1.84223 1.34335 0
M  V30 13693 C 1311.53 0.700934 1.4483 0
M  V30 13694 O 1312.72 0.962204 1.48562 0
M  V30 13695 C 1309.85 2.11496 2.70415 0
M  V30 13696 C 1308.94 3.31877 2.64043 0
M  V30 13697 N 1309.33 4.51856 2.27289 0
M  V30 13698 C 1307.63 3.34406 2.95108 0
M  V30 13699 C 1308.33 5.33939 2.30833 0
M  V30 13700 N 1307.3 4.72271 2.69186 0
M  V30 13701 H 1311.11 2.74533 1.04922 0
M  V30 13702 H 1308.62 1.54999 0.484661 0
M  V30 13703 H 1310.62 2.3047 3.47404 0
M  V30 13704 H 1309.28 1.22468 3.00719 0
M  V30 13705 H 1310.29 4.78009 1.99318 0
M  V30 13706 H 1306.96 2.55561 3.30144 0
M  V30 13707 H 1308.35 6.39862 2.05004 0
M  V30 13708 N 1311.07 -0.540404 1.48045 0
M  V30 13709 C 1312 -1.65538 1.6468 0
M  V30 13710 C 1312.99 -1.62713 0.495847 0
M  V30 13711 O 1314.17 -1.80072 0.727172 0
M  V30 13712 C 1311.3 -3.0415 1.67661 0
M  V30 13713 C 1310.25 -3.2183 2.82152 0
M  V30 13714 C 1309.58 -4.61397 2.70216 0
M  V30 13715 C 1310.88 -3.05596 4.23567 0
M  V30 13716 H 1312.57 -1.51873 2.58021 0
M  V30 13717 H 1310.12 -0.729208 1.24171 0
M  V30 13718 H 1312.07 -3.82013 1.77887 0
M  V30 13719 H 1310.8 -3.18814 0.708907 0
M  V30 13720 H 1309.46 -2.4638 2.71463 0
M  V30 13721 H 1309.1 -4.72883 1.71437 0
M  V30 13722 H 1308.8 -4.74174 3.47035 0
M  V30 13723 H 1310.33 -5.41374 2.82395 0
M  V30 13724 H 1311.74 -3.73261 4.35143 0
M  V30 13725 H 1310.14 -3.29871 5.01303 0
M  V30 13726 H 1311.21 -2.0214 4.40758 0
M  V30 13727 N 1312.55 -1.36459 -0.788468 0
M  V30 13728 C 1313.52 -1.3071 -1.88275 0
M  V30 13729 C 1314.52 -0.214596 -1.59362 0
M  V30 13730 O 1315.71 -0.469437 -1.67756 0
M  V30 13731 C 1312.84 -1.02648 -3.25079 0
M  V30 13732 H 1314.03 -2.28029 -1.94788 0
M  V30 13733 H 1311.58 -1.21245 -0.986375 0
M  V30 13734 H 1312.32 -0.0578992 -3.24248 0
M  V30 13735 H 1312.1 -1.81708 -3.47454 0
M  V30 13736 H 1313.59 -1.01233 -4.05144 0
M  V30 13737 N 1314.03 1.01274 -1.20754 0
M  V30 13738 C 1314.96 2.11763 -0.983805 0
M  V30 13739 C 1315.94 1.69869 0.0885635 0
M  V30 13740 O 1317.13 1.94075 -0.0697239 0
M  V30 13741 C 1314.26 3.43087 -0.539287 0
M  V30 13742 C 1313.21 3.9874 -1.55534 0
M  V30 13743 C 1312.54 5.25877 -0.967322 0
M  V30 13744 C 1313.84 4.31688 -2.94012 0
M  V30 13745 H 1315.53 2.30737 -1.90789 0
M  V30 13746 H 1313.08 1.10884 -0.918734 0
M  V30 13747 H 1315.03 4.19773 -0.369979 0
M  V30 13748 H 1313.75 3.23883 0.420435 0
M  V30 13749 H 1312.41 3.24166 -1.71207 0
M  V30 13750 H 1312.06 5.03 0.000448307 0
M  V30 13751 H 1311.76 5.64077 -1.64594 0
M  V30 13752 H 1313.28 6.05215 -0.809167 0
M  V30 13753 H 1314.7 4.99246 -2.81827 0
M  V30 13754 H 1313.1 4.81011 -3.58815 0
M  V30 13755 H 1314.17 3.4029 -3.45442 0
M  V30 13756 N 1315.51 1.01404 1.20644 0
M  V30 13757 C 1316.44 0.602465 2.25594 0
M  V30 13758 C 1317.42 -0.381216 1.65773 0
M  V30 13759 O 1318.61 -0.267209 1.92353 0
M  V30 13760 C 1315.74 -0.0626245 3.47244 0
M  V30 13761 C 1314.69 0.841776 4.1964 0
M  V30 13762 C 1314.02 0.0426002 5.34683 0
M  V30 13763 C 1315.32 2.14864 4.76058 0
M  V30 13764 H 1317.01 1.47977 2.60275 0
M  V30 13765 H 1314.56 0.712966 1.25111 0
M  V30 13766 H 1316.51 -0.362095 4.19841 0
M  V30 13767 H 1315.23 -0.974627 3.11719 0
M  V30 13768 H 1313.89 1.12521 3.48905 0
M  V30 13769 H 1313.54 -0.870973 4.95402 0
M  V30 13770 H 1313.24 0.644866 5.84051 0
M  V30 13771 H 1314.76 -0.250476 6.10086 0
M  V30 13772 H 1316.18 1.9117 5.40488 0
M  V30 13773 H 1314.57 2.70153 5.35852 0
M  V30 13774 H 1315.64 2.81336 3.9494 0
M  V30 13775 N 1316.99 -1.36373 0.789944 0
M  V30 13776 C 1318.23 -1.99523 0.363119 0
M  V30 13777 C 1318.57 -1.6255 -1.0626 0
M  V30 13778 O 1317.84 -0.880551 -1.73426 0
M  V30 13779 C 1318.12 -3.56215 0.527526 0
M  V30 13780 C 1317.98 -4.0304 1.99697 0
M  V30 13781 C 1319.3 -4.40063 -0.0571079 0
M  V30 13782 H 1316.42 -0.724824 0.133412 0
M  V30 13783 H 1319.06 -1.61778 0.996381 0
M  V30 13784 H 1317.21 -3.88498 -0.0115636 0
M  V30 13785 H 1318.88 -3.81241 2.59717 0
M  V30 13786 H 1317.12 -3.54561 2.49939 0
M  V30 13787 H 1317.79 -5.12001 2.06297 0
M  V30 13788 H 1320.27 -4.14143 0.403082 0
M  V30 13789 H 1319.15 -5.4883 0.0879494 0
M  V30 13790 H 1319.41 -4.26901 -1.14926 0
M  V30 13791 N 1318.47 -0.542005 -1.47987 0
M  V30 13792 C 1319.43 0.203537 -2.28294 0
M  V30 13793 C 1320.43 0.856762 -1.36074 0
M  V30 13794 O 1321.62 0.71496 -1.58852 0
M  V30 13795 C 1318.75 1.29581 -3.15312 0
M  V30 13796 H 1319.94 -0.501701 -2.95674 0
M  V30 13797 H 1317.5 -0.298378 -1.53426 0
M  V30 13798 H 1318.23 2.03393 -2.5259 0
M  V30 13799 H 1318.02 0.832398 -3.83163 0
M  V30 13800 H 1319.51 1.81988 -3.75859 0
M  V30 13801 N 1319.94 1.55134 -0.277709 0
M  V30 13802 C 1320.89 2.2263 0.608637 0
M  V30 13803 C 1321.86 1.20067 1.14774 0
M  V30 13804 O 1323.05 1.48617 1.19657 0
M  V30 13805 C 1320.19 2.95308 1.78571 0
M  V30 13806 C 1319.3 4.12595 1.28021 0
M  V30 13807 C 1318.43 4.7291 2.41929 0
M  V30 13808 C 1317.47 5.82386 1.88395 0
M  V30 13809 N 1316.61 6.36754 2.95786 0
M  V30 13810 H 1321.45 2.97988 0.0264138 0
M  V30 13811 H 1318.99 1.471 0.00127068 0
M  V30 13812 H 1320.94 3.35662 2.47764 0
M  V30 13813 H 1319.57 2.22368 2.33992 0
M  V30 13814 H 1318.63 3.77343 0.481297 0
M  V30 13815 H 1319.94 4.91537 0.848128 0
M  V30 13816 H 1319.09 5.15997 3.1911 0
M  V30 13817 H 1317.83 3.93251 2.88453 0
M  V30 13818 H 1316.84 5.38746 1.09694 0
M  V30 13819 H 1318.06 6.63916 1.42803 0
M  V30 13820 H 1316.01 5.59987 3.41687 0
M  V30 13821 H 1315.92 7.10975 2.57002 0
M  V30 13822 H 1317.19 6.845 3.72935 0
M  V30 13823 N 1321.42 0.00503138 1.57599 0
M  V30 13824 C 1322.37 -1.00294 2.09866 0
M  V30 13825 C 1323.36 -1.35267 1.01977 0
M  V30 13826 O 1324.57 -1.33772 1.20437 0
M  V30 13827 H 1320.94 -0.341112 0.670184 0
M  V30 13828 H 1322.92 -0.536595 2.93536 0
M  V30 13829 C 1321.66 -2.28432 2.62133 0
M  V30 13830 H 1320.99 -2.02391 3.44787 0
M  V30 13831 H 1322.43 -2.97227 3.02378 0
M  V30 13832 C 1320.89 -2.99758 1.53774 0
M  V30 13833 O 1321.42 -3.90939 0.923563 0
M  V30 13834 N 1319.62 -2.61671 1.26398 0
M  V30 13835 H 1319.17 -1.87605 1.76528 0
M  V30 13836 H 1319.13 -3.09707 0.541168 0
M  V30 13837 N 1322.9 -1.55308 -0.267798 0
M  V30 13838 C 1324.15 -1.75364 -0.996515 0
M  V30 13839 C 1324.46 -0.565028 -1.87261 0
M  V30 13840 O 1325.67 -0.648119 -2.63651 0
M  V30 13841 C 1324.12 -3.10388 -1.82175 0
M  V30 13842 C 1323.73 -4.36832 -0.994062 0
M  V30 13843 C 1325.48 -3.39791 -2.54445 0
M  V30 13844 C 1323.38 -5.62893 -1.81398 0
M  V30 13845 H 1322.31 -0.653679 -0.375793 0
M  V30 13846 H 1324.96 -1.81762 -0.251975 0
M  V30 13847 H 1323.35 -2.98041 -2.60744 0
M  V30 13848 H 1324.52 -4.6011 -0.252167 0
M  V30 13849 H 1322.83 -4.1461 -0.385662 0
M  V30 13850 H 1325.43 -4.31184 -3.16203 0
M  V30 13851 H 1325.77 -2.60159 -3.24997 0
M  V30 13852 H 1326.31 -3.53259 -1.82902 0
M  V30 13853 H 1323.05 -6.45287 -1.15258 0
M  V30 13854 H 1322.57 -5.43751 -2.5317 0
M  V30 13855 H 1324.25 -6.01384 -2.38634 0
M  V30 13856 N 1324.38 0.532545 -1.4833 0
M  V30 13857 C 1325.6 1.31809 -1.60129 0
M  V30 13858 C 1326.03 1.86283 -0.260807 0
M  V30 13859 O 1325.39 1.6427 0.767137 0
M  V30 13860 C 1325.43 2.44661 -2.64903 0
M  V30 13861 O 1324.54 3.47622 -2.21885 0
M  V30 13862 H 1323.88 0.390492 -0.53704 0
M  V30 13863 H 1326.41 0.641068 -1.94297 0
M  V30 13864 H 1326.42 2.90883 -2.86096 0
M  V30 13865 H 1325.09 2.04373 -3.62222 0
M  V30 13866 H 1323.67 3.07536 -2.10894 0
M  V30 13867 N 1325.86 1.36875 0.78122 0
M  V30 13868 C 1327.1 1.31559 1.53943 0
M  V30 13869 C 1327.43 -0.10273 1.94229 0
M  V30 13870 O 1326.69 -1.07386 1.63605 0
M  V30 13871 C 1326.98 2.19173 2.82309 0
M  V30 13872 C 1326.65 3.67595 2.61121 0
M  V30 13873 C 1325.31 4.08047 2.55051 0
M  V30 13874 C 1327.66 4.61665 2.41898 0
M  V30 13875 C 1324.99 5.40697 2.27736 0
M  V30 13876 C 1327.34 5.94542 2.16108 0
M  V30 13877 C 1326.01 6.34109 2.08476 0
M  V30 13878 H 1325.28 0.48141 0.563317 0
M  V30 13879 H 1327.93 1.68999 0.900638 0
M  V30 13880 H 1326.23 1.74696 3.50697 0
M  V30 13881 H 1327.93 2.12379 3.40141 0
M  V30 13882 H 1324.52 3.35509 2.66705 0
M  V30 13883 H 1328.7 4.3128 2.45584 0
M  V30 13884 H 1323.96 5.70325 2.20315 0
M  V30 13885 H 1328.13 6.66994 2.0023 0
M  V30 13886 H 1325.76 7.36823 1.87073 0
M  V30 13887 N 1327.33 -1.00632 1.21289 0
M  V30 13888 C 1328.58 -1.74388 1.02932 0
M  V30 13889 C 1328.91 -1.8952 -0.437327 0
M  V30 13890 O 1328.16 -1.42551 -1.3408 0
M  V30 13891 C 1328.46 -3.1598 1.67007 0
M  V30 13892 C 1328.13 -3.208 3.16857 0
M  V30 13893 C 1326.79 -3.21823 3.57748 0
M  V30 13894 C 1329.14 -3.18147 4.12834 0
M  V30 13895 C 1326.47 -3.17877 4.93124 0
M  V30 13896 C 1328.82 -3.15743 5.48169 0
M  V30 13897 C 1327.49 -3.15074 5.88459 0
M  V30 13898 H 1326.76 -0.638133 0.376653 0
M  V30 13899 H 1329.4 -1.17953 1.50862 0
M  V30 13900 H 1327.71 -3.75639 1.11365 0
M  V30 13901 H 1329.41 -3.71764 1.50307 0
M  V30 13902 H 1326 -3.20746 2.84289 0
M  V30 13903 H 1330.18 -3.16519 3.82269 0
M  V30 13904 H 1325.44 -3.15696 5.2359 0
M  V30 13905 H 1329.61 -3.12644 6.22275 0
M  V30 13906 H 1327.24 -3.11771 6.93327 0
M  V30 13907 N 1328.81 -1.02043 -1.20104 0
M  V30 13908 C 1330.22 -0.742954 -1.71281 0
M  V30 13909 C 1330.57 0.738173 -1.81784 0
M  V30 13910 O 1329.7 1.57588 -1.48307 0
M  V30 13911 C 1330.29 -1.342 -3.11088 0
M  V30 13912 C 1328.85 -1.11331 -3.59559 0
M  V30 13913 C 1328 -1.44532 -2.36655 0
M  V30 13914 H 1330.95 -1.18942 -1.05064 0
M  V30 13915 H 1330.97 -0.734558 -3.73342 0
M  V30 13916 H 1330.48 -2.41998 -3.03411 0
M  V30 13917 H 1328.58 -0.05317 -3.72562 0
M  V30 13918 H 1328.7 -1.79606 -4.4416 0
M  V30 13919 H 1327.06 -0.864431 -2.39582 0
M  V30 13920 H 1327.84 -2.53394 -2.31616 0
M  V30 13921 N 1330.29 1.35952 -0.797165 0
M  V30 13922 C 1331.52 2.0381 -0.38421 0
M  V30 13923 C 1331.94 1.597 0.993854 0
M  V30 13924 O 1331.3 0.769148 1.64176 0
M  V30 13925 C 1331.35 3.57589 -0.465054 0
M  V30 13926 O 1330.45 4.09043 0.525095 0
M  V30 13927 H 1329.79 0.643957 -0.161912 0
M  V30 13928 H 1332.32 1.73746 -1.08043 0
M  V30 13929 H 1332.33 4.06651 -0.331448 0
M  V30 13930 H 1331.01 3.89045 -1.47027 0
M  V30 13931 H 1329.58 3.7123 0.352509 0
M  V30 13932 N 1331.77 0.549846 1.47697 0
M  V30 13933 C 1332.72 -0.215119 2.31603 0
M  V30 13934 C 1333.71 -0.916441 1.4247 0
M  V30 13935 O 1334.92 -0.838565 1.59274 0
M  V30 13936 H 1331.29 -0.0882441 0.746805 0
M  V30 13937 H 1333.26 0.511847 2.93977 0
M  V30 13938 C 1332.01 -1.23662 3.24966 0
M  V30 13939 H 1331.33 -0.706384 3.9351 0
M  V30 13940 H 1332.77 -1.7429 3.86522 0
M  V30 13941 C 1331.23 -2.28066 2.47967 0
M  V30 13942 O 1331.76 -3.34862 2.21879 0
M  V30 13943 N 1329.97 -2.01799 2.09106 0
M  V30 13944 H 1329.52 -1.14965 2.30523 0
M  V30 13945 H 1329.47 -2.71872 1.57902 0
M  V30 13946 N 1333.25 -1.54984 0.285932 0
M  V30 13947 C 1334.49 -2.00126 -0.328223 0
M  V30 13948 C 1334.83 -1.17409 -1.54689 0
M  V30 13949 O 1334.1 -0.246806 -1.92928 0
M  V30 13950 C 1334.38 -3.53236 -0.699733 0
M  V30 13951 C 1334.24 -4.46702 0.527029 0
M  V30 13952 C 1335.56 -4.12572 -1.53206 0
M  V30 13953 H 1332.67 -0.727521 -0.117825 0
M  V30 13954 H 1335.32 -1.85848 0.395032 0
M  V30 13955 H 1333.47 -3.65534 -1.31594 0
M  V30 13956 H 1335.14 -4.46332 1.16557 0
M  V30 13957 H 1333.38 -4.17917 1.1631 0
M  V30 13958 H 1334.05 -5.51549 0.223165 0
M  V30 13959 H 1336.53 -4.03618 -1.01154 0
M  V30 13960 H 1335.4 -5.19891 -1.7608 0
M  V30 13961 H 1335.67 -3.63487 -2.51654 0
M  V30 13962 N 1334.72 -0.0133892 -1.57594 0
M  V30 13963 C 1335.63 0.989701 -2.12702 0
M  V30 13964 C 1336.65 1.36785 -1.07545 0
M  V30 13965 O 1337.83 1.45246 -1.39519 0
M  V30 13966 C 1334.89 2.2586 -2.63036 0
M  V30 13967 C 1333.95 1.94234 -3.82847 0
M  V30 13968 C 1333.19 3.15075 -4.30771 0
M  V30 13969 O 1333.41 4.27212 -3.7795 0
M  V30 13970 O 1332.34 2.98291 -5.22787 0
M  V30 13971 H 1336.17 0.551194 -2.98656 0
M  V30 13972 H 1333.75 0.206264 -1.47969 0
M  V30 13973 H 1335.64 3.0038 -2.9555 0
M  V30 13974 H 1334.31 2.68923 -1.80173 0
M  V30 13975 H 1333.22 1.17148 -3.55285 0
M  V30 13976 H 1334.55 1.55999 -4.66824 0
M  V30 13977 N 1336.2 1.55448 0.259558 0
M  V30 13978 C 1337.13 1.85678 1.34373 0
M  V30 13979 C 1338.15 0.742155 1.449 0
M  V30 13980 O 1339.34 1.02015 1.46476 0
M  V30 13981 C 1336.44 2.01668 2.72366 0
M  V30 13982 C 1335.61 3.32434 2.84265 0
M  V30 13983 C 1334.67 3.38322 4.03019 0
M  V30 13984 O 1333.69 4.11616 3.93143 0
M  V30 13985 N 1334.9 2.66697 5.1561 0
M  V30 13986 H 1337.66 2.79261 1.08781 0
M  V30 13987 H 1335.22 1.5553 0.449672 0
M  V30 13988 H 1337.21 2.02963 3.50126 0
M  V30 13989 H 1335.78 1.14889 2.90722 0
M  V30 13990 H 1335 3.43564 1.93281 0
M  V30 13991 H 1336.29 4.18649 2.89155 0
M  V30 13992 H 1335.69 2.06857 5.26523 0
M  V30 13993 H 1334.25 2.73699 5.91551 0
M  V30 13994 N 1337.68 -0.524672 1.4861 0
M  V30 13995 C 1338.93 -1.28021 1.56898 0
M  V30 13996 C 1339.26 -1.92948 0.245203 0
M  V30 13997 O 1338.51 -1.8013 -0.764966 0
M  V30 13998 C 1338.81 -2.3871 2.65993 0
M  V30 13999 C 1338.48 -1.914 4.08261 0
M  V30 14000 C 1337.14 -1.78215 4.46982 0
M  V30 14001 C 1339.49 -1.55713 4.97396 0
M  V30 14002 C 1336.82 -1.27687 5.72637 0
M  V30 14003 C 1339.17 -1.06645 6.23546 0
M  V30 14004 C 1337.83 -0.920818 6.61118 0
M  V30 14005 H 1337.1 -0.468461 0.57413 0
M  V30 14006 H 1339.75 -0.584901 1.82349 0
M  V30 14007 H 1338.06 -3.13932 2.34422 0
M  V30 14008 H 1339.75 -2.96827 2.6962 0
M  V30 14009 H 1336.34 -2.02614 3.77684 0
M  V30 14010 H 1340.53 -1.64757 4.68155 0
M  V30 14011 H 1335.78 -1.15103 6.00468 0
M  V30 14012 H 1339.96 -0.781048 6.92006 0
M  V30 14013 H 1337.58 -0.527091 7.5837 0
M  V30 14014 N 1339.16 -1.37287 -0.77395 0
M  V30 14015 C 1340.38 -1.35734 -1.56815 0
M  V30 14016 C 1340.81 0.0555546 -1.88018 0
M  V30 14017 O 1340.17 1.03197 -1.49064 0
M  V30 14018 C 1340.21 -2.2008 -2.85652 0
M  V30 14019 O 1339.32 -1.60391 -3.79932 0
M  V30 14020 H 1338.66 -0.463881 -0.47509 0
M  V30 14021 H 1341.19 -1.80781 -0.958087 0
M  V30 14022 H 1341.2 -2.33215 -3.34776 0
M  V30 14023 H 1339.87 -3.22781 -2.6227 0
M  V30 14024 H 1338.45 -1.56285 -3.3857 0
M  V30 14025 N 1340.64 0.999871 -1.21821 0
M  V30 14026 C 1341.55 2.12303 -0.99823 0
M  V30 14027 C 1342.56 1.73924 0.0512923 0
M  V30 14028 O 1343.74 2.00914 -0.139895 0
M  V30 14029 C 1340.8 3.41962 -0.571232 0
M  V30 14030 C 1339.86 3.94483 -1.69356 0
M  V30 14031 C 1339.1 5.17954 -1.28685 0
M  V30 14032 O 1339.32 5.70168 -0.162641 0
M  V30 14033 O 1338.25 5.64051 -2.10071 0
M  V30 14034 H 1342.08 2.3374 -1.93905 0
M  V30 14035 H 1339.67 1.10677 -1.00354 0
M  V30 14036 H 1341.55 4.20001 -0.343134 0
M  V30 14037 H 1340.22 3.21901 0.340814 0
M  V30 14038 H 1339.13 3.17648 -1.97612 0
M  V30 14039 H 1340.46 4.18964 -2.58322 0
M  V30 14040 N 1342.11 1.02678 1.19562 0
M  V30 14041 C 1343.36 0.72059 1.88817 0
M  V30 14042 C 1343.68 -0.752942 1.79877 0
M  V30 14043 O 1342.95 -1.54233 1.20785 0
M  V30 14044 H 1341.53 0.26355 0.698964 0
M  V30 14045 H 1344.2 1.30056 1.4516 0
M  V30 14046 H 1343.29 1.01303 2.95202 0
M  V30 14047 N 1343.59 -1.35528 0.804364 0
M  V30 14048 C 1344.54 -2.31728 0.20125 0
M  V30 14049 C 1345.53 -1.56527 -0.647751 0
M  V30 14050 O 1346.74 -1.71672 -0.541163 0
M  V30 14051 H 1343.12 -0.750572 0.0463165 0
M  V30 14052 H 1345.09 -2.80142 1.02777 0
M  V30 14053 C 1343.84 -3.41807 -0.637429 0
M  V30 14054 H 1343.16 -3.99799 0.00651699 0
M  V30 14055 H 1344.6 -4.11403 -1.02585 0
M  V30 14056 C 1343.06 -2.84655 -1.80202 0
M  V30 14057 O 1343.59 -2.78026 -2.89939 0
M  V30 14058 N 1341.79 -2.41735 -1.61285 0
M  V30 14059 H 1341.34 -2.47327 -0.720231 0
M  V30 14060 H 1341.3 -2.03844 -2.39364 0
M  V30 14061 N 1345.07 -0.557671 -1.47404 0
M  V30 14062 C 1346.32 -0.0316382 -2.01675 0
M  V30 14063 C 1346.63 1.32656 -1.43742 0
M  V30 14064 O 1347.84 1.94253 -1.89678 0
M  V30 14065 C 1346.3 -0.00606931 -3.59899 0
M  V30 14066 C 1345.9 -1.36106 -4.26825 0
M  V30 14067 C 1347.65 0.467332 -4.2192 0
M  V30 14068 C 1345.55 -1.29457 -5.77057 0
M  V30 14069 H 1344.48 -0.00805738 -0.753957 0
M  V30 14070 H 1347.14 -0.705592 -1.69392 0
M  V30 14071 H 1345.52 0.733541 -3.89147 0
M  V30 14072 H 1346.69 -2.11842 -4.09218 0
M  V30 14073 H 1345.01 -1.77243 -3.76794 0
M  V30 14074 H 1347.6 0.535478 -5.32012 0
M  V30 14075 H 1347.95 1.47942 -3.89126 0
M  V30 14076 H 1348.48 -0.217434 -3.97205 0
M  V30 14077 H 1345.22 -2.28267 -6.14471 0
M  V30 14078 H 1344.74 -0.579022 -5.96999 0
M  V30 14079 H 1346.42 -0.996834 -6.39275 0
M  V30 14080 N 1346.55 1.54831 -0.294147 0
M  V30 14081 C 1347.83 1.92071 0.369902 0
M  V30 14082 C 1348.21 1.22061 1.72233 0
M  V30 14083 O 1347.55 0.353975 2.25742 0
M  V30 14084 C 1347.76 3.45524 0.49135 0
M  V30 14085 C 1349.11 4.17644 0.765411 0
M  V30 14086 O 1350.14 3.51521 0.575428 0
M  V30 14087 O 1349 5.34692 1.12992 0
M  V30 14088 H 1346.09 0.801033 0.20561 0
M  V30 14089 H 1348.64 1.66224 -0.341702 0
M  V30 14090 H 1347.41 3.88591 -0.459663 0
M  V30 14091 H 1347.03 3.77384 1.25169 0
M  V30 14092 N 1348.03 0.0217466 1.57585 0
M  V30 14093 C 1349.27 -0.659463 1.91778 0
M  V30 14094 C 1349.61 -1.72201 0.897801 0
M  V30 14095 O 1348.88 -1.94333 -0.080509 0
M  V30 14096 C 1349.16 -1.28269 3.36481 0
M  V30 14097 C 1349.02 -0.230201 4.49211 0
M  V30 14098 C 1350.34 -2.20279 3.81005 0
M  V30 14099 H 1347.46 -0.238263 0.697424 0
M  V30 14100 H 1350.1 0.0774967 1.89842 0
M  V30 14101 H 1348.25 -1.9108 3.38262 0
M  V30 14102 H 1349.92 0.399901 4.59563 0
M  V30 14103 H 1348.16 0.445157 4.3151 0
M  V30 14104 H 1348.83 -0.705732 5.4747 0
M  V30 14105 H 1351.31 -1.67463 3.80914 0
M  V30 14106 H 1350.19 -2.60842 4.82962 0
M  V30 14107 H 1350.45 -3.09092 3.16093 0
M  V30 14108 N 1349.51 -1.55583 -0.251311 0
M  V30 14109 C 1350.75 -1.78389 -0.977194 0
M  V30 14110 C 1351.11 -0.589958 -1.83132 0
M  V30 14111 O 1350.4 0.416909 -1.87009 0
M  V30 14112 C 1350.59 -3.04291 -1.87461 0
M  V30 14113 C 1350.42 -4.35815 -1.10885 0
M  V30 14114 C 1349.19 -4.98672 -0.815731 0
M  V30 14115 C 1351.39 -5.11974 -0.488591 0
M  V30 14116 N 1349.37 -6.13895 -0.0254438 0
M  V30 14117 C 1350.74 -6.19776 0.166483 0
M  V30 14118 C 1352.8 -4.96302 -0.398613 0
M  V30 14119 C 1351.5 -7.13611 0.90289 0
M  V30 14120 C 1353.53 -5.9051 0.324252 0
M  V30 14121 C 1352.89 -6.97717 0.96798 0
M  V30 14122 H 1348.99 -0.70478 -0.338836 0
M  V30 14123 H 1351.57 -1.93079 -0.250746 0
M  V30 14124 H 1349.74 -2.90937 -2.57313 0
M  V30 14125 H 1351.48 -3.15409 -2.53573 0
M  V30 14126 H 1348.23 -4.60009 -1.12642 0
M  V30 14127 H 1348.65 -6.76055 0.357664 0
M  V30 14128 H 1353.3 -4.13499 -0.881967 0
M  V30 14129 H 1351.01 -7.95918 1.39786 0
M  V30 14130 H 1354.6 -5.80461 0.39448 0
M  V30 14131 H 1353.48 -7.6936 1.5184 0
M  V30 14132 N 1350.98 0.516783 -1.48886 0
M  V30 14133 C 1352.23 1.27118 -1.58785 0
M  V30 14134 C 1352.58 1.90579 -0.264114 0
M  V30 14135 O 1351.88 1.76972 0.734271 0
M  V30 14136 C 1352.07 2.37296 -2.67256 0
M  V30 14137 C 1351.9 1.84637 -4.10048 0
M  V30 14138 C 1350.67 1.66646 -4.77029 0
M  V30 14139 C 1352.87 1.36728 -4.95792 0
M  V30 14140 N 1350.85 1.08751 -6.04191 0
M  V30 14141 C 1352.22 0.908663 -6.13305 0
M  V30 14142 C 1354.28 1.25154 -4.81914 0
M  V30 14143 C 1352.98 0.345766 -7.18468 0
M  V30 14144 C 1355.01 0.702625 -5.87211 0
M  V30 14145 C 1354.37 0.254151 -7.03941 0
M  V30 14146 H 1350.47 0.455698 -0.635503 0
M  V30 14147 H 1353.05 0.581119 -1.85825 0
M  V30 14148 H 1351.22 3.03782 -2.42014 0
M  V30 14149 H 1352.95 3.04334 -2.66764 0
M  V30 14150 H 1349.71 1.90556 -4.33573 0
M  V30 14151 H 1350.13 0.817766 -6.72043 0
M  V30 14152 H 1354.77 1.58429 -3.91995 0
M  V30 14153 H 1352.49 0.000713578 -8.081 0
M  V30 14154 H 1356.08 0.616065 -5.78529 0
M  V30 14155 H 1354.96 -0.163978 -7.84029 0
M  V30 14156 N 1352.46 1.37696 0.766659 0
M  V30 14157 C 1353.71 1.32507 1.52069 0
M  V30 14158 C 1354.02 -0.0864967 1.95409 0
M  V30 14159 O 1355.23 -0.260877 2.70244 0
M  V30 14160 C 1353.69 2.32614 2.74625 0
M  V30 14161 C 1353.29 3.79325 2.38363 0
M  V30 14162 C 1355.04 2.36445 3.52554 0
M  V30 14163 C 1352.94 4.7115 3.57451 0
M  V30 14164 H 1351.87 0.492491 0.570937 0
M  V30 14165 H 1354.53 1.63183 0.839268 0
M  V30 14166 H 1352.91 1.94963 3.44682 0
M  V30 14167 H 1354.08 4.25841 1.76056 0
M  V30 14168 H 1352.4 3.78488 1.73597 0
M  V30 14169 H 1354.99 3.02252 4.41076 0
M  V30 14170 H 1355.34 1.37953 3.92778 0
M  V30 14171 H 1355.87 2.72829 2.89498 0
M  V30 14172 H 1352.61 5.70789 3.22304 0
M  V30 14173 H 1352.13 4.29335 4.18846 0
M  V30 14174 H 1353.81 4.88532 4.242 0
M  V30 14175 N 1353.94 -0.993397 1.22349 0
M  V30 14176 C 1355.19 -1.73544 1.04931 0
M  V30 14177 C 1355.52 -1.89721 -0.414661 0
M  V30 14178 O 1354.79 -1.44001 -1.30743 0
M  V30 14179 C 1355.08 -3.14131 1.7605 0
M  V30 14180 C 1354.93 -3.05604 3.30039 0
M  V30 14181 C 1356.25 -4.13294 1.51249 0
M  V30 14182 H 1353.37 -0.629915 0.382591 0
M  V30 14183 H 1356.01 -1.15737 1.50682 0
M  V30 14184 H 1354.16 -3.63483 1.37157 0
M  V30 14185 H 1355.83 -2.63876 3.78374 0
M  V30 14186 H 1354.07 -2.42421 3.59742 0
M  V30 14187 H 1354.75 -4.05086 3.74979 0
M  V30 14188 H 1357.22 -3.72696 1.85033 0
M  V30 14189 H 1356.1 -5.09781 2.03507 0
M  V30 14190 H 1356.36 -4.39855 0.444973 0
M  V30 14191 N 1355.42 -1.03311 -1.19015 0
M  V30 14192 C 1356.37 -0.588076 -2.20285 0
M  V30 14193 C 1357.35 0.365442 -1.56695 0
M  V30 14194 O 1358.54 0.185725 -1.76023 0
M  V30 14195 C 1355.67 0.0553478 -3.43255 0
M  V30 14196 C 1354.76 -0.920863 -4.13982 0
M  V30 14197 N 1355.15 -2.08495 -4.60829 0
M  V30 14198 C 1353.45 -0.74522 -4.3973 0
M  V30 14199 C 1354.15 -2.701 -5.1519 0
M  V30 14200 N 1353.12 -1.98031 -5.06246 0
M  V30 14201 H 1356.93 -1.47529 -2.54189 0
M  V30 14202 H 1354.44 -0.900663 -1.35136 0
M  V30 14203 H 1356.44 0.39182 -4.15055 0
M  V30 14204 H 1355.1 0.938199 -3.1085 0
M  V30 14205 H 1356.11 -2.46418 -4.5552 0
M  V30 14206 H 1352.79 0.088182 -4.17407 0
M  V30 14207 H 1354.18 -3.6871 -5.61696 0
M  V30 14208 N 1356.9 1.35099 -0.81154 0
M  V30 14209 C 1358.17 1.93009 -0.317289 0
M  V30 14210 C 1358.55 1.74101 1.19382 0
M  V30 14211 O 1357.9 1.11295 1.99564 0
M  V30 14212 C 1358.11 3.41191 -0.734123 0
M  V30 14213 C 1359.46 4.1834 -0.726437 0
M  V30 14214 O 1360.48 3.49727 -0.67598 0
M  V30 14215 O 1359.34 5.4077 -0.789291 0
M  V30 14216 H 1356.44 0.822707 -0.084153 0
M  V30 14217 H 1358.98 1.44145 -0.895569 0
M  V30 14218 H 1357.75 3.48705 -1.7754 0
M  V30 14219 H 1357.38 3.97384 -0.130919 0
M  V30 14220 N 1358.37 0.56548 1.47106 0
M  V30 14221 C 1359.62 0.0444375 2.02051 0
M  V30 14222 C 1359.94 -1.31344 1.44131 0
M  V30 14223 O 1359.21 -1.85845 0.619556 0
M  V30 14224 H 1357.79 0.0134375 0.746879 0
M  V30 14225 H 1360.45 0.737362 1.80413 0
M  V30 14226 H 1359.55 -0.0374834 3.12077 0
M  V30 14227 N 1359.85 -1.54672 0.302354 0
M  V30 14228 C 1361.1 -1.99771 -0.305919 0
M  V30 14229 C 1361.42 -1.19225 -1.54306 0
M  V30 14230 O 1360.69 -0.288569 -1.93763 0
M  V30 14231 H 1359.27 -0.737934 -0.116026 0
M  V30 14232 H 1361.93 -1.90452 0.413997 0
M  V30 14233 H 1361.03 -3.06719 -0.577024 0
M  V30 14234 N 1361.33 -0.0301034 -1.57571 0
M  V30 14235 C 1362.26 0.986212 -2.05789 0
M  V30 14236 C 1363.24 1.31682 -0.95387 0
M  V30 14237 O 1364.43 1.43332 -1.22427 0
M  V30 14238 C 1361.55 2.30598 -2.48077 0
M  V30 14239 C 1360.6 2.12991 -3.69509 0
M  V30 14240 S 1361.43 1.42782 -5.16114 0
M  V30 14241 C 1362.59 2.76126 -5.61699 0
M  V30 14242 H 1362.82 0.575769 -2.91671 0
M  V30 14243 H 1360.35 0.181613 -1.53328 0
M  V30 14244 H 1362.31 3.06469 -2.73107 0
M  V30 14245 H 1360.97 2.68775 -1.62539 0
M  V30 14246 H 1360.17 3.1056 -3.96949 0
M  V30 14247 H 1359.77 1.45263 -3.44637 0
M  V30 14248 H 1362.06 3.72361 -5.65998 0
M  V30 14249 H 1363 2.53349 -6.61226 0
M  V30 14250 H 1363.41 2.81418 -4.89351 0
M  V30 14251 N 1362.81 1.55714 0.243056 0
M  V30 14252 C 1363.74 1.93655 1.30461 0
M  V30 14253 C 1364.72 0.801968 1.50008 0
M  V30 14254 O 1365.9 1.06256 1.62552 0
M  V30 14255 C 1363.03 2.23459 2.65863 0
M  V30 14256 C 1361.99 3.39205 2.61006 0
M  V30 14257 C 1361.31 3.5456 4.00239 0
M  V30 14258 C 1362.61 4.74787 2.17656 0
M  V30 14259 H 1364.31 2.82575 0.98954 0
M  V30 14260 H 1361.85 1.35955 0.474572 0
M  V30 14261 H 1363.81 2.48591 3.40266 0
M  V30 14262 H 1362.53 1.31369 2.99014 0
M  V30 14263 H 1361.19 3.14088 1.89061 0
M  V30 14264 H 1360.84 2.59884 4.30661 0
M  V30 14265 H 1360.54 4.32399 3.97876 0
M  V30 14266 H 1362.06 3.82017 4.76335 0
M  V30 14267 H 1363.48 4.99266 2.81792 0
M  V30 14268 H 1361.87 5.55756 2.26397 0
M  V30 14269 H 1362.94 4.7159 1.12831 0
M  V30 14270 N 1364.29 -0.50888 1.49158 0
M  V30 14271 C 1365.22 -1.62869 1.5984 0
M  V30 14272 C 1366.2 -1.56312 0.447809 0
M  V30 14273 O 1367.38 -1.76482 0.662292 0
M  V30 14274 C 1364.51 -3.01356 1.54603 0
M  V30 14275 C 1363.55 -3.26202 2.74763 0
M  V30 14276 S 1364.39 -3.10178 4.3652 0
M  V30 14277 C 1365.54 -4.51075 4.33915 0
M  V30 14278 H 1365.78 -1.53562 2.5457 0
M  V30 14279 H 1363.31 -0.693448 1.37952 0
M  V30 14280 H 1365.27 -3.81215 1.52267 0
M  V30 14281 H 1363.93 -3.08085 0.611737 0
M  V30 14282 H 1363.12 -4.27281 2.67296 0
M  V30 14283 H 1362.72 -2.54052 2.7447 0
M  V30 14284 H 1365.02 -5.4301 4.05149 0
M  V30 14285 H 1365.96 -4.63593 5.35245 0
M  V30 14286 H 1366.37 -4.31385 3.64097 0
M  V30 14287 N 1365.76 -1.381 -0.759346 0
M  V30 14288 C 1366.69 -1.37578 -1.88665 0
M  V30 14289 C 1367.68 -0.242529 -1.68362 0
M  V30 14290 O 1368.86 -0.444751 -1.89039 0
M  V30 14291 C 1365.99 -1.19437 -3.26117 0
M  V30 14292 C 1364.94 -2.29905 -3.61009 0
M  V30 14293 C 1364.27 -1.96874 -4.97136 0
M  V30 14294 C 1365.57 -3.72143 -3.66479 0
M  V30 14295 H 1367.26 -2.31912 -1.89359 0
M  V30 14296 H 1364.81 -1.11632 -0.909631 0
M  V30 14297 H 1366.76 -1.17698 -4.0463 0
M  V30 14298 H 1365.49 -0.21562 -3.25887 0
M  V30 14299 H 1364.15 -2.3082 -2.84812 0
M  V30 14300 H 1363.79 -0.974979 -4.9346 0
M  V30 14301 H 1363.49 -2.70855 -5.21451 0
M  V30 14302 H 1365.02 -1.96744 -5.78035 0
M  V30 14303 H 1366.43 -3.73291 -4.35117 0
M  V30 14304 H 1364.83 -4.45282 -4.02299 0
M  V30 14305 H 1365.9 -4.04874 -2.66843 0
M  V30 14306 N 1367.24 0.986894 -1.22875 0
M  V30 14307 C 1368.17 2.09628 -1.0285 0
M  V30 14308 C 1369.15 1.70019 0.0525118 0
M  V30 14309 O 1370.34 1.93883 -0.110874 0
M  V30 14310 C 1367.47 3.41866 -0.61194 0
M  V30 14311 C 1366.42 3.95351 -1.63956 0
M  V30 14312 C 1365.75 5.23707 -1.07865 0
M  V30 14313 C 1367.05 4.25354 -3.03102 0
M  V30 14314 H 1368.74 2.26639 -1.95641 0
M  V30 14315 H 1366.29 1.0891 -0.942048 0
M  V30 14316 H 1368.24 4.18893 -0.458936 0
M  V30 14317 H 1366.97 3.24701 0.35164 0
M  V30 14318 H 1365.62 3.20462 -1.78045 0
M  V30 14319 H 1365.27 5.02888 -0.106246 0
M  V30 14320 H 1364.97 5.60459 -1.76522 0
M  V30 14321 H 1366.5 6.03362 -0.937359 0
M  V30 14322 H 1367.91 4.93156 -2.92353 0
M  V30 14323 H 1366.31 4.73292 -3.68938 0
M  V30 14324 H 1367.38 3.32887 -3.52583 0
M  V30 14325 N 1368.72 1.0394 1.18466 0
M  V30 14326 C 1370.13 0.77011 1.70077 0
M  V30 14327 C 1370.48 -0.70916 1.82935 0
M  V30 14328 O 1369.61 -1.55209 1.50795 0
M  V30 14329 C 1370.2 1.39132 3.08914 0
M  V30 14330 C 1368.76 1.17037 3.57742 0
M  V30 14331 C 1367.91 1.48279 2.34326 0
M  V30 14332 H 1370.86 1.20598 1.03159 0
M  V30 14333 H 1370.88 0.793861 3.72126 0
M  V30 14334 H 1370.39 2.46795 2.99523 0
M  V30 14335 H 1368.49 0.112435 3.7243 0
M  V30 14336 H 1368.61 1.8665 4.41247 0
M  V30 14337 H 1366.97 0.902438 2.38177 0
M  V30 14338 H 1367.75 2.57047 2.27556 0
M  V30 14339 N 1370.2 -1.34667 0.818693 0
M  V30 14340 C 1371.45 -1.98414 0.404759 0
M  V30 14341 C 1371.77 -1.64919 -1.03112 0
M  V30 14342 O 1371.03 -0.910695 -1.73219 0
M  V30 14343 C 1371.33 -3.53157 0.549059 0
M  V30 14344 C 1370.99 -4.06552 1.95003 0
M  V30 14345 C 1369.66 -4.20846 2.33329 0
M  V30 14346 C 1372.01 -4.35324 2.86604 0
M  V30 14347 C 1369.34 -4.61236 3.62599 0
M  V30 14348 C 1371.69 -4.77159 4.15334 0
M  V30 14349 C 1370.35 -4.89658 4.53642 0
M  V30 14350 H 1369.62 -0.726047 0.148112 0
M  V30 14351 H 1372.27 -1.60681 1.04182 0
M  V30 14352 H 1370.57 -3.91425 -0.17141 0
M  V30 14353 H 1372.27 -4.00453 0.209374 0
M  V30 14354 H 1368.86 -3.95887 1.64231 0
M  V30 14355 H 1373.04 -4.23823 2.58239 0
M  V30 14356 H 1368.3 -4.69104 3.92112 0
M  V30 14357 H 1372.47 -4.98381 4.86404 0
M  V30 14358 H 1370.1 -5.20713 5.53861 0
M  V30 14359 N 1371.68 -0.573274 -1.46804 0
M  V30 14360 C 1372.61 0.153316 -2.32996 0
M  V30 14361 C 1373.59 0.893013 -1.44773 0
M  V30 14362 O 1374.77 0.870329 -1.73606 0
M  V30 14363 C 1371.9 1.1736 -3.2687 0
M  V30 14364 C 1370.86 0.549347 -4.2446 0
M  V30 14365 C 1370.18 1.67542 -5.07773 0
M  V30 14366 C 1371.48 -0.50736 -5.1983 0
M  V30 14367 H 1373.18 -0.566305 -2.93995 0
M  V30 14368 H 1370.72 -0.273785 -1.41373 0
M  V30 14369 H 1372.68 1.6902 -3.86019 0
M  V30 14370 H 1371.4 1.92337 -2.63958 0
M  V30 14371 H 1370.06 0.0539142 -3.6656 0
M  V30 14372 H 1369.71 2.41463 -4.41253 0
M  V30 14373 H 1369.41 1.26343 -5.73856 0
M  V30 14374 H 1370.93 2.19496 -5.69784 0
M  V30 14375 H 1372.34 -0.0762061 -5.73249 0
M  V30 14376 H 1370.74 -0.839139 -5.94204 0
M  V30 14377 H 1371.81 -1.39723 -4.64333 0
M  V30 14378 N 1373.15 1.5451 -0.310553 0
M  V30 14379 C 1374.08 2.26827 0.554243 0
M  V30 14380 C 1375.07 1.27133 1.13009 0
M  V30 14381 O 1376.25 1.55923 1.15765 0
M  V30 14382 C 1373.38 3.01626 1.7216 0
M  V30 14383 C 1372.33 4.08547 1.27566 0
M  V30 14384 C 1371.66 4.71115 2.52893 0
M  V30 14385 C 1372.96 5.20766 0.399955 0
M  V30 14386 H 1374.65 2.9936 -0.0489475 0
M  V30 14387 H 1372.2 1.43978 -0.0249817 0
M  V30 14388 H 1374.15 3.50942 2.33276 0
M  V30 14389 H 1372.88 2.26688 2.35118 0
M  V30 14390 H 1371.54 3.60096 0.687499 0
M  V30 14391 H 1371.18 3.92805 3.14186 0
M  V30 14392 H 1370.88 5.43331 2.23752 0
M  V30 14393 H 1372.41 5.23198 3.14796 0
M  V30 14394 H 1373.82 5.65918 0.917054 0
M  V30 14395 H 1372.22 5.9976 0.2019 0
M  V30 14396 H 1373.29 4.81508 -0.572537 0
M  V30 14397 N 1374.63 0.0384594 1.57553 0
M  V30 14398 C 1375.58 -0.940256 2.10779 0
M  V30 14399 C 1376.55 -1.31705 1.01208 0
M  V30 14400 O 1377.74 -1.40874 1.28683 0
M  V30 14401 C 1374.88 -2.21419 2.64703 0
M  V30 14402 C 1373.99 -1.89302 3.88315 0
M  V30 14403 C 1373.12 -3.1106 4.30599 0
M  V30 14404 C 1372.16 -2.74805 5.46945 0
M  V30 14405 N 1371.3 -3.89217 5.84341 0
M  V30 14406 H 1376.14 -0.479458 2.94118 0
M  V30 14407 H 1373.68 -0.22505 1.45368 0
M  V30 14408 H 1375.63 -2.95946 2.94061 0
M  V30 14409 H 1374.26 -2.65099 1.84181 0
M  V30 14410 H 1373.32 -1.04977 3.65628 0
M  V30 14411 H 1374.63 -1.58607 4.72912 0
M  V30 14412 H 1373.78 -3.93898 4.61442 0
M  V30 14413 H 1372.52 -3.44924 3.44788 0
M  V30 14414 H 1371.53 -1.9038 5.15786 0
M  V30 14415 H 1372.75 -2.42147 6.34462 0
M  V30 14416 H 1370.7 -4.22905 5.01485 0
M  V30 14417 H 1370.61 -3.62177 6.63599 0
M  V30 14418 H 1371.88 -4.72732 6.19794 0
M  V30 14419 N 1376.11 -1.55841 -0.234795 0
M  V30 14420 C 1377.04 -1.87793 -1.31402 0
M  V30 14421 C 1378.06 -0.765113 -1.43701 0
M  V30 14422 O 1379.25 -1.04332 -1.44834 0
M  V30 14423 C 1376.35 -2.05976 -2.69123 0
M  V30 14424 C 1375.52 -3.36914 -2.7894 0
M  V30 14425 C 1374.58 -3.44691 -3.97586 0
M  V30 14426 O 1373.6 -4.17818 -3.86545 0
M  V30 14427 N 1374.81 -2.74866 -5.11301 0
M  V30 14428 H 1377.57 -2.80957 -1.04324 0
M  V30 14429 H 1375.13 -1.56226 -0.424872 0
M  V30 14430 H 1377.12 -2.08507 -3.46853 0
M  V30 14431 H 1375.69 -1.195 -2.88857 0
M  V30 14432 H 1374.91 -3.46595 -1.87791 0
M  V30 14433 H 1376.2 -4.23196 -2.82458 0
M  V30 14434 H 1375.6 -2.15208 -5.23165 0
M  V30 14435 H 1374.16 -2.83075 -5.87122 0
M  V30 14436 N 1377.59 0.500963 -1.49426 0
M  V30 14437 C 1378.54 1.59939 -1.62492 0
M  V30 14438 C 1379.52 1.53555 -0.480584 0
M  V30 14439 O 1380.72 1.61085 -0.733538 0
M  V30 14440 C 1377.84 2.98549 -1.6948 0
M  V30 14441 C 1376.93 3.09929 -2.89491 0
M  V30 14442 N 1377.32 2.91198 -4.13567 0
M  V30 14443 C 1375.62 3.41029 -2.87428 0
M  V30 14444 C 1376.32 3.06761 -4.94239 0
M  V30 14445 N 1375.3 3.35639 -4.27606 0
M  V30 14446 H 1379.1 1.44111 -2.56143 0
M  V30 14447 H 1376.61 0.707088 -1.46199 0
M  V30 14448 H 1378.61 3.7749 -1.76938 0
M  V30 14449 H 1377.27 3.15446 -0.769658 0
M  V30 14450 H 1378.28 2.67373 -4.43545 0
M  V30 14451 H 1374.96 3.64103 -2.04293 0
M  V30 14452 H 1376.35 2.96772 -6.02807 0
M  V30 14453 N 1379.07 1.38501 0.752011 0
M  V30 14454 C 1380.01 1.35857 1.86578 0
M  V30 14455 C 1380.98 0.220873 1.64625 0
M  V30 14456 O 1382.17 0.413348 1.86269 0
M  V30 14457 C 1379.31 1.19102 3.23896 0
M  V30 14458 C 1378.42 2.42272 3.5767 0
M  V30 14459 C 1377.56 2.18236 4.843 0
M  V30 14460 C 1376.6 3.37169 5.10865 0
M  V30 14461 N 1375.73 3.12558 6.28691 0
M  V30 14462 H 1380.57 2.31073 1.88173 0
M  V30 14463 H 1378.11 1.14803 0.919712 0
M  V30 14464 H 1380.07 1.07404 4.03138 0
M  V30 14465 H 1378.7 0.275243 3.21624 0
M  V30 14466 H 1377.75 2.64638 2.7326 0
M  V30 14467 H 1379.06 3.3091 3.73229 0
M  V30 14468 H 1378.22 2.03682 5.71488 0
M  V30 14469 H 1376.96 1.26966 4.70883 0
M  V30 14470 H 1375.96 3.52241 4.22145 0
M  V30 14471 H 1377.19 4.29317 5.26178 0
M  V30 14472 H 1375.13 2.23937 6.16594 0
M  V30 14473 H 1375.05 3.94746 6.44757 0
M  V30 14474 H 1376.32 3.01663 7.18763 0
M  V30 14475 N 1380.55 -0.980364 1.23396 0
M  V30 14476 C 1381.79 -1.72421 1.06765 0
M  V30 14477 C 1382.12 -1.90151 -0.394515 0
M  V30 14478 O 1381.4 -1.4538 -1.29209 0
M  V30 14479 C 1381.68 -3.12246 1.79372 0
M  V30 14480 C 1381.54 -3.02087 3.33262 0
M  V30 14481 C 1382.85 -4.11667 1.55624 0
M  V30 14482 H 1379.97 -0.625822 0.389251 0
M  V30 14483 H 1382.62 -1.14132 1.51901 0
M  V30 14484 H 1380.77 -3.62008 1.41004 0
M  V30 14485 H 1382.44 -2.59848 3.81152 0
M  V30 14486 H 1380.68 -2.38592 3.62293 0
M  V30 14487 H 1381.35 -4.01087 3.79254 0
M  V30 14488 H 1383.83 -3.70712 1.88975 0
M  V30 14489 H 1382.7 -5.07593 2.08902 0
M  V30 14490 H 1382.96 -4.39358 0.491601 0
M  V30 14491 N 1382.02 -1.04567 -1.17913 0
M  V30 14492 C 1383.27 -0.762914 -1.8855 0
M  V30 14493 C 1383.62 0.702052 -1.79134 0
M  V30 14494 O 1382.92 1.50622 -1.18421 0
M  V30 14495 C 1383.11 -1.1699 -3.3771 0
M  V30 14496 C 1382.94 -2.67289 -3.61645 0
M  V30 14497 C 1381.71 -3.34508 -3.78724 0
M  V30 14498 C 1383.91 -3.6551 -3.61811 0
M  V30 14499 N 1381.89 -4.73736 -3.90445 0
M  V30 14500 C 1383.26 -4.90436 -3.79306 0
M  V30 14501 C 1385.32 -3.59068 -3.44927 0
M  V30 14502 C 1384.02 -6.09693 -3.81663 0
M  V30 14503 C 1386.05 -4.77758 -3.4857 0
M  V30 14504 C 1385.41 -6.01505 -3.66566 0
M  V30 14505 H 1381.51 -0.331303 -0.708352 0
M  V30 14506 H 1384.09 -1.33636 -1.41596 0
M  V30 14507 H 1382.26 -0.62448 -3.83347 0
M  V30 14508 H 1383.99 -0.837634 -3.95937 0
M  V30 14509 H 1380.75 -2.84911 -3.78316 0
M  V30 14510 H 1381.17 -5.46111 -4.00115 0
M  V30 14511 H 1385.81 -2.64366 -3.29955 0
M  V30 14512 H 1383.53 -7.04746 -3.95422 0
M  V30 14513 H 1387.12 -4.74421 -3.36773 0
M  V30 14514 H 1386 -6.9181 -3.69281 0
M  V30 14515 N 1383.5 1.34231 -0.825823 0
M  V30 14516 C 1384.92 1.51166 -0.511945 0
M  V30 14517 C 1385.12 1.76981 0.963318 0
M  V30 14518 O 1384.17 1.82243 1.74767 0
M  V30 14519 C 1385.49 2.67474 -1.37399 0
M  V30 14520 C 1387.03 2.81356 -1.37141 0
M  V30 14521 C 1387.51 4.0071 -2.218 0
M  V30 14522 N 1389 4.07922 -2.19439 0
M  V30 14523 C 1389.74 4.99438 -2.81691 0
M  V30 14524 N 1389.23 5.96157 -3.52944 0
M  V30 14525 N 1391.02 4.92332 -2.7123 0
M  V30 14526 H 1383.18 1.15734 -1.78099 0
M  V30 14527 H 1385.44 0.567856 -0.759107 0
M  V30 14528 H 1385.14 2.55036 -2.42176 0
M  V30 14529 H 1385.02 3.62558 -1.04075 0
M  V30 14530 H 1387.41 2.93233 -0.331405 0
M  V30 14531 H 1387.49 1.87072 -1.74464 0
M  V30 14532 H 1387.13 3.89593 -3.25852 0
M  V30 14533 H 1387.06 4.94213 -1.81826 0
M  V30 14534 H 1389.55 3.38695 -1.67612 0
M  V30 14535 H 1389.86 6.62623 -3.97682 0
M  V30 14536 H 1388.21 5.96272 -3.5705 0
M  V30 14537 H 1391.4 4.15733 -2.15137 0
M  V30 14538 H 1391.57 5.63458 -3.20031 0
M  V30 14539 N 1384.98 0.581051 1.46498 0
M  V30 14540 C 1385.93 -0.153147 2.30291 0
M  V30 14541 C 1386.9 -0.885681 1.40517 0
M  V30 14542 O 1388.08 -0.876678 1.69467 0
M  V30 14543 C 1385.22 -1.16193 3.24951 0
M  V30 14544 C 1384.33 -0.433016 4.29824 0
M  V30 14545 C 1383.47 -1.42918 5.11613 0
M  V30 14546 C 1382.51 -0.686576 6.08237 0
M  V30 14547 N 1381.65 -1.63072 6.829 0
M  V30 14548 H 1386.49 0.56747 2.92547 0
M  V30 14549 H 1384.02 0.29166 1.4418 0
M  V30 14550 H 1385.98 -1.75965 3.78275 0
M  V30 14551 H 1384.61 -1.85028 2.64508 0
M  V30 14552 H 1383.66 0.279707 3.7937 0
M  V30 14553 H 1384.97 0.147604 4.98582 0
M  V30 14554 H 1384.13 -2.09975 5.69206 0
M  V30 14555 H 1382.87 -2.04373 4.42813 0
M  V30 14556 H 1381.87 -0.00222013 5.498 0
M  V30 14557 H 1383.1 -0.0774416 6.79056 0
M  V30 14558 H 1381.04 -2.2334 6.1681 0
M  V30 14559 H 1380.96 -1.10286 7.47912 0
M  V30 14560 H 1382.23 -2.29169 7.45052 0
M  V30 14561 N 1386.46 -1.54343 0.318742 0
M  V30 14562 C 1387.7 -2.0239 -0.285929 0
M  V30 14563 C 1388.06 -1.20197 -1.49722 0
M  V30 14564 O 1389.26 -1.58025 -2.17443 0
M  V30 14565 C 1387.53 -3.52044 -0.616446 0
M  V30 14566 S 1389.09 -4.22031 -1.20146 0
M  V30 14567 H 1385.91 -0.705685 -0.0867722 0
M  V30 14568 H 1388.51 -1.90233 0.450744 0
M  V30 14569 H 1387.22 -4.09489 0.273339 0
M  V30 14570 H 1386.75 -3.68272 -1.38344 0
M  V30 14571 H 1388.76 -4.29287 -2.48851 0
M  V30 14572 N 1387.94 -0.0468143 -1.5753 0
M  V30 14573 C 1389.16 0.641161 -1.97241 0
M  V30 14574 C 1389.59 1.6384 -0.92401 0
M  V30 14575 O 1388.94 1.80946 0.113229 0
M  V30 14576 C 1388.99 1.30832 -3.36029 0
M  V30 14577 O 1388.1 2.42394 -3.33645 0
M  V30 14578 H 1387.44 0.167035 -0.642647 0
M  V30 14579 H 1389.97 -0.113921 -2.04283 0
M  V30 14580 H 1389.98 1.66102 -3.72658 0
M  V30 14581 H 1388.65 0.57744 -4.11872 0
M  V30 14582 H 1387.23 2.09104 -3.08756 0
M  V30 14583 N 1389.41 1.55964 0.226527 0
M  V30 14584 C 1390.66 1.77944 0.94967 0
M  V30 14585 C 1390.98 0.614478 1.85697 0
M  V30 14586 O 1392.18 0.717793 2.6184 0
M  V30 14587 C 1390.64 3.15108 1.73881 0
M  V30 14588 C 1390.25 4.39314 0.877894 0
M  V30 14589 C 1391.99 3.46418 2.45347 0
M  V30 14590 C 1389.9 5.67505 1.6641 0
M  V30 14591 H 1388.83 0.663412 0.35833 0
M  V30 14592 H 1391.48 1.82366 0.203695 0
M  V30 14593 H 1389.86 3.04849 2.52751 0
M  V30 14594 H 1391.03 4.60616 0.130089 0
M  V30 14595 H 1389.35 4.15487 0.2756 0
M  V30 14596 H 1391.95 4.39416 3.0466 0
M  V30 14597 H 1392.29 2.68685 3.17985 0
M  V30 14598 H 1392.82 3.57984 1.73471 0
M  V30 14599 H 1389.56 6.48116 0.981089 0
M  V30 14600 H 1389.08 5.50272 2.38665 0
M  V30 14601 H 1390.76 6.075 2.22605 0
M  V30 14602 N 1390.89 -0.493031 1.4969 0
M  V30 14603 C 1392.31 -0.824908 1.36629 0
M  V30 14604 C 1392.51 -1.97378 0.405487 0
M  V30 14605 O 1391.56 -2.51993 -0.159933 0
M  V30 14606 C 1392.88 -1.15761 2.77524 0
M  V30 14607 C 1394.43 -1.26536 2.86282 0
M  V30 14608 C 1394.9 -1.63131 4.27963 0
M  V30 14609 N 1396.39 -1.70165 4.30811 0
M  V30 14610 C 1397.13 -1.99942 5.37411 0
M  V30 14611 N 1396.62 -2.27888 6.54247 0
M  V30 14612 N 1398.42 -2.0126 5.24834 0
M  V30 14613 H 1390.57 0.264433 2.10748 0
M  V30 14614 H 1392.83 0.0557306 0.94636 0
M  V30 14615 H 1392.54 -0.386714 3.49567 0
M  V30 14616 H 1392.41 -2.09915 3.13393 0
M  V30 14617 H 1394.8 -2.02696 2.14472 0
M  V30 14618 H 1394.88 -0.304137 2.53986 0
M  V30 14619 H 1394.52 -0.875184 5.00303 0
M  V30 14620 H 1394.45 -2.60367 4.5773 0
M  V30 14621 H 1396.94 -1.50696 3.46553 0
M  V30 14622 H 1397.26 -2.4982 7.31307 0
M  V30 14623 H 1395.6 -2.25327 6.57459 0
M  V30 14624 H 1398.79 -1.78909 4.32561 0
M  V30 14625 H 1398.96 -2.24131 6.08004 0
M  V30 14626 N 1392.37 -1.38898 -0.744656 0
M  V30 14627 C 1393.62 -1.34909 -1.49941 0
M  V30 14628 C 1393.93 0.0553979 -1.95522 0
M  V30 14629 O 1395.14 0.21785 -2.70625 0
M  V30 14630 C 1393.59 -2.36954 -2.70889 0
M  V30 14631 C 1393.2 -3.83069 -2.32298 0
M  V30 14632 C 1394.95 -2.42024 -3.48747 0
M  V30 14633 C 1392.85 -4.76777 -3.4991 0
M  V30 14634 H 1391.78 -0.501512 -0.563029 0
M  V30 14635 H 1394.43 -1.64497 -0.813201 0
M  V30 14636 H 1392.82 -2.00421 -3.41537 0
M  V30 14637 H 1393.99 -4.28588 -1.69259 0
M  V30 14638 H 1392.31 -3.81202 -1.67554 0
M  V30 14639 H 1394.9 -3.0923 -4.36212 0
M  V30 14640 H 1395.25 -1.44184 -3.90534 0
M  V30 14641 H 1395.78 -2.774 -2.85121 0
M  V30 14642 H 1392.52 -5.75844 -3.13183 0
M  V30 14643 H 1392.04 -4.35944 -4.11962 0
M  V30 14644 H 1393.72 -4.95219 -4.16374 0
M  V30 14645 N 1393.85 0.973806 -1.23914 0
M  V30 14646 C 1395.1 1.71598 -1.07519 0
M  V30 14647 C 1395.42 1.90613 0.386926 0
M  V30 14648 O 1394.68 1.46056 1.30254 0
M  V30 14649 C 1394.98 3.11441 -1.75326 0
M  V30 14650 C 1394.64 3.12286 -3.25251 0
M  V30 14651 C 1393.31 3.12224 -3.66155 0
M  V30 14652 C 1395.66 3.0709 -4.21124 0
M  V30 14653 C 1392.99 3.0469 -5.01379 0
M  V30 14654 C 1395.34 3.01098 -5.56348 0
M  V30 14655 C 1394 2.99362 -5.96606 0
M  V30 14656 H 1393.27 0.627922 -0.39344 0
M  V30 14657 H 1395.92 1.13912 -1.53936 0
M  V30 14658 H 1394.22 3.72555 -1.21286 0
M  V30 14659 H 1395.92 3.67649 -1.60111 0
M  V30 14660 H 1392.51 3.13096 -2.92693 0
M  V30 14661 H 1396.69 3.06272 -3.90527 0
M  V30 14662 H 1391.95 3.01703 -5.31776 0
M  V30 14663 H 1396.12 2.96036 -6.30346 0
M  V30 14664 H 1393.75 2.93279 -7.0135 0
M  V30 14665 N 1395.33 1.05191 1.17357 0
M  V30 14666 C 1396.55 0.782373 1.91537 0
M  V30 14667 C 1396.97 -0.661935 1.76816 0
M  V30 14668 O 1396.33 -1.45221 1.10531 0
M  V30 14669 C 1396.38 1.15357 3.426 0
M  V30 14670 O 1396.1 2.54119 3.56869 0
M  V30 14671 C 1397.6 0.910167 4.33856 0
M  V30 14672 H 1394.82 0.284461 0.607719 0
M  V30 14673 H 1397.36 1.40259 1.48821 0
M  V30 14674 H 1395.52 0.578107 3.83062 0
M  V30 14675 H 1395.93 2.68668 4.50464 0
M  V30 14676 H 1397.41 1.21964 5.38358 0
M  V30 14677 H 1397.88 -0.154624 4.38928 0
M  V30 14678 H 1398.49 1.46947 3.99107 0
M  V30 14679 N 1396.8 -1.33791 0.83293 0
M  V30 14680 C 1398.05 -1.98266 0.426412 0
M  V30 14681 C 1398.38 -1.65848 -1.01035 0
M  V30 14682 O 1397.66 -0.93528 -1.70537 0
M  V30 14683 C 1397.94 -3.54356 0.640586 0
M  V30 14684 C 1397.79 -3.96482 2.12419 0
M  V30 14685 C 1399.11 -4.40022 0.0829237 0
M  V30 14686 H 1396.23 -0.720213 0.156404 0
M  V30 14687 H 1398.87 -1.58527 1.04735 0
M  V30 14688 H 1397.02 -3.88338 0.11204 0
M  V30 14689 H 1398.7 -3.72786 2.71714 0
M  V30 14690 H 1396.94 -3.46429 2.61092 0
M  V30 14691 H 1397.61 -5.05179 2.22482 0
M  V30 14692 H 1400.09 -4.12651 0.534634 0
M  V30 14693 H 1398.96 -5.48272 0.262511 0
M  V30 14694 H 1399.22 -4.30341 -1.01287 0
M  V30 14695 N 1398.28 -0.588812 -1.46187 0
M  V30 14696 C 1399.25 0.130803 -2.28826 0
M  V30 14697 C 1400.25 0.813037 -1.38731 0
M  V30 14698 O 1401.44 0.664061 -1.61046 0
M  V30 14699 C 1398.57 1.19484 -3.19275 0
M  V30 14700 H 1399.76 -0.595514 -2.93928 0
M  V30 14701 H 1397.31 -0.347038 -1.52399 0
M  V30 14702 H 1398.05 1.95254 -2.58933 0
M  V30 14703 H 1397.83 0.710077 -3.85617 0
M  V30 14704 H 1399.32 1.69938 -3.81459 0
M  V30 14705 N 1399.76 1.54172 -0.326923 0
M  V30 14706 C 1400.69 2.21958 0.571588 0
M  V30 14707 C 1401.71 1.22067 1.0772 0
M  V30 14708 O 1402.89 1.48517 0.990202 0
M  V30 14709 C 1399.99 2.87307 1.79744 0
M  V30 14710 C 1399.17 4.13366 1.42995 0
M  V30 14711 C 1398.23 4.62276 2.5137 0
M  V30 14712 O 1397.25 5.2688 2.15373 0
M  V30 14713 N 1398.45 4.36789 3.82355 0
M  V30 14714 H 1401.22 2.99699 -0.00885848 0
M  V30 14715 H 1398.78 1.61201 -0.150279 0
M  V30 14716 H 1400.77 3.1695 2.51644 0
M  V30 14717 H 1399.34 2.13252 2.28566 0
M  V30 14718 H 1398.56 3.9045 0.542444 0
M  V30 14719 H 1399.85 4.95396 1.16017 0
M  V30 14720 H 1399.25 3.85086 4.14397 0
M  V30 14721 H 1397.81 4.71079 4.50475 0
M  V30 14722 N 1401.24 0.0551678 1.57503 0
M  V30 14723 C 1402.17 -0.915714 2.14795 0
M  V30 14724 C 1403.15 -1.32179 1.07065 0
M  V30 14725 O 1404.33 -1.39579 1.35023 0
M  V30 14726 C 1401.46 -2.18916 2.69616 0
M  V30 14727 C 1400.42 -1.92303 3.82366 0
M  V30 14728 C 1399.74 -3.26136 4.23721 0
M  V30 14729 C 1401.04 -1.24146 5.07331 0
M  V30 14730 H 1402.74 -0.438499 2.96171 0
M  V30 14731 H 1400.28 -0.209477 1.42468 0
M  V30 14732 H 1402.24 -2.87239 3.08337 0
M  V30 14733 H 1400.96 -2.6885 1.85437 0
M  V30 14734 H 1399.62 -1.26391 3.44123 0
M  V30 14735 H 1399.27 -3.73879 3.36487 0
M  V30 14736 H 1398.97 -3.09126 4.99715 0
M  V30 14737 H 1400.49 -3.95684 4.65045 0
M  V30 14738 H 1401.91 -1.8251 5.43473 0
M  V30 14739 H 1400.3 -1.17449 5.88494 0
M  V30 14740 H 1401.37 -0.218073 4.84409 0
M  V30 14741 N 1402.72 -1.56081 -0.218252 0
M  V30 14742 C 1403.63 -1.95856 -1.29141 0
M  V30 14743 C 1404.64 -0.862857 -1.51099 0
M  V30 14744 O 1405.82 -1.1667 -1.64165 0
M  V30 14745 C 1402.88 -2.27005 -2.62049 0
M  V30 14746 C 1401.94 -3.50162 -2.48365 0
M  V30 14747 C 1401.18 -3.79815 -3.74935 0
M  V30 14748 O 1401.4 -3.11095 -4.78096 0
M  V30 14749 O 1400.33 -4.73299 -3.71849 0
M  V30 14750 H 1404.16 -2.8732 -0.983922 0
M  V30 14751 H 1401.75 -1.43334 -0.421385 0
M  V30 14752 H 1403.63 -2.4822 -3.40536 0
M  V30 14753 H 1402.3 -1.38715 -2.92472 0
M  V30 14754 H 1401.21 -3.34222 -1.68066 0
M  V30 14755 H 1402.54 -4.38845 -2.22881 0
M  V30 14756 N 1404.2 0.485086 -1.49949 0
M  V30 14757 C 1405.47 1.24639 -1.50747 0
M  V30 14758 C 1405.85 2.09683 -0.244162 0
M  V30 14759 O 1405.2 2.1503 0.772949 0
M  V30 14760 C 1405.41 2.08946 -2.7954 0
M  V30 14761 C 1406.76 2.67604 -3.29656 0
M  V30 14762 O 1407.78 2.192 -2.80766 0
M  V30 14763 O 1406.64 3.55761 -4.14845 0
M  V30 14764 H 1403.74 0.564849 -0.604049 0
M  V30 14765 H 1406.28 0.498052 -1.62227 0
M  V30 14766 H 1405.05 1.46185 -3.62968 0
M  V30 14767 H 1404.68 2.90941 -2.70997 0
M  V30 14768 N 1405.67 1.39291 0.737279 0
M  V30 14769 C 1406.62 1.37969 1.87263 0
M  V30 14770 C 1407.62 0.263156 1.67344 0
M  V30 14771 O 1408.82 0.433069 1.74713 0
M  V30 14772 H 1405.2 0.430782 0.616385 0
M  V30 14773 H 1407.17 2.33741 1.85494 0
M  V30 14774 C 1405.92 1.23779 3.24922 0
M  V30 14775 H 1405.24 2.08963 3.40844 0
M  V30 14776 H 1406.68 1.26911 4.04561 0
M  V30 14777 C 1405.14 -0.0539778 3.36857 0
M  V30 14778 O 1405.67 -1.02501 3.88402 0
M  V30 14779 N 1403.87 -0.116275 2.90367 0
M  V30 14780 H 1403.42 0.674622 2.48609 0
M  V30 14781 H 1403.38 -0.980107 2.98733 0
M  V30 14782 N 1407.15 -0.967221 1.24429 0
M  V30 14783 C 1408.38 -1.75053 1.11226 0
M  V30 14784 C 1408.8 -1.85162 -0.331139 0
M  V30 14785 O 1408.16 -1.32288 -1.23974 0
M  V30 14786 C 1408.21 -3.14882 1.75733 0
M  V30 14787 O 1407.31 -3.99371 1.02842 0
M  V30 14788 H 1406.65 -0.538078 0.389061 0
M  V30 14789 H 1409.18 -1.21325 1.64746 0
M  V30 14790 H 1409.19 -3.65402 1.81509 0
M  V30 14791 H 1407.87 -3.06839 2.80754 0
M  V30 14792 H 1406.44 -3.57854 1.04856 0
M  V30 14793 N 1408.63 -1.05812 -1.16797 0
M  V30 14794 C 1409.88 -0.767008 -1.86547 0
M  V30 14795 C 1410.19 0.708979 -1.82299 0
M  V30 14796 O 1411.4 1.11428 -2.4758 0
M  V30 14797 C 1409.85 -1.32186 -3.34746 0
M  V30 14798 C 1409.46 -2.82774 -3.4748 0
M  V30 14799 C 1411.21 -1.10808 -4.09783 0
M  V30 14800 C 1409.11 -3.31529 -4.89737 0
M  V30 14801 H 1408.04 -0.283235 -0.698781 0
M  V30 14802 H 1410.69 -1.27621 -1.31853 0
M  V30 14803 H 1409.08 -0.740453 -3.89016 0
M  V30 14804 H 1410.25 -3.46825 -3.03396 0
M  V30 14805 H 1408.56 -3.02765 -2.85871 0
M  V30 14806 H 1411.16 -1.44728 -5.14741 0
M  V30 14807 H 1411.5 -0.046167 -4.16274 0
M  V30 14808 H 1412.04 -1.65502 -3.61737 0
M  V30 14809 H 1408.78 -4.37177 -4.88422 0
M  V30 14810 H 1408.3 -2.72224 -5.34466 0
M  V30 14811 H 1409.98 -3.26572 -5.58534 0
M  V30 14812 N 1410.11 1.33347 -0.840014 0
M  V30 14813 C 1411.04 2.28029 -0.231432 0
M  V30 14814 C 1412.05 1.51792 0.588488 0
M  V30 14815 O 1413.24 1.736 0.415371 0
M  V30 14816 C 1410.34 3.31745 0.692721 0
M  V30 14817 C 1409.51 4.37311 -0.0881144 0
M  V30 14818 C 1408.57 5.20689 0.759557 0
M  V30 14819 O 1407.6 5.68854 0.198347 0
M  V30 14820 N 1408.8 5.42082 2.07672 0
M  V30 14821 H 1411.57 2.80893 -1.04495 0
M  V30 14822 H 1409.13 1.46053 -0.698586 0
M  V30 14823 H 1411.12 3.84428 1.2648 0
M  V30 14824 H 1409.69 2.79148 1.40695 0
M  V30 14825 H 1408.91 3.85112 -0.841579 0
M  V30 14826 H 1410.2 5.04947 -0.624986 0
M  V30 14827 H 1409.6 5.04654 2.55619 0
M  V30 14828 H 1408.15 5.97817 2.59726 0
M  V30 14829 N 1411.59 0.596556 1.45873 0
M  V30 14830 C 1412.52 -0.177354 2.2751 0
M  V30 14831 C 1413.5 -0.883999 1.36471 0
M  V30 14832 O 1414.68 -0.895098 1.65892 0
M  V30 14833 C 1411.81 -1.25567 3.14564 0
M  V30 14834 C 1410.85 -0.653363 4.21466 0
M  V30 14835 S 1411.69 0.53036 5.32867 0
M  V30 14836 C 1412.84 -0.548817 6.23489 0
M  V30 14837 H 1413.08 0.515289 2.928 0
M  V30 14838 H 1410.61 0.383791 1.49554 0
M  V30 14839 H 1412.57 -1.87298 3.6528 0
M  V30 14840 H 1411.23 -1.92033 2.4856 0
M  V30 14841 H 1410.42 -1.46435 4.82258 0
M  V30 14842 H 1410.02 -0.111425 3.73834 0
M  V30 14843 H 1412.31 -1.43085 6.62218 0
M  V30 14844 H 1413.26 0.0226785 7.08096 0
M  V30 14845 H 1413.67 -0.859188 5.57923 0
M  V30 14846 N 1413.06 -1.53996 0.335095 0
M  V30 14847 C 1414.01 -2.24736 -0.52559 0
M  V30 14848 C 1414.98 -1.24244 -1.10239 0
M  V30 14849 O 1416.17 -1.52955 -1.14058 0
M  V30 14850 C 1413.31 -3.01732 -1.67487 0
M  V30 14851 C 1412.42 -4.17062 -1.1262 0
M  V30 14852 C 1411.55 -4.81563 -2.2421 0
M  V30 14853 C 1410.59 -5.88977 -1.6665 0
M  V30 14854 N 1409.73 -6.47293 -2.71949 0
M  V30 14855 H 1414.57 -2.97881 0.0842008 0
M  V30 14856 H 1412.11 -1.47003 0.0533254 0
M  V30 14857 H 1414.06 -3.44626 -2.35135 0
M  V30 14858 H 1412.69 -2.30899 -2.25578 0
M  V30 14859 H 1411.75 -3.78869 -0.340917 0
M  V30 14860 H 1413.06 -4.94346 -0.665113 0
M  V30 14861 H 1412.21 -5.27486 -2.9974 0
M  V30 14862 H 1410.95 -4.03685 -2.73659 0
M  V30 14863 H 1409.96 -5.42446 -0.89623 0
M  V30 14864 H 1411.18 -6.68758 -1.18064 0
M  V30 14865 H 1409.13 -5.72283 -3.20668 0
M  V30 14866 H 1409.04 -7.20024 -2.30438 0
M  V30 14867 H 1410.31 -6.97869 -3.47273 0
M  V30 14868 N 1414.54 -0.0635198 -1.57472 0
M  V30 14869 C 1415.49 0.906604 -2.12248 0
M  V30 14870 C 1416.46 1.30078 -1.0329 0
M  V30 14871 O 1417.64 1.38809 -1.30907 0
M  V30 14872 C 1414.78 2.1718 -2.68192 0
M  V30 14873 C 1413.9 1.831 -3.91278 0
M  V30 14874 C 1413.03 3.0417 -4.35493 0
M  V30 14875 C 1412.07 2.66069 -5.51248 0
M  V30 14876 N 1411.21 3.79871 -5.9046 0
M  V30 14877 H 1416.05 0.432606 -2.94843 0
M  V30 14878 H 1413.58 0.201895 -1.45708 0
M  V30 14879 H 1415.54 2.91231 -2.98732 0
M  V30 14880 H 1414.17 2.62135 -1.88375 0
M  V30 14881 H 1413.22 0.991473 -3.67252 0
M  V30 14882 H 1414.54 1.51063 -4.75375 0
M  V30 14883 H 1413.69 3.86507 -4.6765 0
M  V30 14884 H 1412.43 3.39395 -3.50232 0
M  V30 14885 H 1411.43 1.82151 -5.1875 0
M  V30 14886 H 1412.66 2.32023 -6.38234 0
M  V30 14887 H 1410.61 4.14873 -5.0815 0
M  V30 14888 H 1410.52 3.51573 -6.69277 0
M  V30 14889 H 1411.79 4.62811 -6.27237 0
M  V30 14890 N 1416.02 1.56195 0.209972 0
M  V30 14891 C 1417.3 1.70553 0.957653 0
M  V30 14892 C 1417.68 0.614091 2.01971 0
M  V30 14893 O 1417.02 -0.377192 2.25365 0
M  V30 14894 C 1417.23 3.12314 1.55759 0
M  V30 14895 C 1418.58 3.72085 2.04543 0
M  V30 14896 O 1419.61 3.15349 1.65631 0
M  V30 14897 O 1418.47 4.71627 2.76099 0
M  V30 14898 H 1415.56 0.695077 0.448104 0
M  V30 14899 H 1418.11 1.68507 0.20084 0
M  V30 14900 H 1416.88 3.83215 0.791302 0
M  V30 14901 H 1416.5 3.18526 2.37964 0
M  V30 14902 N 1417.5 -0.477127 1.50204 0
M  V30 14903 C 1418.43 -1.58405 1.71552 0
M  V30 14904 C 1419.41 -1.60463 0.564413 0
M  V30 14905 O 1420.59 -1.76826 0.802893 0
M  V30 14906 C 1417.72 -2.96765 1.8041 0
M  V30 14907 C 1416.68 -3.09573 2.95548 0
M  V30 14908 C 1416 -4.49522 2.89542 0
M  V30 14909 C 1417.3 -2.87356 4.36147 0
M  V30 14910 H 1419 -1.40792 2.64231 0
M  V30 14911 H 1416.54 -0.675886 1.27153 0
M  V30 14912 H 1418.5 -3.74125 1.9393 0
M  V30 14913 H 1417.22 -3.1552 0.843489 0
M  V30 14914 H 1415.88 -2.34645 2.81669 0
M  V30 14915 H 1415.53 -4.65186 1.91339 0
M  V30 14916 H 1415.23 -4.59028 3.66834 0
M  V30 14917 H 1416.75 -5.28909 3.05102 0
M  V30 14918 H 1418.17 -3.54469 4.50583 0
M  V30 14919 H 1416.56 -3.08313 5.14843 0
M  V30 14920 H 1417.63 -1.83264 4.48935 0
M  V30 14921 N 1418.98 -1.3968 -0.729882 0
M  V30 14922 C 1419.94 -1.38577 -1.82562 0
M  V30 14923 C 1420.94 -0.281994 -1.58308 0
M  V30 14924 O 1422.13 -0.540165 -1.65614 0
M  V30 14925 C 1419.26 -1.16343 -3.20433 0
M  V30 14926 H 1420.45 -2.36086 -1.84942 0
M  V30 14927 H 1418.01 -1.25319 -0.934063 0
M  V30 14928 H 1418.74 -0.195372 -3.23711 0
M  V30 14929 H 1418.53 -1.96282 -3.39435 0
M  V30 14930 H 1420.02 -1.18325 -4.00486 0
M  V30 14931 N 1420.45 0.960609 -1.2494 0
M  V30 14932 C 1421.68 1.73928 -1.12057 0
M  V30 14933 C 1422.1 1.8596 0.32623 0
M  V30 14934 O 1421.45 1.35303 1.22472 0
M  V30 14935 C 1421.51 3.15614 -1.76267 0
M  V30 14936 O 1421.23 3.04177 -3.15291 0
M  V30 14937 C 1422.73 4.09786 -1.69086 0
M  V30 14938 H 1419.95 0.5452 -0.39115 0
M  V30 14939 H 1422.49 1.20556 -1.65186 0
M  V30 14940 H 1420.65 3.65949 -1.27123 0
M  V30 14941 H 1421.06 3.93513 -3.46768 0
M  V30 14942 H 1422.53 5.06835 -2.18683 0
M  V30 14943 H 1423.01 4.34312 -0.653453 0
M  V30 14944 H 1423.62 3.65365 -2.1769 0
M  V30 14945 N 1421.93 1.0643 1.16234 0
M  V30 14946 C 1423.18 0.78184 1.86798 0
M  V30 14947 C 1423.51 -0.691734 1.81784 0
M  V30 14948 O 1422.76 -1.52271 1.22931 0
M  V30 14949 C 1423.06 1.22348 3.35806 0
M  V30 14950 C 1422.73 2.7014 3.61019 0
M  V30 14951 C 1421.39 3.1051 3.6761 0
M  V30 14952 C 1423.74 3.65582 3.71482 0
M  V30 14953 C 1421.07 4.45159 3.82165 0
M  V30 14954 C 1423.42 4.99981 3.87559 0
M  V30 14955 C 1422.09 5.39986 3.92392 0
M  V30 14956 H 1421.36 0.286096 0.683542 0
M  V30 14957 H 1424 1.33364 1.37427 0
M  V30 14958 H 1422.31 0.590896 3.87319 0
M  V30 14959 H 1424 0.981959 3.88791 0
M  V30 14960 H 1420.59 2.37884 3.56524 0
M  V30 14961 H 1424.78 3.35525 3.657 0
M  V30 14962 H 1420.03 4.75637 3.8416 0
M  V30 14963 H 1424.21 5.73817 3.94597 0
M  V30 14964 H 1421.84 6.44324 4.03423 0
M  V30 14965 N 1423.41 -1.329 0.847073 0
M  V30 14966 C 1424.34 -2.31546 0.301422 0
M  V30 14967 C 1425.32 -1.59342 -0.595317 0
M  V30 14968 O 1426.51 -1.87188 -0.517151 0
M  V30 14969 C 1423.64 -3.43423 -0.517454 0
M  V30 14970 C 1422.59 -4.27055 0.284195 0
M  V30 14971 C 1421.92 -5.30624 -0.658944 0
M  V30 14972 C 1423.22 -5.00123 1.50578 0
M  V30 14973 H 1424.91 -2.77433 1.12567 0
M  V30 14974 H 1422.46 -1.3338 0.542739 0
M  V30 14975 H 1424.41 -4.11467 -0.909543 0
M  V30 14976 H 1423.13 -2.96246 -1.37499 0
M  V30 14977 H 1421.79 -3.60648 0.657944 0
M  V30 14978 H 1421.44 -4.79702 -1.51311 0
M  V30 14979 H 1421.14 -5.87464 -0.12662 0
M  V30 14980 H 1422.66 -6.01533 -1.04837 0
M  V30 14981 H 1424.08 -5.6089 1.18641 0
M  V30 14982 H 1422.48 -5.66652 1.97549 0
M  V30 14983 H 1423.55 -4.28424 2.27115 0
M  V30 14984 N 1424.89 -0.604284 -1.45555 0
M  V30 14985 C 1426.12 -0.104301 -2.06337 0
M  V30 14986 C 1426.53 1.21523 -1.45013 0
M  V30 14987 O 1425.87 1.75039 -0.557422 0
M  V30 14988 C 1425.93 0.113202 -3.59322 0
M  V30 14989 C 1425.6 -1.12402 -4.42961 0
M  V30 14990 C 1426.59 -2.04136 -4.78147 0
M  V30 14991 C 1424.28 -1.35192 -4.83765 0
M  V30 14992 C 1426.27 -3.16991 -5.52988 0
M  V30 14993 C 1423.96 -2.48348 -5.5836 0
M  V30 14994 C 1424.96 -3.39076 -5.92888 0
M  V30 14995 O 1424.64 -4.50264 -6.65971 0
M  V30 14996 H 1424.38 -0.0644639 -0.672919 0
M  V30 14997 H 1426.93 -0.830982 -1.8784 0
M  V30 14998 H 1425.16 0.894739 -3.76206 0
M  V30 14999 H 1426.85 0.564372 -4.01957 0
M  V30 15000 H 1427.62 -1.87753 -4.47184 0
M  V30 15001 H 1423.49 -0.654731 -4.56327 0
M  V30 15002 H 1427.04 -3.87831 -5.79856 0
M  V30 15003 H 1422.94 -2.64686 -5.88737 0
M  V30 15004 H 1423.7 -4.48904 -6.84418 0
M  V30 15005 N 1426.37 1.53816 -0.343257 0
M  V30 15006 C 1427.32 2.21763 0.529635 0
M  V30 15007 C 1428.3 1.20494 1.06631 0
M  V30 15008 O 1429.49 1.46041 1.00006 0
M  V30 15009 C 1426.62 2.99372 1.68022 0
M  V30 15010 C 1425.71 4.07999 1.1575 0
M  V30 15011 N 1426.1 5.04546 0.355979 0
M  V30 15012 C 1424.4 4.22304 1.43442 0
M  V30 15013 C 1425.1 5.81655 0.0723481 0
M  V30 15014 N 1424.07 5.39531 0.66391 0
M  V30 15015 H 1427.88 2.93763 -0.0898087 0
M  V30 15016 H 1425.39 1.61705 -0.150107 0
M  V30 15017 H 1427.39 3.4655 2.31752 0
M  V30 15018 H 1426.05 2.28899 2.30294 0
M  V30 15019 H 1427.06 5.179 -0.00291228 0
M  V30 15020 H 1423.73 3.63051 2.06155 0
M  V30 15021 H 1425.12 6.69442 -0.574192 0
M  V30 15022 N 1427.84 0.0718701 1.57436 0
M  V30 15023 C 1428.77 -0.89288 2.15754 0
M  V30 15024 C 1429.76 -1.31036 1.0846 0
M  V30 15025 O 1430.94 -1.38139 1.36496 0
M  V30 15026 C 1428.07 -2.16044 2.71923 0
M  V30 15027 C 1427.02 -1.88236 3.84384 0
M  V30 15028 C 1426.35 -3.21624 4.27156 0
M  V30 15029 C 1427.65 -1.18758 5.0862 0
M  V30 15030 H 1429.34 -0.407061 2.9662 0
M  V30 15031 H 1426.89 -0.194354 1.42682 0
M  V30 15032 H 1428.84 -2.83952 3.11366 0
M  V30 15033 H 1427.57 -2.66868 1.88279 0
M  V30 15034 H 1426.23 -1.22734 3.45445 0
M  V30 15035 H 1425.87 -3.70289 3.40433 0
M  V30 15036 H 1425.57 -3.03809 5.02965 0
M  V30 15037 H 1427.1 -3.90729 4.69215 0
M  V30 15038 H 1428.51 -1.76735 5.45378 0
M  V30 15039 H 1426.91 -1.11201 5.89707 0
M  V30 15040 H 1427.98 -0.166682 4.84613 0
M  V30 15041 N 1429.32 -1.56304 -0.201686 0
M  V30 15042 C 1430.74 -1.49741 -0.552247 0
M  V30 15043 C 1430.94 -0.770683 -1.86179 0
M  V30 15044 O 1429.99 -0.318489 -2.50483 0
M  V30 15045 C 1431.31 -2.94384 -0.613083 0
M  V30 15046 C 1432.86 -3.05018 -0.702365 0
M  V30 15047 C 1433.33 -4.51058 -0.794371 0
M  V30 15048 N 1434.82 -4.55183 -0.858072 0
M  V30 15049 C 1435.56 -5.65487 -0.949317 0
M  V30 15050 N 1435.05 -6.85497 -1.00327 0
M  V30 15051 N 1436.85 -5.53385 -0.985995 0
M  V30 15052 H 1429 -2.01971 0.657394 0
M  V30 15053 H 1431.26 -0.918839 0.233322 0
M  V30 15054 H 1430.97 -3.50584 0.279921 0
M  V30 15055 H 1430.84 -3.47376 -1.47002 0
M  V30 15056 H 1433.23 -2.4887 -1.5858 0
M  V30 15057 H 1433.31 -2.55161 0.180636 0
M  V30 15058 H 1432.95 -5.07829 0.0846883 0
M  V30 15059 H 1432.88 -4.98641 -1.69308 0
M  V30 15060 H 1435.37 -3.68765 -0.825888 0
M  V30 15061 H 1435.69 -7.65312 -1.07322 0
M  V30 15062 H 1434.03 -6.88169 -0.972061 0
M  V30 15063 H 1437.22 -4.58552 -0.940635 0
M  V30 15064 H 1437.39 -6.39376 -1.05365 0
M  V30 15065 N 1430.8 0.469154 -1.50455 0
M  V30 15066 C 1432.05 1.21788 -1.60781 0
M  V30 15067 C 1432.36 1.93054 -0.314576 0
M  V30 15068 O 1433.57 2.69873 -0.296773 0
M  V30 15069 C 1432.02 2.21305 -2.83817 0
M  V30 15070 C 1431.63 1.55833 -4.20024 0
M  V30 15071 C 1433.38 2.96808 -3.03489 0
M  V30 15072 C 1431.28 2.53648 -5.34244 0
M  V30 15073 H 1430.21 0.45827 -0.598752 0
M  V30 15074 H 1432.86 0.488159 -1.76888 0
M  V30 15075 H 1431.25 2.97577 -2.61273 0
M  V30 15076 H 1432.42 0.853371 -4.52829 0
M  V30 15077 H 1430.74 0.926046 -4.05972 0
M  V30 15078 H 1433.33 3.70017 -3.85994 0
M  V30 15079 H 1433.68 3.56307 -2.15293 0
M  V30 15080 H 1434.21 2.27648 -3.26223 0
M  V30 15081 H 1430.95 1.98885 -6.246 0
M  V30 15082 H 1430.47 3.22291 -5.05854 0
M  V30 15083 H 1432.15 3.15438 -5.64897 0
M  V30 15084 N 1432.28 1.40065 0.722464 0
M  V30 15085 C 1433.19 1.42086 1.86678 0
M  V30 15086 C 1434.2 0.314223 1.71139 0
M  V30 15087 O 1435.38 0.55771 1.93524 0
M  V30 15088 C 1432.45 1.27498 3.22405 0
M  V30 15089 C 1431.51 2.48243 3.50248 0
M  V30 15090 C 1430.74 2.34342 4.79499 0
M  V30 15091 O 1430.96 1.35355 5.54108 0
M  V30 15092 O 1429.9 3.23579 5.07523 0
M  V30 15093 H 1433.72 2.38571 1.87929 0
M  V30 15094 H 1431.31 1.21314 0.871968 0
M  V30 15095 H 1433.19 1.21543 4.03491 0
M  V30 15096 H 1431.86 0.341141 3.21897 0
M  V30 15097 H 1430.77 2.59775 2.69199 0
M  V30 15098 H 1432.1 3.40364 3.55547 0
M  V30 15099 N 1433.76 -0.95397 1.25448 0
M  V30 15100 C 1434.72 -2.03231 1.0597 0
M  V30 15101 C 1435.72 -1.60795 0.0122855 0
M  V30 15102 O 1436.91 -1.7233 0.254533 0
M  V30 15103 C 1434.04 -3.35414 0.609105 0
M  V30 15104 H 1435.24 -2.21943 2.01696 0
M  V30 15105 H 1432.79 -1.13115 1.07864 0
M  V30 15106 H 1433.52 -3.22398 -0.350723 0
M  V30 15107 H 1433.31 -3.67564 1.36526 0
M  V30 15108 H 1434.8 -4.14664 0.49428 0
M  V30 15109 N 1435.24 -1.07045 -1.15668 0
M  V30 15110 C 1436.15 -0.699332 -2.23934 0
M  V30 15111 C 1437.16 0.288036 -1.71599 0
M  V30 15112 O 1438.34 0.135447 -2.00944 0
M  V30 15113 C 1435.4 -0.0994775 -3.46557 0
M  V30 15114 C 1434.46 -1.13968 -4.13896 0
M  V30 15115 C 1433.7 -0.56836 -5.30665 0
M  V30 15116 O 1433.92 0.616556 -5.67058 0
M  V30 15117 O 1432.85 -1.31174 -5.87432 0
M  V30 15118 H 1436.68 -1.60212 -2.58003 0
M  V30 15119 H 1434.26 -0.843202 -1.23331 0
M  V30 15120 H 1436.15 0.23293 -4.20756 0
M  V30 15121 H 1434.82 0.776684 -3.14244 0
M  V30 15122 H 1433.73 -1.5244 -3.41633 0
M  V30 15123 H 1435.06 -1.98764 -4.50282 0
M  V30 15124 N 1436.71 1.32449 -0.85411 0
M  V30 15125 C 1437.96 1.97563 -0.4579 0
M  V30 15126 C 1438.29 1.67435 0.983835 0
M  V30 15127 O 1437.57 0.962292 1.69027 0
M  V30 15128 C 1437.85 3.53292 -0.69688 0
M  V30 15129 C 1437.7 3.93053 -2.18699 0
M  V30 15130 C 1439.02 4.39834 -0.152917 0
M  V30 15131 H 1436.14 0.717634 -0.167842 0
M  V30 15132 H 1438.78 1.5684 -1.07243 0
M  V30 15133 H 1436.93 3.88111 -0.173807 0
M  V30 15134 H 1438.61 3.68416 -2.7761 0
M  V30 15135 H 1436.85 3.42232 -2.6657 0
M  V30 15136 H 1437.52 5.01576 -2.3049 0
M  V30 15137 H 1440 4.11748 -0.600216 0
M  V30 15138 H 1438.87 5.47785 -0.349703 0
M  V30 15139 H 1439.13 4.31898 0.944276 0
M  V30 15140 N 1438.19 0.611994 1.45232 0
M  V30 15141 C 1439.1 -0.105981 2.3436 0
M  V30 15142 C 1440.12 -0.855785 1.515 0
M  V30 15143 O 1441.29 -0.812376 1.84289 0
M  V30 15144 C 1438.36 -1.08794 3.29188 0
M  V30 15145 C 1437.42 -0.339611 4.27955 0
M  V30 15146 C 1436.65 -1.27479 5.18252 0
M  V30 15147 O 1436.88 -2.51279 5.12069 0
M  V30 15148 O 1435.81 -0.769469 5.96961 0
M  V30 15149 H 1439.64 0.626584 2.97166 0
M  V30 15150 H 1437.22 0.37224 1.44688 0
M  V30 15151 H 1439.1 -1.65338 3.8761 0
M  V30 15152 H 1437.78 -1.80145 2.68941 0
M  V30 15153 H 1436.68 0.268408 3.73136 0
M  V30 15154 H 1438.02 0.333501 4.91069 0
M  V30 15155 N 1439.67 -1.53632 0.351409 0
M  V30 15156 C 1440.92 -2.01338 -0.243047 0
M  V30 15157 C 1441.25 -1.23864 -1.4957 0
M  V30 15158 O 1440.52 -0.328412 -1.91707 0
M  V30 15159 C 1440.81 -3.55886 -0.549284 0
M  V30 15160 C 1440.66 -4.44064 0.716016 0
M  V30 15161 C 1441.98 -4.18699 -1.35569 0
M  V30 15162 H 1439.1 -0.731863 -0.0868627 0
M  V30 15163 H 1441.74 -1.84005 0.473501 0
M  V30 15164 H 1439.89 -3.70787 -1.15972 0
M  V30 15165 H 1441.56 -4.40987 1.35383 0
M  V30 15166 H 1439.8 -4.12608 1.3393 0
M  V30 15167 H 1440.48 -5.50106 0.456895 0
M  V30 15168 H 1442.95 -4.07545 -0.839441 0
M  V30 15169 H 1441.83 -5.26892 -1.53871 0
M  V30 15170 H 1442.09 -3.73834 -2.3601 0
M  V30 15171 N 1441.15 -0.0802183 -1.57396 0
M  V30 15172 C 1442.39 0.587831 -1.94094 0
M  V30 15173 C 1442.73 1.6875 -0.961093 0
M  V30 15174 O 1442 1.94498 0.00832799 0
M  V30 15175 C 1442.28 1.15692 -3.41009 0
M  V30 15176 C 1442.14 0.0633211 -4.49755 0
M  V30 15177 C 1443.46 2.05987 -3.88918 0
M  V30 15178 H 1440.58 0.212214 -0.705786 0
M  V30 15179 H 1443.22 -0.147902 -1.89423 0
M  V30 15180 H 1441.37 1.78394 -3.4512 0
M  V30 15181 H 1443.04 -0.57019 -4.57763 0
M  V30 15182 H 1441.28 -0.605003 -4.2956 0
M  V30 15183 H 1441.95 0.502056 -5.49712 0
M  V30 15184 H 1444.43 1.5321 -3.86867 0
M  V30 15185 H 1443.31 2.42737 -4.92311 0
M  V30 15186 H 1443.57 2.97147 -3.27347 0
M  V30 15187 N 1442.63 1.56409 0.193394 0
M  V30 15188 C 1443.54 1.97886 1.26009 0
M  V30 15189 C 1444.55 0.886786 1.49707 0
M  V30 15190 O 1445.73 1.19267 1.62288 0
M  V30 15191 C 1442.79 2.31145 2.58404 0
M  V30 15192 C 1441.85 3.54069 2.42763 0
M  V30 15193 C 1441.09 3.85732 3.68845 0
M  V30 15194 O 1441.31 3.18662 4.73086 0
M  V30 15195 O 1440.24 4.79155 3.64272 0
M  V30 15196 H 1444.07 2.88849 0.938087 0
M  V30 15197 H 1441.65 1.43987 0.398528 0
M  V30 15198 H 1443.54 2.53606 3.36544 0
M  V30 15199 H 1442.21 1.4335 2.90228 0
M  V30 15200 H 1441.12 3.36854 1.62728 0
M  V30 15201 H 1442.45 4.42335 2.15871 0
M  V30 15202 N 1444.1 -0.461169 1.50702 0
M  V30 15203 C 1445.04 -1.57702 1.64941 0
M  V30 15204 C 1446.01 -1.54808 0.497312 0
M  V30 15205 O 1447.2 -1.74286 0.718104 0
M  V30 15206 C 1444.33 -2.96285 1.64112 0
M  V30 15207 C 1443.37 -3.17296 2.85001 0
M  V30 15208 S 1444.2 -2.96134 4.46167 0
M  V30 15209 C 1445.36 -4.37042 4.48046 0
M  V30 15210 H 1445.59 -1.45386 2.59327 0
M  V30 15211 H 1443.13 -0.649209 1.40088 0
M  V30 15212 H 1445.08 -3.76178 1.64318 0
M  V30 15213 H 1443.75 -3.05983 0.709442 0
M  V30 15214 H 1442.94 -4.18561 2.80754 0
M  V30 15215 H 1442.54 -2.45191 2.82413 0
M  V30 15216 H 1444.83 -5.29846 4.2222 0
M  V30 15217 H 1445.78 -4.4633 5.49723 0
M  V30 15218 H 1446.18 -4.19584 3.77637 0
M  V30 15219 N 1445.58 -1.40446 -0.715026 0
M  V30 15220 C 1446.53 -1.37235 -1.82073 0
M  V30 15221 C 1447.52 -0.249808 -1.58949 0
M  V30 15222 O 1448.71 -0.488958 -1.70112 0
M  V30 15223 C 1445.84 -1.23786 -3.20206 0
M  V30 15224 C 1444.92 -2.40824 -3.49091 0
M  V30 15225 N 1445.31 -3.66305 -3.4879 0
M  V30 15226 C 1443.61 -2.34215 -3.79551 0
M  V30 15227 C 1444.31 -4.43817 -3.76034 0
M  V30 15228 N 1443.29 -3.73664 -3.94811 0
M  V30 15229 H 1447.09 -2.32195 -1.80174 0
M  V30 15230 H 1444.6 -1.34226 -0.914175 0
M  V30 15231 H 1446.6 -1.19568 -3.99386 0
M  V30 15232 H 1445.26 -0.297938 -3.2333 0
M  V30 15233 H 1446.27 -3.99458 -3.29626 0
M  V30 15234 H 1442.95 -1.48592 -3.90162 0
M  V30 15235 H 1444.34 -5.52674 -3.82101 0
M  V30 15236 N 1447.06 0.947303 -1.25952 0
M  V30 15237 C 1448.34 1.66964 -1.01894 0
M  V30 15238 C 1448.72 2.06192 0.452555 0
M  V30 15239 O 1448.06 1.78098 1.43156 0
M  V30 15240 C 1448.27 2.88643 -1.96179 0
M  V30 15241 C 1449.62 3.60432 -2.24441 0
M  V30 15242 O 1450.65 2.98737 -1.93996 0
M  V30 15243 O 1449.51 4.7154 -2.76247 0
M  V30 15244 H 1446.6 0.730875 -0.386976 0
M  V30 15245 H 1449.15 0.999577 -1.37137 0
M  V30 15246 H 1447.92 2.565 -2.95506 0
M  V30 15247 H 1447.54 3.63377 -1.61379 0
M  V30 15248 N 1448.54 1.07657 1.15099 0
M  V30 15249 C 1449.76 0.82291 1.90376 0
M  V30 15250 C 1450.19 -0.618415 1.77644 0
M  V30 15251 O 1449.55 -1.43248 1.11129 0
M  V30 15252 C 1449.59 1.23988 3.38614 0
M  V30 15253 O 1448.7 0.387085 4.10579 0
M  V30 15254 H 1448.04 0.299532 0.592602 0
M  V30 15255 H 1450.57 1.436 1.4574 0
M  V30 15256 H 1450.58 1.21741 3.89414 0
M  V30 15257 H 1449.25 2.28966 3.472 0
M  V30 15258 H 1447.83 0.472311 3.69897 0
M  V30 15259 N 1450.02 -1.31994 0.861122 0
M  V30 15260 C 1451.29 -1.91699 0.388705 0
M  V30 15261 C 1451.67 -1.78412 -1.12838 0
M  V30 15262 O 1451.02 -1.18625 -1.95296 0
M  V30 15263 C 1451.23 -3.38232 0.860248 0
M  V30 15264 C 1452.58 -4.15355 0.881201 0
M  V30 15265 O 1453.6 -3.46977 0.805313 0
M  V30 15266 O 1452.46 -5.37468 0.98945 0
M  V30 15267 H 1449.56 -0.819017 0.114629 0
M  V30 15268 H 1452.1 -1.40721 0.94845 0
M  V30 15269 H 1450.87 -3.41876 1.9036 0
M  V30 15270 H 1450.5 -3.96625 0.278316 0
M  V30 15271 N 1451.49 -0.619688 -1.44906 0
M  V30 15272 C 1452.74 -0.117147 -2.0136 0
M  V30 15273 C 1453.06 1.2644 -1.49239 0
M  V30 15274 O 1454.26 1.86034 -1.97747 0
M  V30 15275 C 1452.72 -0.15871 -3.5955 0
M  V30 15276 C 1452.33 -1.54086 -4.20668 0
M  V30 15277 C 1454.07 0.287961 -4.23522 0
M  V30 15278 C 1451.98 -1.53816 -5.71047 0
M  V30 15279 H 1450.91 -0.040028 -0.752937 0
M  V30 15280 H 1453.56 -0.776802 -1.66247 0
M  V30 15281 H 1451.94 0.56783 -3.91908 0
M  V30 15282 H 1453.11 -2.29007 -3.99865 0
M  V30 15283 H 1451.43 -1.93065 -3.68938 0
M  V30 15284 H 1454.03 0.309351 -5.33804 0
M  V30 15285 H 1454.37 1.31305 -3.9505 0
M  V30 15286 H 1454.9 -0.385707 -3.95926 0
M  V30 15287 H 1451.64 -2.54124 -6.04236 0
M  V30 15288 H 1451.16 -0.831708 -5.94006 0
M  V30 15289 H 1452.84 -1.26708 -6.34472 0
M  V30 15290 N 1452.97 1.53444 -0.359552 0
M  V30 15291 C 1454.2 2.06058 0.235576 0
M  V30 15292 C 1454.62 1.23175 1.42161 0
M  V30 15293 O 1453.98 0.249338 1.79577 0
M  V30 15294 C 1454.03 3.55351 0.613025 0
M  V30 15295 O 1453.13 3.75229 1.71104 0
M  V30 15296 H 1452.47 0.663038 0.0357266 0
M  V30 15297 H 1455 1.97923 -0.518408 0
M  V30 15298 H 1455.01 3.9827 0.885722 0
M  V30 15299 H 1453.69 4.15122 -0.254243 0
M  V30 15300 H 1452.27 3.4421 1.43437 0
M  V30 15301 N 1454.45 0.0885642 1.57351 0
M  V30 15302 C 1455.41 -0.858178 2.12528 0
M  V30 15303 C 1456.41 -1.21522 1.05304 0
M  V30 15304 O 1457.6 -1.14573 1.3122 0
M  V30 15305 C 1454.74 -2.15619 2.64048 0
M  V30 15306 H 1455.93 -0.37918 2.97493 0
M  V30 15307 H 1453.48 -0.160354 1.55475 0
M  V30 15308 H 1454.22 -2.68018 1.82584 0
M  V30 15309 H 1454 -1.90995 3.42437 0
M  V30 15310 H 1455.49 -2.83359 3.06753 0
M  V30 15311 N 1455.93 -1.56509 -0.185096 0
M  V30 15312 C 1457.16 -1.85058 -0.918527 0
M  V30 15313 C 1457.57 -0.670181 -1.76933 0
M  V30 15314 O 1456.91 0.370215 -1.79931 0
M  V30 15315 C 1456.97 -3.07843 -1.85669 0
M  V30 15316 C 1456.64 -4.41319 -1.18686 0
M  V30 15317 C 1457.63 -5.16887 -0.558946 0
M  V30 15318 C 1455.32 -4.88056 -1.18773 0
M  V30 15319 C 1457.31 -6.37373 0.0591595 0
M  V30 15320 C 1455 -6.08475 -0.565791 0
M  V30 15321 C 1456 -6.82977 0.0565621 0
M  V30 15322 O 1455.68 -8.01114 0.668726 0
M  V30 15323 H 1455.42 -0.618423 -0.273001 0
M  V30 15324 H 1457.97 -2.04479 -0.194261 0
M  V30 15325 H 1456.2 -2.84332 -2.62092 0
M  V30 15326 H 1457.89 -3.22954 -2.45877 0
M  V30 15327 H 1458.66 -4.81867 -0.550347 0
M  V30 15328 H 1454.53 -4.30016 -1.66154 0
M  V30 15329 H 1458.08 -6.95464 0.545534 0
M  V30 15330 H 1453.98 -6.42961 -0.571927 0
M  V30 15331 H 1454.74 -8.16536 0.566616 0
M  V30 15332 N 1457.41 0.45317 -1.50944 0
M  V30 15333 C 1458.63 1.22672 -1.66611 0
M  V30 15334 C 1459.05 1.85398 -0.356814 0
M  V30 15335 O 1458.41 1.70026 0.663122 0
M  V30 15336 C 1458.46 2.32238 -2.77034 0
M  V30 15337 O 1458.18 1.72081 -4.02889 0
M  V30 15338 C 1459.68 3.22802 -3.03832 0
M  V30 15339 H 1456.9 0.370337 -0.559546 0
M  V30 15340 H 1459.44 0.538884 -1.97272 0
M  V30 15341 H 1457.6 2.96765 -2.49017 0
M  V30 15342 H 1458.01 2.4437 -4.64095 0
M  V30 15343 H 1459.49 3.95851 -3.84716 0
M  V30 15344 H 1459.96 3.82636 -2.15608 0
M  V30 15345 H 1460.57 2.63993 -3.33449 0
M  V30 15346 N 1458.88 1.40823 0.707568 0
M  V30 15347 C 1460.11 1.42659 1.49439 0
M  V30 15348 C 1460.52 0.0268475 1.89181 0
M  V30 15349 O 1459.87 -0.961444 1.56531 0
M  V30 15350 C 1459.93 2.26104 2.79494 0
M  V30 15351 C 1459.59 3.7442 2.62027 0
M  V30 15352 C 1460.59 4.66867 2.28759 0
M  V30 15353 C 1458.27 4.18328 2.78042 0
M  V30 15354 C 1460.27 6.01208 2.11727 0
M  V30 15355 C 1457.95 5.52736 2.60627 0
M  V30 15356 C 1458.95 6.43991 2.27518 0
M  V30 15357 O 1458.64 7.75921 2.10243 0
M  V30 15358 H 1458.37 0.488307 0.467475 0
M  V30 15359 H 1460.93 1.85607 0.879719 0
M  V30 15360 H 1459.16 1.77949 3.43323 0
M  V30 15361 H 1460.85 2.19785 3.41247 0
M  V30 15362 H 1461.61 4.34239 2.16012 0
M  V30 15363 H 1457.49 3.47612 3.02798 0
M  V30 15364 H 1461.03 6.724 1.85807 0
M  V30 15365 H 1456.93 5.84947 2.7296 0
M  V30 15366 H 1457.7 7.86938 2.251 0
M  V30 15367 N 1460.36 -0.94061 1.26453 0
M  V30 15368 C 1461.27 -2.07298 1.09839 0
M  V30 15369 C 1462.29 -1.73971 0.0317477 0
M  V30 15370 O 1463.46 -2.00017 0.235594 0
M  V30 15371 C 1460.53 -3.38847 0.733736 0
M  V30 15372 C 1459.59 -3.85954 1.87985 0
M  V30 15373 C 1458.82 -5.11224 1.5325 0
M  V30 15374 O 1459.05 -5.68743 0.434491 0
M  V30 15375 O 1457.98 -5.53386 2.36743 0
M  V30 15376 H 1461.81 -2.24222 2.04837 0
M  V30 15377 H 1459.39 -1.05763 1.0552 0
M  V30 15378 H 1461.27 -4.17885 0.543131 0
M  V30 15379 H 1459.95 -3.2316 -0.186843 0
M  V30 15380 H 1458.86 -3.07858 2.12542 0
M  V30 15381 H 1460.19 -4.06162 2.78017 0
M  V30 15382 N 1461.84 -1.08266 -1.14527 0
M  V30 15383 C 1463.26 -0.810001 -1.37518 0
M  V30 15384 C 1463.46 0.581399 -1.9293 0
M  V30 15385 O 1462.51 1.33846 -2.14107 0
M  V30 15386 C 1463.83 -1.89149 -2.33759 0
M  V30 15387 C 1465.37 -1.91733 -2.47401 0
M  V30 15388 C 1465.85 -2.98992 -3.4694 0
M  V30 15389 N 1467.34 -2.98155 -3.54483 0
M  V30 15390 C 1468.07 -3.77791 -4.31349 0
M  V30 15391 N 1467.57 -4.67302 -5.11469 0
M  V30 15392 N 1469.36 -3.66099 -4.2653 0
M  V30 15393 H 1461.51 -1.97988 -0.769048 0
M  V30 15394 H 1463.78 -0.859115 -0.40078 0
M  V30 15395 H 1463.48 -2.89175 -2.00176 0
M  V30 15396 H 1463.36 -1.75955 -3.33646 0
M  V30 15397 H 1465.74 -0.923531 -2.80276 0
M  V30 15398 H 1465.83 -2.09005 -1.4748 0
M  V30 15399 H 1465.47 -3.98578 -3.14799 0
M  V30 15400 H 1465.4 -2.78965 -4.46639 0
M  V30 15401 H 1467.89 -2.33277 -2.97305 0
M  V30 15402 H 1468.2 -5.24676 -5.67393 0
M  V30 15403 H 1466.55 -4.71345 -5.10743 0
M  V30 15404 H 1469.74 -2.95539 -3.63008 0
M  V30 15405 H 1469.91 -4.28402 -4.86185 0
M  V30 15406 N 1463.32 1.31536 -0.86811 0
M  V30 15407 C 1464.55 2.00952 -0.492529 0
M  V30 15408 C 1464.96 1.65174 0.914487 0
M  V30 15409 O 1464.32 0.880002 1.59882 0
M  V30 15410 C 1464.37 3.55829 -0.637798 0
M  V30 15411 O 1464.09 3.90326 -1.9894 0
M  V30 15412 C 1465.59 4.42519 -0.262986 0
M  V30 15413 H 1462.81 0.642913 -0.192105 0
M  V30 15414 H 1465.36 1.6781 -1.16876 0
M  V30 15415 H 1463.51 3.87399 -0.0091406 0
M  V30 15416 H 1463.93 4.85043 -1.99583 0
M  V30 15417 H 1465.4 5.50433 -0.415591 0
M  V30 15418 H 1465.88 4.31895 0.797705 0
M  V30 15419 H 1466.48 4.16363 -0.867268 0
M  V30 15420 N 1464.8 0.627364 1.44575 0
M  V30 15421 C 1465.73 -0.066735 2.33405 0
M  V30 15422 C 1466.71 -0.838666 1.47988 0
M  V30 15423 O 1467.89 -0.805296 1.76716 0
M  V30 15424 C 1465.02 -1.05148 3.31 0
M  V30 15425 C 1463.98 -0.391433 4.26206 0
M  V30 15426 C 1463.3 -1.48581 5.13642 0
M  V30 15427 C 1464.6 0.699942 5.17589 0
M  V30 15428 H 1466.3 0.675029 2.91691 0
M  V30 15429 H 1463.84 0.326066 1.4026 0
M  V30 15430 H 1465.8 -1.54576 3.92026 0
M  V30 15431 H 1464.52 -1.82408 2.70915 0
M  V30 15432 H 1463.18 0.0821694 3.66508 0
M  V30 15433 H 1462.83 -2.2492 4.49911 0
M  V30 15434 H 1462.53 -1.04957 5.7815 0
M  V30 15435 H 1464.05 -1.98198 5.77538 0
M  V30 15436 H 1465.47 0.288911 5.72572 0
M  V30 15437 H 1463.86 1.0591 5.9068 0
M  V30 15438 H 1464.93 1.5686 4.58828 0
M  V30 15439 N 1466.28 -1.53251 0.367684 0
M  V30 15440 C 1467.21 -2.22163 -0.521418 0
M  V30 15441 C 1468.19 -1.21433 -1.08133 0
M  V30 15442 O 1469.37 -1.50343 -1.13706 0
M  V30 15443 C 1466.5 -2.91799 -1.71962 0
M  V30 15444 C 1465.54 -4.0662 -1.28696 0
M  V30 15445 S 1466.38 -5.34733 -0.286505 0
M  V30 15446 C 1467.53 -6.07882 -1.49099 0
M  V30 15447 H 1467.77 -2.97231 0.0638317 0
M  V30 15448 H 1465.3 -1.53652 0.151795 0
M  V30 15449 H 1467.26 -3.32533 -2.40691 0
M  V30 15450 H 1465.92 -2.16451 -2.27613 0
M  V30 15451 H 1465.11 -4.54366 -2.181 0
M  V30 15452 H 1464.71 -3.67787 -0.67887 0
M  V30 15453 H 1467 -6.32741 -2.42167 0
M  V30 15454 H 1467.95 -7.00199 -1.05487 0
M  V30 15455 H 1468.36 -5.38357 -1.698 0
M  V30 15456 N 1467.75 -0.0969077 -1.57302 0
M  V30 15457 C 1468.69 0.898042 -2.09787 0
M  V30 15458 C 1469.66 1.27518 -1.00886 0
M  V30 15459 O 1470.85 1.3801 -1.28396 0
M  V30 15460 C 1467.98 2.19868 -2.57635 0
M  V30 15461 C 1467.02 1.97127 -3.7821 0
M  V30 15462 S 1467.85 1.20763 -5.21705 0
M  V30 15463 C 1469.01 2.52054 -5.72905 0
M  V30 15464 H 1469.24 0.451544 -2.93851 0
M  V30 15465 H 1466.78 0.116417 -1.5396 0
M  V30 15466 H 1468.73 2.9461 -2.85859 0
M  V30 15467 H 1467.4 2.61639 -1.73793 0
M  V30 15468 H 1466.59 2.93445 -4.09763 0
M  V30 15469 H 1466.19 1.30515 -3.50488 0
M  V30 15470 H 1468.48 3.4802 -5.81282 0
M  V30 15471 H 1469.43 2.25077 -6.71376 0
M  V30 15472 H 1469.83 2.6041 -5.00846 0
M  V30 15473 N 1469.23 1.56605 0.176793 0
M  V30 15474 C 1470.14 1.99211 1.23903 0
M  V30 15475 C 1471.16 0.902614 1.48758 0
M  V30 15476 O 1472.33 1.20982 1.61014 0
M  V30 15477 C 1469.4 2.33873 2.55938 0
M  V30 15478 C 1468.46 3.56624 2.38994 0
M  V30 15479 C 1467.69 3.89623 3.64733 0
M  V30 15480 O 1467.92 3.23662 4.6968 0
M  V30 15481 O 1466.85 4.82992 3.5917 0
M  V30 15482 H 1470.68 2.89827 0.907398 0
M  V30 15483 H 1468.26 1.44401 0.383234 0
M  V30 15484 H 1470.14 2.57161 3.33836 0
M  V30 15485 H 1468.82 1.46421 2.88691 0
M  V30 15486 H 1467.72 3.38561 1.59146 0
M  V30 15487 H 1469.06 4.446 2.11167 0
M  V30 15488 N 1470.71 -0.445159 1.51182 0
M  V30 15489 C 1471.64 -1.55788 1.68115 0
M  V30 15490 C 1472.65 -1.52793 0.561964 0
M  V30 15491 O 1473.84 -1.57711 0.836029 0
M  V30 15492 C 1470.94 -2.94702 1.67344 0
M  V30 15493 C 1470.12 -3.22286 2.9572 0
M  V30 15494 C 1469.18 -4.40884 2.87241 0
M  V30 15495 O 1468.2 -4.3992 3.61191 0
M  V30 15496 N 1469.4 -5.44013 2.02558 0
M  V30 15497 H 1472.17 -1.4167 2.64102 0
M  V30 15498 H 1469.73 -0.633984 1.48971 0
M  V30 15499 H 1471.72 -3.7205 1.5925 0
M  V30 15500 H 1470.29 -3.02457 0.789842 0
M  V30 15501 H 1469.51 -2.33309 3.17743 0
M  V30 15502 H 1470.8 -3.3754 3.80715 0
M  V30 15503 H 1470.2 -5.47629 1.4184 0
M  V30 15504 H 1468.75 -6.20245 2.0035 0
M  V30 15505 N 1472.19 -1.41197 -0.700089 0
M  V30 15506 C 1473.6 -1.23567 -1.01012 0
M  V30 15507 C 1473.8 -0.121821 -2.01131 0
M  V30 15508 O 1472.86 0.515258 -2.47187 0
M  V30 15509 C 1474.17 -2.58329 -1.53904 0
M  V30 15510 C 1475.72 -2.65473 -1.65811 0
M  V30 15511 C 1476.2 -4.00541 -2.22106 0
M  V30 15512 N 1477.69 -4.02364 -2.29472 0
M  V30 15513 C 1478.42 -5.03672 -2.74048 0
M  V30 15514 N 1477.92 -6.15371 -3.18262 0
M  V30 15515 N 1479.71 -4.91035 -2.73571 0
M  V30 15516 H 1471.86 -2.12368 -0.0367488 0
M  V30 15517 H 1474.12 -0.944713 -0.0788795 0
M  V30 15518 H 1473.83 -3.40565 -0.877964 0
M  V30 15519 H 1473.7 -2.805 -2.5219 0
M  V30 15520 H 1476.09 -1.83598 -2.31032 0
M  V30 15521 H 1476.17 -2.47117 -0.660831 0
M  V30 15522 H 1475.82 -4.82862 -1.57502 0
M  V30 15523 H 1475.75 -4.16235 -3.22577 0
M  V30 15524 H 1478.24 -3.21713 -1.98265 0
M  V30 15525 H 1478.55 -6.88548 -3.50888 0
M  V30 15526 H 1476.9 -6.18914 -3.16182 0
M  V30 15527 H 1480.09 -4.02858 -2.38376 0
M  V30 15528 H 1480.26 -5.70127 -3.07993 0
M  V30 15529 N 1473.67 0.933891 -1.2695 0
M  V30 15530 C 1474.89 1.72042 -1.15828 0
M  V30 15531 C 1475.32 1.85975 0.28193 0
M  V30 15532 O 1474.67 1.35528 1.20423 0
M  V30 15533 C 1474.72 3.10112 -1.84019 0
M  V30 15534 O 1473.83 3.96504 -1.13394 0
M  V30 15535 H 1473.17 0.527573 -0.40319 0
M  V30 15536 H 1475.7 1.16914 -1.67905 0
M  V30 15537 H 1475.71 3.60461 -1.91133 0
M  V30 15538 H 1474.38 2.99287 -2.8879 0
M  V30 15539 H 1472.96 3.54948 -1.14307 0
M  V30 15540 N 1475.14 1.08871 1.13951 0
M  V30 15541 C 1476.08 0.680849 2.18854 0
M  V30 15542 C 1477.09 -0.274456 1.6047 0
M  V30 15543 O 1478.28 -0.0613804 1.78394 0
M  V30 15544 C 1475.38 -0.0182788 3.38895 0
M  V30 15545 C 1474.55 0.957125 4.268 0
M  V30 15546 C 1473.61 0.29245 5.25387 0
M  V30 15547 O 1472.64 0.938329 5.61413 0
M  V30 15548 N 1473.84 -0.955738 5.72578 0
M  V30 15549 H 1476.6 1.58334 2.54461 0
M  V30 15550 H 1474.16 0.975417 1.29218 0
M  V30 15551 H 1476.16 -0.474001 4.01915 0
M  V30 15552 H 1474.73 -0.822932 3.01574 0
M  V30 15553 H 1473.95 1.59156 3.60642 0
M  V30 15554 H 1475.23 1.61792 4.82391 0
M  V30 15555 H 1474.63 -1.50014 5.45447 0
M  V30 15556 H 1473.19 -1.35488 6.37563 0
M  V30 15557 N 1476.62 -1.31073 0.875073 0
M  V30 15558 C 1477.55 -2.26485 0.279215 0
M  V30 15559 C 1478.53 -1.5134 -0.594556 0
M  V30 15560 O 1479.72 -1.80393 -0.546849 0
M  V30 15561 C 1476.84 -3.33268 -0.604165 0
M  V30 15562 C 1475.89 -4.26036 0.198944 0
M  V30 15563 S 1476.72 -5.11636 1.58079 0
M  V30 15564 C 1477.88 -6.21932 0.703665 0
M  V30 15565 H 1478.11 -2.76677 1.088 0
M  V30 15566 H 1475.64 -1.38917 0.673898 0
M  V30 15567 H 1477.6 -3.9526 -1.10813 0
M  V30 15568 H 1476.26 -2.8182 -1.38694 0
M  V30 15569 H 1475.46 -5.01759 -0.474755 0
M  V30 15570 H 1475.06 -3.68567 0.635185 0
M  V30 15571 H 1477.35 -6.77448 -0.0835828 0
M  V30 15572 H 1478.29 -6.93465 1.43219 0
M  V30 15573 H 1478.7 -5.63859 0.268954 0
M  V30 15574 N 1478.1 -0.635022 -1.4424 0
M  V30 15575 C 1479.03 0.0543561 -2.33437 0
M  V30 15576 C 1480.01 0.830807 -1.48431 0
M  V30 15577 O 1481.2 0.795913 -1.77141 0
M  V30 15578 C 1478.33 1.03391 -3.31553 0
M  V30 15579 C 1477.28 0.368824 -4.26408 0
M  V30 15580 C 1476.61 1.45855 -5.14422 0
M  V30 15581 C 1477.91 -0.727381 -5.1721 0
M  V30 15582 H 1479.6 -0.690489 -2.91329 0
M  V30 15583 H 1477.15 -0.3335 -1.40085 0
M  V30 15584 H 1479.1 1.52495 -3.9284 0
M  V30 15585 H 1477.82 1.80969 -2.71878 0
M  V30 15586 H 1476.48 -0.101605 -3.66459 0
M  V30 15587 H 1476.13 2.22531 -4.51098 0
M  V30 15588 H 1475.83 1.0189 -5.78699 0
M  V30 15589 H 1477.35 1.95132 -5.78581 0
M  V30 15590 H 1478.77 -0.319272 -5.7241 0
M  V30 15591 H 1477.17 -1.09041 -5.9011 0
M  V30 15592 H 1478.24 -1.59292 -4.57989 0
M  V30 15593 N 1479.58 1.53054 -0.375806 0
M  V30 15594 C 1480.99 1.5958 -0.0251765 0
M  V30 15595 C 1481.19 1.39047 1.45836 0
M  V30 15596 O 1480.25 1.20073 2.22123 0
M  V30 15597 C 1481.56 2.96676 -0.490274 0
M  V30 15598 C 1483.11 3.09815 -0.44537 0
M  V30 15599 C 1483.59 4.4934 -0.886442 0
M  V30 15600 N 1485.08 4.55484 -0.84191 0
M  V30 15601 C 1485.81 5.61652 -1.15476 0
M  V30 15602 N 1485.31 6.75526 -1.53741 0
M  V30 15603 N 1487.1 5.51688 -1.07689 0
M  V30 15604 H 1479.25 1.64651 -1.34178 0
M  V30 15605 H 1481.52 0.77278 -0.549104 0
M  V30 15606 H 1481.22 3.16874 -1.52589 0
M  V30 15607 H 1481.1 3.77016 0.11776 0
M  V30 15608 H 1483.48 2.89321 0.581138 0
M  V30 15609 H 1483.56 2.3146 -1.08903 0
M  V30 15610 H 1483.21 4.70573 -1.91111 0
M  V30 15611 H 1483.14 5.26141 -0.219925 0
M  V30 15612 H 1485.63 3.73725 -0.56015 0
M  V30 15613 H 1485.94 7.52489 -1.76012 0
M  V30 15614 H 1484.29 6.76892 -1.57616 0
M  V30 15615 H 1487.48 4.61605 -0.777062 0
M  V30 15616 H 1487.65 6.34329 -1.32403 0
M  V30 15617 N 1481.06 0.105248 1.57248 0
M  V30 15618 C 1482.01 -0.860855 2.11124 0
M  V30 15619 C 1482.99 -1.23721 1.02868 0
M  V30 15620 O 1484.18 -1.2106 1.29126 0
M  V30 15621 C 1481.31 -2.11612 2.70325 0
M  V30 15622 C 1480.4 -1.76474 3.85639 0
M  V30 15623 N 1480.79 -1.11944 4.93257 0
M  V30 15624 C 1479.09 -2.0602 3.95565 0
M  V30 15625 C 1479.79 -0.956421 5.73783 0
M  V30 15626 N 1478.76 -1.47701 5.23149 0
M  V30 15627 H 1482.57 -0.35816 2.91709 0
M  V30 15628 H 1480.08 -0.0976543 1.62106 0
M  V30 15629 H 1482.08 -2.81778 3.07257 0
M  V30 15630 H 1480.74 -2.62438 1.91198 0
M  V30 15631 H 1481.75 -0.785042 5.11916 0
M  V30 15632 H 1478.42 -2.58989 3.27461 0
M  V30 15633 H 1479.81 -0.450964 6.70385 0
M  V30 15634 N 1482.53 -1.56697 -0.168486 0
M  V30 15635 C 1483.47 -1.91738 -1.23741 0
M  V30 15636 C 1484.45 -0.780522 -1.42642 0
M  V30 15637 O 1485.63 -1.0341 -1.57602 0
M  V30 15638 C 1482.76 -2.17077 -2.59991 0
M  V30 15639 C 1481.8 -3.39759 -2.5781 0
M  V30 15640 S 1482.64 -4.94035 -2.06614 0
M  V30 15641 C 1483.79 -5.22472 -3.44636 0
M  V30 15642 H 1484.02 -2.82104 -0.938344 0
M  V30 15643 H 1481.56 -1.49822 -0.373177 0
M  V30 15644 H 1483.52 -2.32356 -3.38409 0
M  V30 15645 H 1482.18 -1.27413 -2.87097 0
M  V30 15646 H 1481.37 -3.54698 -3.58058 0
M  V30 15647 H 1480.97 -3.2361 -1.8749 0
M  V30 15648 H 1483.26 -5.14623 -4.40647 0
M  V30 15649 H 1484.21 -6.24075 -3.34569 0
M  V30 15650 H 1484.61 -4.50034 -3.40779 0
M  V30 15651 N 1484.01 0.437135 -1.51416 0
M  V30 15652 C 1485.43 0.773631 -1.39596 0
M  V30 15653 C 1485.63 1.95737 -0.478463 0
M  V30 15654 O 1484.68 2.52413 0.0662971 0
M  V30 15655 C 1486 1.05381 -2.8163 0
M  V30 15656 C 1487.55 1.15824 -2.90782 0
M  V30 15657 C 1488.02 1.47135 -4.33722 0
M  V30 15658 N 1489.51 1.54059 -4.3683 0
M  V30 15659 C 1490.25 1.79858 -5.44462 0
M  V30 15660 N 1489.74 2.03449 -6.62254 0
M  V30 15661 N 1491.54 1.81642 -5.31942 0
M  V30 15662 H 1483.69 -0.342468 -2.09621 0
M  V30 15663 H 1485.95 -0.0908158 -0.94364 0
M  V30 15664 H 1485.66 0.256708 -3.50762 0
M  V30 15665 H 1485.53 1.98139 -3.20968 0
M  V30 15666 H 1487.92 1.94597 -2.21847 0
M  V30 15667 H 1488 0.209663 -2.54939 0
M  V30 15668 H 1487.64 0.688897 -5.03206 0
M  V30 15669 H 1487.57 2.43199 -4.67078 0
M  V30 15670 H 1490.06 1.3773 -3.51907 0
M  V30 15671 H 1490.38 2.22506 -7.40075 0
M  V30 15672 H 1488.72 2.00771 -6.65369 0
M  V30 15673 H 1491.91 1.62731 -4.38903 0
M  V30 15674 H 1492.08 2.01411 -6.15904 0
M  V30 15675 N 1485.49 1.41566 0.692592 0
M  V30 15676 C 1486.42 1.46423 1.81886 0
M  V30 15677 C 1487.4 0.32258 1.67013 0
M  V30 15678 O 1488.59 0.534437 1.86701 0
M  V30 15679 C 1485.72 1.3486 3.20047 0
M  V30 15680 C 1484.67 2.46867 3.49629 0
M  V30 15681 C 1484 2.20369 4.87177 0
M  V30 15682 C 1485.3 3.89205 3.48306 0
M  V30 15683 H 1486.99 2.40683 1.78079 0
M  V30 15684 H 1484.54 1.15845 0.855334 0
M  V30 15685 H 1486.49 1.36869 3.98553 0
M  V30 15686 H 1485.21 0.370859 3.24488 0
M  V30 15687 H 1483.87 2.44146 2.73475 0
M  V30 15688 H 1483.52 1.20931 4.88247 0
M  V30 15689 H 1483.22 2.95426 5.07934 0
M  V30 15690 H 1484.74 2.24099 5.6799 0
M  V30 15691 H 1486.16 3.93626 4.16811 0
M  V30 15692 H 1484.56 4.63969 3.80595 0
M  V30 15693 H 1485.63 4.17144 2.47222 0
M  V30 15694 N 1486.97 -0.927146 1.27443 0
M  V30 15695 C 1488.19 -1.71426 1.16739 0
M  V30 15696 C 1488.62 -1.86122 -0.272063 0
M  V30 15697 O 1487.98 -1.36165 -1.19703 0
M  V30 15698 C 1488.02 -3.09131 1.85661 0
M  V30 15699 O 1487.13 -3.95897 1.15495 0
M  V30 15700 H 1486.47 -0.525428 0.405983 0
M  V30 15701 H 1489 -1.16022 1.68523 0
M  V30 15702 H 1489.01 -3.59442 1.93042 0
M  V30 15703 H 1487.68 -2.97752 2.90373 0
M  V30 15704 H 1486.26 -3.54337 1.16187 0
M  V30 15705 N 1488.45 -1.09474 -1.13372 0
M  V30 15706 C 1489.39 -0.73458 -2.18798 0
M  V30 15707 C 1490.36 0.284433 -1.63647 0
M  V30 15708 O 1491.55 0.165958 -1.90077 0
M  V30 15709 C 1488.69 -0.161826 -3.4472 0
M  V30 15710 C 1487.8 -1.23494 -4.13973 0
M  V30 15711 C 1486.94 -0.624886 -5.27512 0
M  V30 15712 C 1485.98 -1.67927 -5.88614 0
M  V30 15713 N 1485.11 -1.09021 -6.93584 0
M  V30 15714 H 1489.95 -1.63787 -2.48954 0
M  V30 15715 H 1487.49 -0.818297 -1.22239 0
M  V30 15716 H 1489.45 0.188053 -4.16776 0
M  V30 15717 H 1488.08 0.70473 -3.15013 0
M  V30 15718 H 1487.13 -1.70209 -3.40196 0
M  V30 15719 H 1488.44 -2.0335 -4.55467 0
M  V30 15720 H 1487.6 -0.22388 -6.06287 0
M  V30 15721 H 1486.33 0.205214 -4.87268 0
M  V30 15722 H 1485.34 -2.08982 -5.08534 0
M  V30 15723 H 1486.56 -2.51204 -6.3093 0
M  V30 15724 H 1484.51 -0.281401 -6.55396 0
M  V30 15725 H 1484.43 -1.82573 -7.33623 0
M  V30 15726 H 1485.7 -0.715428 -7.7621 0
M  V30 15727 N 1489.92 1.30607 -0.882012 0
M  V30 15728 C 1491.15 2.00418 -0.513815 0
M  V30 15729 C 1491.57 1.66135 0.896916 0
M  V30 15730 O 1490.92 0.89691 1.5894 0
M  V30 15731 C 1490.98 3.55133 -0.675503 0
M  V30 15732 O 1490.7 3.88194 -2.03069 0
M  V30 15733 C 1492.2 4.42215 -0.309906 0
M  V30 15734 H 1489.42 0.640839 -0.198913 0
M  V30 15735 H 1491.96 1.66561 -1.1865 0
M  V30 15736 H 1490.12 3.87367 -0.0502289 0
M  V30 15737 H 1490.53 4.82899 -2.04717 0
M  V30 15738 H 1492 5.49962 -0.473948 0
M  V30 15739 H 1492.48 4.32717 0.751852 0
M  V30 15740 H 1493.09 4.1542 -0.91138 0
M  V30 15741 N 1491.4 0.642663 1.43901 0
M  V30 15742 C 1492.31 -0.0562462 2.34533 0
M  V30 15743 C 1493.33 -0.823457 1.53281 0
M  V30 15744 O 1494.5 -0.773103 1.85971 0
M  V30 15745 C 1491.57 -1.01787 3.31422 0
M  V30 15746 C 1490.63 -0.248759 4.28579 0
M  V30 15747 C 1489.86 -1.16458 5.20839 0
M  V30 15748 O 1490.09 -2.40361 5.17284 0
M  V30 15749 O 1489.02 -0.642671 5.98459 0
M  V30 15750 H 1492.85 0.689476 2.9577 0
M  V30 15751 H 1490.43 0.402847 1.43866 0
M  V30 15752 H 1492.31 -1.5708 3.91029 0
M  V30 15753 H 1490.99 -1.744 2.72702 0
M  V30 15754 H 1489.9 0.347495 3.72483 0
M  V30 15755 H 1491.23 0.437589 4.90251 0
M  V30 15756 N 1492.88 -1.52852 0.383918 0
M  V30 15757 C 1494.3 -1.59565 0.0336391 0
M  V30 15758 C 1494.5 -1.39819 -1.45097 0
M  V30 15759 O 1493.55 -1.21249 -2.21484 0
M  V30 15760 C 1494.87 -2.96412 0.506001 0
M  V30 15761 C 1496.41 -3.09575 0.461794 0
M  V30 15762 C 1496.89 -4.48863 0.910259 0
M  V30 15763 N 1498.38 -4.55032 0.866053 0
M  V30 15764 C 1499.12 -5.61032 1.18453 0
M  V30 15765 N 1498.61 -6.74701 1.57321 0
M  V30 15766 N 1500.4 -5.51109 1.10613 0
M  V30 15767 H 1492.56 -1.63937 1.3505 0
M  V30 15768 H 1494.82 -0.769857 0.553194 0
M  V30 15769 H 1494.52 -3.16061 1.54268 0
M  V30 15770 H 1494.4 -3.77073 -0.0977643 0
M  V30 15771 H 1496.79 -2.89625 -0.565786 0
M  V30 15772 H 1496.87 -2.30879 1.10129 0
M  V30 15773 H 1496.51 -4.69553 1.93604 0
M  V30 15774 H 1496.44 -5.26017 0.247825 0
M  V30 15775 H 1498.93 -3.73423 0.579962 0
M  V30 15776 H 1499.24 -7.51545 1.8 0
M  V30 15777 H 1497.59 -6.76046 1.61203 0
M  V30 15778 H 1500.78 -4.61187 0.801531 0
M  V30 15779 H 1500.95 -6.33618 1.35766 0
M  V30 15780 N 1494.36 -0.113586 -1.5719 0
M  V30 15781 C 1495.64 0.588987 -1.86522 0
M  V30 15782 C 1496.02 1.85163 -1.01379 0
M  V30 15783 O 1495.36 2.28318 -0.0912188 0
M  V30 15784 C 1495.57 0.886633 -3.3755 0
M  V30 15785 C 1496.92 1.24206 -4.06027 0
M  V30 15786 O 1497.95 0.977068 -3.42537 0
M  V30 15787 O 1496.81 1.73914 -5.18089 0
M  V30 15788 H 1493.9 0.296637 -0.771968 0
M  V30 15789 H 1496.45 -0.147681 -1.69056 0
M  V30 15790 H 1495.22 -0.00835421 -3.91299 0
M  V30 15791 H 1494.84 1.67865 -3.60426 0
M  V30 15792 N 1495.84 1.56784 0.160173 0
M  V30 15793 C 1497.25 1.51153 0.512352 0
M  V30 15794 C 1497.45 0.819774 1.84071 0
M  V30 15795 O 1496.51 0.384789 2.49551 0
M  V30 15796 C 1497.82 2.95906 0.534817 0
M  V30 15797 C 1499.37 3.06773 0.621248 0
M  V30 15798 C 1499.85 4.53006 0.674501 0
M  V30 15799 N 1501.34 4.57298 0.737087 0
M  V30 15800 C 1502.07 5.67805 0.799054 0
M  V30 15801 N 1501.57 6.87916 0.821171 0
M  V30 15802 N 1503.36 5.55804 0.838928 0
M  V30 15803 H 1495.51 2.00157 -0.710712 0
M  V30 15804 H 1497.77 0.91233 -0.257601 0
M  V30 15805 H 1497.48 3.49719 -0.372773 0
M  V30 15806 H 1497.35 3.51152 1.3774 0
M  V30 15807 H 1499.74 2.52987 1.51926 0
M  V30 15808 H 1499.82 2.54593 -0.248224 0
M  V30 15809 H 1499.47 5.07426 -0.219301 0
M  V30 15810 H 1499.4 5.02954 1.56028 0
M  V30 15811 H 1501.89 3.70825 0.727827 0
M  V30 15812 H 1502.2 7.67888 0.869938 0
M  V30 15813 H 1500.55 6.90504 0.789264 0
M  V30 15814 H 1503.74 4.60884 0.818728 0
M  V30 15815 H 1503.91 6.41945 0.883757 0
M  V30 15816 N 1497.32 -0.429099 1.51646 0
M  V30 15817 C 1498.23 -1.54648 1.76412 0
M  V30 15818 C 1499.24 -1.61455 0.648703 0
M  V30 15819 O 1500.42 -1.78544 0.931888 0
M  V30 15820 C 1497.48 -2.90562 1.89142 0
M  V30 15821 C 1496.54 -2.93804 3.13014 0
M  V30 15822 C 1495.78 -4.23235 3.25127 0
M  V30 15823 O 1496 -5.1606 2.42979 0
M  V30 15824 O 1494.93 -4.32929 4.18158 0
M  V30 15825 H 1498.76 -1.36661 2.71215 0
M  V30 15826 H 1496.34 -0.612946 1.36247 0
M  V30 15827 H 1498.23 -3.7121 1.99453 0
M  V30 15828 H 1496.9 -3.08659 0.975272 0
M  V30 15829 H 1495.81 -2.12082 3.08175 0
M  V30 15830 H 1497.14 -2.80654 4.04344 0
M  V30 15831 N 1498.79 -1.41931 -0.685074 0
M  V30 15832 C 1499.76 -1.44315 -1.78061 0
M  V30 15833 C 1500.76 -0.332215 -1.57331 0
M  V30 15834 O 1501.95 -0.59258 -1.63811 0
M  V30 15835 C 1499.08 -1.26479 -3.16569 0
M  V30 15836 H 1500.27 -2.4185 -1.77337 0
M  V30 15837 H 1497.82 -1.28228 -0.893721 0
M  V30 15838 H 1498.56 -0.298259 -3.22926 0
M  V30 15839 H 1498.34 -2.06981 -3.33018 0
M  V30 15840 H 1499.83 -1.31006 -3.96519 0
M  V30 15841 N 1500.27 0.920374 -1.27933 0
M  V30 15842 C 1501.2 2.02644 -1.07089 0
M  V30 15843 C 1502.22 1.62781 -0.024674 0
M  V30 15844 O 1503.41 1.76491 -0.267023 0
M  V30 15845 C 1500.51 3.33476 -0.603919 0
M  V30 15846 C 1499.68 4.01988 -1.72407 0
M  V30 15847 C 1498.74 5.11098 -1.25159 0
M  V30 15848 O 1497.76 5.3466 -1.95261 0
M  V30 15849 N 1498.97 5.80393 -0.111197 0
M  V30 15850 H 1501.73 2.21085 -2.0234 0
M  V30 15851 H 1499.29 1.09124 -1.19597 0
M  V30 15852 H 1501.28 4.03788 -0.271579 0
M  V30 15853 H 1499.85 3.11554 0.255557 0
M  V30 15854 H 1499.07 3.25312 -2.22633 0
M  V30 15855 H 1500.36 4.4451 -2.47566 0
M  V30 15856 H 1499.76 5.63713 0.473746 0
M  V30 15857 H 1498.32 6.51599 0.161912 0
M  V30 15858 N 1501.75 1.10074 1.1279 0
M  V30 15859 C 1502.68 0.768146 2.20503 0
M  V30 15860 C 1503.66 -0.257199 1.68144 0
M  V30 15861 O 1504.85 -0.12379 1.93805 0
M  V30 15862 C 1501.98 0.195125 3.46751 0
M  V30 15863 C 1500.93 1.15074 4.1224 0
M  V30 15864 C 1500.26 0.439098 5.32894 0
M  V30 15865 C 1501.56 2.49584 4.58808 0
M  V30 15866 H 1503.25 1.66876 2.48581 0
M  V30 15867 H 1500.8 0.803806 1.19478 0
M  V30 15868 H 1502.75 -0.0496695 4.21371 0
M  V30 15869 H 1501.47 -0.740717 3.1809 0
M  V30 15870 H 1500.13 1.38092 3.39597 0
M  V30 15871 H 1499.78 -0.501096 5.00498 0
M  V30 15872 H 1499.48 1.07632 5.77658 0
M  V30 15873 H 1501 0.202761 6.10263 0
M  V30 15874 H 1502.42 2.30736 5.24818 0
M  V30 15875 H 1500.81 3.09157 5.14336 0
M  V30 15876 H 1501.88 3.09857 3.72984 0
M  V30 15877 N 1503.23 -1.30138 0.888926 0
M  V30 15878 C 1504.47 -1.96279 0.51012 0
M  V30 15879 C 1504.81 -1.69984 -0.939096 0
M  V30 15880 O 1504.08 -1.00677 -1.66416 0
M  V30 15881 C 1504.36 -3.51321 0.790305 0
M  V30 15882 C 1504.22 -3.87116 2.29044 0
M  V30 15883 C 1505.54 -4.39274 0.269477 0
M  V30 15884 H 1502.66 -0.712931 0.18681 0
M  V30 15885 H 1505.3 -1.53942 1.11364 0
M  V30 15886 H 1503.45 -3.87514 0.276647 0
M  V30 15887 H 1505.12 -3.60926 2.87281 0
M  V30 15888 H 1503.36 -3.35044 2.7555 0
M  V30 15889 H 1504.03 -4.95288 2.43708 0
M  V30 15890 H 1506.51 -4.10012 0.709173 0
M  V30 15891 H 1505.39 -5.46665 0.494815 0
M  V30 15892 H 1505.65 -4.3425 -0.829434 0
M  V30 15893 N 1504.71 -0.650285 -1.43559 0
M  V30 15894 C 1505.65 0.043098 -2.3076 0
M  V30 15895 C 1506.62 0.81763 -1.44582 0
M  V30 15896 O 1507.81 0.794825 -1.73457 0
M  V30 15897 C 1504.95 1.00557 -3.30125 0
M  V30 15898 C 1504.06 0.227448 -4.31401 0
M  V30 15899 C 1503.2 1.18345 -5.17849 0
M  V30 15900 C 1502.23 0.395596 -6.1082 0
M  V30 15901 N 1501.37 1.30304 -6.89902 0
M  V30 15902 H 1506.21 -0.706402 -2.89506 0
M  V30 15903 H 1503.75 -0.360118 -1.42624 0
M  V30 15904 H 1505.71 1.57717 -3.8624 0
M  V30 15905 H 1504.34 1.72198 -2.73034 0
M  V30 15906 H 1503.39 -0.460391 -3.77604 0
M  V30 15907 H 1504.7 -0.385316 -4.9731 0
M  V30 15908 H 1503.85 1.82578 -5.78576 0
M  V30 15909 H 1502.59 1.83013 -4.52059 0
M  V30 15910 H 1501.6 -0.260099 -5.49184 0
M  V30 15911 H 1502.82 -0.246633 -6.78652 0
M  V30 15912 H 1500.77 1.93657 -6.26764 0
M  V30 15913 H 1500.69 0.744768 -7.52323 0
M  V30 15914 H 1501.95 1.93361 -7.55137 0
M  V30 15915 N 1506.18 1.52647 -0.392018 0
M  V30 15916 C 1507.46 1.94034 0.247004 0
M  V30 15917 C 1507.84 1.32767 1.64122 0
M  V30 15918 O 1507.19 0.496822 2.23033 0
M  V30 15919 C 1507.4 3.47949 0.270615 0
M  V30 15920 C 1508.75 4.21666 0.498256 0
M  V30 15921 O 1509.77 3.54469 0.350708 0
M  V30 15922 O 1508.63 5.40795 0.787586 0
M  V30 15923 H 1505.72 0.812487 0.154251 0
M  V30 15924 H 1508.27 1.63715 -0.446723 0
M  V30 15925 H 1507.04 3.84881 -0.705862 0
M  V30 15926 H 1506.66 3.8458 1.00915 0
M  V30 15927 N 1507.66 0.121921 1.57128 0
M  V30 15928 C 1509.08 -0.234655 1.57866 0
M  V30 15929 C 1509.28 -1.66506 1.13482 0
M  V30 15930 O 1508.33 -2.38692 0.823544 0
M  V30 15931 C 1509.65 0.00131784 3.007 0
M  V30 15932 C 1511.2 -0.0643537 3.12934 0
M  V30 15933 C 1511.67 0.143964 4.57774 0
M  V30 15934 N 1513.16 0.0900323 4.63112 0
M  V30 15935 C 1513.9 0.22608 5.72954 0
M  V30 15936 N 1513.39 0.418461 6.91535 0
M  V30 15937 N 1515.19 0.165449 5.61856 0
M  V30 15938 H 1507.34 1.05618 1.84279 0
M  V30 15939 H 1509.6 0.416132 0.851785 0
M  V30 15940 H 1509.31 0.99031 3.3747 0
M  V30 15941 H 1509.18 -0.729266 3.70083 0
M  V30 15942 H 1511.57 -1.04387 2.7602 0
M  V30 15943 H 1511.65 0.698157 2.46088 0
M  V30 15944 H 1511.29 1.12047 4.95387 0
M  V30 15945 H 1511.22 -0.638569 5.22714 0
M  V30 15946 H 1513.71 -0.0550269 3.7786 0
M  V30 15947 H 1514.03 0.513057 7.71095 0
M  V30 15948 H 1512.37 0.454471 6.93512 0
M  V30 15949 H 1515.56 0.0160945 4.68097 0
M  V30 15950 H 1515.73 0.274917 6.47417 0
M  V30 15951 N 1509.14 -1.56867 -0.151857 0
M  V30 15952 C 1510.09 -1.98842 -1.20685 0
M  V30 15953 C 1511.08 -0.88007 -1.44745 0
M  V30 15954 O 1512.29 -1.06524 -1.45095 0
M  V30 15955 H 1508.66 -0.632904 -0.406123 0
M  V30 15956 H 1510.63 -2.86737 -0.826095 0
M  V30 15957 C 1509.38 -2.38095 -2.53389 0
M  V30 15958 H 1508.71 -3.2293 -2.35703 0
M  V30 15959 H 1510.15 -2.71292 -3.25847 0
M  V30 15960 C 1508.61 -1.23175 -3.13575 0
M  V30 15961 O 1509.14 -0.529864 -3.9819 0
M  V30 15962 N 1507.34 -0.997255 -2.72953 0
M  V30 15963 H 1506.89 -1.56979 -2.04243 0
M  V30 15964 H 1506.85 -0.23022 -3.13556 0
M  V30 15965 N 1510.62 0.421051 -1.51871 0
M  V30 15966 C 1511.84 1.19568 -1.69465 0
M  V30 15967 C 1512.27 1.83835 -0.398269 0
M  V30 15968 O 1511.63 1.69508 0.643172 0
M  V30 15969 C 1511.67 2.24337 -2.82321 0
M  V30 15970 O 1510.78 3.30205 -2.47059 0
M  V30 15971 H 1510.12 0.349579 -0.564527 0
M  V30 15972 H 1512.65 0.495177 -1.98517 0
M  V30 15973 H 1512.66 2.6886 -3.06885 0
M  V30 15974 H 1511.33 1.76941 -3.76384 0
M  V30 15975 H 1509.91 2.91045 -2.33125 0
M  V30 15976 N 1512.1 1.42293 0.677538 0
M  V30 15977 C 1513.03 1.39986 1.8022 0
M  V30 15978 C 1514.01 0.264513 1.60434 0
M  V30 15979 O 1515.19 0.454299 1.82944 0
M  V30 15980 C 1512.32 1.18809 3.17178 0
M  V30 15981 C 1511.36 2.35301 3.55719 0
M  V30 15982 S 1512.2 3.97827 3.5846 0
M  V30 15983 C 1513.35 3.78987 4.98116 0
M  V30 15984 H 1513.59 2.35157 1.81902 0
M  V30 15985 H 1511.12 1.29032 0.847947 0
M  V30 15986 H 1513.08 1.07277 3.96235 0
M  V30 15987 H 1511.74 0.252276 3.13085 0
M  V30 15988 H 1510.93 2.16224 4.55262 0
M  V30 15989 H 1510.53 2.43333 2.84016 0
M  V30 15990 H 1512.83 3.39808 5.8612 0
M  V30 15991 H 1513.77 4.78197 5.22239 0
M  V30 15992 H 1514.18 3.11906 4.70505 0
M  V30 15993 N 1513.57 -0.913576 1.28419 0
M  V30 15994 C 1514.5 -2.03275 1.14897 0
M  V30 15995 C 1515.49 -1.70036 0.0467034 0
M  V30 15996 O 1516.67 -1.92907 0.223725 0
M  V30 15997 C 1513.8 -3.37717 0.810217 0
M  V30 15998 C 1512.75 -3.85119 1.86728 0
M  V30 15999 C 1512.08 -5.16527 1.38215 0
M  V30 16000 C 1513.38 -4.06959 3.27386 0
M  V30 16001 H 1515.07 -2.14847 2.08522 0
M  V30 16002 H 1512.62 -1.03233 1.00394 0
M  V30 16003 H 1514.57 -4.15505 0.702382 0
M  V30 16004 H 1513.3 -3.26199 -0.161732 0
M  V30 16005 H 1511.96 -3.09536 1.96426 0
M  V30 16006 H 1511.6 -5.01413 0.399263 0
M  V30 16007 H 1511.3 -5.49213 2.08898 0
M  V30 16008 H 1512.83 -5.96871 1.28754 0
M  V30 16009 H 1514.24 -4.75272 3.20608 0
M  V30 16010 H 1512.64 -4.50977 3.95904 0
M  V30 16011 H 1513.71 -3.11764 3.71391 0
M  V30 16012 N 1515.05 -1.1067 -1.12204 0
M  V30 16013 C 1516.47 -0.838988 -1.35769 0
M  V30 16014 C 1516.67 0.540345 -1.9412 0
M  V30 16015 O 1515.72 1.29274 -2.16897 0
M  V30 16016 C 1517.04 -1.94065 -2.29694 0
M  V30 16017 C 1518.59 -1.96938 -2.43279 0
M  V30 16018 C 1519.06 -3.06284 -3.4052 0
M  V30 16019 N 1520.55 -3.05607 -3.48079 0
M  V30 16020 C 1521.29 -3.86855 -4.23238 0
M  V30 16021 N 1520.78 -4.78046 -5.01442 0
M  V30 16022 N 1522.58 -3.75064 -4.18669 0
M  V30 16023 H 1514.73 -1.99575 -0.726878 0
M  V30 16024 H 1516.99 -0.867423 -0.382467 0
M  V30 16025 H 1516.7 -2.93356 -1.93997 0
M  V30 16026 H 1516.57 -1.82992 -3.29839 0
M  V30 16027 H 1518.96 -0.982774 -2.78254 0
M  V30 16028 H 1519.04 -2.12087 -1.43014 0
M  V30 16029 H 1518.68 -4.05165 -3.06273 0
M  V30 16030 H 1518.61 -2.88376 -4.40621 0
M  V30 16031 H 1521.1 -2.39531 -2.9229 0
M  V30 16032 H 1521.42 -5.36594 -5.56136 0
M  V30 16033 H 1519.76 -4.82073 -5.0063 0
M  V30 16034 H 1522.95 -3.03172 -3.56657 0
M  V30 16035 H 1523.12 -4.38618 -4.76988 0
M  V30 16036 N 1516.53 1.29665 -0.895815 0
M  V30 16037 C 1517.46 2.30268 -0.387151 0
M  V30 16038 C 1518.44 1.61442 0.535768 0
M  V30 16039 O 1519.63 1.88978 0.447321 0
M  V30 16040 C 1516.76 3.45107 0.389639 0
M  V30 16041 C 1515.71 4.25706 -0.442498 0
M  V30 16042 C 1515.04 5.32704 0.461552 0
M  V30 16043 C 1516.34 4.9419 -1.69036 0
M  V30 16044 H 1518.03 2.73064 -1.22786 0
M  V30 16045 H 1515.58 1.31274 -0.591869 0
M  V30 16046 H 1517.53 4.14559 0.756203 0
M  V30 16047 H 1516.25 3.01145 1.2641 0
M  V30 16048 H 1514.91 3.57957 -0.791343 0
M  V30 16049 H 1514.56 4.84987 1.33403 0
M  V30 16050 H 1514.26 5.87529 -0.0915006 0
M  V30 16051 H 1515.78 6.05009 0.824395 0
M  V30 16052 H 1517.2 5.561 -1.39376 0
M  V30 16053 H 1515.6 5.5893 -2.18444 0
M  V30 16054 H 1516.67 4.19699 -2.42859 0
M  V30 16055 N 1518.01 0.657889 1.43212 0
M  V30 16056 C 1519.24 0.181072 2.06106 0
M  V30 16057 C 1519.65 -1.15513 1.49339 0
M  V30 16058 O 1519.01 -1.71409 0.626517 0
M  V30 16059 C 1519.06 0.0890244 3.6139 0
M  V30 16060 O 1518.78 1.37241 4.16049 0
M  V30 16061 C 1520.28 -0.413313 4.41369 0
M  V30 16062 H 1517.5 0.0920577 0.664655 0
M  V30 16063 H 1520.05 0.899855 1.83638 0
M  V30 16064 H 1518.2 -0.580345 3.83028 0
M  V30 16065 H 1518.61 1.23467 5.09761 0
M  V30 16066 H 1520.09 -0.426663 5.50349 0
M  V30 16067 H 1520.57 -1.44549 4.14731 0
M  V30 16068 H 1521.17 0.223727 4.24711 0
M  V30 16069 N 1519.49 -1.52437 0.400108 0
M  V30 16070 C 1520.71 -2.0661 -0.180861 0
M  V30 16071 C 1521.14 -1.269 -1.38845 0
M  V30 16072 O 1520.49 -0.296862 -1.78853 0
M  V30 16073 C 1520.54 -3.56851 -0.518595 0
M  V30 16074 O 1519.65 -3.79634 -1.61095 0
M  V30 16075 H 1518.99 -0.663752 -0.0181348 0
M  V30 16076 H 1521.52 -1.96479 0.570702 0
M  V30 16077 H 1521.53 -4.00478 -0.779817 0
M  V30 16078 H 1520.2 -4.14302 0.364216 0
M  V30 16079 H 1518.78 -3.47892 -1.3426 0
M  V30 16080 N 1520.96 -0.130252 -1.57061 0
M  V30 16081 C 1522.21 0.52488 -1.94751 0
M  V30 16082 C 1522.53 1.67107 -1.0166 0
M  V30 16083 O 1523.73 2.38971 -1.28861 0
M  V30 16084 C 1522.19 0.985118 -3.46155 0
M  V30 16085 C 1521.8 -0.133222 -4.47802 0
M  V30 16086 C 1523.54 1.61099 -3.92743 0
M  V30 16087 C 1521.45 0.344346 -5.90397 0
M  V30 16088 H 1520.38 0.19985 -0.727032 0
M  V30 16089 H 1523.03 -0.211912 -1.82272 0
M  V30 16090 H 1521.41 1.77667 -3.53907 0
M  V30 16091 H 1522.58 -0.909784 -4.5173 0
M  V30 16092 H 1520.9 -0.666449 -4.11032 0
M  V30 16093 H 1523.5 1.97963 -4.96704 0
M  V30 16094 H 1523.84 2.49366 -3.3335 0
M  V30 16095 H 1524.37 0.884641 -3.87839 0
M  V30 16096 H 1521.11 -0.502547 -6.53571 0
M  V30 16097 H 1520.63 1.08714 -5.89865 0
M  V30 16098 H 1522.31 0.801885 -6.42012 0
M  V30 16099 N 1522.44 1.56945 0.143535 0
M  V30 16100 C 1523.69 1.83176 0.853873 0
M  V30 16101 C 1524.01 0.71168 1.81549 0
M  V30 16102 O 1523.28 -0.266391 1.9408 0
M  V30 16103 H 1521.86 0.675785 0.318313 0
M  V30 16104 H 1524.52 1.9442 0.136712 0
M  V30 16105 H 1523.62 2.7823 1.41402 0
M  V30 16106 N 1523.92 -0.412991 1.52093 0
M  V30 16107 C 1525.15 -1.18667 1.70096 0
M  V30 16108 C 1525.57 -1.83622 0.408012 0
M  V30 16109 O 1524.93 -1.69847 -0.634174 0
M  V30 16110 C 1524.98 -2.22837 2.83507 0
M  V30 16111 O 1524.08 -3.2889 2.48807 0
M  V30 16112 H 1523.42 -0.346581 0.566373 0
M  V30 16113 H 1525.95 -0.484642 1.98777 0
M  V30 16114 H 1525.96 -2.67229 3.08306 0
M  V30 16115 H 1524.64 -1.74942 3.77317 0
M  V30 16116 H 1523.21 -2.89804 2.34665 0
M  V30 16117 N 1525.4 -1.4265 -0.669982 0
M  V30 16118 C 1526.68 -1.33858 -1.42623 0
M  V30 16119 C 1527.06 0.0217285 -2.11089 0
M  V30 16120 O 1526.4 1.03748 -2.03589 0
M  V30 16121 C 1526.61 -2.51015 -2.42472 0
M  V30 16122 C 1527.96 -2.93348 -3.06972 0
M  V30 16123 O 1528.99 -2.5094 -2.52799 0
M  V30 16124 O 1527.85 -3.66762 -4.05151 0
M  V30 16125 H 1524.94 -0.528141 -0.636393 0
M  V30 16126 H 1527.49 -1.54667 -0.6983 0
M  V30 16127 H 1526.26 -3.41679 -1.90713 0
M  V30 16128 H 1525.88 -2.32218 -3.2274 0
M  V30 16129 N 1526.88 0.906753 -1.28902 0
M  V30 16130 C 1527.79 2.04313 -1.15296 0
M  V30 16131 C 1528.8 1.73826 -0.0778619 0
M  V30 16132 O 1529.98 1.99322 -0.288543 0
M  V30 16133 C 1527.04 3.36782 -0.823317 0
M  V30 16134 C 1526.11 3.80834 -1.98152 0
M  V30 16135 C 1525.34 5.06981 -1.66751 0
M  V30 16136 O 1525.56 5.67391 -0.58513 0
M  V30 16137 O 1524.5 5.46915 -2.51332 0
M  V30 16138 H 1528.32 2.18713 -2.10709 0
M  V30 16139 H 1525.91 1.02928 -1.08287 0
M  V30 16140 H 1527.79 4.16298 -0.653735 0
M  V30 16141 H 1526.46 3.23542 0.101097 0
M  V30 16142 H 1525.37 3.02115 -2.2063 0
M  V30 16143 H 1526.7 3.98648 -2.88688 0
M  V30 16144 N 1528.36 1.11264 1.11616 0
M  V30 16145 C 1529.63 0.772174 1.79713 0
M  V30 16146 C 1530.01 -0.740055 1.97703 0
M  V30 16147 O 1529.36 -1.66939 1.56024 0
M  V30 16148 C 1529.57 1.53316 3.13521 0
M  V30 16149 C 1530.92 1.71124 3.88589 0
M  V30 16150 O 1531.94 1.49725 3.23204 0
M  V30 16151 O 1530.8 2.0667 5.05915 0
M  V30 16152 H 1527.9 0.279548 0.77832 0
M  V30 16153 H 1530.44 1.21596 1.18375 0
M  V30 16154 H 1529.21 2.56194 2.95771 0
M  V30 16155 H 1528.84 1.08281 3.82572 0
M  V30 16156 N 1529.83 -1.29188 0.902679 0
M  V30 16157 C 1530.74 -2.3138 0.387363 0
M  V30 16158 C 1531.76 -1.66067 -0.519396 0
M  V30 16159 O 1532.94 -1.97219 -0.408257 0
M  V30 16160 C 1530 -3.44675 -0.374137 0
M  V30 16161 C 1529.06 -4.25572 0.564503 0
M  V30 16162 C 1528.29 -5.33458 -0.160748 0
M  V30 16163 O 1528.52 -5.53349 -1.38423 0
M  V30 16164 O 1527.45 -5.99834 0.498259 0
M  V30 16165 H 1531.28 -2.77444 1.23525 0
M  V30 16166 H 1528.86 -1.33679 0.667106 0
M  V30 16167 H 1530.74 -4.13647 -0.80464 0
M  V30 16168 H 1529.42 -3.00714 -1.19804 0
M  V30 16169 H 1528.33 -3.59232 1.04418 0
M  V30 16170 H 1529.66 -4.73184 1.3549 0
M  V30 16171 N 1531.31 -0.665475 -1.42861 0
M  V30 16172 C 1532.22 0.018927 -2.34592 0
M  V30 16173 C 1533.24 0.798967 -1.54572 0
M  V30 16174 O 1534.41 0.743419 -1.87177 0
M  V30 16175 C 1531.48 0.965013 -3.32999 0
M  V30 16176 C 1530.54 0.180544 -4.2892 0
M  V30 16177 C 1529.77 1.08157 -5.22626 0
M  V30 16178 O 1530 2.32101 -5.21043 0
M  V30 16179 O 1528.93 0.54738 -5.99406 0
M  V30 16180 H 1532.76 -0.736444 -2.94636 0
M  V30 16181 H 1530.34 -0.425684 -1.43207 0
M  V30 16182 H 1532.22 1.50839 -3.93479 0
M  V30 16183 H 1530.9 1.7004 -2.75442 0
M  V30 16184 H 1529.8 -0.40671 -3.71883 0
M  V30 16185 H 1531.14 -0.515529 -4.89493 0
M  V30 16186 N 1532.79 1.52222 -0.408187 0
M  V30 16187 C 1534.02 2.06221 0.16743 0
M  V30 16188 C 1534.43 1.27832 1.3894 0
M  V30 16189 O 1533.79 0.329933 1.79493 0
M  V30 16190 C 1533.84 3.57758 0.518804 0
M  V30 16191 O 1533.56 4.33181 -0.654639 0
M  V30 16192 C 1535.06 4.28171 1.14825 0
M  V30 16193 H 1532.28 0.670677 0.0208054 0
M  V30 16194 H 1534.83 1.96136 -0.578868 0
M  V30 16195 H 1532.98 3.67854 1.215 0
M  V30 16196 H 1533.4 5.23252 -0.361558 0
M  V30 16197 H 1534.87 5.3538 1.34433 0
M  V30 16198 H 1535.35 3.84586 2.12108 0
M  V30 16199 H 1535.95 4.22441 0.492291 0
M  V30 16200 N 1534.27 0.138579 1.5699 0
M  V30 16201 C 1535.18 -0.817548 2.19894 0
M  V30 16202 C 1536.19 -1.27806 1.18075 0
M  V30 16203 O 1537.37 -1.33699 1.5062 0
M  V30 16204 C 1534.43 -2.04244 2.80152 0
M  V30 16205 C 1533.5 -1.63197 3.97071 0
M  V30 16206 C 1532.73 -2.79847 4.54446 0
M  V30 16207 O 1532.95 -3.95827 4.10703 0
M  V30 16208 O 1531.89 -2.55804 5.44838 0
M  V30 16209 H 1535.71 -0.312123 3.02092 0
M  V30 16210 H 1533.3 -0.0880281 1.4914 0
M  V30 16211 H 1535.18 -2.75945 3.18485 0
M  V30 16212 H 1533.85 -2.53755 2.00973 0
M  V30 16213 H 1532.76 -0.885448 3.6347 0
M  V30 16214 H 1534.09 -1.1841 4.77745 0
M  V30 16215 N 1535.75 -1.57019 -0.13521 0
M  V30 16216 C 1536.97 -1.8816 -0.860434 0
M  V30 16217 C 1537.39 -0.728081 -1.74196 0
M  V30 16218 O 1536.75 0.301745 -1.79988 0
M  V30 16219 C 1536.8 -3.1864 -1.70737 0
M  V30 16220 O 1536.52 -4.29549 -0.861347 0
M  V30 16221 C 1538.02 -3.63376 -2.53915 0
M  V30 16222 H 1535.24 -0.623408 -0.248201 0
M  V30 16223 H 1537.78 -2.04121 -0.124461 0
M  V30 16224 H 1535.94 -3.04397 -2.39627 0
M  V30 16225 H 1536.35 -5.04233 -1.44393 0
M  V30 16226 H 1537.83 -4.57478 -3.08897 0
M  V30 16227 H 1538.3 -2.89238 -3.30512 0
M  V30 16228 H 1538.91 -3.80352 -1.90296 0
M  V30 16229 N 1537.22 0.404919 -1.52309 0
M  V30 16230 C 1538.45 1.17139 -1.70182 0
M  V30 16231 C 1538.86 1.84642 -0.412805 0
M  V30 16232 O 1538.21 1.72873 0.621347 0
M  V30 16233 C 1538.27 2.27402 -2.78439 0
M  V30 16234 C 1537.93 1.8 -4.20058 0
M  V30 16235 C 1538.93 1.28546 -5.03758 0
M  V30 16236 C 1536.61 1.86706 -4.66311 0
M  V30 16237 C 1538.61 0.84425 -6.31784 0
M  V30 16238 C 1536.29 1.42197 -5.94326 0
M  V30 16239 C 1537.29 0.911418 -6.76892 0
M  V30 16240 O 1536.98 0.472762 -8.02509 0
M  V30 16241 H 1536.71 0.357845 -0.573518 0
M  V30 16242 H 1539.27 0.481939 -1.99666 0
M  V30 16243 H 1537.5 2.99724 -2.44341 0
M  V30 16244 H 1539.19 2.89143 -2.8487 0
M  V30 16245 H 1539.95 1.22734 -4.69213 0
M  V30 16246 H 1535.83 2.25389 -4.02145 0
M  V30 16247 H 1539.37 0.445063 -6.96179 0
M  V30 16248 H 1535.27 1.47689 -6.28377 0
M  V30 16249 H 1536.04 0.595689 -8.16329 0
M  V30 16250 N 1538.7 1.43003 0.662408 0
M  V30 16251 C 1539.63 1.43407 1.78793 0
M  V30 16252 C 1540.65 0.331423 1.59391 0
M  V30 16253 O 1541.84 0.595291 1.68281 0
M  V30 16254 C 1538.94 1.22239 3.16087 0
M  V30 16255 C 1538.11 2.4517 3.6223 0
M  V30 16256 C 1537.17 2.19362 4.78296 0
M  V30 16257 O 1536.19 2.92651 4.88205 0
M  V30 16258 N 1537.4 1.20449 5.67866 0
M  V30 16259 H 1540.16 2.40426 1.78928 0
M  V30 16260 H 1537.72 1.38042 0.845936 0
M  V30 16261 H 1539.71 1.02871 3.91407 0
M  V30 16262 H 1538.28 0.336983 3.10778 0
M  V30 16263 H 1537.5 2.80024 2.77453 0
M  V30 16264 H 1538.79 3.27003 3.89803 0
M  V30 16265 H 1538.19 0.598577 5.62524 0
M  V30 16266 H 1536.75 1.07066 6.42946 0
M  V30 16267 N 1540.18 -0.899904 1.29381 0
M  V30 16268 C 1541.09 -2.03699 1.16378 0
M  V30 16269 C 1542.11 -1.73782 0.0870792 0
M  V30 16270 O 1543.28 -1.99167 0.299109 0
M  V30 16271 C 1540.35 -3.36341 0.841166 0
M  V30 16272 C 1539.41 -3.79778 2.00168 0
M  V30 16273 C 1538.64 -5.0609 1.69437 0
M  V30 16274 O 1538.86 -5.67073 0.615212 0
M  V30 16275 O 1537.8 -5.45574 2.54229 0
M  V30 16276 H 1541.62 -2.17592 2.11866 0
M  V30 16277 H 1539.21 -1.02353 1.08831 0
M  V30 16278 H 1541.09 -4.15946 0.675803 0
M  V30 16279 H 1539.77 -3.23591 -0.0839376 0
M  V30 16280 H 1538.67 -3.00941 2.22229 0
M  V30 16281 H 1540.01 -3.97111 2.90798 0
M  V30 16282 N 1541.66 -1.11854 -1.11024 0
M  V30 16283 C 1542.61 -0.780825 -2.17191 0
M  V30 16284 C 1543.58 0.249657 -1.64213 0
M  V30 16285 O 1544.76 0.125603 -1.90386 0
M  V30 16286 C 1541.9 -0.23491 -3.443 0
M  V30 16287 C 1541.01 -1.32247 -4.1126 0
M  V30 16288 C 1540.15 -0.736638 -5.26068 0
M  V30 16289 C 1539.19 -1.80375 -5.8492 0
M  V30 16290 N 1538.32 -1.23709 -6.91115 0
M  V30 16291 H 1543.16 -1.69031 -2.45423 0
M  V30 16292 H 1540.7 -0.844041 -1.20476 0
M  V30 16293 H 1542.66 0.0996064 -4.17081 0
M  V30 16294 H 1541.29 0.637752 -3.16437 0
M  V30 16295 H 1540.34 -1.77387 -3.36509 0
M  V30 16296 H 1541.65 -2.12965 -4.51051 0
M  V30 16297 H 1540.81 -0.352432 -6.05675 0
M  V30 16298 H 1539.55 0.101811 -4.87594 0
M  V30 16299 H 1538.55 -2.19721 -5.03987 0
M  V30 16300 H 1539.78 -2.64531 -6.2546 0
M  V30 16301 H 1537.72 -0.420357 -6.54652 0
M  V30 16302 H 1537.64 -1.98093 -7.29586 0
M  V30 16303 H 1538.91 -0.879912 -7.74518 0
M  V30 16304 N 1543.14 1.28707 -0.909517 0
M  V30 16305 C 1544.38 1.95443 -0.541281 0
M  V30 16306 C 1544.72 1.71457 0.911934 0
M  V30 16307 O 1543.99 1.03312 1.64794 0
M  V30 16308 C 1544.27 3.50019 -0.846097 0
M  V30 16309 C 1544.13 3.83423 -2.35173 0
M  V30 16310 C 1545.45 4.3879 -0.339328 0
M  V30 16311 H 1542.56 0.709869 -0.198128 0
M  V30 16312 H 1545.21 1.52151 -1.13799 0
M  V30 16313 H 1543.36 3.87025 -0.338262 0
M  V30 16314 H 1545.03 3.5631 -2.92986 0
M  V30 16315 H 1543.27 3.30618 -2.80846 0
M  V30 16316 H 1543.94 4.91348 -2.51557 0
M  V30 16317 H 1546.42 4.08832 -0.774312 0
M  V30 16318 H 1545.29 5.45809 -0.581722 0
M  V30 16319 H 1545.56 4.35514 0.760244 0
M  V30 16320 N 1544.61 0.673042 1.42506 0
M  V30 16321 C 1545.56 -0.0291025 2.27981 0
M  V30 16322 C 1546.55 -0.775296 1.40989 0
M  V30 16323 O 1547.74 -0.654498 1.64455 0
M  V30 16324 C 1544.87 -0.9809 3.28988 0
M  V30 16325 C 1543.96 -0.232141 4.23464 0
M  V30 16326 N 1544.35 0.762036 5.00027 0
M  V30 16327 C 1542.64 -0.470831 4.43508 0
M  V30 16328 C 1543.35 1.20826 5.69013 0
M  V30 16329 N 1542.32 0.538559 5.40926 0
M  V30 16330 H 1546.12 0.733484 2.846 0
M  V30 16331 H 1543.64 0.501961 1.54448 0
M  V30 16332 H 1545.63 -1.49888 3.89023 0
M  V30 16333 H 1544.29 -1.74333 2.73931 0
M  V30 16334 H 1545.31 1.14151 5.05163 0
M  V30 16335 H 1541.98 -1.2129 3.99493 0
M  V30 16336 H 1543.37 2.03199 6.40437 0
M  V30 16337 N 1546.09 -1.52004 0.416254 0
M  V30 16338 C 1547.03 -2.2371 -0.450474 0
M  V30 16339 C 1548 -1.24812 -1.04215 0
M  V30 16340 O 1549.19 -1.53885 -1.08866 0
M  V30 16341 C 1546.31 -2.97122 -1.62592 0
M  V30 16342 C 1545.36 -4.10508 -1.15695 0
M  V30 16343 S 1546.19 -5.35374 -0.116239 0
M  V30 16344 C 1547.35 -6.12318 -1.29684 0
M  V30 16345 H 1547.58 -2.96878 0.158361 0
M  V30 16346 H 1545.12 -1.53091 0.200602 0
M  V30 16347 H 1547.07 -3.40022 -2.2999 0
M  V30 16348 H 1545.73 -2.23583 -2.20611 0
M  V30 16349 H 1544.93 -4.61075 -2.03534 0
M  V30 16350 H 1544.53 -3.69761 -0.561518 0
M  V30 16351 H 1546.82 -6.40125 -2.21914 0
M  V30 16352 H 1547.76 -7.032 -0.831569 0
M  V30 16353 H 1548.17 -5.43487 -1.52586 0
M  V30 16354 N 1547.57 -0.146903 -1.56914 0
M  V30 16355 C 1548.8 0.511181 -2.00486 0
M  V30 16356 C 1549.21 1.58425 -1.02699 0
M  V30 16357 O 1548.57 1.82484 -0.0239878 0
M  V30 16358 C 1548.62 1.11191 -3.43975 0
M  V30 16359 O 1548.34 0.0817094 -4.38024 0
M  V30 16360 C 1549.84 1.85061 -4.02824 0
M  V30 16361 H 1547.06 0.133078 -0.657671 0
M  V30 16362 H 1549.61 -0.241457 -2.0307 0
M  V30 16363 H 1547.76 1.81517 -3.42243 0
M  V30 16364 H 1548.18 0.52181 -5.21898 0
M  V30 16365 H 1549.65 2.22385 -5.05222 0
M  V30 16366 H 1550.13 2.73649 -3.4353 0
M  V30 16367 H 1550.73 1.19434 -4.08186 0
M  V30 16368 N 1549.05 1.57088 0.126881 0
M  V30 16369 C 1550.29 1.8559 0.832347 0
M  V30 16370 C 1550.65 0.733619 1.77865 0
M  V30 16371 O 1549.94 -0.266984 1.89731 0
M  V30 16372 C 1550.14 3.18225 1.62688 0
M  V30 16373 C 1549.97 4.43248 0.759021 0
M  V30 16374 C 1548.74 5.03577 0.416881 0
M  V30 16375 C 1550.93 5.14237 0.080205 0
M  V30 16376 N 1548.92 6.12156 -0.462469 0
M  V30 16377 C 1550.29 6.16494 -0.658463 0
M  V30 16378 C 1552.34 4.979 0.00296555 0
M  V30 16379 C 1551.04 7.04179 -1.46711 0
M  V30 16380 C 1553.07 5.86066 -0.792477 0
M  V30 16381 C 1552.43 6.87819 -1.51936 0
M  V30 16382 H 1548.53 0.729476 0.281759 0
M  V30 16383 H 1551.12 1.94461 0.0965231 0
M  V30 16384 H 1549.29 3.10465 2.3338 0
M  V30 16385 H 1551.02 3.34562 2.27707 0
M  V30 16386 H 1547.77 4.67506 0.757316 0
M  V30 16387 H 1548.2 6.71074 -0.893761 0
M  V30 16388 H 1552.84 4.192 0.55059 0
M  V30 16389 H 1550.56 7.82293 -2.02592 0
M  V30 16390 H 1554.14 5.75491 -0.854496 0
M  V30 16391 H 1553.02 7.54861 -2.12498 0
M  V30 16392 N 1550.53 -0.396836 1.52522 0
M  V30 16393 C 1551.75 -1.16404 1.71049 0
M  V30 16394 C 1552.17 -1.83946 0.425378 0
M  V30 16395 O 1551.53 -1.7237 -0.599561 0
M  V30 16396 C 1551.58 -2.21796 2.85463 0
M  V30 16397 O 1551.3 -1.57009 4.08998 0
M  V30 16398 C 1552.8 -3.11303 3.15603 0
M  V30 16399 H 1550.02 -0.349314 0.572905 0
M  V30 16400 H 1552.56 -0.465297 1.99136 0
M  V30 16401 H 1550.72 -2.87318 2.59859 0
M  V30 16402 H 1551.13 -2.26977 4.72844 0
M  V30 16403 H 1552.61 -3.81299 3.99143 0
M  V30 16404 H 1553.08 -3.7437 2.2966 0
M  V30 16405 H 1553.69 -2.51435 3.43017 0
M  V30 16406 N 1552.01 -1.43353 -0.654814 0
M  V30 16407 C 1552.95 -1.48387 -1.76776 0
M  V30 16408 C 1553.92 -0.333755 -1.62712 0
M  V30 16409 O 1555.11 -0.540683 -1.82979 0
M  V30 16410 C 1552.25 -1.41132 -3.14922 0
M  V30 16411 C 1551.36 -2.66336 -3.40131 0
M  V30 16412 C 1550.5 -2.5108 -4.68116 0
M  V30 16413 C 1549.53 -3.71561 -4.86425 0
M  V30 16414 N 1548.67 -3.55125 -6.05666 0
M  V30 16415 H 1553.51 -2.43487 -1.71808 0
M  V30 16416 H 1551.05 -1.20866 -0.838442 0
M  V30 16417 H 1553.01 -1.3492 -3.94782 0
M  V30 16418 H 1551.64 -0.496149 -3.18964 0
M  V30 16419 H 1550.69 -2.82834 -2.5438 0
M  V30 16420 H 1552 -3.55835 -3.49546 0
M  V30 16421 H 1551.15 -2.42567 -5.56099 0
M  V30 16422 H 1549.89 -1.59103 -4.61018 0
M  V30 16423 H 1548.9 -3.80484 -3.96877 0
M  V30 16424 H 1550.12 -4.64545 -4.95353 0
M  V30 16425 H 1548.07 -2.65881 -5.99703 0
M  V30 16426 H 1547.99 -4.38224 -6.16032 0
M  V30 16427 H 1549.25 -3.5046 -6.96274 0
M  V30 16428 N 1553.48 0.89303 -1.29857 0
M  V30 16429 C 1554.76 1.62492 -1.08884 0
M  V30 16430 C 1555.14 2.07926 0.364695 0
M  V30 16431 O 1554.49 1.84009 1.35473 0
M  V30 16432 C 1554.7 2.80063 -2.08245 0
M  V30 16433 C 1556.05 3.50589 -2.39526 0
M  V30 16434 O 1557.07 2.90241 -2.06492 0
M  V30 16435 O 1555.93 4.59399 -2.95998 0
M  V30 16436 H 1553.02 0.713805 -0.417626 0
M  V30 16437 H 1555.57 0.940513 -1.41253 0
M  V30 16438 H 1554.34 2.43735 -3.06119 0
M  V30 16439 H 1553.96 3.56205 -1.76645 0
M  V30 16440 N 1554.96 1.12442 1.10429 0
M  V30 16441 C 1555.91 0.792332 2.16773 0
M  V30 16442 C 1556.88 -0.240945 1.64343 0
M  V30 16443 O 1558.06 -0.115504 1.9045 0
M  V30 16444 C 1555.2 0.253166 3.4417 0
M  V30 16445 C 1554.32 1.34426 4.10553 0
M  V30 16446 C 1553.45 0.764527 5.2567 0
M  V30 16447 C 1552.49 1.83474 5.83955 0
M  V30 16448 N 1551.63 1.27372 6.9045 0
M  V30 16449 H 1556.47 1.7033 2.44524 0
M  V30 16450 H 1554 0.850418 1.20026 0
M  V30 16451 H 1555.96 -0.0774862 4.17128 0
M  V30 16452 H 1554.59 -0.620962 3.16771 0
M  V30 16453 H 1553.64 1.79169 3.35563 0
M  V30 16454 H 1554.96 2.15354 4.49916 0
M  V30 16455 H 1554.11 0.384548 6.0548 0
M  V30 16456 H 1552.85 -0.0759512 4.87641 0
M  V30 16457 H 1551.85 2.22391 5.02814 0
M  V30 16458 H 1553.08 2.67844 6.24048 0
M  V30 16459 H 1551.03 0.455069 6.5442 0
M  V30 16460 H 1550.94 2.01959 7.28525 0
M  V30 16461 H 1552.21 0.920975 7.7404 0
M  V30 16462 N 1556.44 -1.28223 0.91633 0
M  V30 16463 C 1557.67 -1.98697 0.56595 0
M  V30 16464 C 1558.08 -1.6864 -0.857734 0
M  V30 16465 O 1557.42 -0.937018 -1.58005 0
M  V30 16466 C 1557.48 -3.52653 0.698292 0
M  V30 16467 C 1557.15 -4.06306 2.092 0
M  V30 16468 C 1558.14 -4.19946 3.06499 0
M  V30 16469 C 1555.83 -4.40934 2.40587 0
M  V30 16470 C 1557.82 -4.67471 4.33301 0
M  V30 16471 C 1555.51 -4.88153 3.67628 0
M  V30 16472 C 1556.51 -5.01378 4.63798 0
M  V30 16473 O 1556.2 -5.47566 5.8858 0
M  V30 16474 H 1555.93 -0.641153 0.214239 0
M  V30 16475 H 1558.48 -1.64322 1.23237 0
M  V30 16476 H 1556.71 -3.86692 -0.0252036 0
M  V30 16477 H 1558.4 -4.04348 0.354638 0
M  V30 16478 H 1559.17 -3.93464 2.83569 0
M  V30 16479 H 1555.05 -4.29889 1.66482 0
M  V30 16480 H 1558.59 -4.77709 5.0837 0
M  V30 16481 H 1554.49 -5.14074 3.90382 0
M  V30 16482 H 1555.25 -5.65845 5.91406 0
M  V30 16483 N 1557.92 -0.68059 -1.42147 0
M  V30 16484 C 1558.85 0.0444079 -2.28157 0
M  V30 16485 C 1559.83 0.802929 -1.41392 0
M  V30 16486 O 1561.01 0.796856 -1.70829 0
M  V30 16487 C 1558.14 1.07013 -3.2135 0
M  V30 16488 C 1557.19 0.406524 -4.24558 0
M  V30 16489 S 1558.02 -0.840134 -5.28869 0
M  V30 16490 C 1559.17 0.184372 -6.25628 0
M  V30 16491 H 1559.41 -0.685124 -2.89298 0
M  V30 16492 H 1556.94 -0.470332 -1.47062 0
M  V30 16493 H 1558.9 1.65683 -3.75579 0
M  V30 16494 H 1557.56 1.77215 -2.59333 0
M  V30 16495 H 1556.75 1.18069 -4.89975 0
M  V30 16496 H 1556.35 -0.10672 -3.73848 0
M  V30 16497 H 1558.65 1.04232 -6.69434 0
M  V30 16498 H 1559.59 -0.43548 -7.0676 0
M  V30 16499 H 1560 0.532442 -5.61983 0
M  V30 16500 N 1559.4 1.51781 -0.424309 0
M  V30 16501 C 1560.36 2.25996 0.381903 0
M  V30 16502 C 1561.36 1.28938 0.960813 0
M  V30 16503 O 1562.55 1.52757 0.837306 0
M  V30 16504 C 1559.68 3.04181 1.53904 0
M  V30 16505 H 1560.87 2.98697 -0.268336 0
M  V30 16506 H 1558.43 1.55293 -0.177167 0
M  V30 16507 H 1559.16 2.35866 2.22571 0
M  V30 16508 H 1558.95 3.75457 1.13025 0
M  V30 16509 H 1560.44 3.60434 2.10896 0
M  V30 16510 N 1560.87 0.155222 1.56834 0
M  V30 16511 C 1562.1 -0.503763 2.01189 0
M  V30 16512 C 1562.52 -1.57086 1.03468 0
M  V30 16513 O 1561.88 -1.81296 0.0116895 0
M  V30 16514 C 1561.93 -1.07373 3.44243 0
M  V30 16515 O 1561.03 -2.18834 3.49551 0
M  V30 16516 H 1560.37 -0.122368 0.652627 0
M  V30 16517 H 1562.9 0.254377 2.03013 0
M  V30 16518 H 1562.91 -1.40036 3.83215 0
M  V30 16519 H 1561.59 -0.292339 4.14871 0
M  V30 16520 H 1560.17 -1.87337 3.22427 0
M  V30 16521 N 1562.35 -1.57153 -0.118549 0
M  V30 16522 C 1563.77 -1.52458 -0.472096 0
M  V30 16523 C 1563.97 -0.868289 -1.81832 0
M  V30 16524 O 1563.02 -0.450817 -2.48443 0
M  V30 16525 C 1564.34 -2.9722 -0.456175 0
M  V30 16526 C 1565.88 -3.08312 -0.539694 0
M  V30 16527 C 1566.36 -4.54635 -0.554158 0
M  V30 16528 N 1567.85 -4.59091 -0.615584 0
M  V30 16529 C 1568.59 -5.69724 -0.64823 0
M  V30 16530 N 1568.08 -6.89852 -0.638494 0
M  V30 16531 N 1569.87 -5.57833 -0.691272 0
M  V30 16532 H 1562.03 -1.98202 0.76353 0
M  V30 16533 H 1564.29 -0.905179 0.281699 0
M  V30 16534 H 1563.99 -3.48608 0.465364 0
M  V30 16535 H 1563.87 -3.5468 -1.28381 0
M  V30 16536 H 1566.26 -2.56926 -1.45165 0
M  V30 16537 H 1566.34 -2.53845 0.315638 0
M  V30 16538 H 1565.98 -5.06667 0.353759 0
M  V30 16539 H 1565.91 -5.06914 -1.42638 0
M  V30 16540 H 1568.4 -3.72624 -0.629253 0
M  V30 16541 H 1568.71 -7.69925 -0.66604 0
M  V30 16542 H 1567.06 -6.92354 -0.605912 0
M  V30 16543 H 1570.25 -4.62893 -0.696244 0
M  V30 16544 H 1570.42 -6.44063 -0.713246 0
M  V30 16545 N 1563.83 0.388742 -1.5273 0
M  V30 16546 C 1565.08 1.13151 -1.67455 0
M  V30 16547 C 1565.4 1.90487 -0.417095 0
M  V30 16548 O 1564.67 1.87469 0.568509 0
M  V30 16549 H 1563.25 0.4207 -0.617269 0
M  V30 16550 H 1565.91 0.44098 -1.89846 0
M  V30 16551 H 1565.01 1.83427 -2.52509 0
M  V30 16552 N 1565.31 1.43698 0.647203 0
M  V30 16553 C 1566.24 1.45295 1.77262 0
M  V30 16554 C 1567.25 0.34831 1.5903 0
M  V30 16555 O 1568.44 0.613106 1.6764 0
M  V30 16556 C 1565.54 1.25584 3.14773 0
M  V30 16557 C 1564.71 2.48998 3.59609 0
M  V30 16558 C 1563.77 2.24423 4.75942 0
M  V30 16559 O 1562.8 2.97813 4.85073 0
M  V30 16560 N 1564 1.26465 5.66557 0
M  V30 16561 H 1566.77 2.42311 1.76368 0
M  V30 16562 H 1564.33 1.38931 0.831247 0
M  V30 16563 H 1566.32 1.07016 3.90294 0
M  V30 16564 H 1564.89 0.369927 3.10403 0
M  V30 16565 H 1564.11 2.82951 2.74467 0
M  V30 16566 H 1565.4 3.31119 3.86313 0
M  V30 16567 H 1564.8 0.658206 5.61858 0
M  V30 16568 H 1563.35 1.13879 6.41775 0
M  V30 16569 N 1566.79 -0.886131 1.30328 0
M  V30 16570 C 1567.73 -1.99174 1.16612 0
M  V30 16571 C 1568.7 -1.66006 0.0559202 0
M  V30 16572 O 1569.89 -1.89458 0.225897 0
M  V30 16573 C 1567.03 -3.34142 0.862726 0
M  V30 16574 C 1566.14 -3.80008 2.05469 0
M  V30 16575 C 1565.28 -5.03617 1.68949 0
M  V30 16576 C 1564.32 -5.41888 2.84647 0
M  V30 16577 N 1563.45 -6.56678 2.48431 0
M  V30 16578 H 1568.29 -2.10238 2.11197 0
M  V30 16579 H 1565.83 -1.02941 1.05079 0
M  V30 16580 H 1567.79 -4.11826 0.667447 0
M  V30 16581 H 1566.42 -3.22767 -0.0462461 0
M  V30 16582 H 1565.47 -2.98243 2.36126 0
M  V30 16583 H 1566.78 -4.04312 2.92119 0
M  V30 16584 H 1565.94 -5.88923 1.45789 0
M  V30 16585 H 1564.67 -4.81182 0.794674 0
M  V30 16586 H 1563.68 -4.55109 3.08474 0
M  V30 16587 H 1564.9 -5.66296 3.74813 0
M  V30 16588 H 1562.85 -6.35821 1.61453 0
M  V30 16589 H 1562.77 -6.80846 3.28611 0
M  V30 16590 H 1564.04 -7.45219 2.28624 0
M  V30 16591 N 1568.26 -1.13026 -1.09832 0
M  V30 16592 C 1569.23 -0.806832 -2.14529 0
M  V30 16593 C 1570.23 0.18175 -1.5977 0
M  V30 16594 O 1571.42 -0.0448155 -1.74142 0
M  V30 16595 C 1568.55 -0.200093 -3.40312 0
M  V30 16596 H 1569.74 -1.73453 -2.44651 0
M  V30 16597 H 1567.3 -0.934331 -1.25299 0
M  V30 16598 H 1568.03 0.737028 -3.15814 0
M  V30 16599 H 1567.82 -0.911945 -3.81348 0
M  V30 16600 H 1569.31 0.00948247 -4.17599 0
M  V30 16601 N 1569.74 1.27735 -0.923117 0
M  V30 16602 C 1570.69 2.26997 -0.417254 0
M  V30 16603 C 1571.66 1.57968 0.513364 0
M  V30 16604 O 1572.84 1.8581 0.433521 0
M  V30 16605 C 1569.98 3.43537 0.328089 0
M  V30 16606 C 1569.1 4.27291 -0.636112 0
M  V30 16607 C 1568.23 5.31044 0.128614 0
M  V30 16608 C 1567.27 6.06466 -0.828592 0
M  V30 16609 N 1566.41 7.02033 -0.0967858 0
M  V30 16610 H 1571.25 2.69643 -1.26872 0
M  V30 16611 H 1568.79 1.32597 -0.6369 0
M  V30 16612 H 1570.74 4.0991 0.776504 0
M  V30 16613 H 1569.37 3.01855 1.14383 0
M  V30 16614 H 1568.43 3.60875 -1.20306 0
M  V30 16615 H 1569.74 4.79679 -1.36784 0
M  V30 16616 H 1568.89 6.03345 0.637159 0
M  V30 16617 H 1567.63 4.79448 0.893341 0
M  V30 16618 H 1566.64 5.33008 -1.34843 0
M  V30 16619 H 1567.86 6.60151 -1.59303 0
M  V30 16620 H 1565.81 6.52774 0.649779 0
M  V30 16621 H 1565.72 7.52087 -0.768171 0
M  V30 16622 H 1566.99 7.78517 0.391257 0
M  V30 16623 N 1571.22 0.688118 1.41784 0
M  V30 16624 C 1572.45 0.223231 2.06195 0
M  V30 16625 C 1572.87 -1.11601 1.51416 0
M  V30 16626 O 1572.23 -1.69701 0.638059 0
M  V30 16627 C 1572.28 0.183257 3.60134 0
M  V30 16628 O 1571.38 -0.844186 4.03667 0
M  V30 16629 H 1570.72 0.110925 0.654669 0
M  V30 16630 H 1573.25 0.940882 1.81683 0
M  V30 16631 H 1573.26 0.0115951 4.07998 0
M  V30 16632 H 1571.94 1.16072 3.99375 0
M  V30 16633 H 1570.51 -0.642484 3.67323 0
M  V30 16634 N 1572.7 -1.51554 0.432352 0
M  V30 16635 C 1573.63 -2.24175 -0.426721 0
M  V30 16636 C 1574.61 -1.2591 -1.02885 0
M  V30 16637 O 1575.79 -1.55031 -1.07227 0
M  V30 16638 C 1572.92 -2.9883 -1.59431 0
M  V30 16639 C 1571.97 -4.11712 -1.11335 0
M  V30 16640 S 1572.8 -5.35467 -0.0594485 0
M  V30 16641 C 1573.96 -6.13659 -1.23182 0
M  V30 16642 H 1574.19 -2.96693 0.18984 0
M  V30 16643 H 1571.72 -1.5287 0.216828 0
M  V30 16644 H 1573.68 -3.42442 -2.2637 0
M  V30 16645 H 1572.34 -2.2591 -2.18228 0
M  V30 16646 H 1571.53 -4.63207 -1.98633 0
M  V30 16647 H 1571.14 -3.70335 -0.522268 0
M  V30 16648 H 1573.43 -6.42443 -2.15113 0
M  V30 16649 H 1574.37 -7.04043 -0.756938 0
M  V30 16650 H 1574.78 -5.45074 -1.46813 0
M  V30 16651 N 1574.18 -0.163538 -1.56749 0
M  V30 16652 C 1575.09 0.782461 -2.21167 0
M  V30 16653 C 1576.1 1.25911 -1.20093 0
M  V30 16654 O 1577.28 1.31286 -1.52728 0
M  V30 16655 C 1574.34 1.99761 -2.83366 0
M  V30 16656 C 1573.4 1.56859 -3.99617 0
M  V30 16657 C 1572.64 2.72582 -4.58841 0
M  V30 16658 O 1572.86 3.89243 -4.16949 0
M  V30 16659 O 1571.79 2.47104 -5.48838 0
M  V30 16660 H 1575.62 0.264023 -3.0255 0
M  V30 16661 H 1573.21 0.06429 -1.49262 0
M  V30 16662 H 1575.09 2.70843 -3.22835 0
M  V30 16663 H 1573.76 2.50526 -2.04984 0
M  V30 16664 H 1572.67 0.827511 -3.64833 0
M  V30 16665 H 1574 1.10794 -4.79568 0
M  V30 16666 N 1575.65 1.57214 0.110213 0
M  V30 16667 C 1576.9 1.84946 0.814827 0
M  V30 16668 C 1577.22 0.750029 1.79999 0
M  V30 16669 O 1576.49 -0.225164 1.94602 0
M  V30 16670 H 1575.07 0.682385 0.303907 0
M  V30 16671 H 1577.74 1.94666 0.0954415 0
M  V30 16672 H 1576.83 2.81167 1.35469 0
M  V30 16673 N 1577.13 -0.380637 1.52934 0
M  V30 16674 C 1578.38 -1.12483 1.68386 0
M  V30 16675 C 1578.71 -1.89733 0.427993 0
M  V30 16676 O 1577.96 -1.86601 -0.589795 0
M  V30 16677 C 1578.26 -2.1227 2.87535 0
M  V30 16678 C 1577.93 -1.51615 4.24645 0
M  V30 16679 C 1576.59 -1.348 4.61933 0
M  V30 16680 C 1578.94 -1.07595 5.09973 0
M  V30 16681 C 1576.27 -0.725254 5.822 0
M  V30 16682 C 1578.62 -0.467273 6.30872 0
M  V30 16683 C 1577.29 -0.286488 6.66885 0
M  V30 16684 H 1576.56 -0.411606 0.616167 0
M  V30 16685 H 1579.2 -0.408435 1.87094 0
M  V30 16686 H 1577.51 -2.90159 2.63277 0
M  V30 16687 H 1579.2 -2.69777 2.96684 0
M  V30 16688 H 1575.79 -1.65693 3.95277 0
M  V30 16689 H 1579.98 -1.19385 4.81727 0
M  V30 16690 H 1575.23 -0.573461 6.08705 0
M  V30 16691 H 1579.41 -0.117914 6.963 0
M  V30 16692 H 1577.04 0.198141 7.59942 0
M  V30 16693 N 1578.61 -1.44039 -0.639573 0
M  V30 16694 C 1579.54 -1.46233 -1.76489 0
M  V30 16695 C 1580.56 -0.356739 -1.58843 0
M  V30 16696 O 1581.74 -0.621988 -1.67313 0
M  V30 16697 C 1578.84 -1.27252 -3.14102 0
M  V30 16698 C 1578.02 -2.50902 -3.58283 0
M  V30 16699 C 1577.08 -2.26944 -4.74745 0
M  V30 16700 O 1576.1 -3.00381 -4.83487 0
M  V30 16701 N 1577.3 -1.29468 -5.65878 0
M  V30 16702 H 1580.07 -2.43243 -1.7508 0
M  V30 16703 H 1577.63 -1.3937 -0.823867 0
M  V30 16704 H 1579.62 -1.09085 -3.89721 0
M  V30 16705 H 1578.19 -0.386383 -3.10203 0
M  V30 16706 H 1577.41 -2.84403 -2.72963 0
M  V30 16707 H 1578.7 -3.33163 -3.84552 0
M  V30 16708 H 1578.1 -0.687994 -5.61501 0
M  V30 16709 H 1576.66 -1.17281 -6.41162 0
M  V30 16710 N 1580.09 0.879207 -1.30796 0
M  V30 16711 C 1581.37 1.61328 -1.10602 0
M  V30 16712 C 1581.75 2.08301 0.342621 0
M  V30 16713 O 1581.09 1.85436 1.33514 0
M  V30 16714 C 1581.3 2.77838 -2.11203 0
M  V30 16715 C 1582.65 3.48028 -2.43231 0
M  V30 16716 O 1583.68 2.88034 -2.09559 0
M  V30 16717 O 1582.53 4.56233 -3.00854 0
M  V30 16718 H 1579.63 0.709335 -0.425174 0
M  V30 16719 H 1582.17 0.925478 -1.42243 0
M  V30 16720 H 1580.95 2.40475 -3.08687 0
M  V30 16721 H 1580.57 3.54312 -1.80414 0
M  V30 16722 N 1581.57 1.13606 1.09231 0
M  V30 16723 C 1582.5 0.837908 2.17948 0
M  V30 16724 C 1583.48 -0.203575 1.68877 0
M  V30 16725 O 1584.66 -0.0620702 1.94101 0
M  V30 16726 C 1581.79 0.305342 3.45955 0
M  V30 16727 C 1580.75 1.2813 4.08371 0
M  V30 16728 C 1580.07 0.608412 5.31227 0
M  V30 16729 C 1581.37 2.64055 4.50636 0
M  V30 16730 H 1583.07 1.747 2.43147 0
M  V30 16731 H 1580.61 0.84141 1.1686 0
M  V30 16732 H 1582.57 0.0844116 4.21315 0
M  V30 16733 H 1581.29 -0.639144 3.20285 0
M  V30 16734 H 1579.95 1.48826 3.35032 0
M  V30 16735 H 1579.6 -0.341613 5.01839 0
M  V30 16736 H 1579.3 1.25956 5.73942 0
M  V30 16737 H 1580.82 0.396809 6.09309 0
M  V30 16738 H 1582.24 2.47316 5.17212 0
M  V30 16739 H 1580.63 3.25364 5.0424 0
M  V30 16740 H 1581.7 3.21566 3.62937 0
M  V30 16741 N 1583.05 -1.27244 0.929878 0
M  V30 16742 C 1583.98 -2.29161 0.448066 0
M  V30 16743 C 1584.96 -1.62806 -0.492776 0
M  V30 16744 O 1586.14 -1.90098 -0.39706 0
M  V30 16745 C 1583.27 -3.46019 -0.298002 0
M  V30 16746 C 1582.23 -4.24384 0.555211 0
M  V30 16747 C 1581.55 -5.33741 -0.320153 0
M  V30 16748 C 1582.85 -4.89535 1.8208 0
M  V30 16749 H 1584.55 -2.69712 1.29983 0
M  V30 16750 H 1582.09 -1.29659 0.626466 0
M  V30 16751 H 1584.04 -4.16419 -0.646024 0
M  V30 16752 H 1582.77 -3.0439 -1.18381 0
M  V30 16753 H 1581.43 -3.55733 0.885971 0
M  V30 16754 H 1581.08 -4.88354 -1.20498 0
M  V30 16755 H 1580.78 -5.8708 0.247241 0
M  V30 16756 H 1582.3 -6.06982 -0.663697 0
M  V30 16757 H 1583.71 -5.52209 1.54071 0
M  V30 16758 H 1582.11 -5.52941 2.33186 0
M  V30 16759 H 1583.18 -4.13113 2.53901 0
M  V30 16760 N 1584.52 -0.695628 -1.41417 0
M  V30 16761 C 1585.47 -0.0189456 -2.32592 0
M  V30 16762 C 1586.47 0.76848 -1.50966 0
M  V30 16763 O 1587.67 0.674096 -1.66901 0
M  V30 16764 H 1584.05 0.0126742 -0.751893 0
M  V30 16765 H 1586.02 -0.804968 -2.87337 0
M  V30 16766 C 1584.77 0.903458 -3.35757 0
M  V30 16767 H 1584.09 0.306963 -3.9862 0
M  V30 16768 H 1585.53 1.34525 -4.02093 0
M  V30 16769 C 1583.99 2.01966 -2.69651 0
M  V30 16770 O 1584.52 3.10845 -2.54438 0
M  V30 16771 N 1582.72 1.79741 -2.28345 0
M  V30 16772 H 1582.27 0.911929 -2.40918 0
M  V30 16773 H 1582.23 2.54609 -1.84449 0
M  V30 16774 N 1586 1.51322 -0.440383 0
M  V30 16775 C 1586.93 2.24398 0.414827 0
M  V30 16776 C 1587.91 1.26454 1.02216 0
M  V30 16777 O 1589.1 1.55597 1.06404 0
M  V30 16778 C 1586.22 2.99671 1.57844 0
M  V30 16779 C 1585.27 4.12297 1.0915 0
M  V30 16780 S 1586.1 5.35491 0.0310506 0
M  V30 16781 C 1587.26 6.14303 1.19926 0
M  V30 16782 H 1587.49 2.96588 -0.205572 0
M  V30 16783 H 1585.02 1.52753 -0.224932 0
M  V30 16784 H 1586.98 3.43638 2.24551 0
M  V30 16785 H 1585.64 2.27065 2.17027 0
M  V30 16786 H 1584.84 4.64254 1.96173 0
M  V30 16787 H 1584.44 3.70607 0.502621 0
M  V30 16788 H 1586.73 6.43575 2.11703 0
M  V30 16789 H 1587.67 7.04434 0.719591 0
M  V30 16790 H 1588.08 5.45845 1.43921 0
M  V30 16791 N 1587.48 0.171848 1.5666 0
M  V30 16792 C 1588.9 -0.184312 1.58532 0
M  V30 16793 C 1589.1 -1.62811 1.18721 0
M  V30 16794 O 1588.15 -2.35951 0.899066 0
M  V30 16795 C 1589.46 0.0969826 3.00544 0
M  V30 16796 C 1591.01 0.0352364 3.1298 0
M  V30 16797 C 1591.49 0.289528 4.57084 0
M  V30 16798 N 1592.98 0.237322 4.62592 0
M  V30 16799 C 1593.71 0.408247 5.71945 0
M  V30 16800 N 1593.21 0.638256 6.89854 0
M  V30 16801 N 1595 0.344115 5.61046 0
M  V30 16802 H 1587.15 1.11427 1.80825 0
M  V30 16803 H 1589.42 0.44302 0.838115 0
M  V30 16804 H 1589.12 1.09717 3.34148 0
M  V30 16805 H 1589 -0.611157 3.72216 0
M  V30 16806 H 1591.38 -0.955531 2.79202 0
M  V30 16807 H 1591.46 0.776095 2.43743 0
M  V30 16808 H 1591.11 1.27751 4.91571 0
M  V30 16809 H 1591.04 -0.471948 5.24481 0
M  V30 16810 H 1593.53 0.0652142 3.77844 0
M  V30 16811 H 1593.84 0.758116 7.69072 0
M  V30 16812 H 1592.19 0.674877 6.91716 0
M  V30 16813 H 1595.38 0.165008 4.67809 0
M  V30 16814 H 1595.55 0.480749 6.46214 0
M  V30 16815 N 1588.96 -1.5727 -0.101874 0
M  V30 16816 C 1590.37 -1.74753 -0.657147 0
M  V30 16817 C 1590.72 -0.793052 -1.79458 0
M  V30 16818 O 1589.84 0.0300559 -2.16379 0
M  V30 16819 C 1590.44 -3.1688 -1.19885 0
M  V30 16820 C 1589 -3.3581 -1.70025 0
M  V30 16821 C 1588.15 -2.70575 -0.607007 0
M  V30 16822 H 1591.1 -1.58214 0.124158 0
M  V30 16823 H 1591.12 -3.19378 -2.06829 0
M  V30 16824 H 1590.63 -3.86325 -0.37079 0
M  V30 16825 H 1588.73 -2.71434 -2.55253 0
M  V30 16826 H 1588.84 -4.44086 -1.79791 0
M  V30 16827 H 1587.21 -2.32284 -1.04481 0
M  V30 16828 H 1587.99 -3.42655 0.21036 0
M  V30 16829 N 1590.44 0.372521 -1.53134 0
M  V30 16830 C 1591.71 1.13113 -1.59577 0
M  V30 16831 C 1592.09 2.07294 -0.399027 0
M  V30 16832 O 1591.44 2.20171 0.611316 0
M  V30 16833 C 1591.65 1.87635 -2.94269 0
M  V30 16834 C 1593 2.42414 -3.48598 0
M  V30 16835 O 1594.02 1.9777 -2.96252 0
M  V30 16836 O 1592.88 3.24008 -4.40092 0
M  V30 16837 H 1589.98 0.518486 -0.644284 0
M  V30 16838 H 1592.52 0.376344 -1.65474 0
M  V30 16839 H 1591.29 1.18859 -3.72811 0
M  V30 16840 H 1590.92 2.70037 -2.91831 0
M  V30 16841 N 1591.91 1.44376 0.631925 0
M  V30 16842 C 1592.85 1.47167 1.75711 0
M  V30 16843 C 1593.86 0.365158 1.58652 0
M  V30 16844 O 1595.05 0.630852 1.66981 0
M  V30 16845 C 1592.15 1.28916 3.13423 0
M  V30 16846 C 1591.32 2.52798 3.56948 0
M  V30 16847 C 1590.38 2.29458 4.73535 0
M  V30 16848 O 1589.41 3.02941 4.81887 0
M  V30 16849 N 1590.61 1.32467 5.65184 0
M  V30 16850 H 1593.37 2.44168 1.73788 0
M  V30 16851 H 1590.93 1.39805 0.816465 0
M  V30 16852 H 1592.93 1.1115 3.89137 0
M  V30 16853 H 1591.5 0.402828 3.09994 0
M  V30 16854 H 1590.72 2.85846 2.71451 0
M  V30 16855 H 1592 3.35198 3.82779 0
M  V30 16856 H 1591.4 0.717762 5.61128 0
M  V30 16857 H 1589.96 1.2068 6.40531 0
M  V30 16858 N 1593.39 -0.872258 1.31261 0
M  V30 16859 C 1594.62 -1.6632 1.23905 0
M  V30 16860 C 1595.04 -1.87109 -0.192878 0
M  V30 16861 O 1594.4 -1.4112 -1.1382 0
M  V30 16862 C 1594.45 -3.00979 1.98606 0
M  V30 16863 O 1593.55 -3.90642 1.32183 0
M  V30 16864 H 1592.89 -0.507736 0.427902 0
M  V30 16865 H 1595.42 -1.0877 1.73292 0
M  V30 16866 H 1595.43 -3.50931 2.08113 0
M  V30 16867 H 1594.11 -2.85168 3.02741 0
M  V30 16868 H 1592.68 -3.4909 1.31112 0
M  V30 16869 N 1594.87 -1.14184 -1.08627 0
M  V30 16870 C 1595.82 -0.822297 -2.1758 0
M  V30 16871 C 1596.81 0.198863 -1.68229 0
M  V30 16872 O 1598.02 0.0551869 -1.79915 0
M  V30 16873 H 1594.39 -0.248183 -0.709866 0
M  V30 16874 H 1596.36 -1.74916 -2.41758 0
M  V30 16875 C 1595.11 -0.313671 -3.46282 0
M  V30 16876 H 1594.44 -1.09078 -3.84632 0
M  V30 16877 H 1595.88 -0.128604 -4.23805 0
M  V30 16878 C 1594.33 0.962289 -3.22865 0
M  V30 16879 O 1594.86 2.03649 -3.46251 0
M  V30 16880 N 1593.07 0.896635 -2.76421 0
M  V30 16881 H 1592.62 0.0223186 -2.5759 0
M  V30 16882 H 1592.58 1.75093 -2.61132 0
M  V30 16883 N 1596.35 1.26749 -0.936613 0
M  V30 16884 C 1597.59 1.94251 -0.582616 0
M  V30 16885 C 1597.93 1.73352 0.875361 0
M  V30 16886 O 1597.2 1.06784 1.62565 0
M  V30 16887 C 1597.49 3.48145 -0.920151 0
M  V30 16888 C 1597.34 3.78349 -2.43253 0
M  V30 16889 C 1598.66 4.37971 -0.432326 0
M  V30 16890 H 1595.78 0.705507 -0.213141 0
M  V30 16891 H 1598.42 1.49703 -1.17001 0
M  V30 16892 H 1596.57 3.8622 -0.420279 0
M  V30 16893 H 1598.24 3.50015 -3.00478 0
M  V30 16894 H 1596.48 3.24586 -2.87795 0
M  V30 16895 H 1597.15 4.85902 -2.61922 0
M  V30 16896 H 1599.63 4.07098 -0.860857 0
M  V30 16897 H 1598.51 5.44452 -0.697366 0
M  V30 16898 H 1598.77 4.37029 0.667694 0
M  V30 16899 N 1597.83 0.703118 1.41046 0
M  V30 16900 C 1599.24 0.375417 1.55122 0
M  V30 16901 C 1599.44 -1.11696 1.67709 0
M  V30 16902 O 1598.5 -1.90289 1.65971 0
M  V30 16903 C 1599.81 1.13056 2.78638 0
M  V30 16904 C 1601.36 1.11564 2.92442 0
M  V30 16905 C 1601.83 1.85268 4.18855 0
M  V30 16906 N 1603.33 1.82275 4.25829 0
M  V30 16907 C 1604.06 2.36137 5.2252 0
M  V30 16908 N 1603.56 2.98502 6.25195 0
M  V30 16909 N 1605.35 2.26349 5.14512 0
M  V30 16910 H 1597.5 1.67096 1.31121 0
M  V30 16911 H 1599.76 0.705573 0.633144 0
M  V30 16912 H 1599.47 2.18524 2.75572 0
M  V30 16913 H 1599.34 0.714037 3.7038 0
M  V30 16914 H 1601.73 0.0691901 2.95019 0
M  V30 16915 H 1601.81 1.57128 2.01853 0
M  V30 16916 H 1601.46 2.89896 4.1704 0
M  V30 16917 H 1601.39 1.37133 5.08431 0
M  V30 16918 H 1603.88 1.36812 3.52265 0
M  V30 16919 H 1604.19 3.37149 6.95378 0
M  V30 16920 H 1602.53 3.02582 6.25675 0
M  V30 16921 H 1605.73 1.77294 4.33226 0
M  V30 16922 H 1605.9 2.68629 5.89697 0
M  V30 16923 N 1599.3 -1.51086 0.448402 0
M  V30 16924 C 1600.72 -1.59278 0.101286 0
M  V30 16925 C 1600.92 -1.45847 -1.39036 0
M  V30 16926 O 1599.98 -1.30534 -2.16142 0
M  V30 16927 C 1601.29 -2.93999 0.631264 0
M  V30 16928 C 1602.84 -3.07337 0.59268 0
M  V30 16929 C 1603.31 -4.44599 1.09982 0
M  V30 16930 N 1604.8 -4.50949 1.05827 0
M  V30 16931 C 1605.54 -5.55503 1.42142 0
M  V30 16932 N 1605.03 -6.67422 1.85796 0
M  V30 16933 N 1606.83 -5.45922 1.33888 0
M  V30 16934 H 1598.98 -1.58062 1.41881 0
M  V30 16935 H 1601.24 -0.745702 0.585349 0
M  V30 16936 H 1600.95 -3.09233 1.67534 0
M  V30 16937 H 1600.82 -3.77149 0.0622533 0
M  V30 16938 H 1603.21 -2.91764 -0.442437 0
M  V30 16939 H 1603.29 -2.26 1.19823 0
M  V30 16940 H 1602.93 -4.60919 2.13345 0
M  V30 16941 H 1602.86 -5.24492 0.470703 0
M  V30 16942 H 1605.35 -3.70627 0.737822 0
M  V30 16943 H 1605.67 -7.43234 2.11714 0
M  V30 16944 H 1604.01 -6.68601 1.89731 0
M  V30 16945 H 1607.2 -4.57372 0.996415 0
M  V30 16946 H 1607.38 -6.2729 1.62517 0
M  V30 16947 N 1600.78 -0.180154 -1.56567 0
M  V30 16948 C 1601.72 0.785576 -2.14252 0
M  V30 16949 C 1602.69 1.21991 -1.07504 0
M  V30 16950 O 1603.88 1.3101 -1.35531 0
M  V30 16951 C 1601 2.05903 -2.68927 0
M  V30 16952 C 1600.05 1.76802 -3.88128 0
M  V30 16953 S 1600.88 0.92939 -5.27373 0
M  V30 16954 C 1602.04 2.21331 -5.8546 0
M  V30 16955 H 1602.27 0.295145 -2.95831 0
M  V30 16956 H 1599.81 0.0346427 -1.54361 0
M  V30 16957 H 1601.76 2.79043 -3.01074 0
M  V30 16958 H 1600.42 2.52059 -1.87417 0
M  V30 16959 H 1599.62 2.71312 -4.24742 0
M  V30 16960 H 1599.22 1.11753 -3.56914 0
M  V30 16961 H 1601.51 3.16718 -5.98912 0
M  V30 16962 H 1602.45 1.89172 -6.82363 0
M  V30 16963 H 1602.86 2.33495 -5.13946 0
M  V30 16964 N 1602.26 1.57322 0.0935319 0
M  V30 16965 C 1603.21 1.98608 1.11977 0
M  V30 16966 C 1604.19 0.864762 1.35686 0
M  V30 16967 O 1605.39 1.1286 1.36351 0
M  V30 16968 C 1602.52 2.41537 2.43957 0
M  V30 16969 C 1601.6 3.60357 2.23615 0
M  V30 16970 N 1601.99 4.75242 1.73144 0
M  V30 16971 C 1600.29 3.66485 2.54175 0
M  V30 16972 C 1600.99 5.5718 1.67109 0
M  V30 16973 N 1599.97 5.00396 2.1238 0
M  V30 16974 H 1603.77 2.84881 0.722513 0
M  V30 16975 H 1601.28 1.59587 0.300936 0
M  V30 16976 H 1603.28 2.69343 3.18213 0
M  V30 16977 H 1601.94 1.56641 2.84418 0
M  V30 16978 H 1602.95 4.97961 1.42319 0
M  V30 16979 H 1599.63 2.92255 2.9815 0
M  V30 16980 H 1601.02 6.59376 1.29125 0
M  V30 16981 N 1603.74 -0.364395 1.53329 0
M  V30 16982 C 1604.97 -1.1275 1.7348 0
M  V30 16983 C 1605.38 -1.83002 0.4643 0
M  V30 16984 O 1604.74 -1.73603 -0.562864 0
M  V30 16985 C 1604.79 -2.15691 2.90103 0
M  V30 16986 O 1604.51 -1.48298 4.12237 0
M  V30 16987 C 1606.01 -3.04539 3.22135 0
M  V30 16988 H 1603.23 -0.337084 0.580186 0
M  V30 16989 H 1605.78 -0.422952 2.00078 0
M  V30 16990 H 1603.93 -2.81742 2.65895 0
M  V30 16991 H 1604.34 -2.16896 4.77553 0
M  V30 16992 H 1605.82 -3.72747 4.07141 0
M  V30 16993 H 1606.3 -3.69414 2.3755 0
M  V30 16994 H 1606.9 -2.44103 3.48273 0
M  V30 16995 N 1605.22 -1.44709 -0.62426 0
M  V30 16996 C 1606.18 -1.51738 -1.7178 0
M  V30 16997 C 1607.18 -0.398646 -1.5578 0
M  V30 16998 O 1608.37 -0.661525 -1.61151 0
M  V30 16999 C 1605.5 -1.39792 -3.1092 0
M  V30 17000 H 1606.69 -2.49154 -1.6692 0
M  V30 17001 H 1604.25 -1.31903 -0.838531 0
M  V30 17002 H 1604.98 -0.434955 -3.2137 0
M  V30 17003 H 1604.77 -2.20919 -3.2394 0
M  V30 17004 H 1606.26 -1.47706 -3.90606 0
M  V30 17005 N 1606.69 0.865285 -1.31722 0
M  V30 17006 C 1607.94 1.62108 -1.21855 0
M  V30 17007 C 1608.27 1.9293 0.221714 0
M  V30 17008 O 1607.55 1.56423 1.15595 0
M  V30 17009 C 1607.83 2.94828 -2.06756 0
M  V30 17010 C 1607.68 2.70855 -3.59107 0
M  V30 17011 C 1609 3.95983 -1.92055 0
M  V30 17012 H 1606.12 0.588234 -0.444015 0
M  V30 17013 H 1608.76 0.999922 -1.6156 0
M  V30 17014 H 1606.91 3.47843 -1.73025 0
M  V30 17015 H 1608.59 2.24477 -4.02999 0
M  V30 17016 H 1606.83 2.05004 -3.82303 0
M  V30 17017 H 1607.5 3.65312 -4.13825 0
M  V30 17018 H 1609.98 3.52193 -2.21584 0
M  V30 17019 H 1608.85 4.86724 -2.53754 0
M  V30 17020 H 1609.11 4.33148 -0.885174 0
M  V30 17021 N 1608.17 1.14759 1.0802 0
M  V30 17022 C 1609.12 0.838134 2.15044 0
M  V30 17023 C 1610.09 -0.206031 1.64817 0
M  V30 17024 O 1611.27 -0.0750812 1.90652 0
M  V30 17025 C 1608.41 0.326112 3.43556 0
M  V30 17026 C 1607.53 1.43104 4.07609 0
M  V30 17027 C 1606.66 0.875857 5.2393 0
M  V30 17028 C 1605.7 1.9582 5.79932 0
M  V30 17029 N 1604.84 1.41989 6.87593 0
M  V30 17030 H 1609.68 1.75478 2.40856 0
M  V30 17031 H 1607.22 0.875686 1.18195 0
M  V30 17032 H 1609.17 0.0110103 4.17199 0
M  V30 17033 H 1607.8 -0.55363 3.18017 0
M  V30 17034 H 1606.86 1.86247 3.31687 0
M  V30 17035 H 1608.17 2.24849 4.45246 0
M  V30 17036 H 1607.32 0.512893 6.04528 0
M  V30 17037 H 1606.06 0.0275017 4.87692 0
M  V30 17038 H 1605.07 2.33006 4.97984 0
M  V30 17039 H 1606.29 2.81021 6.18227 0
M  V30 17040 H 1604.24 0.593779 6.53307 0
M  V30 17041 H 1604.15 2.17367 7.24077 0
M  V30 17042 H 1605.42 1.08495 7.71913 0
M  V30 17043 N 1609.65 -1.26251 0.943322 0
M  V30 17044 C 1610.58 -2.28673 0.472347 0
M  V30 17045 C 1611.56 -1.63319 -0.475481 0
M  V30 17046 O 1612.75 -1.90508 -0.376875 0
M  V30 17047 C 1609.88 -3.46316 -0.261286 0
M  V30 17048 C 1608.83 -4.23771 0.600192 0
M  V30 17049 C 1608.16 -5.3405 -0.263525 0
M  V30 17050 C 1609.46 -4.87576 1.87262 0
M  V30 17051 H 1611.15 -2.68319 1.32836 0
M  V30 17052 H 1608.7 -1.28987 0.640182 0
M  V30 17053 H 1610.65 -4.1708 -0.601821 0
M  V30 17054 H 1609.37 -3.05629 -1.15146 0
M  V30 17055 H 1608.03 -3.54774 0.923651 0
M  V30 17056 H 1607.68 -4.89604 -1.15312 0
M  V30 17057 H 1607.38 -5.86784 0.309495 0
M  V30 17058 H 1608.9 -6.07652 -0.599281 0
M  V30 17059 H 1610.32 -5.50544 1.59919 0
M  V30 17060 H 1608.72 -5.50437 2.39038 0
M  V30 17061 H 1609.79 -4.10397 2.58268 0
M  V30 17062 N 1611.13 -0.710588 -1.40671 0
M  V30 17063 C 1612.08 -0.043614 -2.32559 0
M  V30 17064 C 1613.07 0.752425 -1.51773 0
M  V30 17065 O 1614.28 0.656356 -1.67607 0
M  V30 17066 H 1610.65 0.00469865 -0.751985 0
M  V30 17067 H 1612.62 -0.835399 -2.86468 0
M  V30 17068 C 1611.37 0.867796 -3.36697 0
M  V30 17069 H 1610.7 0.264667 -3.98923 0
M  V30 17070 H 1612.14 1.30252 -4.03498 0
M  V30 17071 C 1610.59 1.99094 -2.71778 0
M  V30 17072 O 1611.12 3.08129 -2.5772 0
M  V30 17073 N 1609.33 1.77309 -2.30239 0
M  V30 17074 H 1608.88 0.886325 -2.41872 0
M  V30 17075 H 1608.84 2.52639 -1.87139 0
M  V30 17076 N 1612.61 1.50847 -0.456408 0
M  V30 17077 C 1613.52 2.31959 0.351027 0
M  V30 17078 C 1614.53 1.41697 1.00986 0
M  V30 17079 O 1615.71 1.7476 1.00105 0
M  V30 17080 C 1612.77 3.15973 1.42696 0
M  V30 17081 C 1611.84 4.22038 0.786272 0
M  V30 17082 C 1611.07 5.02036 1.81094 0
M  V30 17083 O 1611.29 4.82913 3.03564 0
M  V30 17084 O 1610.23 5.85609 1.3909 0
M  V30 17085 H 1614.05 3.02096 -0.311678 0
M  V30 17086 H 1611.64 1.47793 -0.218544 0
M  V30 17087 H 1613.52 3.68146 2.05053 0
M  V30 17088 H 1612.19 2.48579 2.0734 0
M  V30 17089 H 1611.1 3.73894 0.124148 0
M  V30 17090 H 1612.43 4.9186 0.183016 0
M  V30 17091 N 1614.09 0.188454 1.56469 0
M  V30 17092 C 1615.33 -0.452728 1.97682 0
M  V30 17093 C 1615.66 -1.61729 1.07506 0
M  V30 17094 O 1614.94 -1.94094 0.125677 0
M  V30 17095 C 1615.22 -0.919257 3.48169 0
M  V30 17096 C 1615.08 0.246656 4.49123 0
M  V30 17097 C 1616.39 -1.78706 4.02184 0
M  V30 17098 H 1613.51 -0.16309 0.718729 0
M  V30 17099 H 1616.16 0.27804 1.87955 0
M  V30 17100 H 1614.31 -1.54195 3.5659 0
M  V30 17101 H 1615.98 0.884178 4.52747 0
M  V30 17102 H 1614.22 0.89948 4.24372 0
M  V30 17103 H 1614.89 -0.122179 5.51865 0
M  V30 17104 H 1617.37 -1.26196 3.96502 0
M  V30 17105 H 1616.24 -2.08247 5.07863 0
M  V30 17106 H 1616.5 -2.73891 3.47039 0
M  V30 17107 N 1615.56 -1.5737 -0.0851874 0
M  V30 17108 C 1616.81 -1.85772 -0.785604 0
M  V30 17109 C 1617.13 -0.779172 -1.79411 0
M  V30 17110 O 1618.33 -0.950621 -2.54314 0
M  V30 17111 C 1616.79 -3.29484 -1.44805 0
M  V30 17112 C 1616.4 -4.45434 -0.478799 0
M  V30 17113 C 1618.14 -3.671 -2.13161 0
M  V30 17114 C 1616.05 -5.80183 -1.1464 0
M  V30 17115 H 1614.98 -0.69298 -0.297145 0
M  V30 17116 H 1617.63 -1.83459 -0.0386776 0
M  V30 17117 H 1616.01 -3.26367 -2.24278 0
M  V30 17118 H 1617.18 -4.59917 0.285148 0
M  V30 17119 H 1615.5 -4.16281 0.0995964 0
M  V30 17120 H 1618.1 -4.65061 -2.6386 0
M  V30 17121 H 1618.44 -2.96223 -2.92503 0
M  V30 17122 H 1618.97 -3.72148 -1.40536 0
M  V30 17123 H 1615.71 -6.54317 -0.393583 0
M  V30 17124 H 1615.23 -5.69525 -1.88153 0
M  V30 17125 H 1616.91 -6.25074 -1.67006 0
M  V30 17126 N 1617.04 0.356258 -1.53521 0
M  V30 17127 C 1618.29 1.09953 -1.70406 0
M  V30 17128 C 1618.62 1.8869 -0.459304 0
M  V30 17129 O 1617.9 1.86751 0.54354 0
M  V30 17130 C 1618.18 2.05114 -2.95973 0
M  V30 17131 C 1618.03 1.29924 -4.30627 0
M  V30 17132 C 1619.35 3.0511 -3.17168 0
M  V30 17133 H 1616.47 0.398343 -0.620074 0
M  V30 17134 H 1619.11 0.379376 -1.86174 0
M  V30 17135 H 1617.26 2.66524 -2.82661 0
M  V30 17136 H 1618.93 0.71226 -4.55768 0
M  V30 17137 H 1617.18 0.601141 -4.29615 0
M  V30 17138 H 1617.85 1.99624 -5.1464 0
M  V30 17139 H 1620.32 2.53809 -3.29728 0
M  V30 17140 H 1619.2 3.68908 -4.06445 0
M  V30 17141 H 1619.46 3.75794 -2.32876 0
M  V30 17142 N 1618.52 1.45038 0.616577 0
M  V30 17143 C 1619.47 1.53343 1.74896 0
M  V30 17144 C 1620.46 0.404033 1.64511 0
M  V30 17145 O 1621.67 0.57958 1.70414 0
M  V30 17146 H 1618.04 0.481471 0.577658 0
M  V30 17147 H 1620.01 2.4862 1.65017 0
M  V30 17148 C 1618.76 1.50871 3.13262 0
M  V30 17149 H 1618.09 2.37098 3.21908 0
M  V30 17150 H 1619.53 1.60741 3.9235 0
M  V30 17151 C 1617.98 0.231704 3.36102 0
M  V30 17152 O 1618.51 -0.692154 3.95692 0
M  V30 17153 N 1616.72 0.130232 2.90308 0
M  V30 17154 H 1616.27 0.882893 2.41997 0
M  V30 17155 H 1616.23 -0.723403 3.05964 0
M  V30 17156 N 1620 -0.858287 1.32179 0
M  V30 17157 C 1620.94 -1.96656 1.20811 0
M  V30 17158 C 1621.91 -1.6585 0.0911199 0
M  V30 17159 O 1623.1 -1.88936 0.266033 0
M  V30 17160 C 1620.24 -3.32237 0.933408 0
M  V30 17161 C 1619.35 -3.75564 2.13484 0
M  V30 17162 C 1618.49 -4.9992 1.79593 0
M  V30 17163 C 1617.53 -5.35728 2.96077 0
M  V30 17164 N 1616.66 -6.51261 2.62304 0
M  V30 17165 H 1621.5 -2.05711 2.15609 0
M  V30 17166 H 1619.04 -1.00689 1.07239 0
M  V30 17167 H 1621 -4.10318 0.754651 0
M  V30 17168 H 1619.63 -3.22792 0.0222279 0
M  V30 17169 H 1618.68 -2.93167 2.42399 0
M  V30 17170 H 1619.99 -3.98025 3.00629 0
M  V30 17171 H 1619.15 -5.85698 1.58248 0
M  V30 17172 H 1617.89 -4.79388 0.896561 0
M  V30 17173 H 1616.89 -4.48463 3.18058 0
M  V30 17174 H 1618.12 -5.58219 3.86741 0
M  V30 17175 H 1616.06 -6.32254 1.74904 0
M  V30 17176 H 1615.98 -6.73722 3.42979 0
M  V30 17177 H 1617.25 -7.40202 2.4438 0
M  V30 17178 N 1621.48 -1.1533 -1.07409 0
M  V30 17179 C 1622.7 -0.952101 -1.84255 0
M  V30 17180 C 1623.13 0.494571 -1.81482 0
M  V30 17181 O 1622.48 1.35253 -1.20733 0
M  V30 17182 C 1622.53 -1.47019 -3.29268 0
M  V30 17183 O 1621.64 -0.669005 -4.06937 0
M  V30 17184 H 1620.98 -0.339643 -0.57056 0
M  V30 17185 H 1623.51 -1.53298 -1.35502 0
M  V30 17186 H 1623.52 -1.48278 -3.80102 0
M  V30 17187 H 1622.19 -2.5234 -3.30602 0
M  V30 17188 H 1620.77 -0.726003 -3.65764 0
M  V30 17189 N 1622.95 1.25748 -0.950004 0
M  V30 17190 C 1623.9 2.23767 -0.43731 0
M  V30 17191 C 1624.89 1.53856 0.47088 0
M  V30 17192 O 1626.08 1.74358 0.304687 0
M  V30 17193 C 1623.21 3.4209 0.288037 0
M  V30 17194 C 1622.29 4.19274 -0.637955 0
M  V30 17195 N 1622.69 4.73909 -1.76759 0
M  V30 17196 C 1620.98 4.43772 -0.445251 0
M  V30 17197 C 1621.68 5.32323 -2.34535 0
M  V30 17198 N 1620.66 5.18511 -1.63239 0
M  V30 17199 H 1624.46 2.6361 -1.29949 0
M  V30 17200 H 1621.98 1.40934 -0.806931 0
M  V30 17201 H 1623.97 4.11441 0.672433 0
M  V30 17202 H 1622.63 3.03771 1.14688 0
M  V30 17203 H 1623.64 4.71184 -2.14955 0
M  V30 17204 H 1620.32 4.15848 0.37109 0
M  V30 17205 H 1621.71 5.85411 -3.29763 0
M  V30 17206 N 1624.43 0.718038 1.40292 0
M  V30 17207 C 1625.34 0.0681535 2.34501 0
M  V30 17208 C 1626.36 -0.741048 1.57431 0
M  V30 17209 O 1627.53 -0.673437 1.89807 0
M  V30 17210 C 1624.6 -0.840758 3.36351 0
M  V30 17211 C 1623.66 -0.0212287 4.29295 0
M  V30 17212 C 1622.89 -0.886852 5.2628 0
M  V30 17213 O 1623.12 -2.12603 5.29298 0
M  V30 17214 O 1622.05 -0.324537 6.01024 0
M  V30 17215 H 1625.88 0.845288 2.91699 0
M  V30 17216 H 1623.46 0.478541 1.41529 0
M  V30 17217 H 1625.34 -1.36131 3.98806 0
M  V30 17218 H 1624.02 -1.597 2.81563 0
M  V30 17219 H 1622.92 0.544451 3.70117 0
M  V30 17220 H 1624.26 0.696846 4.87242 0
M  V30 17221 N 1625.91 -1.50602 0.464402 0
M  V30 17222 C 1626.87 -2.26929 -0.32185 0
M  V30 17223 C 1627.87 -1.3144 -0.926289 0
M  V30 17224 O 1629.06 -1.54924 -0.796511 0
M  V30 17225 C 1626.2 -3.08155 -1.45785 0
M  V30 17226 H 1627.39 -2.97881 0.347436 0
M  V30 17227 H 1624.94 -1.54768 0.218278 0
M  V30 17228 H 1625.68 -2.41684 -2.16239 0
M  V30 17229 H 1625.46 -3.78321 -1.03031 0
M  V30 17230 H 1626.95 -3.65899 -2.01266 0
M  V30 17231 N 1627.39 -0.19675 -1.56367 0
M  V30 17232 C 1628.34 0.723461 -2.19168 0
M  V30 17233 C 1629.31 1.20856 -1.13943 0
M  V30 17234 O 1630.49 1.27215 -1.42201 0
M  V30 17235 C 1627.63 1.93669 -2.85633 0
M  V30 17236 C 1626.74 1.49281 -4.05388 0
M  V30 17237 C 1625.88 2.66167 -4.59705 0
M  V30 17238 C 1624.92 2.18393 -5.71814 0
M  V30 17239 N 1624.05 3.28462 -6.20529 0
M  V30 17240 H 1628.89 0.181169 -2.97449 0
M  V30 17241 H 1626.43 0.0776802 -1.46895 0
M  V30 17242 H 1628.39 2.64865 -3.22339 0
M  V30 17243 H 1627.02 2.45227 -2.09913 0
M  V30 17244 H 1626.07 0.676658 -3.74333 0
M  V30 17245 H 1627.38 1.10231 -4.86467 0
M  V30 17246 H 1626.54 3.45483 -4.98725 0
M  V30 17247 H 1625.28 3.08491 -3.77736 0
M  V30 17248 H 1624.28 1.37531 -5.32321 0
M  V30 17249 H 1625.51 1.77097 -6.55602 0
M  V30 17250 H 1623.45 3.70315 -5.41482 0
M  V30 17251 H 1623.37 2.93587 -6.96665 0
M  V30 17252 H 1624.64 4.07988 -6.64204 0
M  V30 17253 N 1628.87 1.57413 0.0768405 0
M  V30 17254 C 1629.8 2.06378 1.09226 0
M  V30 17255 C 1630.78 0.956269 1.40675 0
M  V30 17256 O 1631.96 1.22868 1.5039 0
M  V30 17257 C 1629.09 2.50349 2.40712 0
M  V30 17258 C 1628.05 3.64931 2.23628 0
M  V30 17259 C 1627.37 3.9494 3.60453 0
M  V30 17260 C 1628.67 4.95162 1.66169 0
M  V30 17261 H 1630.37 2.91463 0.684827 0
M  V30 17262 H 1627.91 1.40215 0.327974 0
M  V30 17263 H 1629.87 2.83216 3.12036 0
M  V30 17264 H 1628.59 1.62287 2.83426 0
M  V30 17265 H 1627.25 3.32339 1.54747 0
M  V30 17266 H 1626.9 3.04016 4.00728 0
M  V30 17267 H 1626.6 4.72091 3.49863 0
M  V30 17268 H 1628.12 4.30299 4.33215 0
M  V30 17269 H 1629.53 5.26292 2.27353 0
M  V30 17270 H 1627.93 5.76601 1.66289 0
M  V30 17271 H 1629 4.80885 0.62271 0
M  V30 17272 N 1630.34 -0.348112 1.53707 0
M  V30 17273 C 1631.59 -1.09048 1.70987 0
M  V30 17274 C 1631.92 -1.88444 0.469305 0
M  V30 17275 O 1631.2 -1.87037 -0.533629 0
M  V30 17276 C 1631.48 -2.03542 2.97057 0
M  V30 17277 C 1631.33 -1.27638 4.3131 0
M  V30 17278 C 1632.65 -3.03424 3.18782 0
M  V30 17279 H 1629.77 -0.395049 0.622178 0
M  V30 17280 H 1632.41 -0.369498 1.86373 0
M  V30 17281 H 1630.56 -2.65021 2.8407 0
M  V30 17282 H 1632.24 -0.688079 4.56139 0
M  V30 17283 H 1630.48 -0.578349 4.29927 0
M  V30 17284 H 1631.15 -1.96891 5.15692 0
M  V30 17285 H 1633.63 -2.52056 3.31069 0
M  V30 17286 H 1632.5 -3.66748 4.08396 0
M  V30 17287 H 1632.76 -3.74553 2.34866 0
M  V30 17288 N 1631.82 -1.45363 -0.608876 0
M  V30 17289 C 1632.75 -1.56778 -1.7304 0
M  V30 17290 C 1633.73 -0.419405 -1.64848 0
M  V30 17291 O 1634.92 -0.64238 -1.83268 0
M  V30 17292 C 1632.05 -1.5329 -3.1164 0
M  V30 17293 C 1631 -2.66832 -3.34641 0
M  V30 17294 C 1630.33 -2.48398 -4.735 0
M  V30 17295 C 1631.63 -4.0885 -3.25021 0
M  V30 17296 H 1633.32 -2.50656 -1.63743 0
M  V30 17297 H 1630.87 -1.20635 -0.786338 0
M  V30 17298 H 1632.82 -1.59873 -3.89895 0
M  V30 17299 H 1631.55 -0.559414 -3.21773 0
M  V30 17300 H 1630.2 -2.59675 -2.58775 0
M  V30 17301 H 1629.85 -1.49191 -4.80366 0
M  V30 17302 H 1629.55 -3.24537 -4.89846 0
M  V30 17303 H 1631.08 -2.56833 -5.53958 0
M  V30 17304 H 1632.49 -4.17257 -3.93153 0
M  V30 17305 H 1630.89 -4.85369 -3.52897 0
M  V30 17306 H 1631.96 -4.30849 -2.2248 0
M  V30 17307 N 1633.3 0.851265 -1.32632 0
M  V30 17308 C 1634.23 1.97562 -1.24465 0
M  V30 17309 C 1635.21 1.69619 -0.127777 0
M  V30 17310 O 1636.4 1.9162 -0.315509 0
M  V30 17311 C 1633.53 3.33467 -0.970423 0
M  V30 17312 C 1632.48 3.75772 -2.0489 0
M  V30 17313 C 1631.81 5.09345 -1.62702 0
M  V30 17314 C 1633.11 3.90876 -3.4643 0
M  V30 17315 H 1634.8 2.04653 -2.18535 0
M  V30 17316 H 1632.35 0.983252 -1.05205 0
M  V30 17317 H 1634.3 4.11681 -0.899825 0
M  V30 17318 H 1633.02 3.26599 0.00591373 0
M  V30 17319 H 1631.68 2.99812 -2.1097 0
M  V30 17320 H 1631.33 4.98937 -0.638039 0
M  V30 17321 H 1631.03 5.38621 -2.34864 0
M  V30 17322 H 1632.55 5.90048 -1.57085 0
M  V30 17323 H 1633.97 4.59434 -3.42919 0
M  V30 17324 H 1632.37 4.31574 -4.1697 0
M  V30 17325 H 1633.44 2.93689 -3.85843 0
M  V30 17326 N 1634.78 1.15898 1.06796 0
M  V30 17327 C 1635.73 0.856808 2.16244 0
M  V30 17328 C 1636.72 -0.172075 1.68524 0
M  V30 17329 O 1637.93 -0.0265569 1.7998 0
M  V30 17330 H 1634.3 0.259445 0.705827 0
M  V30 17331 H 1636.27 1.7874 2.38945 0
M  V30 17332 C 1635.02 0.368721 3.45739 0
M  V30 17333 H 1634.34 1.15184 3.82848 0
M  V30 17334 H 1635.78 0.196012 4.23547 0
M  V30 17335 C 1634.24 -0.910802 3.24355 0
M  V30 17336 O 1634.77 -1.98115 3.49447 0
M  V30 17337 N 1632.98 -0.852545 2.77813 0
M  V30 17338 H 1632.53 0.0186646 2.57593 0
M  V30 17339 H 1632.48 -1.70917 2.63884 0
M  V30 17340 N 1636.26 -1.25243 0.956659 0
M  V30 17341 C 1637.19 -2.24251 0.422686 0
M  V30 17342 C 1638.17 -1.54815 -0.497106 0
M  V30 17343 O 1639.35 -1.83506 -0.431019 0
M  V30 17344 C 1636.48 -3.36436 -0.390996 0
M  V30 17345 C 1635.52 -4.23908 0.469484 0
M  V30 17346 S 1636.36 -5.00547 1.90297 0
M  V30 17347 C 1637.51 -6.16198 1.09777 0
M  V30 17348 H 1637.75 -2.69197 1.26175 0
M  V30 17349 H 1635.28 -1.3435 0.76088 0
M  V30 17350 H 1637.24 -4.01508 -0.854516 0
M  V30 17351 H 1635.9 -2.9007 -1.20491 0
M  V30 17352 H 1635.09 -5.03763 -0.154694 0
M  V30 17353 H 1634.69 -3.63781 0.868294 0
M  V30 17354 H 1636.99 -6.76609 0.347418 0
M  V30 17355 H 1637.93 -6.82953 1.87031 0
M  V30 17356 H 1638.34 -5.61007 0.627003 0
M  V30 17357 N 1637.73 -0.725468 -1.3991 0
M  V30 17358 C 1639.15 -0.340415 -1.8357 0
M  V30 17359 C 1639.5 1.1266 -1.6063 0
M  V30 17360 O 1638.62 1.86804 -1.0924 0
M  V30 17361 C 1639.22 -0.611079 -3.33244 0
M  V30 17362 C 1637.78 -0.279627 -3.7536 0
M  V30 17363 C 1636.92 -0.878498 -2.63017 0
M  V30 17364 H 1639.87 -0.923856 -1.29037 0
M  V30 17365 H 1639.89 0.120377 -3.8031 0
M  V30 17366 H 1639.41 -1.67886 -3.49908 0
M  V30 17367 H 1637.51 0.782703 -3.64286 0
M  V30 17368 H 1637.62 -0.755528 -4.73105 0
M  V30 17369 H 1635.98 -0.305813 -2.52857 0
M  V30 17370 H 1636.77 -1.95075 -2.8249 0
M  V30 17371 N 1639.21 1.50354 -0.472382 0
M  V30 17372 C 1640.46 2.01934 0.0820006 0
M  V30 17373 C 1640.78 1.35636 1.401 0
M  V30 17374 O 1640.05 0.502127 1.89355 0
M  V30 17375 H 1638.63 0.746258 0.0332943 0
M  V30 17376 H 1641.29 1.84671 -0.623099 0
M  V30 17377 H 1640.39 3.11232 0.232565 0
M  V30 17378 N 1640.69 0.205039 1.56261 0
M  V30 17379 C 1642.1 -0.305792 1.84179 0
M  V30 17380 C 1642.45 -1.60672 1.126 0
M  V30 17381 O 1641.58 -2.12855 0.390118 0
M  V30 17382 C 1642.17 -0.561596 3.34113 0
M  V30 17383 C 1640.73 -1.01677 3.62407 0
M  V30 17384 C 1639.88 -0.0707844 2.7721 0
M  V30 17385 H 1642.83 0.428609 1.52803 0
M  V30 17386 H 1642.85 -1.40969 3.53423 0
M  V30 17387 H 1642.36 0.38541 3.86182 0
M  V30 17388 H 1640.46 -1.97771 3.1578 0
M  V30 17389 H 1640.58 -0.902607 4.70521 0
M  V30 17390 H 1638.94 -0.574529 2.48136 0
M  V30 17391 H 1639.72 0.870844 3.32071 0
M  V30 17392 N 1642.17 -1.57451 -0.0684915 0
M  V30 17393 C 1643.58 -1.76107 -0.619932 0
M  V30 17394 C 1643.93 -0.830939 -1.77735 0
M  V30 17395 O 1643.06 -0.0158481 -2.16394 0
M  V30 17396 C 1643.65 -3.19352 -1.13136 0
M  V30 17397 C 1642.21 -3.39341 -1.62864 0
M  V30 17398 C 1641.36 -2.71801 -0.549477 0
M  V30 17399 H 1644.31 -1.57915 0.157689 0
M  V30 17400 H 1644.33 -3.23693 -2.00008 0
M  V30 17401 H 1643.84 -3.87024 -0.288762 0
M  V30 17402 H 1641.94 -2.76787 -2.49438 0
M  V30 17403 H 1642.06 -4.47799 -1.70331 0
M  V30 17404 H 1640.42 -2.34448 -0.995302 0
M  V30 17405 H 1641.2 -3.42132 0.282995 0
M  V30 17406 N 1643.65 0.339955 -1.5389 0
M  V30 17407 C 1645.06 0.683287 -1.44234 0
M  V30 17408 C 1645.26 1.92298 -0.601976 0
M  V30 17409 O 1644.32 2.52324 -0.0943623 0
M  V30 17410 C 1645.63 0.872576 -2.87761 0
M  V30 17411 C 1647.18 0.970965 -2.97559 0
M  V30 17412 C 1647.66 1.19254 -4.42202 0
M  V30 17413 N 1649.15 1.25966 -4.45743 0
M  V30 17414 C 1649.88 1.44869 -5.54798 0
M  V30 17415 N 1649.38 1.6092 -6.73852 0
M  V30 17416 N 1651.17 1.47445 -5.42417 0
M  V30 17417 H 1643.32 -0.475086 -2.07019 0
M  V30 17418 H 1645.58 -0.150644 -0.935954 0
M  V30 17419 H 1645.29 0.033117 -3.51684 0
M  V30 17420 H 1645.16 1.77326 -3.32919 0
M  V30 17421 H 1647.55 1.80094 -2.33774 0
M  V30 17422 H 1647.63 0.0471065 -2.55757 0
M  V30 17423 H 1647.28 0.367482 -5.06569 0
M  V30 17424 H 1647.21 2.13002 -4.81599 0
M  V30 17425 H 1649.7 1.15072 -3.59954 0
M  V30 17426 H 1650.01 1.74989 -7.52727 0
M  V30 17427 H 1648.36 1.58049 -6.7679 0
M  V30 17428 H 1651.55 1.34489 -4.48364 0
M  V30 17429 H 1651.72 1.61834 -6.27466 0
M  V30 17430 N 1645.13 1.45684 0.601159 0
M  V30 17431 C 1646.07 1.55189 1.7326 0
M  V30 17432 C 1647.07 0.421459 1.64073 0
M  V30 17433 O 1648.27 0.597622 1.6979 0
M  V30 17434 H 1644.65 0.487571 0.572519 0
M  V30 17435 H 1646.62 2.50357 1.6237 0
M  V30 17436 C 1645.37 1.54185 3.11644 0
M  V30 17437 H 1644.69 2.40498 3.19375 0
M  V30 17438 H 1646.13 1.64893 3.90623 0
M  V30 17439 C 1644.59 0.267339 3.35838 0
M  V30 17440 O 1645.12 -0.650146 3.96404 0
M  V30 17441 N 1643.33 0.161015 2.90154 0
M  V30 17442 H 1642.87 0.90851 2.41047 0
M  V30 17443 H 1642.83 -0.690911 3.06714 0
M  V30 17444 N 1646.6 -0.84422 1.33082 0
M  V30 17445 C 1648.01 -1.41526 1.21767 0
M  V30 17446 C 1648.37 -1.955 -0.165606 0
M  V30 17447 O 1647.49 -1.88384 -1.06492 0
M  V30 17448 C 1648.09 -2.57266 2.20454 0
M  V30 17449 C 1646.64 -3.10339 2.12995 0
M  V30 17450 C 1645.79 -1.83119 2.08237 0
M  V30 17451 H 1648.74 -0.650452 1.44758 0
M  V30 17452 H 1648.76 -3.34739 1.80914 0
M  V30 17453 H 1648.28 -2.17952 3.21121 0
M  V30 17454 H 1646.38 -3.5421 1.15612 0
M  V30 17455 H 1646.49 -3.70875 3.03296 0
M  V30 17456 H 1644.85 -2.03148 1.53632 0
M  V30 17457 H 1645.64 -1.46009 3.10703 0
M  V30 17458 N 1648.08 -1.16463 -1.0618 0
M  V30 17459 C 1648.99 -0.886601 -2.17202 0
M  V30 17460 C 1650.01 0.141568 -1.73423 0
M  V30 17461 O 1651.18 -0.0353417 -2.01369 0
M  V30 17462 C 1648.25 -0.392829 -3.44467 0
M  V30 17463 C 1647.31 -1.48636 -4.02748 0
M  V30 17464 C 1646.54 -1.01606 -5.23939 0
M  V30 17465 O 1646.77 0.133753 -5.70243 0
M  V30 17466 O 1645.7 -1.80487 -5.74202 0
M  V30 17467 H 1649.53 -1.81502 -2.43497 0
M  V30 17468 H 1647.11 -0.944691 -1.15741 0
M  V30 17469 H 1648.99 -0.124501 -4.21216 0
M  V30 17470 H 1647.67 0.507566 -3.19696 0
M  V30 17471 H 1646.57 -1.80845 -3.27484 0
M  V30 17472 H 1647.91 -2.3621 -4.31817 0
M  V30 17473 N 1649.56 1.24734 -0.963288 0
M  V30 17474 C 1650.81 1.92305 -0.621536 0
M  V30 17475 C 1651.13 1.75723 0.845363 0
M  V30 17476 O 1650.4 1.1261 1.60299 0
M  V30 17477 H 1648.98 0.71171 -0.226886 0
M  V30 17478 H 1651.64 1.5172 -1.2234 0
M  V30 17479 H 1650.74 3.00065 -0.858322 0
M  V30 17480 N 1651.04 0.732878 1.39523 0
M  V30 17481 C 1652.31 0.20629 1.94509 0
M  V30 17482 C 1652.69 -1.29152 1.66982 0
M  V30 17483 O 1652.04 -2.05607 0.996895 0
M  V30 17484 C 1652.25 0.537619 3.44834 0
M  V30 17485 C 1653.6 0.485787 4.21812 0
M  V30 17486 O 1654.62 0.474686 3.53023 0
M  V30 17487 O 1653.48 0.478457 5.44402 0
M  V30 17488 H 1650.58 0.0369228 0.826175 0
M  V30 17489 H 1653.12 0.811591 1.49035 0
M  V30 17490 H 1651.9 1.57289 3.58296 0
M  V30 17491 H 1651.52 -0.0967601 3.97482 0
M  V30 17492 N 1652.52 -1.50101 0.480349 0
M  V30 17493 C 1653.43 -2.32488 -0.31408 0
M  V30 17494 C 1654.44 -1.43285 -0.987186 0
M  V30 17495 O 1655.62 -1.7633 -0.973123 0
M  V30 17496 C 1652.68 -3.18203 -1.37651 0
M  V30 17497 C 1651.74 -4.23236 -0.71903 0
M  V30 17498 C 1650.98 -5.04854 -1.73084 0
M  V30 17499 O 1651.2 -4.87681 -2.95843 0
M  V30 17500 O 1650.13 -5.87748 -1.29755 0
M  V30 17501 H 1653.96 -3.01562 0.3597 0
M  V30 17502 H 1651.54 -1.47427 0.242029 0
M  V30 17503 H 1653.43 -3.71362 -1.9917 0
M  V30 17504 H 1652.1 -2.51846 -2.0336 0
M  V30 17505 H 1651.01 -3.74044 -0.0646492 0
M  V30 17506 H 1652.34 -4.92089 -0.104743 0
M  V30 17507 N 1653.99 -0.213323 -1.5615 0
M  V30 17508 C 1654.94 0.716708 -2.21283 0
M  V30 17509 C 1655.94 1.20599 -1.18963 0
M  V30 17510 O 1657.14 1.16677 -1.37064 0
M  V30 17511 H 1653.52 0.249524 -0.709395 0
M  V30 17512 H 1655.49 0.14385 -2.98053 0
M  V30 17513 C 1654.24 1.91775 -2.9003 0
M  V30 17514 H 1653.56 1.55036 -3.68516 0
M  V30 17515 H 1655 2.54646 -3.39016 0
M  V30 17516 C 1653.46 2.768 -1.92051 0
M  V30 17517 O 1653.99 3.75299 -1.43225 0
M  V30 17518 N 1652.19 2.42666 -1.5988 0
M  V30 17519 H 1651.74 1.62622 -1.99779 0
M  V30 17520 H 1651.7 2.99836 -0.945833 0
M  V30 17521 N 1655.47 1.57485 0.0601405 0
M  V30 17522 C 1656.7 1.91772 0.768565 0
M  V30 17523 C 1657.11 0.808661 1.71048 0
M  V30 17524 O 1656.45 -0.226062 1.82304 0
M  V30 17525 C 1656.52 3.21623 1.6062 0
M  V30 17526 C 1656.18 4.49355 0.832411 0
M  V30 17527 C 1657.18 5.19694 0.146434 0
M  V30 17528 C 1654.86 4.95951 0.796137 0
M  V30 17529 C 1656.86 6.34887 -0.565461 0
M  V30 17530 C 1654.54 6.11047 0.0804763 0
M  V30 17531 C 1655.54 6.80367 -0.599112 0
M  V30 17532 O 1655.23 7.93266 -1.30322 0
M  V30 17533 H 1654.96 0.638161 0.222994 0
M  V30 17534 H 1657.51 2.05376 0.0311569 0
M  V30 17535 H 1655.74 3.0426 2.38668 0
M  V30 17536 H 1657.43 3.41471 2.19436 0
M  V30 17537 H 1658.2 4.84717 0.16569 0
M  V30 17538 H 1654.08 4.4186 1.31457 0
M  V30 17539 H 1657.62 6.88929 -1.09646 0
M  V30 17540 H 1653.52 6.45473 0.0591881 0
M  V30 17541 H 1654.29 8.09452 -1.21369 0
M  V30 17542 N 1656.95 -0.331789 1.54068 0
M  V30 17543 C 1657.88 -1.43156 1.77713 0
M  V30 17544 C 1658.86 -1.50036 0.626723 0
M  V30 17545 O 1660.05 -1.67573 0.863228 0
M  V30 17546 C 1657.17 -2.81311 1.88632 0
M  V30 17547 C 1656.22 -2.92 3.10867 0
M  V30 17548 S 1657.05 -2.57255 4.69659 0
M  V30 17549 C 1658.21 -3.97497 4.83474 0
M  V30 17550 H 1658.44 -1.22884 2.70715 0
M  V30 17551 H 1655.97 -0.528148 1.45086 0
M  V30 17552 H 1657.93 -3.60898 1.95608 0
M  V30 17553 H 1656.59 -2.9887 0.966212 0
M  V30 17554 H 1655.79 -3.93261 3.15217 0
M  V30 17555 H 1655.39 -2.20374 3.02177 0
M  V30 17556 H 1657.68 -4.92156 4.65605 0
M  V30 17557 H 1658.62 -3.98135 5.85572 0
M  V30 17558 H 1659.03 -3.86069 4.11838 0
M  V30 17559 N 1658.43 -1.46001 -0.593424 0
M  V30 17560 C 1659.34 -1.58316 -1.73128 0
M  V30 17561 C 1660.35 -0.467029 -1.67615 0
M  V30 17562 O 1661.53 -0.729682 -1.87717 0
M  V30 17563 C 1658.6 -1.56007 -3.09617 0
M  V30 17564 C 1657.66 -2.78769 -3.26475 0
M  V30 17565 C 1656.89 -2.76561 -4.56453 0
M  V30 17566 O 1657.11 -1.84694 -5.39671 0
M  V30 17567 O 1656.05 -3.67959 -4.76329 0
M  V30 17568 H 1659.87 -2.54522 -1.65686 0
M  V30 17569 H 1657.46 -1.28672 -0.759204 0
M  V30 17570 H 1659.34 -1.57377 -3.9091 0
M  V30 17571 H 1658.01 -0.629571 -3.17519 0
M  V30 17572 H 1656.92 -2.82956 -2.44717 0
M  V30 17573 H 1658.25 -3.70992 -3.23459 0
M  V30 17574 N 1659.91 0.83715 -1.33527 0
M  V30 17575 C 1661.15 1.59251 -1.25081 0
M  V30 17576 C 1661.48 1.93638 0.182956 0
M  V30 17577 O 1660.74 1.59025 1.14059 0
M  V30 17578 C 1661.04 2.9113 -2.07312 0
M  V30 17579 C 1660.7 2.76098 -3.56484 0
M  V30 17580 C 1659.36 2.71706 -3.97151 0
M  V30 17581 C 1661.72 2.60781 -4.51268 0
M  V30 17582 C 1659.04 2.49899 -5.30818 0
M  V30 17583 C 1661.4 2.40507 -5.85097 0
M  V30 17584 C 1660.06 2.34519 -6.24946 0
M  V30 17585 H 1659.33 0.582741 -0.457705 0
M  V30 17586 H 1661.98 0.969749 -1.65131 0
M  V30 17587 H 1660.28 3.57621 -1.60045 0
M  V30 17588 H 1661.98 3.48632 -1.98133 0
M  V30 17589 H 1658.57 2.8035 -3.24194 0
M  V30 17590 H 1662.75 2.63207 -4.20756 0
M  V30 17591 H 1658.01 2.4371 -5.60728 0
M  V30 17592 H 1662.18 2.27639 -6.58144 0
M  V30 17593 H 1659.81 2.17381 -7.28457 0
M  V30 17594 N 1661.38 1.17024 1.05561 0
M  V30 17595 C 1662.31 0.906823 2.15172 0
M  V30 17596 C 1663.3 -0.149745 1.6944 0
M  V30 17597 O 1664.48 -0.000287092 1.942 0
M  V30 17598 C 1661.61 0.415251 3.44809 0
M  V30 17599 C 1660.56 1.41058 4.04088 0
M  V30 17600 C 1659.89 0.777109 5.29023 0
M  V30 17601 C 1661.19 2.78258 4.42007 0
M  V30 17602 H 1662.88 1.82347 2.37466 0
M  V30 17603 H 1660.43 0.878162 1.14124 0
M  V30 17604 H 1662.38 0.218407 4.20834 0
M  V30 17605 H 1661.11 -0.536924 3.22156 0
M  V30 17606 H 1659.77 1.5941 3.30127 0
M  V30 17607 H 1659.41 -0.181784 5.02671 0
M  V30 17608 H 1659.11 1.44151 5.69644 0
M  V30 17609 H 1660.64 0.590455 6.07738 0
M  V30 17610 H 1662.05 2.63645 5.09082 0
M  V30 17611 H 1660.45 3.41241 4.93634 0
M  V30 17612 H 1661.52 3.3295 3.52523 0
M  V30 17613 N 1662.86 -1.24221 0.969889 0
M  V30 17614 C 1663.77 -2.29001 0.509467 0
M  V30 17615 C 1664.79 -1.68587 -0.430637 0
M  V30 17616 O 1665.96 -1.99106 -0.303142 0
M  V30 17617 C 1663.03 -3.46174 -0.190906 0
M  V30 17618 C 1662.09 -4.21982 0.789296 0
M  V30 17619 C 1661.32 -5.3356 0.122252 0
M  V30 17620 O 1661.55 -5.59909 -1.08896 0
M  V30 17621 O 1660.48 -5.9635 0.815517 0
M  V30 17622 H 1664.31 -2.70506 1.38058 0
M  V30 17623 H 1661.89 -1.29955 0.737028 0
M  V30 17624 H 1663.77 -4.1733 -0.584244 0
M  V30 17625 H 1662.45 -3.06642 -1.03695 0
M  V30 17626 H 1661.36 -3.53192 1.23313 0
M  V30 17627 H 1662.69 -4.65337 1.60382 0
M  V30 17628 N 1664.34 -0.740267 -1.39132 0
M  V30 17629 C 1665.59 -0.290953 -2.00702 0
M  V30 17630 C 1665.92 1.12051 -1.58613 0
M  V30 17631 O 1665.19 1.76488 -0.817457 0
M  V30 17632 C 1665.48 -0.398765 -3.57885 0
M  V30 17633 C 1665.33 -1.85038 -4.09977 0
M  V30 17634 C 1666.65 0.215717 -4.39571 0
M  V30 17635 H 1663.77 -0.107194 -0.729163 0
M  V30 17636 H 1666.41 -0.937411 -1.65265 0
M  V30 17637 H 1664.56 0.151613 -3.88204 0
M  V30 17638 H 1666.23 -2.45804 -3.90357 0
M  V30 17639 H 1664.48 -2.36994 -3.63341 0
M  V30 17640 H 1665.15 -1.87705 -5.19106 0
M  V30 17641 H 1667.62 -0.253518 -4.15327 0
M  V30 17642 H 1666.5 0.109966 -5.4879 0
M  V30 17643 H 1666.76 1.30242 -4.2248 0
M  V30 17644 N 1665.82 1.49844 -0.488302 0
M  V30 17645 C 1666.75 2.31737 0.286432 0
M  V30 17646 C 1667.73 1.39424 0.974418 0
M  V30 17647 O 1668.91 1.68339 0.968274 0
M  V30 17648 C 1666.04 3.19616 1.35878 0
M  V30 17649 C 1665 4.20619 0.791409 0
M  V30 17650 C 1664.32 4.9735 1.96333 0
M  V30 17651 C 1665.62 5.21882 -0.208975 0
M  V30 17652 H 1667.32 2.96755 -0.397092 0
M  V30 17653 H 1664.86 1.42709 -0.192413 0
M  V30 17654 H 1666.82 3.75711 1.90838 0
M  V30 17655 H 1665.54 2.52516 2.07131 0
M  V30 17656 H 1664.2 3.65651 0.263647 0
M  V30 17657 H 1663.85 4.26708 2.66325 0
M  V30 17658 H 1663.55 5.65684 1.58983 0
M  V30 17659 H 1665.07 5.56286 2.51751 0
M  V30 17660 H 1666.49 5.72746 0.252049 0
M  V30 17661 H 1664.88 5.98033 -0.497638 0
M  V30 17662 H 1665.95 4.7157 -1.12916 0
M  V30 17663 N 1667.3 0.221601 1.56034 0
M  V30 17664 C 1668.52 -0.414945 2.02696 0
M  V30 17665 C 1668.94 -1.53344 1.10141 0
M  V30 17666 O 1668.3 -1.82162 0.111026 0
M  V30 17667 C 1668.35 -0.946532 3.48888 0
M  V30 17668 O 1668.07 0.12737 4.37915 0
M  V30 17669 C 1669.57 -1.65631 4.11195 0
M  V30 17670 H 1666.79 -0.101548 0.663271 0
M  V30 17671 H 1669.33 0.338069 2.01686 0
M  V30 17672 H 1667.49 -1.64982 3.50514 0
M  V30 17673 H 1667.9 -0.272211 5.23793 0
M  V30 17674 H 1669.38 -1.98027 5.15257 0
M  V30 17675 H 1669.85 -2.56947 3.56195 0
M  V30 17676 H 1670.46 -0.998231 4.13419 0
M  V30 17677 N 1668.77 -1.57515 -0.0517878 0
M  V30 17678 C 1669.68 -2.08427 -1.07681 0
M  V30 17679 C 1670.7 -1.01797 -1.41115 0
M  V30 17680 O 1671.88 -1.33394 -1.50891 0
M  V30 17681 C 1668.94 -2.53472 -2.36544 0
M  V30 17682 C 1668 -3.74488 -2.09899 0
M  V30 17683 C 1667.24 -4.17374 -3.32618 0
M  V30 17684 O 1667.46 -3.59962 -4.42475 0
M  V30 17685 O 1666.39 -5.10006 -3.19653 0
M  V30 17686 H 1670.22 -2.96122 -0.674217 0
M  V30 17687 H 1667.8 -1.4699 -0.267274 0
M  V30 17688 H 1669.69 -2.82876 -3.12345 0
M  V30 17689 H 1668.36 -1.68899 -2.76143 0
M  V30 17690 H 1667.27 -3.50137 -1.31739 0
M  V30 17691 H 1668.6 -4.59975 -1.75169 0
M  V30 17692 N 1670.25 0.323614 -1.54242 0
M  V30 17693 C 1671.5 1.05947 -1.72104 0
M  V30 17694 C 1671.82 1.88547 -0.497512 0
M  V30 17695 O 1671.09 1.89712 0.488485 0
M  V30 17696 H 1669.67 0.394141 -0.634557 0
M  V30 17697 H 1672.33 0.360063 -1.91545 0
M  V30 17698 H 1671.43 1.72552 -2.60062 0
M  V30 17699 N 1671.73 1.46313 0.585673 0
M  V30 17700 C 1672.66 1.59511 1.70524 0
M  V30 17701 C 1673.64 0.445578 1.6416 0
M  V30 17702 O 1674.83 0.671455 1.82223 0
M  V30 17703 C 1671.96 1.58229 3.09162 0
M  V30 17704 C 1670.91 2.72122 3.30354 0
M  V30 17705 C 1670.24 2.559 4.69489 0
M  V30 17706 C 1671.54 4.13969 3.18476 0
M  V30 17707 H 1673.23 2.53229 1.59735 0
M  V30 17708 H 1670.78 1.2187 0.767046 0
M  V30 17709 H 1672.73 1.66056 3.87303 0
M  V30 17710 H 1671.45 0.610535 3.20843 0
M  V30 17711 H 1670.11 2.63759 2.54611 0
M  V30 17712 H 1669.76 1.56814 4.77931 0
M  V30 17713 H 1669.46 3.32289 4.84621 0
M  V30 17714 H 1670.99 2.65613 5.49802 0
M  V30 17715 H 1672.4 4.23459 3.86465 0
M  V30 17716 H 1670.8 4.90922 3.45131 0
M  V30 17717 H 1671.87 4.34334 2.15598 0
M  V30 17718 N 1673.21 -0.830057 1.33969 0
M  V30 17719 C 1674.12 -1.97244 1.27012 0
M  V30 17720 C 1675.14 -1.73076 0.179075 0
M  V30 17721 O 1676.31 -1.97301 0.404262 0
M  V30 17722 C 1673.38 -3.31409 1.01827 0
M  V30 17723 C 1672.44 -3.68633 2.20018 0
M  V30 17724 C 1671.67 -4.96397 1.96025 0
M  V30 17725 O 1671.89 -5.63014 0.91494 0
M  V30 17726 O 1670.83 -5.31331 2.82791 0
M  V30 17727 H 1674.65 -2.06056 2.23103 0
M  V30 17728 H 1672.24 -0.964399 1.14104 0
M  V30 17729 H 1674.12 -4.11779 0.895337 0
M  V30 17730 H 1672.8 -3.23581 0.0877091 0
M  V30 17731 H 1671.7 -2.88738 2.37869 0
M  V30 17732 H 1673.04 -3.81138 3.11439 0
M  V30 17733 N 1674.69 -1.17582 -1.04939 0
M  V30 17734 C 1676.1 -0.923633 -1.30158 0
M  V30 17735 C 1676.3 0.415798 -1.97163 0
M  V30 17736 O 1675.36 1.15218 -2.2468 0
M  V30 17737 C 1676.67 -2.0828 -2.16887 0
M  V30 17738 C 1678.22 -2.12011 -2.30262 0
M  V30 17739 C 1678.7 -3.2732 -3.20352 0
M  V30 17740 N 1680.19 -3.27125 -3.27939 0
M  V30 17741 C 1680.92 -4.12988 -3.97779 0
M  V30 17742 N 1680.42 -5.08968 -4.70025 0
M  V30 17743 N 1682.21 -4.0093 -3.93969 0
M  V30 17744 H 1674.36 -2.03794 -0.598485 0
M  V30 17745 H 1676.62 -0.889991 -0.326528 0
M  V30 17746 H 1676.33 -3.051 -1.74948 0
M  V30 17747 H 1676.2 -2.03599 -3.17533 0
M  V30 17748 H 1678.59 -1.15774 -2.71441 0
M  V30 17749 H 1678.67 -2.20752 -1.29236 0
M  V30 17750 H 1678.32 -4.23823 -2.79886 0
M  V30 17751 H 1678.25 -3.15814 -4.21389 0
M  V30 17752 H 1680.74 -2.57634 -2.76465 0
M  V30 17753 H 1681.05 -5.70876 -5.20885 0
M  V30 17754 H 1679.4 -5.12935 -4.68959 0
M  V30 17755 H 1682.59 -3.2524 -3.36654 0
M  V30 17756 H 1682.76 -4.68065 -4.48128 0
M  V30 17757 N 1676.17 1.23705 -0.976463 0
M  V30 17758 C 1677.41 1.92299 -0.64412 0
M  V30 17759 C 1677.74 1.7605 0.819767 0
M  V30 17760 O 1677.02 1.11902 1.59086 0
M  V30 17761 C 1677.3 3.45042 -1.03044 0
M  V30 17762 C 1677.16 3.70418 -2.55167 0
M  V30 17763 C 1678.47 4.36374 -0.571444 0
M  V30 17764 H 1675.59 0.698369 -0.235478 0
M  V30 17765 H 1678.24 1.45904 -1.21704 0
M  V30 17766 H 1676.39 3.84687 -0.54294 0
M  V30 17767 H 1678.06 3.40278 -3.11462 0
M  V30 17768 H 1676.3 3.15266 -2.97976 0
M  V30 17769 H 1676.97 4.77323 -2.77248 0
M  V30 17770 H 1679.45 4.04153 -0.989936 0
M  V30 17771 H 1678.32 5.41958 -0.870226 0
M  V30 17772 H 1678.58 4.38932 0.528318 0
M  V30 17773 N 1677.64 0.747635 1.38738 0
M  V30 17774 C 1678.57 0.131317 2.3313 0
M  V30 17775 C 1679.55 -0.710229 1.54563 0
M  V30 17776 O 1680.74 -0.652631 1.82905 0
M  V30 17777 C 1677.87 -0.767168 3.38721 0
M  V30 17778 C 1676.82 -0.0288124 4.2799 0
M  V30 17779 C 1676.15 -1.04515 5.24386 0
M  V30 17780 C 1677.45 1.13608 5.09795 0
M  V30 17781 H 1679.14 0.91981 2.84921 0
M  V30 17782 H 1676.69 0.443764 1.36992 0
M  V30 17783 H 1678.64 -1.20796 4.03716 0
M  V30 17784 H 1677.37 -1.58792 2.85399 0
M  V30 17785 H 1676.03 0.392491 3.64493 0
M  V30 17786 H 1675.67 -1.8598 4.67355 0
M  V30 17787 H 1675.37 -0.555813 5.84965 0
M  V30 17788 H 1676.9 -1.48538 5.92257 0
M  V30 17789 H 1678.31 0.773129 5.68063 0
M  V30 17790 H 1676.71 1.55589 5.79579 0
M  V30 17791 H 1677.78 1.95182 4.43883 0
M  V30 17792 N 1679.12 -1.49583 0.496242 0
M  V30 17793 C 1680.05 -2.31885 -0.274139 0
M  V30 17794 C 1681.03 -1.39939 -0.96701 0
M  V30 17795 O 1682.22 -1.6885 -0.959333 0
M  V30 17796 C 1679.35 -3.20332 -1.34181 0
M  V30 17797 C 1678.3 -4.21033 -0.769091 0
M  V30 17798 C 1677.63 -4.98385 -1.93693 0
M  V30 17799 C 1678.93 -5.21764 0.236648 0
M  V30 17800 H 1680.62 -2.9654 0.412824 0
M  V30 17801 H 1678.17 -1.42605 0.199979 0
M  V30 17802 H 1680.12 -3.76718 -1.88843 0
M  V30 17803 H 1678.84 -2.53611 -2.05789 0
M  V30 17804 H 1677.5 -3.65785 -0.244252 0
M  V30 17805 H 1677.15 -4.28115 -2.64058 0
M  V30 17806 H 1676.85 -5.66519 -1.55981 0
M  V30 17807 H 1678.38 -5.57613 -2.48798 0
M  V30 17808 H 1679.79 -5.72871 -0.221672 0
M  V30 17809 H 1678.19 -5.97761 0.529346 0
M  V30 17810 H 1679.26 -4.70964 1.15415 0
M  V30 17811 N 1680.6 -0.229873 -1.55915 0
M  V30 17812 C 1681.85 0.400157 -1.98813 0
M  V30 17813 C 1682.18 1.58821 -1.11756 0
M  V30 17814 O 1681.45 1.93692 -0.177094 0
M  V30 17815 C 1681.74 0.826623 -3.50484 0
M  V30 17816 C 1681.59 -0.365647 -4.48311 0
M  V30 17817 C 1682.91 1.6798 -4.06781 0
M  V30 17818 H 1680.03 0.143977 -0.7228 0
M  V30 17819 H 1682.67 -0.327775 -1.87151 0
M  V30 17820 H 1680.82 1.44687 -3.60552 0
M  V30 17821 H 1682.49 -1.00391 -4.50244 0
M  V30 17822 H 1680.73 -1.01168 -4.21838 0
M  V30 17823 H 1681.41 -0.0241816 -5.51995 0
M  V30 17824 H 1683.88 1.15639 -3.99708 0
M  V30 17825 H 1682.76 1.94708 -5.13206 0
M  V30 17826 H 1683.02 2.64594 -3.54179 0
M  V30 17827 N 1682.08 1.5754 0.0434337 0
M  V30 17828 C 1683.49 1.54537 0.398819 0
M  V30 17829 C 1683.69 0.954055 1.77483 0
M  V30 17830 O 1682.75 0.568839 2.46009 0
M  V30 17831 C 1684.06 2.99058 0.313848 0
M  V30 17832 C 1685.61 3.10536 0.39198 0
M  V30 17833 C 1686.09 4.56761 0.336614 0
M  V30 17834 N 1687.58 4.61505 0.395844 0
M  V30 17835 C 1688.31 5.72168 0.375669 0
M  V30 17836 N 1687.81 6.92112 0.30863 0
M  V30 17837 N 1689.6 5.60496 0.424335 0
M  V30 17838 H 1681.75 1.94333 -0.857225 0
M  V30 17839 H 1684.01 0.890708 -0.324566 0
M  V30 17840 H 1683.72 3.4599 -0.631159 0
M  V30 17841 H 1683.59 3.60402 1.11313 0
M  V30 17842 H 1685.98 2.6356 1.32742 0
M  V30 17843 H 1686.06 2.5205 -0.436391 0
M  V30 17844 H 1685.71 5.04402 -0.595093 0
M  V30 17845 H 1685.64 5.13142 1.1829 0
M  V30 17846 H 1688.13 3.75202 0.450753 0
M  V30 17847 H 1688.44 7.72225 0.29794 0
M  V30 17848 H 1686.79 6.94456 0.274891 0
M  V30 17849 H 1689.98 4.65688 0.474599 0
M  V30 17850 H 1690.15 6.46732 0.405143 0
M  V30 17851 N 1683.56 -0.31543 1.54411 0
M  V30 17852 C 1684.8 -1.05033 1.72663 0
M  V30 17853 C 1685.12 -1.8828 0.507504 0
M  V30 17854 O 1684.39 -1.89968 -0.478418 0
M  V30 17855 H 1682.97 -0.39077 0.636638 0
M  V30 17856 H 1685.64 -0.3499 1.91733 0
M  V30 17857 H 1684.73 -1.71171 2.60973 0
M  V30 17858 N 1685.03 -1.46622 -0.577906 0
M  V30 17859 C 1686.28 -1.5188 -1.3333 0
M  V30 17860 C 1686.6 -0.173993 -1.94222 0
M  V30 17861 O 1685.87 0.799972 -1.78822 0
M  V30 17862 H 1684.45 -0.559401 -0.495055 0
M  V30 17863 H 1687.12 -1.82785 -0.676449 0
M  V30 17864 H 1686.21 -2.27411 -2.13754 0
M  V30 17865 N 1686.51 0.822941 -1.34408 0
M  V30 17866 C 1687.76 1.57604 -1.26513 0
M  V30 17867 C 1688.08 1.94303 0.164769 0
M  V30 17868 O 1687.35 1.62278 1.09738 0
M  V30 17869 H 1685.93 0.584399 -0.465282 0
M  V30 17870 H 1688.59 0.982582 -1.68319 0
M  V30 17871 H 1687.69 2.49886 -1.86986 0
M  V30 17872 N 1687.99 1.18137 1.04314 0
M  V30 17873 C 1689.22 1.00062 1.81666 0
M  V30 17874 C 1689.64 -0.446281 1.82729 0
M  V30 17875 O 1689 -1.32004 1.24277 0
M  V30 17876 C 1689.05 1.55698 3.25255 0
M  V30 17877 O 1688.15 0.776662 4.05021 0
M  V30 17878 H 1687.49 0.354651 0.561354 0
M  V30 17879 H 1690.02 1.56837 1.3139 0
M  V30 17880 H 1690.03 1.58303 3.76037 0
M  V30 17881 H 1688.71 2.61016 3.23795 0
M  V30 17882 H 1687.28 0.822723 3.63711 0
M  V30 17883 N 1689.47 -1.23186 0.98301 0
M  V30 17884 C 1690.38 -2.28448 0.533727 0
M  V30 17885 C 1691.39 -1.69034 -0.412732 0
M  V30 17886 O 1692.57 -1.99416 -0.282007 0
M  V30 17887 C 1689.64 -3.46357 -0.154179 0
M  V30 17888 C 1688.7 -4.21121 0.834009 0
M  V30 17889 C 1687.93 -5.334 0.178836 0
M  V30 17890 O 1688.15 -5.61032 -1.02952 0
M  V30 17891 O 1687.09 -5.95451 0.878722 0
M  V30 17892 H 1690.91 -2.69027 1.40919 0
M  V30 17893 H 1688.5 -1.29166 0.75077 0
M  V30 17894 H 1690.38 -4.17926 -0.539947 0
M  V30 17895 H 1689.05 -3.07724 -1.00437 0
M  V30 17896 H 1687.96 -3.51864 1.27053 0
M  V30 17897 H 1689.29 -4.6361 1.65309 0
M  V30 17898 N 1690.95 -0.754982 -1.38339 0
M  V30 17899 C 1692.19 -0.312224 -2.00382 0
M  V30 17900 C 1692.53 1.10362 -1.59793 0
M  V30 17901 O 1691.8 1.75611 -0.83613 0
M  V30 17902 C 1692.08 -0.436701 -3.57442 0
M  V30 17903 C 1691.94 -1.89376 -4.07991 0
M  V30 17904 C 1693.26 0.169083 -4.39775 0
M  V30 17905 H 1690.37 -0.114922 -0.727985 0
M  V30 17906 H 1693.02 -0.954887 -1.64262 0
M  V30 17907 H 1691.17 0.11043 -3.88343 0
M  V30 17908 H 1692.84 -2.4993 -3.87728 0
M  V30 17909 H 1691.08 -2.40834 -3.60807 0
M  V30 17910 H 1691.75 -1.932 -5.17086 0
M  V30 17911 H 1694.23 -0.297554 -4.15035 0
M  V30 17912 H 1693.1 0.0517531 -5.48876 0
M  V30 17913 H 1693.37 1.25754 -4.23838 0
M  V30 17914 N 1692.42 1.49318 -0.504168 0
M  V30 17915 C 1693.67 2.01658 0.0410881 0
M  V30 17916 C 1693.99 1.38866 1.37752 0
M  V30 17917 O 1695.19 1.82552 2.00965 0
M  V30 17918 C 1693.65 3.59687 0.123682 0
M  V30 17919 C 1693.26 4.31454 -1.2063 0
M  V30 17920 C 1695 4.19961 0.619134 0
M  V30 17921 C 1692.91 5.81349 -1.0857 0
M  V30 17922 H 1691.84 0.753757 0.0191287 0
M  V30 17923 H 1694.49 1.71826 -0.644066 0
M  V30 17924 H 1692.87 3.86249 0.873355 0
M  V30 17925 H 1694.04 4.1659 -1.96951 0
M  V30 17926 H 1692.36 3.82939 -1.63544 0
M  V30 17927 H 1694.96 5.29736 0.726925 0
M  V30 17928 H 1695.3 3.83539 1.61874 0
M  V30 17929 H 1695.83 3.97731 -0.0740966 0
M  V30 17930 H 1692.57 6.22301 -2.05967 0
M  V30 17931 H 1692.09 5.98698 -0.363422 0
M  V30 17932 H 1693.77 6.42453 -0.765722 0
M  V30 17933 N 1693.9 0.238138 1.5579 0
M  V30 17934 C 1695.13 -0.393422 2.03125 0
M  V30 17935 C 1695.55 -1.52168 1.11761 0
M  V30 17936 O 1694.9 -1.82034 0.130341 0
M  V30 17937 C 1694.95 -0.909474 3.49873 0
M  V30 17938 O 1694.67 0.17381 4.37755 0
M  V30 17939 C 1696.18 -1.61261 4.12928 0
M  V30 17940 H 1693.4 -0.0945077 0.664311 0
M  V30 17941 H 1695.94 0.359442 2.01316 0
M  V30 17942 H 1694.09 -1.61255 3.52244 0
M  V30 17943 H 1694.51 -0.216641 5.24052 0
M  V30 17944 H 1695.98 -1.92551 5.17328 0
M  V30 17945 H 1696.46 -2.53155 3.589 0
M  V30 17946 H 1697.07 -0.954326 4.14455 0
M  V30 17947 N 1695.38 -1.57561 -0.0350783 0
M  V30 17948 C 1696.63 -1.88177 -0.726105 0
M  V30 17949 C 1696.94 -0.835856 -1.76841 0
M  V30 17950 O 1698.15 -1.03105 -2.51161 0
M  V30 17951 C 1696.6 -3.33924 -1.34249 0
M  V30 17952 C 1696.21 -4.46732 -0.336845 0
M  V30 17953 C 1697.96 -3.73696 -2.01374 0
M  V30 17954 C 1695.86 -5.83536 -0.961234 0
M  V30 17955 H 1694.79 -0.702082 -0.274948 0
M  V30 17956 H 1697.44 -1.83489 0.0197081 0
M  V30 17957 H 1695.83 -3.33337 -2.13781 0
M  V30 17958 H 1697 -4.58777 0.431323 0
M  V30 17959 H 1695.32 -4.15753 0.231983 0
M  V30 17960 H 1697.91 -4.7322 -2.48931 0
M  V30 17961 H 1698.26 -3.05379 -2.8293 0
M  V30 17962 H 1698.79 -3.76431 -1.28626 0
M  V30 17963 H 1695.53 -6.55238 -0.185217 0
M  V30 17964 H 1695.05 -5.75223 -1.69938 0
M  V30 17965 H 1696.73 -6.30071 -1.47035 0
M  V30 17966 N 1696.86 0.307236 -1.54576 0
M  V30 17967 C 1698.09 1.06079 -1.77287 0
M  V30 17968 C 1698.5 1.81643 -0.529395 0
M  V30 17969 O 1697.84 1.76474 0.510149 0
M  V30 17970 C 1697.9 2.09234 -2.92338 0
M  V30 17971 C 1697.57 1.52922 -4.30655 0
M  V30 17972 C 1698.56 0.962487 -5.10913 0
M  V30 17973 C 1696.25 1.56673 -4.77241 0
M  V30 17974 C 1698.24 0.44075 -6.35874 0
M  V30 17975 C 1695.93 1.04112 -6.02166 0
M  V30 17976 C 1696.93 0.479095 -6.81318 0
M  V30 17977 O 1696.61 -0.0385602 -8.03891 0
M  V30 17978 H 1696.35 0.320647 -0.595114 0
M  V30 17979 H 1698.9 0.353984 -2.02327 0
M  V30 17980 H 1697.13 2.83578 -2.62908 0
M  V30 17981 H 1698.82 2.70441 -3.02682 0
M  V30 17982 H 1699.59 0.926457 -4.76069 0
M  V30 17983 H 1695.46 1.99357 -4.15665 0
M  V30 17984 H 1699.01 0.00141848 -6.976 0
M  V30 17985 H 1694.91 1.07428 -6.36498 0
M  V30 17986 H 1695.67 0.0753282 -8.18465 0
M  V30 17987 N 1698.34 1.46926 0.570122 0
M  V30 17988 C 1699.56 1.56722 1.35841 0
M  V30 17989 C 1699.99 0.213314 1.86887 0
M  V30 17990 O 1699.34 -0.808694 1.62265 0
M  V30 17991 C 1699.39 2.5859 2.51323 0
M  V30 17992 O 1698.5 2.12966 3.53156 0
M  V30 17993 H 1697.84 0.526929 0.404032 0
M  V30 17994 H 1700.37 1.92603 0.690308 0
M  V30 17995 H 1700.38 2.78601 2.9807 0
M  V30 17996 H 1699.05 3.56903 2.13525 0
M  V30 17997 H 1697.63 2.02999 3.12803 0
M  V30 17998 O 1699.85 -0.714588 1.44831 0
M  V30 17999 H 1700.54 -1.36549 1.37383 0
M  V30 END ATOM
M  V30 BEGIN BOND
M  V30 END BOND
M  V30 END CTAB
M  END
$$$$
