drugbank_target|Q9UHD2 Serine/threonine-protein kinase TBK1 (DB12010)
 OpenBabel12092121133D

  0  0  0     0  0            999 V3000
M  V30 BEGIN CTAB
M  V30 COUNTS 11781 11900 0 0 0
M  V30 BEGIN ATOM
M  V30 1 H -0.908 1.98254 -0.117106 0
M  V30 2 N 0 1.576 0 0
M  V30 3 C 0.933 2.03868 1.02534 0
M  V30 4 C 1.911 0.928543 1.3348 0
M  V30 5 O 3.095 1.19667 1.45644 0
M  V30 6 C 0.222 2.43627 2.35294 0
M  V30 7 C -0.732 3.65373 2.2001 0
M  V30 8 S 0.101 5.13292 1.52614 0
M  V30 9 C 1.257 5.56322 2.86805 0
M  V30 10 H 1.49 2.90518 0.631377 0
M  V30 11 H -0.977 1.52953 0.210867 0
M  V30 12 H 0.981 2.67203 3.11629 0
M  V30 13 H -0.358 1.57376 2.7183 0
M  V30 14 H -1.165 3.90944 3.18086 0
M  V30 15 H -1.563 3.418 1.51819 0
M  V30 16 H 0.729 5.58782 3.83104 0
M  V30 17 H 1.672 6.56266 2.65933 0
M  V30 18 H 2.08 4.83886 2.90714 0
M  V30 19 N 1.4781 -0.272755 1.55222 0
M  V30 20 C 2.4101 -1.35946 1.8453 0
M  V30 21 C 3.4231 -1.45525 0.729818 0
M  V30 22 O 4.6121 -1.47337 1.00767 0
M  V30 23 C 1.7121 -2.74069 1.99347 0
M  V30 24 C 0.8851 -2.87079 3.30007 0
M  V30 25 C -0.0559 -4.05879 3.34886 0
M  V30 26 O -1.0299 -3.96626 4.08261 0
M  V30 27 N 0.1721 -5.17857 2.62307 0
M  V30 28 H 2.9371 -1.11149 2.78327 0
M  V30 29 H 0.4981 -0.462869 1.55142 0
M  V30 30 H 2.4901 -3.51838 1.99981 0
M  V30 31 H 1.0601 -2.91688 1.12415 0
M  V30 32 H 0.2801 -1.96193 3.41909 0
M  V30 33 H 1.5681 -2.92701 4.16177 0
M  V30 34 H 0.9661 -5.28261 2.02377 0
M  V30 35 H -0.4769 -5.93855 2.68663 0
M  V30 36 N 2.9562 -1.48159 -0.537278 0
M  V30 37 C 4.1812 -1.59707 -1.32319 0
M  V30 38 C 4.6062 -0.254859 -1.86365 0
M  V30 39 O 3.9642 0.772378 -1.64024 0
M  V30 40 C 4.0122 -2.6412 -2.45505 0
M  V30 41 O 3.1162 -2.20774 -3.48328 0
M  V30 42 H 2.4572 -0.535791 -0.392204 0
M  V30 43 H 4.9872 -1.94092 -0.647268 0
M  V30 44 H 4.9972 -2.85166 -2.91795 0
M  V30 45 H 3.6722 -3.61567 -2.05528 0
M  V30 46 H 2.2492 -2.09911 -3.08207 0
M  V30 47 N 4.4343 0.785586 -1.36625 0
M  V30 48 C 5.6623 1.57448 -1.3423 0
M  V30 49 C 6.0773 1.88649 0.0755653 0
M  V30 50 O 5.4343 1.50414 1.03354 0
M  V30 51 C 5.4853 2.89316 -2.16745 0
M  V30 52 O 5.2063 2.59459 -3.53005 0
M  V30 53 C 6.7073 3.83606 -2.22174 0
M  V30 54 H 3.9273 0.488226 -0.4603 0
M  V30 55 H 6.4713 0.974733 -1.79775 0
M  V30 56 H 4.6263 3.4575 -1.74745 0
M  V30 57 H 5.0403 3.43804 -3.96105 0
M  V30 58 H 6.5143 4.73181 -2.8426 0
M  V30 59 H 6.9913 4.21734 -1.22627 0
M  V30 60 H 7.5973 3.33104 -2.64427 0
M  V30 61 N 5.9124 1.20967 1.01018 0
M  V30 62 C 7.1374 1.0503 1.78839 0
M  V30 63 C 7.5624 -0.395752 1.8389 0
M  V30 64 O 6.9204 -1.28529 1.27867 0
M  V30 65 C 6.9684 1.64602 3.2084 0
M  V30 66 O 6.0724 0.887988 4.02726 0
M  V30 67 H 5.4134 0.369987 0.551367 0
M  V30 68 H 7.9434 1.60399 1.27018 0
M  V30 69 H 7.9534 1.68607 3.71532 0
M  V30 70 H 6.6284 2.69841 3.16479 0
M  V30 71 H 5.2054 0.922648 3.61305 0
M  V30 72 N 7.3905 -1.2043 1.01659 0
M  V30 73 C 8.3385 -2.25249 0.580143 0
M  V30 74 C 9.3325 -1.65057 -0.381115 0
M  V30 75 O 10.5385 -1.78241 -0.251039 0
M  V30 76 H 6.9135 -0.732695 0.169299 0
M  V30 77 H 8.8845 -2.59389 1.47512 0
M  V30 78 C 7.6335 -3.47638 -0.065788 0
M  V30 79 H 6.9565 -3.94233 0.664874 0
M  V30 80 H 8.3965 -4.2268 -0.334282 0
M  V30 81 C 6.8555 -3.10447 -1.3086 0
M  V30 82 O 7.3855 -3.21981 -2.4019 0
M  V30 83 N 5.5915 -2.64996 -1.1927 0
M  V30 84 H 5.1385 -2.55811 -0.303064 0
M  V30 85 H 5.0965 -2.40482 -2.02523 0
M  V30 86 N 8.8686 -0.792821 -1.36206 0
M  V30 87 C 9.8186 -0.166598 -2.27391 0
M  V30 88 C 10.8026 0.651479 -1.47121 0
M  V30 89 O 11.9946 0.510994 -1.69463 0
M  V30 90 C 9.1236 0.695033 -3.36191 0
M  V30 91 C 8.2096 -0.132019 -4.23894 0
M  V30 92 N 8.6006 -1.18822 -4.91645 0
M  V30 93 C 6.8986 0.0885952 -4.45912 0
M  V30 94 C 7.5996 -1.69198 -5.56549 0
M  V30 95 N 6.5756 -1.00065 -5.34311 0
M  V30 96 H 10.3776 -0.974947 -2.77258 0
M  V30 97 H 7.8916 -0.632616 -1.49572 0
M  V30 98 H 9.8886 1.1596 -4.00448 0
M  V30 99 H 8.5486 1.50189 -2.87877 0
M  V30 100 H 9.5596 -1.57069 -4.93507 0
M  V30 101 H 6.2366 0.865688 -4.08426 0
M  V30 102 H 7.6266 -2.57395 -6.20643 0
M  V30 103 N 10.3467 1.47872 -0.545128 0
M  V30 104 C 11.2767 2.32661 0.197793 0
M  V30 105 C 12.2577 1.43041 0.920504 0
M  V30 106 O 13.4427 1.71912 0.90333 0
M  V30 107 C 10.5727 3.24569 1.23582 0
M  V30 108 C 9.5267 4.23333 0.630323 0
M  V30 109 C 8.8527 5.0448 1.77211 0
M  V30 110 C 10.1527 5.20704 -0.407974 0
M  V30 111 H 11.8467 2.95024 -0.510045 0
M  V30 112 H 9.3927 1.4187 -0.246731 0
M  V30 113 H 11.3457 3.8272 1.76362 0
M  V30 114 H 10.0697 2.60236 1.97344 0
M  V30 115 H 8.7287 3.6639 0.123922 0
M  V30 116 H 8.3767 4.36561 2.49847 0
M  V30 117 H 8.0767 5.71339 1.37281 0
M  V30 118 H 9.6007 5.65487 2.3034 0
M  V30 119 H 11.0147 5.7329 0.033305 0
M  V30 120 H 9.4117 5.95699 -0.725486 0
M  V30 121 H 10.4817 4.66917 -1.30828 0
M  V30 122 N 11.8248 0.280983 1.55075 0
M  V30 123 C 13.0708 -0.327573 2.00745 0
M  V30 124 C 13.4258 -1.53045 1.16598 0
M  V30 125 O 12.7188 -1.90221 0.229451 0
M  V30 126 C 12.9128 -0.754656 3.49342 0
M  V30 127 C 12.7418 0.40529 4.4787 0
M  V30 128 C 11.5118 0.890947 4.97383 0
M  V30 129 C 13.7098 1.24371 4.99035 0
M  V30 130 N 11.6918 2.01975 5.79724 0
M  V30 131 C 13.0628 2.22031 5.7888 0
M  V30 132 C 15.1178 1.27638 4.81262 0
M  V30 133 C 13.8208 3.22709 6.42846 0
M  V30 134 C 15.8468 2.27164 5.46031 0
M  V30 135 C 15.2088 3.23556 6.25692 0
M  V30 136 H 11.3078 -0.0848774 0.77738 0
M  V30 137 H 13.8918 0.406342 1.90413 0
M  V30 138 H 12.0628 -1.45778 3.60005 0
M  V30 139 H 13.7948 -1.34105 3.81835 0
M  V30 140 H 10.5498 0.469262 4.71269 0
M  V30 141 H 10.9738 2.58794 6.25584 0
M  V30 142 H 15.6158 0.544936 4.19274 0
M  V30 143 H 13.3338 3.96784 7.0398 0
M  V30 144 H 16.9198 2.30441 5.34217 0
M  V30 145 H 15.7998 3.99309 6.74924 0
M  V30 146 N 13.3029 -1.57598 0.00835791 0
M  V30 147 C 14.2329 -2.1198 -0.979113 0
M  V30 148 C 15.2139 -1.03091 -1.35301 0
M  V30 149 O 16.3989 -1.30818 -1.43528 0
M  V30 150 C 13.5289 -2.62995 -2.26828 0
M  V30 151 C 12.4829 -3.76485 -2.03576 0
M  V30 152 C 11.8089 -4.13846 -3.38579 0
M  V30 153 C 13.1089 -5.0342 -1.39161 0
M  V30 154 H 14.8029 -2.94738 -0.526281 0
M  V30 155 H 12.3489 -1.41783 -0.251704 0
M  V30 156 H 14.3019 -2.99669 -2.96271 0
M  V30 157 H 13.0259 -1.7737 -2.7424 0
M  V30 158 H 11.6849 -3.40217 -1.36557 0
M  V30 159 H 11.3329 -3.25232 -3.83709 0
M  V30 160 H 11.0329 -4.90312 -3.23834 0
M  V30 161 H 12.5569 -4.53086 -4.09323 0
M  V30 162 H 13.9709 -5.37812 -1.98573 0
M  V30 163 H 12.3679 -5.84746 -1.34878 0
M  V30 164 H 13.4379 -4.83548 -0.361868 0
M  V30 165 N 14.781 0.264519 -1.55364 0
M  V30 166 C 15.711 1.33121 -1.91836 0
M  V30 167 C 16.692 1.51101 -0.781192 0
M  V30 168 O 17.877 1.64003 -1.04003 0
M  V30 169 C 15.007 2.68921 -2.19769 0
M  V30 170 C 13.961 2.65661 -3.35571 0
M  V30 171 C 13.287 4.05093 -3.49004 0
M  V30 172 C 14.587 2.24187 -4.71739 0
M  V30 173 H 16.281 1.02844 -2.81182 0
M  V30 174 H 13.827 0.493286 -1.35287 0
M  V30 175 H 15.78 3.43663 -2.43872 0
M  V30 176 H 14.504 3.00799 -1.27231 0
M  V30 177 H 13.163 1.93377 -3.1145 0
M  V30 178 H 12.811 4.34206 -2.53917 0
M  V30 179 H 12.511 4.03804 -4.26868 0
M  V30 180 H 14.035 4.81561 -3.75408 0
M  V30 181 H 15.449 2.88654 -4.9533 0
M  V30 182 H 13.846 2.34044 -5.52579 0
M  V30 183 H 14.916 1.19327 -4.69988 0
M  V30 184 N 16.2591 1.48442 0.529413 0
M  V30 185 C 17.4841 1.60406 1.31471 0
M  V30 186 C 17.9091 0.264738 1.86228 0
M  V30 187 O 17.2671 -0.763668 1.64432 0
M  V30 188 C 17.3151 2.65419 2.44101 0
M  V30 189 O 16.4191 2.22618 3.47153 0
M  V30 190 H 15.7601 0.537863 0.389357 0
M  V30 191 H 18.2901 1.94432 0.636965 0
M  V30 192 H 18.3001 2.86709 2.90279 0
M  V30 193 H 16.9751 3.62652 2.03608 0
M  V30 194 H 15.5521 2.11543 3.0709 0
M  V30 195 N 17.7372 -0.778329 1.37039 0
M  V30 196 C 19.0142 -1.52551 1.22424 0
M  V30 197 C 19.3942 -2.10288 -0.184964 0
M  V30 198 O 18.7422 -1.94953 -1.19187 0
M  V30 199 C 18.9522 -2.61164 2.31504 0
M  V30 200 C 20.3002 -3.28746 2.68721 0
M  V30 201 O 21.3242 -2.71455 2.30631 0
M  V30 202 O 20.1832 -4.3231 3.3432 0
M  V30 203 H 17.2772 -0.675343 0.477326 0
M  V30 204 H 19.8232 -0.815859 1.48801 0
M  V30 205 H 18.5952 -2.16574 3.25901 0
M  V30 206 H 18.2182 -3.39737 2.06554 0
M  V30 207 N 19.2153 -1.21501 -1.00376 0
M  V30 208 C 20.4643 -1.02718 -1.73586 0
M  V30 209 C 20.7773 0.439589 -1.90596 0
M  V30 210 O 21.9833 0.746848 -2.61026 0
M  V30 211 C 20.4393 -1.78929 -3.1227 0
M  V30 212 C 20.0473 -3.29783 -3.03228 0
M  V30 213 C 21.7913 -1.68557 -3.89601 0
M  V30 214 C 19.6983 -3.98479 -4.36999 0
M  V30 215 H 18.6283 -0.380733 -0.650814 0
M  V30 216 H 21.2793 -1.45248 -1.1214 0
M  V30 217 H 19.6613 -1.29192 -3.74333 0
M  V30 218 H 20.8353 -3.86832 -2.50395 0
M  V30 219 H 19.1503 -3.40711 -2.39385 0
M  V30 220 H 21.7473 -2.17211 -4.88593 0
M  V30 221 H 22.0903 -0.644021 -4.11288 0
M  V30 222 H 22.6233 -2.15778 -3.34193 0
M  V30 223 H 19.3623 -5.02841 -4.20513 0
M  V30 224 H 18.8823 -3.46219 -4.89788 0
M  V30 225 H 20.5613 -4.03462 -5.05794 0
M  V30 226 N 20.6934 1.19889 -1.02296 0
M  V30 227 C 21.6234 2.25141 -0.619174 0
M  V30 228 C 22.6044 1.66051 0.368915 0
M  V30 229 O 23.7894 1.92546 0.252941 0
M  V30 230 C 20.9194 3.4728 0.0368783 0
M  V30 231 C 19.8734 4.19005 -0.872865 0
M  V30 232 C 19.1994 5.34637 -0.0822402 0
M  V30 233 C 20.4994 4.74452 -2.18387 0
M  V30 234 H 22.1934 2.59171 -1.49903 0
M  V30 235 H 19.7394 1.24579 -0.722222 0
M  V30 236 H 21.6924 4.20098 0.330958 0
M  V30 237 H 20.4164 3.12433 0.95149 0
M  V30 238 H 19.0754 3.48061 -1.15105 0
M  V30 239 H 18.7234 4.96034 0.83422 0
M  V30 240 H 18.4234 5.83557 -0.688149 0
M  V30 241 H 19.9474 6.10255 0.205238 0
M  V30 242 H 21.3614 5.39055 -1.95172 0
M  V30 243 H 19.7584 5.33834 -2.74119 0
M  V30 244 H 20.8284 3.92844 -2.84257 0
M  V30 245 N 22.1715 0.800033 1.35784 0
M  V30 246 C 23.4195 0.376597 1.9856 0
M  V30 247 C 23.7405 -1.05812 1.63795 0
M  V30 248 O 23.0105 -1.73103 0.917171 0
M  V30 249 H 21.5905 0.136261 0.734467 0
M  V30 250 H 24.2525 1.02442 1.65806 0
M  V30 251 H 23.3485 0.477002 3.08433 0
M  V30 252 N 23.6496 -1.47581 0.552962 0
M  V30 253 C 24.5816 -2.27997 -0.234533 0
M  V30 254 C 25.5946 -1.36753 -0.883321 0
M  V30 255 O 26.7836 -1.61612 -0.757889 0
M  V30 256 C 23.8836 -3.10879 -1.34935 0
M  V30 257 C 23.0566 -4.30056 -0.798158 0
M  V30 258 C 22.1156 -4.94567 -1.79694 0
M  V30 259 O 21.1416 -5.53087 -1.34474 0
M  V30 260 N 22.3436 -4.88878 -3.13015 0
M  V30 261 H 25.1086 -2.96222 0.455255 0
M  V30 262 H 22.6696 -1.57163 0.388761 0
M  V30 263 H 24.6616 -3.50903 -2.01616 0
M  V30 264 H 23.2316 -2.44924 -1.94244 0
M  V30 265 H 22.4516 -3.94174 0.0453079 0
M  V30 266 H 23.7396 -5.07152 -0.409173 0
M  V30 267 H 23.1376 -4.42526 -3.52402 0
M  V30 268 H 21.6946 -5.32934 -3.75266 0
M  V30 269 N 25.1277 -0.289203 -1.54924 0
M  V30 270 C 26.3757 0.322879 -1.99504 0
M  V30 271 C 26.6967 1.55313 -1.1791 0
M  V30 272 O 25.9667 1.94001 -0.272097 0
M  V30 273 H 24.5467 0.122291 -0.736922 0
M  V30 274 H 27.2087 -0.397802 -1.90797 0
M  V30 275 H 26.3047 0.603061 -3.06218 0
M  V30 276 N 26.6058 1.57591 -0.0167156 0
M  V30 277 C 27.5688 2.08393 0.954204 0
M  V30 278 C 28.5688 0.996531 1.26198 0
M  V30 279 O 29.7588 1.25858 1.20438 0
M  V30 280 C 26.8908 2.5394 2.27436 0
M  V30 281 H 28.0838 2.95455 0.514451 0
M  V30 282 H 25.6368 1.54582 0.231089 0
M  V30 283 H 26.3718 1.70171 2.76066 0
M  V30 284 H 26.1568 3.33371 2.06412 0
M  V30 285 H 27.6468 2.93512 2.97053 0
M  V30 286 N 28.0839 -0.256276 1.55502 0
M  V30 287 C 29.3119 -1.00342 1.8094 0
M  V30 288 C 29.7269 -1.79307 0.59114 0
M  V30 289 O 29.0839 -1.77114 -0.440081 0
M  V30 290 C 29.1349 -1.94875 3.04476 0
M  V30 291 O 28.8559 -1.19107 4.21598 0
M  V30 292 C 30.3569 -2.81266 3.42644 0
M  V30 293 H 27.5769 -0.295685 0.602338 0
M  V30 294 H 30.1209 -0.281998 2.02546 0
M  V30 295 H 28.2759 -2.62457 2.84947 0
M  V30 296 H 28.6899 -1.82969 4.91551 0
M  V30 297 H 30.1639 -3.43362 4.32211 0
M  V30 298 H 30.6409 -3.51897 2.62802 0
M  V30 299 H 31.2469 -2.1915 3.64491 0
M  V30 300 N 29.562 -1.4872 -0.521534 0
M  V30 301 C 30.525 -1.63379 -1.60748 0
M  V30 302 C 31.525 -0.50661 -1.52611 0
M  V30 303 O 32.715 -0.772601 -1.5613 0
M  V30 304 C 29.847 -1.61192 -3.00383 0
M  V30 305 H 31.04 -2.60217 -1.49087 0
M  V30 306 H 28.593 -1.37444 -0.744235 0
M  V30 307 H 29.328 -0.65863 -3.17541 0
M  V30 308 H 29.113 -2.43032 -3.07698 0
M  V30 309 H 30.603 -1.7466 -3.7932 0
M  V30 310 N 31.0401 0.771051 -1.3745 0
M  V30 311 C 31.9881 1.90574 -1.33358 0
M  V30 312 C 32.9821 1.67936 -0.22224 0
M  V30 313 O 34.1881 1.75717 -0.390304 0
M  V30 314 H 30.5631 0.626714 -0.415612 0
M  V30 315 H 32.5341 1.91142 -2.29144 0
M  V30 316 C 31.2831 3.27845 -1.15813 0
M  V30 317 H 30.6061 3.45842 -2.00583 0
M  V30 318 H 32.0461 4.07538 -1.17 0
M  V30 319 C 30.5051 3.36625 0.136165 0
M  V30 320 O 31.0351 3.85785 1.11949 0
M  V30 321 N 29.2411 2.89997 0.187099 0
M  V30 322 H 28.7881 2.50182 -0.613753 0
M  V30 323 H 28.7461 2.96252 1.05272 0
M  V30 324 N 32.5182 1.22032 0.997298 0
M  V30 325 C 33.7642 1.04376 1.73878 0
M  V30 326 C 34.0972 -0.420716 1.89588 0
M  V30 327 O 33.3722 -1.31202 1.43583 0
M  V30 328 C 33.6552 1.75047 3.14691 0
M  V30 329 C 33.5082 3.29062 3.06656 0
M  V30 330 C 34.8272 1.49928 4.13775 0
M  V30 331 H 31.9462 0.380578 0.631133 0
M  V30 332 H 34.5882 1.50312 1.16217 0
M  V30 333 H 32.7382 1.35996 3.63919 0
M  V30 334 H 34.4102 3.7753 2.65083 0
M  V30 335 H 32.6532 3.58967 2.43568 0
M  V30 336 H 33.3242 3.73683 4.06282 0
M  V30 337 H 35.8002 1.83842 3.73285 0
M  V30 338 H 34.6762 2.01878 5.10428 0
M  V30 339 H 34.9372 0.430929 4.39995 0
M  V30 340 N 33.9963 -1.19345 1.0293 0
M  V30 341 C 35.2433 -1.89038 0.726008 0
M  V30 342 C 35.5713 -1.79649 -0.745427 0
M  V30 343 O 34.8263 -1.18354 -1.55855 0
M  V30 344 C 35.1253 -3.39292 1.12319 0
M  V30 345 C 34.7913 -3.68885 2.59297 0
M  V30 346 C 33.4533 -3.76671 2.99453 0
M  V30 347 C 35.8053 -3.82178 3.54386 0
M  V30 348 C 33.1333 -3.9522 4.33611 0
M  V30 349 C 35.4853 -4.0224 4.88248 0
M  V30 350 C 34.1493 -4.08259 5.28092 0
M  V30 351 H 33.4193 -0.691739 0.265665 0
M  V30 352 H 36.0663 -1.41328 1.29223 0
M  V30 353 H 34.3713 -3.88903 0.475584 0
M  V30 354 H 36.0683 -3.91536 0.866037 0
M  V30 355 H 32.6583 -3.63433 2.27189 0
M  V30 356 H 36.8423 -3.75505 3.24514 0
M  V30 357 H 32.0983 -3.98119 4.64016 0
M  V30 358 H 36.2723 -4.11468 5.61843 0
M  V30 359 H 33.8993 -4.22384 6.32057 0
M  V30 360 N 35.4744 -0.807222 -1.35358 0
M  V30 361 C 36.8904 -0.491038 -1.51858 0
M  V30 362 C 37.0904 0.987648 -1.75635 0
M  V30 363 O 36.1464 1.77265 -1.79815 0
M  V30 364 C 37.4594 -1.33695 -2.69344 0
M  V30 365 C 39.0074 -1.33246 -2.83222 0
M  V30 366 C 39.4824 -2.1625 -4.03733 0
M  V30 367 N 40.9734 -2.1379 -4.10911 0
M  V30 368 C 41.7084 -2.74772 -5.03277 0
M  V30 369 N 41.2044 -3.44684 -6.0097 0
M  V30 370 N 42.9974 -2.6441 -4.96028 0
M  V30 371 H 35.1484 -1.76485 -1.18181 0
M  V30 372 H 37.4114 -0.751199 -0.578276 0
M  V30 373 H 37.1174 -2.38634 -2.58354 0
M  V30 374 H 36.9914 -0.990618 -3.6396 0
M  V30 375 H 39.3784 -0.290911 -2.93663 0
M  V30 376 H 39.4594 -1.71866 -1.89461 0
M  V30 377 H 39.1034 -3.20445 -3.94052 0
M  V30 378 H 39.0334 -1.74989 -4.96675 0
M  V30 379 H 41.5244 -1.62923 -3.40976 0
M  V30 380 H 41.8374 -3.88501 -6.68047 0
M  V30 381 H 40.1824 -3.48788 -6.01142 0
M  V30 382 H 43.3734 -2.0938 -4.18662 0
M  V30 383 H 43.5464 -3.12225 -5.6782 0
M  V30 384 N 36.9525 1.47285 -0.560781 0
M  V30 385 C 38.2005 2.02064 -0.0379868 0
M  V30 386 C 38.5215 1.43711 1.31803 0
M  V30 387 O 37.7915 0.61362 1.86042 0
M  V30 388 H 36.3715 0.746918 -0.0110531 0
M  V30 389 H 39.0335 1.80648 -0.731598 0
M  V30 390 H 38.1295 3.12064 0.0474463 0
M  V30 391 N 38.4306 0.297415 1.54768 0
M  V30 392 C 39.8466 -0.0560823 1.59501 0
M  V30 393 C 40.0466 -1.52725 1.31444 0
M  V30 394 O 39.1026 -2.27947 1.08611 0
M  V30 395 C 40.4156 0.338631 2.98787 0
M  V30 396 C 41.9636 0.287097 3.11681 0
M  V30 397 C 42.4386 0.656579 4.53269 0
M  V30 398 N 43.9296 0.608977 4.59179 0
M  V30 399 C 44.6646 0.867385 5.66802 0
M  V30 400 N 44.1606 1.19157 6.82476 0
M  V30 401 N 45.9536 0.794687 5.56454 0
M  V30 402 H 38.1046 1.25624 1.71267 0
M  V30 403 H 40.3676 0.509057 0.799728 0
M  V30 404 H 40.0736 1.36263 3.2423 0
M  V30 405 H 39.9476 -0.309508 3.75928 0
M  V30 406 H 42.3346 -0.727649 2.85988 0
M  V30 407 H 42.4156 0.969809 2.36703 0
M  V30 408 H 42.0596 1.66912 4.7969 0
M  V30 409 H 41.9896 -0.0481649 5.26578 0
M  V30 410 H 44.4806 0.369198 3.76092 0
M  V30 411 H 44.7936 1.37482 7.60473 0
M  V30 412 H 43.1386 1.22958 6.84037 0
M  V30 413 H 46.3296 0.541098 4.64962 0
M  V30 414 H 46.5026 0.999445 6.40246 0
M  V30 415 N 39.9087 -1.5758 0.0250728 0
M  V30 416 C 40.8587 -2.06468 -0.967201 0
M  V30 417 C 41.8427 -0.964376 -1.28797 0
M  V30 418 O 43.0347 -1.22797 -1.27475 0
M  V30 419 C 40.1637 -2.59203 -2.25097 0
M  V30 420 C 39.2497 -3.76157 -1.95874 0
M  V30 421 N 39.6407 -4.86919 -1.36905 0
M  V30 422 C 37.9387 -3.84566 -2.25887 0
M  V30 423 C 38.6397 -5.68172 -1.24724 0
M  V30 424 N 37.6157 -5.14953 -1.74138 0
M  V30 425 H 41.4177 -2.89508 -0.506176 0
M  V30 426 H 38.9317 -1.61399 -0.18004 0
M  V30 427 H 40.9287 -2.92517 -2.97052 0
M  V30 428 H 39.5887 -1.77592 -2.71829 0
M  V30 429 H 40.5997 -5.07256 -1.04459 0
M  V30 430 H 37.2767 -3.13854 -2.75321 0
M  V30 431 H 38.6667 -6.67221 -0.791605 0
M  V30 432 N 41.3868 0.248026 -1.55636 0
M  V30 433 C 42.3338 1.30707 -1.90222 0
M  V30 434 C 43.3038 1.47881 -0.756332 0
M  V30 435 O 44.4888 1.61883 -1.00988 0
M  V30 436 C 41.6288 2.65769 -2.20138 0
M  V30 437 C 40.7418 2.56612 -3.47526 0
M  V30 438 C 39.8768 3.8402 -3.67017 0
M  V30 439 C 38.9158 3.69476 -4.8801 0
M  V30 440 N 38.0528 4.88774 -5.04029 0
M  V30 441 H 42.8928 1.00512 -2.80538 0
M  V30 442 H 40.4298 0.485055 -1.38873 0
M  V30 443 H 42.3878 3.44386 -2.35487 0
M  V30 444 H 41.0178 2.94115 -1.33027 0
M  V30 445 H 40.0698 1.69571 -3.40514 0
M  V30 446 H 41.3818 2.41774 -4.36287 0
M  V30 447 H 40.5358 4.7108 -3.8232 0
M  V30 448 H 39.2748 4.01754 -2.76487 0
M  V30 449 H 38.2798 2.80799 -4.72686 0
M  V30 450 H 39.5048 3.53238 -5.8 0
M  V30 451 H 37.4508 5.0687 -4.16435 0
M  V30 452 H 37.3678 4.76562 -5.86877 0
M  V30 453 H 38.6358 5.77335 -5.23741 0
M  V30 454 N 42.8649 1.48995 0.513639 0
M  V30 455 C 43.8119 1.6473 1.61656 0
M  V30 456 C 44.7819 0.488984 1.58739 0
M  V30 457 O 45.9669 0.714478 1.76918 0
M  V30 458 C 43.1069 1.7082 2.99858 0
M  V30 459 C 42.2199 2.9787 3.12885 0
M  V30 460 C 41.3549 2.95017 4.41744 0
M  V30 461 C 40.3939 4.16702 4.48359 0
M  V30 462 N 39.5309 4.11832 5.68629 0
M  V30 463 H 44.3709 2.58909 1.47547 0
M  V30 464 H 41.9079 1.28382 0.71808 0
M  V30 465 H 43.8659 1.72331 3.79944 0
M  V30 466 H 42.4959 0.801181 3.12699 0
M  V30 467 H 41.5479 3.06029 2.25944 0
M  V30 468 H 42.8599 3.8786 3.13633 0
M  V30 469 H 42.0139 2.95021 5.30139 0
M  V30 470 H 40.7529 2.02784 4.43542 0
M  V30 471 H 39.7579 4.16955 3.58369 0
M  V30 472 H 40.9829 5.10113 4.48287 0
M  V30 473 H 38.9289 3.22428 5.71293 0
M  V30 474 H 38.8459 4.95543 5.7094 0
M  V30 475 H 40.1139 4.1592 6.59266 0
M  V30 476 N 44.343 -0.763751 1.37857 0
M  V30 477 C 45.571 -1.55293 1.36718 0
M  V30 478 C 45.986 -1.88745 -0.0455434 0
M  V30 479 O 45.343 -1.52039 -1.00947 0
M  V30 480 C 45.394 -2.85831 2.2132 0
M  V30 481 O 45.115 -2.5381 3.57089 0
M  V30 482 C 46.616 -3.80023 2.28249 0
M  V30 483 H 43.836 -0.480841 0.468009 0
M  V30 484 H 46.38 -0.946009 1.81303 0
M  V30 485 H 44.535 -3.42926 1.80223 0
M  V30 486 H 44.949 -3.37459 4.01524 0
M  V30 487 H 46.423 -4.68599 2.91752 0
M  V30 488 H 46.9 -4.1973 1.2932 0
M  V30 489 H 47.506 -3.28855 2.69693 0
M  V30 490 N 45.8211 -1.22559 -0.990812 0
M  V30 491 C 47.0691 -1.04933 -1.72724 0
M  V30 492 C 47.3901 0.416158 -1.90508 0
M  V30 493 O 46.6601 1.29918 -1.46622 0
M  V30 494 H 45.2401 -0.385296 -0.639965 0
M  V30 495 H 47.9021 -1.54105 -1.19322 0
M  V30 496 H 46.9981 -1.52886 -2.72089 0
M  V30 497 N 47.2992 1.18797 -1.03562 0
M  V30 498 C 48.5762 1.84469 -0.650434 0
M  V30 499 C 48.9562 1.92319 0.870433 0
M  V30 500 O 48.3042 1.44528 1.76986 0
M  V30 501 C 48.5142 3.2306 -1.32036 0
M  V30 502 C 49.8622 3.9915 -1.44792 0
M  V30 503 O 50.8862 3.32481 -1.27806 0
M  V30 504 O 49.7452 5.18587 -1.72423 0
M  V30 505 H 46.8392 0.795251 -0.226946 0
M  V30 506 H 49.3852 1.26231 -1.13419 0
M  V30 507 H 48.1572 3.1222 -2.3587 0
M  V30 508 H 47.7802 3.88949 -0.8249 0
M  V30 509 N 48.7773 0.814389 1.34928 0
M  V30 510 C 49.7073 0.244827 2.32213 0
M  V30 511 C 50.6883 -0.634024 1.57842 0
M  V30 512 O 51.8733 -0.562676 1.8587 0
M  V30 513 C 49.0033 -0.601106 3.42058 0
M  V30 514 C 47.9573 0.179896 4.27622 0
M  V30 515 C 47.2833 -0.788237 5.28858 0
M  V30 516 C 48.5833 1.38329 5.03649 0
M  V30 517 H 50.2773 1.05763 2.80097 0
M  V30 518 H 47.8233 0.510029 1.34665 0
M  V30 519 H 49.7763 -1.00968 4.09125 0
M  V30 520 H 48.5003 -1.44688 2.92802 0
M  V30 521 H 47.1593 0.569739 3.62146 0
M  V30 522 H 46.8073 -1.62973 4.75866 0
M  V30 523 H 46.5073 -0.269942 5.8698 0
M  V30 524 H 48.0313 -1.19485 5.98795 0
M  V30 525 H 49.4453 1.04918 5.63618 0
M  V30 526 H 47.8423 1.83662 5.71304 0
M  V30 527 H 48.9123 2.16592 4.33839 0
M  V30 528 N 50.2554 -1.46986 0.568584 0
M  V30 529 C 51.5024 -2.02441 0.0487986 0
M  V30 530 C 51.8304 -1.44169 -1.30559 0
M  V30 531 O 51.0854 -0.591213 -1.86556 0
M  V30 532 C 51.3844 -3.57306 -0.081836 0
M  V30 533 C 51.0504 -4.34552 1.20313 0
M  V30 534 C 49.7124 -4.55376 1.5552 0
M  V30 535 C 52.0644 -4.79016 2.05411 0
M  V30 536 C 49.3924 -5.17913 2.7565 0
M  V30 537 C 51.7444 -5.42879 3.24754 0
M  V30 538 C 50.4084 -5.61933 3.60261 0
M  V30 539 H 49.6784 -0.740785 0.0178567 0
M  V30 540 H 52.3254 -1.76525 0.742384 0
M  V30 541 H 50.6304 -3.8228 -0.858463 0
M  V30 542 H 52.3274 -3.97876 -0.499546 0
M  V30 543 H 48.9174 -4.18631 0.919014 0
M  V30 544 H 53.1014 -4.62696 1.79516 0
M  V30 545 H 48.3574 -5.30858 3.03315 0
M  V30 546 H 52.5314 -5.76293 3.90973 0
M  V30 547 H 50.1584 -6.10161 4.53439 0
M  V30 548 N 51.7335 -0.305618 -1.54608 0
M  V30 549 C 52.6965 0.555591 -2.22364 0
M  V30 550 C 53.6965 1.05768 -1.21119 0
M  V30 551 O 54.8865 0.952972 -1.45822 0
M  V30 552 C 52.0185 1.76974 -2.91364 0
M  V30 553 H 53.2115 -0.0364572 -2.99878 0
M  V30 554 H 50.7645 -0.0565007 -1.56198 0
M  V30 555 H 51.4995 2.40151 -2.17941 0
M  V30 556 H 51.2845 1.41732 -3.65588 0
M  V30 557 H 52.7745 2.38148 -3.43038 0
M  V30 558 N 53.2116 1.57565 -0.0334293 0
M  V30 559 C 54.4606 1.91155 0.643639 0
M  V30 560 C 54.7736 0.91192 1.73042 0
M  V30 561 O 55.9796 1.13923 2.46442 0
M  V30 562 C 54.4356 3.39443 1.1961 0
M  V30 563 C 54.0436 4.47774 0.142381 0
M  V30 564 C 55.7876 3.82094 1.84944 0
M  V30 565 C 53.6946 5.87162 0.706727 0
M  V30 566 H 52.6246 0.713368 0.244176 0
M  V30 567 H 55.2756 1.8323 -0.0994323 0
M  V30 568 H 53.6576 3.42313 1.99092 0
M  V30 569 H 54.8316 4.56469 -0.630296 0
M  V30 570 H 53.1466 4.14352 -0.412446 0
M  V30 571 H 55.7436 4.83591 2.2813 0
M  V30 572 H 56.0866 3.17386 2.69392 0
M  V30 573 H 56.6196 3.81665 1.12145 0
M  V30 574 H 53.3586 6.55424 -0.0997178 0
M  V30 575 H 52.8786 5.82064 1.44779 0
M  V30 576 H 54.5576 6.35866 1.19514 0
M  V30 577 N 54.6897 -0.239769 1.55765 0
M  V30 578 C 55.6367 -1.29696 1.90913 0
M  V30 579 C 56.6067 -1.47478 0.764164 0
M  V30 580 O 57.7917 -1.61345 1.01845 0
M  V30 581 C 54.9317 -2.64598 2.21544 0
M  V30 582 C 54.0447 -2.54765 3.48882 0
M  V30 583 C 53.1797 -3.82069 3.69049 0
M  V30 584 C 52.2187 -3.66883 4.89963 0
M  V30 585 N 51.3557 -4.86094 5.06614 0
M  V30 586 H 56.1957 -0.990224 2.81067 0
M  V30 587 H 53.7327 -0.477684 1.39128 0
M  V30 588 H 55.6907 -3.43132 2.3731 0
M  V30 589 H 54.3207 -2.93405 1.34585 0
M  V30 590 H 53.3727 -1.67763 3.41409 0
M  V30 591 H 54.6847 -2.39457 4.37563 0
M  V30 592 H 53.8387 -4.69046 3.84812 0
M  V30 593 H 52.5777 -4.00282 2.78614 0
M  V30 594 H 51.5827 -2.78289 4.74168 0
M  V30 595 H 52.8077 -3.50157 5.81865 0
M  V30 596 H 50.7537 -5.04655 4.19117 0
M  V30 597 H 50.6707 -4.73443 5.89396 0
M  V30 598 H 51.9387 -5.74549 5.26795 0
M  V30 599 N 56.1678 -1.49265 -0.50573 0
M  V30 600 C 57.4138 -1.58748 -1.26202 0
M  V30 601 C 57.7468 -0.271227 -1.92297 0
M  V30 602 O 57.0218 0.724831 -1.80489 0
M  V30 603 C 57.3048 -2.74332 -2.33268 0
M  V30 604 C 57.1578 -4.15737 -1.71705 0
M  V30 605 C 58.4768 -2.85576 -3.34865 0
M  V30 606 H 55.5958 -0.577826 -0.457478 0
M  V30 607 H 58.2378 -1.81532 -0.560897 0
M  V30 608 H 56.3878 -2.55036 -2.93068 0
M  V30 609 H 58.0598 -4.46537 -1.15769 0
M  V30 610 H 56.3028 -4.21605 -1.02135 0
M  V30 611 H 56.9738 -4.92477 -2.49341 0
M  V30 612 H 59.4498 -3.03127 -2.8505 0
M  V30 613 H 58.3258 -3.68135 -4.07146 0
M  V30 614 H 58.5868 -1.94732 -3.96903 0
M  V30 615 N 57.6459 0.756429 -1.3826 0
M  V30 616 C 58.8929 1.51547 -1.34312 0
M  V30 617 C 59.2209 1.94382 0.0677144 0
M  V30 618 O 58.4759 1.65514 1.04421 0
M  V30 619 C 58.7749 2.78313 -2.24224 0
M  V30 620 C 58.4409 2.54455 -3.72241 0
M  V30 621 C 57.1029 2.47657 -4.12576 0
M  V30 622 C 59.4549 2.3354 -4.65949 0
M  V30 623 C 56.7829 2.17956 -5.44713 0
M  V30 624 C 59.1349 2.05359 -5.9834 0
M  V30 625 C 57.7989 1.97016 -6.37762 0
M  V30 626 H 57.0689 0.55455 -0.491482 0
M  V30 627 H 59.7159 0.870039 -1.70595 0
M  V30 628 H 58.0209 3.47492 -1.80987 0
M  V30 629 H 59.7179 3.36259 -2.18474 0
M  V30 630 H 56.3079 2.60616 -3.40261 0
M  V30 631 H 60.4919 2.37772 -4.35635 0
M  V30 632 H 55.7479 2.10003 -5.74203 0
M  V30 633 H 59.9219 1.88179 -6.70494 0
M  V30 634 H 57.5489 1.73766 -7.40074 0
M  V30 635 N 59.124 1.23083 0.984299 0
M  V30 636 C 60.072 1.00593 2.09723 0
M  V30 637 C 61.066 -0.0538014 1.69315 0
M  V30 638 O 62.272 0.0993719 1.79725 0
M  V30 639 H 58.647 0.30817 0.685956 0
M  V30 640 H 60.618 1.95012 2.2586 0
M  V30 641 C 59.367 0.609601 3.42314 0
M  V30 642 H 58.69 1.41675 3.73856 0
M  V30 643 H 60.13 0.491726 4.21139 0
M  V30 644 C 58.589 -0.681745 3.2993 0
M  V30 645 O 59.119 -1.73192 3.62446 0
M  V30 646 N 57.325 -0.656178 2.83095 0
M  V30 647 H 56.872 0.198759 2.56832 0
M  V30 648 H 56.83 -1.52044 2.75191 0
M  V30 649 N 60.6021 -1.18246 1.0419 0
M  V30 650 C 61.5501 -2.23968 0.627792 0
M  V30 651 C 62.5441 -1.65828 -0.346019 0
M  V30 652 O 63.7501 -1.78733 -0.213175 0
M  V30 653 H 60.1251 -0.728939 0.184802 0
M  V30 654 H 62.0961 -2.56202 1.52981 0
M  V30 655 C 60.8451 -3.47699 0.00796591 0
M  V30 656 H 60.1681 -3.92734 0.748347 0
M  V30 657 H 61.6081 -4.23294 -0.24455 0
M  V30 658 C 60.0671 -3.13153 -1.24246 0
M  V30 659 O 60.5971 -3.27003 -2.33307 0
M  V30 660 N 58.8031 -2.67467 -1.13622 0
M  V30 661 H 58.3501 -2.56396 -0.248734 0
M  V30 662 H 58.3081 -2.44724 -1.97377 0
M  V30 663 N 62.0802 -0.821533 -1.34494 0
M  V30 664 C 63.3292 -0.405355 -1.97585 0
M  V30 665 C 63.6422 1.03677 -1.65863 0
M  V30 666 O 64.8482 1.55679 -2.22433 0
M  V30 667 C 63.3042 -0.673861 -3.53535 0
M  V30 668 C 62.9122 -2.12951 -3.94152 0
M  V30 669 C 64.6562 -0.32378 -4.23263 0
M  V30 670 C 62.5632 -2.34298 -5.43009 0
M  V30 671 H 61.4932 -0.147836 -0.739365 0
M  V30 672 H 64.1442 -1.00769 -1.53355 0
M  V30 673 H 62.5262 -0.00137554 -3.96 0
M  V30 674 H 63.7002 -2.84104 -3.62797 0
M  V30 675 H 62.0152 -2.44089 -3.37356 0
M  V30 676 H 64.6122 -0.461126 -5.32708 0
M  V30 677 H 64.9552 0.731586 -4.09821 0
M  V30 678 H 65.4882 -0.950786 -3.8627 0
M  V30 679 H 62.2272 -3.38335 -5.61435 0
M  V30 680 H 61.7472 -1.67687 -5.75883 0
M  V30 681 H 63.4262 -2.16588 -6.09671 0
M  V30 682 N 63.5583 1.46682 -0.576371 0
M  V30 683 C 64.7833 2.07304 -0.0630475 0
M  V30 684 C 65.2083 1.42329 1.2298 0
M  V30 685 O 64.5663 0.504865 1.74129 0
M  V30 686 C 64.6143 3.60472 0.095895 0
M  V30 687 O 63.7183 3.95927 1.15394 0
M  V30 688 H 63.0593 0.661288 -0.0599463 0
M  V30 689 H 65.5893 1.88417 -0.797511 0
M  V30 690 H 65.5993 4.06865 0.304071 0
M  V30 691 H 64.2743 4.07157 -0.84828 0
M  V30 692 H 62.8513 3.61252 0.924724 0
M  V30 693 N 65.0364 0.313813 1.54444 0
M  V30 694 C 66.2834 -0.291675 2.00388 0
M  V30 695 C 66.6114 -1.52904 1.2021 0
M  V30 696 O 65.8664 -1.93833 0.269707 0
M  V30 697 C 66.1654 -0.680386 3.50864 0
M  V30 698 C 65.8314 0.456699 4.48581 0
M  V30 699 C 64.4934 0.768824 4.75018 0
M  V30 700 C 66.8454 1.22098 5.06697 0
M  V30 701 C 64.1734 1.84812 5.56831 0
M  V30 702 C 66.5254 2.29029 5.89685 0
M  V30 703 C 65.1894 2.60834 6.14428 0
M  V30 704 H 64.4594 -0.106732 0.733273 0
M  V30 705 H 67.1064 0.43557 1.86481 0
M  V30 706 H 65.4114 -1.48791 3.62448 0
M  V30 707 H 67.1084 -1.16026 3.83847 0
M  V30 708 H 63.6984 0.203337 4.28117 0
M  V30 709 H 67.8824 0.993096 4.86263 0
M  V30 710 H 63.1384 2.09912 5.74236 0
M  V30 711 H 67.3124 2.887 6.33739 0
M  V30 712 H 64.9394 3.44596 6.77612 0
M  V30 713 N 66.5145 -1.57545 0.0417849 0
M  V30 714 C 67.4445 -2.14009 -0.933929 0
M  V30 715 C 68.4255 -1.05938 -1.33083 0
M  V30 716 O 69.6105 -1.33833 -1.40721 0
M  V30 717 C 66.7405 -2.67747 -2.21199 0
M  V30 718 C 65.6945 -3.80718 -1.95544 0
M  V30 719 C 65.0205 -4.20935 -3.29724 0
M  V30 720 C 66.3205 -5.06258 -1.28452 0
M  V30 721 H 68.0145 -2.95788 -0.463645 0
M  V30 722 H 65.5605 -1.42285 -0.221573 0
M  V30 723 H 67.5135 -3.05886 -2.89848 0
M  V30 724 H 66.2375 -1.83147 -2.70416 0
M  V30 725 H 64.8965 -3.43037 -1.2931 0
M  V30 726 H 64.5445 -3.33298 -3.76724 0
M  V30 727 H 64.2445 -4.9707 -3.13361 0
M  V30 728 H 65.7685 -4.61666 -3.9962 0
M  V30 729 H 67.1825 -5.41903 -1.8712 0
M  V30 730 H 65.5795 -5.87475 -1.22445 0
M  V30 731 H 66.6495 -4.84207 -0.259219 0
M  V30 732 N 67.9926 0.231505 -1.5589 0
M  V30 733 C 69.4086 0.580748 -1.48659 0
M  V30 734 C 69.6086 1.87617 -0.73498 0
M  V30 735 O 68.6646 2.51046 -0.270586 0
M  V30 736 C 69.9776 0.669202 -2.93159 0
M  V30 737 C 71.5256 0.760499 -3.03621 0
M  V30 738 C 72.0006 0.880383 -4.49459 0
M  V30 739 N 73.4916 0.944861 -4.53461 0
M  V30 740 C 74.2266 1.05716 -5.63571 0
M  V30 741 N 73.7226 1.13403 -6.83456 0
M  V30 742 N 75.5156 1.09152 -5.514 0
M  V30 743 H 67.6666 -0.618695 -2.03189 0
M  V30 744 H 69.9296 -0.215728 -0.923128 0
M  V30 745 H 69.6356 -0.212904 -3.51055 0
M  V30 746 H 69.5096 1.5361 -3.44505 0
M  V30 747 H 71.8966 1.63305 -2.45796 0
M  V30 748 H 71.9776 -0.131864 -2.5546 0
M  V30 749 H 71.6216 0.0123284 -5.07899 0
M  V30 750 H 71.5516 1.78802 -4.95316 0
M  V30 751 H 74.0426 0.896176 -3.6712 0
M  V30 752 H 74.3556 1.21921 -7.63122 0
M  V30 753 H 72.7006 1.10333 -6.86186 0
M  V30 754 H 75.8916 1.02805 -4.56671 0
M  V30 755 H 76.0646 1.17558 -6.37247 0
M  V30 756 N 69.4707 1.49531 0.497807 0
M  V30 757 C 70.8817 1.52344 1.07927 0
M  V30 758 C 71.2327 0.311469 1.93712 0
M  V30 759 O 70.3577 -0.578405 2.08527 0
M  V30 760 C 70.9527 2.76062 1.96405 0
M  V30 761 C 69.5117 2.81643 2.49709 0
M  V30 762 C 68.6587 2.46299 1.27404 0
M  V30 763 H 71.6097 1.56182 0.281576 0
M  V30 764 H 71.6307 2.56405 2.81135 0
M  V30 765 H 71.1427 3.64254 1.33943 0
M  V30 766 H 69.2437 1.97739 3.15801 0
M  V30 767 H 69.3567 3.83891 2.86643 0
M  V30 768 H 67.7207 1.98148 1.60029 0
M  V30 769 H 68.5037 3.36769 0.66645 0
M  V30 770 N 70.9488 -0.749086 1.3866 0
M  V30 771 C 72.1948 -1.51056 1.35314 0
M  V30 772 C 72.5278 -1.94121 -0.0553751 0
M  V30 773 O 71.8028 -1.65763 -1.01749 0
M  V30 774 C 72.0858 -2.76003 2.31288 0
M  V30 775 C 71.9388 -2.39047 3.8102 0
M  V30 776 C 73.2578 -3.78046 2.2532 0
M  V30 777 H 70.3768 -0.547972 0.492844 0
M  V30 778 H 73.0188 -0.857628 1.69543 0
M  V30 779 H 71.1688 -3.31716 2.02229 0
M  V30 780 H 72.8408 -1.89074 4.20771 0
M  V30 781 H 71.0838 -1.71449 3.98482 0
M  V30 782 H 71.7548 -3.28462 4.4364 0
M  V30 783 H 74.2308 -3.31884 2.50983 0
M  V30 784 H 73.1068 -4.63159 2.94576 0
M  V30 785 H 73.3678 -4.23957 1.25352 0
M  V30 786 N 72.4269 -1.23603 -0.977757 0
M  V30 787 C 73.7039 -0.977897 -1.69401 0
M  V30 788 C 74.0839 0.502738 -2.05026 0
M  V30 789 O 73.4319 1.47459 -1.74551 0
M  V30 790 C 73.6419 -1.89077 -2.93345 0
M  V30 791 C 74.9899 -2.15579 -3.65802 0
M  V30 792 O 76.0139 -1.86648 -3.03383 0
M  V30 793 O 74.8729 -2.64658 -4.78141 0
M  V30 794 H 71.9669 -0.369025 -0.740101 0
M  V30 795 H 74.5129 -1.34657 -1.03274 0
M  V30 796 H 73.2849 -2.89158 -2.63634 0
M  V30 797 H 72.9079 -1.52463 -3.67207 0
M  V30 798 N 73.905 1.17692 -1.04816 0
M  V30 799 C 75.151 1.88137 -0.75711 0
M  V30 800 C 75.484 1.80604 0.713841 0
M  V30 801 O 74.759 1.21146 1.52164 0
M  V30 802 C 75.042 3.38318 -1.2334 0
M  V30 803 C 74.895 3.54622 -2.76701 0
M  V30 804 C 76.214 4.32214 -0.829415 0
M  V30 805 H 73.333 0.683163 -0.27651 0
M  V30 806 H 75.975 1.38424 -1.30149 0
M  V30 807 H 74.125 3.80787 -0.770286 0
M  V30 808 H 75.797 3.21194 -3.31107 0
M  V30 809 H 74.04 2.97026 -3.16161 0
M  V30 810 H 74.711 4.60028 -3.05088 0
M  V30 811 H 77.187 3.97565 -1.22805 0
M  V30 812 H 76.063 5.35838 -1.19033 0
M  V30 813 H 76.324 4.41294 0.266891 0
M  V30 814 N 75.3831 0.828654 1.34056 0
M  V30 815 C 76.3151 0.212052 2.28217 0
M  V30 816 C 77.3281 -0.601362 1.51286 0
M  V30 817 O 78.5171 -0.430104 1.73241 0
M  V30 818 C 75.6171 -0.72088 3.31144 0
M  V30 819 C 74.7901 0.0509587 4.3737 0
M  V30 820 C 73.8491 -0.803766 5.20025 0
M  V30 821 O 72.8751 -0.246667 5.68665 0
M  V30 822 N 74.0771 -2.1227 5.40298 0
M  V30 823 H 76.8421 1.02105 2.81771 0
M  V30 824 H 74.4031 0.686153 1.46641 0
M  V30 825 H 76.3951 -1.29742 3.8334 0
M  V30 826 H 74.9651 -1.43061 2.77943 0
M  V30 827 H 74.1851 0.808831 3.85813 0
M  V30 828 H 75.4731 0.582065 5.0546 0
M  V30 829 H 74.8711 -2.59898 5.02464 0
M  V30 830 H 73.4281 -2.64796 5.95589 0
M  V30 831 N 76.8612 -1.46375 0.584142 0
M  V30 832 C 77.7942 -2.27351 -0.196676 0
M  V30 833 C 78.7722 -1.35715 -0.895561 0
M  V30 834 O 79.9562 -1.65126 -0.90916 0
M  V30 835 C 77.0832 -3.13486 -1.28235 0
M  V30 836 C 76.1292 -4.20896 -0.689145 0
M  V30 837 S 76.9622 -5.33299 0.48507 0
M  V30 838 C 78.1182 -6.23 -0.601767 0
M  V30 839 H 78.3512 -2.93228 0.490395 0
M  V30 840 H 75.8842 -1.49875 0.371071 0
M  V30 841 H 77.8422 -3.63676 -1.90395 0
M  V30 842 H 76.5032 -2.4692 -1.94138 0
M  V30 843 H 75.6962 -4.80997 -1.50527 0
M  V30 844 H 75.2982 -3.73726 -0.143181 0
M  V30 845 H 77.5902 -6.60979 -1.48705 0
M  V30 846 H 78.5332 -7.0809 -0.0374799 0
M  V30 847 H 78.9412 -5.57173 -0.906557 0
M  V30 848 N 78.3393 -0.321999 -1.54275 0
M  V30 849 C 79.7553 0.0306999 -1.5957 0
M  V30 850 C 79.9553 1.50614 -1.33857 0
M  V30 851 O 79.0113 2.2619 -1.12223 0
M  V30 852 C 80.3243 -0.386122 -2.98211 0
M  V30 853 C 81.8723 -0.336647 -3.11184 0
M  V30 854 C 82.3473 -0.728607 -4.52167 0
M  V30 855 N 83.8383 -0.681952 -4.58152 0
M  V30 856 C 84.5733 -0.957449 -5.6535 0
M  V30 857 N 84.0693 -1.3 -6.80494 0
M  V30 858 N 85.8623 -0.883113 -5.55119 0
M  V30 859 H 78.0133 -1.28332 -1.69247 0
M  V30 860 H 80.2763 -0.521716 -0.791528 0
M  V30 861 H 79.9823 -1.41404 -3.22022 0
M  V30 862 H 79.8563 0.249662 -3.76373 0
M  V30 863 H 82.2433 0.682058 -2.8711 0
M  V30 864 H 82.3243 -1.00734 -2.3513 0
M  V30 865 H 81.9683 -1.74522 -4.76974 0
M  V30 866 H 81.8983 -0.0356152 -5.26588 0
M  V30 867 H 84.3893 -0.428985 -3.75457 0
M  V30 868 H 84.7023 -1.49563 -7.58189 0
M  V30 869 H 83.0473 -1.33824 -6.81994 0
M  V30 870 H 86.2383 -0.615001 -4.64042 0
M  V30 871 H 86.4113 -1.10118 -6.38575 0
M  V30 872 N 79.8174 1.5752 -0.0501392 0
M  V30 873 C 80.7274 2.14952 0.939827 0
M  V30 874 C 81.7434 1.10706 1.34239 0
M  V30 875 O 82.9194 1.42869 1.41952 0
M  V30 876 C 79.9844 2.68232 2.19665 0
M  V30 877 C 79.0454 3.87272 1.85253 0
M  V30 878 C 78.2784 4.38002 3.04943 0
M  V30 879 O 78.5014 3.87811 4.18281 0
M  V30 880 O 77.4354 5.29602 2.86017 0
M  V30 881 H 81.2614 2.9986 0.481392 0
M  V30 882 H 78.8464 1.4841 0.171699 0
M  V30 883 H 80.7284 3.02475 2.93406 0
M  V30 884 H 79.4034 1.86395 2.64648 0
M  V30 885 H 78.3104 3.5792 1.0883 0
M  V30 886 H 79.6434 4.70336 1.4507 0
M  V30 887 N 81.2955 -0.223234 1.56011 0
M  V30 888 C 82.5425 -0.947875 1.78946 0
M  V30 889 C 82.8705 -1.844 0.618608 0
M  V30 890 O 82.1255 -1.91629 -0.397093 0
M  V30 891 C 82.4245 -1.81948 3.0762 0
M  V30 892 C 82.0905 -1.07672 4.37856 0
M  V30 893 C 80.7525 -0.871544 4.73242 0
M  V30 894 C 83.1045 -0.552081 5.18268 0
M  V30 895 C 80.4325 -0.129791 5.86556 0
M  V30 896 C 82.7845 0.17632 6.32354 0
M  V30 897 C 81.4485 0.39277 6.66343 0
M  V30 898 H 80.7185 -0.346852 0.654809 0
M  V30 899 H 83.3655 -0.216171 1.90276 0
M  V30 900 H 81.6705 -2.61899 2.91404 0
M  V30 901 H 83.3675 -2.38227 3.22566 0
M  V30 902 H 79.9575 -1.24662 4.1007 0
M  V30 903 H 84.1415 -0.698076 4.91366 0
M  V30 904 H 79.3975 0.048153 6.11381 0
M  V30 905 H 83.5715 0.590367 6.93893 0
M  V30 906 H 81.1985 0.969466 7.53993 0
M  V30 907 N 82.7736 -1.49793 -0.48987 0
M  V30 908 C 83.6836 -1.70036 -1.61632 0
M  V30 909 C 84.6996 -0.583102 -1.63939 0
M  V30 910 O 85.8756 -0.859169 -1.82154 0
M  V30 911 C 82.9406 -1.77277 -2.97949 0
M  V30 912 C 82.0016 -3.00918 -3.06181 0
M  V30 913 C 81.2346 -3.07804 -4.35996 0
M  V30 914 O 81.4576 -2.21982 -5.25433 0
M  V30 915 O 80.3916 -4.00369 -4.49431 0
M  V30 916 H 84.2176 -2.65486 -1.47482 0
M  V30 917 H 81.8026 -1.33666 -0.667362 0
M  V30 918 H 83.6846 -1.84329 -3.78947 0
M  V30 919 H 82.3596 -0.850076 -3.12339 0
M  V30 920 H 81.2666 -2.99377 -2.2433 0
M  V30 921 H 82.5996 -3.92704 -2.96723 0
M  V30 922 N 84.2517 0.741722 -1.39055 0
M  V30 923 C 85.4977 1.50336 -1.36113 0
M  V30 924 C 85.8307 1.94148 0.0450796 0
M  V30 925 O 85.1057 1.66301 1.00868 0
M  V30 926 C 85.3887 2.74773 -2.32749 0
M  V30 927 C 85.2417 2.37023 -3.82283 0
M  V30 928 C 86.5607 3.76846 -2.27322 0
M  V30 929 H 83.6797 0.545351 -0.495743 0
M  V30 930 H 86.3217 0.848624 -1.69995 0
M  V30 931 H 84.4717 3.30639 -2.03986 0
M  V30 932 H 86.1437 1.8684 -4.21768 0
M  V30 933 H 84.3867 1.69334 -3.99385 0
M  V30 934 H 85.0577 3.26104 -4.45376 0
M  V30 935 H 87.5337 3.30548 -2.5274 0
M  V30 936 H 86.4097 4.6159 -2.97028 0
M  V30 937 H 86.6707 4.23286 -1.27599 0
M  V30 938 N 85.7298 1.2412 0.971189 0
M  V30 939 C 86.6598 1.05508 2.08304 0
M  V30 940 C 87.6408 -0.0308864 1.70072 0
M  V30 941 O 88.8258 0.135521 1.93727 0
M  V30 942 C 85.9558 0.655365 3.4106 0
M  V30 943 C 84.9098 1.68971 3.93234 0
M  V30 944 C 84.2358 1.14516 5.22293 0
M  V30 945 C 85.5358 3.08487 4.21465 0
M  V30 946 H 87.2298 1.98507 2.24132 0
M  V30 947 H 84.7758 0.955821 1.07704 0
M  V30 948 H 86.7288 0.51217 4.18276 0
M  V30 949 H 85.4528 -0.31032 3.25122 0
M  V30 950 H 84.1118 1.82106 3.18171 0
M  V30 951 H 83.7598 0.170189 5.02712 0
M  V30 952 H 83.4598 1.83635 5.58168 0
M  V30 953 H 84.9838 1.01401 6.02121 0
M  V30 954 H 86.3978 2.98601 4.89398 0
M  V30 955 H 84.7948 3.74926 4.68562 0
M  V30 956 H 85.8648 3.56787 3.28376 0
M  V30 957 N 87.2079 -1.17134 1.05439 0
M  V30 958 C 88.1549 -2.21235 0.657539 0
M  V30 959 C 89.1249 -1.62551 -0.341543 0
M  V30 960 O 90.3099 -1.89379 -0.232393 0
M  V30 961 C 87.4499 -3.45076 0.0410575 0
M  V30 962 C 86.5629 -4.18042 1.08927 0
M  V30 963 C 85.6979 -5.29376 0.439848 0
M  V30 964 C 84.7369 -5.94132 1.4722 0
M  V30 965 N 83.8739 -6.96975 0.846756 0
M  V30 966 H 88.7139 -2.54534 1.54972 0
M  V30 967 H 86.2509 -1.25028 0.775006 0
M  V30 968 H 88.2089 -4.15862 -0.33383 0
M  V30 969 H 86.8389 -3.12353 -0.814568 0
M  V30 970 H 85.8909 -3.45945 1.58196 0
M  V30 971 H 87.2029 -4.62306 1.87282 0
M  V30 972 H 86.3569 -6.06699 0.0115125 0
M  V30 973 H 85.0959 -4.86251 -0.375656 0
M  V30 974 H 84.1009 -5.15538 1.91052 0
M  V30 975 H 85.3259 -6.39337 2.28965 0
M  V30 976 H 83.2719 -6.5598 0.0518075 0
M  V30 977 H 83.1889 -7.39565 1.5678 0
M  V30 978 H 84.4569 -7.78239 0.443277 0
M  V30 979 N 88.686 -0.835752 -1.33615 0
M  V30 980 C 89.633 -0.26473 -2.29277 0
M  V30 981 C 90.603 0.617712 -1.54187 0
M  V30 982 O 91.788 0.556641 -1.825 0
M  V30 983 C 88.928 0.556777 -3.40579 0
M  V30 984 C 88.041 -0.349339 -4.30585 0
M  V30 985 C 87.176 0.482969 -5.29 0
M  V30 986 C 86.215 -0.421732 -6.10645 0
M  V30 987 N 85.352 0.372262 -7.01112 0
M  V30 988 H 90.192 -1.08582 -2.77514 0
M  V30 989 H 87.729 -0.546927 -1.36554 0
M  V30 990 H 89.687 1.04852 -4.03809 0
M  V30 991 H 88.317 1.34286 -2.93542 0
M  V30 992 H 87.369 -0.959372 -3.68104 0
M  V30 993 H 88.681 -1.04445 -4.87742 0
M  V30 994 H 87.835 1.03866 -5.97743 0
M  V30 995 H 86.574 1.21153 -4.72412 0
M  V30 996 H 85.579 -0.989464 -5.40823 0
M  V30 997 H 86.804 -1.14861 -6.69316 0
M  V30 998 H 84.75 1.08426 -6.46977 0
M  V30 999 H 84.667 -0.264198 -7.55538 0
M  V30 1000 H 85.935 0.910293 -7.74167 0
M  V30 1001 N 90.1641 1.46063 -0.591896 0
M  V30 1002 C 91.0941 2.33172 0.123673 0
M  V30 1003 C 92.0751 1.45897 0.87453 0
M  V30 1004 O 93.2601 1.74698 0.848181 0
M  V30 1005 C 90.3901 3.28336 1.13194 0
M  V30 1006 C 89.3441 4.25124 0.495324 0
M  V30 1007 C 88.6701 5.09863 1.61071 0
M  V30 1008 C 89.9701 5.19143 -0.573425 0
M  V30 1009 H 91.6641 2.93252 -0.603646 0
M  V30 1010 H 89.2101 1.41014 -0.291741 0
M  V30 1011 H 91.1631 3.88137 1.64097 0
M  V30 1012 H 89.8871 2.66383 1.88965 0
M  V30 1013 H 88.5461 3.66599 0.00729452 0
M  V30 1014 H 88.1941 4.44288 2.35832 0
M  V30 1015 H 87.8941 5.75417 1.19035 0
M  V30 1016 H 89.4181 5.72529 2.12233 0
M  V30 1017 H 90.8321 5.73106 -0.1491 0
M  V30 1018 H 89.2291 5.93089 -0.914636 0
M  V30 1019 H 90.2991 4.62519 -1.45617 0
M  V30 1020 N 91.6422 0.330177 1.54103 0
M  V30 1021 C 92.5902 -0.548226 2.26047 0
M  V30 1022 C 93.5842 -1.11309 1.27698 0
M  V30 1023 O 94.7902 -1.06036 1.45452 0
M  V30 1024 H 91.1652 -0.195456 0.726155 0
M  V30 1025 H 93.1362 0.0807567 2.98291 0
M  V30 1026 C 91.8852 -1.69415 3.03634 0
M  V30 1027 H 91.2082 -1.26876 3.79134 0
M  V30 1028 H 92.6482 -2.28423 3.5721 0
M  V30 1029 C 91.1072 -2.61569 2.12328 0
M  V30 1030 O 91.6372 -3.63462 1.7105 0
M  V30 1031 N 89.8432 -2.29952 1.77681 0
M  V30 1032 H 89.3902 -1.47134 2.11446 0
M  V30 1033 H 89.3482 -2.91871 1.16869 0
M  V30 1034 N 93.1203 -1.57491 0.0584922 0
M  V30 1035 C 94.0703 -2.08474 -0.923188 0
M  V30 1036 C 95.0543 -0.991479 -1.26722 0
M  V30 1037 O 96.2463 -1.25473 -1.24842 0
M  V30 1038 C 93.3753 -2.6392 -2.19548 0
M  V30 1039 C 92.4613 -3.80227 -1.87852 0
M  V30 1040 N 92.8523 -4.89714 -1.26546 0
M  V30 1041 C 91.1503 -3.89271 -2.17679 0
M  V30 1042 C 91.8513 -5.70689 -1.12644 0
M  V30 1043 N 90.8273 -5.18531 -1.63176 0
M  V30 1044 H 94.6293 -2.90517 -0.444653 0
M  V30 1045 H 92.1433 -1.61745 -0.145764 0
M  V30 1046 H 94.1403 -2.98752 -2.9078 0
M  V30 1047 H 92.8003 -1.83318 -2.68001 0
M  V30 1048 H 93.8113 -5.09358 -0.936757 0
M  V30 1049 H 90.4883 -3.19623 -2.68602 0
M  V30 1050 H 91.8783 -6.6875 -0.6499 0
M  V30 1051 N 94.5984 0.214957 -1.56127 0
M  V30 1052 C 95.5454 1.26642 -1.92952 0
M  V30 1053 C 96.5154 1.46244 -0.78753 0
M  V30 1054 O 97.7004 1.59704 -1.04399 0
M  V30 1055 C 94.8404 2.6104 -2.25726 0
M  V30 1056 C 93.9534 2.49183 -3.52891 0
M  V30 1057 C 93.0884 3.76149 -3.7508 0
M  V30 1058 C 92.1274 3.59041 -4.95738 0
M  V30 1059 N 91.2644 4.77972 -5.14283 0
M  V30 1060 H 96.1044 0.945384 -2.82607 0
M  V30 1061 H 93.6414 0.455489 -1.3987 0
M  V30 1062 H 95.5994 3.39313 -2.42739 0
M  V30 1063 H 94.2294 2.91227 -1.39236 0
M  V30 1064 H 93.2814 1.6231 -3.44034 0
M  V30 1065 H 94.5934 2.32466 -4.41318 0
M  V30 1066 H 93.7474 4.62865 -3.92226 0
M  V30 1067 H 92.4864 3.95799 -2.84947 0
M  V30 1068 H 91.4914 2.7071 -4.78535 0
M  V30 1069 H 92.7164 3.40856 -5.87362 0
M  V30 1070 H 90.6624 4.97923 -4.27093 0
M  V30 1071 H 90.5794 4.64006 -5.96853 0
M  V30 1072 H 91.8474 5.66096 -5.35869 0
M  V30 1073 N 96.0765 1.50051 0.48192 0
M  V30 1074 C 97.0245 1.68635 1.60203 0
M  V30 1075 C 98.0185 0.552184 1.60148 0
M  V30 1076 O 99.2245 0.732377 1.64427 0
M  V30 1077 H 95.5995 0.532081 0.531407 0
M  V30 1078 H 97.5705 2.62616 1.41688 0
M  V30 1079 C 96.3195 1.78775 2.9822 0
M  V30 1080 H 95.6425 2.6543 2.98976 0
M  V30 1081 H 97.0825 1.95806 3.7608 0
M  V30 1082 C 95.5415 0.536849 3.32595 0
M  V30 1083 O 96.0715 -0.328897 4.00351 0
M  V30 1084 N 94.2775 0.394091 2.87915 0
M  V30 1085 H 93.8245 1.09962 2.32951 0
M  V30 1086 H 93.7825 -0.441737 3.11281 0
M  V30 1087 N 97.5546 -0.734337 1.39446 0
M  V30 1088 C 98.8036 -1.48937 1.36017 0
M  V30 1089 C 99.1166 -1.95557 -0.0409005 0
M  V30 1090 O 100.323 -2.70779 -0.19778 0
M  V30 1091 C 98.7786 -2.69125 2.38955 0
M  V30 1092 C 98.3866 -2.29452 3.8478 0
M  V30 1093 C 100.131 -3.46944 2.44603 0
M  V30 1094 C 98.0376 -3.46366 4.79358 0
M  V30 1095 H 96.9676 -0.559296 0.505672 0
M  V30 1096 H 99.6186 -0.800983 1.65095 0
M  V30 1097 H 98.0006 -3.40041 2.02948 0
M  V30 1098 H 99.1746 -1.66077 4.29831 0
M  V30 1099 H 97.4896 -1.64723 3.82433 0
M  V30 1100 H 100.087 -4.33907 3.12456 0
M  V30 1101 H 100.43 -3.89454 1.47076 0
M  V30 1102 H 100.963 -2.83056 2.79507 0
M  V30 1103 H 97.7016 -3.08905 5.78151 0
M  V30 1104 H 97.2216 -4.08719 4.38986 0
M  V30 1105 H 98.9006 -4.12691 4.98292 0
M  V30 1106 N 99.0327 -1.24633 -0.964593 0
M  V30 1107 C 100.279 -1.08949 -1.71049 0
M  V30 1108 C 100.612 0.370302 -1.90637 0
M  V30 1109 O 99.8867 1.27349 -1.47011 0
M  V30 1110 C 100.17 -1.83329 -3.0994 0
M  V30 1111 C 100.023 -3.37077 -2.97824 0
M  V30 1112 C 101.342 -1.60846 -4.09654 0
M  V30 1113 H 98.4607 -0.397178 -0.620821 0
M  V30 1114 H 101.103 -1.5334 -1.12191 0
M  V30 1115 H 99.2527 -1.45597 -3.60186 0
M  V30 1116 H 100.925 -3.84425 -2.5498 0
M  V30 1117 H 99.1677 -3.65298 -2.33965 0
M  V30 1118 H 99.8387 -3.84324 -3.96231 0
M  V30 1119 H 102.315 -1.93674 -3.68279 0
M  V30 1120 H 101.191 -2.1534 -5.04896 0
M  V30 1121 H 101.452 -0.547434 -4.38698 0
M  V30 1122 N 100.511 1.16574 -1.06058 0
M  V30 1123 C 101.458 2.20883 -0.669263 0
M  V30 1124 C 102.428 1.62729 0.332918 0
M  V30 1125 O 103.613 1.895 0.222346 0
M  V30 1126 C 100.753 3.45049 -0.0593572 0
M  V30 1127 C 99.8658 4.17458 -1.11143 0
M  V30 1128 C 99.0008 5.29135 -0.467916 0
M  V30 1129 C 98.0398 5.93343 -1.50369 0
M  V30 1130 N 97.1768 6.96516 -0.883706 0
M  V30 1131 H 102.017 2.53709 -1.5632 0
M  V30 1132 H 99.5538 1.24616 -0.781625 0
M  V30 1133 H 101.512 4.16033 0.311771 0
M  V30 1134 H 100.142 3.12781 0.797992 0
M  V30 1135 H 99.1938 3.45101 -1.60029 0
M  V30 1136 H 100.506 4.61307 -1.89731 0
M  V30 1137 H 99.6598 6.06684 -0.0436871 0
M  V30 1138 H 98.3988 4.86443 0.349864 0
M  V30 1139 H 97.4038 5.14517 -1.93784 0
M  V30 1140 H 98.6288 6.38114 -2.32352 0
M  V30 1141 H 96.5748 6.55943 -0.086595 0
M  V30 1142 H 96.4918 7.38723 -1.607 0
M  V30 1143 H 97.7598 7.77993 -0.484543 0
M  V30 1144 N 101.989 0.842826 1.3317 0
M  V30 1145 C 102.919 0.294028 2.31641 0
M  V30 1146 C 103.9 -0.600401 1.59151 0
M  V30 1147 O 105.085 -0.523124 1.87022 0
M  V30 1148 C 102.215 -0.528416 3.43257 0
M  V30 1149 C 101.169 0.27056 4.27144 0
M  V30 1150 C 100.495 -0.675881 5.30411 0
M  V30 1151 C 101.795 1.48981 5.00602 0
M  V30 1152 H 103.489 1.11681 2.77791 0
M  V30 1153 H 101.035 0.538478 1.33553 0
M  V30 1154 H 102.988 -0.922674 4.11175 0
M  V30 1155 H 101.712 -1.38445 2.95805 0
M  V30 1156 H 100.371 0.646427 3.60856 0
M  V30 1157 H 100.019 -1.52842 4.79216 0
M  V30 1158 H 99.7189 -0.145374 5.8742 0
M  V30 1159 H 101.243 -1.06757 6.01195 0
M  V30 1160 H 102.657 1.16849 5.61266 0
M  V30 1161 H 101.054 1.95739 5.6728 0
M  V30 1162 H 102.124 2.25746 4.29147 0
M  V30 1163 N 103.467 -1.45747 0.599634 0
M  V30 1164 C 104.714 -2.02292 0.0917284 0
M  V30 1165 C 105.042 -1.46906 -1.27472 0
M  V30 1166 O 104.297 -0.630652 -1.8526 0
M  V30 1167 C 104.596 -3.57399 -0.00602758 0
M  V30 1168 C 104.262 -4.31902 1.29503 0
M  V30 1169 C 102.924 -4.51974 1.65144 0
M  V30 1170 C 105.276 -4.74551 2.15525 0
M  V30 1171 C 102.604 -5.11949 2.86574 0
M  V30 1172 C 104.956 -5.35868 3.36196 0
M  V30 1173 C 103.62 -5.54165 3.72099 0
M  V30 1174 H 102.89 -0.740239 0.0335658 0
M  V30 1175 H 105.537 -1.7491 0.779661 0
M  V30 1176 H 103.842 -3.84014 -0.777183 0
M  V30 1177 H 105.539 -3.98846 -0.415038 0
M  V30 1178 H 102.129 -4.16588 1.00761 0
M  V30 1179 H 106.313 -4.58784 1.8929 0
M  V30 1180 H 101.569 -5.24305 3.14507 0
M  V30 1181 H 105.743 -5.6787 4.03109 0
M  V30 1182 H 103.37 -6.00406 4.6628 0
M  V30 1183 N 104.945 -0.338344 -1.53925 0
M  V30 1184 C 105.908 0.508299 -2.23493 0
M  V30 1185 C 106.908 1.03175 -1.23335 0
M  V30 1186 O 108.098 0.921826 -1.47811 0
M  V30 1187 C 105.23 1.70754 -2.95052 0
M  V30 1188 H 106.423 -0.100058 -2.99733 0
M  V30 1189 H 103.976 -0.0896198 -1.56043 0
M  V30 1190 H 104.711 2.35474 -2.22986 0
M  V30 1191 H 104.496 1.33946 -3.68512 0
M  V30 1192 H 105.986 2.30818 -3.48013 0
M  V30 1193 N 106.423 1.57458 -0.0668435 0
M  V30 1194 C 107.672 1.92477 0.602947 0
M  V30 1195 C 107.985 0.948419 1.71068 0
M  V30 1196 O 109.191 1.19124 2.43971 0
M  V30 1197 C 107.647 3.41903 1.12383 0
M  V30 1198 C 107.255 4.47975 0.04737 0
M  V30 1199 C 108.999 3.85931 1.76797 0
M  V30 1200 C 106.906 5.88529 0.582022 0
M  V30 1201 H 105.836 0.718387 0.22899 0
M  V30 1202 H 108.487 1.82978 -0.138276 0
M  V30 1203 H 106.869 3.46459 1.91787 0
M  V30 1204 H 108.043 4.55029 -0.726978 0
M  V30 1205 H 106.358 4.13384 -0.500243 0
M  V30 1206 H 108.955 4.88322 2.17821 0
M  V30 1207 H 109.298 3.23029 2.62599 0
M  V30 1208 H 109.831 3.83958 1.04024 0
M  V30 1209 H 106.57 6.55065 -0.238721 0
M  V30 1210 H 106.09 5.85004 1.324 0
M  V30 1211 H 107.769 6.38258 1.05999 0
M  V30 1212 N 107.901 -0.206675 1.56239 0
M  V30 1213 C 108.811 -1.27686 1.96808 0
M  V30 1214 C 109.827 -1.50455 0.874035 0
M  V30 1215 O 111.003 -1.63295 1.17884 0
M  V30 1216 C 108.068 -2.60358 2.28942 0
M  V30 1217 C 107.129 -2.45762 3.51994 0
M  V30 1218 C 106.362 -3.72108 3.82585 0
M  V30 1219 O 106.585 -4.75776 3.14631 0
M  V30 1220 O 105.519 -3.6833 4.76043 0
M  V30 1221 H 109.345 -0.962593 2.88041 0
M  V30 1222 H 106.93 -0.410746 1.43643 0
M  V30 1223 H 108.812 -3.38687 2.50737 0
M  V30 1224 H 107.487 -2.91435 1.4088 0
M  V30 1225 H 106.394 -1.65584 3.35459 0
M  V30 1226 H 107.727 -2.19621 4.40486 0
M  V30 1227 N 109.379 -1.50304 -0.473955 0
M  V30 1228 C 110.289 -1.7174 -1.5982 0
M  V30 1229 C 111.305 -0.600457 -1.63311 0
M  V30 1230 O 112.481 -0.878441 -1.81233 0
M  V30 1231 C 109.546 -1.80427 -2.96052 0
M  V30 1232 C 108.607 -3.04148 -3.02972 0
M  V30 1233 C 107.84 -3.12411 -4.32706 0
M  V30 1234 O 108.063 -2.27542 -5.23049 0
M  V30 1235 O 106.997 -4.05113 -4.45159 0
M  V30 1236 H 110.823 -2.67035 -1.44657 0
M  V30 1237 H 108.408 -1.34366 -0.653148 0
M  V30 1238 H 110.29 -1.88338 -3.7697 0
M  V30 1239 H 108.965 -0.883156 -3.11419 0
M  V30 1240 H 107.872 -3.0174 -2.21142 0
M  V30 1241 H 109.205 -3.95829 -2.92541 0
M  V30 1242 N 110.857 0.726932 -1.39834 0
M  V30 1243 C 111.767 1.87131 -1.41489 0
M  V30 1244 C 112.783 1.71239 -0.308757 0
M  V30 1245 O 113.959 1.93701 -0.551529 0
M  V30 1246 C 111.024 3.22811 -1.26468 0
M  V30 1247 C 110.085 3.51039 -2.47124 0
M  V30 1248 C 109.318 4.80245 -2.3281 0
M  V30 1249 O 109.541 5.54537 -1.33585 0
M  V30 1250 O 108.475 5.08554 -3.21957 0
M  V30 1251 H 112.301 1.8869 -2.3797 0
M  V30 1252 H 109.886 0.875837 -1.21035 0
M  V30 1253 H 111.768 4.03877 -1.20255 0
M  V30 1254 H 110.443 3.22005 -0.330862 0
M  V30 1255 H 109.35 2.70027 -2.58914 0
M  V30 1256 H 110.683 3.56632 -3.39227 0
M  V30 1257 N 112.336 1.25143 0.95797 0
M  V30 1258 C 113.564 1.12424 1.73691 0
M  V30 1259 C 113.979 -0.322304 1.86029 0
M  V30 1260 O 113.336 -1.22186 1.35561 0
M  V30 1261 C 113.387 1.76933 3.15241 0
M  V30 1262 O 113.108 3.15932 3.03511 0
M  V30 1263 C 114.609 1.6995 4.09429 0
M  V30 1264 H 111.829 0.3923 0.544373 0
M  V30 1265 H 114.373 1.6544 1.20207 0
M  V30 1266 H 112.528 1.27895 3.6568 0
M  V30 1267 H 112.942 3.47598 3.9278 0
M  V30 1268 H 114.416 2.19753 5.06372 0
M  V30 1269 H 114.893 0.662619 4.34173 0
M  V30 1270 H 115.499 2.18461 3.64904 0
M  V30 1271 N 113.814 -1.1601 1.06675 0
M  V30 1272 C 115.042 -1.90527 0.806667 0
M  V30 1273 C 115.457 -1.77643 -0.639396 0
M  V30 1274 O 114.814 -1.12369 -1.43803 0
M  V30 1275 C 114.865 -3.41106 1.19705 0
M  V30 1276 O 114.586 -3.53608 2.58636 0
M  V30 1277 C 116.087 -4.32663 0.965266 0
M  V30 1278 H 113.307 -0.604053 0.292166 0
M  V30 1279 H 115.851 -1.47026 1.4214 0
M  V30 1280 H 114.006 -3.82296 0.626774 0
M  V30 1281 H 114.42 -4.47011 2.74375 0
M  V30 1282 H 115.894 -5.36763 1.288 0
M  V30 1283 H 116.371 -4.39089 -0.0987936 0
M  V30 1284 H 116.977 -3.97206 1.52011 0
M  V30 1285 N 115.292 -0.849877 -1.32721 0
M  V30 1286 C 116.52 -0.464754 -2.01613 0
M  V30 1287 C 116.935 0.937191 -1.63897 0
M  V30 1288 O 116.292 1.61081 -0.857856 0
M  V30 1289 C 116.343 -0.588638 -3.56675 0
M  V30 1290 O 116.064 -1.93535 -3.93034 0
M  V30 1291 C 117.565 -0.2019 -4.4284 0
M  V30 1292 H 114.785 -0.183215 -0.645502 0
M  V30 1293 H 117.329 -1.1455 -1.69407 0
M  V30 1294 H 115.484 0.0443159 -3.87375 0
M  V30 1295 H 115.898 -1.92871 -4.87751 0
M  V30 1296 H 117.372 -0.339599 -5.50954 0
M  V30 1297 H 117.849 0.857224 -4.30753 0
M  V30 1298 H 118.455 -0.809733 -4.17521 0
M  V30 1299 N 116.77 1.45427 -0.607355 0
M  V30 1300 C 118.186 1.57283 -0.270985 0
M  V30 1301 C 118.386 1.59875 1.22647 0
M  V30 1302 O 117.442 1.52893 2.00948 0
M  V30 1303 C 118.755 2.85566 -0.941952 0
M  V30 1304 C 120.303 2.9924 -0.917849 0
M  V30 1305 C 120.778 4.30293 -1.56882 0
M  V30 1306 N 122.269 4.37051 -1.5343 0
M  V30 1307 C 123.004 5.37123 -2.00715 0
M  V30 1308 N 122.5 6.43734 -2.56084 0
M  V30 1309 N 124.293 5.28479 -1.91484 0
M  V30 1310 H 116.444 1.41988 -1.57966 0
M  V30 1311 H 118.707 0.67885 -0.661715 0
M  V30 1312 H 118.413 2.8955 -1.99633 0
M  V30 1313 H 118.287 3.74322 -0.465096 0
M  V30 1314 H 120.674 2.94822 0.127984 0
M  V30 1315 H 120.755 2.11895 -1.43297 0
M  V30 1316 H 120.399 4.35469 -2.61398 0
M  V30 1317 H 120.329 5.16454 -1.02873 0
M  V30 1318 H 122.82 3.60615 -1.12982 0
M  V30 1319 H 123.133 7.16341 -2.89958 0
M  V30 1320 H 121.478 6.44485 -2.60122 0
M  V30 1321 H 124.669 4.44098 -1.47967 0
M  V30 1322 H 124.842 6.0632 -2.28648 0
M  V30 1323 N 118.248 0.346503 1.53744 0
M  V30 1324 C 119.198 -0.524953 2.21874 0
M  V30 1325 C 120.182 -1.06376 1.20718 0
M  V30 1326 O 121.374 -0.996972 1.46251 0
M  V30 1327 C 118.503 -1.6739 2.99726 0
M  V30 1328 C 117.589 -1.14888 4.08242 0
M  V30 1329 N 117.98 -0.345329 5.0462 0
M  V30 1330 C 116.278 -1.4255 4.22606 0
M  V30 1331 C 116.979 -0.0600706 5.81669 0
M  V30 1332 N 115.955 -0.65252 5.39669 0
M  V30 1333 H 119.757 0.0960091 2.93743 0
M  V30 1334 H 117.271 0.15352 1.61673 0
M  V30 1335 H 119.268 -2.3102 3.47038 0
M  V30 1336 H 117.928 -2.29811 2.29384 0
M  V30 1337 H 118.939 0.0138439 5.17898 0
M  V30 1338 H 115.616 -2.05389 3.63486 0
M  V30 1339 H 117.006 0.588321 6.69319 0
M  V30 1340 N 119.726 -1.57421 0.075193 0
M  V30 1341 C 120.673 -2.12915 -0.890843 0
M  V30 1342 C 121.643 -1.04252 -1.29309 0
M  V30 1343 O 122.828 -1.31933 -1.37834 0
M  V30 1344 C 119.968 -2.69795 -2.15186 0
M  V30 1345 C 119.081 -3.92624 -1.80194 0
M  V30 1346 C 118.216 -4.37736 -3.00933 0
M  V30 1347 C 117.255 -5.53205 -2.61974 0
M  V30 1348 N 116.392 -5.9326 -3.75483 0
M  V30 1349 H 121.232 -2.95156 -0.410735 0
M  V30 1350 H 118.769 -1.45854 -0.191086 0
M  V30 1351 H 120.727 -3.00883 -2.89008 0
M  V30 1352 H 119.357 -1.90313 -2.60731 0
M  V30 1353 H 118.409 -3.67977 -0.964218 0
M  V30 1354 H 119.721 -4.76482 -1.47534 0
M  V30 1355 H 118.875 -4.70503 -3.8303 0
M  V30 1356 H 117.614 -3.52739 -3.36789 0
M  V30 1357 H 116.619 -5.20086 -1.783 0
M  V30 1358 H 117.844 -6.39936 -2.27284 0
M  V30 1359 H 115.79 -5.11212 -4.11094 0
M  V30 1360 H 115.707 -6.71865 -3.46602 0
M  V30 1361 H 116.975 -6.30651 -4.58148 0
M  V30 1362 N 121.204 0.198386 -1.56346 0
M  V30 1363 C 122.45 0.920648 -1.80698 0
M  V30 1364 C 122.783 1.83045 -0.648697 0
M  V30 1365 O 122.058 1.91308 0.350925 0
M  V30 1366 C 122.341 1.73971 -3.15287 0
M  V30 1367 C 122.194 0.85485 -4.41602 0
M  V30 1368 C 123.513 2.71296 -3.46535 0
M  V30 1369 H 120.632 0.333261 -0.657348 0
M  V30 1370 H 123.274 0.188198 -1.89066 0
M  V30 1371 H 121.424 2.36416 -3.08285 0
M  V30 1372 H 123.096 0.245362 -4.60647 0
M  V30 1373 H 121.339 0.161398 -4.335 0
M  V30 1374 H 122.01 1.46286 -5.32264 0
M  V30 1375 H 124.486 2.18983 -3.53816 0
M  V30 1376 H 123.362 3.2569 -4.41834 0
M  V30 1377 H 123.623 3.5018 -2.69864 0
M  V30 1378 N 122.682 1.50554 0.465978 0
M  V30 1379 C 123.612 1.72722 1.57128 0
M  V30 1380 C 124.593 0.576294 1.6004 0
M  V30 1381 O 125.778 0.81598 1.76225 0
M  V30 1382 C 122.908 1.82605 2.95419 0
M  V30 1383 C 121.862 2.97835 3.07373 0
M  V30 1384 C 121.188 2.92867 4.47363 0
M  V30 1385 C 122.488 4.38265 2.84114 0
M  V30 1386 H 124.182 2.65267 1.38829 0
M  V30 1387 H 121.728 1.2765 0.666441 0
M  V30 1388 H 123.681 1.96698 3.72677 0
M  V30 1389 H 122.405 0.866858 3.14886 0
M  V30 1390 H 121.064 2.83401 2.3255 0
M  V30 1391 H 120.712 1.94783 4.63755 0
M  V30 1392 H 120.412 3.70227 4.56296 0
M  V30 1393 H 121.936 3.09015 5.26633 0
M  V30 1394 H 123.35 4.53198 3.51118 0
M  V30 1395 H 121.747 5.17115 3.04487 0
M  V30 1396 H 122.817 4.50281 1.7993 0
M  V30 1397 N 124.16 -0.719506 1.40217 0
M  V30 1398 C 125.409 -1.47486 1.37589 0
M  V30 1399 C 125.722 -1.9559 -0.0201568 0
M  V30 1400 O 126.928 -2.70973 -0.169049 0
M  V30 1401 C 125.384 -2.66575 2.41796 0
M  V30 1402 C 124.992 -2.25358 3.87192 0
M  V30 1403 C 126.736 -3.4433 2.48269 0
M  V30 1404 C 124.643 -3.41262 4.83005 0
M  V30 1405 H 123.573 -0.553901 0.511576 0
M  V30 1406 H 126.224 -0.783427 1.65936 0
M  V30 1407 H 124.606 -3.3787 2.06543 0
M  V30 1408 H 125.78 -1.61509 4.31569 0
M  V30 1409 H 124.095 -1.60657 3.84159 0
M  V30 1410 H 126.692 -4.30569 3.17041 0
M  V30 1411 H 127.035 -3.87872 1.51198 0
M  V30 1412 H 127.568 -2.80076 2.82493 0
M  V30 1413 H 124.307 -3.02755 5.81394 0
M  V30 1414 H 123.827 -4.0404 4.43297 0
M  V30 1415 H 125.506 -4.07383 5.02641 0
M  V30 1416 N 125.638 -1.25649 -0.95132 0
M  V30 1417 C 126.571 -1.00644 -2.04807 0
M  V30 1418 C 127.549 0.0654271 -1.62468 0
M  V30 1419 O 128.733 -0.074911 -1.88351 0
M  V30 1420 C 125.86 -0.522052 -3.34653 0
M  V30 1421 C 124.906 -1.58495 -3.95957 0
M  V30 1422 S 125.739 -3.17108 -4.31512 0
M  V30 1423 C 126.895 -2.70412 -5.64471 0
M  V30 1424 H 127.128 -1.93508 -2.25703 0
M  V30 1425 H 124.661 -1.09216 -1.09139 0
M  V30 1426 H 126.619 -0.24923 -4.09743 0
M  V30 1427 H 125.28 0.386146 -3.11717 0
M  V30 1428 H 124.473 -1.1968 -4.89584 0
M  V30 1429 H 124.075 -1.80862 -3.2736 0
M  V30 1430 H 126.367 -2.14245 -6.42733 0
M  V30 1431 H 127.31 -3.62693 -6.08161 0
M  V30 1432 H 127.718 -2.10302 -5.23864 0
M  V30 1433 N 127.117 1.15442 -1.07289 0
M  V30 1434 C 128.027 2.23786 -0.704057 0
M  V30 1435 C 129.043 1.7166 0.284413 0
M  V30 1436 O 130.219 2.00972 0.131205 0
M  V30 1437 C 127.284 3.46535 -0.106792 0
M  V30 1438 C 126.345 4.13654 -1.14842 0
M  V30 1439 C 125.578 5.30544 -0.57956 0
M  V30 1440 O 125.801 5.67187 0.604585 0
M  V30 1441 O 124.735 5.87154 -1.32414 0
M  V30 1442 H 128.561 2.57664 -1.60757 0
M  V30 1443 H 126.146 1.23152 -0.845803 0
M  V30 1444 H 128.028 4.20804 0.224048 0
M  V30 1445 H 126.703 3.14407 0.770049 0
M  V30 1446 H 125.61 3.4131 -1.5316 0
M  V30 1447 H 126.943 4.49861 -1.99714 0
M  V30 1448 N 128.595 0.856903 1.32268 0
M  V30 1449 C 129.842 0.461386 1.97174 0
M  V30 1450 C 130.17 -0.983491 1.67803 0
M  V30 1451 O 129.425 -1.70541 0.959903 0
M  V30 1452 C 129.724 0.649919 3.51441 0
M  V30 1453 C 129.39 2.0656 4.00804 0
M  V30 1454 C 128.052 2.45279 4.13995 0
M  V30 1455 C 130.404 2.98947 4.26943 0
M  V30 1456 C 127.732 3.75653 4.50668 0
M  V30 1457 C 130.084 4.28822 4.65075 0
M  V30 1458 C 128.748 4.67472 4.76472 0
M  V30 1459 H 128.018 0.168833 0.72151 0
M  V30 1460 H 130.665 1.08739 1.57633 0
M  V30 1461 H 128.97 -0.0593018 3.91755 0
M  V30 1462 H 130.667 0.32391 3.9969 0
M  V30 1463 H 127.257 1.75495 3.91024 0
M  V30 1464 H 131.441 2.70265 4.16258 0
M  V30 1465 H 126.697 4.05379 4.57688 0
M  V30 1466 H 130.871 5.0047 4.84255 0
M  V30 1467 H 128.498 5.68539 5.04646 0
M  V30 1468 N 130.073 -1.45103 0.615059 0
M  V30 1469 C 131.313 -2.04069 0.116282 0
M  V30 1470 C 131.677 -1.4721 -1.2326 0
M  V30 1471 O 132.878 -1.97577 -1.82255 0
M  V30 1472 C 131.149 -3.57298 0.085482 0
M  V30 1473 S 132.708 -4.37394 -0.351015 0
M  V30 1474 H 129.526 -0.709006 0.0532183 0
M  V30 1475 H 132.128 -1.77709 0.81484 0
M  V30 1476 H 130.832 -3.9619 1.0706 0
M  V30 1477 H 130.363 -3.88244 -0.634835 0
M  V30 1478 H 132.378 -4.69734 -1.59889 0
M  V30 1479 N 131.551 -0.354651 -1.53558 0
M  V30 1480 C 132.962 0.126902 -1.86268 0
M  V30 1481 C 133.313 1.49075 -1.27558 0
M  V30 1482 O 132.438 2.08105 -0.5934 0
M  V30 1483 C 133.033 0.237046 -3.3797 0
M  V30 1484 C 131.592 0.662842 -3.70518 0
M  V30 1485 C 130.739 -0.196652 -2.76602 0
M  V30 1486 H 133.69 -0.573849 -1.47962 0
M  V30 1487 H 133.711 1.06259 -3.65362 0
M  V30 1488 H 133.223 -0.755725 -3.80671 0
M  V30 1489 H 131.324 1.66424 -3.33367 0
M  V30 1490 H 131.437 0.445034 -4.77029 0
M  V30 1491 H 129.801 0.332763 -2.52517 0
M  V30 1492 H 130.584 -1.18676 -3.22135 0
M  V30 1493 N 133.029 1.57378 -0.0835403 0
M  V30 1494 C 134.269 1.95808 0.586381 0
M  V30 1495 C 134.633 0.963706 1.66062 0
M  V30 1496 O 135.834 1.23608 2.38693 0
M  V30 1497 C 134.105 3.38808 1.13771 0
M  V30 1498 S 135.664 3.99225 1.82112 0
M  V30 1499 H 132.482 0.684675 0.191679 0
M  V30 1500 H 135.084 1.94843 -0.160194 0
M  V30 1501 H 133.788 4.08954 0.344197 0
M  V30 1502 H 133.319 3.43344 1.92038 0
M  V30 1503 H 135.334 3.87087 3.10449 0
M  V30 1504 N 134.507 -0.190092 1.56449 0
M  V30 1505 C 135.755 -0.907908 1.80559 0
M  V30 1506 C 136.076 -1.83583 0.657438 0
M  V30 1507 O 135.346 -1.93203 -0.323924 0
M  V30 1508 H 133.926 -0.338247 0.666032 0
M  V30 1509 H 136.588 -0.194403 1.93928 0
M  V30 1510 H 135.684 -1.49604 2.73907 0
M  V30 1511 N 135.985 -1.50799 -0.457987 0
M  V30 1512 C 137.21 -1.66496 -1.23668 0
M  V30 1513 C 137.635 -0.353288 -1.84752 0
M  V30 1514 O 136.993 0.684346 -1.67888 0
M  V30 1515 C 137.041 -2.76763 -2.3116 0
M  V30 1516 O 136.145 -2.38928 -3.36136 0
M  V30 1517 H 135.486 -0.555828 -0.363252 0
M  V30 1518 H 138.016 -1.9725 -0.543474 0
M  V30 1519 H 138.026 -3.00232 -2.76269 0
M  V30 1520 H 136.701 -3.71954 -1.86073 0
M  V30 1521 H 135.278 -2.25953 -2.96647 0
M  V30 1522 N 137.463 0.71206 -1.40597 0
M  V30 1523 C 138.393 1.83889 -1.43899 0
M  V30 1524 C 139.374 1.67442 -0.299504 0
M  V30 1525 O 140.559 1.87421 -0.508624 0
M  V30 1526 C 137.689 3.21877 -1.30431 0
M  V30 1527 C 136.643 3.53002 -2.42019 0
M  V30 1528 C 135.969 4.90172 -2.13626 0
M  V30 1529 C 137.269 3.53643 -3.84362 0
M  V30 1530 H 138.963 1.81383 -2.38203 0
M  V30 1531 H 136.509 0.871237 -1.14654 0
M  V30 1532 H 138.462 4.00404 -1.31357 0
M  V30 1533 H 137.186 3.24968 -0.326049 0
M  V30 1534 H 135.845 2.76818 -2.40349 0
M  V30 1535 H 135.493 4.89869 -1.14182 0
M  V30 1536 H 135.193 5.11962 -2.88389 0
M  V30 1537 H 136.717 5.71028 -2.1624 0
M  V30 1538 H 138.131 4.22203 -3.87837 0
M  V30 1539 H 136.528 3.86961 -4.58673 0
M  V30 1540 H 137.598 2.52954 -4.13693 0
M  V30 1541 N 138.941 1.26152 0.944643 0
M  V30 1542 C 140.171 1.14094 1.72239 0
M  V30 1543 C 140.579 -0.306931 1.86694 0
M  V30 1544 O 139.922 -1.22222 1.3714 0
M  V30 1545 C 139.984 1.73316 3.14963 0
M  V30 1546 C 139.648 3.2239 3.23904 0
M  V30 1547 C 140.645 4.19252 3.07447 0
M  V30 1548 C 138.33 3.62788 3.47405 0
M  V30 1549 C 140.324 5.54491 3.14353 0
M  V30 1550 C 138.011 4.98162 3.53947 0
M  V30 1551 C 139.009 5.93823 3.37436 0
M  V30 1552 O 138.697 7.26732 3.43679 0
M  V30 1553 H 138.429 0.398292 0.546205 0
M  V30 1554 H 140.983 1.67201 1.19301 0
M  V30 1555 H 139.213 1.14667 3.69308 0
M  V30 1556 H 140.902 1.56214 3.74636 0
M  V30 1557 H 141.668 3.8938 2.8915 0
M  V30 1558 H 137.547 2.88816 3.59313 0
M  V30 1559 H 141.091 6.29137 3.01384 0
M  V30 1560 H 136.988 5.27695 3.71763 0
M  V30 1561 H 137.756 7.3496 3.60245 0
M  V30 1562 N 140.419 -1.14872 1.07899 0
M  V30 1563 C 141.647 -1.89661 0.82683 0
M  V30 1564 C 142.062 -1.78312 -0.620519 0
M  V30 1565 O 141.419 -1.13888 -1.42604 0
M  V30 1566 C 141.47 -3.39817 1.23316 0
M  V30 1567 O 141.191 -3.50845 2.62372 0
M  V30 1568 C 142.692 -4.31615 1.0111 0
M  V30 1569 H 139.912 -0.60092 0.298557 0
M  V30 1570 H 142.456 -1.4551 1.43691 0
M  V30 1571 H 140.611 -3.8161 0.667286 0
M  V30 1572 H 141.025 -4.44076 2.79101 0
M  V30 1573 H 142.499 -5.35367 1.34486 0
M  V30 1574 H 142.976 -4.39169 -0.0522168 0
M  V30 1575 H 143.582 -3.95572 1.56215 0
M  V30 1576 N 141.898 -0.863906 -1.31812 0
M  V30 1577 C 143.144 -0.472535 -1.97218 0
M  V30 1578 C 143.477 0.971394 -1.68159 0
M  V30 1579 O 142.752 1.68309 -0.974798 0
M  V30 1580 C 143.035 -0.723054 -3.52766 0
M  V30 1581 C 142.888 -2.21608 -3.91421 0
M  V30 1582 C 144.207 -0.185522 -4.39709 0
M  V30 1583 H 141.326 -0.173158 -0.71637 0
M  V30 1584 H 143.968 -1.08403 -1.56041 0
M  V30 1585 H 142.118 -0.202577 -3.87971 0
M  V30 1586 H 143.79 -2.80334 -3.66347 0
M  V30 1587 H 142.033 -2.691 -3.40246 0
M  V30 1588 H 142.704 -2.34203 -4.99853 0
M  V30 1589 H 145.18 -0.630726 -4.11292 0
M  V30 1590 H 144.056 -0.390306 -5.47511 0
M  V30 1591 H 144.317 0.912229 -4.32586 0
M  V30 1592 N 143.376 1.44774 -0.622745 0
M  V30 1593 C 144.306 2.33382 0.0741861 0
M  V30 1594 C 145.287 1.47719 0.843387 0
M  V30 1595 O 146.472 1.76458 0.810934 0
M  V30 1596 C 143.602 3.30663 1.06204 0
M  V30 1597 C 142.556 4.26079 0.405037 0
M  V30 1598 C 141.882 5.13165 1.5022 0
M  V30 1599 C 143.182 5.1781 -0.683414 0
M  V30 1600 H 144.876 2.91905 -0.665713 0
M  V30 1601 H 142.422 1.40363 -0.321587 0
M  V30 1602 H 144.375 3.9153 1.55827 0
M  V30 1603 H 143.099 2.70331 1.83272 0
M  V30 1604 H 141.758 3.66532 -0.0704683 0
M  V30 1605 H 141.406 4.49191 2.26355 0
M  V30 1606 H 141.106 5.77812 1.06803 0
M  V30 1607 H 142.63 5.76902 2.00041 0
M  V30 1608 H 144.044 5.72661 -0.270631 0
M  V30 1609 H 142.441 5.91015 -1.04023 0
M  V30 1610 H 143.511 4.59326 -1.55395 0
M  V30 1611 N 144.854 0.36279 1.53368 0
M  V30 1612 C 145.764 -0.492994 2.29362 0
M  V30 1613 C 146.78 -1.09507 1.35219 0
M  V30 1614 O 147.956 -1.10662 1.68273 0
M  V30 1615 C 145.021 -1.61855 3.066 0
M  V30 1616 C 144.082 -1.04429 4.16405 0
M  V30 1617 C 143.315 -2.11621 4.89951 0
M  V30 1618 O 143.538 -3.32684 4.63333 0
M  V30 1619 O 142.472 -1.74835 5.75948 0
M  V30 1620 H 146.298 0.125331 3.03441 0
M  V30 1621 H 143.883 0.127253 1.48857 0
M  V30 1622 H 145.765 -2.27302 3.54841 0
M  V30 1623 H 144.44 -2.22233 2.3536 0
M  V30 1624 H 143.347 -0.353819 3.72423 0
M  V30 1625 H 144.68 -0.485113 4.89804 0
M  V30 1626 N 146.332 -1.57332 0.0918853 0
M  V30 1627 C 147.242 -2.17368 -0.882505 0
M  V30 1628 C 148.258 -1.14226 -1.31257 0
M  V30 1629 O 149.434 -1.46582 -1.38115 0
M  V30 1630 C 146.499 -2.73962 -2.12476 0
M  V30 1631 C 145.56 -3.92048 -1.7492 0
M  V30 1632 C 144.793 -4.45933 -2.93223 0
M  V30 1633 O 145.016 -3.98764 -4.07852 0
M  V30 1634 O 143.95 -5.36999 -2.71875 0
M  V30 1635 H 147.776 -3.01031 -0.40172 0
M  V30 1636 H 145.361 -1.48813 -0.132291 0
M  V30 1637 H 147.243 -3.10147 -2.85283 0
M  V30 1638 H 145.918 -1.93347 -2.59613 0
M  V30 1639 H 144.825 -3.6068 -0.993025 0
M  V30 1640 H 146.158 -4.74017 -1.32548 0
M  V30 1641 N 147.81 0.181792 -1.56548 0
M  V30 1642 C 149.221 0.745244 -1.71181 0
M  V30 1643 C 149.572 1.83262 -0.70068 0
M  V30 1644 O 148.697 2.15946 0.140154 0
M  V30 1645 C 149.292 1.35859 -3.10367 0
M  V30 1646 C 147.851 1.86898 -3.2672 0
M  V30 1647 C 146.998 0.743942 -2.67134 0
M  V30 1648 H 149.949 -0.0434661 -1.5864 0
M  V30 1649 H 149.97 2.22817 -3.08436 0
M  V30 1650 H 149.482 0.566948 -3.83937 0
M  V30 1651 H 147.583 2.68738 -2.5809 0
M  V30 1652 H 147.696 2.02162 -4.34359 0
M  V30 1653 H 146.06 1.16169 -2.26665 0
M  V30 1654 H 146.843 -0.035676 -3.43281 0
M  V30 1655 N 149.288 1.51039 0.449983 0
M  V30 1656 C 150.513 1.6715 1.22783 0
M  V30 1657 C 150.938 0.363081 1.84563 0
M  V30 1658 O 150.296 -0.675433 1.68249 0
M  V30 1659 C 150.344 2.77985 2.29689 0
M  V30 1660 O 149.448 2.40707 3.34864 0
M  V30 1661 H 148.789 0.557746 0.360299 0
M  V30 1662 H 151.319 1.97535 0.533005 0
M  V30 1663 H 151.329 3.01693 2.74673 0
M  V30 1664 H 150.004 3.72935 1.84098 0
M  V30 1665 H 148.581 2.27523 2.95445 0
M  V30 1666 N 150.766 -0.704594 1.40972 0
M  V30 1667 C 151.714 -1.83994 1.42299 0
M  V30 1668 C 152.708 -1.66684 0.302111 0
M  V30 1669 O 153.914 -1.73655 0.473697 0
M  V30 1670 H 150.289 -0.606171 0.44504 0
M  V30 1671 H 152.26 -1.79992 2.38003 0
M  V30 1672 C 151.009 -3.21946 1.31323 0
M  V30 1673 H 150.332 -3.35878 2.16855 0
M  V30 1674 H 151.772 -4.01491 1.36311 0
M  V30 1675 C 150.231 -3.36891 0.0245977 0
M  V30 1676 O 150.761 -3.90687 -0.934153 0
M  V30 1677 N 148.967 -2.90559 -0.0485243 0
M  V30 1678 H 148.514 -2.46968 0.732419 0
M  V30 1679 H 148.472 -3.00937 -0.910171 0
M  V30 1680 N 152.244 -1.26651 -0.937939 0
M  V30 1681 C 153.207 -1.08546 -2.01867 0
M  V30 1682 C 154.207 -0.0327327 -1.60767 0
M  V30 1683 O 155.397 -0.276427 -1.71993 0
M  V30 1684 C 152.529 -0.651711 -3.34613 0
M  V30 1685 H 153.722 -2.04502 -2.1936 0
M  V30 1686 H 151.275 -1.09294 -1.11734 0
M  V30 1687 H 152.01 0.309696 -3.22818 0
M  V30 1688 H 151.795 -1.41189 -3.65798 0
M  V30 1689 H 153.285 -0.546973 -4.14002 0
M  V30 1690 N 153.722 1.14298 -1.08507 0
M  V30 1691 C 154.952 1.88945 -0.835663 0
M  V30 1692 C 155.36 1.78894 0.615928 0
M  V30 1693 O 154.703 1.1468 1.43506 0
M  V30 1694 C 154.765 3.39585 -1.17994 0
M  V30 1695 C 154.429 3.7342 -2.63451 0
M  V30 1696 C 155.426 3.73454 -3.61702 0
M  V30 1697 C 153.111 4.03368 -2.99332 0
M  V30 1698 C 155.105 4.02961 -4.93864 0
M  V30 1699 C 152.792 4.32538 -4.31687 0
M  V30 1700 C 153.79 4.32318 -5.28763 0
M  V30 1701 O 153.478 4.6078 -6.58739 0
M  V30 1702 H 153.21 0.605307 -0.300965 0
M  V30 1703 H 155.764 1.45673 -1.44806 0
M  V30 1704 H 153.994 3.83315 -0.51055 0
M  V30 1705 H 155.683 3.9554 -0.911182 0
M  V30 1706 H 156.449 3.50403 -3.35325 0
M  V30 1707 H 152.328 4.02692 -2.24411 0
M  V30 1708 H 155.872 4.02704 -5.69627 0
M  V30 1709 H 151.769 4.55059 -4.57812 0
M  V30 1710 H 152.537 4.78492 -6.64069 0
M  V30 1711 N 155.201 0.870884 1.31352 0
M  V30 1712 C 156.449 0.48132 1.96285 0
M  V30 1713 C 156.77 -0.969813 1.69173 0
M  V30 1714 O 156.04 -1.67998 1.00764 0
M  V30 1715 H 154.62 0.175002 0.726212 0
M  V30 1716 H 157.282 1.11087 1.60143 0
M  V30 1717 H 156.378 0.639825 3.05471 0
M  V30 1718 N 156.679 -1.44442 0.630414 0
M  V30 1719 C 157.609 -2.33418 -0.0618083 0
M  V30 1720 C 158.59 -1.48165 -0.835541 0
M  V30 1721 O 159.775 -1.76886 -0.801564 0
M  V30 1722 C 156.905 -3.31222 -1.04449 0
M  V30 1723 C 155.859 -4.26288 -0.382436 0
M  V30 1724 C 155.185 -5.13954 -1.47497 0
M  V30 1725 C 156.485 -5.1744 0.710865 0
M  V30 1726 H 158.179 -2.91548 0.681184 0
M  V30 1727 H 155.725 -1.40191 0.329026 0
M  V30 1728 H 157.678 -3.92351 -1.53748 0
M  V30 1729 H 156.402 -2.71299 -1.81836 0
M  V30 1730 H 155.061 -3.6649 0.0899054 0
M  V30 1731 H 154.709 -4.50385 -2.2397 0
M  V30 1732 H 154.409 -5.7837 -1.03737 0
M  V30 1733 H 155.933 -5.77955 -1.96979 0
M  V30 1734 H 157.347 -5.72509 0.300996 0
M  V30 1735 H 155.744 -5.90455 1.07156 0
M  V30 1736 H 156.814 -4.58496 1.57829 0
M  V30 1737 N 158.157 -0.370918 -1.53173 0
M  V30 1738 C 159.568 0.107139 -1.86392 0
M  V30 1739 C 159.919 1.47714 -1.29132 0
M  V30 1740 O 159.044 2.07464 -0.615439 0
M  V30 1741 C 159.639 0.201187 -3.38202 0
M  V30 1742 C 158.198 0.623507 -3.712 0
M  V30 1743 C 157.345 -0.225978 -2.76378 0
M  V30 1744 H 160.296 -0.58951 -1.47345 0
M  V30 1745 H 160.317 1.02377 -3.66468 0
M  V30 1746 H 159.829 -0.796058 -3.79848 0
M  V30 1747 H 157.93 1.62879 -3.35114 0
M  V30 1748 H 158.043 0.394414 -4.77474 0
M  V30 1749 H 156.407 0.305962 -2.52856 0
M  V30 1750 H 157.19 -1.22086 -3.20858 0
M  V30 1751 N 159.635 1.57281 -0.100228 0
M  V30 1752 C 160.545 2.17833 0.870965 0
M  V30 1753 C 161.561 1.14921 1.30649 0
M  V30 1754 O 162.737 1.47313 1.37335 0
M  V30 1755 C 159.802 2.75085 2.1102 0
M  V30 1756 C 158.863 3.9297 1.72838 0
M  V30 1757 C 158.096 4.47482 2.90854 0
M  V30 1758 O 158.319 4.00922 4.05731 0
M  V30 1759 O 157.253 5.38433 2.69023 0
M  V30 1760 H 161.079 3.0124 0.38575 0
M  V30 1761 H 158.664 1.48881 0.124397 0
M  V30 1762 H 160.546 3.11656 2.83634 0
M  V30 1763 H 159.221 1.94721 2.58584 0
M  V30 1764 H 158.128 3.61201 0.973883 0
M  V30 1765 H 159.461 4.74713 1.30033 0
M  V30 1766 N 161.113 -0.173488 1.56642 0
M  V30 1767 C 162.338 -0.910149 1.86363 0
M  V30 1768 C 162.763 -1.75132 0.686318 0
M  V30 1769 O 162.121 -1.77595 -0.364643 0
M  V30 1770 C 162.169 -1.76447 3.14482 0
M  V30 1771 O 161.273 -2.86584 2.96553 0
M  V30 1772 H 160.614 -0.255086 0.613047 0
M  V30 1773 H 163.144 -0.172283 2.03873 0
M  V30 1774 H 163.154 -2.16483 3.45831 0
M  V30 1775 H 161.829 -1.14658 3.99783 0
M  V30 1776 H 160.406 -2.50146 2.76553 0
M  V30 1777 N 162.591 -1.51276 -0.441967 0
M  V30 1778 C 163.501 -1.75092 -1.56141 0
M  V30 1779 C 164.517 -0.634963 -1.62001 0
M  V30 1780 O 165.693 -0.916686 -1.79329 0
M  V30 1781 C 162.758 -1.86666 -2.92158 0
M  V30 1782 C 161.819 -3.10506 -2.96453 0
M  V30 1783 C 161.052 -3.21519 -4.25982 0
M  V30 1784 O 161.275 -2.38586 -5.18105 0
M  V30 1785 O 160.209 -4.14465 -4.36466 0
M  V30 1786 H 164.035 -2.70044 -1.38961 0
M  V30 1787 H 161.62 -1.35722 -0.624499 0
M  V30 1788 H 163.502 -1.96292 -3.72891 0
M  V30 1789 H 162.177 -0.949014 -3.09476 0
M  V30 1790 H 161.084 -3.06363 -2.14692 0
M  V30 1791 H 162.417 -4.01945 -2.84079 0
M  V30 1792 N 164.069 0.697108 -1.41344 0
M  V30 1793 C 165.316 1.45714 -1.40619 0
M  V30 1794 C 165.644 1.94494 -0.0147907 0
M  V30 1795 O 164.899 1.69794 0.973066 0
M  V30 1796 C 165.198 2.68553 -2.35826 0
M  V30 1797 C 164.864 2.38438 -3.82698 0
M  V30 1798 C 163.526 2.29936 -4.22709 0
M  V30 1799 C 165.878 2.13567 -4.75435 0
M  V30 1800 C 163.206 1.94656 -5.53467 0
M  V30 1801 C 165.558 1.79797 -6.06511 0
M  V30 1802 C 164.222 1.69789 -6.45545 0
M  V30 1803 H 163.492 0.533206 -0.51456 0
M  V30 1804 H 166.139 0.796901 -1.74131 0
M  V30 1805 H 164.444 3.39503 -1.95563 0
M  V30 1806 H 166.141 3.2669 -2.32539 0
M  V30 1807 H 162.731 2.4595 -3.51008 0
M  V30 1808 H 166.915 2.19082 -4.45328 0
M  V30 1809 H 162.171 1.8546 -5.82593 0
M  V30 1810 H 166.345 1.59572 -6.77872 0
M  V30 1811 H 163.972 1.4222 -7.46778 0
M  V30 1812 N 165.547 1.27147 0.931209 0
M  V30 1813 C 166.477 1.12081 2.04842 0
M  V30 1814 C 167.458 0.0232364 1.70084 0
M  V30 1815 O 168.643 0.197085 1.93197 0
M  V30 1816 C 165.773 0.76354 3.38803 0
M  V30 1817 C 164.727 1.81396 3.87659 0
M  V30 1818 C 164.053 1.31075 5.18385 0
M  V30 1819 C 165.353 3.21739 4.11438 0
M  V30 1820 H 167.047 2.05537 2.17703 0
M  V30 1821 H 164.593 0.989603 1.04608 0
M  V30 1822 H 166.546 0.644982 4.16435 0
M  V30 1823 H 165.27 -0.206727 3.25945 0
M  V30 1824 H 163.929 1.92136 3.12217 0
M  V30 1825 H 163.577 0.330037 5.01916 0
M  V30 1826 H 163.277 2.013 5.52044 0
M  V30 1827 H 164.801 1.20506 5.98591 0
M  V30 1828 H 166.215 3.14019 4.79651 0
M  V30 1829 H 164.612 3.89644 4.56397 0
M  V30 1830 H 165.682 3.67054 3.16859 0
M  V30 1831 N 167.025 -1.13721 1.09112 0
M  V30 1832 C 168.274 -1.84275 0.82009 0
M  V30 1833 C 168.587 -1.84253 -0.656509 0
M  V30 1834 O 169.793 -2.50668 -1.04296 0
M  V30 1835 C 168.249 -3.30825 1.41714 0
M  V30 1836 C 167.857 -3.39244 2.92605 0
M  V30 1837 C 169.601 -4.06443 1.22492 0
M  V30 1838 C 167.508 -4.80047 3.45411 0
M  V30 1839 H 166.438 -0.690387 0.30312 0
M  V30 1840 H 169.089 -1.28146 1.31343 0
M  V30 1841 H 167.471 -3.86737 0.851498 0
M  V30 1842 H 168.645 -2.93344 3.55367 0
M  V30 1843 H 166.96 -2.77088 3.10823 0
M  V30 1844 H 169.557 -5.10387 1.59402 0
M  V30 1845 H 169.9 -4.15972 0.165299 0
M  V30 1846 H 170.433 -3.56852 1.75788 0
M  V30 1847 H 167.172 -4.75709 4.50978 0
M  V30 1848 H 166.692 -5.26455 2.87411 0
M  V30 1849 H 168.371 -5.48957 3.42425 0
M  V30 1850 N 168.503 -0.877838 -1.30888 0
M  V30 1851 C 169.749 -0.493426 -1.96706 0
M  V30 1852 C 170.082 0.953504 -1.6918 0
M  V30 1853 O 169.357 1.67266 -0.992594 0
M  V30 1854 C 169.64 -0.760429 -3.51979 0
M  V30 1855 C 169.493 -2.25747 -3.89048 0
M  V30 1856 C 170.812 -0.232148 -4.39487 0
M  V30 1857 H 167.931 -0.180746 -0.714493 0
M  V30 1858 H 170.573 -1.10052 -1.54882 0
M  V30 1859 H 168.723 -0.243715 -3.87735 0
M  V30 1860 H 170.395 -2.84204 -3.63354 0
M  V30 1861 H 168.638 -2.72694 -3.37373 0
M  V30 1862 H 169.309 -2.39491 -4.97341 0
M  V30 1863 H 171.785 -0.674314 -4.106 0
M  V30 1864 H 170.661 -0.448355 -5.47066 0
M  V30 1865 H 170.922 0.866297 -4.33529 0
M  V30 1866 N 169.982 1.44106 -0.638065 0
M  V30 1867 C 170.912 2.33448 0.0494287 0
M  V30 1868 C 171.893 1.48606 0.827672 0
M  V30 1869 O 173.078 1.77308 0.792173 0
M  V30 1870 C 170.208 3.31771 1.02691 0
M  V30 1871 C 169.162 4.26485 0.359823 0
M  V30 1872 C 168.488 5.14729 1.44769 0
M  V30 1873 C 169.788 5.17056 -0.738296 0
M  V30 1874 H 171.482 2.91183 -0.696636 0
M  V30 1875 H 169.028 1.40014 -0.336456 0
M  V30 1876 H 170.981 3.93161 1.51666 0
M  V30 1877 H 169.705 2.7226 1.80395 0
M  V30 1878 H 168.364 3.66437 -0.10934 0
M  V30 1879 H 168.012 4.51566 2.21578 0
M  V30 1880 H 167.712 5.78913 1.00668 0
M  V30 1881 H 169.236 5.78991 1.93911 0
M  V30 1882 H 170.65 5.72342 -0.331354 0
M  V30 1883 H 169.047 5.89879 -1.10286 0
M  V30 1884 H 170.117 4.57652 -1.60258 0
M  V30 1885 N 171.46 0.379036 1.52974 0
M  V30 1886 C 172.876 0.0285448 1.59574 0
M  V30 1887 C 173.076 -1.45542 1.39355 0
M  V30 1888 O 172.132 -2.2187 1.20541 0
M  V30 1889 C 173.445 0.496535 2.96572 0
M  V30 1890 C 174.993 0.451909 3.0972 0
M  V30 1891 C 175.468 0.895924 4.49152 0
M  V30 1892 N 176.959 0.851522 4.55306 0
M  V30 1893 C 177.694 1.16661 5.61407 0
M  V30 1894 N 177.19 1.55166 6.752 0
M  V30 1895 N 178.983 1.08853 5.51459 0
M  V30 1896 H 171.134 1.34525 1.64367 0
M  V30 1897 H 173.397 0.550733 0.771619 0
M  V30 1898 H 173.103 1.53258 3.16552 0
M  V30 1899 H 172.977 -0.109802 3.7704 0
M  V30 1900 H 175.364 -0.575029 2.89443 0
M  V30 1901 H 175.445 1.09392 2.3123 0
M  V30 1902 H 175.089 1.92104 4.70168 0
M  V30 1903 H 175.019 0.23103 5.26093 0
M  V30 1904 H 177.51 0.568038 3.73606 0
M  V30 1905 H 177.823 1.776 7.52116 0
M  V30 1906 H 176.168 1.59044 6.76557 0
M  V30 1907 H 179.359 0.786803 4.6144 0
M  V30 1908 H 179.532 1.33742 6.34048 0
M  V30 1909 N 172.938 -1.57226 0.108567 0
M  V30 1910 C 174.215 -1.86333 -0.594939 0
M  V30 1911 C 174.595 -1.00788 -1.85486 0
M  V30 1912 O 173.943 -0.0839293 -2.28346 0
M  V30 1913 C 174.153 -3.37265 -0.897405 0
M  V30 1914 C 175.501 -4.05629 -1.25501 0
M  V30 1915 O 176.525 -3.42224 -0.987998 0
M  V30 1916 O 175.384 -5.17531 -1.75567 0
M  V30 1917 H 172.478 -0.771018 -0.2991 0
M  V30 1918 H 175.024 -1.69102 0.142283 0
M  V30 1919 H 173.796 -3.913 -0.00413806 0
M  V30 1920 H 173.419 -3.59889 -1.69014 0
M  V30 1921 N 174.416 0.165178 -1.56732 0
M  V30 1922 C 175.662 0.882112 -1.82611 0
M  V30 1923 C 175.995 1.81628 -0.687378 0
M  V30 1924 O 175.27 1.92009 0.310267 0
M  V30 1925 C 175.553 1.67245 -3.18906 0
M  V30 1926 C 175.406 0.760987 -4.43316 0
M  V30 1927 C 176.725 2.63884 -3.52212 0
M  V30 1928 H 173.844 0.319242 -0.664269 0
M  V30 1929 H 176.486 0.148052 -1.89422 0
M  V30 1930 H 174.636 2.29824 -3.1323 0
M  V30 1931 H 176.308 0.147596 -4.61064 0
M  V30 1932 H 174.551 0.0694102 -4.33744 0
M  V30 1933 H 175.222 1.34962 -5.35247 0
M  V30 1934 H 177.698 2.11429 -3.58381 0
M  V30 1935 H 176.574 3.16245 -4.48643 0
M  V30 1936 H 176.835 3.44377 -2.77231 0
M  V30 1937 N 175.894 1.51508 0.433938 0
M  V30 1938 C 177.14 1.64588 1.18484 0
M  V30 1939 C 177.473 0.362666 1.90784 0
M  V30 1940 O 176.748 -0.637892 1.83742 0
M  V30 1941 C 177.031 2.85149 2.19913 0
M  V30 1942 C 176.884 4.23456 1.51674 0
M  V30 1943 C 178.203 3.01227 3.20858 0
M  V30 1944 H 175.322 0.598994 0.429389 0
M  V30 1945 H 177.964 1.84002 0.473647 0
M  V30 1946 H 176.114 2.68729 2.80566 0
M  V30 1947 H 177.786 4.51552 0.943322 0
M  V30 1948 H 176.029 4.25998 0.819035 0
M  V30 1949 H 176.7 5.03812 2.2556 0
M  V30 1950 H 179.176 3.16382 2.70263 0
M  V30 1951 H 178.052 3.87141 3.89118 0
M  V30 1952 H 178.313 2.13447 3.8716 0
M  V30 1953 N 177.372 -0.689602 1.41712 0
M  V30 1954 C 178.62 -1.4468 1.4111 0
M  V30 1955 C 178.941 -1.94986 0.0232196 0
M  V30 1956 O 178.211 -1.72097 -0.935913 0
M  V30 1957 H 176.791 -0.536847 0.519427 0
M  V30 1958 H 179.453 -0.815825 1.77004 0
M  V30 1959 H 178.549 -2.30706 2.10193 0
M  V30 1960 N 178.85 -1.27639 -0.924453 0
M  V30 1961 C 180.098 -1.13941 -1.66918 0
M  V30 1962 C 180.419 0.314589 -1.92446 0
M  V30 1963 O 179.689 1.21964 -1.53303 0
M  V30 1964 H 178.269 -0.418678 -0.618642 0
M  V30 1965 H 180.931 -1.60213 -1.10985 0
M  V30 1966 H 180.027 -1.67094 -2.63602 0
M  V30 1967 N 180.328 1.1314 -1.09713 0
M  V30 1968 C 181.261 2.17735 -0.683137 0
M  V30 1969 C 182.239 1.59582 0.311841 0
M  V30 1970 O 183.423 1.87298 0.212514 0
M  V30 1971 C 180.55 3.38699 -0.00684324 0
M  V30 1972 C 179.596 4.1546 -0.964102 0
M  V30 1973 S 180.429 4.74733 -2.47767 0
M  V30 1974 C 181.585 5.9904 -1.81387 0
M  V30 1975 H 181.818 2.52515 -1.56918 0
M  V30 1976 H 179.351 1.24484 -0.913404 0
M  V30 1977 H 181.309 4.08765 0.377044 0
M  V30 1978 H 179.97 3.02214 0.85589 0
M  V30 1979 H 179.163 5.02093 -0.43803 0
M  V30 1980 H 178.765 3.51066 -1.28953 0
M  V30 1981 H 181.057 6.67846 -1.13967 0
M  V30 1982 H 182 6.56261 -2.65947 0
M  V30 1983 H 182.408 5.4976 -1.28155 0
M  V30 1984 N 181.806 0.884767 1.30421 0
M  V30 1985 C 182.754 0.340869 2.30089 0
M  V30 1986 C 183.748 -0.55201 1.60154 0
M  V30 1987 O 184.954 -0.436467 1.74628 0
M  V30 1988 H 181.329 0.0915739 0.746404 0
M  V30 1989 H 183.3 1.19513 2.73421 0
M  V30 1990 C 182.049 -0.429779 3.45034 0
M  V30 1991 H 181.372 0.248024 3.9903 0
M  V30 1992 H 182.812 -0.775445 4.16849 0
M  V30 1993 C 181.271 -1.62677 2.95022 0
M  V30 1994 O 181.801 -2.72614 2.95033 0
M  V30 1995 N 180.007 -1.46387 2.51036 0
M  V30 1996 H 179.554 -0.569506 2.51226 0
M  V30 1997 H 179.512 -2.26612 2.17932 0
M  V30 1998 N 183.284 -1.43765 0.645699 0
M  V30 1999 C 184.234 -2.27884 -0.0726442 0
M  V30 2000 C 185.218 -1.39483 -0.802086 0
M  V30 2001 O 186.41 -1.63174 -0.685791 0
M  V30 2002 C 183.539 -3.27055 -1.04356 0
M  V30 2003 C 182.625 -4.22944 -0.312985 0
M  V30 2004 N 183.016 -5.01391 0.666386 0
M  V30 2005 C 181.314 -4.42528 -0.55546 0
M  V30 2006 C 182.015 -5.71217 1.09935 0
M  V30 2007 N 180.991 -5.41856 0.435137 0
M  V30 2008 H 184.793 -2.85949 0.678988 0
M  V30 2009 H 182.307 -1.55378 0.472368 0
M  V30 2010 H 184.304 -3.86089 -1.57292 0
M  V30 2011 H 182.964 -2.70551 -1.79534 0
M  V30 2012 H 183.975 -5.07252 1.04481 0
M  V30 2013 H 180.652 -3.97104 -1.28899 0
M  V30 2014 H 182.042 -6.44202 1.90929 0
M  V30 2015 N 184.763 -0.387143 -1.52771 0
M  V30 2016 C 185.693 0.440551 -2.29306 0
M  V30 2017 C 186.674 1.06535 -1.32606 0
M  V30 2018 O 187.859 1.07853 -1.61497 0
M  V30 2019 C 184.989 1.56919 -3.09829 0
M  V30 2020 C 183.943 1.07054 -4.14395 0
M  V30 2021 C 183.269 2.29109 -4.83129 0
M  V30 2022 C 184.569 0.140015 -5.22112 0
M  V30 2023 H 186.263 -0.198026 -2.98744 0
M  V30 2024 H 183.809 -0.09668 -1.43675 0
M  V30 2025 H 185.762 2.15503 -3.62128 0
M  V30 2026 H 184.486 2.23532 -2.3812 0
M  V30 2027 H 183.145 0.507247 -3.63074 0
M  V30 2028 H 182.793 2.94227 -4.0797 0
M  V30 2029 H 182.493 1.96406 -5.53804 0
M  V30 2030 H 184.017 2.88339 -5.38231 0
M  V30 2031 H 185.431 0.633978 -5.69784 0
M  V30 2032 H 183.828 -0.0971485 -6.00021 0
M  V30 2033 H 184.898 -0.811711 -4.78058 0
M  V30 2034 N 186.241 1.57166 -0.116904 0
M  V30 2035 C 187.657 1.5779 0.239693 0
M  V30 2036 C 187.857 1.1295 1.66867 0
M  V30 2037 O 186.913 0.81592 2.38954 0
M  V30 2038 C 188.226 3.00699 0.00828202 0
M  V30 2039 C 189.774 3.12912 0.0743438 0
M  V30 2040 C 190.249 4.57817 -0.129348 0
M  V30 2041 N 191.74 4.63139 -0.075247 0
M  V30 2042 C 192.475 5.73023 -0.207788 0
M  V30 2043 N 191.971 6.91665 -0.396382 0
M  V30 2044 N 193.764 5.61906 -0.14751 0
M  V30 2045 H 185.915 1.84615 -1.05029 0
M  V30 2046 H 188.178 0.85311 -0.41341 0
M  V30 2047 H 187.884 3.37784 -0.979531 0
M  V30 2048 H 187.758 3.69848 0.741077 0
M  V30 2049 H 190.145 2.75686 1.05268 0
M  V30 2050 H 190.226 2.4631 -0.690297 0
M  V30 2051 H 189.87 4.95742 -1.10465 0
M  V30 2052 H 189.8 5.22507 0.655253 0
M  V30 2053 H 192.291 3.7784 0.0670898 0
M  V30 2054 H 192.604 7.71255 -0.488437 0
M  V30 2055 H 190.949 6.93654 -0.432329 0
M  V30 2056 H 194.14 4.681 -0.00115036 0
M  V30 2057 H 194.313 6.47501 -0.254247 0
M  V30 2058 N 187.719 -0.156864 1.56817 0
M  V30 2059 C 188.629 -1.2136 2.00771 0
M  V30 2060 C 189.645 -1.47598 0.921459 0
M  V30 2061 O 190.821 -1.59462 1.2302 0
M  V30 2062 C 187.886 -2.52943 2.37109 0
M  V30 2063 C 186.947 -2.34439 3.59634 0
M  V30 2064 C 186.18 -3.59748 3.94229 0
M  V30 2065 O 186.403 -4.65526 3.29609 0
M  V30 2066 O 185.337 -3.52998 4.8752 0
M  V30 2067 H 189.163 -0.870468 2.90958 0
M  V30 2068 H 186.748 -0.36484 1.44877 0
M  V30 2069 H 188.63 -3.30538 2.61386 0
M  V30 2070 H 187.305 -2.86806 1.5008 0
M  V30 2071 H 186.212 -1.54828 3.40557 0
M  V30 2072 H 187.545 -2.05496 4.4725 0
M  V30 2073 N 189.197 -1.51736 -0.425897 0
M  V30 2074 C 190.145 -1.74464 -1.53834 0
M  V30 2075 C 191.139 -0.611241 -1.57988 0
M  V30 2076 O 192.345 -0.792899 -1.61596 0
M  V30 2077 H 188.72 -0.551437 -0.511293 0
M  V30 2078 H 190.691 -2.67694 -1.31843 0
M  V30 2079 C 189.44 -1.8972 -2.91379 0
M  V30 2080 H 188.763 -2.76344 -2.88919 0
M  V30 2081 H 190.203 -2.09629 -3.68553 0
M  V30 2082 C 188.662 -0.65992 -3.30374 0
M  V30 2083 O 189.192 0.180083 -4.01296 0
M  V30 2084 N 187.398 -0.500677 -2.86254 0
M  V30 2085 H 186.945 -1.18532 -2.28709 0
M  V30 2086 H 186.903 0.325903 -3.12706 0
M  V30 2087 N 190.675 0.682077 -1.42076 0
M  V30 2088 C 191.923 1.4393 -1.41876 0
M  V30 2089 C 192.244 1.94971 -0.0335599 0
M  V30 2090 O 191.514 1.72591 0.926773 0
M  V30 2091 H 190.094 0.534085 -0.522267 0
M  V30 2092 H 192.756 0.806427 -1.77434 0
M  V30 2093 H 191.852 2.29588 -2.11414 0
M  V30 2094 N 192.153 1.28127 0.917671 0
M  V30 2095 C 193.402 1.14432 1.66097 0
M  V30 2096 C 193.715 -0.307247 1.93172 0
M  V30 2097 O 194.921 -0.565259 2.65551 0
M  V30 2098 C 193.377 2.00015 2.99202 0
M  V30 2099 C 192.985 3.49889 2.79789 0
M  V30 2100 C 194.729 1.94996 3.77064 0
M  V30 2101 C 192.636 4.27636 4.08511 0
M  V30 2102 H 191.566 0.424662 0.62304 0
M  V30 2103 H 194.217 1.52628 1.01868 0
M  V30 2104 H 192.599 1.54672 3.64544 0
M  V30 2105 H 193.773 4.03162 2.23152 0
M  V30 2106 H 192.088 3.56392 2.15345 0
M  V30 2107 H 194.685 2.50354 4.72469 0
M  V30 2108 H 195.028 0.925819 4.05875 0
M  V30 2109 H 195.561 2.38287 3.18534 0
M  V30 2110 H 192.3 5.30615 3.84874 0
M  V30 2111 H 191.82 3.79137 4.64774 0
M  V30 2112 H 193.499 4.37346 4.76799 0
M  V30 2113 N 193.631 -1.12557 1.10312 0
M  V30 2114 C 194.877 -1.84311 0.846011 0
M  V30 2115 C 195.21 -1.83805 -0.626859 0
M  V30 2116 O 194.485 -1.28268 -1.46211 0
M  V30 2117 C 194.768 -3.32048 1.39341 0
M  V30 2118 C 194.621 -3.41016 2.93305 0
M  V30 2119 C 195.94 -4.27764 1.03468 0
M  V30 2120 H 193.059 -0.669192 0.30879 0
M  V30 2121 H 195.701 -1.32057 1.36605 0
M  V30 2122 H 193.851 -3.76678 0.951087 0
M  V30 2123 H 195.523 -3.05031 3.46055 0
M  V30 2124 H 193.766 -2.81603 3.29973 0
M  V30 2125 H 194.437 -4.44948 3.26689 0
M  V30 2126 H 196.913 -3.91253 1.41633 0
M  V30 2127 H 195.789 -5.29549 1.44463 0
M  V30 2128 H 196.05 -4.42064 -0.0560404 0
M  V30 2129 N 195.109 -0.891671 -1.2995 0
M  V30 2130 C 196.059 -0.334811 -2.25528 0
M  V30 2131 C 197.043 0.540553 -1.51548 0
M  V30 2132 O 198.235 0.383882 -1.72787 0
M  V30 2133 C 195.364 0.44374 -3.4042 0
M  V30 2134 C 194.45 -0.44609 -4.21747 0
M  V30 2135 N 194.841 -1.54963 -4.81477 0
M  V30 2136 C 193.139 -0.242415 -4.45341 0
M  V30 2137 C 193.84 -2.10015 -5.42465 0
M  V30 2138 N 192.816 -1.39423 -5.25416 0
M  V30 2139 H 196.618 -1.17792 -2.69262 0
M  V30 2140 H 194.132 -0.741822 -1.44467 0
M  V30 2141 H 196.129 0.859362 -4.07947 0
M  V30 2142 H 194.789 1.28421 -2.98225 0
M  V30 2143 H 195.8 -1.93244 -4.80497 0
M  V30 2144 H 192.477 0.560342 -4.13723 0
M  V30 2145 H 193.867 -3.02724 -5.9984 0
M  V30 2146 N 196.587 1.43421 -0.653314 0
M  V30 2147 C 198.003 1.56341 -0.320886 0
M  V30 2148 C 198.203 1.63696 1.17499 0
M  V30 2149 O 197.259 1.59208 1.95982 0
M  V30 2150 C 198.572 2.82424 -1.03233 0
M  V30 2151 C 200.12 2.96168 -1.01259 0
M  V30 2152 C 200.595 4.25084 -1.70492 0
M  V30 2153 N 202.086 4.31948 -1.67257 0
M  V30 2154 C 202.821 5.30466 -2.17701 0
M  V30 2155 N 202.317 6.35261 -2.76434 0
M  V30 2156 N 204.11 5.2212 -2.082 0
M  V30 2157 H 196.261 1.3689 -1.62403 0
M  V30 2158 H 198.524 0.657455 -0.682977 0
M  V30 2159 H 198.23 2.83053 -2.08744 0
M  V30 2160 H 198.104 3.72653 -0.583948 0
M  V30 2161 H 200.491 2.9508 0.0341235 0
M  V30 2162 H 200.572 2.07229 -1.49966 0
M  V30 2163 H 200.216 4.26932 -2.7512 0
M  V30 2164 H 200.146 5.1292 -1.19251 0
M  V30 2165 H 202.637 3.56838 -1.24398 0
M  V30 2166 H 202.95 7.06754 -3.12601 0
M  V30 2167 H 201.295 6.35884 -2.80495 0
M  V30 2168 H 204.486 4.39166 -1.62021 0
M  V30 2169 H 204.659 5.98739 -2.47822 0
M  V30 2170 N 198.065 0.39524 1.52563 0
M  V30 2171 C 199.342 -0.242908 1.94086 0
M  V30 2172 C 199.722 -1.63841 1.33114 0
M  V30 2173 O 199.07 -2.22928 0.501529 0
M  V30 2174 C 199.28 -0.26327 3.48006 0
M  V30 2175 C 200.628 -0.489354 4.21771 0
M  V30 2176 O 201.652 -0.343226 3.54543 0
M  V30 2177 O 200.511 -0.776169 5.4096 0
M  V30 2178 H 197.605 -0.152536 0.812811 0
M  V30 2179 H 200.151 0.450178 1.6362 0
M  V30 2180 H 198.923 0.713985 3.84731 0
M  V30 2181 H 198.546 -1.00103 3.84792 0
M  V30 2182 N 199.544 -1.57102 0.125237 0
M  V30 2183 C 200.793 -1.94582 -0.531095 0
M  V30 2184 C 201.106 -1.01126 -1.6743 0
M  V30 2185 O 202.312 -1.28097 -2.39381 0
M  V30 2186 C 200.768 -3.45839 -0.996164 0
M  V30 2187 C 200.376 -4.47842 0.118926 0
M  V30 2188 C 202.12 -3.92227 -1.62352 0
M  V30 2189 C 200.027 -5.90284 -0.363192 0
M  V30 2190 H 198.957 -0.726391 -0.20217 0
M  V30 2191 H 201.608 -1.82339 0.206092 0
M  V30 2192 H 199.99 -3.53338 -1.78796 0
M  V30 2193 H 201.164 -4.52018 0.895358 0
M  V30 2194 H 199.479 -4.11243 0.653324 0
M  V30 2195 H 202.076 -4.96069 -1.99548 0
M  V30 2196 H 202.419 -3.32552 -2.50429 0
M  V30 2197 H 202.952 -3.87554 -0.897019 0
M  V30 2198 H 199.691 -6.53728 0.481679 0
M  V30 2199 H 199.211 -5.89515 -1.10597 0
M  V30 2200 H 200.89 -6.41752 -0.822377 0
M  V30 2201 N 201.022 0.148545 -1.56898 0
M  V30 2202 C 201.969 1.18345 -1.98149 0
M  V30 2203 C 202.939 1.42772 -0.848848 0
M  V30 2204 O 204.124 1.55132 -1.11079 0
M  V30 2205 C 201.264 2.51231 -2.36594 0
M  V30 2206 C 200.377 2.33991 -3.63142 0
M  V30 2207 C 199.512 3.59902 -3.90697 0
M  V30 2208 C 198.551 3.37692 -5.1052 0
M  V30 2209 N 197.688 4.5573 -5.34092 0
M  V30 2210 H 202.528 0.82467 -2.86362 0
M  V30 2211 H 200.065 0.395756 -1.41676 0
M  V30 2212 H 202.023 3.28713 -2.56912 0
M  V30 2213 H 200.653 2.85059 -1.51463 0
M  V30 2214 H 199.705 1.47572 -3.50609 0
M  V30 2215 H 201.017 2.13539 -4.5078 0
M  V30 2216 H 200.171 4.45813 -4.11505 0
M  V30 2217 H 198.91 3.83357 -3.01477 0
M  V30 2218 H 197.915 2.5017 -4.89587 0
M  V30 2219 H 199.14 3.15637 -6.0129 0
M  V30 2220 H 197.086 4.79361 -4.47827 0
M  V30 2221 H 197.003 4.38274 -6.15996 0
M  V30 2222 H 198.271 5.42858 -5.59397 0
M  V30 2223 N 202.5 1.5196 0.417844 0
M  V30 2224 C 203.911 1.57851 0.997 0
M  V30 2225 C 204.262 0.413714 1.91789 0
M  V30 2226 O 203.387 -0.467057 2.113 0
M  V30 2227 C 203.982 2.86085 1.81496 0
M  V30 2228 C 202.541 2.94483 2.34428 0
M  V30 2229 C 201.688 2.52707 1.14169 0
M  V30 2230 H 204.639 1.57455 0.198392 0
M  V30 2231 H 204.66 2.70947 2.67148 0
M  V30 2232 H 204.172 3.70842 1.14446 0
M  V30 2233 H 202.273 2.142 3.04875 0
M  V30 2234 H 202.386 3.98546 2.65891 0
M  V30 2235 H 200.75 2.06353 1.49301 0
M  V30 2236 H 201.533 3.39828 0.486999 0
M  V30 2237 N 203.978 -0.674533 1.42435 0
M  V30 2238 C 205.226 -1.43175 1.42637 0
M  V30 2239 C 205.547 -1.94951 0.0438992 0
M  V30 2240 O 204.817 -1.7308 -0.917607 0
M  V30 2241 H 203.397 -0.531307 0.525092 0
M  V30 2242 H 206.059 -0.797006 1.77859 0
M  V30 2243 H 205.155 -2.28463 2.12629 0
M  V30 2244 N 205.456 -1.28612 -0.910864 0
M  V30 2245 C 206.404 -1.1265 -2.03501 0
M  V30 2246 C 207.398 -0.0450054 -1.6934 0
M  V30 2247 O 208.604 -0.203988 -1.7884 0
M  V30 2248 H 204.979 -0.347639 -0.666822 0
M  V30 2249 H 206.95 -2.07849 -2.14106 0
M  V30 2250 C 205.699 -0.808143 -3.38178 0
M  V30 2251 H 205.022 -1.63231 -3.6496 0
M  V30 2252 H 206.462 -0.736426 -4.17556 0
M  V30 2253 C 204.921 0.488226 -3.33344 0
M  V30 2254 O 205.451 1.51766 -3.71927 0
M  V30 2255 N 203.657 0.490009 -2.86439 0
M  V30 2256 H 203.204 -0.348161 -2.55236 0
M  V30 2257 H 203.162 1.35741 -2.83587 0
M  V30 2258 N 206.934 1.1197 -1.10907 0
M  V30 2259 C 208.183 1.82947 -0.849302 0
M  V30 2260 C 208.496 1.85275 0.627112 0
M  V30 2261 O 209.702 2.52296 1.00295 0
M  V30 2262 C 208.158 3.28529 -1.46959 0
M  V30 2263 C 207.766 3.34546 -2.97965 0
M  V30 2264 C 209.51 4.04443 -1.28942 0
M  V30 2265 C 207.417 4.74491 -3.53004 0
M  V30 2266 H 206.347 0.685477 -0.314065 0
M  V30 2267 H 208.998 1.2604 -1.33365 0
M  V30 2268 H 207.38 3.85333 -0.912917 0
M  V30 2269 H 208.554 2.87654 -3.59989 0
M  V30 2270 H 206.869 2.72108 -3.15192 0
M  V30 2271 H 209.466 5.07787 -1.67502 0
M  V30 2272 H 209.809 4.15656 -0.231456 0
M  V30 2273 H 210.342 3.5401 -1.81443 0
M  V30 2274 H 207.081 4.68474 -4.58489 0
M  V30 2275 H 206.601 5.21816 -2.9575 0
M  V30 2276 H 208.28 5.4344 -3.51115 0
M  V30 2277 N 208.412 0.89855 1.29475 0
M  V30 2278 C 209.345 0.319981 2.25945 0
M  V30 2279 C 210.323 -0.567189 1.52387 0
M  V30 2280 O 211.507 -0.514254 1.8135 0
M  V30 2281 C 208.634 -0.544013 3.34303 0
M  V30 2282 C 207.68 0.275682 4.25608 0
M  V30 2283 S 208.513 1.67272 5.08704 0
M  V30 2284 C 209.669 0.815621 6.20563 0
M  V30 2285 H 209.902 1.13767 2.74671 0
M  V30 2286 H 207.435 0.69882 1.3768 0
M  V30 2287 H 209.393 -1.03673 3.97193 0
M  V30 2288 H 208.054 -1.33593 2.84274 0
M  V30 2289 H 207.247 -0.384263 5.02533 0
M  V30 2290 H 206.849 0.701496 3.67362 0
M  V30 2291 H 209.141 0.0385042 6.77489 0
M  V30 2292 H 210.084 1.55691 6.90772 0
M  V30 2293 H 210.492 0.370516 5.63283 0
M  V30 2294 N 209.89 -1.43072 0.660911 0
M  V30 2295 C 211.306 -1.56169 0.329173 0
M  V30 2296 C 211.506 -1.64317 -1.16629 0
M  V30 2297 O 210.562 -1.60245 -1.95135 0
M  V30 2298 C 211.875 -2.81873 1.04729 0
M  V30 2299 C 213.423 -2.95627 1.02828 0
M  V30 2300 C 213.898 -4.24174 1.72744 0
M  V30 2301 N 215.389 -4.31055 1.69545 0
M  V30 2302 C 216.124 -5.29304 2.20511 0
M  V30 2303 N 215.62 -6.33786 2.79799 0
M  V30 2304 N 217.413 -5.21008 2.10966 0
M  V30 2305 H 209.564 -1.36027 1.63127 0
M  V30 2306 H 211.827 -0.653823 0.686454 0
M  V30 2307 H 211.533 -2.81942 2.10242 0
M  V30 2308 H 211.407 -3.72338 0.603702 0
M  V30 2309 H 213.794 -2.95094 -0.0184742 0
M  V30 2310 H 213.875 -2.06431 1.51063 0
M  V30 2311 H 213.519 -4.25467 2.7738 0
M  V30 2312 H 213.449 -5.1228 1.2197 0
M  V30 2313 H 215.94 -3.56174 1.26288 0
M  V30 2314 H 216.253 -7.05086 3.16344 0
M  V30 2315 H 214.598 -6.34387 2.83863 0
M  V30 2316 H 217.789 -4.38301 1.64347 0
M  V30 2317 H 217.962 -5.97416 2.50993 0
M  V30 2318 N 211.368 -0.403325 -1.52352 0
M  V30 2319 C 212.614 0.174605 -2.02047 0
M  V30 2320 C 212.947 1.45282 -1.28867 0
M  V30 2321 O 212.222 1.90483 -0.393257 0
M  V30 2322 C 212.505 0.428238 -3.57545 0
M  V30 2323 C 212.358 -0.866248 -4.4138 0
M  V30 2324 C 213.677 1.21287 -4.23057 0
M  V30 2325 H 210.796 0.0619851 -0.734389 0
M  V30 2326 H 213.438 -0.53565 -1.82293 0
M  V30 2327 H 211.588 1.03327 -3.74507 0
M  V30 2328 H 213.26 -1.50265 -4.3614 0
M  V30 2329 H 211.503 -1.47851 -4.07827 0
M  V30 2330 H 212.174 -0.643249 -5.48239 0
M  V30 2331 H 214.65 0.700703 -4.10158 0
M  V30 2332 H 213.526 1.35909 -5.31808 0
M  V30 2333 H 213.787 2.23193 -3.81625 0
M  V30 2334 N 212.846 1.57033 -0.133567 0
M  V30 2335 C 214.095 1.94861 0.520768 0
M  V30 2336 C 214.408 1.02012 1.66892 0
M  V30 2337 O 215.614 1.29365 2.38699 0
M  V30 2338 C 214.07 3.46362 0.977809 0
M  V30 2339 C 213.678 4.47773 -0.142674 0
M  V30 2340 C 215.422 3.93083 1.60269 0
M  V30 2341 C 213.329 5.90468 0.331883 0
M  V30 2342 H 212.259 0.727453 0.198315 0
M  V30 2343 H 214.91 1.82227 -0.215759 0
M  V30 2344 H 213.292 3.54282 1.7692 0
M  V30 2345 H 214.466 4.51536 -0.919317 0
M  V30 2346 H 212.781 4.10891 -0.675124 0
M  V30 2347 H 215.378 4.97121 1.96914 0
M  V30 2348 H 215.721 3.33876 2.48662 0
M  V30 2349 H 216.254 3.88025 0.876453 0
M  V30 2350 H 212.993 6.53463 -0.516341 0
M  V30 2351 H 212.513 5.90094 1.07469 0
M  V30 2352 H 214.192 6.42179 0.788332 0
M  V30 2353 N 214.325 -0.140222 1.56975 0
M  V30 2354 C 215.573 -0.850005 1.83356 0
M  V30 2355 C 215.894 -1.81399 0.71551 0
M  V30 2356 O 215.164 -1.94136 -0.262294 0
M  V30 2357 H 213.744 -0.316886 0.676456 0
M  V30 2358 H 216.406 -0.132608 1.94448 0
M  V30 2359 H 215.502 -1.40814 2.78528 0
M  V30 2360 N 215.803 -1.52179 -0.40978 0
M  V30 2361 C 216.713 -1.78364 -1.52392 0
M  V30 2362 C 217.729 -0.669183 -1.60617 0
M  V30 2363 O 218.905 -0.954518 -1.77344 0
M  V30 2364 C 215.97 -1.92822 -2.88133 0
M  V30 2365 C 215.031 -3.16725 -2.898 0
M  V30 2366 C 214.264 -3.30483 -4.19067 0
M  V30 2367 O 214.487 -2.49522 -5.12928 0
M  V30 2368 O 213.421 -4.2363 -4.27576 0
M  V30 2369 H 217.247 -2.72931 -1.33201 0
M  V30 2370 H 214.832 -1.37016 -0.59557 0
M  V30 2371 H 216.714 -2.04157 -3.68643 0
M  V30 2372 H 215.389 -1.01444 -3.07393 0
M  V30 2373 H 214.296 -3.10848 -2.08146 0
M  V30 2374 H 215.629 -4.07881 -2.75489 0
M  V30 2375 N 217.281 0.66697 -1.42791 0
M  V30 2376 C 218.558 1.4234 -1.34159 0
M  V30 2377 C 218.938 2.11093 0.0172729 0
M  V30 2378 O 218.286 2.03808 1.03318 0
M  V30 2379 C 218.496 2.41942 -2.51526 0
M  V30 2380 C 219.844 3.06353 -2.93995 0
M  V30 2381 O 220.868 2.52269 -2.51473 0
M  V30 2382 O 219.727 4.04376 -3.67617 0
M  V30 2383 H 216.821 0.635277 -0.529483 0
M  V30 2384 H 219.367 0.695034 -1.54814 0
M  V30 2385 H 218.139 1.89991 -3.42081 0
M  V30 2386 H 217.762 3.22249 -2.32898 0
M  V30 2387 N 218.759 1.29093 0.90403 0
M  V30 2388 C 220.007 1.16583 1.65085 0
M  V30 2389 C 220.328 -0.283933 1.92922 0
M  V30 2390 O 219.598 -1.19509 1.55224 0
M  V30 2391 H 218.178 0.428467 0.611903 0
M  V30 2392 H 220.84 1.61959 1.08422 0
M  V30 2393 H 219.936 1.71266 2.6091 0
M  V30 2394 N 220.237 -1.11381 1.11499 0
M  V30 2395 C 221.169 -2.17207 0.731704 0
M  V30 2396 C 222.182 -1.61066 -0.236957 0
M  V30 2397 O 223.371 -1.78489 -0.0197591 0
M  V30 2398 C 220.471 -3.38846 0.0607624 0
M  V30 2399 C 219.644 -4.24451 1.0564 0
M  V30 2400 C 218.703 -5.24562 0.4149 0
M  V30 2401 O 217.729 -5.59071 1.069 0
M  V30 2402 N 218.931 -5.74651 -0.821943 0
M  V30 2403 H 221.696 -2.50699 1.64225 0
M  V30 2404 H 219.257 -1.26908 1.00529 0
M  V30 2405 H 221.249 -4.02911 -0.380139 0
M  V30 2406 H 219.819 -3.03411 -0.752376 0
M  V30 2407 H 219.039 -3.56833 1.67524 0
M  V30 2408 H 220.327 -4.78486 1.72998 0
M  V30 2409 H 219.725 -5.48797 -1.37252 0
M  V30 2410 H 218.282 -6.40549 -1.20582 0
M  V30 2411 N 221.715 -0.905404 -1.28997 0
M  V30 2412 C 222.94 -0.549175 -1.99997 0
M  V30 2413 C 223.365 0.860276 -1.67275 0
M  V30 2414 O 222.723 1.57355 -0.900502 0
M  V30 2415 C 222.771 -0.755185 -3.52604 0
M  V30 2416 O 221.875 0.189692 -4.11964 0
M  V30 2417 H 221.216 -0.213899 -0.628604 0
M  V30 2418 H 223.746 -1.21856 -1.64354 0
M  V30 2419 H 223.756 -0.662045 -4.02593 0
M  V30 2420 H 222.431 -1.78271 -3.75755 0
M  V30 2421 H 221.008 0.0485257 -3.72868 0
M  V30 2422 N 223.193 1.4272 -0.668489 0
M  V30 2423 C 224.439 2.01923 -0.188419 0
M  V30 2424 C 224.772 1.52704 1.19979 0
M  V30 2425 O 224.047 0.726566 1.8042 0
M  V30 2426 C 224.33 3.59451 -0.216085 0
M  V30 2427 C 224.183 4.18864 -1.6393 0
M  V30 2428 C 225.502 4.37903 0.439179 0
M  V30 2429 H 222.621 0.733674 -0.0699412 0
M  V30 2430 H 225.263 1.69822 -0.852076 0
M  V30 2431 H 223.413 3.86929 0.349012 0
M  V30 2432 H 225.085 4.02362 -2.25616 0
M  V30 2433 H 223.328 3.74933 -2.18193 0
M  V30 2434 H 223.999 5.27987 -1.61039 0
M  V30 2435 H 226.475 4.16079 -0.0417878 0
M  V30 2436 H 225.351 5.47519 0.389157 0
M  V30 2437 H 225.612 4.15303 1.51577 0
M  V30 2438 N 224.671 0.411399 1.52136 0
M  V30 2439 C 225.901 -0.16284 2.05957 0
M  V30 2440 C 226.309 -1.3922 1.28119 0
M  V30 2441 O 225.652 -1.80768 0.326881 0
M  V30 2442 C 225.714 -0.575946 3.54856 0
M  V30 2443 C 225.378 0.542998 4.53763 0
M  V30 2444 C 226.375 1.40726 5.00492 0
M  V30 2445 C 224.06 0.716337 4.97166 0
M  V30 2446 C 226.054 2.4298 5.8927 0
M  V30 2447 C 223.741 1.74218 5.8574 0
M  V30 2448 C 224.739 2.59731 6.31687 0
M  V30 2449 O 224.427 3.60558 7.18507 0
M  V30 2450 H 224.159 -0.0229125 0.675612 0
M  V30 2451 H 226.713 0.581634 1.96993 0
M  V30 2452 H 224.943 -1.37274 3.61515 0
M  V30 2453 H 226.632 -1.07836 3.91313 0
M  V30 2454 H 227.398 1.28476 4.67674 0
M  V30 2455 H 223.277 0.0603857 4.6096 0
M  V30 2456 H 226.821 3.0976 6.25055 0
M  V30 2457 H 222.718 1.86498 6.17971 0
M  V30 2458 H 223.486 3.56829 7.36624 0
M  V30 2459 N 226.149 -1.5696 0.141893 0
M  V30 2460 C 227.096 -2.16501 -0.799737 0
M  V30 2461 C 228.066 -1.09643 -1.24771 0
M  V30 2462 O 229.251 -1.3766 -1.32115 0
M  V30 2463 C 226.391 -2.78679 -2.03549 0
M  V30 2464 C 225.504 -3.99914 -1.6338 0
M  V30 2465 C 224.639 -4.50106 -2.82096 0
M  V30 2466 C 223.678 -5.63819 -2.38275 0
M  V30 2467 N 222.815 -6.08651 -3.49983 0
M  V30 2468 H 227.655 -2.96632 -0.285179 0
M  V30 2469 H 225.192 -1.46533 -0.129053 0
M  V30 2470 H 227.15 -3.1287 -2.75986 0
M  V30 2471 H 225.78 -2.012 -2.52425 0
M  V30 2472 H 224.832 -3.71735 -0.807279 0
M  V30 2473 H 226.144 -4.82311 -1.27192 0
M  V30 2474 H 225.298 -4.86325 -3.62729 0
M  V30 2475 H 224.037 -3.66706 -3.21525 0
M  V30 2476 H 223.042 -5.2718 -1.56081 0
M  V30 2477 H 224.267 -6.49 -1.99938 0
M  V30 2478 H 222.213 -5.28188 -3.89042 0
M  V30 2479 H 222.13 -6.85961 -3.17794 0
M  V30 2480 H 223.398 -6.49515 -4.30988 0
M  V30 2481 N 227.627 0.131896 -1.57047 0
M  V30 2482 C 228.557 1.16384 -2.02428 0
M  V30 2483 C 229.538 1.43936 -0.90644 0
M  V30 2484 O 230.723 1.54599 -1.17528 0
M  V30 2485 C 227.853 2.49328 -2.4177 0
M  V30 2486 C 226.807 2.36266 -3.56879 0
M  V30 2487 C 226.133 3.74057 -3.8208 0
M  V30 2488 C 227.433 1.834 -4.89042 0
M  V30 2489 H 229.127 0.786433 -2.88887 0
M  V30 2490 H 226.673 0.376855 -1.38981 0
M  V30 2491 H 228.626 3.21759 -2.7212 0
M  V30 2492 H 227.35 2.88934 -1.52266 0
M  V30 2493 H 226.009 1.66286 -3.26718 0
M  V30 2494 H 225.657 4.11125 -2.89803 0
M  V30 2495 H 225.357 3.66174 -4.59554 0
M  V30 2496 H 226.881 4.48012 -4.1487 0
M  V30 2497 H 228.295 2.45636 -5.18011 0
M  V30 2498 H 226.692 1.8637 -5.70426 0
M  V30 2499 H 227.762 0.790662 -4.7841 0
M  V30 2500 N 229.106 1.52395 0.401703 0
M  V30 2501 C 230.334 1.70676 1.16949 0
M  V30 2502 C 230.749 0.419503 1.8408 0
M  V30 2503 O 230.106 -0.605061 1.72178 0
M  V30 2504 C 230.157 2.84753 2.22706 0
M  V30 2505 O 229.878 4.08495 1.58314 0
M  V30 2506 C 231.379 3.14608 3.12309 0
M  V30 2507 H 228.599 0.571787 0.351142 0
M  V30 2508 H 231.143 1.98987 0.471652 0
M  V30 2509 H 229.298 2.58941 2.88147 0
M  V30 2510 H 229.712 4.72117 2.28485 0
M  V30 2511 H 231.186 3.97923 3.82572 0
M  V30 2512 H 231.663 2.28464 3.75101 0
M  V30 2513 H 232.269 3.42212 2.52529 0
M  V30 2514 N 230.584 -0.659388 1.43143 0
M  V30 2515 C 231.861 -1.41627 1.34912 0
M  V30 2516 C 232.241 -2.11099 -0.00607785 0
M  V30 2517 O 231.589 -2.04353 -1.02236 0
M  V30 2518 C 231.799 -2.40604 2.52805 0
M  V30 2519 C 233.147 -3.04789 2.95616 0
M  V30 2520 O 234.171 -2.50932 2.52807 0
M  V30 2521 O 233.03 -4.02421 3.69756 0
M  V30 2522 H 230.124 -0.63246 0.532844 0
M  V30 2523 H 232.67 -0.686814 1.5518 0
M  V30 2524 H 231.442 -1.88174 3.43083 0
M  V30 2525 H 231.065 -3.21009 2.34604 0
M  V30 2526 N 232.062 -1.29571 -0.897171 0
M  V30 2527 C 233.309 -1.17689 -1.6479 0
M  V30 2528 C 233.637 0.27107 -1.92602 0
M  V30 2529 O 232.892 1.21193 -1.53658 0
M  V30 2530 C 233.191 -1.9382 -3.00281 0
M  V30 2531 C 232.857 -3.43522 -2.92068 0
M  V30 2532 C 231.519 -3.84348 -2.89535 0
M  V30 2533 C 233.871 -4.38906 -2.81089 0
M  V30 2534 C 231.199 -5.18869 -2.73846 0
M  V30 2535 C 233.551 -5.73521 -2.66939 0
M  V30 2536 C 232.215 -6.13601 -2.62774 0
M  V30 2537 H 231.485 -0.430654 -0.603008 0
M  V30 2538 H 234.132 -1.60536 -1.04404 0
M  V30 2539 H 232.437 -1.4357 -3.64547 0
M  V30 2540 H 234.134 -1.82028 -3.57305 0
M  V30 2541 H 230.724 -3.11072 -2.94842 0
M  V30 2542 H 234.908 -4.08315 -2.82121 0
M  V30 2543 H 230.164 -5.4903 -2.69027 0
M  V30 2544 H 234.338 -6.47078 -2.57416 0
M  V30 2545 H 231.965 -7.17786 -2.50375 0
M  V30 2546 N 233.54 1.10788 -1.12088 0
M  V30 2547 C 234.788 1.8231 -0.872205 0
M  V30 2548 C 235.109 1.85419 0.603709 0
M  V30 2549 O 234.379 1.32963 1.43867 0
M  V30 2550 H 232.959 0.675137 -0.319686 0
M  V30 2551 H 235.621 1.34068 -1.41463 0
M  V30 2552 H 234.717 2.85955 -1.25045 0
M  V30 2553 N 235.018 0.912232 1.28515 0
M  V30 2554 C 235.981 0.404223 2.25607 0
M  V30 2555 C 236.981 -0.468602 1.53821 0
M  V30 2556 O 238.171 -0.271873 1.72065 0
M  V30 2557 C 235.303 -0.420653 3.38295 0
M  V30 2558 H 236.496 1.26188 2.7206 0
M  V30 2559 H 234.049 0.691495 1.40171 0
M  V30 2560 H 234.784 -1.29777 2.97201 0
M  V30 2561 H 234.569 0.204935 3.91564 0
M  V30 2562 H 236.059 -0.766971 4.10496 0
M  V30 2563 N 236.496 -1.42363 0.676048 0
M  V30 2564 C 237.459 -2.29199 0.00766941 0
M  V30 2565 C 238.459 -1.43389 -0.727745 0
M  V30 2566 O 239.649 -1.64764 -0.56556 0
M  V30 2567 C 236.781 -3.2591 -0.999785 0
M  V30 2568 H 237.974 -2.89794 0.771988 0
M  V30 2569 H 235.527 -1.50024 0.438468 0
M  V30 2570 H 236.262 -2.70256 -1.79255 0
M  V30 2571 H 236.047 -3.89202 -0.475829 0
M  V30 2572 H 237.537 -3.91028 -1.46583 0
M  V30 2573 N 237.974 -0.419461 -1.51915 0
M  V30 2574 C 239.39 -0.0708431 -1.59443 0
M  V30 2575 C 239.59 1.41796 -1.43164 0
M  V30 2576 O 238.646 2.18596 -1.26381 0
M  V30 2577 C 239.959 -0.574991 -2.95151 0
M  V30 2578 C 241.507 -0.533867 -3.08413 0
M  V30 2579 C 241.982 -1.01469 -4.46618 0
M  V30 2580 N 243.473 -0.971939 -4.52888 0
M  V30 2581 C 244.208 -1.31505 -5.58116 0
M  V30 2582 N 243.704 -1.73014 -6.70849 0
M  V30 2583 N 245.497 -1.23436 -5.48379 0
M  V30 2584 H 237.648 -1.38836 -1.60743 0
M  V30 2585 H 239.911 -0.570998 -0.756747 0
M  V30 2586 H 239.617 -1.61597 -3.12377 0
M  V30 2587 H 239.491 0.00979777 -3.77199 0
M  V30 2588 H 241.878 0.498086 -2.90866 0
M  V30 2589 H 241.959 -1.15484 -2.28248 0
M  V30 2590 H 241.603 -2.04502 -4.6491 0
M  V30 2591 H 241.533 -0.370433 -5.25295 0
M  V30 2592 H 244.024 -0.666893 -3.71969 0
M  V30 2593 H 244.337 -1.97479 -7.47143 0
M  V30 2594 H 242.682 -1.76926 -6.72103 0
M  V30 2595 H 245.873 -0.908869 -4.59192 0
M  V30 2596 H 246.046 -1.50506 -6.30279 0
M  V30 2597 N 239.452 1.56882 -0.150215 0
M  V30 2598 C 240.362 2.20494 0.801222 0
M  V30 2599 C 241.378 1.19019 1.26927 0
M  V30 2600 O 242.554 1.51607 1.32579 0
M  V30 2601 C 239.619 2.81659 2.02161 0
M  V30 2602 C 238.68 3.9827 1.60249 0
M  V30 2603 C 237.913 4.56508 2.7647 0
M  V30 2604 O 238.136 4.13627 3.92771 0
M  V30 2605 O 237.07 5.46719 2.51757 0
M  V30 2606 H 240.896 3.02315 0.289717 0
M  V30 2607 H 238.481 1.49202 0.0769684 0
M  V30 2608 H 240.363 3.20522 2.73576 0
M  V30 2609 H 239.038 2.02849 2.52258 0
M  V30 2610 H 237.945 3.64117 0.858477 0
M  V30 2611 H 239.278 4.78609 1.14864 0
M  V30 2612 N 240.93 -0.123565 1.57115 0
M  V30 2613 C 241.86 -1.15309 2.03042 0
M  V30 2614 C 242.841 -1.43454 0.914061 0
M  V30 2615 O 244.026 -1.53973 1.18347 0
M  V30 2616 C 241.156 -2.48043 2.43089 0
M  V30 2617 C 240.11 -2.3437 3.58127 0
M  V30 2618 C 239.436 -3.72026 3.84059 0
M  V30 2619 C 240.736 -1.80804 4.90007 0
M  V30 2620 H 242.43 -0.771102 2.893 0
M  V30 2621 H 239.976 -0.369479 1.39179 0
M  V30 2622 H 241.929 -3.20311 2.73823 0
M  V30 2623 H 240.653 -2.88122 1.53796 0
M  V30 2624 H 239.312 -1.64551 3.27595 0
M  V30 2625 H 238.96 -4.09582 2.91979 0
M  V30 2626 H 238.66 -3.63732 4.6149 0
M  V30 2627 H 240.184 -4.45806 4.1724 0
M  V30 2628 H 241.598 -2.42886 5.19307 0
M  V30 2629 H 239.995 -1.83343 5.71407 0
M  V30 2630 H 241.065 -0.76528 4.78823 0
M  V30 2631 N 242.408 -1.52605 -0.393616 0
M  V30 2632 C 243.318 -1.79971 -1.50492 0
M  V30 2633 C 244.334 -0.686181 -1.59899 0
M  V30 2634 O 245.51 -0.973274 -1.76322 0
M  V30 2635 C 242.575 -1.95867 -2.86072 0
M  V30 2636 C 241.636 -3.19781 -2.86424 0
M  V30 2637 C 240.869 -3.34909 -4.15538 0
M  V30 2638 O 241.092 -2.54948 -5.10253 0
M  V30 2639 O 240.026 -4.28141 -4.23059 0
M  V30 2640 H 243.852 -2.74328 -1.30299 0
M  V30 2641 H 241.437 -1.3764 -0.581005 0
M  V30 2642 H 243.319 -2.08056 -3.66457 0
M  V30 2643 H 241.994 -1.04699 -3.063 0
M  V30 2644 H 240.901 -3.13038 -2.04837 0
M  V30 2645 H 242.234 -4.1078 -2.71147 0
M  V30 2646 N 243.887 0.651787 -1.4349 0
M  V30 2647 C 245.164 1.40909 -1.35661 0
M  V30 2648 C 245.544 2.11099 -0.00511733 0
M  V30 2649 O 244.892 2.04892 1.0115 0
M  V30 2650 C 245.102 2.3926 -2.54078 0
M  V30 2651 C 246.45 3.03217 -2.97228 0
M  V30 2652 O 247.474 2.49588 -2.54135 0
M  V30 2653 O 246.333 4.00455 -3.71885 0
M  V30 2654 H 243.427 0.629625 -0.536191 0
M  V30 2655 H 245.973 0.678575 -1.55542 0
M  V30 2656 H 244.745 1.86352 -3.44076 0
M  V30 2657 H 244.368 3.1976 -2.36303 0
M  V30 2658 N 245.365 1.30045 0.890287 0
M  V30 2659 C 246.642 1.09227 1.62262 0
M  V30 2660 C 247.022 -0.360305 2.08002 0
M  V30 2661 O 246.37 -1.35084 1.84295 0
M  V30 2662 C 246.58 2.08835 2.79623 0
M  V30 2663 C 247.928 2.40266 3.50082 0
M  V30 2664 O 248.952 2.07104 2.89804 0
M  V30 2665 O 247.811 2.96967 4.58773 0
M  V30 2666 H 244.905 0.419132 0.712922 0
M  V30 2667 H 247.451 1.41451 0.937529 0
M  V30 2668 H 246.223 3.06633 2.43089 0
M  V30 2669 H 245.846 1.77397 3.55832 0
M  V30 2670 N 246.843 -1.10192 1.12674 0
M  V30 2671 C 247.753 -2.20172 0.810026 0
M  V30 2672 C 248.769 -1.72821 -0.202188 0
M  V30 2673 O 249.945 -2.01369 -0.0351691 0
M  V30 2674 C 247.01 -3.45631 0.272007 0
M  V30 2675 C 246.071 -4.07704 1.34447 0
M  V30 2676 C 245.304 -5.27175 0.832029 0
M  V30 2677 O 245.527 -5.69425 -0.333284 0
M  V30 2678 O 244.461 -5.80168 1.60277 0
M  V30 2679 H 248.287 -2.49701 1.72867 0
M  V30 2680 H 245.872 -1.18977 0.903597 0
M  V30 2681 H 247.754 -4.21394 -0.0230219 0
M  V30 2682 H 246.429 -3.17723 -0.619164 0
M  V30 2683 H 245.336 -3.33614 1.6927 0
M  V30 2684 H 246.669 -4.3982 2.2095 0
M  V30 2685 N 248.321 -0.919034 -1.28029 0
M  V30 2686 C 249.253 -0.368762 -2.26214 0
M  V30 2687 C 250.266 0.495716 -1.55069 0
M  V30 2688 O 251.455 0.30974 -1.75792 0
M  V30 2689 C 248.555 0.491049 -3.35324 0
M  V30 2690 C 247.728 -0.352133 -4.3598 0
M  V30 2691 C 246.787 0.443622 -5.24327 0
M  V30 2692 O 245.813 -0.14566 -5.69014 0
M  V30 2693 N 247.015 1.74545 -5.53637 0
M  V30 2694 H 249.78 -1.21273 -2.74068 0
M  V30 2695 H 247.341 -0.785541 -1.41566 0
M  V30 2696 H 249.333 1.03026 -3.91366 0
M  V30 2697 H 247.903 1.23574 -2.87138 0
M  V30 2698 H 247.123 -1.07269 -3.79324 0
M  V30 2699 H 248.411 -0.928883 -5.00249 0
M  V30 2700 H 247.809 2.24666 -5.19174 0
M  V30 2701 H 246.366 2.23138 -6.12416 0
M  V30 2702 N 249.799 1.42003 -0.683588 0
M  V30 2703 C 251.046 2.01413 -0.209514 0
M  V30 2704 C 251.374 1.54088 1.1869 0
M  V30 2705 O 250.629 0.737591 1.81268 0
M  V30 2706 C 250.928 3.56827 -0.202357 0
M  V30 2707 C 250.594 4.23617 -1.54464 0
M  V30 2708 C 249.256 4.41577 -1.91215 0
M  V30 2709 C 251.608 4.61178 -2.42826 0
M  V30 2710 C 248.936 4.9437 -3.15935 0
M  V30 2711 C 251.288 5.15355 -3.66867 0
M  V30 2712 C 249.952 5.31528 -4.03776 0
M  V30 2713 H 249.222 0.737023 -0.0766668 0
M  V30 2714 H 251.869 1.70067 -0.880312 0
M  V30 2715 H 250.174 3.87892 0.551969 0
M  V30 2716 H 251.871 4.00588 0.181793 0
M  V30 2717 H 248.461 4.10004 -1.24877 0
M  V30 2718 H 252.645 4.46968 -2.15717 0
M  V30 2719 H 247.901 5.05076 -3.44541 0
M  V30 2720 H 252.075 5.43402 -4.35531 0
M  V30 2721 H 249.702 5.72199 -5.00492 0
M  V30 2722 N 251.277 0.427512 1.51691 0
M  V30 2723 C 252.523 -0.142439 2.02299 0
M  V30 2724 C 252.856 -1.43214 1.31162 0
M  V30 2725 O 252.131 -1.89833 0.423511 0
M  V30 2726 C 252.414 -0.371301 3.58181 0
M  V30 2727 C 252.267 0.936358 4.39946 0
M  V30 2728 C 253.586 -1.14542 4.24933 0
M  V30 2729 H 250.705 -0.0502937 0.735282 0
M  V30 2730 H 253.347 0.564584 1.81418 0
M  V30 2731 H 251.497 -0.973559 3.76104 0
M  V30 2732 H 253.169 1.57184 4.33694 0
M  V30 2733 H 251.412 1.5432 4.05423 0
M  V30 2734 H 252.083 0.730388 5.47147 0
M  V30 2735 H 254.559 -0.635362 4.11221 0
M  V30 2736 H 253.435 -1.27431 5.33903 0
M  V30 2737 H 253.696 -2.17093 3.85127 0
M  V30 2738 N 252.755 -1.56801 0.158532 0
M  V30 2739 C 253.98 -2.01295 -0.499516 0
M  V30 2740 C 254.405 -1.03799 -1.56867 0
M  V30 2741 O 253.763 -0.0155162 -1.81293 0
M  V30 2742 C 253.811 -3.44469 -1.06647 0
M  V30 2743 O 252.915 -3.50012 -2.18095 0
M  V30 2744 H 252.256 -0.652884 -0.12099 0
M  V30 2745 H 254.786 -2.02958 0.258661 0
M  V30 2746 H 254.796 -3.8351 -1.39227 0
M  V30 2747 H 253.471 -4.14932 -0.283581 0
M  V30 2748 H 252.048 -3.22822 -1.86656 0
M  V30 2749 N 254.233 0.115231 -1.57178 0
M  V30 2750 C 255.163 1.1423 -2.03651 0
M  V30 2751 C 256.144 1.42967 -0.921655 0
M  V30 2752 O 257.329 1.53343 -1.19162 0
M  V30 2753 C 254.459 2.4675 -2.44401 0
M  V30 2754 C 253.413 2.32467 -3.59365 0
M  V30 2755 C 252.739 3.69984 -3.86026 0
M  V30 2756 C 254.039 1.78203 -4.90959 0
M  V30 2757 H 255.733 0.755749 -2.89705 0
M  V30 2758 H 253.279 0.362093 -1.39373 0
M  V30 2759 H 255.232 3.18854 -2.75517 0
M  V30 2760 H 253.956 2.87302 -1.55322 0
M  V30 2761 H 252.615 1.62811 -3.28463 0
M  V30 2762 H 252.263 4.08028 -2.94147 0
M  V30 2763 H 251.963 3.61279 -4.63412 0
M  V30 2764 H 253.487 4.43587 -4.19599 0
M  V30 2765 H 254.901 2.40128 -5.20587 0
M  V30 2766 H 253.298 1.8031 -5.72371 0
M  V30 2767 H 254.368 0.739876 -4.79222 0
M  V30 2768 N 255.711 1.52812 0.385517 0
M  V30 2769 C 256.941 1.71658 1.14966 0
M  V30 2770 C 257.349 0.436253 1.84102 0
M  V30 2771 O 256.692 -0.599313 1.73649 0
M  V30 2772 C 256.754 2.81309 2.23843 0
M  V30 2773 C 256.418 4.22313 1.74644 0
M  V30 2774 C 257.415 5.05352 1.22129 0
M  V30 2775 C 255.1 4.68648 1.80761 0
M  V30 2776 C 257.094 6.32807 0.763838 0
M  V30 2777 C 254.781 5.96086 1.34627 0
M  V30 2778 C 255.779 6.77996 0.825264 0
M  V30 2779 O 255.467 8.03045 0.370669 0
M  V30 2780 H 255.199 0.578022 0.350523 0
M  V30 2781 H 257.753 2.00263 0.456509 0
M  V30 2782 H 255.983 2.48133 2.96592 0
M  V30 2783 H 257.672 2.88524 2.85497 0
M  V30 2784 H 258.438 4.70736 1.16758 0
M  V30 2785 H 254.317 4.04979 2.20256 0
M  V30 2786 H 257.861 6.96689 0.356494 0
M  V30 2787 H 253.758 6.30205 1.39686 0
M  V30 2788 H 254.526 8.17021 0.491829 0
M  V30 2789 N 257.189 -0.644168 1.43834 0
M  V30 2790 C 258.437 -1.40117 1.45642 0
M  V30 2791 C 258.758 -1.94814 0.0852413 0
M  V30 2792 O 258.028 -1.74988 -0.880688 0
M  V30 2793 H 256.608 -0.52005 0.536243 0
M  V30 2794 H 259.27 -0.7591 1.7951 0
M  V30 2795 H 258.366 -2.23902 2.17427 0
M  V30 2796 N 258.668 -1.30515 -0.883378 0
M  V30 2797 C 259.896 -1.22359 -1.66841 0
M  V30 2798 C 260.311 0.213296 -1.87591 0
M  V30 2799 O 259.668 1.14075 -1.42454 0
M  V30 2800 C 259.719 -1.95011 -3.04389 0
M  V30 2801 O 259.44 -3.3309 -2.84575 0
M  V30 2802 C 260.941 -1.93532 -3.98824 0
M  V30 2803 H 258.161 -0.423371 -0.520575 0
M  V30 2804 H 260.705 -1.72167 -1.10357 0
M  V30 2805 H 258.86 -1.48997 -3.57601 0
M  V30 2806 H 259.274 -3.69907 -3.71846 0
M  V30 2807 H 260.748 -2.48902 -4.92699 0
M  V30 2808 H 261.225 -0.914627 -4.29571 0
M  V30 2809 H 261.831 -2.39364 -3.51547 0
M  V30 2810 N 260.146 1.09593 -1.13257 0
M  V30 2811 C 261.056 2.19739 -0.821691 0
M  V30 2812 C 262.072 1.72926 0.19302 0
M  V30 2813 O 263.248 2.01385 0.0244895 0
M  V30 2814 C 260.313 3.45482 -0.290333 0
M  V30 2815 C 259.374 4.06985 -1.36607 0
M  V30 2816 C 258.607 5.26726 -0.859975 0
M  V30 2817 O 258.83 5.69594 0.303082 0
M  V30 2818 O 257.764 5.7931 -1.63351 0
M  V30 2819 H 261.59 2.48781 -1.74189 0
M  V30 2820 H 259.175 1.18496 -0.909894 0
M  V30 2821 H 261.057 4.214 0.000674022 0
M  V30 2822 H 259.732 3.18047 0.602306 0
M  V30 2823 H 258.639 3.32712 -1.71037 0
M  V30 2824 H 259.972 4.38643 -2.23279 0
M  V30 2825 N 261.624 0.925811 1.2754 0
M  V30 2826 C 262.534 0.428993 2.30644 0
M  V30 2827 C 263.55 -0.489387 1.66976 0
M  V30 2828 O 264.726 -0.372653 1.97922 0
M  V30 2829 C 261.791 -0.311967 3.45294 0
M  V30 2830 C 260.852 0.641098 4.24486 0
M  V30 2831 C 260.085 -0.0645955 5.33661 0
M  V30 2832 O 260.308 -1.28429 5.55754 0
M  V30 2833 O 259.242 0.606265 5.98839 0
M  V30 2834 H 263.068 1.28504 2.75173 0
M  V30 2835 H 260.653 0.691086 1.32455 0
M  V30 2836 H 262.535 -0.729972 4.15029 0
M  V30 2837 H 261.21 -1.14365 3.02824 0
M  V30 2838 H 260.117 1.10874 3.57292 0
M  V30 2839 H 261.45 1.43995 4.70666 0
M  V30 2840 N 263.102 -1.41638 0.69111 0
M  V30 2841 C 264.332 -2.0533 0.228758 0
M  V30 2842 C 264.74 -1.52089 -1.12541 0
M  V30 2843 O 264.083 -0.662145 -1.71351 0
M  V30 2844 C 264.145 -3.59349 0.10407 0
M  V30 2845 C 263.809 -4.35362 1.38956 0
M  V30 2846 C 264.806 -4.64942 2.32648 0
M  V30 2847 C 262.491 -4.74714 1.64169 0
M  V30 2848 C 264.485 -5.32828 3.49818 0
M  V30 2849 C 262.172 -5.42338 2.81625 0
M  V30 2850 C 263.17 -5.71322 3.74273 0
M  V30 2851 O 262.858 -6.37554 4.89673 0
M  V30 2852 H 262.59 -0.667796 0.104997 0
M  V30 2853 H 265.144 -1.82477 0.942938 0
M  V30 2854 H 263.374 -3.80924 -0.665839 0
M  V30 2855 H 265.063 -4.04633 -0.320519 0
M  V30 2856 H 265.829 -4.35025 2.14425 0
M  V30 2857 H 261.708 -4.51538 0.929202 0
M  V30 2858 H 265.252 -5.55368 4.22152 0
M  V30 2859 H 261.149 -5.71673 2.99768 0
M  V30 2860 H 261.917 -6.56049 4.8943 0
M  V30 2861 N 264.58 -0.43555 -1.51462 0
M  V30 2862 C 265.51 0.367376 -2.30592 0
M  V30 2863 C 266.491 1.02263 -1.35928 0
M  V30 2864 O 267.676 1.02661 -1.64847 0
M  V30 2865 C 264.806 1.46983 -3.14664 0
M  V30 2866 C 263.76 0.938161 -4.17591 0
M  V30 2867 C 263.086 2.13622 -4.90173 0
M  V30 2868 C 264.386 -0.0261621 -5.22293 0
M  V30 2869 H 266.08 -0.292969 -2.97963 0
M  V30 2870 H 263.626 -0.14234 -1.43295 0
M  V30 2871 H 265.579 2.03873 -3.688 0
M  V30 2872 H 264.303 2.15843 -2.4511 0
M  V30 2873 H 262.962 0.391481 -3.64504 0
M  V30 2874 H 262.61 2.81098 -4.17124 0
M  V30 2875 H 262.31 1.78688 -5.59772 0
M  V30 2876 H 263.834 2.7107 -5.47132 0
M  V30 2877 H 265.248 0.452384 -5.71512 0
M  V30 2878 H 263.645 -0.287992 -5.99409 0
M  V30 2879 H 264.715 -0.963391 -4.75233 0
M  V30 2880 N 266.058 1.56714 -0.166846 0
M  V30 2881 C 267.008 2.14338 0.777382 0
M  V30 2882 C 267.992 1.07642 1.19591 0
M  V30 2883 O 269.184 1.33775 1.15902 0
M  V30 2884 C 266.313 2.78417 2.00846 0
M  V30 2885 C 265.399 3.92264 1.61212 0
M  V30 2886 N 265.79 4.97268 0.925104 0
M  V30 2887 C 264.088 4.03342 1.90346 0
M  V30 2888 C 264.789 5.77093 0.730627 0
M  V30 2889 N 263.765 5.2854 1.27067 0
M  V30 2890 H 267.567 2.9289 0.243466 0
M  V30 2891 H 265.081 1.62364 0.0339954 0
M  V30 2892 H 267.078 3.18073 2.69509 0
M  V30 2893 H 265.738 2.01344 2.54736 0
M  V30 2894 H 266.749 5.14601 0.583646 0
M  V30 2895 H 263.426 3.37368 2.45946 0
M  V30 2896 H 264.816 6.71638 0.187668 0
M  V30 2897 N 267.536 -0.106894 1.57237 0
M  V30 2898 C 268.947 -0.662723 1.74542 0
M  V30 2899 C 269.298 -1.7971 0.787319 0
M  V30 2900 O 268.423 -2.16368 -0.0369636 0
M  V30 2901 C 269.018 -1.20896 3.16496 0
M  V30 2902 C 267.577 -1.71096 3.35266 0
M  V30 2903 C 266.724 -0.615642 2.7038 0
M  V30 2904 H 269.675 0.119106 1.58252 0
M  V30 2905 H 269.696 -2.07847 3.18716 0
M  V30 2906 H 269.208 -0.383122 3.86204 0
M  V30 2907 H 267.309 -2.56119 2.70618 0
M  V30 2908 H 267.422 -1.81208 4.43509 0
M  V30 2909 H 265.786 -1.05222 2.31949 0
M  V30 2910 H 266.569 0.199419 3.4272 0
M  V30 2911 N 269.014 -1.53014 -0.377408 0
M  V30 2912 C 270.291 -1.59215 -1.13622 0
M  V30 2913 C 270.671 -0.392407 -2.07421 0
M  V30 2914 O 270.019 0.618342 -2.19975 0
M  V30 2915 C 270.229 -2.93669 -1.88573 0
M  V30 2916 C 271.577 -3.47822 -2.43526 0
M  V30 2917 O 272.601 -2.9562 -1.98715 0
M  V30 2918 O 271.46 -4.39055 -3.25412 0
M  V30 2919 H 268.554 -0.642625 -0.52054 0
M  V30 2920 H 271.1 -1.65353 -0.381625 0
M  V30 2921 H 269.872 -3.7243 -1.20048 0
M  V30 2922 H 269.495 -2.90968 -2.70968 0
M  V30 2923 N 270.492 0.636531 -1.44174 0
M  V30 2924 C 271.425 1.76139 -1.45087 0
M  V30 2925 C 272.403 1.59611 -0.310326 0
M  V30 2926 O 273.587 1.81568 -0.506477 0
M  V30 2927 C 270.714 3.13648 -1.27839 0
M  V30 2928 C 269.76 3.48838 -2.45386 0
M  V30 2929 S 270.593 3.46927 -4.07924 0
M  V30 2930 C 271.749 4.87064 -3.9309 0
M  V30 2931 H 271.982 1.75096 -2.40268 0
M  V30 2932 H 269.515 0.810666 -1.31406 0
M  V30 2933 H 271.473 3.93002 -1.18575 0
M  V30 2934 H 270.134 3.12235 -0.341787 0
M  V30 2935 H 269.327 4.48886 -2.29167 0
M  V30 2936 H 268.929 2.76935 -2.51362 0
M  V30 2937 H 271.221 5.76153 -3.56446 0
M  V30 2938 H 272.164 5.08337 -4.92949 0
M  V30 2939 H 272.572 4.61384 -3.25246 0
M  V30 2940 N 271.97 1.30982 0.876444 0
M  V30 2941 C 273.2 1.23063 1.65949 0
M  V30 2942 C 273.608 -0.207537 1.88058 0
M  V30 2943 O 272.951 -1.14781 1.43426 0
M  V30 2944 C 273.013 1.89768 3.05333 0
M  V30 2945 C 272.677 3.39106 3.0636 0
M  V30 2946 C 273.674 4.3496 2.84791 0
M  V30 2947 C 271.359 3.80693 3.27686 0
M  V30 2948 C 273.353 5.70375 2.84519 0
M  V30 2949 C 271.04 5.16223 3.27043 0
M  V30 2950 C 272.038 6.10875 3.05485 0
M  V30 2951 O 271.726 7.43928 3.04674 0
M  V30 2952 H 271.458 0.426685 0.524324 0
M  V30 2953 H 274.012 1.7329 1.10271 0
M  V30 2954 H 272.242 1.34082 3.6271 0
M  V30 2955 H 273.931 1.75853 3.65829 0
M  V30 2956 H 274.697 4.0416 2.68103 0
M  V30 2957 H 270.576 3.07457 3.43499 0
M  V30 2958 H 274.12 6.44228 2.67611 0
M  V30 2959 H 270.017 5.4666 3.43269 0
M  V30 2960 H 270.785 7.53022 3.2078 0
M  V30 2961 N 273.449 -1.08991 1.13837 0
M  V30 2962 C 274.359 -2.19301 0.833333 0
M  V30 2963 C 275.375 -1.73026 -0.183847 0
M  V30 2964 O 276.551 -2.01395 -0.0138092 0
M  V30 2965 C 273.616 -3.45323 0.308651 0
M  V30 2966 C 272.677 -4.06255 1.38764 0
M  V30 2967 C 271.91 -5.26262 0.887896 0
M  V30 2968 O 272.133 -5.69747 -0.27287 0
M  V30 2969 O 271.067 -5.78435 1.66421 0
M  V30 2970 H 274.893 -2.47854 1.75506 0
M  V30 2971 H 272.478 -1.18012 0.916166 0
M  V30 2972 H 274.36 -4.21394 0.0216739 0
M  V30 2973 H 273.035 -3.18362 -0.585431 0
M  V30 2974 H 271.942 -3.318 1.72799 0
M  V30 2975 H 273.275 -4.37452 2.25602 0
M  V30 2976 N 274.927 -0.932562 -1.27047 0
M  V30 2977 C 276.343 -0.633544 -1.46487 0
M  V30 2978 C 276.543 0.815746 -1.84249 0
M  V30 2979 O 275.599 1.59319 -1.95892 0
M  V30 2980 C 276.912 -1.58758 -2.55375 0
M  V30 2981 C 278.46 -1.59634 -2.69232 0
M  V30 2982 C 278.935 -2.53747 -3.81283 0
M  V30 2983 N 280.426 -2.51982 -3.88664 0
M  V30 2984 C 281.161 -3.21491 -4.74796 0
M  V30 2985 N 280.657 -4.00395 -5.65381 0
M  V30 2986 N 282.45 -3.10485 -4.68568 0
M  V30 2987 H 274.601 -1.86946 -1.00821 0
M  V30 2988 H 276.864 -0.802897 -0.504044 0
M  V30 2989 H 276.57 -2.62172 -2.34432 0
M  V30 2990 H 276.444 -1.33301 -3.52861 0
M  V30 2991 H 278.831 -0.569488 -2.89553 0
M  V30 2992 H 278.912 -1.89142 -1.72218 0
M  V30 2993 H 278.556 -3.56545 -3.61715 0
M  V30 2994 H 278.486 -2.21532 -4.77735 0
M  V30 2995 H 280.977 -1.94681 -3.23895 0
M  V30 2996 H 281.29 -4.50406 -6.27976 0
M  V30 2997 H 279.635 -4.04498 -5.65161 0
M  V30 2998 H 282.826 -2.48331 -3.96799 0
M  V30 2999 H 282.999 -3.64925 -5.35475 0
M  V30 3000 N 276.405 1.4127 -0.698611 0
M  V30 3001 C 277.368 2.29158 -0.044132 0
M  V30 3002 C 278.368 1.44529 0.704841 0
M  V30 3003 O 279.558 1.65643 0.539276 0
M  V30 3004 C 276.69 3.27459 0.947809 0
M  V30 3005 H 277.883 2.88529 -0.817994 0
M  V30 3006 H 275.436 1.49307 -0.46228 0
M  V30 3007 H 276.171 2.73073 1.74933 0
M  V30 3008 H 275.956 3.8991 0.41385 0
M  V30 3009 H 277.446 3.93311 1.40344 0
M  V30 3010 N 277.883 0.443576 1.51229 0
M  V30 3011 C 279.129 -0.120975 2.02439 0
M  V30 3012 C 279.462 -1.41815 1.32674 0
M  V30 3013 O 278.737 -1.89373 0.443622 0
M  V30 3014 C 279.02 -0.333291 3.58554 0
M  V30 3015 C 278.873 0.982968 4.38928 0
M  V30 3016 C 280.192 -1.10028 4.26124 0
M  V30 3017 H 277.311 -0.0424923 0.735774 0
M  V30 3018 H 279.953 0.583794 1.80809 0
M  V30 3019 H 278.103 -0.933614 3.77115 0
M  V30 3020 H 279.775 1.61775 4.32003 0
M  V30 3021 H 278.018 1.58611 4.03763 0
M  V30 3022 H 278.689 0.788379 5.46341 0
M  V30 3023 H 281.165 -0.591711 4.11871 0
M  V30 3024 H 280.041 -1.21761 5.35225 0
M  V30 3025 H 280.302 -2.12996 3.87408 0
M  V30 3026 N 279.361 -1.56624 0.175154 0
M  V30 3027 C 280.291 -2.21155 -0.749195 0
M  V30 3028 C 281.272 -1.16836 -1.23626 0
M  V30 3029 O 282.457 -1.45277 -1.28873 0
M  V30 3030 C 279.587 -2.8553 -1.97711 0
M  V30 3031 C 278.541 -3.95921 -1.62575 0
M  V30 3032 C 277.867 -4.47365 -2.92864 0
M  V30 3033 C 279.167 -5.15323 -0.850838 0
M  V30 3034 H 280.861 -2.98653 -0.211295 0
M  V30 3035 H 278.407 -1.43651 -0.100188 0
M  V30 3036 H 280.36 -3.2935 -2.62881 0
M  V30 3037 H 279.084 -2.05406 -2.53921 0
M  V30 3038 H 277.743 -3.52762 -0.997719 0
M  V30 3039 H 277.391 -3.64027 -3.47122 0
M  V30 3040 H 277.091 -5.21839 -2.70106 0
M  V30 3041 H 278.615 -4.93873 -3.59056 0
M  V30 3042 H 280.029 -5.55812 -1.40521 0
M  V30 3043 H 278.426 -5.95739 -0.722154 0
M  V30 3044 H 279.496 -4.84661 0.152082 0
M  V30 3045 N 280.839 0.0985539 -1.57292 0
M  V30 3046 C 282.255 0.45267 -1.53046 0
M  V30 3047 C 282.455 1.80713 -0.891342 0
M  V30 3048 O 281.511 2.4785 -0.482375 0
M  V30 3049 C 282.824 0.418341 -2.97776 0
M  V30 3050 C 284.372 0.500443 -3.08973 0
M  V30 3051 C 284.847 0.496297 -4.55303 0
M  V30 3052 N 286.338 0.557151 -4.59837 0
M  V30 3053 C 287.073 0.575726 -5.70502 0
M  V30 3054 N 286.569 0.550714 -6.90608 0
M  V30 3055 N 288.362 0.620277 -5.58667 0
M  V30 3056 H 280.513 -0.788673 -1.97215 0
M  V30 3057 H 282.776 -0.293188 -0.901524 0
M  V30 3058 H 282.482 -0.509659 -3.47988 0
M  V30 3059 H 282.356 1.2386 -3.56284 0
M  V30 3060 H 284.743 1.41886 -2.58751 0
M  V30 3061 H 284.824 -0.347894 -2.53423 0
M  V30 3062 H 284.468 -0.418162 -5.06176 0
M  V30 3063 H 284.398 1.3618 -5.08687 0
M  V30 3064 H 286.889 0.581816 -3.73394 0
M  V30 3065 H 287.202 0.568075 -7.70709 0
M  V30 3066 H 285.547 0.517816 -6.93068 0
M  V30 3067 H 288.738 0.637322 -4.63741 0
M  V30 3068 H 288.911 0.631283 -6.44918 0
M  V30 3069 N 282.317 1.53212 0.369288 0
M  V30 3070 C 283.264 1.79388 1.45219 0
M  V30 3071 C 284.234 0.638059 1.53356 0
M  V30 3072 O 285.419 0.879852 1.69302 0
M  V30 3073 C 282.559 1.98623 2.82211 0
M  V30 3074 C 281.672 3.26337 2.8307 0
M  V30 3075 C 280.807 3.35779 4.11614 0
M  V30 3076 C 279.846 4.5754 4.06601 0
M  V30 3077 N 278.983 4.64155 5.26787 0
M  V30 3078 H 283.823 2.71794 1.22198 0
M  V30 3079 H 281.36 1.34642 0.592444 0
M  V30 3080 H 283.318 2.07761 3.61789 0
M  V30 3081 H 281.948 1.09558 3.03639 0
M  V30 3082 H 281 3.26171 1.95747 0
M  V30 3083 H 282.312 4.15988 2.75237 0
M  V30 3084 H 281.466 3.44208 4.99606 0
M  V30 3085 H 280.205 2.44137 4.22195 0
M  V30 3086 H 279.21 4.49215 3.16996 0
M  V30 3087 H 280.435 5.50519 3.97625 0
M  V30 3088 H 278.381 3.75413 5.3796 0
M  V30 3089 H 278.298 5.47706 5.21109 0
M  V30 3090 H 279.566 4.76863 6.16621 0
M  V30 3091 N 283.795 -0.628877 1.44509 0
M  V30 3092 C 285.072 -1.38733 1.37886 0
M  V30 3093 C 285.452 -2.11065 0.0387008 0
M  V30 3094 O 284.8 -2.06476 -0.97878 0
M  V30 3095 C 285.01 -2.35188 2.57852 0
M  V30 3096 C 286.358 -2.9845 3.02014 0
M  V30 3097 O 287.382 -2.45513 2.58073 0
M  V30 3098 O 286.241 -3.94487 3.78209 0
M  V30 3099 H 283.335 -0.621015 0.54614 0
M  V30 3100 H 285.881 -0.653744 1.56602 0
M  V30 3101 H 284.653 -1.80855 3.46998 0
M  V30 3102 H 284.276 -3.1596 2.4136 0
M  V30 3103 N 285.273 -1.31445 -0.869486 0
M  V30 3104 C 286.223 -1.15731 -1.96444 0
M  V30 3105 C 287.207 -0.0681855 -1.60755 0
M  V30 3106 O 288.399 -0.293154 -1.74555 0
M  V30 3107 C 285.528 -0.867255 -3.32165 0
M  V30 3108 C 284.614 -1.99738 -3.74119 0
M  V30 3109 N 285.005 -3.24447 -3.88031 0
M  V30 3110 C 283.303 -1.89723 -4.03635 0
M  V30 3111 C 284.004 -3.98374 -4.23879 0
M  V30 3112 N 282.98 -3.26547 -4.3459 0
M  V30 3113 H 286.782 -2.10296 -2.05312 0
M  V30 3114 H 284.296 -1.23009 -1.06031 0
M  V30 3115 H 286.293 -0.735668 -4.10358 0
M  V30 3116 H 284.953 0.0701614 -3.24624 0
M  V30 3117 H 285.964 -3.59557 -3.72746 0
M  V30 3118 H 282.641 -1.03449 -4.04481 0
M  V30 3119 H 284.031 -5.05844 -4.42235 0
M  V30 3120 N 286.751 1.08385 -1.14413 0
M  V30 3121 C 287.683 2.1519 -0.789036 0
M  V30 3122 C 288.696 1.61638 0.19417 0
M  V30 3123 O 289.885 1.78479 -0.0275711 0
M  V30 3124 C 286.985 3.38565 -0.15058 0
M  V30 3125 C 286.158 4.21501 -1.16857 0
M  V30 3126 C 285.217 5.23277 -0.553832 0
M  V30 3127 O 284.243 5.56041 -1.21686 0
M  V30 3128 N 285.445 5.76629 0.669296 0
M  V30 3129 H 288.21 2.46257 -1.70814 0
M  V30 3130 H 285.771 1.24198 -1.03858 0
M  V30 3131 H 287.763 4.03777 0.273181 0
M  V30 3132 H 286.333 3.05299 0.671667 0
M  V30 3133 H 285.553 3.52265 -1.76926 0
M  V30 3134 H 286.841 4.73731 -1.85624 0
M  V30 3135 H 286.239 5.52243 1.22654 0
M  V30 3136 H 284.796 6.43521 1.03556 0
M  V30 3137 N 288.23 0.939286 1.26551 0
M  V30 3138 C 289.177 0.446088 2.26448 0
M  V30 3139 C 290.147 -0.493234 1.58608 0
M  V30 3140 O 291.332 -0.409857 1.86346 0
M  V30 3141 C 288.472 -0.284375 3.43926 0
M  V30 3142 C 287.585 0.690399 4.26448 0
M  V30 3143 C 286.72 -0.0610712 5.31165 0
M  V30 3144 C 285.759 0.905649 6.05363 0
M  V30 3145 N 284.896 0.186055 7.01853 0
M  V30 3146 H 289.736 1.30291 2.68008 0
M  V30 3147 H 287.273 0.65371 1.31776 0
M  V30 3148 H 289.231 -0.724313 4.10864 0
M  V30 3149 H 287.861 -1.10535 3.03285 0
M  V30 3150 H 286.913 1.24885 3.59316 0
M  V30 3151 H 288.225 1.42873 4.779 0
M  V30 3152 H 287.379 -0.56038 6.04106 0
M  V30 3153 H 286.118 -0.832297 4.80546 0
M  V30 3154 H 285.123 1.4161 5.3125 0
M  V30 3155 H 286.348 1.67685 6.58072 0
M  V30 3156 H 284.294 -0.566714 6.53548 0
M  V30 3157 H 284.211 0.863752 7.51049 0
M  V30 3158 H 285.479 -0.292221 7.78952 0
M  V30 3159 N 289.708 -1.40897 0.706093 0
M  V30 3160 C 290.655 -2.30751 0.0474474 0
M  V30 3161 C 291.625 -1.47678 -0.76029 0
M  V30 3162 O 292.81 -1.76441 -0.726177 0
M  V30 3163 C 289.95 -3.33815 -0.875309 0
M  V30 3164 C 289.063 -4.31961 -0.0580623 0
M  V30 3165 C 288.198 -5.22093 -0.979425 0
M  V30 3166 C 287.237 -6.11902 -0.155706 0
M  V30 3167 N 286.374 -6.94482 -1.03144 0
M  V30 3168 H 291.214 -2.86513 0.819413 0
M  V30 3169 H 288.751 -1.41102 0.415783 0
M  V30 3170 H 290.709 -3.92129 -1.42446 0
M  V30 3171 H 289.339 -2.79579 -1.61356 0
M  V30 3172 H 288.391 -3.75507 0.608147 0
M  V30 3173 H 289.703 -4.95415 0.580082 0
M  V30 3174 H 288.857 -5.85292 -1.59744 0
M  V30 3175 H 287.596 -4.5889 -1.65141 0
M  V30 3176 H 286.601 -5.47742 0.475309 0
M  V30 3177 H 287.826 -6.77162 0.512635 0
M  V30 3178 H 285.772 -6.33877 -1.68924 0
M  V30 3179 H 285.689 -7.54665 -0.449108 0
M  V30 3180 H 286.957 -7.6214 -1.63593 0
M  V30 3181 N 291.186 -0.45159 -1.50991 0
M  V30 3182 C 292.416 0.108177 -2.06317 0
M  V30 3183 C 292.824 1.35774 -1.31765 0
M  V30 3184 O 292.167 1.79838 -0.374694 0
M  V30 3185 C 292.229 0.481659 -3.56259 0
M  V30 3186 C 291.893 -0.663114 -4.52163 0
M  V30 3187 C 292.89 -1.53947 -4.96585 0
M  V30 3188 C 290.575 -0.8479 -4.95092 0
M  V30 3189 C 292.569 -2.58518 -5.82621 0
M  V30 3190 C 290.256 -1.89686 -5.80915 0
M  V30 3191 C 291.254 -2.76388 -6.24579 0
M  V30 3192 O 290.942 -3.79482 -7.08695 0
M  V30 3193 H 290.674 0.00499183 -0.675982 0
M  V30 3194 H 293.228 -0.633659 -1.95381 0
M  V30 3195 H 291.458 1.27641 -3.65027 0
M  V30 3196 H 293.147 0.974233 -3.94035 0
M  V30 3197 H 293.913 -1.4083 -4.64103 0
M  V30 3198 H 289.792 -0.18258 -4.60638 0
M  V30 3199 H 293.336 -3.26224 -6.16623 0
M  V30 3200 H 289.233 -2.02817 -6.12809 0
M  V30 3201 H 290.001 -3.76234 -7.26905 0
M  V30 3202 N 292.664 1.56529 -0.183458 0
M  V30 3203 C 293.912 1.96855 0.457452 0
M  V30 3204 C 294.233 1.07104 1.62953 0
M  V30 3205 O 293.503 0.139887 1.954 0
M  V30 3206 H 292.083 0.72693 0.171992 0
M  V30 3207 H 294.745 1.93056 -0.267476 0
M  V30 3208 H 293.841 3.01423 0.809368 0
M  V30 3209 N 294.142 -0.090211 1.57342 0
M  V30 3210 C 295.105 -1.09335 2.01441 0
M  V30 3211 C 296.105 -1.32666 0.908641 0
M  V30 3212 O 297.295 -1.28697 1.174 0
M  V30 3213 C 294.427 -2.44136 2.3793 0
M  V30 3214 H 295.62 -0.713662 2.91285 0
M  V30 3215 H 293.173 -0.335404 1.52659 0
M  V30 3216 H 293.908 -2.86972 1.51055 0
M  V30 3217 H 293.693 -2.28548 3.18603 0
M  V30 3218 H 295.183 -3.16277 2.72688 0
M  V30 3219 N 295.62 -1.53406 -0.361157 0
M  V30 3220 C 296.848 -1.73717 -1.12383 0
M  V30 3221 C 297.263 -0.468161 -1.82904 0
M  V30 3222 O 296.62 0.559198 -1.73722 0
M  V30 3223 C 296.671 -2.90558 -2.15078 0
M  V30 3224 O 296.392 -4.12549 -1.47428 0
M  V30 3225 C 297.893 -3.22777 -3.03858 0
M  V30 3226 H 295.113 -0.580896 -0.335858 0
M  V30 3227 H 297.657 -2.00167 -0.418728 0
M  V30 3228 H 295.812 -2.66489 -2.8118 0
M  V30 3229 H 296.226 -4.78009 -2.15887 0
M  V30 3230 H 297.7 -4.07927 -3.71887 0
M  V30 3231 H 298.177 -2.38329 -3.68912 0
M  V30 3232 H 298.783 -3.48787 -2.43367 0
M  V30 3233 N 297.098 0.621204 -1.44841 0
M  V30 3234 C 298.344 1.3826 -1.48365 0
M  V30 3235 C 298.677 1.93831 -0.119624 0
M  V30 3236 O 297.952 1.74251 0.864111 0
M  V30 3237 C 298.235 2.54058 -2.55199 0
M  V30 3238 C 298.088 2.03772 -4.00995 0
M  V30 3239 C 299.407 3.56225 -2.58442 0
M  V30 3240 H 296.526 0.501374 -0.540179 0
M  V30 3241 H 299.168 0.7015 -1.76576 0
M  V30 3242 H 297.318 3.12162 -2.31274 0
M  V30 3243 H 298.99 1.50423 -4.36086 0
M  V30 3244 H 297.233 1.34876 -4.12299 0
M  V30 3245 H 297.904 2.87185 -4.71411 0
M  V30 3246 H 300.38 3.07939 -2.79844 0
M  V30 3247 H 299.256 4.34756 -3.3508 0
M  V30 3248 H 299.517 4.10949 -1.63013 0
M  V30 3249 N 298.576 1.31904 0.862503 0
M  V30 3250 C 299.853 1.12644 1.59908 0
M  V30 3251 C 300.233 -0.316104 2.0872 0
M  V30 3252 O 299.581 -1.31145 1.87118 0
M  V30 3253 C 299.791 2.1472 2.7513 0
M  V30 3254 C 301.139 2.47637 3.44907 0
M  V30 3255 O 302.163 2.13205 2.85346 0
M  V30 3256 O 301.022 3.06632 4.52371 0
M  V30 3257 H 298.116 0.43416 0.703871 0
M  V30 3258 H 300.662 1.43408 0.907314 0
M  V30 3259 H 299.434 3.1172 2.3653 0
M  V30 3260 H 299.057 1.84905 3.51989 0
M  V30 3261 N 300.054 -1.07777 1.14986 0
M  V30 3262 C 300.984 -2.16865 0.865557 0
M  V30 3263 C 301.965 -1.69123 -0.182083 0
M  V30 3264 O 303.15 -1.94164 -0.0373815 0
M  V30 3265 C 300.28 -3.45539 0.349313 0
M  V30 3266 C 299.234 -4.06708 1.33313 0
M  V30 3267 C 298.56 -5.30411 0.675918 0
M  V30 3268 C 299.86 -4.47241 2.69764 0
M  V30 3269 H 301.554 -2.40905 1.77778 0
M  V30 3270 H 299.1 -1.15781 0.856203 0
M  V30 3271 H 301.053 -4.21174 0.137983 0
M  V30 3272 H 299.777 -3.21072 -0.598362 0
M  V30 3273 H 298.436 -3.33112 1.53075 0
M  V30 3274 H 298.084 -5.02232 -0.277767 0
M  V30 3275 H 297.784 -5.72293 1.33244 0
M  V30 3276 H 299.308 -6.08755 0.474262 0
M  V30 3277 H 300.722 -5.14025 2.53873 0
M  V30 3278 H 299.119 -5.00062 3.3175 0
M  V30 3279 H 300.189 -3.58818 3.26156 0
M  V30 3280 N 301.532 -0.945985 -1.26051 0
M  V30 3281 C 302.778 -0.606539 -1.94146 0
M  V30 3282 C 303.133 0.84586 -1.72809 0
M  V30 3283 O 302.426 1.59781 -1.05738 0
M  V30 3284 C 302.62 -0.890475 -3.46129 0
M  V30 3285 C 302.449 -2.36892 -3.82246 0
M  V30 3286 C 301.219 -3.02494 -4.04753 0
M  V30 3287 C 303.417 -3.34772 -3.90425 0
M  V30 3288 N 301.399 -4.40302 -4.27794 0
M  V30 3289 C 302.77 -4.57855 -4.18054 0
M  V30 3290 C 304.825 -3.2973 -3.73072 0
M  V30 3291 C 303.528 -5.76522 -4.30134 0
M  V30 3292 C 305.554 -4.47727 -3.86386 0
M  V30 3293 C 304.916 -5.69593 -4.14419 0
M  V30 3294 H 301.015 -0.272407 -0.73302 0
M  V30 3295 H 303.599 -1.21638 -1.52027 0
M  V30 3296 H 301.77 -0.309638 -3.87164 0
M  V30 3297 H 303.502 -0.51181 -4.01451 0
M  V30 3298 H 300.257 -2.53095 -4.003 0
M  V30 3299 H 300.681 -5.11646 -4.43337 0
M  V30 3300 H 305.323 -2.36565 -3.50424 0
M  V30 3301 H 303.041 -6.70136 -4.51601 0
M  V30 3302 H 306.627 -4.45363 -3.74356 0
M  V30 3303 H 305.507 -6.59375 -4.24493 0
M  V30 3304 N 303.011 1.40521 -0.713556 0
M  V30 3305 C 304.236 2.05759 -0.26035 0
M  V30 3306 C 304.661 1.53403 1.08854 0
M  V30 3307 O 304.019 0.668535 1.68524 0
M  V30 3308 C 304.067 3.59745 -0.248122 0
M  V30 3309 O 303.171 4.05123 0.77131 0
M  V30 3310 H 302.512 0.652564 -0.122703 0
M  V30 3311 H 305.042 1.79958 -0.973467 0
M  V30 3312 H 305.052 4.07911 -0.0851129 0
M  V30 3313 H 303.727 3.97218 -1.2325 0
M  V30 3314 H 302.304 3.68422 0.57619 0
M  V30 3315 N 304.489 0.459591 1.5075 0
M  V30 3316 C 305.738 -0.100971 2.01447 0
M  V30 3317 C 306.051 -1.41816 1.34713 0
M  V30 3318 O 307.257 -2.06299 1.76502 0
M  V30 3319 C 305.713 -0.23047 3.59161 0
M  V30 3320 C 305.321 1.0776 4.34847 0
M  V30 3321 C 307.065 -0.743608 4.17936 0
M  V30 3322 C 304.972 0.91253 5.84317 0
M  V30 3323 H 303.902 -0.0415102 0.752856 0
M  V30 3324 H 306.553 0.592742 1.73663 0
M  V30 3325 H 304.935 -0.987703 3.83485 0
M  V30 3326 H 306.109 1.8449 4.22256 0
M  V30 3327 H 304.424 1.52097 3.87628 0
M  V30 3328 H 307.021 -0.883959 5.27343 0
M  V30 3329 H 307.364 -1.73196 3.78562 0
M  V30 3330 H 307.897 -0.04408 3.97776 0
M  V30 3331 H 304.636 1.87391 6.28144 0
M  V30 3332 H 304.156 0.185422 5.99513 0
M  V30 3333 H 305.835 0.574547 6.44444 0
M  V30 3334 N 305.967 -1.56429 0.191757 0
M  V30 3335 C 307.215 -1.97095 -0.447006 0
M  V30 3336 C 307.536 -1.07967 -1.62383 0
M  V30 3337 O 306.806 -0.150248 -1.95323 0
M  V30 3338 H 305.386 -0.727832 -0.168135 0
M  V30 3339 H 308.048 -1.92911 0.27771 0
M  V30 3340 H 307.144 -3.01848 -0.793371 0
M  V30 3341 N 307.445 0.0818655 -1.57387 0
M  V30 3342 C 308.691 0.784074 -1.8703 0
M  V30 3343 C 309.024 1.77729 -0.782689 0
M  V30 3344 O 308.299 1.93384 0.208051 0
M  V30 3345 C 308.582 1.50105 -3.27323 0
M  V30 3346 C 308.435 0.524925 -4.46727 0
M  V30 3347 C 309.754 2.44843 -3.65705 0
M  V30 3348 H 306.873 0.283582 -0.680257 0
M  V30 3349 H 309.515 0.0474352 -1.89941 0
M  V30 3350 H 307.665 2.12897 -3.24972 0
M  V30 3351 H 309.337 -0.0970111 -4.61198 0
M  V30 3352 H 307.58 -0.160606 -4.33503 0
M  V30 3353 H 308.251 1.064 -5.41648 0
M  V30 3354 H 310.727 1.92135 -3.69085 0
M  V30 3355 H 309.603 2.92018 -4.64776 0
M  V30 3356 H 309.864 3.29197 -2.95096 0
M  V30 3357 N 308.923 1.53595 0.353017 0
M  V30 3358 C 310.151 1.74311 1.1146 0
M  V30 3359 C 310.566 0.477854 1.82653 0
M  V30 3360 O 309.923 -0.549977 1.74016 0
M  V30 3361 C 309.974 2.91694 2.13534 0
M  V30 3362 O 309.695 4.13325 1.45238 0
M  V30 3363 C 311.196 3.24384 3.02142 0
M  V30 3364 H 308.416 0.582669 0.332773 0
M  V30 3365 H 310.96 2.00386 0.408107 0
M  V30 3366 H 309.115 2.67977 2.79763 0
M  V30 3367 H 309.529 4.79148 2.13349 0
M  V30 3368 H 311.003 4.09893 3.69718 0
M  V30 3369 H 311.48 2.40282 3.67643 0
M  V30 3370 H 312.086 3.50073 2.41514 0
M  V30 3371 N 310.401 -0.613514 1.45168 0
M  V30 3372 C 311.648 -1.37268 1.48875 0
M  V30 3373 C 311.976 -1.94077 0.128161 0
M  V30 3374 O 311.231 -1.75178 -0.872416 0
M  V30 3375 C 311.53 -2.54347 2.51083 0
M  V30 3376 C 311.196 -2.1572 3.95949 0
M  V30 3377 C 309.858 -2.04899 4.35396 0
M  V30 3378 C 312.21 -1.85485 4.87078 0
M  V30 3379 C 309.538 -1.62057 5.63875 0
M  V30 3380 C 311.89 -1.4413 6.15962 0
M  V30 3381 C 310.554 -1.31863 6.54346 0
M  V30 3382 H 309.824 -0.502299 0.544773 0
M  V30 3383 H 312.471 -0.694021 1.78481 0
M  V30 3384 H 310.776 -3.27524 2.15024 0
M  V30 3385 H 312.473 -3.12577 2.51191 0
M  V30 3386 H 309.063 -2.25066 3.64751 0
M  V30 3387 H 313.247 -1.92745 4.57343 0
M  V30 3388 H 308.503 -1.51177 5.92415 0
M  V30 3389 H 312.677 -1.19778 6.86022 0
M  V30 3390 H 310.304 -0.984392 7.538 0
M  V30 3391 N 311.879 -1.3236 -0.855495 0
M  V30 3392 C 313.109 -1.25688 -1.6397 0
M  V30 3393 C 313.517 0.177592 -1.88365 0
M  V30 3394 O 312.86 1.12485 -1.45234 0
M  V30 3395 C 312.922 -1.94602 -3.02275 0
M  V30 3396 C 312.586 -3.43937 -3.00926 0
M  V30 3397 C 313.583 -4.39435 -2.77835 0
M  V30 3398 C 311.268 -3.85858 -3.21588 0
M  V30 3399 C 313.262 -5.74829 -2.75409 0
M  V30 3400 C 310.949 -5.21361 -3.18789 0
M  V30 3401 C 311.947 -6.15658 -2.95727 0
M  V30 3402 O 311.635 -7.48681 -2.928 0
M  V30 3403 H 311.367 -0.434972 -0.51747 0
M  V30 3404 H 313.921 -1.75023 -1.075 0
M  V30 3405 H 312.151 -1.39836 -3.60531 0
M  V30 3406 H 313.84 -1.81651 -3.62985 0
M  V30 3407 H 314.606 -4.08374 -2.6164 0
M  V30 3408 H 310.485 -3.12883 -3.38564 0
M  V30 3409 H 314.029 -6.48404 -2.57328 0
M  V30 3410 H 309.926 -5.52052 -3.34528 0
M  V30 3411 H 310.694 -7.5803 -3.0876 0
M  V30 3412 N 313.357 1.07166 -1.15556 0
M  V30 3413 C 314.307 2.12649 -0.82247 0
M  V30 3414 C 315.291 1.59725 0.194129 0
M  V30 3415 O 316.483 1.76999 -0.00540402 0
M  V30 3416 C 313.612 3.41847 -0.315572 0
M  V30 3417 C 312.698 4.0162 -1.36244 0
M  V30 3418 N 313.089 4.35625 -2.5703 0
M  V30 3419 C 311.387 4.29114 -1.21562 0
M  V30 3420 C 312.088 4.83017 -3.24144 0
M  V30 3421 N 311.064 4.81906 -2.51531 0
M  V30 3422 H 314.866 2.36776 -1.74111 0
M  V30 3423 H 312.38 1.24622 -1.0413 0
M  V30 3424 H 314.377 4.16859 -0.0585855 0
M  V30 3425 H 313.037 3.19163 0.597105 0
M  V30 3426 H 314.048 4.26253 -2.94158 0
M  V30 3427 H 310.725 4.15919 -0.362988 0
M  V30 3428 H 312.115 5.18605 -4.27198 0
M  V30 3429 N 314.835 0.952656 1.25548 0
M  V30 3430 C 315.798 0.475794 2.24207 0
M  V30 3431 C 316.798 -0.419428 1.55234 0
M  V30 3432 O 317.988 -0.216994 1.72843 0
M  V30 3433 C 315.12 -0.312814 3.39462 0
M  V30 3434 H 316.313 1.34779 2.67908 0
M  V30 3435 H 313.866 0.735739 1.37901 0
M  V30 3436 H 314.601 -1.20257 3.01179 0
M  V30 3437 H 314.386 0.329404 3.90714 0
M  V30 3438 H 315.876 -0.635986 4.12729 0
M  V30 3439 N 316.313 -1.40141 0.720998 0
M  V30 3440 C 317.276 -2.29058 0.0805834 0
M  V30 3441 C 318.276 -1.45632 -0.681758 0
M  V30 3442 O 319.466 -1.6648 -0.512856 0
M  V30 3443 C 316.598 -3.28925 -0.895593 0
M  V30 3444 H 317.791 -2.87191 0.863793 0
M  V30 3445 H 315.344 -1.48553 0.485975 0
M  V30 3446 H 316.079 -2.75822 -1.70566 0
M  V30 3447 H 315.864 -3.90519 -0.351766 0
M  V30 3448 H 317.354 -3.95494 -1.34069 0
M  V30 3449 N 317.792 -0.46758 -1.50504 0
M  V30 3450 C 319.02 0.0864133 -2.06719 0
M  V30 3451 C 319.435 1.33819 -1.33184 0
M  V30 3452 O 318.792 1.78061 -0.400083 0
M  V30 3453 C 318.843 0.378079 -3.59517 0
M  V30 3454 O 318.564 -0.824044 -4.3028 0
M  V30 3455 C 320.065 0.979426 -4.32345 0
M  V30 3456 H 317.285 -0.00551697 -0.670977 0
M  V30 3457 H 319.829 -0.655354 -1.93715 0
M  V30 3458 H 317.984 1.06977 -3.72337 0
M  V30 3459 H 318.398 -0.566518 -5.21432 0
M  V30 3460 H 319.872 1.1333 -5.40241 0
M  V30 3461 H 320.349 1.9686 -3.9261 0
M  V30 3462 H 320.955 0.326216 -4.24047 0
M  V30 3463 N 319.27 1.56325 -0.20005 0
M  V30 3464 C 320.518 1.97329 0.436547 0
M  V30 3465 C 320.839 1.08826 1.61808 0
M  V30 3466 O 320.109 0.160604 1.95241 0
M  V30 3467 H 318.689 0.728714 0.164272 0
M  V30 3468 H 321.351 1.92761 -0.287937 0
M  V30 3469 H 320.447 3.02264 0.777353 0
M  V30 3470 N 320.748 -0.0735177 1.57428 0
M  V30 3471 C 321.973 -0.789787 1.91774 0
M  V30 3472 C 322.398 -1.70413 0.796306 0
M  V30 3473 O 321.756 -1.79555 -0.250961 0
M  V30 3474 C 321.804 -1.5609 3.25067 0
M  V30 3475 O 320.908 -2.67144 3.14178 0
M  V30 3476 H 320.249 -0.215582 0.628029 0
M  V30 3477 H 322.779 -0.0422781 2.04556 0
M  V30 3478 H 322.789 -1.94052 3.58898 0
M  V30 3479 H 321.464 -0.890015 4.06265 0
M  V30 3480 H 320.041 -2.32052 2.91901 0
M  V30 3481 N 322.226 -1.5378 -0.344866 0
M  V30 3482 C 323.156 -1.84662 -1.42906 0
M  V30 3483 C 324.137 -0.701648 -1.54955 0
M  V30 3484 O 325.322 -0.953438 -1.69184 0
M  V30 3485 C 322.452 -2.05503 -2.79974 0
M  V30 3486 C 321.406 -3.21318 -2.82734 0
M  V30 3487 C 320.732 -3.2749 -4.22675 0
M  V30 3488 C 322.032 -4.59456 -2.48389 0
M  V30 3489 H 323.726 -2.75461 -1.17311 0
M  V30 3490 H 321.272 -1.32542 -0.562896 0
M  V30 3491 H 323.225 -2.25691 -3.55867 0
M  V30 3492 H 321.949 -1.11434 -3.07002 0
M  V30 3493 H 320.608 -3.00984 -2.09294 0
M  V30 3494 H 320.256 -2.31019 -4.4681 0
M  V30 3495 H 319.956 -4.05316 -4.25433 0
M  V30 3496 H 321.48 -3.49887 -5.00412 0
M  V30 3497 H 322.894 -4.79667 -3.13995 0
M  V30 3498 H 321.291 -5.39675 -2.62432 0
M  V30 3499 H 322.361 -4.63155 -1.4358 0
M  V30 3500 N 323.704 0.605807 -1.45491 0
M  V30 3501 C 325.115 1.18777 -1.44045 0
M  V30 3502 C 325.466 1.95471 -0.169001 0
M  V30 3503 O 324.591 2.0374 0.729324 0
M  V30 3504 C 325.186 2.16064 -2.60963 0
M  V30 3505 C 323.745 2.69633 -2.62631 0
M  V30 3506 C 322.892 1.45072 -2.36325 0
M  V30 3507 H 325.843 0.395017 -1.53705 0
M  V30 3508 H 325.864 2.9913 -2.35163 0
M  V30 3509 H 325.376 1.60217 -3.53486 0
M  V30 3510 H 323.477 3.29414 -1.74119 0
M  V30 3511 H 323.59 3.13944 -3.61906 0
M  V30 3512 H 321.954 1.74089 -1.85917 0
M  V30 3513 H 322.737 0.910899 -3.30995 0
M  V30 3514 N 325.182 1.32811 0.848464 0
M  V30 3515 C 326.429 1.23724 1.60308 0
M  V30 3516 C 326.757 -0.1994 1.93475 0
M  V30 3517 O 326.012 -1.15406 1.5805 0
M  V30 3518 C 326.311 2.04831 2.92881 0
M  V30 3519 C 325.977 3.54125 2.79117 0
M  V30 3520 C 324.639 3.94829 2.7507 0
M  V30 3521 C 326.991 4.49036 2.64606 0
M  V30 3522 C 324.319 5.28675 2.544 0
M  V30 3523 C 326.671 5.83033 2.4547 0
M  V30 3524 C 325.335 6.22931 2.39819 0
M  V30 3525 H 324.605 0.452737 0.586609 0
M  V30 3526 H 327.252 1.64301 0.983743 0
M  V30 3527 H 325.557 1.57001 3.58968 0
M  V30 3528 H 327.254 1.95164 3.50303 0
M  V30 3529 H 323.844 3.21801 2.83094 0
M  V30 3530 H 328.028 4.18505 2.66772 0
M  V30 3531 H 323.284 5.58637 2.48465 0
M  V30 3532 H 327.458 6.56186 2.33222 0
M  V30 3533 H 325.085 7.26584 2.23562 0
M  V30 3534 N 326.66 -1.06551 1.16123 0
M  V30 3535 C 328.076 -1.3142 0.905585 0
M  V30 3536 C 328.276 -1.96571 -0.442964 0
M  V30 3537 O 327.332 -2.23068 -1.18308 0
M  V30 3538 C 328.645 -2.19741 2.05267 0
M  V30 3539 C 330.193 -2.33165 2.08813 0
M  V30 3540 C 330.668 -3.24838 3.22868 0
M  V30 3541 N 332.159 -3.32421 3.22568 0
M  V30 3542 C 332.894 -4.0344 4.0746 0
M  V30 3543 N 332.39 -4.77003 5.02434 0
M  V30 3544 N 334.183 -3.99464 3.95456 0
M  V30 3545 H 326.334 -0.626548 2.02949 0
M  V30 3546 H 328.597 -0.338777 0.8854 0
M  V30 3547 H 328.303 -1.79142 3.02657 0
M  V30 3548 H 328.177 -3.20313 1.99198 0
M  V30 3549 H 330.564 -2.73013 1.12018 0
M  V30 3550 H 330.645 -1.3227 2.18948 0
M  V30 3551 H 330.289 -2.85708 4.19921 0
M  V30 3552 H 330.219 -4.25707 3.0997 0
M  V30 3553 H 332.71 -2.79994 2.53795 0
M  V30 3554 H 333.023 -5.28712 5.63634 0
M  V30 3555 H 331.368 -4.75992 5.06415 0
M  V30 3556 H 334.559 -3.4111 3.20564 0
M  V30 3557 H 334.732 -4.54544 4.61837 0
M  V30 3558 N 328.138 -0.959301 -1.25041 0
M  V30 3559 C 329.549 -0.65667 -1.74771 0
M  V30 3560 C 329.9 0.827852 -1.77879 0
M  V30 3561 O 329.025 1.64783 -1.40269 0
M  V30 3562 C 329.62 -1.1853 -3.1739 0
M  V30 3563 C 328.179 -0.932734 -3.6466 0
M  V30 3564 C 327.326 -1.32558 -2.43564 0
M  V30 3565 H 330.277 -1.13558 -1.10862 0
M  V30 3566 H 330.298 -0.547582 -3.76539 0
M  V30 3567 H 329.81 -2.26576 -3.15095 0
M  V30 3568 H 327.911 0.13257 -3.72364 0
M  V30 3569 H 328.024 -1.57248 -4.52559 0
M  V30 3570 H 326.388 -0.743956 -2.43593 0
M  V30 3571 H 327.171 -2.41537 -2.43957 0
M  V30 3572 N 329.616 1.39756 -0.72842 0
M  V30 3573 C 330.863 2.00645 -0.273487 0
M  V30 3574 C 331.191 1.57786 1.13727 0
M  V30 3575 O 330.446 0.794886 1.7883 0
M  V30 3576 C 330.745 3.56002 -0.315776 0
M  V30 3577 C 330.411 4.18489 -1.67863 0
M  V30 3578 C 329.073 4.3527 -2.05166 0
M  V30 3579 C 331.425 4.53219 -2.57375 0
M  V30 3580 C 328.753 4.84069 -3.31503 0
M  V30 3581 C 331.105 5.03423 -3.83077 0
M  V30 3582 C 329.769 5.18413 -4.20481 0
M  V30 3583 H 329.039 0.734211 -0.100076 0
M  V30 3584 H 331.686 1.6718 -0.933972 0
M  V30 3585 H 329.991 3.89452 0.428285 0
M  V30 3586 H 331.688 4.00963 0.0542575 0
M  V30 3587 H 328.278 4.05824 -1.37858 0
M  V30 3588 H 332.462 4.39878 -2.29827 0
M  V30 3589 H 327.718 4.93859 -3.60435 0
M  V30 3590 H 331.892 5.2927 -4.52599 0
M  V30 3591 H 329.519 5.55987 -5.18443 0
M  V30 3592 N 331.094 0.475555 1.50254 0
M  V30 3593 C 332.004 -0.321501 2.32387 0
M  V30 3594 C 333.02 -0.991755 1.42969 0
M  V30 3595 O 334.196 -0.978747 1.76018 0
M  V30 3596 C 331.261 -1.38667 3.17762 0
M  V30 3597 C 330.322 -0.732538 4.23004 0
M  V30 3598 C 329.555 -1.74695 5.04299 0
M  V30 3599 O 329.778 -2.97399 4.86734 0
M  V30 3600 O 328.712 -1.31631 5.8733 0
M  V30 3601 H 332.538 0.350071 3.01676 0
M  V30 3602 H 330.123 0.237321 1.47503 0
M  V30 3603 H 332.005 -2.00354 3.70724 0
M  V30 3604 H 330.68 -2.04163 2.51196 0
M  V30 3605 H 329.587 -0.0765902 3.74022 0
M  V30 3606 H 330.92 -0.120452 4.92053 0
M  V30 3607 N 332.573 -1.56217 0.208337 0
M  V30 3608 C 333.821 -1.97558 -0.426076 0
M  V30 3609 C 334.142 -1.09683 -1.61229 0
M  V30 3610 O 333.412 -0.170956 -1.95153 0
M  V30 3611 H 331.992 -0.729575 -0.160405 0
M  V30 3612 H 334.654 -1.92606 0.298155 0
M  V30 3613 H 333.75 -3.02672 -0.761312 0
M  V30 3614 N 334.051 0.0651679 -1.57465 0
M  V30 3615 C 335.462 0.616213 -1.76238 0
M  V30 3616 C 335.813 1.7756 -0.834689 0
M  V30 3617 O 334.938 2.1639 -0.0204156 0
M  V30 3618 C 335.533 1.12462 -3.1959 0
M  V30 3619 C 334.092 1.62147 -3.39684 0
M  V30 3620 C 333.239 0.543739 -2.71917 0
M  V30 3621 H 336.19 -0.161022 -1.57881 0
M  V30 3622 H 336.211 1.99324 -3.24114 0
M  V30 3623 H 335.723 0.280592 -3.87084 0
M  V30 3624 H 333.824 2.48854 -2.77313 0
M  V30 3625 H 333.937 1.69385 -4.48158 0
M  V30 3626 H 332.301 0.990352 -2.34657 0
M  V30 3627 H 333.084 -0.290216 -3.42071 0
M  V30 3628 N 335.529 1.53961 0.336706 0
M  V30 3629 C 336.945 1.44378 0.680241 0
M  V30 3630 C 337.145 0.606034 1.9217 0
M  V30 3631 O 336.201 0.099688 2.52303 0
M  V30 3632 C 337.514 2.87945 0.8665 0
M  V30 3633 C 339.062 2.97763 0.964682 0
M  V30 3634 C 339.537 4.42453 1.18321 0
M  V30 3635 N 341.028 4.46008 1.25025 0
M  V30 3636 C 341.763 5.55102 1.43697 0
M  V30 3637 N 341.259 6.7419 1.59498 0
M  V30 3638 N 343.052 5.42727 1.463 0
M  V30 3639 H 335.203 2.06918 -0.479455 0
M  V30 3640 H 337.466 0.935634 -0.152619 0
M  V30 3641 H 337.172 3.51691 0.0256937 0
M  V30 3642 H 337.046 3.33293 1.76623 0
M  V30 3643 H 339.433 2.34153 1.796 0
M  V30 3644 H 339.514 2.55766 0.041708 0
M  V30 3645 H 339.158 5.06645 0.356788 0
M  V30 3646 H 339.088 4.82048 2.11985 0
M  V30 3647 H 341.579 3.60196 1.14312 0
M  V30 3648 H 341.892 7.53095 1.734 0
M  V30 3649 H 340.237 6.77123 1.56621 0
M  V30 3650 H 343.428 4.48647 1.33543 0
M  V30 3651 H 343.601 6.27806 1.6051 0
M  V30 3652 N 337.007 -0.598083 1.45811 0
M  V30 3653 C 338.423 -0.919847 1.30426 0
M  V30 3654 C 338.623 -1.99759 0.264303 0
M  V30 3655 O 337.679 -2.50221 -0.338472 0
M  V30 3656 C 338.992 -1.35176 2.68603 0
M  V30 3657 C 340.54 -1.46546 2.76574 0
M  V30 3658 C 341.015 -1.9311 4.15298 0
M  V30 3659 N 342.506 -2.00328 4.1764 0
M  V30 3660 C 343.241 -2.37599 5.21856 0
M  V30 3661 N 342.737 -2.73771 6.36413 0
M  V30 3662 N 344.53 -2.38021 5.09218 0
M  V30 3663 H 336.681 0.114111 2.12093 0
M  V30 3664 H 338.944 -0.0116121 0.947929 0
M  V30 3665 H 338.65 -0.633969 3.45939 0
M  V30 3666 H 338.524 -2.3164 2.97696 0
M  V30 3667 H 340.911 -2.17415 1.99537 0
M  V30 3668 H 340.992 -0.483727 2.51185 0
M  V30 3669 H 340.636 -1.22824 4.92825 0
M  V30 3670 H 340.566 -2.92213 4.38086 0
M  V30 3671 H 343.057 -1.74925 3.34977 0
M  V30 3672 H 343.37 -3.0112 7.11721 0
M  V30 3673 H 341.715 -2.71445 6.39799 0
M  V30 3674 H 344.906 -2.09174 4.18765 0
M  V30 3675 H 345.079 -2.66741 5.90554 0
M  V30 3676 N 338.485 -1.33259 -0.841409 0
M  V30 3677 C 339.433 -1.23279 -1.97244 0
M  V30 3678 C 340.427 -0.134706 -1.68864 0
M  V30 3679 O 341.633 -0.298501 -1.77508 0
M  V30 3680 H 338.008 -0.382497 -0.647457 0
M  V30 3681 H 339.979 -2.18906 -2.02787 0
M  V30 3682 C 338.728 -0.986268 -3.33419 0
M  V30 3683 H 338.051 -1.82347 -3.55794 0
M  V30 3684 H 339.491 -0.956728 -4.13065 0
M  V30 3685 C 337.95 0.310842 -3.35463 0
M  V30 3686 O 338.48 1.31838 -3.79449 0
M  V30 3687 N 336.686 0.337485 -2.88634 0
M  V30 3688 H 336.233 -0.482967 -2.53032 0
M  V30 3689 H 336.191 1.20518 -2.90384 0
M  V30 3690 N 339.963 1.05934 -1.16686 0
M  V30 3691 C 340.91 2.13499 -0.876748 0
M  V30 3692 C 341.88 1.65162 0.176299 0
M  V30 3693 O 343.065 1.90757 0.0407143 0
M  V30 3694 C 340.205 3.42912 -0.387967 0
M  V30 3695 C 339.318 4.04964 -1.50426 0
M  V30 3696 C 338.453 5.22266 -0.970125 0
M  V30 3697 C 337.492 5.76309 -2.06238 0
M  V30 3698 N 336.629 6.84922 -1.54356 0
M  V30 3699 H 341.469 2.37654 -1.7979 0
M  V30 3700 H 339.006 1.16598 -0.896843 0
M  V30 3701 H 340.964 4.17111 -0.086186 0
M  V30 3702 H 339.594 3.18963 0.496235 0
M  V30 3703 H 338.646 3.28277 -1.92193 0
M  V30 3704 H 339.958 4.41122 -2.32836 0
M  V30 3705 H 339.112 6.03506 -0.621743 0
M  V30 3706 H 337.851 4.87564 -0.115377 0
M  V30 3707 H 336.856 4.93704 -2.41942 0
M  V30 3708 H 338.081 6.13062 -2.92115 0
M  V30 3709 H 336.027 6.52131 -0.711406 0
M  V30 3710 H 335.944 7.20043 -2.30379 0
M  V30 3711 H 337.212 7.69832 -1.22387 0
M  V30 3712 N 341.441 0.965919 1.2453 0
M  V30 3713 C 342.351 0.502154 2.29163 0
M  V30 3714 C 343.367 -0.436017 1.68448 0
M  V30 3715 O 344.543 -0.309497 1.99008 0
M  V30 3716 C 341.608 -0.201956 3.46111 0
M  V30 3717 C 340.669 0.775821 4.22232 0
M  V30 3718 C 339.902 0.105217 5.33596 0
M  V30 3719 O 340.125 -1.10683 5.59558 0
M  V30 3720 O 339.059 0.796475 5.96607 0
M  V30 3721 H 342.885 1.37194 2.70946 0
M  V30 3722 H 340.47 0.732875 1.30189 0
M  V30 3723 H 342.352 -0.597564 4.17142 0
M  V30 3724 H 341.027 -1.04673 3.06309 0
M  V30 3725 H 339.934 1.22185 3.53584 0
M  V30 3726 H 341.267 1.58896 4.65846 0
M  V30 3727 N 342.919 -1.39368 0.735821 0
M  V30 3728 C 344.165 -2.00794 0.284544 0
M  V30 3729 C 344.498 -1.58255 -1.12557 0
M  V30 3730 O 343.773 -0.811819 -1.76748 0
M  V30 3731 C 344.056 -3.58011 0.387337 0
M  V30 3732 C 343.909 -4.10566 1.83728 0
M  V30 3733 C 345.228 -4.395 -0.22975 0
M  V30 3734 H 342.347 -0.729501 0.104866 0
M  V30 3735 H 344.989 -1.65564 0.93213 0
M  V30 3736 H 343.139 -3.88154 -0.164006 0
M  V30 3737 H 344.811 -3.91139 2.44556 0
M  V30 3738 H 343.054 -3.64095 2.35833 0
M  V30 3739 H 343.725 -5.19702 1.86047 0
M  V30 3740 H 346.201 -4.15406 0.240257 0
M  V30 3741 H 345.077 -5.48752 -0.127485 0
M  V30 3742 H 345.338 -4.22062 -1.3159 0
M  V30 3743 N 344.397 -0.483516 -1.5 0
M  V30 3744 C 345.33 0.350427 -2.25493 0
M  V30 3745 C 346.308 0.985549 -1.29328 0
M  V30 3746 O 347.492 1.01906 -1.58579 0
M  V30 3747 C 344.619 1.49202 -3.04066 0
M  V30 3748 C 343.665 0.973036 -4.15252 0
M  V30 3749 S 344.498 -0.122237 -5.3536 0
M  V30 3750 C 345.654 1.02294 -6.17484 0
M  V30 3751 H 345.887 -0.290381 -2.95878 0
M  V30 3752 H 343.42 -0.268562 -1.52046 0
M  V30 3753 H 345.378 2.14623 -3.49925 0
M  V30 3754 H 344.039 2.10438 -2.33183 0
M  V30 3755 H 343.232 1.82804 -4.69679 0
M  V30 3756 H 342.834 0.396335 -3.71894 0
M  V30 3757 H 345.126 1.93195 -6.49371 0
M  V30 3758 H 346.069 0.517664 -7.06205 0
M  V30 3759 H 346.477 1.28238 -5.49741 0
M  V30 3760 N 345.875 1.56104 -0.216619 0
M  V30 3761 C 347.105 2.02269 0.420802 0
M  V30 3762 C 347.513 1.09575 1.5424 0
M  V30 3763 O 346.856 0.0967308 1.83445 0
M  V30 3764 C 346.918 3.44784 1.01806 0
M  V30 3765 C 346.582 4.56988 0.0325154 0
M  V30 3766 C 347.579 5.14225 -0.766055 0
M  V30 3767 C 345.264 5.02228 -0.0848092 0
M  V30 3768 C 347.258 6.15169 -1.6687 0
M  V30 3769 C 344.945 6.03011 -0.990994 0
M  V30 3770 C 345.943 6.59357 -1.78149 0
M  V30 3771 O 345.631 7.58179 -2.67245 0
M  V30 3772 H 345.363 0.667353 0.107776 0
M  V30 3773 H 347.917 2.02747 -0.329034 0
M  V30 3774 H 346.147 3.41359 1.81689 0
M  V30 3775 H 347.836 3.74626 1.56237 0
M  V30 3776 H 348.602 4.80126 -0.685836 0
M  V30 3777 H 344.481 4.58054 0.520349 0
M  V30 3778 H 348.025 6.59076 -2.28615 0
M  V30 3779 H 343.922 6.36532 -1.07225 0
M  V30 3780 H 344.69 7.75682 -2.61265 0
M  V30 3781 N 347.353 -0.0568162 1.57498 0
M  V30 3782 C 348.3 -1.06591 2.04712 0
M  V30 3783 C 349.27 -1.3758 0.930644 0
M  V30 3784 O 350.455 -1.48392 1.19935 0
M  V30 3785 C 347.595 -2.3701 2.50839 0
M  V30 3786 C 346.708 -2.12421 3.76167 0
M  V30 3787 C 345.843 -3.36511 4.11015 0
M  V30 3788 C 344.882 -3.07353 5.2934 0
M  V30 3789 N 344.019 -4.23816 5.59754 0
M  V30 3790 H 348.859 -0.65631 2.90683 0
M  V30 3791 H 346.396 -0.312481 1.43743 0
M  V30 3792 H 348.354 -3.13175 2.7564 0
M  V30 3793 H 346.984 -2.75744 1.67825 0
M  V30 3794 H 346.036 -1.2688 3.58616 0
M  V30 3795 H 347.348 -1.86894 4.62463 0
M  V30 3796 H 346.502 -4.21062 4.36797 0
M  V30 3797 H 345.241 -3.65128 3.23315 0
M  V30 3798 H 344.246 -2.212 5.03339 0
M  V30 3799 H 345.471 -2.80043 6.1867 0
M  V30 3800 H 343.417 -4.52436 4.75014 0
M  V30 3801 H 343.334 -4.01614 6.40501 0
M  V30 3802 H 344.602 -5.0932 5.90096 0
M  V30 3803 N 348.832 -1.54138 -0.328536 0
M  V30 3804 C 350.081 -1.71318 -1.06456 0
M  V30 3805 C 350.394 -0.491109 -1.89334 0
M  V30 3806 O 351.6 -0.54416 -2.65991 0
M  V30 3807 C 350.056 -3.03 -1.94214 0
M  V30 3808 C 349.664 -4.32595 -1.16471 0
M  V30 3809 C 351.408 -3.29544 -2.67583 0
M  V30 3810 C 349.315 -5.55341 -2.03347 0
M  V30 3811 H 348.245 -0.638429 -0.401155 0
M  V30 3812 H 350.896 -1.80633 -0.323106 0
M  V30 3813 H 349.278 -2.87579 -2.72239 0
M  V30 3814 H 350.452 -4.58766 -0.432525 0
M  V30 3815 H 348.767 -4.12777 -0.548063 0
M  V30 3816 H 351.364 -4.18444 -3.3288 0
M  V30 3817 H 351.707 -2.47206 -3.34955 0
M  V30 3818 H 352.24 -3.45809 -1.96623 0
M  V30 3819 H 348.979 -6.40268 -1.40491 0
M  V30 3820 H 348.499 -5.33397 -2.74313 0
M  V30 3821 H 350.178 -5.91557 -2.62049 0
M  V30 3822 N 350.31 0.590341 -1.46126 0
M  V30 3823 C 351.559 1.34499 -1.50309 0
M  V30 3824 C 351.872 1.94977 -0.156021 0
M  V30 3825 O 353.078 2.71395 -0.0756037 0
M  V30 3826 C 351.534 2.43723 -2.64815 0
M  V30 3827 C 351.142 1.89582 -4.0591 0
M  V30 3828 C 352.886 3.20579 -2.78262 0
M  V30 3829 C 350.793 2.9639 -5.11769 0
M  V30 3830 H 349.723 0.505593 -0.559368 0
M  V30 3831 H 352.374 0.630848 -1.72315 0
M  V30 3832 H 350.756 3.17902 -2.36124 0
M  V30 3833 H 351.93 1.21997 -4.44357 0
M  V30 3834 H 350.245 1.25418 -3.97063 0
M  V30 3835 H 352.842 4.00276 -3.54519 0
M  V30 3836 H 353.185 3.72684 -1.85505 0
M  V30 3837 H 353.718 2.53505 -3.06562 0
M  V30 3838 H 350.457 2.49181 -6.06291 0
M  V30 3839 H 349.977 3.62487 -4.77873 0
M  V30 3840 H 351.656 3.60474 -5.37278 0
M  V30 3841 N 351.788 1.33704 0.83433 0
M  V30 3842 C 353.016 1.28467 1.62185 0
M  V30 3843 C 353.431 -0.143526 1.88254 0
M  V30 3844 O 352.788 -1.08709 1.4659 0
M  V30 3845 C 352.839 2.06174 2.96942 0
M  V30 3846 O 352.56 3.43422 2.72016 0
M  V30 3847 C 354.061 2.08201 3.91366 0
M  V30 3848 H 351.281 0.4424 0.504503 0
M  V30 3849 H 353.825 1.76145 1.03891 0
M  V30 3850 H 351.98 1.62167 3.51825 0
M  V30 3851 H 352.394 3.83453 3.57861 0
M  V30 3852 H 353.868 2.67017 4.83121 0
M  V30 3853 H 354.345 1.07343 4.2588 0
M  V30 3854 H 354.951 2.52246 3.42421 0
M  V30 3855 N 353.266 -1.05314 1.17247 0
M  V30 3856 C 354.514 -1.77941 0.958194 0
M  V30 3857 C 354.835 -1.88089 -0.514556 0
M  V30 3858 O 354.105 -1.39676 -1.37359 0
M  V30 3859 H 352.685 -0.659116 0.351533 0
M  V30 3860 H 355.347 -1.27166 1.47699 0
M  V30 3861 H 354.443 -2.79663 1.38546 0
M  V30 3862 N 354.744 -0.972509 -1.24016 0
M  V30 3863 C 355.691 -0.505969 -2.25186 0
M  V30 3864 C 356.661 0.451009 -1.5986 0
M  V30 3865 O 357.846 0.360307 -1.87367 0
M  V30 3866 C 354.986 0.193089 -3.44559 0
M  V30 3867 C 354.099 -0.803222 -4.24467 0
M  V30 3868 C 353.234 -0.0797793 -5.3114 0
M  V30 3869 C 352.273 -1.06583 -6.02749 0
M  V30 3870 N 351.41 -0.372074 -7.01113 0
M  V30 3871 H 356.25 -1.37351 -2.64459 0
M  V30 3872 H 353.787 -0.688419 -1.29997 0
M  V30 3873 H 355.745 0.615125 -4.1264 0
M  V30 3874 H 354.375 1.02455 -3.06109 0
M  V30 3875 H 353.427 -1.34368 -3.55878 0
M  V30 3876 H 354.739 -1.55494 -4.73944 0
M  V30 3877 H 353.893 0.400015 -6.0538 0
M  V30 3878 H 352.632 0.704597 -4.82583 0
M  V30 3879 H 351.637 -1.55645 -5.27309 0
M  V30 3880 H 352.862 -1.85074 -6.53395 0
M  V30 3881 H 350.808 0.393238 -6.5482 0
M  V30 3882 H 350.725 -1.06258 -7.48495 0
M  V30 3883 H 351.993 0.0855932 -7.79453 0
M  V30 3884 N 356.222 1.38976 -0.743202 0
M  V30 3885 C 357.633 1.83123 -0.363732 0
M  V30 3886 C 357.984 1.6205 1.10609 0
M  V30 3887 O 357.109 1.11606 1.854 0
M  V30 3888 C 357.704 3.32439 -0.653408 0
M  V30 3889 C 356.263 3.74974 -0.327338 0
M  V30 3890 C 355.41 2.61878 -0.911875 0
M  V30 3891 H 358.361 1.27852 -0.940191 0
M  V30 3892 H 358.382 3.80432 0.0720031 0
M  V30 3893 H 357.894 3.47745 -1.72323 0
M  V30 3894 H 355.995 3.65252 0.736314 0
M  V30 3895 H 356.108 4.72106 -0.815631 0
M  V30 3896 H 354.472 2.52448 -0.337944 0
M  V30 3897 H 355.255 2.79987 -1.98651 0
M  V30 3898 N 357.7 0.491464 1.49741 0
M  V30 3899 C 358.925 -0.0557177 2.07325 0
M  V30 3900 C 359.35 -1.30925 1.35056 0
M  V30 3901 O 358.708 -1.76733 0.404365 0
M  V30 3902 C 358.756 -0.302074 3.59333 0
M  V30 3903 O 357.86 -1.37868 3.88672 0
M  V30 3904 H 357.201 0.0219956 0.663636 0
M  V30 3905 H 359.731 0.688352 1.92673 0
M  V30 3906 H 359.741 -0.536464 4.04458 0
M  V30 3907 H 358.416 0.61383 4.11345 0
M  V30 3908 H 356.993 -1.12999 3.55367 0
M  V30 3909 N 359.178 -1.55987 0.224894 0
M  V30 3910 C 360.426 -1.97998 -0.405099 0
M  V30 3911 C 360.747 -1.11387 -1.60056 0
M  V30 3912 O 360.017 -0.191645 -1.9496 0
M  V30 3913 H 358.597 -0.731235 -0.152658 0
M  V30 3914 H 361.259 -1.92279 0.318567 0
M  V30 3915 H 360.355 -3.03463 -0.729167 0
M  V30 3916 N 360.656 0.0484629 -1.57525 0
M  V30 3917 C 361.619 1.03956 -2.04269 0
M  V30 3918 C 362.619 1.30211 -0.943496 0
M  V30 3919 O 363.809 1.25539 -1.20771 0
M  V30 3920 C 360.941 2.37742 -2.44319 0
M  V30 3921 H 362.134 0.636182 -2.93075 0
M  V30 3922 H 359.687 0.294811 -1.53494 0
M  V30 3923 H 360.422 2.82866 -1.5861 0
M  V30 3924 H 360.207 2.20021 -3.24551 0
M  V30 3925 H 361.697 3.08936 -2.80978 0
M  V30 3926 N 362.134 1.5431 0.320358 0
M  V30 3927 C 363.383 1.7188 1.05546 0
M  V30 3928 C 363.696 0.501143 1.89071 0
M  V30 3929 O 364.902 0.558258 2.65699 0
M  V30 3930 C 363.358 3.04025 1.92605 0
M  V30 3931 C 362.966 4.33207 1.14176 0
M  V30 3932 C 364.71 3.30959 2.65832 0
M  V30 3933 C 362.617 5.56412 2.00399 0
M  V30 3934 H 361.547 0.640547 0.397763 0
M  V30 3935 H 364.198 1.80802 0.313522 0
M  V30 3936 H 362.58 2.89019 2.7071 0
M  V30 3937 H 363.754 4.58989 0.40819 0
M  V30 3938 H 362.069 4.13062 0.526165 0
M  V30 3939 H 364.666 4.20203 3.30656 0
M  V30 3940 H 365.009 2.48979 3.33639 0
M  V30 3941 H 365.542 3.46847 1.94787 0
M  V30 3942 H 362.281 6.41004 1.37094 0
M  V30 3943 H 361.801 5.34844 2.7148 0
M  V30 3944 H 363.48 5.92938 2.58908 0
M  V30 3945 N 363.613 -0.582584 1.46437 0
M  V30 3946 C 364.838 -1.37168 1.55563 0
M  V30 3947 C 365.263 -1.87061 0.19743 0
M  V30 3948 O 364.621 -1.61572 -0.822451 0
M  V30 3949 C 364.669 -2.53511 2.56446 0
M  V30 3950 O 363.773 -3.54953 2.09958 0
M  V30 3951 H 363.114 -0.408494 0.523477 0
M  V30 3952 H 365.644 -0.706646 1.9201 0
M  V30 3953 H 365.654 -3.00426 2.76058 0
M  V30 3954 H 364.329 -2.16549 3.55076 0
M  V30 3955 H 362.906 -3.14516 2.00334 0
M  V30 3956 N 365.091 -1.34144 -0.827227 0
M  V30 3957 C 366.339 -1.26009 -1.58007 0
M  V30 3958 C 366.66 0.170971 -1.94249 0
M  V30 3959 O 365.93 1.10256 -1.61927 0
M  V30 3960 H 364.51 -0.463414 -0.585881 0
M  V30 3961 H 367.172 -1.68005 -0.987951 0
M  V30 3962 H 366.268 -1.86187 -2.50481 0
M  V30 3963 N 366.569 1.04691 -1.17803 0
M  V30 3964 C 367.815 1.78045 -0.970969 0
M  V30 3965 C 368.148 1.87686 0.498751 0
M  V30 3966 O 367.423 1.38035 1.37027 0
M  V30 3967 C 367.706 3.2166 -1.61884 0
M  V30 3968 C 367.559 3.20001 -3.161 0
M  V30 3969 C 368.878 4.1962 -1.3269 0
M  V30 3970 H 365.997 0.64633 -0.354155 0
M  V30 3971 H 368.639 1.22333 -1.45378 0
M  V30 3972 H 366.789 3.69232 -1.20831 0
M  V30 3973 H 368.461 2.80467 -3.66246 0
M  V30 3974 H 366.704 2.58203 -3.48588 0
M  V30 3975 H 367.375 4.21386 -3.56564 0
M  V30 3976 H 369.851 3.80567 -1.68249 0
M  V30 3977 H 368.727 5.18339 -1.80599 0
M  V30 3978 H 368.988 4.414 -0.248622 0
M  V30 3979 N 368.047 0.979072 1.23499 0
M  V30 3980 C 368.979 0.476271 2.24197 0
M  V30 3981 C 369.992 -0.421166 1.57258 0
M  V30 3982 O 371.181 -0.225515 1.7707 0
M  V30 3983 C 368.281 -0.330503 3.37285 0
M  V30 3984 C 367.454 0.559744 4.33804 0
M  V30 3985 C 366.513 -0.192954 5.25846 0
M  V30 3986 O 365.539 0.416978 5.67671 0
M  V30 3987 N 366.741 -1.47932 5.61334 0
M  V30 3988 H 369.506 1.34211 2.67969 0
M  V30 3989 H 367.067 0.852189 1.37657 0
M  V30 3990 H 369.059 -0.842361 3.95836 0
M  V30 3991 H 367.629 -1.09734 2.92707 0
M  V30 3992 H 366.849 1.25245 3.73775 0
M  V30 3993 H 368.137 1.1665 4.95248 0
M  V30 3994 H 367.535 -1.9964 5.29302 0
M  V30 3995 H 366.092 -1.93664 6.22364 0
M  V30 3996 N 369.525 -1.3858 0.750561 0
M  V30 3997 C 370.472 -2.30483 0.120835 0
M  V30 3998 C 371.442 -1.50022 -0.712923 0
M  V30 3999 O 372.627 -1.78662 -0.669676 0
M  V30 4000 C 369.767 -3.36431 -0.768666 0
M  V30 4001 C 368.88 -4.31927 0.0793922 0
M  V30 4002 C 368.015 -5.24944 -0.81283 0
M  V30 4003 C 367.054 -6.12088 0.0390447 0
M  V30 4004 N 366.191 -6.97412 -0.809969 0
M  V30 4005 H 371.031 -2.83761 0.91015 0
M  V30 4006 H 368.568 -1.39707 0.460463 0
M  V30 4007 H 370.526 -3.96462 -1.29898 0
M  V30 4008 H 369.156 -2.8457 -1.5238 0
M  V30 4009 H 368.208 -3.73382 0.727303 0
M  V30 4010 H 369.52 -4.93319 0.737401 0
M  V30 4011 H 368.674 -5.90078 -1.41042 0
M  V30 4012 H 367.413 -4.63911 -1.50458 0
M  V30 4013 H 366.418 -5.45952 0.649328 0
M  V30 4014 H 367.643 -6.75189 0.727809 0
M  V30 4015 H 365.589 -6.38931 -1.48672 0
M  V30 4016 H 365.506 -7.55712 -0.208789 0
M  V30 4017 H 366.774 -7.66959 -1.39263 0
M  V30 4018 N 371.003 -0.499398 -1.49478 0
M  V30 4019 C 371.966 0.268838 -2.27618 0
M  V30 4020 C 372.966 0.895383 -1.33565 0
M  V30 4021 O 374.156 0.760164 -1.56739 0
M  V30 4022 C 371.288 1.38559 -3.11471 0
M  V30 4023 H 372.481 -0.416812 -2.96989 0
M  V30 4024 H 370.034 -0.254313 -1.54217 0
M  V30 4025 H 370.769 2.10544 -2.46661 0
M  V30 4026 H 370.554 0.941797 -3.80621 0
M  V30 4027 H 372.044 1.92678 -3.70493 0
M  V30 4028 N 372.481 1.55866 -0.233164 0
M  V30 4029 C 373.391 2.24431 0.683217 0
M  V30 4030 C 374.407 1.2558 1.2044 0
M  V30 4031 O 375.583 1.58422 1.24356 0
M  V30 4032 C 372.648 2.91979 1.86947 0
M  V30 4033 C 371.709 4.06204 1.38912 0
M  V30 4034 C 370.942 4.70522 2.51883 0
M  V30 4035 O 371.165 4.33865 3.70293 0
M  V30 4036 O 370.099 5.59296 2.22423 0
M  V30 4037 H 373.925 3.03426 0.129059 0
M  V30 4038 H 371.51 1.494 -0.0022283 0
M  V30 4039 H 373.392 3.34573 2.56201 0
M  V30 4040 H 372.067 2.15935 2.41151 0
M  V30 4041 H 370.974 3.68155 0.664259 0
M  V30 4042 H 372.307 4.84025 0.893328 0
M  V30 4043 N 373.959 -0.0401083 1.57549 0
M  V30 4044 C 374.907 -1.06264 2.06908 0
M  V30 4045 C 375.901 -1.38132 0.980608 0
M  V30 4046 O 377.107 -1.37167 1.16556 0
M  V30 4047 H 373.482 -0.360166 0.660139 0
M  V30 4048 H 375.453 -0.620445 2.91878 0
M  V30 4049 C 374.202 -2.35846 2.55483 0
M  V30 4050 H 373.525 -2.12183 3.38849 0
M  V30 4051 H 374.965 -3.05765 2.93741 0
M  V30 4052 C 373.424 -3.0404 1.45126 0
M  V30 4053 O 373.954 -3.93424 0.811216 0
M  V30 4054 N 372.16 -2.65184 1.18852 0
M  V30 4055 H 371.707 -1.92584 1.71083 0
M  V30 4056 H 371.665 -3.1113 0.452244 0
M  V30 4057 N 375.437 -1.54477 -0.31217 0
M  V30 4058 C 376.685 -1.72884 -1.04668 0
M  V30 4059 C 377.006 -0.511477 -1.88173 0
M  V30 4060 O 376.276 0.474407 -1.90069 0
M  V30 4061 H 374.856 -0.637461 -0.389425 0
M  V30 4062 H 377.518 -1.91807 -0.345852 0
M  V30 4063 H 376.614 -2.61334 -1.70619 0
M  V30 4064 N 376.915 0.57481 -1.46744 0
M  V30 4065 C 378.326 1.15695 -1.46532 0
M  V30 4066 C 378.677 1.95068 -0.210425 0
M  V30 4067 O 377.802 2.05241 0.685944 0
M  V30 4068 C 378.397 2.1048 -2.65487 0
M  V30 4069 C 376.956 2.64002 -2.68291 0
M  V30 4070 C 376.103 1.40026 -2.39349 0
M  V30 4071 H 379.054 0.362325 -1.54509 0
M  V30 4072 H 379.075 2.94074 -2.41455 0
M  V30 4073 H 378.587 1.52683 -3.56805 0
M  V30 4074 H 376.688 3.25646 -1.81067 0
M  V30 4075 H 376.801 3.06197 -3.68483 0
M  V30 4076 H 375.165 1.70106 -1.89568 0
M  V30 4077 H 375.948 0.840485 -3.32852 0
M  V30 4078 N 378.394 1.34581 0.820102 0
M  V30 4079 C 379.643 1.26437 1.57151 0
M  V30 4080 C 379.956 -0.163111 1.94919 0
M  V30 4081 O 381.162 -0.366722 2.69012 0
M  V30 4082 C 379.618 2.21658 2.83541 0
M  V30 4083 C 379.226 3.69679 2.53065 0
M  V30 4084 C 380.97 2.22428 3.61561 0
M  V30 4085 C 378.877 4.56761 3.75664 0
M  V30 4086 H 377.807 0.469707 0.589823 0
M  V30 4087 H 380.458 1.59763 0.902656 0
M  V30 4088 H 378.84 1.81287 3.52067 0
M  V30 4089 H 380.014 4.18605 1.92631 0
M  V30 4090 H 378.329 3.71384 1.88316 0
M  V30 4091 H 380.926 2.8471 4.52597 0
M  V30 4092 H 381.269 1.22434 3.97889 0
M  V30 4093 H 381.802 2.61259 2.99981 0
M  V30 4094 H 378.541 5.57702 3.44454 0
M  V30 4095 H 378.061 4.12568 4.35371 0
M  V30 4096 H 379.74 4.71509 4.43044 0
M  V30 4097 N 379.872 -1.04064 1.18357 0
M  V30 4098 C 381.149 -1.74252 0.888581 0
M  V30 4099 C 381.529 -2.02138 -0.60856 0
M  V30 4100 O 380.877 -1.66656 -1.56327 0
M  V30 4101 C 381.087 -3.0277 1.73584 0
M  V30 4102 C 382.435 -3.76506 1.96286 0
M  V30 4103 O 383.459 -3.12668 1.70637 0
M  V30 4104 O 382.318 -4.91243 2.39464 0
M  V30 4105 H 379.412 -0.758271 0.330082 0
M  V30 4106 H 381.958 -1.1013 1.2911 0
M  V30 4107 H 380.73 -2.78299 2.75073 0
M  V30 4108 H 380.353 -3.74631 1.33183 0
M  V30 4109 N 381.35 -0.985608 -1.22978 0
M  V30 4110 C 382.596 -0.667998 -1.92118 0
M  V30 4111 C 382.951 0.790454 -1.75413 0
M  V30 4112 O 382.244 1.56336 -1.10768 0
M  V30 4113 C 382.438 -1.00014 -3.43121 0
M  V30 4114 C 382.267 -2.48933 -3.74516 0
M  V30 4115 C 381.037 -3.15218 -3.94925 0
M  V30 4116 C 383.235 -3.47024 -3.79577 0
M  V30 4117 N 381.217 -4.53689 -4.13569 0
M  V30 4118 C 382.588 -4.70923 -4.03276 0
M  V30 4119 C 384.643 -3.41432 -3.62393 0
M  V30 4120 C 383.346 -5.89914 -4.11574 0
M  V30 4121 C 385.372 -4.59793 -3.71947 0
M  V30 4122 C 384.734 -5.82489 -3.96088 0
M  V30 4123 H 380.833 -0.295589 -0.723983 0
M  V30 4124 H 383.417 -1.26413 -1.4808 0
M  V30 4125 H 381.588 -0.432655 -3.85983 0
M  V30 4126 H 383.32 -0.63927 -3.99619 0
M  V30 4127 H 380.075 -2.65702 -3.92045 0
M  V30 4128 H 380.499 -5.25492 -4.26834 0
M  V30 4129 H 385.141 -2.47594 -3.4272 0
M  V30 4130 H 382.859 -6.84164 -4.30053 0
M  V30 4131 H 386.445 -4.57048 -3.59998 0
M  V30 4132 H 385.325 -6.72546 -4.033 0
M  V30 4133 N 382.828 1.3818 -0.7579 0
M  V30 4134 C 384.053 2.04827 -0.325679 0
M  V30 4135 C 384.478 1.56788 1.03919 0
M  V30 4136 O 383.836 0.721811 1.66312 0
M  V30 4137 C 383.884 3.58774 -0.362447 0
M  V30 4138 O 382.988 4.07372 0.642033 0
M  V30 4139 H 382.329 0.64833 -0.143402 0
M  V30 4140 H 384.859 1.7677 -1.03023 0
M  V30 4141 H 384.869 4.07434 -0.214844 0
M  V30 4142 H 383.544 3.93096 -1.35824 0
M  V30 4143 H 382.121 3.70068 0.458688 0
M  V30 4144 N 384.306 0.507319 1.49211 0
M  V30 4145 C 385.554 -0.0348839 2.0207 0
M  V30 4146 C 385.875 -1.36898 1.38866 0
M  V30 4147 O 385.145 -1.88133 0.546151 0
M  V30 4148 H 383.725 -0.0158812 0.746831 0
M  V30 4149 H 386.387 0.665998 1.83168 0
M  V30 4150 H 385.483 -0.159917 3.1169 0
M  V30 4151 N 385.784 -1.5574 0.241426 0
M  V30 4152 C 387.061 -1.90704 -0.434881 0
M  V30 4153 C 387.441 -1.16145 -1.76277 0
M  V30 4154 O 386.789 -0.277152 -2.26813 0
M  V30 4155 C 386.999 -3.43657 -0.608343 0
M  V30 4156 C 388.347 -4.14806 -0.906725 0
M  V30 4157 O 389.371 -3.49366 -0.694408 0
M  V30 4158 O 388.23 -5.30548 -1.31075 0
M  V30 4159 H 385.324 -0.793592 -0.23268 0
M  V30 4160 H 387.87 -1.67288 0.285086 0
M  V30 4161 H 386.642 -3.89927 0.327505 0
M  V30 4162 H 386.265 -3.72918 -1.37906 0
M  V30 4163 N 387.262 0.0317525 -1.57568 0
M  V30 4164 C 388.195 1.06621 -2.0176 0
M  V30 4165 C 389.173 1.35323 -0.901462 0
M  V30 4166 O 390.357 1.48025 -1.16708 0
M  V30 4167 C 387.484 2.40155 -2.38837 0
M  V30 4168 C 386.53 2.27327 -3.60867 0
M  V30 4169 S 387.363 1.62925 -5.10113 0
M  V30 4170 C 388.519 2.97955 -5.5043 0
M  V30 4171 H 388.752 0.689781 -2.89187 0
M  V30 4172 H 386.285 0.24164 -1.52497 0
M  V30 4173 H 388.243 3.1695 -2.6087 0
M  V30 4174 H 386.904 2.74946 -1.51867 0
M  V30 4175 H 386.097 3.25898 -3.84456 0
M  V30 4176 H 385.699 1.58675 -3.38671 0
M  V30 4177 H 387.991 3.94285 -5.5095 0
M  V30 4178 H 388.934 2.79102 -6.50775 0
M  V30 4179 H 389.342 3.00404 -4.77931 0
M  V30 4180 N 388.74 1.54641 0.303973 0
M  V30 4181 C 390.151 1.64811 0.877163 0
M  V30 4182 C 390.502 0.554838 1.88191 0
M  V30 4183 O 389.627 -0.309033 2.14182 0
M  V30 4184 C 390.222 2.9876 1.59775 0
M  V30 4185 C 388.781 3.11061 2.11938 0
M  V30 4186 C 387.928 2.60479 0.951097 0
M  V30 4187 H 390.879 1.58493 0.0810486 0
M  V30 4188 H 390.9 2.90017 2.46314 0
M  V30 4189 H 390.412 3.7831 0.866226 0
M  V30 4190 H 388.513 2.36225 2.88146 0
M  V30 4191 H 388.626 4.17171 2.35595 0
M  V30 4192 H 386.99 2.16859 1.33583 0
M  V30 4193 H 387.773 3.42504 0.233581 0
M  V30 4194 N 390.218 -0.567019 1.47046 0
M  V30 4195 C 391.464 -1.32658 1.53394 0
M  V30 4196 C 391.797 -1.93254 0.19148 0
M  V30 4197 O 391.072 -1.77338 -0.798844 0
M  V30 4198 C 391.355 -2.44412 2.64452 0
M  V30 4199 C 391.208 -1.88749 4.08282 0
M  V30 4200 C 392.527 -3.46387 2.71485 0
M  V30 4201 H 389.646 -0.48098 0.558415 0
M  V30 4202 H 392.288 -0.635481 1.79058 0
M  V30 4203 H 390.438 -3.03363 2.427 0
M  V30 4204 H 392.11 -1.34134 4.41368 0
M  V30 4205 H 390.353 -1.19481 4.17021 0
M  V30 4206 H 391.024 -2.69491 4.81745 0
M  V30 4207 H 393.5 -2.9734 2.91081 0
M  V30 4208 H 392.376 -4.2202 3.50985 0
M  V30 4209 H 392.637 -4.04616 1.78153 0
M  V30 4210 N 391.696 -1.35014 -0.812953 0
M  V30 4211 C 392.921 -1.31187 -1.60639 0
M  V30 4212 C 393.346 0.109382 -1.87782 0
M  V30 4213 O 392.704 1.07424 -1.46047 0
M  V30 4214 C 392.752 -2.11809 -2.91838 0
M  V30 4215 O 391.856 -1.49444 -3.8437 0
M  V30 4216 H 391.197 -0.450084 -0.488181 0
M  V30 4217 H 393.727 -1.77963 -1.00947 0
M  V30 4218 H 393.737 -2.23531 -3.41318 0
M  V30 4219 H 392.412 -3.15137 -2.71407 0
M  V30 4220 H 390.989 -1.46524 -3.42907 0
M  V30 4221 N 393.175 1.03435 -1.18907 0
M  V30 4222 C 394.415 1.78302 -0.999391 0
M  V30 4223 C 394.779 1.86353 0.462219 0
M  V30 4224 O 395.98 2.57489 0.771543 0
M  V30 4225 C 394.251 3.17362 -1.64365 0
M  V30 4226 S 395.81 4.08488 -1.6026 0
M  V30 4227 H 392.628 0.613861 -0.358742 0
M  V30 4228 H 395.23 1.23979 -1.51161 0
M  V30 4229 H 393.934 3.09116 -2.69955 0
M  V30 4230 H 393.465 3.76762 -1.13199 0
M  V30 4231 H 395.48 4.92274 -0.622932 0
M  V30 4232 N 394.653 0.992116 1.22453 0
M  V30 4233 C 395.878 0.685644 1.95739 0
M  V30 4234 C 396.303 -0.743 1.72804 0
M  V30 4235 O 395.661 -1.50778 1.00676 0
M  V30 4236 C 395.709 0.996293 3.46564 0
M  V30 4237 O 394.813 0.0945512 4.12292 0
M  V30 4238 H 394.154 0.256694 0.612376 0
M  V30 4239 H 396.684 1.32888 1.5557 0
M  V30 4240 H 396.694 0.93781 3.97076 0
M  V30 4241 H 395.369 2.03733 3.62582 0
M  V30 4242 H 393.946 0.208451 3.72317 0
M  V30 4243 N 396.131 -1.37776 0.765217 0
M  V30 4244 C 397.061 -2.32945 0.160953 0
M  V30 4245 C 398.042 -1.55454 -0.690516 0
M  V30 4246 O 399.227 -1.83721 -0.629318 0
M  V30 4247 C 396.357 -3.39669 -0.724031 0
M  V30 4248 C 395.311 -4.27992 0.0256173 0
M  V30 4249 C 394.637 -5.25673 -0.978383 0
M  V30 4250 C 395.937 -5.08309 1.20082 0
M  V30 4251 H 397.631 -2.83728 0.955969 0
M  V30 4252 H 395.177 -1.36416 0.461149 0
M  V30 4253 H 397.13 -4.05219 -1.15652 0
M  V30 4254 H 395.854 -2.87396 -1.5515 0
M  V30 4255 H 394.513 -3.63964 0.438812 0
M  V30 4256 H 394.161 -4.69682 -1.80022 0
M  V30 4257 H 393.861 -5.85625 -0.481378 0
M  V30 4258 H 395.385 -5.94098 -1.40995 0
M  V30 4259 H 396.799 -5.67034 0.845307 0
M  V30 4260 H 395.196 -5.77554 1.62947 0
M  V30 4261 H 396.266 -4.41365 2.00811 0
M  V30 4262 N 397.609 -0.515225 -1.4894 0
M  V30 4263 C 398.834 0.022727 -2.07388 0
M  V30 4264 C 399.259 1.2876 -1.37122 0
M  V30 4265 O 398.617 1.76067 -0.432431 0
M  V30 4266 C 398.665 0.244869 -3.59768 0
M  V30 4267 O 397.769 1.31667 -3.90817 0
M  V30 4268 H 397.11 -0.0325506 -0.663202 0
M  V30 4269 H 399.64 -0.718918 -1.91553 0
M  V30 4270 H 399.65 0.47205 -4.0526 0
M  V30 4271 H 398.325 -0.679194 -4.10317 0
M  V30 4272 H 396.902 1.07331 -3.5712 0
M  V30 4273 N 399.087 1.5561 -0.249682 0
M  V30 4274 C 400.503 1.59254 0.105103 0
M  V30 4275 C 400.703 1.26685 1.56694 0
M  V30 4276 O 399.759 1.0155 2.31179 0
M  V30 4277 C 401.072 2.99687 -0.246592 0
M  V30 4278 C 402.62 3.12416 -0.191118 0
M  V30 4279 C 403.095 4.55074 -0.516885 0
M  V30 4280 N 404.586 4.60835 -0.467489 0
M  V30 4281 C 405.321 5.69201 -0.69268 0
M  V30 4282 N 404.817 6.85817 -0.981146 0
M  V30 4283 N 406.61 5.58635 -0.623198 0
M  V30 4284 H 398.761 1.75049 -1.20298 0
M  V30 4285 H 401.024 0.815003 -0.484225 0
M  V30 4286 H 400.73 3.28267 -1.26228 0
M  V30 4287 H 400.604 3.74798 0.424962 0
M  V30 4288 H 402.991 2.83615 0.815247 0
M  V30 4289 H 403.072 2.39573 -0.896563 0
M  V30 4290 H 402.716 4.84596 -1.52082 0
M  V30 4291 H 402.646 5.26181 0.210068 0
M  V30 4292 H 405.137 3.7705 -0.253373 0
M  V30 4293 H 405.45 7.64341 -1.14032 0
M  V30 4294 H 403.795 6.87494 -1.01865 0
M  V30 4295 H 406.986 4.66406 -0.397863 0
M  V30 4296 H 407.159 6.43017 -0.802093 0
M  V30 4297 N 400.565 -0.0233959 1.57583 0
M  V30 4298 C 401.813 -0.711654 1.89156 0
M  V30 4299 C 402.134 -1.75591 0.848096 0
M  V30 4300 O 401.404 -1.95547 -0.117566 0
M  V30 4301 H 399.984 -0.265835 0.698098 0
M  V30 4302 H 402.646 0.0119948 1.94896 0
M  V30 4303 H 401.742 -1.19766 2.88206 0
M  V30 4304 N 402.043 -1.548 -0.295768 0
M  V30 4305 C 402.973 -1.89115 -1.36959 0
M  V30 4306 C 403.954 -0.75059 -1.52644 0
M  V30 4307 O 405.139 -1.00678 -1.66065 0
M  V30 4308 C 402.269 -2.14307 -2.73295 0
M  V30 4309 C 401.223 -3.30151 -2.72368 0
M  V30 4310 C 400.549 -3.40772 -4.12042 0
M  V30 4311 C 401.849 -4.67126 -2.33646 0
M  V30 4312 H 403.543 -2.79053 -1.08488 0
M  V30 4313 H 401.089 -1.34266 -0.520443 0
M  V30 4314 H 403.042 -2.36898 -3.48507 0
M  V30 4315 H 401.766 -1.21145 -3.03301 0
M  V30 4316 H 400.425 -3.0749 -1.99613 0
M  V30 4317 H 400.073 -2.45117 -4.39234 0
M  V30 4318 H 399.773 -4.18645 -4.12322 0
M  V30 4319 H 401.297 -3.6563 -4.89027 0
M  V30 4320 H 402.711 -4.89414 -2.98575 0
M  V30 4321 H 401.108 -5.47751 -2.45129 0
M  V30 4322 H 402.178 -4.67489 -1.28772 0
M  V30 4323 N 403.521 0.559213 -1.47345 0
M  V30 4324 C 404.453 1.68161 -1.55738 0
M  V30 4325 C 405.466 1.56636 -0.443744 0
M  V30 4326 O 406.655 1.6363 -0.713258 0
M  V30 4327 C 403.755 3.06611 -1.4437 0
M  V30 4328 C 402.928 3.4391 -2.70268 0
M  V30 4329 C 401.987 4.61515 -2.52765 0
M  V30 4330 O 401.013 4.66197 -3.26572 0
M  V30 4331 N 402.215 5.57883 -1.6046 0
M  V30 4332 H 404.98 1.61408 -2.52522 0
M  V30 4333 H 402.541 0.7458 -1.43699 0
M  V30 4334 H 404.533 3.83117 -1.30398 0
M  V30 4335 H 403.103 3.07602 -0.556766 0
M  V30 4336 H 402.323 2.56873 -2.99015 0
M  V30 4337 H 403.611 3.65605 -3.53851 0
M  V30 4338 H 403.009 5.56855 -0.996422 0
M  V30 4339 H 401.566 6.33723 -1.52441 0
M  V30 4340 N 404.999 1.35443 0.805782 0
M  V30 4341 C 406.245 1.28952 1.56522 0
M  V30 4342 C 406.578 -0.135597 1.93726 0
M  V30 4343 O 405.853 -1.08516 1.61414 0
M  V30 4344 C 406.136 2.19678 2.85331 0
M  V30 4345 C 405.989 3.7081 2.54598 0
M  V30 4346 C 407.308 2.09495 3.8704 0
M  V30 4347 H 404.427 0.469764 0.567883 0
M  V30 4348 H 407.069 1.65851 0.927001 0
M  V30 4349 H 405.219 1.8834 3.39795 0
M  V30 4350 H 406.891 4.12593 2.06312 0
M  V30 4351 H 405.134 3.91051 1.8778 0
M  V30 4352 H 405.805 4.29679 3.46525 0
M  V30 4353 H 408.281 2.37045 3.41978 0
M  V30 4354 H 407.157 2.75173 4.74943 0
M  V30 4355 H 407.418 1.07714 4.28777 0
M  V30 4356 N 406.477 -1.02803 1.19454 0
M  V30 4357 C 407.407 -2.12999 0.956758 0
M  V30 4358 C 408.388 -1.69743 -0.110188 0
M  V30 4359 O 409.573 -1.94148 0.0450038 0
M  V30 4360 C 406.703 -3.43746 0.495553 0
M  V30 4361 C 405.657 -4.00688 1.50443 0
M  V30 4362 C 404.983 -5.27067 0.900275 0
M  V30 4363 C 406.283 -4.35397 2.8849 0
M  V30 4364 H 407.977 -2.33148 1.87836 0
M  V30 4365 H 405.523 -1.12045 0.904539 0
M  V30 4366 H 407.476 -4.2021 0.316493 0
M  V30 4367 H 406.2 -3.23321 -0.461646 0
M  V30 4368 H 404.859 -3.2632 1.67065 0
M  V30 4369 H 404.507 -5.02959 -0.064503 0
M  V30 4370 H 404.207 -5.66127 1.57397 0
M  V30 4371 H 405.731 -6.06196 0.73203 0
M  V30 4372 H 407.145 -5.02795 2.75446 0
M  V30 4373 H 405.542 -4.85541 3.52661 0
M  V30 4374 H 406.612 -3.44662 3.41081 0
M  V30 4375 N 407.956 -0.998596 -1.21925 0
M  V30 4376 C 408.886 -0.573688 -2.26343 0
M  V30 4377 C 409.867 0.402296 -1.65274 0
M  V30 4378 O 411.052 0.291683 -1.91997 0
M  V30 4379 C 408.182 0.106839 -3.47136 0
M  V30 4380 C 407.136 -0.788269 -4.20678 0
M  V30 4381 C 406.462 0.0254927 -5.34694 0
M  V30 4382 C 407.762 -2.08784 -4.78755 0
M  V30 4383 H 409.456 -1.44651 -2.62138 0
M  V30 4384 H 407.002 -0.696975 -1.26009 0
M  V30 4385 H 408.955 0.415531 -4.19346 0
M  V30 4386 H 407.679 1.01424 -3.10452 0
M  V30 4387 H 406.338 -1.08069 -3.50309 0
M  V30 4388 H 405.986 0.933989 -4.94253 0
M  V30 4389 H 405.686 -0.570437 -5.84825 0
M  V30 4390 H 407.21 0.328147 -6.09718 0
M  V30 4391 H 408.624 -1.84272 -5.42878 0
M  V30 4392 H 407.021 -2.63307 -5.39249 0
M  V30 4393 H 408.091 -2.76284 -3.98491 0
M  V30 4394 N 409.434 1.37368 -0.772513 0
M  V30 4395 C 410.662 2.03942 -0.348588 0
M  V30 4396 C 411.077 1.58264 1.02947 0
M  V30 4397 O 410.434 0.764246 1.65727 0
M  V30 4398 C 410.485 3.5946 -0.38351 0
M  V30 4399 O 410.206 4.03468 -1.70721 0
M  V30 4400 C 411.707 4.4327 0.0519152 0
M  V30 4401 H 408.927 0.654931 -0.145966 0
M  V30 4402 H 411.471 1.75686 -1.04665 0
M  V30 4403 H 409.626 3.86486 0.265978 0
M  V30 4404 H 410.04 4.97991 -1.64636 0
M  V30 4405 H 411.514 5.51995 -0.0236733 0
M  V30 4406 H 411.991 4.2514 1.10238 0
M  V30 4407 H 412.597 4.21471 -0.569415 0
M  V30 4408 N 410.912 0.523116 1.48665 0
M  V30 4409 C 412.323 0.0808997 1.86525 0
M  V30 4410 C 412.674 -1.33975 1.43336 0
M  V30 4411 O 411.799 -2.00221 0.821009 0
M  V30 4412 C 412.394 0.140037 3.3851 0
M  V30 4413 C 410.953 -0.246948 3.75589 0
M  V30 4414 C 410.1 0.502845 2.72703 0
M  V30 4415 H 413.051 0.734736 1.40667 0
M  V30 4416 H 413.072 -0.649945 3.74908 0
M  V30 4417 H 412.584 1.17412 3.69914 0
M  V30 4418 H 410.685 -1.28343 3.49798 0
M  V30 4419 H 410.798 0.0878859 4.79019 0
M  V30 4420 H 409.162 -0.0500581 2.54651 0
M  V30 4421 H 409.945 1.53743 3.0695 0
M  V30 4422 N 412.39 -1.55475 0.257931 0
M  V30 4423 C 413.636 -1.99502 -0.364266 0
M  V30 4424 C 413.969 -1.146 -1.56782 0
M  V30 4425 O 413.244 -0.211968 -1.93342 0
M  V30 4426 C 413.527 -3.51917 -0.763333 0
M  V30 4427 C 413.38 -4.4758 0.446371 0
M  V30 4428 C 414.699 -4.09742 -1.60623 0
M  V30 4429 H 411.818 -0.725277 -0.130929 0
M  V30 4430 H 414.46 -1.8653 0.361446 0
M  V30 4431 H 412.61 -3.63101 -1.38166 0
M  V30 4432 H 414.282 -4.48362 1.08487 0
M  V30 4433 H 412.525 -4.19947 1.08753 0
M  V30 4434 H 413.196 -5.51862 0.123645 0
M  V30 4435 H 415.672 -4.01727 -1.08418 0
M  V30 4436 H 414.548 -5.16631 -1.85429 0
M  V30 4437 H 414.809 -3.58889 -2.58169 0
M  V30 4438 N 413.868 0.0150385 -1.57593 0
M  V30 4439 C 414.798 1.01047 -2.10503 0
M  V30 4440 C 415.779 1.36816 -1.01071 0
M  V30 4441 O 416.964 1.45455 -1.28672 0
M  V30 4442 C 414.094 2.30708 -2.59598 0
M  V30 4443 C 413.048 2.09142 -3.73421 0
M  V30 4444 C 412.374 3.44685 -4.08774 0
M  V30 4445 C 413.674 1.46619 -5.01298 0
M  V30 4446 H 415.368 0.569978 -2.93925 0
M  V30 4447 H 412.914 0.272724 -1.41394 0
M  V30 4448 H 414.867 3.00687 -2.95238 0
M  V30 4449 H 413.591 2.76843 -1.73279 0
M  V30 4450 H 412.25 1.41592 -3.38153 0
M  V30 4451 H 411.898 3.88495 -3.195 0
M  V30 4452 H 411.598 3.31077 -4.8545 0
M  V30 4453 H 413.122 4.16004 -4.4696 0
M  V30 4454 H 414.536 2.06535 -5.34805 0
M  V30 4455 H 412.933 1.43544 -5.82679 0
M  V30 4456 H 414.003 0.433611 -4.82957 0
M  V30 4457 N 415.346 1.54954 0.287554 0
M  V30 4458 C 416.309 1.86076 1.33823 0
M  V30 4459 C 417.309 0.734414 1.43049 0
M  V30 4460 O 418.499 1.00266 1.42452 0
M  V30 4461 C 415.631 2.05305 2.72144 0
M  V30 4462 H 416.824 2.79984 1.07465 0
M  V30 4463 H 414.377 1.47223 0.524902 0
M  V30 4464 H 415.112 1.1373 3.03704 0
M  V30 4465 H 414.897 2.873 2.66836 0
M  V30 4466 H 416.387 2.30706 3.48087 0
M  V30 4467 N 416.824 -0.551391 1.4764 0
M  V30 4468 C 417.772 -1.67896 1.60978 0
M  V30 4469 C 418.766 -1.62549 0.476877 0
M  V30 4470 O 419.972 -1.67664 0.654878 0
M  V30 4471 H 416.347 -0.555649 0.506713 0
M  V30 4472 H 418.318 -1.53784 2.55721 0
M  V30 4473 C 417.067 -3.06234 1.64669 0
M  V30 4474 H 416.39 -3.11033 2.51194 0
M  V30 4475 H 417.83 -3.84804 1.7805 0
M  V30 4476 C 416.289 -3.34737 0.381115 0
M  V30 4477 O 416.819 -3.98381 -0.515297 0
M  V30 4478 N 415.025 -2.8944 0.259354 0
M  V30 4479 H 414.572 -2.37827 0.98976 0
M  V30 4480 H 414.53 -3.08882 -0.586464 0
M  V30 4481 N 418.302 -1.35869 -0.798587 0
M  V30 4482 C 419.551 -1.28921 -1.5512 0
M  V30 4483 C 419.864 0.13208 -1.95154 0
M  V30 4484 O 421.07 0.323879 -2.69561 0
M  V30 4485 C 419.526 -2.26141 -2.79979 0
M  V30 4486 C 419.134 -3.73658 -2.47151 0
M  V30 4487 C 420.878 -2.28152 -3.57976 0
M  V30 4488 C 418.785 -4.62679 -3.6835 0
M  V30 4489 H 417.715 -0.479031 -0.582276 0
M  V30 4490 H 420.366 -1.61179 -0.877125 0
M  V30 4491 H 418.748 -1.86865 -3.49138 0
M  V30 4492 H 419.922 -4.21616 -1.85947 0
M  V30 4493 H 418.237 -3.74333 -1.82383 0
M  V30 4494 H 420.834 -2.91875 -4.4801 0
M  V30 4495 H 421.177 -1.28748 -3.95891 0
M  V30 4496 H 421.71 -2.65998 -2.95787 0
M  V30 4497 H 418.449 -5.63111 -3.35538 0
M  V30 4498 H 417.969 -4.19442 -4.28752 0
M  V30 4499 H 419.648 -4.78498 -4.35487 0
M  V30 4500 N 419.78 1.02168 -1.19998 0
M  V30 4501 C 420.71 2.12488 -0.96804 0
M  V30 4502 C 421.691 1.69799 0.101185 0
M  V30 4503 O 422.876 1.94121 -0.0552993 0
M  V30 4504 C 420.006 3.43479 -0.513776 0
M  V30 4505 C 418.96 3.99884 -1.52566 0
M  V30 4506 C 418.286 5.26582 -0.928214 0
M  V30 4507 C 419.586 4.33861 -2.90795 0
M  V30 4508 H 421.28 2.32149 -1.89069 0
M  V30 4509 H 418.826 1.11564 -0.910468 0
M  V30 4510 H 420.779 4.20036 -0.338774 0
M  V30 4511 H 419.503 3.23561 0.444493 0
M  V30 4512 H 418.162 3.25429 -1.68794 0
M  V30 4513 H 417.81 5.02986 0.0378289 0
M  V30 4514 H 417.51 5.65284 -1.60397 0
M  V30 4515 H 419.034 6.05799 -0.764167 0
M  V30 4516 H 420.448 5.01327 -2.78109 0
M  V30 4517 H 418.845 4.83664 -3.55231 0
M  V30 4518 H 419.915 3.42848 -3.42904 0
M  V30 4519 N 421.258 1.00505 1.21394 0
M  V30 4520 C 422.168 0.574806 2.27449 0
M  V30 4521 C 423.184 -0.382206 1.6975 0
M  V30 4522 O 424.36 -0.246027 1.99892 0
M  V30 4523 C 421.425 -0.0917414 3.46579 0
M  V30 4524 C 420.486 0.909758 4.1955 0
M  V30 4525 C 419.719 0.274924 5.32991 0
M  V30 4526 O 419.942 -0.928254 5.62796 0
M  V30 4527 O 418.876 0.985877 5.93771 0
M  V30 4528 H 422.702 1.45744 2.66444 0
M  V30 4529 H 420.287 0.773923 1.27792 0
M  V30 4530 H 422.169 -0.464551 4.18832 0
M  V30 4531 H 420.844 -0.948755 3.09484 0
M  V30 4532 H 419.751 1.33372 3.49518 0
M  V30 4533 H 421.084 1.73636 4.60555 0
M  V30 4534 N 422.737 -1.36956 0.779787 0
M  V30 4535 C 423.7 -2.2851 0.177662 0
M  V30 4536 C 424.7 -1.48393 -0.619377 0
M  V30 4537 O 425.89 -1.68505 -0.441785 0
M  V30 4538 C 423.022 -3.32428 -0.755279 0
M  V30 4539 H 424.215 -2.83269 0.984823 0
M  V30 4540 H 421.768 -1.46358 0.548544 0
M  V30 4541 H 422.503 -2.82808 -1.58714 0
M  V30 4542 H 422.288 -3.91659 -0.185817 0
M  V30 4543 H 423.778 -4.00824 -1.17174 0
M  V30 4544 N 424.215 -0.530993 -1.48385 0
M  V30 4545 C 425.492 0.0671788 -1.95485 0
M  V30 4546 C 425.872 1.51191 -1.47324 0
M  V30 4547 O 425.22 2.17507 -0.700202 0
M  V30 4548 C 425.43 -0.0511206 -3.48963 0
M  V30 4549 C 426.778 0.107632 -4.24464 0
M  V30 4550 O 427.802 0.0226248 -3.56193 0
M  V30 4551 O 426.661 0.285972 -5.45751 0
M  V30 4552 H 423.755 0.0787365 -0.823243 0
M  V30 4553 H 426.301 -0.595662 -1.58902 0
M  V30 4554 H 425.073 -1.05747 -3.7674 0
M  V30 4555 H 424.696 0.650525 -3.92242 0
M  V30 4556 N 425.693 1.55336 -0.266172 0
M  V30 4557 C 426.625 2.19544 0.658247 0
M  V30 4558 C 427.638 1.17746 1.12427 0
M  V30 4559 O 428.827 1.44517 1.04772 0
M  V30 4560 C 425.927 2.80032 1.9088 0
M  V30 4561 C 425.1 4.07436 1.59106 0
M  V30 4562 C 424.159 4.52056 2.69317 0
M  V30 4563 O 423.185 5.18023 2.35883 0
M  V30 4564 N 424.387 4.21448 3.99201 0
M  V30 4565 H 427.152 2.99503 0.108754 0
M  V30 4566 H 424.713 1.61667 -0.0869059 0
M  V30 4567 H 426.705 3.06831 2.63888 0
M  V30 4568 H 425.275 2.04119 2.36758 0
M  V30 4569 H 424.495 3.88021 0.695243 0
M  V30 4570 H 425.783 4.90462 1.35367 0
M  V30 4571 H 425.181 3.68528 4.29189 0
M  V30 4572 H 423.738 4.53039 4.68614 0
M  V30 4573 N 427.171 -0.0066808 1.57599 0
M  V30 4574 C 428.081 -1.01671 2.11424 0
M  V30 4575 C 429.097 -1.38143 1.05795 0
M  V30 4576 O 430.273 -1.47011 1.37658 0
M  V30 4577 C 427.338 -2.29192 2.60139 0
M  V30 4578 C 426.399 -1.99094 3.80342 0
M  V30 4579 C 425.632 -3.20535 4.26724 0
M  V30 4580 O 425.855 -4.3199 3.72479 0
M  V30 4581 O 424.789 -3.04924 5.18946 0
M  V30 4582 H 428.615 -0.589181 2.9793 0
M  V30 4583 H 426.2 -0.225091 1.47695 0
M  V30 4584 H 428.082 -3.0412 2.917 0
M  V30 4585 H 426.757 -2.71195 1.76733 0
M  V30 4586 H 425.664 -1.21663 3.53764 0
M  V30 4587 H 426.997 -1.61931 4.648 0
M  V30 4588 N 428.649 -1.55105 -0.279332 0
M  V30 4589 C 429.596 -1.8755 -1.34513 0
M  V30 4590 C 430.566 -0.726384 -1.49375 0
M  V30 4591 O 431.751 -0.977063 -1.63884 0
M  V30 4592 C 428.891 -2.14738 -2.70151 0
M  V30 4593 C 428.004 -3.42285 -2.63562 0
M  V30 4594 C 427.139 -3.59206 -3.91337 0
M  V30 4595 C 426.178 -4.80467 -3.79233 0
M  V30 4596 N 425.315 -4.94079 -4.98829 0
M  V30 4597 H 430.155 -2.78456 -1.06143 0
M  V30 4598 H 427.692 -1.37867 -0.512936 0
M  V30 4599 H 429.65 -2.28501 -3.49061 0
M  V30 4600 H 428.28 -1.27075 -2.96735 0
M  V30 4601 H 427.332 -3.37029 -1.76397 0
M  V30 4602 H 428.644 -4.31328 -2.50515 0
M  V30 4603 H 427.798 -3.72751 -4.78687 0
M  V30 4604 H 426.537 -2.68337 -4.07243 0
M  V30 4605 H 425.542 -4.66932 -2.90266 0
M  V30 4606 H 426.767 -5.72765 -3.64852 0
M  V30 4607 H 424.713 -4.06139 -5.15158 0
M  V30 4608 H 424.63 -5.77156 -4.8829 0
M  V30 4609 H 425.898 -5.12003 -5.8777 0
M  V30 4610 N 430.127 0.543554 -1.4793 0
M  V30 4611 C 431.367 1.31072 -1.56843 0
M  V30 4612 C 431.731 1.90604 -0.231124 0
M  V30 4613 O 432.932 2.68091 -0.195165 0
M  V30 4614 C 431.203 2.38106 -2.66533 0
M  V30 4615 S 432.762 3.24729 -2.95122 0
M  V30 4616 H 429.58 0.446035 -0.553691 0
M  V30 4617 H 432.182 0.620777 -1.85382 0
M  V30 4618 H 430.886 1.92828 -3.62278 0
M  V30 4619 H 430.417 3.11824 -2.39852 0
M  V30 4620 H 432.432 4.37891 -2.3338 0
M  V30 4621 N 431.605 1.3629 0.791371 0
M  V30 4622 C 432.851 1.31613 1.5508 0
M  V30 4623 C 433.206 -0.104372 1.92117 0
M  V30 4624 O 432.499 -1.05845 1.5971 0
M  V30 4625 C 432.693 2.17068 2.8393 0
M  V30 4626 C 432.522 3.67285 2.59484 0
M  V30 4627 C 431.292 4.36469 2.54604 0
M  V30 4628 C 433.49 4.60595 2.28816 0
M  V30 4629 N 431.472 5.7234 2.22036 0
M  V30 4630 C 432.843 5.847 2.06218 0
M  V30 4631 C 434.898 4.4918 2.14806 0
M  V30 4632 C 433.601 6.98671 1.71028 0
M  V30 4633 C 435.627 5.63017 1.81014 0
M  V30 4634 C 434.989 6.86159 1.59263 0
M  V30 4635 H 431.088 0.536878 0.568582 0
M  V30 4636 H 433.672 1.71323 0.925007 0
M  V30 4637 H 431.843 1.79605 3.44378 0
M  V30 4638 H 433.575 2.03795 3.49642 0
M  V30 4639 H 430.33 3.89249 2.69782 0
M  V30 4640 H 430.754 6.44093 2.08503 0
M  V30 4641 H 435.396 3.54564 2.30313 0
M  V30 4642 H 433.114 7.9324 1.54259 0
M  V30 4643 H 436.7 5.56146 1.70861 0
M  V30 4644 H 435.58 7.72753 1.335 0
M  V30 4645 N 433.083 -1.0153 1.20538 0
M  V30 4646 C 434.331 -1.74803 1.01432 0
M  V30 4647 C 434.652 -1.8963 -0.454456 0
M  V30 4648 O 433.922 -1.43975 -1.32846 0
M  V30 4649 H 432.502 -0.647598 0.372324 0
M  V30 4650 H 435.164 -1.22402 1.5167 0
M  V30 4651 H 434.26 -2.75114 1.47373 0
M  V30 4652 N 434.561 -1.01147 -1.20859 0
M  V30 4653 C 435.808 -0.697865 -1.90095 0
M  V30 4654 C 436.136 0.772014 -1.78522 0
M  V30 4655 O 435.391 1.57595 -1.16027 0
M  V30 4656 C 435.69 -1.0727 -3.40922 0
M  V30 4657 C 435.356 -2.53792 -3.72693 0
M  V30 4658 C 434.018 -2.93829 -3.81075 0
M  V30 4659 C 436.37 -3.48674 -3.87397 0
M  V30 4660 C 433.698 -4.27696 -4.01613 0
M  V30 4661 C 436.05 -4.82223 -4.09444 0
M  V30 4662 C 434.714 -5.21973 -4.16054 0
M  V30 4663 H 433.984 -0.255367 -0.695607 0
M  V30 4664 H 436.631 -1.27111 -1.43231 0
M  V30 4665 H 434.936 -0.417799 -3.89566 0
M  V30 4666 H 436.633 -0.807818 -3.92779 0
M  V30 4667 H 433.223 -2.21768 -3.66765 0
M  V30 4668 H 437.407 -3.18904 -3.80281 0
M  V30 4669 H 432.663 -4.58055 -4.04964 0
M  V30 4670 H 436.837 -5.55672 -4.19763 0
M  V30 4671 H 434.464 -6.25717 -4.31721 0
M  V30 4672 N 436.039 1.36541 -0.78704 0
M  V30 4673 C 437.316 1.9355 -0.282424 0
M  V30 4674 C 437.696 1.71919 1.22503 0
M  V30 4675 O 437.044 1.07677 2.01539 0
M  V30 4676 C 437.254 3.4246 -0.672462 0
M  V30 4677 C 438.602 4.19582 -0.650863 0
M  V30 4678 O 439.626 3.50889 -0.612789 0
M  V30 4679 O 438.485 5.42106 -0.691623 0
M  V30 4680 H 435.579 0.824091 -0.0693 0
M  V30 4681 H 438.125 1.45736 -0.869423 0
M  V30 4682 H 436.897 3.51851 -1.71221 0
M  V30 4683 H 436.52 3.97556 -0.0592211 0
M  V30 4684 N 437.518 0.538854 1.48102 0
M  V30 4685 C 438.45 -0.256278 2.27763 0
M  V30 4686 C 439.463 -0.89633 1.35904 0
M  V30 4687 O 440.652 -0.773275 1.60881 0
M  V30 4688 C 437.752 -1.37896 3.09577 0
M  V30 4689 C 436.925 -0.839159 4.29275 0
M  V30 4690 C 435.984 -1.84405 4.9283 0
M  V30 4691 O 435.01 -1.39746 5.51779 0
M  V30 4692 N 436.212 -3.17666 4.85869 0
M  V30 4693 H 438.977 0.426968 2.96643 0
M  V30 4694 H 436.538 0.373747 1.57527 0
M  V30 4695 H 438.53 -2.04955 3.48963 0
M  V30 4696 H 437.1 -1.96572 2.4306 0
M  V30 4697 H 436.32 0.00769287 3.94199 0
M  V30 4698 H 437.608 -0.457548 5.06739 0
M  V30 4699 H 437.006 -3.56609 4.39143 0
M  V30 4700 H 435.563 -3.80334 5.29329 0
M  V30 4701 N 438.996 -1.55193 0.274407 0
M  V30 4702 C 440.243 -1.99581 -0.342579 0
M  V30 4703 C 440.571 -1.1628 -1.55914 0
M  V30 4704 O 439.826 -0.22029 -1.94456 0
M  V30 4705 C 440.125 -3.49019 -0.769458 0
M  V30 4706 C 439.791 -4.49598 0.342389 0
M  V30 4707 C 438.453 -4.76821 0.647686 0
M  V30 4708 C 440.805 -5.0964 1.09163 0
M  V30 4709 C 438.133 -5.61354 1.70581 0
M  V30 4710 C 440.485 -5.95323 2.13948 0
M  V30 4711 C 439.149 -6.20867 2.45113 0
M  V30 4712 H 438.419 -0.730319 -0.125358 0
M  V30 4713 H 441.066 -1.87529 0.387971 0
M  V30 4714 H 439.371 -3.58544 -1.57967 0
M  V30 4715 H 441.068 -3.8077 -1.25757 0
M  V30 4716 H 437.658 -4.28496 0.094318 0
M  V30 4717 H 441.842 -4.88632 0.869024 0
M  V30 4718 H 437.098 -5.79392 1.9523 0
M  V30 4719 H 441.272 -6.40881 2.72478 0
M  V30 4720 H 438.899 -6.86162 3.27239 0
M  V30 4721 N 440.474 -0.00167713 -1.576 0
M  V30 4722 C 441.721 0.68282 -1.90641 0
M  V30 4723 C 442.049 1.73686 -0.875415 0
M  V30 4724 O 441.304 1.95334 0.119575 0
M  V30 4725 C 441.603 1.36189 -3.30435 0
M  V30 4726 C 441.269 0.440887 -4.48739 0
M  V30 4727 C 439.931 0.187312 -4.80835 0
M  V30 4728 C 442.283 -0.193134 -5.20842 0
M  V30 4729 C 439.611 -0.70855 -5.82406 0
M  V30 4730 C 441.963 -1.07688 -6.23367 0
M  V30 4731 C 440.627 -1.33962 -6.53919 0
M  V30 4732 H 439.897 0.249862 -0.697603 0
M  V30 4733 H 442.544 -0.0575642 -1.91413 0
M  V30 4734 H 440.849 2.17636 -3.25794 0
M  V30 4735 H 442.546 1.89759 -3.5326 0
M  V30 4736 H 439.136 0.648694 -4.23663 0
M  V30 4737 H 443.32 -0.0102445 -4.96299 0
M  V30 4738 H 438.576 -0.920097 -6.04437 0
M  V30 4739 H 442.75 -1.57451 -6.78367 0
M  V30 4740 H 440.377 -2.03549 -7.32442 0
M  V30 4741 N 441.952 1.55251 0.271103 0
M  V30 4742 C 442.915 1.87484 1.31842 0
M  V30 4743 C 443.915 0.749545 1.42262 0
M  V30 4744 O 445.105 1.01771 1.4138 0
M  V30 4745 C 442.237 2.0818 2.69951 0
M  V30 4746 H 443.43 2.81108 1.0449 0
M  V30 4747 H 440.983 1.47771 0.509258 0
M  V30 4748 H 441.718 1.16944 3.02481 0
M  V30 4749 H 441.503 2.90114 2.63774 0
M  V30 4750 H 442.993 2.34385 3.4562 0
M  V30 4751 N 443.43 -0.535701 1.48216 0
M  V30 4752 C 444.34 -1.66785 1.64985 0
M  V30 4753 C 445.356 -1.65654 0.532414 0
M  V30 4754 O 446.532 -1.8471 0.80275 0
M  V30 4755 C 443.597 -3.0326 1.68031 0
M  V30 4756 C 442.658 -3.1529 2.9136 0
M  V30 4757 C 441.891 -4.45255 2.94252 0
M  V30 4758 O 442.114 -5.32011 2.05719 0
M  V30 4759 O 441.048 -4.6153 3.86359 0
M  V30 4760 H 444.874 -1.55576 2.60825 0
M  V30 4761 H 442.459 -0.70815 1.31551 0
M  V30 4762 H 444.341 -3.84436 1.72589 0
M  V30 4763 H 443.016 -3.14805 0.753628 0
M  V30 4764 H 441.923 -2.3343 2.92337 0
M  V30 4765 H 443.256 -3.08658 3.83394 0
M  V30 4766 N 444.908 -1.36708 -0.784132 0
M  V30 4767 C 446.136 -1.34398 -1.57305 0
M  V30 4768 C 446.551 0.0735577 -1.88657 0
M  V30 4769 O 445.908 1.03193 -1.50524 0
M  V30 4770 C 445.959 -2.17053 -2.89085 0
M  V30 4771 O 445.68 -3.53281 -2.59083 0
M  V30 4772 C 447.181 -2.22583 -3.83369 0
M  V30 4773 H 444.401 -0.460819 -0.487736 0
M  V30 4774 H 446.945 -1.79879 -0.972819 0
M  V30 4775 H 445.1 -1.75113 -3.45564 0
M  V30 4776 H 445.514 -3.9647 -3.43383 0
M  V30 4777 H 446.988 -2.84763 -4.72878 0
M  V30 4778 H 447.465 -1.23075 -4.21603 0
M  V30 4779 H 448.071 -2.64781 -3.32823 0
M  V30 4780 N 446.386 1.0089 -1.21074 0
M  V30 4781 C 447.611 1.78727 -1.05221 0
M  V30 4782 C 448.036 1.83932 0.393795 0
M  V30 4783 O 447.394 1.28004 1.28393 0
M  V30 4784 C 447.442 3.20665 -1.64944 0
M  V30 4785 O 446.546 4.02632 -0.892273 0
M  V30 4786 H 445.887 0.550973 -0.370574 0
M  V30 4787 H 448.417 1.26847 -1.60534 0
M  V30 4788 H 448.427 3.71352 -1.69002 0
M  V30 4789 H 447.102 3.16191 -2.70177 0
M  V30 4790 H 445.679 3.61207 -0.926492 0
M  V30 4791 N 447.864 1.01787 1.20321 0
M  V30 4792 C 449.141 0.622978 1.85414 0
M  V30 4793 C 449.521 -0.898887 1.91006 0
M  V30 4794 O 448.869 -1.79112 1.41884 0
M  V30 4795 C 449.079 1.27226 3.24984 0
M  V30 4796 C 450.427 1.3885 4.01255 0
M  V30 4797 O 451.451 1.22857 3.34342 0
M  V30 4798 O 450.31 1.64705 5.2109 0
M  V30 4799 H 447.404 0.215116 0.798533 0
M  V30 4800 H 449.95 1.11533 1.27901 0
M  V30 4801 H 448.722 2.31209 3.15687 0
M  V30 4802 H 448.345 0.767069 3.90131 0
M  V30 4803 N 449.342 -1.36122 0.79427 0
M  V30 4804 C 450.591 -1.98361 0.365464 0
M  V30 4805 C 450.904 -1.6374 -1.06997 0
M  V30 4806 O 452.11 -2.19251 -1.60129 0
M  V30 4807 C 450.566 -3.54821 0.602496 0
M  V30 4808 C 450.174 -3.98362 2.04967 0
M  V30 4809 C 451.918 -4.2383 0.238437 0
M  V30 4810 C 449.825 -5.47619 2.2331 0
M  V30 4811 H 448.755 -0.742193 0.13291 0
M  V30 4812 H 451.406 -1.55354 0.976589 0
M  V30 4813 H 449.788 -3.95922 -0.078409 0
M  V30 4814 H 450.962 -3.68447 2.76737 0
M  V30 4815 H 449.277 -3.42206 2.37243 0
M  V30 4816 H 451.874 -5.33529 0.353705 0
M  V30 4817 H 452.217 -4.08264 -0.814006 0
M  V30 4818 H 452.75 -3.88108 0.872769 0
M  V30 4819 H 449.489 -5.68138 3.26955 0
M  V30 4820 H 449.009 -5.79145 1.5605 0
M  V30 4821 H 450.688 -6.13911 2.0426 0
M  V30 4822 N 450.82 -0.546701 -1.47814 0
M  V30 4823 C 451.75 0.195317 -2.32682 0
M  V30 4824 C 452.731 0.918981 -1.43139 0
M  V30 4825 O 453.916 0.901501 -1.72008 0
M  V30 4826 C 451.046 1.23237 -3.247 0
M  V30 4827 C 450 0.625818 -4.234 0
M  V30 4828 C 449.326 1.76674 -5.04669 0
M  V30 4829 C 450.626 -0.413515 -5.2066 0
M  V30 4830 H 452.32 -0.513184 -2.94969 0
M  V30 4831 H 449.866 -0.248241 -1.41844 0
M  V30 4832 H 451.819 1.75955 -3.82907 0
M  V30 4833 H 450.543 1.97067 -2.60446 0
M  V30 4834 H 449.202 0.120023 -3.66403 0
M  V30 4835 H 448.85 2.49383 -4.36826 0
M  V30 4836 H 448.55 1.36673 -5.71484 0
M  V30 4837 H 450.074 2.29738 -5.65732 0
M  V30 4838 H 451.488 0.0272042 -5.73294 0
M  V30 4839 H 449.885 -0.731825 -5.95621 0
M  V30 4840 H 450.955 -1.31325 -4.66778 0
M  V30 4841 N 452.299 1.55045 -0.282633 0
M  V30 4842 C 453.249 2.19514 0.616249 0
M  V30 4843 C 454.233 1.16216 1.11277 0
M  V30 4844 O 455.425 1.42004 1.05659 0
M  V30 4845 C 452.554 2.92548 1.7964 0
M  V30 4846 C 451.64 4.03142 1.31671 0
M  V30 4847 N 452.031 5.0276 0.553695 0
M  V30 4848 C 450.329 4.1635 1.59903 0
M  V30 4849 C 451.03 5.80923 0.30054 0
M  V30 4850 N 450.006 5.3651 0.875116 0
M  V30 4851 H 453.808 2.93889 0.0255363 0
M  V30 4852 H 451.322 1.62169 -0.0865362 0
M  V30 4853 H 453.319 3.37188 2.45173 0
M  V30 4854 H 451.979 2.19685 2.39099 0
M  V30 4855 H 452.99 5.17512 0.20032 0
M  V30 4856 H 449.667 3.54682 2.20243 0
M  V30 4857 H 451.057 6.7118 -0.311053 0
M  V30 4858 N 453.777 0.010035 1.57597 0
M  V30 4859 C 455.193 -0.346164 1.55801 0
M  V30 4860 C 455.393 -1.74144 1.01371 0
M  V30 4861 O 454.449 -2.43938 0.651968 0
M  V30 4862 C 455.762 -0.212216 2.9995 0
M  V30 4863 C 457.31 -0.286409 3.11687 0
M  V30 4864 C 457.785 -0.18147 4.5764 0
M  V30 4865 N 459.276 -0.239056 4.62583 0
M  V30 4866 C 460.011 -0.181351 5.73113 0
M  V30 4867 N 459.507 -0.073661 6.92761 0
M  V30 4868 N 461.3 -0.233949 5.61613 0
M  V30 4869 H 453.451 0.922657 1.91313 0
M  V30 4870 H 455.714 0.354595 0.879185 0
M  V30 4871 H 455.42 0.748169 3.4365 0
M  V30 4872 H 455.294 -0.990224 3.6397 0
M  V30 4873 H 457.681 -1.23724 2.67911 0
M  V30 4874 H 457.762 0.521645 2.50425 0
M  V30 4875 H 457.406 0.765863 5.02093 0
M  V30 4876 H 457.336 -1.00814 5.1686 0
M  V30 4877 H 459.827 -0.32321 3.76515 0
M  V30 4878 H 460.14 -0.0358003 7.72792 0
M  V30 4879 H 458.485 -0.0391461 6.94989 0
M  V30 4880 H 461.676 -0.316347 4.6703 0
M  V30 4881 H 461.849 -0.185514 6.47734 0
M  V30 4882 N 455.255 -1.55392 -0.262866 0
M  V30 4883 C 456.188 -1.8391 -1.35101 0
M  V30 4884 C 457.166 -0.692901 -1.47097 0
M  V30 4885 O 458.35 -0.936979 -1.63563 0
M  V30 4886 C 455.477 -2.00969 -2.72634 0
M  V30 4887 C 454.523 -3.23559 -2.7787 0
M  V30 4888 S 455.356 -4.80647 -2.3609 0
M  V30 4889 C 456.512 -5.00692 -3.75578 0
M  V30 4890 H 456.745 -2.75918 -1.1071 0
M  V30 4891 H 454.278 -1.47294 -0.463029 0
M  V30 4892 H 456.236 -2.11482 -3.51832 0
M  V30 4893 H 454.897 -1.09832 -2.94272 0
M  V30 4894 H 454.09 -3.32413 -3.78837 0
M  V30 4895 H 453.692 -3.11689 -2.06702 0
M  V30 4896 H 455.984 -4.87055 -4.70939 0
M  V30 4897 H 456.927 -6.02717 -3.71669 0
M  V30 4898 H 457.335 -4.28619 -3.6735 0
M  V30 4899 N 456.733 0.527833 -1.48498 0
M  V30 4900 C 457.979 1.28545 -1.56857 0
M  V30 4901 C 458.312 1.92678 -0.242651 0
M  V30 4902 O 457.587 1.79394 0.751545 0
M  V30 4903 C 457.87 2.37314 -2.70839 0
M  V30 4904 C 457.723 1.77858 -4.13142 0
M  V30 4905 C 459.042 3.39068 -2.80573 0
M  V30 4906 H 456.161 0.466006 -0.570971 0
M  V30 4907 H 458.803 0.587784 -1.8068 0
M  V30 4908 H 456.953 2.96821 -2.50658 0
M  V30 4909 H 458.625 1.22385 -4.44769 0
M  V30 4910 H 456.868 1.08383 -4.20042 0
M  V30 4911 H 457.539 2.56624 -4.88721 0
M  V30 4912 H 460.015 2.89518 -2.98862 0
M  V30 4913 H 458.891 4.12566 -3.6205 0
M  V30 4914 H 459.152 3.9975 -1.88818 0
M  V30 4915 N 458.211 1.37122 0.776871 0
M  V30 4916 C 459.46 1.31373 1.53049 0
M  V30 4917 C 459.773 -0.101016 1.95339 0
M  V30 4918 O 460.979 -0.280953 2.70042 0
M  V30 4919 C 459.435 2.30567 2.76346 0
M  V30 4920 C 459.043 3.77543 2.41175 0
M  V30 4921 C 460.787 2.33818 3.54301 0
M  V30 4922 C 458.694 4.68481 3.60943 0
M  V30 4923 H 457.624 0.488234 0.574581 0
M  V30 4924 H 460.275 1.62554 0.851372 0
M  V30 4925 H 458.657 1.92396 3.46121 0
M  V30 4926 H 459.831 4.24521 1.79216 0
M  V30 4927 H 458.146 3.77187 1.76405 0
M  V30 4928 H 460.743 2.98965 4.4331 0
M  V30 4929 H 461.086 1.3503 3.93793 0
M  V30 4930 H 461.619 2.7067 2.91518 0
M  V30 4931 H 458.358 5.68378 3.26537 0
M  V30 4932 H 457.878 4.2621 4.22025 0
M  V30 4933 H 459.557 4.85366 4.27819 0
M  V30 4934 N 459.689 -1.00246 1.21608 0
M  V30 4935 C 460.639 -2.07492 0.945051 0
M  V30 4936 C 461.623 -1.60585 -0.100675 0
M  V30 4937 O 462.815 -1.76667 0.10859 0
M  V30 4938 C 459.944 -3.39425 0.514342 0
M  V30 4939 C 459.03 -3.92993 1.59428 0
M  V30 4940 N 459.421 -4.19898 2.81991 0
M  V30 4941 C 457.719 -4.21297 1.46374 0
M  V30 4942 C 458.42 -4.63297 3.51754 0
M  V30 4943 N 457.396 -4.66421 2.79199 0
M  V30 4944 H 461.198 -2.26222 1.87619 0
M  V30 4945 H 458.712 -1.18339 1.11219 0
M  V30 4946 H 460.709 -4.15808 0.301527 0
M  V30 4947 H 459.369 -3.22101 -0.410008 0
M  V30 4948 H 460.38 -4.08377 3.1851 0
M  V30 4949 H 457.057 -4.13095 0.604863 0
M  V30 4950 H 458.447 -4.92816 4.56708 0
M  V30 4951 N 461.167 -1.02423 -1.1978 0
M  V30 4952 C 462.413 -0.719051 -1.89625 0
M  V30 4953 C 462.746 0.750083 -1.7913 0
M  V30 4954 O 462.021 1.54574 -1.18056 0
M  V30 4955 C 462.304 -1.16499 -3.40735 0
M  V30 4956 C 462.157 -2.695 -3.60125 0
M  V30 4957 C 463.476 -0.742166 -4.33797 0
M  V30 4958 H 460.595 -0.26269 -0.688595 0
M  V30 4959 H 463.237 -1.27333 -1.41018 0
M  V30 4960 H 461.387 -0.69341 -3.82262 0
M  V30 4961 H 463.059 -3.24569 -3.278 0
M  V30 4962 H 461.302 -3.10113 -3.03336 0
M  V30 4963 H 461.973 -2.95757 -4.66081 0
M  V30 4964 H 464.449 -1.1477 -3.99959 0
M  V30 4965 H 463.325 -1.08213 -5.38127 0
M  V30 4966 H 463.586 0.355747 -4.40666 0
M  V30 4967 N 462.645 1.35699 -0.801477 0
M  V30 4968 C 463.892 1.98913 -0.379459 0
M  V30 4969 C 464.22 1.63592 1.05204 0
M  V30 4970 O 463.475 0.888563 1.74365 0
M  V30 4971 C 463.774 3.53828 -0.504041 0
M  V30 4972 C 463.44 4.09002 -1.8981 0
M  V30 4973 C 462.102 4.23783 -2.27951 0
M  V30 4974 C 464.454 4.38939 -2.81038 0
M  V30 4975 C 461.782 4.65816 -3.56696 0
M  V30 4976 C 464.134 4.82409 -4.09224 0
M  V30 4977 C 462.798 4.95395 -4.4737 0
M  V30 4978 H 462.068 0.727874 -0.138854 0
M  V30 4979 H 464.715 1.61994 -1.02128 0
M  V30 4980 H 463.02 3.91175 0.221242 0
M  V30 4981 H 464.717 4.00687 -0.158361 0
M  V30 4982 H 461.307 3.97946 -1.59176 0
M  V30 4983 H 465.491 4.27077 -2.52821 0
M  V30 4984 H 460.747 4.74059 -3.86106 0
M  V30 4985 H 464.921 5.04535 -4.80018 0
M  V30 4986 H 462.548 5.27724 -5.47185 0
M  V30 4987 N 464.123 0.554532 1.47522 0
M  V30 4988 C 465.348 0.0322661 2.07375 0
M  V30 4989 C 465.773 -1.25079 1.40488 0
M  V30 4990 O 465.131 -1.74859 0.47896 0
M  V30 4991 C 465.179 -0.149397 3.6029 0
M  V30 4992 O 464.283 -1.21259 3.9417 0
M  V30 4993 H 463.624 0.0501228 0.662106 0
M  V30 4994 H 466.154 0.769452 1.8958 0
M  V30 4995 H 466.164 -0.364437 4.06369 0
M  V30 4996 H 464.839 0.787743 4.08372 0
M  V30 4997 H 463.416 -0.97825 3.5984 0
M  V30 4998 N 465.601 -1.54893 0.290851 0
M  V30 4999 C 466.531 -2.26103 -0.583084 0
M  V30 5000 C 467.512 -1.25684 -1.14619 0
M  V30 5001 O 468.697 -1.54436 -1.17741 0
M  V30 5002 C 465.827 -2.99409 -1.75987 0
M  V30 5003 C 464.781 -4.0689 -1.32758 0
M  V30 5004 C 464.107 -4.67856 -2.58872 0
M  V30 5005 C 465.407 -5.20215 -0.46624 0
M  V30 5006 H 467.101 -2.99398 0.0108214 0
M  V30 5007 H 464.647 -1.43998 0.00664468 0
M  V30 5008 H 466.6 -3.47943 -2.37727 0
M  V30 5009 H 465.324 -2.23675 -2.37985 0
M  V30 5010 H 463.983 -3.59191 -0.733299 0
M  V30 5011 H 463.631 -3.88772 -3.19163 0
M  V30 5012 H 463.331 -5.40438 -2.30653 0
M  V30 5013 H 464.855 -5.19147 -3.21433 0
M  V30 5014 H 466.269 -5.64704 -0.989047 0
M  V30 5015 H 464.666 -5.99455 -0.27826 0
M  V30 5016 H 465.736 -4.82198 0.511173 0
M  V30 5017 N 467.08 -0.0183926 -1.57589 0
M  V30 5018 C 468.012 0.995557 -2.06449 0
M  V30 5019 C 469.025 1.29556 -0.985849 0
M  V30 5020 O 470.214 1.2621 -1.26227 0
M  V30 5021 C 467.314 2.32572 -2.46502 0
M  V30 5022 C 466.487 2.21245 -3.77319 0
M  V30 5023 C 465.546 3.37104 -4.04039 0
M  V30 5024 O 464.572 3.14468 -4.74445 0
M  V30 5025 N 465.774 4.60553 -3.53372 0
M  V30 5026 H 468.539 0.578746 -2.94059 0
M  V30 5027 H 466.1 0.168603 -1.6102 0
M  V30 5028 H 468.092 3.08887 -2.61478 0
M  V30 5029 H 466.662 2.65931 -1.64315 0
M  V30 5030 H 465.882 1.29723 -3.72244 0
M  V30 5031 H 467.17 2.10868 -4.63047 0
M  V30 5032 H 466.568 4.81839 -2.96391 0
M  V30 5033 H 465.125 5.34072 -3.73644 0
M  V30 5034 N 468.558 1.5553 0.254621 0
M  V30 5035 C 469.49 1.86104 1.33783 0
M  V30 5036 C 470.503 0.746752 1.44663 0
M  V30 5037 O 471.692 1.0248 1.46151 0
M  V30 5038 C 468.792 2.02532 2.71724 0
M  V30 5039 C 467.965 3.33335 2.83208 0
M  V30 5040 C 467.024 3.396 4.01943 0
M  V30 5041 O 466.05 4.12862 3.91834 0
M  V30 5042 N 467.252 2.68332 5.1476 0
M  V30 5043 H 470.017 2.79605 1.07893 0
M  V30 5044 H 467.578 1.55672 0.444732 0
M  V30 5045 H 469.57 2.04074 3.4948 0
M  V30 5046 H 468.14 1.15811 2.90356 0
M  V30 5047 H 467.36 3.44176 1.92189 0
M  V30 5048 H 468.648 4.19565 2.87824 0
M  V30 5049 H 468.046 2.08528 5.25864 0
M  V30 5050 H 466.603 2.75575 5.90679 0
M  V30 5051 N 470.036 -0.519951 1.48776 0
M  V30 5052 C 470.969 -1.64053 1.58625 0
M  V30 5053 C 471.947 -1.5664 0.43618 0
M  V30 5054 O 473.131 -1.76969 0.649159 0
M  V30 5055 C 470.258 -3.02497 1.52359 0
M  V30 5056 C 469.304 -3.28235 2.72331 0
M  V30 5057 S 470.137 -3.13414 4.34203 0
M  V30 5058 C 471.293 -4.54287 4.30551 0
M  V30 5059 H 471.526 -1.5545 2.53422 0
M  V30 5060 H 469.059 -0.703681 1.37433 0
M  V30 5061 H 471.017 -3.82336 1.4943 0
M  V30 5062 H 469.678 -3.08531 0.588824 0
M  V30 5063 H 468.871 -4.29256 2.64113 0
M  V30 5064 H 468.473 -2.56085 2.72574 0
M  V30 5065 H 470.765 -5.46006 4.01103 0
M  V30 5066 H 471.708 -4.67558 5.31785 0
M  V30 5067 H 472.116 -4.34079 3.60881 0
M  V30 5068 N 471.514 -1.37532 -0.769588 0
M  V30 5069 C 472.742 -1.36059 -1.55871 0
M  V30 5070 C 473.157 0.053544 -1.88724 0
M  V30 5071 O 472.514 1.01591 -1.5161 0
M  V30 5072 C 472.565 -2.20107 -2.86767 0
M  V30 5073 O 472.286 -3.56009 -2.55321 0
M  V30 5074 C 473.787 -2.26636 -3.80987 0
M  V30 5075 H 471.007 -0.465967 -0.482821 0
M  V30 5076 H 473.551 -1.80901 -0.953686 0
M  V30 5077 H 471.706 -1.78768 -3.43687 0
M  V30 5078 H 472.12 -4.0009 -3.39158 0
M  V30 5079 H 473.594 -2.89763 -4.69831 0
M  V30 5080 H 474.071 -1.2754 -4.20274 0
M  V30 5081 H 474.677 -2.68296 -3.29996 0
M  V30 5082 N 472.992 0.995999 -1.22138 0
M  V30 5083 C 473.955 2.06711 -0.990109 0
M  V30 5084 C 474.955 1.60744 0.0422978 0
M  V30 5085 O 476.145 1.73095 -0.195895 0
M  V30 5086 C 473.277 3.37288 -0.49491 0
M  V30 5087 H 474.47 2.28661 -1.94047 0
M  V30 5088 H 472.023 1.16711 -1.03963 0
M  V30 5089 H 472.758 3.21022 0.459948 0
M  V30 5090 H 472.543 3.71986 -1.23971 0
M  V30 5091 H 474.033 4.16103 -0.353253 0
M  V30 5092 N 474.47 1.03057 1.19235 0
M  V30 5093 C 475.42 0.583386 2.2041 0
M  V30 5094 C 476.404 -0.368776 1.56617 0
M  V30 5095 O 477.596 -0.189471 1.75983 0
M  V30 5096 C 474.725 -0.0626534 3.43243 0
M  V30 5097 C 473.811 0.91205 4.14177 0
M  V30 5098 N 474.202 2.07514 4.61272 0
M  V30 5099 C 472.5 0.735859 4.39888 0
M  V30 5100 C 473.201 2.69003 5.15764 0
M  V30 5101 N 472.177 1.96954 5.06666 0
M  V30 5102 H 475.979 1.46988 2.54503 0
M  V30 5103 H 473.493 0.897785 1.35328 0
M  V30 5104 H 475.49 -0.400653 4.1497 0
M  V30 5105 H 474.15 -0.944813 3.1065 0
M  V30 5106 H 475.161 2.45448 4.56043 0
M  V30 5107 H 471.838 -0.0970656 4.17387 0
M  V30 5108 H 473.228 3.67514 5.6248 0
M  V30 5109 N 475.948 -1.35272 0.808662 0
M  V30 5110 C 476.895 -2.29764 0.218482 0
M  V30 5111 C 477.865 -1.52911 -0.648652 0
M  V30 5112 O 479.05 -1.81341 -0.593297 0
M  V30 5113 C 476.19 -3.39388 -0.625282 0
M  V30 5114 C 475.303 -4.31202 0.262516 0
M  V30 5115 C 474.438 -5.27919 -0.589451 0
M  V30 5116 C 473.477 -6.11371 0.298617 0
M  V30 5117 N 472.614 -7.0022 -0.513443 0
M  V30 5118 H 477.454 -2.79645 1.02968 0
M  V30 5119 H 474.991 -1.37629 0.519303 0
M  V30 5120 H 476.949 -4.01615 -1.12966 0
M  V30 5121 H 475.579 -2.90777 -1.40173 0
M  V30 5122 H 474.631 -3.69962 0.885013 0
M  V30 5123 H 475.943 -4.89748 0.945971 0
M  V30 5124 H 475.097 -5.95529 -1.15888 0
M  V30 5125 H 473.836 -4.69875 -1.30647 0
M  V30 5126 H 472.841 -5.42707 0.880301 0
M  V30 5127 H 474.066 -6.71494 1.01352 0
M  V30 5128 H 472.012 -6.44662 -1.21439 0
M  V30 5129 H 471.929 -7.55917 0.111922 0
M  V30 5130 H 473.197 -7.72175 -1.06608 0
M  V30 5131 N 477.426 -0.562348 -1.47226 0
M  V30 5132 C 478.675 -0.038041 -2.01664 0
M  V30 5133 C 478.988 1.32199 -1.44162 0
M  V30 5134 O 480.194 1.9365 -1.90294 0
M  V30 5135 C 478.65 -0.0174958 -3.59896 0
M  V30 5136 C 478.258 -1.3746 -4.2639 0
M  V30 5137 C 480.002 0.453934 -4.22066 0
M  V30 5138 C 477.909 -1.31289 -5.76643 0
M  V30 5139 H 476.839 -0.0104511 -0.753928 0
M  V30 5140 H 479.49 -0.710966 -1.69167 0
M  V30 5141 H 477.872 0.721182 -3.89378 0
M  V30 5142 H 479.046 -2.1314 -4.08544 0
M  V30 5143 H 477.361 -1.78438 -3.7623 0
M  V30 5144 H 479.958 0.518584 -5.32179 0
M  V30 5145 H 480.301 1.46706 -3.89594 0
M  V30 5146 H 480.834 -0.230044 -3.97134 0
M  V30 5147 H 477.573 -2.30217 -6.13743 0
M  V30 5148 H 477.093 -0.597973 -5.96812 0
M  V30 5149 H 478.772 -1.01713 -6.38955 0
M  V30 5150 N 478.904 1.54736 -0.299062 0
M  V30 5151 C 480.134 2.04215 0.312992 0
M  V30 5152 C 480.542 1.17596 1.48215 0
M  V30 5153 O 479.885 0.193835 1.82674 0
M  V30 5154 C 479.947 3.49696 0.833862 0
M  V30 5155 C 479.611 4.56518 -0.20977 0
M  V30 5156 C 480.608 5.09442 -1.03756 0
M  V30 5157 C 478.293 5.01073 -0.35091 0
M  V30 5158 C 480.287 6.05459 -1.99244 0
M  V30 5159 C 477.974 5.9691 -1.30924 0
M  V30 5160 C 478.972 6.48987 -2.1285 0
M  V30 5161 O 478.66 7.42947 -3.07059 0
M  V30 5162 H 478.392 0.672128 0.0722494 0
M  V30 5163 H 480.946 2.00718 -0.436043 0
M  V30 5164 H 479.176 3.5051 1.63339 0
M  V30 5165 H 480.865 3.82381 1.36159 0
M  V30 5166 H 481.631 4.75816 -0.939376 0
M  V30 5167 H 477.51 4.60168 0.276813 0
M  V30 5168 H 481.054 6.46031 -2.63229 0
M  V30 5169 H 476.951 6.29953 -1.40815 0
M  V30 5170 H 477.719 7.60743 -3.02015 0
M  V30 5171 N 480.382 0.0267497 1.57577 0
M  V30 5172 C 481.631 -0.651736 1.9088 0
M  V30 5173 C 481.944 -1.73427 0.904576 0
M  V30 5174 O 483.15 -2.46923 1.12877 0
M  V30 5175 C 481.606 -1.21048 3.38933 0
M  V30 5176 C 481.214 -0.161362 4.47709 0
M  V30 5177 C 482.958 -1.86562 3.81307 0
M  V30 5178 C 480.865 -0.731611 5.86857 0
M  V30 5179 H 479.795 -0.247198 0.712326 0
M  V30 5180 H 482.446 0.0916641 1.83271 0
M  V30 5181 H 480.828 -2.00542 3.41466 0
M  V30 5182 H 482.002 0.61094 4.56732 0
M  V30 5183 H 480.317 0.394877 4.14523 0
M  V30 5184 H 482.914 -2.30178 4.8262 0
M  V30 5185 H 483.257 -2.70735 3.16241 0
M  V30 5186 H 483.79 -1.13762 3.81186 0
M  V30 5187 H 480.529 0.0719329 6.55461 0
M  V30 5188 H 480.049 -1.47245 5.81445 0
M  V30 5189 H 481.728 -1.22208 6.35354 0
M  V30 5190 N 481.861 -1.55662 -0.24637 0
M  V30 5191 C 482.811 -1.86753 -1.30795 0
M  V30 5192 C 483.795 -0.728445 -1.43466 0
M  V30 5193 O 484.987 -0.99038 -1.46699 0
M  V30 5194 C 482.116 -2.16618 -2.66329 0
M  V30 5195 C 481.202 -3.36855 -2.57661 0
M  V30 5196 N 481.593 -4.56111 -2.18624 0
M  V30 5197 C 479.891 -3.39976 -2.88673 0
M  V30 5198 C 480.592 -5.38247 -2.20601 0
M  V30 5199 N 479.568 -4.77322 -2.60124 0
M  V30 5200 H 483.37 -2.76486 -0.996642 0
M  V30 5201 H 480.884 -1.55896 -0.454994 0
M  V30 5202 H 482.881 -2.37057 -3.42942 0
M  V30 5203 H 481.541 -1.28185 -2.98327 0
M  V30 5204 H 482.552 -4.81726 -1.9016 0
M  V30 5205 H 479.229 -2.61815 -3.25206 0
M  V30 5206 H 480.619 -6.43657 -1.92756 0
M  V30 5207 N 483.339 0.512053 -1.4905 0
M  V30 5208 C 484.564 1.2959 -1.6193 0
M  V30 5209 C 484.989 1.85906 -0.286454 0
M  V30 5210 O 484.347 1.65312 0.744426 0
M  V30 5211 C 484.395 2.40987 -2.68249 0
M  V30 5212 O 483.499 3.44531 -2.26654 0
M  V30 5213 H 482.84 0.383053 -0.542371 0
M  V30 5214 H 485.37 0.614231 -1.95162 0
M  V30 5215 H 485.38 2.86913 -2.90078 0
M  V30 5216 H 484.055 1.99361 -3.65004 0
M  V30 5217 H 482.632 3.046 -2.15112 0
M  V30 5218 N 484.817 1.37938 0.762283 0
M  V30 5219 C 486.047 1.36685 1.54922 0
M  V30 5220 C 486.455 -0.0474099 1.89141 0
M  V30 5221 O 485.798 -1.02213 1.52638 0
M  V30 5222 C 485.86 2.14963 2.88152 0
M  V30 5223 C 485.524 3.6385 2.76518 0
M  V30 5224 C 486.521 4.57531 2.46904 0
M  V30 5225 C 484.206 4.07095 2.94243 0
M  V30 5226 C 486.2 5.92436 2.35156 0
M  V30 5227 C 483.887 5.42083 2.82116 0
M  V30 5228 C 484.885 6.34567 2.52614 0
M  V30 5229 O 484.573 7.67073 2.40529 0
M  V30 5230 H 484.305 0.469586 0.486276 0
M  V30 5231 H 486.859 1.82012 0.951876 0
M  V30 5232 H 485.089 1.6434 3.50042 0
M  V30 5233 H 486.778 2.06224 3.49609 0
M  V30 5234 H 487.544 4.25428 2.32886 0
M  V30 5235 H 483.423 3.35462 3.16206 0
M  V30 5236 H 486.967 6.64591 2.12049 0
M  V30 5237 H 482.864 5.73785 2.95704 0
M  V30 5238 H 483.632 7.77499 2.55807 0
M  V30 5239 N 486.295 -0.989507 1.22664 0
M  V30 5240 C 487.243 -2.10148 0.997035 0
M  V30 5241 C 488.237 -1.6929 -0.0609783 0
M  V30 5242 O 489.443 -1.79766 0.0917523 0
M  V30 5243 H 485.818 -0.687256 0.305259 0
M  V30 5244 H 487.789 -2.26685 1.94053 0
M  V30 5245 C 486.538 -3.4257 0.595085 0
M  V30 5246 H 485.861 -3.74453 1.40089 0
M  V30 5247 H 487.301 -4.21344 0.473869 0
M  V30 5248 C 485.76 -3.29638 -0.695725 0
M  V30 5249 O 486.29 -3.61709 -1.74727 0
M  V30 5250 N 484.496 -2.82814 -0.668173 0
M  V30 5251 H 484.043 -2.56914 0.18787 0
M  V30 5252 H 484.001 -2.74544 -1.5321 0
M  V30 5253 N 487.773 -1.03688 -1.18687 0
M  V30 5254 C 489.001 -0.757918 -1.92518 0
M  V30 5255 C 489.416 0.684398 -1.75959 0
M  V30 5256 O 488.773 1.46617 -1.08673 0
M  V30 5257 C 488.824 -1.10985 -3.44042 0
M  V30 5258 O 488.545 -2.49554 -3.60076 0
M  V30 5259 C 490.046 -0.854844 -4.3498 0
M  V30 5260 H 487.266 -0.276699 -0.611293 0
M  V30 5261 H 489.81 -1.38352 -1.50595 0
M  V30 5262 H 487.965 -0.529279 -3.83767 0
M  V30 5263 H 488.379 -2.6291 -4.53849 0
M  V30 5264 H 489.853 -1.15098 -5.39867 0
M  V30 5265 H 490.33 0.210507 -4.38695 0
M  V30 5266 H 490.936 -1.41853 -4.00946 0
M  V30 5267 N 489.251 1.34841 -0.815825 0
M  V30 5268 C 490.214 2.27959 -0.238185 0
M  V30 5269 C 491.214 1.49983 0.579816 0
M  V30 5270 O 492.404 1.69617 0.396953 0
M  V30 5271 C 489.536 3.34314 0.666876 0
M  V30 5272 H 490.729 2.80558 -1.05958 0
M  V30 5273 H 488.282 1.44852 -0.587156 0
M  V30 5274 H 489.017 2.86916 1.5116 0
M  V30 5275 H 488.802 3.92014 0.0819106 0
M  V30 5276 H 490.292 4.0379 1.06506 0
M  V30 5277 N 490.729 0.570148 1.46925 0
M  V30 5278 C 491.957 0.0561966 2.06824 0
M  V30 5279 C 492.372 -1.24326 1.42086 0
M  V30 5280 O 491.729 -1.74882 0.521794 0
M  V30 5281 C 491.78 -0.129517 3.61268 0
M  V30 5282 O 491.501 1.1185 4.23581 0
M  V30 5283 C 493.002 -0.679266 4.38065 0
M  V30 5284 H 490.222 0.0517261 0.669003 0
M  V30 5285 H 492.766 0.787243 1.8874 0
M  V30 5286 H 490.921 -0.810739 3.78822 0
M  V30 5287 H 491.335 0.924375 5.1629 0
M  V30 5288 H 492.809 -0.758445 5.46765 0
M  V30 5289 H 493.286 -1.69346 4.05239 0
M  V30 5290 H 493.892 -0.0333237 4.25287 0
M  V30 5291 N 492.207 -1.54576 0.307264 0
M  V30 5292 C 493.456 -1.99442 -0.300976 0
M  V30 5293 C 493.769 -1.19928 -1.5452 0
M  V30 5294 O 494.975 -1.55092 -2.22842 0
M  V30 5295 C 493.431 -3.55084 -0.586809 0
M  V30 5296 C 493.039 -4.43413 0.639438 0
M  V30 5297 C 494.783 -4.0846 -1.1559 0
M  V30 5298 C 492.69 -5.90499 0.326411 0
M  V30 5299 H 491.62 -0.744986 -0.116238 0
M  V30 5300 H 494.271 -1.787 0.416947 0
M  V30 5301 H 492.653 -3.71749 -1.36449 0
M  V30 5302 H 493.827 -4.38522 1.41545 0
M  V30 5303 H 492.142 -4.00842 1.1276 0
M  V30 5304 H 494.739 -5.15926 -1.40445 0
M  V30 5305 H 495.082 -3.59443 -2.10015 0
M  V30 5306 H 495.615 -3.95362 -0.439778 0
M  V30 5307 H 492.354 -6.43676 1.23939 0
M  V30 5308 H 491.874 -5.98382 -0.412212 0
M  V30 5309 H 493.553 -6.46962 -0.0697393 0
M  V30 5310 N 493.685 -0.035106 -1.57561 0
M  V30 5311 C 494.932 0.642229 -1.92046 0
M  V30 5312 C 495.26 1.7179 -0.91206 0
M  V30 5313 O 494.515 1.95544 0.0781153 0
M  V30 5314 C 494.814 1.29149 -3.3325 0
M  V30 5315 C 494.48 0.345604 -4.49574 0
M  V30 5316 C 493.142 0.0852775 -4.81124 0
M  V30 5317 C 495.494 -0.303569 -5.20315 0
M  V30 5318 C 492.822 -0.831927 -5.80772 0
M  V30 5319 C 495.174 -1.20886 -6.20942 0
M  V30 5320 C 493.838 -1.47802 -6.50931 0
M  V30 5321 H 493.108 0.235008 -0.702746 0
M  V30 5322 H 495.755 -0.0981529 -1.91248 0
M  V30 5323 H 494.06 2.10676 -3.30337 0
M  V30 5324 H 495.757 1.82223 -3.57205 0
M  V30 5325 H 492.347 0.558683 -4.24943 0
M  V30 5326 H 496.531 -0.115515 -4.96166 0
M  V30 5327 H 491.787 -1.0481 -6.02349 0
M  V30 5328 H 495.961 -1.71804 -6.74875 0
M  V30 5329 H 493.588 -2.19039 -7.2796 0
M  V30 5330 N 495.163 1.55791 0.238111 0
M  V30 5331 C 496.113 1.87444 1.29803 0
M  V30 5332 C 497.097 0.736043 1.43078 0
M  V30 5333 O 498.289 0.998146 1.46171 0
M  V30 5334 C 495.418 2.18028 2.65177 0
M  V30 5335 C 494.504 3.38217 2.55871 0
M  V30 5336 N 494.895 4.57264 2.16202 0
M  V30 5337 C 493.193 3.41502 2.86866 0
M  V30 5338 C 493.894 5.3941 2.17744 0
M  V30 5339 N 492.87 4.78695 2.57589 0
M  V30 5340 H 496.672 2.7701 0.981965 0
M  V30 5341 H 494.186 1.56135 0.44672 0
M  V30 5342 H 496.183 2.38873 3.4168 0
M  V30 5343 H 494.843 1.29765 2.97643 0
M  V30 5344 H 495.854 4.82727 1.87602 0
M  V30 5345 H 492.531 2.63536 3.23813 0
M  V30 5346 H 493.921 6.44671 1.89339 0
M  V30 5347 N 496.642 -0.504142 1.49319 0
M  V30 5348 C 497.552 -1.63248 1.68486 0
M  V30 5349 C 498.568 -1.64488 0.567432 0
M  V30 5350 O 499.744 -1.82966 0.841749 0
M  V30 5351 C 496.809 -2.99627 1.74426 0
M  V30 5352 C 495.87 -3.09039 2.97982 0
M  V30 5353 C 495.103 -4.38913 3.0363 0
M  V30 5354 O 495.326 -5.27528 2.16958 0
M  V30 5355 O 494.26 -4.53231 3.96062 0
M  V30 5356 H 498.086 -1.50008 2.64067 0
M  V30 5357 H 495.671 -0.680086 1.33023 0
M  V30 5358 H 497.553 -3.80689 1.80705 0
M  V30 5359 H 496.228 -3.13136 0.820233 0
M  V30 5360 H 495.135 -2.27177 2.97223 0
M  V30 5361 H 496.468 -3.00456 3.89855 0
M  V30 5362 N 498.12 -1.38341 -0.754957 0
M  V30 5363 C 499.05 -1.38176 -1.88227 0
M  V30 5364 C 500.031 -0.247873 -1.68284 0
M  V30 5365 O 501.216 -0.45075 -1.88896 0
M  V30 5366 C 498.346 -1.20471 -3.25736 0
M  V30 5367 C 497.3 -2.3105 -3.60278 0
M  V30 5368 C 496.626 -1.98452 -4.96509 0
M  V30 5369 C 497.926 -3.73305 -3.65295 0
M  V30 5370 H 499.62 -2.32512 -1.88622 0
M  V30 5371 H 497.166 -1.1192 -0.906082 0
M  V30 5372 H 499.119 -1.18982 -4.04254 0
M  V30 5373 H 497.843 -0.225965 -3.25817 0
M  V30 5374 H 496.502 -2.31723 -2.84078 0
M  V30 5375 H 496.15 -0.990641 -4.93148 0
M  V30 5376 H 495.85 -2.7251 -5.20588 0
M  V30 5377 H 497.374 -1.98578 -5.77407 0
M  V30 5378 H 498.788 -3.7467 -4.3393 0
M  V30 5379 H 497.185 -4.46557 -4.00883 0
M  V30 5380 H 498.255 -4.05719 -2.65556 0
M  V30 5381 N 499.598 0.982988 -1.23187 0
M  V30 5382 C 500.844 1.72648 -1.06398 0
M  V30 5383 C 501.177 1.90066 0.398561 0
M  V30 5384 O 500.452 1.45105 1.29518 0
M  V30 5385 C 500.735 3.12627 -1.78707 0
M  V30 5386 C 500.588 3.02795 -3.32618 0
M  V30 5387 C 501.907 4.11997 -1.54747 0
M  V30 5388 H 499.026 0.626649 -0.387918 0
M  V30 5389 H 501.668 1.14455 -1.51658 0
M  V30 5390 H 499.818 3.62308 -1.40234 0
M  V30 5391 H 501.49 2.60659 -3.80598 0
M  V30 5392 H 499.733 2.39362 -3.61785 0
M  V30 5393 H 500.404 4.01893 -3.78399 0
M  V30 5394 H 502.88 3.71114 -1.88186 0
M  V30 5395 H 501.756 5.08037 -2.07821 0
M  V30 5396 H 502.017 4.39462 -0.482249 0
M  V30 5397 N 501.076 1.04316 1.18135 0
M  V30 5398 C 502.306 0.767003 1.91835 0
M  V30 5399 C 502.714 -0.68002 1.76557 0
M  V30 5400 O 502.057 -1.47548 1.09432 0
M  V30 5401 C 502.119 1.05674 3.43618 0
M  V30 5402 C 501.783 2.49818 3.82675 0
M  V30 5403 C 502.78 3.48003 3.86251 0
M  V30 5404 C 500.465 2.84596 4.13897 0
M  V30 5405 C 502.459 4.79016 4.20503 0
M  V30 5406 C 500.146 4.15813 4.4782 0
M  V30 5407 C 501.144 5.12834 4.51099 0
M  V30 5408 O 500.832 6.41699 4.84229 0
M  V30 5409 H 500.564 0.278948 0.615763 0
M  V30 5410 H 503.118 1.3946 1.50798 0
M  V30 5411 H 501.348 0.372029 3.84906 0
M  V30 5412 H 503.037 0.767994 3.98568 0
M  V30 5413 H 503.803 3.22475 3.62264 0
M  V30 5414 H 499.682 2.09748 4.1052 0
M  V30 5415 H 503.226 5.54739 4.22978 0
M  V30 5416 H 499.123 4.41109 4.71268 0
M  V30 5417 H 499.891 6.46387 5.02121 0
M  V30 5418 N 502.554 -1.34406 0.822964 0
M  V30 5419 C 503.501 -2.29519 0.24284 0
M  V30 5420 C 504.471 -1.5359 -0.632397 0
M  V30 5421 O 505.656 -1.8196 -0.57403 0
M  V30 5422 C 502.796 -3.40032 -0.58925 0
M  V30 5423 C 501.909 -4.30899 0.308236 0
M  V30 5424 C 501.044 -5.28515 -0.533425 0
M  V30 5425 C 500.083 -6.1102 0.363444 0
M  V30 5426 N 499.22 -7.00725 -0.439147 0
M  V30 5427 H 504.06 -2.78537 1.05929 0
M  V30 5428 H 501.597 -1.3707 0.533872 0
M  V30 5429 H 503.555 -4.0279 -1.087 0
M  V30 5430 H 502.185 -2.92248 -1.37081 0
M  V30 5431 H 501.237 -3.69002 0.924203 0
M  V30 5432 H 502.549 -4.88717 0.997862 0
M  V30 5433 H 501.703 -5.96725 -1.09565 0
M  V30 5434 H 500.442 -4.71235 -1.25656 0
M  V30 5435 H 499.447 -5.41743 0.937812 0
M  V30 5436 H 500.672 -6.70381 1.08469 0
M  V30 5437 H 498.618 -6.45913 -1.14595 0
M  V30 5438 H 498.535 -7.55756 0.19209 0
M  V30 5439 H 499.803 -7.73263 -0.984124 0
M  V30 5440 N 504.032 -0.577932 -1.46621 0
M  V30 5441 C 504.964 0.195801 -2.28362 0
M  V30 5442 C 505.977 0.859983 -1.38232 0
M  V30 5443 O 507.166 0.730349 -1.62875 0
M  V30 5444 C 504.266 1.29639 -3.13124 0
M  V30 5445 C 503.439 0.725049 -4.31349 0
M  V30 5446 C 502.498 1.71274 -4.97546 0
M  V30 5447 O 501.524 1.25067 -5.5529 0
M  V30 5448 N 502.726 3.04672 -4.94121 0
M  V30 5449 H 505.491 -0.505468 -2.95407 0
M  V30 5450 H 503.052 -0.415381 -1.56481 0
M  V30 5451 H 505.044 1.95631 -3.54275 0
M  V30 5452 H 503.614 1.90059 -2.48186 0
M  V30 5453 H 502.834 -0.112205 -3.9404 0
M  V30 5454 H 504.122 0.323034 -5.07774 0
M  V30 5455 H 503.52 3.4484 -4.48444 0
M  V30 5456 H 502.077 3.66166 -5.39227 0
M  V30 5457 N 505.51 1.54411 -0.315457 0
M  V30 5458 C 506.738 2.04833 0.291738 0
M  V30 5459 C 507.153 1.19203 1.46411 0
M  V30 5460 O 506.51 0.220867 1.81159 0
M  V30 5461 C 506.561 3.53969 0.73404 0
M  V30 5462 O 506.282 4.36346 -0.391682 0
M  V30 5463 C 507.783 4.2045 1.40489 0
M  V30 5464 H 505.003 0.668195 0.0612947 0
M  V30 5465 H 507.547 1.99276 -0.45929 0
M  V30 5466 H 505.702 3.5984 1.43506 0
M  V30 5467 H 506.116 5.24481 -0.0447088 0
M  V30 5468 H 507.59 5.26278 1.66539 0
M  V30 5469 H 508.067 3.71067 2.3496 0
M  V30 5470 H 508.673 4.18694 0.746662 0
M  V30 5471 N 506.988 0.0434614 1.5754 0
M  V30 5472 C 507.935 -0.93356 2.11077 0
M  V30 5473 C 508.905 -1.31383 1.01626 0
M  V30 5474 O 510.09 -1.40465 1.29129 0
M  V30 5475 C 507.23 -2.20578 2.65404 0
M  V30 5476 C 506.343 -1.88068 3.88914 0
M  V30 5477 C 505.478 -3.09691 4.31584 0
M  V30 5478 C 504.517 -2.73067 5.47815 0
M  V30 5479 N 503.654 -3.87359 5.85574 0
M  V30 5480 H 508.494 -0.470118 2.94268 0
M  V30 5481 H 506.031 -0.220434 1.45439 0
M  V30 5482 H 507.989 -2.95011 2.94999 0
M  V30 5483 H 506.619 -2.64513 1.85021 0
M  V30 5484 H 505.671 -1.03816 3.6596 0
M  V30 5485 H 506.983 -1.57104 4.73413 0
M  V30 5486 H 506.137 -3.92431 4.62691 0
M  V30 5487 H 504.876 -3.43827 3.45882 0
M  V30 5488 H 503.881 -1.88742 5.16388 0
M  V30 5489 H 505.106 -2.40131 6.35227 0
M  V30 5490 H 503.052 -4.21311 5.02825 0
M  V30 5491 H 502.969 -3.60068 6.64746 0
M  V30 5492 H 504.237 -4.70761 6.21292 0
M  V30 5493 N 508.466 -1.55915 -0.229846 0
M  V30 5494 C 509.715 -1.77742 -0.953455 0
M  V30 5495 C 510.028 -0.610524 -1.85828 0
M  V30 5496 O 511.234 -0.712219 -2.61992 0
M  V30 5497 C 509.69 -3.14738 -1.74551 0
M  V30 5498 C 509.298 -4.39126 -0.887242 0
M  V30 5499 C 511.042 -3.45895 -2.46084 0
M  V30 5500 C 508.949 -5.67149 -1.67617 0
M  V30 5501 H 507.879 -0.662648 -0.359741 0
M  V30 5502 H 510.53 -1.82322 -0.207576 0
M  V30 5503 H 508.912 -3.04311 -2.53399 0
M  V30 5504 H 510.086 -4.60588 -0.139892 0
M  V30 5505 H 508.401 -4.15427 -0.284443 0
M  V30 5506 H 510.998 -4.38767 -3.05594 0
M  V30 5507 H 511.341 -2.68007 -3.18556 0
M  V30 5508 H 511.874 -3.57614 -1.74233 0
M  V30 5509 H 508.613 -6.47906 -0.994881 0
M  V30 5510 H 508.133 -5.49763 -2.39836 0
M  V30 5511 H 509.812 -6.07025 -2.23898 0
M  V30 5512 N 509.944 0.496216 -1.49584 0
M  V30 5513 C 511.193 1.24668 -1.58558 0
M  V30 5514 C 511.506 1.9359 -0.279703 0
M  V30 5515 O 512.712 2.70365 -0.248048 0
M  V30 5516 C 511.168 2.26388 -2.79779 0
M  V30 5517 C 510.776 1.63384 -4.17145 0
M  V30 5518 C 512.52 3.02233 -2.98086 0
M  V30 5519 C 510.427 2.63243 -5.29582 0
M  V30 5520 H 509.357 0.468995 -0.590389 0
M  V30 5521 H 512.008 0.519985 -1.75978 0
M  V30 5522 H 510.39 3.02241 -2.55863 0
M  V30 5523 H 511.564 0.93491 -4.51216 0
M  V30 5524 H 509.879 0.999121 -4.04236 0
M  V30 5525 H 512.476 3.76919 -3.79257 0
M  V30 5526 H 512.819 3.60132 -2.08831 0
M  V30 5527 H 513.352 2.33495 -3.22063 0
M  V30 5528 H 510.091 2.10119 -6.20911 0
M  V30 5529 H 509.611 3.31363 -4.99959 0
M  V30 5530 H 511.29 3.25575 -5.59115 0
M  V30 5531 N 511.423 1.38739 0.74761 0
M  V30 5532 C 512.648 1.38702 1.54197 0
M  V30 5533 C 513.073 -0.019664 1.8809 0
M  V30 5534 O 512.431 -1.00333 1.51006 0
M  V30 5535 C 512.479 2.25492 2.814 0
M  V30 5536 O 511.583 1.67613 3.76802 0
M  V30 5537 H 510.924 0.472863 0.466151 0
M  V30 5538 H 513.454 1.82577 0.923413 0
M  V30 5539 H 513.464 2.39561 3.30264 0
M  V30 5540 H 512.139 3.27727 2.56062 0
M  V30 5541 H 510.716 1.62718 3.35526 0
M  V30 5542 N 512.901 -0.976442 1.23707 0
M  V30 5543 C 514.126 -1.75875 1.09922 0
M  V30 5544 C 514.551 -1.84911 -0.34489 0
M  V30 5545 O 513.909 -1.31363 -1.24954 0
M  V30 5546 C 513.957 -3.16179 1.73388 0
M  V30 5547 O 513.061 -4.00124 0.99871 0
M  V30 5548 H 512.402 -0.540954 0.385052 0
M  V30 5549 H 514.932 -1.22546 1.6384 0
M  V30 5550 H 514.942 -3.66741 1.78788 0
M  V30 5551 H 513.617 -3.08917 2.78466 0
M  V30 5552 H 512.194 -3.58624 1.02193 0
M  V30 5553 N 514.379 -1.04941 -1.1758 0
M  V30 5554 C 515.327 -0.64204 -2.23563 0
M  V30 5555 C 516.321 0.335453 -1.66045 0
M  V30 5556 O 517.527 0.20179 -1.78865 0
M  V30 5557 H 513.902 -0.18944 -0.727748 0
M  V30 5558 H 515.873 -1.54609 -2.55223 0
M  V30 5559 C 514.622 -0.0301051 -3.47687 0
M  V30 5560 H 513.945 -0.773339 -3.92249 0
M  V30 5561 H 515.385 0.217592 -4.23441 0
M  V30 5562 C 513.844 1.2225 -3.13937 0
M  V30 5563 O 514.374 2.3122 -3.28482 0
M  V30 5564 N 512.58 1.11917 -2.68185 0
M  V30 5565 H 512.127 0.232403 -2.5655 0
M  V30 5566 H 512.085 1.95814 -2.45976 0
M  V30 5567 N 515.857 1.33968 -0.830081 0
M  V30 5568 C 516.789 2.28194 -0.21448 0
M  V30 5569 C 517.802 1.5135 0.599752 0
M  V30 5570 O 518.991 1.73286 0.42826 0
M  V30 5571 C 516.091 3.31221 0.717356 0
M  V30 5572 C 515.264 4.37365 -0.055613 0
M  V30 5573 C 514.323 5.2011 0.798231 0
M  V30 5574 O 513.349 5.68691 0.240616 0
M  V30 5575 N 514.551 5.40523 2.11695 0
M  V30 5576 H 517.316 2.81662 -1.02405 0
M  V30 5577 H 514.877 1.46568 -0.687713 0
M  V30 5578 H 516.869 3.83477 1.29334 0
M  V30 5579 H 515.439 2.78095 1.42765 0
M  V30 5580 H 514.659 3.85727 -0.812936 0
M  V30 5581 H 515.947 5.05397 -0.587444 0
M  V30 5582 H 515.345 5.0274 2.59363 0
M  V30 5583 H 513.902 5.95871 2.64162 0
M  V30 5584 N 517.335 0.585699 1.46312 0
M  V30 5585 C 518.245 -0.148236 2.34131 0
M  V30 5586 C 519.261 -0.882972 1.49932 0
M  V30 5587 O 520.437 -0.845484 1.82794 0
M  V30 5588 C 517.502 -1.14714 3.27172 0
M  V30 5589 C 516.563 -0.416746 4.27272 0
M  V30 5590 C 515.796 -1.36806 5.15868 0
M  V30 5591 O 516.019 -2.60475 5.07454 0
M  V30 5592 O 514.953 -0.877018 5.95476 0
M  V30 5593 H 518.779 0.572882 2.98248 0
M  V30 5594 H 516.364 0.346082 1.45336 0
M  V30 5595 H 518.246 -1.72303 3.84564 0
M  V30 5596 H 516.921 -1.84967 2.65648 0
M  V30 5597 H 515.828 0.201061 3.73559 0
M  V30 5598 H 517.161 0.244872 4.9159 0
M  V30 5599 N 518.813 -1.54241 0.323641 0
M  V30 5600 C 519.743 -2.27289 -0.534993 0
M  V30 5601 C 520.724 -1.28087 -1.11927 0
M  V30 5602 O 521.909 -1.56899 -1.14439 0
M  V30 5603 C 519.039 -3.03075 -1.69596 0
M  V30 5604 C 517.993 -4.09614 -1.24098 0
M  V30 5605 C 517.319 -4.73242 -2.4889 0
M  V30 5606 C 518.619 -5.21087 -0.355789 0
M  V30 5607 H 520.313 -2.99308 0.0743257 0
M  V30 5608 H 517.859 -1.43952 0.0371874 0
M  V30 5609 H 519.812 -3.52907 -2.30293 0
M  V30 5610 H 518.536 -2.28673 -2.33187 0
M  V30 5611 H 517.195 -3.60666 -0.656945 0
M  V30 5612 H 516.843 -3.95455 -3.10845 0
M  V30 5613 H 516.543 -5.45209 -2.19138 0
M  V30 5614 H 518.067 -5.25848 -3.10348 0
M  V30 5615 H 519.481 -5.66675 -0.869042 0
M  V30 5616 H 517.878 -5.9991 -0.151045 0
M  V30 5617 H 518.948 -4.81005 0.613339 0
M  V30 5618 N 520.291 -0.0518155 -1.57515 0
M  V30 5619 C 521.54 0.621286 -1.91893 0
M  V30 5620 C 521.853 1.71966 -0.932052 0
M  V30 5621 O 523.059 2.45096 -1.16791 0
M  V30 5622 C 521.515 1.15641 -3.40816 0
M  V30 5623 C 521.123 0.0901146 -4.47909 0
M  V30 5624 C 522.867 1.80472 -3.84227 0
M  V30 5625 C 520.774 0.638154 -5.87947 0
M  V30 5626 H 519.704 0.235835 -0.716169 0
M  V30 5627 H 522.355 -0.120809 -1.83102 0
M  V30 5628 H 520.737 1.95084 -3.44613 0
M  V30 5629 H 521.911 -0.683525 -4.55702 0
M  V30 5630 H 520.226 -0.460774 -4.13843 0
M  V30 5631 H 522.823 2.22471 -4.86221 0
M  V30 5632 H 523.166 2.65669 -3.20508 0
M  V30 5633 H 523.699 1.07683 -3.82948 0
M  V30 5634 H 520.438 -0.176202 -6.55263 0
M  V30 5635 H 519.958 1.37976 -5.83714 0
M  V30 5636 H 521.637 1.12085 -6.37217 0
M  V30 5637 N 521.769 1.56035 0.221574 0
M  V30 5638 C 522.999 1.82864 0.961468 0
M  V30 5639 C 523.407 0.628703 1.78449 0
M  V30 5640 O 522.75 -0.412109 1.79018 0
M  V30 5641 C 522.812 3.03425 1.92804 0
M  V30 5642 C 522.476 4.38429 1.28954 0
M  V30 5643 C 523.473 5.15441 0.679431 0
M  V30 5644 C 521.158 4.85151 1.30131 0
M  V30 5645 C 523.152 6.37337 0.0896148 0
M  V30 5646 C 520.839 6.06989 0.707651 0
M  V30 5647 C 521.837 6.82923 0.102855 0
M  V30 5648 O 521.525 8.02456 -0.48157 0
M  V30 5649 H 521.257 0.611883 0.28736 0
M  V30 5650 H 523.811 2.0397 0.241932 0
M  V30 5651 H 522.041 2.78138 2.68656 0
M  V30 5652 H 523.73 3.17127 2.53348 0
M  V30 5653 H 524.496 4.80452 0.662661 0
M  V30 5654 H 520.375 4.26021 1.76145 0
M  V30 5655 H 523.919 6.96547 -0.383069 0
M  V30 5656 H 519.816 6.41451 0.721834 0
M  V30 5657 H 520.584 8.17636 -0.375887 0
M  V30 5658 N 523.247 -0.488276 1.49845 0
M  V30 5659 C 524.157 -1.61451 1.70207 0
M  V30 5660 C 525.173 -1.63877 0.584846 0
M  V30 5661 O 526.349 -1.82063 0.861107 0
M  V30 5662 C 523.414 -2.9776 1.77594 0
M  V30 5663 C 522.475 -3.05861 3.01243 0
M  V30 5664 C 521.708 -4.35668 3.08268 0
M  V30 5665 O 521.931 -5.25197 2.22541 0
M  V30 5666 O 520.865 -4.49005 4.00847 0
M  V30 5667 H 524.691 -1.47199 2.65643 0
M  V30 5668 H 522.276 -0.665939 1.33737 0
M  V30 5669 H 524.158 -3.7875 1.84732 0
M  V30 5670 H 522.833 -3.12248 0.8534 0
M  V30 5671 H 521.74 -2.24012 2.99616 0
M  V30 5672 H 523.073 -2.96304 3.9302 0
M  V30 5673 N 524.725 -1.39134 -0.740242 0
M  V30 5674 C 525.973 -1.35803 -1.49673 0
M  V30 5675 C 526.294 0.0470897 -1.94943 0
M  V30 5676 O 525.564 0.997347 -1.68611 0
M  V30 5677 H 524.144 -0.499736 -0.555224 0
M  V30 5678 H 526.806 -1.73947 -0.879107 0
M  V30 5679 H 525.902 -2.0174 -2.38133 0
M  V30 5680 N 526.204 0.969867 -1.24223 0
M  V30 5681 C 527.62 1.23809 -1.00716 0
M  V30 5682 C 527.82 1.99469 0.285358 0
M  V30 5683 O 526.876 2.31764 1.00207 0
M  V30 5684 C 528.189 2.02734 -2.2208 0
M  V30 5685 C 529.737 2.15834 -2.26681 0
M  V30 5686 C 530.212 2.98154 -3.47661 0
M  V30 5687 N 531.703 3.05737 -3.47964 0
M  V30 5688 C 532.438 3.69785 -4.38231 0
M  V30 5689 N 531.934 4.35569 -5.3875 0
M  V30 5690 N 533.727 3.66775 -4.25949 0
M  V30 5691 H 525.878 0.463294 -2.07286 0
M  V30 5692 H 528.141 0.267348 -0.909521 0
M  V30 5693 H 527.847 1.54524 -3.15935 0
M  V30 5694 H 527.721 3.0347 -2.24021 0
M  V30 5695 H 530.108 2.63248 -1.33359 0
M  V30 5696 H 530.189 1.14453 -2.28767 0
M  V30 5697 H 529.833 2.51435 -4.41297 0
M  V30 5698 H 529.763 3.99729 -3.42818 0
M  V30 5699 H 532.254 2.58941 -2.75242 0
M  V30 5700 H 532.567 4.82251 -6.03866 0
M  V30 5701 H 530.912 4.34244 -5.42639 0
M  V30 5702 H 534.103 3.14558 -3.46657 0
M  V30 5703 H 534.276 4.16407 -4.96497 0
M  V30 5704 N 527.682 1.05563 1.17022 0
M  V30 5705 C 529.098 0.777684 1.39371 0
M  V30 5706 C 529.298 -0.626269 1.91521 0
M  V30 5707 O 528.354 -1.38806 2.10924 0
M  V30 5708 C 529.667 1.83642 2.3811 0
M  V30 5709 C 531.215 1.85907 2.51809 0
M  V30 5710 C 531.69 2.90813 3.53824 0
M  V30 5711 N 533.181 2.898 3.61345 0
M  V30 5712 C 533.916 3.6762 4.40049 0
M  V30 5713 N 533.412 4.55237 5.22237 0
M  V30 5714 N 535.205 3.56044 4.34959 0
M  V30 5715 H 527.356 1.9614 0.815047 0
M  V30 5716 H 529.619 0.849527 0.420722 0
M  V30 5717 H 529.325 2.84425 2.06871 0
M  V30 5718 H 529.199 1.6812 3.37662 0
M  V30 5719 H 531.586 0.857865 2.82356 0
M  V30 5720 H 531.667 2.05506 1.52318 0
M  V30 5721 H 531.311 3.91122 3.24015 0
M  V30 5722 H 531.241 2.68465 4.53028 0
M  V30 5723 H 533.732 2.26274 3.02669 0
M  V30 5724 H 534.045 5.11291 5.79484 0
M  V30 5725 H 532.39 4.59296 5.21605 0
M  V30 5726 H 535.581 2.86986 3.69806 0
M  V30 5727 H 535.754 4.16938 4.96051 0
M  V30 5728 N 529.16 -1.33526 0.837174 0
M  V30 5729 C 530.09 -2.31764 0.284206 0
M  V30 5730 C 531.071 -1.58896 -0.607142 0
M  V30 5731 O 532.256 -1.86798 -0.531047 0
M  V30 5732 C 529.386 -3.43029 -0.542962 0
M  V30 5733 C 528.34 -4.27255 0.252451 0
M  V30 5734 C 527.666 -5.3012 -0.69836 0
M  V30 5735 C 528.966 -5.01229 1.46858 0
M  V30 5736 H 530.66 -2.78262 1.10502 0
M  V30 5737 H 528.206 -1.3378 0.532812 0
M  V30 5738 H 530.159 -4.1078 -0.940096 0
M  V30 5739 H 528.883 -2.95216 -1.39697 0
M  V30 5740 H 527.542 -3.61127 0.631124 0
M  V30 5741 H 527.19 -4.78564 -1.54872 0
M  V30 5742 H 526.89 -5.87353 -0.170274 0
M  V30 5743 H 528.414 -6.00737 -1.09305 0
M  V30 5744 H 529.828 -5.61756 1.14469 0
M  V30 5745 H 528.225 -5.68104 1.93333 0
M  V30 5746 H 529.295 -4.301 2.23924 0
M  V30 5747 N 530.638 -0.59345 -1.46 0
M  V30 5748 C 531.884 -0.0832754 -2.02629 0
M  V30 5749 C 532.217 1.27749 -1.46266 0
M  V30 5750 O 531.492 1.8395 -0.631866 0
M  V30 5751 C 531.775 -0.0290756 -3.60088 0
M  V30 5752 C 531.628 -1.41951 -4.26814 0
M  V30 5753 C 532.947 0.666055 -4.35031 0
M  V30 5754 H 530.066 -0.031736 -0.736316 0
M  V30 5755 H 532.708 -0.762711 -1.74019 0
M  V30 5756 H 530.858 0.549532 -3.84594 0
M  V30 5757 H 532.53 -2.04411 -4.13538 0
M  V30 5758 H 530.773 -1.98422 -3.8576 0
M  V30 5759 H 531.444 -1.33395 -5.3564 0
M  V30 5760 H 533.92 0.174401 -4.15734 0
M  V30 5761 H 532.796 0.673041 -5.44758 0
M  V30 5762 H 533.057 1.72946 -4.06869 0
M  V30 5763 N 532.116 1.54067 -0.331816 0
M  V30 5764 C 533.046 2.27569 0.522932 0
M  V30 5765 C 534.027 1.28679 1.11247 0
M  V30 5766 O 535.212 1.57504 1.13605 0
M  V30 5767 C 532.342 3.0397 1.67987 0
M  V30 5768 C 531.296 4.10267 1.21924 0
M  V30 5769 C 530.622 4.74555 2.46377 0
M  V30 5770 C 531.922 5.21268 0.32815 0
M  V30 5771 H 533.616 2.99264 -0.0901977 0
M  V30 5772 H 531.162 1.4393 -0.044821 0
M  V30 5773 H 533.115 3.54123 2.28418 0
M  V30 5774 H 531.839 2.29906 2.31971 0
M  V30 5775 H 530.498 3.61009 0.637809 0
M  V30 5776 H 530.146 3.97098 3.08743 0
M  V30 5777 H 529.846 5.46363 2.16243 0
M  V30 5778 H 531.37 5.27487 3.07555 0
M  V30 5779 H 532.784 5.67128 0.838978 0
M  V30 5780 H 531.181 5.99982 0.119228 0
M  V30 5781 H 532.251 4.80673 -0.638839 0
M  V30 5782 N 533.594 0.0601682 1.57485 0
M  V30 5783 C 534.504 -0.926121 2.15546 0
M  V30 5784 C 535.52 -1.33532 1.11558 0
M  V30 5785 O 536.696 -1.4104 1.4377 0
M  V30 5786 C 533.761 -2.17952 2.69625 0
M  V30 5787 C 532.822 -1.82783 3.88444 0
M  V30 5788 C 532.055 -3.02148 4.39935 0
M  V30 5789 O 532.278 -4.15803 3.90466 0
M  V30 5790 O 531.212 -2.82639 5.31412 0
M  V30 5791 H 535.038 -0.462289 3.00161 0
M  V30 5792 H 532.623 -0.162246 1.48516 0
M  V30 5793 H 534.505 -2.91474 3.04337 0
M  V30 5794 H 533.18 -2.63456 1.88077 0
M  V30 5795 H 532.087 -1.06549 3.58606 0
M  V30 5796 H 533.42 -1.42072 4.7125 0
M  V30 5797 N 535.072 -1.5615 -0.213296 0
M  V30 5798 C 536.483 -1.69645 -0.779582 0
M  V30 5799 C 536.834 -0.663615 -1.84636 0
M  V30 5800 O 535.959 0.183633 -2.15619 0
M  V30 5801 C 536.554 -3.07567 -1.42084 0
M  V30 5802 C 535.113 -3.22889 -1.93442 0
M  V30 5803 C 534.26 -2.65581 -0.797612 0
M  V30 5804 H 537.211 -1.58696 0.0114951 0
M  V30 5805 H 537.232 -3.03884 -2.28986 0
M  V30 5806 H 536.744 -3.82716 -0.644187 0
M  V30 5807 H 534.845 -2.52623 -2.73884 0
M  V30 5808 H 534.958 -4.30197 -2.10872 0
M  V30 5809 H 533.322 -2.24278 -1.20712 0
M  V30 5810 H 534.105 -3.43284 -0.033494 0
M  V30 5811 N 536.55 0.480323 -1.50102 0
M  V30 5812 C 537.798 1.23063 -1.60312 0
M  V30 5813 C 538.119 1.92659 -0.301226 0
M  V30 5814 O 537.389 1.83691 0.680753 0
M  V30 5815 H 535.969 0.457231 -0.590719 0
M  V30 5816 H 538.631 0.554893 -1.86834 0
M  V30 5817 H 537.727 1.9835 -2.40964 0
M  V30 5818 N 538.028 1.39524 0.732853 0
M  V30 5819 C 539.444 1.21176 1.03868 0
M  V30 5820 C 539.644 0.0748448 2.01361 0
M  V30 5821 O 538.7 -0.57281 2.45917 0
M  V30 5822 C 540.013 2.54667 1.59892 0
M  V30 5823 C 541.561 2.6153 1.71962 0
M  V30 5824 C 542.036 3.95248 2.31394 0
M  V30 5825 N 543.527 3.96899 2.38801 0
M  V30 5826 C 544.262 4.97138 2.85729 0
M  V30 5827 N 543.758 6.07775 3.32537 0
M  V30 5828 N 545.551 4.84516 2.84957 0
M  V30 5829 H 537.702 2.12225 0.086304 0
M  V30 5830 H 539.965 0.942614 0.100907 0
M  V30 5831 H 539.671 3.38423 0.95721 0
M  V30 5832 H 539.545 2.74538 2.58668 0
M  V30 5833 H 541.932 1.78156 2.35254 0
M  V30 5834 H 542.013 2.45507 0.718327 0
M  V30 5835 H 541.657 4.79054 1.68729 0
M  V30 5836 H 541.587 4.08593 3.32204 0
M  V30 5837 H 544.078 3.16998 2.05719 0
M  V30 5838 H 544.391 6.8017 3.66862 0
M  V30 5839 H 542.736 6.11366 3.30541 0
M  V30 5840 H 545.927 3.97185 2.47713 0
M  V30 5841 H 546.1 5.62783 3.21215 0
M  V30 5842 N 539.506 -0.963266 1.24736 0
M  V30 5843 C 540.436 -2.07628 1.06832 0
M  V30 5844 C 541.417 -1.70088 -0.0200566 0
M  V30 5845 O 542.602 -1.93636 0.147854 0
M  V30 5846 C 539.732 -3.40636 0.677069 0
M  V30 5847 C 538.686 -3.9215 1.71471 0
M  V30 5848 C 538.012 -5.21553 1.1784 0
M  V30 5849 C 539.312 -4.19493 3.11164 0
M  V30 5850 H 541.006 -2.22864 1.9993 0
M  V30 5851 H 538.552 -1.07093 0.96266 0
M  V30 5852 H 540.505 -4.17941 0.538792 0
M  V30 5853 H 539.229 -3.25313 -0.289612 0
M  V30 5854 H 537.888 -3.17005 1.84128 0
M  V30 5855 H 537.536 -5.02593 0.202195 0
M  V30 5856 H 537.236 -5.56988 1.87185 0
M  V30 5857 H 538.76 -6.01463 1.05233 0
M  V30 5858 H 540.174 -4.87487 3.01711 0
M  V30 5859 H 538.571 -4.66165 3.77902 0
M  V30 5860 H 539.641 -3.26097 3.58871 0
M  V30 5861 N 540.985 -1.06182 -1.16461 0
M  V30 5862 C 541.948 -0.675723 -2.19013 0
M  V30 5863 C 542.948 0.277963 -1.58379 0
M  V30 5864 O 544.138 0.0604962 -1.74095 0
M  V30 5865 C 541.27 0.00591459 -3.40899 0
M  V30 5866 H 542.463 -1.58353 -2.54685 0
M  V30 5867 H 540.016 -0.856908 -1.30716 0
M  V30 5868 H 540.751 0.92652 -3.10783 0
M  V30 5869 H 540.536 -0.67984 -3.86161 0
M  V30 5870 H 542.026 0.26181 -4.16778 0
M  V30 5871 N 542.463 1.3308 -0.844243 0
M  V30 5872 C 543.395 2.27954 -0.238671 0
M  V30 5873 C 544.408 1.51978 0.583665 0
M  V30 5874 O 545.597 1.73731 0.409857 0
M  V30 5875 C 542.697 3.31963 0.682185 0
M  V30 5876 C 541.87 4.37281 -0.101998 0
M  V30 5877 C 540.929 5.20928 0.743022 0
M  V30 5878 O 539.955 5.68914 0.180285 0
M  V30 5879 N 541.157 5.42738 2.0595 0
M  V30 5880 H 543.922 2.8056 -1.05386 0
M  V30 5881 H 541.483 1.4583 -0.70322 0
M  V30 5882 H 543.475 3.84828 1.25259 0
M  V30 5883 H 542.045 2.79594 1.39808 0
M  V30 5884 H 541.265 3.84843 -0.853802 0
M  V30 5885 H 542.553 5.04746 -0.641015 0
M  V30 5886 H 541.951 5.05463 2.54016 0
M  V30 5887 H 540.508 5.98639 2.57827 0
M  V30 5888 N 543.941 0.601185 1.45683 0
M  V30 5889 C 544.891 -0.142686 2.27553 0
M  V30 5890 C 545.875 -0.844598 1.3695 0
M  V30 5891 O 547.067 -0.735644 1.60988 0
M  V30 5892 C 544.196 -1.14364 3.23691 0
M  V30 5893 C 543.282 -0.442894 4.21781 0
M  V30 5894 N 543.673 0.51189 5.03203 0
M  V30 5895 C 541.971 -0.691277 4.4061 0
M  V30 5896 C 542.672 0.92318 5.74328 0
M  V30 5897 N 541.648 0.268308 5.42937 0
M  V30 5898 H 545.45 0.590736 2.87902 0
M  V30 5899 H 542.964 0.424365 1.56757 0
M  V30 5900 H 544.961 -1.6909 3.8107 0
M  V30 5901 H 543.621 -1.87768 2.64902 0
M  V30 5902 H 544.632 0.888329 5.10225 0
M  V30 5903 H 541.309 -1.41049 3.92952 0
M  V30 5904 H 542.699 1.71029 6.49768 0
M  V30 5905 N 545.419 -1.53889 0.339982 0
M  V30 5906 C 546.666 -2.00855 -0.257621 0
M  V30 5907 C 546.994 -1.22788 -1.50842 0
M  V30 5908 O 546.249 -0.302567 -1.93347 0
M  V30 5909 C 546.548 -3.51968 -0.620735 0
M  V30 5910 C 546.214 -4.47741 0.532771 0
M  V30 5911 C 544.876 -4.73645 0.849339 0
M  V30 5912 C 547.228 -5.04551 1.3068 0
M  V30 5913 C 544.556 -5.53614 1.94237 0
M  V30 5914 C 546.908 -5.85713 2.39005 0
M  V30 5915 C 545.572 -6.09912 2.71225 0
M  V30 5916 H 544.842 -0.734979 -0.0942703 0
M  V30 5917 H 547.489 -1.85714 0.467159 0
M  V30 5918 H 545.794 -3.64921 -1.42618 0
M  V30 5919 H 547.491 -3.85762 -1.09495 0
M  V30 5920 H 544.081 -4.27711 0.275973 0
M  V30 5921 H 548.265 -4.84507 1.07549 0
M  V30 5922 H 543.521 -5.7059 2.19628 0
M  V30 5923 H 547.695 -6.28748 2.99415 0
M  V30 5924 H 545.322 -6.71665 3.56047 0
M  V30 5925 N 546.897 -0.0685191 -1.57451 0
M  V30 5926 C 548.308 0.464634 -1.80826 0
M  V30 5927 C 548.659 1.69847 -0.982169 0
M  V30 5928 O 547.784 2.15439 -0.203734 0
M  V30 5929 C 548.379 0.849721 -3.27971 0
M  V30 5930 C 546.938 1.32776 -3.52204 0
M  V30 5931 C 546.085 0.311332 -2.75547 0
M  V30 5932 H 549.036 -0.294248 -1.55948 0
M  V30 5933 H 549.057 1.71138 -3.39841 0
M  V30 5934 H 548.569 -0.0484736 -3.8807 0
M  V30 5935 H 546.67 2.24456 -2.97406 0
M  V30 5936 H 546.783 1.30794 -4.60901 0
M  V30 5937 H 545.147 0.787915 -2.42206 0
M  V30 5938 H 545.93 -0.579078 -3.38381 0
M  V30 5939 N 548.375 1.56261 0.205012 0
M  V30 5940 C 549.322 1.93754 1.25411 0
M  V30 5941 C 550.292 0.796826 1.45739 0
M  V30 5942 O 551.477 1.05414 1.59036 0
M  V30 5943 C 548.617 2.27383 2.59598 0
M  V30 5944 C 547.73 3.5447 2.46931 0
M  V30 5945 C 546.865 3.77468 3.73753 0
M  V30 5946 C 545.904 4.98014 3.55877 0
M  V30 5947 N 545.041 5.17316 4.74688 0
M  V30 5948 H 549.881 2.83203 0.92737 0
M  V30 5949 H 547.418 1.40158 0.446574 0
M  V30 5950 H 549.376 2.44895 3.37761 0
M  V30 5951 H 548.006 1.41088 2.90335 0
M  V30 5952 H 547.058 3.45061 1.60116 0
M  V30 5953 H 548.37 4.42789 2.29651 0
M  V30 5954 H 547.524 3.95165 4.60358 0
M  V30 5955 H 546.263 2.87461 3.93976 0
M  V30 5956 H 545.268 4.80249 2.67657 0
M  V30 5957 H 546.493 5.8952 3.37109 0
M  V30 5958 H 544.439 4.30255 4.95194 0
M  V30 5959 H 544.356 5.99796 4.60197 0
M  V30 5960 H 545.624 5.39463 5.62672 0
M  V30 5961 N 549.853 -0.472356 1.50355 0
M  V30 5962 C 551.081 -1.24784 1.65035 0
M  V30 5963 C 551.496 -1.85837 0.333176 0
M  V30 5964 O 550.853 -1.69168 -0.68472 0
M  V30 5965 C 550.904 -2.35747 2.74054 0
M  V30 5966 O 550.625 -1.77197 4.00665 0
M  V30 5967 C 552.126 -3.26645 2.99696 0
M  V30 5968 H 549.346 -0.377432 0.554785 0
M  V30 5969 H 551.89 -0.563962 1.9657 0
M  V30 5970 H 550.045 -2.99912 2.45217 0
M  V30 5971 H 550.459 -2.5026 4.60945 0
M  V30 5972 H 551.933 -4.00718 3.79644 0
M  V30 5973 H 552.41 -3.8535 2.10718 0
M  V30 5974 H 553.016 -2.68218 3.3006 0
M  V30 5975 N 551.331 -1.39911 -0.725443 0
M  V30 5976 C 552.559 -1.40949 -1.51463 0
M  V30 5977 C 552.974 -0.0065242 -1.88799 0
M  V30 5978 O 552.331 0.967163 -1.54765 0
M  V30 5979 C 552.382 -2.29119 -2.79619 0
M  V30 5980 O 552.103 -3.63952 -2.43866 0
M  V30 5981 C 553.604 -2.38642 -3.73584 0
M  V30 5982 H 550.824 -0.481091 -0.467752 0
M  V30 5983 H 553.368 -1.83843 -0.895651 0
M  V30 5984 H 551.523 -1.89612 -3.37826 0
M  V30 5985 H 551.937 -4.10677 -3.26258 0
M  V30 5986 H 553.411 -3.04563 -4.60375 0
M  V30 5987 H 553.888 -1.40846 -4.16004 0
M  V30 5988 H 554.494 -2.78659 -3.21293 0
M  V30 5989 N 552.809 0.956637 -1.25245 0
M  V30 5990 C 553.719 2.0868 -1.0719 0
M  V30 5991 C 554.735 1.73997 -0.00959074 0
M  V30 5992 O 555.911 2.00301 -0.210104 0
M  V30 5993 C 552.976 3.39754 -0.690526 0
M  V30 5994 C 552.037 3.88316 -1.83055 0
M  V30 5995 C 551.27 5.13134 -1.46728 0
M  V30 5996 O 551.493 5.6925 -0.362029 0
M  V30 5997 O 550.427 5.56356 -2.29677 0
M  V30 5998 H 554.253 2.26813 -2.01965 0
M  V30 5999 H 551.838 1.07098 -1.04165 0
M  V30 6000 H 553.72 4.18543 -0.489871 0
M  V30 6001 H 552.395 3.22896 0.227981 0
M  V30 6002 H 551.302 3.1054 -2.08604 0
M  V30 6003 H 552.635 4.09669 -2.72822 0
M  V30 6004 N 554.287 1.06798 1.15896 0
M  V30 6005 C 555.197 0.694564 2.24083 0
M  V30 6006 C 556.213 -0.291687 1.71538 0
M  V30 6007 O 557.389 -0.139723 2.00915 0
M  V30 6008 C 554.454 0.0921014 3.46578 0
M  V30 6009 C 553.515 1.13087 4.14137 0
M  V30 6010 C 552.748 0.557064 5.30785 0
M  V30 6011 O 552.971 -0.628623 5.66925 0
M  V30 6012 O 551.905 1.29924 5.8771 0
M  V30 6013 H 555.731 1.59663 2.58344 0
M  V30 6014 H 553.316 0.840575 1.2351 0
M  V30 6015 H 555.198 -0.241884 4.20705 0
M  V30 6016 H 553.873 -0.78337 3.14078 0
M  V30 6017 H 552.78 1.51712 3.41957 0
M  V30 6018 H 554.113 1.97805 4.50704 0
M  V30 6019 N 555.766 -1.3263 0.851289 0
M  V30 6020 C 556.714 -2.30882 0.282202 0
M  V30 6021 C 557.708 -1.58697 -0.592589 0
M  V30 6022 O 558.914 -1.73461 -0.480768 0
M  V30 6023 H 555.289 -0.748492 0.0725487 0
M  V30 6024 H 557.26 -2.76374 1.12516 0
M  V30 6025 C 556.009 -3.43828 -0.517449 0
M  V30 6026 H 555.332 -3.99532 0.146392 0
M  V30 6027 H 556.772 -4.1474 -0.88128 0
M  V30 6028 C 555.231 -2.90786 -1.70133 0
M  V30 6029 O 555.761 -2.88 -2.80034 0
M  V30 6030 N 553.967 -2.4723 -1.52728 0
M  V30 6031 H 553.514 -2.49695 -0.633257 0
M  V30 6032 H 553.472 -2.12094 -2.32085 0
M  V30 6033 N 557.244 -0.608902 -1.45362 0
M  V30 6034 C 558.655 -0.189511 -1.85736 0
M  V30 6035 C 559.006 1.2539 -1.50903 0
M  V30 6036 O 558.131 1.95094 -0.936347 0
M  V30 6037 C 558.726 -0.33716 -3.37118 0
M  V30 6038 C 557.285 0.0275487 -3.7639 0
M  V30 6039 C 556.432 -0.660983 -2.69307 0
M  V30 6040 H 559.383 -0.815499 -1.36144 0
M  V30 6041 H 559.404 0.430257 -3.7806 0
M  V30 6042 H 558.916 -1.38779 -3.62439 0
M  V30 6043 H 557.017 1.0773 -3.56686 0
M  V30 6044 H 557.13 -0.367018 -4.77692 0
M  V30 6045 H 555.494 -0.0984958 -2.54509 0
M  V30 6046 H 556.277 -1.71377 -2.97464 0
M  V30 6047 N 558.722 1.53707 -0.348139 0
M  V30 6048 C 559.971 2.0017 0.247992 0
M  V30 6049 C 560.284 1.23983 1.51286 0
M  V30 6050 O 561.49 1.60946 2.18652 0
M  V30 6051 C 559.946 3.56515 0.492459 0
M  V30 6052 C 559.554 4.41562 -0.756777 0
M  V30 6053 C 561.298 4.11381 1.0472 0
M  V30 6054 C 559.205 5.89426 -0.482856 0
M  V30 6055 H 558.135 0.747806 0.0964452 0
M  V30 6056 H 560.786 1.77532 -0.464179 0
M  V30 6057 H 559.168 3.75236 1.26545 0
M  V30 6058 H 560.342 4.34615 -1.53122 0
M  V30 6059 H 558.657 3.97711 -1.23348 0
M  V30 6060 H 561.254 5.19468 1.26717 0
M  V30 6061 H 561.597 3.64885 2.00411 0
M  V30 6062 H 562.13 3.96389 0.334801 0
M  V30 6063 H 558.869 6.40164 -1.40962 0
M  V30 6064 H 558.389 5.99264 0.253416 0
M  V30 6065 H 560.068 6.4692 -0.101816 0
M  V30 6066 N 560.2 0.0768682 1.57412 0
M  V30 6067 C 561.447 -0.591085 1.93681 0
M  V30 6068 C 561.775 -1.69311 0.957286 0
M  V30 6069 O 561.03 -1.95682 -0.0262428 0
M  V30 6070 C 561.329 -1.20268 3.36557 0
M  V30 6071 C 560.995 -0.226286 4.50332 0
M  V30 6072 C 559.657 0.0423142 4.81181 0
M  V30 6073 C 562.009 0.441415 5.19327 0
M  V30 6074 C 559.337 0.985616 5.78362 0
M  V30 6075 C 561.689 1.37307 6.17519 0
M  V30 6076 C 560.353 1.65009 6.46783 0
M  V30 6077 H 559.623 -0.216293 0.70873 0
M  V30 6078 H 562.27 0.148824 1.90921 0
M  V30 6079 H 560.575 -2.01844 3.35807 0
M  V30 6080 H 562.272 -1.72688 3.61911 0
M  V30 6081 H 558.862 -0.445821 4.26275 0
M  V30 6082 H 563.046 0.247023 4.95685 0
M  V30 6083 H 558.302 1.20743 5.99359 0
M  V30 6084 H 562.476 1.89637 6.70083 0
M  V30 6085 H 560.103 2.38263 7.21897 0
M  V30 6086 N 561.678 -1.56367 -0.196722 0
M  V30 6087 C 562.924 -1.80796 -0.918725 0
M  V30 6088 C 563.257 -0.650645 -1.82976 0
M  V30 6089 O 562.532 0.348889 -1.91345 0
M  V30 6090 C 562.815 -3.15472 -1.73636 0
M  V30 6091 C 562.668 -4.41693 -0.85015 0
M  V30 6092 C 563.987 -3.46824 -2.70927 0
M  V30 6093 H 561.106 -0.657702 -0.332561 0
M  V30 6094 H 563.748 -1.89086 -0.186186 0
M  V30 6095 H 561.898 -3.08536 -2.36088 0
M  V30 6096 H 563.57 -4.60673 -0.240459 0
M  V30 6097 H 561.813 -4.33517 -0.156785 0
M  V30 6098 H 562.484 -5.32419 -1.45719 0
M  V30 6099 H 564.96 -3.54049 -2.18607 0
M  V30 6100 H 563.836 -4.4218 -3.25219 0
M  V30 6101 H 564.097 -2.70236 -3.49893 0
M  V30 6102 N 563.156 0.464375 -1.50603 0
M  V30 6103 C 564.402 1.21776 -1.62168 0
M  V30 6104 C 564.735 1.91476 -0.324154 0
M  V30 6105 O 564.01 1.8242 0.674782 0
M  V30 6106 C 564.293 2.25614 -2.80661 0
M  V30 6107 C 564.146 1.60175 -4.20314 0
M  V30 6108 C 565.465 3.26862 -2.94702 0
M  V30 6109 H 562.584 0.44137 -0.590222 0
M  V30 6110 H 565.226 0.510623 -1.8301 0
M  V30 6111 H 563.376 2.85923 -2.63021 0
M  V30 6112 H 565.048 1.03411 -4.4956 0
M  V30 6113 H 563.291 0.904697 -4.24261 0
M  V30 6114 H 563.962 2.35665 -4.99165 0
M  V30 6115 H 566.438 2.76582 -3.10872 0
M  V30 6116 H 565.314 3.96839 -3.79223 0
M  V30 6117 H 565.575 3.91382 -2.05603 0
M  V30 6118 N 564.634 1.40294 0.718013 0
M  V30 6119 C 565.859 1.41941 1.5122 0
M  V30 6120 C 566.284 0.0202371 1.88089 0
M  V30 6121 O 565.642 -0.971078 1.53101 0
M  V30 6122 C 565.69 2.3141 2.76554 0
M  V30 6123 O 564.794 1.75567 3.73162 0
M  V30 6124 H 564.135 0.482644 0.456016 0
M  V30 6125 H 566.665 1.84494 0.884478 0
M  V30 6126 H 566.675 2.46513 3.25108 0
M  V30 6127 H 565.35 3.33085 2.49053 0
M  V30 6128 H 563.927 1.69798 3.31999 0
M  V30 6129 N 566.112 -0.949982 1.2575 0
M  V30 6130 C 567.528 -1.22191 1.02672 0
M  V30 6131 C 567.728 -1.99898 -0.253588 0
M  V30 6132 O 566.784 -2.33329 -0.965076 0
M  V30 6133 C 568.097 -1.99175 2.25277 0
M  V30 6134 C 569.645 -2.12201 2.30087 0
M  V30 6135 C 570.12 -2.92586 3.5236 0
M  V30 6136 N 571.611 -3.00163 3.52784 0
M  V30 6137 C 572.346 -3.62766 4.44059 0
M  V30 6138 N 571.842 -4.26943 5.45611 0
M  V30 6139 N 573.635 -3.59953 4.3173 0
M  V30 6140 H 565.786 -0.430258 2.07996 0
M  V30 6141 H 568.049 -0.252844 0.91366 0
M  V30 6142 H 567.755 -1.49479 3.18354 0
M  V30 6143 H 567.629 -2.99868 2.28821 0
M  V30 6144 H 570.016 -2.61093 1.3753 0
M  V30 6145 H 570.097 -1.10799 2.30559 0
M  V30 6146 H 569.741 -2.44383 4.45241 0
M  V30 6147 H 569.671 -3.94224 3.49134 0
M  V30 6148 H 572.162 -2.54529 2.79327 0
M  V30 6149 H 572.475 -4.72583 6.11461 0
M  V30 6150 H 570.82 -4.25557 5.49478 0
M  V30 6151 H 574.011 -3.09003 3.51617 0
M  V30 6152 H 574.184 -4.08455 5.03059 0
M  V30 6153 N 567.59 -1.07411 -1.15328 0
M  V30 6154 C 568.5 -0.706438 -2.23711 0
M  V30 6155 C 569.516 0.282586 -1.7169 0
M  V30 6156 O 570.692 0.129066 -2.00986 0
M  V30 6157 C 567.757 -0.11048 -3.46524 0
M  V30 6158 C 566.818 -1.15282 -4.13532 0
M  V30 6159 C 566.051 -0.585205 -5.30482 0
M  V30 6160 O 566.274 0.598549 -5.67251 0
M  V30 6161 O 565.208 -1.33039 -5.87013 0
M  V30 6162 H 569.034 -1.61031 -2.57493 0
M  V30 6163 H 566.619 -0.847113 -1.23062 0
M  V30 6164 H 568.501 0.21957 -4.20828 0
M  V30 6165 H 567.176 0.766703 -3.14489 0
M  V30 6166 H 566.083 -1.53523 -3.41147 0
M  V30 6167 H 567.416 -2.00192 -4.49649 0
M  V30 6168 N 569.068 1.32177 -0.85831 0
M  V30 6169 C 570.479 1.79381 -0.517621 0
M  V30 6170 C 570.83 1.70841 0.964769 0
M  V30 6171 O 569.955 1.26917 1.75274 0
M  V30 6172 C 570.55 3.25706 -0.932801 0
M  V30 6173 C 569.109 3.70851 -0.643953 0
M  V30 6174 C 568.256 2.53208 -1.13054 0
M  V30 6175 H 571.207 1.19424 -1.04516 0
M  V30 6176 H 571.228 3.79673 -0.250674 0
M  V30 6177 H 570.74 3.31889 -2.01174 0
M  V30 6178 H 568.841 3.70178 0.424112 0
M  V30 6179 H 568.954 4.63495 -1.21281 0
M  V30 6180 H 567.318 2.48676 -0.550679 0
M  V30 6181 H 568.101 2.62143 -2.21666 0
M  V30 6182 N 570.547 0.616602 1.45037 0
M  V30 6183 C 571.477 -0.0840787 2.33349 0
M  V30 6184 C 572.458 -0.849641 1.4736 0
M  V30 6185 O 573.643 -0.818407 1.76113 0
M  V30 6186 C 570.773 -1.07604 3.3021 0
M  V30 6187 C 569.727 -0.423096 4.25904 0
M  V30 6188 C 569.053 -1.52394 5.12523 0
M  V30 6189 C 570.353 0.661457 5.18095 0
M  V30 6190 H 572.047 0.653333 2.92185 0
M  V30 6191 H 569.593 0.315634 1.40498 0
M  V30 6192 H 571.546 -1.57485 3.90866 0
M  V30 6193 H 570.27 -1.84416 2.69552 0
M  V30 6194 H 568.929 0.05493 3.66559 0
M  V30 6195 H 568.577 -2.28257 4.48227 0
M  V30 6196 H 568.277 -1.09251 5.77354 0
M  V30 6197 H 569.801 -2.02485 5.76049 0
M  V30 6198 H 571.215 0.246353 5.7277 0
M  V30 6199 H 569.612 1.01517 5.91451 0
M  V30 6200 H 570.682 1.53446 4.59981 0
M  V30 6201 N 572.025 -1.5352 0.356285 0
M  V30 6202 C 572.973 -2.26945 -0.50978 0
M  V30 6203 C 573.967 -1.29569 -1.09125 0
M  V30 6204 O 575.173 -1.47231 -1.03552 0
M  V30 6205 H 571.548 -0.729368 -0.183102 0
M  V30 6206 H 573.519 -2.98111 0.131374 0
M  V30 6207 C 572.268 -3.06466 -1.64237 0
M  V30 6208 H 571.591 -3.81233 -1.20423 0
M  V30 6209 H 573.031 -3.61035 -2.22327 0
M  V30 6210 C 571.49 -2.16737 -2.57928 0
M  V30 6211 O 572.02 -1.77195 -3.60507 0
M  V30 6212 N 570.226 -1.81558 -2.26903 0
M  V30 6213 H 569.773 -2.13913 -1.43524 0
M  V30 6214 H 569.731 -1.21806 -2.89846 0
M  V30 6215 N 573.503 -0.0852151 -1.57369 0
M  V30 6216 C 574.731 0.58946 -1.98325 0
M  V30 6217 C 575.146 1.62333 -0.96403 0
M  V30 6218 O 574.503 1.82438 0.0476395 0
M  V30 6219 C 574.554 1.24604 -3.39347 0
M  V30 6220 O 574.275 0.253532 -4.37366 0
M  V30 6221 C 575.776 2.00726 -3.95252 0
M  V30 6222 H 572.996 0.158783 -0.651942 0
M  V30 6223 H 575.54 -0.161584 -2.03861 0
M  V30 6224 H 573.695 1.94808 -3.34856 0
M  V30 6225 H 574.109 0.726207 -5.19448 0
M  V30 6226 H 575.583 2.42039 -4.96106 0
M  V30 6227 H 576.06 2.86919 -3.32527 0
M  V30 6228 H 576.666 1.3536 -4.03185 0
M  V30 6229 N 574.981 1.5647 0.188427 0
M  V30 6230 C 576.23 1.80207 0.905995 0
M  V30 6231 C 576.543 0.659579 1.84144 0
M  V30 6232 O 577.749 0.781431 2.60011 0
M  V30 6233 C 576.205 3.19255 1.66145 0
M  V30 6234 C 575.813 4.41324 0.770504 0
M  V30 6235 C 577.557 3.52298 2.36826 0
M  V30 6236 C 575.464 5.71394 1.52521 0
M  V30 6237 H 574.394 0.671953 0.342045 0
M  V30 6238 H 577.045 1.82808 0.159164 0
M  V30 6239 H 575.427 3.10922 2.45242 0
M  V30 6240 H 576.601 4.60797 0.0177261 0
M  V30 6241 H 574.916 4.16035 0.174199 0
M  V30 6242 H 577.513 4.46715 2.93854 0
M  V30 6243 H 577.856 2.76359 3.11338 0
M  V30 6244 H 578.389 3.62108 1.6469 0
M  V30 6245 H 575.128 6.50316 0.82275 0
M  V30 6246 H 574.648 5.55928 2.25175 0
M  V30 6247 H 576.327 6.12747 2.07725 0
M  V30 6248 N 576.459 -0.456382 1.50847 0
M  V30 6249 C 577.707 -1.20497 1.62249 0
M  V30 6250 C 578.028 -1.92156 0.331839 0
M  V30 6251 O 577.298 -1.84751 -0.651443 0
M  V30 6252 H 575.878 -0.447775 0.597918 0
M  V30 6253 H 578.54 -0.525099 1.87693 0
M  V30 6254 H 577.636 -1.94492 2.44089 0
M  V30 6255 N 577.937 -1.40673 -0.710563 0
M  V30 6256 C 578.867 -1.44095 -1.83736 0
M  V30 6257 C 579.848 -0.301286 -1.67411 0
M  V30 6258 O 581.033 -0.510618 -1.87367 0
M  V30 6259 C 578.163 -1.30773 -3.21738 0
M  V30 6260 C 577.117 -2.42395 -3.52745 0
M  V30 6261 C 576.443 -2.14147 -4.89944 0
M  V30 6262 C 577.743 -3.84738 -3.53234 0
M  V30 6263 H 579.437 -2.38396 -1.81129 0
M  V30 6264 H 576.983 -1.14746 -0.870017 0
M  V30 6265 H 578.936 -1.31783 -4.00264 0
M  V30 6266 H 577.66 -0.329507 -3.24934 0
M  V30 6267 H 576.319 -2.40643 -2.76562 0
M  V30 6268 H 575.967 -1.14703 -4.89747 0
M  V30 6269 H 575.667 -2.88934 -5.11655 0
M  V30 6270 H 577.191 -2.16848 -5.70797 0
M  V30 6271 H 578.605 -3.88286 -4.2179 0
M  V30 6272 H 577.002 -4.59085 -3.86473 0
M  V30 6273 H 578.072 -4.13962 -2.52514 0
M  V30 6274 N 579.415 0.9433 -1.26252 0
M  V30 6275 C 580.664 1.68369 -1.11062 0
M  V30 6276 C 580.977 1.92514 0.346104 0
M  V30 6277 O 582.183 2.64358 0.618646 0
M  V30 6278 C 580.639 3.03171 -1.93946 0
M  V30 6279 C 580.247 2.86782 -3.4418 0
M  V30 6280 C 581.991 3.80916 -1.87359 0
M  V30 6281 C 579.898 4.17044 -4.19319 0
M  V30 6282 H 578.828 0.631469 -0.412023 0
M  V30 6283 H 581.479 1.04922 -1.50544 0
M  V30 6284 H 579.861 3.67587 -1.47296 0
M  V30 6285 H 581.035 2.31229 -3.98585 0
M  V30 6286 H 579.35 2.22482 -3.51981 0
M  V30 6287 H 581.947 4.77417 -2.40784 0
M  V30 6288 H 582.29 4.07658 -0.843857 0
M  V30 6289 H 582.823 3.2327 -2.31821 0
M  V30 6290 H 579.562 3.95487 -5.22753 0
M  V30 6291 H 579.082 4.72319 -3.69696 0
M  V30 6292 H 580.761 4.85513 -4.27651 0
M  V30 6293 N 580.893 1.08022 1.14757 0
M  V30 6294 C 582.123 0.827646 1.89298 0
M  V30 6295 C 582.531 -0.623506 1.78631 0
M  V30 6296 O 581.874 -1.43991 1.14071 0
M  V30 6297 C 581.936 1.16553 3.40082 0
M  V30 6298 C 581.6 2.61866 3.74533 0
M  V30 6299 C 582.597 3.60116 3.74984 0
M  V30 6300 C 580.282 2.97619 4.04633 0
M  V30 6301 C 582.276 4.92151 4.05051 0
M  V30 6302 C 579.963 4.2985 4.34364 0
M  V30 6303 C 580.961 5.26926 4.34555 0
M  V30 6304 O 580.649 6.5678 4.63568 0
M  V30 6305 H 580.381 0.298396 0.606577 0
M  V30 6306 H 582.935 1.44187 1.46285 0
M  V30 6307 H 581.165 0.494296 3.83528 0
M  V30 6308 H 582.854 0.894407 3.95923 0
M  V30 6309 H 583.62 3.33837 3.51821 0
M  V30 6310 H 579.499 2.22702 4.03639 0
M  V30 6311 H 583.043 5.67915 4.05115 0
M  V30 6312 H 578.94 4.55879 4.56995 0
M  V30 6313 H 579.708 6.62035 4.81303 0
M  V30 6314 N 582.371 -1.3172 0.865308 0
M  V30 6315 C 583.281 -2.32394 0.320935 0
M  V30 6316 C 584.297 -1.64511 -0.566746 0
M  V30 6317 O 585.473 -1.95969 -0.464575 0
M  V30 6318 C 582.538 -3.43462 -0.472701 0
M  V30 6319 C 581.599 -4.27015 0.442385 0
M  V30 6320 C 580.832 -5.32779 -0.313469 0
M  V30 6321 O 581.055 -5.49158 -1.54214 0
M  V30 6322 O 579.989 -6.01015 0.326257 0
M  V30 6323 H 583.815 -2.80868 1.15528 0
M  V30 6324 H 581.4 -1.35535 0.628545 0
M  V30 6325 H 583.282 -4.11172 -0.922781 0
M  V30 6326 H 581.957 -2.97159 -1.28367 0
M  V30 6327 H 580.864 -3.62075 0.940866 0
M  V30 6328 H 582.197 -4.76871 1.21882 0
M  V30 6329 N 583.85 -0.624285 -1.44708 0
M  V30 6330 C 584.797 0.0847135 -2.30644 0
M  V30 6331 C 585.767 0.843575 -1.43084 0
M  V30 6332 O 586.952 0.825982 -1.71995 0
M  V30 6333 C 584.091 1.06495 -3.28257 0
M  V30 6334 C 583.205 0.305224 -4.3092 0
M  V30 6335 C 582.34 1.27667 -5.1563 0
M  V30 6336 C 581.379 0.505706 -6.10007 0
M  V30 6337 N 580.516 1.42727 -6.8744 0
M  V30 6338 H 585.356 -0.654068 -2.90733 0
M  V30 6339 H 582.893 -0.334334 -1.4325 0
M  V30 6340 H 584.851 1.64658 -3.83332 0
M  V30 6341 H 583.481 1.77094 -2.69884 0
M  V30 6342 H 582.533 -0.392207 -3.78373 0
M  V30 6343 H 583.845 -0.295553 -4.97924 0
M  V30 6344 H 582.999 1.92984 -5.75189 0
M  V30 6345 H 581.738 1.91137 -4.48685 0
M  V30 6346 H 580.743 -0.160999 -5.49564 0
M  V30 6347 H 581.968 -0.124183 -6.78986 0
M  V30 6348 H 579.913 2.04931 -6.23169 0
M  V30 6349 H 579.831 0.880345 -7.50857 0
M  V30 6350 H 581.099 2.0695 -7.51526 0
M  V30 6351 N 585.328 1.53329 -0.364422 0
M  V30 6352 C 586.577 2.00421 0.226747 0
M  V30 6353 C 586.89 1.25581 1.49963 0
M  V30 6354 O 588.096 1.63256 2.16933 0
M  V30 6355 C 586.552 3.57017 0.454618 0
M  V30 6356 C 586.16 4.40734 -0.803568 0
M  V30 6357 C 587.904 4.12468 1.00351 0
M  V30 6358 C 585.811 5.8888 -0.545345 0
M  V30 6359 H 584.741 0.748787 0.0885082 0
M  V30 6360 H 587.392 1.7703 -0.482983 0
M  V30 6361 H 585.774 3.76558 1.22558 0
M  V30 6362 H 586.948 4.32967 -1.57723 0
M  V30 6363 H 585.263 3.96381 -1.27559 0
M  V30 6364 H 587.86 5.20783 1.212 0
M  V30 6365 H 588.203 3.6699 1.9653 0
M  V30 6366 H 588.736 3.96721 0.29274 0
M  V30 6367 H 585.475 6.38633 -1.47743 0
M  V30 6368 H 584.995 5.99499 0.189842 0
M  V30 6369 H 586.674 6.46776 -0.170425 0
M  V30 6370 N 586.806 0.0935595 1.57322 0
M  V30 6371 C 588.031 -0.582324 1.99057 0
M  V30 6372 C 588.456 -1.61025 0.972242 0
M  V30 6373 O 587.814 -1.81202 -0.0594622 0
M  V30 6374 C 587.862 -1.20799 3.39765 0
M  V30 6375 O 586.966 -2.32382 3.40694 0
M  V30 6376 H 586.307 -0.147884 0.647323 0
M  V30 6377 H 588.837 0.174516 2.03854 0
M  V30 6378 H 588.847 -1.54966 3.77425 0
M  V30 6379 H 587.522 -0.454914 4.13405 0
M  V30 6380 H 586.099 -1.99845 3.14827 0
M  V30 6381 N 588.284 -1.56567 -0.180126 0
M  V30 6382 C 589.214 -1.98753 -1.22553 0
M  V30 6383 C 590.195 -0.86175 -1.46656 0
M  V30 6384 O 591.38 -1.12719 -1.58139 0
M  V30 6385 C 588.51 -2.33988 -2.56645 0
M  V30 6386 C 587.464 -3.49445 -2.47128 0
M  V30 6387 C 586.79 -3.70397 -3.8563 0
M  V30 6388 C 588.09 -4.83171 -1.98352 0
M  V30 6389 H 589.784 -2.86332 -0.874896 0
M  V30 6390 H 587.33 -1.37757 -0.419414 0
M  V30 6391 H 589.283 -2.62097 -3.29974 0
M  V30 6392 H 588.007 -1.43309 -2.93479 0
M  V30 6393 H 586.666 -3.2145 -1.76254 0
M  V30 6394 H 586.314 -2.77023 -4.19842 0
M  V30 6395 H 586.014 -4.48077 -3.80132 0
M  V30 6396 H 587.538 -4.00897 -4.60558 0
M  V30 6397 H 588.952 -5.10213 -2.61449 0
M  V30 6398 H 587.349 -5.64425 -2.03823 0
M  V30 6399 H 588.419 -4.75753 -0.937402 0
M  V30 6400 N 589.762 0.448376 -1.51087 0
M  V30 6401 C 591.173 1.0286 -1.5581 0
M  V30 6402 C 591.524 1.92583 -0.374989 0
M  V30 6403 O 590.649 2.10316 0.509533 0
M  V30 6404 C 591.244 1.87223 -2.8237 0
M  V30 6405 C 589.803 2.40314 -2.897 0
M  V30 6406 C 588.95 1.19238 -2.50355 0
M  V30 6407 H 591.901 0.230075 -1.57023 0
M  V30 6408 H 591.922 2.72553 -2.6551 0
M  V30 6409 H 591.434 1.21894 -3.68461 0
M  V30 6410 H 589.535 3.09129 -2.08014 0
M  V30 6411 H 589.648 2.73866 -3.93108 0
M  V30 6412 H 588.012 1.53428 -2.03303 0
M  V30 6413 H 588.795 0.555367 -3.38778 0
M  V30 6414 N 591.24 1.41047 0.703093 0
M  V30 6415 C 592.187 1.42302 1.81711 0
M  V30 6416 C 593.157 0.278336 1.63751 0
M  V30 6417 O 594.342 0.478266 1.84709 0
M  V30 6418 C 591.482 1.30362 3.19531 0
M  V30 6419 C 590.595 2.54638 3.48975 0
M  V30 6420 C 589.73 2.35047 4.76368 0
M  V30 6421 C 588.769 3.54837 4.98756 0
M  V30 6422 N 587.906 3.34363 6.1737 0
M  V30 6423 H 592.746 2.37516 1.79973 0
M  V30 6424 H 590.283 1.1795 0.878983 0
M  V30 6425 H 592.241 1.21443 3.99134 0
M  V30 6426 H 590.871 0.387602 3.20464 0
M  V30 6427 H 589.923 2.74037 2.63833 0
M  V30 6428 H 591.235 3.43766 3.61423 0
M  V30 6429 H 590.389 2.23552 5.64012 0
M  V30 6430 H 589.128 1.43363 4.66153 0
M  V30 6431 H 588.133 3.66795 4.09563 0
M  V30 6432 H 589.358 4.47464 5.10835 0
M  V30 6433 H 587.304 2.45373 6.08382 0
M  V30 6434 H 587.221 4.17063 6.30551 0
M  V30 6435 H 588.489 3.26626 7.07768 0
M  V30 6436 N 592.718 -0.936591 1.26751 0
M  V30 6437 C 593.964 -1.6858 1.12733 0
M  V30 6438 C 594.297 -1.91414 -0.327745 0
M  V30 6439 O 593.572 -1.49812 -1.24043 0
M  V30 6440 C 593.855 -3.05779 1.90187 0
M  V30 6441 C 593.708 -2.90242 3.43627 0
M  V30 6442 C 595.027 -4.0597 1.69931 0
M  V30 6443 H 592.146 -0.61182 0.410908 0
M  V30 6444 H 594.788 -1.08747 1.55801 0
M  V30 6445 H 592.938 -3.56853 1.53584 0
M  V30 6446 H 594.61 -2.46354 3.9001 0
M  V30 6447 H 592.853 -2.2577 3.70419 0
M  V30 6448 H 593.524 -3.87572 3.93055 0
M  V30 6449 H 596 -3.63874 2.0183 0
M  V30 6450 H 594.876 -4.99974 2.26534 0
M  V30 6451 H 595.137 -4.37369 0.64502 0
M  V30 6452 N 594.196 -1.08629 -1.14182 0
M  V30 6453 C 595.146 -0.687882 -2.17376 0
M  V30 6454 C 596.13 0.293632 -1.58198 0
M  V30 6455 O 597.322 0.105292 -1.76687 0
M  V30 6456 C 594.451 -0.101184 -3.43151 0
M  V30 6457 C 593.537 -1.10862 -4.09354 0
M  V30 6458 N 593.928 -2.29285 -4.50846 0
M  V30 6459 C 592.226 -0.944897 -4.35876 0
M  V30 6460 C 592.927 -2.93305 -5.02342 0
M  V30 6461 N 591.903 -2.20903 -4.96692 0
M  V30 6462 H 595.705 -1.58963 -2.472 0
M  V30 6463 H 593.219 -0.961329 -1.3089 0
M  V30 6464 H 595.216 0.202209 -4.16409 0
M  V30 6465 H 593.876 0.795522 -3.14804 0
M  V30 6466 H 594.887 -2.66927 -4.43813 0
M  V30 6467 H 591.564 -0.102186 -4.17375 0
M  V30 6468 H 592.954 -3.93932 -5.44304 0
M  V30 6469 N 595.674 1.31259 -0.872281 0
M  V30 6470 C 597.085 1.78822 -0.536617 0
M  V30 6471 C 597.436 1.71855 0.946594 0
M  V30 6472 O 596.561 1.28769 1.73918 0
M  V30 6473 C 597.156 3.24698 -0.967294 0
M  V30 6474 C 595.715 3.70147 -0.683251 0
M  V30 6475 C 594.862 2.51994 -1.15733 0
M  V30 6476 H 597.813 1.18308 -1.05777 0
M  V30 6477 H 597.834 3.79386 -0.290929 0
M  V30 6478 H 597.346 3.29737 -2.04683 0
M  V30 6479 H 595.447 3.70607 0.384825 0
M  V30 6480 H 595.56 4.62183 -1.2619 0
M  V30 6481 H 593.924 2.48078 -0.577024 0
M  V30 6482 H 594.707 2.59778 -2.24434 0
M  V30 6483 N 597.152 0.631951 1.44375 0
M  V30 6484 C 598.568 0.297642 1.568 0
M  V30 6485 C 598.768 -1.19916 1.61934 0
M  V30 6486 O 597.824 -1.98324 1.56281 0
M  V30 6487 C 599.137 0.990286 2.83926 0
M  V30 6488 C 600.685 0.968507 2.97639 0
M  V30 6489 C 601.16 1.64163 4.27568 0
M  V30 6490 N 602.651 1.60826 4.34384 0
M  V30 6491 C 603.386 2.09802 5.33639 0
M  V30 6492 N 602.882 2.66973 6.39294 0
M  V30 6493 N 604.675 2.00426 5.25153 0
M  V30 6494 H 596.826 1.60353 1.39286 0
M  V30 6495 H 599.089 0.673142 0.667521 0
M  V30 6496 H 598.795 2.04519 2.8612 0
M  V30 6497 H 598.669 0.528563 3.73478 0
M  V30 6498 H 601.056 -0.0779247 2.94997 0
M  V30 6499 H 601.137 1.46873 2.09433 0
M  V30 6500 H 600.781 2.68752 4.3097 0
M  V30 6501 H 600.711 1.11624 5.14634 0
M  V30 6502 H 603.202 1.19087 3.58646 0
M  V30 6503 H 603.515 3.02074 7.11316 0
M  V30 6504 H 601.86 2.71024 6.39977 0
M  V30 6505 H 605.051 1.55483 4.41523 0
M  V30 6506 H 605.224 2.38906 6.02352 0
M  V30 6507 N 598.631 -1.53133 0.372548 0
M  V30 6508 C 599.861 -2.05476 -0.215202 0
M  V30 6509 C 600.269 -1.24534 -1.42436 0
M  V30 6510 O 599.612 -0.280771 -1.81542 0
M  V30 6511 C 599.674 -3.53276 -0.666068 0
M  V30 6512 C 599.338 -4.54998 0.427342 0
M  V30 6513 C 600.335 -5.03911 1.27944 0
M  V30 6514 C 598.02 -4.98828 0.589579 0
M  V30 6515 C 600.014 -5.95263 2.27905 0
M  V30 6516 C 597.701 -5.89984 1.59255 0
M  V30 6517 C 598.699 -6.38093 2.43571 0
M  V30 6518 O 598.387 -7.27451 3.42156 0
M  V30 6519 H 598.119 -0.67481 -0.040099 0
M  V30 6520 H 600.673 -1.98409 0.531312 0
M  V30 6521 H 598.903 -3.57904 -1.4643 0
M  V30 6522 H 600.592 -3.88442 -1.1776 0
M  V30 6523 H 601.358 -4.70792 1.16532 0
M  V30 6524 H 597.237 -4.60965 -0.0569456 0
M  V30 6525 H 600.781 -6.32736 2.93753 0
M  V30 6526 H 596.678 -6.22518 1.70711 0
M  V30 6527 H 597.446 -7.45467 3.37967 0
M  V30 6528 N 600.109 -0.101901 -1.5727 0
M  V30 6529 C 601.386 0.602832 -1.86079 0
M  V30 6530 C 601.766 1.85912 -1 0
M  V30 6531 O 601.114 2.28379 -0.0742488 0
M  V30 6532 C 601.324 0.911694 -3.36881 0
M  V30 6533 C 602.672 1.2722 -4.05093 0
M  V30 6534 O 603.696 1.0025 -3.41802 0
M  V30 6535 O 602.555 1.7776 -5.16782 0
M  V30 6536 H 599.649 0.302366 -0.769743 0
M  V30 6537 H 602.195 -0.135113 -1.69161 0
M  V30 6538 H 600.967 0.0207256 -3.91295 0
M  V30 6539 H 600.59 1.70538 -3.59169 0
M  V30 6540 N 601.587 1.56661 0.17182 0
M  V30 6541 C 602.517 1.99401 1.21498 0
M  V30 6542 C 603.498 0.869516 1.46197 0
M  V30 6543 O 604.683 1.13556 1.57539 0
M  V30 6544 C 601.813 2.35346 2.55401 0
M  V30 6545 C 600.767 3.5075 2.45272 0
M  V30 6546 C 600.093 3.72437 3.8366 0
M  V30 6547 C 601.393 4.84216 1.95787 0
M  V30 6548 H 603.087 2.86792 0.859699 0
M  V30 6549 H 600.633 1.37977 0.412103 0
M  V30 6550 H 602.586 2.63843 3.2858 0
M  V30 6551 H 601.31 1.44864 2.92715 0
M  V30 6552 H 599.969 3.2238 1.74547 0
M  V30 6553 H 599.617 2.79246 4.18367 0
M  V30 6554 H 599.317 4.50087 3.77751 0
M  V30 6555 H 600.841 4.03334 4.58426 0
M  V30 6556 H 602.255 5.11592 2.5874 0
M  V30 6557 H 600.652 5.65498 2.00827 0
M  V30 6558 H 601.722 4.76243 0.912159 0
M  V30 6559 N 603.065 -0.440357 1.51323 0
M  V30 6560 C 604.342 -1.20109 1.5438 0
M  V30 6561 C 604.722 -2.08866 0.306303 0
M  V30 6562 O 604.07 -2.1723 -0.708773 0
M  V30 6563 C 604.28 -2.00555 2.8562 0
M  V30 6564 C 605.628 -2.577 3.37455 0
M  V30 6565 O 606.652 -2.10769 2.8715 0
M  V30 6566 O 605.511 -3.43289 4.25224 0
M  V30 6567 H 602.605 -0.546668 0.620551 0
M  V30 6568 H 605.151 -0.449672 1.63634 0
M  V30 6569 H 603.923 -1.35346 3.67147 0
M  V30 6570 H 603.546 -2.82768 2.79514 0
M  V30 6571 N 604.543 -1.41418 -0.695603 0
M  V30 6572 C 605.791 -1.40496 -1.45277 0
M  V30 6573 C 606.112 -0.0149538 -1.94994 0
M  V30 6574 O 605.382 0.9432 -1.71699 0
M  V30 6575 H 603.962 -0.517147 -0.539044 0
M  V30 6576 H 606.624 -1.76656 -0.823321 0
M  V30 6577 H 605.72 -2.09214 -2.31595 0
M  V30 6578 N 606.021 0.929856 -1.27246 0
M  V30 6579 C 607.298 1.65544 -1.04186 0
M  V30 6580 C 607.678 2.06796 0.424097 0
M  V30 6581 O 607.026 1.80053 1.40688 0
M  V30 6582 C 607.236 2.85912 -2.00138 0
M  V30 6583 C 608.584 3.57305 -2.29387 0
M  V30 6584 O 609.608 2.96036 -1.98094 0
M  V30 6585 O 608.467 4.67688 -2.82719 0
M  V30 6586 H 605.561 0.725473 -0.397011 0
M  V30 6587 H 608.107 0.980583 -1.38501 0
M  V30 6588 H 606.879 2.52403 -2.99013 0
M  V30 6589 H 606.502 3.61118 -1.66371 0
M  V30 6590 N 607.499 1.09233 1.13605 0
M  V30 6591 C 608.462 0.733553 2.17144 0
M  V30 6592 C 609.462 -0.235873 1.59061 0
M  V30 6593 O 610.652 -0.0143167 1.74194 0
M  V30 6594 C 607.784 0.084471 3.40795 0
M  V30 6595 H 608.977 1.65049 2.50397 0
M  V30 6596 H 606.53 0.891264 1.28399 0
M  V30 6597 H 607.265 -0.843795 3.1313 0
M  V30 6598 H 607.05 0.781985 3.84223 0
M  V30 6599 H 608.54 -0.151216 4.17326 0
M  V30 6600 N 608.977 -1.30795 0.87923 0
M  V30 6601 C 610.202 -2.01063 0.508769 0
M  V30 6602 C 610.627 -1.65508 -0.893803 0
M  V30 6603 O 609.985 -0.868616 -1.59138 0
M  V30 6604 C 610.033 -3.54054 0.683991 0
M  V30 6605 O 609.137 -4.11498 -0.272654 0
M  V30 6606 H 608.478 -0.632786 0.201191 0
M  V30 6607 H 611.008 -1.66776 1.18519 0
M  V30 6608 H 611.018 -4.03845 0.580798 0
M  V30 6609 H 609.693 -3.79271 1.70665 0
M  V30 6610 H 608.27 -3.72695 -0.12364 0
M  V30 6611 N 610.455 -0.639598 -1.44038 0
M  V30 6612 C 611.388 0.109736 -2.27936 0
M  V30 6613 C 612.366 0.843095 -1.39035 0
M  V30 6614 O 613.55 0.845456 -1.68476 0
M  V30 6615 C 610.677 1.16173 -3.18153 0
M  V30 6616 C 609.723 0.527954 -4.2322 0
M  V30 6617 S 610.556 -0.688318 -5.31058 0
M  V30 6618 C 611.712 0.363481 -6.24844 0
M  V30 6619 H 611.945 -0.601986 -2.91142 0
M  V30 6620 H 609.478 -0.42802 -1.48349 0
M  V30 6621 H 611.436 1.76372 -3.7068 0
M  V30 6622 H 610.097 1.84569 -2.54151 0
M  V30 6623 H 609.29 1.32054 -4.86393 0
M  V30 6624 H 608.892 0.000396444 -3.74 0
M  V30 6625 H 611.184 1.23362 -6.66174 0
M  V30 6626 H 612.127 -0.23288 -7.07717 0
M  V30 6627 H 612.535 0.693179 -5.60228 0
M  V30 6628 N 611.933 1.52934 -0.380664 0
M  V30 6629 C 612.896 2.24809 0.446473 0
M  V30 6630 C 613.896 1.26133 0.997347 0
M  V30 6631 O 615.086 1.50297 0.880714 0
M  V30 6632 C 612.218 2.99649 1.62553 0
M  V30 6633 H 613.411 2.99343 -0.182677 0
M  V30 6634 H 610.964 1.55736 -0.132618 0
M  V30 6635 H 611.699 2.29395 2.29235 0
M  V30 6636 H 611.484 3.72066 1.23732 0
M  V30 6637 H 612.974 3.54246 2.21133 0
M  V30 6638 N 613.412 0.11024 1.57214 0
M  V30 6639 C 614.359 -0.843195 2.14846 0
M  V30 6640 C 615.329 -1.26954 1.07107 0
M  V30 6641 O 616.514 -1.34861 1.34971 0
M  V30 6642 C 613.654 -2.09123 2.74521 0
M  V30 6643 C 612.767 -1.71404 3.96541 0
M  V30 6644 C 611.902 -2.91107 4.44331 0
M  V30 6645 C 610.941 -2.49586 5.58903 0
M  V30 6646 N 610.078 -3.62175 6.01477 0
M  V30 6647 H 614.918 -0.344886 2.95998 0
M  V30 6648 H 612.455 -0.15855 1.46243 0
M  V30 6649 H 614.413 -2.82234 3.07246 0
M  V30 6650 H 613.043 -2.56427 1.96074 0
M  V30 6651 H 612.095 -0.88201 3.70033 0
M  V30 6652 H 613.407 -1.36884 4.7965 0
M  V30 6653 H 612.561 -3.72454 4.78919 0
M  V30 6654 H 611.3 -3.28848 3.60153 0
M  V30 6655 H 610.305 -1.6667 5.23929 0
M  V30 6656 H 611.53 -2.12973 6.4484 0
M  V30 6657 H 609.476 -3.99605 5.20242 0
M  V30 6658 H 609.393 -3.3155 6.79419 0
M  V30 6659 H 610.661 -4.43987 6.407 0
M  V30 6660 N 614.89 -1.56749 -0.16351 0
M  V30 6661 C 615.853 -1.96121 -1.18613 0
M  V30 6662 C 616.853 -0.845765 -1.36761 0
M  V30 6663 O 618.043 -1.11268 -1.34033 0
M  V30 6664 C 615.175 -2.26282 -2.54969 0
M  V30 6665 H 616.368 -2.87639 -0.848764 0
M  V30 6666 H 613.921 -1.50928 -0.406251 0
M  V30 6667 H 614.656 -1.37504 -2.93706 0
M  V30 6668 H 614.441 -3.07595 -2.43162 0
M  V30 6669 H 615.931 -2.57638 -3.28653 0
M  V30 6670 N 616.368 0.432326 -1.51554 0
M  V30 6671 C 617.617 1.17831 -1.63703 0
M  V30 6672 C 617.93 1.92229 -0.36156 0
M  V30 6673 O 619.136 2.69069 -0.362495 0
M  V30 6674 C 617.592 2.14318 -2.89129 0
M  V30 6675 C 617.2 1.45544 -4.23699 0
M  V30 6676 C 618.944 2.89319 -3.10636 0
M  V30 6677 C 616.851 2.40545 -5.4027 0
M  V30 6678 H 615.781 0.443533 -0.60975 0
M  V30 6679 H 618.432 0.444878 -1.78026 0
M  V30 6680 H 616.814 2.91117 -2.68452 0
M  V30 6681 H 617.988 0.742693 -4.54775 0
M  V30 6682 H 616.303 0.826772 -4.0811 0
M  V30 6683 H 618.9 3.60495 -3.94902 0
M  V30 6684 H 619.243 3.50951 -2.23918 0
M  V30 6685 H 619.776 2.19625 -3.31677 0
M  V30 6686 H 616.515 1.83594 -6.29264 0
M  V30 6687 H 616.035 3.09859 -5.13563 0
M  V30 6688 H 617.714 3.01569 -5.72421 0
M  V30 6689 N 617.846 1.41785 0.688094 0
M  V30 6690 C 619.074 1.44915 1.47673 0
M  V30 6691 C 619.489 0.0565786 1.88715 0
M  V30 6692 O 618.846 -0.92579 1.57275 0
M  V30 6693 C 618.897 2.36452 2.73446 0
M  V30 6694 O 618.618 3.7029 2.34131 0
M  V30 6695 C 620.119 2.48463 3.67125 0
M  V30 6696 H 617.339 0.493324 0.454832 0
M  V30 6697 H 619.883 1.86153 0.846594 0
M  V30 6698 H 618.038 1.98502 3.3268 0
M  V30 6699 H 618.452 4.19183 3.15255 0
M  V30 6700 H 619.926 3.16662 4.52138 0
M  V30 6701 H 620.403 1.51826 4.12123 0
M  V30 6702 H 621.009 2.8708 3.13792 0
M  V30 6703 N 619.324 -0.923095 1.27737 0
M  V30 6704 C 620.572 -1.66797 1.14119 0
M  V30 6705 C 620.893 -1.92479 -0.312541 0
M  V30 6706 O 620.163 -1.53432 -1.218 0
M  V30 6707 H 618.743 -0.618196 0.419336 0
M  V30 6708 H 621.405 -1.10815 1.60331 0
M  V30 6709 H 620.501 -2.63424 1.67374 0
M  V30 6710 N 620.802 -1.09834 -1.13024 0
M  V30 6711 C 622.048 -0.83819 -1.84668 0
M  V30 6712 C 622.381 0.634645 -1.83537 0
M  V30 6713 O 621.656 1.46753 -1.27647 0
M  V30 6714 C 621.939 -1.37933 -3.32636 0
M  V30 6715 C 621.792 -2.91857 -3.42257 0
M  V30 6716 C 623.111 -1.01654 -4.28199 0
M  V30 6717 H 620.23 -0.30595 -0.670495 0
M  V30 6718 H 622.872 -1.36044 -1.32635 0
M  V30 6719 H 621.022 -0.935111 -3.77078 0
M  V30 6720 H 622.694 -3.44759 -3.06495 0
M  V30 6721 H 620.937 -3.28776 -2.83 0
M  V30 6722 H 621.608 -3.24799 -4.46329 0
M  V30 6723 H 624.084 -1.39973 -3.9185 0
M  V30 6724 H 622.96 -1.42217 -5.30156 0
M  V30 6725 H 623.221 0.0747794 -4.42037 0
M  V30 6726 N 622.28 1.30327 -0.886154 0
M  V30 6727 C 623.526 1.96388 -0.505941 0
M  V30 6728 C 623.859 1.69784 0.942712 0
M  V30 6729 O 623.134 1.00322 1.6663 0
M  V30 6730 C 623.417 3.51488 -0.782826 0
M  V30 6731 C 623.27 3.87603 -2.28219 0
M  V30 6732 C 624.589 4.39331 -0.260128 0
M  V30 6733 H 621.708 0.713327 -0.185292 0
M  V30 6734 H 624.35 1.54178 -1.11036 0
M  V30 6735 H 622.5 3.87572 -0.268399 0
M  V30 6736 H 624.172 3.61537 -2.86512 0
M  V30 6737 H 622.415 3.3563 -2.74837 0
M  V30 6738 H 623.086 4.95806 -2.42653 0
M  V30 6739 H 625.562 4.10162 -0.700444 0
M  V30 6740 H 624.438 5.46769 -0.483179 0
M  V30 6741 H 624.699 4.34072 0.838674 0
M  V30 6742 N 623.758 0.647228 1.43697 0
M  V30 6743 C 624.998 0.16171 2.03759 0
M  V30 6744 C 625.362 -1.19951 1.49919 0
M  V30 6745 O 626.563 -1.77808 2.01588 0
M  V30 6746 C 624.834 0.16505 3.57019 0
M  V30 6747 S 626.393 -0.253497 4.38067 0
M  V30 6748 H 623.211 0.0689985 0.707644 0
M  V30 6749 H 625.813 0.854224 1.7585 0
M  V30 6750 H 624.517 1.15858 3.93707 0
M  V30 6751 H 624.048 -0.548194 3.89562 0
M  V30 6752 H 626.063 -1.49385 4.73179 0
M  V30 6753 N 625.236 -1.5273 0.388769 0
M  V30 6754 C 626.466 -2.05693 -0.193397 0
M  V30 6755 C 626.874 -1.26038 -1.41107 0
M  V30 6756 O 626.217 -0.30001 -1.81234 0
M  V30 6757 C 626.279 -3.53962 -0.628561 0
M  V30 6758 C 625.943 -4.54519 0.475576 0
M  V30 6759 C 626.94 -5.02526 1.33281 0
M  V30 6760 C 624.625 -4.98174 0.642453 0
M  V30 6761 C 626.619 -5.92812 2.34205 0
M  V30 6762 C 624.306 -5.88262 1.65503 0
M  V30 6763 C 625.304 -6.35473 2.50325 0
M  V30 6764 O 624.992 -7.23781 3.49852 0
M  V30 6765 H 624.724 -0.675197 -0.0329395 0
M  V30 6766 H 627.278 -1.97835 0.552326 0
M  V30 6767 H 625.508 -3.59437 -1.42625 0
M  V30 6768 H 627.197 -3.89669 -1.13633 0
M  V30 6769 H 627.963 -4.6953 1.21519 0
M  V30 6770 H 623.842 -4.60999 -0.00805093 0
M  V30 6771 H 627.386 -6.29585 3.00447 0
M  V30 6772 H 623.283 -6.20672 1.77304 0
M  V30 6773 H 624.051 -7.4184 3.45855 0
M  V30 6774 N 626.714 -0.118576 -1.57153 0
M  V30 6775 C 627.677 0.817464 -2.14127 0
M  V30 6776 C 628.677 1.1949 -1.07604 0
M  V30 6777 O 629.867 1.12048 -1.33382 0
M  V30 6778 C 626.999 2.10541 -2.68115 0
M  V30 6779 H 628.192 0.322339 -2.98163 0
M  V30 6780 H 625.745 0.130655 -1.55753 0
M  V30 6781 H 626.48 2.64485 -1.87665 0
M  V30 6782 H 626.265 1.84425 -3.4602 0
M  V30 6783 H 627.755 2.77453 -3.12105 0
M  V30 6784 N 628.193 1.56834 0.155195 0
M  V30 6785 C 629.433 1.84701 0.875488 0
M  V30 6786 C 629.797 0.701747 1.78716 0
M  V30 6787 O 630.998 0.861263 2.54629 0
M  V30 6788 C 629.269 3.1773 1.63654 0
M  V30 6789 S 630.828 3.67128 2.40338 0
M  V30 6790 H 627.646 0.647856 0.292923 0
M  V30 6791 H 630.248 1.95026 0.136024 0
M  V30 6792 H 628.952 3.99059 0.958117 0
M  V30 6793 H 628.483 3.10388 2.41708 0
M  V30 6794 H 630.498 3.35739 3.65368 0
M  V30 6795 N 629.671 -0.424282 1.51781 0
M  V30 6796 C 631.087 -0.761768 1.40247 0
M  V30 6797 C 631.287 -1.95324 0.495041 0
M  V30 6798 O 630.343 -2.5246 -0.0448949 0
M  V30 6799 C 631.656 -1.0299 2.82513 0
M  V30 6800 C 633.204 -1.13354 2.91753 0
M  V30 6801 C 633.679 -1.43453 4.34954 0
M  V30 6802 N 635.17 -1.5035 4.3812 0
M  V30 6803 C 635.905 -1.75236 5.45967 0
M  V30 6804 N 635.401 -1.97827 6.63955 0
M  V30 6805 N 637.194 -1.77126 5.33463 0
M  V30 6806 H 629.345 0.360228 2.09323 0
M  V30 6807 H 631.608 0.0988128 0.942836 0
M  V30 6808 H 631.314 -0.226961 3.50967 0
M  V30 6809 H 631.188 -1.95411 3.22637 0
M  V30 6810 H 633.575 -1.92709 2.23489 0
M  V30 6811 H 633.656 -0.188041 2.55108 0
M  V30 6812 H 633.3 -0.646209 5.03772 0
M  V30 6813 H 633.23 -2.3923 4.69123 0
M  V30 6814 H 635.721 -1.34742 3.53062 0
M  V30 6815 H 636.034 -2.16223 7.41935 0
M  V30 6816 H 634.379 -1.95123 6.67047 0
M  V30 6817 H 637.57 -1.59005 4.40267 0
M  V30 6818 H 637.743 -1.96182 6.17589 0
M  V30 6819 N 631.149 -1.42148 -0.680565 0
M  V30 6820 C 632.398 -1.41604 -1.43636 0
M  V30 6821 C 632.711 -0.0337887 -1.95571 0
M  V30 6822 O 633.917 0.0942588 -2.71336 0
M  V30 6823 C 632.373 -2.49056 -2.59806 0
M  V30 6824 C 631.981 -3.9326 -2.14594 0
M  V30 6825 C 633.725 -2.5767 -3.37352 0
M  V30 6826 C 631.632 -4.92232 -3.27813 0
M  V30 6827 H 630.562 -0.526656 -0.539583 0
M  V30 6828 H 633.213 -1.68033 -0.737369 0
M  V30 6829 H 631.595 -2.15782 -3.32045 0
M  V30 6830 H 632.769 -4.35858 -1.49546 0
M  V30 6831 H 631.084 -3.88443 -1.50002 0
M  V30 6832 H 633.681 -3.28794 -4.21662 0
M  V30 6833 H 634.024 -1.61837 -3.83555 0
M  V30 6834 H 634.557 -2.90109 -2.72179 0
M  V30 6835 H 631.296 -5.89522 -2.86607 0
M  V30 6836 H 630.816 -4.5427 -3.91661 0
M  V30 6837 H 632.495 -5.13684 -3.93367 0
M  V30 6838 N 632.627 0.916307 -1.28225 0
M  V30 6839 C 633.59 1.99996 -1.11957 0
M  V30 6840 C 634.59 1.60688 -0.0600152 0
M  V30 6841 O 635.78 1.71499 -0.30558 0
M  V30 6842 C 632.912 3.33458 -0.708411 0
M  V30 6843 H 634.105 2.15858 -2.08196 0
M  V30 6844 H 631.658 1.09863 -1.11175 0
M  V30 6845 H 632.393 3.23297 0.254859 0
M  V30 6846 H 632.178 3.63349 -1.47377 0
M  V30 6847 H 633.668 4.13014 -0.617164 0
M  V30 6848 N 634.105 1.10431 1.1244 0
M  V30 6849 C 635.33 0.869089 1.88313 0
M  V30 6850 C 635.755 -0.574912 1.79099 0
M  V30 6851 O 635.113 -1.40496 1.14589 0
M  V30 6852 C 635.161 1.32208 3.3549 0
M  V30 6853 O 634.265 0.487092 4.09513 0
M  V30 6854 H 633.606 0.313894 0.585121 0
M  V30 6855 H 636.136 1.47111 1.42195 0
M  V30 6856 H 636.146 1.31201 3.86329 0
M  V30 6857 H 634.821 2.37364 3.41513 0
M  V30 6858 H 633.398 0.562372 3.68635 0
M  V30 6859 N 635.583 -1.29855 0.893053 0
M  V30 6860 C 636.811 -1.99976 0.530788 0
M  V30 6861 C 637.226 -1.66889 -0.882799 0
M  V30 6862 O 636.583 -0.910352 -1.58173 0
M  V30 6863 C 636.634 -3.54547 0.705587 0
M  V30 6864 O 636.355 -3.86458 2.06353 0
M  V30 6865 C 637.856 -4.41937 0.347387 0
M  V30 6866 H 635.076 -0.639129 0.204339 0
M  V30 6867 H 637.62 -1.65549 1.20057 0
M  V30 6868 H 635.775 -3.87311 0.0830685 0
M  V30 6869 H 636.189 -4.81146 2.08803 0
M  V30 6870 H 637.663 -5.4954 0.520557 0
M  V30 6871 H 638.14 -4.33339 -0.715139 0
M  V30 6872 H 638.746 -4.14633 0.946567 0
M  V30 6873 N 637.061 -0.65484 -1.43351 0
M  V30 6874 C 637.991 0.0221809 -2.33489 0
M  V30 6875 C 638.972 0.810272 -1.49561 0
M  V30 6876 O 640.157 0.771426 -1.78221 0
M  V30 6877 C 637.287 0.988117 -3.32947 0
M  V30 6878 C 636.241 0.310026 -4.26876 0
M  V30 6879 C 635.567 1.38752 -5.16384 0
M  V30 6880 C 636.867 -0.798589 -5.16159 0
M  V30 6881 H 638.561 -0.730571 -2.9035 0
M  V30 6882 H 636.107 -0.352773 -1.39612 0
M  V30 6883 H 638.06 1.47067 -3.94904 0
M  V30 6884 H 636.784 1.77205 -2.74346 0
M  V30 6885 H 635.443 -0.152097 -3.66284 0
M  V30 6886 H 635.091 2.16293 -4.54121 0
M  V30 6887 H 634.791 0.939051 -5.80048 0
M  V30 6888 H 636.315 1.87141 -5.81215 0
M  V30 6889 H 637.729 -0.398126 -5.71916 0
M  V30 6890 H 636.126 -1.17163 -5.88552 0
M  V30 6891 H 637.196 -1.65588 -4.55751 0
M  V30 6892 N 638.539 1.52521 -0.396863 0
M  V30 6893 C 639.469 2.29582 0.425941 0
M  V30 6894 C 640.45 1.33281 1.05689 0
M  V30 6895 O 641.635 1.62181 1.06823 0
M  V30 6896 C 638.765 3.10821 1.54943 0
M  V30 6897 C 637.719 4.15069 1.04413 0
M  V30 6898 C 637.045 4.84578 2.26028 0
M  V30 6899 C 638.345 5.22191 0.106767 0
M  V30 6900 H 640.039 2.98612 -0.217045 0
M  V30 6901 H 637.585 1.43611 -0.105826 0
M  V30 6902 H 639.538 3.63492 2.13193 0
M  V30 6903 H 638.262 2.39538 2.22011 0
M  V30 6904 H 636.921 3.63389 0.484118 0
M  V30 6905 H 636.569 4.09835 2.91623 0
M  V30 6906 H 636.269 5.55043 1.92876 0
M  V30 6907 H 637.793 5.40056 2.84906 0
M  V30 6908 H 639.207 5.70176 0.597685 0
M  V30 6909 H 637.604 5.99947 -0.135352 0
M  V30 6910 H 638.674 4.77531 -0.842134 0
M  V30 6911 N 640.017 0.126909 1.57088 0
M  V30 6912 C 640.947 -0.816847 2.18746 0
M  V30 6913 C 641.928 -1.27161 1.12979 0
M  V30 6914 O 643.113 -1.33279 1.41246 0
M  V30 6915 C 640.243 -2.06398 2.79315 0
M  V30 6916 C 639.197 -1.74673 3.90735 0
M  V30 6917 C 638.523 -3.06482 4.38147 0
M  V30 6918 C 639.823 -1.0089 5.12463 0
M  V30 6919 H 641.517 -0.303032 2.97863 0
M  V30 6920 H 639.063 -0.144314 1.43275 0
M  V30 6921 H 641.016 -2.72885 3.2111 0
M  V30 6922 H 639.74 -2.60118 1.975 0
M  V30 6923 H 638.399 -1.10572 3.49527 0
M  V30 6924 H 638.047 -3.58152 3.5318 0
M  V30 6925 H 637.747 -2.86025 5.13287 0
M  V30 6926 H 639.271 -3.74073 4.82599 0
M  V30 6927 H 640.685 -1.57546 5.51228 0
M  V30 6928 H 639.082 -0.905006 5.93237 0
M  V30 6929 H 640.152 0.00297335 4.849 0
M  V30 6930 N 641.495 -1.56914 -0.146875 0
M  V30 6931 C 642.725 -1.87243 -0.873126 0
M  V30 6932 C 643.133 -0.713127 -1.75246 0
M  V30 6933 O 642.476 0.326228 -1.8078 0
M  V30 6934 C 642.538 -3.12279 -1.78107 0
M  V30 6935 C 642.202 -4.44082 -1.07889 0
M  V30 6936 C 643.199 -5.18096 -0.432734 0
M  V30 6937 C 640.884 -4.90807 -1.06836 0
M  V30 6938 C 642.878 -6.37039 0.214569 0
M  V30 6939 C 640.565 -6.09674 -0.417243 0
M  V30 6940 C 641.563 -6.82636 0.223093 0
M  V30 6941 O 641.251 -7.99245 0.863884 0
M  V30 6942 H 640.983 -0.624896 -0.257839 0
M  V30 6943 H 643.537 -2.04892 -0.14434 0
M  V30 6944 H 641.767 -2.90639 -2.5508 0
M  V30 6945 H 643.456 -3.28854 -2.37929 0
M  V30 6946 H 644.222 -4.83066 -0.432677 0
M  V30 6947 H 640.101 -4.3394 -1.55618 0
M  V30 6948 H 643.645 -6.93927 0.714965 0
M  V30 6949 H 639.542 -6.44165 -0.414967 0
M  V30 6950 H 640.31 -8.14912 0.765564 0
M  V30 6951 N 642.974 0.416227 -1.52004 0
M  V30 6952 C 643.906 1.52552 -1.71058 0
M  V30 6953 C 644.919 1.51693 -0.59102 0
M  V30 6954 O 646.108 1.56087 -0.865973 0
M  V30 6955 C 643.208 2.91455 -1.72937 0
M  V30 6956 C 642.381 3.16584 -3.01816 0
M  V30 6957 C 641.44 4.35322 -2.95603 0
M  V30 6958 O 640.466 4.32947 -3.6952 0
M  V30 6959 N 641.668 5.40049 -2.12903 0
M  V30 6960 H 644.433 1.36604 -2.66757 0
M  V30 6961 H 641.994 0.60544 -1.50153 0
M  V30 6962 H 643.986 3.68944 -1.66321 0
M  V30 6963 H 642.556 3.00895 -0.847418 0
M  V30 6964 H 641.776 2.27203 -3.22137 0
M  V30 6965 H 643.064 3.30213 -3.87088 0
M  V30 6966 H 642.462 5.44823 -1.52265 0
M  V30 6967 H 641.019 6.16308 -2.1215 0
M  V30 6968 N 644.452 1.42507 0.673017 0
M  V30 6969 C 645.362 1.4853 1.81593 0
M  V30 6970 C 646.378 0.373907 1.69935 0
M  V30 6971 O 647.554 0.625078 1.91454 0
M  V30 6972 C 644.619 1.387 3.17747 0
M  V30 6973 C 643.68 2.60346 3.41348 0
M  V30 6974 C 642.913 2.50975 4.71007 0
M  V30 6975 O 643.136 1.54659 5.49033 0
M  V30 6976 O 642.07 3.41138 4.95892 0
M  V30 6977 H 645.896 2.45001 1.79467 0
M  V30 6978 H 643.481 1.2429 0.82899 0
M  V30 6979 H 645.363 1.35586 3.98992 0
M  V30 6980 H 644.038 0.453555 3.20507 0
M  V30 6981 H 642.945 2.69034 2.59945 0
M  V30 6982 H 644.278 3.52595 3.43421 0
M  V30 6983 N 645.93 -0.909495 1.28709 0
M  V30 6984 C 646.86 -2.0291 1.15542 0
M  V30 6985 C 647.841 -1.7002 0.0521017 0
M  V30 6986 O 649.026 -1.92835 0.229849 0
M  V30 6987 C 646.156 -3.37458 0.820935 0
M  V30 6988 C 645.11 -3.84524 1.87949 0
M  V30 6989 C 644.436 -5.16086 1.39854 0
M  V30 6990 C 645.736 -4.05918 3.28676 0
M  V30 6991 H 647.43 -2.14183 2.09203 0
M  V30 6992 H 644.976 -1.02913 1.00722 0
M  V30 6993 H 646.929 -4.1528 0.715571 0
M  V30 6994 H 645.653 -3.26249 -0.151374 0
M  V30 6995 H 644.312 -3.08911 1.97408 0
M  V30 6996 H 643.96 -5.01284 0.41518 0
M  V30 6997 H 643.66 -5.48547 2.1064 0
M  V30 6998 H 645.184 -5.96459 1.30649 0
M  V30 6999 H 646.598 -4.74252 3.22115 0
M  V30 7000 H 644.995 -4.49717 3.97334 0
M  V30 7001 H 646.065 -3.10583 3.72379 0
M  V30 7002 N 647.408 -1.11026 -1.11852 0
M  V30 7003 C 648.341 -0.708501 -2.16923 0
M  V30 7004 C 649.319 0.293196 -1.59935 0
M  V30 7005 O 650.503 0.190641 -1.87533 0
M  V30 7006 C 647.63 -0.0463705 -3.38668 0
M  V30 7007 C 646.676 -1.01252 -4.14307 0
M  V30 7008 S 647.509 -2.53291 -4.71809 0
M  V30 7009 C 648.665 -1.88366 -5.96883 0
M  V30 7010 H 648.898 -1.59854 -2.50667 0
M  V30 7011 H 646.431 -0.927869 -1.2341 0
M  V30 7012 H 648.389 0.329314 -4.09177 0
M  V30 7013 H 647.05 0.820562 -3.03192 0
M  V30 7014 H 646.243 -0.496596 -5.01548 0
M  V30 7015 H 645.845 -1.33042 -3.49537 0
M  V30 7016 H 648.137 -1.21753 -6.6647 0
M  V30 7017 H 649.08 -2.73588 -6.53112 0
M  V30 7018 H 649.488 -1.34562 -5.48227 0
M  V30 7019 N 648.886 1.2938 -0.899927 0
M  V30 7020 C 650.302 1.48052 -0.596059 0
M  V30 7021 C 650.502 1.82114 0.862372 0
M  V30 7022 O 649.558 1.91774 1.64253 0
M  V30 7023 C 650.871 2.59332 -1.52208 0
M  V30 7024 C 652.419 2.73208 -1.5273 0
M  V30 7025 C 652.894 3.87617 -2.43961 0
M  V30 7026 N 654.385 3.9495 -2.42009 0
M  V30 7027 C 655.12 4.82824 -3.09303 0
M  V30 7028 N 654.616 5.75387 -3.85877 0
M  V30 7029 N 656.409 4.76317 -2.98459 0
M  V30 7030 H 648.56 1.05546 -1.8432 0
M  V30 7031 H 650.823 0.524314 -0.78981 0
M  V30 7032 H 650.529 2.41029 -2.56121 0
M  V30 7033 H 650.403 3.56139 -1.24278 0
M  V30 7034 H 652.79 2.90908 -0.495614 0
M  V30 7035 H 652.871 1.76975 -1.84698 0
M  V30 7036 H 652.515 3.70672 -3.47224 0
M  V30 7037 H 652.445 4.83218 -2.09303 0
M  V30 7038 H 654.936 3.28744 -1.86375 0
M  V30 7039 H 655.249 6.39235 -4.34279 0
M  V30 7040 H 653.594 5.75272 -3.89984 0
M  V30 7041 H 656.785 4.0299 -2.38152 0
M  V30 7042 H 656.958 5.44589 -3.51179 0
M  V30 7043 N 650.364 0.662433 1.43002 0
M  V30 7044 C 651.311 -0.0235324 2.30788 0
M  V30 7045 C 652.281 -0.805342 1.4527 0
M  V30 7046 O 653.466 -0.78009 1.74124 0
M  V30 7047 C 650.606 -0.977545 3.30965 0
M  V30 7048 C 649.719 -0.190865 4.31578 0
M  V30 7049 C 648.854 -1.13951 5.18834 0
M  V30 7050 C 647.893 -0.343796 6.11134 0
M  V30 7051 N 647.03 -1.2445 6.90982 0
M  V30 7052 H 651.87 0.730921 2.88897 0
M  V30 7053 H 649.407 0.372197 1.42313 0
M  V30 7054 H 651.365 -1.54437 3.87563 0
M  V30 7055 H 649.995 -1.69877 2.74484 0
M  V30 7056 H 649.047 0.492388 3.772 0
M  V30 7057 H 650.359 0.427464 4.96965 0
M  V30 7058 H 649.513 -1.77666 5.80103 0
M  V30 7059 H 648.252 -1.79174 4.53595 0
M  V30 7060 H 647.257 0.30665 5.48944 0
M  V30 7061 H 648.482 0.304161 6.78419 0
M  V30 7062 H 646.428 -1.88336 6.28383 0
M  V30 7063 H 646.345 -0.680959 7.52927 0
M  V30 7064 H 647.613 -1.86952 7.56749 0
M  V30 7065 N 651.842 -1.52309 0.404946 0
M  V30 7066 C 653.09 -2.01368 -0.17186 0
M  V30 7067 C 653.411 -1.29261 -1.46002 0
M  V30 7068 O 652.681 -0.41729 -1.91404 0
M  V30 7069 H 651.261 -0.744034 -0.0664993 0
M  V30 7070 H 653.923 -1.87263 0.540228 0
M  V30 7071 H 653.019 -3.09888 -0.370957 0
M  V30 7072 N 653.32 -0.135238 -1.57019 0
M  V30 7073 C 654.569 0.518694 -1.94917 0
M  V30 7074 C 654.882 1.66783 -1.0219 0
M  V30 7075 O 656.088 2.38561 -1.29619 0
M  V30 7076 C 654.544 0.974123 -3.46466 0
M  V30 7077 C 654.152 -0.147439 -4.47757 0
M  V30 7078 C 655.896 1.59851 -3.93253 0
M  V30 7079 C 653.803 0.325599 -5.90503 0
M  V30 7080 H 652.733 0.19754 -0.727663 0
M  V30 7081 H 655.384 -0.217698 -1.82204 0
M  V30 7082 H 653.766 1.76542 -3.5447 0
M  V30 7083 H 654.94 -0.924122 -4.51438 0
M  V30 7084 H 653.255 -0.679496 -4.10818 0
M  V30 7085 H 655.852 1.96385 -4.9733 0
M  V30 7086 H 656.195 2.48306 -3.3414 0
M  V30 7087 H 656.728 0.872323 -3.88118 0
M  V30 7088 H 653.467 -0.523295 -6.53408 0
M  V30 7089 H 652.987 1.06841 -5.90208 0
M  V30 7090 H 654.666 0.781498 -6.42263 0
M  V30 7091 N 654.798 1.5699 0.138552 0
M  V30 7092 C 656.214 1.51844 0.491472 0
M  V30 7093 C 656.414 0.845063 1.82923 0
M  V30 7094 O 655.47 0.419143 2.48997 0
M  V30 7095 C 656.783 2.96615 0.493987 0
M  V30 7096 C 658.331 3.076 0.578913 0
M  V30 7097 C 658.806 4.53893 0.612009 0
M  V30 7098 N 660.297 4.5827 0.673997 0
M  V30 7099 C 661.032 5.68852 0.720729 0
M  V30 7100 N 660.528 6.88982 0.726292 0
M  V30 7101 N 662.321 5.56908 0.762253 0
M  V30 7102 H 654.472 1.99158 -0.738228 0
M  V30 7103 H 656.735 0.908693 -0.270149 0
M  V30 7104 H 656.441 3.49172 -0.420933 0
M  V30 7105 H 656.315 3.53017 1.32887 0
M  V30 7106 H 658.702 2.55057 1.48425 0
M  V30 7107 H 658.783 2.54227 -0.283286 0
M  V30 7108 H 658.427 5.07076 -0.289208 0
M  V30 7109 H 658.357 5.05057 1.49082 0
M  V30 7110 H 660.848 3.71793 0.676654 0
M  V30 7111 H 661.161 7.69014 0.764032 0
M  V30 7112 H 659.506 6.91526 0.69403 0
M  V30 7113 H 662.697 4.61969 0.755135 0
M  V30 7114 H 662.87 6.43102 0.795207 0
M  V30 7115 N 656.276 -0.40816 1.52223 0
M  V30 7116 C 657.522 -1.15347 1.67531 0
M  V30 7117 C 657.877 -1.8818 0.400748 0
M  V30 7118 O 657.17 -1.81803 -0.604845 0
M  V30 7119 C 657.364 -2.17422 2.83659 0
M  V30 7120 C 657.193 -1.54611 4.22286 0
M  V30 7121 C 655.963 -1.31841 4.87797 0
M  V30 7122 C 658.161 -1.00648 5.04355 0
M  V30 7123 N 656.143 -0.649338 6.10456 0
M  V30 7124 C 657.514 -0.464384 6.18258 0
M  V30 7125 C 659.569 -0.901041 4.89679 0
M  V30 7126 C 658.272 0.172825 7.19092 0
M  V30 7127 C 660.298 -0.277684 5.90748 0
M  V30 7128 C 659.66 0.253734 7.03943 0
M  V30 7129 H 655.759 -0.408722 0.666686 0
M  V30 7130 H 658.343 -0.445713 1.8953 0
M  V30 7131 H 656.514 -2.85554 2.63274 0
M  V30 7132 H 658.246 -2.84321 2.87999 0
M  V30 7133 H 655.001 -1.58819 4.46176 0
M  V30 7134 H 655.425 -0.3314 6.76188 0
M  V30 7135 H 660.067 -1.29772 4.02392 0
M  V30 7136 H 657.785 0.581564 8.06005 0
M  V30 7137 H 661.371 -0.197605 5.81464 0
M  V30 7138 H 660.251 0.728482 7.80809 0
M  V30 7139 N 657.755 -1.42862 -0.66545 0
M  V30 7140 C 658.685 -1.49867 -1.79059 0
M  V30 7141 C 659.666 -0.354394 -1.66367 0
M  V30 7142 O 660.851 -0.569969 -1.85647 0
M  V30 7143 C 657.981 -1.40943 -3.17415 0
M  V30 7144 C 656.935 -2.53495 -3.44854 0
M  V30 7145 C 656.261 -2.29626 -4.82883 0
M  V30 7146 C 657.561 -3.95781 -3.40815 0
M  V30 7147 H 659.255 -2.44037 -1.73453 0
M  V30 7148 H 656.801 -1.17456 -0.833071 0
M  V30 7149 H 658.754 -1.4445 -3.95869 0
M  V30 7150 H 657.478 -0.432716 -3.23721 0
M  V30 7151 H 656.137 -2.4932 -2.68766 0
M  V30 7152 H 655.785 -1.30226 -4.8585 0
M  V30 7153 H 655.485 -3.05065 -5.02204 0
M  V30 7154 H 657.009 -2.34897 -5.63609 0
M  V30 7155 H 658.423 -4.01508 -4.09224 0
M  V30 7156 H 656.82 -4.71148 -3.71672 0
M  V30 7157 H 657.89 -4.21786 -2.39216 0
M  V30 7158 N 659.233 0.902656 -1.29189 0
M  V30 7159 C 660.482 1.6475 -1.16362 0
M  V30 7160 C 660.795 1.93517 0.284682 0
M  V30 7161 O 662.001 2.66192 0.534229 0
M  V30 7162 C 660.457 2.96848 -2.03493 0
M  V30 7163 C 660.065 2.75687 -3.5313 0
M  V30 7164 C 661.809 3.74762 -1.99383 0
M  V30 7165 C 659.716 4.03492 -4.32375 0
M  V30 7166 H 658.646 0.618041 -0.431904 0
M  V30 7167 H 661.297 1.0008 -1.53806 0
M  V30 7168 H 659.679 3.62715 -1.58916 0
M  V30 7169 H 660.853 2.18431 -4.05739 0
M  V30 7170 H 659.168 2.11171 -3.58881 0
M  V30 7171 H 661.765 4.69515 -2.5585 0
M  V30 7172 H 662.108 4.04767 -0.973123 0
M  V30 7173 H 662.641 3.15732 -2.41988 0
M  V30 7174 H 659.38 3.78656 -5.3507 0
M  V30 7175 H 658.9 4.60318 -3.84535 0
M  V30 7176 H 660.579 4.71662 -4.42881 0
M  V30 7177 N 660.711 1.11618 1.11262 0
M  V30 7178 C 661.621 0.78898 2.20935 0
M  V30 7179 C 662.637 -0.21867 1.7262 0
M  V30 7180 O 663.813 -0.0543826 2.01327 0
M  V30 7181 C 660.878 0.239014 3.45875 0
M  V30 7182 C 659.939 1.3055 4.08968 0
M  V30 7183 C 659.172 0.781687 5.27944 0
M  V30 7184 O 659.395 -0.387605 5.69082 0
M  V30 7185 O 658.329 1.54734 5.81671 0
M  V30 7186 H 662.155 1.70477 2.51339 0
M  V30 7187 H 659.74 0.892203 1.19834 0
M  V30 7188 H 661.622 -0.0632312 4.21353 0
M  V30 7189 H 660.297 -0.649454 3.17118 0
M  V30 7190 H 659.204 1.66079 3.35214 0
M  V30 7191 H 660.537 2.16743 4.41909 0
M  V30 7192 N 662.189 -1.289 0.906776 0
M  V30 7193 C 663.119 -2.29932 0.406659 0
M  V30 7194 C 664.1 -1.6189 -0.522061 0
M  V30 7195 O 665.285 -1.8935 -0.431283 0
M  V30 7196 C 662.415 -3.45425 -0.360366 0
M  V30 7197 C 661.369 -4.25316 0.478574 0
M  V30 7198 C 660.695 -5.33076 -0.416373 0
M  V30 7199 C 661.995 -4.92739 1.7322 0
M  V30 7200 H 663.689 -2.72013 1.25097 0
M  V30 7201 H 661.235 -1.30768 0.602977 0
M  V30 7202 H 663.188 -4.15186 -0.721029 0
M  V30 7203 H 661.912 -3.02206 -1.23852 0
M  V30 7204 H 660.571 -3.57273 0.821662 0
M  V30 7205 H 660.219 -4.86101 -1.29287 0
M  V30 7206 H 659.919 -5.8743 0.141309 0
M  V30 7207 H 661.443 -6.05686 -0.773072 0
M  V30 7208 H 662.857 -5.54898 1.44086 0
M  V30 7209 H 661.254 -5.57057 2.23175 0
M  V30 7210 H 662.324 -4.17625 2.46408 0
M  V30 7211 N 663.667 -0.670007 -1.42649 0
M  V30 7212 C 664.916 -0.187526 -2.00826 0
M  V30 7213 C 665.229 1.21142 -1.53571 0
M  V30 7214 O 666.435 1.79001 -2.04134 0
M  V30 7215 C 664.891 -0.284409 -3.58774 0
M  V30 7216 C 664.499 -1.6871 -4.15019 0
M  V30 7217 C 666.243 0.139605 -4.2427 0
M  V30 7218 C 664.15 -1.73701 -5.65316 0
M  V30 7219 H 663.08 -0.0663468 -0.751075 0
M  V30 7220 H 665.731 -0.834492 -1.63427 0
M  V30 7221 H 664.113 0.430364 -3.93655 0
M  V30 7222 H 665.287 -2.42857 -3.91608 0
M  V30 7223 H 663.602 -2.05855 -3.61957 0
M  V30 7224 H 666.199 0.122398 -5.3456 0
M  V30 7225 H 666.542 1.17403 -3.99402 0
M  V30 7226 H 667.075 -0.523995 -3.94334 0
M  V30 7227 H 663.814 -2.75109 -5.94975 0
M  V30 7228 H 663.334 -1.03903 -5.90732 0
M  V30 7229 H 665.013 -1.48829 -6.2965 0
M  V30 7230 N 665.145 1.52092 -0.413018 0
M  V30 7231 C 666.092 2.27119 0.410558 0
M  V30 7232 C 667.062 1.29692 1.03774 0
M  V30 7233 O 668.247 1.58561 1.06128 0
M  V30 7234 C 665.387 3.09863 1.51918 0
M  V30 7235 C 664.5 4.22252 0.912528 0
M  V30 7236 C 663.635 4.92348 1.99417 0
M  V30 7237 C 662.674 5.96694 1.36466 0
M  V30 7238 N 661.811 6.60292 2.38661 0
M  V30 7239 H 666.651 2.97067 -0.235661 0
M  V30 7240 H 664.188 1.46542 -0.128055 0
M  V30 7241 H 666.146 3.56144 2.17295 0
M  V30 7242 H 664.776 2.42078 2.13537 0
M  V30 7243 H 663.828 3.80113 0.147697 0
M  V30 7244 H 665.14 4.9709 0.412717 0
M  V30 7245 H 664.294 5.42054 2.72512 0
M  V30 7246 H 663.033 4.17087 2.52764 0
M  V30 7247 H 662.038 5.46304 0.61906 0
M  V30 7248 H 663.263 6.73899 0.838827 0
M  V30 7249 H 661.209 5.87858 2.91134 0
M  V30 7250 H 661.126 7.30816 1.93503 0
M  V30 7251 H 662.394 7.14635 3.11314 0
M  V30 7252 N 666.623 0.143563 1.56945 0
M  V30 7253 C 667.9 -0.553285 1.87612 0
M  V30 7254 C 668.28 -1.83195 1.04894 0
M  V30 7255 O 667.628 -2.28102 0.134773 0
M  V30 7256 C 667.838 -0.822055 3.3918 0
M  V30 7257 C 669.186 -1.16435 4.08324 0
M  V30 7258 O 670.21 -0.911522 3.4434 0
M  V30 7259 O 669.069 -1.63996 5.21313 0
M  V30 7260 H 666.163 -0.281851 0.777489 0
M  V30 7261 H 668.709 0.179916 1.68744 0
M  V30 7262 H 667.481 0.0830265 3.91212 0
M  V30 7263 H 667.104 -1.60956 3.63564 0
M  V30 7264 N 668.101 -1.57061 -0.130224 0
M  V30 7265 C 669.378 -1.75205 -0.869631 0
M  V30 7266 C 669.758 -0.716063 -1.98584 0
M  V30 7267 O 669.106 0.262032 -2.26993 0
M  V30 7268 C 669.316 -3.19835 -1.39666 0
M  V30 7269 C 670.664 -3.82011 -1.85345 0
M  V30 7270 O 671.688 -3.23368 -1.49371 0
M  V30 7271 O 670.547 -4.85064 -2.51744 0
M  V30 7272 H 667.641 -0.716977 -0.412157 0
M  V30 7273 H 670.187 -1.69311 -0.11484 0
M  V30 7274 H 668.959 -3.86745 -0.595288 0
M  V30 7275 H 668.582 -3.30222 -2.21448 0
M  V30 7276 N 669.579 0.400081 -1.52437 0
M  V30 7277 C 670.809 1.16598 -1.70553 0
M  V30 7278 C 671.217 1.8451 -0.418665 0
M  V30 7279 O 670.56 1.73069 0.615855 0
M  V30 7280 C 670.622 2.26517 -2.7916 0
M  V30 7281 C 670.286 1.78666 -4.20628 0
M  V30 7282 C 671.283 1.26946 -5.04163 0
M  V30 7283 C 668.968 1.85225 -4.66902 0
M  V30 7284 C 670.962 0.824187 -6.32049 0
M  V30 7285 C 668.649 1.40309 -5.94774 0
M  V30 7286 C 669.647 0.889922 -6.77178 0
M  V30 7287 O 669.335 0.447281 -8.02655 0
M  V30 7288 H 669.067 0.356023 -0.574651 0
M  V30 7289 H 671.621 0.475598 -1.99818 0
M  V30 7290 H 669.851 2.98946 -2.45292 0
M  V30 7291 H 671.54 2.88237 -2.85787 0
M  V30 7292 H 672.306 1.21244 -4.69601 0
M  V30 7293 H 668.185 2.24111 -4.02859 0
M  V30 7294 H 671.729 0.422958 -6.96317 0
M  V30 7295 H 667.626 1.45693 -6.28843 0
M  V30 7296 H 668.394 0.569768 -8.16514 0
M  V30 7297 N 671.057 1.43213 0.657864 0
M  V30 7298 C 672.005 1.48271 1.79216 0
M  V30 7299 C 672.999 0.35675 1.65601 0
M  V30 7300 O 674.205 0.530535 1.72004 0
M  V30 7301 H 670.58 0.464729 0.591211 0
M  V30 7302 H 672.551 2.43792 1.7207 0
M  V30 7303 C 671.3 1.41837 3.17455 0
M  V30 7304 H 670.623 2.27781 3.28567 0
M  V30 7305 H 672.063 1.49438 3.96793 0
M  V30 7306 C 670.522 0.135347 3.36628 0
M  V30 7307 O 671.052 -0.805199 3.93547 0
M  V30 7308 N 669.258 0.0470316 2.90562 0
M  V30 7309 H 668.805 0.813221 2.44427 0
M  V30 7310 H 668.763 -0.810737 3.03767 0
M  V30 7311 N 672.536 -0.895792 1.29666 0
M  V30 7312 C 673.446 -2.03329 1.17024 0
M  V30 7313 C 674.462 -1.73753 0.0925962 0
M  V30 7314 O 675.638 -1.99071 0.305431 0
M  V30 7315 C 672.703 -3.36072 0.851841 0
M  V30 7316 C 671.764 -3.7914 2.01373 0
M  V30 7317 C 670.997 -5.05549 1.71043 0
M  V30 7318 O 671.22 -5.66874 0.633213 0
M  V30 7319 O 670.154 -5.44764 2.5596 0
M  V30 7320 H 673.98 -2.16918 2.12556 0
M  V30 7321 H 671.565 -1.02007 1.09156 0
M  V30 7322 H 673.447 -4.15729 0.689006 0
M  V30 7323 H 672.122 -3.23616 -0.0736634 0
M  V30 7324 H 671.029 -3.00233 2.23183 0
M  V30 7325 H 672.362 -3.96186 2.92058 0
M  V30 7326 N 674.014 -1.12206 -1.10668 0
M  V30 7327 C 675.242 -0.898635 -1.86366 0
M  V30 7328 C 675.657 0.551991 -1.80551 0
M  V30 7329 O 675.014 1.38152 -1.19249 0
M  V30 7330 C 675.065 -1.36199 -3.34861 0
M  V30 7331 O 674.786 -2.75576 -3.40573 0
M  V30 7332 C 676.287 -1.17515 -4.2744 0
M  V30 7333 H 673.507 -0.321281 -0.589084 0
M  V30 7334 H 676.051 -1.49142 -1.39918 0
M  V30 7335 H 674.206 -0.81249 -3.78784 0
M  V30 7336 H 674.62 -2.95851 -4.33096 0
M  V30 7337 H 676.094 -1.54827 -5.29842 0
M  V30 7338 H 676.571 -0.115486 -4.39048 0
M  V30 7339 H 677.177 -1.71203 -3.89319 0
M  V30 7340 N 675.492 1.28418 -0.913599 0
M  V30 7341 C 676.738 1.9527 -0.547484 0
M  V30 7342 C 677.071 1.71745 0.906486 0
M  V30 7343 O 676.346 1.03834 1.64465 0
M  V30 7344 C 676.629 3.49748 -0.857205 0
M  V30 7345 C 676.482 3.82675 -2.3639 0
M  V30 7346 C 677.801 4.3868 -0.353258 0
M  V30 7347 H 674.92 0.709236 -0.200381 0
M  V30 7348 H 677.562 1.51789 -1.14281 0
M  V30 7349 H 675.712 3.86915 -0.350548 0
M  V30 7350 H 677.384 3.55378 -2.94116 0
M  V30 7351 H 675.627 3.29724 -2.81894 0
M  V30 7352 H 676.298 4.90547 -2.53115 0
M  V30 7353 H 678.774 4.08584 -0.787288 0
M  V30 7354 H 677.65 5.45621 -0.599049 0
M  V30 7355 H 677.911 4.35753 0.746413 0
M  V30 7356 N 676.97 0.677563 1.42291 0
M  V30 7357 C 677.92 -0.0218641 2.2799 0
M  V30 7358 C 678.904 -0.770816 1.41235 0
M  V30 7359 O 680.096 -0.649273 1.64662 0
M  V30 7360 C 677.225 -0.970449 3.29298 0
M  V30 7361 C 676.311 -0.218695 4.23536 0
M  V30 7362 N 676.702 0.777908 4.99782 0
M  V30 7363 C 675 -0.456748 4.43655 0
M  V30 7364 C 675.701 1.22632 5.68627 0
M  V30 7365 N 674.677 0.55573 5.40752 0
M  V30 7366 H 678.479 0.742516 2.84366 0
M  V30 7367 H 675.993 0.506862 1.54288 0
M  V30 7368 H 677.99 -1.48652 3.89497 0
M  V30 7369 H 676.65 -1.73463 2.74483 0
M  V30 7370 H 677.661 1.15754 5.04798 0
M  V30 7371 H 674.338 -1.20021 3.99877 0
M  V30 7372 H 675.728 2.05231 6.39789 0
M  V30 7373 N 678.448 -1.51871 0.421078 0
M  V30 7374 C 679.395 -2.27334 -0.398508 0
M  V30 7375 C 680.365 -1.30241 -1.03085 0
M  V30 7376 O 681.55 -1.59121 -1.05285 0
M  V30 7377 C 678.69 -3.10664 -1.50272 0
M  V30 7378 C 677.803 -4.2273 -0.890122 0
M  V30 7379 C 676.938 -4.93399 -1.96803 0
M  V30 7380 C 675.977 -5.97409 -1.333 0
M  V30 7381 N 675.114 -6.61548 -2.35156 0
M  V30 7382 H 679.954 -2.96938 0.251411 0
M  V30 7383 H 677.491 -1.46472 0.135825 0
M  V30 7384 H 679.449 -3.57292 -2.15403 0
M  V30 7385 H 678.079 -2.43207 -2.1225 0
M  V30 7386 H 677.131 -3.80186 -0.127537 0
M  V30 7387 H 678.443 -4.97302 -0.386349 0
M  V30 7388 H 677.597 -5.43491 -2.69633 0
M  V30 7389 H 676.336 -4.18421 -2.50549 0
M  V30 7390 H 675.341 -5.46624 -0.59008 0
M  V30 7391 H 676.566 -6.74335 -0.803076 0
M  V30 7392 H 674.512 -5.89394 -2.88012 0
M  V30 7393 H 674.429 -7.31832 -1.89624 0
M  V30 7394 H 675.697 -7.16276 -3.0752 0
M  V30 7395 N 679.926 -0.151884 -1.56866 0
M  V30 7396 C 680.873 0.785936 -2.17006 0
M  V30 7397 C 681.843 1.2407 -1.10435 0
M  V30 7398 O 683.028 1.31235 -1.38499 0
M  V30 7399 C 680.168 2.01771 -2.79969 0
M  V30 7400 C 679.281 1.6083 -4.00946 0
M  V30 7401 C 678.416 2.79224 -4.51893 0
M  V30 7402 C 677.455 2.3468 -5.65324 0
M  V30 7403 N 676.592 3.461 -6.10867 0
M  V30 7404 H 681.432 0.266286 -2.96808 0
M  V30 7405 H 678.969 0.11972 -1.46612 0
M  V30 7406 H 680.927 2.73989 -3.14621 0
M  V30 7407 H 679.557 2.51139 -2.02803 0
M  V30 7408 H 678.609 0.783592 -3.72242 0
M  V30 7409 H 679.921 1.24119 -4.83111 0
M  V30 7410 H 679.075 3.59625 -4.88625 0
M  V30 7411 H 677.814 3.19183 -3.68746 0
M  V30 7412 H 676.819 1.52721 -5.28163 0
M  V30 7413 H 678.044 1.95801 -6.5026 0
M  V30 7414 H 675.99 3.85671 -5.30654 0
M  V30 7415 H 675.907 3.1342 -6.87971 0
M  V30 7416 H 677.175 4.26844 -6.52246 0
M  V30 7417 N 681.404 1.57128 0.121893 0
M  V30 7418 C 682.632 1.88883 0.844451 0
M  V30 7419 C 683.047 0.742824 1.73573 0
M  V30 7420 O 682.404 -0.286475 1.80238 0
M  V30 7421 C 682.455 3.20076 1.68029 0
M  V30 7422 O 682.176 4.30264 0.824898 0
M  V30 7423 C 683.677 3.65515 2.50826 0
M  V30 7424 H 680.897 0.62549 0.242907 0
M  V30 7425 H 683.441 2.04219 0.107151 0
M  V30 7426 H 681.596 3.06418 2.37038 0
M  V30 7427 H 682.01 5.05439 1.40113 0
M  V30 7428 H 683.484 4.60081 3.05008 0
M  V30 7429 H 683.961 2.92029 3.28048 0
M  V30 7430 H 684.567 3.81952 1.87064 0
M  V30 7431 N 682.882 -0.391992 1.52647 0
M  V30 7432 C 683.792 -1.503 1.80131 0
M  V30 7433 C 684.808 -1.59825 0.687882 0
M  V30 7434 O 685.984 -1.76218 0.975149 0
M  V30 7435 C 683.049 -2.85863 1.96171 0
M  V30 7436 C 682.11 -2.86084 3.20085 0
M  V30 7437 C 681.343 -4.15181 3.35351 0
M  V30 7438 O 681.566 -5.09981 2.55491 0
M  V30 7439 O 680.5 -4.22603 4.28591 0
M  V30 7440 H 684.326 -1.30007 2.74466 0
M  V30 7441 H 681.911 -0.579539 1.37701 0
M  V30 7442 H 683.793 -3.66236 2.08445 0
M  V30 7443 H 682.468 -3.06189 1.05025 0
M  V30 7444 H 681.375 -2.04504 3.13256 0
M  V30 7445 H 682.708 -2.7071 4.11068 0
M  V30 7446 N 684.36 -1.4356 -0.65026 0
M  V30 7447 C 685.606 -1.45549 -1.41221 0
M  V30 7448 C 685.939 -0.0805472 -1.94033 0
M  V30 7449 O 685.214 0.899043 -1.72475 0
M  V30 7450 C 685.497 -2.50028 -2.59148 0
M  V30 7451 C 685.35 -3.96808 -2.1181 0
M  V30 7452 C 686.669 -2.51212 -3.61359 0
M  V30 7453 H 683.788 -0.529967 -0.512156 0
M  V30 7454 H 686.43 -1.75127 -0.736933 0
M  V30 7455 H 684.58 -2.24937 -3.16758 0
M  V30 7456 H 686.252 -4.32966 -1.59178 0
M  V30 7457 H 684.495 -4.09498 -1.43156 0
M  V30 7458 H 685.166 -4.6553 -2.96625 0
M  V30 7459 H 687.642 -2.73583 -3.13515 0
M  V30 7460 H 686.518 -3.26252 -4.41419 0
M  V30 7461 H 686.779 -1.54701 -4.1415 0
M  V30 7462 N 685.838 0.888903 -1.30139 0
M  V30 7463 C 687.084 1.6428 -1.18912 0
M  V30 7464 C 687.417 1.92499 0.256477 0
M  V30 7465 O 686.692 1.54312 1.18397 0
M  V30 7466 C 686.975 2.9851 -2.01405 0
M  V30 7467 C 686.828 2.77288 -3.54163 0
M  V30 7468 C 688.147 3.99383 -1.84882 0
M  V30 7469 H 685.266 0.596148 -0.433333 0
M  V30 7470 H 687.908 1.0289 -1.5973 0
M  V30 7471 H 686.058 3.50907 -1.66722 0
M  V30 7472 H 687.73 2.31709 -3.98884 0
M  V30 7473 H 685.973 2.11867 -3.78543 0
M  V30 7474 H 686.644 3.72717 -4.07168 0
M  V30 7475 H 689.12 3.56132 -2.15196 0
M  V30 7476 H 687.996 4.91222 -2.44934 0
M  V30 7477 H 688.257 4.34674 -0.806902 0
M  V30 7478 N 687.317 1.12792 1.10072 0
M  V30 7479 C 688.566 0.880232 1.81479 0
M  V30 7480 C 688.879 -0.595575 1.86312 0
M  V30 7481 O 690.085 -0.959979 2.53962 0
M  V30 7482 C 688.541 1.52514 3.25987 0
M  V30 7483 C 688.149 3.036 3.29441 0
M  V30 7484 C 689.893 1.35788 4.02196 0
M  V30 7485 C 687.8 3.61007 4.68431 0
M  V30 7486 H 686.73 0.325654 0.680048 0
M  V30 7487 H 689.381 1.35485 1.23758 0
M  V30 7488 H 687.763 0.978188 3.83728 0
M  V30 7489 H 688.937 3.64819 2.81502 0
M  V30 7490 H 687.252 3.19765 2.66719 0
M  V30 7491 H 689.849 1.76096 5.0487 0
M  V30 7492 H 690.192 0.301972 4.15203 0
M  V30 7493 H 690.725 1.87426 3.50879 0
M  V30 7494 H 687.464 4.66375 4.60625 0
M  V30 7495 H 686.984 3.04564 5.16721 0
M  V30 7496 H 688.663 3.60289 5.37402 0
M  V30 7497 N 688.795 -1.27931 0.920396 0
M  V30 7498 C 690.023 -1.98805 0.573087 0
M  V30 7499 C 690.438 -1.68724 -0.847201 0
M  V30 7500 O 689.795 -0.943699 -1.56207 0
M  V30 7501 C 689.846 -3.52971 0.780633 0
M  V30 7502 O 689.567 -3.81994 2.14504 0
M  V30 7503 C 691.068 -4.411 0.44105 0
M  V30 7504 H 688.288 -0.634651 0.21785 0
M  V30 7505 H 690.832 -1.62965 1.23542 0
M  V30 7506 H 688.987 -3.87048 0.165204 0
M  V30 7507 H 689.401 -4.76609 2.18962 0
M  V30 7508 H 690.875 -5.48312 0.637006 0
M  V30 7509 H 691.352 -4.34758 -0.62306 0
M  V30 7510 H 691.958 -4.12532 1.0343 0
M  V30 7511 N 690.273 -0.685099 -1.4193 0
M  V30 7512 C 691.203 -0.0273506 -2.33484 0
M  V30 7513 C 692.184 0.778366 -1.51246 0
M  V30 7514 O 693.369 0.733449 -1.79817 0
M  V30 7515 C 690.499 0.917272 -3.34968 0
M  V30 7516 C 689.453 0.21941 -4.27437 0
M  V30 7517 C 688.779 1.27768 -5.1921 0
M  V30 7518 C 690.079 -0.907894 -5.14349 0
M  V30 7519 H 691.773 -0.791994 -2.88735 0
M  V30 7520 H 689.319 -0.382308 -1.38832 0
M  V30 7521 H 691.272 1.38657 -3.97935 0
M  V30 7522 H 689.996 1.71346 -2.78043 0
M  V30 7523 H 688.655 -0.229757 -3.65879 0
M  V30 7524 H 688.303 2.06612 -4.58607 0
M  V30 7525 H 688.003 0.815803 -5.81909 0
M  V30 7526 H 689.527 1.7477 -5.85054 0
M  V30 7527 H 690.941 -0.519348 -5.70943 0
M  V30 7528 H 689.338 -1.2962 -5.85934 0
M  V30 7529 H 690.408 -1.75218 -4.52136 0
M  V30 7530 N 691.751 1.51645 -0.429126 0
M  V30 7531 C 693.028 1.94579 0.199614 0
M  V30 7532 C 693.408 1.3673 1.60836 0
M  V30 7533 O 692.756 0.551062 2.21756 0
M  V30 7534 C 692.966 3.48506 0.185685 0
M  V30 7535 C 694.314 4.22756 0.395282 0
M  V30 7536 O 695.338 3.55219 0.264165 0
M  V30 7537 O 694.197 5.42555 0.655475 0
M  V30 7538 H 691.291 0.816007 0.134393 0
M  V30 7539 H 693.837 1.62577 -0.486513 0
M  V30 7540 H 692.609 3.83045 -0.799508 0
M  V30 7541 H 692.232 3.86927 0.91507 0
M  V30 7542 N 693.229 0.160201 1.56784 0
M  V30 7543 C 694.476 -0.487588 1.96542 0
M  V30 7544 C 694.804 -1.63999 1.04569 0
M  V30 7545 O 694.059 -1.95546 0.0775211 0
M  V30 7546 C 694.358 -1.02259 3.42459 0
M  V30 7547 C 694.024 0.0127436 4.50898 0
M  V30 7548 C 692.686 0.297318 4.80281 0
M  V30 7549 C 695.038 0.716078 5.16257 0
M  V30 7550 C 692.366 1.29081 5.72324 0
M  V30 7551 C 694.718 1.69847 6.09372 0
M  V30 7552 C 693.382 1.99061 6.37127 0
M  V30 7553 H 692.652 -0.178421 0.719199 0
M  V30 7554 H 695.299 0.249818 1.89864 0
M  V30 7555 H 693.604 -1.8376 3.46034 0
M  V30 7556 H 695.301 -1.53261 3.70556 0
M  V30 7557 H 691.891 -0.219235 4.28039 0
M  V30 7558 H 696.075 0.509428 4.93679 0
M  V30 7559 H 691.331 1.52344 5.92116 0
M  V30 7560 H 695.505 2.2489 6.59088 0
M  V30 7561 H 693.132 2.76194 7.08252 0
M  V30 7562 N 694.707 -1.5719 -0.113559 0
M  V30 7563 C 695.947 -1.86958 -0.82621 0
M  V30 7564 C 696.311 -0.748884 -1.76793 0
M  V30 7565 O 697.512 -0.92847 -2.52256 0
M  V30 7566 C 695.783 -3.21957 -1.55173 0
M  V30 7567 S 697.342 -3.73371 -2.3052 0
M  V30 7568 H 694.16 -0.655394 -0.275643 0
M  V30 7569 H 696.762 -1.95318 -0.0842684 0
M  V30 7570 H 695.466 -4.01459 -0.851977 0
M  V30 7571 H 694.997 -3.16688 -2.33393 0
M  V30 7572 H 697.012 -3.45308 -3.56338 0
M  V30 7573 N 696.185 0.383891 -1.52853 0
M  V30 7574 C 697.434 1.12563 -1.67369 0
M  V30 7575 C 697.747 1.90982 -0.422533 0
M  V30 7576 O 698.953 2.6778 -0.447914 0
M  V30 7577 C 697.409 2.05011 -2.95801 0
M  V30 7578 C 697.017 1.31991 -4.28115 0
M  V30 7579 C 698.761 2.79289 -3.19684 0
M  V30 7580 C 696.668 2.23235 -5.4765 0
M  V30 7581 H 695.598 0.42391 -0.623552 0
M  V30 7582 H 698.249 0.388016 -1.79351 0
M  V30 7583 H 696.631 2.82429 -2.77578 0
M  V30 7584 H 697.805 0.597633 -4.56908 0
M  V30 7585 H 696.12 0.696517 -4.10533 0
M  V30 7586 H 698.717 3.47749 -4.06171 0
M  V30 7587 H 699.06 3.43649 -2.3497 0
M  V30 7588 H 699.593 2.08962 -3.38496 0
M  V30 7589 H 696.332 1.63482 -6.34786 0
M  V30 7590 H 695.852 2.93364 -5.23161 0
M  V30 7591 H 697.531 2.83205 -5.81725 0
M  V30 7592 N 697.663 1.43903 0.642637 0
M  V30 7593 C 699.079 1.27536 0.959519 0
M  V30 7594 C 699.279 0.202751 2.00477 0
M  V30 7595 O 698.335 -0.415256 2.49062 0
M  V30 7596 C 699.648 2.6432 1.43372 0
M  V30 7597 C 701.196 2.71937 1.54981 0
M  V30 7598 C 701.671 4.09164 2.05789 0
M  V30 7599 N 703.162 4.11282 2.13076 0
M  V30 7600 C 703.897 5.14303 2.53534 0
M  V30 7601 N 703.393 6.27693 2.93212 0
M  V30 7602 N 705.186 5.01657 2.53567 0
M  V30 7603 H 697.337 2.12344 -0.0488376 0
M  V30 7604 H 699.6 0.947124 0.0407559 0
M  V30 7605 H 699.306 3.43826 0.740048 0
M  V30 7606 H 699.18 2.90432 2.40685 0
M  V30 7607 H 701.567 1.92757 2.23448 0
M  V30 7608 H 701.648 2.49578 0.560739 0
M  V30 7609 H 701.292 4.88815 1.37921 0
M  V30 7610 H 701.222 4.28893 3.05546 0
M  V30 7611 H 703.713 3.2944 1.85143 0
M  V30 7612 H 704.026 7.02125 3.22863 0
M  V30 7613 H 702.371 6.31149 2.90991 0
M  V30 7614 H 705.562 4.12134 2.21952 0
M  V30 7615 H 705.735 5.82072 2.84774 0
M  V30 7616 N 699.141 -0.881989 1.30609 0
M  V30 7617 C 700.089 -2.00942 1.17155 0
M  V30 7618 C 701.083 -1.69198 0.0827154 0
M  V30 7619 O 702.289 -1.78342 0.243775 0
M  V30 7620 H 698.664 -0.658913 0.362406 0
M  V30 7621 H 700.635 -2.09423 2.12567 0
M  V30 7622 C 699.384 -3.36294 0.883273 0
M  V30 7623 H 698.707 -3.61233 1.7132 0
M  V30 7624 H 700.147 -4.15812 0.829255 0
M  V30 7625 C 698.606 -3.34348 -0.413851 0
M  V30 7626 O 699.136 -3.75216 -1.43444 0
M  V30 7627 N 697.342 -2.87459 -0.426082 0
M  V30 7628 H 696.889 -2.54397 0.40493 0
M  V30 7629 H 696.847 -2.8654 -1.29391 0
M  V30 7630 N 700.619 -1.13374 -1.09472 0
M  V30 7631 C 701.868 -0.889844 -1.8101 0
M  V30 7632 C 702.181 0.585686 -1.86625 0
M  V30 7633 O 703.387 0.946497 -2.54467 0
M  V30 7634 C 701.843 -1.54241 -3.25174 0
M  V30 7635 C 701.451 -3.05343 -3.27826 0
M  V30 7636 C 703.195 -1.37919 -4.0147 0
M  V30 7637 C 701.102 -3.63486 -4.6651 0
M  V30 7638 H 700.032 -0.329256 -0.678311 0
M  V30 7639 H 702.683 -1.36139 -1.23038 0
M  V30 7640 H 701.065 -0.998525 -3.83204 0
M  V30 7641 H 702.239 -3.66307 -2.79563 0
M  V30 7642 H 700.554 -3.21175 -2.65019 0
M  V30 7643 H 703.151 -1.78771 -5.03929 0
M  V30 7644 H 703.494 -0.323987 -4.15037 0
M  V30 7645 H 704.027 -1.89284 -3.49881 0
M  V30 7646 H 700.766 -4.68811 -4.58145 0
M  V30 7647 H 700.286 -3.073 -5.15099 0
M  V30 7648 H 701.965 -3.63134 -5.35484 0
M  V30 7649 N 702.098 1.27442 -0.927168 0
M  V30 7650 C 703.008 2.30599 -0.431448 0
M  V30 7651 C 704.024 1.67028 0.48761 0
M  V30 7652 O 705.2 1.97962 0.370546 0
M  V30 7653 C 702.265 3.45327 0.308292 0
M  V30 7654 C 701.326 4.24418 -0.645615 0
M  V30 7655 C 700.559 5.33667 0.0589164 0
M  V30 7656 O 700.782 5.5589 1.27838 0
M  V30 7657 O 699.716 5.98774 -0.612638 0
M  V30 7658 H 703.542 2.75036 -1.28797 0
M  V30 7659 H 701.127 1.32382 -0.692495 0
M  V30 7660 H 703.009 4.15107 0.725555 0
M  V30 7661 H 701.684 3.02945 1.14043 0
M  V30 7662 H 700.591 3.57174 -1.11255 0
M  V30 7663 H 701.924 4.70512 -1.44496 0
M  V30 7664 N 703.576 0.692616 1.41565 0
M  V30 7665 C 704.523 0.0254264 2.30786 0
M  V30 7666 C 705.493 -0.774347 1.46946 0
M  V30 7667 O 706.678 -0.742981 1.7574 0
M  V30 7668 C 703.818 -0.907123 3.32964 0
M  V30 7669 C 702.931 -0.0992784 4.31886 0
M  V30 7670 C 702.066 -1.0292 5.21134 0
M  V30 7671 C 701.105 -0.214088 6.11725 0
M  V30 7672 N 700.242 -1.09766 6.93467 0
M  V30 7673 H 705.082 0.792036 2.87282 0
M  V30 7674 H 702.619 0.4023 1.41492 0
M  V30 7675 H 704.577 -1.46181 3.90752 0
M  V30 7676 H 703.207 -1.64016 2.78026 0
M  V30 7677 H 702.259 0.572287 3.76071 0
M  V30 7678 H 703.571 0.532782 4.95946 0
M  V30 7679 H 702.725 -1.65321 5.83741 0
M  V30 7680 H 701.464 -1.69512 4.57293 0
M  V30 7681 H 700.469 0.42302 5.4817 0
M  V30 7682 H 701.694 0.447995 6.77621 0
M  V30 7683 H 699.64 -1.74965 6.32237 0
M  V30 7684 H 699.557 -0.521099 7.54202 0
M  V30 7685 H 700.825 -1.70858 7.60544 0
M  V30 7686 N 705.054 -1.51416 0.437162 0
M  V30 7687 C 706.282 -2.06503 -0.128045 0
M  V30 7688 C 706.697 -1.30461 -1.36475 0
M  V30 7689 O 706.054 -0.364127 -1.78831 0
M  V30 7690 C 706.105 -3.58683 -0.450437 0
M  V30 7691 O 705.826 -4.31853 0.737186 0
M  V30 7692 C 707.327 -4.30284 -1.06633 0
M  V30 7693 H 704.547 -0.670952 -0.00800269 0
M  V30 7694 H 707.091 -1.94996 0.616193 0
M  V30 7695 H 705.246 -3.70106 -1.14457 0
M  V30 7696 H 705.66 -5.22467 0.461347 0
M  V30 7697 H 707.134 -5.37848 -1.24191 0
M  V30 7698 H 707.611 -3.88564 -2.0473 0
M  V30 7699 H 708.217 -4.23304 -0.411585 0
M  V30 7700 N 706.532 -0.168513 -1.56696 0
M  V30 7701 C 707.778 0.477865 -1.9709 0
M  V30 7702 C 708.111 1.63084 -1.05438 0
M  V30 7703 O 707.386 1.94238 -0.10095 0
M  V30 7704 C 707.669 0.963521 -3.4697 0
M  V30 7705 C 707.522 -0.189443 -4.49401 0
M  V30 7706 C 708.841 1.83813 -3.99876 0
M  V30 7707 H 705.96 0.172229 -0.716593 0
M  V30 7708 H 708.602 -0.254083 -1.88293 0
M  V30 7709 H 706.752 1.58724 -3.54597 0
M  V30 7710 H 708.424 -0.826451 -4.53836 0
M  V30 7711 H 706.667 -0.845366 -4.25483 0
M  V30 7712 H 707.338 0.192446 -5.51664 0
M  V30 7713 H 709.814 1.31235 -3.94863 0
M  V30 7714 H 708.69 2.14697 -5.0517 0
M  V30 7715 H 708.951 2.78289 -3.43523 0
M  V30 7716 N 708.01 1.57248 0.105221 0
M  V30 7717 C 708.957 2.01338 1.12835 0
M  V30 7718 C 709.927 0.887897 1.40377 0
M  V30 7719 O 711.112 1.15315 1.5201 0
M  V30 7720 C 708.252 2.43432 2.44611 0
M  V30 7721 C 707.365 3.69457 2.23888 0
M  V30 7722 C 706.5 4.00473 3.48991 0
M  V30 7723 C 705.539 5.19638 3.23485 0
M  V30 7724 N 704.676 5.46457 4.40828 0
M  V30 7725 H 709.516 2.88527 0.745386 0
M  V30 7726 H 707.053 1.42714 0.356535 0
M  V30 7727 H 709.011 2.65879 3.21503 0
M  V30 7728 H 707.641 1.59266 2.80774 0
M  V30 7729 H 706.693 3.54545 1.37847 0
M  V30 7730 H 708.005 4.56497 2.01026 0
M  V30 7731 H 707.159 4.23642 4.34295 0
M  V30 7732 H 705.898 3.11935 3.74897 0
M  V30 7733 H 704.903 4.96299 2.36574 0
M  V30 7734 H 706.128 6.09766 2.98935 0
M  V30 7735 H 704.074 4.60876 4.66829 0
M  V30 7736 H 703.991 6.27849 4.2112 0
M  V30 7737 H 705.259 5.74155 5.27225 0
M  V30 7738 N 709.488 -0.375779 1.53054 0
M  V30 7739 C 710.734 -1.12114 1.68992 0
M  V30 7740 C 711.067 -1.8926 0.435238 0
M  V30 7741 O 710.342 -1.86044 -0.567278 0
M  V30 7742 C 710.625 -2.08867 2.93337 0
M  V30 7743 C 710.478 -1.35397 4.28938 0
M  V30 7744 C 711.797 -3.09124 3.13257 0
M  V30 7745 H 708.916 -0.406207 0.614951 0
M  V30 7746 H 711.558 -0.403054 1.85676 0
M  V30 7747 H 709.708 -2.70102 2.79244 0
M  V30 7748 H 711.38 -0.770242 4.54824 0
M  V30 7749 H 709.623 -0.655801 4.28814 0
M  V30 7750 H 710.294 -2.06161 5.12056 0
M  V30 7751 H 712.77 -2.57987 3.26469 0
M  V30 7752 H 711.646 -3.74054 4.01715 0
M  V30 7753 H 711.907 -3.78729 2.28072 0
M  V30 7754 N 710.966 -1.44241 -0.634997 0
M  V30 7755 C 712.196 -1.50078 -1.41987 0
M  V30 7756 C 712.604 -0.123072 -1.88799 0
M  V30 7757 O 711.947 0.880552 -1.6122 0
M  V30 7758 C 712.009 -2.40033 -2.67628 0
M  V30 7759 C 711.673 -3.87268 -2.42637 0
M  V30 7760 C 712.67 -4.77902 -2.04708 0
M  V30 7761 C 710.355 -4.31933 -2.56396 0
M  V30 7762 C 712.349 -6.11202 -1.80862 0
M  V30 7763 C 710.036 -5.65281 -2.32164 0
M  V30 7764 C 711.034 -6.54734 -1.94455 0
M  V30 7765 O 710.722 -7.85613 -1.7049 0
M  V30 7766 H 710.454 -0.51146 -0.442023 0
M  V30 7767 H 713.008 -1.89843 -0.784138 0
M  V30 7768 H 711.238 -1.95188 -3.33824 0
M  V30 7769 H 712.927 -2.36863 -3.29622 0
M  V30 7770 H 713.693 -4.44668 -1.93638 0
M  V30 7771 H 709.572 -3.62569 -2.84719 0
M  V30 7772 H 713.116 -6.80983 -1.51353 0
M  V30 7773 H 709.013 -5.98078 -2.42843 0
M  V30 7774 H 709.781 -7.97373 -1.84767 0
M  V30 7775 N 712.444 0.87505 -1.31075 0
M  V30 7776 C 713.354 2.01441 -1.20244 0
M  V30 7777 C 714.37 1.73584 -0.120227 0
M  V30 7778 O 715.546 1.98559 -0.337063 0
M  V30 7779 C 712.611 3.34675 -0.905199 0
M  V30 7780 C 711.672 3.75889 -2.0738 0
M  V30 7781 C 710.905 5.02764 -1.79064 0
M  V30 7782 O 711.128 5.65795 -0.723318 0
M  V30 7783 O 710.062 5.40623 -2.64594 0
M  V30 7784 H 713.888 2.13509 -2.1598 0
M  V30 7785 H 711.473 1.00257 -1.10765 0
M  V30 7786 H 713.355 4.1458 -0.755057 0
M  V30 7787 H 712.03 3.23692 0.0221695 0
M  V30 7788 H 710.937 2.96645 -2.27931 0
M  V30 7789 H 712.27 3.91489 -2.98324 0
M  V30 7790 N 713.922 1.13953 1.08869 0
M  V30 7791 C 714.869 0.82213 2.15661 0
M  V30 7792 C 715.839 -0.218274 1.6466 0
M  V30 7793 O 717.024 -0.0892475 1.90591 0
M  V30 7794 C 714.164 0.300572 3.43789 0
M  V30 7795 C 713.277 1.40071 4.08661 0
M  V30 7796 C 712.412 0.836897 5.24566 0
M  V30 7797 C 711.451 1.91504 5.81371 0
M  V30 7798 N 710.588 1.36875 6.88629 0
M  V30 7799 H 715.428 1.73683 2.42153 0
M  V30 7800 H 712.965 0.866879 1.18843 0
M  V30 7801 H 714.923 -0.0199943 4.17195 0
M  V30 7802 H 713.553 -0.577248 3.17597 0
M  V30 7803 H 712.605 1.83776 3.33062 0
M  V30 7804 H 713.917 2.21534 4.46905 0
M  V30 7805 H 713.071 0.467953 6.04893 0
M  V30 7806 H 711.81 -0.00874207 4.87699 0
M  V30 7807 H 710.815 2.29299 4.99702 0
M  V30 7808 H 712.04 2.76419 6.20298 0
M  V30 7809 H 709.986 0.545211 6.5373 0
M  V30 7810 H 709.903 2.1198 7.25672 0
M  V30 7811 H 711.171 1.02756 7.72698 0
M  V30 7812 N 715.4 -1.26948 0.933913 0
M  V30 7813 C 716.33 -2.29017 0.45534 0
M  V30 7814 C 717.311 -1.62961 -0.487605 0
M  V30 7815 O 718.496 -1.90223 -0.391022 0
M  V30 7816 C 715.626 -3.46112 -0.287015 0
M  V30 7817 C 714.58 -4.24205 0.568682 0
M  V30 7818 C 713.906 -5.3384 -0.303206 0
M  V30 7819 C 715.206 -4.88954 1.83633 0
M  V30 7820 H 716.9 -2.69298 1.30839 0
M  V30 7821 H 714.446 -1.29459 0.630579 0
M  V30 7822 H 716.399 -4.16622 -0.6328 0
M  V30 7823 H 715.123 -3.04765 -1.17414 0
M  V30 7824 H 713.782 -3.5545 0.897261 0
M  V30 7825 H 713.43 -4.88734 -1.18947 0
M  V30 7826 H 713.13 -5.86998 0.265879 0
M  V30 7827 H 714.654 -6.0719 -0.644423 0
M  V30 7828 H 716.068 -5.51717 1.55823 0
M  V30 7829 H 714.465 -5.52198 2.34941 0
M  V30 7830 H 715.535 -4.12305 2.55211 0
M  V30 7831 N 716.879 -0.700114 -1.41195 0
M  V30 7832 C 717.812 0.0129614 -2.28196 0
M  V30 7833 C 718.79 0.783367 -1.42486 0
M  V30 7834 O 719.974 0.773238 -1.71911 0
M  V30 7835 C 717.101 1.02575 -3.22794 0
M  V30 7836 C 716.147 0.347977 -4.25078 0
M  V30 7837 S 716.98 -0.912938 -5.27661 0
M  V30 7838 C 718.136 0.0981362 -6.25823 0
M  V30 7839 H 718.369 -0.724927 -2.88326 0
M  V30 7840 H 715.902 -0.490554 -1.464 0
M  V30 7841 H 717.86 1.60491 -3.77826 0
M  V30 7842 H 716.521 1.73624 -2.61751 0
M  V30 7843 H 715.714 1.11305 -4.91556 0
M  V30 7844 H 715.316 -0.15823 -3.73665 0
M  V30 7845 H 717.608 0.949965 -6.70807 0
M  V30 7846 H 718.551 -0.532838 -7.06092 0
M  V30 7847 H 718.959 0.454944 -5.62664 0
M  V30 7848 N 718.357 1.51182 -0.445186 0
M  V30 7849 C 719.304 2.27939 0.362291 0
M  V30 7850 C 720.274 1.31864 1.01 0
M  V30 7851 O 721.459 1.60776 1.02741 0
M  V30 7852 C 718.599 3.13016 1.45311 0
M  V30 7853 C 717.712 4.24093 0.822757 0
M  V30 7854 C 716.847 4.96467 1.88928 0
M  V30 7855 C 715.886 5.99454 1.23778 0
M  V30 7856 N 715.023 6.65206 2.24602 0
M  V30 7857 H 719.863 2.965 -0.29862 0
M  V30 7858 H 717.4 1.46237 -0.15911 0
M  V30 7859 H 719.358 3.60673 2.09692 0
M  V30 7860 H 717.988 2.46553 2.08354 0
M  V30 7861 H 717.04 3.80341 0.0670364 0
M  V30 7862 H 718.352 4.97853 0.307184 0
M  V30 7863 H 717.506 5.47712 2.60953 0
M  V30 7864 H 716.245 4.22355 2.4386 0
M  V30 7865 H 715.25 5.47494 0.503042 0
M  V30 7866 H 716.475 6.75527 0.695694 0
M  V30 7867 H 714.421 5.93901 2.78599 0
M  V30 7868 H 714.338 7.34756 1.77958 0
M  V30 7869 H 715.606 7.21078 2.96085 0
M  V30 7870 N 719.835 0.176821 1.56605 0
M  V30 7871 C 721.084 -0.466833 1.96223 0
M  V30 7872 C 721.397 -1.64015 1.06576 0
M  V30 7873 O 722.603 -2.3504 1.35898 0
M  V30 7874 C 721.059 -0.881921 3.48927 0
M  V30 7875 C 720.667 0.266102 4.47209 0
M  V30 7876 C 722.411 -1.49368 3.97353 0
M  V30 7877 C 720.318 -0.168923 5.91159 0
M  V30 7878 H 719.248 -0.178178 0.732645 0
M  V30 7879 H 721.899 0.265929 1.81563 0
M  V30 7880 H 720.281 -1.67082 3.59026 0
M  V30 7881 H 721.455 1.04349 4.4883 0
M  V30 7882 H 719.77 0.788178 4.08872 0
M  V30 7883 H 722.367 -1.8313 5.02362 0
M  V30 7884 H 722.71 -2.3936 3.40606 0
M  V30 7885 H 723.243 -0.769114 3.90294 0
M  V30 7886 H 719.982 0.696351 6.51791 0
M  V30 7887 H 719.502 -0.911552 5.92833 0
M  V30 7888 H 721.181 -0.610938 6.44109 0
M  V30 7889 N 721.313 -1.57302 -0.09688 0
M  V30 7890 C 722.261 -2.02942 -1.13654 0
M  V30 7891 C 723.255 -0.930173 -1.41577 0
M  V30 7892 O 724.461 -1.11535 -1.41279 0
M  V30 7893 H 720.836 -0.646726 -0.383731 0
M  V30 7894 H 722.807 -2.89452 -0.725267 0
M  V30 7895 C 721.556 -2.46815 -2.44903 0
M  V30 7896 H 720.879 -3.30979 -2.24261 0
M  V30 7897 H 722.319 -2.82527 -3.16156 0
M  V30 7898 C 720.778 -1.34071 -3.09074 0
M  V30 7899 O 721.308 -0.668856 -3.96092 0
M  V30 7900 N 719.514 -1.09214 -2.69296 0
M  V30 7901 H 719.061 -1.64029 -1.98626 0
M  V30 7902 H 719.019 -0.339785 -3.12559 0
M  V30 7903 N 722.791 0.367657 -1.53252 0
M  V30 7904 C 723.721 1.45632 -1.8252 0
M  V30 7905 C 724.702 1.55979 -0.678568 0
M  V30 7906 O 725.887 1.70581 -0.928217 0
M  V30 7907 C 723.017 2.82994 -2.01325 0
M  V30 7908 C 721.971 2.87473 -3.17086 0
M  V30 7909 C 721.297 4.2749 -3.21179 0
M  V30 7910 C 722.597 2.55182 -4.55719 0
M  V30 7911 H 724.291 1.21387 -2.73689 0
M  V30 7912 H 721.837 0.58251 -1.31692 0
M  V30 7913 H 723.79 3.59179 -2.20383 0
M  V30 7914 H 722.514 3.08622 -1.06864 0
M  V30 7915 H 721.173 2.13739 -2.97844 0
M  V30 7916 H 720.821 4.5019 -2.24361 0
M  V30 7917 H 720.521 4.31403 -3.98955 0
M  V30 7918 H 722.045 5.0555 -3.42419 0
M  V30 7919 H 723.459 3.21081 -4.74953 0
M  V30 7920 H 721.856 2.70414 -5.3572 0
M  V30 7921 H 722.926 1.5044 -4.60973 0
M  V30 7922 N 724.269 1.44576 0.627338 0
M  V30 7923 C 725.179 1.54232 1.76776 0
M  V30 7924 C 726.195 0.427782 1.6866 0
M  V30 7925 O 727.371 0.685671 1.89369 0
M  V30 7926 C 724.436 1.48738 3.13174 0
M  V30 7927 C 723.497 2.71074 3.32893 0
M  V30 7928 C 722.73 2.65832 4.62784 0
M  V30 7929 O 722.953 1.72048 5.43834 0
M  V30 7930 O 721.887 3.56742 4.84787 0
M  V30 7931 H 725.713 2.50586 1.71582 0
M  V30 7932 H 723.298 1.26865 0.789028 0
M  V30 7933 H 725.18 1.48211 3.94476 0
M  V30 7934 H 723.855 0.555292 3.18902 0
M  V30 7935 H 722.762 2.77168 2.51254 0
M  V30 7936 H 724.095 3.63342 3.32029 0
M  V30 7937 N 725.747 -0.868086 1.31537 0
M  V30 7938 C 726.71 -1.95703 1.19302 0
M  V30 7939 C 727.71 -1.60355 0.119612 0
M  V30 7940 O 728.9 -1.70247 0.36902 0
M  V30 7941 C 726.032 -3.30599 0.831684 0
M  V30 7942 H 727.225 -2.07982 2.16064 0
M  V30 7943 H 724.778 -1.05661 1.15176 0
M  V30 7944 H 725.513 -3.2402 -0.134694 0
M  V30 7945 H 725.298 -3.57629 1.60761 0
M  V30 7946 H 726.788 -4.10439 0.770026 0
M  V30 7947 N 727.225 -1.14528 -1.08264 0
M  V30 7948 C 728.188 -0.83632 -2.13397 0
M  V30 7949 C 729.188 0.159715 -1.60005 0
M  V30 7950 O 730.378 -0.0688098 -1.74064 0
M  V30 7951 C 727.51 -0.246973 -3.40004 0
M  V30 7952 H 728.703 -1.76808 -2.42237 0
M  V30 7953 H 726.256 -0.951509 -1.24 0
M  V30 7954 H 726.991 0.693436 -3.168 0
M  V30 7955 H 726.776 -0.964412 -3.80055 0
M  V30 7956 H 728.266 -0.0480679 -4.17572 0
M  V30 7957 N 728.703 1.26451 -0.940633 0
M  V30 7958 C 729.613 2.30128 -0.455881 0
M  V30 7959 C 730.629 1.67536 0.469867 0
M  V30 7960 O 731.805 1.98344 0.349529 0
M  V30 7961 C 728.87 3.45634 0.271648 0
M  V30 7962 C 727.931 4.23709 -0.690594 0
M  V30 7963 C 727.164 5.337 0.00231047 0
M  V30 7964 O 727.387 5.57215 1.21935 0
M  V30 7965 O 726.321 5.98091 -0.676111 0
M  V30 7966 H 730.147 2.73655 -1.31707 0
M  V30 7967 H 727.732 1.3164 -0.706497 0
M  V30 7968 H 729.614 4.15853 0.681486 0
M  V30 7969 H 728.289 3.04138 1.10824 0
M  V30 7970 H 727.196 3.55974 -1.15037 0
M  V30 7971 H 728.529 4.68953 -1.49478 0
M  V30 7972 N 730.181 0.707592 1.40822 0
M  V30 7973 C 731.111 0.0644925 2.33411 0
M  V30 7974 C 732.092 -0.754205 1.52466 0
M  V30 7975 O 733.277 -0.704749 1.80961 0
M  V30 7976 C 730.407 -0.863865 3.36385 0
M  V30 7977 C 729.361 -0.15138 4.27732 0
M  V30 7978 C 728.687 -1.19491 5.21177 0
M  V30 7979 C 729.987 0.989607 5.12839 0
M  V30 7980 H 731.681 0.837829 2.87438 0
M  V30 7981 H 729.227 0.404346 1.38207 0
M  V30 7982 H 731.18 -1.32309 4.0009 0
M  V30 7983 H 729.904 -1.66901 2.80734 0
M  V30 7984 H 728.563 0.287937 3.65467 0
M  V30 7985 H 728.211 -1.9929 4.61836 0
M  V30 7986 H 727.911 -0.723123 5.83134 0
M  V30 7987 H 729.435 -1.6544 5.8776 0
M  V30 7988 H 730.849 0.610114 5.70044 0
M  V30 7989 H 729.246 1.38926 5.83798 0
M  V30 7990 H 730.316 1.82389 4.49291 0
M  V30 7991 N 731.66 -1.50943 0.453197 0
M  V30 7992 C 732.908 -2.01813 -0.107709 0
M  V30 7993 C 733.229 -1.33841 -1.41816 0
M  V30 7994 O 732.499 -0.477973 -1.8998 0
M  V30 7995 H 731.079 -0.745773 -0.0427948 0
M  V30 7996 H 733.741 -1.8545 0.599531 0
M  V30 7997 H 732.837 -3.10911 -0.27218 0
M  V30 7998 N 733.138 -0.185124 -1.56509 0
M  V30 7999 C 734.048 0.751908 -2.22224 0
M  V30 8000 C 735.064 1.24244 -1.21817 0
M  V30 8001 O 736.24 1.29169 -1.54523 0
M  V30 8002 C 733.305 1.95837 -2.86092 0
M  V30 8003 C 732.366 1.51337 -4.01741 0
M  V30 8004 C 731.599 2.66233 -4.62554 0
M  V30 8005 O 731.822 3.8346 -4.22273 0
M  V30 8006 O 730.756 2.39517 -5.52191 0
M  V30 8007 H 734.582 0.222304 -3.02885 0
M  V30 8008 H 732.167 0.0437141 -1.49336 0
M  V30 8009 H 734.049 2.66368 -3.26536 0
M  V30 8010 H 732.724 2.47677 -2.08417 0
M  V30 8011 H 731.631 0.777155 -3.65939 0
M  V30 8012 H 732.964 1.04175 -4.81049 0
M  V30 8013 N 734.616 1.57351 0.0885366 0
M  V30 8014 C 735.865 1.85604 0.789556 0
M  V30 8015 C 736.178 0.775352 1.79576 0
M  V30 8016 O 737.384 0.945206 2.54515 0
M  V30 8017 C 735.84 3.29175 1.45506 0
M  V30 8018 C 735.448 4.45331 0.488278 0
M  V30 8019 C 737.192 3.66646 2.13942 0
M  V30 8020 C 735.099 5.79937 1.15874 0
M  V30 8021 H 734.029 0.692346 0.298619 0
M  V30 8022 H 736.68 1.83451 0.0425821 0
M  V30 8023 H 735.062 3.25889 2.24972 0
M  V30 8024 H 736.236 4.59977 -0.275359 0
M  V30 8025 H 734.551 4.16301 -0.0907363 0
M  V30 8026 H 737.148 4.64498 2.6485 0
M  V30 8027 H 737.491 2.956 2.93132 0
M  V30 8028 H 738.024 3.71848 1.41328 0
M  V30 8029 H 734.763 6.54232 0.407508 0
M  V30 8030 H 734.283 5.69123 1.89364 0
M  V30 8031 H 735.962 6.24718 1.68336 0
M  V30 8032 N 736.094 -0.359525 1.53444 0
M  V30 8033 C 737.319 -1.12644 1.74144 0
M  V30 8034 C 737.744 -1.82082 0.472007 0
M  V30 8035 O 737.102 -1.71962 -0.57436 0
M  V30 8036 C 737.15 -2.12781 2.9113 0
M  V30 8037 O 736.254 -3.19984 2.60162 0
M  V30 8038 H 735.595 -0.326553 0.578152 0
M  V30 8039 H 738.125 -0.414798 2.00351 0
M  V30 8040 H 738.135 -2.56278 3.17467 0
M  V30 8041 H 736.81 -1.61634 3.83207 0
M  V30 8042 H 735.387 -2.81417 2.44661 0
M  V30 8043 N 737.572 -1.44907 -0.619662 0
M  V30 8044 C 738.849 -1.38766 -1.37852 0
M  V30 8045 C 739.229 -0.0521393 -2.11036 0
M  V30 8046 O 738.577 0.965613 -2.07095 0
M  V30 8047 C 738.787 -2.59344 -2.33541 0
M  V30 8048 C 740.135 -3.03909 -2.96521 0
M  V30 8049 O 741.159 -2.59631 -2.43865 0
M  V30 8050 O 740.018 -3.80713 -3.92071 0
M  V30 8051 H 737.112 -0.550083 -0.617525 0
M  V30 8052 H 739.658 -1.57015 -0.643759 0
M  V30 8053 H 738.43 -3.48142 -1.78642 0
M  V30 8054 H 738.053 -2.43367 -3.14417 0
M  V30 8055 N 739.05 0.861098 -1.31996 0
M  V30 8056 C 740.299 1.60965 -1.21545 0
M  V30 8057 C 740.612 1.94325 0.222972 0
M  V30 8058 O 741.818 2.67757 0.449272 0
M  V30 8059 C 740.274 2.90223 -2.12834 0
M  V30 8060 C 739.882 2.64313 -3.61722 0
M  V30 8061 C 741.626 3.68229 -2.11205 0
M  V30 8062 C 739.533 3.89532 -4.44993 0
M  V30 8063 H 738.463 0.603988 -0.451348 0
M  V30 8064 H 741.114 0.951358 -1.56912 0
M  V30 8065 H 739.496 3.57475 -1.70375 0
M  V30 8066 H 740.67 2.05413 -4.12483 0
M  V30 8067 H 738.985 1.99647 -3.65418 0
M  V30 8068 H 741.582 4.61138 -2.70658 0
M  V30 8069 H 741.925 4.01466 -1.1014 0
M  V30 8070 H 742.458 3.07873 -2.51911 0
M  V30 8071 H 739.197 3.61441 -5.46846 0
M  V30 8072 H 738.717 4.47851 -3.98985 0
M  V30 8073 H 740.396 4.57334 -4.57663 0
M  V30 8074 N 740.528 1.15101 1.07655 0
M  V30 8075 C 741.478 0.813448 2.12995 0
M  V30 8076 C 742.462 -0.200899 1.59641 0
M  V30 8077 O 743.654 -0.00209918 1.77 0
M  V30 8078 C 740.783 0.301078 3.41977 0
M  V30 8079 C 739.869 1.3454 4.02194 0
M  V30 8080 N 740.26 2.55181 4.36711 0
M  V30 8081 C 738.558 1.19742 4.29625 0
M  V30 8082 C 739.259 3.22094 4.84387 0
M  V30 8083 N 738.235 2.49486 4.82968 0
M  V30 8084 H 742.037 1.73105 2.37511 0
M  V30 8085 H 739.551 1.03601 1.25063 0
M  V30 8086 H 741.548 0.040914 4.1688 0
M  V30 8087 H 740.208 -0.610629 3.18907 0
M  V30 8088 H 741.219 2.92349 4.27496 0
M  V30 8089 H 737.896 0.345353 4.16069 0
M  V30 8090 H 739.286 4.24996 5.20411 0
M  V30 8091 N 742.006 -1.2595 0.947325 0
M  V30 8092 C 743.234 -1.97544 0.615127 0
M  V30 8093 C 743.649 -1.70484 -0.811221 0
M  V30 8094 O 743.006 -0.97662 -1.5417 0
M  V30 8095 C 743.057 -3.51236 0.855328 0
M  V30 8096 O 742.778 -3.77359 2.22558 0
M  V30 8097 C 744.279 -4.40066 0.534515 0
M  V30 8098 H 741.499 -0.629888 0.231263 0
M  V30 8099 H 744.043 -1.60308 1.26971 0
M  V30 8100 H 742.198 -3.8661 0.247266 0
M  V30 8101 H 742.612 -4.71857 2.29022 0
M  V30 8102 H 744.086 -5.46838 0.753168 0
M  V30 8103 H 744.563 -4.35982 -0.530701 0
M  V30 8104 H 745.169 -4.10245 1.12158 0
M  V30 8105 N 743.484 -0.715051 -1.40445 0
M  V30 8106 C 744.431 -0.0621393 -2.30716 0
M  V30 8107 C 745.401 0.750871 -1.48159 0
M  V30 8108 O 746.586 0.714928 -1.76899 0
M  V30 8109 C 743.726 0.854036 -3.34365 0
M  V30 8110 C 742.839 0.0305565 -4.31989 0
M  V30 8111 C 741.974 0.946162 -5.22706 0
M  V30 8112 C 741.013 0.116741 -6.11989 0
M  V30 8113 N 740.15 0.987194 -6.95125 0
M  V30 8114 H 744.99 -0.83764 -2.85985 0
M  V30 8115 H 742.527 -0.424759 -1.40834 0
M  V30 8116 H 744.485 1.39946 -3.93028 0
M  V30 8117 H 743.115 1.59572 -2.806 0
M  V30 8118 H 742.167 -0.632044 -3.75112 0
M  V30 8119 H 743.479 -0.611615 -4.95036 0
M  V30 8120 H 742.633 1.56014 -5.86297 0
M  V30 8121 H 741.372 1.62216 -4.59932 0
M  V30 8122 H 740.377 -0.510176 -5.47428 0
M  V30 8123 H 741.602 -0.555742 -6.76822 0
M  V30 8124 H 739.548 1.64885 -6.3494 0
M  V30 8125 H 739.465 0.401046 -7.54936 0
M  V30 8126 H 740.733 1.58737 -7.63166 0
M  V30 8127 N 744.962 1.50701 -0.461195 0
M  V30 8128 C 745.892 2.31182 0.328184 0
M  V30 8129 C 746.873 1.37644 0.999408 0
M  V30 8130 O 748.058 1.66565 0.99848 0
M  V30 8131 C 745.188 3.17113 1.41621 0
M  V30 8132 C 744.142 4.19124 0.867148 0
M  V30 8133 C 743.468 4.93728 2.05272 0
M  V30 8134 C 744.768 5.22174 -0.114808 0
M  V30 8135 H 746.462 2.97423 -0.343501 0
M  V30 8136 H 744.008 1.43033 -0.166641 0
M  V30 8137 H 745.961 3.72208 1.97584 0
M  V30 8138 H 744.685 2.48739 2.11652 0
M  V30 8139 H 743.344 3.65116 0.329557 0
M  V30 8140 H 742.992 4.21835 2.73978 0
M  V30 8141 H 742.692 5.62724 1.69161 0
M  V30 8142 H 744.216 5.51654 2.61744 0
M  V30 8143 H 745.63 5.72198 0.355316 0
M  V30 8144 H 744.027 5.98833 -0.389689 0
M  V30 8145 H 745.097 4.7353 -1.04391 0
M  V30 8146 N 746.441 0.193421 1.56409 0
M  V30 8147 C 747.371 -0.723334 2.22014 0
M  V30 8148 C 748.352 -1.22254 1.1827 0
M  V30 8149 O 749.537 -1.27168 1.46771 0
M  V30 8150 C 746.667 -1.94366 2.87818 0
M  V30 8151 C 745.621 -1.57943 3.97791 0
M  V30 8152 C 744.947 -2.87623 4.50752 0
M  V30 8153 C 746.247 -0.790639 5.16281 0
M  V30 8154 H 747.941 -0.176426 2.9888 0
M  V30 8155 H 745.487 -0.0834166 1.43758 0
M  V30 8156 H 747.44 -2.5902 3.32396 0
M  V30 8157 H 746.164 -2.51507 2.08355 0
M  V30 8158 H 744.823 -0.956482 3.53903 0
M  V30 8159 H 744.471 -3.4285 3.68053 0
M  V30 8160 H 744.171 -2.63998 5.24956 0
M  V30 8161 H 745.695 -3.53268 4.9803 0
M  V30 8162 H 747.109 -1.34024 5.57414 0
M  V30 8163 H 745.506 -0.65258 5.96541 0
M  V30 8164 H 746.576 0.208633 4.84451 0
M  V30 8165 N 747.919 -1.57396 -0.0801906 0
M  V30 8166 C 749.335 -1.53564 -0.434778 0
M  V30 8167 C 749.535 -0.912372 -1.79661 0
M  V30 8168 O 748.591 -0.511268 -2.4727 0
M  V30 8169 C 749.904 -2.98244 -0.383561 0
M  V30 8170 C 751.452 -3.09536 -0.46435 0
M  V30 8171 C 751.927 -4.55851 -0.443128 0
M  V30 8172 N 753.418 -4.60456 -0.503448 0
M  V30 8173 C 754.153 -5.71135 -0.509106 0
M  V30 8174 N 753.649 -6.91203 -0.47008 0
M  V30 8175 N 755.442 -5.59353 -0.555035 0
M  V30 8176 H 747.593 -1.96281 0.811635 0
M  V30 8177 H 749.856 -0.898041 0.303689 0
M  V30 8178 H 749.562 -3.47369 0.550236 0
M  V30 8179 H 749.436 -3.57705 -1.19694 0
M  V30 8180 H 751.823 -2.6039 -1.38857 0
M  V30 8181 H 751.904 -2.53 0.377445 0
M  V30 8182 H 751.548 -5.05653 0.477207 0
M  V30 8183 H 751.478 -5.10242 -1.30234 0
M  V30 8184 H 753.969 -3.74048 -0.538199 0
M  V30 8185 H 754.282 -7.7132 -0.478091 0
M  V30 8186 H 752.627 -6.93625 -0.436897 0
M  V30 8187 H 755.818 -4.64453 -0.583158 0
M  V30 8188 H 755.991 -6.4561 -0.555976 0
M  V30 8189 N 749.397 0.351382 -1.53633 0
M  V30 8190 C 750.327 1.43688 -1.84055 0
M  V30 8191 C 751.308 1.55251 -0.695073 0
M  V30 8192 O 752.493 1.69587 -0.946257 0
M  V30 8193 C 749.623 2.80843 -2.04315 0
M  V30 8194 C 748.577 2.84094 -3.20117 0
M  V30 8195 C 747.903 4.2406 -3.25696 0
M  V30 8196 C 749.203 2.50334 -4.58399 0
M  V30 8197 H 750.897 1.18478 -2.74961 0
M  V30 8198 H 748.443 0.568509 -1.32303 0
M  V30 8199 H 750.396 3.56821 -2.2418 0
M  V30 8200 H 749.12 3.07471 -1.10132 0
M  V30 8201 H 747.779 2.10568 -3.00094 0
M  V30 8202 H 747.427 4.47785 -2.29123 0
M  V30 8203 H 747.127 4.27147 -4.03509 0
M  V30 8204 H 748.651 5.0189 -3.47762 0
M  V30 8205 H 750.065 3.16025 -4.78332 0
M  V30 8206 H 748.462 2.64717 -5.38558 0
M  V30 8207 H 749.532 1.45542 -4.62543 0
M  V30 8208 N 750.875 1.45233 0.611969 0
M  V30 8209 C 752.1 1.52767 1.40274 0
M  V30 8210 C 752.525 0.159701 1.87421 0
M  V30 8211 O 751.883 -0.854837 1.59882 0
M  V30 8212 C 751.931 2.51286 2.58626 0
M  V30 8213 O 751.035 2.02764 3.59111 0
M  V30 8214 H 750.376 0.515141 0.418958 0
M  V30 8215 H 752.906 1.90547 0.745188 0
M  V30 8216 H 752.916 2.69949 3.05927 0
M  V30 8217 H 751.591 3.50641 2.23659 0
M  V30 8218 H 750.168 1.93957 3.18489 0
M  V30 8219 N 752.353 -0.854086 1.3245 0
M  V30 8220 C 753.578 -1.64597 1.26185 0
M  V30 8221 C 754.003 -1.87357 -0.167074 0
M  V30 8222 O 753.361 -1.42675 -1.11864 0
M  V30 8223 C 753.409 -2.98213 2.02734 0
M  V30 8224 O 752.513 -3.88784 1.37554 0
M  V30 8225 H 751.854 -0.50179 0.434859 0
M  V30 8226 H 754.384 -1.06372 1.74775 0
M  V30 8227 H 754.394 -3.4803 2.1293 0
M  V30 8228 H 753.069 -2.80969 3.06642 0
M  V30 8229 H 751.646 -3.4725 1.3591 0
M  V30 8230 N 753.831 -1.1567 -1.07043 0
M  V30 8231 C 755.056 -0.957946 -1.83952 0
M  V30 8232 C 755.481 0.488807 -1.81638 0
M  V30 8233 O 754.839 1.34869 -1.21162 0
M  V30 8234 C 754.887 -1.48064 -3.288 0
M  V30 8235 O 753.991 -0.681921 -4.06723 0
M  V30 8236 H 753.332 -0.341453 -0.569479 0
M  V30 8237 H 755.862 -1.53728 -1.35015 0
M  V30 8238 H 755.872 -1.49484 -3.7963 0
M  V30 8239 H 754.547 -2.53388 -3.29799 0
M  V30 8240 H 753.124 -0.737612 -3.65532 0
M  V30 8241 N 755.309 1.25446 -0.953992 0
M  V30 8242 C 756.241 2.25111 -0.431004 0
M  V30 8243 C 757.254 1.56377 0.452764 0
M  V30 8244 O 758.443 1.76579 0.261144 0
M  V30 8245 C 755.543 3.3655 0.39839 0
M  V30 8246 C 754.716 4.34843 -0.472229 0
M  V30 8247 C 753.775 5.25351 0.29886 0
M  V30 8248 O 752.801 5.68396 -0.302522 0
M  V30 8249 N 754.003 5.5824 1.59211 0
M  V30 8250 H 756.768 2.70619 -1.28785 0
M  V30 8251 H 754.329 1.39346 -0.824281 0
M  V30 8252 H 756.321 3.94059 0.921941 0
M  V30 8253 H 754.891 2.90436 1.15609 0
M  V30 8254 H 754.111 3.76222 -1.17689 0
M  V30 8255 H 755.399 4.97497 -1.06648 0
M  V30 8256 H 754.797 5.25172 2.10264 0
M  V30 8257 H 753.354 6.18336 2.06164 0
M  V30 8258 N 756.787 0.722489 1.40064 0
M  V30 8259 C 758.035 0.264455 2.00362 0
M  V30 8260 C 758.356 -1.14847 1.57592 0
M  V30 8261 O 757.626 -1.77982 0.818477 0
M  V30 8262 H 756.206 0.0947846 0.740962 0
M  V30 8263 H 758.868 0.929659 1.71299 0
M  V30 8264 H 757.964 0.302977 3.10626 0
M  V30 8265 N 758.265 -1.50454 0.469181 0
M  V30 8266 C 759.493 -2.06729 -0.0842134 0
M  V30 8267 C 759.908 -1.33326 -1.33677 0
M  V30 8268 O 759.265 -0.401977 -1.78018 0
M  V30 8269 C 759.316 -3.59557 -0.374253 0
M  V30 8270 O 759.037 -4.30192 0.828622 0
M  V30 8271 C 760.538 -4.32449 -0.974824 0
M  V30 8272 H 757.758 -0.670971 0.006231 0
M  V30 8273 H 760.302 -1.93645 0.657415 0
M  V30 8274 H 758.457 -3.7245 -1.06581 0
M  V30 8275 H 758.871 -5.21371 0.572066 0
M  V30 8276 H 760.345 -5.40361 -1.12755 0
M  V30 8277 H 760.822 -3.92819 -1.96442 0
M  V30 8278 H 761.428 -4.24082 -0.321703 0
M  V30 8279 N 759.743 -0.201713 -1.56304 0
M  V30 8280 C 760.992 0.435557 -1.96941 0
M  V30 8281 C 761.305 1.62299 -1.09172 0
M  V30 8282 O 762.511 2.32849 -1.3962 0
M  V30 8283 C 760.967 0.826298 -3.50286 0
M  V30 8284 C 760.575 -0.337216 -4.46729 0
M  V30 8285 C 762.319 1.43028 -3.99679 0
M  V30 8286 C 760.226 0.0748539 -5.91353 0
M  V30 8287 H 759.156 0.1665 -0.735387 0
M  V30 8288 H 761.807 -0.294781 -1.81117 0
M  V30 8289 H 760.189 1.61349 -3.61639 0
M  V30 8290 H 761.363 -1.11476 -4.47113 0
M  V30 8291 H 759.678 -0.853126 -4.07567 0
M  V30 8292 H 762.275 1.75115 -5.05212 0
M  V30 8293 H 762.618 2.33911 -3.44371 0
M  V30 8294 H 763.151 0.706924 -3.91468 0
M  V30 8295 H 759.89 -0.799957 -6.506 0
M  V30 8296 H 759.41 0.817122 -5.94208 0
M  V30 8297 H 761.089 0.508389 -6.45 0
M  V30 8298 N 761.222 1.57436 0.0718424 0
M  V30 8299 C 762.132 2.07039 1.10326 0
M  V30 8300 C 763.148 0.999918 1.424 0
M  V30 8301 O 764.324 1.31462 1.52577 0
M  V30 8302 C 761.389 2.50439 2.39752 0
M  V30 8303 C 760.45 3.71784 2.14651 0
M  V30 8304 C 759.683 4.13104 3.37906 0
M  V30 8305 O 759.906 3.54298 4.47023 0
M  V30 8306 O 758.84 5.05894 3.26121 0
M  V30 8307 H 762.666 2.95239 0.711872 0
M  V30 8308 H 760.251 1.46638 0.28597 0
M  V30 8309 H 762.133 2.78876 3.15921 0
M  V30 8310 H 760.808 1.65368 2.78271 0
M  V30 8311 H 759.715 3.48431 1.36187 0
M  V30 8312 H 761.048 4.57707 1.81012 0
M  V30 8313 N 762.7 -0.34323 1.53817 0
M  V30 8314 C 763.928 -1.10348 1.75017 0
M  V30 8315 C 764.343 -1.82345 0.489475 0
M  V30 8316 O 763.7 -1.74362 -0.538886 0
M  V30 8317 C 763.751 -2.11672 2.93048 0
M  V30 8318 O 763.472 -1.42603 4.14241 0
M  V30 8319 C 764.973 -3.0007 3.26301 0
M  V30 8320 H 762.193 -0.329056 0.584776 0
M  V30 8321 H 764.737 -0.395339 2.00642 0
M  V30 8322 H 762.892 -2.78051 2.69753 0
M  V30 8323 H 763.306 -2.10294 4.80496 0
M  V30 8324 H 764.78 -3.67101 4.12239 0
M  V30 8325 H 765.257 -3.66105 2.42618 0
M  V30 8326 H 765.863 -2.3928 3.51604 0
M  V30 8327 N 764.178 -1.45556 -0.604258 0
M  V30 8328 C 765.403 -1.53509 -1.39462 0
M  V30 8329 C 765.828 -0.169638 -1.87333 0
M  V30 8330 O 765.186 0.846346 -1.60333 0
M  V30 8331 C 765.234 -2.52654 -2.5729 0
M  V30 8332 O 764.338 -2.04666 -3.5803 0
M  V30 8333 H 763.679 -0.517355 -0.416221 0
M  V30 8334 H 766.209 -1.90939 -0.735072 0
M  V30 8335 H 766.219 -2.71568 -3.04491 0
M  V30 8336 H 764.894 -3.51823 -2.21797 0
M  V30 8337 H 763.471 -1.95643 -3.17456 0
M  V30 8338 N 765.656 0.84705 -1.32902 0
M  V30 8339 C 766.586 1.97166 -1.25091 0
M  V30 8340 C 767.567 1.69578 -0.133161 0
M  V30 8341 O 768.752 1.91519 -0.321591 0
M  V30 8342 C 765.882 3.33157 -0.981006 0
M  V30 8343 C 764.836 3.75119 -2.06082 0
M  V30 8344 C 764.162 5.08826 -1.64318 0
M  V30 8345 C 765.462 3.89774 -3.47669 0
M  V30 8346 H 767.156 2.03958 -2.19184 0
M  V30 8347 H 764.702 0.979907 -1.05517 0
M  V30 8348 H 766.655 4.11393 -0.912891 0
M  V30 8349 H 765.379 3.266 -0.00445559 0
M  V30 8350 H 764.038 2.9914 -2.11921 0
M  V30 8351 H 763.686 4.98732 -0.653876 0
M  V30 8352 H 763.386 5.37873 -2.36572 0
M  V30 8353 H 764.91 5.89546 -1.58958 0
M  V30 8354 H 766.324 4.58343 -3.44376 0
M  V30 8355 H 764.721 4.30248 -4.18338 0
M  V30 8356 H 765.791 2.92463 -3.86773 0
M  V30 8357 N 767.134 1.16236 1.06428 0
M  V30 8358 C 768.066 0.825446 2.1382 0
M  V30 8359 C 769.079 -0.166707 1.61944 0
M  V30 8360 O 770.268 0.0578606 1.78406 0
M  V30 8361 C 767.368 0.208023 3.38261 0
M  V30 8362 C 766.541 1.23994 4.19457 0
M  V30 8363 C 765.6 0.642569 5.22262 0
M  V30 8364 O 764.626 1.31106 5.53895 0
M  V30 8365 N 765.828 -0.571327 5.77682 0
M  V30 8366 H 768.593 1.7497 2.43322 0
M  V30 8367 H 766.154 1.05951 1.22417 0
M  V30 8368 H 768.146 -0.204608 4.04182 0
M  V30 8369 H 766.716 -0.619752 3.06395 0
M  V30 8370 H 765.936 1.82879 3.49212 0
M  V30 8371 H 767.224 1.93638 4.70512 0
M  V30 8372 H 766.622 -1.13263 5.54245 0
M  V30 8373 H 765.179 -0.926187 6.45186 0
M  V30 8374 N 768.612 -1.24939 0.960631 0
M  V30 8375 C 769.889 -1.88118 0.535807 0
M  V30 8376 C 770.269 -1.86605 -0.987009 0
M  V30 8377 O 769.617 -1.33375 -1.85536 0
M  V30 8378 C 769.827 -3.30565 1.11927 0
M  V30 8379 C 771.175 -4.07296 1.19981 0
M  V30 8380 O 772.199 -3.39709 1.07126 0
M  V30 8381 O 771.058 -5.28206 1.40218 0
M  V30 8382 H 768.152 -0.807698 0.177631 0
M  V30 8383 H 770.698 -1.32964 1.05445 0
M  V30 8384 H 769.47 -3.26128 2.16231 0
M  V30 8385 H 769.093 -3.93284 0.584245 0
M  V30 8386 N 770.09 -0.729906 -1.39679 0
M  V30 8387 C 771.339 -0.272534 -1.9985 0
M  V30 8388 C 771.652 1.14519 -1.58571 0
M  V30 8389 O 772.858 1.70182 -2.11543 0
M  V30 8390 C 771.314 -0.436322 -3.57245 0
M  V30 8391 C 770.922 -1.86161 -4.0749 0
M  V30 8392 C 772.666 -0.0404679 -4.24481 0
M  V30 8393 C 770.573 -1.97522 -5.5744 0
M  V30 8394 H 769.503 -0.0981428 -0.747585 0
M  V30 8395 H 772.154 -0.903056 -1.59741 0
M  V30 8396 H 770.536 0.263015 -3.95126 0
M  V30 8397 H 771.71 -2.59248 -3.80955 0
M  V30 8398 H 770.025 -2.21021 -3.529 0
M  V30 8399 H 772.622 -0.104437 -5.34598 0
M  V30 8400 H 772.965 1.00357 -4.04023 0
M  V30 8401 H 773.498 -0.690774 -3.91757 0
M  V30 8402 H 770.237 -3.00096 -5.82771 0
M  V30 8403 H 769.757 -1.28864 -5.85794 0
M  V30 8404 H 771.436 -1.754 -6.22771 0
M  V30 8405 N 771.568 1.50203 -0.477153 0
M  V30 8406 C 772.845 1.95115 0.137609 0
M  V30 8407 C 773.225 1.41778 1.56404 0
M  V30 8408 O 772.573 0.621333 2.1989 0
M  V30 8409 C 772.783 3.4892 0.0747168 0
M  V30 8410 C 774.131 4.238 0.260585 0
M  V30 8411 O 775.155 3.5588 0.151021 0
M  V30 8412 O 774.014 5.44366 0.482534 0
M  V30 8413 H 771.108 0.81987 0.108364 0
M  V30 8414 H 773.654 1.60946 -0.537989 0
M  V30 8415 H 772.426 3.80308 -0.920966 0
M  V30 8416 H 772.049 3.89642 0.791509 0
M  V30 8417 N 773.046 0.209999 1.56195 0
M  V30 8418 C 774.271 -0.433064 2.02828 0
M  V30 8419 C 774.696 -1.5337 1.08901 0
M  V30 8420 O 774.054 -1.81144 0.0751132 0
M  V30 8421 C 774.102 -0.952635 3.47789 0
M  V30 8422 O 773.206 -2.0647 3.56993 0
M  V30 8423 H 772.547 -0.0994594 0.656509 0
M  V30 8424 H 775.077 0.32525 2.01998 0
M  V30 8425 H 775.087 -1.26542 3.8788 0
M  V30 8426 H 773.762 -0.147007 4.1564 0
M  V30 8427 H 772.339 -1.75942 3.28784 0
M  V30 8428 N 774.524 -1.57472 -0.0634922 0
M  V30 8429 C 775.94 -1.54016 -0.418466 0
M  V30 8430 C 776.14 -0.931376 -1.78683 0
M  V30 8431 O 775.196 -0.537465 -2.46714 0
M  V30 8432 C 776.509 -2.98634 -0.351906 0
M  V30 8433 C 778.057 -3.10012 -0.431494 0
M  V30 8434 C 778.532 -4.56296 -0.394754 0
M  V30 8435 N 780.023 -4.60964 -0.454583 0
M  V30 8436 C 780.758 -5.71643 -0.448501 0
M  V30 8437 N 780.254 -6.91663 -0.396742 0
M  V30 8438 N 782.047 -5.5991 -0.495677 0
M  V30 8439 H 774.198 -1.95409 0.832408 0
M  V30 8440 H 776.461 -0.894769 0.313197 0
M  V30 8441 H 776.167 -3.46766 0.587048 0
M  V30 8442 H 776.041 -3.58955 -1.15893 0
M  V30 8443 H 778.428 -2.61848 -1.36087 0
M  V30 8444 H 778.509 -2.52585 0.404258 0
M  V30 8445 H 778.153 -5.05119 0.530811 0
M  V30 8446 H 778.083 -5.11594 -1.24815 0
M  V30 8447 H 780.574 -3.74598 -0.498496 0
M  V30 8448 H 780.887 -7.71783 -0.396256 0
M  V30 8449 H 779.232 -6.9405 -0.363304 0
M  V30 8450 H 782.423 -4.65046 -0.533864 0
M  V30 8451 H 782.596 -6.46164 -0.487469 0
M  V30 8452 N 776.003 0.335068 -1.53997 0
M  V30 8453 C 776.933 1.41727 -1.85568 0
M  V30 8454 C 777.914 1.54505 -0.7115 0
M  V30 8455 O 779.099 1.68573 -0.964191 0
M  V30 8456 C 776.229 2.7866 -2.07282 0
M  V30 8457 C 775.183 2.80682 -3.23112 0
M  V30 8458 C 774.509 4.20581 -3.30175 0
M  V30 8459 C 775.809 2.45458 -4.61029 0
M  V30 8460 H 777.503 1.15555 -2.76202 0
M  V30 8461 H 775.049 0.554445 -1.32898 0
M  V30 8462 H 777.002 3.54423 -2.27952 0
M  V30 8463 H 775.726 3.06286 -1.13387 0
M  V30 8464 H 774.385 2.07373 -3.02311 0
M  V30 8465 H 774.033 4.4533 -2.33859 0
M  V30 8466 H 773.733 4.22843 -4.08016 0
M  V30 8467 H 775.257 4.98174 -3.53066 0
M  V30 8468 H 776.671 3.10934 -4.81656 0
M  V30 8469 H 775.068 2.5899 -5.41336 0
M  V30 8470 H 776.138 1.40628 -4.6406 0
M  V30 8471 N 777.481 1.45874 0.596531 0
M  V30 8472 C 778.706 1.54247 1.38646 0
M  V30 8473 C 779.131 0.179571 1.87241 0
M  V30 8474 O 778.489 -0.837831 1.6078 0
M  V30 8475 C 778.537 2.54015 2.55946 0
M  V30 8476 O 777.641 2.06561 3.5694 0
M  V30 8477 H 776.982 0.519555 0.413471 0
M  V30 8478 H 779.512 1.91327 0.724936 0
M  V30 8479 H 779.522 2.73179 3.03047 0
M  V30 8480 H 778.197 3.52994 2.19928 0
M  V30 8481 H 776.774 1.97324 3.16414 0
M  V30 8482 N 778.959 -0.83999 1.33349 0
M  V30 8483 C 780.37 -1.41139 1.22216 0
M  V30 8484 C 780.721 -1.95551 -0.159398 0
M  V30 8485 O 779.846 -1.88721 -1.05893 0
M  V30 8486 C 780.441 -2.56564 2.21269 0
M  V30 8487 C 779 -3.09661 2.13979 0
M  V30 8488 C 778.147 -1.82457 2.08818 0
M  V30 8489 H 781.098 -0.645853 1.44964 0
M  V30 8490 H 781.119 -3.34163 1.81976 0
M  V30 8491 H 780.631 -2.16932 3.21811 0
M  V30 8492 H 778.732 -3.53841 1.16736 0
M  V30 8493 H 778.845 -3.6991 3.04472 0
M  V30 8494 H 777.209 -2.0266 1.54276 0
M  V30 8495 H 777.992 -1.45022 3.11165 0
M  V30 8496 N 780.437 -1.16799 -1.0581 0
M  V30 8497 C 781.685 -0.950642 -1.78346 0
M  V30 8498 C 782.006 0.522524 -1.87869 0
M  V30 8499 O 781.276 1.3795 -1.39092 0
M  V30 8500 H 779.856 -0.348736 -0.6606 0
M  V30 8501 H 782.518 -1.47158 -1.27791 0
M  V30 8502 H 781.614 -1.37359 -2.80248 0
M  V30 8503 N 781.915 1.24427 -0.967243 0
M  V30 8504 C 783.163 1.92107 -0.627638 0
M  V30 8505 C 783.484 1.75991 0.83978 0
M  V30 8506 O 782.754 1.13118 1.59941 0
M  V30 8507 H 781.334 0.710986 -0.229145 0
M  V30 8508 H 783.996 1.51331 -1.22821 0
M  V30 8509 H 783.092 2.99791 -0.867844 0
M  V30 8510 N 783.393 0.737304 1.3929 0
M  V30 8511 C 784.618 0.295237 2.05288 0
M  V30 8512 C 785.043 -1.06235 1.55228 0
M  V30 8513 O 784.401 -1.67365 0.697043 0
M  V30 8514 C 784.449 0.309146 3.59272 0
M  V30 8515 O 783.553 -0.702437 4.06374 0
M  V30 8516 H 782.894 0.133762 0.650387 0
M  V30 8517 H 785.424 1.00387 1.78279 0
M  V30 8518 H 785.434 0.154336 4.07708 0
M  V30 8519 H 784.109 1.29974 3.95069 0
M  V30 8520 H 782.686 -0.513574 3.69346 0
M  V30 8521 N 784.871 -1.49948 0.485112 0
M  V30 8522 C 785.801 -2.31675 -0.291364 0
M  V30 8523 C 786.782 -1.39216 -0.977383 0
M  V30 8524 O 787.967 -1.68133 -0.971855 0
M  V30 8525 C 785.097 -3.19326 -1.36558 0
M  V30 8526 C 784.051 -4.2045 -0.800359 0
M  V30 8527 C 783.377 -4.96931 -1.97391 0
M  V30 8528 C 784.677 -5.21925 0.197867 0
M  V30 8529 H 786.371 -2.96839 0.390775 0
M  V30 8530 H 783.917 -1.42749 0.189375 0
M  V30 8531 H 785.87 -3.75304 -1.91638 0
M  V30 8532 H 784.594 -2.52074 -2.07668 0
M  V30 8533 H 783.253 -3.65594 -0.271428 0
M  V30 8534 H 782.901 -4.26141 -2.67232 0
M  V30 8535 H 782.601 -5.65344 -1.60187 0
M  V30 8536 H 784.125 -5.55749 -2.52935 0
M  V30 8537 H 785.539 -5.72691 -0.264239 0
M  V30 8538 H 783.936 -5.98138 0.484908 0
M  V30 8539 H 785.006 -4.71809 1.11912 0
M  V30 8540 N 786.349 -0.21828 -1.56081 0
M  V30 8541 C 787.312 0.679633 -2.18892 0
M  V30 8542 C 788.312 1.12405 -1.14986 0
M  V30 8543 O 789.502 1.03339 -1.40238 0
M  V30 8544 C 786.634 1.93063 -2.80962 0
M  V30 8545 H 787.827 0.132066 -2.99609 0
M  V30 8546 H 785.38 0.0313374 -1.56269 0
M  V30 8547 H 786.115 2.52015 -2.04106 0
M  V30 8548 H 785.9 1.62046 -3.57048 0
M  V30 8549 H 787.39 2.57043 -3.29118 0
M  V30 8550 N 787.827 1.57504 0.0551401 0
M  V30 8551 C 789.104 1.79155 0.785048 0
M  V30 8552 C 789.484 0.809995 1.94942 0
M  V30 8553 O 788.832 -0.153432 2.27984 0
M  V30 8554 C 789.042 3.26134 1.24247 0
M  V30 8555 C 790.39 3.90419 1.66908 0
M  V30 8556 O 791.414 3.30126 1.33772 0
M  V30 8557 O 790.273 4.96523 2.28314 0
M  V30 8558 H 787.367 0.735825 0.377479 0
M  V30 8559 H 789.913 1.69666 0.0339285 0
M  V30 8560 H 788.685 3.89145 0.410089 0
M  V30 8561 H 788.308 3.40411 2.05441 0
M  V30 8562 N 789.305 -0.326896 1.54172 0
M  V30 8563 C 790.268 -1.38515 1.8261 0
M  V30 8564 C 791.268 -1.44872 0.697771 0
M  V30 8565 O 792.458 -1.44957 0.966078 0
M  V30 8566 C 789.59 -2.77281 1.98313 0
M  V30 8567 H 790.783 -1.14556 2.77159 0
M  V30 8568 H 788.336 -0.562199 1.45839 0
M  V30 8569 H 789.071 -3.065 1.05964 0
M  V30 8570 H 788.856 -2.74061 2.80416 0
M  V30 8571 H 790.346 -3.53845 2.21773 0
M  V30 8572 N 790.784 -1.46188 -0.588786 0
M  V30 8573 C 792.03 -1.52396 -1.34711 0
M  V30 8574 C 792.385 -0.170846 -1.9164 0
M  V30 8575 O 791.678 0.819714 -1.7318 0
M  V30 8576 C 791.872 -2.55364 -2.50048 0
M  V30 8577 C 791.701 -4.00554 -2.04417 0
M  V30 8578 C 790.471 -4.68334 -1.89715 0
M  V30 8579 C 792.669 -4.88533 -1.60747 0
M  V30 8580 N 790.651 -5.98167 -1.38091 0
M  V30 8581 C 792.022 -6.08143 -1.20672 0
M  V30 8582 C 794.077 -4.75236 -1.4851 0
M  V30 8583 C 792.78 -7.15927 -0.695782 0
M  V30 8584 C 794.806 -5.83085 -0.988196 0
M  V30 8585 C 794.168 -7.01864 -0.59719 0
M  V30 8586 H 790.267 -0.61252 -0.486151 0
M  V30 8587 H 792.851 -1.8277 -0.671063 0
M  V30 8588 H 791.022 -2.2691 -3.15225 0
M  V30 8589 H 792.754 -2.51603 -3.16983 0
M  V30 8590 H 789.509 -4.23763 -2.11476 0
M  V30 8591 H 789.933 -6.67254 -1.14458 0
M  V30 8592 H 794.575 -3.83801 -1.7736 0
M  V30 8593 H 792.293 -8.07135 -0.394857 0
M  V30 8594 H 795.879 -5.74836 -0.897504 0
M  V30 8595 H 794.759 -7.83895 -0.218621 0
M  V30 8596 N 792.262 0.832906 -1.33792 0
M  V30 8597 C 793.225 1.92471 -1.24449 0
M  V30 8598 C 794.225 1.59981 -0.162085 0
M  V30 8599 O 795.415 1.69208 -0.414029 0
M  V30 8600 C 792.547 3.28278 -0.919044 0
M  V30 8601 H 793.74 2.0218 -2.21502 0
M  V30 8602 H 791.293 1.0257 -1.17936 0
M  V30 8603 H 792.028 3.24263 0.048738 0
M  V30 8604 H 791.813 3.53241 -1.70187 0
M  V30 8605 H 793.303 4.08253 -0.878576 0
M  V30 8606 N 793.74 1.17359 1.05189 0
M  V30 8607 C 794.69 0.858445 2.11222 0
M  V30 8608 C 795.674 -0.166991 1.60031 0
M  V30 8609 O 796.866 0.0354456 1.76965 0
M  V30 8610 C 793.995 0.373549 3.41262 0
M  V30 8611 C 793.081 1.43041 3.99249 0
M  V30 8612 N 793.472 2.64387 4.312 0
M  V30 8613 C 791.77 1.28828 4.26989 0
M  V30 8614 C 792.471 3.32296 4.77446 0
M  V30 8615 N 791.447 2.59674 4.77567 0
M  V30 8616 H 795.249 1.78104 2.33786 0
M  V30 8617 H 792.763 1.0623 1.22837 0
M  V30 8618 H 794.76 0.129331 4.16699 0
M  V30 8619 H 793.42 -0.542847 3.2013 0
M  V30 8620 H 794.431 3.01351 4.21198 0
M  V30 8621 H 791.108 0.43353 4.15243 0
M  V30 8622 H 792.498 4.35939 5.11279 0
M  V30 8623 N 795.218 -1.23913 0.973828 0
M  V30 8624 C 796.15 -2.24397 0.466763 0
M  V30 8625 C 797.163 -1.57078 -0.427828 0
M  V30 8626 O 798.352 -1.76973 -0.233019 0
M  V30 8627 C 795.452 -3.37141 -0.344798 0
M  V30 8628 C 794.625 -4.34037 0.541349 0
M  V30 8629 C 793.684 -5.2576 -0.215243 0
M  V30 8630 O 792.71 -5.67842 0.39291 0
M  V30 8631 N 793.912 -5.60702 -1.5031 0
M  V30 8632 H 796.677 -2.68536 1.33074 0
M  V30 8633 H 794.238 -1.38017 0.846346 0
M  V30 8634 H 796.23 -3.95476 -0.859133 0
M  V30 8635 H 794.8 -2.92239 -1.10974 0
M  V30 8636 H 794.02 -3.74302 1.23659 0
M  V30 8637 H 795.308 -4.95738 1.1455 0
M  V30 8638 H 794.706 -5.28451 -2.01882 0
M  V30 8639 H 793.263 -6.21538 -1.96301 0
M  V30 8640 N 796.696 -0.74468 -1.38897 0
M  V30 8641 C 797.606 -0.112892 -2.34328 0
M  V30 8642 C 798.622 0.71087 -1.58816 0
M  V30 8643 O 799.798 0.637092 -1.91058 0
M  V30 8644 C 796.863 0.776417 -3.37894 0
M  V30 8645 C 795.924 -0.0606999 -4.29257 0
M  V30 8646 C 795.157 0.786258 -5.27877 0
M  V30 8647 O 795.38 2.02463 -5.33259 0
M  V30 8648 O 794.314 0.209781 -6.01534 0
M  V30 8649 H 798.14 -0.900801 -2.90033 0
M  V30 8650 H 795.725 -0.505462 -1.4059 0
M  V30 8651 H 797.607 1.28496 -4.01331 0
M  V30 8652 H 796.282 1.54297 -2.84559 0
M  V30 8653 H 795.189 -0.614984 -3.69011 0
M  V30 8654 H 796.522 -0.789702 -4.85824 0
M  V30 8655 N 798.174 1.49689 -0.493057 0
M  V30 8656 C 799.422 2.02027 0.0541642 0
M  V30 8657 C 799.743 1.37554 1.38217 0
M  V30 8658 O 799.013 0.528174 1.88646 0
M  V30 8659 H 797.593 0.746646 0.0230069 0
M  V30 8660 H 800.255 1.83795 -0.648489 0
M  V30 8661 H 799.351 3.11523 0.189652 0
M  V30 8662 N 799.652 0.226554 1.55963 0
M  V30 8663 C 800.88 -0.408507 2.02827 0
M  V30 8664 C 801.295 -1.52994 1.10627 0
M  V30 8665 O 800.652 -1.82126 0.116809 0
M  V30 8666 C 800.703 -0.93545 3.49187 0
M  V30 8667 O 800.424 0.141273 4.37872 0
M  V30 8668 C 801.925 -1.64325 4.11719 0
M  V30 8669 H 799.145 -0.099442 0.66359 0
M  V30 8670 H 801.689 0.344471 2.01578 0
M  V30 8671 H 799.844 -1.63868 3.51036 0
M  V30 8672 H 800.258 -0.25558 5.23877 0
M  V30 8673 H 801.732 -1.9639 5.15883 0
M  V30 8674 H 802.209 -2.55815 3.57009 0
M  V30 8675 H 802.815 -0.9851 4.13734 0
M  V30 8676 N 801.13 -1.57531 -0.0467866 0
M  V30 8677 C 802.08 -2.01845 -1.06031 0
M  V30 8678 C 803.064 -0.904662 -1.33059 0
M  V30 8679 O 804.256 -1.16858 -1.32941 0
M  V30 8680 C 801.385 -2.48673 -2.36679 0
M  V30 8681 C 800.471 -3.66837 -2.12818 0
M  V30 8682 N 800.862 -4.80172 -1.5896 0
M  V30 8683 C 799.16 -3.73869 -2.43183 0
M  V30 8684 C 799.861 -5.61895 -1.50494 0
M  V30 8685 N 798.837 -5.0648 -1.97431 0
M  V30 8686 H 802.639 -2.869 -0.637623 0
M  V30 8687 H 800.153 -1.6041 -0.253427 0
M  V30 8688 H 802.15 -2.78671 -3.10077 0
M  V30 8689 H 800.81 -1.65016 -2.79642 0
M  V30 8690 H 801.821 -5.01967 -1.27474 0
M  V30 8691 H 798.498 -3.00977 -2.89342 0
M  V30 8692 H 799.888 -6.62918 -1.09494 0
M  V30 8693 N 802.608 0.318715 -1.54344 0
M  V30 8694 C 804.019 0.89285 -1.63967 0
M  V30 8695 C 804.37 1.88712 -0.536855 0
M  V30 8696 O 803.495 2.13877 0.329457 0
M  V30 8697 C 804.09 1.62618 -2.97222 0
M  V30 8698 C 802.649 2.14897 -3.09025 0
M  V30 8699 C 801.796 0.975909 -2.5956 0
M  V30 8700 H 804.747 0.0961687 -1.58408 0
M  V30 8701 H 804.768 2.4907 -2.87653 0
M  V30 8702 H 804.28 0.902286 -3.77466 0
M  V30 8703 H 802.381 2.90387 -2.33465 0
M  V30 8704 H 802.494 2.39565 -4.14904 0
M  V30 8705 H 800.858 1.35646 -2.15574 0
M  V30 8706 H 801.641 0.266253 -3.42266 0
M  V30 8707 N 804.086 1.46499 0.581025 0
M  V30 8708 C 805.033 1.5719 1.68997 0
M  V30 8709 C 806.003 0.416114 1.60803 0
M  V30 8710 O 807.188 0.633086 1.79991 0
M  V30 8711 C 804.328 1.56973 3.07333 0
M  V30 8712 C 803.441 2.83298 3.26139 0
M  V30 8713 C 802.576 2.74574 4.54734 0
M  V30 8714 C 801.615 3.9583 4.66889 0
M  V30 8715 N 800.752 3.85482 5.86811 0
M  V30 8716 H 805.592 2.51914 1.59196 0
M  V30 8717 H 803.129 1.24975 0.775857 0
M  V30 8718 H 805.087 1.54832 3.87405 0
M  V30 8719 H 803.717 0.657803 3.16027 0
M  V30 8720 H 802.769 2.95411 2.3966 0
M  V30 8721 H 804.081 3.7316 3.30988 0
M  V30 8722 H 803.235 2.70548 5.43036 0
M  V30 8723 H 801.974 1.82354 4.52325 0
M  V30 8724 H 800.979 4.00186 3.77003 0
M  V30 8725 H 802.204 4.89148 4.71075 0
M  V30 8726 H 800.15 2.96051 5.85397 0
M  V30 8727 H 800.067 4.69002 5.92936 0
M  V30 8728 H 801.335 3.85434 6.7754 0
M  V30 8729 N 805.565 -0.825799 1.34232 0
M  V30 8730 C 806.842 -1.56741 1.17011 0
M  V30 8731 C 807.222 -2.09512 -0.258425 0
M  V30 8732 O 806.57 -1.90664 -1.25935 0
M  V30 8733 C 806.78 -2.69104 2.22225 0
M  V30 8734 C 808.128 -3.37947 2.57055 0
M  V30 8735 O 809.152 -2.79358 2.20992 0
M  V30 8736 O 808.011 -4.43743 3.1899 0
M  V30 8737 H 805.105 -0.69163 0.453405 0
M  V30 8738 H 807.651 -0.867422 1.45856 0
M  V30 8739 H 806.423 -2.27844 3.18124 0
M  V30 8740 H 806.046 -3.46756 1.94541 0
M  V30 8741 N 807.043 -1.17915 -1.04565 0
M  V30 8742 C 808.459 -0.927761 -1.29864 0
M  V30 8743 C 808.659 0.409536 -1.97294 0
M  V30 8744 O 807.715 1.14505 -2.25044 0
M  V30 8745 C 809.028 -2.08967 -2.16225 0
M  V30 8746 C 810.576 -2.12741 -2.29587 0
M  V30 8747 C 811.051 -3.28335 -3.19312 0
M  V30 8748 N 812.542 -3.28164 -3.26898 0
M  V30 8749 C 813.277 -4.14249 -3.96466 0
M  V30 8750 N 812.773 -5.10457 -4.68407 0
M  V30 8751 N 814.566 -4.02179 -3.92694 0
M  V30 8752 H 806.717 -2.03983 -0.592011 0
M  V30 8753 H 808.98 -0.891023 -0.323701 0
M  V30 8754 H 808.686 -3.05654 -1.73979 0
M  V30 8755 H 808.56 -2.04606 -3.16885 0
M  V30 8756 H 810.947 -1.16636 -2.71072 0
M  V30 8757 H 811.028 -2.21162 -1.28535 0
M  V30 8758 H 810.672 -4.2471 -2.78539 0
M  V30 8759 H 810.602 -3.17151 -4.20384 0
M  V30 8760 H 813.093 -2.58511 -2.75646 0
M  V30 8761 H 813.406 -5.72526 -5.1907 0
M  V30 8762 H 811.751 -5.14422 -4.67328 0
M  V30 8763 H 814.942 -3.26308 -3.3562 0
M  V30 8764 H 815.115 -4.69486 -4.4664 0
M  V30 8765 N 808.521 1.23394 -0.980386 0
M  V30 8766 C 809.469 2.26872 -0.513018 0
M  V30 8767 C 810.463 1.63853 0.429948 0
M  V30 8768 O 811.669 1.77417 0.303842 0
M  V30 8769 H 808.044 0.737398 -0.147473 0
M  V30 8770 H 810.015 2.63654 -1.39746 0
M  V30 8771 C 808.764 3.47289 0.168962 0
M  V30 8772 H 808.087 3.96033 -0.547546 0
M  V30 8773 H 809.527 4.21502 0.459616 0
M  V30 8774 C 807.986 3.06425 1.40019 0
M  V30 8775 O 808.516 3.14708 2.49643 0
M  V30 8776 N 806.722 2.61339 1.27084 0
M  V30 8777 H 806.269 2.54799 0.378872 0
M  V30 8778 H 806.227 2.34364 2.09573 0
M  V30 8779 N 809.999 0.752036 1.385 0
M  V30 8780 C 811.245 0.307958 2.00448 0
M  V30 8781 C 811.578 -1.10702 1.59558 0
M  V30 8782 O 810.853 -1.75788 0.832391 0
M  V30 8783 C 811.136 0.429092 3.57534 0
M  V30 8784 C 810.989 1.88507 4.08393 0
M  V30 8785 C 812.308 -0.178442 4.39738 0
M  V30 8786 H 809.427 0.113373 0.728228 0
M  V30 8787 H 812.069 0.951389 1.64465 0
M  V30 8788 H 810.219 -0.118695 3.88319 0
M  V30 8789 H 811.891 2.49104 3.88259 0
M  V30 8790 H 810.134 2.40066 3.61318 0
M  V30 8791 H 810.805 1.92099 5.17496 0
M  V30 8792 H 813.281 0.28872 4.15097 0
M  V30 8793 H 812.157 -0.0634349 5.48863 0
M  V30 8794 H 812.418 -1.26655 4.23569 0
M  V30 8795 N 811.477 -1.49425 0.500989 0
M  V30 8796 C 812.387 -2.32899 -0.282011 0
M  V30 8797 C 813.403 -1.44632 -0.967346 0
M  V30 8798 O 814.579 -1.77654 -0.94873 0
M  V30 8799 C 811.644 -3.20069 -1.33253 0
M  V30 8800 C 810.705 -4.24186 -0.660636 0
M  V30 8801 C 809.938 -5.07191 -1.6611 0
M  V30 8802 O 810.161 -4.91712 -2.89094 0
M  V30 8803 O 809.095 -5.8948 -1.21643 0
M  V30 8804 H 812.921 -3.01038 0.401224 0
M  V30 8805 H 810.506 -1.47079 0.262323 0
M  V30 8806 H 812.388 -3.74071 -1.94033 0
M  V30 8807 H 811.063 -2.54625 -1.9987 0
M  V30 8808 H 809.97 -3.74098 -0.0130959 0
M  V30 8809 H 811.303 -4.92186 -0.0369179 0
M  V30 8810 N 812.955 -0.234822 -1.55841 0
M  V30 8811 C 813.902 0.6698 -2.20867 0
M  V30 8812 C 814.872 1.18042 -1.16856 0
M  V30 8813 O 816.057 1.23709 -1.45261 0
M  V30 8814 C 813.197 1.86646 -2.90271 0
M  V30 8815 C 812.31 1.39351 -4.08908 0
M  V30 8816 C 811.445 2.54878 -4.66059 0
M  V30 8817 C 810.484 2.04384 -5.76969 0
M  V30 8818 N 809.621 3.13233 -6.28355 0
M  V30 8819 H 814.461 0.10858 -2.97802 0
M  V30 8820 H 811.998 0.041836 -1.4704 0
M  V30 8821 H 813.956 2.56926 -3.28702 0
M  V30 8822 H 812.586 2.40035 -2.15831 0
M  V30 8823 H 811.638 0.585173 -3.75872 0
M  V30 8824 H 812.95 0.983356 -4.89011 0
M  V30 8825 H 812.104 3.33219 -5.07001 0
M  V30 8826 H 810.843 2.99188 -3.85146 0
M  V30 8827 H 809.848 1.24509 -5.35516 0
M  V30 8828 H 811.073 1.61057 -6.59725 0
M  V30 8829 H 809.019 3.57 -5.50352 0
M  V30 8830 H 808.936 2.76511 -7.03618 0
M  V30 8831 H 810.204 3.91669 -6.73955 0
M  V30 8832 N 814.433 1.57553 0.0384317 0
M  V30 8833 C 815.363 2.0898 1.04161 0
M  V30 8834 C 816.344 0.99029 1.38301 0
M  V30 8835 O 817.529 1.26499 1.47349 0
M  V30 8836 C 814.659 2.56145 2.34536 0
M  V30 8837 C 813.613 3.70275 2.14663 0
M  V30 8838 C 812.939 4.03612 3.50715 0
M  V30 8839 C 814.239 4.99067 1.54045 0
M  V30 8840 H 815.933 2.93046 0.613548 0
M  V30 8841 H 813.479 1.40973 0.293684 0
M  V30 8842 H 815.432 2.90741 3.05037 0
M  V30 8843 H 814.156 1.6915 2.79385 0
M  V30 8844 H 812.815 3.36013 1.46597 0
M  V30 8845 H 812.463 3.13698 3.93195 0
M  V30 8846 H 812.163 4.80482 3.38247 0
M  V30 8847 H 813.687 4.40735 4.22593 0
M  V30 8848 H 815.101 5.3168 2.14451 0
M  V30 8849 H 813.498 5.80484 1.52178 0
M  V30 8850 H 814.568 4.8226 0.505259 0
M  V30 8851 N 815.911 -0.310526 1.54511 0
M  V30 8852 C 816.843 -1.40405 1.8116 0
M  V30 8853 C 817.856 -1.47261 0.694114 0
M  V30 8854 O 819.045 -1.49751 0.971441 0
M  V30 8855 C 816.145 -2.78849 1.92604 0
M  V30 8856 C 815.318 -2.95041 3.22908 0
M  V30 8857 C 814.377 -4.13925 3.24889 0
M  V30 8858 O 813.403 -4.06463 3.98467 0
M  V30 8859 N 814.605 -5.24099 2.496 0
M  V30 8860 H 817.37 -1.17903 2.75534 0
M  V30 8861 H 814.931 -0.500564 1.53967 0
M  V30 8862 H 816.923 -3.5661 1.91342 0
M  V30 8863 H 815.493 -2.94342 1.05268 0
M  V30 8864 H 814.713 -2.04472 3.37023 0
M  V30 8865 H 816.001 -3.02763 4.08916 0
M  V30 8866 H 815.399 -5.33039 1.89435 0
M  V30 8867 H 813.956 -6.0023 2.54102 0
M  V30 8868 N 817.389 -1.46805 -0.573248 0
M  V30 8869 C 818.635 -1.5283 -1.33307 0
M  V30 8870 C 818.968 -0.183287 -1.93333 0
M  V30 8871 O 818.243 0.806354 -1.76998 0
M  V30 8872 C 818.526 -2.63414 -2.45531 0
M  V30 8873 C 818.379 -4.07478 -1.90478 0
M  V30 8874 C 819.698 -2.70014 -3.47535 0
M  V30 8875 H 816.817 -0.556371 -0.483343 0
M  V30 8876 H 819.459 -1.78787 -0.643066 0
M  V30 8877 H 817.609 -2.41412 -3.04389 0
M  V30 8878 H 819.281 -4.40795 -1.36004 0
M  V30 8879 H 817.524 -4.16511 -1.21248 0
M  V30 8880 H 818.195 -4.80598 -2.71531 0
M  V30 8881 H 820.671 -2.89817 -2.98572 0
M  V30 8882 H 819.547 -3.49192 -4.23504 0
M  V30 8883 H 819.808 -1.76436 -4.05367 0
M  V30 8884 N 818.867 0.818669 -1.34668 0
M  V30 8885 C 819.797 1.94468 -1.29245 0
M  V30 8886 C 820.778 1.69257 -0.169101 0
M  V30 8887 O 821.963 1.90794 -0.362143 0
M  V30 8888 C 819.093 3.31001 -1.05145 0
M  V30 8889 C 818.047 3.70663 -2.13992 0
M  V30 8890 C 817.373 5.05226 -1.75074 0
M  V30 8891 C 818.673 3.82312 -3.55858 0
M  V30 8892 H 820.367 1.99263 -2.2346 0
M  V30 8893 H 817.913 0.957304 -1.07572 0
M  V30 8894 H 819.866 4.09364 -0.999949 0
M  V30 8895 H 818.59 3.26517 -0.0737312 0
M  V30 8896 H 817.249 2.94578 -2.18219 0
M  V30 8897 H 816.897 4.97233 -0.759518 0
M  V30 8898 H 816.597 5.32734 -2.47928 0
M  V30 8899 H 818.121 5.86042 -1.71427 0
M  V30 8900 H 819.535 4.50935 -3.5402 0
M  V30 8901 H 817.932 4.21278 -4.2737 0
M  V30 8902 H 819.002 2.84193 -3.9289 0
M  V30 8903 N 820.346 1.18468 1.03938 0
M  V30 8904 C 821.276 0.936389 2.13902 0
M  V30 8905 C 822.257 -0.126381 1.6963 0
M  V30 8906 O 823.442 0.0264757 1.94182 0
M  V30 8907 C 820.572 0.462729 3.44204 0
M  V30 8908 C 819.526 1.46613 4.02105 0
M  V30 8909 C 818.852 0.84994 5.27902 0
M  V30 8910 C 820.152 2.84323 4.3813 0
M  V30 8911 H 821.846 1.85602 2.3493 0
M  V30 8912 H 819.392 0.893806 1.12903 0
M  V30 8913 H 821.345 0.276382 4.20493 0
M  V30 8914 H 820.069 -0.492477 3.22866 0
M  V30 8915 H 818.728 1.63944 3.27899 0
M  V30 8916 H 818.376 -0.112493 5.02874 0
M  V30 8917 H 818.076 1.51988 5.67603 0
M  V30 8918 H 819.6 0.674152 6.06867 0
M  V30 8919 H 821.014 2.70636 5.054 0
M  V30 8920 H 819.411 3.48012 4.88884 0
M  V30 8921 H 820.481 3.37776 3.47901 0
M  V30 8922 N 821.824 -1.22873 0.986916 0
M  V30 8923 C 822.772 -2.26597 0.525043 0
M  V30 8924 C 823.766 -1.64079 -0.421252 0
M  V30 8925 O 824.972 -1.77576 -0.294429 0
M  V30 8926 H 821.347 -0.736606 0.151381 0
M  V30 8927 H 823.318 -2.62909 1.41142 0
M  V30 8928 C 822.067 -3.47374 -0.150542 0
M  V30 8929 H 821.39 -3.95737 0.568541 0
M  V30 8930 H 822.83 -4.21739 -0.437256 0
M  V30 8931 C 821.289 -3.07163 -1.38392 0
M  V30 8932 O 821.819 -3.16028 -2.47971 0
M  V30 8933 N 820.025 -2.62009 -1.25697 0
M  V30 8934 H 819.572 -2.54996 -0.365355 0
M  V30 8935 H 819.53 -2.35472 -2.08327 0
M  V30 8936 N 823.302 -0.75937 -1.38099 0
M  V30 8937 C 824.542 -0.323116 -2.0183 0
M  V30 8938 C 824.906 1.07658 -1.58977 0
M  V30 8939 O 826.107 1.61227 -2.1508 0
M  V30 8940 C 824.378 -0.448234 -3.54578 0
M  V30 8941 S 825.937 -0.0954152 -4.38696 0
M  V30 8942 H 822.755 -0.125013 -0.699923 0
M  V30 8943 H 825.357 -0.991262 -1.68506 0
M  V30 8944 H 824.061 -1.46778 -3.83255 0
M  V30 8945 H 823.592 0.236895 -3.92686 0
M  V30 8946 H 825.607 1.11312 -4.83554 0
M  V30 8947 N 824.78 1.49157 -0.508906 0
M  V30 8948 C 825.713 2.26056 0.312103 0
M  V30 8949 C 826.691 1.30982 0.963456 0
M  V30 8950 O 827.875 1.60286 0.992002 0
M  V30 8951 C 825.002 3.06555 1.4402 0
M  V30 8952 C 824.048 4.16844 0.902414 0
M  V30 8953 S 824.881 5.35076 -0.213087 0
M  V30 8954 C 826.037 6.19132 0.917985 0
M  V30 8955 H 826.27 2.95343 -0.340559 0
M  V30 8956 H 823.803 1.51569 -0.294331 0
M  V30 8957 H 825.761 3.53517 2.08653 0
M  V30 8958 H 824.422 2.36722 2.0645 0
M  V30 8959 H 823.615 4.72714 1.74806 0
M  V30 8960 H 823.217 3.72513 0.333156 0
M  V30 8961 H 825.509 6.52556 1.82145 0
M  V30 8962 H 826.452 7.06982 0.397724 0
M  V30 8963 H 826.86 5.51839 1.18889 0
M  V30 8964 N 826.258 0.243083 1.55714 0
M  V30 8965 C 827.486 -0.386971 2.03249 0
M  V30 8966 C 827.901 -1.51812 1.12243 0
M  V30 8967 O 827.258 -1.81992 0.136119 0
M  V30 8968 C 827.309 -0.898361 3.5016 0
M  V30 8969 O 827.03 0.187708 4.37698 0
M  V30 8970 C 828.531 -1.59949 4.13438 0
M  V30 8971 H 825.751 -0.0923981 0.664608 0
M  V30 8972 H 828.295 0.365832 2.01201 0
M  V30 8973 H 826.45 -1.60136 3.52754 0
M  V30 8974 H 826.864 -0.200001 5.24119 0
M  V30 8975 H 828.338 -1.90907 5.17937 0
M  V30 8976 H 828.815 -2.52014 3.59702 0
M  V30 8977 H 829.421 -0.941163 4.14756 0
M  V30 8978 N 827.736 -1.57571 -0.0300757 0
M  V30 8979 C 828.646 -2.09892 -1.04798 0
M  V30 8980 C 829.662 -1.03732 -1.39698 0
M  V30 8981 O 830.838 -1.35461 -1.49038 0
M  V30 8982 C 827.903 -2.56707 -2.33028 0
M  V30 8983 C 826.964 -3.77345 -2.04718 0
M  V30 8984 C 826.197 -4.21918 -3.26834 0
M  V30 8985 O 826.42 -3.66025 -4.37472 0
M  V30 8986 O 825.354 -5.14362 -3.12594 0
M  V30 8987 H 829.18 -2.97023 -0.633344 0
M  V30 8988 H 826.765 -1.47344 -0.246991 0
M  V30 8989 H 828.647 -2.87154 -3.08417 0
M  V30 8990 H 827.322 -1.72688 -2.73789 0
M  V30 8991 H 826.229 -3.51919 -1.26901 0
M  V30 8992 H 827.562 -4.62345 -1.68813 0
M  V30 8993 N 829.214 0.302327 -1.54673 0
M  V30 8994 C 830.463 1.03533 -1.73101 0
M  V30 8995 C 830.776 1.88473 -0.523174 0
M  V30 8996 O 831.982 2.65029 -0.589229 0
M  V30 8997 C 830.438 1.89043 -3.06252 0
M  V30 8998 C 830.046 1.09112 -4.3451 0
M  V30 8999 C 831.79 2.61951 -3.34039 0
M  V30 9000 C 829.697 1.93891 -5.58713 0
M  V30 9001 H 828.627 0.390261 -0.645145 0
M  V30 9002 H 831.278 0.2924 -1.81155 0
M  V30 9003 H 829.66 2.67319 -2.92159 0
M  V30 9004 H 830.834 0.354596 -4.59434 0
M  V30 9005 H 829.149 0.477923 -4.13648 0
M  V30 9006 H 831.746 3.25729 -4.24033 0
M  V30 9007 H 832.089 3.30711 -2.52855 0
M  V30 9008 H 832.622 1.90725 -3.49097 0
M  V30 9009 H 829.361 1.29604 -6.4256 0
M  V30 9010 H 828.881 2.6522 -5.37976 0
M  V30 9011 H 830.56 2.51971 -5.95919 0
M  V30 9012 N 830.692 1.47107 0.565454 0
M  V30 9013 C 831.922 1.56681 1.34664 0
M  V30 9014 C 832.33 0.213011 1.87997 0
M  V30 9015 O 831.673 -0.802629 1.65238 0
M  V30 9016 C 831.735 2.52528 2.55871 0
M  V30 9017 C 831.399 3.98403 2.23883 0
M  V30 9018 C 832.396 4.87125 1.81673 0
M  V30 9019 C 830.081 4.43674 2.35496 0
M  V30 9020 C 832.075 6.19135 1.51494 0
M  V30 9021 C 829.762 5.75714 2.0493 0
M  V30 9022 C 830.76 6.63266 1.62996 0
M  V30 9023 O 830.448 7.92853 1.32813 0
M  V30 9024 H 830.18 0.531967 0.417117 0
M  V30 9025 H 832.734 1.93368 0.692669 0
M  V30 9026 H 830.964 2.10893 3.24131 0
M  V30 9027 H 832.653 2.5232 3.17945 0
M  V30 9028 H 833.419 4.534 1.72201 0
M  V30 9029 H 829.298 3.7574 2.67096 0
M  V30 9030 H 832.842 6.87429 1.1869 0
M  V30 9031 H 828.739 6.08983 2.14031 0
M  V30 9032 H 829.507 8.0528 1.46513 0
M  V30 9033 N 832.17 -0.811516 1.35101 0
M  V30 9034 C 833.4 -1.59749 1.31011 0
M  V30 9035 C 833.808 -1.88847 -0.115566 0
M  V30 9036 O 833.151 -1.48854 -1.07649 0
M  V30 9037 C 833.213 -2.95714 2.04435 0
M  V30 9038 C 832.877 -2.89456 3.53645 0
M  V30 9039 C 833.874 -2.63237 4.48333 0
M  V30 9040 C 831.559 -3.08728 3.96222 0
M  V30 9041 C 833.553 -2.56361 5.83573 0
M  V30 9042 C 831.24 -3.01475 5.3156 0
M  V30 9043 C 832.238 -2.75326 6.25048 0
M  V30 9044 O 831.926 -2.68026 7.57903 0
M  V30 9045 H 831.658 -0.502889 0.45175 0
M  V30 9046 H 834.212 -1.01687 1.78462 0
M  V30 9047 H 832.442 -3.55739 1.51613 0
M  V30 9048 H 834.131 -3.56816 1.93487 0
M  V30 9049 H 834.897 -2.48072 4.16756 0
M  V30 9050 H 830.776 -3.28094 3.23845 0
M  V30 9051 H 834.32 -2.35871 6.56514 0
M  V30 9052 H 830.217 -3.16197 5.62752 0
M  V30 9053 H 830.985 -2.8367 7.67772 0
M  V30 9054 N 833.648 -1.19017 -1.03309 0
M  V30 9055 C 834.58 -0.881847 -2.11556 0
M  V30 9056 C 835.593 0.123711 -1.62329 0
M  V30 9057 O 836.782 -0.105141 -1.7819 0
M  V30 9058 C 833.882 -0.297634 -3.37591 0
M  V30 9059 C 833.055 -1.35072 -4.16022 0
M  V30 9060 C 832.114 -0.780812 -5.20375 0
M  V30 9061 O 831.14 -1.45745 -5.50224 0
M  V30 9062 N 832.342 0.417964 -5.78993 0
M  V30 9063 H 835.107 -1.81359 -2.38598 0
M  V30 9064 H 832.668 -1.0916 -1.19565 0
M  V30 9065 H 834.66 0.097374 -4.04583 0
M  V30 9066 H 833.23 0.538299 -3.0793 0
M  V30 9067 H 832.45 -1.92074 -3.4424 0
M  V30 9068 H 833.738 -2.06044 -4.65213 0
M  V30 9069 H 833.136 0.985281 -5.57054 0
M  V30 9070 H 831.693 0.754802 -6.47415 0
M  V30 9071 N 835.127 1.22348 -0.993418 0
M  V30 9072 C 836.374 1.9111 -0.669568 0
M  V30 9073 C 836.702 1.77357 0.79843 0
M  V30 9074 O 835.957 1.13675 1.593 0
M  V30 9075 C 836.256 3.42477 -1.02197 0
M  V30 9076 C 835.922 3.7642 -2.48232 0
M  V30 9077 C 834.584 3.85395 -2.88139 0
M  V30 9078 C 836.936 3.9253 -3.42884 0
M  V30 9079 C 834.264 4.07918 -4.21687 0
M  V30 9080 C 836.616 4.16557 -4.76091 0
M  V30 9081 C 835.28 4.23757 -5.15739 0
M  V30 9082 H 834.55 0.699321 -0.245012 0
M  V30 9083 H 837.197 1.45102 -1.2497 0
M  V30 9084 H 835.502 3.90143 -0.359921 0
M  V30 9085 H 837.199 3.93935 -0.74942 0
M  V30 9086 H 833.789 3.70017 -2.16299 0
M  V30 9087 H 837.973 3.84974 -3.13224 0
M  V30 9088 H 833.229 4.11719 -4.51993 0
M  V30 9089 H 837.403 4.27966 -5.4938 0
M  V30 9090 H 835.03 4.40962 -6.19239 0
M  V30 9091 N 836.605 0.766683 1.37694 0
M  V30 9092 C 837.552 0.147725 2.30327 0
M  V30 9093 C 838.522 -0.695366 1.50844 0
M  V30 9094 O 839.707 -0.64878 1.79431 0
M  V30 9095 C 836.847 -0.72935 3.37305 0
M  V30 9096 C 835.96 0.129795 4.31805 0
M  V30 9097 C 835.095 -0.751511 5.25857 0
M  V30 9098 C 834.134 0.110475 6.12 0
M  V30 9099 N 833.271 -0.728522 6.9831 0
M  V30 9100 H 838.111 0.943204 2.82679 0
M  V30 9101 H 835.648 0.476736 1.3916 0
M  V30 9102 H 837.606 -1.25263 3.97951 0
M  V30 9103 H 836.236 -1.49048 2.86329 0
M  V30 9104 H 835.288 0.770829 3.72508 0
M  V30 9105 H 836.6 0.794923 4.92425 0
M  V30 9106 H 835.754 -1.34146 5.91684 0
M  V30 9107 H 834.493 -1.45034 4.65636 0
M  V30 9108 H 833.498 0.712999 5.45157 0
M  V30 9109 H 834.723 0.806557 6.74293 0
M  V30 9110 H 832.669 -1.41206 6.40622 0
M  V30 9111 H 832.586 -0.12058 7.55904 0
M  V30 9112 H 833.854 -1.30303 7.68532 0
M  V30 9113 N 838.083 -1.48885 0.516809 0
M  V30 9114 C 839.03 -2.29408 -0.253125 0
M  V30 9115 C 840 -1.36533 -0.945935 0
M  V30 9116 O 841.185 -1.65495 -0.949527 0
M  V30 9117 C 838.325 -3.19592 -1.30211 0
M  V30 9118 C 837.438 -4.27535 -0.61948 0
M  V30 9119 C 836.573 -5.04916 -1.65026 0
M  V30 9120 C 835.612 -6.04677 -0.950368 0
M  V30 9121 N 834.749 -6.75164 -1.92608 0
M  V30 9122 H 839.589 -2.94738 0.439744 0
M  V30 9123 H 837.126 -1.45311 0.2287 0
M  V30 9124 H 839.084 -3.70267 -1.92245 0
M  V30 9125 H 837.714 -2.56213 -1.96353 0
M  V30 9126 H 836.766 -3.80228 0.114505 0
M  V30 9127 H 838.078 -4.98752 -0.0693016 0
M  V30 9128 H 837.232 -5.59539 -2.34523 0
M  V30 9129 H 835.971 -4.33508 -2.23432 0
M  V30 9130 H 834.976 -5.4927 -0.241252 0
M  V30 9131 H 836.201 -6.78077 -0.372599 0
M  V30 9132 H 834.147 -6.06517 -2.49946 0
M  V30 9133 H 834.064 -7.4241 -1.42699 0
M  V30 9134 H 835.332 -7.34384 -2.61345 0
M  V30 9135 N 839.561 -0.251338 -1.55583 0
M  V30 9136 C 840.838 0.422729 -1.90977 0
M  V30 9137 C 841.218 1.75534 -1.17265 0
M  V30 9138 O 840.566 2.26632 -0.291588 0
M  V30 9139 C 840.776 0.586448 -3.44037 0
M  V30 9140 C 842.124 0.880294 -4.15375 0
M  V30 9141 O 843.148 0.672148 -3.49801 0
M  V30 9142 O 842.007 1.27694 -5.31372 0
M  V30 9143 H 839.101 0.227622 -0.795058 0
M  V30 9144 H 841.647 -0.295733 -1.67103 0
M  V30 9145 H 840.419 -0.352327 -3.89711 0
M  V30 9146 H 840.042 1.35528 -3.73789 0
M  V30 9147 N 841.039 1.57585 0.0217189 0
M  V30 9148 C 841.986 2.07036 1.02004 0
M  V30 9149 C 842.956 0.96106 1.35473 0
M  V30 9150 O 844.141 1.23211 1.45684 0
M  V30 9151 C 841.281 2.56056 2.31364 0
M  V30 9152 C 840.394 3.80805 2.03989 0
M  V30 9153 C 839.529 4.18409 3.27272 0
M  V30 9154 C 838.568 5.36055 2.95486 0
M  V30 9155 N 837.705 5.69056 4.11242 0
M  V30 9156 H 842.545 2.92073 0.591396 0
M  V30 9157 H 840.082 1.44403 0.280384 0
M  V30 9158 H 842.04 2.82548 3.06957 0
M  V30 9159 H 840.67 1.73925 2.71937 0
M  V30 9160 H 839.722 3.61354 1.1886 0
M  V30 9161 H 841.034 4.66512 1.76546 0
M  V30 9162 H 840.188 4.46068 4.11228 0
M  V30 9163 H 838.927 3.31369 3.57835 0
M  V30 9164 H 837.932 5.08142 2.09933 0
M  V30 9165 H 839.157 6.24755 2.66193 0
M  V30 9166 H 837.103 4.84974 4.41742 0
M  V30 9167 H 837.02 6.49288 3.87247 0
M  V30 9168 H 838.288 6.01295 4.96049 0
M  V30 9169 N 842.517 -0.29412 1.54831 0
M  V30 9170 C 843.48 -1.3461 1.85507 0
M  V30 9171 C 844.48 -1.43359 0.728343 0
M  V30 9172 O 845.67 -1.42875 0.996609 0
M  V30 9173 C 842.802 -2.73012 2.0415 0
M  V30 9174 H 843.995 -1.08651 2.79526 0
M  V30 9175 H 841.548 -0.531138 1.46999 0
M  V30 9176 H 842.283 -3.04183 1.12441 0
M  V30 9177 H 842.068 -2.68051 2.86166 0
M  V30 9178 H 843.558 -3.49061 2.29229 0
M  V30 9179 N 843.995 -1.47404 -0.557645 0
M  V30 9180 C 844.905 -1.62491 -1.69216 0
M  V30 9181 C 845.921 -0.507764 -1.66426 0
M  V30 9182 O 847.097 -0.775241 -1.85882 0
M  V30 9183 C 844.162 -1.63511 -3.05721 0
M  V30 9184 C 843.223 -2.86648 -3.1958 0
M  V30 9185 C 842.456 -2.87609 -4.49574 0
M  V30 9186 O 842.679 -1.97799 -5.35006 0
M  V30 9187 O 841.613 -3.79465 -4.67215 0
M  V30 9188 H 845.439 -2.58487 -1.59431 0
M  V30 9189 H 843.024 -1.30485 -0.7276 0
M  V30 9190 H 844.906 -1.66863 -3.86956 0
M  V30 9191 H 843.581 -0.706812 -3.15889 0
M  V30 9192 H 842.488 -2.8884 -2.37744 0
M  V30 9193 H 843.821 -3.7877 -3.14316 0
M  V30 9194 N 845.473 0.80434 -1.35529 0
M  V30 9195 C 846.889 1.10023 -1.15616 0
M  V30 9196 C 847.089 2.01478 0.0298535 0
M  V30 9197 O 846.145 2.42609 0.699778 0
M  V30 9198 C 847.458 1.72905 -2.46017 0
M  V30 9199 C 849.006 1.85315 -2.52245 0
M  V30 9200 C 849.481 2.51612 -3.82695 0
M  V30 9201 N 850.972 2.59095 -3.83958 0
M  V30 9202 C 851.707 3.11167 -4.81625 0
M  V30 9203 N 851.203 3.63659 -5.89681 0
M  V30 9204 N 852.996 3.09741 -4.6906 0
M  V30 9205 H 845.147 0.196428 -2.1149 0
M  V30 9206 H 847.41 0.149735 -0.9361 0
M  V30 9207 H 847.116 1.13171 -3.32994 0
M  V30 9208 H 846.99 2.72579 -2.6073 0
M  V30 9209 H 849.377 2.44191 -1.65695 0
M  V30 9210 H 849.458 0.844886 -2.41444 0
M  V30 9211 H 849.102 1.93385 -4.69643 0
M  V30 9212 H 849.032 3.5298 -3.90785 0
M  V30 9213 H 851.523 2.21908 -3.05884 0
M  V30 9214 H 851.836 4.01699 -6.60195 0
M  V30 9215 H 850.181 3.61852 -5.9337 0
M  V30 9216 H 853.372 2.68011 -3.83781 0
M  V30 9217 H 853.545 3.50016 -5.45338 0
M  V30 9218 N 846.951 1.19563 1.02676 0
M  V30 9219 C 848.367 0.948304 1.28372 0
M  V30 9220 C 848.567 -0.378096 1.97921 0
M  V30 9221 O 847.623 -1.1091 2.26838 0
M  V30 9222 C 848.936 2.12381 2.12873 0
M  V30 9223 C 850.484 2.16366 2.26174 0
M  V30 9224 C 850.959 3.33374 3.14048 0
M  V30 9225 N 852.45 3.33323 3.21636 0
M  V30 9226 C 853.185 4.20504 3.89825 0
M  V30 9227 N 852.681 5.17845 4.60227 0
M  V30 9228 N 854.474 4.08375 3.86246 0
M  V30 9229 H 846.625 2.04899 0.559485 0
M  V30 9230 H 848.888 0.89606 0.309484 0
M  V30 9231 H 848.594 3.08383 1.69094 0
M  V30 9232 H 848.468 2.09621 3.1359 0
M  V30 9233 H 850.855 1.20933 2.69182 0
M  V30 9234 H 850.936 2.23179 1.25 0
M  V30 9235 H 850.58 4.29087 2.71747 0
M  V30 9236 H 850.51 3.23798 4.15286 0
M  V30 9237 H 853.001 2.62863 2.71498 0
M  V30 9238 H 853.314 5.80712 5.09896 0
M  V30 9239 H 851.659 5.21791 4.59085 0
M  V30 9240 H 854.85 3.31606 3.30386 0
M  V30 9241 H 855.023 4.76532 4.39114 0
M  V30 9242 N 848.429 -1.21819 0.999893 0
M  V30 9243 C 849.359 -2.26282 0.576096 0
M  V30 9244 C 850.34 -1.65317 -0.400537 0
M  V30 9245 O 851.525 -1.92028 -0.28964 0
M  V30 9246 C 848.655 -3.47147 -0.103145 0
M  V30 9247 C 847.609 -4.20594 0.792745 0
M  V30 9248 C 846.935 -5.34696 -0.0198026 0
M  V30 9249 C 848.235 -4.78533 2.09293 0
M  V30 9250 H 849.929 -2.61984 1.4493 0
M  V30 9251 H 847.475 -1.25935 0.698316 0
M  V30 9252 H 849.428 -4.1939 -0.411068 0
M  V30 9253 H 848.152 -3.1056 -1.01094 0
M  V30 9254 H 846.811 -3.50194 1.08442 0
M  V30 9255 H 846.459 -4.94352 -0.928729 0
M  V30 9256 H 846.159 -5.84764 0.576661 0
M  V30 9257 H 847.683 -6.09752 -0.321659 0
M  V30 9258 H 849.097 -5.42682 1.8485 0
M  V30 9259 H 847.494 -5.38968 2.63881 0
M  V30 9260 H 848.564 -3.98197 2.76708 0
M  V30 9261 N 849.908 -0.773975 -1.37286 0
M  V30 9262 C 850.871 -0.167974 -2.28584 0
M  V30 9263 C 851.871 0.625662 -1.48129 0
M  V30 9264 O 853.061 0.448924 -1.68316 0
M  V30 9265 C 850.193 0.769364 -3.32105 0
M  V30 9266 H 851.386 -0.972806 -2.83684 0
M  V30 9267 H 848.939 -0.542335 -1.46589 0
M  V30 9268 H 849.674 1.59912 -2.82132 0
M  V30 9269 H 849.459 0.202419 -3.91577 0
M  V30 9270 H 850.949 1.18872 -4.00324 0
M  V30 9271 N 851.386 1.48609 -0.524698 0
M  V30 9272 C 852.616 2.06599 0.00741868 0
M  V30 9273 C 853.024 1.3823 1.29186 0
M  V30 9274 O 852.367 0.461962 1.77797 0
M  V30 9275 C 852.429 3.58184 0.307324 0
M  V30 9276 C 852.093 4.48391 -0.882864 0
M  V30 9277 C 853.09 4.88485 -1.77984 0
M  V30 9278 C 850.775 4.90367 -1.08837 0
M  V30 9279 C 852.769 5.69319 -2.86627 0
M  V30 9280 C 850.456 5.70972 -2.17794 0
M  V30 9281 C 851.454 6.10355 -3.06523 0
M  V30 9282 O 851.142 6.89343 -4.13596 0
M  V30 9283 H 850.874 0.675421 -0.0279846 0
M  V30 9284 H 853.428 1.92058 -0.7282 0
M  V30 9285 H 851.658 3.70818 1.09685 0
M  V30 9286 H 853.347 3.98318 0.780886 0
M  V30 9287 H 854.113 4.56682 -1.63299 0
M  V30 9288 H 849.992 4.592 -0.407035 0
M  V30 9289 H 853.536 5.99978 -3.55911 0
M  V30 9290 H 849.433 6.02188 -2.32465 0
M  V30 9291 H 850.201 7.07689 -4.1124 0
M  V30 9292 N 852.864 0.259585 1.55447 0
M  V30 9293 C 853.812 -0.6507 2.23313 0
M  V30 9294 C 854.806 -1.17014 1.22491 0
M  V30 9295 O 856.012 -1.12557 1.40467 0
M  V30 9296 H 852.387 -0.228354 0.71649 0
M  V30 9297 H 854.358 -0.0553039 2.98349 0
M  V30 9298 C 853.107 -1.83081 2.95596 0
M  V30 9299 H 852.43 -1.44027 3.72956 0
M  V30 9300 H 853.87 -2.44469 3.46426 0
M  V30 9301 C 852.329 -2.70976 2.00184 0
M  V30 9302 O 852.859 -3.70882 1.54304 0
M  V30 9303 N 851.065 -2.37813 1.67014 0
M  V30 9304 H 850.612 -1.5662 2.04519 0
M  V30 9305 H 850.57 -2.96896 1.03443 0
M  V30 9306 N 854.342 -1.57594 -0.0133615 0
M  V30 9307 C 855.252 -2.10991 -1.02566 0
M  V30 9308 C 856.268 -1.05208 -1.3859 0
M  V30 9309 O 857.444 -1.37034 -1.47593 0
M  V30 9310 C 854.509 -2.59165 -2.30292 0
M  V30 9311 C 853.57 -3.79495 -2.00704 0
M  V30 9312 C 852.803 -4.25361 -3.22341 0
M  V30 9313 O 853.026 -3.70645 -4.33565 0
M  V30 9314 O 851.96 -5.17649 -3.07121 0
M  V30 9315 H 855.786 -2.97678 -0.601806 0
M  V30 9316 H 853.371 -1.47598 -0.23135 0
M  V30 9317 H 855.253 -2.90409 -3.05354 0
M  V30 9318 H 853.928 -1.75582 -2.71942 0
M  V30 9319 H 852.835 -3.53245 -1.23161 0
M  V30 9320 H 854.168 -4.64109 -1.639 0
M  V30 9321 N 855.82 0.285905 -1.54985 0
M  V30 9322 C 856.73 1.37534 -1.90057 0
M  V30 9323 C 857.746 1.54707 -0.796348 0
M  V30 9324 O 858.922 1.69082 -1.09423 0
M  V30 9325 C 855.987 2.7167 -2.15398 0
M  V30 9326 C 855.048 2.63354 -3.39033 0
M  V30 9327 C 854.281 3.91093 -3.63155 0
M  V30 9328 O 854.504 4.91169 -2.90015 0
M  V30 9329 O 853.438 3.92075 -4.56685 0
M  V30 9330 H 857.264 1.10791 -2.8277 0
M  V30 9331 H 854.849 0.483303 -1.41367 0
M  V30 9332 H 856.731 3.51006 -2.33179 0
M  V30 9333 H 855.406 2.98226 -1.25868 0
M  V30 9334 H 854.313 1.82438 -3.26599 0
M  V30 9335 H 855.646 2.41749 -4.2874 0
M  V30 9336 N 857.298 1.47698 0.54982 0
M  V30 9337 C 858.23 1.56806 1.67166 0
M  V30 9338 C 859.243 0.453709 1.5635 0
M  V30 9339 O 860.432 0.723663 1.63173 0
M  V30 9340 C 857.532 1.4632 3.05686 0
M  V30 9341 C 856.705 2.72452 3.42182 0
M  V30 9342 C 855.764 2.55698 4.59897 0
M  V30 9343 O 854.79 3.29534 4.64108 0
M  V30 9344 N 855.992 1.64009 5.56849 0
M  V30 9345 H 858.757 2.53545 1.59797 0
M  V30 9346 H 856.318 1.44171 0.736635 0
M  V30 9347 H 858.31 1.32835 3.82279 0
M  V30 9348 H 856.88 0.57634 3.07241 0
M  V30 9349 H 856.1 3.00644 2.54964 0
M  V30 9350 H 857.388 3.56172 3.63344 0
M  V30 9351 H 856.786 1.03186 5.5621 0
M  V30 9352 H 855.343 1.56473 6.3274 0
M  V30 9353 N 858.776 -0.797141 1.35954 0
M  V30 9354 C 860.025 -1.54983 1.29086 0
M  V30 9355 C 860.338 -1.95167 -0.130003 0
M  V30 9356 O 861.544 -2.69596 -0.32101 0
M  V30 9357 C 860 -2.79738 2.26439 0
M  V30 9358 C 859.608 -2.46753 3.73921 0
M  V30 9359 C 861.352 -3.57733 2.28533 0
M  V30 9360 C 859.259 -3.67858 4.63071 0
M  V30 9361 H 858.189 -0.581766 0.479651 0
M  V30 9362 H 860.84 -0.87541 1.61273 0
M  V30 9363 H 859.222 -3.48939 1.87236 0
M  V30 9364 H 860.396 -1.85499 4.21814 0
M  V30 9365 H 858.711 -1.81985 3.74527 0
M  V30 9366 H 861.308 -4.47699 2.92351 0
M  V30 9367 H 861.651 -3.95754 1.29169 0
M  V30 9368 H 862.184 -2.95504 2.66313 0
M  V30 9369 H 858.923 -3.34939 5.63468 0
M  V30 9370 H 858.443 -4.28305 4.19898 0
M  V30 9371 H 860.122 -4.34977 4.78961 0
M  V30 9372 N 860.254 -1.20106 -1.0204 0
M  V30 9373 C 861.204 -0.914145 -2.08872 0
M  V30 9374 C 862.188 0.124503 -1.60418 0
M  V30 9375 O 863.38 -0.0823521 -1.76808 0
M  V30 9376 C 860.509 -0.463897 -3.40151 0
M  V30 9377 C 859.595 -1.53576 -3.95317 0
M  V30 9378 N 859.986 -2.75726 -4.24038 0
M  V30 9379 C 858.284 -1.40103 -4.23423 0
M  V30 9380 C 858.985 -3.44838 -4.68468 0
M  V30 9381 N 857.961 -2.72245 -4.70514 0
M  V30 9382 H 861.763 -1.8424 -2.28982 0
M  V30 9383 H 859.277 -1.0945 -1.19977 0
M  V30 9384 H 861.274 -0.239766 -4.1621 0
M  V30 9385 H 859.934 0.457779 -3.21457 0
M  V30 9386 H 860.945 -3.12412 -4.13061 0
M  V30 9387 H 857.622 -0.543472 -4.13948 0
M  V30 9388 H 859.012 -4.49342 -4.99541 0
M  V30 9389 N 861.732 1.21287 -1.00634 0
M  V30 9390 C 862.679 2.23705 -0.567876 0
M  V30 9391 C 863.649 1.61043 0.406753 0
M  V30 9392 O 864.834 1.88289 0.308499 0
M  V30 9393 C 861.974 3.44961 0.097996 0
M  V30 9394 C 861.087 4.22091 -0.919972 0
M  V30 9395 C 860.222 5.30718 -0.226222 0
M  V30 9396 C 859.261 5.99581 -1.23165 0
M  V30 9397 N 858.398 6.99821 -0.565278 0
M  V30 9398 H 863.238 2.60571 -1.44592 0
M  V30 9399 H 860.775 1.28049 -0.724006 0
M  V30 9400 H 862.733 4.1418 0.501097 0
M  V30 9401 H 861.363 3.08818 0.939744 0
M  V30 9402 H 860.415 3.52038 -1.44131 0
M  V30 9403 H 861.727 4.69476 -1.68505 0
M  V30 9404 H 860.881 6.06253 0.232917 0
M  V30 9405 H 859.62 4.84343 0.571247 0
M  V30 9406 H 858.625 5.22816 -1.70128 0
M  V30 9407 H 859.85 6.48042 -2.03022 0
M  V30 9408 H 857.796 6.55656 0.212508 0
M  V30 9409 H 857.713 7.4528 -1.26858 0
M  V30 9410 H 858.981 7.79393 -0.129389 0
M  V30 9411 N 863.21 0.781244 1.36873 0
M  V30 9412 C 864.457 0.349889 1.99454 0
M  V30 9413 C 864.785 -1.07621 1.62013 0
M  V30 9414 O 864.04 -1.75665 0.86258 0
M  V30 9415 C 864.339 0.45146 3.54537 0
M  V30 9416 C 864.005 1.83718 4.11775 0
M  V30 9417 C 862.667 2.21634 4.2712 0
M  V30 9418 C 865.019 2.7449 4.43063 0
M  V30 9419 C 862.347 3.49742 4.7106 0
M  V30 9420 C 864.699 4.02017 4.88431 0
M  V30 9421 C 863.363 4.39967 5.01982 0
M  V30 9422 H 862.633 0.128033 0.729855 0
M  V30 9423 H 865.28 0.997117 1.63493 0
M  V30 9424 H 863.585 -0.279288 3.90803 0
M  V30 9425 H 865.282 0.0988609 4.00878 0
M  V30 9426 H 861.872 1.53251 4.00265 0
M  V30 9427 H 866.056 2.46453 4.30783 0
M  V30 9428 H 861.312 3.79026 4.79738 0
M  V30 9429 H 865.486 4.72475 5.11605 0
M  V30 9430 H 863.113 5.39291 5.35788 0
M  V30 9431 N 864.689 -1.48329 0.532571 0
M  V30 9432 C 865.966 -1.95492 -0.0650985 0
M  V30 9433 C 866.346 -1.47485 -1.51034 0
M  V30 9434 O 865.694 -0.702516 -2.17433 0
M  V30 9435 C 865.904 -3.48957 0.0548341 0
M  V30 9436 C 867.252 -4.24475 -0.103115 0
M  V30 9437 O 868.276 -3.56195 -0.0188343 0
M  V30 9438 O 867.135 -5.45781 -0.280164 0
M  V30 9439 H 864.229 -0.823327 -0.0778603 0
M  V30 9440 H 866.775 -1.58839 0.597353 0
M  V30 9441 H 865.547 -3.76628 1.06148 0
M  V30 9442 H 865.17 -3.92311 -0.64635 0
M  V30 9443 N 866.167 -0.267825 -1.55308 0
M  V30 9444 C 867.114 0.6228 -2.22238 0
M  V30 9445 C 868.084 1.15536 -1.19334 0
M  V30 9446 O 869.269 1.206 -1.47852 0
M  V30 9447 C 866.409 1.80447 -2.94164 0
M  V30 9448 C 865.522 1.30646 -4.11771 0
M  V30 9449 C 864.657 2.44935 -4.7136 0
M  V30 9450 C 863.696 1.92099 -5.81175 0
M  V30 9451 N 862.833 2.99834 -6.34857 0
M  V30 9452 H 867.673 0.0453874 -2.97965 0
M  V30 9453 H 865.21 0.0106371 -1.47096 0
M  V30 9454 H 867.168 2.49896 -3.34078 0
M  V30 9455 H 865.798 2.35403 -2.20874 0
M  V30 9456 H 864.85 0.505314 -3.77029 0
M  V30 9457 H 866.162 0.879409 -4.90987 0
M  V30 9458 H 865.316 3.2239 -5.13955 0
M  V30 9459 H 864.055 2.90951 -3.91406 0
M  V30 9460 H 863.06 1.13122 -5.38037 0
M  V30 9461 H 864.285 1.47027 -6.62993 0
M  V30 9462 H 862.231 3.45246 -5.578 0
M  V30 9463 H 862.148 2.61524 -7.09324 0
M  V30 9464 H 863.416 3.77286 -6.82111 0
M  V30 9465 N 867.645 1.57599 0.00500368 0
M  V30 9466 C 868.577 2.04949 1.02609 0
M  V30 9467 C 869.59 0.966507 1.31006 0
M  V30 9468 O 870.779 1.2434 1.2807 0
M  V30 9469 C 867.879 2.43023 2.36206 0
M  V30 9470 C 867.052 3.73993 2.26821 0
M  V30 9471 C 866.111 3.9899 3.43065 0
M  V30 9472 O 865.137 4.69725 3.21477 0
M  V30 9473 N 866.339 3.46496 4.65748 0
M  V30 9474 H 869.104 2.93167 0.622336 0
M  V30 9475 H 866.665 1.60752 0.192488 0
M  V30 9476 H 868.657 2.56863 3.12735 0
M  V30 9477 H 867.227 1.60349 2.68341 0
M  V30 9478 H 866.447 3.70277 1.35235 0
M  V30 9479 H 867.735 4.59865 2.17719 0
M  V30 9480 H 867.133 2.89206 4.86186 0
M  V30 9481 H 865.69 3.65675 5.3956 0
M  V30 9482 N 869.123 -0.277682 1.55134 0
M  V30 9483 C 870.07 -1.34313 1.87693 0
M  V30 9484 C 871.04 -1.49298 0.727973 0
M  V30 9485 O 872.225 -1.6378 0.978807 0
M  V30 9486 C 869.365 -2.69922 2.15026 0
M  V30 9487 C 868.478 -2.63197 3.42565 0
M  V30 9488 C 867.613 -3.90955 3.59622 0
M  V30 9489 C 866.652 -3.78722 4.8087 0
M  V30 9490 N 865.789 -4.98303 4.94609 0
M  V30 9491 H 870.629 -1.05847 2.78569 0
M  V30 9492 H 868.166 -0.511469 1.37922 0
M  V30 9493 H 870.124 -3.48817 2.28872 0
M  V30 9494 H 868.754 -2.966 1.2739 0
M  V30 9495 H 867.806 -1.76038 3.37216 0
M  V30 9496 H 869.118 -2.50056 4.31594 0
M  V30 9497 H 868.272 -4.78291 3.7326 0
M  V30 9498 H 867.011 -4.06957 2.6877 0
M  V30 9499 H 866.016 -2.89769 4.67241 0
M  V30 9500 H 867.241 -3.64242 5.73153 0
M  V30 9501 H 865.187 -5.14725 4.06687 0
M  V30 9502 H 865.104 -4.87675 5.77676 0
M  V30 9503 H 866.372 -5.87225 5.12628 0
M  V30 9504 N 870.601 -1.47988 -0.541979 0
M  V30 9505 C 871.531 -1.64503 -1.65713 0
M  V30 9506 C 872.512 -0.494116 -1.62765 0
M  V30 9507 O 873.697 -0.725256 -1.80149 0
M  V30 9508 C 870.827 -1.67337 -3.04328 0
M  V30 9509 C 869.781 -2.81809 -3.2213 0
M  V30 9510 C 869.107 -2.69724 -4.61685 0
M  V30 9511 C 870.407 -4.23241 -3.06046 0
M  V30 9512 H 872.101 -2.5786 -1.52147 0
M  V30 9513 H 869.647 -1.24094 -0.730529 0
M  V30 9514 H 871.6 -1.77481 -3.82202 0
M  V30 9515 H 870.324 -0.705514 -3.18889 0
M  V30 9516 H 868.983 -2.71201 -2.46669 0
M  V30 9517 H 868.631 -1.70934 -4.73065 0
M  V30 9518 H 868.331 -3.4653 -4.74543 0
M  V30 9519 H 869.855 -2.81818 -5.41674 0
M  V30 9520 H 871.269 -4.34746 -3.73723 0
M  V30 9521 H 869.666 -5.00952 -3.30405 0
M  V30 9522 H 870.736 -4.40543 -2.02609 0
M  V30 9523 N 872.079 0.78992 -1.36375 0
M  V30 9524 C 873.309 1.57644 -1.33536 0
M  V30 9525 C 873.717 1.89007 0.0855075 0
M  V30 9526 O 873.06 1.50547 1.05267 0
M  V30 9527 C 873.122 2.92424 -2.09113 0
M  V30 9528 C 872.786 2.83793 -3.58205 0
M  V30 9529 C 873.783 2.56072 -4.52464 0
M  V30 9530 C 871.468 3.02386 -4.01084 0
M  V30 9531 C 873.462 2.47044 -5.87578 0
M  V30 9532 C 871.149 2.9298 -5.36289 0
M  V30 9533 C 872.147 2.65347 -6.29349 0
M  V30 9534 O 871.835 2.55935 -7.62071 0
M  V30 9535 H 871.567 0.495639 -0.459694 0
M  V30 9536 H 874.121 0.988354 -1.80058 0
M  V30 9537 H 872.351 3.53282 -1.57254 0
M  V30 9538 H 874.04 3.53693 -1.99139 0
M  V30 9539 H 874.806 2.4141 -4.2065 0
M  V30 9540 H 870.685 3.229 -3.29023 0
M  V30 9541 H 874.229 2.25396 -6.60184 0
M  V30 9542 H 870.126 3.07204 -5.67711 0
M  V30 9543 H 870.894 2.7142 -7.72187 0
M  V30 9544 N 873.557 1.20646 1.01402 0
M  V30 9545 C 874.787 1.04238 1.78376 0
M  V30 9546 C 875.195 -0.411327 1.84675 0
M  V30 9547 O 874.538 -1.29734 1.30057 0
M  V30 9548 C 874.6 1.55349 3.24202 0
M  V30 9549 C 874.264 3.03684 3.41504 0
M  V30 9550 C 875.261 4.01318 3.30514 0
M  V30 9551 C 872.946 3.42698 3.67237 0
M  V30 9552 C 874.94 5.35956 3.45007 0
M  V30 9553 C 872.627 4.77491 3.81373 0
M  V30 9554 C 873.625 5.73929 3.70263 0
M  V30 9555 O 873.313 7.06277 3.83963 0
M  V30 9556 H 873.045 0.366978 0.567718 0
M  V30 9557 H 875.599 1.60235 1.28506 0
M  V30 9558 H 873.829 0.93739 3.75166 0
M  V30 9559 H 875.518 1.34921 3.8282 0
M  V30 9560 H 876.284 3.72522 3.10568 0
M  V30 9561 H 872.163 2.68175 3.74971 0
M  V30 9562 H 875.707 6.11212 3.36252 0
M  V30 9563 H 871.604 5.05977 4.00821 0
M  V30 9564 H 872.372 7.13561 4.00965 0
M  V30 9565 N 875.035 -1.20752 1.01276 0
M  V30 9566 C 875.985 -2.21252 0.550602 0
M  V30 9567 C 876.969 -1.56052 -0.391985 0
M  V30 9568 O 878.161 -1.75682 -0.215575 0
M  V30 9569 C 875.29 -3.43112 -0.113601 0
M  V30 9570 C 874.376 -4.15485 0.850465 0
M  V30 9571 N 874.767 -4.64301 2.00643 0
M  V30 9572 C 873.065 -4.40932 0.670476 0
M  V30 9573 C 873.766 -5.197 2.61317 0
M  V30 9574 N 872.742 -5.09534 1.8941 0
M  V30 9575 H 876.544 -2.56657 1.43194 0
M  V30 9576 H 874.058 -1.36646 0.877597 0
M  V30 9577 H 876.055 -4.1433 -0.462211 0
M  V30 9578 H 874.715 -3.09213 -0.990825 0
M  V30 9579 H 875.726 -4.59637 2.38651 0
M  V30 9580 H 872.403 -4.17197 -0.159016 0
M  V30 9581 H 873.793 -5.67873 3.59123 0
M  V30 9582 N 876.513 -0.788492 -1.36457 0
M  V30 9583 C 877.476 -0.192209 -2.28393 0
M  V30 9584 C 878.476 0.609916 -1.48784 0
M  V30 9585 O 879.666 0.431046 -1.68783 0
M  V30 9586 C 876.798 0.734096 -3.32902 0
M  V30 9587 H 877.991 -1.00284 -2.82636 0
M  V30 9588 H 875.544 -0.557852 -1.46006 0
M  V30 9589 H 876.279 1.5691 -2.83813 0
M  V30 9590 H 876.064 0.160875 -3.9177 0
M  V30 9591 H 877.554 1.1462 -4.01562 0
M  V30 9592 N 877.991 1.48044 -0.54043 0
M  V30 9593 C 879.219 2.06895 -0.0145153 0
M  V30 9594 C 879.634 1.39552 1.27164 0
M  V30 9595 O 878.991 0.486454 1.75897 0
M  V30 9596 C 879.042 3.60934 0.202278 0
M  V30 9597 O 878.763 4.25749 -1.03293 0
M  V30 9598 C 880.264 4.36607 0.767387 0
M  V30 9599 H 877.484 0.66991 -0.0382368 0
M  V30 9600 H 880.028 1.90288 -0.749057 0
M  V30 9601 H 878.183 3.77111 0.886897 0
M  V30 9602 H 878.597 5.18048 -0.820167 0
M  V30 9603 H 880.071 5.45126 0.86845 0
M  V30 9604 H 880.548 4.01745 1.77477 0
M  V30 9605 H 881.154 4.25133 0.119002 0
M  V30 9606 N 879.47 0.276058 1.55163 0
M  V30 9607 C 880.417 -0.611006 2.22565 0
M  V30 9608 C 881.387 -1.14902 1.19945 0
M  V30 9609 O 882.572 -1.19815 1.48489 0
M  V30 9610 C 879.712 -1.78885 2.95117 0
M  V30 9611 C 878.825 -1.2846 4.12458 0
M  V30 9612 C 877.96 -2.42432 4.72652 0
M  V30 9613 C 876.999 -1.89015 5.82185 0
M  V30 9614 N 876.136 -2.96463 6.36439 0
M  V30 9615 H 880.976 -0.0295849 2.97985 0
M  V30 9616 H 878.513 -0.00283607 1.471 0
M  V30 9617 H 880.471 -2.48121 3.35398 0
M  V30 9618 H 879.101 -2.34229 2.22119 0
M  V30 9619 H 878.153 -0.485312 3.77292 0
M  V30 9620 H 879.465 -0.853358 4.91446 0
M  V30 9621 H 878.619 -3.19659 5.15658 0
M  V30 9622 H 877.358 -2.88872 3.92943 0
M  V30 9623 H 876.363 -1.10267 5.38629 0
M  V30 9624 H 877.588 -1.43509 6.63763 0
M  V30 9625 H 875.534 -3.42283 5.59623 0
M  V30 9626 H 875.451 -2.57759 7.10701 0
M  V30 9627 H 876.719 -3.73663 6.84103 0
M  V30 9628 N 880.948 -1.576 0.00335426 0
M  V30 9629 C 881.911 -2.07576 -0.971838 0
M  V30 9630 C 882.911 -0.985796 -1.27038 0
M  V30 9631 O 884.101 -1.24833 -1.21501 0
M  V30 9632 C 881.233 -2.52003 -2.29581 0
M  V30 9633 H 882.426 -2.95008 -0.539481 0
M  V30 9634 H 879.979 -1.54381 -0.244186 0
M  V30 9635 H 880.714 -1.67825 -2.77498 0
M  V30 9636 H 880.499 -3.31609 -2.09231 0
M  V30 9637 H 881.989 -2.90983 -2.99531 0
M  V30 9638 N 882.426 0.269451 -1.5528 0
M  V30 9639 C 883.359 1.3588 -1.83336 0
M  V30 9640 C 884.337 1.4739 -0.68666 0
M  V30 9641 O 885.521 1.63959 -0.930037 0
M  V30 9642 C 882.648 2.73483 -1.99812 0
M  V30 9643 C 881.694 2.79239 -3.22378 0
M  V30 9644 S 882.527 2.38125 -4.79642 0
M  V30 9645 C 883.683 3.77697 -4.99095 0
M  V30 9646 H 883.916 1.11878 -2.75446 0
M  V30 9647 H 881.449 0.469268 -1.47096 0
M  V30 9648 H 883.407 3.52725 -2.09989 0
M  V30 9649 H 882.068 2.94735 -1.08583 0
M  V30 9650 H 881.261 3.80243 -3.30804 0
M  V30 9651 H 880.863 2.08022 -3.1081 0
M  V30 9652 H 883.155 4.72999 -4.85055 0
M  V30 9653 H 884.098 3.7422 -6.01136 0
M  V30 9654 H 884.506 3.69164 -4.27058 0
M  V30 9655 N 883.904 1.48273 0.534124 0
M  V30 9656 C 885.132 1.59734 1.31501 0
M  V30 9657 C 885.547 0.256047 1.87056 0
M  V30 9658 O 884.904 -0.754086 1.66192 0
M  V30 9659 C 884.955 2.64072 2.46877 0
M  V30 9660 O 884.676 3.92995 1.93613 0
M  V30 9661 C 886.177 2.85933 3.38758 0
M  V30 9662 H 883.397 0.538703 0.40005 0
M  V30 9663 H 885.941 1.9407 0.644762 0
M  V30 9664 H 884.096 2.32606 3.09795 0
M  V30 9665 H 884.51 4.50203 2.69106 0
M  V30 9666 H 885.984 3.62749 4.16073 0
M  V30 9667 H 886.461 1.94603 3.93734 0
M  V30 9668 H 887.067 3.18687 2.81636 0
M  V30 9669 N 885.382 -0.782676 1.36792 0
M  V30 9670 C 886.332 -1.8855 1.28191 0
M  V30 9671 C 887.316 -1.59978 0.171984 0
M  V30 9672 O 888.508 -1.72295 0.405405 0
M  V30 9673 C 885.637 -3.25862 1.08021 0
M  V30 9674 C 884.723 -3.60422 2.2351 0
M  V30 9675 N 885.114 -3.66241 3.48857 0
M  V30 9676 C 883.412 -3.90523 2.15424 0
M  V30 9677 C 884.113 -3.97233 4.24948 0
M  V30 9678 N 883.089 -4.12567 3.53963 0
M  V30 9679 H 886.891 -1.91285 2.23131 0
M  V30 9680 H 884.405 -0.978554 1.29607 0
M  V30 9681 H 886.402 -4.04742 0.999458 0
M  V30 9682 H 885.062 -3.24399 0.139882 0
M  V30 9683 H 886.073 -3.48717 3.82906 0
M  V30 9684 H 882.75 -3.96945 1.29386 0
M  V30 9685 H 884.14 -4.08602 5.33379 0
M  V30 9686 N 886.86 -1.21182 -1.00761 0
M  V30 9687 C 888.107 -1.02746 -1.74498 0
M  V30 9688 C 888.435 0.439344 -1.89473 0
M  V30 9689 O 887.69 1.34232 -1.42409 0
M  V30 9690 C 887.989 -1.6667 -3.16158 0
M  V30 9691 C 887.655 -3.16515 -3.21137 0
M  V30 9692 C 886.317 -3.57405 -3.22203 0
M  V30 9693 C 888.669 -4.12495 -3.18587 0
M  V30 9694 C 885.997 -4.92786 -3.18401 0
M  V30 9695 C 888.349 -5.47833 -3.16326 0
M  V30 9696 C 887.013 -5.88124 -3.157 0
M  V30 9697 H 886.283 -0.375974 -0.638533 0
M  V30 9698 H 888.93 -1.50736 -1.18114 0
M  V30 9699 H 887.235 -1.10966 -3.75758 0
M  V30 9700 H 888.932 -1.49911 -3.71924 0
M  V30 9701 H 885.522 -2.83947 -3.21048 0
M  V30 9702 H 889.706 -3.81932 -3.16925 0
M  V30 9703 H 884.962 -5.23253 -3.16253 0
M  V30 9704 H 889.136 -6.21942 -3.13306 0
M  V30 9705 H 886.763 -6.92995 -3.12508 0
M  V30 9706 N 888.338 1.20213 -1.01915 0
M  V30 9707 C 889.566 1.93622 -0.729255 0
M  V30 9708 C 889.981 1.74923 0.710444 0
M  V30 9709 O 889.338 1.06484 1.48214 0
M  V30 9710 C 889.389 3.45651 -1.05865 0
M  V30 9711 O 889.11 3.63741 -2.44181 0
M  V30 9712 C 890.611 4.36201 -0.790176 0
M  V30 9713 H 887.831 0.615333 -0.267594 0
M  V30 9714 H 890.375 1.52633 -1.36101 0
M  V30 9715 H 888.53 3.84511 -0.47225 0
M  V30 9716 H 888.944 4.57702 -2.56143 0
M  V30 9717 H 890.418 5.41516 -1.07071 0
M  V30 9718 H 890.895 4.38334 0.275609 0
M  V30 9719 H 891.501 4.03008 -1.35885 0
M  V30 9720 N 889.816 0.795718 1.36037 0
M  V30 9721 C 891.093 0.294743 1.93367 0
M  V30 9722 C 891.473 -1.21406 1.72696 0
M  V30 9723 O 890.821 -2.00849 1.08959 0
M  V30 9724 C 891.031 0.694254 3.42025 0
M  V30 9725 C 892.379 0.677566 4.19159 0
M  V30 9726 O 893.403 0.635119 3.50492 0
M  V30 9727 O 892.262 0.726127 5.41655 0
M  V30 9728 H 889.356 0.0745459 0.823633 0
M  V30 9729 H 891.902 0.878685 1.4518 0
M  V30 9730 H 890.674 1.73458 3.50753 0
M  V30 9731 H 890.297 0.0845338 3.9751 0
M  V30 9732 N 891.294 -1.47756 0.548274 0
M  V30 9733 C 892.204 -2.33678 -0.207773 0
M  V30 9734 C 893.22 -1.47636 -0.920843 0
M  V30 9735 O 894.396 -1.80583 -0.89173 0
M  V30 9736 C 891.461 -3.24147 -1.23003 0
M  V30 9737 C 890.522 -4.26073 -0.52535 0
M  V30 9738 C 889.755 -5.12219 -1.4989 0
M  V30 9739 O 889.978 -5.0066 -2.73305 0
M  V30 9740 O 888.912 -5.93051 -1.02828 0
M  V30 9741 H 892.738 -2.99609 0.496794 0
M  V30 9742 H 890.323 -1.4617 0.308982 0
M  V30 9743 H 892.205 -3.80055 -1.82034 0
M  V30 9744 H 890.88 -2.60855 -1.91668 0
M  V30 9745 H 889.787 -3.7395 0.105927 0
M  V30 9746 H 891.12 -4.92054 0.119686 0
M  V30 9747 N 892.772 -0.284283 -1.55015 0
M  V30 9748 C 894.012 0.330942 -2.01703 0
M  V30 9749 C 894.376 1.52362 -1.16832 0
M  V30 9750 O 895.577 2.20909 -1.53142 0
M  V30 9751 C 893.848 0.694712 -3.50583 0
M  V30 9752 S 895.407 1.29517 -4.1925 0
M  V30 9753 H 892.225 0.10247 -0.703577 0
M  V30 9754 H 894.827 -0.408257 -1.9119 0
M  V30 9755 H 893.531 -0.182056 -4.09996 0
M  V30 9756 H 893.062 1.46513 -3.65099 0
M  V30 9757 H 895.077 2.58352 -4.23638 0
M  V30 9758 N 894.251 1.57596 -0.0117121 0
M  V30 9759 C 895.497 1.91355 0.671661 0
M  V30 9760 C 895.83 0.886818 1.72769 0
M  V30 9761 O 895.105 -0.0928813 1.94278 0
M  V30 9762 C 895.388 3.35657 1.30409 0
M  V30 9763 C 895.241 4.49055 0.2588 0
M  V30 9764 C 896.56 3.79595 2.22701 0
M  V30 9765 H 893.679 0.695893 0.242698 0
M  V30 9766 H 896.321 1.89887 -0.0654071 0
M  V30 9767 H 894.471 3.37038 1.9323 0
M  V30 9768 H 896.143 4.59809 -0.370631 0
M  V30 9769 H 894.386 4.31785 -0.417672 0
M  V30 9770 H 895.057 5.4701 0.740578 0
M  V30 9771 H 897.533 3.7984 1.69885 0
M  V30 9772 H 896.409 4.81292 2.63912 0
M  V30 9773 H 896.67 3.14118 3.11098 0
M  V30 9774 N 895.729 -0.261212 1.5542 0
M  V30 9775 C 896.676 -1.32315 1.89107 0
M  V30 9776 C 897.646 -1.48517 0.743767 0
M  V30 9777 O 898.831 -1.62733 0.996123 0
M  V30 9778 C 895.971 -2.67626 2.17877 0
M  V30 9779 C 895.084 -2.59549 3.45338 0
M  V30 9780 C 894.219 -3.87118 3.63748 0
M  V30 9781 C 893.258 -3.736 4.8486 0
M  V30 9782 N 892.395 -4.93029 4.99867 0
M  V30 9783 H 897.235 -1.02886 2.79675 0
M  V30 9784 H 894.772 -0.496812 1.38456 0
M  V30 9785 H 896.73 -3.4637 2.32559 0
M  V30 9786 H 895.36 -2.95232 1.30529 0
M  V30 9787 H 894.412 -1.72452 3.39064 0
M  V30 9788 H 895.724 -2.45465 4.34222 0
M  V30 9789 H 894.878 -4.74305 3.78312 0
M  V30 9790 H 893.617 -4.04084 2.73071 0
M  V30 9791 H 892.622 -2.84797 4.70288 0
M  V30 9792 H 893.847 -3.58143 5.76984 0
M  V30 9793 H 891.793 -5.10383 4.12123 0
M  V30 9794 H 891.71 -4.81521 5.82815 0
M  V30 9795 H 892.978 -5.81754 5.18828 0
M  V30 9796 N 897.207 -1.48554 -0.526253 0
M  V30 9797 C 898.154 -1.63354 -1.63046 0
M  V30 9798 C 899.124 -0.475509 -1.59148 0
M  V30 9799 O 900.309 -0.699453 -1.77517 0
M  V30 9800 C 897.449 -1.68271 -3.01295 0
M  V30 9801 C 896.562 -2.95207 -3.15399 0
M  V30 9802 C 895.697 -2.91262 -4.4423 0
M  V30 9803 C 894.736 -4.12886 -4.51876 0
M  V30 9804 N 893.873 -4.06996 -5.721 0
M  V30 9805 H 898.713 -2.57649 -1.49737 0
M  V30 9806 H 896.25 -1.27769 -0.728938 0
M  V30 9807 H 898.208 -1.69104 -3.81392 0
M  V30 9808 H 896.838 -0.774641 -3.13367 0
M  V30 9809 H 895.89 -3.04102 -2.2853 0
M  V30 9810 H 897.202 -3.85187 -3.1691 0
M  V30 9811 H 896.356 -2.90516 -5.32621 0
M  V30 9812 H 895.095 -1.99016 -4.45246 0
M  V30 9813 H 894.1 -4.13902 -3.61891 0
M  V30 9814 H 895.325 -5.06294 -4.52596 0
M  V30 9815 H 893.271 -3.17573 -5.74006 0
M  V30 9816 H 893.188 -4.90685 -5.75121 0
M  V30 9817 H 894.456 -4.10315 -6.62768 0
M  V30 9818 N 898.685 0.775411 -1.37205 0
M  V30 9819 C 899.915 1.56219 -1.352 0
M  V30 9820 C 900.323 1.89087 0.065456 0
M  V30 9821 O 899.666 1.51655 1.03665 0
M  V30 9822 C 899.728 2.9019 -2.12203 0
M  V30 9823 C 899.392 2.79978 -3.61195 0
M  V30 9824 C 900.389 2.51258 -4.55154 0
M  V30 9825 C 898.074 2.98115 -4.04268 0
M  V30 9826 C 900.068 2.40798 -5.90165 0
M  V30 9827 C 897.755 2.87276 -5.39366 0
M  V30 9828 C 898.753 2.58657 -6.32128 0
M  V30 9829 O 898.441 2.47838 -7.64743 0
M  V30 9830 H 898.173 0.490735 -0.464925 0
M  V30 9831 H 900.727 0.969201 -1.81096 0
M  V30 9832 H 898.957 3.51594 -1.60992 0
M  V30 9833 H 900.646 3.51561 -2.02879 0
M  V30 9834 H 901.412 2.36935 -4.23186 0
M  V30 9835 H 897.291 3.19392 -3.3243 0
M  V30 9836 H 900.835 2.18381 -6.62537 0
M  V30 9837 H 896.732 3.01166 -5.70937 0
M  V30 9838 H 897.5 2.63215 -7.75023 0
M  V30 9839 N 900.163 1.21714 1.00117 0
M  V30 9840 C 901.073 0.99597 2.12409 0
M  V30 9841 C 902.089 -0.0531431 1.73919 0
M  V30 9842 O 903.265 0.137757 2.00928 0
M  V30 9843 C 900.33 0.567593 3.42022 0
M  V30 9844 C 899.391 1.68936 3.94663 0
M  V30 9845 C 898.624 1.28133 5.1809 0
M  V30 9846 O 898.847 0.156574 5.70185 0
M  V30 9847 O 897.781 2.0947 5.64275 0
M  V30 9848 H 901.607 1.93657 2.33946 0
M  V30 9849 H 899.192 1.00236 1.10784 0
M  V30 9850 H 901.074 0.338664 4.20037 0
M  V30 9851 H 899.749 -0.34424 3.21864 0
M  V30 9852 H 898.656 1.97274 3.17858 0
M  V30 9853 H 899.989 2.57876 4.19238 0
M  V30 9854 N 901.641 -1.19671 1.02551 0
M  V30 9855 C 902.604 -2.20987 0.608055 0
M  V30 9856 C 903.604 -1.5745 -0.326534 0
M  V30 9857 O 904.794 -1.73827 -0.114003 0
M  V30 9858 C 901.926 -3.4072 -0.11074 0
M  V30 9859 H 903.119 -2.59434 1.50446 0
M  V30 9860 H 900.672 -1.3329 0.816307 0
M  V30 9861 H 901.407 -3.07787 -1.02165 0
M  V30 9862 H 901.192 -3.88069 0.560772 0
M  V30 9863 H 902.682 -4.15776 -0.389848 0
M  V30 9864 N 903.119 -0.802921 -1.35613 0
M  V30 9865 C 904.366 -0.381576 -1.98872 0
M  V30 9866 C 904.694 1.0503 -1.63704 0
M  V30 9867 O 903.949 1.7427 -0.890418 0
M  V30 9868 C 904.248 -0.507806 -3.53774 0
M  V30 9869 C 903.914 -1.90245 -4.088 0
M  V30 9870 C 902.576 -2.28401 -4.2354 0
M  V30 9871 C 904.928 -2.81504 -4.3864 0
M  V30 9872 C 902.256 -3.57192 -4.65436 0
M  V30 9873 C 904.608 -4.09737 -4.81973 0
M  V30 9874 C 903.272 -4.47897 -4.94919 0
M  V30 9875 H 902.542 -0.139629 -0.727726 0
M  V30 9876 H 905.189 -1.023 -1.61886 0
M  V30 9877 H 903.494 0.21708 -3.91198 0
M  V30 9878 H 905.191 -0.162625 -4.0067 0
M  V30 9879 H 901.781 -1.596 -3.97776 0
M  V30 9880 H 905.965 -2.53276 -4.26808 0
M  V30 9881 H 901.221 -3.86611 -4.73648 0
M  V30 9882 H 905.395 -4.80555 -5.04024 0
M  V30 9883 H 903.022 -5.47747 -5.27141 0
M  V30 9884 N 904.597 1.47463 -0.556102 0
M  V30 9885 C 905.527 2.32801 0.180497 0
M  V30 9886 C 906.508 1.43721 0.909848 0
M  V30 9887 O 907.693 1.72578 0.89053 0
M  V30 9888 C 904.823 3.25478 1.21167 0
M  V30 9889 C 903.777 4.2379 0.598846 0
M  V30 9890 C 903.103 5.05783 1.73457 0
M  V30 9891 C 904.403 5.20387 -0.446659 0
M  V30 9892 H 906.097 2.94636 -0.531956 0
M  V30 9893 H 903.643 1.41683 -0.257267 0
M  V30 9894 H 905.596 3.8402 1.73513 0
M  V30 9895 H 904.32 2.61695 1.95405 0
M  V30 9896 H 902.979 3.66472 0.0966897 0
M  V30 9897 H 902.627 4.38405 2.46596 0
M  V30 9898 H 902.327 5.72343 1.33031 0
M  V30 9899 H 903.851 5.67183 2.26131 0
M  V30 9900 H 905.265 5.73299 -0.00930019 0
M  V30 9901 H 903.662 5.95143 -0.769735 0
M  V30 9902 H 904.732 4.65932 -1.34295 0
M  V30 9903 N 906.075 0.2925 1.54862 0
M  V30 9904 C 907.023 -0.603186 2.24643 0
M  V30 9905 C 908.017 -1.1439 1.24946 0
M  V30 9906 O 909.223 -1.09552 1.42823 0
M  V30 9907 H 905.598 -0.213105 0.721173 0
M  V30 9908 H 907.569 0.00799278 2.98399 0
M  V30 9909 C 906.318 -1.76769 2.99413 0
M  V30 9910 H 905.641 -1.36084 3.75927 0
M  V30 9911 H 907.081 -2.37066 3.51533 0
M  V30 9912 C 905.54 -2.66669 2.05886 0
M  V30 9913 O 906.07 -3.67525 1.62136 0
M  V30 9914 N 904.276 -2.34216 1.7202 0
M  V30 9915 H 903.823 -1.52246 2.07795 0
M  V30 9916 H 903.781 -2.94635 1.09717 0
M  V30 9917 N 907.553 -1.57587 0.0200696 0
M  V30 9918 C 908.5 -2.09667 -0.964791 0
M  V30 9919 C 909.47 -0.99664 -1.32877 0
M  V30 9920 O 910.655 -1.2703 -1.42366 0
M  V30 9921 C 907.795 -2.62101 -2.24493 0
M  V30 9922 C 906.908 -3.8608 -1.93821 0
M  V30 9923 C 906.043 -4.26939 -3.16064 0
M  V30 9924 C 905.082 -5.43701 -2.81169 0
M  V30 9925 N 904.219 -5.79759 -3.9601 0
M  V30 9926 H 909.059 -2.93538 -0.513751 0
M  V30 9927 H 906.596 -1.45096 -0.242 0
M  V30 9928 H 908.554 -2.90587 -2.99358 0
M  V30 9929 H 907.184 -1.81074 -2.6723 0
M  V30 9930 H 906.236 -3.64378 -1.09237 0
M  V30 9931 H 907.548 -4.71028 -1.64115 0
M  V30 9932 H 906.702 -4.56814 -3.99257 0
M  V30 9933 H 905.441 -3.40739 -3.48924 0
M  V30 9934 H 904.446 -5.13529 -1.96387 0
M  V30 9935 H 905.671 -6.31593 -2.49535 0
M  V30 9936 H 903.617 -4.96516 -4.28729 0
M  V30 9937 H 903.534 -6.59327 -3.69896 0
M  V30 9938 H 904.802 -6.14235 -4.79933 0
M  V30 9939 N 909.032 0.252966 -1.55557 0
M  V30 9940 C 910.257 1.0038 -1.8149 0
M  V30 9941 C 910.682 1.78397 -0.596318 0
M  V30 9942 O 910.04 1.7551 0.454535 0
M  V30 9943 C 910.088 1.9222 -3.05096 0
M  V30 9944 O 909.192 3.01302 -2.81587 0
M  V30 9945 H 908.533 0.285949 -0.599274 0
M  V30 9946 H 911.063 0.275795 -2.02733 0
M  V30 9947 H 911.073 2.338 -3.34368 0
M  V30 9948 H 909.748 1.34852 -3.93431 0
M  V30 9949 H 908.325 2.63894 -2.63466 0
M  V30 9950 N 910.51 1.48831 0.518367 0
M  V30 9951 C 911.42 1.6692 1.64848 0
M  V30 9952 C 912.436 0.551711 1.65022 0
M  V30 9953 O 913.612 0.824251 1.83761 0
M  V30 9954 C 910.677 1.71559 3.01278 0
M  V30 9955 C 909.738 2.9502 3.11868 0
M  V30 9956 C 908.971 2.99428 4.4179 0
M  V30 9957 O 909.194 2.11914 5.29574 0
M  V30 9958 O 908.128 3.91719 4.5699 0
M  V30 9959 H 911.954 2.62623 1.52521 0
M  V30 9960 H 909.539 1.32368 0.692749 0
M  V30 9961 H 911.421 1.77064 3.82396 0
M  V30 9962 H 910.096 0.790316 3.13904 0
M  V30 9963 H 909.003 2.95042 2.30003 0
M  V30 9964 H 910.336 3.8697 3.04163 0
M  V30 9965 N 911.988 -0.768124 1.37614 0
M  V30 9966 C 912.898 -1.91249 1.35871 0
M  V30 9967 C 913.914 -1.7208 0.257786 0
M  V30 9968 O 915.09 -1.95253 0.493782 0
M  V30 9969 C 912.155 -3.26423 1.16829 0
M  V30 9970 C 911.216 -3.5822 2.36594 0
M  V30 9971 C 910.449 -4.86945 2.1845 0
M  V30 9972 O 910.672 -5.58258 1.17064 0
M  V30 9973 O 909.606 -5.17888 3.06718 0
M  V30 9974 H 913.432 -1.95671 2.32264 0
M  V30 9975 H 911.017 -0.911382 1.18382 0
M  V30 9976 H 912.899 -4.07269 1.08212 0
M  V30 9977 H 911.574 -3.22845 0.235123 0
M  V30 9978 H 910.481 -2.77594 2.50783 0
M  V30 9979 H 911.814 -3.66545 3.2849 0
M  V30 9980 N 913.466 -1.22244 -0.994698 0
M  V30 9981 C 914.712 -1.05752 -1.73747 0
M  V30 9982 C 915.067 0.403416 -1.88123 0
M  V30 9983 O 914.36 1.29511 -1.412 0
M  V30 9984 C 914.554 -1.70014 -3.14372 0
M  V30 9985 C 914.383 -3.22205 -3.1371 0
M  V30 9986 C 913.153 -3.91301 -3.19705 0
M  V30 9987 C 915.351 -4.19163 -2.98005 0
M  V30 9988 N 913.333 -5.30594 -3.08778 0
M  V30 9989 C 914.704 -5.45274 -2.95087 0
M  V30 9990 C 916.759 -4.10078 -2.82383 0
M  V30 9991 C 915.462 -6.63345 -2.78146 0
M  V30 9992 C 917.488 -5.27797 -2.66803 0
M  V30 9993 C 916.85 -6.52826 -2.6457 0
M  V30 9994 H 912.949 -0.441393 -0.64552 0
M  V30 9995 H 915.533 -1.54757 -1.18146 0
M  V30 9996 H 913.704 -1.23562 -3.68221 0
M  V30 9997 H 915.436 -1.46631 -3.77202 0
M  V30 9998 H 912.191 -3.42289 -3.27315 0
M  V30 9999 H 912.615 -6.0358 -3.06628 0
M  V30 10000 H 917.257 -3.14201 -2.82909 0
M  V30 10001 H 914.975 -7.59373 -2.76367 0
M  V30 10002 H 918.561 -5.22598 -2.557 0
M  V30 10003 H 917.441 -7.42383 -2.5266 0
M  V30 10004 N 914.944 1.19125 -1.03184 0
M  V30 10005 C 916.193 1.8821 -0.725264 0
M  V30 10006 C 916.506 1.80674 0.749411 0
M  V30 10007 O 917.712 2.45037 1.16915 0
M  V30 10008 C 916.168 3.37607 -1.24697 0
M  V30 10009 C 915.776 3.53693 -2.74964 0
M  V30 10010 C 917.52 4.12149 -1.01652 0
M  V30 10011 C 915.427 4.97001 -3.20538 0
M  V30 10012 H 914.357 0.704916 -0.267599 0
M  V30 10013 H 917.008 1.34663 -1.24652 0
M  V30 10014 H 915.39 3.90569 -0.653614 0
M  V30 10015 H 916.564 3.11046 -3.39981 0
M  V30 10016 H 914.879 2.92544 -2.96322 0
M  V30 10017 H 917.476 5.17837 -1.33226 0
M  V30 10018 H 917.819 4.16274 0.0465712 0
M  V30 10019 H 918.352 3.65334 -1.57403 0
M  V30 10020 H 915.091 4.9804 -4.26189 0
M  V30 10021 H 914.611 5.40398 -2.60251 0
M  V30 10022 H 916.29 5.65669 -3.14049 0
M  V30 10023 N 916.422 0.810101 1.35185 0
M  V30 10024 C 917.838 0.494269 1.51754 0
M  V30 10025 C 918.038 -0.983907 1.75845 0
M  V30 10026 O 917.094 -1.76882 1.80191 0
M  V30 10027 C 918.407 1.34268 2.69059 0
M  V30 10028 C 919.955 1.33848 2.82938 0
M  V30 10029 C 920.43 2.17109 4.03271 0
M  V30 10030 N 921.921 2.14664 4.10456 0
M  V30 10031 C 922.656 2.75843 5.02691 0
M  V30 10032 N 922.152 3.45962 6.00235 0
M  V30 10033 N 923.945 2.65465 4.95464 0
M  V30 10034 H 916.096 1.76736 1.17805 0
M  V30 10035 H 918.359 0.752429 0.576676 0
M  V30 10036 H 918.065 2.39183 2.57845 0
M  V30 10037 H 917.939 0.998362 3.63748 0
M  V30 10038 H 920.326 0.29716 2.936 0
M  V30 10039 H 920.407 1.72269 1.89095 0
M  V30 10040 H 920.051 3.21283 3.93369 0
M  V30 10041 H 919.981 1.76046 4.96302 0
M  V30 10042 H 922.472 1.63648 3.40628 0
M  V30 10043 H 922.785 3.89922 6.67219 0
M  V30 10044 H 921.13 3.50067 6.00398 0
M  V30 10045 H 924.321 2.1027 4.18215 0
M  V30 10046 H 924.494 3.13433 5.67154 0
M  V30 10047 N 917.9 -1.47166 0.563914 0
M  V30 10048 C 918.847 -2.30097 -0.180013 0
M  V30 10049 C 919.817 -1.39473 -0.902019 0
M  V30 10050 O 921.002 -1.68432 -0.896396 0
M  V30 10051 C 918.142 -3.23573 -1.19978 0
M  V30 10052 C 917.255 -4.2929 -0.483149 0
M  V30 10053 C 916.39 -5.0991 -1.48879 0
M  V30 10054 C 915.429 -6.07395 -0.757513 0
M  V30 10055 N 914.566 -6.8095 -1.71031 0
M  V30 10056 H 919.406 -2.93189 0.53329 0
M  V30 10057 H 916.943 -1.4451 0.274814 0
M  V30 10058 H 918.901 -3.76196 -1.80368 0
M  V30 10059 H 917.531 -2.6233 -1.88103 0
M  V30 10060 H 916.583 -3.79671 0.235414 0
M  V30 10061 H 917.895 -4.9872 0.0894075 0
M  V30 10062 H 917.049 -5.66717 -2.16603 0
M  V30 10063 H 915.788 -4.40397 -2.09527 0
M  V30 10064 H 914.793 -5.4976 -0.0663841 0
M  V30 10065 H 916.018 -6.78919 -0.156685 0
M  V30 10066 H 913.964 -6.14162 -2.30524 0
M  V30 10067 H 913.881 -7.46574 -1.19007 0
M  V30 10068 H 915.149 -7.42326 -2.37849 0
M  V30 10069 N 919.378 -0.300708 -1.54705 0
M  V30 10070 C 920.311 0.617513 -2.19686 0
M  V30 10071 C 921.289 1.1331 -1.16617 0
M  V30 10072 O 922.473 1.20135 -1.45258 0
M  V30 10073 C 919.6 1.84486 -2.84047 0
M  V30 10074 C 918.646 1.46253 -4.0064 0
M  V30 10075 S 919.479 0.518718 -5.32982 0
M  V30 10076 C 920.635 1.75387 -6.00825 0
M  V30 10077 H 920.868 0.0654548 -2.97228 0
M  V30 10078 H 918.401 -0.0848492 -1.54167 0
M  V30 10079 H 920.359 2.54921 -3.21754 0
M  V30 10080 H 919.02 2.36808 -2.06351 0
M  V30 10081 H 918.213 2.37648 -4.44454 0
M  V30 10082 H 917.815 0.838129 -3.64488 0
M  V30 10083 H 920.107 2.69448 -6.21614 0
M  V30 10084 H 921.05 1.35829 -6.9495 0
M  V30 10085 H 921.458 1.93045 -5.30466 0
M  V30 10086 N 920.856 1.57574 -0.0284266 0
M  V30 10087 C 921.786 2.1321 0.952039 0
M  V30 10088 C 922.767 1.04806 1.33977 0
M  V30 10089 O 923.952 1.32635 1.41851 0
M  V30 10090 C 921.082 2.65862 2.23461 0
M  V30 10091 C 920.036 3.79047 1.98765 0
M  V30 10092 C 919.362 4.18124 3.33281 0
M  V30 10093 C 920.662 5.05151 1.32739 0
M  V30 10094 H 922.356 2.95385 0.488705 0
M  V30 10095 H 919.902 1.42092 0.233628 0
M  V30 10096 H 921.855 3.03417 2.92431 0
M  V30 10097 H 920.579 1.80848 2.71959 0
M  V30 10098 H 919.238 3.41929 1.32213 0
M  V30 10099 H 918.886 3.30092 3.79537 0
M  V30 10100 H 918.586 4.94396 3.17563 0
M  V30 10101 H 920.11 4.58262 4.0352 0
M  V30 10102 H 921.524 5.40297 1.91708 0
M  V30 10103 H 919.921 5.86416 1.27421 0
M  V30 10104 H 920.991 4.83969 0.300261 0
M  V30 10105 N 922.334 -0.244713 1.55689 0
M  V30 10106 C 923.284 -1.30596 1.86892 0
M  V30 10107 C 924.268 -1.43388 0.729972 0
M  V30 10108 O 925.46 -1.46593 0.99194 0
M  V30 10109 C 922.589 -2.66099 2.16902 0
M  V30 10110 C 921.675 -2.57302 3.37129 0
M  V30 10111 N 922.066 -2.18139 4.56343 0
M  V30 10112 C 920.364 -2.88311 3.40283 0
M  V30 10113 C 921.065 -2.20028 5.38482 0
M  V30 10114 N 920.041 -2.59616 4.77599 0
M  V30 10115 H 923.843 -0.993699 2.76591 0
M  V30 10116 H 921.357 -0.453334 1.55944 0
M  V30 10117 H 923.354 -3.4269 2.37422 0
M  V30 10118 H 922.014 -2.9819 1.28502 0
M  V30 10119 H 923.025 -1.89647 4.81928 0
M  V30 10120 H 919.702 -3.24928 2.62161 0
M  V30 10121 H 921.092 -1.9207 6.43862 0
M  V30 10122 N 923.813 -1.49104 -0.510467 0
M  V30 10123 C 924.743 -1.67981 -1.62187 0
M  V30 10124 C 925.724 -0.528529 -1.6168 0
M  V30 10125 O 926.909 -0.763305 -1.7857 0
M  V30 10126 C 924.039 -1.73755 -3.0071 0
M  V30 10127 C 922.993 -2.88579 -3.1608 0
M  V30 10128 C 922.319 -2.79457 -4.5586 0
M  V30 10129 C 923.619 -4.29638 -2.97 0
M  V30 10130 H 925.313 -2.61029 -1.46643 0
M  V30 10131 H 922.859 -1.25615 -0.704042 0
M  V30 10132 H 924.812 -1.85548 -3.78352 0
M  V30 10133 H 923.536 -0.772996 -3.17321 0
M  V30 10134 H 922.195 -2.76372 -2.40861 0
M  V30 10135 H 921.843 -1.80929 -4.69333 0
M  V30 10136 H 921.543 -3.56518 -4.67086 0
M  V30 10137 H 923.067 -2.93245 -5.35574 0
M  V30 10138 H 924.481 -4.42575 -3.64418 0
M  V30 10139 H 922.878 -5.07847 -3.19704 0
M  V30 10140 H 923.948 -4.44741 -1.93219 0
M  V30 10141 N 925.291 0.760815 -1.38019 0
M  V30 10142 C 926.707 1.06289 -1.19058 0
M  V30 10143 C 926.907 2.01471 -0.0342603 0
M  V30 10144 O 925.963 2.44713 0.62224 0
M  V30 10145 C 927.276 1.6499 -2.51394 0
M  V30 10146 C 928.824 1.77196 -2.58013 0
M  V30 10147 C 929.299 2.3931 -3.90506 0
M  V30 10148 N 930.79 2.46749 -3.92007 0
M  V30 10149 C 931.525 2.95687 -4.91281 0
M  V30 10150 N 931.021 3.44715 -6.00952 0
M  V30 10151 N 932.814 2.94661 -4.78677 0
M  V30 10152 H 924.965 0.129045 -2.12008 0
M  V30 10153 H 927.228 0.119878 -0.94039 0
M  V30 10154 H 926.934 1.0252 -3.36426 0
M  V30 10155 H 926.808 2.64146 -2.6927 0
M  V30 10156 H 929.195 2.38796 -1.7338 0
M  V30 10157 H 929.276 0.767645 -2.4401 0
M  V30 10158 H 928.92 1.78346 -4.75558 0
M  V30 10159 H 928.85 3.40369 -4.01817 0
M  V30 10160 H 931.341 2.12064 -3.12789 0
M  V30 10161 H 931.654 3.80492 -6.72641 0
M  V30 10162 H 929.999 3.42791 -6.04582 0
M  V30 10163 H 933.19 2.55665 -3.92113 0
M  V30 10164 H 933.363 3.32489 -5.56197 0
M  V30 10165 N 926.769 1.22769 0.988202 0
M  V30 10166 C 927.716 1.00195 2.07917 0
M  V30 10167 C 928.686 -0.0779391 1.65917 0
M  V30 10168 O 929.871 0.0726005 1.90662 0
M  V30 10169 C 927.011 0.590853 3.40004 0
M  V30 10170 C 926.124 1.74202 3.9532 0
M  V30 10171 C 925.259 1.27846 5.15586 0
M  V30 10172 C 924.298 2.40087 5.63049 0
M  V30 10173 N 923.435 1.94744 6.74551 0
M  V30 10174 H 928.275 1.93581 2.26562 0
M  V30 10175 H 925.812 0.96448 1.11068 0
M  V30 10176 H 927.77 0.333653 4.15864 0
M  V30 10177 H 926.4 -0.306007 3.21346 0
M  V30 10178 H 925.452 2.11342 3.16289 0
M  V30 10179 H 926.764 2.58612 4.26522 0
M  V30 10180 H 925.918 0.978919 5.9875 0
M  V30 10181 H 924.657 0.404617 4.86019 0
M  V30 10182 H 923.662 2.70824 4.78471 0
M  V30 10183 H 924.887 3.27995 5.9464 0
M  V30 10184 H 922.833 1.09729 6.46758 0
M  V30 10185 H 922.75 2.72718 7.05096 0
M  V30 10186 H 924.018 1.67873 7.61209 0
M  V30 10187 N 928.247 -1.18576 1.03814 0
M  V30 10188 C 929.179 -2.21607 0.585055 0
M  V30 10189 C 930.192 -1.59125 -0.343963 0
M  V30 10190 O 931.381 -1.77959 -0.138882 0
M  V30 10191 C 928.481 -3.38495 -0.165602 0
M  V30 10192 C 927.654 -4.30557 0.770662 0
M  V30 10193 C 926.713 -5.26161 0.0637534 0
M  V30 10194 O 925.739 -5.64961 0.693359 0
M  V30 10195 N 926.941 -5.67882 -1.20377 0
M  V30 10196 H 929.706 -2.61104 1.47121 0
M  V30 10197 H 927.267 -1.33336 0.918316 0
M  V30 10198 H 929.259 -3.99474 -0.648292 0
M  V30 10199 H 927.829 -2.97711 -0.953268 0
M  V30 10200 H 927.049 -3.67221 1.43326 0
M  V30 10201 H 928.337 -4.88969 1.40667 0
M  V30 10202 H 927.735 -5.38409 -1.73586 0
M  V30 10203 H 926.292 -6.31069 -1.63079 0
M  V30 10204 N 929.725 -0.817259 -1.34754 0
M  V30 10205 C 930.655 -0.249769 -2.3216 0
M  V30 10206 C 931.636 0.630663 -1.57977 0
M  V30 10207 O 932.821 0.558719 -1.85989 0
M  V30 10208 C 929.951 0.593825 -3.42186 0
M  V30 10209 C 928.905 -0.188997 -4.27583 0
M  V30 10210 C 928.231 0.776979 -5.29025 0
M  V30 10211 C 929.531 -1.39401 -5.03354 0
M  V30 10212 H 931.225 -1.06359 -2.79872 0
M  V30 10213 H 928.771 -0.512894 -1.34556 0
M  V30 10214 H 930.724 1.00097 -4.09339 0
M  V30 10215 H 929.448 1.44064 -2.93109 0
M  V30 10216 H 928.107 -0.577445 -3.62024 0
M  V30 10217 H 927.755 1.61959 -4.76212 0
M  V30 10218 H 927.455 0.257448 -5.87036 0
M  V30 10219 H 928.979 1.18211 -5.99048 0
M  V30 10220 H 930.393 -1.06117 -5.63393 0
M  V30 10221 H 928.79 -1.84878 -5.70912 0
M  V30 10222 H 929.86 -2.17515 -4.33377 0
M  V30 10223 N 931.203 1.46865 -0.571711 0
M  V30 10224 C 932.133 2.3298 0.155795 0
M  V30 10225 C 933.114 1.44678 0.894553 0
M  V30 10226 O 934.299 1.73513 0.872176 0
M  V30 10227 C 931.429 3.26745 1.17708 0
M  V30 10228 C 930.383 4.24401 0.553863 0
M  V30 10229 C 929.709 5.07595 1.68083 0
M  V30 10230 C 931.009 5.19884 -0.501827 0
M  V30 10231 H 932.703 2.94056 -0.563176 0
M  V30 10232 H 930.249 1.41402 -0.27228 0
M  V30 10233 H 932.202 3.85838 1.6943 0
M  V30 10234 H 930.926 2.63753 1.92618 0
M  V30 10235 H 929.585 3.66554 0.057815 0
M  V30 10236 H 929.233 4.40996 2.41933 0
M  V30 10237 H 928.933 5.73722 1.26953 0
M  V30 10238 H 930.457 5.6955 2.20103 0
M  V30 10239 H 931.871 5.73257 -0.0701057 0
M  V30 10240 H 930.268 5.94293 -0.832815 0
M  V30 10241 H 931.338 4.64482 -1.39229 0
M  V30 10242 N 932.681 0.308908 1.54543 0
M  V30 10243 C 933.906 -0.303196 2.05172 0
M  V30 10244 C 934.331 -1.46133 1.18434 0
M  V30 10245 O 933.689 -1.803 0.190162 0
M  V30 10246 C 933.737 -0.729526 3.53143 0
M  V30 10247 O 932.841 -1.83348 3.69401 0
M  V30 10248 H 932.182 -0.0575066 0.661505 0
M  V30 10249 H 934.712 0.453055 1.99521 0
M  V30 10250 H 934.722 -1.01619 3.95143 0
M  V30 10251 H 933.397 0.117622 4.15734 0
M  V30 10252 H 931.974 -1.54676 3.39308 0
M  V30 10253 N 934.159 -1.57557 0.0367827 0
M  V30 10254 C 935.089 -2.13712 -0.940719 0
M  V30 10255 C 936.07 -1.05515 -1.33419 0
M  V30 10256 O 937.255 -1.33385 -1.41146 0
M  V30 10257 C 934.385 -2.67043 -2.22048 0
M  V30 10258 C 933.339 -3.80096 -1.96752 0
M  V30 10259 C 932.665 -4.19886 -3.31059 0
M  V30 10260 C 933.965 -5.05848 -1.30058 0
M  V30 10261 H 935.659 -2.9564 -0.473033 0
M  V30 10262 H 933.205 -1.42214 -0.226089 0
M  V30 10263 H 935.158 -3.04964 -2.90818 0
M  V30 10264 H 933.882 -1.82287 -2.70996 0
M  V30 10265 H 932.541 -3.42625 -1.30398 0
M  V30 10266 H 932.189 -3.32101 -3.77781 0
M  V30 10267 H 931.889 -4.96073 -3.14937 0
M  V30 10268 H 933.413 -4.60395 -4.01084 0
M  V30 10269 H 934.827 -5.41306 -1.8884 0
M  V30 10270 H 933.224 -5.87084 -1.24309 0
M  V30 10271 H 934.294 -4.84122 -0.274591 0
M  V30 10272 N 935.637 0.236453 -1.55816 0
M  V30 10273 C 936.865 0.980295 -1.82203 0
M  V30 10274 C 937.28 1.7854 -0.613926 0
M  V30 10275 O 936.637 1.77661 0.417491 0
M  V30 10276 C 936.688 1.90982 -3.06933 0
M  V30 10277 O 936.409 1.13728 -4.23081 0
M  V30 10278 C 937.91 2.76879 -3.46198 0
M  V30 10279 H 935.13 0.28799 -0.606055 0
M  V30 10280 H 937.674 0.256182 -2.02889 0
M  V30 10281 H 935.829 2.58808 -2.88266 0
M  V30 10282 H 936.243 1.76694 -4.93842 0
M  V30 10283 H 937.717 3.37831 -4.36548 0
M  V30 10284 H 938.194 3.48522 -2.67262 0
M  V30 10285 H 938.8 2.1449 -3.67252 0
M  V30 10286 N 937.115 1.49373 0.502552 0
M  V30 10287 C 938.063 1.66411 1.62512 0
M  V30 10288 C 939.057 0.530062 1.60893 0
M  V30 10289 O 940.263 0.709648 1.65421 0
M  V30 10290 H 936.638 0.524707 0.538689 0
M  V30 10291 H 938.609 2.60639 1.45293 0
M  V30 10292 C 937.358 1.74648 3.00655 0
M  V30 10293 H 936.681 2.61285 3.02606 0
M  V30 10294 H 938.121 1.90605 3.78742 0
M  V30 10295 C 936.58 0.490963 3.33303 0
M  V30 10296 O 937.11 -0.384039 3.9986 0
M  V30 10297 N 935.316 0.354375 2.88431 0
M  V30 10298 H 934.863 1.06742 2.34444 0
M  V30 10299 H 934.821 -0.484593 3.10643 0
M  V30 10300 N 938.594 -0.753485 1.38421 0
M  V30 10301 C 939.526 -1.87692 1.31547 0
M  V30 10302 C 940.539 -1.612 0.227671 0
M  V30 10303 O 941.728 -1.71778 0.485238 0
M  V30 10304 C 938.828 -3.23329 1.01545 0
M  V30 10305 C 938.001 -3.77324 2.21236 0
M  V30 10306 C 937.06 -4.91478 1.87977 0
M  V30 10307 O 936.086 -5.06106 2.60472 0
M  V30 10308 N 937.288 -5.74466 0.834796 0
M  V30 10309 H 940.053 -1.94099 2.28354 0
M  V30 10310 H 937.614 -0.933421 1.32283 0
M  V30 10311 H 939.606 -3.9724 0.773477 0
M  V30 10312 H 938.176 -3.12307 0.135334 0
M  V30 10313 H 937.396 -2.94978 2.61498 0
M  V30 10314 H 938.684 -4.10131 3.01115 0
M  V30 10315 H 938.082 -5.65217 0.233606 0
M  V30 10316 H 936.639 -6.48524 0.652703 0
M  V30 10317 N 940.072 -1.23292 -0.981677 0
M  V30 10318 C 941.312 -1.07597 -1.73788 0
M  V30 10319 C 941.676 0.380762 -1.88187 0
M  V30 10320 O 942.877 0.658866 -2.606 0
M  V30 10321 C 941.148 -1.78008 -3.09916 0
M  V30 10322 S 942.707 -1.77868 -4.01134 0
M  V30 10323 H 939.525 -0.385092 -0.597683 0
M  V30 10324 H 942.127 -1.56408 -1.17289 0
M  V30 10325 H 940.831 -2.83139 -2.97087 0
M  V30 10326 H 940.362 -1.29473 -3.71484 0
M  V30 10327 H 942.377 -0.836368 -4.89101 0
M  V30 10328 N 941.55 1.18024 -1.04442 0
M  V30 10329 C 942.797 1.88098 -0.750022 0
M  V30 10330 C 943.125 1.80583 0.722489 0
M  V30 10331 O 942.38 1.20329 1.54335 0
M  V30 10332 C 942.679 3.37834 -1.16631 0
M  V30 10333 C 942.345 3.65553 -2.63974 0
M  V30 10334 C 941.007 3.72827 -3.04226 0
M  V30 10335 C 943.359 3.77634 -3.59224 0
M  V30 10336 C 940.687 3.89666 -4.38608 0
M  V30 10337 C 943.039 3.9599 -4.9333 0
M  V30 10338 C 941.703 4.01501 -5.33248 0
M  V30 10339 H 940.973 0.6883 -0.274452 0
M  V30 10340 H 943.62 1.39671 -1.31012 0
M  V30 10341 H 941.925 3.88266 -0.525071 0
M  V30 10342 H 943.622 3.90402 -0.915827 0
M  V30 10343 H 940.212 3.6051 -2.31798 0
M  V30 10344 H 944.396 3.71342 -3.2927 0
M  V30 10345 H 939.652 3.92178 -4.69048 0
M  V30 10346 H 943.826 4.0428 -5.67037 0
M  V30 10347 H 941.453 4.14301 -6.37384 0
M  V30 10348 N 943.028 0.824394 1.34319 0
M  V30 10349 C 944.305 0.335692 1.92698 0
M  V30 10350 C 944.685 -1.17715 1.75232 0
M  V30 10351 O 944.033 -1.98493 1.13194 0
M  V30 10352 C 944.243 0.766647 3.40475 0
M  V30 10353 C 945.591 0.766323 4.17627 0
M  V30 10354 O 946.615 0.709321 3.49066 0
M  V30 10355 O 945.474 0.840856 5.39992 0
M  V30 10356 H 942.568 0.0919996 0.821867 0
M  V30 10357 H 945.114 0.909282 1.43283 0
M  V30 10358 H 943.886 1.80859 3.46995 0
M  V30 10359 H 943.509 0.168833 3.97241 0
M  V30 10360 N 944.506 -1.46559 0.579492 0
M  V30 10361 C 945.755 -2.01606 0.0615735 0
M  V30 10362 C 946.068 -1.45695 -1.30508 0
M  V30 10363 O 947.274 -1.92541 -1.91416 0
M  V30 10364 C 945.73 -3.59851 0.059496 0
M  V30 10365 C 945.338 -4.24757 1.42427 0
M  V30 10366 C 947.082 -4.22567 -0.404646 0
M  V30 10367 C 944.989 -5.75072 1.38009 0
M  V30 10368 H 943.919 -0.753754 0.0192491 0
M  V30 10369 H 946.57 -1.68326 0.73066 0
M  V30 10370 H 944.952 -3.90193 -0.675691 0
M  V30 10371 H 946.126 -4.06029 2.17893 0
M  V30 10372 H 944.441 -3.74121 1.82817 0
M  V30 10373 H 947.038 -5.32748 -0.456441 0
M  V30 10374 H 947.381 -3.91279 -1.42149 0
M  V30 10375 H 947.914 -3.96839 0.276376 0
M  V30 10376 H 944.653 -6.11014 2.37364 0
M  V30 10377 H 944.173 -5.96073 0.667583 0
M  V30 10378 H 945.852 -6.37724 1.09163 0
M  V30 10379 N 945.984 -0.3171 -1.54377 0
M  V30 10380 C 946.894 0.560867 -2.27797 0
M  V30 10381 C 947.91 1.13473 -1.31908 0
M  V30 10382 O 949.086 1.15608 -1.64914 0
M  V30 10383 C 946.151 1.70886 -3.0166 0
M  V30 10384 C 945.212 1.16745 -4.13121 0
M  V30 10385 C 944.445 2.26073 -4.83453 0
M  V30 10386 O 944.668 3.46292 -4.53252 0
M  V30 10387 O 943.602 1.91856 -5.70504 0
M  V30 10388 H 947.428 -0.035193 -3.0368 0
M  V30 10389 H 945.013 -0.0830062 -1.49169 0
M  V30 10390 H 946.895 2.37736 -3.47936 0
M  V30 10391 H 945.57 2.29122 -2.28658 0
M  V30 10392 H 944.477 0.464224 -3.71209 0
M  V30 10393 H 945.81 0.630307 -4.88147 0
M  V30 10394 N 947.462 1.57535 -0.0451378 0
M  V30 10395 C 948.372 2.14653 0.946646 0
M  V30 10396 C 949.388 1.10279 1.3459 0
M  V30 10397 O 950.564 1.42417 1.42405 0
M  V30 10398 C 947.629 2.67533 2.20515 0
M  V30 10399 C 946.69 3.86682 1.86481 0
M  V30 10400 C 945.923 4.37031 3.06332 0
M  V30 10401 O 946.146 3.86481 4.1951 0
M  V30 10402 O 945.08 5.28691 2.87697 0
M  V30 10403 H 948.906 2.99706 0.49091 0
M  V30 10404 H 946.491 1.48355 0.17641 0
M  V30 10405 H 948.373 3.01542 2.94365 0
M  V30 10406 H 947.048 1.85554 2.65238 0
M  V30 10407 H 945.955 3.57573 1.09966 0
M  V30 10408 H 947.288 4.69873 1.46562 0
M  V30 10409 N 948.94 -0.228186 1.55939 0
M  V30 10410 C 949.85 -1.30386 1.9503 0
M  V30 10411 C 950.866 -1.51645 0.853218 0
M  V30 10412 O 952.042 -1.64904 1.15623 0
M  V30 10413 C 949.107 -2.63489 2.25332 0
M  V30 10414 C 948.168 -2.5059 3.48573 0
M  V30 10415 C 947.401 -3.77345 3.7742 0
M  V30 10416 O 947.624 -4.80067 3.08045 0
M  V30 10417 O 946.558 -3.74855 4.70922 0
M  V30 10418 H 950.384 -1.0022 2.86687 0
M  V30 10419 H 947.969 -0.430503 1.43063 0
M  V30 10420 H 949.851 -3.4211 2.46046 0
M  V30 10421 H 948.526 -2.93349 1.3685 0
M  V30 10422 H 947.433 -1.70191 3.33145 0
M  V30 10423 H 948.766 -2.2567 4.37417 0
M  V30 10424 N 950.418 -1.49637 -0.494624 0
M  V30 10425 C 951.664 -1.59681 -1.25019 0
M  V30 10426 C 951.997 -0.285511 -1.9209 0
M  V30 10427 O 951.272 0.711398 -1.81023 0
M  V30 10428 C 951.555 -2.76058 -2.31222 0
M  V30 10429 C 951.408 -4.17002 -1.68611 0
M  V30 10430 C 952.727 -2.88056 -3.32734 0
M  V30 10431 H 949.846 -0.581209 -0.453172 0
M  V30 10432 H 952.488 -1.81944 -0.547391 0
M  V30 10433 H 950.638 -2.57207 -2.91164 0
M  V30 10434 H 952.31 -4.47385 -1.12447 0
M  V30 10435 H 950.553 -4.22352 -0.989991 0
M  V30 10436 H 951.224 -4.94316 -2.45674 0
M  V30 10437 H 953.7 -3.05237 -2.82789 0
M  V30 10438 H 952.576 -3.71151 -4.04399 0
M  V30 10439 H 952.837 -1.97676 -3.95445 0
M  V30 10440 N 951.896 0.746133 -1.38819 0
M  V30 10441 C 953.121 1.54049 -1.38866 0
M  V30 10442 C 953.546 1.88092 0.0176624 0
M  V30 10443 O 952.904 1.51113 1.00173 0
M  V30 10444 C 952.952 2.8116 -2.25791 0
M  V30 10445 O 952.056 3.76623 -1.68014 0
M  V30 10446 H 951.397 0.465648 -0.473359 0
M  V30 10447 H 953.927 0.921469 -1.82675 0
M  V30 10448 H 953.937 3.30009 -2.39913 0
M  V30 10449 H 952.612 2.55713 -3.27999 0
M  V30 10450 H 951.189 3.35352 -1.63074 0
M  V30 10451 N 953.375 1.23811 0.975125 0
M  V30 10452 C 954.322 1.02394 2.06843 0
M  V30 10453 C 955.292 -0.060337 1.6599 0
M  V30 10454 O 956.477 0.0928187 1.90574 0
M  V30 10455 C 953.617 0.626882 3.39359 0
M  V30 10456 C 952.73 1.78385 3.9345 0
M  V30 10457 C 951.865 1.33307 5.14201 0
M  V30 10458 C 950.904 2.46045 5.60471 0
M  V30 10459 N 950.041 2.01888 6.72448 0
M  V30 10460 H 954.881 1.95973 2.24496 0
M  V30 10461 H 952.418 0.976206 1.10039 0
M  V30 10462 H 954.376 0.377742 4.15486 0
M  V30 10463 H 953.006 -0.271907 3.21653 0
M  V30 10464 H 952.058 2.14685 3.14029 0
M  V30 10465 H 953.37 2.63122 4.23755 0
M  V30 10466 H 952.524 1.04237 5.97678 0
M  V30 10467 H 951.263 0.456143 4.85562 0
M  V30 10468 H 950.268 2.75884 4.75571 0
M  V30 10469 H 951.493 3.34283 5.91127 0
M  V30 10470 H 949.439 1.16583 6.45558 0
M  V30 10471 H 949.356 2.80182 7.02164 0
M  V30 10472 H 950.624 1.75937 7.59386 0
M  V30 10473 N 954.853 -1.17469 1.05066 0
M  V30 10474 C 956.083 -1.91343 0.779202 0
M  V30 10475 C 956.491 -1.76986 -0.668764 0
M  V30 10476 O 955.834 -1.1037 -1.46848 0
M  V30 10477 C 955.896 -3.42938 1.0786 0
M  V30 10478 C 955.56 -3.81076 2.52249 0
M  V30 10479 C 956.557 -3.84027 3.50456 0
M  V30 10480 C 954.242 -4.12076 2.87225 0
M  V30 10481 C 956.236 -4.17445 4.81683 0
M  V30 10482 C 953.923 -4.45163 4.18656 0
M  V30 10483 C 954.921 -4.47825 5.15696 0
M  V30 10484 O 954.609 -4.80133 6.44769 0
M  V30 10485 H 954.341 -0.613974 0.282863 0
M  V30 10486 H 956.895 -1.49907 1.40417 0
M  V30 10487 H 955.125 -3.84662 0.39653 0
M  V30 10488 H 956.814 -3.98071 0.793357 0
M  V30 10489 H 957.58 -3.60203 3.24775 0
M  V30 10490 H 953.459 -4.09176 2.12358 0
M  V30 10491 H 957.003 -4.19437 5.57421 0
M  V30 10492 H 952.9 -4.68449 4.44101 0
M  V30 10493 H 953.668 -4.97995 6.49571 0
M  V30 10494 N 956.331 -0.831506 -1.3388 0
M  V30 10495 C 957.263 -0.216908 -2.28171 0
M  V30 10496 C 958.276 0.598141 -1.51414 0
M  V30 10497 O 959.465 0.426416 -1.73332 0
M  V30 10498 C 956.565 0.713831 -3.31297 0
M  V30 10499 C 955.738 -0.0602673 -4.37358 0
M  V30 10500 C 954.797 0.792696 -5.20195 0
M  V30 10501 O 953.823 0.234564 -5.68716 0
M  V30 10502 N 955.025 2.11119 -5.40748 0
M  V30 10503 H 957.79 -1.02704 -2.81553 0
M  V30 10504 H 955.351 -0.689272 -1.46495 0
M  V30 10505 H 957.343 1.28925 -3.83615 0
M  V30 10506 H 955.913 1.42469 -2.78247 0
M  V30 10507 H 955.133 -0.817041 -3.8564 0
M  V30 10508 H 956.421 -0.592822 -5.05335 0
M  V30 10509 H 955.819 2.58828 -5.03016 0
M  V30 10510 H 954.376 2.63527 -5.96151 0
M  V30 10511 N 957.809 1.4625 -0.587256 0
M  V30 10512 C 958.719 2.34147 0.145744 0
M  V30 10513 C 959.735 1.50026 0.881376 0
M  V30 10514 O 960.911 1.82884 0.843539 0
M  V30 10515 C 957.976 3.27294 1.14366 0
M  V30 10516 C 957.037 4.27317 0.412199 0
M  V30 10517 C 956.27 5.16013 1.36257 0
M  V30 10518 O 956.493 5.0773 2.59934 0
M  V30 10519 O 955.427 5.95569 0.870681 0
M  V30 10520 H 959.253 2.98187 -0.576055 0
M  V30 10521 H 956.838 1.45299 -0.347628 0
M  V30 10522 H 958.72 3.84747 1.71894 0
M  V30 10523 H 957.395 2.65845 1.84684 0
M  V30 10524 H 956.302 3.73538 -0.205036 0
M  V30 10525 H 957.635 4.91564 -0.250104 0
M  V30 10526 N 959.287 0.325282 1.54207 0
M  V30 10527 C 960.517 -0.278285 2.04717 0
M  V30 10528 C 960.925 -1.46198 1.20095 0
M  V30 10529 O 960.268 -1.82319 0.224813 0
M  V30 10530 C 960.33 -0.774387 3.51061 0
M  V30 10531 C 959.994 0.287225 4.56096 0
M  V30 10532 C 960.991 1.12388 5.07607 0
M  V30 10533 C 958.676 0.435908 5.00405 0
M  V30 10534 C 960.67 2.09492 6.0199 0
M  V30 10535 C 958.357 1.41037 5.94602 0
M  V30 10536 C 959.355 2.23834 6.45281 0
M  V30 10537 O 959.043 3.19625 7.37628 0
M  V30 10538 H 958.775 -0.0608309 0.673257 0
M  V30 10539 H 961.329 0.470049 1.99949 0
M  V30 10540 H 959.559 -1.57366 3.53232 0
M  V30 10541 H 961.248 -1.29649 3.84637 0
M  V30 10542 H 962.014 1.02 4.74153 0
M  V30 10543 H 957.893 -0.198668 4.60572 0
M  V30 10544 H 961.437 2.74157 6.4147 0
M  V30 10545 H 957.334 1.51487 6.27473 0
M  V30 10546 H 958.102 3.14884 7.55507 0
M  V30 10547 N 960.765 -1.57509 0.0534917 0
M  V30 10548 C 961.993 -1.97098 -0.629298 0
M  V30 10549 C 962.408 -0.931128 -1.64242 0
M  V30 10550 O 961.765 0.0843866 -1.82305 0
M  V30 10551 C 961.816 -3.36767 -1.31415 0
M  V30 10552 O 961.537 -4.36766 -0.341599 0
M  V30 10553 C 963.038 -3.91127 -2.08649 0
M  V30 10554 H 960.258 -0.648611 -0.171886 0
M  V30 10555 H 962.802 -2.04145 0.120479 0
M  V30 10556 H 960.957 -3.30863 -2.01515 0
M  V30 10557 H 961.371 -5.1788 -0.830715 0
M  V30 10558 H 962.845 -4.91129 -2.51985 0
M  V30 10559 H 963.322 -3.26679 -2.9356 0
M  V30 10560 H 963.928 -4.00376 -1.43456 0
M  V30 10561 N 962.243 0.219913 -1.56058 0
M  V30 10562 C 963.191 1.29215 -1.93407 0
M  V30 10563 C 964.185 1.48434 -0.816307 0
M  V30 10564 O 965.391 1.49589 -1.00115 0
M  V30 10565 H 961.766 0.433256 -0.614649 0
M  V30 10566 H 963.737 0.949977 -2.82875 0
M  V30 10567 C 962.486 2.63501 -2.26854 0
M  V30 10568 H 961.809 2.4952 -3.12377 0
M  V30 10569 H 963.249 3.37334 -2.56869 0
M  V30 10570 C 961.708 3.18634 -1.09425 0
M  V30 10571 O 962.238 4.00117 -0.356243 0
M  V30 10572 N 960.444 2.7703 -0.877642 0
M  V30 10573 H 959.991 2.10875 -1.47951 0
M  V30 10574 H 959.949 3.1426 -0.0936792 0
M  V30 10575 N 963.721 1.49897 0.486681 0
M  V30 10576 C 964.631 1.70379 1.6127 0
M  V30 10577 C 965.647 0.58659 1.63814 0
M  V30 10578 O 966.823 0.863044 1.81971 0
M  V30 10579 C 963.888 1.77911 2.97571 0
M  V30 10580 C 962.949 3.01569 3.0554 0
M  V30 10581 C 962.182 3.08732 4.35339 0
M  V30 10582 O 962.405 2.23099 5.2496 0
M  V30 10583 O 961.339 4.01325 4.48578 0
M  V30 10584 H 965.165 2.65799 1.46916 0
M  V30 10585 H 962.75 1.33808 0.664516 0
M  V30 10586 H 964.632 1.85135 3.78554 0
M  V30 10587 H 963.307 0.856722 3.12157 0
M  V30 10588 H 962.214 2.99854 2.23693 0
M  V30 10589 H 963.547 3.93335 2.95886 0
M  V30 10590 N 965.199 -0.738761 1.39212 0
M  V30 10591 C 966.129 -1.86602 1.40364 0
M  V30 10592 C 967.11 -1.67984 0.267495 0
M  V30 10593 O 968.295 -1.88358 0.472765 0
M  V30 10594 C 965.425 -3.24308 1.24265 0
M  V30 10595 C 964.379 -3.57557 2.35239 0
M  V30 10596 C 963.705 -4.94159 2.04233 0
M  V30 10597 C 965.005 -3.60914 3.77543 0
M  V30 10598 H 966.699 -1.85896 2.34698 0
M  V30 10599 H 964.245 -0.892959 1.1297 0
M  V30 10600 H 966.198 -4.02838 1.23692 0
M  V30 10601 H 964.922 -3.25531 0.263974 0
M  V30 10602 H 963.581 -2.81354 2.35022 0
M  V30 10603 H 963.229 -4.91959 1.04813 0
M  V30 10604 H 962.929 -5.17373 2.78567 0
M  V30 10605 H 964.453 -5.7505 2.05303 0
M  V30 10606 H 965.867 -4.29528 3.79709 0
M  V30 10607 H 964.264 -3.95644 4.51205 0
M  V30 10608 H 965.334 -2.60803 4.08791 0
M  V30 10609 N 966.677 -1.24326 -0.968545 0
M  V30 10610 C 967.609 -0.992749 -2.06584 0
M  V30 10611 C 968.622 0.0374902 -1.62757 0
M  V30 10612 O 969.811 -0.199448 -1.77382 0
M  V30 10613 C 966.911 -0.476165 -3.35538 0
M  V30 10614 C 966.084 -1.56934 -4.08277 0
M  V30 10615 C 965.143 -1.05555 -5.15504 0
M  V30 10616 O 964.169 -1.74707 -5.41725 0
M  V30 10617 N 965.371 0.110465 -5.80395 0
M  V30 10618 H 968.136 -1.93752 -2.28649 0
M  V30 10619 H 965.697 -1.15344 -1.13611 0
M  V30 10620 H 967.689 -0.117223 -4.0453 0
M  V30 10621 H 966.259 0.374315 -3.10351 0
M  V30 10622 H 965.479 -2.10051 -3.33575 0
M  V30 10623 H 966.767 -2.30415 -4.53637 0
M  V30 10624 H 966.165 0.688614 -5.61493 0
M  V30 10625 H 964.722 0.41056 -6.50506 0
M  V30 10626 N 968.156 1.1691 -1.05688 0
M  V30 10627 C 969.066 2.24735 -0.67315 0
M  V30 10628 C 970.082 1.71252 0.308043 0
M  V30 10629 O 971.258 2.00772 0.158889 0
M  V30 10630 C 968.323 3.4665 -0.059026 0
M  V30 10631 C 967.384 4.15198 -1.0913 0
M  V30 10632 C 966.617 5.31292 -0.50639 0
M  V30 10633 O 966.84 5.663 0.682692 0
M  V30 10634 O 965.774 5.88923 -1.2431 0
M  V30 10635 H 969.6 2.59855 -1.57191 0
M  V30 10636 H 967.185 1.24306 -0.828751 0
M  V30 10637 H 969.067 4.20455 0.282018 0
M  V30 10638 H 967.742 3.13316 0.813304 0
M  V30 10639 H 966.649 3.43389 -1.48442 0
M  V30 10640 H 967.982 4.52571 -1.93495 0
M  V30 10641 N 969.634 0.838594 1.33437 0
M  V30 10642 C 970.862 0.447644 2.01999 0
M  V30 10643 C 971.277 -0.951053 1.63096 0
M  V30 10644 O 970.634 -1.61802 0.844169 0
M  V30 10645 C 970.685 0.558378 3.57162 0
M  V30 10646 O 970.406 1.90196 3.94661 0
M  V30 10647 C 971.907 0.164348 4.42995 0
M  V30 10648 H 969.127 0.177736 0.647032 0
M  V30 10649 H 971.671 1.13109 1.70372 0
M  V30 10650 H 969.826 -0.0771563 3.87323 0
M  V30 10651 H 970.24 1.88729 4.89369 0
M  V30 10652 H 971.714 0.292876 5.51222 0
M  V30 10653 H 972.191 -0.893713 4.30011 0
M  V30 10654 H 972.797 0.774306 4.18192 0
M  V30 10655 N 971.112 -1.45937 0.595003 0
M  V30 10656 C 972.042 -2.33198 -0.11871 0
M  V30 10657 C 973.023 -1.46083 -0.871423 0
M  V30 10658 O 974.208 -1.74879 -0.844461 0
M  V30 10659 C 971.338 -3.28576 -1.12495 0
M  V30 10660 C 970.292 -4.25229 -0.486275 0
M  V30 10661 C 969.618 -5.10204 -1.59986 0
M  V30 10662 C 970.918 -5.19019 0.584473 0
M  V30 10663 H 972.612 -2.93122 0.609886 0
M  V30 10664 H 970.158 -1.40951 0.294742 0
M  V30 10665 H 972.111 -3.88485 -1.6327 0
M  V30 10666 H 970.835 -2.66784 -1.88398 0
M  V30 10667 H 969.494 -3.666 0.000507962 0
M  V30 10668 H 969.142 -4.44789 -2.34886 0
M  V30 10669 H 968.842 -5.75669 -1.1781 0
M  V30 10670 H 970.366 -5.7298 -2.11014 0
M  V30 10671 H 971.78 -5.73073 0.161297 0
M  V30 10672 H 970.177 -5.92893 0.927256 0
M  V30 10673 H 971.247 -4.62208 1.46601 0
M  V30 10674 N 972.59 -0.333456 -1.54032 0
M  V30 10675 C 974.001 0.15256 -1.86076 0
M  V30 10676 C 974.352 1.50819 -1.25492 0
M  V30 10677 O 973.477 2.08903 -0.564665 0
M  V30 10678 C 974.072 0.283599 -3.37611 0
M  V30 10679 C 972.631 0.713841 -3.69569 0
M  V30 10680 C 971.778 -0.158515 -2.76847 0
M  V30 10681 H 974.729 -0.553404 -1.48738 0
M  V30 10682 H 974.75 1.11284 -3.63863 0
M  V30 10683 H 974.262 -0.703193 -3.81676 0
M  V30 10684 H 972.363 1.71002 -3.31042 0
M  V30 10685 H 972.476 0.510731 -4.7637 0
M  V30 10686 H 970.84 0.367531 -2.52034 0
M  V30 10687 H 971.623 -1.14226 -3.2374 0
M  V30 10688 N 974.068 1.57479 -0.061844 0
M  V30 10689 C 975 2.09116 0.938245 0
M  V30 10690 C 976.013 1.0212 1.26788 0
M  V30 10691 O 977.202 1.2966 1.22681 0
M  V30 10692 C 974.302 2.52822 2.25686 0
M  V30 10693 C 973.475 3.83277 2.10755 0
M  V30 10694 C 972.534 4.13182 3.25833 0
M  V30 10695 O 971.56 4.82937 3.01265 0
M  V30 10696 N 972.762 3.65938 4.50633 0
M  V30 10697 H 975.527 2.95543 0.497433 0
M  V30 10698 H 973.088 1.61423 0.124134 0
M  V30 10699 H 975.08 2.69896 3.01559 0
M  V30 10700 H 973.65 1.71586 2.61299 0
M  V30 10701 H 972.87 3.7568 1.19409 0
M  V30 10702 H 974.158 4.68686 1.98018 0
M  V30 10703 H 973.556 3.09566 4.73482 0
M  V30 10704 H 972.113 3.8823 5.23565 0
M  V30 10705 N 975.546 -0.211634 1.56173 0
M  V30 10706 C 976.493 -1.26231 1.93221 0
M  V30 10707 C 977.463 -1.46076 0.790641 0
M  V30 10708 O 978.648 -1.59482 1.04739 0
M  V30 10709 C 975.788 -2.60559 2.26281 0
M  V30 10710 C 974.901 -2.48431 3.5342 0
M  V30 10711 C 974.036 -3.7535 3.7588 0
M  V30 10712 C 973.075 -3.57985 4.96501 0
M  V30 10713 N 972.212 -4.76877 5.15299 0
M  V30 10714 H 977.052 -0.939367 2.82807 0
M  V30 10715 H 974.589 -0.452511 1.39967 0
M  V30 10716 H 976.547 -3.38796 2.43461 0
M  V30 10717 H 975.177 -2.9093 1.39855 0
M  V30 10718 H 974.229 -1.61577 3.44379 0
M  V30 10719 H 975.541 -2.31526 4.41811 0
M  V30 10720 H 974.695 -4.62029 3.9321 0
M  V30 10721 H 973.434 -3.95191 2.85788 0
M  V30 10722 H 972.439 -2.69691 4.79111 0
M  V30 10723 H 973.664 -3.39605 5.88086 0
M  V30 10724 H 971.61 -4.97013 4.28152 0
M  V30 10725 H 971.527 -4.62735 5.9784 0
M  V30 10726 H 972.795 -5.64954 5.37073 0
M  V30 10727 N 977.024 -1.50153 -0.478725 0
M  V30 10728 C 977.957 -1.63089 -1.59616 0
M  V30 10729 C 978.935 -0.479211 -1.55378 0
M  V30 10730 O 980.119 -0.697715 -1.75112 0
M  V30 10731 C 977.246 -1.60643 -2.9818 0
M  V30 10732 C 976.292 -2.81279 -3.206 0
M  V30 10733 S 977.125 -4.42681 -3.0132 0
M  V30 10734 C 978.281 -4.42915 -4.42241 0
M  V30 10735 H 978.514 -2.57612 -1.48402 0
M  V30 10736 H 976.047 -1.39321 -0.665513 0
M  V30 10737 H 978.005 -1.59917 -3.7807 0
M  V30 10738 H 976.666 -0.673684 -3.0679 0
M  V30 10739 H 975.859 -2.7585 -4.21809 0
M  V30 10740 H 975.461 -2.79533 -2.4847 0
M  V30 10741 H 977.753 -4.16007 -5.34737 0
M  V30 10742 H 978.696 -5.44477 -4.52715 0
M  V30 10743 H 979.104 -3.72715 -4.23962 0
M  V30 10744 N 978.502 0.731368 -1.39602 0
M  V30 10745 C 979.749 1.491 -1.37024 0
M  V30 10746 C 980.077 1.94473 0.0326423 0
M  V30 10747 O 979.332 1.6737 1.01418 0
M  V30 10748 C 979.631 2.74224 -2.29208 0
M  V30 10749 C 979.297 2.477 -3.7677 0
M  V30 10750 C 977.959 2.40175 -4.16976 0
M  V30 10751 C 980.311 2.25098 -4.70086 0
M  V30 10752 C 977.639 2.08095 -5.48556 0
M  V30 10753 C 979.991 1.94534 -6.01946 0
M  V30 10754 C 978.655 1.85481 -6.41212 0
M  V30 10755 H 977.925 0.545595 -0.501405 0
M  V30 10756 H 980.572 0.839127 -1.72136 0
M  V30 10757 H 978.877 3.44171 -1.87225 0
M  V30 10758 H 980.574 3.32264 -2.24504 0
M  V30 10759 H 977.164 2.54436 -3.44906 0
M  V30 10760 H 981.348 2.29876 -4.39853 0
M  V30 10761 H 976.604 1.99611 -5.77897 0
M  V30 10762 H 980.778 1.76054 -6.73779 0
M  V30 10763 H 978.405 1.60389 -7.43088 0
M  V30 10764 N 979.98 1.24838 0.961938 0
M  V30 10765 C 981.208 1.11871 1.74047 0
M  V30 10766 C 981.623 -0.328209 1.85925 0
M  V30 10767 O 980.98 -1.22616 1.35173 0
M  V30 10768 C 981.031 1.75931 3.15801 0
M  V30 10769 O 980.752 3.14967 3.04512 0
M  V30 10770 C 982.253 1.68649 4.09966 0
M  V30 10771 H 979.473 0.390569 0.545616 0
M  V30 10772 H 982.017 1.65058 1.20732 0
M  V30 10773 H 980.172 1.26733 3.66084 0
M  V30 10774 H 980.586 3.46349 3.93882 0
M  V30 10775 H 982.06 2.18144 5.07067 0
M  V30 10776 H 982.537 0.648831 4.34381 0
M  V30 10777 H 983.143 2.17301 3.65596 0
M  V30 10778 N 981.458 -1.16348 1.06306 0
M  V30 10779 C 982.421 -2.18941 0.678053 0
M  V30 10780 C 983.421 -1.58409 -0.276277 0
M  V30 10781 O 984.611 -1.74101 -0.0586435 0
M  V30 10782 C 981.743 -3.409 -0.00228684 0
M  V30 10783 H 982.936 -2.54516 1.58624 0
M  V30 10784 H 980.489 -1.30625 0.858298 0
M  V30 10785 H 981.224 -3.10881 -0.923212 0
M  V30 10786 H 981.009 -3.86089 0.683949 0
M  V30 10787 H 982.499 -4.16806 -0.257374 0
M  V30 10788 N 982.937 -0.845659 -1.3299 0
M  V30 10789 C 984.162 -0.457435 -2.02293 0
M  V30 10790 C 984.587 0.935634 -1.63179 0
M  V30 10791 O 983.945 1.61297 -0.827835 0
M  V30 10792 C 983.993 -0.593665 -3.5568 0
M  V30 10793 O 983.097 0.37729 -4.10671 0
M  V30 10794 H 982.438 -0.185022 -0.637701 0
M  V30 10795 H 984.968 -1.14237 -1.69738 0
M  V30 10796 H 984.978 -0.477834 -4.05192 0
M  V30 10797 H 983.653 -1.60957 -3.83491 0
M  V30 10798 H 982.23 0.218448 -3.7226 0
M  V30 10799 N 984.415 1.45619 -0.602734 0
M  V30 10800 C 985.64 2.07157 -0.100429 0
M  V30 10801 C 986.065 1.44524 1.20393 0
M  V30 10802 O 985.423 0.536191 1.7319 0
M  V30 10803 C 985.471 3.60587 0.0308604 0
M  V30 10804 O 984.575 3.97944 1.08234 0
M  V30 10805 H 983.916 0.6601 -0.0718643 0
M  V30 10806 H 986.446 1.86948 -0.831366 0
M  V30 10807 H 986.456 4.07348 0.230634 0
M  V30 10808 H 985.131 4.05561 -0.921581 0
M  V30 10809 H 983.708 3.62862 0.859414 0
M  V30 10810 N 985.893 0.34162 1.53853 0
M  V30 10811 C 987.141 -0.254979 2.00485 0
M  V30 10812 C 987.462 -1.51222 1.23114 0
M  V30 10813 O 986.732 -1.92966 0.337787 0
M  V30 10814 H 985.312 -0.0972084 0.740648 0
M  V30 10815 H 987.974 0.462332 1.89337 0
M  V30 10816 H 987.07 -0.498778 3.08089 0
M  V30 10817 N 987.371 -1.57444 0.0701946 0
M  V30 10818 C 988.62 -1.92605 -0.598849 0
M  V30 10819 C 988.933 -0.952058 -1.70866 0
M  V30 10820 O 990.139 -1.19643 -2.43716 0
M  V30 10821 C 988.595 -3.42142 -1.11655 0
M  V30 10822 C 988.203 -4.47984 -0.0378355 0
M  V30 10823 C 989.947 -3.86307 -1.75975 0
M  V30 10824 C 987.854 -5.88652 -0.569495 0
M  V30 10825 H 986.784 -0.718873 -0.22746 0
M  V30 10826 H 989.435 -1.82948 0.14217 0
M  V30 10827 H 987.817 -3.46866 -1.91049 0
M  V30 10828 H 988.991 -4.54874 0.736661 0
M  V30 10829 H 987.306 -4.13277 0.50904 0
M  V30 10830 H 989.903 -4.88784 -2.16782 0
M  V30 10831 H 990.246 -3.23587 -2.61911 0
M  V30 10832 H 990.779 -3.84179 -1.03206 0
M  V30 10833 H 987.518 -6.55013 0.252662 0
M  V30 10834 H 987.038 -5.85285 -1.31155 0
M  V30 10835 H 988.717 -6.38482 -1.04641 0
M  V30 10836 N 988.849 0.203349 -1.56283 0
M  V30 10837 C 989.796 1.25205 -1.93888 0
M  V30 10838 C 990.766 1.45654 -0.798376 0
M  V30 10839 O 991.951 1.58924 -1.05583 0
M  V30 10840 C 989.091 2.59355 -2.27659 0
M  V30 10841 C 988.204 2.46553 -3.54733 0
M  V30 10842 C 987.339 3.73351 -3.77865 0
M  V30 10843 C 986.378 3.55347 -4.98392 0
M  V30 10844 N 985.515 4.74137 -5.17821 0
M  V30 10845 H 990.355 0.924356 -2.83301 0
M  V30 10846 H 987.892 0.445082 -1.40205 0
M  V30 10847 H 989.85 3.375 -2.45254 0
M  V30 10848 H 988.48 2.90184 -1.41396 0
M  V30 10849 H 987.532 1.59749 -3.45231 0
M  V30 10850 H 988.844 2.2918 -4.43033 0
M  V30 10851 H 987.998 4.59937 -3.95655 0
M  V30 10852 H 986.737 3.9367 -2.8788 0
M  V30 10853 H 985.742 2.67146 -4.80534 0
M  V30 10854 H 986.967 3.36482 -5.89879 0
M  V30 10855 H 984.913 4.94735 -4.30782 0
M  V30 10856 H 984.83 4.59558 -6.00285 0
M  V30 10857 H 986.098 5.62098 -5.40061 0
M  V30 10858 N 990.327 1.50405 0.470755 0
M  V30 10859 C 991.277 1.65681 1.56633 0
M  V30 10860 C 992.261 0.511424 1.52556 0
M  V30 10861 O 993.453 0.765844 1.59574 0
M  V30 10862 C 990.582 1.7546 2.95074 0
M  V30 10863 C 989.668 2.95676 3.04034 0
M  V30 10864 N 990.059 4.1935 2.82807 0
M  V30 10865 C 988.357 2.94241 3.35169 0
M  V30 10866 C 989.058 5.0032 2.96741 0
M  V30 10867 N 988.034 4.34282 3.26956 0
M  V30 10868 H 991.836 2.58994 1.38922 0
M  V30 10869 H 989.35 1.47593 0.67749 0
M  V30 10870 H 991.347 1.84508 3.73848 0
M  V30 10871 H 990.007 0.833057 3.13832 0
M  V30 10872 H 991.018 4.48842 2.58382 0
M  V30 10873 H 987.695 2.11587 3.59913 0
M  V30 10874 H 989.085 6.08664 2.84566 0
M  V30 10875 N 991.805 -0.723954 1.39988 0
M  V30 10876 C 993.033 -1.51313 1.4111 0
M  V30 10877 C 993.448 -1.88798 0.00853333 0
M  V30 10878 O 992.805 -1.54868 -0.965516 0
M  V30 10879 C 992.856 -2.79375 2.29416 0
M  V30 10880 O 992.577 -2.43478 3.64211 0
M  V30 10881 C 994.078 -3.7333 2.3904 0
M  V30 10882 H 991.298 -0.46724 0.481589 0
M  V30 10883 H 993.842 -0.893694 1.83938 0
M  V30 10884 H 991.997 -3.37624 1.89971 0
M  V30 10885 H 992.411 -3.25821 4.11024 0
M  V30 10886 H 993.885 -4.60051 3.05053 0
M  V30 10887 H 994.362 -4.15854 1.41289 0
M  V30 10888 H 994.968 -3.20996 2.79001 0
M  V30 10889 N 993.283 -1.25346 -0.955304 0
M  V30 10890 C 994.216 -0.999933 -2.05126 0
M  V30 10891 C 995.194 0.070585 -1.62447 0
M  V30 10892 O 996.378 -0.0689306 -1.88374 0
M  V30 10893 C 993.505 -0.511425 -3.34817 0
M  V30 10894 C 992.551 -1.57237 -3.96458 0
M  V30 10895 S 993.384 -3.15736 -4.32517 0
M  V30 10896 C 994.54 -2.68619 -5.65327 0
M  V30 10897 H 994.773 -1.92791 -2.26316 0
M  V30 10898 H 992.306 -1.08869 -1.09485 0
M  V30 10899 H 994.264 -0.236219 -4.0982 0
M  V30 10900 H 992.925 0.39604 -3.11593 0
M  V30 10901 H 992.118 -1.18125 -4.89962 0
M  V30 10902 H 991.72 -1.79822 -3.27933 0
M  V30 10903 H 994.012 -2.12203 -6.4341 0
M  V30 10904 H 994.955 -3.6076 -6.09309 0
M  V30 10905 H 995.363 -2.08638 -5.24529 0
M  V30 10906 N 994.761 1.15782 -1.06922 0
M  V30 10907 C 995.989 1.90355 -0.81072 0
M  V30 10908 C 996.404 1.77779 0.635614 0
M  V30 10909 O 995.761 1.12675 1.43564 0
M  V30 10910 C 995.812 3.4085 -1.2043 0
M  V30 10911 O 995.533 3.53057 -2.59388 0
M  V30 10912 C 997.034 4.32457 -0.974473 0
M  V30 10913 H 994.254 0.60343 -0.293451 0
M  V30 10914 H 996.798 1.46723 -1.42452 0
M  V30 10915 H 994.953 3.82162 -0.634909 0
M  V30 10916 H 995.367 4.46426 -2.75326 0
M  V30 10917 H 996.841 5.36488 -1.29942 0
M  V30 10918 H 997.318 4.39109 0.0894481 0
M  V30 10919 H 997.924 3.96882 -1.52856 0
M  V30 10920 N 996.239 0.8527 1.3254 0
M  V30 10921 C 997.65 0.510012 1.79599 0
M  V30 10922 C 998.001 -0.972002 1.70431 0
M  V30 10923 O 997.126 -1.7581 1.26173 0
M  V30 10924 C 997.721 0.918986 3.26098 0
M  V30 10925 C 996.28 0.628227 3.7112 0
M  V30 10926 C 995.427 1.11979 2.53685 0
M  V30 10927 H 998.378 1.04009 1.19866 0
M  V30 10928 H 998.399 0.234577 3.79776 0
M  V30 10929 H 997.911 1.99765 3.32739 0
M  V30 10930 H 996.012 -0.4398 3.69995 0
M  V30 10931 H 996.125 1.19315 4.64005 0
M  V30 10932 H 994.489 0.540133 2.48907 0
M  V30 10933 H 995.272 2.20552 2.63081 0
M  V30 10934 N 997.718 -1.45297 0.610449 0
M  V30 10935 C 998.967 -2.0143 0.104323 0
M  V30 10936 C 999.28 -1.48431 -1.27388 0
M  V30 10937 O 1000.49 -1.96558 -1.87289 0
M  V30 10938 C 998.942 -3.59644 0.135812 0
M  V30 10939 C 998.55 -4.2164 1.51405 0
M  V30 10940 C 1000.29 -4.2333 -0.314922 0
M  V30 10941 C 998.201 -5.72015 1.50176 0
M  V30 10942 H 997.131 -0.753176 0.035233 0
M  V30 10943 H 999.782 -1.66738 0.7662 0
M  V30 10944 H 998.164 -3.91538 -0.592773 0
M  V30 10945 H 999.338 -4.01315 2.26457 0
M  V30 10946 H 997.653 -3.70159 1.90712 0
M  V30 10947 H 1000.25 -5.33597 -0.343335 0
M  V30 10948 H 1000.59 -3.94206 -1.33817 0
M  V30 10949 H 1001.13 -3.96163 0.360489 0
M  V30 10950 H 997.865 -6.05842 2.50271 0
M  V30 10951 H 997.385 -5.94523 0.793869 0
M  V30 10952 H 999.064 -6.35266 1.22665 0
M  V30 10953 N 999.196 -0.349774 -1.5367 0
M  V30 10954 C 1000.43 0.245682 -2.05134 0
M  V30 10955 C 1000.83 1.44269 -1.22406 0
M  V30 10956 O 1000.18 1.81938 -0.25379 0
M  V30 10957 C 1000.24 0.718439 -3.52248 0
M  V30 10958 C 999.903 -0.35975 -4.55582 0
M  V30 10959 C 1000.9 -1.20449 -5.05755 0
M  V30 10960 C 998.585 -0.515463 -4.99648 0
M  V30 10961 C 1000.58 -2.19043 -5.98581 0
M  V30 10962 C 998.266 -1.50479 -5.92283 0
M  V30 10963 C 999.264 -2.34072 -6.41638 0
M  V30 10964 O 998.952 -3.31319 -7.3245 0
M  V30 10965 H 998.684 0.0501122 -0.67414 0
M  V30 10966 H 1001.24 -0.5018 -1.99176 0
M  V30 10967 H 999.468 1.51727 -3.55691 0
M  V30 10968 H 1001.16 1.23513 -3.86651 0
M  V30 10969 H 1001.92 -1.09531 -4.7247 0
M  V30 10970 H 997.802 0.12537 -4.60829 0
M  V30 10971 H 1001.35 -2.84327 -6.37027 0
M  V30 10972 H 997.243 -1.61451 -6.24983 0
M  V30 10973 H 998.011 -3.26863 -7.50402 0
M  V30 10974 N 1000.67 1.57404 -0.0785433 0
M  V30 10975 C 1002.08 1.81118 0.45311 0
M  V30 10976 C 1002.44 0.992963 1.69218 0
M  V30 10977 O 1001.56 0.217448 2.15305 0
M  V30 10978 C 1002.16 3.28506 0.82882 0
M  V30 10979 C 1000.71 3.53042 1.3053 0
M  V30 10980 C 999.862 2.75739 0.29378 0
M  V30 10981 H 1002.81 1.55758 -0.304171 0
M  V30 10982 H 1002.83 3.40924 1.68971 0
M  V30 10983 H 1002.35 3.88031 -0.0731826 0
M  V30 10984 H 1000.45 2.98829 2.22558 0
M  V30 10985 H 1000.56 4.61724 1.27857 0
M  V30 10986 H 998.924 2.42703 0.772477 0
M  V30 10987 H 999.707 3.38005 -0.600613 0
M  V30 10988 N 1002.15 -0.195058 1.56388 0
M  V30 10989 C 1003.38 -0.935745 1.85091 0
M  V30 10990 C 1003.8 -1.76061 0.662118 0
M  V30 10991 O 1003.16 -1.77076 -0.389083 0
M  V30 10992 C 1003.21 -1.80764 3.1202 0
M  V30 10993 O 1002.31 -2.90643 2.92575 0
M  V30 10994 H 1001.65 -0.26351 0.609474 0
M  V30 10995 H 1004.18 -0.200362 2.03617 0
M  V30 10996 H 1004.19 -2.21229 3.42815 0
M  V30 10997 H 1002.87 -1.20157 3.98165 0
M  V30 10998 H 1001.44 -2.53934 2.73079 0
M  V30 10999 N 1003.63 -1.50653 -0.462772 0
M  V30 11000 C 1004.85 -1.66103 -1.24196 0
M  V30 11001 C 1005.28 -0.347421 -1.84864 0
M  V30 11002 O 1004.64 0.689673 -1.6767 0
M  V30 11003 C 1004.69 -2.76027 -2.32037 0
M  V30 11004 O 1003.79 -2.37859 -3.36893 0
M  V30 11005 H 1003.13 -0.554672 -0.365014 0
M  V30 11006 H 1005.66 -1.97076 -0.549734 0
M  V30 11007 H 1005.67 -2.99354 -2.77221 0
M  V30 11008 H 1004.35 -3.71361 -1.87253 0
M  V30 11009 H 1002.92 -2.2501 -2.97363 0
M  V30 11010 N 1005.11 0.71652 -1.4037 0
M  V30 11011 C 1006.06 1.85194 -1.40734 0
M  V30 11012 C 1007.05 1.66934 -0.287969 0
M  V30 11013 O 1008.26 1.74051 -0.458957 0
M  V30 11014 H 1004.63 0.609922 -0.439885 0
M  V30 11015 H 1006.6 1.82003 -2.36468 0
M  V30 11016 C 1005.35 3.23048 -1.28589 0
M  V30 11017 H 1004.67 3.37704 -2.13999 0
M  V30 11018 H 1006.11 4.02633 -1.32902 0
M  V30 11019 C 1004.57 3.369 0.00396512 0
M  V30 11020 O 1005.1 3.89881 0.967243 0
M  V30 11021 N 1003.31 2.90508 0.0731565 0
M  V30 11022 H 1002.86 2.4758 -0.711454 0
M  V30 11023 H 1002.81 3.00155 0.935652 0
M  V30 11024 N 1006.59 1.25851 0.948643 0
M  V30 11025 C 1007.81 1.13711 1.72851 0
M  V30 11026 C 1008.23 -0.308471 1.86263 0
M  V30 11027 O 1007.59 -1.21175 1.36465 0
M  V30 11028 C 1007.64 1.79271 3.13918 0
M  V30 11029 O 1007.36 3.18179 3.01154 0
M  V30 11030 C 1008.86 1.72988 4.08154 0
M  V30 11031 H 1006.08 0.396334 0.541443 0
M  V30 11032 H 1008.62 1.66329 1.18974 0
M  V30 11033 H 1006.78 1.30609 3.64719 0
M  V30 11034 H 1007.19 3.50507 3.90186 0
M  V30 11035 H 1008.67 2.2351 5.04725 0
M  V30 11036 H 1009.14 0.694866 4.33668 0
M  V30 11037 H 1009.75 2.21166 3.63271 0
M  V30 11038 N 1008.06 -1.15214 1.07534 0
M  V30 11039 C 1008.99 -2.2216 0.718837 0
M  V30 11040 C 1009.98 -1.6753 -0.29459 0
M  V30 11041 O 1011.16 -1.93481 -0.166931 0
M  V30 11042 C 1008.29 -3.471 0.117836 0
M  V30 11043 C 1007.24 -4.14701 1.05862 0
M  V30 11044 C 1006.57 -5.3374 0.320284 0
M  V30 11045 C 1007.87 -4.64254 2.39302 0
M  V30 11046 H 1009.56 -2.52237 1.61297 0
M  V30 11047 H 1007.11 -1.21239 0.776992 0
M  V30 11048 H 1009.06 -4.21156 -0.143519 0
M  V30 11049 H 1007.79 -3.16361 -0.811389 0
M  V30 11050 H 1006.45 -3.42589 1.30493 0
M  V30 11051 H 1006.09 -4.99257 -0.61246 0
M  V30 11052 H 1005.79 -5.79912 0.947381 0
M  V30 11053 H 1007.32 -6.10563 0.0667721 0
M  V30 11054 H 1008.73 -5.29827 2.18988 0
M  V30 11055 H 1007.13 -5.21095 2.97623 0
M  V30 11056 H 1008.2 -3.79793 3.01472 0
M  V30 11057 N 1009.54 -0.859717 -1.32086 0
M  V30 11058 C 1010.79 -0.466271 -1.97367 0
M  V30 11059 C 1011.12 0.976728 -1.6785 0
M  V30 11060 O 1010.4 1.68618 -0.969449 0
M  V30 11061 C 1010.68 -0.711851 -3.52994 0
M  V30 11062 C 1010.53 -2.20364 -3.92122 0
M  V30 11063 C 1011.85 -0.17156 -4.39765 0
M  V30 11064 H 1008.97 -0.170883 -0.716916 0
M  V30 11065 H 1011.61 -1.07907 -1.56384 0
M  V30 11066 H 1009.76 -0.190258 -3.88034 0
M  V30 11067 H 1011.43 -2.7917 -3.67236 0
M  V30 11068 H 1009.68 -2.68019 -3.41099 0
M  V30 11069 H 1010.35 -2.32615 -5.00594 0
M  V30 11070 H 1012.82 -0.617665 -4.1149 0
M  V30 11071 H 1011.7 -0.372921 -5.47632 0
M  V30 11072 H 1011.96 0.925959 -4.32294 0
M  V30 11073 N 1011.02 1.44971 -0.618145 0
M  V30 11074 C 1011.93 2.34403 0.0960457 0
M  V30 11075 C 1012.95 1.51862 0.849355 0
M  V30 11076 O 1014.12 1.84632 0.804557 0
M  V30 11077 C 1011.19 3.29646 1.07397 0
M  V30 11078 C 1010.25 4.28095 0.321466 0
M  V30 11079 C 1009.48 5.18787 1.25281 0
M  V30 11080 O 1009.7 5.1313 2.49106 0
M  V30 11081 O 1008.64 5.97282 0.744156 0
M  V30 11082 H 1012.46 2.96898 -0.639176 0
M  V30 11083 H 1010.05 1.44529 -0.37837 0
M  V30 11084 H 1011.93 3.88307 1.63694 0
M  V30 11085 H 1010.61 2.69702 1.79004 0
M  V30 11086 H 1009.51 3.73019 -0.284223 0
M  V30 11087 H 1010.85 4.90923 -0.354315 0
M  V30 11088 N 1012.5 0.357919 1.53482 0
M  V30 11089 C 1013.43 -0.535553 2.21827 0
M  V30 11090 C 1014.41 -1.08904 1.20742 0
M  V30 11091 O 1015.59 -1.14661 1.49616 0
M  V30 11092 C 1012.72 -1.73817 2.90698 0
M  V30 11093 C 1011.77 -1.31283 4.05792 0
M  V30 11094 S 1012.6 -0.320548 5.3454 0
M  V30 11095 C 1013.76 -1.52967 6.0692 0
M  V30 11096 H 1013.99 0.0449045 2.97266 0
M  V30 11097 H 1011.52 0.142009 1.53746 0
M  V30 11098 H 1013.48 -2.42803 3.30994 0
M  V30 11099 H 1012.14 -2.28987 2.14998 0
M  V30 11100 H 1011.33 -2.20989 4.52968 0
M  V30 11101 H 1010.94 -0.702275 3.67347 0
M  V30 11102 H 1013.23 -2.46191 6.31186 0
M  V30 11103 H 1014.17 -1.09943 6.99513 0
M  V30 11104 H 1014.58 -1.73224 5.37265 0
M  V30 11105 N 1013.98 -1.5736 0.0868897 0
M  V30 11106 C 1015.2 -1.98388 -0.587349 0
M  V30 11107 C 1015.62 -0.965757 -1.6223 0
M  V30 11108 O 1014.98 0.0456981 -1.82443 0
M  V30 11109 C 1015.03 -3.39479 -1.24242 0
M  V30 11110 O 1014.75 -4.37393 -0.248878 0
M  V30 11111 C 1016.25 -3.95465 -2.00305 0
M  V30 11112 H 1013.47 -0.652111 -0.15809 0
M  V30 11113 H 1016.01 -2.03843 0.163754 0
M  V30 11114 H 1014.17 -3.35063 -1.94451 0
M  V30 11115 H 1014.58 -5.19525 -0.720678 0
M  V30 11116 H 1016.06 -4.96363 -2.41511 0
M  V30 11117 H 1016.53 -3.32832 -2.86565 0
M  V30 11118 H 1017.14 -4.03328 -1.34931 0
M  V30 11119 N 1015.45 0.186762 -1.56489 0
M  V30 11120 C 1016.38 1.23395 -1.98232 0
M  V30 11121 C 1017.37 1.4702 -0.855526 0
M  V30 11122 O 1018.55 1.58616 -1.12048 0
M  V30 11123 C 1015.68 2.57635 -2.32898 0
M  V30 11124 C 1014.63 2.48607 -3.48394 0
M  V30 11125 C 1013.96 3.87196 -3.68759 0
M  V30 11126 C 1015.26 2.00398 -4.82325 0
M  V30 11127 H 1016.95 0.887026 -2.85958 0
M  V30 11128 H 1014.5 0.42525 -1.37578 0
M  V30 11129 H 1016.45 3.31082 -2.60696 0
M  V30 11130 H 1015.18 2.94084 -1.42064 0
M  V30 11131 H 1013.84 1.77615 -3.207 0
M  V30 11132 H 1013.48 4.21012 -2.75241 0
M  V30 11133 H 1013.18 3.82029 -4.46462 0
M  V30 11134 H 1014.71 4.62253 -3.98941 0
M  V30 11135 H 1016.12 2.6361 -5.091 0
M  V30 11136 H 1014.52 2.06214 -5.63556 0
M  V30 11137 H 1015.59 0.957562 -4.75351 0
M  V30 11138 N 1016.93 1.50896 0.454776 0
M  V30 11139 C 1018.18 1.62378 1.20324 0
M  V30 11140 C 1018.5 0.333883 1.9212 0
M  V30 11141 O 1017.77 -0.649477 1.8482 0
M  V30 11142 H 1016.35 0.598395 0.447139 0
M  V30 11143 H 1019.01 1.87749 0.523102 0
M  V30 11144 H 1018.11 2.44296 1.94232 0
M  V30 11145 N 1018.41 -0.709066 1.40748 0
M  V30 11146 C 1019.34 -1.83293 1.35937 0
M  V30 11147 C 1020.32 -1.60983 0.22871 0
M  V30 11148 O 1021.51 -1.8391 0.413435 0
M  V30 11149 C 1018.63 -3.19746 1.11714 0
M  V30 11150 C 1017.68 -3.60872 2.27319 0
M  V30 11151 S 1018.51 -3.67233 3.89743 0
M  V30 11152 C 1019.67 -5.06434 3.67797 0
M  V30 11153 H 1019.9 -1.87095 2.31047 0
M  V30 11154 H 1017.43 -0.876479 1.27111 0
M  V30 11155 H 1019.39 -3.98526 0.984245 0
M  V30 11156 H 1018.05 -3.1357 0.182472 0
M  V30 11157 H 1017.25 -4.59965 2.06029 0
M  V30 11158 H 1016.85 -2.89366 2.36946 0
M  V30 11159 H 1019.14 -5.93544 3.26668 0
M  V30 11160 H 1020.08 -5.32761 4.66445 0
M  V30 11161 H 1020.49 -4.77336 3.01348 0
M  V30 11162 N 1019.89 -1.26353 -0.941956 0
M  V30 11163 C 1020.84 -1.07842 -2.04056 0
M  V30 11164 C 1021.81 0.0163064 -1.66092 0
M  V30 11165 O 1022.99 -0.143313 -1.90261 0
M  V30 11166 C 1020.13 -0.716636 -3.37577 0
M  V30 11167 C 1019.24 -1.88754 -3.88582 0
M  V30 11168 C 1018.38 -1.46893 -5.10486 0
M  V30 11169 C 1017.42 -2.60819 -5.53751 0
M  V30 11170 N 1016.56 -2.19646 -6.66858 0
M  V30 11171 H 1021.4 -2.01856 -2.19221 0
M  V30 11172 H 1018.93 -1.00504 -1.07412 0
M  V30 11173 H 1020.89 -0.487768 -4.14339 0
M  V30 11174 H 1019.52 0.18653 -3.22261 0
M  V30 11175 H 1018.57 -2.22936 -3.08227 0
M  V30 11176 H 1019.88 -2.74264 -4.1663 0
M  V30 11177 H 1019.04 -1.20047 -5.94705 0
M  V30 11178 H 1017.78 -0.584721 -4.84182 0
M  V30 11179 H 1016.78 -2.88396 -4.6809 0
M  V30 11180 H 1018.01 -3.49838 -5.82057 0
M  V30 11181 H 1015.95 -1.33657 -6.4224 0
M  V30 11182 H 1015.87 -2.987 -6.94489 0
M  V30 11183 H 1017.14 -1.96009 -7.54454 0
M  V30 11184 N 1021.37 1.14642 -1.08144 0
M  V30 11185 C 1022.31 2.1964 -0.708995 0
M  V30 11186 C 1023.28 1.63303 0.303512 0
M  V30 11187 O 1024.47 1.8987 0.18813 0
M  V30 11188 C 1021.61 3.44886 -0.121585 0
M  V30 11189 C 1020.72 4.15386 -1.18654 0
M  V30 11190 C 1019.86 5.28205 -0.56328 0
M  V30 11191 C 1018.9 5.90534 -1.61046 0
M  V30 11192 N 1018.03 6.94809 -1.00919 0
M  V30 11193 H 1022.87 2.50848 -1.6087 0
M  V30 11194 H 1020.41 1.23185 -0.803975 0
M  V30 11195 H 1022.37 4.16528 0.23668 0
M  V30 11196 H 1021 3.14169 0.741445 0
M  V30 11197 H 1020.05 3.42159 -1.66227 0
M  V30 11198 H 1021.36 4.57809 -1.9802 0
M  V30 11199 H 1020.52 6.06507 -0.153109 0
M  V30 11200 H 1019.26 4.86995 0.262066 0
M  V30 11201 H 1018.26 5.10938 -2.03033 0
M  V30 11202 H 1019.49 6.33819 -2.43824 0
M  V30 11203 H 1017.43 6.5568 -0.204894 0
M  V30 11204 H 1017.35 7.35704 -1.73999 0
M  V30 11205 H 1018.62 7.76992 -0.624792 0
M  V30 11206 N 1022.85 0.866709 1.31628 0
M  V30 11207 C 1023.78 0.335762 2.31073 0
M  V30 11208 C 1024.76 -0.571597 1.60209 0
M  V30 11209 O 1025.94 -0.489306 1.87935 0
M  V30 11210 C 1023.07 -0.466416 3.44154 0
M  V30 11211 C 1022.03 0.347561 4.26586 0
M  V30 11212 C 1021.35 -0.5801 5.31544 0
M  V30 11213 C 1022.65 1.57986 4.97833 0
M  V30 11214 H 1024.35 1.16673 2.75731 0
M  V30 11215 H 1021.89 0.56248 1.3256 0
M  V30 11216 H 1023.84 -0.84836 4.12772 0
M  V30 11217 H 1022.57 -1.33086 2.98254 0
M  V30 11218 H 1021.23 0.71141 3.59631 0
M  V30 11219 H 1020.88 -1.44174 4.81895 0
M  V30 11220 H 1020.58 -0.0393965 5.87587 0
M  V30 11221 H 1022.1 -0.958958 6.03023 0
M  V30 11222 H 1023.51 1.26954 5.59067 0
M  V30 11223 H 1021.91 2.05939 5.63657 0
M  V30 11224 H 1022.98 2.3345 4.25005 0
M  V30 11225 N 1024.32 -1.44642 0.625825 0
M  V30 11226 C 1025.27 -2.30653 -0.082259 0
M  V30 11227 C 1026.24 -1.43174 -0.842052 0
M  V30 11228 O 1027.43 -1.72082 -0.824151 0
M  V30 11229 C 1024.57 -3.2837 -1.06146 0
M  V30 11230 C 1023.68 -4.30953 -0.300638 0
M  V30 11231 C 1022.81 -5.15766 -1.27118 0
M  V30 11232 C 1021.85 -6.10061 -0.499215 0
M  V30 11233 N 1020.99 -6.87591 -1.41995 0
M  V30 11234 H 1025.83 -2.90664 0.657161 0
M  V30 11235 H 1023.37 -1.43215 0.335859 0
M  V30 11236 H 1025.32 -3.83507 -1.6425 0
M  V30 11237 H 1023.95 -2.70072 -1.76807 0
M  V30 11238 H 1023.01 -3.78331 0.396234 0
M  V30 11239 H 1024.32 -4.97892 0.300851 0
M  V30 11240 H 1023.47 -5.75394 -1.92372 0
M  V30 11241 H 1022.21 -4.48888 -1.9066 0
M  V30 11242 H 1021.22 -5.49547 0.166848 0
M  V30 11243 H 1022.44 -6.78973 0.131409 0
M  V30 11244 H 1020.39 -6.23387 -2.04267 0
M  V30 11245 H 1020.3 -7.5095 -0.872354 0
M  V30 11246 H 1021.57 -7.51746 -2.0615 0
M  V30 11247 N 1025.8 -0.366053 -1.5329 0
M  V30 11248 C 1026.71 0.488111 -2.29466 0
M  V30 11249 C 1027.73 1.09219 -1.35452 0
M  V30 11250 O 1028.9 1.10303 -1.68509 0
M  V30 11251 C 1025.97 1.61202 -3.06944 0
M  V30 11252 C 1025.03 1.03543 -4.16626 0
M  V30 11253 C 1024.26 2.10578 -4.904 0
M  V30 11254 O 1024.49 3.31697 -4.6404 0
M  V30 11255 O 1023.42 1.73609 -5.76319 0
M  V30 11256 H 1027.25 -0.131789 -3.03414 0
M  V30 11257 H 1024.83 -0.130421 -1.4883 0
M  V30 11258 H 1026.71 2.26546 -3.55324 0
M  V30 11259 H 1025.39 2.21732 -2.35832 0
M  V30 11260 H 1024.29 0.345892 -3.72498 0
M  V30 11261 H 1025.63 0.474687 -4.89906 0
M  V30 11262 N 1027.28 1.57312 -0.0952337 0
M  V30 11263 C 1028.19 2.17556 0.877877 0
M  V30 11264 C 1029.21 1.14505 1.31014 0
M  V30 11265 O 1030.38 1.46876 1.37802 0
M  V30 11266 C 1027.45 2.74413 2.11892 0
M  V30 11267 C 1026.51 3.92419 1.74085 0
M  V30 11268 C 1025.74 4.46556 2.92273 0
M  V30 11269 O 1025.96 3.99631 4.07002 0
M  V30 11270 O 1024.9 5.37576 2.70732 0
M  V30 11271 H 1028.72 3.01116 0.395312 0
M  V30 11272 H 1026.31 1.48841 0.129123 0
M  V30 11273 H 1028.19 3.10754 2.84622 0
M  V30 11274 H 1026.87 1.93899 2.59201 0
M  V30 11275 H 1025.77 3.6089 0.985346 0
M  V30 11276 H 1027.11 4.74298 1.31539 0
M  V30 11277 N 1028.76 -0.17846 1.56586 0
M  V30 11278 C 1029.69 -1.2496 1.90946 0
M  V30 11279 C 1030.67 -1.43136 0.771424 0
M  V30 11280 O 1031.85 -1.58258 1.02405 0
M  V30 11281 C 1028.98 -2.61368 2.15417 0
M  V30 11282 C 1028.03 -2.59969 3.3811 0
M  V30 11283 S 1028.86 -2.09756 4.9271 0
M  V30 11284 C 1030.01 -3.47956 5.20267 0
M  V30 11285 H 1030.25 -0.956287 2.815 0
M  V30 11286 H 1027.78 -0.382709 1.49582 0
M  V30 11287 H 1029.74 -3.39882 2.30197 0
M  V30 11288 H 1028.4 -2.87903 1.25582 0
M  V30 11289 H 1027.59 -3.60309 3.52411 0
M  V30 11290 H 1027.19 -1.89547 3.2241 0
M  V30 11291 H 1029.49 -4.43914 5.11807 0
M  V30 11292 H 1030.43 -3.38536 6.21932 0
M  V30 11293 H 1030.84 -3.43637 4.47855 0
M  V30 11294 N 1030.24 -1.51135 -0.446768 0
M  V30 11295 C 1031.15 -1.74595 -1.56696 0
M  V30 11296 C 1032.16 -0.629816 -1.62201 0
M  V30 11297 O 1033.34 -0.910987 -1.79619 0
M  V30 11298 C 1030.4 -1.85738 -2.9275 0
M  V30 11299 C 1029.46 -3.09564 -2.97437 0
M  V30 11300 C 1028.7 -3.20165 -4.27001 0
M  V30 11301 O 1028.92 -2.36939 -5.1886 0
M  V30 11302 O 1027.85 -4.13077 -4.3778 0
M  V30 11303 H 1031.68 -2.69601 -1.39817 0
M  V30 11304 H 1029.26 -1.35523 -0.628805 0
M  V30 11305 H 1031.15 -1.95107 -3.73512 0
M  V30 11306 H 1029.82 -0.939184 -3.09776 0
M  V30 11307 H 1028.73 -3.05679 -2.15664 0
M  V30 11308 H 1030.06 -4.01041 -2.85353 0
M  V30 11309 N 1031.71 0.701592 -1.41122 0
M  V30 11310 C 1032.96 1.45871 -1.39879 0
M  V30 11311 C 1033.28 1.94999 -0.00668769 0
M  V30 11312 O 1032.55 1.71298 0.95047 0
M  V30 11313 H 1031.13 0.541231 -0.514857 0
M  V30 11314 H 1033.79 0.830803 -1.76306 0
M  V30 11315 H 1032.89 2.32479 -2.0823 0
M  V30 11316 N 1033.19 1.2685 0.935242 0
M  V30 11317 C 1034.44 1.12912 1.6846 0
M  V30 11318 C 1034.77 -0.325708 1.91449 0
M  V30 11319 O 1034.05 -1.23884 1.49944 0
M  V30 11320 C 1034.33 1.90513 3.05576 0
M  V30 11321 C 1034.18 3.43936 2.89876 0
M  V30 11322 C 1035.5 1.70363 4.05789 0
M  V30 11323 H 1032.62 0.411559 0.611382 0
M  V30 11324 H 1035.26 1.55917 1.08582 0
M  V30 11325 H 1033.41 1.53963 3.5669 0
M  V30 11326 H 1035.08 3.90272 2.45939 0
M  V30 11327 H 1033.33 3.70659 2.25376 0
M  V30 11328 H 1034 3.93467 3.87153 0
M  V30 11329 H 1036.47 2.02217 3.63659 0
M  V30 11330 H 1035.35 2.27066 4.99732 0
M  V30 11331 H 1035.61 0.649674 4.373 0
M  V30 11332 N 1034.67 -1.14067 1.0875 0
M  V30 11333 C 1035.92 -1.85459 0.82053 0
M  V30 11334 C 1036.25 -1.82923 -0.65213 0
M  V30 11335 O 1035.52 -1.26241 -1.47965 0
M  V30 11336 C 1035.81 -3.33937 1.34752 0
M  V30 11337 C 1035.66 -3.45026 2.88578 0
M  V30 11338 C 1036.98 -4.2915 0.975636 0
M  V30 11339 H 1034.1 -0.673384 0.299538 0
M  V30 11340 H 1036.74 -1.33927 1.34772 0
M  V30 11341 H 1034.89 -3.77953 0.899086 0
M  V30 11342 H 1036.56 -3.09771 3.41818 0
M  V30 11343 H 1034.81 -2.86124 3.26061 0
M  V30 11344 H 1035.48 -4.49408 3.20526 0
M  V30 11345 H 1037.95 -3.93168 1.36228 0
M  V30 11346 H 1036.83 -5.31489 1.37152 0
M  V30 11347 H 1037.09 -4.41945 -0.116956 0
M  V30 11348 N 1036.15 -0.873678 -1.31166 0
M  V30 11349 C 1037.1 -0.330288 -2.28424 0
M  V30 11350 C 1038.07 0.573299 -1.55893 0
M  V30 11351 O 1039.25 0.504143 -1.84019 0
M  V30 11352 C 1036.39 0.459004 -3.42034 0
M  V30 11353 C 1035.5 -0.472519 -4.29408 0
M  V30 11354 C 1034.64 0.331261 -5.30166 0
M  V30 11355 C 1033.68 -0.596453 -6.09187 0
M  V30 11356 N 1032.81 0.171305 -7.01891 0
M  V30 11357 H 1037.65 -1.16485 -2.7429 0
M  V30 11358 H 1035.19 -0.585813 -1.34932 0
M  V30 11359 H 1037.15 0.932432 -4.06647 0
M  V30 11360 H 1035.78 1.25824 -2.97268 0
M  V30 11361 H 1034.83 -1.06441 -3.65205 0
M  V30 11362 H 1036.14 -1.18372 -4.84551 0
M  V30 11363 H 1035.3 0.867038 -6.00473 0
M  V30 11364 H 1034.04 1.07573 -4.75688 0
M  V30 11365 H 1033.04 -1.14395 -5.37767 0
M  V30 11366 H 1034.27 -1.33983 -6.65752 0
M  V30 11367 H 1032.21 0.89852 -6.49817 0
M  V30 11368 H 1032.13 -0.480481 -7.54472 0
M  V30 11369 H 1033.4 0.688192 -7.76456 0
M  V30 11370 N 1037.63 1.44308 -0.633487 0
M  V30 11371 C 1038.54 2.34492 0.0711787 0
M  V30 11372 C 1039.55 1.52754 0.8332 0
M  V30 11373 O 1040.73 1.85475 0.784929 0
M  V30 11374 C 1037.79 3.30767 1.03895 0
M  V30 11375 C 1036.85 4.28412 0.276043 0
M  V30 11376 C 1036.09 5.20087 1.19772 0
M  V30 11377 O 1036.31 5.15743 2.4365 0
M  V30 11378 O 1035.24 5.98038 0.680764 0
M  V30 11379 H 1039.07 2.96203 -0.67063 0
M  V30 11380 H 1036.66 1.4412 -0.393678 0
M  V30 11381 H 1038.54 3.90021 1.59566 0
M  V30 11382 H 1037.21 2.71586 1.76133 0
M  V30 11383 H 1036.12 3.72696 -0.32377 0
M  V30 11384 H 1037.45 4.9052 -0.406364 0
M  V30 11385 N 1039.1 0.374177 1.53094 0
M  V30 11386 C 1040.03 -0.459976 2.28925 0
M  V30 11387 C 1041.02 -1.07656 1.31698 0
M  V30 11388 O 1042.2 -1.09219 1.60577 0
M  V30 11389 C 1039.33 -1.5954 3.08487 0
M  V30 11390 C 1038.28 -1.10563 4.13473 0
M  V30 11391 C 1037.61 -2.33196 4.81169 0
M  V30 11392 C 1038.91 -0.184275 5.21975 0
M  V30 11393 H 1040.6 0.172692 2.98902 0
M  V30 11394 H 1038.15 0.0844956 1.43752 0
M  V30 11395 H 1040.1 -2.18565 3.60288 0
M  V30 11396 H 1038.83 -2.25543 2.36216 0
M  V30 11397 H 1037.49 -0.53801 3.62631 0
M  V30 11398 H 1037.13 -2.97675 4.05461 0
M  V30 11399 H 1036.83 -2.01094 5.52119 0
M  V30 11400 H 1038.36 -2.92892 5.35767 0
M  V30 11401 H 1039.77 -0.682262 5.69226 0
M  V30 11402 H 1038.17 0.0462746 6.00082 0
M  V30 11403 H 1039.24 0.771152 4.78729 0
M  V30 11404 N 1040.58 -1.57259 0.103575 0
M  V30 11405 C 1041.55 -2.13337 -0.837859 0
M  V30 11406 C 1042.55 -1.06459 -1.20512 0
M  V30 11407 O 1043.74 -1.32307 -1.13316 0
M  V30 11408 C 1040.87 -2.66093 -2.13089 0
M  V30 11409 H 1042.06 -2.97842 -0.350775 0
M  V30 11410 H 1039.61 -1.55621 -0.145511 0
M  V30 11411 H 1040.35 -1.85133 -2.66264 0
M  V30 11412 H 1040.13 -3.44244 -1.87719 0
M  V30 11413 H 1041.62 -3.09443 -2.80419 0
M  V30 11414 N 1042.06 0.170153 -1.56679 0
M  V30 11415 C 1042.97 1.23057 -1.99735 0
M  V30 11416 C 1043.99 1.48374 -0.908912 0
M  V30 11417 O 1045.16 1.60499 -1.21663 0
M  V30 11418 C 1042.23 2.54944 -2.34956 0
M  V30 11419 C 1041.29 2.3748 -3.57634 0
M  V30 11420 C 1040.52 3.63078 -3.91165 0
M  V30 11421 O 1040.74 4.68304 -3.2565 0
M  V30 11422 O 1039.68 3.57119 -4.8451 0
M  V30 11423 H 1043.5 0.895104 -2.9021 0
M  V30 11424 H 1041.09 0.377109 -1.44562 0
M  V30 11425 H 1042.97 3.32742 -2.58574 0
M  V30 11426 H 1041.65 2.88068 -1.47643 0
M  V30 11427 H 1040.55 1.57709 -3.39232 0
M  V30 11428 H 1041.89 2.0928 -4.45491 0
M  V30 11429 N 1043.54 1.5137 0.438746 0
M  V30 11430 C 1044.49 1.73154 1.55308 0
M  V30 11431 C 1045.48 0.597825 1.58501 0
M  V30 11432 O 1046.69 0.77917 1.62262 0
M  V30 11433 H 1043.06 0.547083 0.51595 0
M  V30 11434 H 1045.03 2.66566 1.34108 0
M  V30 11435 C 1043.78 1.87242 2.92977 0
M  V30 11436 H 1043.1 2.73884 2.91252 0
M  V30 11437 H 1044.54 2.06497 3.70317 0
M  V30 11438 C 1043 0.631887 3.30921 0
M  V30 11439 O 1043.53 -0.214099 4.01129 0
M  V30 11440 N 1041.74 0.47639 2.86669 0
M  V30 11441 H 1041.29 1.16589 2.29706 0
M  V30 11442 H 1041.24 -0.352403 3.12419 0
M  V30 11443 N 1045.02 -0.694098 1.41492 0
M  V30 11444 C 1045.96 -1.82932 1.43662 0
M  V30 11445 C 1046.96 -1.66455 0.31449 0
M  V30 11446 O 1048.16 -1.73298 0.486589 0
M  V30 11447 H 1044.54 -0.602847 0.449533 0
M  V30 11448 H 1046.51 -1.78218 2.39334 0
M  V30 11449 C 1045.26 -3.20962 1.33712 0
M  V30 11450 H 1044.58 -3.34257 2.19345 0
M  V30 11451 H 1046.02 -4.00467 1.39291 0
M  V30 11452 C 1044.48 -3.36863 0.0496332 0
M  V30 11453 O 1045.01 -3.91371 -0.905093 0
M  V30 11454 N 1043.22 -2.90588 -0.0269299 0
M  V30 11455 H 1042.76 -2.46417 0.750752 0
M  V30 11456 H 1042.72 -3.01605 -0.887781 0
M  V30 11457 N 1046.49 -1.27344 -0.928501 0
M  V30 11458 C 1047.44 -1.06656 -2.01515 0
M  V30 11459 C 1048.43 0.00516619 -1.60899 0
M  V30 11460 O 1049.62 -0.213277 -1.7571 0
M  V30 11461 C 1046.75 -0.714935 -3.35773 0
M  V30 11462 C 1045.84 -1.82476 -3.82836 0
M  V30 11463 N 1046.23 -3.06421 -4.02417 0
M  V30 11464 C 1044.52 -1.71126 -4.11864 0
M  V30 11465 C 1045.23 -3.78637 -4.41598 0
M  V30 11466 N 1044.2 -3.06396 -4.49024 0
M  V30 11467 H 1048 -2.00718 -2.14685 0
M  V30 11468 H 1045.52 -1.18048 -1.11528 0
M  V30 11469 H 1047.51 -0.54784 -4.13285 0
M  V30 11470 H 1046.17 0.218069 -3.23967 0
M  V30 11471 H 1047.19 -3.42191 -3.88749 0
M  V30 11472 H 1043.86 -0.849031 -4.08776 0
M  V30 11473 H 1045.25 -4.85159 -4.64834 0
M  V30 11474 N 1047.97 1.13488 -1.09353 0
M  V30 11475 C 1049.22 1.841 -0.82401 0
M  V30 11476 C 1049.53 1.84393 0.652586 0
M  V30 11477 O 1050.74 2.5089 1.03762 0
M  V30 11478 C 1049.2 3.30523 -1.42418 0
M  V30 11479 C 1048.8 3.38621 -2.93326 0
M  V30 11480 C 1050.55 4.06182 -1.23356 0
M  V30 11481 C 1048.46 4.79311 -3.46432 0
M  V30 11482 H 1047.39 0.68974 -0.304589 0
M  V30 11483 H 1050.04 1.27866 -1.31615 0
M  V30 11484 H 1048.42 3.86555 -0.859727 0
M  V30 11485 H 1049.59 2.92587 -3.5599 0
M  V30 11486 H 1047.91 2.76426 -3.11412 0
M  V30 11487 H 1050.5 5.10047 -1.60488 0
M  V30 11488 H 1050.85 4.15936 -0.174152 0
M  V30 11489 H 1051.38 3.56477 -1.76547 0
M  V30 11490 H 1048.12 4.74748 -4.5199 0
M  V30 11491 H 1047.64 5.25842 -2.8853 0
M  V30 11492 H 1049.32 5.48227 -3.43593 0
M  V30 11493 N 1049.45 0.880621 1.30701 0
M  V30 11494 C 1050.38 0.360251 2.30704 0
M  V30 11495 C 1051.36 -0.554572 1.60806 0
M  V30 11496 O 1052.55 -0.469345 1.88443 0
M  V30 11497 C 1049.68 -0.429888 3.44629 0
M  V30 11498 C 1048.63 0.392786 4.26194 0
M  V30 11499 C 1047.96 -0.52369 5.32129 0
M  V30 11500 C 1049.26 1.63258 4.96129 0
M  V30 11501 H 1050.95 1.19591 2.74478 0
M  V30 11502 H 1048.5 0.576508 1.31956 0
M  V30 11503 H 1050.45 -0.804532 4.13649 0
M  V30 11504 H 1049.17 -1.29916 2.99649 0
M  V30 11505 H 1047.83 0.749514 3.58856 0
M  V30 11506 H 1047.48 -1.39054 4.83397 0
M  V30 11507 H 1047.18 0.0229272 5.87596 0
M  V30 11508 H 1048.71 -0.894946 6.04006 0
M  V30 11509 H 1050.12 1.32877 5.57689 0
M  V30 11510 H 1048.52 2.11906 5.61441 0
M  V30 11511 H 1049.59 2.37944 4.22505 0
M  V30 11512 N 1050.93 -1.4397 0.641131 0
M  V30 11513 C 1051.84 -2.34526 -0.058742 0
M  V30 11514 C 1052.86 -1.53194 -0.825088 0
M  V30 11515 O 1054.03 -1.85888 -0.775081 0
M  V30 11516 C 1051.1 -3.31313 -1.02139 0
M  V30 11517 C 1050.16 -4.28552 -0.253319 0
M  V30 11518 C 1049.39 -5.20715 -1.17012 0
M  V30 11519 O 1049.61 -5.17028 -2.40911 0
M  V30 11520 O 1048.55 -5.9839 -0.649039 0
M  V30 11521 H 1052.37 -2.95843 0.686329 0
M  V30 11522 H 1049.96 -1.43909 0.401316 0
M  V30 11523 H 1051.84 -3.90862 -1.57496 0
M  V30 11524 H 1050.52 -2.72516 -1.7469 0
M  V30 11525 H 1049.42 -3.72519 0.343531 0
M  V30 11526 H 1050.76 -4.90297 0.432372 0
M  V30 11527 N 1052.41 -0.382291 -1.52893 0
M  V30 11528 C 1053.82 -0.031941 -1.59568 0
M  V30 11529 C 1054.02 1.45245 -1.39664 0
M  V30 11530 O 1053.08 2.21612 -1.21013 0
M  V30 11531 C 1054.39 -0.502846 -2.96466 0
M  V30 11532 C 1055.94 -0.4585 -3.09624 0
M  V30 11533 C 1056.42 -0.905481 -4.4896 0
M  V30 11534 N 1057.91 -0.861211 -4.55124 0
M  V30 11535 C 1058.64 -1.17856 -5.61157 0
M  V30 11536 N 1058.14 -1.56603 -6.74868 0
M  V30 11537 N 1059.93 -1.10027 -5.51226 0
M  V30 11538 H 1052.08 -1.34875 -1.64081 0
M  V30 11539 H 1054.34 -0.552375 -0.770446 0
M  V30 11540 H 1054.05 -1.53931 -3.16225 0
M  V30 11541 H 1053.92 0.101777 -3.77063 0
M  V30 11542 H 1056.31 0.568868 -2.89565 0
M  V30 11543 H 1056.39 -1.09884 -2.30996 0
M  V30 11544 H 1056.04 -1.93105 -4.69759 0
M  V30 11545 H 1055.97 -0.242227 -5.26043 0
M  V30 11546 H 1058.46 -0.575988 -3.73485 0
M  V30 11547 H 1058.77 -1.792 -7.51736 0
M  V30 11548 H 1057.12 -1.60484 -6.76217 0
M  V30 11549 H 1060.31 -0.796623 -4.61272 0
M  V30 11550 H 1060.48 -1.35091 -6.33762 0
M  V30 11551 N 1053.89 1.57202 -0.111913 0
M  V30 11552 C 1055.13 1.9495 0.547795 0
M  V30 11553 C 1055.46 0.994763 1.67137 0
M  V30 11554 O 1054.72 0.0173528 1.95692 0
M  V30 11555 C 1055.01 3.39152 1.12741 0
M  V30 11556 C 1054.68 4.50724 0.125916 0
M  V30 11557 C 1053.34 4.80968 -0.149489 0
M  V30 11558 C 1055.69 5.18215 -0.556987 0
M  V30 11559 C 1053.02 5.76023 -1.1142 0
M  V30 11560 C 1055.37 6.14307 -1.51029 0
M  V30 11561 C 1054.04 6.42947 -1.79375 0
M  V30 11562 H 1053.31 0.713372 0.200453 0
M  V30 11563 H 1055.96 1.90542 -0.191316 0
M  V30 11564 H 1054.26 3.4022 1.94313 0
M  V30 11565 H 1055.96 3.65668 1.64584 0
M  V30 11566 H 1052.55 4.27162 0.350756 0
M  V30 11567 H 1056.73 4.95012 -0.357378 0
M  V30 11568 H 1051.99 5.9652 -1.34064 0
M  V30 11569 H 1056.16 6.65692 -2.04516 0
M  V30 11570 H 1053.79 7.1641 -2.54284 0
M  V30 11571 N 1055.36 -0.161842 1.56767 0
M  V30 11572 C 1056.61 -0.875192 1.82167 0
M  V30 11573 C 1056.93 -1.82367 0.690444 0
M  V30 11574 O 1056.2 -1.93756 -0.289023 0
M  V30 11575 H 1054.78 -0.326178 0.672024 0
M  V30 11576 H 1057.44 -0.159392 1.94247 0
M  V30 11577 H 1056.54 -1.44639 2.76561 0
M  V30 11578 N 1056.84 -1.516 -0.430713 0
M  V30 11579 C 1058.07 -1.687 -1.20644 0
M  V30 11580 C 1058.49 -0.386555 -1.84085 0
M  V30 11581 O 1057.85 0.653952 -1.69095 0
M  V30 11582 C 1057.9 -2.80887 -2.2613 0
M  V30 11583 O 1057 -2.44952 -3.31772 0
M  V30 11584 H 1056.34 -0.562289 -0.353167 0
M  V30 11585 H 1058.87 -1.98198 -0.507807 0
M  V30 11586 H 1058.88 -3.05167 -2.70809 0
M  V30 11587 H 1057.56 -3.75249 -1.79334 0
M  V30 11588 H 1056.13 -2.31267 -2.92523 0
M  V30 11589 N 1058.32 0.686584 -1.41858 0
M  V30 11590 C 1059.25 1.81264 -1.47193 0
M  V30 11591 C 1060.23 1.66875 -0.329657 0
M  V30 11592 O 1061.42 1.86473 -0.542347 0
M  V30 11593 C 1058.55 3.19472 -1.36216 0
M  V30 11594 C 1057.5 3.4858 -2.48347 0
M  V30 11595 C 1056.83 4.86239 -2.22432 0
M  V30 11596 C 1058.13 3.46653 -3.90678 0
M  V30 11597 H 1059.82 1.77057 -2.41436 0
M  V30 11598 H 1057.37 0.850415 -1.16206 0
M  V30 11599 H 1059.32 3.97969 -1.38558 0
M  V30 11600 H 1058.04 3.24327 -0.384611 0
M  V30 11601 H 1056.7 2.72437 -2.45303 0
M  V30 11602 H 1056.35 4.8773 -1.22999 0
M  V30 11603 H 1056.05 5.06677 -2.97577 0
M  V30 11604 H 1057.57 5.67034 -2.26505 0
M  V30 11605 H 1058.99 4.15139 -3.95389 0
M  V30 11606 H 1057.38 3.78625 -4.65578 0
M  V30 11607 H 1058.45 2.45451 -4.18189 0
M  V30 11608 N 1059.8 1.27835 0.921735 0
M  V30 11609 C 1061.03 1.17352 1.704 0
M  V30 11610 C 1061.44 -0.268892 1.86875 0
M  V30 11611 O 1060.8 -1.18253 1.39005 0
M  V30 11612 C 1060.85 1.85889 3.10045 0
M  V30 11613 O 1060.57 3.24495 2.94338 0
M  V30 11614 C 1062.07 1.81607 4.04393 0
M  V30 11615 H 1059.29 0.40773 0.532914 0
M  V30 11616 H 1061.83 1.68815 1.15419 0
M  V30 11617 H 1059.99 1.38316 3.61867 0
M  V30 11618 H 1060.4 3.58705 3.82663 0
M  V30 11619 H 1061.88 2.34165 4.99871 0
M  V30 11620 H 1062.35 0.786697 4.32097 0
M  V30 11621 H 1062.96 2.28822 3.58498 0
M  V30 11622 N 1061.28 -1.12907 1.09954 0
M  V30 11623 C 1062.21 -2.17589 0.687769 0
M  V30 11624 C 1063.19 -1.59648 -0.308444 0
M  V30 11625 O 1064.37 -1.87343 -0.208527 0
M  V30 11626 C 1061.5 -3.38697 0.0140519 0
M  V30 11627 C 1060.54 -4.15254 0.972942 0
M  V30 11628 S 1061.38 -4.74205 2.48777 0
M  V30 11629 C 1062.53 -5.98653 1.82662 0
M  V30 11630 H 1062.77 -2.52181 1.57455 0
M  V30 11631 H 1060.3 -1.24289 0.916051 0
M  V30 11632 H 1062.26 -4.08844 -0.368343 0
M  V30 11633 H 1060.92 -3.02396 -0.849456 0
M  V30 11634 H 1060.11 -5.01999 0.448715 0
M  V30 11635 H 1059.71 -3.5079 1.297 0
M  V30 11636 H 1062 -6.67602 1.15388 0
M  V30 11637 H 1062.95 -6.55693 2.67343 0
M  V30 11638 H 1063.36 -5.49486 1.29325 0
M  V30 11639 N 1062.75 -0.88754 -1.30232 0
M  V30 11640 C 1064.03 -0.427249 -1.90877 0
M  V30 11641 C 1064.41 1.0922 -1.80649 0
M  V30 11642 O 1063.76 1.92866 -1.22536 0
M  V30 11643 C 1063.97 -0.928219 -3.3643 0
M  V30 11644 C 1065.32 -0.964706 -4.13496 0
M  V30 11645 O 1066.34 -0.875057 -3.45284 0
M  V30 11646 O 1065.2 -1.09754 -5.35366 0
M  V30 11647 H 1062.29 -0.131107 -0.816541 0
M  V30 11648 H 1064.84 -0.976609 -1.38782 0
M  V30 11649 H 1063.61 -1.97209 -3.37971 0
M  V30 11650 H 1063.23 -0.358169 -3.95983 0
M  V30 11651 N 1064.23 1.43628 -0.648757 0
M  V30 11652 C 1065.48 2.01465 -0.16002 0
M  V30 11653 C 1065.8 1.51413 1.22878 0
M  V30 11654 O 1065.07 0.724919 1.81994 0
M  V30 11655 H 1063.65 0.744885 -0.0561672 0
M  V30 11656 H 1066.31 1.75897 -0.839422 0
M  V30 11657 H 1065.41 3.1178 -0.141213 0
M  V30 11658 N 1065.71 0.390394 1.52688 0
M  V30 11659 C 1066.96 -0.191067 2.01195 0
M  V30 11660 C 1067.28 -1.47229 1.27862 0
M  V30 11661 O 1066.55 -1.91793 0.399007 0
M  V30 11662 H 1065.13 -0.073596 0.743366 0
M  V30 11663 H 1067.79 0.522334 1.8777 0
M  V30 11664 H 1066.89 -0.40051 3.0952 0
M  V30 11665 N 1067.19 -1.57141 0.120249 0
M  V30 11666 C 1068.12 -2.18398 -0.826112 0
M  V30 11667 C 1069.1 -1.12439 -1.27638 0
M  V30 11668 O 1070.28 -1.40679 -1.33877 0
M  V30 11669 C 1067.41 -2.78438 -2.0758 0
M  V30 11670 C 1066.37 -3.89991 -1.76327 0
M  V30 11671 C 1065.69 -4.36844 -3.08336 0
M  V30 11672 C 1066.99 -5.12031 -1.03062 0
M  V30 11673 H 1068.69 -2.97731 -0.315656 0
M  V30 11674 H 1066.23 -1.43213 -0.150387 0
M  V30 11675 H 1068.19 -3.19951 -2.74243 0
M  V30 11676 H 1066.91 -1.96396 -2.60953 0
M  V30 11677 H 1065.57 -3.49055 -1.12053 0
M  V30 11678 H 1065.22 -3.51659 -3.59646 0
M  V30 11679 H 1064.92 -5.1207 -2.88199 0
M  V30 11680 H 1066.44 -4.81009 -3.76116 0
M  V30 11681 H 1067.86 -5.50555 -1.59881 0
M  V30 11682 H 1066.25 -5.92848 -0.930146 0
M  V30 11683 H 1067.32 -4.84897 -0.017582 0
M  V30 11684 N 1068.67 0.153526 -1.5685 0
M  V30 11685 C 1070.08 0.505939 -1.51368 0
M  V30 11686 C 1070.28 1.83721 -0.82757 0
M  V30 11687 O 1069.34 2.49385 -0.395364 0
M  V30 11688 C 1070.65 0.522269 -2.9613 0
M  V30 11689 C 1072.2 0.608238 -3.07033 0
M  V30 11690 C 1072.67 0.655292 -4.53288 0
M  V30 11691 N 1074.17 0.717695 -4.57606 0
M  V30 11692 C 1074.9 0.774977 -5.68139 0
M  V30 11693 N 1074.4 0.792003 -6.88258 0
M  V30 11694 N 1076.19 0.81536 -5.56155 0
M  V30 11695 H 1068.34 -0.71919 -1.99853 0
M  V30 11696 H 1070.6 -0.261466 -0.91123 0
M  V30 11697 H 1070.31 -0.387595 -3.49558 0
M  V30 11698 H 1070.18 1.3625 -3.51733 0
M  V30 11699 H 1072.57 1.50852 -2.53629 0
M  V30 11700 H 1072.65 -0.259014 -2.54485 0
M  V30 11701 H 1072.3 -0.240809 -5.07329 0
M  V30 11702 H 1072.23 1.53894 -5.03611 0
M  V30 11703 H 1074.72 0.7121 -3.7113 0
M  V30 11704 H 1075.03 0.837378 -7.6825 0
M  V30 11705 H 1073.37 0.759986 -6.90832 0
M  V30 11706 H 1076.57 0.799183 -4.61227 0
M  V30 11707 H 1076.74 0.856537 -6.42314 0
M  V30 11708 N 1070.14 1.51827 0.422667 0
M  V30 11709 C 1071.09 1.74791 1.53463 0
M  V30 11710 C 1072.09 0.614602 1.57858 0
M  V30 11711 O 1073.29 0.796336 1.61426 0
M  V30 11712 H 1069.67 0.552524 0.510118 0
M  V30 11713 H 1071.64 2.67974 1.31273 0
M  V30 11714 C 1070.39 1.90339 2.90975 0
M  V30 11715 H 1069.71 2.76958 2.8833 0
M  V30 11716 H 1071.15 2.10413 3.68106 0
M  V30 11717 C 1069.61 0.66695 3.30232 0
M  V30 11718 O 1070.14 -0.171542 4.01334 0
M  V30 11719 N 1068.35 0.506768 2.86147 0
M  V30 11720 H 1067.89 1.19019 2.28456 0
M  V30 11721 H 1067.85 -0.319247 3.12775 0
M  V30 11722 N 1071.62 -0.679052 1.4222 0
M  V30 11723 C 1072.87 -1.44125 1.42674 0
M  V30 11724 C 1073.2 -1.94156 0.041438 0
M  V30 11725 O 1072.48 -1.70628 -0.93361 0
M  V30 11726 C 1072.76 -2.64133 2.44756 0
M  V30 11727 C 1072.61 -2.19761 3.9246 0
M  V30 11728 C 1073.93 -3.66347 2.43881 0
M  V30 11729 H 1071.05 -0.522729 0.519541 0
M  V30 11730 H 1073.69 -0.772067 1.73606 0
M  V30 11731 H 1071.84 -3.21225 2.1851 0
M  V30 11732 H 1073.51 -1.67869 4.29671 0
M  V30 11733 H 1071.76 -1.51377 4.06531 0
M  V30 11734 H 1072.43 -3.05944 4.59459 0
M  V30 11735 H 1074.9 -3.18963 2.67211 0
M  V30 11736 H 1073.78 -4.47902 3.17293 0
M  V30 11737 H 1074.04 -4.17183 1.46325 0
M  V30 11738 N 1073.1 -1.28322 -0.914942 0
M  V30 11739 C 1074.38 -1.06111 -1.64316 0
M  V30 11740 C 1074.76 0.399934 -2.07277 0
M  V30 11741 O 1074.11 1.38577 -1.81683 0
M  V30 11742 C 1074.32 -2.03461 -2.83557 0
M  V30 11743 C 1075.66 -2.33541 -3.54604 0
M  V30 11744 O 1076.69 -2.01536 -2.93704 0
M  V30 11745 O 1075.55 -2.88158 -4.64357 0
M  V30 11746 H 1072.64 -0.405451 -0.72079 0
M  V30 11747 H 1075.19 -1.39636 -0.964352 0
M  V30 11748 H 1073.96 -3.01938 -2.48896 0
M  V30 11749 H 1073.58 -1.70574 -3.59152 0
M  V30 11750 N 1074.58 1.12322 -1.10551 0
M  V30 11751 C 1075.82 1.85497 -0.858492 0
M  V30 11752 C 1076.18 1.8222 0.604966 0
M  V30 11753 O 1077.38 2.5075 0.968382 0
M  V30 11754 C 1075.65 3.29124 -1.39327 0
M  V30 11755 S 1077.21 4.19659 -1.28186 0
M  V30 11756 H 1074.03 0.639768 -0.31019 0
M  V30 11757 H 1076.63 1.35298 -1.41119 0
M  V30 11758 H 1075.34 3.29069 -2.45238 0
M  V30 11759 H 1074.87 3.84388 -0.837203 0
M  V30 11760 H 1076.88 4.95618 -0.240325 0
M  V30 11761 N 1076.06 0.894434 1.2976 0
M  V30 11762 C 1076.99 0.3847 2.30309 0
M  V30 11763 C 1077.97 -0.537486 1.61385 0
M  V30 11764 O 1079.15 -0.449332 1.8893 0
M  V30 11765 C 1076.28 -0.393311 3.45066 0
M  V30 11766 C 1075.24 0.437968 4.25753 0
M  V30 11767 C 1074.56 -0.467221 5.32655 0
M  V30 11768 C 1075.86 1.6851 4.9437 0
M  V30 11769 H 1077.56 1.22496 2.73194 0
M  V30 11770 H 1075.1 0.590471 1.31337 0
M  V30 11771 H 1077.06 -0.760614 4.14479 0
M  V30 11772 H 1075.78 -1.2673 3.0101 0
M  V30 11773 H 1074.44 0.787533 3.58041 0
M  V30 11774 H 1074.09 -1.33919 4.84845 0
M  V30 11775 H 1073.79 0.0852482 5.87538 0
M  V30 11776 H 1075.31 -0.830833 6.04921 0
M  V30 11777 H 1076.72 1.38784 5.56248 0
M  V30 11778 H 1075.12 2.17849 5.59162 0
M  V30 11779 H 1076.19 2.42412 4.19958 0
M  V30 11780 O 1077.57 -1.40528 0.795872 0
M  V30 11781 H 1078.26 -1.90166 0.368301 0
M  V30 END ATOM
M  V30 BEGIN BOND
M  V30 END BOND
M  V30 END CTAB
M  END
$$$$
